drugbank_target|P19823 Inter-alpha-trypsin inhibitor heavy chain H2 (DB01593; DB09130; DB14487; DB14533; DB14548)
 OpenBabel12092121073D

  0  0  0     0  0            999 V3000
M  V30 BEGIN CTAB
M  V30 COUNTS 14994 15163 0 0 0
M  V30 BEGIN ATOM
M  V30 1 H -0.908 1.98254 -0.117106 0
M  V30 2 N 0 1.576 0 0
M  V30 3 C 0.933 2.03868 1.02534 0
M  V30 4 C 1.911 0.928543 1.3348 0
M  V30 5 O 3.095 1.19667 1.45644 0
M  V30 6 C 0.222 2.43627 2.35294 0
M  V30 7 C -0.732 3.65373 2.2001 0
M  V30 8 S 0.101 5.13292 1.52614 0
M  V30 9 C 1.257 5.56322 2.86805 0
M  V30 10 H 1.49 2.90518 0.631377 0
M  V30 11 H -0.977 1.52953 0.210867 0
M  V30 12 H 0.981 2.67203 3.11629 0
M  V30 13 H -0.358 1.57376 2.7183 0
M  V30 14 H -1.165 3.90944 3.18086 0
M  V30 15 H -1.563 3.418 1.51819 0
M  V30 16 H 0.729 5.58782 3.83104 0
M  V30 17 H 1.672 6.56266 2.65933 0
M  V30 18 H 2.08 4.83886 2.90714 0
M  V30 19 N 1.4781 -0.272755 1.55222 0
M  V30 20 C 2.4251 -1.33716 1.88119 0
M  V30 21 C 3.3951 -1.49066 0.73271 0
M  V30 22 O 4.5801 -1.63469 0.984002 0
M  V30 23 C 1.7201 -2.69238 2.15882 0
M  V30 24 C 0.8331 -2.62108 3.43399 0
M  V30 25 C -0.0319 -3.89811 3.60861 0
M  V30 26 C -0.9929 -3.77193 4.8207 0
M  V30 27 N -1.8559 -4.9673 4.96189 0
M  V30 28 H 2.9841 -1.04962 2.78903 0
M  V30 29 H 0.5211 -0.507088 1.38083 0
M  V30 30 H 2.4791 -3.48089 2.29978 0
M  V30 31 H 1.1091 -2.96194 1.28331 0
M  V30 32 H 0.1611 -1.74967 3.37773 0
M  V30 33 H 1.4731 -2.48685 4.32386 0
M  V30 34 H 0.6271 -4.77103 3.74777 0
M  V30 35 H -0.6339 -4.06102 2.7006 0
M  V30 36 H -1.6289 -2.88284 4.68159 0
M  V30 37 H -0.4039 -3.62421 5.74307 0
M  V30 38 H -2.4579 -5.13431 4.08319 0
M  V30 39 H -2.5409 -4.85839 5.79221 0
M  V30 40 H -1.2729 -5.85594 5.1449 0
M  V30 41 N 2.9562 -1.48159 -0.537278 0
M  V30 42 C 4.3722 -1.34118 -0.865129 0
M  V30 43 C 4.5722 -0.346678 -1.98495 0
M  V30 44 O 3.6282 0.234715 -2.51407 0
M  V30 45 C 4.9412 -2.73963 -1.23954 0
M  V30 46 C 6.4892 -2.82397 -1.34984 0
M  V30 47 C 6.9642 -4.22928 -1.75772 0
M  V30 48 N 8.4552 -4.25566 -1.82887 0
M  V30 49 C 9.1902 -5.31235 -2.15817 0
M  V30 50 N 8.6862 -6.47189 -2.47222 0
M  V30 51 N 10.4792 -5.18624 -2.16761 0
M  V30 52 H 2.6302 -2.1144 0.201715 0
M  V30 53 H 4.8932 -0.947598 0.0275949 0
M  V30 54 H 4.5992 -3.48264 -0.490381 0
M  V30 55 H 4.4732 -3.0702 -2.19132 0
M  V30 56 H 6.8602 -2.08356 -2.08978 0
M  V30 57 H 6.9412 -2.5297 -0.379448 0
M  V30 58 H 6.5852 -4.97482 -1.02341 0
M  V30 59 H 6.5152 -4.49794 -2.73848 0
M  V30 60 H 9.0062 -3.41924 -1.60924 0
M  V30 61 H 9.3192 -7.23564 -2.71433 0
M  V30 62 H 7.6642 -6.50476 -2.44757 0
M  V30 63 H 10.8552 -4.27056 -1.91679 0
M  V30 64 H 11.0282 -6.01078 -2.42093 0
M  V30 65 N 4.4343 0.785586 -1.36625 0
M  V30 66 C 5.3643 1.91259 -1.33949 0
M  V30 67 C 6.3453 1.68795 -0.210325 0
M  V30 68 O 7.5303 1.89854 -0.408561 0
M  V30 69 C 4.6603 3.28339 -1.13186 0
M  V30 70 C 3.6143 3.65335 -2.22967 0
M  V30 71 C 2.9403 5.00806 -1.87342 0
M  V30 72 C 4.2403 3.7352 -3.65075 0
M  V30 73 H 5.9343 1.93755 -2.28253 0
M  V30 74 H 3.4803 0.930788 -1.09874 0
M  V30 75 H 5.4333 4.06804 -1.09948 0
M  V30 76 H 4.1573 3.2624 -0.153332 0
M  V30 77 H 2.8163 2.89169 -2.25337 0
M  V30 78 H 2.4643 4.95233 -0.880545 0
M  V30 79 H 2.1643 5.26529 -2.60846 0
M  V30 80 H 3.6883 5.81687 -1.85667 0
M  V30 81 H 5.1023 4.42168 -3.64911 0
M  V30 82 H 3.4993 4.10731 -4.37516 0
M  V30 83 H 4.5693 2.74527 -3.99703 0
M  V30 84 N 5.9124 1.20967 1.01018 0
M  V30 85 C 7.1404 1.04956 1.78303 0
M  V30 86 C 7.5554 -0.400915 1.84494 0
M  V30 87 O 6.9124 -1.27826 1.30257 0
M  V30 88 C 6.9634 1.63403 3.22462 0
M  V30 89 O 6.6844 3.02775 3.16637 0
M  V30 90 C 8.1854 1.52432 4.16268 0
M  V30 91 H 5.4054 0.368858 0.560522 0
M  V30 92 H 7.9494 1.60193 1.27116 0
M  V30 93 H 6.1044 1.1227 3.70775 0
M  V30 94 H 6.5184 3.30626 4.07169 0
M  V30 95 H 7.9924 1.98078 5.15237 0
M  V30 96 H 8.4694 0.477875 4.36592 0
M  V30 97 H 9.0754 2.02787 3.73841 0
M  V30 98 N 7.3905 -1.2043 1.01659 0
M  V30 99 C 8.6305 -1.91507 0.714456 0
M  V30 100 C 8.9945 -1.77073 -0.742237 0
M  V30 101 O 10.1955 -2.42631 -1.15688 0
M  V30 102 C 8.4665 -3.38795 1.13809 0
M  V30 103 S 10.0255 -4.28216 0.957925 0
M  V30 104 H 6.8435 -0.661571 0.260471 0
M  V30 105 H 9.4455 -1.45671 1.30384 0
M  V30 106 H 8.1495 -3.46822 2.19415 0
M  V30 107 H 7.6805 -3.89656 0.541474 0
M  V30 108 H 9.6955 -4.96007 -0.138531 0
M  V30 109 N 8.8686 -0.792821 -1.36206 0
M  V30 110 C 10.1156 -0.366786 -1.99151 0
M  V30 111 C 10.4436 1.06243 -1.62919 0
M  V30 112 O 9.6986 1.74927 -0.877442 0
M  V30 113 C 9.9976 -0.481501 -3.54142 0
M  V30 114 C 9.6636 -1.87202 -4.10203 0
M  V30 115 C 8.3256 -2.25248 -4.25226 0
M  V30 116 C 10.6776 -2.78237 -4.40719 0
M  V30 117 C 8.0056 -3.53723 -4.68078 0
M  V30 118 C 10.3576 -4.06144 -4.85005 0
M  V30 119 C 9.0216 -4.44207 -4.98234 0
M  V30 120 H 8.2916 -0.134217 -0.728743 0
M  V30 121 H 10.9386 -1.01094 -1.62641 0
M  V30 122 H 9.2436 0.246146 -3.91026 0
M  V30 123 H 10.9406 -0.132844 -4.0078 0
M  V30 124 H 7.5306 -1.56639 -3.98951 0
M  V30 125 H 11.7146 -2.50097 -4.28679 0
M  V30 126 H 6.9706 -3.8308 -4.76508 0
M  V30 127 H 11.1446 -4.76796 -5.07581 0
M  V30 128 H 8.7716 -5.43814 -5.31197 0
M  V30 129 N 10.3467 1.47872 -0.545128 0
M  V30 130 C 11.5937 2.02493 -0.0165858 0
M  V30 131 C 11.9217 1.42073 1.32836 0
M  V30 132 O 11.1767 0.561459 1.87473 0
M  V30 133 C 11.4757 3.57131 0.13867 0
M  V30 134 C 11.1417 4.36411 -1.13384 0
M  V30 135 C 9.8037 4.57792 -1.48256 0
M  V30 136 C 12.1557 4.82223 -1.97764 0
M  V30 137 C 9.4837 5.22233 -2.67376 0
M  V30 138 C 11.8357 5.47977 -3.16076 0
M  V30 139 C 10.4997 5.67593 -3.51275 0
M  V30 140 H 9.7697 0.740975 -0.00606918 0
M  V30 141 H 12.4167 1.77683 -0.714207 0
M  V30 142 H 10.7217 3.80865 0.919172 0
M  V30 143 H 12.4187 3.97031 0.562782 0
M  V30 144 H 9.0087 4.2004 -0.852297 0
M  V30 145 H 13.1927 4.65493 -1.72132 0
M  V30 146 H 8.4487 5.35616 -2.94831 0
M  V30 147 H 12.6227 5.8244 -3.81755 0
M  V30 148 H 10.2497 6.17298 -4.43675 0
M  V30 149 N 11.8248 0.280983 1.55075 0
M  V30 150 C 13.0738 -0.334784 1.98902 0
M  V30 151 C 13.3868 -1.56534 1.17288 0
M  V30 152 O 14.5928 -2.25443 1.51287 0
M  V30 153 C 13.0488 -0.646994 3.54037 0
M  V30 154 C 12.6568 0.564085 4.44435 0
M  V30 155 C 14.4008 -1.22506 4.06439 0
M  V30 156 C 12.3078 0.226137 5.90967 0
M  V30 157 H 11.2378 -0.128866 0.742906 0
M  V30 158 H 13.8888 0.386556 1.79382 0
M  V30 159 H 12.2708 -1.42739 3.6938 0
M  V30 160 H 13.4448 1.34082 4.40861 0
M  V30 161 H 11.7598 1.0594 4.02698 0
M  V30 162 H 14.3568 -1.49182 5.13468 0
M  V30 163 H 14.6998 -2.16085 3.55827 0
M  V30 164 H 15.2328 -0.50682 3.94558 0
M  V30 165 H 11.9718 1.12996 6.45687 0
M  V30 166 H 11.4918 -0.513717 5.97596 0
M  V30 167 H 13.1708 -0.179539 6.46751 0
M  V30 168 N 13.3029 -1.57598 0.00835791 0
M  V30 169 C 14.5429 -1.92788 -0.679136 0
M  V30 170 C 14.9069 -0.883378 -1.70471 0
M  V30 171 O 16.1079 -1.12079 -2.44319 0
M  V30 172 C 14.3789 -3.32994 -1.29807 0
M  V30 173 S 15.9379 -3.90082 -2.00952 0
M  V30 174 H 12.7559 -0.67475 -0.224127 0
M  V30 175 H 15.3579 -1.95385 0.0670497 0
M  V30 176 H 14.0619 -4.06846 -0.538922 0
M  V30 177 H 13.5929 -3.33791 -2.082 0
M  V30 178 H 15.6079 -3.71834 -3.28563 0
M  V30 179 N 14.781 0.264519 -1.55364 0
M  V30 180 C 16.028 0.994986 -1.7637 0
M  V30 181 C 16.356 1.85976 -0.5695 0
M  V30 182 O 15.611 1.90509 0.44776 0
M  V30 183 C 15.91 1.9004 -3.02687 0
M  V30 184 C 15.576 1.19243 -4.34847 0
M  V30 185 C 14.238 0.996709 -4.70764 0
M  V30 186 C 16.59 0.689296 -5.16622 0
M  V30 187 C 13.918 0.285261 -5.86006 0
M  V30 188 C 16.27 -0.00860079 -6.32599 0
M  V30 189 C 14.934 -0.215963 -6.67151 0
M  V30 190 H 14.204 0.364091 -0.645383 0
M  V30 191 H 16.851 0.266543 -1.89636 0
M  V30 192 H 15.156 2.69533 -2.84357 0
M  V30 193 H 16.853 2.46695 -3.16137 0
M  V30 194 H 13.443 1.3549 -4.06621 0
M  V30 195 H 17.627 0.828108 -4.89342 0
M  V30 196 H 12.883 0.113961 -6.11294 0
M  V30 197 H 17.057 -0.406186 -6.95214 0
M  V30 198 H 14.684 -0.769217 -7.56298 0
M  V30 199 N 16.2591 1.48442 0.529413 0
M  V30 200 C 17.5061 1.56488 1.28521 0
M  V30 201 C 17.8341 0.239042 1.93025 0
M  V30 202 O 17.0891 -0.770713 1.79885 0
M  V30 203 C 17.3881 2.6523 2.39558 0
M  V30 204 C 17.0541 4.07648 1.92702 0
M  V30 205 C 15.7161 4.46411 1.79641 0
M  V30 206 C 18.0681 4.96896 1.573 0
M  V30 207 C 15.3961 5.72226 1.29514 0
M  V30 208 C 17.7481 6.23202 1.08636 0
M  V30 209 C 16.4121 6.60821 0.941919 0
M  V30 210 H 15.6821 0.572631 0.470292 0
M  V30 211 H 18.3291 1.82161 0.59072 0
M  V30 212 H 16.6341 2.33419 3.14679 0
M  V30 213 H 18.3311 2.68671 2.97686 0
M  V30 214 H 14.9211 3.77036 2.03819 0
M  V30 215 H 19.1051 4.67626 1.66251 0
M  V30 216 H 14.3611 6.00097 1.17019 0
M  V30 217 H 18.5351 6.91753 0.803136 0
M  V30 218 H 16.1621 7.58198 0.5513 0
M  V30 219 N 17.7372 -0.778329 1.37039 0
M  V30 220 C 18.6672 -1.90546 1.34962 0
M  V30 221 C 19.6482 -1.68681 0.219274 0
M  V30 222 O 20.8332 -1.89634 0.418624 0
M  V30 223 C 17.9632 -3.27734 1.14925 0
M  V30 224 C 16.9172 -3.64147 2.24902 0
M  V30 225 C 16.2432 -4.99806 1.89996 0
M  V30 226 C 17.5432 -3.71579 3.67051 0
M  V30 227 H 19.2372 -1.92541 2.29277 0
M  V30 228 H 16.7832 -0.924948 1.10366 0
M  V30 229 H 18.7362 -4.06215 1.12104 0
M  V30 230 H 17.4602 -3.26154 0.170631 0
M  V30 231 H 16.1192 -2.8797 2.26868 0
M  V30 232 H 15.7672 -4.94759 0.906796 0
M  V30 233 H 15.4672 -5.25139 2.63634 0
M  V30 234 H 16.9912 -5.80694 1.88749 0
M  V30 235 H 18.4052 -4.40227 3.67251 0
M  V30 236 H 16.8022 -4.08405 4.39688 0
M  V30 237 H 17.8722 -2.72404 4.01154 0
M  V30 238 N 19.2153 -1.21501 -1.00376 0
M  V30 239 C 20.4403 -1.05977 -1.78279 0
M  V30 240 C 20.8653 0.385994 -1.84097 0
M  V30 241 O 20.2233 1.27849 -1.28547 0
M  V30 242 C 20.2713 -1.66302 -3.19963 0
M  V30 243 O 19.3753 -0.909333 -4.0225 0
M  V30 244 H 18.7163 -0.372906 -0.549397 0
M  V30 245 H 21.2463 -1.6107 -1.26165 0
M  V30 246 H 21.2563 -1.70574 -3.70632 0
M  V30 247 H 19.9313 -2.71515 -3.15043 0
M  V30 248 H 18.5083 -0.941795 -3.60811 0
M  V30 249 N 20.6934 1.19889 -1.02296 0
M  V30 250 C 21.6034 2.26571 -0.608508 0
M  V30 251 C 22.6194 1.70299 0.356964 0
M  V30 252 O 23.7954 2.00235 0.216326 0
M  V30 253 C 20.8604 3.46677 0.0402814 0
M  V30 254 C 19.9214 4.18153 -0.97194 0
M  V30 255 C 19.1544 5.32525 -0.354016 0
M  V30 256 O 19.3774 5.64112 0.844604 0
M  V30 257 O 18.3114 5.92242 -1.07391 0
M  V30 258 H 22.1374 2.64251 -1.49684 0
M  V30 259 H 19.7224 1.26629 -0.792809 0
M  V30 260 H 21.6044 4.19475 0.402324 0
M  V30 261 H 20.2794 3.10858 0.902707 0
M  V30 262 H 19.1864 3.47499 -1.38546 0
M  V30 263 H 20.5194 4.57927 -1.80454 0
M  V30 264 N 22.1715 0.800033 1.35784 0
M  V30 265 C 23.4175 0.377901 1.99248 0
M  V30 266 C 23.7505 -1.05052 1.63333 0
M  V30 267 O 23.0255 -1.72768 0.893385 0
M  V30 268 C 23.3085 0.553922 3.55814 0
M  V30 269 C 23.1615 2.0268 4.01548 0
M  V30 270 C 24.4805 -0.0244802 4.40093 0
M  V30 271 H 21.5995 0.138782 0.723815 0
M  V30 272 H 24.2415 1.00835 1.61035 0
M  V30 273 H 22.3915 0.0172398 3.88496 0
M  V30 274 H 24.0635 2.62536 3.79305 0
M  V30 275 H 22.3065 2.5256 3.52698 0
M  V30 276 H 22.9775 2.10087 5.10458 0
M  V30 277 H 25.4535 0.433775 4.13833 0
M  V30 278 H 24.3295 0.128637 5.48749 0
M  V30 279 H 24.5905 -1.11758 4.27741 0
M  V30 280 N 23.6496 -1.47581 0.552962 0
M  V30 281 C 24.8746 -2.07378 0.0300593 0
M  V30 282 C 25.2996 -1.40355 -1.25229 0
M  V30 283 O 24.6576 -0.477099 -1.7491 0
M  V30 284 C 24.7056 -3.60274 -0.153231 0
M  V30 285 O 23.8096 -3.94041 -1.21678 0
M  V30 286 H 23.1506 -0.662158 0.0494182 0
M  V30 287 H 25.6806 -1.89662 0.767434 0
M  V30 288 H 25.6906 -4.0633 -0.368761 0
M  V30 289 H 24.3656 -4.08455 0.783397 0
M  V30 290 H 22.9426 -3.59735 -0.982079 0
M  V30 291 N 25.1277 -0.289203 -1.54924 0
M  V30 292 C 26.3757 0.322879 -1.99504 0
M  V30 293 C 26.6967 1.55313 -1.1791 0
M  V30 294 O 25.9667 1.94001 -0.272097 0
M  V30 295 H 24.5467 0.122291 -0.736922 0
M  V30 296 H 27.2087 -0.397802 -1.90797 0
M  V30 297 H 26.3047 0.603061 -3.06218 0
M  V30 298 N 26.6058 1.57591 -0.0167156 0
M  V30 299 C 27.8528 1.91283 0.664597 0
M  V30 300 C 28.1808 0.891949 1.72842 0
M  V30 301 O 27.4358 -0.100931 1.9544 0
M  V30 302 C 27.7348 3.3172 1.33029 0
M  V30 303 C 27.4008 4.4914 0.398047 0
M  V30 304 C 26.0628 4.80992 0.141421 0
M  V30 305 C 28.4148 5.20634 -0.242825 0
M  V30 306 C 25.7428 5.81703 -0.764092 0
M  V30 307 C 28.0948 6.22311 -1.13632 0
M  V30 308 C 26.7588 6.52611 -1.40196 0
M  V30 309 H 26.0288 0.699956 0.243193 0
M  V30 310 H 28.6758 1.9135 -0.0758267 0
M  V30 311 H 26.9808 3.27856 2.14517 0
M  V30 312 H 28.6778 3.55055 1.86379 0
M  V30 313 H 25.2678 4.24262 0.608238 0
M  V30 314 H 29.4518 4.96267 -0.0576019 0
M  V30 315 H 24.7078 6.03532 -0.977732 0
M  V30 316 H 28.8818 6.76834 -1.63917 0
M  V30 317 H 26.5088 7.30467 -2.10529 0
M  V30 318 N 28.0839 -0.256276 1.55502 0
M  V30 319 C 28.9939 -1.33882 1.92647 0
M  V30 320 C 30.0099 -1.53159 0.825727 0
M  V30 321 O 31.1859 -1.66963 1.12629 0
M  V30 322 C 28.2509 -2.6751 2.20543 0
M  V30 323 C 27.3119 -2.56836 3.43997 0
M  V30 324 C 26.5449 -3.84092 3.70553 0
M  V30 325 O 26.7679 -4.85545 2.99336 0
M  V30 326 O 25.7019 -3.83288 4.64084 0
M  V30 327 H 29.5279 -1.05374 2.84833 0
M  V30 328 H 27.1129 -0.456237 1.42263 0
M  V30 329 H 28.9949 -3.46492 2.39835 0
M  V30 330 H 27.6699 -2.9577 1.31536 0
M  V30 331 H 26.5769 -1.76172 3.30021 0
M  V30 332 H 27.9099 -2.33523 4.33275 0
M  V30 333 N 29.562 -1.4872 -0.521534 0
M  V30 334 C 30.811 -1.56419 -1.27341 0
M  V30 335 C 31.124 -0.246805 -1.94037 0
M  V30 336 O 32.33 -0.202122 -2.70747 0
M  V30 337 C 30.786 -2.75896 -2.31105 0
M  V30 338 C 30.394 -4.14311 -1.70441 0
M  V30 339 C 32.138 -2.92913 -3.07249 0
M  V30 340 C 30.045 -5.25038 -2.72194 0
M  V30 341 H 28.975 -0.582344 -0.478949 0
M  V30 342 H 31.626 -1.75071 -0.549779 0
M  V30 343 H 30.008 -2.50697 -3.06541 0
M  V30 344 H 31.182 -4.49564 -1.01136 0
M  V30 345 H 29.497 -4.02482 -1.06759 0
M  V30 346 H 32.094 -3.72805 -3.83302 0
M  V30 347 H 32.437 -2.02689 -3.63625 0
M  V30 348 H 32.97 -3.18054 -2.38928 0
M  V30 349 H 29.709 -6.17255 -2.20627 0
M  V30 350 H 29.229 -4.94263 -3.39801 0
M  V30 351 H 30.908 -5.53508 -3.35019 0
M  V30 352 N 31.0401 0.771051 -1.3745 0
M  V30 353 C 32.4511 1.34737 -1.29239 0
M  V30 354 C 32.8021 1.96109 0.0596908 0
M  V30 355 O 31.9271 1.93865 0.961534 0
M  V30 356 C 32.5221 2.44973 -2.34037 0
M  V30 357 C 31.0811 2.98372 -2.29458 0
M  V30 358 C 30.2281 1.71595 -2.17831 0
M  V30 359 H 33.1791 0.571256 -1.48062 0
M  V30 360 H 33.2001 3.24471 -1.98744 0
M  V30 361 H 32.7121 2.00276 -3.32432 0
M  V30 362 H 30.8131 3.47443 -1.34589 0
M  V30 363 H 30.9261 3.53939 -3.229 0
M  V30 364 H 29.2901 1.94547 -1.64388 0
M  V30 365 H 30.0731 1.29001 -3.18141 0
M  V30 366 N 32.5182 1.22032 0.997298 0
M  V30 367 C 33.7672 1.03637 1.73038 0
M  V30 368 C 34.0802 -0.429475 1.90827 0
M  V30 369 O 35.2862 -0.732995 2.61418 0
M  V30 370 C 33.7422 1.80582 3.11317 0
M  V30 371 C 33.3502 3.31387 3.01474 0
M  V30 372 C 35.0942 1.70621 3.88701 0
M  V30 373 C 33.0012 4.00791 4.3488 0
M  V30 374 H 31.9312 0.384179 0.648785 0
M  V30 375 H 34.5822 1.4584 1.11368 0
M  V30 376 H 32.9642 1.31175 3.73643 0
M  V30 377 H 34.1382 3.88155 2.4834 0
M  V30 378 H 32.4532 3.41976 2.37575 0
M  V30 379 H 35.0502 2.19799 4.87434 0
M  V30 380 H 35.3932 0.665823 4.10941 0
M  V30 381 H 35.9262 2.17547 3.33044 0
M  V30 382 H 32.6652 5.05064 4.1784 0
M  V30 383 H 32.1852 3.48811 4.87945 0
M  V30 384 H 33.8642 4.06139 5.03647 0
M  V30 385 N 33.9963 -1.19345 1.0293 0
M  V30 386 C 34.9443 -2.24621 0.604001 0
M  V30 387 C 35.9383 -1.65452 -0.363587 0
M  V30 388 O 37.1443 -1.78497 -0.23212 0
M  V30 389 H 33.5193 -0.730858 0.177061 0
M  V30 390 H 35.4903 -2.5781 1.50255 0
M  V30 391 C 34.2393 -3.47688 -0.0289127 0
M  V30 392 H 33.5623 -3.93505 0.706651 0
M  V30 393 H 35.0023 -4.23011 -0.289432 0
M  V30 394 C 33.4613 -3.11817 -1.2756 0
M  V30 395 O 33.9913 -3.2451 -2.36762 0
M  V30 396 N 32.1973 -2.66246 -1.16453 0
M  V30 397 H 31.7443 -2.56118 -0.275914 0
M  V30 398 H 31.7023 -2.42617 -1.99961 0
M  V30 399 N 35.4744 -0.807222 -1.35358 0
M  V30 400 C 36.7224 -0.387122 -1.98358 0
M  V30 401 C 37.0434 1.04942 -1.64354 0
M  V30 402 O 36.3134 1.72615 -0.926339 0
M  V30 403 H 34.8934 -0.140154 -0.733734 0
M  V30 404 H 37.5554 -1.0332 -1.6526 0
M  V30 405 H 36.6514 -0.493352 -3.08176 0
M  V30 406 N 36.9525 1.47285 -0.560781 0
M  V30 407 C 37.8825 2.32857 0.173105 0
M  V30 408 C 38.8635 1.44009 0.905281 0
M  V30 409 O 40.0485 1.7286 0.885046 0
M  V30 410 C 37.1785 3.25861 1.20133 0
M  V30 411 C 36.1325 4.23978 0.585388 0
M  V30 412 C 35.4585 5.06332 1.7185 0
M  V30 413 C 36.7585 5.20242 -0.463178 0
M  V30 414 H 38.4525 2.94466 -0.541307 0
M  V30 415 H 35.9985 1.41601 -0.261764 0
M  V30 416 H 37.9515 3.84569 1.72293 0
M  V30 417 H 36.6755 2.62315 1.94573 0
M  V30 418 H 35.3345 3.66501 0.085054 0
M  V30 419 H 34.9825 4.39186 2.45203 0
M  V30 420 H 34.6825 5.72762 1.31213 0
M  V30 421 H 36.2065 5.67899 2.24329 0
M  V30 422 H 37.6205 5.73293 -0.027502 0
M  V30 423 H 36.0175 5.94896 -0.788627 0
M  V30 424 H 37.0875 4.65504 -1.35773 0
M  V30 425 N 38.4306 0.297415 1.54768 0
M  V30 426 C 39.6556 -0.318435 2.04941 0
M  V30 427 C 40.0806 -1.4701 1.17345 0
M  V30 428 O 39.4386 -1.80436 0.176758 0
M  V30 429 C 39.4866 -0.755749 3.52592 0
M  V30 430 O 38.5906 -1.86088 3.68028 0
M  V30 431 H 37.9316 -0.062421 0.661059 0
M  V30 432 H 40.4616 0.438215 1.99852 0
M  V30 433 H 40.4716 -1.04552 3.94376 0
M  V30 434 H 39.1466 0.0867233 4.1581 0
M  V30 435 H 37.7236 -1.57193 3.38149 0
M  V30 436 N 39.9087 -1.5758 0.0250728 0
M  V30 437 C 40.8187 -2.1343 -0.973905 0
M  V30 438 C 41.8347 -1.08556 -1.35984 0
M  V30 439 O 43.0107 -1.40592 -1.44207 0
M  V30 440 C 40.0757 -2.64703 -2.23904 0
M  V30 441 C 39.1367 -3.84276 -1.91391 0
M  V30 442 C 38.3697 -4.33095 -3.11873 0
M  V30 443 O 38.5927 -3.81107 -4.24398 0
M  V30 444 O 37.5267 -5.24984 -2.94406 0
M  V30 445 H 41.3527 -2.99057 -0.529036 0
M  V30 446 H 38.9377 -1.48118 -0.195288 0
M  V30 447 H 40.8197 -2.97769 -2.98181 0
M  V30 448 H 39.4947 -1.82161 -2.6758 0
M  V30 449 H 38.4017 -3.56143 -1.14511 0
M  V30 450 H 39.7347 -4.67968 -1.52534 0
M  V30 451 N 41.3868 0.248026 -1.55636 0
M  V30 452 C 42.6338 0.976224 -1.77415 0
M  V30 453 C 42.9618 1.85361 -0.589193 0
M  V30 454 O 42.2168 1.90973 0.427529 0
M  V30 455 C 42.5158 1.86819 -3.04686 0
M  V30 456 C 42.1818 1.14625 -4.36087 0
M  V30 457 C 40.8438 0.946723 -4.71795 0
M  V30 458 C 43.1958 0.634463 -5.17324 0
M  V30 459 C 40.5238 0.223091 -5.86276 0
M  V30 460 C 42.8758 -0.0756959 -6.32555 0
M  V30 461 C 41.5398 -0.286711 -6.66884 0
M  V30 462 H 40.8098 0.357226 -0.649208 0
M  V30 463 H 43.4568 0.246415 -1.89908 0
M  V30 464 H 41.7618 2.66502 -2.872 0
M  V30 465 H 43.4588 2.43329 -3.18735 0
M  V30 466 H 40.0488 1.3117 -4.08035 0
M  V30 467 H 44.2328 0.77616 -4.90193 0
M  V30 468 H 39.4888 0.0491185 -6.1138 0
M  V30 469 H 43.6628 -0.479899 -6.94745 0
M  V30 470 H 41.2898 -0.849389 -7.5544 0
M  V30 471 N 42.8649 1.48995 0.513639 0
M  V30 472 C 44.1109 1.58076 1.27042 0
M  V30 473 C 44.4439 0.261026 1.92438 0
M  V30 474 O 43.7189 -0.734393 1.80103 0
M  V30 475 C 44.0019 2.73091 2.34719 0
M  V30 476 C 43.8549 4.14821 1.73907 0
M  V30 477 C 45.1739 2.83796 3.36375 0
M  V30 478 H 42.2929 0.575391 0.460536 0
M  V30 479 H 44.9349 1.81232 0.570516 0
M  V30 480 H 43.0849 2.53479 2.94416 0
M  V30 481 H 44.7569 4.45917 1.18135 0
M  V30 482 H 42.9999 4.21058 1.0437 0
M  V30 483 H 43.6709 4.91147 2.51949 0
M  V30 484 H 46.1469 3.01611 2.86653 0
M  V30 485 H 45.0229 3.65971 4.09093 0
M  V30 486 H 45.2839 1.92624 3.9793 0
M  V30 487 N 44.343 -0.763751 1.37857 0
M  V30 488 C 45.62 -1.51244 1.24035 0
M  V30 489 C 46 -2.10472 -0.162649 0
M  V30 490 O 45.348 -1.96206 -1.17112 0
M  V30 491 C 45.558 -2.58694 2.34261 0
M  V30 492 C 46.906 -3.25878 2.72193 0
M  V30 493 O 47.93 -2.68993 2.33497 0
M  V30 494 O 46.789 -4.2874 3.38887 0
M  V30 495 H 43.883 -0.670243 0.484462 0
M  V30 496 H 46.429 -0.800031 1.49658 0
M  V30 497 H 45.201 -2.13105 3.2818 0
M  V30 498 H 44.824 -3.37527 2.10146 0
M  V30 499 N 45.8211 -1.22559 -0.990812 0
M  V30 500 C 47.0511 -1.07623 -1.76355 0
M  V30 501 C 47.4591 0.37601 -1.85426 0
M  V30 502 O 46.8021 1.27228 -1.32509 0
M  V30 503 C 46.8641 -1.61507 -3.21179 0
M  V30 504 C 46.5281 -3.10146 -3.35646 0
M  V30 505 C 47.5251 -4.07553 -3.22796 0
M  V30 506 C 45.2101 -3.49644 -3.60631 0
M  V30 507 C 47.2041 -5.42442 -3.34716 0
M  V30 508 C 44.8911 -4.84682 -3.72192 0
M  V30 509 C 45.8891 -5.8089 -3.59243 0
M  V30 510 O 45.5771 -7.13476 -3.70415 0
M  V30 511 H 45.3091 -0.377745 -0.560611 0
M  V30 512 H 47.8631 -1.62658 -1.25425 0
M  V30 513 H 46.0931 -1.00881 -3.73309 0
M  V30 514 H 47.7821 -1.42202 -3.80175 0
M  V30 515 H 48.5481 -3.78381 -3.03403 0
M  V30 516 H 44.4271 -2.75282 -3.69785 0
M  V30 517 H 47.9711 -6.17518 -3.24526 0
M  V30 518 H 43.8681 -5.13534 -3.91092 0
M  V30 519 H 44.6361 -7.21083 -3.87275 0
M  V30 520 N 47.2992 1.18797 -1.03562 0
M  V30 521 C 48.2092 2.25913 -0.632505 0
M  V30 522 C 49.2252 1.70668 0.338882 0
M  V30 523 O 50.4012 2.00453 0.195076 0
M  V30 524 C 47.4662 3.467 0.00350942 0
M  V30 525 C 46.5272 4.17098 -1.01624 0
M  V30 526 C 45.7602 5.32119 -0.410478 0
M  V30 527 O 45.9832 5.64976 0.784725 0
M  V30 528 O 44.9172 5.9107 -1.13667 0
M  V30 529 H 48.7432 2.62648 -1.52478 0
M  V30 530 H 46.3282 1.25781 -0.806195 0
M  V30 531 H 48.2102 4.19878 0.35781 0
M  V30 532 H 46.8852 3.11798 0.869686 0
M  V30 533 H 45.7922 3.4601 -1.42224 0
M  V30 534 H 47.1252 4.55987 -1.85301 0
M  V30 535 N 48.7773 0.814389 1.34928 0
M  V30 536 C 50.0543 0.321363 1.92942 0
M  V30 537 C 50.4343 -1.19014 1.74353 0
M  V30 538 O 49.7823 -1.99328 1.11716 0
M  V30 539 C 49.9923 0.741323 3.41036 0
M  V30 540 C 51.3403 0.735266 4.18185 0
M  V30 541 O 52.3643 0.68336 3.49584 0
M  V30 542 O 51.2233 0.800703 5.40602 0
M  V30 543 H 48.3173 0.0858893 0.822528 0
M  V30 544 H 50.8633 0.898609 1.43955 0
M  V30 545 H 49.6353 1.78276 3.4833 0
M  V30 546 H 49.2583 0.139307 3.97356 0
M  V30 547 N 50.2554 -1.46986 0.568584 0
M  V30 548 C 51.1854 -2.32946 -0.160753 0
M  V30 549 C 52.1664 -1.44487 -0.897631 0
M  V30 550 O 53.3514 -1.73327 -0.875867 0
M  V30 551 C 50.4814 -3.26494 -1.18403 0
M  V30 552 C 49.4354 -4.24282 -0.562895 0
M  V30 553 C 48.7614 -5.07236 -1.69163 0
M  V30 554 C 50.0614 -5.19989 0.490761 0
M  V30 555 H 51.7554 -2.94175 0.556916 0
M  V30 556 H 49.3014 -1.4146 0.26927 0
M  V30 557 H 51.2544 -3.85477 -1.70251 0
M  V30 558 H 49.9784 -2.63343 -1.93179 0
M  V30 559 H 48.6374 -3.66541 -0.0656164 0
M  V30 560 H 48.2854 -4.4048 -2.42871 0
M  V30 561 H 47.9854 -5.7345 -1.28174 0
M  V30 562 H 49.5094 -5.6908 -2.21314 0
M  V30 563 H 50.9234 -5.73271 0.0579047 0
M  V30 564 H 49.3204 -5.94469 0.820165 0
M  V30 565 H 50.3904 -4.64777 1.3824 0
M  V30 566 N 51.7335 -0.305618 -1.54608 0
M  V30 567 C 52.9795 0.302746 -2.00528 0
M  V30 568 C 53.3125 1.53184 -1.19367 0
M  V30 569 O 52.5875 1.92598 -0.271321 0
M  V30 570 C 52.8705 0.654756 -3.54097 0
M  V30 571 C 52.7235 -0.583793 -4.45995 0
M  V30 572 C 54.0425 1.47947 -4.14487 0
M  V30 573 H 51.1615 0.108564 -0.72896 0
M  V30 574 H 53.8035 -0.418634 -1.85331 0
M  V30 575 H 51.9535 1.26935 -3.67178 0
M  V30 576 H 53.6255 -1.22224 -4.44814 0
M  V30 577 H 51.8685 -1.21615 -4.16404 0
M  V30 578 H 52.5395 -0.293287 -5.5122 0
M  V30 579 H 55.0155 0.96013 -4.04871 0
M  V30 580 H 53.8915 1.69454 -5.22088 0
M  V30 581 H 54.1525 2.47011 -3.66658 0
M  V30 582 N 53.2116 1.57565 -0.0334293 0
M  V30 583 C 54.1216 2.13943 0.962572 0
M  V30 584 C 55.1376 1.09276 1.35406 0
M  V30 585 O 56.3136 1.41355 1.4346 0
M  V30 586 C 53.3786 2.65887 2.22497 0
M  V30 587 C 52.4396 3.85286 1.8935 0
M  V30 588 C 51.6726 4.34743 3.09571 0
M  V30 589 O 51.8956 3.83352 4.22371 0
M  V30 590 O 50.8296 5.26538 2.91618 0
M  V30 591 H 54.6556 2.99333 0.513169 0
M  V30 592 H 52.2406 1.4822 0.18743 0
M  V30 593 H 54.1226 2.99346 2.96598 0
M  V30 594 H 52.7976 1.83578 2.6661 0
M  V30 595 H 51.7046 3.56746 1.1262 0
M  V30 596 H 53.0376 4.68771 1.5005 0
M  V30 597 N 54.6897 -0.239769 1.55765 0
M  V30 598 C 55.6197 -1.30052 1.9393 0
M  V30 599 C 56.6007 -1.49839 0.805132 0
M  V30 600 O 57.7857 -1.62328 1.06599 0
M  V30 601 C 54.9157 -2.65391 2.2402 0
M  V30 602 C 53.8697 -2.60289 3.39755 0
M  V30 603 C 53.1957 -3.99489 3.55405 0
M  V30 604 C 54.4957 -2.16654 4.75246 0
M  V30 605 H 56.1897 -0.983573 2.82783 0
M  V30 606 H 53.7357 -0.471701 1.36055 0
M  V30 607 H 55.6887 -3.3974 2.49308 0
M  V30 608 H 54.4127 -2.98736 1.32 0
M  V30 609 H 53.0717 -1.88398 3.14487 0
M  V30 610 H 52.7197 -4.30112 2.60793 0
M  V30 611 H 52.4197 -3.96962 4.33238 0
M  V30 612 H 53.9437 -4.75528 3.83022 0
M  V30 613 H 55.3577 -2.80737 4.99859 0
M  V30 614 H 53.7547 -2.25223 5.56232 0
M  V30 615 H 54.8247 -1.11835 4.71827 0
M  V30 616 N 56.1678 -1.49265 -0.50573 0
M  V30 617 C 57.1308 -1.65075 -1.59006 0
M  V30 618 C 58.1308 -0.522768 -1.52065 0
M  V30 619 O 59.3208 -0.789117 -1.55302 0
M  V30 620 C 56.4528 -1.64369 -2.98656 0
M  V30 621 H 57.6458 -2.61784 -1.46319 0
M  V30 622 H 55.1988 -1.38226 -0.729616 0
M  V30 623 H 55.9338 -0.692272 -3.16825 0
M  V30 624 H 55.7188 -2.46282 -3.05103 0
M  V30 625 H 57.2088 -1.78674 -3.77446 0
M  V30 626 N 57.6459 0.756429 -1.3826 0
M  V30 627 C 59.0569 1.33359 -1.30661 0
M  V30 628 C 59.4079 1.96161 0.0388875 0
M  V30 629 O 58.5329 1.94874 0.940918 0
M  V30 630 C 59.1279 2.42477 -2.36622 0
M  V30 631 C 57.6869 2.95922 -2.3261 0
M  V30 632 C 56.8339 1.69275 -2.19639 0
M  V30 633 H 59.7849 0.55552 -1.4866 0
M  V30 634 H 59.8059 3.22345 -2.02174 0
M  V30 635 H 59.3179 1.96739 -3.34538 0
M  V30 636 H 57.4189 3.45996 -1.38267 0
M  V30 637 H 57.5319 3.50494 -3.26636 0
M  V30 638 H 55.8959 1.92793 -1.66442 0
M  V30 639 H 56.6789 1.25619 -3.19491 0
M  V30 640 N 59.124 1.23083 0.984299 0
M  V30 641 C 60.372 1.05848 1.72165 0
M  V30 642 C 60.693 -0.406049 1.90726 0
M  V30 643 O 59.963 -1.29139 1.47309 0
M  V30 644 H 58.543 0.388685 0.637913 0
M  V30 645 H 61.205 1.54736 1.18503 0
M  V30 646 H 60.301 1.54327 2.71274 0
M  V30 647 N 60.6021 -1.18246 1.0419 0
M  V30 648 C 61.5491 -2.2192 0.634037 0
M  V30 649 C 62.5191 -1.62179 -0.358765 0
M  V30 650 O 63.7041 -1.89122 -0.252466 0
M  V30 651 C 60.8441 -3.451 0.00445535 0
M  V30 652 C 59.9571 -4.19174 1.04487 0
M  V30 653 C 59.0921 -5.29813 0.383676 0
M  V30 654 C 58.1311 -5.9566 1.4091 0
M  V30 655 N 57.2681 -6.97834 0.772784 0
M  V30 656 H 62.1081 -2.56164 1.52263 0
M  V30 657 H 59.6451 -1.25843 0.761701 0
M  V30 658 H 61.6031 -4.15485 -0.377919 0
M  V30 659 H 60.2331 -3.11472 -0.847652 0
M  V30 660 H 59.2851 -3.47604 1.54518 0
M  V30 661 H 60.5971 -4.64267 1.82368 0
M  V30 662 H 59.7511 -6.06677 -0.0528366 0
M  V30 663 H 58.4901 -4.85825 -0.427208 0
M  V30 664 H 57.4951 -5.17535 1.85574 0
M  V30 665 H 58.7201 -6.4173 2.22171 0
M  V30 666 H 56.6661 -6.55998 -0.0177708 0
M  V30 667 H 56.5831 -7.41186 1.48928 0
M  V30 668 H 57.8511 -7.78665 0.36071 0
M  V30 669 N 62.0802 -0.821533 -1.34494 0
M  V30 670 C 63.3272 -0.408946 -1.98328 0
M  V30 671 C 63.6552 1.02764 -1.65136 0
M  V30 672 O 62.9102 1.73026 -0.914349 0
M  V30 673 C 63.2092 -0.556512 -3.53041 0
M  V30 674 C 62.8752 -1.95861 -4.0614 0
M  V30 675 C 61.5372 -2.34217 -4.20352 0
M  V30 676 C 63.8892 -2.87523 -4.34718 0
M  V30 677 C 61.2172 -3.63572 -4.6047 0
M  V30 678 C 63.5692 -4.1634 -4.76281 0
M  V30 679 C 62.2332 -4.54675 -4.88699 0
M  V30 680 H 61.5032 -0.149644 -0.725732 0
M  V30 681 H 64.1502 -1.04521 -1.6046 0
M  V30 682 H 62.4552 0.163148 -3.9146 0
M  V30 683 H 64.1522 -0.217826 -4.00408 0
M  V30 684 H 60.7422 -1.65066 -3.95539 0
M  V30 685 H 64.9262 -2.59133 -4.23277 0
M  V30 686 H 60.1822 -3.93101 -4.68275 0
M  V30 687 H 64.3562 -4.87455 -4.97354 0
M  V30 688 H 61.9832 -5.54959 -5.19542 0
M  V30 689 N 63.5583 1.46682 -0.576371 0
M  V30 690 C 64.4903 2.28341 0.198231 0
M  V30 691 C 65.5033 1.38141 0.861453 0
M  V30 692 O 66.6923 1.62797 0.732082 0
M  V30 693 C 63.7923 3.12986 1.29972 0
M  V30 694 C 62.9653 4.31271 0.729639 0
M  V30 695 C 62.0243 4.97363 1.71803 0
M  V30 696 O 61.0503 5.55156 1.25658 0
M  V30 697 N 62.2523 4.93796 3.05198 0
M  V30 698 H 65.0173 2.9546 -0.502324 0
M  V30 699 H 62.5783 1.56525 -0.413715 0
M  V30 700 H 64.5703 3.54066 1.96008 0
M  V30 701 H 63.1403 2.47984 1.90323 0
M  V30 702 H 62.3603 3.94052 -0.108012 0
M  V30 703 H 63.6483 5.07739 0.328438 0
M  V30 704 H 63.0463 4.48077 3.45317 0
M  V30 705 H 61.6033 5.38837 3.6674 0
M  V30 706 N 65.0364 0.313813 1.54444 0
M  V30 707 C 65.9664 -0.549454 2.26943 0
M  V30 708 C 66.9474 -1.12741 1.27372 0
M  V30 709 O 68.1324 -1.15436 1.56167 0
M  V30 710 C 65.2624 -1.71523 3.01989 0
M  V30 711 C 64.2164 -1.26703 4.08816 0
M  V30 712 C 63.5424 -2.51898 4.71647 0
M  V30 713 C 64.8424 -0.388962 5.2085 0
M  V30 714 H 66.5364 0.0552661 2.99349 0
M  V30 715 H 64.0824 0.0280207 1.43973 0
M  V30 716 H 66.0354 -2.32535 3.51433 0
M  V30 717 H 64.7594 -2.34639 2.27183 0
M  V30 718 H 63.4184 -0.679896 3.6024 0
M  V30 719 H 63.0664 -3.13356 3.93468 0
M  V30 720 H 62.7664 -2.22605 5.43802 0
M  V30 721 H 64.2904 -3.1369 5.23861 0
M  V30 722 H 65.7044 -0.905107 5.6611 0
M  V30 723 H 64.1014 -0.18924 5.99802 0
M  V30 724 H 65.1714 0.582699 4.81386 0
M  V30 725 N 66.5145 -1.57545 0.0417849 0
M  V30 726 C 67.7605 -1.92601 -0.635021 0
M  V30 727 C 68.0935 -0.919627 -1.71045 0
M  V30 728 O 67.3685 0.0557892 -1.9442 0
M  V30 729 C 67.6515 -3.38085 -1.23979 0
M  V30 730 C 67.5045 -4.49467 -0.173057 0
M  V30 731 C 68.8235 -3.83776 -2.15416 0
M  V30 732 H 65.9425 -0.700397 -0.229374 0
M  V30 733 H 68.5845 -1.89728 0.101633 0
M  V30 734 H 66.7345 -3.40664 -1.86762 0
M  V30 735 H 68.4065 -4.59018 0.458312 0
M  V30 736 H 66.6495 -4.30909 0.499996 0
M  V30 737 H 67.3205 -5.48323 -0.636054 0
M  V30 738 H 69.7965 -3.83013 -1.62605 0
M  V30 739 H 68.6725 -4.8624 -2.54679 0
M  V30 740 H 68.9335 -3.19998 -3.05047 0
M  V30 741 N 67.9926 0.231505 -1.5589 0
M  V30 742 C 68.9556 1.27028 -1.90779 0
M  V30 743 C 69.9556 1.40308 -0.785507 0
M  V30 744 O 71.1456 1.38744 -1.05336 0
M  V30 745 C 68.2776 2.64566 -2.14983 0
M  V30 746 H 69.4706 0.973017 -2.83677 0
M  V30 747 H 67.0236 0.471486 -1.49019 0
M  V30 748 H 67.7586 2.99406 -1.24604 0
M  V30 749 H 67.5436 2.56305 -2.96732 0
M  V30 750 H 69.0336 3.39543 -2.43105 0
M  V30 751 N 69.4707 1.49531 0.497807 0
M  V30 752 C 70.3807 1.69176 1.62532 0
M  V30 753 C 71.3967 0.5744 1.64246 0
M  V30 754 O 72.5727 0.849497 1.82608 0
M  V30 755 C 69.6377 1.75695 2.98885 0
M  V30 756 C 68.6987 2.9929 3.07773 0
M  V30 757 C 67.9317 3.05488 4.37622 0
M  V30 758 O 68.1547 2.19192 5.26603 0
M  V30 759 O 67.0887 3.9798 4.51548 0
M  V30 760 H 70.9147 2.647 1.48887 0
M  V30 761 H 68.4997 1.3331 0.674441 0
M  V30 762 H 70.3817 1.82317 3.79919 0
M  V30 763 H 69.0567 0.8335 3.12785 0
M  V30 764 H 67.9637 2.98183 2.25915 0
M  V30 765 H 69.2967 3.91125 2.98801 0
M  V30 766 N 70.9488 -0.749086 1.3866 0
M  V30 767 C 71.8968 -1.88428 1.36373 0
M  V30 768 C 72.8908 -1.67561 0.248929 0
M  V30 769 O 74.0968 -1.75074 0.41821 0
M  V30 770 H 70.4718 -0.620023 0.42553 0
M  V30 771 H 72.4428 -1.87473 2.32156 0
M  V30 772 C 71.1918 -3.25961 1.21014 0
M  V30 773 H 70.5148 -3.42607 2.06059 0
M  V30 774 H 71.9548 -4.05625 1.23469 0
M  V30 775 C 70.4138 -3.36799 -0.0825941 0
M  V30 776 O 70.9438 -3.87517 -1.05797 0
M  V30 777 N 69.1498 -2.90258 -0.140939 0
M  V30 778 H 68.6968 -2.49174 0.653477 0
M  V30 779 H 68.6548 -2.97889 -1.00545 0
M  V30 780 N 72.4269 -1.23603 -0.977757 0
M  V30 781 C 73.8429 -0.999251 -1.24447 0
M  V30 782 C 74.0429 0.298053 -1.99283 0
M  V30 783 O 73.0989 1.01681 -2.31122 0
M  V30 784 C 74.4119 -2.20784 -2.04144 0
M  V30 785 C 75.9599 -2.25303 -2.17273 0
M  V30 786 C 76.4349 -3.45755 -3.00362 0
M  V30 787 N 77.9259 -3.4601 -3.07947 0
M  V30 788 C 78.6609 -4.35868 -3.72568 0
M  V30 789 N 78.1569 -5.35966 -4.38991 0
M  V30 790 N 79.9499 -4.23605 -3.6948 0
M  V30 791 H 72.1009 -2.06986 -0.476483 0
M  V30 792 H 74.3639 -0.907801 -0.273134 0
M  V30 793 H 74.0699 -3.14945 -1.56533 0
M  V30 794 H 73.9439 -2.22085 -3.04891 0
M  V30 795 H 76.3309 -1.3168 -2.64092 0
M  V30 796 H 76.4119 -2.28033 -1.15907 0
M  V30 797 H 76.0559 -4.39687 -2.5424 0
M  V30 798 H 75.9859 -3.40266 -4.01904 0
M  V30 799 H 78.4769 -2.73588 -2.60688 0
M  V30 800 H 78.7899 -6.00783 -4.86086 0
M  V30 801 H 77.1349 -5.39863 -4.37691 0
M  V30 802 H 80.3259 -3.44647 -3.16759 0
M  V30 803 H 80.4989 -4.93836 -4.1956 0
M  V30 804 N 73.905 1.17692 -1.04816 0
M  V30 805 C 75.321 1.39863 -0.768794 0
M  V30 806 C 75.521 1.91118 0.638451 0
M  V30 807 O 74.577 2.10036 1.40146 0
M  V30 808 C 75.89 2.39274 -1.82122 0
M  V30 809 C 77.438 2.52987 -1.843 0
M  V30 810 C 77.913 3.55669 -2.88555 0
M  V30 811 N 79.404 3.63183 -2.87493 0
M  V30 812 C 80.139 4.42381 -3.64811 0
M  V30 813 N 79.635 5.25125 -4.51903 0
M  V30 814 N 81.428 4.37217 -3.53267 0
M  V30 815 H 73.579 0.82752 -1.95617 0
M  V30 816 H 75.842 0.426123 -0.846831 0
M  V30 817 H 75.548 2.08678 -2.83102 0
M  V30 818 H 75.422 3.38725 -1.65967 0
M  V30 819 H 77.809 2.82896 -0.839869 0
M  V30 820 H 77.89 1.53623 -2.04532 0
M  V30 821 H 77.534 3.26499 -3.89051 0
M  V30 822 H 77.464 4.54728 -2.65575 0
M  V30 823 H 79.955 3.04103 -2.24343 0
M  V30 824 H 80.268 5.82728 -5.07591 0
M  V30 825 H 78.613 5.24519 -4.55966 0
M  V30 826 H 81.804 3.71626 -2.84625 0
M  V30 827 H 81.977 4.98696 -4.13771 0
M  V30 828 N 75.3831 0.828654 1.34056 0
M  V30 829 C 76.6131 0.431993 2.02033 0
M  V30 830 C 77.0211 -0.96844 1.62536 0
M  V30 831 O 76.3641 -1.6391 0.829408 0
M  V30 832 C 76.4261 0.461224 3.56529 0
M  V30 833 C 76.0901 1.81599 4.1937 0
M  V30 834 C 77.0871 2.7777 4.39477 0
M  V30 835 C 74.7721 2.10604 4.56017 0
M  V30 836 C 76.7661 4.01115 4.95364 0
M  V30 837 C 74.4531 3.34207 5.11614 0
M  V30 838 C 75.4511 4.2928 5.31232 0
M  V30 839 O 75.1391 5.50699 5.8565 0
M  V30 840 H 74.8711 0.170943 0.654029 0
M  V30 841 H 77.4251 1.11988 1.72185 0
M  V30 842 H 75.6551 -0.283388 3.8566 0
M  V30 843 H 77.3441 0.0838149 4.05813 0
M  V30 844 H 78.1101 2.56659 4.11523 0
M  V30 845 H 73.9891 1.37402 4.40047 0
M  V30 846 H 77.5331 4.75333 5.10592 0
M  V30 847 H 73.4301 3.55179 5.38997 0
M  V30 848 H 74.1981 5.52298 6.04077 0
M  V30 849 N 76.8612 -1.46375 0.584142 0
M  V30 850 C 77.7932 -2.28443 -0.186119 0
M  V30 851 C 78.8062 -1.38596 -0.854115 0
M  V30 852 O 79.9952 -1.63183 -0.723438 0
M  V30 853 C 77.0952 -3.13671 -1.28311 0
M  V30 854 C 76.2682 -4.31652 -0.706758 0
M  V30 855 C 75.3272 -4.98267 -1.69163 0
M  V30 856 O 74.3532 -5.55815 -1.22712 0
M  V30 857 N 75.5552 -4.95408 -3.02575 0
M  V30 858 H 78.3202 -2.9519 0.517986 0
M  V30 859 H 75.8812 -1.56303 0.42201 0
M  V30 860 H 77.8732 -3.55101 -1.94128 0
M  V30 861 H 76.4432 -2.48989 -1.89005 0
M  V30 862 H 75.6632 -3.93989 0.128908 0
M  V30 863 H 76.9512 -5.07906 -0.301506 0
M  V30 864 H 76.3492 -4.49902 -3.42936 0
M  V30 865 H 74.9062 -5.40774 -3.63877 0
M  V30 866 N 78.3393 -0.321999 -1.54275 0
M  V30 867 C 79.7553 0.0306999 -1.5957 0
M  V30 868 C 79.9553 1.50614 -1.33857 0
M  V30 869 O 79.0113 2.2619 -1.12223 0
M  V30 870 C 80.3243 -0.386122 -2.98211 0
M  V30 871 C 81.8723 -0.336647 -3.11184 0
M  V30 872 C 82.3473 -0.728607 -4.52167 0
M  V30 873 N 83.8383 -0.681952 -4.58152 0
M  V30 874 C 84.5733 -0.957449 -5.6535 0
M  V30 875 N 84.0693 -1.3 -6.80494 0
M  V30 876 N 85.8623 -0.883113 -5.55119 0
M  V30 877 H 78.0133 -1.28332 -1.69247 0
M  V30 878 H 80.2763 -0.521716 -0.791528 0
M  V30 879 H 79.9823 -1.41404 -3.22022 0
M  V30 880 H 79.8563 0.249662 -3.76373 0
M  V30 881 H 82.2433 0.682058 -2.8711 0
M  V30 882 H 82.3243 -1.00734 -2.3513 0
M  V30 883 H 81.9683 -1.74522 -4.76974 0
M  V30 884 H 81.8983 -0.0356152 -5.26588 0
M  V30 885 H 84.3893 -0.428985 -3.75457 0
M  V30 886 H 84.7023 -1.49563 -7.58189 0
M  V30 887 H 83.0473 -1.33824 -6.81994 0
M  V30 888 H 86.2383 -0.615001 -4.64042 0
M  V30 889 H 86.4113 -1.10118 -6.38575 0
M  V30 890 N 79.8174 1.5752 -0.0501392 0
M  V30 891 C 81.0424 1.97376 0.636997 0
M  V30 892 C 81.4674 0.927466 1.63645 0
M  V30 893 O 80.8254 -0.10941 1.8097 0
M  V30 894 C 80.8734 3.36304 1.30123 0
M  V30 895 O 79.9774 3.34156 2.41689 0
M  V30 896 H 79.3184 0.642998 0.165679 0
M  V30 897 H 81.8484 2.04258 -0.118233 0
M  V30 898 H 81.8584 3.73008 1.65315 0
M  V30 899 H 80.5334 4.11993 0.568746 0
M  V30 900 H 79.1104 3.09196 2.08451 0
M  V30 901 N 81.2955 -0.223234 1.56011 0
M  V30 902 C 82.2255 -1.27988 1.95298 0
M  V30 903 C 83.2065 -1.48976 0.820979 0
M  V30 904 O 84.3915 -1.61188 1.08315 0
M  V30 905 C 81.5215 -2.63 2.26822 0
M  V30 906 C 80.4755 -2.56671 3.42497 0
M  V30 907 C 79.8015 -3.95697 3.59622 0
M  V30 908 C 81.1015 -2.11601 4.77517 0
M  V30 909 H 82.7955 -0.953525 2.8381 0
M  V30 910 H 80.3415 -0.457244 1.36548 0
M  V30 911 H 82.2945 -3.37077 2.52898 0
M  V30 912 H 81.0185 -2.9732 1.35161 0
M  V30 913 H 79.6775 -1.85051 3.16467 0
M  V30 914 H 79.3255 -4.27322 2.6534 0
M  V30 915 H 79.0255 -3.92345 4.37424 0
M  V30 916 H 80.5495 -4.71438 3.88044 0
M  V30 917 H 81.9635 -2.7542 5.02809 0
M  V30 918 H 80.3605 -2.19311 5.5859 0
M  V30 919 H 81.4305 -1.06824 4.72987 0
M  V30 920 N 82.7736 -1.49793 -0.48987 0
M  V30 921 C 84.1846 -1.52914 -1.07118 0
M  V30 922 C 84.5356 -0.321738 -1.93544 0
M  V30 923 O 83.6606 0.567338 -2.08831 0
M  V30 924 C 84.2556 -2.771 -1.94938 0
M  V30 925 C 82.8146 -2.82963 -2.48212 0
M  V30 926 C 81.9616 -2.46972 -1.26096 0
M  V30 927 H 84.9126 -1.56329 -0.273289 0
M  V30 928 H 84.9336 -2.57892 -2.79771 0
M  V30 929 H 84.4456 -3.64959 -1.32009 0
M  V30 930 H 82.5466 -1.99411 -3.14748 0
M  V30 931 H 82.6596 -3.85406 -2.84603 0
M  V30 932 H 81.0236 -1.98994 -1.58976 0
M  V30 933 H 81.8066 -3.37118 -0.648581 0
M  V30 934 N 84.2517 0.741722 -1.39055 0
M  V30 935 C 85.4997 1.49818 -1.35643 0
M  V30 936 C 85.8207 1.94938 0.0491642 0
M  V30 937 O 85.0907 1.68505 0.999141 0
M  V30 938 H 83.6707 0.555755 -0.499144 0
M  V30 939 H 86.3327 0.880957 -1.73854 0
M  V30 940 H 85.4287 2.38348 -2.01486 0
M  V30 941 N 85.7298 1.2412 0.971189 0
M  V30 942 C 86.6398 1.04747 2.09917 0
M  V30 943 C 87.6558 -0.0107162 1.73997 0
M  V30 944 O 88.8318 0.186714 2.00533 0
M  V30 945 C 85.8968 0.650828 3.40537 0
M  V30 946 C 84.9578 1.7851 3.90426 0
M  V30 947 C 84.1908 1.40729 5.14812 0
M  V30 948 O 84.4138 0.29557 5.69634 0
M  V30 949 O 83.3478 2.23168 5.58999 0
M  V30 950 H 87.1738 1.99304 2.29154 0
M  V30 951 H 84.7588 1.02908 1.08307 0
M  V30 952 H 86.6408 0.440992 4.19086 0
M  V30 953 H 85.3158 -0.265649 3.22608 0
M  V30 954 H 84.2228 2.04966 3.12953 0
M  V30 955 H 85.5558 2.68023 4.12825 0
M  V30 956 N 87.2079 -1.17134 1.05439 0
M  V30 957 C 88.4329 -1.91913 0.786396 0
M  V30 958 C 88.8579 -1.7643 -0.652234 0
M  V30 959 O 88.2159 -1.08372 -1.45345 0
M  V30 960 C 88.2639 -3.40921 1.17497 0
M  V30 961 O 87.3679 -4.11244 0.308589 0
M  V30 962 H 86.7089 -0.598215 0.288158 0
M  V30 963 H 89.2389 -1.48457 1.4079 0
M  V30 964 H 89.2489 -3.91668 1.14281 0
M  V30 965 H 87.9239 -3.5151 2.22292 0
M  V30 966 H 86.5009 -3.70731 0.40157 0
M  V30 967 N 88.686 -0.835752 -1.33615 0
M  V30 968 C 89.596 -0.269088 -2.33052 0
M  V30 969 C 90.612 0.603251 -1.63208 0
M  V30 970 O 91.788 0.508112 -1.94885 0
M  V30 971 C 88.853 0.549091 -3.42324 0
M  V30 972 C 87.914 -0.347156 -4.27894 0
M  V30 973 C 87.147 0.43207 -5.31948 0
M  V30 974 O 87.37 1.66409 -5.45586 0
M  V30 975 O 86.304 -0.192298 -6.01593 0
M  V30 976 H 90.13 -1.09243 -2.83372 0
M  V30 977 H 87.715 -0.598198 -1.36901 0
M  V30 978 H 89.597 1.01414 -4.09015 0
M  V30 979 H 88.272 1.34955 -2.94226 0
M  V30 980 H 87.179 -0.859979 -3.64081 0
M  V30 981 H 88.512 -1.1123 -4.79467 0
M  V30 982 N 90.1641 1.46063 -0.591896 0
M  V30 983 C 91.0741 2.34192 0.13831 0
M  V30 984 C 92.0901 1.50305 0.876608 0
M  V30 985 O 93.2661 1.8315 0.837728 0
M  V30 986 C 90.3311 3.27656 1.13326 0
M  V30 987 C 89.3921 4.27445 0.39863 0
M  V30 988 C 88.6251 5.16443 1.34618 0
M  V30 989 O 88.8481 5.08553 2.58321 0
M  V30 990 O 87.7821 5.95843 0.851768 0
M  V30 991 H 91.6081 2.98002 -0.58552 0
M  V30 992 H 89.1931 1.45188 -0.352239 0
M  V30 993 H 91.0751 3.85291 1.70671 0
M  V30 994 H 89.7501 2.6643 1.83839 0
M  V30 995 H 88.6571 3.73471 -0.216895 0
M  V30 996 H 89.9901 4.91482 -0.265709 0
M  V30 997 N 91.6422 0.330177 1.54103 0
M  V30 998 C 92.5752 -0.575477 2.20825 0
M  V30 999 C 93.5532 -1.11064 1.18758 0
M  V30 1000 O 94.7372 -1.17341 1.47524 0
M  V30 1001 C 91.8642 -1.79032 2.87516 0
M  V30 1002 C 90.9102 -1.38581 4.03358 0
M  V30 1003 S 91.7432 -0.416911 5.33875 0
M  V30 1004 C 92.8992 -1.63889 6.04062 0
M  V30 1005 H 93.1322 -0.00872114 2.97299 0
M  V30 1006 H 90.6652 0.114254 1.53977 0
M  V30 1007 H 92.6232 -2.48734 3.2656 0
M  V30 1008 H 91.2842 -2.32827 2.10832 0
M  V30 1009 H 90.4772 -2.29123 4.48908 0
M  V30 1010 H 90.0792 -0.768419 3.66021 0
M  V30 1011 H 92.3712 -2.57536 6.26643 0
M  V30 1012 H 93.3142 -1.22542 6.97416 0
M  V30 1013 H 93.7222 -1.82887 5.34053 0
M  V30 1014 N 93.1203 -1.57491 0.0584922 0
M  V30 1015 C 94.0533 -2.07533 -0.948969 0
M  V30 1016 C 95.0313 -0.977444 -1.29942 0
M  V30 1017 O 96.2153 -1.2499 -1.41102 0
M  V30 1018 C 93.3423 -2.52192 -2.2609 0
M  V30 1019 C 92.3883 -3.73287 -2.06298 0
M  V30 1020 S 93.2213 -5.18603 -1.33459 0
M  V30 1021 C 94.3773 -5.66583 -2.65959 0
M  V30 1022 H 94.6103 -2.92662 -0.523118 0
M  V30 1023 H 92.1433 -1.53631 -0.153954 0
M  V30 1024 H 94.1013 -2.78585 -3.01498 0
M  V30 1025 H 92.7623 -1.67356 -2.65802 0
M  V30 1026 H 91.9553 -4.0248 -3.03357 0
M  V30 1027 H 91.5573 -3.47199 -1.39029 0
M  V30 1028 H 93.8493 -5.72616 -3.62101 0
M  V30 1029 H 94.7923 -6.65684 -2.41393 0
M  V30 1030 H 95.2003 -4.94342 -2.72554 0
M  V30 1031 N 94.5984 0.214957 -1.56127 0
M  V30 1032 C 95.5084 1.28727 -1.96129 0
M  V30 1033 C 96.5244 1.50916 -0.866044 0
M  V30 1034 O 97.7004 1.63918 -1.17016 0
M  V30 1035 C 94.7654 2.61569 -2.27558 0
M  V30 1036 C 93.8264 2.47625 -3.50685 0
M  V30 1037 C 93.0594 3.74132 -3.80606 0
M  V30 1038 O 93.2824 4.77438 -3.12104 0
M  V30 1039 O 92.2164 3.70849 -4.74083 0
M  V30 1040 H 96.0424 0.977855 -2.87527 0
M  V30 1041 H 93.6274 0.418358 -1.43423 0
M  V30 1042 H 95.5094 3.40012 -2.48938 0
M  V30 1043 H 94.1844 2.92178 -1.39332 0
M  V30 1044 H 93.0914 1.67361 -3.34576 0
M  V30 1045 H 94.4244 2.21954 -4.39315 0
M  V30 1046 N 96.0765 1.50051 0.48192 0
M  V30 1047 C 96.9865 1.7089 1.60728 0
M  V30 1048 C 98.0025 0.591788 1.63627 0
M  V30 1049 O 99.1785 0.868817 1.81696 0
M  V30 1050 C 96.2435 1.78855 2.97005 0
M  V30 1051 C 95.3045 3.02537 3.04581 0
M  V30 1052 C 94.5375 3.10112 4.34357 0
M  V30 1053 O 94.7605 2.24765 5.24249 0
M  V30 1054 O 93.6945 4.02747 4.47301 0
M  V30 1055 H 97.5205 2.66264 1.46072 0
M  V30 1056 H 95.1055 1.34018 0.660264 0
M  V30 1057 H 96.9875 1.86336 3.77964 0
M  V30 1058 H 95.6625 0.866628 3.11883 0
M  V30 1059 H 94.5695 3.00563 2.22739 0
M  V30 1060 H 95.9025 3.94272 2.94636 0
M  V30 1061 N 97.5546 -0.734337 1.39446 0
M  V30 1062 C 98.8006 -1.49613 1.36908 0
M  V30 1063 C 99.1336 -1.94169 -0.0347829 0
M  V30 1064 O 98.4086 -1.66833 -0.999847 0
M  V30 1065 C 98.6916 -2.73534 2.34203 0
M  V30 1066 C 98.5446 -2.34993 3.83534 0
M  V30 1067 C 99.8636 -3.75635 2.29317 0
M  V30 1068 H 96.9826 -0.542714 0.498629 0
M  V30 1069 H 99.6246 -0.839597 1.70443 0
M  V30 1070 H 97.7746 -3.29553 2.05736 0
M  V30 1071 H 99.4466 -1.84601 4.22753 0
M  V30 1072 H 97.6896 -1.67213 4.00278 0
M  V30 1073 H 98.3606 -3.23738 4.47099 0
M  V30 1074 H 100.837 -3.29203 2.54489 0
M  V30 1075 H 99.7126 -4.60008 2.99472 0
M  V30 1076 H 99.9736 -4.22603 1.29842 0
M  V30 1077 N 99.0327 -1.24633 -0.964593 0
M  V30 1078 C 100.31 -0.995809 -1.68354 0
M  V30 1079 C 100.69 0.480964 -2.05548 0
M  V30 1080 O 100.038 1.45599 -1.76105 0
M  V30 1081 C 100.248 -1.92177 -2.91323 0
M  V30 1082 C 101.596 -2.19446 -3.63495 0
M  V30 1083 O 102.62 -1.89855 -3.01386 0
M  V30 1084 O 101.479 -2.69714 -4.75307 0
M  V30 1085 H 98.5727 -0.376854 -0.736146 0
M  V30 1086 H 101.119 -1.35745 -1.0184 0
M  V30 1087 H 99.8907 -2.91938 -2.60553 0
M  V30 1088 H 99.5137 -1.56349 -3.65569 0
M  V30 1089 N 100.511 1.16574 -1.06058 0
M  V30 1090 C 101.443 2.2045 -0.627239 0
M  V30 1091 C 102.456 1.59752 0.313534 0
M  V30 1092 O 103.645 1.78192 0.104896 0
M  V30 1093 C 100.745 3.3875 0.100974 0
M  V30 1094 C 99.9178 4.29008 -0.852687 0
M  V30 1095 C 98.9768 5.25944 -0.164152 0
M  V30 1096 O 98.0028 5.63535 -0.801047 0
M  V30 1097 N 99.2048 5.70075 1.09518 0
M  V30 1098 H 101.97 2.58249 -1.52077 0
M  V30 1099 H 99.5308 1.3156 -0.943594 0
M  V30 1100 H 101.523 4.00638 0.57194 0
M  V30 1101 H 100.093 2.99476 0.89628 0
M  V30 1102 H 99.3128 3.64419 -1.50308 0
M  V30 1103 H 100.601 4.86195 -1.49972 0
M  V30 1104 H 99.9988 5.41624 1.6328 0
M  V30 1105 H 98.5558 6.34067 1.51006 0
M  V30 1106 N 101.989 0.842826 1.3317 0
M  V30 1107 C 103.235 0.441099 1.97945 0
M  V30 1108 C 103.568 -0.998024 1.66593 0
M  V30 1109 O 102.843 -1.69839 0.947898 0
M  V30 1110 C 103.126 0.666841 3.53872 0
M  V30 1111 C 102.979 2.15352 3.94897 0
M  V30 1112 C 104.298 0.115544 4.39948 0
M  V30 1113 H 101.417 0.161739 0.719034 0
M  V30 1114 H 104.059 1.05907 1.57746 0
M  V30 1115 H 102.209 0.140828 3.88245 0
M  V30 1116 H 103.881 2.7447 3.70761 0
M  V30 1117 H 102.124 2.63653 3.44484 0
M  V30 1118 H 102.795 2.26221 5.03516 0
M  V30 1119 H 105.271 0.565213 4.12243 0
M  V30 1120 H 104.147 0.303152 5.48062 0
M  V30 1121 H 104.408 -0.980935 4.3108 0
M  V30 1122 N 103.467 -1.45747 0.599634 0
M  V30 1123 C 104.695 -2.06668 0.0978551 0
M  V30 1124 C 105.11 -1.44562 -1.21439 0
M  V30 1125 O 104.467 -0.556923 -1.73795 0
M  V30 1126 C 104.518 -3.61456 -0.0567044 0
M  V30 1127 O 104.239 -4.21242 1.20361 0
M  V30 1128 C 105.74 -4.39345 -0.590869 0
M  V30 1129 H 102.96 -0.667825 0.0651943 0
M  V30 1130 H 105.504 -1.87115 0.82511 0
M  V30 1131 H 103.659 -3.80378 -0.734251 0
M  V30 1132 H 104.073 -5.14323 1.02821 0
M  V30 1133 H 105.547 -5.48182 -0.648131 0
M  V30 1134 H 106.024 -4.08568 -1.61147 0
M  V30 1135 H 106.63 -4.25268 0.0523679 0
M  V30 1136 N 104.945 -0.338344 -1.53925 0
M  V30 1137 C 105.875 0.51328 -2.27789 0
M  V30 1138 C 106.856 1.107 -1.29149 0
M  V30 1139 O 108.041 1.12937 -1.57984 0
M  V30 1140 C 105.171 1.66697 -3.04679 0
M  V30 1141 C 104.125 1.20183 -4.1078 0
M  V30 1142 C 103.451 2.44363 -4.75595 0
M  V30 1143 C 104.751 0.30605 -5.21403 0
M  V30 1144 H 106.445 -0.102883 -2.99223 0
M  V30 1145 H 103.991 -0.0509219 -1.4391 0
M  V30 1146 H 105.944 2.26915 -3.55088 0
M  V30 1147 H 104.668 2.30995 -2.30887 0
M  V30 1148 H 103.327 0.622499 -3.61276 0
M  V30 1149 H 102.975 3.07057 -3.98403 0
M  V30 1150 H 102.675 2.13925 -5.47275 0
M  V30 1151 H 104.199 3.05317 -5.28786 0
M  V30 1152 H 105.613 0.814929 -5.67478 0
M  V30 1153 H 104.01 0.0937929 -6.00027 0
M  V30 1154 H 105.08 -0.65921 -4.80398 0
M  V30 1155 N 106.423 1.57458 -0.0668435 0
M  V30 1156 C 107.653 1.97337 0.611677 0
M  V30 1157 C 108.061 0.943744 1.63982 0
M  V30 1158 O 107.404 -0.0785584 1.83532 0
M  V30 1159 C 107.466 3.33511 1.34205 0
M  V30 1160 C 107.13 4.54598 0.467941 0
M  V30 1161 C 108.127 5.19186 -0.272439 0
M  V30 1162 C 105.812 5.0075 0.39427 0
M  V30 1163 C 107.806 6.28274 -1.07476 0
M  V30 1164 C 105.493 6.09711 -0.411729 0
M  V30 1165 C 106.491 6.73335 -1.14492 0
M  V30 1166 O 106.179 7.80199 -1.93763 0
M  V30 1167 H 105.911 0.654042 0.170893 0
M  V30 1168 H 108.465 2.04961 -0.134289 0
M  V30 1169 H 106.695 3.22487 2.13398 0
M  V30 1170 H 108.384 3.58029 1.91233 0
M  V30 1171 H 109.15 4.84477 -0.225086 0
M  V30 1172 H 105.029 4.51009 0.954569 0
M  V30 1173 H 108.573 6.77866 -1.64755 0
M  V30 1174 H 104.47 6.43854 -0.460664 0
M  V30 1175 H 105.238 7.97053 -1.86142 0
M  V30 1176 N 107.901 -0.206675 1.56239 0
M  V30 1177 C 109.126 -0.949474 1.8439 0
M  V30 1178 C 109.551 -1.76549 0.649016 0
M  V30 1179 O 108.909 -1.76782 -0.402231 0
M  V30 1180 C 108.957 -1.83078 3.10668 0
M  V30 1181 O 108.061 -2.9281 2.90407 0
M  V30 1182 H 107.402 -0.268033 0.607499 0
M  V30 1183 H 109.932 -0.215488 2.03462 0
M  V30 1184 H 109.942 -2.2377 3.41161 0
M  V30 1185 H 108.617 -1.23112 3.97261 0
M  V30 1186 H 107.194 -2.55956 2.71184 0
M  V30 1187 N 109.379 -1.50304 -0.473955 0
M  V30 1188 C 110.609 -1.64663 -1.24778 0
M  V30 1189 C 111.017 -0.328174 -1.86332 0
M  V30 1190 O 110.36 0.699536 -1.69859 0
M  V30 1191 C 110.422 -2.6778 -2.39863 0
M  V30 1192 C 110.086 -4.11413 -1.98969 0
M  V30 1193 C 111.083 -4.97372 -1.51385 0
M  V30 1194 C 108.768 -4.57312 -2.07777 0
M  V30 1195 C 110.762 -6.27277 -1.13148 0
M  V30 1196 C 108.449 -5.87223 -1.69152 0
M  V30 1197 C 109.447 -6.72031 -1.21915 0
M  V30 1198 O 109.135 -7.99518 -0.838237 0
M  V30 1199 H 108.867 -0.556602 -0.383627 0
M  V30 1200 H 111.421 -1.9726 -0.572491 0
M  V30 1201 H 109.651 -2.30419 -3.10554 0
M  V30 1202 H 111.34 -2.71388 -3.01833 0
M  V30 1203 H 112.106 -4.63128 -1.44004 0
M  V30 1204 H 107.985 -3.91449 -2.43493 0
M  V30 1205 H 111.529 -6.93425 -0.762077 0
M  V30 1206 H 107.426 -6.20989 -1.76191 0
M  V30 1207 H 108.194 -8.12764 -0.967339 0
M  V30 1208 N 110.857 0.726932 -1.39834 0
M  V30 1209 C 111.804 1.841 -1.39197 0
M  V30 1210 C 112.774 1.642 -0.250502 0
M  V30 1211 O 113.959 1.85494 -0.446846 0
M  V30 1212 C 111.099 3.21697 -1.24919 0
M  V30 1213 C 110.212 3.53247 -2.48678 0
M  V30 1214 C 109.347 4.80289 -2.26928 0
M  V30 1215 C 108.386 5.04707 -3.4632 0
M  V30 1216 N 107.523 6.22956 -3.23836 0
M  V30 1217 H 112.363 1.83979 -2.34427 0
M  V30 1218 H 109.9 0.898876 -1.16442 0
M  V30 1219 H 111.858 4.01137 -1.1465 0
M  V30 1220 H 110.488 3.21076 -0.333153 0
M  V30 1221 H 109.54 2.68447 -2.69519 0
M  V30 1222 H 110.852 3.67205 -3.37582 0
M  V30 1223 H 110.006 5.67725 -2.13947 0
M  V30 1224 H 108.745 4.68519 -1.35431 0
M  V30 1225 H 107.75 4.1573 -3.5979 0
M  V30 1226 H 108.975 5.18357 -4.38729 0
M  V30 1227 H 106.921 6.12459 -2.35011 0
M  V30 1228 H 106.838 6.37539 -4.063 0
M  V30 1229 H 108.106 7.1321 -3.14566 0
M  V30 1230 N 112.336 1.25143 0.95797 0
M  V30 1231 C 113.582 1.09855 1.70469 0
M  V30 1232 C 113.915 -0.360187 1.90831 0
M  V30 1233 O 113.19 -1.26568 1.47685 0
M  V30 1234 C 113.473 1.8497 3.08963 0
M  V30 1235 C 113.326 3.38652 2.96032 0
M  V30 1236 C 114.645 1.63016 4.08795 0
M  V30 1237 H 111.764 0.400465 0.618706 0
M  V30 1238 H 114.406 1.53933 1.11376 0
M  V30 1239 H 112.556 1.47505 3.59409 0
M  V30 1240 H 114.228 3.85772 2.52938 0
M  V30 1241 H 112.471 3.66534 2.32025 0
M  V30 1242 H 113.142 3.8642 3.94187 0
M  V30 1243 H 115.618 1.95625 3.67247 0
M  V30 1244 H 114.494 2.18015 5.03747 0
M  V30 1245 H 114.755 0.570692 4.38401 0
M  V30 1246 N 113.814 -1.1601 1.06675 0
M  V30 1247 C 114.746 -2.20115 0.638921 0
M  V30 1248 C 115.759 -1.59916 -0.305057 0
M  V30 1249 O 116.948 -1.78245 -0.0954446 0
M  V30 1250 C 114.048 -3.38798 -0.0830083 0
M  V30 1251 C 113.221 -4.2855 0.875426 0
M  V30 1252 C 112.28 -5.25849 0.192042 0
M  V30 1253 O 111.306 -5.63102 0.830921 0
M  V30 1254 N 112.508 -5.70648 -1.06493 0
M  V30 1255 H 115.273 -2.57439 1.53444 0
M  V30 1256 H 112.834 -1.31057 0.950557 0
M  V30 1257 H 114.826 -4.00936 -0.550685 0
M  V30 1258 H 113.396 -2.99947 -0.880386 0
M  V30 1259 H 112.616 -3.63617 1.52238 0
M  V30 1260 H 113.904 -4.85393 1.52548 0
M  V30 1261 H 113.302 -5.42482 -1.60405 0
M  V30 1262 H 111.859 -6.34859 -1.47641 0
M  V30 1263 N 115.292 -0.849877 -1.32721 0
M  V30 1264 C 116.517 -0.463856 -2.02146 0
M  V30 1265 C 116.942 0.930449 -1.63476 0
M  V30 1266 O 116.3 1.61033 -0.832952 0
M  V30 1267 C 116.348 -0.604955 -3.55489 0
M  V30 1268 O 115.452 0.36425 -4.10788 0
M  V30 1269 H 114.793 -0.187046 -0.637111 0
M  V30 1270 H 117.323 -1.14775 -1.69375 0
M  V30 1271 H 117.333 -0.490696 -4.05038 0
M  V30 1272 H 116.008 -1.62174 -3.82978 0
M  V30 1273 H 114.585 0.206628 -3.72327 0
M  V30 1274 N 116.77 1.45427 -0.607355 0
M  V30 1275 C 117.998 2.06614 -0.108814 0
M  V30 1276 C 118.413 1.45204 1.2067 0
M  V30 1277 O 117.77 0.566132 1.73497 0
M  V30 1278 C 117.821 3.61481 0.0375347 0
M  V30 1279 O 117.542 4.20598 -1.22593 0
M  V30 1280 C 119.043 4.39652 0.567561 0
M  V30 1281 H 116.263 0.66747 -0.0687351 0
M  V30 1282 H 118.807 1.86675 -0.835022 0
M  V30 1283 H 116.962 3.80762 0.714068 0
M  V30 1284 H 117.376 5.1377 -1.05547 0
M  V30 1285 H 118.85 5.48518 0.61905 0
M  V30 1286 H 119.327 4.09417 1.58978 0
M  V30 1287 H 119.933 4.25234 -0.0749202 0
M  V30 1288 N 118.248 0.346503 1.53744 0
M  V30 1289 C 119.497 -0.250122 2.00143 0
M  V30 1290 C 119.81 -1.51418 1.23822 0
M  V30 1291 O 121.016 -2.18823 1.60713 0
M  V30 1292 C 119.472 -0.496252 3.56462 0
M  V30 1293 C 119.08 0.752077 4.41642 0
M  V30 1294 C 120.824 -1.05157 4.11269 0
M  V30 1295 C 118.731 0.476583 5.89477 0
M  V30 1296 H 117.661 -0.0972409 0.747703 0
M  V30 1297 H 120.312 0.46229 1.77581 0
M  V30 1298 H 118.694 -1.26944 3.75102 0
M  V30 1299 H 119.868 1.5266 4.34778 0
M  V30 1300 H 118.183 1.22925 3.97842 0
M  V30 1301 H 120.78 -1.27269 5.19333 0
M  V30 1302 H 121.123 -2.00799 3.64672 0
M  V30 1303 H 121.656 -0.339019 3.96353 0
M  V30 1304 H 118.395 1.4028 6.40314 0
M  V30 1305 H 117.915 -0.259794 5.99237 0
M  V30 1306 H 119.594 0.0949315 6.4693 0
M  V30 1307 N 119.726 -1.57421 0.075193 0
M  V30 1308 C 120.954 -1.97946 -0.602076 0
M  V30 1309 C 121.369 -0.953674 -1.62943 0
M  V30 1310 O 120.726 0.0592551 -1.82404 0
M  V30 1311 C 120.777 -3.38546 -1.26762 0
M  V30 1312 O 120.498 -4.37195 -0.281376 0
M  V30 1313 C 121.999 -3.93966 -2.03239 0
M  V30 1314 H 119.219 -0.650918 -0.162931 0
M  V30 1315 H 121.763 -2.03959 0.148601 0
M  V30 1316 H 119.918 -3.33609 -1.96936 0
M  V30 1317 H 120.332 -5.18975 -0.759267 0
M  V30 1318 H 121.806 -4.94555 -2.45193 0
M  V30 1319 H 122.283 -3.30693 -2.8903 0
M  V30 1320 H 122.889 -4.02315 -1.37924 0
M  V30 1321 N 121.204 0.198386 -1.56346 0
M  V30 1322 C 122.429 0.939682 -1.84891 0
M  V30 1323 C 122.854 1.76202 -0.658369 0
M  V30 1324 O 122.212 1.76993 0.392851 0
M  V30 1325 C 122.26 1.81428 -3.11635 0
M  V30 1326 O 121.364 2.91265 -2.91956 0
M  V30 1327 H 120.705 0.264807 -0.608912 0
M  V30 1328 H 123.235 0.204695 -2.03573 0
M  V30 1329 H 123.245 2.21958 -3.42343 0
M  V30 1330 H 121.92 1.21004 -3.97908 0
M  V30 1331 H 120.497 2.54514 -2.72538 0
M  V30 1332 N 122.682 1.50554 0.465978 0
M  V30 1333 C 124.098 1.38093 0.800154 0
M  V30 1334 C 124.298 0.440988 1.96615 0
M  V30 1335 O 123.354 -0.114499 2.5224 0
M  V30 1336 C 124.667 2.79565 1.10742 0
M  V30 1337 C 126.215 2.88516 1.21357 0
M  V30 1338 C 126.69 4.30833 1.55393 0
M  V30 1339 N 128.181 4.33807 1.62375 0
M  V30 1340 C 128.916 5.40927 1.90225 0
M  V30 1341 N 128.412 6.58247 2.16062 0
M  V30 1342 N 130.205 5.28376 1.9177 0
M  V30 1343 H 122.356 2.10237 -0.302366 0
M  V30 1344 H 124.619 0.945203 -0.0727746 0
M  V30 1345 H 124.325 3.50208 0.323661 0
M  V30 1346 H 124.199 3.17125 2.04234 0
M  V30 1347 H 126.586 2.1809 1.98799 0
M  V30 1348 H 126.667 2.54492 0.258321 0
M  V30 1349 H 126.311 5.01799 0.784889 0
M  V30 1350 H 126.241 4.62347 2.52076 0
M  V30 1351 H 128.732 3.49212 1.44427 0
M  V30 1352 H 129.045 7.3569 2.36601 0
M  V30 1353 H 127.39 6.61413 2.13444 0
M  V30 1354 H 130.581 4.35715 1.71085 0
M  V30 1355 H 130.754 6.11944 2.13139 0
M  V30 1356 N 124.16 -0.719506 1.40217 0
M  V30 1357 C 125.093 -1.84298 1.34571 0
M  V30 1358 C 126.071 -1.61149 0.216741 0
M  V30 1359 O 127.255 -1.84212 0.399756 0
M  V30 1360 C 124.382 -3.20568 1.09335 0
M  V30 1361 C 123.428 -3.62551 2.24631 0
M  V30 1362 S 124.261 -3.7012 3.87004 0
M  V30 1363 C 125.417 -5.09154 3.64024 0
M  V30 1364 H 125.65 -1.88807 2.2965 0
M  V30 1365 H 123.183 -0.885901 1.26456 0
M  V30 1366 H 125.141 -3.99246 0.954602 0
M  V30 1367 H 123.802 -3.13696 0.159164 0
M  V30 1368 H 122.995 -4.61483 2.02606 0
M  V30 1369 H 122.597 -2.91119 2.34789 0
M  V30 1370 H 124.889 -5.95955 3.22248 0
M  V30 1371 H 125.832 -5.36213 4.62473 0
M  V30 1372 H 126.24 -4.79562 2.97793 0
M  V30 1373 N 125.638 -1.25649 -0.95132 0
M  V30 1374 C 126.601 -1.06399 -2.03007 0
M  V30 1375 C 127.601 -0.0156794 -1.60792 0
M  V30 1376 O 128.791 -0.25817 -1.72276 0
M  V30 1377 C 125.923 -0.616184 -3.35285 0
M  V30 1378 H 127.116 -2.02164 -2.21517 0
M  V30 1379 H 124.669 -1.08103 -1.12887 0
M  V30 1380 H 125.404 0.343917 -3.22471 0
M  V30 1381 H 125.189 -1.37301 -3.67275 0
M  V30 1382 H 126.679 -0.503032 -4.14559 0
M  V30 1383 N 127.117 1.15442 -1.07289 0
M  V30 1384 C 128.345 1.90096 -0.81676 0
M  V30 1385 C 128.76 1.7798 0.629966 0
M  V30 1386 O 128.117 1.1313 1.43206 0
M  V30 1387 C 128.168 3.40466 -1.21512 0
M  V30 1388 O 127.889 3.52232 -2.60508 0
M  V30 1389 C 129.39 4.32145 -0.988198 0
M  V30 1390 H 126.61 0.602495 -0.295366 0
M  V30 1391 H 129.154 1.4627 -1.42918 0
M  V30 1392 H 127.309 3.81958 -0.647039 0
M  V30 1393 H 127.723 4.45549 -2.76742 0
M  V30 1394 H 129.197 5.36072 -1.31645 0
M  V30 1395 H 129.674 4.39135 0.0755063 0
M  V30 1396 H 130.28 3.96395 -1.54115 0
M  V30 1397 N 128.595 0.856903 1.32268 0
M  V30 1398 C 129.823 0.475439 2.01363 0
M  V30 1399 C 130.238 -0.928486 1.64392 0
M  V30 1400 O 129.595 -1.60624 0.866387 0
M  V30 1401 C 129.646 0.607545 3.56358 0
M  V30 1402 O 129.367 1.95617 3.92002 0
M  V30 1403 C 130.868 0.225382 4.42727 0
M  V30 1404 H 128.088 0.186636 0.644521 0
M  V30 1405 H 130.632 1.15446 1.68797 0
M  V30 1406 H 128.787 -0.0237719 3.87393 0
M  V30 1407 H 129.201 1.95455 4.86721 0
M  V30 1408 H 130.675 0.368813 5.50767 0
M  V30 1409 H 131.152 -0.834369 4.31202 0
M  V30 1410 H 131.758 0.831864 4.17085 0
M  V30 1411 N 130.073 -1.45103 0.615059 0
M  V30 1412 C 131.006 -2.27717 -0.148408 0
M  V30 1413 C 131.984 -1.37584 -0.866572 0
M  V30 1414 O 133.168 -1.67017 -0.87393 0
M  V30 1415 C 130.295 -3.16136 -1.21557 0
M  V30 1416 C 129.341 -4.22263 -0.599712 0
M  V30 1417 S 130.174 -5.3215 0.598081 0
M  V30 1418 C 131.33 -6.24137 -0.469484 0
M  V30 1419 H 131.563 -2.92121 0.552483 0
M  V30 1420 H 129.096 -1.49054 0.402778 0
M  V30 1421 H 131.054 -3.67633 -1.82638 0
M  V30 1422 H 129.715 -2.50982 -1.88857 0
M  V30 1423 H 128.908 -4.84081 -1.4029 0
M  V30 1424 H 128.51 -3.73945 -0.063876 0
M  V30 1425 H 130.802 -6.63984 -1.34652 0
M  V30 1426 H 131.745 -7.0801 0.112725 0
M  V30 1427 H 132.153 -5.58971 -0.788168 0
M  V30 1428 N 131.551 -0.354651 -1.53558 0
M  V30 1429 C 132.8 0.239504 -2.00273 0
M  V30 1430 C 133.113 1.50759 -1.24623 0
M  V30 1431 O 134.319 2.17968 -1.61871 0
M  V30 1432 C 132.775 0.477341 -3.5672 0
M  V30 1433 C 132.383 -0.775488 -4.41237 0
M  V30 1434 C 134.127 1.02975 -4.11821 0
M  V30 1435 C 132.034 -0.507838 -5.89216 0
M  V30 1436 H 130.964 0.0932743 -0.748208 0
M  V30 1437 H 133.615 -0.471701 -1.77334 0
M  V30 1438 H 131.997 1.24953 -3.7577 0
M  V30 1439 H 133.171 -1.54963 -4.33962 0
M  V30 1440 H 131.486 -1.25033 -3.97185 0
M  V30 1441 H 134.083 1.24513 -5.2 0
M  V30 1442 H 134.426 1.98862 -3.65731 0
M  V30 1443 H 134.959 0.317994 -3.96527 0
M  V30 1444 H 131.698 -1.43674 -6.39561 0
M  V30 1445 H 131.218 0.228011 -5.99366 0
M  V30 1446 H 132.897 -0.129238 -6.46871 0
M  V30 1447 N 133.029 1.57378 -0.0835403 0
M  V30 1448 C 133.961 2.10389 0.909338 0
M  V30 1449 C 134.974 1.03858 1.25369 0
M  V30 1450 O 136.163 1.31338 1.20882 0
M  V30 1451 C 133.263 2.55908 2.2218 0
M  V30 1452 C 132.436 3.86145 2.05453 0
M  V30 1453 C 131.495 4.17633 3.20108 0
M  V30 1454 O 130.521 4.87043 2.94581 0
M  V30 1455 N 131.723 3.72113 4.45547 0
M  V30 1456 H 134.488 2.962 0.456657 0
M  V30 1457 H 132.049 1.61579 0.101877 0
M  V30 1458 H 134.041 2.74027 2.97811 0
M  V30 1459 H 132.611 1.75171 2.58909 0
M  V30 1460 H 131.831 3.7729 1.1422 0
M  V30 1461 H 133.119 4.7137 1.91541 0
M  V30 1462 H 132.517 3.16062 4.69171 0
M  V30 1463 H 131.074 3.95409 5.18165 0
M  V30 1464 N 134.507 -0.190092 1.56449 0
M  V30 1465 C 135.732 -0.929864 1.85387 0
M  V30 1466 C 136.157 -1.7585 0.667704 0
M  V30 1467 O 135.515 -1.77198 -0.383459 0
M  V30 1468 C 135.563 -1.79773 3.12593 0
M  V30 1469 O 134.667 -2.89713 2.93496 0
M  V30 1470 H 134.008 -0.261574 0.610307 0
M  V30 1471 H 136.538 -0.193896 2.03679 0
M  V30 1472 H 136.548 -2.20139 3.43515 0
M  V30 1473 H 135.223 -1.18892 3.98544 0
M  V30 1474 H 133.8 -2.53065 2.73884 0
M  V30 1475 N 135.985 -1.50799 -0.457987 0
M  V30 1476 C 136.932 -1.70617 -1.5543 0
M  V30 1477 C 137.902 -0.547562 -1.56815 0
M  V30 1478 O 139.087 -0.779647 -1.74144 0
M  V30 1479 C 136.227 -1.81831 -2.93311 0
M  V30 1480 C 135.34 -3.09278 -3.01615 0
M  V30 1481 C 134.475 -3.11209 -4.30491 0
M  V30 1482 C 133.514 -4.33055 -4.32585 0
M  V30 1483 N 132.651 -4.32652 -5.52952 0
M  V30 1484 H 137.491 -2.64207 -1.37836 0
M  V30 1485 H 135.028 -1.30959 -0.669937 0
M  V30 1486 H 136.986 -1.86314 -3.73287 0
M  V30 1487 H 135.616 -0.916685 -3.0951 0
M  V30 1488 H 134.668 -3.14203 -2.1443 0
M  V30 1489 H 135.98 -3.99233 -2.99022 0
M  V30 1490 H 135.134 -3.14494 -5.18824 0
M  V30 1491 H 133.873 -2.19106 -4.35711 0
M  V30 1492 H 132.878 -4.29969 -3.42647 0
M  V30 1493 H 134.103 -5.264 -4.29046 0
M  V30 1494 H 132.049 -3.43409 -5.58933 0
M  V30 1495 H 131.966 -5.16392 -5.52155 0
M  V30 1496 H 133.234 -4.40101 -6.43375 0
M  V30 1497 N 137.463 0.71206 -1.40597 0
M  V30 1498 C 138.709 1.47416 -1.39271 0
M  V30 1499 C 139.042 1.942 0.00388791 0
M  V30 1500 O 138.317 1.68403 0.973179 0
M  V30 1501 C 138.6 2.69774 -2.38525 0
M  V30 1502 C 138.453 2.28861 -3.87224 0
M  V30 1503 C 139.772 3.71939 -2.35264 0
M  V30 1504 H 136.891 0.534713 -0.5072 0
M  V30 1505 H 139.533 0.812375 -1.71757 0
M  V30 1506 H 137.683 3.26238 -2.10953 0
M  V30 1507 H 139.355 1.77852 -4.25636 0
M  V30 1508 H 137.598 1.60824 -4.02887 0
M  V30 1509 H 138.269 3.16584 -4.52193 0
M  V30 1510 H 140.745 3.25113 -2.59694 0
M  V30 1511 H 139.621 4.55186 -3.06753 0
M  V30 1512 H 139.882 4.20484 -1.36549 0
M  V30 1513 N 138.941 1.26152 0.944643 0
M  V30 1514 C 140.187 1.11657 1.69294 0
M  V30 1515 C 140.52 -0.339926 1.91202 0
M  V30 1516 O 139.795 -1.24994 1.49019 0
M  V30 1517 C 140.078 1.88236 3.06984 0
M  V30 1518 C 139.931 3.41772 2.92424 0
M  V30 1519 C 141.25 1.67343 4.07043 0
M  V30 1520 H 138.369 0.407004 0.614424 0
M  V30 1521 H 141.011 1.55106 1.09737 0
M  V30 1522 H 139.161 1.51308 3.57824 0
M  V30 1523 H 140.833 3.88433 2.48832 0
M  V30 1524 H 139.076 3.68974 2.28124 0
M  V30 1525 H 139.747 3.90579 3.90067 0
M  V30 1526 H 142.223 1.99509 3.65151 0
M  V30 1527 H 141.099 2.23346 5.01406 0
M  V30 1528 H 141.36 0.617158 4.37771 0
M  V30 1529 N 140.419 -1.14872 1.07899 0
M  V30 1530 C 141.367 -2.21857 0.698727 0
M  V30 1531 C 142.361 -1.66845 -0.293086 0
M  V30 1532 O 143.567 -1.79321 -0.156204 0
M  V30 1533 H 139.942 -0.722691 0.207899 0
M  V30 1534 H 141.913 -2.51205 1.61054 0
M  V30 1535 C 140.662 -3.47498 0.11858 0
M  V30 1536 H 139.985 -3.90154 0.872914 0
M  V30 1537 H 141.425 -4.23858 -0.109759 0
M  V30 1538 C 139.884 -3.16947 -1.1422 0
M  V30 1539 O 140.414 -3.3426 -2.22785 0
M  V30 1540 N 138.62 -2.70946 -1.05055 0
M  V30 1541 H 138.167 -2.57058 -0.167038 0
M  V30 1542 H 138.125 -2.50879 -1.89491 0
M  V30 1543 N 141.898 -0.863906 -1.31812 0
M  V30 1544 C 142.846 -0.30422 -2.30602 0
M  V30 1545 C 143.84 0.577419 -1.59255 0
M  V30 1546 O 145.046 0.464194 -1.73912 0
M  V30 1547 H 141.421 -0.0796877 -0.747766 0
M  V30 1548 H 143.392 -1.15148 -2.75288 0
M  V30 1549 C 142.141 0.484617 -3.44306 0
M  V30 1550 H 141.464 -0.18451 -3.99374 0
M  V30 1551 H 142.904 0.841664 -4.15562 0
M  V30 1552 C 141.363 1.6735 -2.92396 0
M  V30 1553 O 141.893 2.77273 -2.90659 0
M  V30 1554 N 140.099 1.50362 -2.48676 0
M  V30 1555 H 139.646 0.609402 -2.50288 0
M  V30 1556 H 139.604 2.30051 -2.14299 0
M  V30 1557 N 143.376 1.44774 -0.622745 0
M  V30 1558 C 144.601 2.06999 -0.128968 0
M  V30 1559 C 145.026 1.4617 1.1839 0
M  V30 1560 O 144.384 0.560007 1.72434 0
M  V30 1561 C 144.432 3.60595 -0.0188351 0
M  V30 1562 O 143.536 3.99398 1.02739 0
M  V30 1563 H 142.877 0.659047 -0.0809544 0
M  V30 1564 H 145.407 1.85784 -0.85705 0
M  V30 1565 H 145.417 4.07627 0.174476 0
M  V30 1566 H 144.092 4.04252 -0.977384 0
M  V30 1567 H 142.669 3.64011 0.809326 0
M  V30 1568 N 144.854 0.36279 1.53368 0
M  V30 1569 C 146.265 -0.117022 1.86333 0
M  V30 1570 C 146.616 -1.48397 1.28347 0
M  V30 1571 O 145.741 -2.07787 0.604428 0
M  V30 1572 C 146.336 -0.21912 3.38091 0
M  V30 1573 C 144.895 -0.643184 3.70864 0
M  V30 1574 C 144.042 0.211318 2.76494 0
M  V30 1575 H 146.993 0.581687 1.47655 0
M  V30 1576 H 147.014 -1.04319 3.6592 0
M  V30 1577 H 146.526 0.775902 3.80265 0
M  V30 1578 H 144.627 -1.64654 3.34245 0
M  V30 1579 H 144.74 -0.41973 4.77258 0
M  V30 1580 H 143.104 -0.319367 2.5269 0
M  V30 1581 H 143.887 1.20383 3.21501 0
M  V30 1582 N 146.332 -1.57332 0.0918853 0
M  V30 1583 C 147.264 -2.10869 -0.898168 0
M  V30 1584 C 148.277 -1.04521 -1.24817 0
M  V30 1585 O 149.466 -1.31977 -1.20184 0
M  V30 1586 C 146.566 -2.57083 -2.2082 0
M  V30 1587 C 145.739 -3.87229 -2.03402 0
M  V30 1588 C 144.798 -4.19324 -3.17889 0
M  V30 1589 O 143.824 -4.88598 -2.91994 0
M  V30 1590 N 145.026 -3.74471 -4.43567 0
M  V30 1591 H 147.791 -2.96439 -0.440943 0
M  V30 1592 H 145.352 -1.61631 -0.0933064 0
M  V30 1593 H 147.344 -2.75602 -2.96354 0
M  V30 1594 H 145.914 -1.76541 -2.57977 0
M  V30 1595 H 145.134 -3.7789 -1.12218 0
M  V30 1596 H 146.422 -4.72379 -1.89038 0
M  V30 1597 H 145.82 -3.18546 -4.67488 0
M  V30 1598 H 144.377 -3.98151 -5.16061 0
M  V30 1599 N 147.81 0.181792 -1.56548 0
M  V30 1600 C 149.221 0.745244 -1.71181 0
M  V30 1601 C 149.572 1.83262 -0.70068 0
M  V30 1602 O 148.697 2.15946 0.140154 0
M  V30 1603 C 149.292 1.35859 -3.10367 0
M  V30 1604 C 147.851 1.86898 -3.2672 0
M  V30 1605 C 146.998 0.743942 -2.67134 0
M  V30 1606 H 149.949 -0.0434661 -1.5864 0
M  V30 1607 H 149.97 2.22817 -3.08436 0
M  V30 1608 H 149.482 0.566948 -3.83937 0
M  V30 1609 H 147.583 2.68738 -2.5809 0
M  V30 1610 H 147.696 2.02162 -4.34359 0
M  V30 1611 H 146.06 1.16169 -2.26665 0
M  V30 1612 H 146.843 -0.035676 -3.43281 0
M  V30 1613 N 149.288 1.51039 0.449983 0
M  V30 1614 C 150.22 1.67617 1.56324 0
M  V30 1615 C 151.233 0.557083 1.52972 0
M  V30 1616 O 152.422 0.830989 1.57977 0
M  V30 1617 C 149.522 1.66402 2.95235 0
M  V30 1618 C 148.695 2.9469 3.23229 0
M  V30 1619 C 147.754 2.85832 4.41799 0
M  V30 1620 O 146.78 3.59785 4.41071 0
M  V30 1621 N 147.982 2.00821 5.44657 0
M  V30 1622 H 150.747 2.63648 1.42512 0
M  V30 1623 H 148.308 1.48767 0.638737 0
M  V30 1624 H 150.3 1.58062 3.72557 0
M  V30 1625 H 148.87 0.780182 3.02708 0
M  V30 1626 H 148.09 3.16996 2.34323 0
M  V30 1627 H 149.378 3.79636 3.38754 0
M  V30 1628 H 148.776 1.40091 5.48079 0
M  V30 1629 H 147.333 1.98368 6.20881 0
M  V30 1630 N 150.766 -0.704594 1.40972 0
M  V30 1631 C 151.714 -1.83994 1.42299 0
M  V30 1632 C 152.708 -1.66684 0.302111 0
M  V30 1633 O 153.914 -1.73655 0.473697 0
M  V30 1634 H 150.289 -0.606171 0.44504 0
M  V30 1635 H 152.26 -1.79992 2.38003 0
M  V30 1636 C 151.009 -3.21946 1.31323 0
M  V30 1637 H 150.332 -3.35878 2.16855 0
M  V30 1638 H 151.772 -4.01491 1.36311 0
M  V30 1639 C 150.231 -3.36891 0.0245977 0
M  V30 1640 O 150.761 -3.90687 -0.934153 0
M  V30 1641 N 148.967 -2.90559 -0.0485243 0
M  V30 1642 H 148.514 -2.46968 0.732419 0
M  V30 1643 H 148.472 -3.00937 -0.910171 0
M  V30 1644 N 152.244 -1.26651 -0.937939 0
M  V30 1645 C 153.49 -1.12553 -1.687 0
M  V30 1646 C 153.823 0.329782 -1.91379 0
M  V30 1647 O 153.098 1.24202 -1.4968 0
M  V30 1648 C 153.381 -1.89862 -3.05981 0
M  V30 1649 C 153.234 -3.43318 -2.90607 0
M  V30 1650 C 154.553 -1.69499 -4.0615 0
M  V30 1651 H 151.672 -0.410257 -0.612257 0
M  V30 1652 H 154.314 -1.55685 -1.08913 0
M  V30 1653 H 152.464 -1.53204 -3.57017 0
M  V30 1654 H 154.136 -3.89747 -2.46769 0
M  V30 1655 H 152.379 -3.70179 -2.26164 0
M  V30 1656 H 153.05 -3.92642 -3.8799 0
M  V30 1657 H 155.526 -2.01442 -3.64088 0
M  V30 1658 H 154.402 -2.26002 -5.00214 0
M  V30 1659 H 154.663 -0.640365 -4.37438 0
M  V30 1660 N 153.722 1.14298 -1.08507 0
M  V30 1661 C 154.968 1.85633 -0.816581 0
M  V30 1662 C 155.301 1.82784 0.656021 0
M  V30 1663 O 154.576 1.25926 1.48233 0
M  V30 1664 C 154.859 3.34223 -1.34041 0
M  V30 1665 C 154.712 3.45639 -2.87843 0
M  V30 1666 C 156.031 4.29356 -0.9665 0
M  V30 1667 H 153.15 0.67402 -0.298104 0
M  V30 1668 H 155.792 1.34214 -1.34487 0
M  V30 1669 H 153.942 3.78144 -0.89104 0
M  V30 1670 H 155.614 3.10498 -3.41158 0
M  V30 1671 H 153.857 2.86817 -3.25451 0
M  V30 1672 H 154.528 4.50089 -3.19569 0
M  V30 1673 H 157.004 3.93457 -1.35391 0
M  V30 1674 H 155.88 5.3178 -1.3602 0
M  V30 1675 H 156.141 4.41919 0.126362 0
M  V30 1676 N 155.201 0.870884 1.31352 0
M  V30 1677 C 156.448 0.482273 1.96673 0
M  V30 1678 C 156.776 -0.965638 1.68836 0
M  V30 1679 O 156.031 -1.69514 0.977937 0
M  V30 1680 C 156.33 0.687157 3.50732 0
M  V30 1681 C 155.996 2.108 3.9859 0
M  V30 1682 C 154.658 2.49656 4.1137 0
M  V30 1683 C 157.01 3.03459 4.23748 0
M  V30 1684 C 154.338 3.80412 4.46659 0
M  V30 1685 C 156.69 4.3373 4.60501 0
M  V30 1686 C 155.354 4.725 4.71487 0
M  V30 1687 H 154.624 0.176476 0.719679 0
M  V30 1688 H 157.271 1.10405 1.56471 0
M  V30 1689 H 155.576 -0.0177476 3.91796 0
M  V30 1690 H 157.273 0.366284 3.99324 0
M  V30 1691 H 153.863 1.79633 3.8914 0
M  V30 1692 H 158.047 2.74665 4.13368 0
M  V30 1693 H 153.303 4.1021 4.53362 0
M  V30 1694 H 157.477 5.05578 4.78919 0
M  V30 1695 H 155.104 5.73859 4.98588 0
M  V30 1696 N 156.679 -1.44442 0.630414 0
M  V30 1697 C 157.956 -1.9549 0.0655657 0
M  V30 1698 C 158.336 -1.5724 -1.40851 0
M  V30 1699 O 157.684 -0.846116 -2.12257 0
M  V30 1700 C 157.894 -3.47812 0.287691 0
M  V30 1701 C 159.242 -4.24216 0.180513 0
M  V30 1702 O 160.266 -3.55526 0.219019 0
M  V30 1703 O 159.125 -5.46434 0.0848493 0
M  V30 1704 H 156.219 -0.826688 -0.0227177 0
M  V30 1705 H 158.765 -1.54496 0.702068 0
M  V30 1706 H 157.537 -3.687 1.31056 0
M  V30 1707 H 157.16 -3.95751 -0.382984 0
M  V30 1708 N 158.157 -0.370918 -1.53173 0
M  V30 1709 C 159.403 0.217423 -2.01631 0
M  V30 1710 C 159.736 1.47983 -1.25756 0
M  V30 1711 O 159.011 1.91274 -0.352764 0
M  V30 1712 C 159.294 0.503982 -3.56556 0
M  V30 1713 C 159.147 -0.77243 -4.43118 0
M  V30 1714 C 160.466 1.30234 -4.20389 0
M  V30 1715 H 157.585 0.0775486 -0.732909 0
M  V30 1716 H 160.227 -0.496863 -1.83388 0
M  V30 1717 H 158.377 1.11248 -3.72231 0
M  V30 1718 H 160.049 -1.4098 -4.39229 0
M  V30 1719 H 158.292 -1.39167 -4.10871 0
M  V30 1720 H 158.963 -0.526815 -5.4948 0
M  V30 1721 H 161.439 0.787546 -4.08579 0
M  V30 1722 H 160.315 1.47158 -5.28806 0
M  V30 1723 H 160.576 2.31237 -3.76805 0
M  V30 1724 N 159.635 1.57281 -0.100228 0
M  V30 1725 C 160.567 2.11342 0.886972 0
M  V30 1726 C 161.58 1.05182 1.24261 0
M  V30 1727 O 162.769 1.32613 1.19483 0
M  V30 1728 C 159.869 2.5825 2.19454 0
M  V30 1729 C 159.042 3.88302 2.01346 0
M  V30 1730 C 158.101 4.21004 3.15661 0
M  V30 1731 O 157.127 4.9014 2.89398 0
M  V30 1732 N 158.329 3.76818 4.41575 0
M  V30 1733 H 161.094 2.96668 0.425216 0
M  V30 1734 H 158.655 1.61678 0.0847334 0
M  V30 1735 H 160.647 2.7717 2.94888 0
M  V30 1736 H 159.217 1.77907 2.57037 0
M  V30 1737 H 158.437 3.7848 1.10212 0
M  V30 1738 H 159.725 4.73375 1.8653 0
M  V30 1739 H 159.123 3.2102 4.65792 0
M  V30 1740 H 157.68 4.00882 5.13942 0
M  V30 1741 N 161.113 -0.173488 1.56642 0
M  V30 1742 C 162.362 -0.888758 1.81063 0
M  V30 1743 C 162.675 -1.83506 0.67712 0
M  V30 1744 O 163.881 -2.59254 0.806206 0
M  V30 1745 C 162.337 -1.63091 3.20826 0
M  V30 1746 C 161.945 -0.728357 4.4204 0
M  V30 1747 C 163.689 -2.33454 3.54541 0
M  V30 1748 C 161.596 -1.47062 5.72823 0
M  V30 1749 H 160.526 -0.335618 0.675186 0
M  V30 1750 H 163.177 -0.141712 1.82952 0
M  V30 1751 H 161.559 -2.42263 3.13248 0
M  V30 1752 H 162.733 0.0262449 4.60793 0
M  V30 1753 H 161.048 -0.134492 4.16183 0
M  V30 1754 H 163.645 -2.89578 4.49498 0
M  V30 1755 H 163.988 -3.08687 2.79317 0
M  V30 1756 H 164.521 -1.61227 3.63663 0
M  V30 1757 H 161.26 -0.760658 6.51072 0
M  V30 1758 H 160.78 -2.1986 5.58052 0
M  V30 1759 H 162.459 -2.01868 6.14702 0
M  V30 1760 N 162.591 -1.51276 -0.441967 0
M  V30 1761 C 164.002 -1.56244 -1.02199 0
M  V30 1762 C 164.353 -0.383149 -1.92422 0
M  V30 1763 O 163.478 0.500613 -2.1053 0
M  V30 1764 C 164.073 -2.83162 -1.86024 0
M  V30 1765 C 162.632 -2.90716 -2.39084 0
M  V30 1766 C 161.779 -2.50858 -1.18175 0
M  V30 1767 H 164.73 -1.5712 -0.223416 0
M  V30 1768 H 164.751 -2.66663 -2.71425 0
M  V30 1769 H 164.263 -3.68974 -1.20331 0
M  V30 1770 H 162.364 -2.09323 -3.08244 0
M  V30 1771 H 162.477 -3.94266 -2.72198 0
M  V30 1772 H 160.841 -2.03951 -1.52565 0
M  V30 1773 H 161.624 -3.3901 -0.541001 0
M  V30 1774 N 164.069 0.697108 -1.41344 0
M  V30 1775 C 165.016 1.81106 -1.43071 0
M  V30 1776 C 165.986 1.63632 -0.285275 0
M  V30 1777 O 167.171 1.84504 -0.486091 0
M  V30 1778 C 164.311 3.18975 -1.31715 0
M  V30 1779 C 163.424 3.47892 -2.56115 0
M  V30 1780 C 162.559 4.75367 -2.37064 0
M  V30 1781 C 161.598 4.97247 -3.56948 0
M  V30 1782 N 160.735 6.15947 -3.36977 0
M  V30 1783 H 165.575 1.78965 -2.38276 0
M  V30 1784 H 163.112 0.873975 -1.18322 0
M  V30 1785 H 165.07 3.98615 -1.23133 0
M  V30 1786 H 163.7 3.20297 -0.401183 0
M  V30 1787 H 162.752 2.62669 -2.75153 0
M  V30 1788 H 164.064 3.59962 -3.45295 0
M  V30 1789 H 163.218 5.63059 -2.25941 0
M  V30 1790 H 161.957 4.65541 -1.45338 0
M  V30 1791 H 160.962 4.08004 -3.68527 0
M  V30 1792 H 162.187 5.08934 -4.49626 0
M  V30 1793 H 160.133 6.07336 -2.47949 0
M  V30 1794 H 160.05 6.28777 -4.19732 0
M  V30 1795 H 161.318 7.06377 -3.29623 0
M  V30 1796 N 165.547 1.27147 0.931209 0
M  V30 1797 C 166.795 1.13055 1.6752 0
M  V30 1798 C 167.116 -0.324791 1.92276 0
M  V30 1799 O 166.386 -1.22775 1.52654 0
M  V30 1800 H 164.966 0.415391 0.620854 0
M  V30 1801 H 167.628 1.59623 1.11833 0
M  V30 1802 H 166.724 1.65694 2.64485 0
M  V30 1803 N 167.025 -1.13721 1.09112 0
M  V30 1804 C 167.988 -2.17222 0.731241 0
M  V30 1805 C 168.988 -1.59035 -0.237566 0
M  V30 1806 O 170.178 -1.74192 -0.0161704 0
M  V30 1807 C 167.31 -3.40804 0.0808443 0
M  V30 1808 H 168.503 -2.50573 1.64783 0
M  V30 1809 H 166.056 -1.28493 0.889897 0
M  V30 1810 H 166.791 -3.1304 -0.847127 0
M  V30 1811 H 166.576 -3.84306 0.777896 0
M  V30 1812 H 168.066 -4.1731 -0.155657 0
M  V30 1813 N 168.503 -0.877838 -1.30888 0
M  V30 1814 C 169.75 -0.492696 -1.96415 0
M  V30 1815 C 170.078 0.956671 -1.69346 0
M  V30 1816 O 169.333 1.68993 -0.986913 0
M  V30 1817 C 169.632 -0.705748 -3.50363 0
M  V30 1818 C 169.298 -2.1291 -3.97467 0
M  V30 1819 C 167.96 -2.51834 -4.1004 0
M  V30 1820 C 170.312 -3.05702 -4.22132 0
M  V30 1821 C 167.64 -3.82775 -4.44635 0
M  V30 1822 C 169.992 -4.36166 -4.58194 0
M  V30 1823 C 168.656 -4.74993 -4.68975 0
M  V30 1824 H 167.926 -0.18029 -0.718733 0
M  V30 1825 H 170.573 -1.11233 -1.55883 0
M  V30 1826 H 168.878 -0.00303058 -3.918 0
M  V30 1827 H 170.575 -0.387456 -3.99124 0
M  V30 1828 H 167.165 -1.81694 -3.88182 0
M  V30 1829 H 171.349 -2.76853 -4.11906 0
M  V30 1830 H 166.605 -4.12609 -4.51181 0
M  V30 1831 H 170.779 -5.08111 -4.76231 0
M  V30 1832 H 168.406 -5.76495 -4.95537 0
M  V30 1833 N 169.982 1.44106 -0.638065 0
M  V30 1834 C 171.231 2.01194 -0.142744 0
M  V30 1835 C 171.544 1.50835 1.24532 0
M  V30 1836 O 172.75 2.00096 1.83504 0
M  V30 1837 C 171.206 3.59319 -0.20442 0
M  V30 1838 C 170.814 4.18674 -1.59423 0
M  V30 1839 C 172.558 4.23854 0.234079 0
M  V30 1840 C 170.465 5.69045 -1.61065 0
M  V30 1841 H 169.395 0.752367 -0.0495998 0
M  V30 1842 H 172.046 1.65246 -0.797881 0
M  V30 1843 H 170.428 3.92598 0.517946 0
M  V30 1844 H 171.602 3.96921 -2.34074 0
M  V30 1845 H 169.917 3.66453 -1.97741 0
M  V30 1846 H 172.514 5.34155 0.241443 0
M  V30 1847 H 172.857 3.96688 1.2627 0
M  V30 1848 H 173.39 3.95403 -0.436025 0
M  V30 1849 H 170.129 6.00956 -2.61787 0
M  V30 1850 H 169.649 5.929 -0.90718 0
M  V30 1851 H 171.328 6.32809 -1.34766 0
M  V30 1852 N 171.46 0.379036 1.52974 0
M  V30 1853 C 172.685 -0.209353 2.06341 0
M  V30 1854 C 173.11 -1.40583 1.24972 0
M  V30 1855 O 172.468 -1.79246 0.272155 0
M  V30 1856 C 172.516 -0.567786 3.56102 0
M  V30 1857 O 171.62 -1.66318 3.77375 0
M  V30 1858 H 170.961 -0.0272919 0.663439 0
M  V30 1859 H 173.491 0.543536 1.97248 0
M  V30 1860 H 173.501 -0.835003 3.99364 0
M  V30 1861 H 172.176 0.307013 4.14765 0
M  V30 1862 H 170.753 -1.39048 3.46006 0
M  V30 1863 N 172.938 -1.57226 0.108567 0
M  V30 1864 C 173.886 -2.16002 -0.862885 0
M  V30 1865 C 174.88 -1.10644 -1.28274 0
M  V30 1866 O 176.086 -1.28966 -1.2557 0
M  V30 1867 H 172.461 -0.691148 -0.296342 0
M  V30 1868 H 174.432 -2.96427 -0.342575 0
M  V30 1869 C 173.181 -2.76576 -2.10716 0
M  V30 1870 H 172.504 -3.5734 -1.793 0
M  V30 1871 H 173.944 -3.21253 -2.76717 0
M  V30 1872 C 172.403 -1.73137 -2.89007 0
M  V30 1873 O 172.933 -1.17842 -3.84026 0
M  V30 1874 N 171.139 -1.43317 -2.52801 0
M  V30 1875 H 170.686 -1.88473 -1.75601 0
M  V30 1876 H 170.644 -0.743485 -3.05483 0
M  V30 1877 N 174.416 0.165178 -1.56732 0
M  V30 1878 C 175.663 0.880807 -1.8234 0
M  V30 1879 C 175.991 1.81977 -0.686621 0
M  V30 1880 O 175.246 1.92971 0.325697 0
M  V30 1881 C 175.545 1.70405 -3.1416 0
M  V30 1882 C 175.211 0.913475 -4.4155 0
M  V30 1883 C 173.873 0.695303 -4.7615 0
M  V30 1884 C 176.225 0.359349 -5.1996 0
M  V30 1885 C 173.553 -0.0879947 -5.86634 0
M  V30 1886 C 175.905 -0.410893 -6.31264 0
M  V30 1887 C 174.569 -0.639808 -6.64427 0
M  V30 1888 H 173.839 0.32231 -0.667231 0
M  V30 1889 H 176.486 0.145402 -1.90947 0
M  V30 1890 H 174.791 2.50903 -3.00923 0
M  V30 1891 H 176.488 2.26091 -3.31186 0
M  V30 1892 H 173.078 1.09357 -4.14414 0
M  V30 1893 H 177.262 0.515228 -4.93618 0
M  V30 1894 H 172.518 -0.27503 -6.10781 0
M  V30 1895 H 176.692 -0.847494 -6.91224 0
M  V30 1896 H 174.319 -1.24864 -7.49875 0
M  V30 1897 N 175.894 1.51508 0.433938 0
M  V30 1898 C 177.119 1.68443 1.21003 0
M  V30 1899 C 177.544 0.382636 1.84167 0
M  V30 1900 O 176.902 -0.65755 1.68956 0
M  V30 1901 C 176.95 2.80405 2.26727 0
M  V30 1902 O 176.054 2.44245 3.32292 0
M  V30 1903 H 175.395 0.561536 0.354363 0
M  V30 1904 H 177.925 1.9809 0.512024 0
M  V30 1905 H 177.935 3.0459 2.71457 0
M  V30 1906 H 176.61 3.74867 1.80132 0
M  V30 1907 H 175.187 2.30644 2.93015 0
M  V30 1908 N 177.372 -0.689602 1.41712 0
M  V30 1909 C 178.305 -1.81403 1.3845 0
M  V30 1910 C 179.283 -1.60653 0.250874 0
M  V30 1911 O 180.467 -1.83323 0.43874 0
M  V30 1912 C 177.594 -3.18176 1.1611 0
M  V30 1913 C 176.64 -3.57705 2.3227 0
M  V30 1914 S 177.473 -3.61827 3.94767 0
M  V30 1915 C 178.629 -5.01318 3.74742 0
M  V30 1916 H 178.862 -1.83893 2.33603 0
M  V30 1917 H 176.395 -0.858878 1.28307 0
M  V30 1918 H 178.353 -3.97132 1.03907 0
M  V30 1919 H 177.014 -3.13288 0.225668 0
M  V30 1920 H 176.207 -4.57082 2.12349 0
M  V30 1921 H 175.809 -2.86073 2.40911 0
M  V30 1922 H 178.101 -5.88986 3.34817 0
M  V30 1923 H 179.044 -5.26283 4.73743 0
M  V30 1924 H 179.452 -4.73138 3.07898 0
M  V30 1925 N 178.85 -1.27639 -0.924453 0
M  V30 1926 C 180.078 -1.16989 -1.70649 0
M  V30 1927 C 180.493 0.272869 -1.86818 0
M  V30 1928 O 179.85 1.18549 -1.38753 0
M  V30 1929 C 179.901 -1.85229 -3.10439 0
M  V30 1930 O 179.622 -3.23868 -2.95028 0
M  V30 1931 C 181.123 -1.80746 -4.04779 0
M  V30 1932 H 178.343 -0.406595 -0.53378 0
M  V30 1933 H 180.887 -1.68569 -1.15778 0
M  V30 1934 H 179.042 -1.37545 -3.6216 0
M  V30 1935 H 179.456 -3.57889 -3.83426 0
M  V30 1936 H 180.93 -2.33101 -5.00368 0
M  V30 1937 H 181.407 -0.777499 -4.32263 0
M  V30 1938 H 182.013 -2.28059 -3.58984 0
M  V30 1939 N 180.328 1.1314 -1.09713 0
M  V30 1940 C 181.574 1.84757 -0.836224 0
M  V30 1941 C 181.907 1.8347 0.636598 0
M  V30 1942 O 181.182 1.27491 1.46889 0
M  V30 1943 C 181.465 3.32782 -1.37578 0
M  V30 1944 C 181.318 3.42567 -2.91493 0
M  V30 1945 C 182.637 4.28307 -1.01198 0
M  V30 1946 H 179.756 0.67082 -0.305236 0
M  V30 1947 H 182.398 1.3278 -1.35903 0
M  V30 1948 H 180.548 3.77177 -0.931097 0
M  V30 1949 H 182.22 3.06862 -3.44432 0
M  V30 1950 H 180.463 2.83349 -3.28475 0
M  V30 1951 H 181.134 4.46674 -3.24324 0
M  V30 1952 H 183.61 3.91999 -1.39556 0
M  V30 1953 H 182.486 5.30307 -1.41653 0
M  V30 1954 H 182.747 4.42029 0.0794833 0
M  V30 1955 N 181.806 0.884767 1.30421 0
M  V30 1956 C 183.083 0.423185 1.90967 0
M  V30 1957 C 183.463 -1.09605 1.80416 0
M  V30 1958 O 182.811 -1.93126 1.22125 0
M  V30 1959 C 183.021 0.921056 3.36627 0
M  V30 1960 C 184.369 0.955903 4.137 0
M  V30 1961 O 185.393 0.867706 3.4547 0
M  V30 1962 O 184.252 1.08614 5.35598 0
M  V30 1963 H 181.346 0.129369 0.816819 0
M  V30 1964 H 183.892 0.973653 1.3899 0
M  V30 1965 H 182.664 1.96489 3.3839 0
M  V30 1966 H 182.287 0.349741 3.96059 0
M  V30 1967 N 183.284 -1.43765 0.645699 0
M  V30 1968 C 184.532 -2.01499 0.155731 0
M  V30 1969 C 184.853 -1.51151 -1.232 0
M  V30 1970 O 184.123 -0.721044 -1.82148 0
M  V30 1971 H 182.703 -0.745003 0.0545817 0
M  V30 1972 H 185.365 -1.76075 0.835677 0
M  V30 1973 H 184.461 -3.1181 0.134577 0
M  V30 1974 N 184.763 -0.387143 -1.52771 0
M  V30 1975 C 185.71 0.449048 -2.26389 0
M  V30 1976 C 186.68 1.05961 -1.27912 0
M  V30 1977 O 187.865 1.08804 -1.56737 0
M  V30 1978 C 185.005 1.57155 -3.0724 0
M  V30 1979 C 184.118 0.984066 -4.20643 0
M  V30 1980 C 183.253 2.07745 -4.88892 0
M  V30 1981 C 182.292 1.46574 -5.94292 0
M  V30 1982 N 181.429 2.49834 -6.56146 0
M  V30 1983 H 186.269 -0.185205 -2.97424 0
M  V30 1984 H 183.806 -0.103164 -1.46738 0
M  V30 1985 H 185.764 2.23309 -3.52405 0
M  V30 1986 H 184.394 2.17615 -2.38419 0
M  V30 1987 H 183.446 0.212193 -3.79808 0
M  V30 1988 H 184.758 0.497029 -4.96318 0
M  V30 1989 H 183.912 2.81673 -5.3735 0
M  V30 1990 H 182.651 2.59807 -4.12737 0
M  V30 1991 H 181.656 0.711696 -5.45174 0
M  V30 1992 H 182.881 0.953088 -6.72379 0
M  V30 1993 H 180.827 3.0107 -5.82832 0
M  V30 1994 H 180.744 2.05879 -7.27427 0
M  V30 1995 H 182.012 3.23399 -7.09249 0
M  V30 1996 N 186.241 1.57166 -0.116904 0
M  V30 1997 C 187.469 1.99473 0.549383 0
M  V30 1998 C 187.884 0.996541 1.60357 0
M  V30 1999 O 187.241 -0.0108731 1.82497 0
M  V30 2000 C 187.292 3.41788 1.17741 0
M  V30 2001 O 187.013 4.37788 0.165362 0
M  V30 2002 C 188.514 3.99216 1.92722 0
M  V30 2003 H 185.734 0.655009 0.145616 0
M  V30 2004 H 188.278 2.03494 -0.202625 0
M  V30 2005 H 186.433 3.38713 1.88021 0
M  V30 2006 H 186.847 5.20806 0.621403 0
M  V30 2007 H 188.321 5.00882 2.31995 0
M  V30 2008 H 188.798 3.3824 2.80161 0
M  V30 2009 H 189.404 4.0583 1.27209 0
M  V30 2010 N 187.719 -0.156864 1.56817 0
M  V30 2011 C 188.966 -0.871125 1.82805 0
M  V30 2012 C 189.294 -1.81611 0.696262 0
M  V30 2013 O 188.549 -1.93141 -0.315459 0
M  V30 2014 C 188.848 -1.68737 3.1506 0
M  V30 2015 C 188.514 -0.890045 4.42028 0
M  V30 2016 C 187.176 -0.670042 4.76512 0
M  V30 2017 C 189.528 -0.331769 5.20143 0
M  V30 2018 C 186.856 0.119104 5.86579 0
M  V30 2019 C 189.208 0.444365 6.31037 0
M  V30 2020 C 187.872 0.675035 6.64078 0
M  V30 2021 H 187.142 -0.318767 0.668931 0
M  V30 2022 H 189.789 -0.135274 1.91022 0
M  V30 2023 H 188.094 -2.49304 3.0225 0
M  V30 2024 H 189.791 -2.24331 3.3238 0
M  V30 2025 H 186.381 -1.07157 4.14988 0
M  V30 2026 H 190.565 -0.489043 4.93885 0
M  V30 2027 H 185.821 0.307417 6.10627 0
M  V30 2028 H 189.995 0.884139 6.90765 0
M  V30 2029 H 187.622 1.28839 7.49203 0
M  V30 2030 N 189.197 -1.51736 -0.425897 0
M  V30 2031 C 190.613 -1.40166 -0.76326 0
M  V30 2032 C 190.813 -0.492962 -1.95377 0
M  V30 2033 O 189.869 0.0475815 -2.52455 0
M  V30 2034 C 191.182 -2.82403 -1.03291 0
M  V30 2035 C 192.73 -2.91632 -1.13665 0
M  V30 2036 C 193.205 -4.34801 -1.43916 0
M  V30 2037 N 194.696 -4.3796 -1.50816 0
M  V30 2038 C 195.431 -5.4578 -1.75817 0
M  V30 2039 N 194.927 -6.63744 -1.98534 0
M  V30 2040 N 196.72 -5.33274 -1.77694 0
M  V30 2041 H 188.871 -2.09361 0.358 0
M  V30 2042 H 191.134 -0.942941 0.0978094 0
M  V30 2043 H 190.84 -3.50943 -0.230696 0
M  V30 2044 H 190.714 -3.22428 -1.95754 0
M  V30 2045 H 193.101 -2.23284 -1.92947 0
M  V30 2046 H 193.182 -2.55088 -0.190756 0
M  V30 2047 H 192.826 -5.03703 -0.65157 0
M  V30 2048 H 192.756 -4.68868 -2.39729 0
M  V30 2049 H 195.247 -3.52919 -1.35118 0
M  V30 2050 H 195.56 -7.41704 -2.17013 0
M  V30 2051 H 193.905 -6.66839 -1.95832 0
M  V30 2052 H 197.096 -4.40098 -1.59473 0
M  V30 2053 H 197.269 -6.1738 -1.9684 0
M  V30 2054 N 190.675 0.682077 -1.42076 0
M  V30 2055 C 191.9 1.47558 -1.45744 0
M  V30 2056 C 192.325 1.87977 -0.0680981 0
M  V30 2057 O 191.683 1.55522 0.9318 0
M  V30 2058 C 191.731 2.70575 -2.38373 0
M  V30 2059 O 190.835 3.68573 -1.85007 0
M  V30 2060 H 190.176 0.443585 -0.494093 0
M  V30 2061 H 192.706 0.837238 -1.86686 0
M  V30 2062 H 192.716 3.18729 -2.54707 0
M  V30 2063 H 191.391 2.40495 -3.39315 0
M  V30 2064 H 189.968 3.2757 -1.78192 0
M  V30 2065 N 192.153 1.28127 0.917671 0
M  V30 2066 C 193.378 1.18007 1.70555 0
M  V30 2067 C 193.803 -0.258257 1.86319 0
M  V30 2068 O 193.161 -1.1869 1.37049 0
M  V30 2069 C 193.209 1.87948 3.07746 0
M  V30 2070 O 192.313 1.18427 3.9503 0
M  V30 2071 H 191.654 0.409867 0.522403 0
M  V30 2072 H 194.184 1.69379 1.1477 0
M  V30 2073 H 194.194 1.95701 3.58001 0
M  V30 2074 H 192.869 2.92573 2.95591 0
M  V30 2075 H 191.446 1.18811 3.53466 0
M  V30 2076 N 193.631 -1.12557 1.10312 0
M  V30 2077 C 194.88 -1.83395 0.839588 0
M  V30 2078 C 195.193 -1.84939 -0.636929 0
M  V30 2079 O 196.399 -2.51761 -1.01631 0
M  V30 2080 C 194.855 -3.29303 1.45215 0
M  V30 2081 C 194.463 -3.36122 2.96186 0
M  V30 2082 C 196.207 -4.05121 1.26796 0
M  V30 2083 C 194.114 -4.76357 3.50483 0
M  V30 2084 H 193.044 -0.687133 0.310425 0
M  V30 2085 H 195.695 -1.26746 1.32694 0
M  V30 2086 H 194.077 -3.85812 0.892469 0
M  V30 2087 H 195.251 -2.89559 3.58458 0
M  V30 2088 H 193.566 -2.73776 3.13745 0
M  V30 2089 H 196.163 -5.08668 1.64806 0
M  V30 2090 H 196.506 -4.15773 0.209409 0
M  V30 2091 H 197.039 -3.54967 1.79563 0
M  V30 2092 H 193.778 -4.70899 4.55998 0
M  V30 2093 H 193.298 -5.23377 2.92978 0
M  V30 2094 H 194.977 -5.45294 3.48228 0
M  V30 2095 N 195.109 -0.891671 -1.2995 0
M  V30 2096 C 196.056 -0.361736 -2.27948 0
M  V30 2097 C 197.026 0.551761 -1.56668 0
M  V30 2098 O 198.211 0.478736 -1.84696 0
M  V30 2099 C 195.351 0.411825 -3.42634 0
M  V30 2100 C 194.464 -0.531651 -4.28716 0
M  V30 2101 C 193.599 0.258167 -5.30572 0
M  V30 2102 C 192.638 -0.680349 -6.08307 0
M  V30 2103 N 191.775 0.0745613 -7.0206 0
M  V30 2104 H 196.615 -1.20254 -2.72659 0
M  V30 2105 H 194.152 -0.604352 -1.34112 0
M  V30 2106 H 196.11 0.876304 -4.07893 0
M  V30 2107 H 194.74 1.21715 -2.98974 0
M  V30 2108 H 193.792 -1.11463 -3.63703 0
M  V30 2109 H 195.104 -1.25038 -4.82874 0
M  V30 2110 H 194.258 0.784204 -6.0161 0
M  V30 2111 H 192.997 1.01008 -4.77126 0
M  V30 2112 H 192.002 -1.21796 -5.3614 0
M  V30 2113 H 193.227 -1.43145 -6.63842 0
M  V30 2114 H 191.173 0.808883 -6.50994 0
M  V30 2115 H 191.09 -0.584409 -7.53738 0
M  V30 2116 H 192.358 0.581123 -7.77331 0
M  V30 2117 N 196.587 1.43421 -0.653314 0
M  V30 2118 C 197.497 2.34568 0.0388565 0
M  V30 2119 C 198.513 1.53888 0.81207 0
M  V30 2120 O 199.689 1.86539 0.759294 0
M  V30 2121 C 196.754 3.32167 0.993269 0
M  V30 2122 C 195.815 4.28751 0.216977 0
M  V30 2123 C 195.048 5.21688 1.12593 0
M  V30 2124 O 195.271 5.19052 2.36519 0
M  V30 2125 O 194.205 5.98919 0.598284 0
M  V30 2126 H 198.031 2.95251 -0.711386 0
M  V30 2127 H 195.616 1.43564 -0.413502 0
M  V30 2128 H 197.498 3.92183 1.54176 0
M  V30 2129 H 196.173 2.73987 1.72374 0
M  V30 2130 H 195.08 3.72215 -0.375101 0
M  V30 2131 H 196.413 4.89913 -0.473924 0
M  V30 2132 N 198.065 0.39524 1.52563 0
M  V30 2133 C 199.012 -0.437036 2.26624 0
M  V30 2134 C 199.982 -1.05281 1.28472 0
M  V30 2135 O 201.167 -1.07971 1.57311 0
M  V30 2136 C 198.307 -1.55524 3.08069 0
M  V30 2137 C 197.42 -0.961745 4.21158 0
M  V30 2138 C 196.555 -2.05149 4.89987 0
M  V30 2139 C 195.594 -1.4342 5.95061 0
M  V30 2140 N 194.731 -2.46351 6.57462 0
M  V30 2141 H 199.571 0.200976 2.97322 0
M  V30 2142 H 197.108 0.110944 1.46681 0
M  V30 2143 H 199.066 -2.21437 3.53584 0
M  V30 2144 H 197.696 -2.16348 2.3957 0
M  V30 2145 H 196.748 -0.192048 3.79915 0
M  V30 2146 H 198.06 -0.470701 4.96574 0
M  V30 2147 H 197.214 -2.78819 5.38837 0
M  V30 2148 H 195.953 -2.57615 4.14109 0
M  V30 2149 H 194.958 -0.682774 5.45544 0
M  V30 2150 H 196.183 -0.917416 6.72875 0
M  V30 2151 H 194.129 -2.97975 5.8442 0
M  V30 2152 H 194.046 -2.02019 7.28508 0
M  V30 2153 H 195.314 -3.19633 7.10954 0
M  V30 2154 N 199.544 -1.57102 0.125237 0
M  V30 2155 C 200.772 -1.99761 -0.538797 0
M  V30 2156 C 201.187 -1.00503 -1.59827 0
M  V30 2157 O 200.544 0.00119474 -1.825 0
M  V30 2158 C 200.595 -3.42408 -1.15927 0
M  V30 2159 O 200.316 -4.37869 -0.142143 0
M  V30 2160 C 201.817 -4.00232 -1.90602 0
M  V30 2161 H 199.037 -0.655772 -0.14214 0
M  V30 2162 H 201.581 -2.03383 0.213413 0
M  V30 2163 H 199.736 -3.39706 -1.86223 0
M  V30 2164 H 200.15 -5.21128 -0.593775 0
M  V30 2165 H 201.624 -5.02105 -2.29335 0
M  V30 2166 H 202.101 -3.39721 -2.78363 0
M  V30 2167 H 202.707 -4.06499 -1.25055 0
M  V30 2168 N 201.022 0.148545 -1.56898 0
M  V30 2169 C 202.268 0.862694 -1.83536 0
M  V30 2170 C 202.601 1.80889 -0.706604 0
M  V30 2171 O 201.876 1.92328 0.289885 0
M  V30 2172 C 202.159 1.63853 -3.20662 0
M  V30 2173 C 202.012 0.713925 -4.44098 0
M  V30 2174 C 203.331 2.60133 -3.54991 0
M  V30 2175 H 200.45 0.312179 -0.667618 0
M  V30 2176 H 203.092 0.127953 -1.89569 0
M  V30 2177 H 201.242 2.26489 -3.1565 0
M  V30 2178 H 202.914 0.098686 -4.61194 0
M  V30 2179 H 201.157 0.0234019 -4.33794 0
M  V30 2180 H 201.828 1.29278 -5.36648 0
M  V30 2181 H 204.304 2.07616 -3.60603 0
M  V30 2182 H 203.18 3.11468 -4.51972 0
M  V30 2183 H 203.441 3.41417 -2.80868 0
M  V30 2184 N 202.5 1.5196 0.417844 0
M  V30 2185 C 203.748 1.65263 1.16329 0
M  V30 2186 C 204.069 0.380634 1.91249 0
M  V30 2187 O 203.339 -0.604214 1.86349 0
M  V30 2188 H 201.919 0.60912 0.432414 0
M  V30 2189 H 204.581 1.88969 0.477162 0
M  V30 2190 H 203.677 2.4896 1.88217 0
M  V30 2191 N 203.978 -0.674533 1.42435 0
M  V30 2192 C 205.394 -0.98769 1.25367 0
M  V30 2193 C 205.594 -2.00879 0.158044 0
M  V30 2194 O 204.65 -2.48075 -0.470633 0
M  V30 2195 C 205.963 -1.49224 2.6106 0
M  V30 2196 C 207.511 -1.61 2.68417 0
M  V30 2197 C 207.986 -2.14852 4.04478 0
M  V30 2198 N 209.477 -2.22185 4.06434 0
M  V30 2199 C 210.212 -2.64928 5.08528 0
M  V30 2200 N 209.708 -3.07121 6.21006 0
M  V30 2201 N 211.501 -2.64679 4.95885 0
M  V30 2202 H 203.652 0.00152503 2.124 0
M  V30 2203 H 205.915 -0.0618434 0.945981 0
M  V30 2204 H 205.621 -0.816453 3.42092 0
M  V30 2205 H 205.495 -2.47094 2.84999 0
M  V30 2206 H 207.882 -2.27686 1.87732 0
M  V30 2207 H 207.963 -0.616195 2.48267 0
M  V30 2208 H 207.607 -1.48775 4.85622 0
M  V30 2209 H 207.537 -3.15024 4.2198 0
M  V30 2210 H 210.028 -1.92435 3.25234 0
M  V30 2211 H 210.341 -3.38423 6.94759 0
M  V30 2212 H 208.686 -3.04978 6.24511 0
M  V30 2213 H 211.877 -2.31078 4.07088 0
M  V30 2214 H 212.05 -2.9767 5.75584 0
M  V30 2215 N 205.456 -1.28612 -0.910864 0
M  V30 2216 C 206.419 -1.12803 -1.9952 0
M  V30 2217 C 207.419 -0.0668264 -1.60661 0
M  V30 2218 O 208.609 -0.312847 -1.71368 0
M  V30 2219 C 205.741 -0.72254 -3.33155 0
M  V30 2220 H 206.934 -2.09109 -2.14973 0
M  V30 2221 H 204.487 -1.11639 -1.09391 0
M  V30 2222 H 205.222 0.241152 -3.23402 0
M  V30 2223 H 205.007 -1.48916 -3.62721 0
M  V30 2224 H 206.497 -0.634666 -4.12749 0
M  V30 2225 N 206.934 1.1197 -1.10907 0
M  V30 2226 C 207.864 2.19928 -0.784473 0
M  V30 2227 C 208.845 1.6833 0.244726 0
M  V30 2228 O 210.03 1.93892 0.109418 0
M  V30 2229 C 207.16 3.46597 -0.220827 0
M  V30 2230 C 206.114 4.11376 -1.18127 0
M  V30 2231 C 205.44 5.32554 -0.478594 0
M  V30 2232 C 206.74 4.56945 -2.52979 0
M  V30 2233 H 208.434 2.47337 -1.68715 0
M  V30 2234 H 205.98 1.18879 -0.812642 0
M  V30 2235 H 207.933 4.21396 0.0184278 0
M  V30 2236 H 206.657 3.1863 0.717113 0
M  V30 2237 H 205.316 3.38564 -1.40606 0
M  V30 2238 H 204.964 5.00856 0.463976 0
M  V30 2239 H 204.664 5.76844 -1.11912 0
M  V30 2240 H 206.188 6.10096 -0.248 0
M  V30 2241 H 207.602 5.23093 -2.3462 0
M  V30 2242 H 205.999 5.1203 -3.12962 0
M  V30 2243 H 207.069 3.70676 -3.12614 0
M  V30 2244 N 208.412 0.89855 1.29475 0
M  V30 2245 C 209.642 0.538479 1.99459 0
M  V30 2246 C 210.05 -0.880922 1.67441 0
M  V30 2247 O 209.393 -1.59283 0.915127 0
M  V30 2248 C 209.455 0.649564 3.53583 0
M  V30 2249 C 209.119 2.03573 4.09154 0
M  V30 2250 C 210.116 3.00675 4.24135 0
M  V30 2251 C 207.801 2.3448 4.44212 0
M  V30 2252 C 209.795 4.26809 4.73405 0
M  V30 2253 C 207.482 3.60857 4.93179 0
M  V30 2254 C 208.48 4.56836 5.0773 0
M  V30 2255 O 208.168 5.80969 5.55635 0
M  V30 2256 H 207.9 0.205372 0.644048 0
M  V30 2257 H 210.454 1.20958 1.66007 0
M  V30 2258 H 208.684 -0.0785592 3.8662 0
M  V30 2259 H 210.373 0.29881 4.04799 0
M  V30 2260 H 211.139 2.78112 3.97339 0
M  V30 2261 H 207.018 1.60534 4.32145 0
M  V30 2262 H 210.562 5.0173 4.84678 0
M  V30 2263 H 206.459 3.83251 5.19412 0
M  V30 2264 H 207.227 5.83542 5.73952 0
M  V30 2265 N 209.89 -1.43072 0.660911 0
M  V30 2266 C 210.853 -2.29194 -0.0166406 0
M  V30 2267 C 211.853 -1.42609 -0.742912 0
M  V30 2268 O 213.043 -1.64155 -0.583004 0
M  V30 2269 C 210.175 -3.24831 -1.0343 0
M  V30 2270 H 211.368 -2.90596 0.741208 0
M  V30 2271 H 208.921 -1.5048 0.422532 0
M  V30 2272 H 209.656 -2.68339 -1.82111 0
M  V30 2273 H 209.441 -3.88676 -0.517082 0
M  V30 2274 H 210.931 -3.89451 -1.50723 0
M  V30 2275 N 211.368 -0.403325 -1.52352 0
M  V30 2276 C 212.3 0.4603 -2.2453 0
M  V30 2277 C 213.313 1.01505 -1.27282 0
M  V30 2278 O 214.502 0.914982 -1.53266 0
M  V30 2279 C 211.602 1.65208 -2.95905 0
M  V30 2280 C 210.775 1.22224 -4.19976 0
M  V30 2281 C 209.834 2.28028 -4.74226 0
M  V30 2282 O 208.86 1.88857 -5.36956 0
M  V30 2283 N 210.062 3.6012 -4.55295 0
M  V30 2284 H 212.827 -0.158156 -2.99282 0
M  V30 2285 H 210.388 -0.230402 -1.60252 0
M  V30 2286 H 212.38 2.35541 -3.29093 0
M  V30 2287 H 210.95 2.17658 -2.24374 0
M  V30 2288 H 210.17 0.34725 -3.92668 0
M  V30 2289 H 211.458 0.911924 -5.00561 0
M  V30 2290 H 210.856 3.94698 -4.05253 0
M  V30 2291 H 209.413 4.26447 -4.92936 0
M  V30 2292 N 212.846 1.57033 -0.133567 0
M  V30 2293 C 213.809 2.14897 0.796995 0
M  V30 2294 C 214.809 1.0874 1.18458 0
M  V30 2295 O 215.999 1.34446 1.1077 0
M  V30 2296 C 213.131 2.70112 2.07973 0
M  V30 2297 H 214.324 2.98457 0.293873 0
M  V30 2298 H 211.877 1.55871 0.115787 0
M  V30 2299 H 212.612 1.9018 2.62682 0
M  V30 2300 H 212.397 3.47764 1.81115 0
M  V30 2301 H 213.887 3.14738 2.74462 0
M  V30 2302 N 214.325 -0.140222 1.56975 0
M  V30 2303 C 215.741 -0.493088 1.51792 0
M  V30 2304 C 215.941 -1.83013 0.843116 0
M  V30 2305 O 214.997 -2.49041 0.416493 0
M  V30 2306 C 216.31 -0.497144 2.96562 0
M  V30 2307 C 217.858 -0.582186 3.07538 0
M  V30 2308 C 218.333 -0.616838 4.53827 0
M  V30 2309 N 219.824 -0.678873 4.58198 0
M  V30 2310 C 220.559 -0.726782 5.68775 0
M  V30 2311 N 220.055 -0.733623 6.88905 0
M  V30 2312 N 221.848 -0.768179 5.56826 0
M  V30 2313 H 213.999 0.736108 1.99237 0
M  V30 2314 H 216.262 0.269182 0.90898 0
M  V30 2315 H 215.968 0.417217 3.49217 0
M  V30 2316 H 215.842 -1.33263 3.52875 0
M  V30 2317 H 218.229 -1.48697 2.54899 0
M  V30 2318 H 218.31 0.280581 2.54257 0
M  V30 2319 H 217.954 0.283812 5.07106 0
M  V30 2320 H 217.884 -1.49619 5.04898 0
M  V30 2321 H 220.375 -0.68061 3.7172 0
M  V30 2322 H 220.688 -0.772215 7.68932 0
M  V30 2323 H 219.033 -0.701389 6.91452 0
M  V30 2324 H 222.224 -0.760051 4.61888 0
M  V30 2325 H 222.397 -0.80205 6.43017 0
M  V30 2326 N 215.803 -1.52179 -0.40978 0
M  V30 2327 C 216.766 -1.74853 -1.48186 0
M  V30 2328 C 217.766 -0.618417 -1.48433 0
M  V30 2329 O 218.956 -0.886286 -1.49969 0
M  V30 2330 C 216.088 -1.8303 -2.87598 0
M  V30 2331 H 217.281 -2.70559 -1.29374 0
M  V30 2332 H 214.834 -1.42586 -0.640233 0
M  V30 2333 H 215.569 -0.89236 -3.11781 0
M  V30 2334 H 215.354 -2.65187 -2.88822 0
M  V30 2335 H 216.844 -2.02316 -3.65319 0
M  V30 2336 N 217.281 0.66697 -1.42791 0
M  V30 2337 C 218.228 1.7803 -1.4688 0
M  V30 2338 C 219.198 1.6299 -0.319919 0
M  V30 2339 O 220.383 1.83432 -0.525118 0
M  V30 2340 C 217.523 3.1611 -1.38451 0
M  V30 2341 C 216.636 3.42381 -2.63437 0
M  V30 2342 C 215.771 4.70232 -2.47094 0
M  V30 2343 C 214.81 4.89564 -3.67415 0
M  V30 2344 N 213.947 6.08661 -3.49966 0
M  V30 2345 H 218.787 1.7387 -2.42019 0
M  V30 2346 H 216.324 0.84868 -1.20149 0
M  V30 2347 H 218.282 3.95914 -1.31561 0
M  V30 2348 H 216.912 3.19374 -0.469033 0
M  V30 2349 H 215.964 2.56774 -2.80662 0
M  V30 2350 H 217.276 3.52557 -3.52853 0
M  V30 2351 H 216.43 5.5814 -2.37834 0
M  V30 2352 H 215.169 4.62353 -1.5518 0
M  V30 2353 H 214.174 4.00096 -3.77099 0
M  V30 2354 H 215.399 4.99282 -4.6032 0
M  V30 2355 H 213.345 6.0194 -2.60776 0
M  V30 2356 H 213.262 6.19733 -4.32975 0
M  V30 2357 H 214.53 6.99226 -3.44532 0
M  V30 2358 N 218.759 1.29093 0.90403 0
M  V30 2359 C 220.007 1.16583 1.65085 0
M  V30 2360 C 220.328 -0.283933 1.92922 0
M  V30 2361 O 219.598 -1.19509 1.55224 0
M  V30 2362 H 218.178 0.428467 0.611903 0
M  V30 2363 H 220.84 1.61959 1.08422 0
M  V30 2364 H 219.936 1.71266 2.6091 0
M  V30 2365 N 220.237 -1.11381 1.11499 0
M  V30 2366 C 221.184 -2.17439 0.773887 0
M  V30 2367 C 222.154 -1.64132 -0.254899 0
M  V30 2368 O 223.339 -1.90345 -0.13168 0
M  V30 2369 C 220.479 -3.44373 0.223917 0
M  V30 2370 C 219.592 -4.1168 1.30934 0
M  V30 2371 C 218.727 -5.263 0.71984 0
M  V30 2372 C 217.766 -5.85493 1.78507 0
M  V30 2373 N 216.903 -6.91507 1.21502 0
M  V30 2374 H 221.743 -2.45962 1.68246 0
M  V30 2375 H 219.28 -1.20744 0.840191 0
M  V30 2376 H 221.238 -4.17047 -0.112921 0
M  V30 2377 H 219.868 -3.16232 -0.647851 0
M  V30 2378 H 218.92 -3.37073 1.76312 0
M  V30 2379 H 220.232 -4.51729 2.11524 0
M  V30 2380 H 219.386 -6.05785 0.333094 0
M  V30 2381 H 218.125 -4.87559 -0.117377 0
M  V30 2382 H 217.13 -5.04686 2.18111 0
M  V30 2383 H 218.355 -6.26301 2.62533 0
M  V30 2384 H 216.301 -6.54783 0.399455 0
M  V30 2385 H 216.218 -7.30214 1.95763 0
M  V30 2386 H 217.486 -7.74795 0.855181 0
M  V30 2387 N 221.715 -0.905404 -1.28997 0
M  V30 2388 C 222.943 -0.549846 -1.9946 0
M  V30 2389 C 223.358 0.866834 -1.67724 0
M  V30 2390 O 222.715 1.57298 -0.925404 0
M  V30 2391 C 222.766 -0.739387 -3.53858 0
M  V30 2392 O 222.487 -2.10031 -3.84472 0
M  V30 2393 C 223.988 -0.389541 -4.41585 0
M  V30 2394 H 221.208 -0.210429 -0.637151 0
M  V30 2395 H 223.752 -1.21632 -1.64396 0
M  V30 2396 H 221.907 -0.120023 -3.87214 0
M  V30 2397 H 222.321 -2.13385 -4.79132 0
M  V30 2398 H 223.795 -0.572972 -5.49018 0
M  V30 2399 H 224.272 0.673756 -4.34001 0
M  V30 2400 H 224.878 -0.986089 -4.1371 0
M  V30 2401 N 223.193 1.4272 -0.668489 0
M  V30 2402 C 224.156 2.292 0.00448567 0
M  V30 2403 C 225.156 1.43001 0.735339 0
M  V30 2404 O 226.346 1.64461 0.57429 0
M  V30 2405 C 223.478 3.25375 1.01705 0
M  V30 2406 H 224.671 2.90199 -0.756608 0
M  V30 2407 H 222.224 1.50254 -0.430506 0
M  V30 2408 H 222.959 2.69301 1.80686 0
M  V30 2409 H 222.744 3.88944 0.496463 0
M  V30 2410 H 224.234 3.90245 1.48655 0
M  V30 2411 N 224.671 0.411399 1.52136 0
M  V30 2412 C 225.919 -0.163322 2.01439 0
M  V30 2413 C 226.24 -1.45453 1.29879 0
M  V30 2414 O 225.51 -1.91225 0.4254 0
M  V30 2415 H 224.09 -0.0633447 0.744309 0
M  V30 2416 H 226.752 0.548161 1.87033 0
M  V30 2417 H 225.848 -0.357817 3.10042 0
M  V30 2418 N 226.149 -1.5696 0.141893 0
M  V30 2419 C 227.079 -2.19516 -0.795936 0
M  V30 2420 C 228.06 -1.14187 -1.26077 0
M  V30 2421 O 229.245 -1.42511 -1.31925 0
M  V30 2422 C 226.375 -2.81272 -2.03723 0
M  V30 2423 C 225.329 -3.92384 -1.70936 0
M  V30 2424 C 224.655 -4.41052 -3.02287 0
M  V30 2425 C 225.955 -5.13403 -0.959954 0
M  V30 2426 H 227.649 -2.98138 -0.274596 0
M  V30 2427 H 225.195 -1.43406 -0.130636 0
M  V30 2428 H 227.148 -3.237 -2.69808 0
M  V30 2429 H 225.872 -1.99973 -2.58221 0
M  V30 2430 H 224.531 -3.50566 -1.07232 0
M  V30 2431 H 224.179 -3.56582 -3.54765 0
M  V30 2432 H 223.879 -5.15993 -2.81114 0
M  V30 2433 H 225.403 -4.86146 -3.69451 0
M  V30 2434 H 226.817 -5.52706 -1.52279 0
M  V30 2435 H 225.214 -5.94073 -0.848357 0
M  V30 2436 H 226.284 -4.84875 0.0492434 0
M  V30 2437 N 227.627 0.131896 -1.57047 0
M  V30 2438 C 228.873 0.843179 -1.84441 0
M  V30 2439 C 229.206 1.80129 -0.725749 0
M  V30 2440 O 228.481 1.92624 0.269469 0
M  V30 2441 C 228.764 1.60442 -3.22382 0
M  V30 2442 C 228.617 0.666782 -4.4483 0
M  V30 2443 C 229.936 2.56354 -3.5773 0
M  V30 2444 H 227.055 0.305081 -0.670891 0
M  V30 2445 H 229.697 0.107839 -1.89694 0
M  V30 2446 H 227.847 2.23128 -3.18035 0
M  V30 2447 H 229.519 0.0497646 -4.61273 0
M  V30 2448 H 227.762 -0.022609 -4.33794 0
M  V30 2449 H 228.433 1.23579 -5.37989 0
M  V30 2450 H 230.909 2.0378 -3.62785 0
M  V30 2451 H 229.785 3.06657 -4.5525 0
M  V30 2452 H 230.046 3.38419 -2.84473 0
M  V30 2453 N 229.106 1.52395 0.401703 0
M  V30 2454 C 230.522 1.41363 0.740864 0
M  V30 2455 C 230.722 0.523982 1.94568 0
M  V30 2456 O 229.778 -0.00741204 2.52499 0
M  V30 2457 C 231.091 2.84011 0.987847 0
M  V30 2458 C 232.639 2.93404 1.09011 0
M  V30 2459 C 233.114 4.37036 1.3698 0
M  V30 2460 N 234.605 4.40304 1.43829 0
M  V30 2461 C 235.34 5.48508 1.67112 0
M  V30 2462 N 234.836 6.66819 1.87949 0
M  V30 2463 N 236.629 5.36034 1.69187 0
M  V30 2464 H 228.78 2.08765 -0.391262 0
M  V30 2465 H 231.043 0.941265 -0.112798 0
M  V30 2466 H 230.749 3.51265 0.174835 0
M  V30 2467 H 230.623 3.25502 1.906 0
M  V30 2468 H 233.01 2.26325 1.8937 0
M  V30 2469 H 233.091 2.55359 0.15015 0
M  V30 2470 H 232.735 5.04676 0.571353 0
M  V30 2471 H 232.665 4.72623 2.3224 0
M  V30 2472 H 235.156 3.55024 1.29486 0
M  V30 2473 H 235.469 7.45063 2.05185 0
M  V30 2474 H 233.814 6.6987 1.85199 0
M  V30 2475 H 237.005 4.42579 1.52451 0
M  V30 2476 H 237.178 6.20434 1.86993 0
M  V30 2477 N 230.584 -0.659388 1.43143 0
M  V30 2478 C 231.809 -1.45221 1.48073 0
M  V30 2479 C 232.234 -1.87845 0.097995 0
M  V30 2480 O 231.592 -1.56985 -0.90694 0
M  V30 2481 C 231.64 -2.66748 2.42647 0
M  V30 2482 O 230.744 -3.65583 1.90848 0
M  V30 2483 H 230.085 -0.435669 0.501088 0
M  V30 2484 H 232.615 -0.807432 1.87994 0
M  V30 2485 H 232.625 -3.14637 2.59745 0
M  V30 2486 H 231.3 -2.35067 3.43098 0
M  V30 2487 H 229.877 -3.24693 1.83381 0
M  V30 2488 N 232.062 -1.29571 -0.897171 0
M  V30 2489 C 233.287 -1.20705 -1.68656 0
M  V30 2490 C 233.712 0.228582 -1.86706 0
M  V30 2491 O 233.07 1.16494 -1.3892 0
M  V30 2492 C 233.118 -1.9282 -3.04717 0
M  V30 2493 O 232.222 -1.24697 -3.93096 0
M  V30 2494 H 231.563 -0.418126 -0.515816 0
M  V30 2495 H 234.093 -1.71183 -1.12061 0
M  V30 2496 H 234.103 -2.01372 -3.54843 0
M  V30 2497 H 232.778 -2.97239 -2.90899 0
M  V30 2498 H 231.355 -1.2442 -3.51531 0
M  V30 2499 N 233.54 1.10788 -1.12088 0
M  V30 2500 C 234.503 2.15207 -0.788577 0
M  V30 2501 C 235.503 1.59609 0.195317 0
M  V30 2502 O 236.693 1.74174 -0.0300193 0
M  V30 2503 C 233.825 3.4047 -0.171174 0
M  V30 2504 H 235.018 2.46116 -1.71368 0
M  V30 2505 H 232.571 1.26089 -0.923652 0
M  V30 2506 H 233.306 3.15176 0.763832 0
M  V30 2507 H 233.091 3.82109 -0.879514 0
M  V30 2508 H 234.581 4.17576 0.04496 0
M  V30 2509 N 235.018 0.912232 1.28515 0
M  V30 2510 C 235.948 0.416403 2.29757 0
M  V30 2511 C 236.929 -0.515194 1.6211 0
M  V30 2512 O 238.114 -0.423253 1.89532 0
M  V30 2513 C 235.244 -0.34572 3.45575 0
M  V30 2514 C 234.198 0.496599 4.25109 0
M  V30 2515 C 233.524 -0.393771 5.33248 0
M  V30 2516 C 234.824 1.75307 4.92001 0
M  V30 2517 H 236.518 1.26249 2.7148 0
M  V30 2518 H 234.064 0.608515 1.30511 0
M  V30 2519 H 236.017 -0.703422 4.15488 0
M  V30 2520 H 234.741 -1.2257 3.02728 0
M  V30 2521 H 233.4 0.8368 3.56922 0
M  V30 2522 H 233.048 -1.27225 4.86644 0
M  V30 2523 H 232.748 0.166209 5.87365 0
M  V30 2524 H 234.272 -0.747389 6.06009 0
M  V30 2525 H 235.686 1.46437 5.54283 0
M  V30 2526 H 234.083 2.25534 5.56106 0
M  V30 2527 H 235.153 2.48176 4.16577 0
M  V30 2528 N 236.496 -1.42363 0.676048 0
M  V30 2529 C 237.773 -1.95183 0.127726 0
M  V30 2530 C 238.153 -1.61641 -1.35777 0
M  V30 2531 O 237.501 -0.913216 -2.09458 0
M  V30 2532 C 237.711 -3.46721 0.398199 0
M  V30 2533 C 239.059 -4.23427 0.315383 0
M  V30 2534 O 240.083 -3.54649 0.332016 0
M  V30 2535 O 238.942 -5.45888 0.25865 0
M  V30 2536 H 236.036 -0.826992 0.00359427 0
M  V30 2537 H 238.582 -1.52184 0.750864 0
M  V30 2538 H 237.354 -3.64344 1.4272 0
M  V30 2539 H 236.977 -3.96769 -0.256885 0
M  V30 2540 N 237.974 -0.419461 -1.51915 0
M  V30 2541 C 238.907 0.445751 -2.23804 0
M  V30 2542 C 239.885 1.03951 -1.25031 0
M  V30 2543 O 241.069 1.08541 -1.54114 0
M  V30 2544 C 238.196 1.61964 -2.97465 0
M  V30 2545 C 237.242 1.14828 -4.10751 0
M  V30 2546 S 238.075 0.104938 -5.35397 0
M  V30 2547 C 239.231 1.28391 -6.1259 0
M  V30 2548 H 239.464 -0.164627 -2.96844 0
M  V30 2549 H 236.997 -0.203833 -1.53049 0
M  V30 2550 H 238.955 2.29271 -3.40507 0
M  V30 2551 H 237.616 2.20139 -2.24048 0
M  V30 2552 H 236.809 2.02561 -4.61503 0
M  V30 2553 H 236.411 0.553712 -3.69878 0
M  V30 2554 H 238.703 2.20563 -6.40592 0
M  V30 2555 H 239.646 0.816724 -7.03374 0
M  V30 2556 H 240.054 1.51439 -5.43807 0
M  V30 2557 N 239.452 1.56882 -0.150215 0
M  V30 2558 C 240.362 2.20494 0.801222 0
M  V30 2559 C 241.378 1.19019 1.26927 0
M  V30 2560 O 242.554 1.51607 1.32579 0
M  V30 2561 C 239.619 2.81659 2.02161 0
M  V30 2562 C 238.68 3.9827 1.60249 0
M  V30 2563 C 237.913 4.56508 2.7647 0
M  V30 2564 O 238.136 4.13627 3.92771 0
M  V30 2565 O 237.07 5.46719 2.51757 0
M  V30 2566 H 240.896 3.02315 0.289717 0
M  V30 2567 H 238.481 1.49202 0.0769684 0
M  V30 2568 H 240.363 3.20522 2.73576 0
M  V30 2569 H 239.038 2.02849 2.52258 0
M  V30 2570 H 237.945 3.64117 0.858477 0
M  V30 2571 H 239.278 4.78609 1.14864 0
M  V30 2572 N 240.93 -0.123565 1.57115 0
M  V30 2573 C 241.878 -1.17082 2.00984 0
M  V30 2574 C 242.872 -1.43136 0.906009 0
M  V30 2575 O 244.078 -1.43152 1.09121 0
M  V30 2576 H 240.453 -0.394653 0.64012 0
M  V30 2577 H 242.424 -0.774292 2.88179 0
M  V30 2578 C 241.173 -2.49057 2.42623 0
M  V30 2579 H 240.496 -2.29846 3.27125 0
M  V30 2580 H 241.936 -3.20906 2.7712 0
M  V30 2581 C 240.395 -3.11305 1.28805 0
M  V30 2582 O 240.925 -3.97171 0.60153 0
M  V30 2583 N 239.131 -2.71111 1.04628 0
M  V30 2584 H 238.678 -2.01382 1.60634 0
M  V30 2585 H 238.636 -3.1309 0.286685 0
M  V30 2586 N 242.408 -1.52605 -0.393616 0
M  V30 2587 C 243.655 -1.67424 -1.1391 0
M  V30 2588 C 243.983 -0.411859 -1.90089 0
M  V30 2589 O 243.238 0.605626 -1.86093 0
M  V30 2590 C 243.537 -2.85721 -2.14705 0
M  V30 2591 C 243.203 -4.23342 -1.55218 0
M  V30 2592 C 241.865 -4.60771 -1.3872 0
M  V30 2593 C 244.217 -5.09041 -1.11924 0
M  V30 2594 C 241.545 -5.81563 -0.774689 0
M  V30 2595 C 243.897 -6.30452 -0.520853 0
M  V30 2596 C 242.561 -6.66617 -0.343134 0
M  V30 2597 H 241.831 -0.612648 -0.416826 0
M  V30 2598 H 244.478 -1.8674 -0.424315 0
M  V30 2599 H 242.783 -2.60803 -2.92385 0
M  V30 2600 H 244.48 -2.94382 -2.72288 0
M  V30 2601 H 241.07 -3.93855 -1.69045 0
M  V30 2602 H 245.254 -4.80695 -1.23473 0
M  V30 2603 H 240.51 -6.08196 -0.625154 0
M  V30 2604 H 244.684 -6.96175 -0.177065 0
M  V30 2605 H 242.311 -7.60083 0.133571 0
M  V30 2606 N 243.887 0.651787 -1.4349 0
M  V30 2607 C 245.303 0.96762 -1.26922 0
M  V30 2608 C 245.503 2.00602 -0.189982 0
M  V30 2609 O 244.559 2.48793 0.431107 0
M  V30 2610 C 245.872 1.45052 -2.63401 0
M  V30 2611 C 247.42 1.5671 -2.70945 0
M  V30 2612 C 247.895 2.0839 -4.07845 0
M  V30 2613 N 249.386 2.1569 -4.09917 0
M  V30 2614 C 250.121 2.56804 -5.12679 0
M  V30 2615 N 249.617 2.97203 -6.25813 0
M  V30 2616 N 251.41 2.56756 -5.00033 0
M  V30 2617 H 243.561 -0.0353158 -2.12371 0
M  V30 2618 H 245.824 0.0467858 -0.946845 0
M  V30 2619 H 245.53 0.761926 -3.43348 0
M  V30 2620 H 245.404 2.42529 -2.88894 0
M  V30 2621 H 247.791 2.2467 -1.9133 0
M  V30 2622 H 247.872 0.57662 -2.49216 0
M  V30 2623 H 247.516 1.41031 -4.87927 0
M  V30 2624 H 247.446 3.08271 -4.26938 0
M  V30 2625 H 249.937 1.87237 -3.28254 0
M  V30 2626 H 250.25 3.27328 -7.00055 0
M  V30 2627 H 248.595 2.95004 -6.29283 0
M  V30 2628 H 251.786 2.24572 -4.10713 0
M  V30 2629 H 251.959 2.88475 -5.80247 0
M  V30 2630 N 245.365 1.30045 0.890287 0
M  V30 2631 C 246.593 1.21472 1.67487 0
M  V30 2632 C 247.008 -0.223241 1.87476 0
M  V30 2633 O 246.365 -1.14828 1.41847 0
M  V30 2634 C 246.416 1.93394 3.05419 0
M  V30 2635 O 246.137 3.31576 2.86337 0
M  V30 2636 C 247.638 1.91414 3.99844 0
M  V30 2637 H 244.858 0.420604 0.522813 0
M  V30 2638 H 247.402 1.7158 1.11268 0
M  V30 2639 H 245.557 1.47099 3.58386 0
M  V30 2640 H 245.971 3.67929 3.73802 0
M  V30 2641 H 247.445 2.46285 4.94012 0
M  V30 2642 H 247.922 0.891833 4.3005 0
M  V30 2643 H 248.528 2.37496 3.52811 0
M  V30 2644 N 246.843 -1.10192 1.12674 0
M  V30 2645 C 247.753 -2.20172 0.810026 0
M  V30 2646 C 248.769 -1.72821 -0.202188 0
M  V30 2647 O 249.945 -2.01369 -0.0351691 0
M  V30 2648 C 247.01 -3.45631 0.272007 0
M  V30 2649 C 246.071 -4.07704 1.34447 0
M  V30 2650 C 245.304 -5.27175 0.832029 0
M  V30 2651 O 245.527 -5.69425 -0.333284 0
M  V30 2652 O 244.461 -5.80168 1.60277 0
M  V30 2653 H 248.287 -2.49701 1.72867 0
M  V30 2654 H 245.872 -1.18977 0.903597 0
M  V30 2655 H 247.754 -4.21394 -0.0230219 0
M  V30 2656 H 246.429 -3.17723 -0.619164 0
M  V30 2657 H 245.336 -3.33614 1.6927 0
M  V30 2658 H 246.669 -4.3982 2.2095 0
M  V30 2659 N 248.321 -0.919034 -1.28029 0
M  V30 2660 C 249.567 -0.555757 -1.95036 0
M  V30 2661 C 249.9 0.899198 -1.72128 0
M  V30 2662 O 249.175 1.64023 -1.04531 0
M  V30 2663 C 249.458 -0.872024 -3.49382 0
M  V30 2664 C 249.311 -2.3801 -3.81669 0
M  V30 2665 C 250.63 -0.37185 -4.38526 0
M  V30 2666 H 247.749 -0.203386 -0.708381 0
M  V30 2667 H 250.391 -1.14924 -1.51303 0
M  V30 2668 H 248.541 -0.366946 -3.86763 0
M  V30 2669 H 250.213 -2.9562 -3.54128 0
M  V30 2670 H 248.456 -2.83289 -3.28526 0
M  V30 2671 H 249.127 -2.55192 -4.8947 0
M  V30 2672 H 251.603 -0.804602 -4.08247 0
M  V30 2673 H 250.479 -0.622173 -5.45362 0
M  V30 2674 H 250.74 0.727934 -4.36066 0
M  V30 2675 N 249.799 1.42003 -0.683588 0
M  V30 2676 C 250.747 2.326 0.000815408 0
M  V30 2677 C 251.741 1.50308 0.781278 0
M  V30 2678 O 252.947 1.66322 0.688251 0
M  V30 2679 H 249.322 0.751758 0.0190616 0
M  V30 2680 H 251.293 2.88011 -0.780528 0
M  V30 2681 C 250.042 3.34978 0.93195 0
M  V30 2682 H 249.365 3.98345 0.340817 0
M  V30 2683 H 250.805 4.00936 1.37936 0
M  V30 2684 C 249.264 2.67925 2.04249 0
M  V30 2685 O 249.794 2.51788 3.12995 0
M  V30 2686 N 248 2.2681 1.81675 0
M  V30 2687 H 247.547 2.40135 0.932363 0
M  V30 2688 H 247.505 1.8228 2.56167 0
M  V30 2689 N 251.277 0.427512 1.51691 0
M  V30 2690 C 252.523 -0.142439 2.02299 0
M  V30 2691 C 252.856 -1.43214 1.31162 0
M  V30 2692 O 252.131 -1.89833 0.423511 0
M  V30 2693 C 252.414 -0.371301 3.58181 0
M  V30 2694 C 252.267 0.936358 4.39946 0
M  V30 2695 C 253.586 -1.14542 4.24933 0
M  V30 2696 H 250.705 -0.0502937 0.735282 0
M  V30 2697 H 253.347 0.564584 1.81418 0
M  V30 2698 H 251.497 -0.973559 3.76104 0
M  V30 2699 H 253.169 1.57184 4.33694 0
M  V30 2700 H 251.412 1.5432 4.05423 0
M  V30 2701 H 252.083 0.730388 5.47147 0
M  V30 2702 H 254.559 -0.635362 4.11221 0
M  V30 2703 H 253.435 -1.27431 5.33903 0
M  V30 2704 H 253.696 -2.17093 3.85127 0
M  V30 2705 N 252.755 -1.56801 0.158532 0
M  V30 2706 C 253.685 -2.20347 -0.772609 0
M  V30 2707 C 254.666 -1.15518 -1.24859 0
M  V30 2708 O 255.851 -1.43902 -1.30406 0
M  V30 2709 C 252.981 -2.83417 -2.00729 0
M  V30 2710 C 251.935 -3.94174 -1.66765 0
M  V30 2711 C 251.261 -4.44233 -2.97592 0
M  V30 2712 C 252.561 -5.14392 -0.905447 0
M  V30 2713 H 254.255 -2.98413 -0.242959 0
M  V30 2714 H 251.801 -1.43537 -0.115419 0
M  V30 2715 H 253.754 -3.26543 -2.6636 0
M  V30 2716 H 252.478 -2.02701 -2.56086 0
M  V30 2717 H 251.137 -3.51684 -1.03508 0
M  V30 2718 H 250.785 -3.60325 -3.50963 0
M  V30 2719 H 250.485 -5.18945 -2.75626 0
M  V30 2720 H 252.009 -4.90037 -3.64274 0
M  V30 2721 H 253.423 -5.5429 -1.46408 0
M  V30 2722 H 251.82 -5.9494 -0.7853 0
M  V30 2723 H 252.89 -4.84795 0.100668 0
M  V30 2724 N 254.233 0.115231 -1.57178 0
M  V30 2725 C 255.644 0.67197 -1.74188 0
M  V30 2726 C 255.995 1.80125 -0.777777 0
M  V30 2727 O 255.12 2.16346 0.0484376 0
M  V30 2728 C 255.715 1.22573 -3.1585 0
M  V30 2729 C 254.274 1.72872 -3.34353 0
M  V30 2730 C 253.421 0.629972 -2.70049 0
M  V30 2731 H 256.372 -0.110712 -1.58313 0
M  V30 2732 H 256.393 2.09535 -3.17609 0
M  V30 2733 H 255.905 0.403598 -3.85996 0
M  V30 2734 H 254.006 2.5755 -2.69256 0
M  V30 2735 H 254.119 1.83557 -4.42542 0
M  V30 2736 H 252.483 1.0645 -2.31388 0
M  V30 2737 H 253.266 -0.181241 -3.42821 0
M  V30 2738 N 255.711 1.52812 0.385517 0
M  V30 2739 C 256.959 1.67694 1.12797 0
M  V30 2740 C 257.28 0.421115 1.90399 0
M  V30 2741 O 256.55 -0.564551 1.87589 0
M  V30 2742 H 255.13 0.618155 0.419396 0
M  V30 2743 H 257.792 1.89938 0.436972 0
M  V30 2744 H 256.888 2.52896 1.82894 0
M  V30 2745 N 257.189 -0.644168 1.43834 0
M  V30 2746 C 258.152 -1.73857 1.49353 0
M  V30 2747 C 259.152 -1.56315 0.377112 0
M  V30 2748 O 260.342 -1.62048 0.639226 0
M  V30 2749 C 257.474 -3.12819 1.35488 0
M  V30 2750 H 258.667 -1.70342 2.46827 0
M  V30 2751 H 256.22 -0.856652 1.30733 0
M  V30 2752 H 256.955 -3.2194 0.390569 0
M  V30 2753 H 256.74 -3.26958 2.16428 0
M  V30 2754 H 258.23 -3.92606 1.42302 0
M  V30 2755 N 258.668 -1.30515 -0.883378 0
M  V30 2756 C 259.615 -1.17032 -1.98927 0
M  V30 2757 C 260.585 -0.0594241 -1.65994 0
M  V30 2758 O 261.77 -0.229895 -1.8941 0
M  V30 2759 C 258.91 -0.869777 -3.33959 0
M  V30 2760 C 258.023 -2.06271 -3.79574 0
M  V30 2761 C 257.158 -1.70011 -5.03259 0
M  V30 2762 C 256.197 -2.8579 -5.41286 0
M  V30 2763 N 255.334 -2.49816 -6.56153 0
M  V30 2764 H 260.174 -2.1164 -2.09792 0
M  V30 2765 H 257.711 -1.05296 -1.02719 0
M  V30 2766 H 259.669 -0.676138 -4.11685 0
M  V30 2767 H 258.299 0.0394332 -3.22776 0
M  V30 2768 H 257.351 -2.36755 -2.97744 0
M  V30 2769 H 258.663 -2.92971 -4.03694 0
M  V30 2770 H 257.817 -1.47032 -5.88614 0
M  V30 2771 H 256.556 -0.804829 -4.81013 0
M  V30 2772 H 255.561 -3.09434 -4.54456 0
M  V30 2773 H 256.786 -3.76008 -5.65504 0
M  V30 2774 H 254.732 -1.62795 -6.35479 0
M  V30 2775 H 254.649 -3.30048 -6.8015 0
M  V30 2776 H 255.917 -2.30197 -7.44735 0
M  V30 2777 N 260.146 1.09593 -1.13257 0
M  V30 2778 C 261.392 1.82003 -0.89458 0
M  V30 2779 C 261.725 1.85402 0.577906 0
M  V30 2780 O 261 1.32099 1.42759 0
M  V30 2781 C 261.283 3.28237 -1.48096 0
M  V30 2782 C 261.136 3.3312 -3.02244 0
M  V30 2783 C 262.455 4.24871 -1.14774 0
M  V30 2784 H 259.574 0.66077 -0.326424 0
M  V30 2785 H 262.216 1.28389 -1.40058 0
M  V30 2786 H 260.366 3.74024 -1.05062 0
M  V30 2787 H 262.038 2.95748 -3.54021 0
M  V30 2788 H 260.281 2.72756 -3.37323 0
M  V30 2789 H 260.952 4.3613 -3.38371 0
M  V30 2790 H 263.428 3.87361 -1.51957 0
M  V30 2791 H 262.304 5.25532 -1.58452 0
M  V30 2792 H 262.565 4.42058 -0.0611849 0
M  V30 2793 N 261.624 0.925811 1.2754 0
M  V30 2794 C 262.556 0.380753 2.26015 0
M  V30 2795 C 263.569 -0.487485 1.5533 0
M  V30 2796 O 264.758 -0.300413 1.75954 0
M  V30 2797 C 261.858 -0.473259 3.35579 0
M  V30 2798 C 261.031 0.375249 4.35787 0
M  V30 2799 C 260.09 -0.415809 5.24555 0
M  V30 2800 O 259.116 0.175834 5.68928 0
M  V30 2801 N 260.318 -1.71607 5.54555 0
M  V30 2802 H 263.083 1.22725 2.73421 0
M  V30 2803 H 260.644 0.793037 1.41147 0
M  V30 2804 H 262.636 -1.00949 3.91907 0
M  V30 2805 H 261.206 -1.2205 2.87789 0
M  V30 2806 H 260.426 1.09279 3.7875 0
M  V30 2807 H 261.714 0.955399 4.99749 0
M  V30 2808 H 261.112 -2.2191 5.20358 0
M  V30 2809 H 259.669 -2.19887 6.1359 0
M  V30 2810 N 263.102 -1.41638 0.69111 0
M  V30 2811 C 264.349 -2.01299 0.220193 0
M  V30 2812 C 264.677 -1.54715 -1.17871 0
M  V30 2813 O 263.932 -0.747193 -1.80874 0
M  V30 2814 C 264.231 -3.56714 0.221277 0
M  V30 2815 C 263.897 -4.22792 1.56709 0
M  V30 2816 C 262.559 -4.40557 1.93554 0
M  V30 2817 C 264.911 -4.59883 2.45268 0
M  V30 2818 C 262.239 -4.92688 3.18552 0
M  V30 2819 C 264.591 -5.13403 3.69595 0
M  V30 2820 C 263.255 -5.29379 4.06589 0
M  V30 2821 H 262.525 -0.736606 0.0805743 0
M  V30 2822 H 265.172 -1.69598 0.889319 0
M  V30 2823 H 263.477 -3.8818 -0.531391 0
M  V30 2824 H 265.174 -4.00678 -0.160547 0
M  V30 2825 H 261.764 -4.09336 1.2705 0
M  V30 2826 H 265.948 -4.45817 2.18084 0
M  V30 2827 H 261.204 -5.03242 3.47214 0
M  V30 2828 H 265.378 -5.41084 4.38407 0
M  V30 2829 H 263.005 -5.69537 5.03519 0
M  V30 2830 N 264.58 -0.43555 -1.51462 0
M  V30 2831 C 265.49 0.383001 -2.31453 0
M  V30 2832 C 266.506 1.02931 -1.4029 0
M  V30 2833 O 267.682 1.02507 -1.73362 0
M  V30 2834 C 264.747 1.47043 -3.13973 0
M  V30 2835 C 263.808 0.844433 -4.20913 0
M  V30 2836 C 263.041 1.88004 -4.9949 0
M  V30 2837 O 263.264 3.10199 -4.78678 0
M  V30 2838 O 262.198 1.47157 -5.83634 0
M  V30 2839 H 266.024 -0.269964 -3.02498 0
M  V30 2840 H 263.609 -0.19813 -1.4808 0
M  V30 2841 H 265.491 2.10113 -3.65281 0
M  V30 2842 H 264.166 2.10751 -2.45695 0
M  V30 2843 H 263.073 0.175729 -3.73687 0
M  V30 2844 H 264.406 0.250869 -4.9156 0
M  V30 2845 N 266.058 1.56714 -0.166846 0
M  V30 2846 C 266.988 2.20754 0.760913 0
M  V30 2847 C 267.969 1.16178 1.24244 0
M  V30 2848 O 269.154 1.44592 1.29641 0
M  V30 2849 C 266.284 2.84478 1.99223 0
M  V30 2850 C 265.238 3.95053 1.64672 0
M  V30 2851 C 264.564 4.45805 2.95232 0
M  V30 2852 C 265.864 5.14865 0.878155 0
M  V30 2853 H 267.558 2.98537 0.22713 0
M  V30 2854 H 265.104 1.43596 0.107805 0
M  V30 2855 H 267.057 3.27951 2.64624 0
M  V30 2856 H 265.781 2.04056 2.55007 0
M  V30 2857 H 264.44 3.52228 1.01641 0
M  V30 2858 H 264.088 3.62181 3.49047 0
M  V30 2859 H 263.788 5.204 2.7287 0
M  V30 2860 H 265.312 4.91962 3.6167 0
M  V30 2861 H 266.726 5.55059 1.43466 0
M  V30 2862 H 265.123 5.95348 0.753738 0
M  V30 2863 H 266.193 4.84735 -0.126377 0
M  V30 2864 N 267.536 -0.106894 1.57237 0
M  V30 2865 C 268.486 -1.1366 1.9765 0
M  V30 2866 C 269.47 -1.36416 0.853203 0
M  V30 2867 O 270.662 -1.37305 1.11697 0
M  V30 2868 C 267.791 -2.46 2.39455 0
M  V30 2869 C 266.877 -2.26668 3.58445 0
M  V30 2870 N 267.268 -1.77176 4.73754 0
M  V30 2871 C 265.566 -2.57279 3.64312 0
M  V30 2872 C 266.267 -1.71836 5.5574 0
M  V30 2873 N 265.243 -2.16623 4.98573 0
M  V30 2874 H 269.045 -0.74669 2.84256 0
M  V30 2875 H 266.559 -0.314483 1.59326 0
M  V30 2876 H 268.556 -3.2049 2.6663 0
M  V30 2877 H 267.216 -2.85738 1.54219 0
M  V30 2878 H 268.227 -1.46545 4.96734 0
M  V30 2879 H 264.904 -3.00622 2.89711 0
M  V30 2880 H 266.294 -1.34723 6.58255 0
M  V30 2881 N 269.014 -1.53014 -0.377408 0
M  V30 2882 C 270.244 -1.72265 -1.14054 0
M  V30 2883 C 270.652 -0.44601 -1.83868 0
M  V30 2884 O 269.995 0.590095 -1.73964 0
M  V30 2885 C 270.057 -2.82492 -2.22348 0
M  V30 2886 C 269.721 -4.23233 -1.72402 0
M  V30 2887 C 270.718 -5.05992 -1.19448 0
M  V30 2888 C 268.403 -4.696 -1.78273 0
M  V30 2889 C 270.397 -6.33203 -0.730268 0
M  V30 2890 C 268.084 -5.96792 -1.31464 0
M  V30 2891 C 269.082 -6.78424 -0.789297 0
M  V30 2892 O 268.77 -8.0323 -0.328077 0
M  V30 2893 H 268.502 -0.579873 -0.347453 0
M  V30 2894 H 271.056 -2.00502 -0.445882 0
M  V30 2895 H 269.286 -2.49702 -2.95272 0
M  V30 2896 H 270.975 -2.90034 -2.83963 0
M  V30 2897 H 271.741 -4.71349 -1.14259 0
M  V30 2898 H 267.62 -4.06142 -2.18106 0
M  V30 2899 H 271.164 -6.96868 -0.319542 0
M  V30 2900 H 267.061 -6.30937 -1.36342 0
M  V30 2901 H 267.829 -8.1727 -0.448493 0
M  V30 2902 N 270.492 0.636531 -1.44174 0
M  V30 2903 C 271.424 1.7618 -1.46606 0
M  V30 2904 C 272.437 1.58768 -0.360091 0
M  V30 2905 O 273.626 1.67181 -0.625518 0
M  V30 2906 C 270.726 3.13833 -1.27915 0
M  V30 2907 C 269.899 3.57753 -2.51658 0
M  V30 2908 C 268.958 4.74265 -2.27945 0
M  V30 2909 O 267.984 4.82852 -3.01401 0
M  V30 2910 N 269.186 5.65604 -1.30662 0
M  V30 2911 H 271.951 1.74567 -2.43612 0
M  V30 2912 H 269.512 0.820924 -1.39544 0
M  V30 2913 H 271.504 3.8949 -1.09907 0
M  V30 2914 H 270.074 3.10121 -0.39293 0
M  V30 2915 H 269.294 2.72362 -2.84978 0
M  V30 2916 H 270.582 3.83847 -3.33974 0
M  V30 2917 H 269.98 5.61354 -0.699844 0
M  V30 2918 H 268.537 6.40913 -1.18634 0
M  V30 2919 N 271.97 1.30982 0.876444 0
M  V30 2920 C 272.88 1.2003 2.01569 0
M  V30 2921 C 273.896 0.11838 1.73597 0
M  V30 2922 O 275.072 0.33495 1.98595 0
M  V30 2923 C 272.137 0.901637 3.34771 0
M  V30 2924 C 271.198 2.06979 3.76109 0
M  V30 2925 C 270.431 1.78529 5.02954 0
M  V30 2926 O 270.654 0.717296 5.65872 0
M  V30 2927 O 269.588 2.64019 5.40905 0
M  V30 2928 H 273.414 2.15753 2.13739 0
M  V30 2929 H 270.999 1.10658 1.00375 0
M  V30 2930 H 272.881 0.750645 4.1466 0
M  V30 2931 H 271.556 -0.0256141 3.2369 0
M  V30 2932 H 270.463 2.27616 2.96887 0
M  V30 2933 H 271.796 2.97907 3.91807 0
M  V30 2934 N 273.449 -1.08991 1.13837 0
M  V30 2935 C 274.695 -1.81526 0.90422 0
M  V30 2936 C 275.028 -1.85706 -0.568066 0
M  V30 2937 O 274.303 -1.32855 -1.42056 0
M  V30 2938 C 274.586 -3.27447 1.49835 0
M  V30 2939 C 274.439 -3.31512 3.04006 0
M  V30 2940 C 275.758 -4.24256 1.17025 0
M  V30 2941 H 272.877 -0.659029 0.329923 0
M  V30 2942 H 275.519 -1.27644 1.40737 0
M  V30 2943 H 273.669 -3.73462 1.07044 0
M  V30 2944 H 275.341 -2.93867 3.55584 0
M  V30 2945 H 273.584 -2.70963 3.38765 0
M  V30 2946 H 274.255 -4.34329 3.40679 0
M  V30 2947 H 276.731 -3.86549 1.54009 0
M  V30 2948 H 275.607 -5.24684 1.61237 0
M  V30 2949 H 275.868 -4.42019 0.0846274 0
M  V30 2950 N 274.927 -0.932562 -1.27047 0
M  V30 2951 C 275.874 -0.434072 -2.26681 0
M  V30 2952 C 276.844 0.501639 -1.58344 0
M  V30 2953 O 278.029 0.419734 -1.86126 0
M  V30 2954 C 275.169 0.30261 -3.43771 0
M  V30 2955 C 274.282 -0.667774 -4.26808 0
M  V30 2956 C 273.417 0.0892393 -5.31125 0
M  V30 2957 C 272.456 -0.873532 -6.05835 0
M  V30 2958 N 271.593 -0.148832 -7.01942 0
M  V30 2959 H 276.433 -1.28868 -2.68695 0
M  V30 2960 H 273.97 -0.646713 -1.32121 0
M  V30 2961 H 275.928 0.746092 -4.10474 0
M  V30 2962 H 274.558 1.12142 -3.02695 0
M  V30 2963 H 273.61 -1.22978 -3.59973 0
M  V30 2964 H 274.922 -1.40337 -4.78651 0
M  V30 2965 H 274.076 0.592409 -6.03801 0
M  V30 2966 H 272.815 0.85777 -4.80097 0
M  V30 2967 H 271.82 -1.38791 -5.31994 0
M  V30 2968 H 273.045 -1.64193 -6.58952 0
M  V30 2969 H 270.991 0.601365 -6.53238 0
M  V30 2970 H 270.908 -0.82391 -7.51497 0
M  V30 2971 H 272.176 0.333527 -7.78786 0
M  V30 2972 N 276.405 1.4127 -0.698611 0
M  V30 2973 C 277.651 2.01979 -0.239972 0
M  V30 2974 C 278.006 1.54353 1.14861 0
M  V30 2975 O 277.299 0.746218 1.76471 0
M  V30 2976 C 277.493 3.56592 -0.240192 0
M  V30 2977 C 277.322 4.19226 -1.62726 0
M  V30 2978 C 276.092 4.53389 -2.23084 0
M  V30 2979 C 278.29 4.45228 -2.57443 0
M  V30 2980 N 276.272 5.01327 -3.54323 0
M  V30 2981 C 277.643 4.94973 -3.73365 0
M  V30 2982 C 279.698 4.27243 -2.55671 0
M  V30 2983 C 278.401 5.28624 -4.878 0
M  V30 2984 C 280.427 4.61985 -3.69221 0
M  V30 2985 C 279.789 5.11904 -4.83873 0
M  V30 2986 H 275.888 0.770561 -0.133269 0
M  V30 2987 H 278.472 1.71767 -0.916748 0
M  V30 2988 H 276.643 3.86271 0.406082 0
M  V30 2989 H 278.375 4.04025 0.23356 0
M  V30 2990 H 275.13 4.39946 -1.75341 0
M  V30 2991 H 275.554 5.29697 -4.21604 0
M  V30 2992 H 280.196 3.87884 -1.68243 0
M  V30 2993 H 277.914 5.66905 -5.75885 0
M  V30 2994 H 281.5 4.49725 -3.69105 0
M  V30 2995 H 280.38 5.38282 -5.70282 0
M  V30 2996 N 277.883 0.443576 1.51229 0
M  V30 2997 C 279.299 0.0962001 1.5931 0
M  V30 2998 C 279.499 -1.39501 1.45402 0
M  V30 2999 O 278.555 -2.16557 1.29843 0
M  V30 3000 C 279.868 0.621875 2.94199 0
M  V30 3001 C 281.416 0.582865 3.07525 0
M  V30 3002 C 281.891 1.08562 4.44948 0
M  V30 3003 N 283.382 1.04387 4.51284 0
M  V30 3004 C 284.117 1.40368 5.55954 0
M  V30 3005 N 283.613 1.83664 6.68011 0
M  V30 3006 N 285.406 1.32145 5.46346 0
M  V30 3007 H 277.557 1.41376 1.58514 0
M  V30 3008 H 279.82 0.582965 0.747567 0
M  V30 3009 H 279.526 1.66546 3.09767 0
M  V30 3010 H 279.4 0.0502125 3.77167 0
M  V30 3011 H 281.787 -0.451749 2.91622 0
M  V30 3012 H 281.868 1.191 2.26382 0
M  V30 3013 H 281.512 2.11873 4.61598 0
M  V30 3014 H 281.442 0.453956 5.2464 0
M  V30 3015 H 283.933 0.725986 3.70861 0
M  V30 3016 H 284.246 2.0934 7.43906 0
M  V30 3017 H 282.591 1.87596 6.69203 0
M  V30 3018 H 285.782 0.981808 4.57688 0
M  V30 3019 H 285.955 1.60514 6.27805 0
M  V30 3020 N 279.361 -1.56624 0.175154 0
M  V30 3021 C 280.308 -2.18149 -0.753634 0
M  V30 3022 C 281.278 -1.12265 -1.22417 0
M  V30 3023 O 282.463 -1.40432 -1.29165 0
M  V30 3024 C 279.603 -2.82933 -1.97592 0
M  V30 3025 C 278.716 -4.03289 -1.5486 0
M  V30 3026 C 277.851 -4.55988 -2.72485 0
M  V30 3027 C 276.89 -5.68746 -2.26262 0
M  V30 3028 N 276.027 -6.15938 -3.36994 0
M  V30 3029 H 280.867 -2.9717 -0.222195 0
M  V30 3030 H 278.404 -1.46774 -0.0979422 0
M  V30 3031 H 280.362 -3.18653 -2.69288 0
M  V30 3032 H 278.992 -2.06509 -2.481 0
M  V30 3033 H 278.044 -3.73364 -0.728246 0
M  V30 3034 H 279.356 -4.849 -1.16933 0
M  V30 3035 H 278.51 -4.9391 -3.52332 0
M  V30 3036 H 277.249 -3.73443 -3.13674 0
M  V30 3037 H 276.254 -5.30372 -1.44863 0
M  V30 3038 H 277.479 -6.53095 -1.86127 0
M  V30 3039 H 275.425 -5.36321 -3.77751 0
M  V30 3040 H 275.342 -6.92548 -3.03172 0
M  V30 3041 H 276.61 -6.58511 -4.17114 0
M  V30 3042 N 280.839 0.0985539 -1.57292 0
M  V30 3043 C 281.769 1.12064 -2.04851 0
M  V30 3044 C 282.75 1.41981 -0.936767 0
M  V30 3045 O 283.935 1.52071 -1.20781 0
M  V30 3046 C 281.065 2.44144 -2.47004 0
M  V30 3047 C 280.019 2.28643 -3.6181 0
M  V30 3048 C 279.345 3.65869 -3.89929 0
M  V30 3049 C 280.645 1.72986 -4.92822 0
M  V30 3050 H 282.339 0.724979 -2.9049 0
M  V30 3051 H 279.885 0.34729 -1.39749 0
M  V30 3052 H 281.838 3.15914 -2.78884 0
M  V30 3053 H 280.562 2.85639 -1.5836 0
M  V30 3054 H 279.221 1.59318 -3.30172 0
M  V30 3055 H 278.869 4.04885 -2.98458 0
M  V30 3056 H 278.569 3.56344 -4.67218 0
M  V30 3057 H 280.093 4.39112 -4.2428 0
M  V30 3058 H 281.507 2.34593 -5.23105 0
M  V30 3059 H 279.904 1.74229 -5.74251 0
M  V30 3060 H 280.974 0.689007 -4.7998 0
M  V30 3061 N 282.317 1.53212 0.369288 0
M  V30 3062 C 283.565 1.68881 1.11012 0
M  V30 3063 C 283.886 0.441285 1.89941 0
M  V30 3064 O 283.156 -0.544623 1.88177 0
M  V30 3065 H 281.736 0.622569 0.412816 0
M  V30 3066 H 284.398 1.90391 0.416802 0
M  V30 3067 H 283.494 2.54822 1.80201 0
M  V30 3068 N 283.795 -0.628877 1.44509 0
M  V30 3069 C 285.02 -1.42048 1.5112 0
M  V30 3070 C 285.445 -1.87594 0.137818 0
M  V30 3071 O 284.803 -1.58873 -0.873437 0
M  V30 3072 C 284.851 -2.61541 2.48251 0
M  V30 3073 O 283.955 -3.61453 1.98559 0
M  V30 3074 H 283.296 -0.424942 0.510216 0
M  V30 3075 H 285.826 -0.767374 1.89664 0
M  V30 3076 H 285.836 -3.09057 2.66361 0
M  V30 3077 H 284.511 -2.27736 3.48007 0
M  V30 3078 H 283.088 -3.20731 1.90227 0
M  V30 3079 N 285.273 -1.31445 -0.869486 0
M  V30 3080 C 286.503 -1.23942 -1.65294 0
M  V30 3081 C 286.911 0.197561 -1.88166 0
M  V30 3082 O 286.254 1.14019 -1.44033 0
M  V30 3083 C 286.316 -1.91385 -3.04322 0
M  V30 3084 C 285.98 -3.40726 -3.04557 0
M  V30 3085 C 286.977 -4.36464 -2.82481 0
M  V30 3086 C 284.662 -3.82425 -3.25663 0
M  V30 3087 C 286.656 -5.71876 -2.8149 0
M  V30 3088 C 284.343 -5.1795 -3.243 0
M  V30 3089 C 285.341 -6.12486 -3.02241 0
M  V30 3090 O 285.029 -7.45534 -3.00724 0
M  V30 3091 H 284.761 -0.429459 -0.522054 0
M  V30 3092 H 287.315 -1.73873 -1.0935 0
M  V30 3093 H 285.545 -1.36004 -3.61994 0
M  V30 3094 H 287.234 -1.77791 -3.64891 0
M  V30 3095 H 288 -4.05576 -2.65956 0
M  V30 3096 H 283.879 -3.09274 -3.41863 0
M  V30 3097 H 287.423 -6.45638 -2.64191 0
M  V30 3098 H 283.32 -5.48473 -3.40365 0
M  V30 3099 H 284.088 -7.54713 -3.16782 0
M  V30 3100 N 286.751 1.08385 -1.14413 0
M  V30 3101 C 287.661 2.18856 -0.844951 0
M  V30 3102 C 288.677 1.73121 0.174668 0
M  V30 3103 O 289.853 2.014 0.00312857 0
M  V30 3104 C 286.918 3.45155 -0.32696 0
M  V30 3105 C 285.979 4.05513 -1.40916 0
M  V30 3106 C 285.212 5.25784 -0.915793 0
M  V30 3107 O 285.435 5.69884 0.242651 0
M  V30 3108 O 284.369 5.77545 -1.69487 0
M  V30 3109 H 288.195 2.46919 -1.76818 0
M  V30 3110 H 285.78 1.17524 -0.922411 0
M  V30 3111 H 287.662 4.21377 -0.0440211 0
M  V30 3112 H 286.337 3.18668 0.568539 0
M  V30 3113 H 285.244 3.30879 -1.74556 0
M  V30 3114 H 286.577 4.3625 -2.27919 0
M  V30 3115 N 288.23 0.939286 1.26551 0
M  V30 3116 C 289.18 0.418284 2.2413 0
M  V30 3117 C 290.164 -0.483935 1.5345 0
M  V30 3118 O 291.356 -0.319489 1.74093 0
M  V30 3119 C 288.485 -0.31709 3.41832 0
M  V30 3120 C 287.571 0.602311 4.19801 0
M  V30 3121 N 287.962 1.72726 4.75394 0
M  V30 3122 C 286.26 0.407534 4.44134 0
M  V30 3123 C 286.961 2.30004 5.34297 0
M  V30 3124 N 285.937 1.58828 5.1988 0
M  V30 3125 H 289.739 1.27705 2.64705 0
M  V30 3126 H 287.253 0.794929 1.41614 0
M  V30 3127 H 289.25 -0.707364 4.10855 0
M  V30 3128 H 287.91 -1.17264 3.02786 0
M  V30 3129 H 288.921 2.10944 4.72994 0
M  V30 3130 H 285.598 -0.406406 4.15517 0
M  V30 3131 H 286.988 3.24778 5.88191 0
M  V30 3132 N 289.708 -1.40897 0.706093 0
M  V30 3133 C 291.124 -1.55042 0.37869 0
M  V30 3134 C 291.324 -1.67944 -1.11342 0
M  V30 3135 O 290.38 -1.66372 -1.89938 0
M  V30 3136 C 291.693 -2.78398 1.13643 0
M  V30 3137 C 293.241 -2.92206 1.12181 0
M  V30 3138 C 293.716 -4.18463 1.86152 0
M  V30 3139 N 295.207 -4.25443 1.83173 0
M  V30 3140 C 295.942 -5.2202 2.37239 0
M  V30 3141 N 295.438 -6.24563 2.99821 0
M  V30 3142 N 297.231 -5.14033 2.27435 0
M  V30 3143 H 289.382 -1.30769 1.67372 0
M  V30 3144 H 291.645 -0.631653 0.706907 0
M  V30 3145 H 291.351 -2.7511 2.19106 0
M  V30 3146 H 291.225 -3.70228 0.721853 0
M  V30 3147 H 293.612 -2.95004 0.0754171 0
M  V30 3148 H 293.693 -2.01521 1.57554 0
M  V30 3149 H 293.337 -4.16427 2.90776 0
M  V30 3150 H 293.267 -5.08141 1.38206 0
M  V30 3151 H 295.758 -3.51976 1.37556 0
M  V30 3152 H 296.071 -6.94665 3.38616 0
M  V30 3153 H 294.416 -6.25035 3.03902 0
M  V30 3154 H 297.607 -4.3285 1.78208 0
M  V30 3155 H 297.78 -5.89129 2.69873 0
M  V30 3156 N 291.186 -0.45159 -1.50991 0
M  V30 3157 C 292.435 0.111653 -2.01391 0
M  V30 3158 C 292.748 1.42529 -1.33959 0
M  V30 3159 O 293.954 2.07232 -1.75405 0
M  V30 3160 C 292.41 0.249514 -3.59034 0
M  V30 3161 C 292.018 -1.05453 -4.35412 0
M  V30 3162 C 293.762 0.765762 -4.17536 0
M  V30 3163 C 291.669 -0.881529 -5.84793 0
M  V30 3164 H 290.599 0.0455022 -0.752626 0
M  V30 3165 H 293.25 -0.583524 -1.73975 0
M  V30 3166 H 291.632 1.00803 -3.82955 0
M  V30 3167 H 292.806 -1.82248 -4.23229 0
M  V30 3168 H 291.121 -1.50039 -3.88429 0
M  V30 3169 H 293.718 0.911913 -5.26866 0
M  V30 3170 H 294.061 1.75201 -3.77638 0
M  V30 3171 H 294.594 0.0651744 -3.97747 0
M  V30 3172 H 291.333 -1.84057 -6.29129 0
M  V30 3173 H 290.853 -0.153625 -5.99603 0
M  V30 3174 H 292.532 -0.540363 -6.4474 0
M  V30 3175 N 292.664 1.56529 -0.183458 0
M  V30 3176 C 293.894 2.01331 0.463612 0
M  V30 3177 C 294.302 1.06278 1.5653 0
M  V30 3178 O 293.645 0.0577976 1.83609 0
M  V30 3179 C 293.707 3.42547 1.09096 0
M  V30 3180 C 293.371 4.56817 0.129442 0
M  V30 3181 C 294.368 5.15734 -0.656807 0
M  V30 3182 C 292.053 5.02295 0.02174 0
M  V30 3183 C 294.047 6.1857 -1.53784 0
M  V30 3184 C 291.734 6.04978 -0.862864 0
M  V30 3185 C 292.732 6.62988 -1.64123 0
M  V30 3186 O 292.42 7.63677 -2.51103 0
M  V30 3187 H 292.152 0.664917 0.121907 0
M  V30 3188 H 294.706 2.034 -0.285954 0
M  V30 3189 H 292.936 3.37428 1.88889 0
M  V30 3190 H 294.625 3.71228 1.64148 0
M  V30 3191 H 295.391 4.81473 -0.583839 0
M  V30 3192 H 291.27 4.56847 0.617392 0
M  V30 3193 H 294.814 6.63777 -2.14583 0
M  V30 3194 H 290.711 6.38663 -0.93699 0
M  V30 3195 H 291.479 7.81049 -2.44753 0
M  V30 3196 N 294.142 -0.090211 1.57342 0
M  V30 3197 C 295.072 -1.10976 2.05443 0
M  V30 3198 C 296.053 -1.41482 0.944284 0
M  V30 3199 O 297.238 -1.51428 1.21586 0
M  V30 3200 C 294.368 -2.42831 2.48295 0
M  V30 3201 C 293.322 -2.26721 3.63018 0
M  V30 3202 C 292.648 -3.63796 3.91863 0
M  V30 3203 C 293.948 -1.7037 4.93732 0
M  V30 3204 H 295.642 -0.709564 2.9087 0
M  V30 3205 H 293.188 -0.339874 1.39932 0
M  V30 3206 H 295.141 -3.14431 2.80555 0
M  V30 3207 H 293.865 -2.84795 1.59873 0
M  V30 3208 H 292.524 -1.57565 3.31012 0
M  V30 3209 H 292.172 -4.03297 3.00601 0
M  V30 3210 H 291.872 -3.53861 4.69101 0
M  V30 3211 H 293.396 -4.36855 4.26603 0
M  V30 3212 H 294.81 -2.31816 5.24342 0
M  V30 3213 H 293.207 -1.71181 5.75167 0
M  V30 3214 H 294.277 -0.663542 4.80339 0
M  V30 3215 N 295.62 -1.53406 -0.361157 0
M  V30 3216 C 296.552 -1.76446 -1.46286 0
M  V30 3217 C 297.565 -0.645322 -1.49464 0
M  V30 3218 O 298.754 -0.921681 -1.52864 0
M  V30 3219 C 295.854 -1.83332 -2.85031 0
M  V30 3220 C 295.027 -3.13033 -3.05498 0
M  V30 3221 C 294.086 -3.11104 -4.24383 0
M  V30 3222 O 293.112 -3.84888 -4.19344 0
M  V30 3223 N 294.314 -2.32234 -5.32022 0
M  V30 3224 H 297.079 -2.71508 -1.26899 0
M  V30 3225 H 294.64 -1.52238 -0.550915 0
M  V30 3226 H 296.632 -1.79514 -3.62708 0
M  V30 3227 H 295.202 -0.955342 -2.97644 0
M  V30 3228 H 294.422 -3.30119 -2.15442 0
M  V30 3229 H 295.71 -3.9874 -3.16044 0
M  V30 3230 H 295.108 -1.71807 -5.38979 0
M  V30 3231 H 293.665 -2.3423 -6.08259 0
M  V30 3232 N 297.098 0.621204 -1.44841 0
M  V30 3233 C 298.509 1.20298 -1.42777 0
M  V30 3234 C 298.86 1.95639 -0.148259 0
M  V30 3235 O 297.985 2.02955 0.750892 0
M  V30 3236 C 298.58 2.1882 -2.58657 0
M  V30 3237 C 297.139 2.72403 -2.59756 0
M  V30 3238 C 296.286 1.4757 -2.34773 0
M  V30 3239 H 299.237 0.411297 -1.53278 0
M  V30 3240 H 299.258 3.01607 -2.31977 0
M  V30 3241 H 298.77 1.63957 -3.51766 0
M  V30 3242 H 296.871 3.31242 -1.70615 0
M  V30 3243 H 296.984 3.17765 -3.58556 0
M  V30 3244 H 295.348 1.76051 -1.8406 0
M  V30 3245 H 296.131 0.945954 -3.3001 0
M  V30 3246 N 298.576 1.31904 0.862503 0
M  V30 3247 C 299.824 1.21776 1.61292 0
M  V30 3248 C 300.145 -0.222413 1.93727 0
M  V30 3249 O 299.415 -1.1451 1.58947 0
M  V30 3250 H 297.995 0.447717 0.597962 0
M  V30 3251 H 300.657 1.65326 1.03215 0
M  V30 3252 H 299.753 1.7948 2.5533 0
M  V30 3253 N 300.054 -1.07777 1.14986 0
M  V30 3254 C 301.47 -1.32373 0.891596 0
M  V30 3255 C 301.67 -1.9609 -0.463788 0
M  V30 3256 O 300.726 -2.21801 -1.20667 0
M  V30 3257 C 302.039 -2.21905 2.02925 0
M  V30 3258 C 303.587 -2.35367 2.06329 0
M  V30 3259 C 304.062 -3.28245 3.19405 0
M  V30 3260 N 305.553 -3.35824 3.19024 0
M  V30 3261 C 306.288 -4.07739 4.03158 0
M  V30 3262 N 305.784 -4.82306 4.97346 0
M  V30 3263 N 307.577 -4.03635 3.91197 0
M  V30 3264 H 299.728 -0.648039 2.02273 0
M  V30 3265 H 301.991 -0.348149 0.881757 0
M  V30 3266 H 301.697 -1.82342 3.0074 0
M  V30 3267 H 301.571 -3.22407 1.95789 0
M  V30 3268 H 303.958 -2.74186 1.09116 0
M  V30 3269 H 304.039 -1.34585 2.17533 0
M  V30 3270 H 303.683 -2.90146 4.16867 0
M  V30 3271 H 303.613 -4.28971 3.05437 0
M  V30 3272 H 306.104 -2.8267 2.50811 0
M  V30 3273 H 306.417 -5.34661 5.57994 0
M  V30 3274 H 304.762 -4.81337 5.01338 0
M  V30 3275 H 307.953 -3.44491 3.16928 0
M  V30 3276 H 308.126 -4.59417 4.5699 0
M  V30 3277 N 301.532 -0.945985 -1.26051 0
M  V30 3278 C 302.462 -0.477172 -2.28572 0
M  V30 3279 C 303.443 0.472032 -1.63419 0
M  V30 3280 O 304.628 0.372853 -1.90587 0
M  V30 3281 C 301.758 0.253975 -3.4637 0
M  V30 3282 C 300.712 -0.609135 -4.23643 0
M  V30 3283 C 300.038 0.252252 -5.34105 0
M  V30 3284 C 301.338 -1.8829 -4.8718 0
M  V30 3285 H 303.032 -1.33402 -2.68038 0
M  V30 3286 H 300.578 -0.642904 -1.28852 0
M  V30 3287 H 302.531 0.593016 -4.17207 0
M  V30 3288 H 301.255 1.145 -3.05871 0
M  V30 3289 H 299.914 -0.931138 -3.54578 0
M  V30 3290 H 299.562 1.14278 -4.89846 0
M  V30 3291 H 299.262 -0.32188 -5.86718 0
M  V30 3292 H 300.786 0.586454 -6.07777 0
M  V30 3293 H 302.2 -1.61081 -5.50205 0
M  V30 3294 H 300.597 -2.40199 -5.49931 0
M  V30 3295 H 301.667 -2.59134 -4.09851 0
M  V30 3296 N 303.011 1.40521 -0.713556 0
M  V30 3297 C 303.974 2.29098 -0.0684347 0
M  V30 3298 C 304.974 1.45268 0.689472 0
M  V30 3299 O 306.164 1.66205 0.521677 0
M  V30 3300 C 303.296 3.28446 0.913024 0
M  V30 3301 H 304.489 2.87645 -0.84855 0
M  V30 3302 H 302.042 1.48809 -0.47809 0
M  V30 3303 H 302.777 2.74913 1.72027 0
M  V30 3304 H 302.562 3.90327 0.372472 0
M  V30 3305 H 304.052 3.94777 1.36165 0
M  V30 3306 N 304.489 0.459591 1.5075 0
M  V30 3307 C 305.436 -0.340524 2.28274 0
M  V30 3308 C 306.406 -0.997371 1.32822 0
M  V30 3309 O 307.591 -1.01202 1.61749 0
M  V30 3310 C 304.731 -1.42317 3.14388 0
M  V30 3311 C 303.844 -0.782251 4.24859 0
M  V30 3312 C 302.979 -1.84182 4.98247 0
M  V30 3313 C 302.018 -1.18053 6.00608 0
M  V30 3314 N 301.155 -2.18244 6.67319 0
M  V30 3315 H 305.995 0.326899 2.96202 0
M  V30 3316 H 303.532 0.173057 1.46078 0
M  V30 3317 H 305.49 -2.06241 3.62658 0
M  V30 3318 H 304.12 -2.05992 2.4853 0
M  V30 3319 H 303.172 -0.0307404 3.80388 0
M  V30 3320 H 304.484 -0.259663 4.98124 0
M  V30 3321 H 303.638 -2.55714 5.50177 0
M  V30 3322 H 302.377 -2.39819 4.24662 0
M  V30 3323 H 301.382 -0.450776 5.47949 0
M  V30 3324 H 302.607 -0.631202 6.7616 0
M  V30 3325 H 300.553 -2.72919 5.96533 0
M  V30 3326 H 300.47 -1.70938 7.36421 0
M  V30 3327 H 301.738 -2.89191 7.23871 0
M  V30 3328 N 305.967 -1.56429 0.191757 0
M  V30 3329 C 306.917 -2.15548 -0.743184 0
M  V30 3330 C 307.901 -1.09531 -1.17863 0
M  V30 3331 O 309.093 -1.35602 -1.13759 0
M  V30 3332 C 306.222 -2.81577 -1.96391 0
M  V30 3333 C 305.308 -3.9478 -1.54951 0
M  V30 3334 N 305.699 -4.98677 -0.845876 0
M  V30 3335 C 303.997 -4.06319 -1.83905 0
M  V30 3336 C 304.698 -5.78183 -0.638724 0
M  V30 3337 N 303.674 -5.30495 -1.18643 0
M  V30 3338 H 307.476 -2.9324 -0.196839 0
M  V30 3339 H 304.99 -1.62398 -0.0081603 0
M  V30 3340 H 306.987 -3.22321 -2.64415 0
M  V30 3341 H 305.647 -2.05371 -2.51501 0
M  V30 3342 H 306.658 -5.15464 -0.501704 0
M  V30 3343 H 303.335 -3.41238 -2.40548 0
M  V30 3344 H 304.725 -6.71851 -0.0807929 0
M  V30 3345 N 307.445 0.0818655 -1.57387 0
M  V30 3346 C 308.375 1.09885 -2.06028 0
M  V30 3347 C 309.356 1.4098 -0.951774 0
M  V30 3348 O 310.541 1.50781 -1.22387 0
M  V30 3349 C 307.671 2.4151 -2.4958 0
M  V30 3350 C 306.625 2.24792 -3.64215 0
M  V30 3351 C 305.951 3.61712 -3.93787 0
M  V30 3352 C 307.251 1.67749 -4.94629 0
M  V30 3353 H 308.945 0.694128 -2.91243 0
M  V30 3354 H 306.491 0.332448 -1.4011 0
M  V30 3355 H 308.444 3.12939 -2.82219 0
M  V30 3356 H 307.168 2.83943 -1.61381 0
M  V30 3357 H 305.827 1.55807 -3.31843 0
M  V30 3358 H 305.475 4.01697 -3.02735 0
M  V30 3359 H 305.175 3.51368 -4.70971 0
M  V30 3360 H 306.699 4.34587 -4.28913 0
M  V30 3361 H 308.113 2.29032 -5.25564 0
M  V30 3362 H 306.51 1.68128 -5.76067 0
M  V30 3363 H 307.58 0.638059 -4.80684 0
M  V30 3364 N 308.923 1.53595 0.353017 0
M  V30 3365 C 309.833 1.83897 1.45667 0
M  V30 3366 C 310.849 0.728334 1.58023 0
M  V30 3367 O 312.025 1.01968 1.73679 0
M  V30 3368 C 309.09 2.03383 2.80778 0
M  V30 3369 C 308.151 3.27262 2.77845 0
M  V30 3370 C 307.384 3.45809 4.06512 0
M  V30 3371 O 307.607 2.68387 5.03314 0
M  V30 3372 O 306.541 4.39207 4.11559 0
M  V30 3373 H 310.367 2.77686 1.2298 0
M  V30 3374 H 307.952 1.39132 0.544308 0
M  V30 3375 H 309.834 2.17698 3.60812 0
M  V30 3376 H 308.509 1.12783 3.03417 0
M  V30 3377 H 307.416 3.18359 1.96465 0
M  V30 3378 H 308.749 4.17824 2.60161 0
M  V30 3379 N 310.401 -0.613514 1.45168 0
M  V30 3380 C 311.647 -1.37471 1.49096 0
M  V30 3381 C 311.98 -1.93765 0.129901 0
M  V30 3382 O 311.255 -1.74707 -0.854858 0
M  V30 3383 C 311.538 -2.52701 2.56542 0
M  V30 3384 C 311.391 -2.01643 4.0207 0
M  V30 3385 C 312.71 -3.54849 2.60327 0
M  V30 3386 H 309.829 -0.498502 0.54283 0
M  V30 3387 H 312.471 -0.692125 1.76945 0
M  V30 3388 H 310.621 -3.10931 2.32926 0
M  V30 3389 H 312.293 -1.48108 4.36877 0
M  V30 3390 H 310.536 -1.32688 4.13009 0
M  V30 3391 H 311.207 -2.84681 4.72928 0
M  V30 3392 H 313.683 -3.0645 2.81474 0
M  V30 3393 H 312.559 -4.32973 3.37381 0
M  V30 3394 H 312.82 -4.10079 1.6519 0
M  V30 3395 N 311.879 -1.3236 -0.855495 0
M  V30 3396 C 313.156 -1.13491 -1.59309 0
M  V30 3397 C 313.536 0.30503 -2.08885 0
M  V30 3398 O 312.884 1.30151 -1.87811 0
M  V30 3399 C 313.094 -2.16176 -2.73987 0
M  V30 3400 C 314.442 -2.49463 -3.43589 0
M  V30 3401 O 315.466 -2.14715 -2.84211 0
M  V30 3402 O 314.325 -3.09027 -4.50738 0
M  V30 3403 H 311.419 -0.437887 -0.701559 0
M  V30 3404 H 313.965 -1.43887 -0.899696 0
M  V30 3405 H 312.737 -3.1297 -2.34873 0
M  V30 3406 H 312.36 -1.86769 -3.51003 0
M  V30 3407 N 313.357 1.07166 -1.15556 0
M  V30 3408 C 314.603 1.80065 -0.932984 0
M  V30 3409 C 314.936 1.86586 0.53845 0
M  V30 3410 O 314.211 1.35098 1.39924 0
M  V30 3411 C 314.494 3.25022 -1.55025 0
M  V30 3412 C 314.347 3.26634 -3.09242 0
M  V30 3413 C 315.666 4.22341 -1.2376 0
M  V30 3414 H 312.785 0.653697 -0.340366 0
M  V30 3415 H 315.427 1.25389 -1.4275 0
M  V30 3416 H 313.577 3.71712 -1.12972 0
M  V30 3417 H 315.249 2.88173 -3.60214 0
M  V30 3418 H 313.492 2.65539 -3.43033 0
M  V30 3419 H 314.163 4.28854 -3.47546 0
M  V30 3420 H 316.639 3.8405 -1.60139 0
M  V30 3421 H 315.515 5.22053 -1.69564 0
M  V30 3422 H 315.776 4.41828 -0.154938 0
M  V30 3423 N 314.835 0.952656 1.25548 0
M  V30 3424 C 316.081 0.616826 1.93822 0
M  V30 3425 C 316.436 -0.836684 1.73255 0
M  V30 3426 O 315.729 -1.59218 1.06584 0
M  V30 3427 C 315.923 0.908818 3.45652 0
M  V30 3428 C 315.752 2.38916 3.80984 0
M  V30 3429 C 314.522 3.04637 4.03143 0
M  V30 3430 C 316.72 3.36838 3.88645 0
M  V30 3431 N 314.702 4.42565 4.25453 0
M  V30 3432 C 316.073 4.60065 4.1562 0
M  V30 3433 C 318.128 3.31704 3.71318 0
M  V30 3434 C 316.831 5.78795 4.2707 0
M  V30 3435 C 318.857 4.4977 3.84006 0
M  V30 3436 C 318.219 5.71783 4.11392 0
M  V30 3437 H 314.318 0.27629 0.731565 0
M  V30 3438 H 316.902 1.22443 1.5138 0
M  V30 3439 H 315.073 0.330166 3.86994 0
M  V30 3440 H 316.805 0.533093 4.01174 0
M  V30 3441 H 313.56 2.55215 3.98952 0
M  V30 3442 H 313.984 5.1399 4.40617 0
M  V30 3443 H 318.626 2.3842 3.49164 0
M  V30 3444 H 316.344 6.72521 4.48041 0
M  V30 3445 H 319.93 4.47342 3.71989 0
M  V30 3446 H 318.81 6.61617 4.2099 0
M  V30 3447 N 316.313 -1.40141 0.720998 0
M  V30 3448 C 317.559 -2.01084 0.263231 0
M  V30 3449 C 317.892 -1.57052 -1.14229 0
M  V30 3450 O 317.167 -0.793027 -1.77599 0
M  V30 3451 C 317.45 -3.58401 0.349344 0
M  V30 3452 C 317.303 -4.12491 1.79363 0
M  V30 3453 C 318.622 -4.39231 -0.276351 0
M  V30 3454 H 315.741 -0.730572 0.0971228 0
M  V30 3455 H 318.383 -1.66543 0.914518 0
M  V30 3456 H 316.533 -3.87958 -0.205165 0
M  V30 3457 H 318.205 -3.93711 2.40394 0
M  V30 3458 H 316.448 -3.66576 2.31958 0
M  V30 3459 H 317.119 -5.21646 1.80524 0
M  V30 3460 H 319.595 -4.15637 0.196184 0
M  V30 3461 H 318.471 -5.48586 -0.185681 0
M  V30 3462 H 318.732 -4.20643 -1.36059 0
M  V30 3463 N 317.792 -0.46758 -1.50504 0
M  V30 3464 C 319.041 0.0902868 -2.01498 0
M  V30 3465 C 319.354 1.411 -1.35463 0
M  V30 3466 O 320.56 2.0536 -1.77594 0
M  V30 3467 C 319.016 0.21142 -3.59278 0
M  V30 3468 C 318.624 -1.10065 -4.34269 0
M  V30 3469 C 320.368 0.721433 -4.18325 0
M  V30 3470 C 318.275 -0.943505 -5.83825 0
M  V30 3471 H 317.205 0.037517 -0.753066 0
M  V30 3472 H 319.856 -0.601943 -1.73346 0
M  V30 3473 H 318.238 0.967352 -3.84003 0
M  V30 3474 H 319.412 -1.86726 -4.21272 0
M  V30 3475 H 317.727 -1.5415 -3.86816 0
M  V30 3476 H 320.324 0.85598 -5.27804 0
M  V30 3477 H 320.667 1.71186 -3.79475 0
M  V30 3478 H 321.2 0.0229843 -3.97793 0
M  V30 3479 H 317.939 -1.90719 -6.27141 0
M  V30 3480 H 317.459 -0.217213 -5.99407 0
M  V30 3481 H 319.138 -0.608715 -6.4413 0
M  V30 3482 N 319.27 1.56325 -0.20005 0
M  V30 3483 C 320.18 2.22931 0.730668 0
M  V30 3484 C 321.196 1.22997 1.23076 0
M  V30 3485 O 322.372 1.55748 1.27689 0
M  V30 3486 C 319.437 2.87948 1.93098 0
M  V30 3487 C 318.498 4.03166 1.47497 0
M  V30 3488 C 317.731 4.65073 2.61807 0
M  V30 3489 O 317.954 4.25913 3.79413 0
M  V30 3490 O 316.888 5.54452 2.34237 0
M  V30 3491 H 320.714 3.03084 0.193391 0
M  V30 3492 H 318.299 1.49371 0.0294621 0
M  V30 3493 H 320.181 3.29063 2.6324 0
M  V30 3494 H 318.856 2.10771 2.45677 0
M  V30 3495 H 317.763 3.66664 0.742201 0
M  V30 3496 H 319.096 4.82022 0.995796 0
M  V30 3497 N 320.748 -0.0735177 1.57428 0
M  V30 3498 C 322.159 -0.625551 1.75908 0
M  V30 3499 C 322.51 -1.78 0.825261 0
M  V30 3500 O 321.635 -2.16398 0.00893964 0
M  V30 3501 C 322.23 -1.14155 3.18989 0
M  V30 3502 C 320.789 -1.63946 3.38819 0
M  V30 3503 C 319.936 -0.558151 2.71625 0
M  V30 3504 H 322.887 0.152647 1.57964 0
M  V30 3505 H 322.908 -2.0104 3.23053 0
M  V30 3506 H 322.42 -0.301116 3.8693 0
M  V30 3507 H 320.521 -2.50321 2.7599 0
M  V30 3508 H 320.634 -1.71759 4.47253 0
M  V30 3509 H 318.998 -1.00278 2.34129 0
M  V30 3510 H 319.781 0.272071 3.4222 0
M  V30 3511 N 322.226 -1.5378 -0.344866 0
M  V30 3512 C 323.158 -1.77988 -1.44406 0
M  V30 3513 C 324.171 -0.661138 -1.48771 0
M  V30 3514 O 325.36 -0.937842 -1.51877 0
M  V30 3515 C 322.46 -1.86345 -2.8307 0
M  V30 3516 C 321.633 -3.16256 -3.0216 0
M  V30 3517 C 320.692 -3.15588 -4.21059 0
M  V30 3518 O 319.718 -3.89314 -4.15239 0
M  V30 3519 N 320.92 -2.37864 -5.29529 0
M  V30 3520 H 323.685 -2.72839 -1.24012 0
M  V30 3521 H 321.246 -1.52814 -0.534737 0
M  V30 3522 H 323.238 -1.83351 -3.60783 0
M  V30 3523 H 321.808 -0.986858 -2.96614 0
M  V30 3524 H 321.028 -3.32385 -2.11929 0
M  V30 3525 H 322.316 -4.0207 -3.11797 0
M  V30 3526 H 321.714 -1.77514 -5.37127 0
M  V30 3527 H 320.271 -2.40668 -6.05741 0
M  V30 3528 N 323.704 0.605807 -1.45491 0
M  V30 3529 C 324.952 1.36207 -1.49305 0
M  V30 3530 C 325.273 1.94519 -0.136863 0
M  V30 3531 O 324.543 1.77261 0.833983 0
M  V30 3532 H 323.123 0.50565 -0.549843 0
M  V30 3533 H 325.785 0.711239 -1.81459 0
M  V30 3534 H 324.881 2.18058 -2.23287 0
M  V30 3535 N 325.182 1.32811 0.848464 0
M  V30 3536 C 326.112 1.24882 1.97299 0
M  V30 3537 C 327.093 0.131357 1.69592 0
M  V30 3538 O 328.278 0.319553 1.91553 0
M  V30 3539 C 325.408 0.97746 3.33261 0
M  V30 3540 C 324.362 2.05682 3.75338 0
M  V30 3541 C 323.688 1.63777 5.09 0
M  V30 3542 C 324.988 3.47254 3.90144 0
M  V30 3543 H 326.682 2.18966 2.04191 0
M  V30 3544 H 324.228 1.05413 0.981029 0
M  V30 3545 H 326.181 0.908513 4.1149 0
M  V30 3546 H 324.905 0.000980011 3.266 0
M  V30 3547 H 323.564 2.11603 2.99366 0
M  V30 3548 H 323.212 0.648569 4.98801 0
M  V30 3549 H 322.912 2.36 5.38124 0
M  V30 3550 H 324.436 1.5833 5.89715 0
M  V30 3551 H 325.85 3.43888 4.58709 0
M  V30 3552 H 324.247 4.1788 4.30693 0
M  V30 3553 H 325.317 3.86462 2.92874 0
M  V30 3554 N 326.66 -1.06551 1.16123 0
M  V30 3555 C 328.076 -1.3142 0.905585 0
M  V30 3556 C 328.276 -1.96571 -0.442964 0
M  V30 3557 O 327.332 -2.23068 -1.18308 0
M  V30 3558 C 328.645 -2.19741 2.05267 0
M  V30 3559 C 330.193 -2.33165 2.08813 0
M  V30 3560 C 330.668 -3.24838 3.22868 0
M  V30 3561 N 332.159 -3.32421 3.22568 0
M  V30 3562 C 332.894 -4.0344 4.0746 0
M  V30 3563 N 332.39 -4.77003 5.02434 0
M  V30 3564 N 334.183 -3.99464 3.95456 0
M  V30 3565 H 326.334 -0.626548 2.02949 0
M  V30 3566 H 328.597 -0.338777 0.8854 0
M  V30 3567 H 328.303 -1.79142 3.02657 0
M  V30 3568 H 328.177 -3.20313 1.99198 0
M  V30 3569 H 330.564 -2.73013 1.12018 0
M  V30 3570 H 330.645 -1.3227 2.18948 0
M  V30 3571 H 330.289 -2.85708 4.19921 0
M  V30 3572 H 330.219 -4.25707 3.0997 0
M  V30 3573 H 332.71 -2.79994 2.53795 0
M  V30 3574 H 333.023 -5.28712 5.63634 0
M  V30 3575 H 331.368 -4.75992 5.06415 0
M  V30 3576 H 334.559 -3.4111 3.20564 0
M  V30 3577 H 334.732 -4.54544 4.61837 0
M  V30 3578 N 328.138 -0.959301 -1.25041 0
M  V30 3579 C 329.385 -0.616611 -1.92884 0
M  V30 3580 C 329.713 0.847036 -1.75087 0
M  V30 3581 O 328.968 1.62374 -1.09239 0
M  V30 3582 C 329.267 -0.927136 -3.45165 0
M  V30 3583 C 328.933 -2.37757 -3.83122 0
M  V30 3584 C 327.595 -2.77402 -3.93194 0
M  V30 3585 C 329.947 -3.31929 -4.01836 0
M  V30 3586 C 327.275 -4.10277 -4.19392 0
M  V30 3587 C 329.627 -4.64423 -4.29528 0
M  V30 3588 C 328.291 -5.03857 -4.37818 0
M  V30 3589 H 327.561 -0.225634 -0.705812 0
M  V30 3590 H 330.208 -1.20921 -1.48493 0
M  V30 3591 H 328.513 -0.252195 -3.90987 0
M  V30 3592 H 330.21 -0.6405 -3.95852 0
M  V30 3593 H 326.8 -2.06013 -3.75841 0
M  V30 3594 H 330.984 -3.02488 -3.93465 0
M  V30 3595 H 326.24 -4.40467 -4.24027 0
M  V30 3596 H 330.414 -5.37369 -4.42953 0
M  V30 3597 H 328.041 -6.06843 -4.57871 0
M  V30 3598 N 329.616 1.39756 -0.72842 0
M  V30 3599 C 330.546 2.33289 -0.0991354 0
M  V30 3600 C 331.527 1.53568 0.731489 0
M  V30 3601 O 332.712 1.81987 0.677807 0
M  V30 3602 C 329.842 3.3763 0.813834 0
M  V30 3603 C 328.796 4.2791 0.0878663 0
M  V30 3604 C 328.122 5.22894 1.11741 0
M  V30 3605 C 329.422 5.11314 -1.06563 0
M  V30 3606 H 331.116 2.86163 -0.880408 0
M  V30 3607 H 328.662 1.37591 -0.424819 0
M  V30 3608 H 330.615 4.0201 1.26355 0
M  V30 3609 H 329.339 2.83181 1.62715 0
M  V30 3610 H 327.998 3.65 -0.342159 0
M  V30 3611 H 327.646 4.64744 1.92412 0
M  V30 3612 H 327.346 5.84143 0.636477 0
M  V30 3613 H 328.87 5.90151 1.56697 0
M  V30 3614 H 330.284 5.69076 -0.694671 0
M  V30 3615 H 328.681 5.81671 -1.47577 0
M  V30 3616 H 329.751 4.46534 -1.89038 0
M  V30 3617 N 331.094 0.475555 1.50254 0
M  V30 3618 C 332.044 -0.335025 2.25525 0
M  V30 3619 C 333.028 -0.957625 1.29299 0
M  V30 3620 O 334.22 -0.869436 1.54175 0
M  V30 3621 C 331.349 -1.41385 3.12834 0
M  V30 3622 C 330.435 -0.798762 4.1651 0
M  V30 3623 N 330.826 0.0835815 5.05731 0
M  V30 3624 C 329.124 -1.06221 4.33166 0
M  V30 3625 C 329.825 0.433113 5.80085 0
M  V30 3626 N 328.801 -0.1928 5.43258 0
M  V30 3627 H 332.603 0.344612 2.91873 0
M  V30 3628 H 330.117 0.289986 1.5979 0
M  V30 3629 H 332.114 -2.00777 3.65368 0
M  V30 3630 H 330.774 -2.09543 2.48036 0
M  V30 3631 H 331.785 0.452715 5.15918 0
M  V30 3632 H 328.462 -1.73844 3.79585 0
M  V30 3633 H 329.852 1.15346 6.61925 0
M  V30 3634 N 332.573 -1.56217 0.208337 0
M  V30 3635 C 333.819 -1.98242 -0.427552 0
M  V30 3636 C 334.152 -1.09554 -1.60348 0
M  V30 3637 O 333.427 -0.15035 -1.93918 0
M  V30 3638 C 333.71 -3.4931 -0.874907 0
M  V30 3639 C 333.563 -4.48773 0.303751 0
M  V30 3640 C 334.882 -4.04424 -1.73577 0
M  V30 3641 H 332.001 -0.720744 -0.153936 0
M  V30 3642 H 334.643 -1.87586 0.30192 0
M  V30 3643 H 332.793 -3.58522 -1.49648 0
M  V30 3644 H 334.465 -4.51586 0.941682 0
M  V30 3645 H 332.708 -4.23194 0.953375 0
M  V30 3646 H 333.379 -5.51976 -0.0519883 0
M  V30 3647 H 335.855 -3.98075 -1.21143 0
M  V30 3648 H 334.731 -5.1047 -2.01771 0
M  V30 3649 H 334.992 -3.50494 -2.69456 0
M  V30 3650 N 334.051 0.0651679 -1.57465 0
M  V30 3651 C 335.462 0.616213 -1.76238 0
M  V30 3652 C 335.813 1.7756 -0.834689 0
M  V30 3653 O 334.938 2.1639 -0.0204156 0
M  V30 3654 C 335.533 1.12462 -3.1959 0
M  V30 3655 C 334.092 1.62147 -3.39684 0
M  V30 3656 C 333.239 0.543739 -2.71917 0
M  V30 3657 H 336.19 -0.161022 -1.57881 0
M  V30 3658 H 336.211 1.99324 -3.24114 0
M  V30 3659 H 335.723 0.280592 -3.87084 0
M  V30 3660 H 333.824 2.48854 -2.77313 0
M  V30 3661 H 333.937 1.69385 -4.48158 0
M  V30 3662 H 332.301 0.990352 -2.34657 0
M  V30 3663 H 333.084 -0.290216 -3.42071 0
M  V30 3664 N 335.529 1.53961 0.336706 0
M  V30 3665 C 336.806 1.62171 1.09361 0
M  V30 3666 C 337.186 0.447263 2.06307 0
M  V30 3667 O 336.534 -0.559802 2.21537 0
M  V30 3668 C 336.744 2.98565 1.80721 0
M  V30 3669 C 338.092 3.54157 2.34218 0
M  V30 3670 O 339.116 3.00784 1.90807 0
M  V30 3671 O 337.975 4.47528 3.13657 0
M  V30 3672 H 335.069 0.6562 0.503319 0
M  V30 3673 H 337.615 1.66307 0.33765 0
M  V30 3674 H 336.387 3.75482 1.10132 0
M  V30 3675 H 336.01 2.9805 2.63158 0
M  V30 3676 N 337.007 -0.598083 1.45811 0
M  V30 3677 C 338.235 -1.38322 1.53866 0
M  V30 3678 C 338.65 -1.87992 0.174479 0
M  V30 3679 O 338.007 -1.62756 -0.825627 0
M  V30 3680 C 338.058 -2.58125 2.53089 0
M  V30 3681 O 337.779 -2.10516 3.84206 0
M  V30 3682 C 339.28 -3.50869 2.70935 0
M  V30 3683 H 336.5 -0.423093 0.520801 0
M  V30 3684 H 339.044 -0.728527 1.91083 0
M  V30 3685 H 337.199 -3.19615 2.18917 0
M  V30 3686 H 337.613 -2.88425 4.38077 0
M  V30 3687 H 339.087 -4.31451 3.44317 0
M  V30 3688 H 339.564 -4.01822 1.77301 0
M  V30 3689 H 340.17 -2.95225 3.06141 0
M  V30 3690 N 338.485 -1.33259 -0.841409 0
M  V30 3691 C 339.732 -1.24572 -1.5965 0
M  V30 3692 C 340.06 0.189137 -1.93578 0
M  V30 3693 O 339.315 1.14566 -1.5866 0
M  V30 3694 C 339.614 -2.06381 -2.9179 0
M  V30 3695 C 339.28 -3.556 -2.77235 0
M  V30 3696 C 337.942 -3.96282 -2.72973 0
M  V30 3697 C 340.294 -4.50433 -2.62221 0
M  V30 3698 C 337.622 -5.30017 -2.51592 0
M  V30 3699 C 339.974 -5.84327 -2.42374 0
M  V30 3700 C 338.638 -6.24194 -2.36512 0
M  V30 3701 H 337.908 -0.455842 -0.5842 0
M  V30 3702 H 340.555 -1.6482 -0.975016 0
M  V30 3703 H 338.86 -1.58903 -3.5813 0
M  V30 3704 H 340.557 -1.97019 -3.49263 0
M  V30 3705 H 337.147 -3.23298 -2.81384 0
M  V30 3706 H 341.331 -4.19914 -2.64549 0
M  V30 3707 H 336.587 -5.59947 -2.45499 0
M  V30 3708 H 340.761 -6.57414 -2.29739 0
M  V30 3709 H 338.388 -7.27759 -2.19706 0
M  V30 3710 N 339.963 1.05934 -1.16686 0
M  V30 3711 C 340.873 2.17014 -0.891183 0
M  V30 3712 C 341.889 1.73453 0.137907 0
M  V30 3713 O 343.065 2.01361 -0.039592 0
M  V30 3714 C 340.13 3.44384 -0.400099 0
M  V30 3715 C 339.191 4.02433 -1.49486 0
M  V30 3716 C 338.424 5.23723 -1.02711 0
M  V30 3717 O 338.647 5.7027 0.121716 0
M  V30 3718 O 337.581 5.7382 -1.81699 0
M  V30 3719 H 341.407 2.43113 -1.82015 0
M  V30 3720 H 338.992 1.15541 -0.947132 0
M  V30 3721 H 340.874 4.21189 -0.133392 0
M  V30 3722 H 339.549 3.19802 0.500817 0
M  V30 3723 H 338.456 3.27102 -1.81535 0
M  V30 3724 H 339.789 4.31317 -2.37121 0
M  V30 3725 N 341.441 0.965919 1.2453 0
M  V30 3726 C 342.689 0.625593 1.92174 0
M  V30 3727 C 343.01 -0.841652 1.75901 0
M  V30 3728 O 342.28 -1.60061 1.12948 0
M  V30 3729 H 340.86 0.228388 0.71123 0
M  V30 3730 H 343.522 1.2266 1.51461 0
M  V30 3731 H 342.618 0.864653 2.99884 0
M  V30 3732 N 342.919 -1.39368 0.735821 0
M  V30 3733 C 343.869 -2.27885 0.0724287 0
M  V30 3734 C 344.853 -1.44301 -0.711756 0
M  V30 3735 O 346.045 -1.67206 -0.58063 0
M  V30 3736 C 343.174 -3.33029 -0.833454 0
M  V30 3737 C 342.26 -4.24078 -0.0433749 0
M  V30 3738 N 342.651 -4.96138 0.983903 0
M  V30 3739 C 340.949 -4.45164 -0.272905 0
M  V30 3740 C 341.65 -5.63069 1.4604 0
M  V30 3741 N 340.626 -5.37991 0.778857 0
M  V30 3742 H 344.428 -2.81052 0.859467 0
M  V30 3743 H 341.942 -1.5206 0.570227 0
M  V30 3744 H 343.939 -3.95311 -1.32419 0
M  V30 3745 H 342.599 -2.81421 -1.61964 0
M  V30 3746 H 343.61 -4.9958 1.36528 0
M  V30 3747 H 340.287 -4.04497 -1.03383 0
M  V30 3748 H 341.677 -6.30755 2.31511 0
M  V30 3749 N 344.397 -0.483516 -1.5 0
M  V30 3750 C 345.644 0.0671597 -2.02389 0
M  V30 3751 C 345.972 1.38597 -1.36459 0
M  V30 3752 O 345.227 1.89634 -0.483458 0
M  V30 3753 C 345.526 0.286226 -3.56252 0
M  V30 3754 C 345.192 -0.952416 -4.40726 0
M  V30 3755 C 343.854 -1.29199 -4.63531 0
M  V30 3756 C 346.206 -1.77655 -4.89988 0
M  V30 3757 C 343.534 -2.45553 -5.32842 0
M  V30 3758 C 345.886 -2.93147 -5.60578 0
M  V30 3759 C 344.55 -3.27505 -5.81633 0
M  V30 3760 H 343.82 0.0245755 -0.740592 0
M  V30 3761 H 346.467 -0.640124 -1.80485 0
M  V30 3762 H 344.772 1.07587 -3.76739 0
M  V30 3763 H 346.469 0.726473 -3.94365 0
M  V30 3764 H 343.059 -0.677881 -4.23205 0
M  V30 3765 H 347.243 -1.52737 -4.72213 0
M  V30 3766 H 342.499 -2.72431 -5.47349 0
M  V30 3767 H 346.673 -3.57344 -5.97727 0
M  V30 3768 H 344.3 -4.1777 -6.35116 0
M  V30 3769 N 345.875 1.56104 -0.216619 0
M  V30 3770 C 347.152 1.89988 0.465165 0
M  V30 3771 C 347.532 1.13326 1.78102 0
M  V30 3772 O 346.88 0.241033 2.27225 0
M  V30 3773 C 347.09 3.42646 0.662939 0
M  V30 3774 C 348.438 4.13311 0.972602 0
M  V30 3775 O 349.462 3.48217 0.749901 0
M  V30 3776 O 348.321 5.28396 1.39499 0
M  V30 3777 H 345.415 0.78979 0.245276 0
M  V30 3778 H 347.961 1.67721 -0.258436 0
M  V30 3779 H 346.733 3.90399 -0.26543 0
M  V30 3780 H 346.356 3.70677 1.43821 0
M  V30 3781 N 347.353 -0.0568162 1.57498 0
M  V30 3782 C 348.601 -0.751617 1.87604 0
M  V30 3783 C 348.922 -1.77351 0.81066 0
M  V30 3784 O 348.192 -1.95254 -0.159018 0
M  V30 3785 H 346.772 -0.280583 0.692302 0
M  V30 3786 H 349.434 -0.0293483 1.94878 0
M  V30 3787 H 348.53 -1.25852 2.856 0
M  V30 3788 N 348.832 -1.54138 -0.328536 0
M  V30 3789 C 350.078 -1.7236 -1.06865 0
M  V30 3790 C 350.411 -0.493231 -1.87832 0
M  V30 3791 O 349.686 0.5098 -1.877 0
M  V30 3792 C 349.969 -2.99621 -1.99747 0
M  V30 3793 C 349.822 -4.32899 -1.22143 0
M  V30 3794 C 351.141 -3.22615 -2.99345 0
M  V30 3795 H 348.26 -0.627151 -0.387105 0
M  V30 3796 H 350.902 -1.86827 -0.345767 0
M  V30 3797 H 349.052 -2.87418 -2.61387 0
M  V30 3798 H 350.724 -4.56978 -0.630017 0
M  V30 3799 H 348.967 -4.30628 -0.523628 0
M  V30 3800 H 349.638 -5.18154 -1.90318 0
M  V30 3801 H 352.114 -3.34248 -2.47826 0
M  V30 3802 H 350.99 -4.13027 -3.61524 0
M  V30 3803 H 351.251 -2.3961 -3.71536 0
M  V30 3804 N 350.31 0.590341 -1.46126 0
M  V30 3805 C 351.721 1.17243 -1.45296 0
M  V30 3806 C 352.072 1.95281 -0.189723 0
M  V30 3807 O 351.197 2.04502 0.707674 0
M  V30 3808 C 351.792 2.13284 -2.6324 0
M  V30 3809 C 350.351 2.66832 -2.65476 0
M  V30 3810 C 349.498 1.42557 -2.3785 0
M  V30 3811 H 352.449 0.378692 -1.54116 0
M  V30 3812 H 352.47 2.96619 -2.38323 0
M  V30 3813 H 351.982 1.56459 -3.55165 0
M  V30 3814 H 350.083 3.27548 -1.77603 0
M  V30 3815 H 350.196 3.10088 -3.65215 0
M  V30 3816 H 348.56 1.72107 -1.87753 0
M  V30 3817 H 349.343 0.875741 -3.31942 0
M  V30 3818 N 351.788 1.33704 0.83433 0
M  V30 3819 C 353.034 1.25603 1.59222 0
M  V30 3820 C 353.367 -0.176659 1.93395 0
M  V30 3821 O 352.642 -1.11915 1.59076 0
M  V30 3822 C 352.925 2.13576 2.89926 0
M  V30 3823 C 352.778 3.65326 2.62406 0
M  V30 3824 C 354.097 2.01238 3.91397 0
M  V30 3825 H 351.216 0.457613 0.577719 0
M  V30 3826 H 353.858 1.63848 0.961972 0
M  V30 3827 H 352.008 1.8109 3.43713 0
M  V30 3828 H 353.68 4.08124 2.15017 0
M  V30 3829 H 351.923 3.8698 1.96033 0
M  V30 3830 H 352.594 4.22232 3.55562 0
M  V30 3831 H 355.07 2.29738 3.46929 0
M  V30 3832 H 353.946 2.65036 4.80673 0
M  V30 3833 H 354.207 0.985951 4.30966 0
M  V30 3834 N 353.266 -1.05314 1.17247 0
M  V30 3835 C 354.515 -1.77685 0.954521 0
M  V30 3836 C 354.828 -1.88616 -0.518025 0
M  V30 3837 O 356.034 -2.57714 -0.854144 0
M  V30 3838 C 354.49 -3.19402 1.65863 0
M  V30 3839 C 354.098 -3.16605 3.16963 0
M  V30 3840 C 355.842 -3.96237 1.52303 0
M  V30 3841 C 353.749 -4.53103 3.80068 0
M  V30 3842 H 352.679 -0.666 0.353496 0
M  V30 3843 H 355.33 -1.1805 1.40486 0
M  V30 3844 H 353.712 -3.79355 1.13602 0
M  V30 3845 H 354.886 -2.66176 3.76148 0
M  V30 3846 H 353.201 -2.53268 3.30521 0
M  V30 3847 H 355.798 -4.97157 1.96822 0
M  V30 3848 H 356.141 -4.136 0.473401 0
M  V30 3849 H 356.674 -3.42829 2.01775 0
M  V30 3850 H 353.413 -4.40946 4.85023 0
M  V30 3851 H 352.933 -5.03686 3.2567 0
M  V30 3852 H 354.612 -5.22045 3.82202 0
M  V30 3853 N 354.744 -0.972509 -1.24016 0
M  V30 3854 C 355.969 -0.654417 -1.96805 0
M  V30 3855 C 356.394 0.770398 -1.716 0
M  V30 3856 O 355.752 1.52361 -0.982647 0
M  V30 3857 C 355.8 -0.941031 -3.48105 0
M  V30 3858 O 354.904 -0.0289472 -4.1239 0
M  V30 3859 H 354.245 -0.24692 -0.616382 0
M  V30 3860 H 356.775 -1.30396 -1.57664 0
M  V30 3861 H 356.785 -0.87452 -3.98517 0
M  V30 3862 H 355.46 -1.97939 -3.65777 0
M  V30 3863 H 354.037 -0.149192 -3.72601 0
M  V30 3864 N 356.222 1.38976 -0.743202 0
M  V30 3865 C 357.169 2.30544 -0.10861 0
M  V30 3866 C 358.139 1.49642 0.720869 0
M  V30 3867 O 359.324 1.78304 0.679142 0
M  V30 3868 C 356.464 3.36018 0.786496 0
M  V30 3869 C 355.577 4.31963 -0.0564849 0
M  V30 3870 C 354.712 5.24506 0.840657 0
M  V30 3871 C 353.751 6.121 -0.00658363 0
M  V30 3872 N 352.888 6.96973 0.846943 0
M  V30 3873 H 357.728 2.8424 -0.895088 0
M  V30 3874 H 355.265 1.3995 -0.453048 0
M  V30 3875 H 357.223 3.95768 1.31999 0
M  V30 3876 H 355.853 2.83758 1.53887 0
M  V30 3877 H 354.905 3.73763 -0.707492 0
M  V30 3878 H 356.217 4.93703 -0.711229 0
M  V30 3879 H 355.371 5.89322 1.4417 0
M  V30 3880 H 354.11 4.63107 1.52916 0
M  V30 3881 H 353.115 5.46289 -0.620366 0
M  V30 3882 H 354.34 6.75565 -0.691992 0
M  V30 3883 H 352.286 6.38133 1.52059 0
M  V30 3884 H 352.203 7.5559 0.248864 0
M  V30 3885 H 353.471 7.6621 1.43328 0
M  V30 3886 N 357.7 0.491464 1.49741 0
M  V30 3887 C 358.948 -0.0563141 2.02022 0
M  V30 3888 C 359.269 -1.38363 1.37407 0
M  V30 3889 O 358.539 -1.88702 0.526166 0
M  V30 3890 H 357.119 -0.0238014 0.746621 0
M  V30 3891 H 359.781 0.646533 1.83864 0
M  V30 3892 H 358.877 -0.192967 3.11503 0
M  V30 3893 N 359.178 -1.55987 0.224894 0
M  V30 3894 C 360.11 -2.17722 -0.716224 0
M  V30 3895 C 361.123 -1.14723 -1.15509 0
M  V30 3896 O 362.312 -1.41688 -1.08567 0
M  V30 3897 C 359.412 -2.74873 -1.98238 0
M  V30 3898 C 358.585 -4.03074 -1.69853 0
M  V30 3899 C 357.644 -4.44757 -2.81208 0
M  V30 3900 O 356.67 -5.11587 -2.49534 0
M  V30 3901 N 357.872 -4.10716 -4.10235 0
M  V30 3902 H 360.637 -2.99109 -0.188123 0
M  V30 3903 H 358.198 -1.6184 0.0440123 0
M  V30 3904 H 360.19 -2.99727 -2.7193 0
M  V30 3905 H 358.76 -1.9777 -2.42086 0
M  V30 3906 H 357.98 -3.86041 -0.797875 0
M  V30 3907 H 359.268 -4.86701 -1.48324 0
M  V30 3908 H 358.666 -3.57019 -4.38809 0
M  V30 3909 H 357.223 -4.40455 -4.80461 0
M  V30 3910 N 360.656 0.0484629 -1.57525 0
M  V30 3911 C 361.588 1.08222 -2.02041 0
M  V30 3912 C 362.601 1.33621 -0.930012 0
M  V30 3913 O 363.79 1.3145 -1.20761 0
M  V30 3914 C 360.89 2.42818 -2.36416 0
M  V30 3915 C 360.063 2.37049 -3.67596 0
M  V30 3916 C 359.122 3.53937 -3.89378 0
M  V30 3917 O 358.148 3.34308 -4.60681 0
M  V30 3918 N 359.35 4.75126 -3.3352 0
M  V30 3919 H 362.115 0.702946 -2.9134 0
M  V30 3920 H 359.676 0.236745 -1.6016 0
M  V30 3921 H 361.668 3.197 -2.48141 0
M  V30 3922 H 360.238 2.72661 -1.52888 0
M  V30 3923 H 359.458 1.45395 -3.66407 0
M  V30 3924 H 360.746 2.30318 -4.53686 0
M  V30 3925 H 360.144 4.93976 -2.75688 0
M  V30 3926 H 358.701 5.49439 -3.50656 0
M  V30 3927 N 362.134 1.5431 0.320358 0
M  V30 3928 C 363.081 1.83918 1.39438 0
M  V30 3929 C 364.051 0.686525 1.51248 0
M  V30 3930 O 365.236 0.933269 1.66417 0
M  V30 3931 C 362.376 2.075 2.75749 0
M  V30 3932 C 361.489 3.35177 2.72544 0
M  V30 3933 C 360.624 3.48704 4.00723 0
M  V30 3934 C 359.663 4.70244 3.91838 0
M  V30 3935 N 358.8 4.80679 5.11754 0
M  V30 3936 H 363.64 2.75544 1.13489 0
M  V30 3937 H 361.177 1.36459 0.549309 0
M  V30 3938 H 363.135 2.19166 3.54996 0
M  V30 3939 H 361.765 1.19163 3 0
M  V30 3940 H 360.817 3.32233 1.85271 0
M  V30 3941 H 362.129 4.24534 2.61863 0
M  V30 3942 H 361.283 3.59928 4.88402 0
M  V30 3943 H 360.022 2.57445 4.14214 0
M  V30 3944 H 359.027 4.59072 3.02544 0
M  V30 3945 H 360.252 5.6289 3.7991 0
M  V30 3946 H 358.198 3.92337 5.25745 0
M  V30 3947 H 358.115 5.64007 5.0342 0
M  V30 3948 H 359.383 4.96239 6.01138 0
M  V30 3949 N 363.613 -0.582584 1.46437 0
M  V30 3950 C 364.576 -1.67366 1.56592 0
M  V30 3951 C 365.576 -1.54575 0.443072 0
M  V30 3952 O 366.766 -1.59191 0.707381 0
M  V30 3953 C 363.898 -3.06791 1.48634 0
M  V30 3954 H 365.091 -1.5972 2.5383 0
M  V30 3955 H 362.644 -0.800432 1.34249 0
M  V30 3956 H 363.379 -3.19993 0.526763 0
M  V30 3957 H 363.164 -3.17484 2.30101 0
M  V30 3958 H 364.654 -3.86218 1.58826 0
M  V30 3959 N 365.091 -1.34144 -0.827227 0
M  V30 3960 C 366.041 -1.21923 -1.92663 0
M  V30 3961 C 367.025 -0.119294 -1.60457 0
M  V30 3962 O 368.217 -0.348539 -1.73534 0
M  V30 3963 C 365.346 -0.972492 -3.29238 0
M  V30 3964 C 364.432 -2.1154 -3.67576 0
M  V30 3965 N 364.823 -3.36627 -3.77512 0
M  V30 3966 C 363.121 -2.02468 -3.97395 0
M  V30 3967 C 363.822 -4.11658 -4.1099 0
M  V30 3968 N 362.798 -3.40207 -4.23981 0
M  V30 3969 H 366.6 -2.16721 -1.98517 0
M  V30 3970 H 364.114 -1.2632 -1.02064 0
M  V30 3971 H 366.111 -0.865847 -4.0781 0
M  V30 3972 H 364.771 -0.0331509 -3.24683 0
M  V30 3973 H 365.782 -3.71234 -3.61118 0
M  V30 3974 H 362.459 -1.16265 -4.00985 0
M  V30 3975 H 363.849 -5.19657 -4.25918 0
M  V30 3976 N 366.569 1.04691 -1.17803 0
M  V30 3977 C 367.815 1.78045 -0.970969 0
M  V30 3978 C 368.148 1.87686 0.498751 0
M  V30 3979 O 367.423 1.38035 1.37027 0
M  V30 3980 C 367.706 3.2166 -1.61884 0
M  V30 3981 C 367.559 3.20001 -3.161 0
M  V30 3982 C 368.878 4.1962 -1.3269 0
M  V30 3983 H 365.997 0.64633 -0.354155 0
M  V30 3984 H 368.639 1.22333 -1.45378 0
M  V30 3985 H 366.789 3.69232 -1.20831 0
M  V30 3986 H 368.461 2.80467 -3.66246 0
M  V30 3987 H 366.704 2.58203 -3.48588 0
M  V30 3988 H 367.375 4.21386 -3.56564 0
M  V30 3989 H 369.851 3.80567 -1.68249 0
M  V30 3990 H 368.727 5.18339 -1.80599 0
M  V30 3991 H 368.988 4.414 -0.248622 0
M  V30 3992 N 368.047 0.979072 1.23499 0
M  V30 3993 C 369.272 0.664845 1.96455 0
M  V30 3994 C 369.697 -0.761287 1.72006 0
M  V30 3995 O 369.055 -1.51837 0.990713 0
M  V30 3996 C 369.103 0.959479 3.47601 0
M  V30 3997 O 368.207 0.0508168 4.12369 0
M  V30 3998 H 367.548 0.250185 0.615064 0
M  V30 3999 H 370.078 1.31231 1.5697 0
M  V30 4000 H 370.088 0.895642 3.98048 0
M  V30 4001 H 368.763 1.99876 3.64723 0
M  V30 4002 H 367.34 0.16895 3.72517 0
M  V30 4003 N 369.525 -1.3858 0.750561 0
M  V30 4004 C 370.772 -2.00184 0.305373 0
M  V30 4005 C 371.1 -1.59575 -1.11203 0
M  V30 4006 O 370.355 -0.823236 -1.77542 0
M  V30 4007 C 370.654 -3.55455 0.372373 0
M  V30 4008 C 370.32 -4.15765 1.745 0
M  V30 4009 C 368.982 -4.31951 2.12065 0
M  V30 4010 C 371.334 -4.49067 2.64553 0
M  V30 4011 C 368.662 -4.78734 3.39162 0
M  V30 4012 C 371.014 -4.97265 3.91038 0
M  V30 4013 C 369.678 -5.11658 4.28676 0
M  V30 4014 H 368.948 -0.732526 0.111744 0
M  V30 4015 H 371.595 -1.65673 0.960451 0
M  V30 4016 H 369.9 -3.90084 -0.366272 0
M  V30 4017 H 371.597 -4.00999 0.00953918 0
M  V30 4018 H 368.187 -4.03579 1.44297 0
M  V30 4019 H 372.371 -4.36166 2.36796 0
M  V30 4020 H 367.627 -4.88062 3.68246 0
M  V30 4021 H 371.801 -5.22003 4.60962 0
M  V30 4022 H 369.428 -5.47668 5.27222 0
M  V30 4023 N 371.003 -0.499398 -1.49478 0
M  V30 4024 C 371.95 0.279881 -2.29097 0
M  V30 4025 C 372.92 0.961805 -1.3542 0
M  V30 4026 O 374.105 0.968777 -1.64376 0
M  V30 4027 C 371.245 1.33932 -3.18051 0
M  V30 4028 C 370.358 0.669333 -4.26783 0
M  V30 4029 C 369.493 1.70907 -5.02955 0
M  V30 4030 C 368.532 1.02087 -6.03527 0
M  V30 4031 N 367.669 2.00474 -6.7287 0
M  V30 4032 H 372.509 -0.405317 -2.95231 0
M  V30 4033 H 370.046 -0.211726 -1.45568 0
M  V30 4034 H 372.004 1.96553 -3.67998 0
M  V30 4035 H 370.634 1.9933 -2.53904 0
M  V30 4036 H 369.686 -0.0701234 -3.80335 0
M  V30 4037 H 370.998 0.127503 -4.98637 0
M  V30 4038 H 370.152 2.41037 -5.56764 0
M  V30 4039 H 368.891 2.28476 -4.30871 0
M  V30 4040 H 367.896 0.305338 -5.48951 0
M  V30 4041 H 369.121 0.451708 -6.77596 0
M  V30 4042 H 367.067 2.57007 -6.03559 0
M  V30 4043 H 366.984 1.51353 -7.40694 0
M  V30 4044 H 368.252 2.69897 -7.31284 0
M  V30 4045 N 372.481 1.55866 -0.233164 0
M  V30 4046 C 373.892 1.847 0.272554 0
M  V30 4047 C 374.243 1.15477 1.58617 0
M  V30 4048 O 373.368 0.42841 2.12117 0
M  V30 4049 C 373.963 3.35071 0.501299 0
M  V30 4050 C 372.522 3.6418 0.951304 0
M  V30 4051 C 371.669 2.77292 0.0208209 0
M  V30 4052 H 374.62 1.52005 -0.456074 0
M  V30 4053 H 374.641 3.55906 1.34577 0
M  V30 4054 H 374.153 3.85424 -0.454936 0
M  V30 4055 H 372.254 3.19293 1.92049 0
M  V30 4056 H 372.367 4.72071 0.817675 0
M  V30 4057 H 370.731 2.49131 0.529723 0
M  V30 4058 H 371.514 3.30448 -0.93054 0
M  V30 4059 N 373.959 -0.0401083 1.57549 0
M  V30 4060 C 375.187 -0.745196 1.93014 0
M  V30 4061 C 375.602 -1.6948 0.831984 0
M  V30 4062 O 374.959 -1.81482 -0.192463 0
M  V30 4063 C 375.01 -1.51176 3.28372 0
M  V30 4064 O 374.731 -0.600284 4.33968 0
M  V30 4065 C 376.232 -2.315 3.78051 0
M  V30 4066 H 373.452 -0.210088 0.637263 0
M  V30 4067 H 375.996 -0.000924689 2.045 0
M  V30 4068 H 374.151 -2.20801 3.18317 0
M  V30 4069 H 374.565 -1.13669 5.12035 0
M  V30 4070 H 376.039 -2.80697 4.75303 0
M  V30 4071 H 376.516 -3.12436 3.08675 0
M  V30 4072 H 377.122 -1.66971 3.91153 0
M  V30 4073 N 375.437 -1.54477 -0.31217 0
M  V30 4074 C 376.683 -1.73483 -1.0503 0
M  V30 4075 C 377.016 -0.513125 -1.87298 0
M  V30 4076 O 376.291 0.489864 -1.8823 0
M  V30 4077 C 376.574 -3.01723 -1.96558 0
M  V30 4078 C 376.427 -4.3417 -1.17545 0
M  V30 4079 C 377.746 -3.25772 -2.95907 0
M  V30 4080 H 374.865 -0.631222 -0.380432 0
M  V30 4081 H 377.507 -1.87184 -0.325932 0
M  V30 4082 H 375.657 -2.90174 -2.58324 0
M  V30 4083 H 377.329 -4.5762 -0.581513 0
M  V30 4084 H 375.572 -4.31159 -0.477925 0
M  V30 4085 H 376.243 -5.20143 -1.84811 0
M  V30 4086 H 378.719 -3.36857 -2.44267 0
M  V30 4087 H 377.595 -4.16838 -3.57123 0
M  V30 4088 H 377.856 -2.43537 -3.68974 0
M  V30 4089 N 376.915 0.57481 -1.46744 0
M  V30 4090 C 377.878 1.66533 -1.57478 0
M  V30 4091 C 378.878 1.54338 -0.451263 0
M  V30 4092 O 380.068 1.58814 -0.715813 0
M  V30 4093 C 377.2 3.05999 -1.50259 0
M  V30 4094 H 378.393 1.58372 -2.54673 0
M  V30 4095 H 375.946 0.793301 -1.34672 0
M  V30 4096 H 376.681 3.19709 -0.543725 0
M  V30 4097 H 376.466 3.16259 -2.31781 0
M  V30 4098 H 377.956 3.8537 -1.60872 0
M  V30 4099 N 378.394 1.34581 0.820102 0
M  V30 4100 C 379.326 1.22236 1.93884 0
M  V30 4101 C 380.339 0.148776 1.62119 0
M  V30 4102 O 381.528 0.400877 1.7394 0
M  V30 4103 C 378.628 0.856542 3.27897 0
M  V30 4104 C 377.801 2.02569 3.87666 0
M  V30 4105 C 376.86 1.63782 5.00062 0
M  V30 4106 O 375.886 2.35477 5.18208 0
M  V30 4107 N 377.088 0.553611 5.77854 0
M  V30 4108 H 379.853 2.18615 2.05006 0
M  V30 4109 H 377.414 1.27573 0.99683 0
M  V30 4110 H 379.406 0.578806 4.0054 0
M  V30 4111 H 377.976 -0.0171518 3.12595 0
M  V30 4112 H 377.196 2.468 3.07382 0
M  V30 4113 H 378.484 2.80752 4.24329 0
M  V30 4114 H 377.882 -0.0423528 5.65684 0
M  V30 4115 H 376.439 0.335614 6.50935 0
M  V30 4116 N 379.872 -1.04064 1.18357 0
M  V30 4117 C 380.804 -2.12114 0.868358 0
M  V30 4118 C 381.817 -1.62247 -0.134045 0
M  V30 4119 O 383.006 -1.78253 0.0937933 0
M  V30 4120 C 380.106 -3.37773 0.276132 0
M  V30 4121 C 379.279 -4.16874 1.3242 0
M  V30 4122 C 378.338 -5.20861 0.747662 0
M  V30 4123 O 377.364 -5.51141 1.42239 0
M  V30 4124 N 378.566 -5.78715 -0.454823 0
M  V30 4125 H 381.331 -2.39748 1.79836 0
M  V30 4126 H 378.892 -1.20258 1.08396 0
M  V30 4127 H 380.884 -4.04513 -0.123133 0
M  V30 4128 H 379.454 -3.07581 -0.557895 0
M  V30 4129 H 378.674 -3.45456 1.89878 0
M  V30 4130 H 379.962 -4.66516 2.03078 0
M  V30 4131 H 379.36 -5.56415 -1.02073 0
M  V30 4132 H 377.917 -6.46921 -0.79601 0
M  V30 4133 N 381.35 -0.985608 -1.22978 0
M  V30 4134 C 382.766 -0.695104 -1.43668 0
M  V30 4135 C 382.966 0.736866 -1.87543 0
M  V30 4136 O 382.022 1.50868 -2.02473 0
M  V30 4137 C 383.335 -1.69447 -2.48412 0
M  V30 4138 C 384.883 -1.70909 -2.62219 0
M  V30 4139 C 385.358 -2.6969 -3.70178 0
M  V30 4140 N 386.849 -2.6824 -3.77626 0
M  V30 4141 C 387.584 -3.41339 -4.60733 0
M  V30 4142 N 387.08 -4.24015 -5.4789 0
M  V30 4143 N 388.873 -3.30079 -4.54977 0
M  V30 4144 H 381.024 -1.91054 -0.928016 0
M  V30 4145 H 383.287 -0.823553 -0.469536 0
M  V30 4146 H 382.993 -2.7188 -2.23102 0
M  V30 4147 H 382.867 -1.48147 -3.46889 0
M  V30 4148 H 385.254 -0.691785 -2.86877 0
M  V30 4149 H 385.335 -1.96276 -1.6404 0
M  V30 4150 H 384.979 -3.71566 -3.46268 0
M  V30 4151 H 384.909 -2.41595 -4.67909 0
M  V30 4152 H 387.4 -2.08243 -3.15346 0
M  V30 4153 H 387.713 -4.76636 -6.08308 0
M  V30 4154 H 386.058 -4.28104 -5.47496 0
M  V30 4155 H 389.249 -2.64937 -3.85909 0
M  V30 4156 H 389.422 -3.87308 -5.19516 0
M  V30 4157 N 382.828 1.3818 -0.7579 0
M  V30 4158 C 384.077 1.99261 -0.312744 0
M  V30 4159 C 384.39 1.60846 1.11301 0
M  V30 4160 O 385.596 2.14929 1.65885 0
M  V30 4161 C 384.052 3.56294 -0.50821 0
M  V30 4162 C 383.66 4.03657 -1.94333 0
M  V30 4163 C 385.404 4.24313 -0.125982 0
M  V30 4164 C 383.311 5.53347 -2.08712 0
M  V30 4165 H 382.241 0.745456 -0.113185 0
M  V30 4166 H 384.892 1.57889 -0.935056 0
M  V30 4167 H 383.274 3.95575 0.183353 0
M  V30 4168 H 384.448 3.75655 -2.66871 0
M  V30 4169 H 382.763 3.48376 -2.28086 0
M  V30 4170 H 385.36 5.34279 -0.212125 0
M  V30 4171 H 385.703 4.05962 0.921964 0
M  V30 4172 H 386.236 3.90285 -0.769563 0
M  V30 4173 H 382.975 5.76607 -3.11777 0
M  V30 4174 H 382.495 5.83078 -1.4064 0
M  V30 4175 H 384.174 6.19111 -1.87912 0
M  V30 4176 N 384.306 0.507319 1.49211 0
M  V30 4177 C 385.546 -0.0332372 2.04373 0
M  V30 4178 C 385.91 -1.33694 1.37804 0
M  V30 4179 O 387.111 -1.96213 1.83722 0
M  V30 4180 C 385.382 -0.17599 3.56966 0
M  V30 4181 S 386.941 -0.669882 4.33657 0
M  V30 4182 H 383.759 0.00123603 0.710999 0
M  V30 4183 H 386.361 0.682725 1.83191 0
M  V30 4184 H 385.065 0.778053 4.02957 0
M  V30 4185 H 384.596 -0.917005 3.82563 0
M  V30 4186 H 386.611 -1.93806 4.56786 0
M  V30 4187 N 385.784 -1.5574 0.241426 0
M  V30 4188 C 387.195 -1.84842 -0.262755 0
M  V30 4189 C 387.546 -1.16317 -1.58003 0
M  V30 4190 O 386.671 -0.439653 -2.11887 0
M  V30 4191 C 387.266 -3.35332 -0.483523 0
M  V30 4192 C 385.825 -3.6468 -0.931977 0
M  V30 4193 C 384.972 -2.77299 -0.0061151 0
M  V30 4194 H 387.923 -1.51761 0.464129 0
M  V30 4195 H 387.944 -3.56615 -1.32688 0
M  V30 4196 H 387.456 -3.85178 0.47537 0
M  V30 4197 H 385.557 -3.20307 -1.90353 0
M  V30 4198 H 385.67 -4.72498 -0.792628 0
M  V30 4199 H 384.034 -2.49408 -0.516503 0
M  V30 4200 H 384.817 -3.2995 0.948052 0
M  V30 4201 N 387.262 0.0317525 -1.57568 0
M  V30 4202 C 388.21 1.05165 -2.07468 0
M  V30 4203 C 389.204 1.3761 -0.98792 0
M  V30 4204 O 390.41 1.36546 -1.17282 0
M  V30 4205 H 386.785 0.35666 -0.66204 0
M  V30 4206 H 388.756 0.604958 -2.92203 0
M  V30 4207 C 387.505 2.34488 -2.56731 0
M  V30 4208 H 386.828 2.10383 -3.39969 0
M  V30 4209 H 388.268 3.04203 -2.95358 0
M  V30 4210 C 386.727 3.03266 -1.46736 0
M  V30 4211 O 387.257 3.92988 -0.832069 0
M  V30 4212 N 385.463 2.6455 -1.20256 0
M  V30 4213 H 385.01 1.91674 -1.72102 0
M  V30 4214 H 384.968 3.10886 -0.468737 0
M  V30 4215 N 388.74 1.54641 0.303973 0
M  V30 4216 C 389.98 1.75516 1.04755 0
M  V30 4217 C 390.344 0.528211 1.84591 0
M  V30 4218 O 391.545 0.614645 2.61678 0
M  V30 4219 C 389.816 3.00685 1.93193 0
M  V30 4220 S 391.375 3.42549 2.74237 0
M  V30 4221 H 388.193 0.616987 0.353339 0
M  V30 4222 H 390.795 1.92842 0.321292 0
M  V30 4223 H 389.499 3.8811 1.33411 0
M  V30 4224 H 389.03 2.85937 2.70191 0
M  V30 4225 H 391.045 2.99386 3.95705 0
M  V30 4226 N 390.218 -0.567019 1.47046 0
M  V30 4227 C 391.634 -0.891975 1.32348 0
M  V30 4228 C 391.834 -1.99154 0.306616 0
M  V30 4229 O 390.89 -2.50883 -0.28532 0
M  V30 4230 C 392.203 -1.29449 2.7141 0
M  V30 4231 C 393.751 -1.40646 2.79621 0
M  V30 4232 C 394.226 -1.84257 4.19301 0
M  V30 4233 N 395.717 -1.91424 4.21795 0
M  V30 4234 C 396.452 -2.26476 5.26779 0
M  V30 4235 N 395.948 -2.60211 6.42077 0
M  V30 4236 N 397.741 -2.27166 5.14152 0
M  V30 4237 H 389.892 0.159074 2.11803 0
M  V30 4238 H 392.155 0.00849752 0.947962 0
M  V30 4239 H 391.861 -0.560448 3.47206 0
M  V30 4240 H 391.735 -2.25273 3.02542 0
M  V30 4241 H 394.122 -2.13133 2.04104 0
M  V30 4242 H 394.203 -0.430339 2.52154 0
M  V30 4243 H 393.847 -1.12343 4.95319 0
M  V30 4244 H 393.777 -2.82855 4.44185 0
M  V30 4245 H 396.268 -1.6778 3.38612 0
M  V30 4246 H 396.581 -2.85956 7.17948 0
M  V30 4247 H 394.926 -2.57813 6.45413 0
M  V30 4248 H 398.117 -2.00244 4.23107 0
M  V30 4249 H 398.29 -2.54154 5.96079 0
M  V30 4250 N 391.696 -1.35014 -0.812953 0
M  V30 4251 C 392.606 -1.2951 -1.95613 0
M  V30 4252 C 393.622 -0.20107 -1.72834 0
M  V30 4253 O 394.798 -0.42932 -1.96771 0
M  V30 4254 C 391.863 -1.06033 -3.30088 0
M  V30 4255 C 390.924 -2.24688 -3.65805 0
M  V30 4256 C 390.157 -2.02322 -4.93864 0
M  V30 4257 O 390.38 -0.986464 -5.61805 0
M  V30 4258 O 389.314 -2.89525 -5.27692 0
M  V30 4259 H 393.14 -2.25705 -2.03202 0
M  V30 4260 H 390.725 -1.15321 -0.949811 0
M  V30 4261 H 392.607 -0.94763 -4.10607 0
M  V30 4262 H 391.282 -0.128852 -3.23443 0
M  V30 4263 H 390.189 -2.41521 -2.85689 0
M  V30 4264 H 391.522 -3.16261 -3.77147 0
M  V30 4265 N 393.175 1.03435 -1.18907 0
M  V30 4266 C 394.403 1.80381 -1.01342 0
M  V30 4267 C 394.818 1.83649 0.438005 0
M  V30 4268 O 394.175 1.27655 1.30424 0
M  V30 4269 C 394.226 3.25689 -1.56873 0
M  V30 4270 O 393.947 3.22673 -2.96334 0
M  V30 4271 C 395.448 4.19255 -1.44014 0
M  V30 4272 H 392.668 0.56784 -0.35749 0
M  V30 4273 H 395.212 1.30317 -1.576 0
M  V30 4274 H 393.367 3.72962 -1.04777 0
M  V30 4275 H 393.781 4.13748 -3.22355 0
M  V30 4276 H 395.255 5.19123 -1.87657 0
M  V30 4277 H 395.732 4.37467 -0.389815 0
M  V30 4278 H 396.338 3.77851 -1.95214 0
M  V30 4279 N 394.653 0.992116 1.22453 0
M  V30 4280 C 395.616 0.546883 2.2258 0
M  V30 4281 C 396.616 -0.369829 1.56489 0
M  V30 4282 O 397.806 -0.161896 1.73446 0
M  V30 4283 C 394.938 -0.204659 3.40285 0
M  V30 4284 H 396.131 1.43234 2.63484 0
M  V30 4285 H 393.684 0.779239 1.3549 0
M  V30 4286 H 394.419 -1.10614 3.04853 0
M  V30 4287 H 394.204 0.45354 3.89468 0
M  V30 4288 H 395.694 -0.504358 4.14543 0
M  V30 4289 N 396.131 -1.37776 0.765217 0
M  V30 4290 C 397.377 -2.00145 0.327072 0
M  V30 4291 C 397.71 -1.60607 -1.09175 0
M  V30 4292 O 396.985 -0.849127 -1.74986 0
M  V30 4293 C 397.268 -3.57109 0.46319 0
M  V30 4294 C 397.121 -4.06576 1.92395 0
M  V30 4295 C 398.44 -4.39888 -0.136473 0
M  V30 4296 H 395.559 -0.727113 0.120316 0
M  V30 4297 H 398.201 -1.63549 0.967039 0
M  V30 4298 H 396.351 -3.88414 -0.0816358 0
M  V30 4299 H 398.023 -3.85864 2.52798 0
M  V30 4300 H 396.266 -3.59011 2.43503 0
M  V30 4301 H 396.937 -5.15639 1.97028 0
M  V30 4302 H 399.413 -4.14803 0.328317 0
M  V30 4303 H 398.289 -5.48899 -0.0110582 0
M  V30 4304 H 398.55 -4.24758 -1.22608 0
M  V30 4305 N 397.609 -0.515225 -1.4894 0
M  V30 4306 C 398.886 0.0879088 -1.95402 0
M  V30 4307 C 399.266 1.52745 -1.45712 0
M  V30 4308 O 398.614 2.18238 -0.677093 0
M  V30 4309 C 398.824 -0.0141055 -3.48997 0
M  V30 4310 C 400.172 0.152646 -4.24326 0
M  V30 4311 O 401.196 0.0604025 -3.56149 0
M  V30 4312 O 400.055 0.34384 -5.45417 0
M  V30 4313 H 397.149 0.0874636 -0.822362 0
M  V30 4314 H 399.695 -0.578775 -1.59525 0
M  V30 4315 H 398.467 -1.01745 -3.77841 0
M  V30 4316 H 398.09 0.692091 -3.9153 0
M  V30 4317 N 399.087 1.5561 -0.249682 0
M  V30 4318 C 400.335 1.98618 0.373548 0
M  V30 4319 C 400.656 1.13919 1.58264 0
M  V30 4320 O 399.926 0.222637 1.94631 0
M  V30 4321 H 398.506 0.733571 0.141006 0
M  V30 4322 H 401.168 1.91748 -0.349117 0
M  V30 4323 H 400.264 3.04584 0.680796 0
M  V30 4324 N 400.565 -0.0233959 1.57583 0
M  V30 4325 C 401.475 -1.03907 2.10334 0
M  V30 4326 C 402.491 -1.39257 1.04323 0
M  V30 4327 O 403.667 -1.48462 1.36091 0
M  V30 4328 C 400.732 -2.31938 2.57693 0
M  V30 4329 C 399.793 -2.03117 3.78209 0
M  V30 4330 C 399.026 -3.25043 4.233 0
M  V30 4331 O 399.249 -4.35916 3.67876 0
M  V30 4332 O 398.183 -3.10411 5.15683 0
M  V30 4333 H 402.009 -0.620748 2.97288 0
M  V30 4334 H 399.594 -0.240743 1.47448 0
M  V30 4335 H 401.476 -3.07196 2.88458 0
M  V30 4336 H 400.151 -2.73055 1.73847 0
M  V30 4337 H 399.058 -1.25408 3.52454 0
M  V30 4338 H 400.391 -1.66852 4.63056 0
M  V30 4339 N 402.043 -1.548 -0.295768 0
M  V30 4340 C 402.973 -1.89115 -1.36959 0
M  V30 4341 C 403.954 -0.75059 -1.52644 0
M  V30 4342 O 405.139 -1.00678 -1.66065 0
M  V30 4343 C 402.269 -2.14307 -2.73295 0
M  V30 4344 C 401.223 -3.30151 -2.72368 0
M  V30 4345 C 400.549 -3.40772 -4.12042 0
M  V30 4346 C 401.849 -4.67126 -2.33646 0
M  V30 4347 H 403.543 -2.79053 -1.08488 0
M  V30 4348 H 401.089 -1.34266 -0.520443 0
M  V30 4349 H 403.042 -2.36898 -3.48507 0
M  V30 4350 H 401.766 -1.21145 -3.03301 0
M  V30 4351 H 400.425 -3.0749 -1.99613 0
M  V30 4352 H 400.073 -2.45117 -4.39234 0
M  V30 4353 H 399.773 -4.18645 -4.12322 0
M  V30 4354 H 401.297 -3.6563 -4.89027 0
M  V30 4355 H 402.711 -4.89414 -2.98575 0
M  V30 4356 H 401.108 -5.47751 -2.45129 0
M  V30 4357 H 402.178 -4.67489 -1.28772 0
M  V30 4358 N 403.521 0.559213 -1.47345 0
M  V30 4359 C 404.767 1.31843 -1.54095 0
M  V30 4360 C 405.1 1.93149 -0.201726 0
M  V30 4361 O 404.375 1.77759 0.789428 0
M  V30 4362 C 404.658 2.43006 -2.65744 0
M  V30 4363 C 404.511 1.86581 -4.09277 0
M  V30 4364 C 405.83 3.44943 -2.73318 0
M  V30 4365 H 402.949 0.478012 -0.560957 0
M  V30 4366 H 405.591 0.625977 -1.79392 0
M  V30 4367 H 403.741 3.02072 -2.44305 0
M  V30 4368 H 405.413 1.31792 -4.42073 0
M  V30 4369 H 403.656 1.17268 -4.17649 0
M  V30 4370 H 404.327 2.66933 -4.83168 0
M  V30 4371 H 406.803 2.95793 -2.92653 0
M  V30 4372 H 405.679 4.20153 -3.53218 0
M  V30 4373 H 405.94 4.03665 -1.80296 0
M  V30 4374 N 404.999 1.35443 0.805782 0
M  V30 4375 C 406.245 1.28952 1.56522 0
M  V30 4376 C 406.578 -0.135597 1.93726 0
M  V30 4377 O 405.853 -1.08516 1.61414 0
M  V30 4378 C 406.136 2.19678 2.85331 0
M  V30 4379 C 405.989 3.7081 2.54598 0
M  V30 4380 C 407.308 2.09495 3.8704 0
M  V30 4381 H 404.427 0.469764 0.567883 0
M  V30 4382 H 407.069 1.65851 0.927001 0
M  V30 4383 H 405.219 1.8834 3.39795 0
M  V30 4384 H 406.891 4.12593 2.06312 0
M  V30 4385 H 405.134 3.91051 1.8778 0
M  V30 4386 H 405.805 4.29679 3.46525 0
M  V30 4387 H 408.281 2.37045 3.41978 0
M  V30 4388 H 407.157 2.75173 4.74943 0
M  V30 4389 H 407.418 1.07714 4.28777 0
M  V30 4390 N 406.477 -1.02803 1.19454 0
M  V30 4391 C 407.407 -2.12999 0.956758 0
M  V30 4392 C 408.388 -1.69743 -0.110188 0
M  V30 4393 O 409.573 -1.94148 0.0450038 0
M  V30 4394 C 406.703 -3.43746 0.495553 0
M  V30 4395 C 405.657 -4.00688 1.50443 0
M  V30 4396 C 404.983 -5.27067 0.900275 0
M  V30 4397 C 406.283 -4.35397 2.8849 0
M  V30 4398 H 407.977 -2.33148 1.87836 0
M  V30 4399 H 405.523 -1.12045 0.904539 0
M  V30 4400 H 407.476 -4.2021 0.316493 0
M  V30 4401 H 406.2 -3.23321 -0.461646 0
M  V30 4402 H 404.859 -3.2632 1.67065 0
M  V30 4403 H 404.507 -5.02959 -0.064503 0
M  V30 4404 H 404.207 -5.66127 1.57397 0
M  V30 4405 H 405.731 -6.06196 0.73203 0
M  V30 4406 H 407.145 -5.02795 2.75446 0
M  V30 4407 H 405.542 -4.85541 3.52661 0
M  V30 4408 H 406.612 -3.44662 3.41081 0
M  V30 4409 N 407.956 -0.998596 -1.21925 0
M  V30 4410 C 409.186 -0.695276 -1.94549 0
M  V30 4411 C 409.594 0.745079 -1.73911 0
M  V30 4412 O 408.937 1.51507 -1.03881 0
M  V30 4413 C 408.999 -0.928485 -3.47303 0
M  V30 4414 C 408.663 -2.35443 -3.91683 0
M  V30 4415 C 409.66 -3.33428 -3.98901 0
M  V30 4416 C 407.345 -2.69038 -4.24174 0
M  V30 4417 C 409.339 -4.63079 -4.37992 0
M  V30 4418 C 407.026 -3.98906 -4.62944 0
M  V30 4419 C 408.024 -4.95738 -4.69822 0
M  V30 4420 O 407.712 -6.23285 -5.07711 0
M  V30 4421 H 407.444 -0.255902 -0.625692 0
M  V30 4422 H 409.998 -1.33767 -1.5587 0
M  V30 4423 H 408.228 -0.228917 -3.86022 0
M  V30 4424 H 409.917 -0.619539 -4.01144 0
M  V30 4425 H 410.683 -3.08807 -3.73983 0
M  V30 4426 H 406.562 -1.94367 -4.18022 0
M  V30 4427 H 410.106 -5.38658 -4.43275 0
M  V30 4428 H 406.003 -4.23314 -4.87314 0
M  V30 4429 H 406.771 -6.27306 -5.25766 0
M  V30 4430 N 409.434 1.37368 -0.772513 0
M  V30 4431 C 410.711 1.93839 -0.26188 0
M  V30 4432 C 411.091 1.7061 1.24319 0
M  V30 4433 O 410.439 1.05534 2.02669 0
M  V30 4434 C 410.649 3.43154 -0.636102 0
M  V30 4435 C 411.997 4.20249 -0.606324 0
M  V30 4436 O 413.021 3.5152 -0.575538 0
M  V30 4437 O 411.88 5.42809 -0.634086 0
M  V30 4438 H 408.974 0.82478 -0.0605555 0
M  V30 4439 H 411.52 1.4665 -0.853917 0
M  V30 4440 H 410.292 3.53647 -1.6748 0
M  V30 4441 H 409.915 3.97596 -0.0170516 0
M  V30 4442 N 410.912 0.523116 1.48665 0
M  V30 4443 C 412.158 -0.0134963 2.02796 0
M  V30 4444 C 412.491 -1.34582 1.40004 0
M  V30 4445 O 411.766 -1.86756 0.543381 0
M  V30 4446 C 412.049 -0.14276 3.59817 0
M  V30 4447 C 411.902 1.21425 4.331 0
M  V30 4448 C 413.221 -0.872856 4.31357 0
M  V30 4449 H 410.34 -0.00343074 0.736992 0
M  V30 4450 H 412.982 0.678816 1.7746 0
M  V30 4451 H 411.132 -0.732401 3.81534 0
M  V30 4452 H 412.804 1.84447 4.2282 0
M  V30 4453 H 411.047 1.79791 3.94788 0
M  V30 4454 H 411.718 1.07687 5.41394 0
M  V30 4455 H 414.194 -0.372555 4.14429 0
M  V30 4456 H 413.07 -0.932185 5.40927 0
M  V30 4457 H 413.331 -1.92161 3.98154 0
M  V30 4458 N 412.39 -1.55475 0.257931 0
M  V30 4459 C 413.337 -2.21837 -0.636939 0
M  V30 4460 C 414.307 -1.18596 -1.16294 0
M  V30 4461 O 415.492 -1.47081 -1.21539 0
M  V30 4462 C 412.632 -2.9301 -1.82317 0
M  V30 4463 C 411.745 -4.10931 -1.33265 0
M  V30 4464 C 410.88 -4.69791 -2.47931 0
M  V30 4465 C 409.919 -5.7994 -1.95796 0
M  V30 4466 N 409.056 -6.32935 -3.0387 0
M  V30 4467 H 413.896 -2.9793 -0.0643591 0
M  V30 4468 H 411.433 -1.47086 -0.0200031 0
M  V30 4469 H 413.391 -3.3248 -2.52018 0
M  V30 4470 H 412.021 -2.1937 -2.36805 0
M  V30 4471 H 411.073 -3.76699 -0.52931 0
M  V30 4472 H 412.385 -4.90417 -0.910654 0
M  V30 4473 H 411.539 -5.11892 -3.25656 0
M  V30 4474 H 410.278 -3.89545 -2.93438 0
M  V30 4475 H 409.283 -5.37305 -1.16546 0
M  V30 4476 H 410.508 -6.62043 -1.51246 0
M  V30 4477 H 408.454 -5.55591 -3.48791 0
M  V30 4478 H 408.371 -7.07645 -2.66035 0
M  V30 4479 H 409.639 -6.79695 -3.81621 0
M  V30 4480 N 413.868 0.0150385 -1.57593 0
M  V30 4481 C 415.284 0.370907 -1.5523 0
M  V30 4482 C 415.484 1.75735 -0.985882 0
M  V30 4483 O 414.54 2.44944 -0.613077 0
M  V30 4484 C 415.853 0.259908 -2.99575 0
M  V30 4485 C 417.401 0.335959 -3.11192 0
M  V30 4486 C 417.876 0.254253 -4.57294 0
M  V30 4487 N 419.367 0.312618 -4.62144 0
M  V30 4488 C 420.102 0.272505 -5.72752 0
M  V30 4489 N 419.598 0.183864 -6.92556 0
M  V30 4490 N 421.391 0.323267 -5.6117 0
M  V30 4491 H 413.542 -0.892104 -1.92757 0
M  V30 4492 H 415.805 -0.340563 -0.884715 0
M  V30 4493 H 415.511 -0.693403 -3.44797 0
M  V30 4494 H 415.385 1.048 -3.62349 0
M  V30 4495 H 417.772 1.27971 -2.65909 0
M  V30 4496 H 417.853 -0.481739 -2.51223 0
M  V30 4497 H 417.497 -0.685887 -5.03247 0
M  V30 4498 H 417.427 1.09024 -5.15191 0
M  V30 4499 H 419.918 0.38307 -3.75953 0
M  V30 4500 H 420.231 0.15874 -7.72637 0
M  V30 4501 H 418.576 0.149708 -6.94839 0
M  V30 4502 H 421.767 0.390607 -4.66467 0
M  V30 4503 H 421.94 0.288539 -6.47357 0
M  V30 4504 N 415.346 1.54954 0.287554 0
M  V30 4505 C 416.256 1.8991 1.37736 0
M  V30 4506 C 417.272 0.794701 1.54792 0
M  V30 4507 O 418.448 1.09243 1.69198 0
M  V30 4508 C 415.513 2.15108 2.71899 0
M  V30 4509 C 414.574 3.38752 2.63715 0
M  V30 4510 C 413.807 3.62739 3.91479 0
M  V30 4511 O 414.03 2.89492 4.91478 0
M  V30 4512 O 412.964 4.56267 3.92561 0
M  V30 4513 H 416.79 2.82652 1.11092 0
M  V30 4514 H 414.375 1.41315 0.484807 0
M  V30 4515 H 416.257 2.32806 3.51254 0
M  V30 4516 H 414.932 1.25551 2.9836 0
M  V30 4517 H 413.839 3.26405 1.82786 0
M  V30 4518 H 415.172 4.28483 2.42205 0
M  V30 4519 N 416.824 -0.551391 1.4764 0
M  V30 4520 C 417.734 -1.68525 1.63207 0
M  V30 4521 C 418.75 -1.6621 0.514815 0
M  V30 4522 O 419.926 -1.85551 0.783113 0
M  V30 4523 C 416.991 -3.05025 1.64805 0
M  V30 4524 C 416.052 -3.18362 2.88 0
M  V30 4525 C 415.285 -4.4835 2.89513 0
M  V30 4526 O 415.508 -5.34163 2.00065 0
M  V30 4527 O 414.442 -4.65602 3.81443 0
M  V30 4528 H 418.268 -1.58333 2.59161 0
M  V30 4529 H 415.853 -0.722063 1.30792 0
M  V30 4530 H 417.735 -3.86245 1.68502 0
M  V30 4531 H 416.41 -3.15587 0.720197 0
M  V30 4532 H 415.317 -2.36518 2.89845 0
M  V30 4533 H 416.65 -3.12707 3.80099 0
M  V30 4534 N 418.302 -1.35869 -0.798587 0
M  V30 4535 C 419.249 -1.29446 -1.91082 0
M  V30 4536 C 420.219 -0.16487 -1.6528 0
M  V30 4537 O 421.404 -0.349888 -1.87564 0
M  V30 4538 C 418.544 -1.0804 -3.27752 0
M  V30 4539 C 417.657 -2.29993 -3.65687 0
M  V30 4540 C 416.792 -2.01673 -4.91428 0
M  V30 4541 C 415.831 -3.19636 -5.22015 0
M  V30 4542 N 414.968 -2.91039 -6.38937 0
M  V30 4543 H 419.808 -2.24553 -1.95907 0
M  V30 4544 H 417.345 -1.11615 -0.958148 0
M  V30 4545 H 419.303 -0.936586 -4.06551 0
M  V30 4546 H 417.933 -0.16592 -3.22373 0
M  V30 4547 H 416.985 -2.55211 -2.82085 0
M  V30 4548 H 418.297 -3.18052 -3.84245 0
M  V30 4549 H 417.451 -1.84168 -5.78072 0
M  V30 4550 H 416.19 -1.10911 -4.74921 0
M  V30 4551 H 415.195 -3.37709 -4.33858 0
M  V30 4552 H 416.42 -4.11211 -5.40447 0
M  V30 4553 H 414.366 -2.0288 -6.2384 0
M  V30 4554 H 414.283 -3.72635 -6.57784 0
M  V30 4555 H 415.551 -2.77093 -7.28587 0
M  V30 4556 N 419.78 1.02168 -1.19998 0
M  V30 4557 C 420.743 2.08765 -0.94604 0
M  V30 4558 C 421.743 1.60618 0.0763846 0
M  V30 4559 O 422.933 1.73472 -0.159135 0
M  V30 4560 C 420.065 3.38262 -0.423255 0
M  V30 4561 H 421.258 2.32726 -1.89153 0
M  V30 4562 H 418.811 1.1889 -1.01464 0
M  V30 4563 H 419.546 3.19974 0.527938 0
M  V30 4564 H 419.331 3.74532 -1.16053 0
M  V30 4565 H 420.821 4.16759 -0.264911 0
M  V30 4566 N 421.258 1.00505 1.21394 0
M  V30 4567 C 422.506 0.686415 1.90086 0
M  V30 4568 C 422.827 -0.785264 1.7849 0
M  V30 4569 O 422.097 -1.56387 1.17983 0
M  V30 4570 H 420.677 0.2509 0.703604 0
M  V30 4571 H 423.339 1.27417 1.47482 0
M  V30 4572 H 422.435 0.959621 2.96981 0
M  V30 4573 N 422.737 -1.36956 0.779787 0
M  V30 4574 C 423.647 -2.33965 0.172491 0
M  V30 4575 C 424.663 -1.60574 -0.670222 0
M  V30 4576 O 425.839 -1.92617 -0.588263 0
M  V30 4577 C 422.904 -3.39761 -0.690173 0
M  V30 4578 C 421.965 -4.28964 0.169924 0
M  V30 4579 C 421.198 -5.29707 -0.651662 0
M  V30 4580 O 421.421 -5.38238 -1.88827 0
M  V30 4581 O 420.355 -6.01873 -0.0566264 0
M  V30 4582 H 424.181 -2.87647 0.974321 0
M  V30 4583 H 421.766 -1.39258 0.541078 0
M  V30 4584 H 423.648 -4.04471 -1.1824 0
M  V30 4585 H 422.323 -2.88394 -1.47006 0
M  V30 4586 H 421.23 -3.67326 0.708696 0
M  V30 4587 H 422.563 -4.83656 0.913085 0
M  V30 4588 N 424.215 -0.530993 -1.48385 0
M  V30 4589 C 425.145 0.219985 -2.32461 0
M  V30 4590 C 426.126 0.934111 -1.42156 0
M  V30 4591 O 427.311 0.919694 -1.71042 0
M  V30 4592 C 424.441 1.26674 -3.23375 0
M  V30 4593 C 423.395 0.67069 -4.22712 0
M  V30 4594 C 422.721 1.82017 -5.02766 0
M  V30 4595 C 424.021 -0.358268 -5.2107 0
M  V30 4596 H 425.715 -0.48187 -2.95497 0
M  V30 4597 H 423.261 -0.233182 -1.42099 0
M  V30 4598 H 425.214 1.80006 -3.81019 0
M  V30 4599 H 423.938 1.99818 -2.58341 0
M  V30 4600 H 422.597 0.158878 -3.66256 0
M  V30 4601 H 422.245 2.54002 -4.34157 0
M  V30 4602 H 421.945 1.42727 -5.70003 0
M  V30 4603 H 423.469 2.35725 -5.63264 0
M  V30 4604 H 424.883 0.0880081 -5.73232 0
M  V30 4605 H 423.28 -0.66861 -5.96364 0
M  V30 4606 H 424.35 -1.26367 -4.68145 0
M  V30 4607 N 425.693 1.55336 -0.266172 0
M  V30 4608 C 426.603 2.2583 0.635458 0
M  V30 4609 C 427.619 1.28106 1.17749 0
M  V30 4610 O 428.795 1.61024 1.20968 0
M  V30 4611 C 425.86 2.95879 1.80712 0
M  V30 4612 C 424.921 4.09059 1.30265 0
M  V30 4613 C 424.154 4.75759 2.41846 0
M  V30 4614 O 424.377 4.41622 3.61007 0
M  V30 4615 O 423.311 5.63888 2.1051 0
M  V30 4616 H 427.137 3.03631 0.0646693 0
M  V30 4617 H 424.722 1.49361 -0.0339177 0
M  V30 4618 H 426.604 3.39932 2.49047 0
M  V30 4619 H 425.279 2.21002 2.36516 0
M  V30 4620 H 424.186 3.69482 0.586019 0
M  V30 4621 H 425.519 4.85811 0.790458 0
M  V30 4622 N 427.171 -0.0066808 1.57599 0
M  V30 4623 C 428.417 -0.693947 1.90558 0
M  V30 4624 C 428.75 -1.73792 0.866594 0
M  V30 4625 O 428.025 -1.94156 -0.115548 0
M  V30 4626 C 428.308 -1.34317 3.34112 0
M  V30 4627 C 428.161 -0.311189 4.48722 0
M  V30 4628 C 429.48 -2.27116 3.7697 0
M  V30 4629 H 426.599 -0.250803 0.693013 0
M  V30 4630 H 429.241 0.043242 1.89951 0
M  V30 4631 H 427.391 -1.9715 3.3476 0
M  V30 4632 H 429.063 0.316944 4.6021 0
M  V30 4633 H 427.306 0.367253 4.32243 0
M  V30 4634 H 427.977 -0.804366 5.46108 0
M  V30 4635 H 430.453 -1.74306 3.77831 0
M  V30 4636 H 429.329 -2.69511 4.78179 0
M  V30 4637 H 429.59 -3.14743 3.10466 0
M  V30 4638 N 428.649 -1.55105 -0.279332 0
M  V30 4639 C 429.896 -1.75412 -1.01177 0
M  V30 4640 C 430.224 -0.551728 -1.86511 0
M  V30 4641 O 429.479 0.465919 -1.90073 0
M  V30 4642 C 429.778 -3.0086 -1.92919 0
M  V30 4643 C 429.444 -4.33689 -1.23387 0
M  V30 4644 C 428.106 -4.69792 -1.04159 0
M  V30 4645 C 430.458 -5.15941 -0.738562 0
M  V30 4646 C 427.786 -5.85707 -0.341166 0
M  V30 4647 C 430.138 -6.32579 -0.0517636 0
M  V30 4648 C 428.802 -6.67326 0.152292 0
M  V30 4649 H 428.072 -0.641879 -0.370233 0
M  V30 4650 H 430.719 -1.89373 -0.284627 0
M  V30 4651 H 429.024 -2.81773 -2.72234 0
M  V30 4652 H 430.721 -3.13768 -2.49701 0
M  V30 4653 H 427.311 -4.05309 -1.39364 0
M  V30 4654 H 431.495 -4.8853 -0.874764 0
M  V30 4655 H 426.751 -6.11157 -0.172287 0
M  V30 4656 H 430.925 -6.9557 0.339828 0
M  V30 4657 H 428.552 -7.56998 0.697014 0
M  V30 4658 N 430.127 0.543554 -1.4793 0
M  V30 4659 C 431.075 1.67039 -1.61866 0
M  V30 4660 C 432.069 1.62294 -0.48549 0
M  V30 4661 O 433.275 1.67315 -0.66376 0
M  V30 4662 H 429.65 0.552954 -0.509652 0
M  V30 4663 H 431.621 1.52426 -2.56533 0
M  V30 4664 C 430.37 3.05357 -1.6629 0
M  V30 4665 H 429.693 3.09696 -2.5284 0
M  V30 4666 H 431.133 3.83855 -1.80088 0
M  V30 4667 C 429.592 3.34531 -0.398861 0
M  V30 4668 O 430.122 3.98649 0.494162 0
M  V30 4669 N 428.328 2.89299 -0.2747 0
M  V30 4670 H 427.875 2.37298 -1.00236 0
M  V30 4671 H 427.833 3.09188 0.570075 0
M  V30 4672 N 431.605 1.3629 0.791371 0
M  V30 4673 C 432.853 1.30154 1.5461 0
M  V30 4674 C 433.174 -0.119409 1.94634 0
M  V30 4675 O 432.444 -1.05924 1.64794 0
M  V30 4676 H 431.024 0.478784 0.573389 0
M  V30 4677 H 433.686 1.70565 0.94306 0
M  V30 4678 H 432.782 1.92762 2.45457 0
M  V30 4679 N 433.083 -1.0153 1.20538 0
M  V30 4680 C 434.313 -1.78487 1.04048 0
M  V30 4681 C 434.721 -1.84631 -0.413292 0
M  V30 4682 O 434.064 -1.29919 -1.29872 0
M  V30 4683 C 434.126 -3.24367 1.55003 0
M  V30 4684 C 433.79 -3.41827 3.0332 0
M  V30 4685 C 434.787 -3.30941 4.00966 0
M  V30 4686 C 432.472 -3.67602 3.42307 0
M  V30 4687 C 434.466 -3.45577 5.35589 0
M  V30 4688 C 432.153 -3.81881 4.77085 0
M  V30 4689 C 433.151 -3.70874 5.73534 0
M  V30 4690 O 432.839 -3.84714 7.05868 0
M  V30 4691 H 432.571 -0.568108 0.366373 0
M  V30 4692 H 435.125 -1.28677 1.60098 0
M  V30 4693 H 433.355 -3.75266 0.933397 0
M  V30 4694 H 435.044 -3.82963 1.34514 0
M  V30 4695 H 435.81 -3.10964 3.72191 0
M  V30 4696 H 431.689 -3.75256 2.67776 0
M  V30 4697 H 435.233 -3.36902 6.10854 0
M  V30 4698 H 431.13 -4.01359 5.0555 0
M  V30 4699 H 431.898 -4.01724 7.13134 0
M  V30 4700 N 434.561 -1.01147 -1.20859 0
M  V30 4701 C 435.808 -0.697865 -1.90095 0
M  V30 4702 C 436.136 0.772014 -1.78522 0
M  V30 4703 O 435.391 1.57595 -1.16027 0
M  V30 4704 C 435.69 -1.0727 -3.40922 0
M  V30 4705 C 435.356 -2.53792 -3.72693 0
M  V30 4706 C 434.018 -2.93829 -3.81075 0
M  V30 4707 C 436.37 -3.48674 -3.87397 0
M  V30 4708 C 433.698 -4.27696 -4.01613 0
M  V30 4709 C 436.05 -4.82223 -4.09444 0
M  V30 4710 C 434.714 -5.21973 -4.16054 0
M  V30 4711 H 433.984 -0.255367 -0.695607 0
M  V30 4712 H 436.631 -1.27111 -1.43231 0
M  V30 4713 H 434.936 -0.417799 -3.89566 0
M  V30 4714 H 436.633 -0.807818 -3.92779 0
M  V30 4715 H 433.223 -2.21768 -3.66765 0
M  V30 4716 H 437.407 -3.18904 -3.80281 0
M  V30 4717 H 432.663 -4.58055 -4.04964 0
M  V30 4718 H 436.837 -5.55672 -4.19763 0
M  V30 4719 H 434.464 -6.25717 -4.31721 0
M  V30 4720 N 436.039 1.36541 -0.78704 0
M  V30 4721 C 437.285 1.99599 -0.358872 0
M  V30 4722 C 437.618 1.62323 1.06606 0
M  V30 4723 O 436.893 0.876858 1.73613 0
M  V30 4724 C 437.176 3.56327 -0.519944 0
M  V30 4725 C 437.029 4.03464 -1.98839 0
M  V30 4726 C 438.348 4.4005 0.0664737 0
M  V30 4727 H 435.467 0.725107 -0.131869 0
M  V30 4728 H 438.109 1.6199 -0.992936 0
M  V30 4729 H 436.259 3.88495 0.0198321 0
M  V30 4730 H 437.931 3.81793 -2.58905 0
M  V30 4731 H 436.174 3.55092 -2.49183 0
M  V30 4732 H 436.845 5.12439 -2.05207 0
M  V30 4733 H 439.321 4.14228 -0.394267 0
M  V30 4734 H 438.197 5.48847 -0.0762682 0
M  V30 4735 H 438.458 4.26655 1.15835 0
M  V30 4736 N 437.518 0.538854 1.48102 0
M  V30 4737 C 438.468 -0.23907 2.26743 0
M  V30 4738 C 439.452 -0.901923 1.33245 0
M  V30 4739 O 440.644 -0.803263 1.57723 0
M  V30 4740 C 437.773 -1.2799 3.18549 0
M  V30 4741 C 436.859 -0.621388 4.19523 0
M  V30 4742 N 437.25 0.298004 5.04921 0
M  V30 4743 C 435.548 -0.877533 4.37282 0
M  V30 4744 C 436.249 0.678757 5.77726 0
M  V30 4745 N 435.225 0.0377881 5.43587 0
M  V30 4746 H 439.027 0.468096 2.90148 0
M  V30 4747 H 436.541 0.357497 1.58416 0
M  V30 4748 H 438.538 -1.851 3.73555 0
M  V30 4749 H 437.198 -1.98835 2.567 0
M  V30 4750 H 438.209 0.671126 5.13533 0
M  V30 4751 H 434.886 -1.57588 3.86616 0
M  V30 4752 H 436.276 1.43316 6.56437 0
M  V30 4753 N 438.996 -1.55193 0.274407 0
M  V30 4754 C 440.243 -1.99581 -0.342579 0
M  V30 4755 C 440.571 -1.1628 -1.55914 0
M  V30 4756 O 439.826 -0.22029 -1.94456 0
M  V30 4757 C 440.125 -3.49019 -0.769458 0
M  V30 4758 C 439.791 -4.49598 0.342389 0
M  V30 4759 C 438.453 -4.76821 0.647686 0
M  V30 4760 C 440.805 -5.0964 1.09163 0
M  V30 4761 C 438.133 -5.61354 1.70581 0
M  V30 4762 C 440.485 -5.95323 2.13948 0
M  V30 4763 C 439.149 -6.20867 2.45113 0
M  V30 4764 H 438.419 -0.730319 -0.125358 0
M  V30 4765 H 441.066 -1.87529 0.387971 0
M  V30 4766 H 439.371 -3.58544 -1.57967 0
M  V30 4767 H 441.068 -3.8077 -1.25757 0
M  V30 4768 H 437.658 -4.28496 0.094318 0
M  V30 4769 H 441.842 -4.88632 0.869024 0
M  V30 4770 H 437.098 -5.79392 1.9523 0
M  V30 4771 H 441.272 -6.40881 2.72478 0
M  V30 4772 H 438.899 -6.86162 3.27239 0
M  V30 4773 N 440.474 -0.00167713 -1.576 0
M  V30 4774 C 441.721 0.68282 -1.90641 0
M  V30 4775 C 442.049 1.73686 -0.875415 0
M  V30 4776 O 441.304 1.95334 0.119575 0
M  V30 4777 C 441.603 1.36189 -3.30435 0
M  V30 4778 C 441.269 0.440887 -4.48739 0
M  V30 4779 C 439.931 0.187312 -4.80835 0
M  V30 4780 C 442.283 -0.193134 -5.20842 0
M  V30 4781 C 439.611 -0.70855 -5.82406 0
M  V30 4782 C 441.963 -1.07688 -6.23367 0
M  V30 4783 C 440.627 -1.33962 -6.53919 0
M  V30 4784 H 439.897 0.249862 -0.697603 0
M  V30 4785 H 442.544 -0.0575642 -1.91413 0
M  V30 4786 H 440.849 2.17636 -3.25794 0
M  V30 4787 H 442.546 1.89759 -3.5326 0
M  V30 4788 H 439.136 0.648694 -4.23663 0
M  V30 4789 H 443.32 -0.0102445 -4.96299 0
M  V30 4790 H 438.576 -0.920097 -6.04437 0
M  V30 4791 H 442.75 -1.57451 -6.78367 0
M  V30 4792 H 440.377 -2.03549 -7.32442 0
M  V30 4793 N 441.952 1.55251 0.271103 0
M  V30 4794 C 442.915 1.87484 1.31842 0
M  V30 4795 C 443.915 0.749545 1.42262 0
M  V30 4796 O 445.105 1.01771 1.4138 0
M  V30 4797 C 442.237 2.0818 2.69951 0
M  V30 4798 H 443.43 2.81108 1.0449 0
M  V30 4799 H 440.983 1.47771 0.509258 0
M  V30 4800 H 441.718 1.16944 3.02481 0
M  V30 4801 H 441.503 2.90114 2.63774 0
M  V30 4802 H 442.993 2.34385 3.4562 0
M  V30 4803 N 443.43 -0.535701 1.48216 0
M  V30 4804 C 444.841 -1.11769 1.49548 0
M  V30 4805 C 445.192 -1.94442 0.26207 0
M  V30 4806 O 444.317 -2.06987 -0.631287 0
M  V30 4807 C 444.912 -2.03367 2.70975 0
M  V30 4808 C 443.471 -2.56795 2.75196 0
M  V30 4809 C 442.618 -1.33631 2.42977 0
M  V30 4810 H 445.569 -0.321232 1.55415 0
M  V30 4811 H 445.59 -2.87569 2.49167 0
M  V30 4812 H 445.102 -1.43169 3.60727 0
M  V30 4813 H 443.203 -3.20731 1.89638 0
M  V30 4814 H 443.316 -2.9632 3.76472 0
M  V30 4815 H 441.68 -1.6502 1.94012 0
M  V30 4816 H 442.463 -0.75194 3.34964 0
M  V30 4817 N 444.908 -1.36708 -0.784132 0
M  V30 4818 C 446.185 -1.21776 -1.53069 0
M  V30 4819 C 446.565 0.193876 -2.10208 0
M  V30 4820 O 445.913 1.20012 -1.94446 0
M  V30 4821 C 446.123 -2.30395 -2.62143 0
M  V30 4822 C 447.471 -2.67325 -3.29882 0
M  V30 4823 O 448.495 -2.29478 -2.7243 0
M  V30 4824 O 447.354 -3.32485 -4.33724 0
M  V30 4825 H 444.448 -0.474459 -0.677361 0
M  V30 4826 H 446.994 -1.48454 -0.82216 0
M  V30 4827 H 445.766 -3.2498 -2.17953 0
M  V30 4828 H 445.389 -2.05112 -3.40609 0
M  V30 4829 N 446.386 1.0089 -1.21074 0
M  V30 4830 C 447.334 2.11707 -0.963476 0
M  V30 4831 C 448.328 1.69172 0.0879032 0
M  V30 4832 O 449.534 1.79889 -0.0631415 0
M  V30 4833 H 445.909 0.692026 -0.294287 0
M  V30 4834 H 447.88 2.29743 -1.90422 0
M  V30 4835 C 446.629 3.43473 -0.540509 0
M  V30 4836 H 445.952 3.76634 -1.34114 0
M  V30 4837 H 447.392 4.22044 -0.406777 0
M  V30 4838 C 445.851 3.2849 0.748079 0
M  V30 4839 O 446.381 3.58883 1.8046 0
M  V30 4840 N 444.587 2.81715 0.713081 0
M  V30 4841 H 444.134 2.5718 -0.146973 0
M  V30 4842 H 444.092 2.72071 1.57558 0
M  V30 4843 N 447.864 1.01787 1.20321 0
M  V30 4844 C 448.794 0.609625 2.25401 0
M  V30 4845 C 449.775 -0.375951 1.65893 0
M  V30 4846 O 450.96 -0.261101 1.92437 0
M  V30 4847 C 448.09 -0.0515995 3.47262 0
M  V30 4848 C 447.044 0.855095 4.19371 0
M  V30 4849 C 446.37 0.0595757 5.34667 0
M  V30 4850 C 447.67 2.16374 4.75373 0
M  V30 4851 H 449.364 1.48803 2.59804 0
M  V30 4852 H 446.91 0.716934 1.24884 0
M  V30 4853 H 448.863 -0.348764 4.19954 0
M  V30 4854 H 447.587 -0.964726 3.12027 0
M  V30 4855 H 446.246 1.13628 3.48546 0
M  V30 4856 H 445.894 -0.85524 4.95676 0
M  V30 4857 H 445.594 0.663406 5.83843 0
M  V30 4858 H 447.118 -0.231105 6.10162 0
M  V30 4859 H 448.532 1.92885 5.39878 0
M  V30 4860 H 446.929 2.71853 5.34991 0
M  V30 4861 H 447.999 2.82589 3.94045 0
M  V30 4862 N 449.342 -1.36122 0.79427 0
M  V30 4863 C 450.619 -1.93398 0.292685 0
M  V30 4864 C 450.999 -1.72567 -1.21589 0
M  V30 4865 O 450.347 -1.08745 -2.00965 0
M  V30 4866 C 450.557 -3.42099 0.690614 0
M  V30 4867 C 451.905 -4.19231 0.673105 0
M  V30 4868 O 452.929 -3.50559 0.631389 0
M  V30 4869 O 451.788 -5.41732 0.720362 0
M  V30 4870 H 448.882 -0.823712 0.0736693 0
M  V30 4871 H 451.428 -1.45273 0.87714 0
M  V30 4872 H 450.2 -3.50938 1.73085 0
M  V30 4873 H 449.823 -3.97519 0.0803036 0
M  V30 4874 N 450.82 -0.546701 -1.47814 0
M  V30 4875 C 452.231 -0.110564 -1.86372 0
M  V30 4876 C 452.582 1.31678 -1.45449 0
M  V30 4877 O 451.707 1.98889 -0.852758 0
M  V30 4878 C 452.302 -0.193873 -3.38245 0
M  V30 4879 C 450.861 0.187164 -3.75934 0
M  V30 4880 C 450.008 -0.546166 -2.71868 0
M  V30 4881 H 452.959 -0.757022 -1.39481 0
M  V30 4882 H 452.98 0.590218 -3.75895 0
M  V30 4883 H 452.492 -1.23282 -3.67999 0
M  V30 4884 H 450.593 1.22762 -3.51796 0
M  V30 4885 H 450.706 -0.164083 -4.78819 0
M  V30 4886 H 449.07 0.00953904 -2.54698 0
M  V30 4887 H 449.853 -1.58606 -3.04465 0
M  V30 4888 N 452.299 1.55045 -0.282633 0
M  V30 4889 C 453.548 1.98938 0.332667 0
M  V30 4890 C 453.861 1.17455 1.56409 0
M  V30 4891 O 455.067 1.51527 2.25282 0
M  V30 4892 C 453.523 3.54105 0.643226 0
M  V30 4893 C 453.131 4.44374 -0.568814 0
M  V30 4894 C 454.875 4.06569 1.22074 0
M  V30 4895 C 452.782 5.90943 -0.232426 0
M  V30 4896 H 451.712 0.743043 0.128075 0
M  V30 4897 H 454.363 1.79341 -0.388464 0
M  V30 4898 H 452.745 3.69532 1.42346 0
M  V30 4899 H 453.919 4.40718 -1.34551 0
M  V30 4900 H 452.234 4.02585 -1.06369 0
M  V30 4901 H 454.831 5.13626 1.48635 0
M  V30 4902 H 455.174 3.56057 2.15707 0
M  V30 4903 H 455.707 3.94612 0.502621 0
M  V30 4904 H 452.446 6.45567 -1.13683 0
M  V30 4905 H 451.966 5.9765 0.507357 0
M  V30 4906 H 453.645 6.4677 0.172657 0
M  V30 4907 N 453.777 0.010035 1.57597 0
M  V30 4908 C 455.188 -0.531426 1.78977 0
M  V30 4909 C 455.539 -1.73375 0.918454 0
M  V30 4910 O 454.664 -2.16047 0.123635 0
M  V30 4911 C 455.259 -0.97086 3.24592 0
M  V30 4912 C 453.818 -1.45756 3.47033 0
M  V30 4913 C 452.965 -0.413384 2.74201 0
M  V30 4914 H 455.916 0.236166 1.56933 0
M  V30 4915 H 455.937 -1.83633 3.33255 0
M  V30 4916 H 455.449 -0.0955893 3.87982 0
M  V30 4917 H 453.55 -2.35339 2.88871 0
M  V30 4918 H 453.663 -1.4781 4.55729 0
M  V30 4919 H 452.027 -0.877266 2.39115 0
M  V30 4920 H 452.81 0.453092 3.40297 0
M  V30 4921 N 455.255 -1.55392 -0.262866 0
M  V30 4922 C 456.202 -1.88966 -1.32516 0
M  V30 4923 C 457.172 -0.742187 -1.48596 0
M  V30 4924 O 458.357 -0.99439 -1.62839 0
M  V30 4925 C 455.497 -2.17592 -2.67858 0
M  V30 4926 C 454.61 -3.45061 -2.59917 0
M  V30 4927 C 453.745 -3.63336 -3.87505 0
M  V30 4928 C 452.784 -4.84462 -3.74116 0
M  V30 4929 N 451.921 -4.99342 -4.93561 0
M  V30 4930 H 456.761 -2.79566 -1.03184 0
M  V30 4931 H 454.298 -1.38404 -0.498285 0
M  V30 4932 H 456.256 -2.3219 -3.46617 0
M  V30 4933 H 454.886 -1.30215 -2.95371 0
M  V30 4934 H 453.938 -3.38881 -1.72812 0
M  V30 4935 H 455.25 -4.3396 -2.45926 0
M  V30 4936 H 454.404 -3.77807 -4.74707 0
M  V30 4937 H 453.143 -2.72641 -4.04374 0
M  V30 4938 H 452.148 -4.69985 -2.85297 0
M  V30 4939 H 453.373 -5.76603 -3.58757 0
M  V30 4940 H 451.319 -4.1158 -5.10821 0
M  V30 4941 H 451.236 -5.82303 -4.82141 0
M  V30 4942 H 452.504 -5.18208 -5.82306 0
M  V30 4943 N 456.733 0.527833 -1.48498 0
M  V30 4944 C 457.681 1.65313 -1.63628 0
M  V30 4945 C 458.675 1.6177 -0.502676 0
M  V30 4946 O 459.881 1.66601 -0.681469 0
M  V30 4947 H 456.256 0.547518 -0.515488 0
M  V30 4948 H 458.227 1.49696 -2.58135 0
M  V30 4949 C 456.976 3.03576 -1.6952 0
M  V30 4950 H 456.299 3.06997 -2.56111 0
M  V30 4951 H 457.739 3.81923 -1.84149 0
M  V30 4952 C 456.198 3.34089 -0.43432 0
M  V30 4953 O 456.728 3.99151 0.451852 0
M  V30 4954 N 454.934 2.88991 -0.305368 0
M  V30 4955 H 454.481 2.36222 -1.02747 0
M  V30 4956 H 454.439 3.09776 0.537249 0
M  V30 4957 N 458.211 1.37122 0.776871 0
M  V30 4958 C 459.46 1.31373 1.53049 0
M  V30 4959 C 459.773 -0.101016 1.95339 0
M  V30 4960 O 460.979 -0.280953 2.70042 0
M  V30 4961 C 459.435 2.30567 2.76346 0
M  V30 4962 C 459.043 3.77543 2.41175 0
M  V30 4963 C 460.787 2.33818 3.54301 0
M  V30 4964 C 458.694 4.68481 3.60943 0
M  V30 4965 H 457.624 0.488234 0.574581 0
M  V30 4966 H 460.275 1.62554 0.851372 0
M  V30 4967 H 458.657 1.92396 3.46121 0
M  V30 4968 H 459.831 4.24521 1.79216 0
M  V30 4969 H 458.146 3.77187 1.76405 0
M  V30 4970 H 460.743 2.98965 4.4331 0
M  V30 4971 H 461.086 1.3503 3.93793 0
M  V30 4972 H 461.619 2.7067 2.91518 0
M  V30 4973 H 458.358 5.68378 3.26537 0
M  V30 4974 H 457.878 4.2621 4.22025 0
M  V30 4975 H 459.557 4.85366 4.27819 0
M  V30 4976 N 459.689 -1.00246 1.21608 0
M  V30 4977 C 460.619 -2.10921 1.00172 0
M  V30 4978 C 461.6 -1.69938 -0.0741587 0
M  V30 4979 O 462.785 -1.94009 0.0861753 0
M  V30 4980 C 459.915 -3.42618 0.568355 0
M  V30 4981 C 458.869 -3.97407 1.58909 0
M  V30 4982 C 458.195 -5.25038 1.01187 0
M  V30 4983 C 459.495 -4.2918 2.97661 0
M  V30 4984 H 461.189 -2.29112 1.92739 0
M  V30 4985 H 458.735 -1.10101 0.928102 0
M  V30 4986 H 460.688 -4.19444 0.405555 0
M  V30 4987 H 459.412 -3.24227 -0.392961 0
M  V30 4988 H 458.071 -3.22703 1.73949 0
M  V30 4989 H 457.719 -5.02982 0.0421965 0
M  V30 4990 H 457.419 -5.62661 1.6937 0
M  V30 4991 H 458.943 -6.04507 0.860448 0
M  V30 4992 H 460.357 -4.96839 2.86049 0
M  V30 4993 H 458.754 -4.77952 3.6288 0
M  V30 4994 H 459.824 -3.3735 3.48315 0
M  V30 4995 N 461.167 -1.02423 -1.1978 0
M  V30 4996 C 462.414 -0.717988 -1.89344 0
M  V30 4997 C 462.742 0.753036 -1.79331 0
M  V30 4998 O 461.997 1.56355 -1.17692 0
M  V30 4999 C 462.296 -1.1088 -3.39765 0
M  V30 5000 C 461.962 -2.57731 -3.6998 0
M  V30 5001 C 460.624 -2.97854 -3.77937 0
M  V30 5002 C 462.976 -3.52763 -3.83677 0
M  V30 5003 C 460.304 -4.31931 -3.97054 0
M  V30 5004 C 462.656 -4.86538 -4.04306 0
M  V30 5005 C 461.32 -5.26356 -4.10494 0
M  V30 5006 H 460.59 -0.26273 -0.692859 0
M  V30 5007 H 463.237 -1.28623 -1.41875 0
M  V30 5008 H 461.542 -0.459094 -3.89101 0
M  V30 5009 H 463.239 -0.849432 -3.919 0
M  V30 5010 H 459.829 -2.25646 -3.64393 0
M  V30 5011 H 464.013 -3.2292 -3.76877 0
M  V30 5012 H 459.269 -4.62324 -4.00083 0
M  V30 5013 H 463.443 -5.60093 -4.13846 0
M  V30 5014 H 461.07 -6.3026 -4.2506 0
M  V30 5015 N 462.645 1.35699 -0.801477 0
M  V30 5016 C 463.891 1.99208 -0.380022 0
M  V30 5017 C 464.224 1.63445 1.04878 0
M  V30 5018 O 463.499 0.895223 1.72673 0
M  V30 5019 C 463.782 3.55755 -0.557708 0
M  V30 5020 C 463.635 4.01332 -2.03107 0
M  V30 5021 C 464.954 4.40096 0.0197968 0
M  V30 5022 H 462.073 0.723667 -0.139552 0
M  V30 5023 H 464.715 1.60928 -1.01006 0
M  V30 5024 H 462.865 3.88494 -0.0213741 0
M  V30 5025 H 464.537 3.79026 -2.62939 0
M  V30 5026 H 462.78 3.52429 -2.52936 0
M  V30 5027 H 463.451 5.10234 -2.1063 0
M  V30 5028 H 465.927 4.13786 -0.438179 0
M  V30 5029 H 464.803 5.48735 -0.134477 0
M  V30 5030 H 465.064 4.2786 1.11303 0
M  V30 5031 N 464.123 0.554532 1.47522 0
M  V30 5032 C 465.372 0.0273458 2.01681 0
M  V30 5033 C 465.685 -1.32962 1.43459 0
M  V30 5034 O 466.891 -1.94657 1.89265 0
M  V30 5035 C 465.347 -0.00159057 3.599 0
M  V30 5036 C 464.955 1.35197 4.27113 0
M  V30 5037 C 466.699 -0.476311 4.21819 0
M  V30 5038 C 464.606 1.28229 5.77331 0
M  V30 5039 H 463.536 0.00645269 0.753972 0
M  V30 5040 H 466.187 0.701985 1.69542 0
M  V30 5041 H 464.569 -0.741821 3.8899 0
M  V30 5042 H 465.743 2.1097 4.09668 0
M  V30 5043 H 464.058 1.76441 3.77171 0
M  V30 5044 H 466.655 -0.5468 5.31897 0
M  V30 5045 H 466.998 -1.4877 3.8881 0
M  V30 5046 H 467.531 0.20898 3.97251 0
M  V30 5047 H 464.27 2.26959 6.14955 0
M  V30 5048 H 463.79 0.566314 5.97121 0
M  V30 5049 H 465.469 0.983226 6.39485 0
M  V30 5050 N 465.601 -1.54893 0.290851 0
M  V30 5051 C 466.878 -1.91991 -0.373989 0
M  V30 5052 C 467.258 -1.21694 -1.72493 0
M  V30 5053 O 466.606 -0.34917 -2.25816 0
M  V30 5054 C 466.816 -3.45419 -0.498703 0
M  V30 5055 C 468.164 -4.1748 -0.774298 0
M  V30 5056 O 469.188 -3.51398 -0.582908 0
M  V30 5057 O 468.047 -5.3445 -1.14129 0
M  V30 5058 H 465.141 -0.800593 -0.207315 0
M  V30 5059 H 467.687 -1.66297 0.338164 0
M  V30 5060 H 466.459 -3.88688 0.451392 0
M  V30 5061 H 466.082 -3.77117 -1.25972 0
M  V30 5062 N 467.08 -0.0183926 -1.57589 0
M  V30 5063 C 468.326 0.663543 -1.91638 0
M  V30 5064 C 468.659 1.72392 -0.894134 0
M  V30 5065 O 467.934 1.94316 0.0846449 0
M  V30 5066 C 468.217 1.28984 -3.36207 0
M  V30 5067 C 468.07 0.239761 -4.49161 0
M  V30 5068 C 469.389 2.2109 -3.80536 0
M  V30 5069 H 466.508 0.239746 -0.696915 0
M  V30 5070 H 469.15 -0.073456 -1.89858 0
M  V30 5071 H 467.3 1.91799 -3.37854 0
M  V30 5072 H 468.972 -0.390119 -4.59647 0
M  V30 5073 H 467.215 -0.435972 -4.31604 0
M  V30 5074 H 467.886 0.717383 -5.47319 0
M  V30 5075 H 470.362 1.68273 -3.80557 0
M  V30 5076 H 469.238 2.61869 -4.82406 0
M  V30 5077 H 469.499 3.09764 -3.15434 0
M  V30 5078 N 468.558 1.5553 0.254621 0
M  V30 5079 C 469.783 1.81383 1.00573 0
M  V30 5080 C 470.208 0.594419 1.78461 0
M  V30 5081 O 469.566 -0.456403 1.75461 0
M  V30 5082 C 469.614 3.04892 1.92545 0
M  V30 5083 O 468.718 2.81266 3.01601 0
M  V30 5084 H 468.059 0.598969 0.286587 0
M  V30 5085 H 470.589 2.02703 0.277952 0
M  V30 5086 H 470.599 3.34119 2.34155 0
M  V30 5087 H 469.274 3.93287 1.3527 0
M  V30 5088 H 467.851 2.63185 2.64174 0
M  V30 5089 N 470.036 -0.519951 1.48776 0
M  V30 5090 C 471.284 -1.2727 1.56993 0
M  V30 5091 C 471.605 -1.9339 0.25004 0
M  V30 5092 O 470.875 -1.81822 -0.729216 0
M  V30 5093 H 469.455 -0.472732 0.578389 0
M  V30 5094 H 472.117 -0.604234 1.85297 0
M  V30 5095 H 471.213 -2.04669 2.3562 0
M  V30 5096 N 471.514 -1.37532 -0.769588 0
M  V30 5097 C 472.739 -1.36231 -1.56384 0
M  V30 5098 C 473.164 0.0495849 -1.88035 0
M  V30 5099 O 472.522 1.02723 -1.49391 0
M  V30 5100 C 472.57 -2.20986 -2.84952 0
M  V30 5101 O 471.674 -1.61597 -3.79421 0
M  V30 5102 H 471.015 -0.465387 -0.473615 0
M  V30 5103 H 473.545 -1.81085 -0.952342 0
M  V30 5104 H 473.555 -2.34277 -3.34034 0
M  V30 5105 H 472.23 -3.23612 -2.61243 0
M  V30 5106 H 470.807 -1.57359 -3.38072 0
M  V30 5107 N 472.992 0.995999 -1.22138 0
M  V30 5108 C 473.925 2.08302 -0.931952 0
M  V30 5109 C 474.903 1.62127 0.123956 0
M  V30 5110 O 476.087 1.88499 -0.00696004 0
M  V30 5111 C 473.214 3.36317 -0.401068 0
M  V30 5112 C 472.26 4.01413 -1.44117 0
M  V30 5113 S 473.093 4.42664 -3.01345 0
M  V30 5114 C 474.249 5.73853 -2.49887 0
M  V30 5115 H 474.482 2.32532 -1.85246 0
M  V30 5116 H 472.015 1.13005 -1.0521 0
M  V30 5117 H 473.973 4.10375 -0.101352 0
M  V30 5118 H 472.634 3.10123 0.498272 0
M  V30 5119 H 471.827 4.9358 -1.01952 0
M  V30 5120 H 471.429 3.33668 -1.68943 0
M  V30 5121 H 473.721 6.50039 -1.90934 0
M  V30 5122 H 474.664 6.20841 -3.40532 0
M  V30 5123 H 475.072 5.31105 -1.9128 0
M  V30 5124 N 474.47 1.03057 1.19235 0
M  V30 5125 C 475.716 0.738841 1.89506 0
M  V30 5126 C 476.071 -0.724807 1.78225 0
M  V30 5127 O 475.364 -1.52118 1.16494 0
M  V30 5128 C 475.558 1.1268 3.39172 0
M  V30 5129 C 475.387 2.62662 3.65019 0
M  V30 5130 C 474.157 3.29658 3.82954 0
M  V30 5131 C 476.355 3.60873 3.66436 0
M  V30 5132 N 474.337 4.68726 3.96446 0
M  V30 5133 C 475.708 4.85566 3.8552 0
M  V30 5134 C 477.763 3.54647 3.49471 0
M  V30 5135 C 476.466 6.04783 3.89397 0
M  V30 5136 C 478.492 4.73281 3.54625 0
M  V30 5137 C 477.854 5.96789 3.74196 0
M  V30 5138 H 473.953 0.322256 0.712513 0
M  V30 5139 H 476.537 1.31822 1.43287 0
M  V30 5140 H 474.708 0.575612 3.84111 0
M  V30 5141 H 476.44 0.787145 3.96971 0
M  V30 5142 H 473.195 2.8007 3.81913 0
M  V30 5143 H 473.619 5.40971 4.07037 0
M  V30 5144 H 478.261 2.60143 3.33295 0
M  V30 5145 H 475.979 6.99654 4.04364 0
M  V30 5146 H 479.565 4.70094 3.42787 0
M  V30 5147 H 478.445 6.87051 3.78061 0
M  V30 5148 N 475.948 -1.35272 0.808662 0
M  V30 5149 C 477.196 -1.98316 0.389233 0
M  V30 5150 C 477.517 -1.64465 -1.04767 0
M  V30 5151 O 476.787 -0.928175 -1.72516 0
M  V30 5152 H 475.367 -0.733585 0.140935 0
M  V30 5153 H 478.029 -1.6515 1.03496 0
M  V30 5154 H 477.125 -3.08123 0.496631 0
M  V30 5155 N 477.426 -0.562348 -1.47226 0
M  V30 5156 C 478.672 -0.0402761 -2.0276 0
M  V30 5157 C 479.005 1.30823 -1.43523 0
M  V30 5158 O 478.28 1.85249 -0.592705 0
M  V30 5159 C 478.563 0.047311 -3.60069 0
M  V30 5160 C 478.416 -1.32865 -4.29729 0
M  V30 5161 C 479.735 0.758182 -4.3352 0
M  V30 5162 H 476.854 -0.0161105 -0.736824 0
M  V30 5163 H 479.496 -0.725628 -1.75598 0
M  V30 5164 H 477.646 0.630986 -3.83342 0
M  V30 5165 H 479.318 -1.95593 -4.17781 0
M  V30 5166 H 477.561 -1.90195 -3.89882 0
M  V30 5167 H 478.232 -1.22004 -5.38349 0
M  V30 5168 H 480.708 0.262546 -4.15271 0
M  V30 5169 H 479.584 0.78844 -5.43208 0
M  V30 5170 H 479.845 1.81537 -4.03109 0
M  V30 5171 N 478.904 1.54736 -0.299062 0
M  V30 5172 C 479.851 2.23448 0.577899 0
M  V30 5173 C 480.821 1.21637 1.13109 0
M  V30 5174 O 482.006 1.50252 1.17597 0
M  V30 5175 C 479.146 2.9774 1.74484 0
M  V30 5176 C 478.259 4.1432 1.22323 0
M  V30 5177 C 477.394 4.76199 2.35388 0
M  V30 5178 C 476.433 5.84927 1.80351 0
M  V30 5179 N 475.57 6.4077 2.86982 0
M  V30 5180 H 480.41 2.97996 -0.0146545 0
M  V30 5181 H 477.947 1.47088 -0.0190013 0
M  V30 5182 H 479.905 3.39045 2.43114 0
M  V30 5183 H 478.535 2.25572 2.30905 0
M  V30 5184 H 477.587 3.7797 0.429249 0
M  V30 5185 H 478.899 4.92659 0.780309 0
M  V30 5186 H 478.053 5.20346 3.11969 0
M  V30 5187 H 476.792 3.97188 2.83006 0
M  V30 5188 H 475.797 5.40207 1.02259 0
M  V30 5189 H 477.022 6.65821 1.3364 0
M  V30 5190 H 474.968 5.64643 3.33938 0
M  V30 5191 H 474.885 7.1445 2.4718 0
M  V30 5192 H 476.153 6.89574 3.63466 0
M  V30 5193 N 480.382 0.0267497 1.57577 0
M  V30 5194 C 481.315 -0.99059 2.05579 0
M  V30 5195 C 482.293 -1.31884 0.951065 0
M  V30 5196 O 483.477 -1.43592 1.22121 0
M  V30 5197 C 480.604 -2.31125 2.47586 0
M  V30 5198 C 479.65 -2.13777 3.69055 0
M  V30 5199 S 480.483 -1.4388 5.15809 0
M  V30 5200 C 481.639 -2.77321 5.6111 0
M  V30 5201 H 481.872 -0.581976 2.91548 0
M  V30 5202 H 479.405 -0.184876 1.53289 0
M  V30 5203 H 481.363 -3.07049 2.72454 0
M  V30 5204 H 480.024 -2.6912 1.61967 0
M  V30 5205 H 479.217 -3.11405 3.96287 0
M  V30 5206 H 478.819 -1.45996 3.44327 0
M  V30 5207 H 481.111 -3.73565 5.65204 0
M  V30 5208 H 482.054 -2.54756 6.60685 0
M  V30 5209 H 482.462 -2.82459 4.88751 0
M  V30 5210 N 481.861 -1.55662 -0.24637 0
M  V30 5211 C 482.808 -1.90361 -1.30504 0
M  V30 5212 C 483.778 -0.757905 -1.47801 0
M  V30 5213 O 484.963 -1.01161 -1.61775 0
M  V30 5214 C 482.103 -2.2042 -2.65535 0
M  V30 5215 C 481.216 -3.47799 -2.56242 0
M  V30 5216 C 480.351 -3.67426 -3.8363 0
M  V30 5217 C 479.39 -4.88403 -3.68956 0
M  V30 5218 N 478.527 -5.04548 -4.88237 0
M  V30 5219 H 483.367 -2.80645 -1.00213 0
M  V30 5220 H 480.904 -1.38924 -0.483577 0
M  V30 5221 H 482.862 -2.35853 -3.44135 0
M  V30 5222 H 481.492 -1.3334 -2.93973 0
M  V30 5223 H 480.544 -3.40694 -1.69208 0
M  V30 5224 H 481.856 -4.36544 -2.4131 0
M  V30 5225 H 481.01 -3.82821 -4.70673 0
M  V30 5226 H 479.749 -2.76914 -4.01459 0
M  V30 5227 H 478.754 -4.72984 -2.80296 0
M  V30 5228 H 479.979 -5.80375 -3.52621 0
M  V30 5229 H 477.925 -4.16974 -5.06427 0
M  V30 5230 H 477.842 -5.87384 -4.75937 0
M  V30 5231 H 479.11 -5.24355 -5.76777 0
M  V30 5232 N 483.339 0.512053 -1.4905 0
M  V30 5233 C 484.271 1.63121 -1.6101 0
M  V30 5234 C 485.284 1.55145 -0.493352 0
M  V30 5235 O 486.473 1.61278 -0.764955 0
M  V30 5236 C 483.573 3.01863 -1.54052 0
M  V30 5237 C 482.746 3.35138 -2.81072 0
M  V30 5238 C 481.805 4.5324 -2.67319 0
M  V30 5239 O 480.831 4.55571 -3.41238 0
M  V30 5240 N 482.033 5.52495 -1.78127 0
M  V30 5241 H 484.798 1.53292 -2.5753 0
M  V30 5242 H 482.359 0.699706 -1.45999 0
M  V30 5243 H 484.351 3.78774 -1.42521 0
M  V30 5244 H 482.921 3.05675 -0.654345 0
M  V30 5245 H 482.141 2.4723 -3.07036 0
M  V30 5246 H 483.429 3.54162 -3.65304 0
M  V30 5247 H 482.827 5.53403 -1.17308 0
M  V30 5248 H 481.384 6.28553 -1.72525 0
M  V30 5249 N 484.817 1.37938 0.762283 0
M  V30 5250 C 486.045 1.36883 1.55147 0
M  V30 5251 C 486.46 -0.0435348 1.8875 0
M  V30 5252 O 485.817 -1.00786 1.52146 0
M  V30 5253 C 485.868 2.21624 2.85596 0
M  V30 5254 O 485.589 3.57358 2.5343 0
M  V30 5255 C 487.09 2.28653 3.7978 0
M  V30 5256 H 484.31 0.468521 0.480343 0
M  V30 5257 H 486.854 1.81404 0.944079 0
M  V30 5258 H 485.009 1.80588 3.42734 0
M  V30 5259 H 485.423 4.01883 3.37032 0
M  V30 5260 H 486.897 2.9225 4.68288 0
M  V30 5261 H 487.374 1.29767 4.19592 0
M  V30 5262 H 487.98 2.70043 3.28568 0
M  V30 5263 N 486.295 -0.989507 1.22664 0
M  V30 5264 C 487.541 -1.7321 1.05481 0
M  V30 5265 C 487.874 -1.89852 -0.408635 0
M  V30 5266 O 487.149 -1.44416 -1.30285 0
M  V30 5267 C 487.432 -3.1357 1.77047 0
M  V30 5268 C 487.285 -3.04555 3.31008 0
M  V30 5269 C 488.604 -4.12812 1.5256 0
M  V30 5270 H 485.723 -0.628697 0.384589 0
M  V30 5271 H 488.365 -1.15258 1.51049 0
M  V30 5272 H 486.515 -3.63046 1.3831 0
M  V30 5273 H 488.187 -2.62674 3.7921 0
M  V30 5274 H 486.43 -2.41278 3.6051 0
M  V30 5275 H 487.101 -4.03894 3.76263 0
M  V30 5276 H 489.577 -3.72106 1.86215 0
M  V30 5277 H 488.453 -5.09132 2.05124 0
M  V30 5278 H 488.714 -4.39711 0.458936 0
M  V30 5279 N 487.773 -1.03688 -1.18687 0
M  V30 5280 C 488.683 -0.634908 -2.25845 0
M  V30 5281 C 489.699 0.337065 -1.70704 0
M  V30 5282 O 490.875 0.192943 -2.00474 0
M  V30 5283 C 487.94 -0.000180054 -3.467 0
M  V30 5284 C 487.001 -1.02067 -4.1699 0
M  V30 5285 C 486.234 -0.41614 -5.32075 0
M  V30 5286 O 486.457 0.778712 -5.65059 0
M  V30 5287 O 485.391 -1.14296 -5.90948 0
M  V30 5288 H 489.217 -1.52757 -2.62486 0
M  V30 5289 H 486.802 -0.807533 -1.25695 0
M  V30 5290 H 488.684 0.353342 -4.19916 0
M  V30 5291 H 487.359 0.866367 -3.11891 0
M  V30 5292 H 486.266 -1.42592 -3.45859 0
M  V30 5293 H 487.599 -1.85786 -4.5579 0
M  V30 5294 N 489.251 1.34841 -0.815825 0
M  V30 5295 C 490.214 2.27959 -0.238185 0
M  V30 5296 C 491.214 1.49983 0.579816 0
M  V30 5297 O 492.404 1.69617 0.396953 0
M  V30 5298 C 489.536 3.34314 0.666876 0
M  V30 5299 H 490.729 2.80558 -1.05958 0
M  V30 5300 H 488.282 1.44852 -0.587156 0
M  V30 5301 H 489.017 2.86916 1.5116 0
M  V30 5302 H 488.802 3.92014 0.0819106 0
M  V30 5303 H 490.292 4.0379 1.06506 0
M  V30 5304 N 490.729 0.570148 1.46925 0
M  V30 5305 C 491.662 -0.218362 2.27153 0
M  V30 5306 C 492.64 -0.90847 1.34854 0
M  V30 5307 O 493.824 -0.924875 1.64251 0
M  V30 5308 C 490.951 -1.3122 3.12248 0
M  V30 5309 C 489.997 -0.729277 4.20219 0
M  V30 5310 S 490.83 0.434159 5.33737 0
M  V30 5311 C 491.986 -0.661188 6.22398 0
M  V30 5312 H 492.219 0.462393 2.93682 0
M  V30 5313 H 489.752 0.356753 1.50222 0
M  V30 5314 H 491.71 -1.93856 3.61842 0
M  V30 5315 H 490.371 -1.96485 2.45056 0
M  V30 5316 H 489.564 -1.5511 4.79538 0
M  V30 5317 H 489.166 -0.178836 3.73572 0
M  V30 5318 H 491.458 -1.55006 6.5953 0
M  V30 5319 H 492.401 -0.105046 7.08022 0
M  V30 5320 H 492.809 -0.959682 5.56283 0
M  V30 5321 N 492.207 -1.54576 0.307264 0
M  V30 5322 C 493.154 -2.23751 -0.56604 0
M  V30 5323 C 494.124 -1.22235 -1.12462 0
M  V30 5324 O 495.309 -1.50873 -1.16799 0
M  V30 5325 C 492.449 -2.98661 -1.72903 0
M  V30 5326 C 491.562 -4.14963 -1.20124 0
M  V30 5327 C 490.697 -4.77441 -2.3286 0
M  V30 5328 C 489.736 -5.85875 -1.77247 0
M  V30 5329 N 488.873 -6.42282 -2.8358 0
M  V30 5330 H 493.713 -2.97984 0.0304578 0
M  V30 5331 H 491.25 -1.47076 0.0268015 0
M  V30 5332 H 493.208 -3.40329 -2.41313 0
M  V30 5333 H 491.838 -2.26793 -2.29706 0
M  V30 5334 H 490.89 -3.78193 -0.409198 0
M  V30 5335 H 492.202 -4.93066 -0.754171 0
M  V30 5336 H 491.356 -5.21993 -3.09205 0
M  V30 5337 H 490.095 -3.98684 -2.80896 0
M  V30 5338 H 489.1 -5.40741 -0.993926 0
M  V30 5339 H 490.325 -6.6652 -1.30107 0
M  V30 5340 H 488.271 -5.66406 -3.30939 0
M  V30 5341 H 488.188 -7.1575 -2.43388 0
M  V30 5342 H 489.456 -6.91492 -3.59804 0
M  V30 5343 N 493.685 -0.035106 -1.57561 0
M  V30 5344 C 494.913 0.652258 -1.9635 0
M  V30 5345 C 495.328 1.65317 -0.911897 0
M  V30 5346 O 494.685 1.82194 0.105657 0
M  V30 5347 C 494.736 1.35337 -3.35211 0
M  V30 5348 O 494.457 0.392548 -4.36338 0
M  V30 5349 C 495.958 2.13199 -3.88666 0
M  V30 5350 H 493.178 0.179444 -0.646561 0
M  V30 5351 H 495.722 -0.0966459 -2.04271 0
M  V30 5352 H 493.877 2.05362 -3.28489 0
M  V30 5353 H 494.291 0.891097 -5.16875 0
M  V30 5354 H 495.765 2.577 -4.88154 0
M  V30 5355 H 496.242 2.97353 -3.23231 0
M  V30 5356 H 496.848 1.48118 -3.98674 0
M  V30 5357 N 495.163 1.55791 0.238111 0
M  V30 5358 C 496.412 1.77234 0.962868 0
M  V30 5359 C 496.725 0.600661 1.86149 0
M  V30 5360 O 497.931 0.698315 2.62366 0
M  V30 5361 C 496.387 3.13808 1.76218 0
M  V30 5362 C 495.995 4.3865 0.910518 0
M  V30 5363 C 497.739 3.44585 2.47914 0
M  V30 5364 C 495.646 5.66252 1.70623 0
M  V30 5365 H 494.576 0.660731 0.36325 0
M  V30 5366 H 497.227 1.8221 0.217242 0
M  V30 5367 H 495.609 3.02963 2.55009 0
M  V30 5368 H 496.783 4.60507 0.164316 0
M  V30 5369 H 495.098 4.15271 0.30647 0
M  V30 5370 H 497.695 4.3714 3.07917 0
M  V30 5371 H 498.038 2.66314 3.19973 0
M  V30 5372 H 498.571 3.56685 1.76127 0
M  V30 5373 H 495.31 6.47369 1.02923 0
M  V30 5374 H 494.83 5.48483 2.42748 0
M  V30 5375 H 496.509 6.05829 2.27114 0
M  V30 5376 N 496.642 -0.504142 1.49319 0
M  V30 5377 C 497.572 -1.61473 1.68667 0
M  V30 5378 C 498.553 -1.61455 0.535378 0
M  V30 5379 O 499.738 -1.78245 0.770868 0
M  V30 5380 C 496.868 -2.99971 1.75028 0
M  V30 5381 C 495.822 -3.14854 2.89916 0
M  V30 5382 C 495.148 -4.54671 2.81387 0
M  V30 5383 C 496.448 -2.95176 4.30893 0
M  V30 5384 H 498.142 -1.45535 2.61648 0
M  V30 5385 H 495.688 -0.698711 1.25913 0
M  V30 5386 H 497.641 -3.77562 1.8715 0
M  V30 5387 H 496.365 -3.1699 0.786441 0
M  V30 5388 H 495.024 -2.39687 2.77391 0
M  V30 5389 H 494.672 -4.68562 1.82917 0
M  V30 5390 H 494.372 -4.6557 3.58494 0
M  V30 5391 H 495.896 -5.34327 2.95512 0
M  V30 5392 H 497.31 -3.62538 4.44116 0
M  V30 5393 H 495.707 -3.17549 5.09198 0
M  V30 5394 H 496.777 -1.91332 4.45556 0
M  V30 5395 N 498.12 -1.38341 -0.754957 0
M  V30 5396 C 499.397 -1.24995 -1.50451 0
M  V30 5397 C 499.777 0.149244 -2.10572 0
M  V30 5398 O 499.125 1.15861 -1.96948 0
M  V30 5399 C 499.335 -2.35904 -2.57197 0
M  V30 5400 C 500.683 -2.74262 -3.24138 0
M  V30 5401 O 501.707 -2.35205 -2.67501 0
M  V30 5402 O 500.566 -3.4161 -4.26574 0
M  V30 5403 H 497.66 -0.48872 -0.667144 0
M  V30 5404 H 500.206 -1.50165 -0.790486 0
M  V30 5405 H 498.978 -3.2953 -2.11011 0
M  V30 5406 H 498.601 -2.12291 -3.36182 0
M  V30 5407 N 499.598 0.982988 -1.23187 0
M  V30 5408 C 500.875 1.69814 -0.970707 0
M  V30 5409 C 501.255 2.04811 0.511424 0
M  V30 5410 O 500.603 1.73924 1.48198 0
M  V30 5411 C 500.813 2.94143 -1.87831 0
M  V30 5412 C 502.161 3.66712 -2.14026 0
M  V30 5413 O 503.185 3.04171 -1.8536 0
M  V30 5414 O 502.044 4.79258 -2.62629 0
M  V30 5415 H 499.138 0.741659 -0.365884 0
M  V30 5416 H 501.684 1.03844 -1.34218 0
M  V30 5417 H 500.456 2.64858 -2.88038 0
M  V30 5418 H 500.079 3.6785 -1.50905 0
M  V30 5419 N 501.076 1.04316 1.18135 0
M  V30 5420 C 502.006 0.657299 2.24058 0
M  V30 5421 C 502.987 -0.340678 1.66654 0
M  V30 5422 O 504.172 -0.220223 1.92947 0
M  V30 5423 C 501.302 0.0220715 3.47293 0
M  V30 5424 C 500.256 0.943857 4.17463 0
M  V30 5425 C 499.582 0.172973 5.3442 0
M  V30 5426 C 500.882 2.26409 4.70677 0
M  V30 5427 H 502.576 1.5428 2.56589 0
M  V30 5428 H 500.122 0.743263 1.23335 0
M  V30 5429 H 502.075 -0.259607 4.206 0
M  V30 5430 H 500.799 -0.898323 3.14003 0
M  V30 5431 H 499.458 1.20996 3.46057 0
M  V30 5432 H 499.106 -0.749907 4.97379 0
M  V30 5433 H 498.806 0.787098 5.82304 0
M  V30 5434 H 500.33 -0.101628 6.10515 0
M  V30 5435 H 501.744 2.04294 5.35665 0
M  V30 5436 H 500.141 2.8314 5.29105 0
M  V30 5437 H 501.211 2.90883 3.87962 0
M  V30 5438 N 502.554 -1.34406 0.822964 0
M  V30 5439 C 503.97 -1.51275 0.508727 0
M  V30 5440 C 504.17 -1.76776 -0.967083 0
M  V30 5441 O 503.226 -1.81871 -1.75155 0
M  V30 5442 C 504.539 -2.67765 1.36829 0
M  V30 5443 C 506.087 -2.81647 1.36542 0
M  V30 5444 C 506.562 -4.01181 2.20947 0
M  V30 5445 N 508.053 -4.08388 2.18571 0
M  V30 5446 C 508.788 -5.00036 2.80627 0
M  V30 5447 N 508.284 -5.96906 3.51674 0
M  V30 5448 N 510.077 -4.92908 2.70181 0
M  V30 5449 H 502.228 -1.16113 1.77852 0
M  V30 5450 H 504.491 -0.56947 0.757897 0
M  V30 5451 H 504.197 -2.55551 2.41633 0
M  V30 5452 H 504.071 -3.62779 1.03303 0
M  V30 5453 H 506.458 -2.93303 0.325163 0
M  V30 5454 H 506.539 -1.87443 1.74066 0
M  V30 5455 H 506.183 -3.90286 3.25022 0
M  V30 5456 H 506.113 -4.94599 1.80774 0
M  V30 5457 H 508.604 -3.39051 1.66891 0
M  V30 5458 H 508.917 -6.63468 3.96271 0
M  V30 5459 H 507.262 -5.9703 3.5578 0
M  V30 5460 H 510.453 -4.1619 2.14251 0
M  V30 5461 H 510.626 -5.64137 3.18831 0
M  V30 5462 N 504.032 -0.577932 -1.46621 0
M  V30 5463 C 504.995 0.147805 -2.28723 0
M  V30 5464 C 505.995 0.823325 -1.38123 0
M  V30 5465 O 507.185 0.676011 -1.60548 0
M  V30 5466 C 504.317 1.21853 -3.18378 0
M  V30 5467 H 505.51 -0.573654 -2.94362 0
M  V30 5468 H 503.063 -0.335703 -1.52652 0
M  V30 5469 H 503.798 1.97173 -2.57475 0
M  V30 5470 H 503.583 0.738714 -3.85078 0
M  V30 5471 H 505.073 1.72768 -3.80186 0
M  V30 5472 N 505.51 1.54411 -0.315457 0
M  V30 5473 C 506.42 2.27737 0.56329 0
M  V30 5474 C 507.436 1.31787 1.13614 0
M  V30 5475 O 508.612 1.64791 1.15784 0
M  V30 5476 C 505.677 3.01478 1.71207 0
M  V30 5477 C 504.738 4.12997 1.17185 0
M  V30 5478 C 503.971 4.83212 2.26588 0
M  V30 5479 O 504.194 4.52884 3.46775 0
M  V30 5480 O 503.128 5.70299 1.92463 0
M  V30 5481 H 506.954 3.03683 -0.0319614 0
M  V30 5482 H 504.539 1.49178 -0.0814188 0
M  V30 5483 H 506.421 3.47683 2.38106 0
M  V30 5484 H 505.096 2.28414 2.29366 0
M  V30 5485 H 504.003 3.71159 0.468174 0
M  V30 5486 H 505.336 4.8808 0.635501 0
M  V30 5487 N 506.988 0.0434614 1.5754 0
M  V30 5488 C 508.265 -0.671479 1.83713 0
M  V30 5489 C 508.645 -1.89495 0.930315 0
M  V30 5490 O 507.993 -2.28498 -0.0105639 0
M  V30 5491 C 508.203 -1.0361 3.33266 0
M  V30 5492 C 509.551 -1.42167 4.00092 0
M  V30 5493 O 510.575 -1.12866 3.37846 0
M  V30 5494 O 509.434 -1.96817 5.09829 0
M  V30 5495 H 506.528 -0.330726 0.75799 0
M  V30 5496 H 509.074 0.0722373 1.69546 0
M  V30 5497 H 507.846 -0.165938 3.90948 0
M  V30 5498 H 507.469 -1.83751 3.52592 0
M  V30 5499 N 508.466 -1.55915 -0.229846 0
M  V30 5500 C 509.416 -1.8813 -1.28807 0
M  V30 5501 C 510.4 -0.743621 -1.42685 0
M  V30 5502 O 511.592 -1.00588 -1.4564 0
M  V30 5503 C 508.721 -2.19431 -2.64017 0
M  V30 5504 C 507.807 -3.39569 -2.54074 0
M  V30 5505 N 508.198 -4.58404 -2.13774 0
M  V30 5506 C 506.496 -3.43019 -2.85051 0
M  V30 5507 C 507.197 -5.40557 -2.1488 0
M  V30 5508 N 506.173 -4.80054 -2.55047 0
M  V30 5509 H 509.975 -2.77527 -0.967261 0
M  V30 5510 H 507.489 -1.5637 -0.438433 0
M  V30 5511 H 509.486 -2.40681 -3.40409 0
M  V30 5512 H 508.146 -1.31341 -2.9695 0
M  V30 5513 H 509.157 -4.83716 -1.8504 0
M  V30 5514 H 505.834 -2.65249 -3.22411 0
M  V30 5515 H 507.224 -6.45666 -1.85918 0
M  V30 5516 N 509.944 0.496216 -1.49584 0
M  V30 5517 C 511.191 1.25003 -1.59312 0
M  V30 5518 C 511.519 1.92445 -0.28198 0
M  V30 5519 O 510.774 1.81557 0.730452 0
M  V30 5520 C 511.073 2.3359 -2.705 0
M  V30 5521 C 510.739 1.83574 -4.11839 0
M  V30 5522 C 509.401 1.69653 -4.50302 0
M  V30 5523 C 511.753 1.46193 -5.00277 0
M  V30 5524 C 509.081 1.16736 -5.74969 0
M  V30 5525 C 511.433 0.947265 -6.25468 0
M  V30 5526 C 510.097 0.794485 -6.62755 0
M  V30 5527 H 509.367 0.45742 -0.582965 0
M  V30 5528 H 512.014 0.549996 -1.83432 0
M  V30 5529 H 510.319 3.09401 -2.40371 0
M  V30 5530 H 512.016 2.91627 -2.75235 0
M  V30 5531 H 508.606 1.9537 -3.81482 0
M  V30 5532 H 512.79 1.55793 -4.71214 0
M  V30 5533 H 508.046 1.03623 -6.02555 0
M  V30 5534 H 512.22 0.648846 -6.93371 0
M  V30 5535 H 509.847 0.382271 -7.59238 0
M  V30 5536 N 511.423 1.38739 0.74761 0
M  V30 5537 C 512.648 1.38702 1.54197 0
M  V30 5538 C 513.073 -0.019664 1.8809 0
M  V30 5539 O 512.431 -1.00333 1.51006 0
M  V30 5540 C 512.479 2.25492 2.814 0
M  V30 5541 O 511.583 1.67613 3.76802 0
M  V30 5542 H 510.924 0.472863 0.466151 0
M  V30 5543 H 513.454 1.82577 0.923413 0
M  V30 5544 H 513.464 2.39561 3.30264 0
M  V30 5545 H 512.139 3.27727 2.56062 0
M  V30 5546 H 510.716 1.62718 3.35526 0
M  V30 5547 N 512.901 -0.976442 1.23707 0
M  V30 5548 C 514.147 -1.72081 1.07312 0
M  V30 5549 C 514.48 -1.90275 -0.388476 0
M  V30 5550 O 513.755 -1.4579 -1.28746 0
M  V30 5551 C 514.038 -3.11675 1.80363 0
M  V30 5552 C 513.891 -3.01027 3.3422 0
M  V30 5553 C 515.21 -4.1117 1.5693 0
M  V30 5554 H 512.329 -0.624583 0.391236 0
M  V30 5555 H 514.971 -1.13649 1.52263 0
M  V30 5556 H 513.121 -3.61559 1.42153 0
M  V30 5557 H 514.793 -2.58637 3.81975 0
M  V30 5558 H 513.036 -2.3744 3.63049 0
M  V30 5559 H 513.707 -3.9988 3.80525 0
M  V30 5560 H 516.183 -3.7011 1.90151 0
M  V30 5561 H 515.059 -5.06928 2.10513 0
M  V30 5562 H 515.32 -4.392 0.505548 0
M  V30 5563 N 514.379 -1.04941 -1.1758 0
M  V30 5564 C 515.628 -0.753124 -1.87112 0
M  V30 5565 C 515.941 0.722507 -1.81767 0
M  V30 5566 O 517.147 1.13265 -2.46746 0
M  V30 5567 C 515.603 -1.29695 -3.35719 0
M  V30 5568 C 515.211 -2.80184 -3.49572 0
M  V30 5569 C 516.955 -1.07759 -4.10595 0
M  V30 5570 C 514.862 -3.2788 -4.92187 0
M  V30 5571 H 513.792 -0.278034 -0.700866 0
M  V30 5572 H 516.443 -1.26637 -1.32798 0
M  V30 5573 H 514.825 -0.711522 -3.89555 0
M  V30 5574 H 515.999 -3.44561 -3.05965 0
M  V30 5575 H 514.314 -3.00632 -2.88113 0
M  V30 5576 H 516.911 -1.40899 -5.15802 0
M  V30 5577 H 517.254 -0.0152302 -4.16297 0
M  V30 5578 H 517.787 -1.62809 -3.62957 0
M  V30 5579 H 514.526 -4.33535 -4.91658 0
M  V30 5580 H 514.046 -2.68245 -5.36475 0
M  V30 5581 H 515.725 -3.22412 -5.60945 0
M  V30 5582 N 515.857 1.33968 -0.830081 0
M  V30 5583 C 517.134 1.92554 -0.343858 0
M  V30 5584 C 517.514 1.7573 1.16971 0
M  V30 5585 O 516.862 1.14035 1.98011 0
M  V30 5586 C 517.072 3.40147 -0.781073 0
M  V30 5587 C 518.42 4.17299 -0.78402 0
M  V30 5588 O 519.444 3.48762 -0.724112 0
M  V30 5589 O 518.303 5.39631 -0.863739 0
M  V30 5590 H 515.397 0.821469 -0.0954827 0
M  V30 5591 H 517.943 1.42897 -0.915348 0
M  V30 5592 H 516.715 3.46225 -1.82329 0
M  V30 5593 H 516.338 3.97166 -0.18567 0
M  V30 5594 N 517.335 0.585699 1.46312 0
M  V30 5595 C 518.582 0.0724211 2.0237 0
M  V30 5596 C 518.91 -1.28868 1.45683 0
M  V30 5597 O 518.165 -1.85853 0.612945 0
M  V30 5598 C 518.464 -0.0401312 3.57377 0
M  V30 5599 C 518.13 1.25376 4.33119 0
M  V30 5600 C 516.792 1.60824 4.5353 0
M  V30 5601 C 519.144 2.10987 4.76586 0
M  V30 5602 C 516.472 2.81676 5.14661 0
M  V30 5603 C 518.824 3.31068 5.39052 0
M  V30 5604 C 517.488 3.66794 5.5769 0
M  V30 5605 H 516.758 0.0265007 0.740526 0
M  V30 5606 H 519.405 0.762935 1.75646 0
M  V30 5607 H 517.71 -0.813791 3.83255 0
M  V30 5608 H 519.407 -0.453078 3.98432 0
M  V30 5609 H 515.997 0.967808 4.1753 0
M  V30 5610 H 520.181 1.84904 4.60569 0
M  V30 5611 H 515.437 3.0949 5.27282 0
M  V30 5612 H 519.611 3.97672 5.71691 0
M  V30 5613 H 517.238 4.60529 6.04828 0
M  V30 5614 N 518.813 -1.54241 0.323641 0
M  V30 5615 C 519.761 -2.25813 -0.557804 0
M  V30 5616 C 520.755 -1.27225 -1.11849 0
M  V30 5617 O 521.961 -1.45001 -1.06652 0
M  V30 5618 H 518.336 -0.72532 -0.198532 0
M  V30 5619 H 520.307 -2.98322 0.0681112 0
M  V30 5620 C 519.056 -3.02913 -1.70701 0
M  V30 5621 H 518.379 -3.78593 -1.28482 0
M  V30 5622 H 519.819 -3.56238 -2.29935 0
M  V30 5623 C 518.278 -2.11217 -2.62467 0
M  V30 5624 O 518.808 -1.69508 -3.64184 0
M  V30 5625 N 517.014 -1.76704 -2.30703 0
M  V30 5626 H 516.561 -2.1082 -1.48029 0
M  V30 5627 H 516.519 -1.15631 -2.92364 0
M  V30 5628 N 520.291 -0.0518155 -1.57515 0
M  V30 5629 C 521.223 0.951542 -2.08515 0
M  V30 5630 C 522.236 1.27436 -1.01311 0
M  V30 5631 O 523.425 1.23504 -1.28876 0
M  V30 5632 C 520.525 2.27291 -2.5138 0
M  V30 5633 C 519.698 2.13191 -3.81927 0
M  V30 5634 C 518.757 3.28458 -4.11098 0
M  V30 5635 O 517.783 3.04334 -4.81009 0
M  V30 5636 N 518.985 4.52954 -3.63061 0
M  V30 5637 H 521.75 0.516242 -2.9522 0
M  V30 5638 H 519.311 0.13441 -1.61341 0
M  V30 5639 H 521.303 3.03272 -2.67971 0
M  V30 5640 H 519.873 2.62386 -1.69919 0
M  V30 5641 H 519.093 1.21798 -3.74912 0
M  V30 5642 H 520.381 2.00999 -4.67415 0
M  V30 5643 H 519.779 4.75444 -3.06545 0
M  V30 5644 H 518.336 5.26026 -3.84889 0
M  V30 5645 N 521.769 1.56035 0.221574 0
M  V30 5646 C 522.717 1.93269 1.29421 0
M  V30 5647 C 523.711 0.814727 1.48521 0
M  V30 5648 O 524.917 0.999559 1.49696 0
M  V30 5649 H 521.292 0.614188 0.43391 0
M  V30 5650 H 523.263 2.82773 0.952987 0
M  V30 5651 C 522.012 2.26573 2.63742 0
M  V30 5652 H 521.335 3.12112 2.49853 0
M  V30 5653 H 522.775 2.5651 3.37607 0
M  V30 5654 C 521.234 1.09086 3.1875 0
M  V30 5655 O 521.764 0.351985 4.00155 0
M  V30 5656 N 519.97 0.874693 2.77124 0
M  V30 5657 H 519.517 1.47726 2.11033 0
M  V30 5658 H 519.475 0.0903349 3.1427 0
M  V30 5659 N 523.247 -0.488276 1.49845 0
M  V30 5660 C 524.496 -1.23826 1.59217 0
M  V30 5661 C 524.809 -1.93439 0.289966 0
M  V30 5662 O 526.015 -2.70229 0.262382 0
M  V30 5663 C 524.471 -2.24902 2.80976 0
M  V30 5664 C 524.079 -1.6117 4.18005 0
M  V30 5665 C 525.823 -3.00648 2.99685 0
M  V30 5666 C 523.73 -2.60431 5.3097 0
M  V30 5667 H 522.66 -0.465858 0.592868 0
M  V30 5668 H 525.311 -0.510645 1.76252 0
M  V30 5669 H 523.693 -3.0088 2.57463 0
M  V30 5670 H 524.867 -0.910968 4.51706 0
M  V30 5671 H 523.182 -0.97767 4.0476 0
M  V30 5672 H 525.779 -3.74903 3.81251 0
M  V30 5673 H 526.122 -3.5902 2.10738 0
M  V30 5674 H 526.655 -2.31784 3.23297 0
M  V30 5675 H 523.394 -2.06823 6.22017 0
M  V30 5676 H 522.914 -3.28707 5.01709 0
M  V30 5677 H 524.593 -3.22606 5.60834 0
M  V30 5678 N 524.725 -1.39134 -0.740242 0
M  V30 5679 C 526.141 -1.20623 -1.0451 0
M  V30 5680 C 526.341 -0.0641651 -2.01398 0
M  V30 5681 O 525.397 0.585843 -2.4561 0
M  V30 5682 C 526.71 -2.53815 -1.6124 0
M  V30 5683 C 528.258 -2.60615 -1.73346 0
M  V30 5684 C 528.733 -3.94015 -2.33486 0
M  V30 5685 N 530.224 -3.95627 -2.40902 0
M  V30 5686 C 530.959 -4.95616 -2.88361 0
M  V30 5687 N 530.455 -6.06003 -3.35756 0
M  V30 5688 N 532.248 -4.82998 -2.87523 0
M  V30 5689 H 524.399 -2.12176 -0.0975576 0
M  V30 5690 H 526.662 -0.942066 -0.105904 0
M  V30 5691 H 526.368 -3.37911 -0.975144 0
M  V30 5692 H 526.242 -2.73162 -2.6012 0
M  V30 5693 H 528.629 -1.76906 -2.36195 0
M  V30 5694 H 528.71 -2.45123 -0.731336 0
M  V30 5695 H 528.354 -4.78153 -1.71267 0
M  V30 5696 H 528.284 -4.06825 -3.34366 0
M  V30 5697 H 530.775 -3.15903 -2.07398 0
M  V30 5698 H 531.088 -6.78215 -3.70464 0
M  V30 5699 H 529.433 -6.09604 -3.33778 0
M  V30 5700 H 532.624 -3.95866 -2.49816 0
M  V30 5701 H 532.797 -5.61072 -3.24196 0
M  V30 5702 N 526.204 0.969867 -1.24223 0
M  V30 5703 C 527.432 1.74756 -1.10761 0
M  V30 5704 C 527.847 1.85713 0.340041 0
M  V30 5705 O 527.204 1.34389 1.23474 0
M  V30 5706 C 527.255 3.16915 -1.73917 0
M  V30 5707 O 526.976 3.06511 -3.13021 0
M  V30 5708 C 528.477 4.11032 -1.66036 0
M  V30 5709 H 525.697 0.548092 -0.387087 0
M  V30 5710 H 528.241 1.2178 -1.64286 0
M  V30 5711 H 526.396 3.66884 -1.244 0
M  V30 5712 H 526.81 3.96079 -3.43834 0
M  V30 5713 H 528.284 5.08446 -2.14911 0
M  V30 5714 H 528.761 4.34785 -0.621159 0
M  V30 5715 H 529.367 3.66972 -2.14969 0
M  V30 5716 N 527.682 1.05563 1.17022 0
M  V30 5717 C 528.928 0.778872 1.87897 0
M  V30 5718 C 529.283 -0.686839 1.79723 0
M  V30 5719 O 528.576 -1.49612 1.19694 0
M  V30 5720 C 528.77 1.19849 3.36706 0
M  V30 5721 C 528.599 2.70345 3.59366 0
M  V30 5722 C 527.369 3.37707 3.75875 0
M  V30 5723 C 529.567 3.68564 3.58699 0
M  V30 5724 N 527.549 4.7703 3.86414 0
M  V30 5725 C 528.92 4.93634 3.75134 0
M  V30 5726 C 530.975 3.6198 3.4187 0
M  V30 5727 C 529.678 6.12907 3.76481 0
M  V30 5728 C 531.704 4.80697 3.44507 0
M  V30 5729 C 531.066 6.04592 3.61453 0
M  V30 5730 H 527.165 0.337297 0.705517 0
M  V30 5731 H 529.749 1.34832 1.40458 0
M  V30 5732 H 527.92 0.656958 3.82804 0
M  V30 5733 H 529.652 0.871172 3.95212 0
M  V30 5734 H 526.407 2.88108 3.75887 0
M  V30 5735 H 526.831 5.49483 3.95471 0
M  V30 5736 H 531.473 2.67154 3.27702 0
M  V30 5737 H 529.191 7.08073 3.89432 0
M  V30 5738 H 532.777 4.77259 3.32738 0
M  V30 5739 H 531.657 6.94916 3.63403 0
M  V30 5740 N 529.16 -1.33526 0.837174 0
M  V30 5741 C 530.576 -1.50727 0.524743 0
M  V30 5742 C 530.776 -1.77792 -0.948279 0
M  V30 5743 O 529.832 -1.83719 -1.73216 0
M  V30 5744 C 531.145 -2.66299 1.39661 0
M  V30 5745 C 532.693 -2.80183 1.39521 0
M  V30 5746 C 533.168 -3.98815 2.25189 0
M  V30 5747 N 534.659 -4.06047 2.2289 0
M  V30 5748 C 535.394 -4.97032 2.85915 0
M  V30 5749 N 534.89 -5.93143 3.57985 0
M  V30 5750 N 536.683 -4.90015 2.75394 0
M  V30 5751 H 528.834 -1.1422 1.79074 0
M  V30 5752 H 531.097 -0.561399 0.763894 0
M  V30 5753 H 530.803 -2.52974 2.4433 0
M  V30 5754 H 530.677 -3.61663 1.07145 0
M  V30 5755 H 533.064 -2.92942 0.356253 0
M  V30 5756 H 533.145 -1.85586 1.76044 0
M  V30 5757 H 532.789 -3.86817 3.29143 0
M  V30 5758 H 532.719 -4.92654 1.86009 0
M  V30 5759 H 535.21 -3.37262 1.70478 0
M  V30 5760 H 535.523 -6.59227 4.03286 0
M  V30 5761 H 533.868 -5.93223 3.62093 0
M  V30 5762 H 537.059 -4.13894 2.18654 0
M  V30 5763 H 537.232 -5.60724 3.24796 0
M  V30 5764 N 530.638 -0.59345 -1.46 0
M  V30 5765 C 531.586 0.146268 -2.3214 0
M  V30 5766 C 532.58 0.873743 -1.45128 0
M  V30 5767 O 533.786 0.790912 -1.61693 0
M  V30 5768 H 530.161 0.0660349 -0.749095 0
M  V30 5769 H 532.132 -0.598895 -2.92328 0
M  V30 5770 C 530.881 1.1396 -3.28494 0
M  V30 5771 H 530.204 0.589252 -3.95434 0
M  V30 5772 H 531.644 1.62738 -3.91526 0
M  V30 5773 C 530.103 2.20604 -2.54628 0
M  V30 5774 O 530.633 3.28128 -2.31722 0
M  V30 5775 N 528.839 1.95502 -2.15005 0
M  V30 5776 H 528.386 1.0807 -2.33834 0
M  V30 5777 H 528.344 2.67064 -1.65904 0
M  V30 5778 N 532.116 1.54067 -0.331816 0
M  V30 5779 C 533.393 1.92915 0.322955 0
M  V30 5780 C 533.773 1.26225 1.69205 0
M  V30 5781 O 533.121 0.408919 2.24811 0
M  V30 5782 C 533.331 3.46619 0.406946 0
M  V30 5783 C 534.679 4.19386 0.663339 0
M  V30 5784 O 535.703 3.5282 0.489536 0
M  V30 5785 O 534.562 5.37288 0.999193 0
M  V30 5786 H 531.656 0.805808 0.186016 0
M  V30 5787 H 534.202 1.65342 -0.382135 0
M  V30 5788 H 532.974 3.87354 -0.554287 0
M  V30 5789 H 532.597 3.80324 1.15929 0
M  V30 5790 N 533.594 0.0601682 1.57485 0
M  V30 5791 C 534.524 -0.90889 2.15085 0
M  V30 5792 C 535.505 -1.31838 1.07484 0
M  V30 5793 O 536.69 -1.3915 1.35466 0
M  V30 5794 C 533.82 -2.18059 2.7031 0
M  V30 5795 C 532.774 -1.91088 3.82974 0
M  V30 5796 C 532.1 -3.24789 4.24754 0
M  V30 5797 C 533.4 -1.22535 5.07723 0
M  V30 5798 H 535.094 -0.429093 2.96309 0
M  V30 5799 H 532.64 -0.204952 1.42534 0
M  V30 5800 H 534.593 -2.86258 3.09248 0
M  V30 5801 H 533.317 -2.6826 1.8629 0
M  V30 5802 H 531.976 -1.25297 3.44523 0
M  V30 5803 H 531.624 -3.72809 3.37672 0
M  V30 5804 H 531.324 -3.07538 5.00694 0
M  V30 5805 H 532.848 -3.94205 4.66299 0
M  V30 5806 H 534.262 -1.80783 5.4405 0
M  V30 5807 H 532.659 -1.1558 5.88864 0
M  V30 5808 H 533.729 -0.202692 4.84476 0
M  V30 5809 N 535.072 -1.5615 -0.213296 0
M  V30 5810 C 536.321 -1.78743 -0.93455 0
M  V30 5811 C 536.634 -0.630199 -1.8517 0
M  V30 5812 O 537.84 -0.739966 -2.61222 0
M  V30 5813 C 536.296 -3.16571 -1.71203 0
M  V30 5814 C 535.904 -4.40043 -0.840617 0
M  V30 5815 C 537.648 -3.48485 -2.42401 0
M  V30 5816 C 535.555 -5.68895 -1.61592 0
M  V30 5817 H 534.485 -0.666426 -0.352692 0
M  V30 5818 H 537.136 -1.82532 -0.188227 0
M  V30 5819 H 535.518 -3.06981 -2.50157 0
M  V30 5820 H 536.692 -4.6071 -0.0910326 0
M  V30 5821 H 535.007 -4.15706 -0.240365 0
M  V30 5822 H 537.604 -4.41983 -3.00924 0
M  V30 5823 H 537.947 -2.71371 -3.15695 0
M  V30 5824 H 538.48 -3.59442 -1.7043 0
M  V30 5825 H 535.219 -6.48925 -0.926106 0
M  V30 5826 H 534.739 -5.52275 -2.33991 0
M  V30 5827 H 536.418 -6.09365 -2.17447 0
M  V30 5828 N 536.55 0.480323 -1.50102 0
M  V30 5829 C 537.775 1.26126 -1.64642 0
M  V30 5830 C 538.2 1.85257 -0.325823 0
M  V30 5831 O 537.558 1.66854 0.709194 0
M  V30 5832 C 537.606 2.35243 -2.73301 0
M  V30 5833 O 536.71 3.39646 -2.33911 0
M  V30 5834 H 536.051 0.371463 -0.550374 0
M  V30 5835 H 538.581 0.572696 -1.96421 0
M  V30 5836 H 538.591 2.80695 -2.96098 0
M  V30 5837 H 537.266 1.91574 -3.6915 0
M  V30 5838 H 535.843 2.99969 -2.21525 0
M  V30 5839 N 538.028 1.39524 0.732853 0
M  V30 5840 C 538.991 1.38189 1.82857 0
M  V30 5841 C 539.991 0.278624 1.58368 0
M  V30 5842 O 541.181 0.536639 1.65728 0
M  V30 5843 C 538.313 1.15661 3.2068 0
M  V30 5844 H 539.506 2.35692 1.85444 0
M  V30 5845 H 537.059 1.2512 0.936728 0
M  V30 5846 H 537.794 0.188482 3.23752 0
M  V30 5847 H 537.579 1.95559 3.39852 0
M  V30 5848 H 539.069 1.17472 4.00737 0
M  V30 5849 N 539.506 -0.963266 1.24736 0
M  V30 5850 C 540.734 -1.74166 1.11686 0
M  V30 5851 C 541.149 -1.8589 -0.330187 0
M  V30 5852 O 540.506 -1.35042 -1.2276 0
M  V30 5853 C 540.557 -3.15989 1.75595 0
M  V30 5854 O 540.278 -3.04847 3.14642 0
M  V30 5855 C 541.779 -4.10145 1.68213 0
M  V30 5856 H 538.999 -0.546031 0.389989 0
M  V30 5857 H 541.543 -1.20907 1.64929 0
M  V30 5858 H 539.698 -3.66219 1.26343 0
M  V30 5859 H 540.112 -3.9425 3.4593 0
M  V30 5860 H 541.586 -5.07299 2.17604 0
M  V30 5861 H 542.063 -4.3445 0.644208 0
M  V30 5862 H 542.669 -3.65827 2.16912 0
M  V30 5863 N 540.985 -1.06182 -1.16461 0
M  V30 5864 C 541.932 -0.671613 -2.20812 0
M  V30 5865 C 542.902 0.331186 -1.62765 0
M  V30 5866 O 544.087 0.22033 -1.89524 0
M  V30 5867 C 541.227 -0.063029 -3.45042 0
M  V30 5868 C 540.34 -1.11587 -4.1734 0
M  V30 5869 C 539.475 -0.473546 -5.29085 0
M  V30 5870 C 538.514 -1.51 -5.93182 0
M  V30 5871 N 537.651 -0.891118 -6.96422 0
M  V30 5872 H 542.491 -1.56589 -2.53542 0
M  V30 5873 H 540.028 -0.782951 -1.24532 0
M  V30 5874 H 541.986 0.307344 -4.16066 0
M  V30 5875 H 540.616 0.794663 -3.12866 0
M  V30 5876 H 539.668 -1.60396 -3.44931 0
M  V30 5877 H 540.98 -1.90221 -4.61104 0
M  V30 5878 H 540.134 -0.0501432 -6.06679 0
M  V30 5879 H 538.873 0.344687 -4.8648 0
M  V30 5880 H 537.878 -1.94331 -5.14311 0
M  V30 5881 H 539.103 -2.33031 -6.37866 0
M  V30 5882 H 537.049 -0.0935753 -6.55933 0
M  V30 5883 H 536.966 -1.61486 -7.38551 0
M  V30 5884 H 538.234 -0.492822 -7.77941 0
M  V30 5885 N 542.463 1.3308 -0.844243 0
M  V30 5886 C 543.691 2.01808 -0.456203 0
M  V30 5887 C 544.106 1.63498 0.944131 0
M  V30 5888 O 543.463 0.85102 1.61443 0
M  V30 5889 C 543.514 3.56922 -0.573513 0
M  V30 5890 O 543.235 3.93851 -1.91868 0
M  V30 5891 C 544.736 4.42922 -0.183125 0
M  V30 5892 H 541.956 0.646273 -0.180477 0
M  V30 5893 H 544.5 1.69891 -1.1383 0
M  V30 5894 H 542.655 3.87352 0.0607367 0
M  V30 5895 H 543.069 4.88564 -1.90802 0
M  V30 5896 H 544.543 5.51093 -0.316241 0
M  V30 5897 H 545.02 4.30386 0.875477 0
M  V30 5898 H 545.626 4.1786 -0.792027 0
M  V30 5899 N 543.941 0.601185 1.45683 0
M  V30 5900 C 544.873 -0.159446 2.28645 0
M  V30 5901 C 545.886 -0.837882 1.39583 0
M  V30 5902 O 547.075 -0.704344 1.64016 0
M  V30 5903 C 544.175 -1.24641 3.15147 0
M  V30 5904 C 543.348 -0.656334 4.32448 0
M  V30 5905 C 542.407 -1.63337 5.00208 0
M  V30 5906 O 541.433 -1.16217 5.57209 0
M  V30 5907 N 542.635 -2.96773 4.98905 0
M  V30 5908 H 545.4 0.5524 2.94565 0
M  V30 5909 H 542.961 0.440223 1.558 0
M  V30 5910 H 544.953 -1.8997 3.57342 0
M  V30 5911 H 543.523 -1.86087 2.51178 0
M  V30 5912 H 542.743 0.174879 3.93812 0
M  V30 5913 H 544.031 -0.242211 5.08223 0
M  V30 5914 H 543.429 -3.37662 4.53873 0
M  V30 5915 H 541.986 -3.57541 5.44984 0
M  V30 5916 N 545.419 -1.53889 0.339982 0
M  V30 5917 C 546.665 -2.01152 -0.258003 0
M  V30 5918 C 546.998 -1.22749 -1.50487 0
M  V30 5919 O 546.273 -0.314156 -1.91946 0
M  V30 5920 C 546.556 -3.55468 -0.575717 0
M  V30 5921 C 546.409 -4.44584 0.682996 0
M  V30 5922 C 547.728 -4.1768 -1.38677 0
M  V30 5923 H 544.847 -0.731198 -0.0922992 0
M  V30 5924 H 547.489 -1.84352 0.459814 0
M  V30 5925 H 545.639 -3.69914 -1.18725 0
M  V30 5926 H 547.311 -4.41981 1.32102 0
M  V30 5927 H 545.554 -4.13592 1.3086 0
M  V30 5928 H 546.225 -5.5043 0.416001 0
M  V30 5929 H 548.701 -4.0691 -0.869705 0
M  V30 5930 H 547.577 -5.25734 -1.57783 0
M  V30 5931 H 547.838 -3.72069 -2.38782 0
M  V30 5932 N 546.897 -0.0685191 -1.57451 0
M  V30 5933 C 547.86 0.885173 -2.11417 0
M  V30 5934 C 548.86 1.22853 -1.03748 0
M  V30 5935 O 550.05 1.16235 -1.2975 0
M  V30 5936 C 547.182 2.18964 -2.61281 0
M  V30 5937 H 548.375 0.417034 -2.96986 0
M  V30 5938 H 545.928 0.18014 -1.55258 0
M  V30 5939 H 546.663 2.70321 -1.79156 0
M  V30 5940 H 546.448 1.9534 -3.39977 0
M  V30 5941 H 547.938 2.87242 -3.0312 0
M  V30 5942 N 548.375 1.56261 0.205012 0
M  V30 5943 C 549.652 1.70856 0.952233 0
M  V30 5944 C 550.032 0.620501 2.01775 0
M  V30 5945 O 549.38 -0.370035 2.25484 0
M  V30 5946 C 549.59 3.12807 1.54767 0
M  V30 5947 C 550.938 3.72733 2.0336 0
M  V30 5948 O 551.962 3.15873 1.64629 0
M  V30 5949 O 550.821 4.72501 2.746 0
M  V30 5950 H 547.915 0.696496 0.445895 0
M  V30 5951 H 550.461 1.6857 0.195489 0
M  V30 5952 H 549.233 3.83465 0.779132 0
M  V30 5953 H 548.856 3.1928 2.36951 0
M  V30 5954 N 549.853 -0.472356 1.50355 0
M  V30 5955 C 550.816 -1.5529 1.68576 0
M  V30 5956 C 551.816 -1.50863 0.556511 0
M  V30 5957 O 553.006 -1.53505 0.823516 0
M  V30 5958 C 550.138 -2.94921 1.70981 0
M  V30 5959 H 551.331 -1.40451 2.64978 0
M  V30 5960 H 548.884 -0.698645 1.39816 0
M  V30 5961 H 549.619 -3.15204 0.762675 0
M  V30 5962 H 549.404 -2.99541 2.53017 0
M  V30 5963 H 550.894 -3.73372 1.87037 0
M  V30 5964 N 551.331 -1.39911 -0.725443 0
M  V30 5965 C 552.278 -1.39393 -1.83952 0
M  V30 5966 C 553.248 -0.252249 -1.64173 0
M  V30 5967 O 554.433 -0.44882 -1.85446 0
M  V30 5968 C 551.573 -1.25262 -3.21564 0
M  V30 5969 C 550.686 -2.49054 -3.52982 0
M  V30 5970 C 549.821 -2.27439 -4.80047 0
M  V30 5971 C 548.86 -3.46857 -5.04338 0
M  V30 5972 N 547.997 -3.24499 -6.22611 0
M  V30 5973 H 552.837 -2.34622 -1.83729 0
M  V30 5974 H 550.374 -1.16537 -0.897636 0
M  V30 5975 H 552.332 -1.15077 -4.01015 0
M  V30 5976 H 550.962 -0.33657 -3.21041 0
M  V30 5977 H 550.014 -2.69805 -2.6816 0
M  V30 5978 H 551.326 -3.37973 -3.66846 0
M  V30 5979 H 550.48 -2.14551 -5.67497 0
M  V30 5980 H 549.219 -1.35929 -4.68374 0
M  V30 5981 H 548.224 -3.60232 -4.15346 0
M  V30 5982 H 549.449 -4.3928 -5.17889 0
M  V30 5983 H 547.395 -2.35663 -6.12208 0
M  V30 5984 H 547.312 -4.06978 -6.37106 0
M  V30 5985 H 548.58 -3.15325 -7.12875 0
M  V30 5986 N 552.809 0.956637 -1.25245 0
M  V30 5987 C 554.225 1.22733 -1.02023 0
M  V30 5988 C 554.425 1.99761 0.264186 0
M  V30 5989 O 553.481 2.32814 0.977436 0
M  V30 5990 C 554.794 2.00367 -2.24217 0
M  V30 5991 C 556.342 2.13418 -2.28958 0
M  V30 5992 C 556.817 2.9445 -3.50803 0
M  V30 5993 N 558.308 3.02029 -3.51187 0
M  V30 5994 C 559.043 3.65116 -4.42129 0
M  V30 5995 N 558.539 4.2983 -5.43339 0
M  V30 5996 N 560.332 3.62237 -4.29815 0
M  V30 5997 H 552.483 0.441282 -2.07765 0
M  V30 5998 H 554.746 0.257686 -0.912306 0
M  V30 5999 H 554.452 1.51165 -3.17556 0
M  V30 6000 H 554.326 3.01077 -2.27228 0
M  V30 6001 H 556.713 2.61819 -1.36143 0
M  V30 6002 H 556.794 1.1202 -2.29968 0
M  V30 6003 H 556.438 2.46741 -4.43939 0
M  V30 6004 H 556.368 3.9607 -3.47039 0
M  V30 6005 H 558.859 2.56007 -2.77973 0
M  V30 6006 H 559.172 4.75819 -6.08947 0
M  V30 6007 H 557.517 4.28465 -5.47214 0
M  V30 6008 H 560.708 3.10863 -3.49974 0
M  V30 6009 H 560.881 4.11117 -5.00886 0
M  V30 6010 N 554.287 1.06798 1.15896 0
M  V30 6011 C 555.517 0.807522 1.90165 0
M  V30 6012 C 555.925 -0.642417 1.7796 0
M  V30 6013 O 555.268 -1.45193 1.12537 0
M  V30 6014 C 555.33 1.12939 3.41299 0
M  V30 6015 C 554.994 2.57879 3.7729 0
M  V30 6016 C 555.991 3.56118 3.78782 0
M  V30 6017 C 553.676 2.93311 4.07767 0
M  V30 6018 C 555.67 4.87827 4.10248 0
M  V30 6019 C 553.357 4.25219 4.38899 0
M  V30 6020 C 554.355 5.22287 4.4012 0
M  V30 6021 O 554.043 6.51826 4.70508 0
M  V30 6022 H 553.775 0.291946 0.609708 0
M  V30 6023 H 556.329 1.42627 1.47806 0
M  V30 6024 H 554.559 0.45359 3.84031 0
M  V30 6025 H 556.248 0.852363 3.9685 0
M  V30 6026 H 557.014 3.30086 3.55342 0
M  V30 6027 H 552.893 2.18409 4.05979 0
M  V30 6028 H 556.437 5.63586 4.11116 0
M  V30 6029 H 552.334 4.51006 4.61805 0
M  V30 6030 H 553.102 6.56893 4.88298 0
M  V30 6031 N 555.766 -1.3263 0.851289 0
M  V30 6032 C 557.015 -1.96633 0.449267 0
M  V30 6033 C 557.328 -1.68131 -0.999562 0
M  V30 6034 O 558.534 -2.25845 -1.50685 0
M  V30 6035 C 556.99 -3.51946 0.752446 0
M  V30 6036 C 556.598 -3.89311 2.21678 0
M  V30 6037 C 558.342 -4.22437 0.417983 0
M  V30 6038 C 556.249 -5.37655 2.46336 0
M  V30 6039 H 555.179 -0.735888 0.164269 0
M  V30 6040 H 557.83 -1.51073 1.0416 0
M  V30 6041 H 556.212 -3.95899 0.0895858 0
M  V30 6042 H 557.386 -3.56378 2.92115 0
M  V30 6043 H 555.701 -3.31836 2.51543 0
M  V30 6044 H 558.298 -5.31549 0.579674 0
M  V30 6045 H 558.641 -4.11349 -0.640115 0
M  V30 6046 H 559.174 -3.84057 1.03659 0
M  V30 6047 H 555.913 -5.5376 3.50757 0
M  V30 6048 H 555.433 -5.72005 1.80473 0
M  V30 6049 H 557.112 -6.04695 2.30115 0
M  V30 6050 N 557.244 -0.608902 -1.45362 0
M  V30 6051 C 558.154 0.110969 -2.34337 0
M  V30 6052 C 559.17 0.859007 -1.51318 0
M  V30 6053 O 560.346 0.816296 -1.84116 0
M  V30 6054 C 557.411 1.09494 -3.28956 0
M  V30 6055 C 556.472 0.348718 -4.27881 0
M  V30 6056 C 555.705 1.28582 -5.17979 0
M  V30 6057 O 555.928 2.52369 -5.11533 0
M  V30 6058 O 554.862 0.782172 -5.96796 0
M  V30 6059 H 558.688 -0.620258 -2.97299 0
M  V30 6060 H 556.273 -0.36916 -1.44767 0
M  V30 6061 H 558.155 1.66163 -3.87257 0
M  V30 6062 H 556.83 1.80717 -2.68557 0
M  V30 6063 H 555.737 -0.260465 -3.73192 0
M  V30 6064 H 557.07 -0.323049 -4.91139 0
M  V30 6065 N 558.722 1.53707 -0.348139 0
M  V30 6066 C 559.669 2.25173 0.506518 0
M  V30 6067 C 560.639 1.25174 1.09182 0
M  V30 6068 O 561.824 1.53917 1.12757 0
M  V30 6069 C 558.964 3.03141 1.64923 0
M  V30 6070 C 558.077 4.18002 1.0908 0
M  V30 6071 C 557.212 4.83447 2.20119 0
M  V30 6072 C 556.251 5.90369 1.61651 0
M  V30 6073 N 555.388 6.49575 2.66451 0
M  V30 6074 H 560.228 2.97799 -0.109452 0
M  V30 6075 H 557.765 1.46953 -0.0657866 0
M  V30 6076 H 559.723 3.46607 2.32205 0
M  V30 6077 H 558.353 2.32803 2.23612 0
M  V30 6078 H 557.405 3.79145 0.308783 0
M  V30 6079 H 558.717 4.94892 0.623178 0
M  V30 6080 H 557.871 5.30008 2.95257 0
M  V30 6081 H 556.61 4.05991 2.70227 0
M  V30 6082 H 555.615 5.43186 0.850209 0
M  V30 6083 H 556.84 6.69735 1.1239 0
M  V30 6084 H 554.786 5.74981 3.15805 0
M  V30 6085 H 554.703 7.21952 2.24325 0
M  V30 6086 H 555.971 7.00789 3.41344 0
M  V30 6087 N 560.2 0.0768682 1.57412 0
M  V30 6088 C 561.449 -0.590679 1.92857 0
M  V30 6089 C 561.762 -1.70461 0.959293 0
M  V30 6090 O 562.968 -2.43207 1.20675 0
M  V30 6091 C 561.424 -1.10204 3.42612 0
M  V30 6092 C 561.032 -0.0188447 4.47996 0
M  V30 6093 C 562.776 -1.74336 3.87049 0
M  V30 6094 C 560.683 -0.544536 5.88888 0
M  V30 6095 H 559.613 -0.224411 0.71983 0
M  V30 6096 H 562.264 0.149924 1.82887 0
M  V30 6097 H 560.646 -1.89577 3.47673 0
M  V30 6098 H 561.82 0.755936 4.54557 0
M  V30 6099 H 560.135 0.526555 4.13057 0
M  V30 6100 H 562.732 -2.14708 4.89699 0
M  V30 6101 H 563.075 -2.60537 3.24694 0
M  V30 6102 H 563.608 -1.01577 3.84613 0
M  V30 6103 H 560.347 0.280426 6.549 0
M  V30 6104 H 559.867 -1.28673 5.85836 0
M  V30 6105 H 561.546 -1.01933 6.3892 0
M  V30 6106 N 561.678 -1.56367 -0.196722 0
M  V30 6107 C 562.61 -1.90941 -1.26784 0
M  V30 6108 C 563.623 -0.799928 -1.41792 0
M  V30 6109 O 564.812 -1.07833 -1.42247 0
M  V30 6110 C 561.912 -2.12477 -2.6402 0
M  V30 6111 C 561.085 -3.43616 -2.70641 0
M  V30 6112 C 560.144 -3.54284 -3.89062 0
M  V30 6113 O 559.17 -4.2712 -3.76241 0
M  V30 6114 N 560.372 -2.87252 -5.04447 0
M  V30 6115 H 563.137 -2.83417 -0.974417 0
M  V30 6116 H 560.698 -1.57215 -0.386649 0
M  V30 6117 H 562.69 -2.16904 -3.41665 0
M  V30 6118 H 561.26 -1.26508 -2.85857 0
M  V30 6119 H 560.48 -3.51072 -1.79283 0
M  V30 6120 H 561.768 -4.29958 -2.72054 0
M  V30 6121 H 561.166 -2.27901 -5.17762 0
M  V30 6122 H 559.723 -2.97308 -5.80044 0
M  V30 6123 N 563.156 0.464375 -1.50603 0
M  V30 6124 C 564.567 1.04507 -1.5471 0
M  V30 6125 C 564.918 1.9297 -0.354542 0
M  V30 6126 O 564.043 2.09763 0.531812 0
M  V30 6127 C 564.638 1.90207 -2.80369 0
M  V30 6128 C 563.197 2.43373 -2.87135 0
M  V30 6129 C 562.344 1.21886 -2.49076 0
M  V30 6130 H 565.295 0.246716 -1.56771 0
M  V30 6131 H 565.316 2.75353 -2.62604 0
M  V30 6132 H 564.828 1.25796 -3.67147 0
M  V30 6133 H 562.929 3.11318 -2.04724 0
M  V30 6134 H 563.042 2.7802 -3.90181 0
M  V30 6135 H 561.406 1.55575 -2.01664 0
M  V30 6136 H 562.189 0.591268 -3.3817 0
M  V30 6137 N 564.634 1.40294 0.718013 0
M  V30 6138 C 565.859 1.41941 1.5122 0
M  V30 6139 C 566.284 0.0202371 1.88089 0
M  V30 6140 O 565.642 -0.971078 1.53101 0
M  V30 6141 C 565.69 2.3141 2.76554 0
M  V30 6142 O 564.794 1.75567 3.73162 0
M  V30 6143 H 564.135 0.482644 0.456016 0
M  V30 6144 H 566.665 1.84494 0.884478 0
M  V30 6145 H 566.675 2.46513 3.25108 0
M  V30 6146 H 565.35 3.33085 2.49053 0
M  V30 6147 H 563.927 1.69798 3.31999 0
M  V30 6148 N 566.112 -0.949982 1.2575 0
M  V30 6149 C 567.36 -1.6918 1.10555 0
M  V30 6150 C 567.681 -1.91773 -0.353298 0
M  V30 6151 O 566.951 -1.50814 -1.25027 0
M  V30 6152 H 565.531 -0.626952 0.406129 0
M  V30 6153 H 568.193 -1.1419 1.57945 0
M  V30 6154 H 567.289 -2.66915 1.61749 0
M  V30 6155 N 567.59 -1.07411 -1.15328 0
M  V30 6156 C 568.838 -0.796073 -1.85761 0
M  V30 6157 C 569.159 0.679864 -1.82764 0
M  V30 6158 O 568.429 1.49242 -1.269 0
M  V30 6159 H 567.009 -0.291495 -0.687779 0
M  V30 6160 H 569.671 -1.35799 -1.39802 0
M  V30 6161 H 568.767 -1.13114 -2.90881 0
M  V30 6162 N 569.068 1.32177 -0.85831 0
M  V30 6163 C 570.296 2.01313 -0.477582 0
M  V30 6164 C 570.711 1.6449 0.926736 0
M  V30 6165 O 570.068 0.868096 1.60531 0
M  V30 6166 C 570.119 3.56293 -0.611337 0
M  V30 6167 O 569.84 3.91794 -1.96034 0
M  V30 6168 C 571.341 4.42702 -0.230093 0
M  V30 6169 H 568.561 0.644323 -0.187322 0
M  V30 6170 H 571.105 1.68674 -1.15626 0
M  V30 6171 H 569.26 3.87395 0.0196494 0
M  V30 6172 H 569.674 4.86513 -1.95973 0
M  V30 6173 H 571.148 5.50727 -0.374674 0
M  V30 6174 H 571.625 4.3129 0.829779 0
M  V30 6175 H 572.231 4.16997 -0.836302 0
M  V30 6176 N 570.547 0.616602 1.45037 0
M  V30 6177 C 571.495 -0.109318 2.32343 0
M  V30 6178 C 572.489 -0.850543 1.465 0
M  V30 6179 O 573.695 -0.765088 1.62931 0
M  V30 6180 H 570.07 -0.0541091 0.750051 0
M  V30 6181 H 572.041 0.645326 2.91338 0
M  V30 6182 C 570.79 -1.0872 3.30266 0
M  V30 6183 H 570.113 -0.526267 3.96321 0
M  V30 6184 H 571.553 -1.56489 3.94065 0
M  V30 6185 C 570.012 -2.16525 2.58105 0
M  V30 6186 O 570.542 -3.244 2.36913 0
M  V30 6187 N 568.748 -1.92057 2.18088 0
M  V30 6188 H 568.295 -1.04337 2.35524 0
M  V30 6189 H 568.253 -2.64391 1.70131 0
M  V30 6190 N 572.025 -1.5352 0.356285 0
M  V30 6191 C 573.274 -2.00298 -0.237373 0
M  V30 6192 C 573.587 -1.24784 -1.50627 0
M  V30 6193 O 574.793 -1.62103 -2.17795 0
M  V30 6194 C 573.249 -3.56771 -0.473545 0
M  V30 6195 C 572.857 -4.41154 0.780183 0
M  V30 6196 C 574.601 -4.1193 -1.02537 0
M  V30 6197 C 572.508 -5.89161 0.514108 0
M  V30 6198 H 571.438 -0.748307 -0.092478 0
M  V30 6199 H 574.089 -1.77283 0.473588 0
M  V30 6200 H 572.471 -3.75902 -1.24553 0
M  V30 6201 H 573.645 -4.33797 1.55425 0
M  V30 6202 H 571.96 -3.97052 1.25455 0
M  V30 6203 H 574.557 -5.20133 -1.2396 0
M  V30 6204 H 574.9 -3.65943 -1.98473 0
M  V30 6205 H 575.433 -3.96561 -0.313775 0
M  V30 6206 H 572.172 -6.39408 1.44355 0
M  V30 6207 H 571.692 -5.9939 -0.221632 0
M  V30 6208 H 573.371 -6.46857 0.136122 0
M  V30 6209 N 573.503 -0.0852151 -1.57369 0
M  V30 6210 C 574.451 0.894856 -2.14698 0
M  V30 6211 C 575.445 1.29903 -1.08727 0
M  V30 6212 O 576.651 1.27471 -1.27088 0
M  V30 6213 H 573.026 0.306569 -0.686673 0
M  V30 6214 H 574.997 0.386542 -2.95886 0
M  V30 6215 C 573.746 2.14798 -2.73417 0
M  V30 6216 H 573.069 1.84585 -3.54638 0
M  V30 6217 H 574.509 2.81456 -3.1711 0
M  V30 6218 C 572.968 2.91546 -1.68828 0
M  V30 6219 O 573.498 3.85733 -1.12129 0
M  V30 6220 N 571.704 2.54901 -1.39549 0
M  V30 6221 H 571.251 1.7838 -1.85845 0
M  V30 6222 H 571.209 3.06553 -0.698054 0
M  V30 6223 N 574.981 1.5647 0.188427 0
M  V30 6224 C 575.891 1.98285 1.2538 0
M  V30 6225 C 576.907 0.891535 1.49424 0
M  V30 6226 O 578.083 1.19782 1.61908 0
M  V30 6227 C 575.148 2.31965 2.57669 0
M  V30 6228 C 574.209 3.54838 2.41638 0
M  V30 6229 C 573.442 3.86901 3.67618 0
M  V30 6230 O 573.665 3.20163 4.72072 0
M  V30 6231 O 572.599 4.80309 3.62749 0
M  V30 6232 H 576.425 2.89145 0.928912 0
M  V30 6233 H 574.01 1.44112 0.393955 0
M  V30 6234 H 575.892 2.54673 3.35737 0
M  V30 6235 H 574.567 1.44271 2.89771 0
M  V30 6236 H 573.474 3.37369 1.61658 0
M  V30 6237 H 574.807 4.43019 2.14465 0
M  V30 6238 N 576.459 -0.456382 1.50847 0
M  V30 6239 C 577.422 -1.53493 1.70213 0
M  V30 6240 C 578.422 -1.50264 0.572481 0
M  V30 6241 O 579.612 -1.52623 0.839751 0
M  V30 6242 C 576.744 -2.93091 1.741 0
M  V30 6243 H 577.937 -1.37633 2.66453 0
M  V30 6244 H 575.49 -0.683776 1.4055 0
M  V30 6245 H 576.225 -3.14378 0.796063 0
M  V30 6246 H 576.01 -2.9684 2.5618 0
M  V30 6247 H 577.5 -3.71368 1.90987 0
M  V30 6248 N 577.937 -1.40673 -0.710563 0
M  V30 6249 C 578.867 -1.44095 -1.83736 0
M  V30 6250 C 579.848 -0.301286 -1.67411 0
M  V30 6251 O 581.033 -0.510618 -1.87367 0
M  V30 6252 C 578.163 -1.30773 -3.21738 0
M  V30 6253 C 577.117 -2.42395 -3.52745 0
M  V30 6254 C 576.443 -2.14147 -4.89944 0
M  V30 6255 C 577.743 -3.84738 -3.53234 0
M  V30 6256 H 579.437 -2.38396 -1.81129 0
M  V30 6257 H 576.983 -1.14746 -0.870017 0
M  V30 6258 H 578.936 -1.31783 -4.00264 0
M  V30 6259 H 577.66 -0.329507 -3.24934 0
M  V30 6260 H 576.319 -2.40643 -2.76562 0
M  V30 6261 H 575.967 -1.14703 -4.89747 0
M  V30 6262 H 575.667 -2.88934 -5.11655 0
M  V30 6263 H 577.191 -2.16848 -5.70797 0
M  V30 6264 H 578.605 -3.88286 -4.2179 0
M  V30 6265 H 577.002 -4.59085 -3.86473 0
M  V30 6266 H 578.072 -4.13962 -2.52514 0
M  V30 6267 N 579.415 0.9433 -1.26252 0
M  V30 6268 C 580.345 2.05902 -1.10122 0
M  V30 6269 C 581.326 1.70099 -0.00700552 0
M  V30 6270 O 582.511 1.93377 -0.178641 0
M  V30 6271 C 579.641 3.39516 -0.731175 0
M  V30 6272 C 578.595 3.89372 -1.77688 0
M  V30 6273 C 577.921 5.19613 -1.26122 0
M  V30 6274 C 579.221 4.14489 -3.17799 0
M  V30 6275 H 580.915 2.19655 -2.03451 0
M  V30 6276 H 578.461 1.05548 -0.979576 0
M  V30 6277 H 580.414 4.17031 -0.605215 0
M  V30 6278 H 579.138 3.25733 0.23782 0
M  V30 6279 H 577.797 3.14036 -1.89148 0
M  V30 6280 H 577.445 5.02208 -0.282128 0
M  V30 6281 H 577.145 5.53939 -1.96023 0
M  V30 6282 H 578.669 5.99713 -1.14789 0
M  V30 6283 H 580.083 4.82625 -3.09428 0
M  V30 6284 H 578.48 4.60094 -3.85271 0
M  V30 6285 H 579.55 3.20347 -3.64014 0
M  V30 6286 N 580.893 1.08022 1.14757 0
M  V30 6287 C 582.309 0.807072 1.3769 0
M  V30 6288 C 582.509 -0.585504 1.92806 0
M  V30 6289 O 581.565 -1.34301 2.13821 0
M  V30 6290 C 582.878 1.88651 2.34161 0
M  V30 6291 C 584.426 1.91206 2.47809 0
M  V30 6292 C 584.901 2.98253 3.47576 0
M  V30 6293 N 586.392 2.974 3.55117 0
M  V30 6294 C 587.127 3.76872 4.32152 0
M  V30 6295 N 586.623 4.66212 5.12463 0
M  V30 6296 N 588.416 3.6519 4.27309 0
M  V30 6297 H 580.567 1.97824 0.77326 0
M  V30 6298 H 582.83 0.85826 0.402608 0
M  V30 6299 H 582.536 2.88749 2.00791 0
M  V30 6300 H 582.41 1.75244 3.3402 0
M  V30 6301 H 584.797 0.917564 2.80472 0
M  V30 6302 H 584.878 2.08691 1.47925 0
M  V30 6303 H 584.522 3.97907 3.15646 0
M  V30 6304 H 584.452 2.78014 4.47231 0
M  V30 6305 H 586.943 2.32643 2.97801 0
M  V30 6306 H 587.256 5.23468 5.68508 0
M  V30 6307 H 585.601 4.70257 5.11745 0
M  V30 6308 H 588.792 2.94765 3.63636 0
M  V30 6309 H 588.965 4.27366 4.87095 0
M  V30 6310 N 582.371 -1.3172 0.865308 0
M  V30 6311 C 583.334 -2.26918 0.322627 0
M  V30 6312 C 584.334 -1.52031 -0.523751 0
M  V30 6313 O 585.524 -1.70973 -0.333727 0
M  V30 6314 C 582.656 -3.36558 -0.542338 0
M  V30 6315 H 583.849 -2.76432 1.16298 0
M  V30 6316 H 581.402 -1.42573 0.640512 0
M  V30 6317 H 582.137 -2.92329 -1.40407 0
M  V30 6318 H 581.922 -3.92048 0.0636395 0
M  V30 6319 H 583.412 -4.07465 -0.91446 0
M  V30 6320 N 583.85 -0.624285 -1.44708 0
M  V30 6321 C 585.099 -0.123539 -2.01321 0
M  V30 6322 C 585.412 1.25966 -1.49639 0
M  V30 6323 O 586.618 1.85405 -1.98336 0
M  V30 6324 C 585.074 -0.170124 -3.59498 0
M  V30 6325 C 584.682 -1.55421 -4.20176 0
M  V30 6326 C 586.426 0.274513 -4.23611 0
M  V30 6327 C 584.332 -1.55628 -5.70556 0
M  V30 6328 H 583.263 -0.0424183 -0.752806 0
M  V30 6329 H 585.913 -0.782076 -1.65999 0
M  V30 6330 H 584.296 0.555385 -3.92086 0
M  V30 6331 H 585.47 -2.30276 -3.99136 0
M  V30 6332 H 583.784 -1.94235 -3.68323 0
M  V30 6333 H 586.382 0.292402 -5.339 0
M  V30 6334 H 586.725 1.3005 -3.95465 0
M  V30 6335 H 587.258 -0.398275 -3.95801 0
M  V30 6336 H 583.997 -2.56041 -6.03426 0
M  V30 6337 H 583.517 -0.850563 -5.93739 0
M  V30 6338 H 585.196 -1.28721 -6.34066 0
M  V30 6339 N 585.328 1.53329 -0.364422 0
M  V30 6340 C 586.575 2.01239 0.225634 0
M  V30 6341 C 586.903 1.25172 1.48869 0
M  V30 6342 O 586.158 0.333289 1.92841 0
M  V30 6343 C 586.457 3.52911 0.564661 0
M  V30 6344 C 586.123 4.46837 -0.603936 0
M  V30 6345 C 584.785 4.72234 -0.924585 0
M  V30 6346 C 587.137 5.02409 -1.38691 0
M  V30 6347 C 584.465 5.50454 -2.0302 0
M  V30 6348 C 586.817 5.81836 -2.48293 0
M  V30 6349 C 585.481 6.0552 -2.80894 0
M  V30 6350 H 584.751 0.736386 0.0825654 0
M  V30 6351 H 587.398 1.84948 -0.496645 0
M  V30 6352 H 585.703 3.67144 1.36794 0
M  V30 6353 H 587.4 3.87455 1.03344 0
M  V30 6354 H 583.99 4.27217 -0.343983 0
M  V30 6355 H 588.174 4.82735 -1.15243 0
M  V30 6356 H 583.43 5.67024 -2.28678 0
M  V30 6357 H 587.604 6.23905 -3.0938 0
M  V30 6358 H 585.231 6.65916 -3.66688 0
M  V30 6359 N 586.806 0.0935595 1.57322 0
M  V30 6360 C 588.055 -0.570191 1.93473 0
M  V30 6361 C 588.368 -1.69434 0.977318 0
M  V30 6362 O 589.574 -2.41914 1.23248 0
M  V30 6363 C 588.03 -1.06564 3.43762 0
M  V30 6364 C 587.638 0.0286723 4.47991 0
M  V30 6365 C 589.382 -1.70221 3.88877 0
M  V30 6366 C 587.289 -0.482046 5.89432 0
M  V30 6367 H 586.219 -0.216764 0.72217 0
M  V30 6368 H 588.87 0.169313 1.82717 0
M  V30 6369 H 587.252 -1.85878 3.49664 0
M  V30 6370 H 588.426 0.804106 4.5373 0
M  V30 6371 H 586.741 0.570336 4.12476 0
M  V30 6372 H 589.338 -2.09502 4.91948 0
M  V30 6373 H 589.681 -2.57078 3.27439 0
M  V30 6374 H 590.214 -0.974919 3.85668 0
M  V30 6375 H 586.953 0.349871 6.54566 0
M  V30 6376 H 586.473 -1.22452 5.87167 0
M  V30 6377 H 588.152 -0.951508 6.39965 0
M  V30 6378 N 588.284 -1.56567 -0.180126 0
M  V30 6379 C 589.214 -1.98753 -1.22553 0
M  V30 6380 C 590.195 -0.86175 -1.46656 0
M  V30 6381 O 591.38 -1.12719 -1.58139 0
M  V30 6382 C 588.51 -2.33988 -2.56645 0
M  V30 6383 C 587.464 -3.49445 -2.47128 0
M  V30 6384 C 586.79 -3.70397 -3.8563 0
M  V30 6385 C 588.09 -4.83171 -1.98352 0
M  V30 6386 H 589.784 -2.86332 -0.874896 0
M  V30 6387 H 587.33 -1.37757 -0.419414 0
M  V30 6388 H 589.283 -2.62097 -3.29974 0
M  V30 6389 H 588.007 -1.43309 -2.93479 0
M  V30 6390 H 586.666 -3.2145 -1.76254 0
M  V30 6391 H 586.314 -2.77023 -4.19842 0
M  V30 6392 H 586.014 -4.48077 -3.80132 0
M  V30 6393 H 587.538 -4.00897 -4.60558 0
M  V30 6394 H 588.952 -5.10213 -2.61449 0
M  V30 6395 H 587.349 -5.64425 -2.03823 0
M  V30 6396 H 588.419 -4.75753 -0.937402 0
M  V30 6397 N 589.762 0.448376 -1.51087 0
M  V30 6398 C 590.71 1.56407 -1.72161 0
M  V30 6399 C 591.704 1.58878 -0.587721 0
M  V30 6400 O 592.91 1.62755 -0.768822 0
M  V30 6401 H 589.285 0.519423 -0.543786 0
M  V30 6402 H 591.256 1.35803 -2.65707 0
M  V30 6403 C 590.005 2.94163 -1.85373 0
M  V30 6404 H 589.328 2.9299 -2.72024 0
M  V30 6405 H 590.768 3.71625 -2.04135 0
M  V30 6406 C 589.227 3.31317 -0.610803 0
M  V30 6407 O 589.757 4.00985 0.239636 0
M  V30 6408 N 587.963 2.86966 -0.458127 0
M  V30 6409 H 587.51 2.30443 -1.15124 0
M  V30 6410 H 587.468 3.12188 0.372289 0
M  V30 6411 N 591.24 1.41047 0.703093 0
M  V30 6412 C 592.15 1.44645 1.84703 0
M  V30 6413 C 593.166 0.337778 1.7069 0
M  V30 6414 O 594.342 0.584327 1.92737 0
M  V30 6415 C 591.407 1.31928 3.20618 0
M  V30 6416 C 590.468 2.53047 3.46794 0
M  V30 6417 C 589.701 2.40927 4.76224 0
M  V30 6418 O 589.924 1.42978 5.5219 0
M  V30 6419 O 588.858 3.30543 5.03016 0
M  V30 6420 H 592.684 2.41139 1.84624 0
M  V30 6421 H 590.269 1.22504 0.855167 0
M  V30 6422 H 592.151 1.27092 4.01778 0
M  V30 6423 H 590.826 0.385469 3.21397 0
M  V30 6424 H 589.733 2.6346 2.65593 0
M  V30 6425 H 591.066 3.45231 3.50822 0
M  V30 6426 N 592.718 -0.936591 1.26751 0
M  V30 6427 C 593.681 -2.01752 1.08761 0
M  V30 6428 C 594.681 -1.60763 0.0344435 0
M  V30 6429 O 595.871 -1.71963 0.278258 0
M  V30 6430 C 593.003 -3.34543 0.655271 0
M  V30 6431 H 594.196 -2.19143 2.04735 0
M  V30 6432 H 591.749 -1.11618 1.09413 0
M  V30 6433 H 592.484 -3.22851 -0.30626 0
M  V30 6434 H 592.269 -3.65647 1.41578 0
M  V30 6435 H 593.759 -4.13944 0.551378 0
M  V30 6436 N 594.196 -1.08629 -1.14182 0
M  V30 6437 C 595.144 -0.71284 -2.21408 0
M  V30 6438 C 596.138 0.282457 -1.67029 0
M  V30 6439 O 597.344 0.144783 -1.79417 0
M  V30 6440 H 593.719 -0.212497 -0.721352 0
M  V30 6441 H 595.69 -1.6265 -2.50175 0
M  V30 6442 C 594.439 -0.140704 -3.47415 0
M  V30 6443 H 593.762 -0.897739 -3.8959 0
M  V30 6444 H 595.202 0.0827677 -4.23919 0
M  V30 6445 C 593.661 1.122 -3.17668 0
M  V30 6446 O 594.191 2.20652 -3.35672 0
M  V30 6447 N 592.397 1.03328 -2.71609 0
M  V30 6448 H 591.944 0.150666 -2.57159 0
M  V30 6449 H 591.902 1.8789 -2.52081 0
M  V30 6450 N 595.674 1.31259 -0.872281 0
M  V30 6451 C 596.622 2.30404 -0.318897 0
M  V30 6452 C 597.616 1.5962 0.567267 0
M  V30 6453 O 598.822 1.74204 0.453111 0
M  V30 6454 H 595.197 0.747243 -0.0844474 0
M  V30 6455 H 597.168 2.74549 -1.16899 0
M  V30 6456 C 595.917 3.44608 0.462683 0
M  V30 6457 H 595.24 3.99248 -0.209936 0
M  V30 6458 H 596.68 4.1609 0.815187 0
M  V30 6459 C 595.139 2.93456 1.65485 0
M  V30 6460 O 595.669 2.92418 2.75417 0
M  V30 6461 N 593.875 2.49628 1.48776 0
M  V30 6462 H 593.422 2.50671 0.593452 0
M  V30 6463 H 593.38 2.15759 2.28682 0
M  V30 6464 N 597.152 0.631951 1.44375 0
M  V30 6465 C 598.082 -0.0593243 2.33425 0
M  V30 6466 C 599.063 -0.833964 1.48253 0
M  V30 6467 O 600.248 -0.799682 1.76971 0
M  V30 6468 C 597.378 -1.04096 3.31333 0
M  V30 6469 C 596.332 -0.377899 4.26328 0
M  V30 6470 C 595.658 -1.4695 5.14111 0
M  V30 6471 C 596.958 0.716371 5.17364 0
M  V30 6472 H 598.652 0.684287 2.91475 0
M  V30 6473 H 596.198 0.330518 1.40156 0
M  V30 6474 H 598.151 -1.53331 3.92514 0
M  V30 6475 H 596.875 -1.81547 2.71493 0
M  V30 6476 H 595.534 0.0938054 3.6648 0
M  V30 6477 H 595.182 -2.2349 4.50623 0
M  V30 6478 H 594.882 -1.03121 5.78481 0
M  V30 6479 H 596.406 -1.96363 5.78164 0
M  V30 6480 H 597.82 0.307089 5.72477 0
M  V30 6481 H 596.217 1.07784 5.90341 0
M  V30 6482 H 597.287 1.58316 4.58327 0
M  V30 6483 N 598.631 -1.53133 0.372548 0
M  V30 6484 C 599.879 -2.00958 -0.214534 0
M  V30 6485 C 600.2 -1.26135 -1.48711 0
M  V30 6486 O 599.47 -0.376597 -1.92246 0
M  V30 6487 H 598.05 -0.742456 -0.0822664 0
M  V30 6488 H 600.712 -1.88367 0.500385 0
M  V30 6489 H 599.808 -3.09031 -0.436605 0
M  V30 6490 N 600.109 -0.101901 -1.5727 0
M  V30 6491 C 601.039 0.851544 -2.17419 0
M  V30 6492 C 602.02 1.28942 -1.10941 0
M  V30 6493 O 603.205 1.35509 -1.39107 0
M  V30 6494 C 600.335 2.10816 -2.75996 0
M  V30 6495 C 599.289 1.80867 -3.87906 0
M  V30 6496 C 598.615 3.13413 -4.33216 0
M  V30 6497 C 599.915 1.0903 -5.10793 0
M  V30 6498 H 601.609 0.350381 -2.97343 0
M  V30 6499 H 599.155 0.16709 -1.43027 0
M  V30 6500 H 601.108 2.77959 -3.16729 0
M  V30 6501 H 599.832 2.63227 -1.93337 0
M  V30 6502 H 598.491 1.16119 -3.47724 0
M  V30 6503 H 598.139 3.63725 -3.47438 0
M  V30 6504 H 597.839 2.94155 -5.08671 0
M  V30 6505 H 599.363 3.81704 -4.76586 0
M  V30 6506 H 600.777 1.66295 -5.48652 0
M  V30 6507 H 599.174 0.99927 -5.91722 0
M  V30 6508 H 600.244 0.0741704 -4.84843 0
M  V30 6509 N 601.587 1.56661 0.17182 0
M  V30 6510 C 602.517 1.99401 1.21498 0
M  V30 6511 C 603.498 0.869516 1.46197 0
M  V30 6512 O 604.683 1.13556 1.57539 0
M  V30 6513 C 601.813 2.35346 2.55401 0
M  V30 6514 C 600.767 3.5075 2.45272 0
M  V30 6515 C 600.093 3.72437 3.8366 0
M  V30 6516 C 601.393 4.84216 1.95787 0
M  V30 6517 H 603.087 2.86792 0.859699 0
M  V30 6518 H 600.633 1.37977 0.412103 0
M  V30 6519 H 602.586 2.63843 3.2858 0
M  V30 6520 H 601.31 1.44864 2.92715 0
M  V30 6521 H 599.969 3.2238 1.74547 0
M  V30 6522 H 599.617 2.79246 4.18367 0
M  V30 6523 H 599.317 4.50087 3.77751 0
M  V30 6524 H 600.841 4.03334 4.58426 0
M  V30 6525 H 602.255 5.11592 2.5874 0
M  V30 6526 H 600.652 5.65498 2.00827 0
M  V30 6527 H 601.722 4.76243 0.912159 0
M  V30 6528 N 603.065 -0.440357 1.51323 0
M  V30 6529 C 604.342 -1.20109 1.5438 0
M  V30 6530 C 604.722 -2.08866 0.306303 0
M  V30 6531 O 604.07 -2.1723 -0.708773 0
M  V30 6532 C 604.28 -2.00555 2.8562 0
M  V30 6533 C 605.628 -2.577 3.37455 0
M  V30 6534 O 606.652 -2.10769 2.8715 0
M  V30 6535 O 605.511 -3.43289 4.25224 0
M  V30 6536 H 602.605 -0.546668 0.620551 0
M  V30 6537 H 605.151 -0.449672 1.63634 0
M  V30 6538 H 603.923 -1.35346 3.67147 0
M  V30 6539 H 603.546 -2.82768 2.79514 0
M  V30 6540 N 604.543 -1.41418 -0.695603 0
M  V30 6541 C 605.954 -1.36335 -1.27552 0
M  V30 6542 C 606.305 -0.0464336 -1.96145 0
M  V30 6543 O 605.43 0.855304 -1.9878 0
M  V30 6544 C 606.025 -2.46941 -2.3196 0
M  V30 6545 C 604.584 -2.45256 -2.85529 0
M  V30 6546 C 603.731 -2.2679 -1.59566 0
M  V30 6547 H 606.682 -1.50934 -0.490362 0
M  V30 6548 H 606.703 -2.15997 -3.1325 0
M  V30 6549 H 606.215 -3.42775 -1.82008 0
M  V30 6550 H 604.316 -1.53179 -3.39657 0
M  V30 6551 H 604.429 -3.41565 -3.35961 0
M  V30 6552 H 602.793 -1.74667 -1.85374 0
M  V30 6553 H 603.576 -3.24651 -1.1161 0
M  V30 6554 N 606.021 0.929856 -1.27246 0
M  V30 6555 C 606.969 2.05151 -1.09616 0
M  V30 6556 C 607.963 1.69388 -0.0198617 0
M  V30 6557 O 609.169 1.79124 -0.177417 0
M  V30 6558 H 605.544 0.671909 -0.337701 0
M  V30 6559 H 607.515 2.17168 -2.04648 0
M  V30 6560 C 606.264 3.3934 -0.757851 0
M  V30 6561 H 605.587 3.67343 -1.57795 0
M  V30 6562 H 607.027 4.18603 -0.674358 0
M  V30 6563 C 605.486 3.32582 0.537658 0
M  V30 6564 O 606.016 3.69633 1.57271 0
M  V30 6565 N 604.222 2.8568 0.532478 0
M  V30 6566 H 603.769 2.55725 -0.310233 0
M  V30 6567 H 603.727 2.81541 1.39936 0
M  V30 6568 N 607.499 1.09233 1.13605 0
M  V30 6569 C 608.724 0.849067 1.89224 0
M  V30 6570 C 609.149 -0.593875 1.78479 0
M  V30 6571 O 608.507 -1.41703 1.13092 0
M  V30 6572 C 608.555 1.28642 3.36873 0
M  V30 6573 O 607.659 0.44363 4.10007 0
M  V30 6574 H 607 0.30767 0.588417 0
M  V30 6575 H 609.53 1.45595 1.43748 0
M  V30 6576 H 609.54 1.27096 3.87699 0
M  V30 6577 H 608.215 2.33729 3.44011 0
M  V30 6578 H 606.792 0.523241 3.69211 0
M  V30 6579 N 608.977 -1.30795 0.87923 0
M  V30 6580 C 610.223 -1.96653 0.495519 0
M  V30 6581 C 610.556 -1.69282 -0.951703 0
M  V30 6582 O 609.831 -0.994374 -1.6716 0
M  V30 6583 C 610.114 -3.51898 0.764174 0
M  V30 6584 C 609.967 -3.88808 2.2616 0
M  V30 6585 C 611.286 -4.39462 0.236825 0
M  V30 6586 H 608.405 -0.7143 0.181507 0
M  V30 6587 H 611.047 -1.54765 1.10217 0
M  V30 6588 H 609.197 -3.87709 0.247841 0
M  V30 6589 H 610.869 -3.63051 2.8459 0
M  V30 6590 H 609.112 -3.37082 2.73053 0
M  V30 6591 H 609.783 -4.97086 2.4002 0
M  V30 6592 H 612.259 -4.10528 0.678683 0
M  V30 6593 H 611.135 -5.47018 0.454176 0
M  V30 6594 H 611.396 -4.33621 -0.861683 0
M  V30 6595 N 610.455 -0.639598 -1.44038 0
M  V30 6596 C 611.68 -0.153117 -2.06834 0
M  V30 6597 C 612.105 1.16676 -1.47541 0
M  V30 6598 O 611.463 1.71769 -0.580093 0
M  V30 6599 C 611.511 -0.0609169 -3.60549 0
M  V30 6600 O 610.615 0.98071 -4.00569 0
M  V30 6601 H 609.956 -0.0886402 -0.658057 0
M  V30 6602 H 612.486 -0.878674 -1.84771 0
M  V30 6603 H 612.496 0.126892 -4.07803 0
M  V30 6604 H 611.171 -1.0245 -4.03084 0
M  V30 6605 H 609.748 0.766789 -3.64931 0
M  V30 6606 N 611.933 1.52934 -0.380664 0
M  V30 6607 C 612.863 2.29118 0.450268 0
M  V30 6608 C 613.844 1.32153 1.07096 0
M  V30 6609 O 615.029 1.61038 1.08537 0
M  V30 6610 C 612.159 3.09161 1.58231 0
M  V30 6611 C 611.113 4.13938 1.0881 0
M  V30 6612 C 610.439 4.82153 2.31155 0
M  V30 6613 C 611.739 5.22048 0.162146 0
M  V30 6614 H 613.433 2.98826 -0.185361 0
M  V30 6615 H 610.979 1.43715 -0.0905886 0
M  V30 6616 H 612.932 3.61211 2.17036 0
M  V30 6617 H 611.656 2.3717 2.2454 0
M  V30 6618 H 610.315 3.62855 0.522633 0
M  V30 6619 H 609.963 4.06719 2.95953 0
M  V30 6620 H 609.663 5.52966 1.98752 0
M  V30 6621 H 611.187 5.37004 2.90618 0
M  V30 6622 H 612.601 5.6951 0.658126 0
M  V30 6623 H 610.998 6.00057 -0.0717122 0
M  V30 6624 H 612.068 4.78398 -0.791438 0
M  V30 6625 N 613.412 0.11024 1.57214 0
M  V30 6626 C 614.661 -0.549638 1.94067 0
M  V30 6627 C 614.974 -1.68388 0.995234 0
M  V30 6628 O 616.18 -2.40593 1.25807 0
M  V30 6629 C 614.636 -1.02912 3.44873 0
M  V30 6630 C 614.244 0.0761861 4.47935 0
M  V30 6631 C 615.988 -1.66087 3.9066 0
M  V30 6632 C 613.895 -0.419502 5.8991 0
M  V30 6633 H 612.825 -0.209092 0.724428 0
M  V30 6634 H 615.476 0.188683 1.82527 0
M  V30 6635 H 613.858 -1.82159 3.51616 0
M  V30 6636 H 615.032 0.852185 4.52851 0
M  V30 6637 H 613.347 0.614052 4.11847 0
M  V30 6638 H 615.944 -2.04272 4.94143 0
M  V30 6639 H 616.287 -2.53591 3.30148 0
M  V30 6640 H 616.82 -0.933959 3.86681 0
M  V30 6641 H 613.559 0.419277 6.54158 0
M  V30 6642 H 613.079 -1.16217 5.88433 0
M  V30 6643 H 614.758 -0.883577 6.40938 0
M  V30 6644 N 614.89 -1.56749 -0.16351 0
M  V30 6645 C 616.139 -1.81626 -0.877211 0
M  V30 6646 C 616.452 -0.688791 -1.83071 0
M  V30 6647 O 617.658 -0.822697 -2.58735 0
M  V30 6648 C 616.114 -3.21858 -1.61045 0
M  V30 6649 C 615.722 -4.42494 -0.700195 0
M  V30 6650 C 617.466 -3.56021 -2.31192 0
M  V30 6651 C 615.373 -5.73748 -1.43412 0
M  V30 6652 H 614.303 -0.67731 -0.331312 0
M  V30 6653 H 616.954 -1.83039 -0.13006 0
M  V30 6654 H 615.336 -3.14784 -2.40264 0
M  V30 6655 H 616.51 -4.60766 0.0555849 0
M  V30 6656 H 614.825 -4.1626 -0.10799 0
M  V30 6657 H 617.422 -4.51333 -2.8671 0
M  V30 6658 H 617.765 -2.81277 -3.06902 0
M  V30 6659 H 618.298 -3.64682 -1.58909 0
M  V30 6660 H 615.037 -6.51543 -0.719186 0
M  V30 6661 H 614.557 -5.5944 -2.16302 0
M  V30 6662 H 616.236 -6.15975 -1.9795 0
M  V30 6663 N 616.368 0.432326 -1.51554 0
M  V30 6664 C 617.298 1.53242 -1.76179 0
M  V30 6665 C 618.279 1.58717 -0.611801 0
M  V30 6666 O 619.464 1.74364 -0.855033 0
M  V30 6667 C 616.594 2.91278 -1.89141 0
M  V30 6668 C 615.548 3.00663 -3.04608 0
M  V30 6669 C 614.874 4.40728 -3.02759 0
M  V30 6670 C 616.174 2.74281 -4.44485 0
M  V30 6671 H 617.868 1.32886 -2.68294 0
M  V30 6672 H 615.414 0.637841 -1.29103 0
M  V30 6673 H 617.367 3.68203 -2.04951 0
M  V30 6674 H 616.091 3.12877 -0.936785 0
M  V30 6675 H 614.75 2.26179 -2.88511 0
M  V30 6676 H 614.398 4.59301 -2.05065 0
M  V30 6677 H 614.098 4.47936 -3.80299 0
M  V30 6678 H 615.622 5.19619 -3.20669 0
M  V30 6679 H 617.036 3.40936 -4.60907 0
M  V30 6680 H 615.433 2.92893 -5.23769 0
M  V30 6681 H 616.503 1.69856 -4.54177 0
M  V30 6682 N 617.846 1.41785 0.688094 0
M  V30 6683 C 619.092 1.41753 1.4503 0
M  V30 6684 C 619.425 0.0290745 1.94178 0
M  V30 6685 O 618.7 -0.944456 1.7003 0
M  V30 6686 C 618.983 2.43069 2.65686 0
M  V30 6687 C 618.836 3.91053 2.22256 0
M  V30 6688 C 620.155 2.41543 3.67893 0
M  V30 6689 H 617.274 0.516202 0.526027 0
M  V30 6690 H 619.916 1.73111 0.783105 0
M  V30 6691 H 618.066 2.1646 3.2261 0
M  V30 6692 H 619.738 4.28594 1.70602 0
M  V30 6693 H 617.981 4.05559 1.53963 0
M  V30 6694 H 618.652 4.57501 3.08863 0
M  V30 6695 H 621.128 2.65175 3.20658 0
M  V30 6696 H 620.004 3.14434 4.49914 0
M  V30 6697 H 620.265 1.43666 4.18106 0
M  V30 6698 N 619.324 -0.923095 1.27737 0
M  V30 6699 C 620.549 -1.71054 1.17283 0
M  V30 6700 C 620.974 -1.86208 -0.266153 0
M  V30 6701 O 620.332 -1.36545 -1.1927 0
M  V30 6702 C 620.38 -3.0854 1.86642 0
M  V30 6703 O 619.484 -3.95528 1.16752 0
M  V30 6704 H 618.825 -0.524136 0.407649 0
M  V30 6705 H 621.355 -1.15487 1.6889 0
M  V30 6706 H 621.365 -3.58828 1.94182 0
M  V30 6707 H 620.04 -2.96828 2.91317 0
M  V30 6708 H 618.617 -3.53967 1.17312 0
M  V30 6709 N 620.802 -1.09834 -1.13024 0
M  V30 6710 C 622.079 -0.749225 -1.80682 0
M  V30 6711 C 622.459 0.765171 -1.96744 0
M  V30 6712 O 621.807 1.68912 -1.53886 0
M  V30 6713 C 622.017 -1.49311 -3.15448 0
M  V30 6714 C 623.365 -1.66162 -3.90737 0
M  V30 6715 O 624.389 -1.45597 -3.25085 0
M  V30 6716 O 623.248 -2.00211 -5.08505 0
M  V30 6717 H 620.342 -0.269614 -0.781817 0
M  V30 6718 H 622.888 -1.20078 -1.19914 0
M  V30 6719 H 621.66 -2.52407 -2.99009 0
M  V30 6720 H 621.283 -1.034 -3.8392 0
M  V30 6721 N 622.28 1.30327 -0.886154 0
M  V30 6722 C 623.528 1.9571 -0.504195 0
M  V30 6723 C 623.849 1.70294 0.950003 0
M  V30 6724 O 623.119 1.02718 1.66811 0
M  V30 6725 H 621.699 0.72412 -0.183465 0
M  V30 6726 H 624.361 1.58835 -1.12949 0
M  V30 6727 H 623.457 3.04704 -0.675431 0
M  V30 6728 N 623.758 0.647228 1.43697 0
M  V30 6729 C 625.035 0.0883758 1.954 0
M  V30 6730 C 625.415 -1.39006 1.58873 0
M  V30 6731 O 624.763 -2.11255 0.87083 0
M  V30 6732 C 624.973 0.328263 3.47453 0
M  V30 6733 C 626.321 0.230009 4.23977 0
M  V30 6734 O 627.345 0.260496 3.55246 0
M  V30 6735 O 626.204 0.148615 5.46298 0
M  V30 6736 H 623.298 -0.0130683 0.826897 0
M  V30 6737 H 625.844 0.72005 1.53666 0
M  V30 6738 H 624.616 1.3535 3.67146 0
M  V30 6739 H 624.239 -0.336772 3.96171 0
M  V30 6740 N 625.236 -1.5273 0.388769 0
M  V30 6741 C 626.647 -1.86505 -0.0853788 0
M  V30 6742 C 626.998 -1.30847 -1.46197 0
M  V30 6743 O 626.123 -0.639609 -2.06732 0
M  V30 6744 C 626.718 -3.38414 -0.161703 0
M  V30 6745 C 625.277 -3.71902 -0.580144 0
M  V30 6746 C 624.424 -2.76095 0.258218 0
M  V30 6747 H 627.375 -1.46647 0.606665 0
M  V30 6748 H 627.396 -3.67638 -0.980936 0
M  V30 6749 H 626.908 -3.78893 0.840333 0
M  V30 6750 H 625.009 -3.36992 -1.58957 0
M  V30 6751 H 625.122 -4.77902 -0.338663 0
M  V30 6752 H 623.486 -2.53195 -0.276432 0
M  V30 6753 H 624.269 -3.19411 1.25822 0
M  V30 6754 N 626.714 -0.118576 -1.57153 0
M  V30 6755 C 627.942 0.54726 -1.99531 0
M  V30 6756 C 628.357 1.60251 -0.998246 0
M  V30 6757 O 627.714 1.82498 0.00893106 0
M  V30 6758 C 627.765 1.17378 -3.41913 0
M  V30 6759 O 627.486 0.160703 -4.37805 0
M  V30 6760 C 628.987 1.92297 -3.9942 0
M  V30 6761 H 626.207 0.144919 -0.655164 0
M  V30 6762 H 628.751 -0.20479 -2.03472 0
M  V30 6763 H 626.906 1.87661 -3.38913 0
M  V30 6764 H 627.32 0.61586 -5.20872 0
M  V30 6765 H 628.794 2.31462 -5.01128 0
M  V30 6766 H 629.271 2.79801 -3.38538 0
M  V30 6767 H 629.877 1.26777 -4.05965 0
M  V30 6768 N 628.193 1.56834 0.155195 0
M  V30 6769 C 629.439 1.83169 0.870467 0
M  V30 6770 C 629.772 0.698929 1.81187 0
M  V30 6771 O 629.047 -0.298035 1.92203 0
M  V30 6772 C 629.33 3.19965 1.65211 0
M  V30 6773 C 629.183 4.43792 0.732744 0
M  V30 6774 C 630.502 3.53885 2.61636 0
M  V30 6775 H 627.621 0.666288 0.315006 0
M  V30 6776 H 630.263 1.89513 0.135988 0
M  V30 6777 H 628.413 3.14687 2.27825 0
M  V30 6778 H 630.085 4.61148 0.118236 0
M  V30 6779 H 628.328 4.3378 0.0417906 0
M  V30 6780 H 628.999 5.36095 1.31552 0
M  V30 6781 H 631.475 3.5972 2.09143 0
M  V30 6782 H 630.351 4.50648 3.13381 0
M  V30 6783 H 630.612 2.79418 3.42605 0
M  V30 6784 N 629.671 -0.424282 1.51781 0
M  V30 6785 C 630.919 -1.17028 1.64769 0
M  V30 6786 C 631.24 -1.91409 0.372523 0
M  V30 6787 O 630.51 -1.86091 -0.612108 0
M  V30 6788 H 629.09 -0.434992 0.607282 0
M  V30 6789 H 631.752 -0.485169 1.88765 0
M  V30 6790 H 630.848 -1.8927 2.4816 0
M  V30 6791 N 631.149 -1.42148 -0.680565 0
M  V30 6792 C 632.059 -1.47565 -1.82378 0
M  V30 6793 C 633.075 -0.36489 -1.70131 0
M  V30 6794 O 634.251 -0.614916 -1.91783 0
M  V30 6795 C 631.316 -1.37013 -3.18478 0
M  V30 6796 C 630.377 -2.58532 -3.42724 0
M  V30 6797 C 629.61 -2.48473 -4.72331 0
M  V30 6798 O 629.833 -1.51745 -5.49845 0
M  V30 6799 O 628.767 -3.38503 -4.97694 0
M  V30 6800 H 632.593 -2.44045 -1.80764 0
M  V30 6801 H 630.178 -1.23849 -0.835569 0
M  V30 6802 H 632.06 -1.33468 -3.99705 0
M  V30 6803 H 630.735 -0.436552 -3.20743 0
M  V30 6804 H 629.642 -2.67652 -2.61368 0
M  V30 6805 H 630.975 -3.50769 -3.45286 0
M  V30 6806 N 632.627 0.916307 -1.28225 0
M  V30 6807 C 633.557 2.0352 -1.14464 0
M  V30 6808 C 634.538 1.70045 -0.0430844 0
M  V30 6809 O 635.723 1.92954 -0.219619 0
M  V30 6810 C 632.853 3.37889 -0.803027 0
M  V30 6811 C 631.807 3.85516 -1.85908 0
M  V30 6812 C 631.133 5.1682 -1.37116 0
M  V30 6813 C 632.433 4.07655 -3.26519 0
M  V30 6814 H 634.127 2.1529 -2.08064 0
M  V30 6815 H 631.673 1.03446 -1.00174 0
M  V30 6816 H 633.626 4.15654 -0.693537 0
M  V30 6817 H 632.35 3.26164 0.168674 0
M  V30 6818 H 631.009 3.09953 -1.95767 0
M  V30 6819 H 630.657 5.01497 -0.38859 0
M  V30 6820 H 630.357 5.49657 -2.07728 0
M  V30 6821 H 631.881 5.97143 -1.27484 0
M  V30 6822 H 633.295 4.75953 -3.19596 0
M  V30 6823 H 631.692 4.51818 -3.94943 0
M  V30 6824 H 632.762 3.12553 -3.70727 0
M  V30 6825 N 634.105 1.10431 1.1244 0
M  V30 6826 C 635.052 0.753103 2.18167 0
M  V30 6827 C 636.022 -0.270549 1.63882 0
M  V30 6828 O 637.207 -0.149837 1.90211 0
M  V30 6829 C 634.347 0.191046 3.44571 0
M  V30 6830 C 633.46 1.26999 4.12911 0
M  V30 6831 C 632.595 0.669586 5.26963 0
M  V30 6832 C 631.634 1.72912 5.87169 0
M  V30 6833 N 630.771 1.14898 6.92635 0
M  V30 6834 H 635.611 1.65892 2.47556 0
M  V30 6835 H 633.148 0.828631 1.21541 0
M  V30 6836 H 635.106 -0.152712 4.1692 0
M  V30 6837 H 633.736 -0.677997 3.15599 0
M  V30 6838 H 632.788 1.73087 3.3874 0
M  V30 6839 H 634.1 2.07204 4.53727 0
M  V30 6840 H 633.254 0.275274 6.06075 0
M  V30 6841 H 631.993 -0.163895 4.87425 0
M  V30 6842 H 630.998 2.13286 5.06744 0
M  V30 6843 H 632.223 2.56544 6.28778 0
M  V30 6844 H 630.169 0.336956 6.55134 0
M  V30 6845 H 630.086 1.88786 7.32049 0
M  V30 6846 H 631.354 0.78121 7.75576 0
M  V30 6847 N 635.583 -1.29855 0.893053 0
M  V30 6848 C 636.513 -2.3035 0.382249 0
M  V30 6849 C 637.494 -1.61328 -0.539203 0
M  V30 6850 O 638.679 -1.88882 -0.451342 0
M  V30 6851 C 635.809 -3.45024 -0.396983 0
M  V30 6852 C 634.763 -4.258 0.433437 0
M  V30 6853 C 634.089 -5.32605 -0.472889 0
M  V30 6854 C 635.389 -4.94549 1.67984 0
M  V30 6855 H 637.083 -2.73325 1.22205 0
M  V30 6856 H 634.629 -1.314 0.589073 0
M  V30 6857 H 636.582 -4.14398 -0.765024 0
M  V30 6858 H 635.306 -3.00875 -1.2705 0
M  V30 6859 H 633.965 -3.58125 0.783723 0
M  V30 6860 H 633.613 -4.84702 -1.34435 0
M  V30 6861 H 633.313 -5.87547 0.0789958 0
M  V30 6862 H 634.837 -6.04832 -0.837269 0
M  V30 6863 H 636.251 -5.56395 1.38192 0
M  V30 6864 H 634.648 -5.59393 2.17254 0
M  V30 6865 H 635.718 -4.20215 2.41965 0
M  V30 6866 N 637.061 -0.65484 -1.43351 0
M  V30 6867 C 638.286 -0.175046 -2.0666 0
M  V30 6868 C 638.711 1.15104 -1.4877 0
M  V30 6869 O 638.069 1.71144 -0.598279 0
M  V30 6870 C 638.117 -0.0991544 -3.60464 0
M  V30 6871 O 637.221 0.938169 -4.01587 0
M  V30 6872 H 636.562 -0.0956148 -0.65708 0
M  V30 6873 H 639.092 -0.898222 -1.83829 0
M  V30 6874 H 639.102 0.083632 -4.07914 0
M  V30 6875 H 637.777 -1.06719 -4.01975 0
M  V30 6876 H 636.354 0.72804 -3.65724 0
M  V30 6877 N 638.539 1.52521 -0.396863 0
M  V30 6878 C 639.486 2.26671 0.434624 0
M  V30 6879 C 640.456 1.28584 1.05144 0
M  V30 6880 O 641.641 1.57426 1.07804 0
M  V30 6881 C 638.781 3.08234 1.55196 0
M  V30 6882 C 637.894 4.21261 0.957262 0
M  V30 6883 C 637.029 4.90205 2.04627 0
M  V30 6884 C 636.068 5.95213 1.42787 0
M  V30 6885 N 635.205 6.57723 2.45651 0
M  V30 6886 H 640.045 2.973 -0.204139 0
M  V30 6887 H 637.582 1.46669 -0.112505 0
M  V30 6888 H 639.54 3.53819 2.2106 0
M  V30 6889 H 638.17 2.398 2.16092 0
M  V30 6890 H 637.222 3.79935 0.188005 0
M  V30 6891 H 638.534 4.96624 0.465416 0
M  V30 6892 H 637.688 5.39133 2.78246 0
M  V30 6893 H 636.427 4.14383 2.57174 0
M  V30 6894 H 635.432 5.45616 0.676968 0
M  V30 6895 H 636.657 6.72972 0.910255 0
M  V30 6896 H 634.603 5.84737 2.97353 0
M  V30 6897 H 634.52 7.28723 2.01243 0
M  V30 6898 H 635.788 7.11293 3.18876 0
M  V30 6899 N 640.017 0.126909 1.57088 0
M  V30 6900 C 641.266 -0.529024 1.94639 0
M  V30 6901 C 641.579 -1.67323 1.01304 0
M  V30 6902 O 642.785 -2.39245 1.28352 0
M  V30 6903 C 641.241 -0.992483 3.45945 0
M  V30 6904 C 640.849 0.123691 4.47829 0
M  V30 6905 C 642.593 -1.61934 3.924 0
M  V30 6906 C 640.5 -0.356911 5.90322 0
M  V30 6907 H 639.43 -0.201397 0.726605 0
M  V30 6908 H 642.081 0.208032 1.82317 0
M  V30 6909 H 640.463 -1.7842 3.53528 0
M  V30 6910 H 641.637 0.900168 4.51922 0
M  V30 6911 H 639.952 0.657699 4.11173 0
M  V30 6912 H 642.549 -1.9902 4.96281 0
M  V30 6913 H 642.892 -2.50075 3.32819 0
M  V30 6914 H 643.425 -0.892894 3.8765 0
M  V30 6915 H 640.164 0.488636 6.53676 0
M  V30 6916 H 639.684 -1.0997 5.89633 0
M  V30 6917 H 641.363 -0.815547 6.41839 0
M  V30 6918 N 641.495 -1.56914 -0.146875 0
M  V30 6919 C 642.427 -1.94878 -1.20645 0
M  V30 6920 C 643.44 -0.844633 -1.39175 0
M  V30 6921 O 644.629 -1.12304 -1.38744 0
M  V30 6922 C 641.729 -2.20769 -2.57127 0
M  V30 6923 C 640.902 -3.52053 -2.59572 0
M  V30 6924 C 639.961 -3.66482 -3.77594 0
M  V30 6925 O 638.987 -4.38873 -3.62462 0
M  V30 6926 N 640.189 -3.03156 -4.95052 0
M  V30 6927 H 642.954 -2.86374 -0.883757 0
M  V30 6928 H 640.515 -1.58366 -0.336436 0
M  V30 6929 H 642.507 -2.27664 -3.34591 0
M  V30 6930 H 641.077 -1.35538 -2.81688 0
M  V30 6931 H 640.297 -3.56598 -1.68023 0
M  V30 6932 H 641.585 -4.38396 -2.58238 0
M  V30 6933 H 640.983 -2.44258 -5.10249 0
M  V30 6934 H 639.54 -3.15611 -5.70292 0
M  V30 6935 N 642.974 0.416227 -1.52004 0
M  V30 6936 C 643.921 1.50666 -1.74838 0
M  V30 6937 C 644.891 1.55245 -0.590599 0
M  V30 6938 O 646.076 1.71928 -0.827374 0
M  V30 6939 C 643.216 2.88185 -1.89851 0
M  V30 6940 C 642.329 2.92971 -3.17478 0
M  V30 6941 C 641.464 4.21745 -3.22962 0
M  V30 6942 C 640.503 4.20478 -4.4482 0
M  V30 6943 N 639.64 5.40811 -4.47736 0
M  V30 6944 H 644.48 1.30498 -2.67907 0
M  V30 6945 H 642.017 0.633568 -1.32757 0
M  V30 6946 H 643.975 3.68007 -1.96537 0
M  V30 6947 H 642.605 3.06865 -1.00169 0
M  V30 6948 H 641.657 2.05684 -3.19997 0
M  V30 6949 H 642.969 2.87899 -4.07328 0
M  V30 6950 H 642.123 5.09954 -3.28682 0
M  V30 6951 H 640.862 4.29503 -2.31038 0
M  V30 6952 H 639.867 3.30659 -4.39254 0
M  V30 6953 H 641.092 4.14366 -5.38031 0
M  V30 6954 H 639.038 5.4925 -3.58692 0
M  V30 6955 H 638.955 5.37705 -5.31422 0
M  V30 6956 H 640.223 6.30993 -4.57676 0
M  V30 6957 N 644.452 1.42507 0.673017 0
M  V30 6958 C 645.4 1.46362 1.80779 0
M  V30 6959 C 646.394 0.339166 1.6597 0
M  V30 6960 O 647.6 0.512262 1.72557 0
M  V30 6961 H 643.975 0.458433 0.596107 0
M  V30 6962 H 645.946 2.41953 1.74646 0
M  V30 6963 C 644.695 1.38462 3.18941 0
M  V30 6964 H 644.018 2.24283 3.30964 0
M  V30 6965 H 645.458 1.45221 3.98355 0
M  V30 6966 C 643.917 0.0996354 3.36753 0
M  V30 6967 O 644.447 -0.846894 3.92671 0
M  V30 6968 N 642.653 0.016211 2.90595 0
M  V30 6969 H 642.2 0.78725 2.45276 0
M  V30 6970 H 642.158 -0.84291 3.0289 0
M  V30 6971 N 645.93 -0.909495 1.28709 0
M  V30 6972 C 647.176 -1.66151 1.16283 0
M  V30 6973 C 647.509 -1.92067 -0.287069 0
M  V30 6974 O 646.784 -1.52409 -1.20837 0
M  V30 6975 C 647.067 -3.01676 1.9663 0
M  V30 6976 C 646.92 -2.82888 3.49707 0
M  V30 6977 C 648.239 -4.02274 1.78504 0
M  V30 6978 H 645.358 -0.602966 0.423793 0
M  V30 6979 H 648 -1.05418 1.58073 0
M  V30 6980 H 646.15 -3.53515 1.61119 0
M  V30 6981 H 647.822 -2.38026 3.95147 0
M  V30 6982 H 646.065 -2.17862 3.75125 0
M  V30 6983 H 646.736 -3.79147 4.01187 0
M  V30 6984 H 649.212 -3.59511 2.09503 0
M  V30 6985 H 648.088 -4.95056 2.37088 0
M  V30 6986 H 648.349 -4.35903 0.737647 0
M  V30 6987 N 647.408 -1.11026 -1.11852 0
M  V30 6988 C 648.355 -0.764662 -2.17765 0
M  V30 6989 C 649.325 0.261854 -1.64023 0
M  V30 6990 O 650.51 0.139748 -1.90288 0
M  V30 6991 C 647.65 -0.209317 -3.44465 0
M  V30 6992 C 646.763 -1.29187 -4.12231 0
M  V30 6993 C 645.898 -0.697523 -5.266 0
M  V30 6994 C 644.937 -1.76023 -5.86244 0
M  V30 6995 N 644.074 -1.18569 -6.92016 0
M  V30 6996 H 648.914 -1.67202 -2.46673 0
M  V30 6997 H 646.451 -0.835065 -1.21099 0
M  V30 6998 H 648.409 0.130599 -4.16996 0
M  V30 6999 H 647.039 0.661251 -3.15955 0
M  V30 7000 H 646.091 -1.74881 -3.37818 0
M  V30 7001 H 647.403 -2.09607 -4.52622 0
M  V30 7002 H 646.557 -0.307412 -6.05921 0
M  V30 7003 H 645.296 0.138044 -4.87505 0
M  V30 7004 H 644.301 -2.1597 -5.05606 0
M  V30 7005 H 645.526 -2.59875 -6.27409 0
M  V30 7006 H 643.472 -0.371695 -6.54946 0
M  V30 7007 H 643.389 -1.92666 -7.31038 0
M  V30 7008 H 644.657 -0.82233 -7.7515 0
M  V30 7009 N 648.886 1.2938 -0.899927 0
M  V30 7010 C 649.796 2.31462 -0.382437 0
M  V30 7011 C 650.812 1.65956 0.522929 0
M  V30 7012 O 651.988 1.97131 0.412454 0
M  V30 7013 C 649.053 3.44595 0.381472 0
M  V30 7014 C 648.114 4.25692 -0.555444 0
M  V30 7015 C 647.347 5.33422 0.172102 0
M  V30 7016 O 647.57 5.53053 1.396 0
M  V30 7017 O 646.504 5.99939 -0.485491 0
M  V30 7018 H 650.33 2.77706 -1.22934 0
M  V30 7019 H 647.915 1.33821 -0.664259 0
M  V30 7020 H 649.797 4.13474 0.813442 0
M  V30 7021 H 648.472 3.00458 1.20443 0
M  V30 7022 H 647.379 3.59453 -1.03653 0
M  V30 7023 H 648.712 4.73471 -1.34483 0
M  V30 7024 N 650.364 0.662433 1.43002 0
M  V30 7025 C 651.312 -0.035345 2.32573 0
M  V30 7026 C 652.306 -0.803505 1.49131 0
M  V30 7027 O 653.512 -0.712865 1.65282 0
M  V30 7028 H 649.887 -0.0302194 0.751393 0
M  V30 7029 H 651.858 0.737686 2.89138 0
M  V30 7030 C 650.607 -0.981575 3.33557 0
M  V30 7031 H 649.93 -0.399914 3.97795 0
M  V30 7032 H 651.37 -1.43873 3.98844 0
M  V30 7033 C 649.829 -2.08204 2.64863 0
M  V30 7034 O 650.359 -3.16698 2.47113 0
M  V30 7035 N 648.565 -1.85022 2.24088 0
M  V30 7036 H 648.112 -0.967909 2.38724 0
M  V30 7037 H 648.07 -2.58845 1.78457 0
M  V30 7038 N 651.842 -1.52309 0.404946 0
M  V30 7039 C 653.091 -2.00952 -0.173529 0
M  V30 7040 C 653.404 -1.29512 -1.46581 0
M  V30 7041 O 654.61 -1.6895 -2.12528 0
M  V30 7042 C 653.066 -3.58097 -0.359801 0
M  V30 7043 C 652.674 -4.38449 0.920138 0
M  V30 7044 C 654.418 -4.14984 -0.893794 0
M  V30 7045 C 652.325 -5.87227 0.701285 0
M  V30 7046 H 651.255 -0.750871 -0.0686244 0
M  V30 7047 H 653.906 -1.75687 0.529749 0
M  V30 7048 H 652.288 -3.79675 -1.12531 0
M  V30 7049 H 653.462 -4.28633 1.69147 0
M  V30 7050 H 651.777 -3.92859 1.38024 0
M  V30 7051 H 654.374 -5.23813 -1.0735 0
M  V30 7052 H 654.717 -3.72072 -1.8673 0
M  V30 7053 H 655.25 -3.97358 -0.187453 0
M  V30 7054 H 651.989 -6.34491 1.64624 0
M  V30 7055 H 651.509 -5.99792 -0.0308288 0
M  V30 7056 H 653.188 -6.46096 0.341846 0
M  V30 7057 N 653.32 -0.135238 -1.57019 0
M  V30 7058 C 654.252 0.839675 -2.13265 0
M  V30 7059 C 655.265 1.21887 -1.07923 0
M  V30 7060 O 656.454 1.16499 -1.35241 0
M  V30 7061 C 653.554 2.13647 -2.63075 0
M  V30 7062 C 652.727 1.92646 -3.92691 0
M  V30 7063 C 651.786 3.06205 -4.27931 0
M  V30 7064 O 650.812 2.78409 -4.96465 0
M  V30 7065 N 652.014 4.33072 -3.86561 0
M  V30 7066 H 654.779 0.359026 -2.97542 0
M  V30 7067 H 652.34 0.0486979 -1.61827 0
M  V30 7068 H 654.332 2.88641 -2.8367 0
M  V30 7069 H 652.902 2.5301 -1.83588 0
M  V30 7070 H 652.122 1.01754 -3.80841 0
M  V30 7071 H 653.41 1.75939 -4.77413 0
M  V30 7072 H 652.808 4.58526 -3.31316 0
M  V30 7073 H 651.365 5.04885 -4.12231 0
M  V30 7074 N 654.798 1.5699 0.138552 0
M  V30 7075 C 656.075 1.74741 0.87891 0
M  V30 7076 C 656.455 0.705522 1.98961 0
M  V30 7077 O 655.803 -0.274066 2.2685 0
M  V30 7078 C 656.013 3.1909 1.4136 0
M  V30 7079 C 657.361 3.81023 1.87368 0
M  V30 7080 O 658.385 3.22571 1.51084 0
M  V30 7081 O 657.244 4.83722 2.54312 0
M  V30 7082 H 654.338 0.714781 0.415953 0
M  V30 7083 H 656.884 1.69248 0.123817 0
M  V30 7084 H 655.656 3.86424 0.61579 0
M  V30 7085 H 655.279 3.29043 2.23196 0
M  V30 7086 N 656.276 -0.40816 1.52223 0
M  V30 7087 C 657.224 -1.51788 1.76248 0
M  V30 7088 C 658.218 -1.57264 0.629638 0
M  V30 7089 O 659.424 -1.60659 0.811704 0
M  V30 7090 H 655.799 -0.504823 0.557367 0
M  V30 7091 H 657.77 -1.2871 2.69214 0
M  V30 7092 C 656.519 -2.89145 1.93107 0
M  V30 7093 H 655.842 -2.85674 2.79697 0
M  V30 7094 H 657.282 -3.66082 2.13916 0
M  V30 7095 C 655.741 -3.29581 0.698431 0
M  V30 7096 O 656.271 -4.01479 -0.133238 0
M  V30 7097 N 654.477 -2.85651 0.53405 0
M  V30 7098 H 654.024 -2.2731 1.21194 0
M  V30 7099 H 653.982 -3.13065 -0.289387 0
M  V30 7100 N 657.755 -1.42862 -0.66545 0
M  V30 7101 C 659.004 -1.43119 -1.42126 0
M  V30 7102 C 659.317 -0.0545297 -1.95524 0
M  V30 7103 O 660.523 0.0654747 -2.71421 0
M  V30 7104 C 658.979 -2.51797 -2.5715 0
M  V30 7105 C 658.587 -3.95514 -2.10411 0
M  V30 7106 C 660.331 -2.61233 -3.346 0
M  V30 7107 C 658.238 -4.95682 -3.22573 0
M  V30 7108 H 657.168 -0.532349 -0.533966 0
M  V30 7109 H 659.819 -1.68806 -0.719506 0
M  V30 7110 H 658.201 -2.19292 -3.29738 0
M  V30 7111 H 659.375 -4.3742 -1.44915 0
M  V30 7112 H 657.69 -3.90012 -1.45874 0
M  V30 7113 H 660.287 -3.33248 -4.18151 0
M  V30 7114 H 660.63 -1.65896 -3.81817 0
M  V30 7115 H 661.163 -2.9298 -2.69087 0
M  V30 7116 H 657.902 -5.92529 -2.80338 0
M  V30 7117 H 657.422 -4.58399 -3.86821 0
M  V30 7118 H 659.101 -5.17828 -3.87896 0
M  V30 7119 N 659.233 0.902656 -1.29189 0
M  V30 7120 C 660.458 1.69167 -1.19989 0
M  V30 7121 C 660.883 1.86607 0.236495 0
M  V30 7122 O 660.241 1.38425 1.17082 0
M  V30 7123 C 660.289 3.05532 -1.91527 0
M  V30 7124 O 659.393 3.93621 -1.2303 0
M  V30 7125 H 658.734 0.517584 -0.415936 0
M  V30 7126 H 661.264 1.12785 -1.70706 0
M  V30 7127 H 661.274 3.55693 -1.99866 0
M  V30 7128 H 659.949 2.92156 -2.96003 0
M  V30 7129 H 658.526 3.52055 -1.22928 0
M  V30 7130 N 660.711 1.11618 1.11262 0
M  V30 7131 C 661.641 0.79846 2.19424 0
M  V30 7132 C 662.622 -0.234003 1.68483 0
M  V30 7133 O 663.807 -0.0970704 1.93957 0
M  V30 7134 C 660.937 0.242892 3.4645 0
M  V30 7135 C 659.891 1.20744 4.10615 0
M  V30 7136 C 659.217 0.512494 5.32238 0
M  V30 7137 C 660.517 2.55884 4.55325 0
M  V30 7138 H 662.211 1.70286 2.46258 0
M  V30 7139 H 659.757 0.820195 1.18359 0
M  V30 7140 H 661.71 0.00840447 4.21399 0
M  V30 7141 H 660.434 -0.696811 3.1908 0
M  V30 7142 H 659.093 1.42759 3.37662 0
M  V30 7143 H 658.741 -0.432075 5.01141 0
M  V30 7144 H 658.441 1.15583 5.7612 0
M  V30 7145 H 659.965 0.286842 6.09926 0
M  V30 7146 H 661.379 2.37946 5.21588 0
M  V30 7147 H 659.776 3.16216 5.10027 0
M  V30 7148 H 660.846 3.14968 3.68678 0
M  V30 7149 N 662.189 -1.289 0.906776 0
M  V30 7150 C 663.436 -1.95269 0.536326 0
M  V30 7151 C 663.764 -1.71435 -0.918711 0
M  V30 7152 O 663.019 -1.02431 -1.66752 0
M  V30 7153 C 663.318 -3.48704 0.783617 0
M  V30 7154 C 662.984 -3.92626 2.21711 0
M  V30 7155 C 661.646 -4.04329 2.60906 0
M  V30 7156 C 663.998 -4.15218 3.15029 0
M  V30 7157 C 661.326 -4.35998 3.92584 0
M  V30 7158 C 663.678 -4.48365 4.46264 0
M  V30 7159 C 662.342 -4.58278 4.85322 0
M  V30 7160 H 661.612 -0.714538 0.196256 0
M  V30 7161 H 664.259 -1.53366 1.14678 0
M  V30 7162 H 662.564 -3.91696 0.0903048 0
M  V30 7163 H 664.261 -3.98162 0.476267 0
M  V30 7164 H 660.851 -3.84038 1.90296 0
M  V30 7165 H 665.035 -4.05636 2.8596 0
M  V30 7166 H 660.291 -4.41878 4.22557 0
M  V30 7167 H 664.465 -4.64795 5.18593 0
M  V30 7168 H 662.092 -4.82573 5.87391 0
M  V30 7169 N 663.667 -0.670007 -1.42649 0
M  V30 7170 C 664.892 -0.196955 -2.06463 0
M  V30 7171 C 665.317 1.1352 -1.49983 0
M  V30 7172 O 664.675 1.705 -0.616397 0
M  V30 7173 C 664.723 -0.137381 -3.60338 0
M  V30 7174 O 663.827 0.895523 -4.02559 0
M  V30 7175 H 663.168 -0.102579 -0.656029 0
M  V30 7176 H 665.698 -0.917669 -1.82866 0
M  V30 7177 H 665.708 0.0403625 -4.0798 0
M  V30 7178 H 664.383 -1.10977 -4.0082 0
M  V30 7179 H 662.96 0.689209 -3.66476 0
M  V30 7180 N 665.145 1.52092 -0.413018 0
M  V30 7181 C 666.075 2.30021 0.401567 0
M  V30 7182 C 667.056 1.34395 1.04269 0
M  V30 7183 O 668.241 1.63304 1.05097 0
M  V30 7184 C 665.371 3.12447 1.51638 0
M  V30 7185 C 664.325 4.16153 1.00005 0
M  V30 7186 C 663.651 4.86948 2.20875 0
M  V30 7187 C 664.951 5.22275 0.0513757 0
M  V30 7188 H 666.645 2.98365 -0.248704 0
M  V30 7189 H 664.191 1.4349 -0.121052 0
M  V30 7190 H 666.144 3.65733 2.09326 0
M  V30 7191 H 664.868 2.41879 2.19458 0
M  V30 7192 H 663.527 3.63882 0.445549 0
M  V30 7193 H 663.175 4.12905 2.8726 0
M  V30 7194 H 662.875 5.57057 1.86978 0
M  V30 7195 H 664.399 5.43048 2.79162 0
M  V30 7196 H 665.813 5.70778 0.537176 0
M  V30 7197 H 664.21 5.9977 -0.198977 0
M  V30 7198 H 665.28 4.76611 -0.892736 0
M  V30 7199 N 666.623 0.143563 1.56945 0
M  V30 7200 C 667.871 -0.507402 1.95627 0
M  V30 7201 C 668.192 -1.65626 1.02922 0
M  V30 7202 O 667.462 -1.95693 0.0901136 0
M  V30 7203 H 666.042 -0.190436 0.722318 0
M  V30 7204 H 668.704 0.218257 1.93674 0
M  V30 7205 H 667.8 -0.885816 2.99265 0
M  V30 7206 N 668.101 -1.57061 -0.130224 0
M  V30 7207 C 669.034 -1.94698 -1.19029 0
M  V30 7208 C 670.012 -0.815074 -1.40696 0
M  V30 7209 O 671.196 -1.07223 -1.55034 0
M  V30 7210 C 668.323 -2.23352 -2.5462 0
M  V30 7211 C 667.369 -3.45945 -2.49448 0
M  V30 7212 S 668.202 -4.98927 -1.94505 0
M  V30 7213 C 669.358 -5.30721 -3.31792 0
M  V30 7214 H 669.591 -2.84308 -0.869272 0
M  V30 7215 H 667.124 -1.50688 -0.336531 0
M  V30 7216 H 669.082 -2.40539 -3.32643 0
M  V30 7217 H 667.743 -1.34376 -2.83905 0
M  V30 7218 H 666.936 -3.63324 -3.49302 0
M  V30 7219 H 666.538 -3.28086 -1.79543 0
M  V30 7220 H 668.83 -5.25215 -4.27966 0
M  V30 7221 H 669.773 -6.32048 -3.19251 0
M  V30 7222 H 670.181 -4.5821 -3.29703 0
M  V30 7223 N 669.579 0.400081 -1.52437 0
M  V30 7224 C 670.827 1.14392 -1.6661 0
M  V30 7225 C 671.148 1.90792 -0.402927 0
M  V30 7226 O 670.418 1.87042 0.582425 0
M  V30 7227 H 668.998 0.425275 -0.614125 0
M  V30 7228 H 671.66 0.455076 -1.89513 0
M  V30 7229 H 670.756 1.85298 -2.51139 0
M  V30 7230 N 671.057 1.43213 0.657864 0
M  V30 7231 C 672.304 1.44584 1.41781 0
M  V30 7232 C 672.632 0.0684208 1.9438 0
M  V30 7233 O 671.887 -0.925872 1.72413 0
M  V30 7234 C 672.186 2.43143 2.61947 0
M  V30 7235 C 671.852 3.89128 2.27794 0
M  V30 7236 C 670.514 4.28889 2.18191 0
M  V30 7237 C 672.866 4.81144 2.00375 0
M  V30 7238 C 670.194 5.58625 1.79319 0
M  V30 7239 C 672.546 6.11239 1.63003 0
M  V30 7240 C 671.21 6.49981 1.51922 0
M  V30 7241 H 670.48 0.529069 0.518813 0
M  V30 7242 H 673.127 1.76263 0.748577 0
M  V30 7243 H 671.432 2.04851 3.33981 0
M  V30 7244 H 673.129 2.4146 3.20153 0
M  V30 7245 H 669.719 3.57657 2.36176 0
M  V30 7246 H 673.903 4.512 2.06718 0
M  V30 7247 H 669.159 5.87486 1.69323 0
M  V30 7248 H 673.333 6.82014 1.40817 0
M  V30 7249 H 670.96 7.50416 1.21572 0
M  V30 7250 N 672.536 -0.895792 1.29666 0
M  V30 7251 C 673.813 -1.62723 1.08538 0
M  V30 7252 C 674.193 -2.07848 -0.369119 0
M  V30 7253 O 673.541 -1.8372 -1.35864 0
M  V30 7254 C 673.751 -2.80505 2.07648 0
M  V30 7255 C 675.099 -3.51098 2.3878 0
M  V30 7256 O 676.123 -2.90679 2.05874 0
M  V30 7257 O 674.982 -4.60028 2.9502 0
M  V30 7258 H 672.076 -0.714692 0.416106 0
M  V30 7259 H 674.622 -0.943517 1.41053 0
M  V30 7260 H 673.394 -2.44386 3.05599 0
M  V30 7261 H 673.017 -3.5658 1.75887 0
M  V30 7262 N 674.014 -1.12206 -1.10668 0
M  V30 7263 C 675.26 -0.877172 -1.82848 0
M  V30 7264 C 675.593 0.595571 -1.84842 0
M  V30 7265 O 674.868 1.44013 -1.30731 0
M  V30 7266 C 675.151 -1.44957 -3.29635 0
M  V30 7267 C 675.004 -2.99051 -3.35989 0
M  V30 7268 C 676.323 -1.10714 -4.25946 0
M  V30 7269 H 673.442 -0.320103 -0.663854 0
M  V30 7270 H 676.084 -1.38827 -1.2972 0
M  V30 7271 H 674.234 -1.01488 -3.7501 0
M  V30 7272 H 675.906 -3.51182 -2.99113 0
M  V30 7273 H 674.149 -3.34705 -2.75962 0
M  V30 7274 H 674.82 -3.34194 -4.39339 0
M  V30 7275 H 677.296 -1.48254 -3.88793 0
M  V30 7276 H 676.172 -1.5343 -5.2702 0
M  V30 7277 H 676.433 -0.019 -4.42096 0
M  V30 7278 N 675.492 1.28418 -0.913599 0
M  V30 7279 C 676.769 1.89977 -0.465619 0
M  V30 7280 C 677.149 1.82813 1.05559 0
M  V30 7281 O 676.497 1.26397 1.90358 0
M  V30 7282 C 676.707 3.34492 -0.995813 0
M  V30 7283 C 678.055 4.11468 -1.04782 0
M  V30 7284 O 679.079 3.43451 -0.944445 0
M  V30 7285 O 677.938 5.33046 -1.20518 0
M  V30 7286 H 675.032 0.813734 -0.147532 0
M  V30 7287 H 677.578 1.36786 -1.00437 0
M  V30 7288 H 676.35 3.33929 -2.03978 0
M  V30 7289 H 675.973 3.95181 -0.437878 0
M  V30 7290 N 676.97 0.677563 1.42291 0
M  V30 7291 C 678.2 0.209155 2.05539 0
M  V30 7292 C 678.608 -1.13987 1.51009 0
M  V30 7293 O 677.951 -1.71976 0.645764 0
M  V30 7294 C 678.013 0.0697758 3.59432 0
M  V30 7295 C 677.677 1.34795 4.36668 0
M  V30 7296 C 678.674 2.28201 4.67141 0
M  V30 7297 C 676.359 1.59632 4.76259 0
M  V30 7298 C 678.353 3.44718 5.36142 0
M  V30 7299 C 676.04 2.76437 5.45 0
M  V30 7300 C 677.038 3.68805 5.74867 0
M  V30 7301 O 676.726 4.83567 6.42198 0
M  V30 7302 H 676.458 0.0986202 0.668768 0
M  V30 7303 H 679.012 0.925483 1.83368 0
M  V30 7304 H 677.242 -0.702157 3.80272 0
M  V30 7305 H 678.931 -0.359115 4.04308 0
M  V30 7306 H 679.697 2.10264 4.37052 0
M  V30 7307 H 675.576 0.886073 4.52404 0
M  V30 7308 H 679.12 4.16833 5.59371 0
M  V30 7309 H 675.017 2.94299 5.74507 0
M  V30 7310 H 675.785 4.83147 6.6069 0
M  V30 7311 N 678.448 -1.51871 0.421078 0
M  V30 7312 C 679.725 -1.9447 -0.20993 0
M  V30 7313 C 680.105 -1.35875 -1.61558 0
M  V30 7314 O 679.453 -0.539294 -2.22045 0
M  V30 7315 C 679.663 -3.48402 -0.204165 0
M  V30 7316 C 681.011 -4.2254 -0.417696 0
M  V30 7317 O 682.035 -3.55074 -0.282999 0
M  V30 7318 O 680.894 -5.422 -0.684239 0
M  V30 7319 H 677.988 -0.815283 -0.138718 0
M  V30 7320 H 680.534 -1.62832 0.477884 0
M  V30 7321 H 679.306 -3.83464 0.779183 0
M  V30 7322 H 678.929 -3.86436 -0.935576 0
M  V30 7323 N 679.926 -0.151884 -1.56866 0
M  V30 7324 C 681.173 0.498004 -1.96281 0
M  V30 7325 C 681.501 1.64551 -1.03698 0
M  V30 7326 O 680.756 1.95585 -0.0671497 0
M  V30 7327 C 681.055 1.04074 -3.41911 0
M  V30 7328 C 680.721 0.0111688 -4.50899 0
M  V30 7329 C 679.383 -0.271844 -4.80432 0
M  V30 7330 C 681.735 -0.68869 -5.1663 0
M  V30 7331 C 679.063 -1.26044 -5.73001 0
M  V30 7332 C 681.415 -1.66613 -6.10264 0
M  V30 7333 C 680.079 -1.9568 -6.38174 0
M  V30 7334 H 679.349 0.182233 -0.718242 0
M  V30 7335 H 681.996 -0.239746 -1.89993 0
M  V30 7336 H 680.301 1.85592 -3.45055 0
M  V30 7337 H 681.998 1.55224 -3.69738 0
M  V30 7338 H 678.588 0.241932 -4.27917 0
M  V30 7339 H 682.772 -0.48324 -4.93942 0
M  V30 7340 H 678.028 -1.49202 -5.92915 0
M  V30 7341 H 682.202 -2.21392 -6.60272 0
M  V30 7342 H 679.829 -2.72434 -7.09707 0
M  V30 7343 N 681.404 1.57128 0.121893 0
M  V30 7344 C 682.334 2.03165 1.15092 0
M  V30 7345 C 683.315 0.915587 1.43356 0
M  V30 7346 O 684.5 1.1851 1.53847 0
M  V30 7347 C 681.63 2.43352 2.47784 0
M  V30 7348 C 680.584 3.58376 2.33989 0
M  V30 7349 C 679.91 3.84454 3.71617 0
M  V30 7350 C 681.21 4.90199 1.80283 0
M  V30 7351 H 682.904 2.89382 0.768023 0
M  V30 7352 H 680.45 1.39218 0.367998 0
M  V30 7353 H 682.403 2.74163 3.20019 0
M  V30 7354 H 681.127 1.54103 2.87958 0
M  V30 7355 H 679.786 3.2777 1.64202 0
M  V30 7356 H 679.434 2.92414 4.09271 0
M  V30 7357 H 679.134 4.61877 3.6324 0
M  V30 7358 H 680.658 4.17714 4.45362 0
M  V30 7359 H 682.072 5.19565 2.42333 0
M  V30 7360 H 680.469 5.71601 1.82735 0
M  V30 7361 H 681.539 4.78904 0.760184 0
M  V30 7362 N 682.882 -0.391992 1.52647 0
M  V30 7363 C 683.829 -1.47866 1.77213 0
M  V30 7364 C 684.799 -1.54286 0.615223 0
M  V30 7365 O 685.984 -1.7059 0.854622 0
M  V30 7366 C 683.124 -2.85129 1.94411 0
M  V30 7367 C 682.237 -2.87883 3.22098 0
M  V30 7368 C 681.372 -4.16553 3.29631 0
M  V30 7369 C 680.411 -4.13348 4.51453 0
M  V30 7370 N 679.548 -5.33619 4.56284 0
M  V30 7371 H 684.388 -1.26219 2.6995 0
M  V30 7372 H 681.925 -0.612367 1.33748 0
M  V30 7373 H 683.883 -3.64833 2.02367 0
M  V30 7374 H 682.513 -3.05232 1.05038 0
M  V30 7375 H 681.565 -2.00567 3.23229 0
M  V30 7376 H 682.877 -2.81382 4.11856 0
M  V30 7377 H 682.031 -5.0466 3.36753 0
M  V30 7378 H 680.77 -4.25773 2.37842 0
M  V30 7379 H 679.775 -3.23629 4.44459 0
M  V30 7380 H 681 -4.05754 5.44555 0
M  V30 7381 H 678.946 -5.43474 3.67385 0
M  V30 7382 H 678.863 -5.29182 5.3991 0
M  V30 7383 H 680.131 -6.23632 4.67657 0
M  V30 7384 N 684.36 -1.4356 -0.65026 0
M  V30 7385 C 685.776 -1.27025 -0.966269 0
M  V30 7386 C 685.976 -0.192117 -2.00582 0
M  V30 7387 O 685.032 0.428459 -2.48838 0
M  V30 7388 C 686.345 -2.63556 -1.44772 0
M  V30 7389 C 687.893 -2.71111 -1.56421 0
M  V30 7390 C 688.368 -4.08067 -2.07956 0
M  V30 7391 N 689.859 -4.10146 -2.15254 0
M  V30 7392 C 690.594 -5.12952 -2.56258 0
M  V30 7393 N 690.09 -6.26129 -2.96537 0
M  V30 7394 N 691.883 -5.00306 -2.56224 0
M  V30 7395 H 684.034 -2.12367 0.0375758 0
M  V30 7396 H 686.297 -0.946894 -0.0457782 0
M  V30 7397 H 686.003 -3.43429 -0.758271 0
M  V30 7398 H 685.877 -2.89152 -2.42221 0
M  V30 7399 H 688.264 -1.91569 -2.24467 0
M  V30 7400 H 688.345 -2.49277 -0.573967 0
M  V30 7401 H 687.989 -4.88077 -1.40511 0
M  V30 7402 H 687.919 -4.27266 -3.07817 0
M  V30 7403 H 690.41 -3.28453 -1.86887 0
M  V30 7404 H 690.723 -7.00403 -3.26582 0
M  V30 7405 H 689.068 -6.29597 -2.94334 0
M  V30 7406 H 692.259 -4.10952 -2.24135 0
M  V30 7407 H 692.432 -5.80553 -2.87857 0
M  V30 7408 N 685.838 0.888903 -1.30139 0
M  V30 7409 C 686.768 2.01046 -1.18755 0
M  V30 7410 C 687.749 1.69916 -0.0791438 0
M  V30 7411 O 688.934 1.92445 -0.260498 0
M  V30 7412 C 686.064 3.36109 -0.874518 0
M  V30 7413 C 685.018 3.81486 -1.94043 0
M  V30 7414 C 684.344 5.13796 -1.48047 0
M  V30 7415 C 685.644 4.00637 -3.35093 0
M  V30 7416 H 687.338 2.10828 -2.12584 0
M  V30 7417 H 684.884 1.01298 -1.02346 0
M  V30 7418 H 686.837 4.14089 -0.781548 0
M  V30 7419 H 685.561 3.26449 0.0994519 0
M  V30 7420 H 684.22 3.05731 -2.02297 0
M  V30 7421 H 683.868 5.0056 -0.494878 0
M  V30 7422 H 683.568 5.45127 -2.19341 0
M  V30 7423 H 685.092 5.94305 -1.40121 0
M  V30 7424 H 686.506 4.69067 -3.2962 0
M  V30 7425 H 684.903 4.43339 -4.04438 0
M  V30 7426 H 685.973 3.0462 -3.77273 0
M  V30 7427 N 687.317 1.12792 1.10072 0
M  V30 7428 C 688.542 0.908838 1.86427 0
M  V30 7429 C 688.967 -0.536793 1.80278 0
M  V30 7430 O 688.325 -1.38033 1.17543 0
M  V30 7431 C 688.373 1.39295 3.3261 0
M  V30 7432 O 687.477 0.573846 4.08388 0
M  V30 7433 H 686.818 0.326234 0.578331 0
M  V30 7434 H 689.348 1.50094 1.39043 0
M  V30 7435 H 689.358 1.39366 3.83459 0
M  V30 7436 H 688.033 2.44555 3.36401 0
M  V30 7437 H 686.61 0.640438 3.67359 0
M  V30 7438 N 688.795 -1.27931 0.920396 0
M  V30 7439 C 689.743 -2.29061 0.404191 0
M  V30 7440 C 690.737 -1.61615 -0.507634 0
M  V30 7441 O 691.943 -1.75765 -0.388144 0
M  V30 7442 H 688.318 -0.743594 0.112123 0
M  V30 7443 H 690.289 -2.70021 1.27008 0
M  V30 7444 C 689.038 -3.46088 -0.334466 0
M  V30 7445 H 688.361 -3.98194 0.35797 0
M  V30 7446 H 689.801 -4.18829 -0.660196 0
M  V30 7447 C 688.26 -2.99396 -1.54479 0
M  V30 7448 O 688.79 -3.02439 -2.64374 0
M  V30 7449 N 686.996 -2.54978 -1.39408 0
M  V30 7450 H 686.543 -2.52701 -0.500009 0
M  V30 7451 H 686.501 -2.24098 -2.20516 0
M  V30 7452 N 690.273 -0.685099 -1.4193 0
M  V30 7453 C 691.183 -0.013404 -2.34596 0
M  V30 7454 C 692.199 0.777589 -1.55658 0
M  V30 7455 O 693.375 0.717553 -1.88184 0
M  V30 7456 C 690.44 0.919031 -3.34297 0
M  V30 7457 C 689.501 0.121417 -4.29128 0
M  V30 7458 C 688.734 1.00944 -5.24067 0
M  V30 7459 O 688.957 2.24898 -5.24192 0
M  V30 7460 O 687.891 0.464724 -6.00103 0
M  V30 7461 H 691.717 -0.776978 -2.93593 0
M  V30 7462 H 689.302 -0.445379 -1.42607 0
M  V30 7463 H 691.184 1.45402 -3.9552 0
M  V30 7464 H 689.859 1.66228 -2.77759 0
M  V30 7465 H 688.766 -0.45792 -3.71287 0
M  V30 7466 H 690.099 -0.582937 -4.88736 0
M  V30 7467 N 691.751 1.51645 -0.429126 0
M  V30 7468 C 692.699 2.29119 0.400921 0
M  V30 7469 C 693.693 1.34628 1.02819 0
M  V30 7470 O 694.899 1.52004 0.964098 0
M  V30 7471 H 691.274 0.737273 0.148095 0
M  V30 7472 H 693.245 2.97144 -0.273457 0
M  V30 7473 C 691.994 3.13953 1.49429 0
M  V30 7474 H 691.317 3.86544 1.02097 0
M  V30 7475 H 692.757 3.71232 2.04849 0
M  V30 7476 C 691.216 2.28796 2.47293 0
M  V30 7477 O 691.746 1.94193 3.51642 0
M  V30 7478 N 689.952 1.92177 2.17982 0
M  V30 7479 H 689.499 2.20517 1.33154 0
M  V30 7480 H 689.457 1.35497 2.83704 0
M  V30 7481 N 693.229 0.160201 1.56784 0
M  V30 7482 C 694.179 -0.786461 2.14007 0
M  V30 7483 C 695.163 -1.20046 1.07134 0
M  V30 7484 O 696.355 -1.16468 1.33283 0
M  V30 7485 C 693.484 -2.02024 2.77563 0
M  V30 7486 C 692.57 -1.62874 3.91578 0
M  V30 7487 N 692.961 -0.946176 4.96871 0
M  V30 7488 C 691.259 -1.92054 4.02531 0
M  V30 7489 C 691.96 -0.755084 5.76778 0
M  V30 7490 N 690.936 -1.29307 5.27997 0
M  V30 7491 H 694.738 -0.255879 2.92784 0
M  V30 7492 H 692.252 -0.0408778 1.62349 0
M  V30 7493 H 694.249 -2.70855 3.16928 0
M  V30 7494 H 692.909 -2.55587 2.00263 0
M  V30 7495 H 693.92 -0.605455 5.14349 0
M  V30 7496 H 690.597 -2.47374 3.36322 0
M  V30 7497 H 691.987 -0.216138 6.71552 0
M  V30 7498 N 694.707 -1.5719 -0.113559 0
M  V30 7499 C 695.955 -1.84772 -0.818761 0
M  V30 7500 C 696.276 -0.746196 -1.80158 0
M  V30 7501 O 695.546 0.229305 -1.94553 0
M  V30 7502 H 694.126 -0.681737 -0.305359 0
M  V30 7503 H 696.788 -1.94645 -0.0995845 0
M  V30 7504 H 695.884 -2.80878 -1.36067 0
M  V30 7505 N 696.185 0.383891 -1.52853 0
M  V30 7506 C 697.434 1.12563 -1.67369 0
M  V30 7507 C 697.747 1.90982 -0.422533 0
M  V30 7508 O 698.953 2.6778 -0.447914 0
M  V30 7509 C 697.409 2.05011 -2.95801 0
M  V30 7510 C 697.017 1.31991 -4.28115 0
M  V30 7511 C 698.761 2.79289 -3.19684 0
M  V30 7512 C 696.668 2.23235 -5.4765 0
M  V30 7513 H 695.598 0.42391 -0.623552 0
M  V30 7514 H 698.249 0.388016 -1.79351 0
M  V30 7515 H 696.631 2.82429 -2.77578 0
M  V30 7516 H 697.805 0.597633 -4.56908 0
M  V30 7517 H 696.12 0.696517 -4.10533 0
M  V30 7518 H 698.717 3.47749 -4.06171 0
M  V30 7519 H 699.06 3.43649 -2.3497 0
M  V30 7520 H 699.593 2.08962 -3.38496 0
M  V30 7521 H 696.332 1.63482 -6.34786 0
M  V30 7522 H 695.852 2.93364 -5.23161 0
M  V30 7523 H 697.531 2.83205 -5.81725 0
M  V30 7524 N 697.663 1.43903 0.642637 0
M  V30 7525 C 698.626 1.49538 1.73698 0
M  V30 7526 C 699.626 0.378776 1.56275 0
M  V30 7527 O 700.816 0.64095 1.6198 0
M  V30 7528 C 697.948 1.35821 3.12675 0
M  V30 7529 H 699.141 2.47008 1.70079 0
M  V30 7530 H 696.694 1.30824 0.85526 0
M  V30 7531 H 697.429 0.393994 3.21898 0
M  V30 7532 H 697.214 2.16776 3.26727 0
M  V30 7533 H 698.704 1.4272 3.92455 0
M  V30 7534 N 699.141 -0.881989 1.30609 0
M  V30 7535 C 700.073 -1.99375 1.13058 0
M  V30 7536 C 701.086 -1.62636 0.0729879 0
M  V30 7537 O 702.275 -1.75621 0.319301 0
M  V30 7538 C 699.375 -3.31536 0.702651 0
M  V30 7539 C 698.548 -3.96693 1.84265 0
M  V30 7540 C 697.607 -5.07158 1.40277 0
M  V30 7541 O 696.633 -5.28628 2.11048 0
M  V30 7542 N 697.835 -5.79808 0.283449 0
M  V30 7543 H 700.6 -2.14981 2.08814 0
M  V30 7544 H 698.161 -1.05526 1.22784 0
M  V30 7545 H 700.153 -4.02804 0.391331 0
M  V30 7546 H 698.723 -3.12175 -0.162954 0
M  V30 7547 H 697.943 -3.1856 2.32192 0
M  V30 7548 H 699.231 -4.36964 2.60653 0
M  V30 7549 H 698.629 -5.64871 -0.306189 0
M  V30 7550 H 697.186 -6.51792 0.0315985 0
M  V30 7551 N 700.619 -1.13374 -1.09472 0
M  V30 7552 C 702.035 -0.871846 -1.33682 0
M  V30 7553 C 702.235 0.492847 -1.9538 0
M  V30 7554 O 701.291 1.23946 -2.19985 0
M  V30 7555 C 702.604 -1.99608 -2.24893 0
M  V30 7556 C 704.152 -2.02812 -2.38404 0
M  V30 7557 C 704.627 -3.14497 -3.3295 0
M  V30 7558 N 706.118 -3.14004 -3.40523 0
M  V30 7559 C 706.853 -3.97061 -4.13679 0
M  V30 7560 N 706.349 -4.90131 -4.89636 0
M  V30 7561 N 708.142 -3.85162 -4.09398 0
M  V30 7562 H 700.293 -2.01288 -0.677995 0
M  V30 7563 H 702.556 -0.876492 -0.361201 0
M  V30 7564 H 702.262 -2.98 -1.86786 0
M  V30 7565 H 702.136 -1.90981 -3.25278 0
M  V30 7566 H 704.523 -1.05034 -2.75775 0
M  V30 7567 H 704.604 -2.15511 -1.37799 0
M  V30 7568 H 704.248 -4.12514 -2.96302 0
M  V30 7569 H 704.178 -2.99035 -4.33458 0
M  V30 7570 H 706.669 -2.46587 -2.86362 0
M  V30 7571 H 706.982 -5.49996 -5.42885 0
M  V30 7572 H 705.327 -4.94138 -4.88726 0
M  V30 7573 H 708.518 -3.11779 -3.49158 0
M  V30 7574 H 708.691 -4.5012 -4.6615 0
M  V30 7575 N 702.098 1.27442 -0.927168 0
M  V30 7576 C 703.347 1.93679 -0.563146 0
M  V30 7577 C 703.66 1.73673 0.899837 0
M  V30 7578 O 704.866 2.34247 1.37262 0
M  V30 7579 C 703.322 3.46961 -0.95636 0
M  V30 7580 C 702.93 3.75724 -2.43999 0
M  V30 7581 C 704.674 4.19282 -0.663565 0
M  V30 7582 C 702.581 5.22378 -2.77263 0
M  V30 7583 H 701.511 0.725059 -0.206894 0
M  V30 7584 H 704.162 1.44743 -1.12791 0
M  V30 7585 H 702.544 3.94703 -0.320254 0
M  V30 7586 H 703.718 3.38741 -3.12396 0
M  V30 7587 H 702.033 3.16605 -2.70463 0
M  V30 7588 H 704.63 5.27265 -0.888596 0
M  V30 7589 H 704.973 4.14382 0.399198 0
M  V30 7590 H 705.506 3.7736 -1.25875 0
M  V30 7591 H 702.245 5.32367 -3.82446 0
M  V30 7592 H 701.765 5.6051 -2.13516 0
M  V30 7593 H 703.444 5.9025 -2.64979 0
M  V30 7594 N 703.576 0.692616 1.41565 0
M  V30 7595 C 704.806 0.230943 2.05305 0
M  V30 7596 C 705.214 -1.12379 1.52209 0
M  V30 7597 O 704.557 -1.71281 0.663968 0
M  V30 7598 C 704.619 0.107894 3.59338 0
M  V30 7599 C 704.283 1.39419 4.35214 0
M  V30 7600 C 705.28 2.33143 4.64694 0
M  V30 7601 C 702.965 1.64674 4.74539 0
M  V30 7602 C 704.959 3.50385 5.32456 0
M  V30 7603 C 702.646 2.82202 5.42038 0
M  V30 7604 C 703.644 3.74881 5.70923 0
M  V30 7605 O 703.332 4.90351 6.37033 0
M  V30 7606 H 703.064 0.105708 0.667684 0
M  V30 7607 H 705.618 0.94488 1.82376 0
M  V30 7608 H 703.848 -0.661785 3.80995 0
M  V30 7609 H 705.537 -0.316213 4.04666 0
M  V30 7610 H 706.303 2.14887 4.34797 0
M  V30 7611 H 702.182 0.934007 4.51439 0
M  V30 7612 H 705.726 4.22743 5.54918 0
M  V30 7613 H 701.623 3.00376 5.71353 0
M  V30 7614 H 702.391 4.90128 6.55528 0
M  V30 7615 N 705.054 -1.51416 0.437162 0
M  V30 7616 C 706.302 -2.01687 -0.129108 0
M  V30 7617 C 706.623 -1.32329 -1.43227 0
M  V30 7618 O 705.893 -0.457796 -1.90476 0
M  V30 7619 H 704.473 -0.745277 -0.0507023 0
M  V30 7620 H 707.135 -1.86075 0.579828 0
M  V30 7621 H 706.231 -3.10605 -0.305141 0
M  V30 7622 N 706.532 -0.168513 -1.56696 0
M  V30 7623 C 707.48 0.779791 -2.19139 0
M  V30 7624 C 708.474 1.23957 -1.1546 0
M  V30 7625 O 709.68 1.20555 -1.33666 0
M  V30 7626 H 706.055 0.269739 -0.701958 0
M  V30 7627 H 708.026 0.229156 -2.97519 0
M  V30 7628 C 706.775 2.00003 -2.84419 0
M  V30 7629 H 706.098 1.65527 -3.63924 0
M  V30 7630 H 707.538 2.64251 -3.31583 0
M  V30 7631 C 705.997 2.82187 -1.84044 0
M  V30 7632 O 706.527 3.79247 -1.32418 0
M  V30 7633 N 704.733 2.47145 -1.52864 0
M  V30 7634 H 704.28 1.68277 -1.9504 0
M  V30 7635 H 704.238 3.02422 -0.859569 0
M  V30 7636 N 708.01 1.57248 0.105221 0
M  V30 7637 C 708.942 1.98008 1.15436 0
M  V30 7638 C 709.955 0.881236 1.36887 0
M  V30 7639 O 711.144 1.15943 1.35718 0
M  V30 7640 C 708.244 2.27509 2.51183 0
M  V30 7641 C 707.417 3.58811 2.50147 0
M  V30 7642 C 706.476 3.76365 3.67745 0
M  V30 7643 O 705.502 4.48329 3.50699 0
M  V30 7644 N 706.704 3.16174 4.86841 0
M  V30 7645 H 709.469 2.88616 0.807519 0
M  V30 7646 H 707.03 1.59202 0.29433 0
M  V30 7647 H 709.022 2.36455 3.28438 0
M  V30 7648 H 707.592 1.42959 2.77995 0
M  V30 7649 H 706.812 3.60927 1.5851 0
M  V30 7650 H 708.1 4.45088 2.46524 0
M  V30 7651 H 707.498 2.57701 5.03594 0
M  V30 7652 H 706.055 3.30621 5.61723 0
M  V30 7653 N 709.488 -0.375779 1.53054 0
M  V30 7654 C 710.765 -1.13453 1.59336 0
M  V30 7655 C 711.145 -2.07379 0.394614 0
M  V30 7656 O 710.493 -2.2004 -0.616 0
M  V30 7657 C 710.703 -1.8826 2.93869 0
M  V30 7658 C 712.051 -2.43155 3.48081 0
M  V30 7659 O 713.075 -1.984 2.95831 0
M  V30 7660 O 711.934 -3.24944 4.39401 0
M  V30 7661 H 709.028 -0.519856 0.643179 0
M  V30 7662 H 711.574 -0.379865 1.65394 0
M  V30 7663 H 710.346 -1.19652 3.72558 0
M  V30 7664 H 709.969 -2.70658 2.91256 0
M  V30 7665 N 710.966 -1.44241 -0.634997 0
M  V30 7666 C 712.194 -1.50296 -1.42193 0
M  V30 7667 C 712.609 -0.12658 -1.88375 0
M  V30 7668 O 711.966 0.86678 -1.60603 0
M  V30 7669 C 712.017 -2.46437 -2.64482 0
M  V30 7670 O 711.738 -3.78724 -2.20226 0
M  V30 7671 C 713.239 -2.61918 -3.57651 0
M  V30 7672 H 710.459 -0.509865 -0.43621 0
M  V30 7673 H 713.003 -1.89167 -0.776921 0
M  V30 7674 H 711.158 -2.10712 -3.25083 0
M  V30 7675 H 711.572 -4.30595 -2.9948 0
M  V30 7676 H 713.046 -3.33225 -4.40074 0
M  V30 7677 H 713.523 -1.67017 -4.06204 0
M  V30 7678 H 714.129 -2.98528 -3.02921 0
M  V30 7679 N 712.444 0.87505 -1.31075 0
M  V30 7680 C 713.669 1.66583 -1.23551 0
M  V30 7681 C 714.094 1.87067 0.19686 0
M  V30 7682 O 713.452 1.40877 1.1412 0
M  V30 7683 C 713.5 3.01401 -1.97965 0
M  V30 7684 O 712.604 3.90923 -1.31351 0
M  V30 7685 H 711.945 0.508645 -0.426821 0
M  V30 7686 H 714.475 1.09139 -1.7306 0
M  V30 7687 H 714.485 3.51374 -2.07366 0
M  V30 7688 H 713.16 2.85812 -3.02133 0
M  V30 7689 H 711.737 3.49369 -1.30368 0
M  V30 7690 N 713.922 1.13953 1.08869 0
M  V30 7691 C 715.147 0.928559 1.85452 0
M  V30 7692 C 715.572 -0.517642 1.80837 0
M  V30 7693 O 714.93 -1.36779 1.19001 0
M  V30 7694 C 714.978 1.42814 3.31114 0
M  V30 7695 O 714.082 0.617129 4.07756 0
M  V30 7696 H 713.423 0.33235 0.574839 0
M  V30 7697 H 715.953 1.5156 1.37443 0
M  V30 7698 H 715.963 1.43425 3.8196 0
M  V30 7699 H 714.638 2.48109 3.33788 0
M  V30 7700 H 713.215 0.679365 3.66659 0
M  V30 7701 N 715.4 -1.26948 0.933913 0
M  V30 7702 C 716.332 -2.25768 0.395137 0
M  V30 7703 C 717.345 -1.55637 -0.477585 0
M  V30 7704 O 718.534 -1.76142 -0.289204 0
M  V30 7705 C 715.634 -3.35874 -0.451882 0
M  V30 7706 C 714.807 -4.3554 0.40299 0
M  V30 7707 C 713.866 -5.24809 -0.3824 0
M  V30 7708 O 712.892 -5.68805 0.212057 0
M  V30 7709 N 714.094 -5.55636 -1.68072 0
M  V30 7710 H 716.859 -2.72634 1.24463 0
M  V30 7711 H 714.42 -1.40639 0.802008 0
M  V30 7712 H 716.412 -3.92542 -0.984516 0
M  V30 7713 H 714.982 -2.8856 -1.20215 0
M  V30 7714 H 714.202 -3.78047 1.11688 0
M  V30 7715 H 715.49 -4.99131 0.987201 0
M  V30 7716 H 714.888 -5.2176 -2.18592 0
M  V30 7717 H 713.445 -6.14978 -2.15975 0
M  V30 7718 N 716.879 -0.700114 -1.41195 0
M  V30 7719 C 717.809 -0.0521132 -2.33442 0
M  V30 7720 C 718.79 0.76228 -1.52063 0
M  V30 7721 O 719.975 0.714336 -1.80585 0
M  V30 7722 C 717.105 0.881693 -3.35922 0
M  V30 7723 C 716.059 0.174062 -4.27646 0
M  V30 7724 C 715.385 1.22254 -5.20536 0
M  V30 7725 C 716.685 -0.962396 -5.13357 0
M  V30 7726 H 718.379 -0.822574 -2.87879 0
M  V30 7727 H 715.925 -0.397011 -1.38419 0
M  V30 7728 H 717.878 1.34429 -3.99383 0
M  V30 7729 H 716.602 1.68387 -2.79845 0
M  V30 7730 H 715.261 -0.268551 -3.65615 0
M  V30 7731 H 714.909 2.01736 -4.60773 0
M  V30 7732 H 714.609 0.754038 -5.82742 0
M  V30 7733 H 716.133 1.68555 -5.86874 0
M  V30 7734 H 717.547 -0.579875 -5.7036 0
M  V30 7735 H 715.944 -1.35828 -5.84526 0
M  V30 7736 H 717.014 -1.80003 -4.50252 0
M  V30 7737 N 718.357 1.51182 -0.445186 0
M  V30 7738 C 719.304 2.27939 0.362291 0
M  V30 7739 C 720.274 1.31864 1.01 0
M  V30 7740 O 721.459 1.60776 1.02741 0
M  V30 7741 C 718.599 3.13016 1.45311 0
M  V30 7742 C 717.712 4.24093 0.822757 0
M  V30 7743 C 716.847 4.96467 1.88928 0
M  V30 7744 C 715.886 5.99454 1.23778 0
M  V30 7745 N 715.023 6.65206 2.24602 0
M  V30 7746 H 719.863 2.965 -0.29862 0
M  V30 7747 H 717.4 1.46237 -0.15911 0
M  V30 7748 H 719.358 3.60673 2.09692 0
M  V30 7749 H 717.988 2.46553 2.08354 0
M  V30 7750 H 717.04 3.80341 0.0670364 0
M  V30 7751 H 718.352 4.97853 0.307184 0
M  V30 7752 H 717.506 5.47712 2.60953 0
M  V30 7753 H 716.245 4.22355 2.4386 0
M  V30 7754 H 715.25 5.47494 0.503042 0
M  V30 7755 H 716.475 6.75527 0.695694 0
M  V30 7756 H 714.421 5.93901 2.78599 0
M  V30 7757 H 714.338 7.34756 1.77958 0
M  V30 7758 H 715.606 7.21078 2.96085 0
M  V30 7759 N 719.835 0.176821 1.56605 0
M  V30 7760 C 720.782 -0.751312 2.18229 0
M  V30 7761 C 721.752 -1.22297 1.12395 0
M  V30 7762 O 722.937 -1.29015 1.40569 0
M  V30 7763 C 720.077 -1.97291 2.83143 0
M  V30 7764 C 719.19 -1.54431 4.03454 0
M  V30 7765 C 718.325 -2.72 4.56278 0
M  V30 7766 C 717.364 -2.25657 5.68986 0
M  V30 7767 N 716.501 -3.36338 6.16296 0
M  V30 7768 H 721.341 -0.219033 2.97194 0
M  V30 7769 H 718.878 -0.0963803 1.46784 0
M  V30 7770 H 720.836 -2.68949 3.1894 0
M  V30 7771 H 719.466 -2.4788 2.06773 0
M  V30 7772 H 718.518 -0.724273 3.73441 0
M  V30 7773 H 719.83 -1.16417 4.85024 0
M  V30 7774 H 718.984 -3.51806 4.94285 0
M  V30 7775 H 717.723 -3.13277 3.73777 0
M  V30 7776 H 716.728 -1.44299 5.30526 0
M  V30 7777 H 717.953 -1.85432 6.53293 0
M  V30 7778 H 715.899 -3.7718 5.36723 0
M  V30 7779 H 715.816 -3.02435 6.9287 0
M  V30 7780 H 717.084 -4.16413 6.58954 0
M  V30 7781 N 721.313 -1.57302 -0.09688 0
M  V30 7782 C 722.56 -1.85997 -0.800699 0
M  V30 7783 C 722.888 -0.765089 -1.7882 0
M  V30 7784 O 722.143 0.241492 -1.94204 0
M  V30 7785 C 722.442 -3.21272 -1.56586 0
M  V30 7786 C 722.108 -4.45104 -0.72064 0
M  V30 7787 C 720.77 -4.78723 -0.487632 0
M  V30 7788 C 723.122 -5.2103 -0.132948 0
M  V30 7789 C 720.45 -5.85697 0.34296 0
M  V30 7790 C 722.802 -6.28881 0.684957 0
M  V30 7791 C 721.466 -6.61017 0.928073 0
M  V30 7792 H 720.736 -0.680613 -0.292997 0
M  V30 7793 H 723.383 -1.91399 -0.0622474 0
M  V30 7794 H 721.688 -3.11547 -2.37583 0
M  V30 7795 H 723.385 -3.40702 -2.11478 0
M  V30 7796 H 719.975 -4.18777 -0.912359 0
M  V30 7797 H 724.159 -4.95392 -0.300132 0
M  V30 7798 H 719.415 -6.09008 0.540317 0
M  V30 7799 H 723.589 -6.86886 1.14721 0
M  V30 7800 H 721.216 -7.43738 1.57348 0
M  V30 7801 N 722.791 0.367657 -1.53252 0
M  V30 7802 C 724.021 1.12955 -1.72988 0
M  V30 7803 C 724.429 1.8358 -0.457708 0
M  V30 7804 O 723.772 1.74336 0.579006 0
M  V30 7805 C 723.834 2.20545 -2.83902 0
M  V30 7806 C 723.498 1.69704 -4.24323 0
M  V30 7807 C 724.495 1.16223 -5.06743 0
M  V30 7808 C 722.18 1.7528 -4.70725 0
M  V30 7809 C 724.174 0.689935 -6.33655 0
M  V30 7810 C 721.861 1.27662 -5.97617 0
M  V30 7811 C 722.859 0.746083 -6.78913 0
M  V30 7812 O 722.547 0.276925 -8.03423 0
M  V30 7813 H 722.279 0.343753 -0.582074 0
M  V30 7814 H 724.833 0.433106 -2.00782 0
M  V30 7815 H 723.063 2.93676 -2.51577 0
M  V30 7816 H 724.752 2.82111 -2.91836 0
M  V30 7817 H 725.518 1.11256 -4.72067 0
M  V30 7818 H 721.397 2.15515 -4.07522 0
M  V30 7819 H 724.941 0.275164 -6.97057 0
M  V30 7820 H 720.838 1.32322 -6.31792 0
M  V30 7821 H 721.606 0.396445 -8.17539 0
M  V30 7822 N 724.269 1.44576 0.627338 0
M  V30 7823 C 725.217 1.52039 1.76031 0
M  V30 7824 C 726.211 0.391796 1.64807 0
M  V30 7825 O 727.417 0.5669 1.7084 0
M  V30 7826 H 723.792 0.477165 0.581221 0
M  V30 7827 H 725.763 2.47387 1.6686 0
M  V30 7828 C 724.512 1.48539 3.14375 0
M  V30 7829 H 723.835 2.34699 3.23661 0
M  V30 7830 H 725.275 1.57821 3.93534 0
M  V30 7831 C 723.734 0.20672 3.36265 0
M  V30 7832 O 724.264 -0.72154 3.95167 0
M  V30 7833 N 722.47 0.108654 2.90397 0
M  V30 7834 H 722.017 0.864884 2.42647 0
M  V30 7835 H 721.975 -0.746121 3.05418 0
M  V30 7836 N 725.747 -0.868086 1.31537 0
M  V30 7837 C 726.679 -1.98165 1.15166 0
M  V30 7838 C 727.692 -1.6255 0.0902335 0
M  V30 7839 O 728.881 -1.75272 0.33791 0
M  V30 7840 C 725.981 -3.30772 0.737776 0
M  V30 7841 C 725.154 -3.94716 1.88462 0
M  V30 7842 C 724.213 -5.05641 1.45648 0
M  V30 7843 O 723.239 -5.2636 2.16642 0
M  V30 7844 N 724.441 -5.79474 0.34493 0
M  V30 7845 H 727.206 -2.12754 2.11083 0
M  V30 7846 H 724.767 -1.04217 1.23897 0
M  V30 7847 H 726.759 -4.02366 0.434032 0
M  V30 7848 H 725.329 -3.1233 -0.129834 0
M  V30 7849 H 724.549 -3.16079 2.35558 0
M  V30 7850 H 725.837 -4.34175 2.65273 0
M  V30 7851 H 725.235 -5.65164 -0.246259 0
M  V30 7852 H 723.792 -6.51722 0.100728 0
M  V30 7853 N 727.225 -1.14528 -1.08264 0
M  V30 7854 C 728.471 -0.91576 -1.80947 0
M  V30 7855 C 728.804 0.55623 -1.86064 0
M  V30 7856 O 728.079 1.41207 -1.33756 0
M  V30 7857 C 728.362 -1.51917 -3.26486 0
M  V30 7858 C 728.215 -3.06111 -3.2957 0
M  V30 7859 C 729.534 -1.19724 -4.23502 0
M  V30 7860 H 726.653 -0.334113 -0.656915 0
M  V30 7861 H 729.295 -1.41547 -1.26746 0
M  V30 7862 H 727.445 -1.0942 -3.72773 0
M  V30 7863 H 729.117 -3.57448 -2.91597 0
M  V30 7864 H 727.36 -3.40483 -2.688 0
M  V30 7865 H 728.031 -3.43438 -4.32151 0
M  V30 7866 H 730.507 -1.56467 -3.85561 0
M  V30 7867 H 729.383 -1.64575 -5.23647 0
M  V30 7868 H 729.644 -0.112771 -4.41956 0
M  V30 7869 N 728.703 1.26451 -0.940633 0
M  V30 7870 C 729.928 1.98407 -0.60412 0
M  V30 7871 C 730.353 1.69584 0.81382 0
M  V30 7872 O 729.711 0.943553 1.54812 0
M  V30 7873 C 729.759 3.50387 -0.852136 0
M  V30 7874 O 728.863 4.1233 0.076013 0
M  V30 7875 H 728.204 0.622466 -0.231153 0
M  V30 7876 H 730.734 1.60932 -1.26342 0
M  V30 7877 H 730.744 4.00614 -0.772816 0
M  V30 7878 H 729.419 3.70696 -1.88566 0
M  V30 7879 H 727.996 3.7286 -0.0543187 0
M  V30 7880 N 730.181 0.707592 1.40822 0
M  V30 7881 C 731.409 0.253073 2.05346 0
M  V30 7882 C 731.824 -1.10218 1.53289 0
M  V30 7883 O 731.181 -1.69112 0.686105 0
M  V30 7884 C 731.232 0.215411 3.60858 0
M  V30 7885 O 730.953 1.51714 4.10992 0
M  V30 7886 C 732.454 -0.258636 4.42545 0
M  V30 7887 H 729.674 0.115256 0.661027 0
M  V30 7888 H 732.218 0.963555 1.80377 0
M  V30 7889 H 730.373 -0.445978 3.84824 0
M  V30 7890 H 730.787 1.41226 5.05129 0
M  V30 7891 H 732.261 -0.233849 5.51504 0
M  V30 7892 H 732.738 -1.2995 4.19535 0
M  V30 7893 H 733.344 0.372186 4.23668 0
M  V30 7894 N 731.66 -1.50943 0.453197 0
M  V30 7895 C 733.071 -1.86699 -0.00619892 0
M  V30 7896 C 733.422 -1.3693 -1.40515 0
M  V30 7897 O 732.547 -0.726715 -2.03833 0
M  V30 7898 C 733.142 -3.38795 -0.018025 0
M  V30 7899 C 731.701 -3.74028 -0.421885 0
M  V30 7900 C 730.848 -2.74752 0.375087 0
M  V30 7901 H 733.799 -1.43942 0.668317 0
M  V30 7902 H 733.82 -3.71468 -0.824125 0
M  V30 7903 H 733.332 -3.74988 1.00028 0
M  V30 7904 H 731.433 -3.43431 -1.44521 0
M  V30 7905 H 731.546 -4.78908 -0.135664 0
M  V30 7906 H 729.91 -2.5414 -0.168794 0
M  V30 7907 H 730.693 -3.13787 1.39256 0
M  V30 7908 N 733.138 -0.185124 -1.56509 0
M  V30 7909 C 734.068 0.735098 -2.21627 0
M  V30 7910 C 735.049 1.2288 -1.1762 0
M  V30 7911 O 736.234 1.27945 -1.46095 0
M  V30 7912 C 733.364 1.95889 -2.86783 0
M  V30 7913 C 732.318 1.6005 -3.96948 0
M  V30 7914 C 731.644 2.90009 -4.4922 0
M  V30 7915 C 732.944 0.818008 -5.15855 0
M  V30 7916 H 734.638 0.192274 -2.98782 0
M  V30 7917 H 732.184 0.0910393 -1.43712 0
M  V30 7918 H 734.137 2.60779 -3.31017 0
M  V30 7919 H 732.861 2.52608 -2.07018 0
M  V30 7920 H 731.52 0.975237 -3.5339 0
M  V30 7921 H 731.168 3.44797 -3.6623 0
M  V30 7922 H 730.868 2.66778 -5.23549 0
M  V30 7923 H 732.392 3.55904 -4.9615 0
M  V30 7924 H 733.806 1.36979 -5.56695 0
M  V30 7925 H 732.203 0.684207 -5.96187 0
M  V30 7926 H 733.273 -0.182939 -4.84555 0
M  V30 7927 N 734.616 1.57351 0.0885366 0
M  V30 7928 C 735.546 2.05561 1.10757 0
M  V30 7929 C 736.527 0.945789 1.41382 0
M  V30 7930 O 737.712 1.21747 1.51299 0
M  V30 7931 C 734.842 2.48554 2.42566 0
M  V30 7932 C 733.796 3.63259 2.26334 0
M  V30 7933 C 733.122 3.9225 3.63378 0
M  V30 7934 C 734.422 4.93913 1.69844 0
M  V30 7935 H 736.116 2.90946 0.706468 0
M  V30 7936 H 733.662 1.39968 0.338385 0
M  V30 7937 H 735.615 2.8089 3.14132 0
M  V30 7938 H 734.339 1.60176 2.84625 0
M  V30 7939 H 732.998 3.31179 1.57213 0
M  V30 7940 H 732.646 3.0103 4.02976 0
M  V30 7941 H 732.346 4.69478 3.53362 0
M  V30 7942 H 733.87 4.27067 4.36401 0
M  V30 7943 H 735.284 5.24588 2.31258 0
M  V30 7944 H 733.681 5.75349 1.70569 0
M  V30 7945 H 734.751 4.80409 0.65843 0
M  V30 7946 N 736.094 -0.359525 1.53444 0
M  V30 7947 C 737.51 -0.701599 1.43352 0
M  V30 7948 C 737.71 -1.93049 0.577439 0
M  V30 7949 O 736.766 -2.52423 0.0622224 0
M  V30 7950 C 738.079 -0.90915 2.86627 0
M  V30 7951 C 739.627 -1.00878 2.96298 0
M  V30 7952 C 740.102 -1.24876 4.40647 0
M  V30 7953 N 741.593 -1.31632 4.44103 0
M  V30 7954 C 742.328 -1.51922 5.52908 0
M  V30 7955 N 741.824 -1.69489 6.71748 0
M  V30 7956 N 743.617 -1.54341 5.40496 0
M  V30 7957 H 735.768 0.448685 2.07607 0
M  V30 7958 H 738.031 0.138713 0.937797 0
M  V30 7959 H 737.737 -0.0778997 3.51614 0
M  V30 7960 H 737.611 -1.81551 3.30634 0
M  V30 7961 H 739.998 -1.83057 2.31461 0
M  V30 7962 H 740.079 -0.0796721 2.55676 0
M  V30 7963 H 739.723 -0.431961 5.0606 0
M  V30 7964 H 739.653 -2.19118 4.78848 0
M  V30 7965 H 742.144 -1.19646 3.5846 0
M  V30 7966 H 742.457 -1.84561 7.50438 0
M  V30 7967 H 740.802 -1.66655 6.74723 0
M  V30 7968 H 743.993 -1.40188 4.46615 0
M  V30 7969 H 744.166 -1.69812 6.25354 0
M  V30 7970 N 737.572 -1.44907 -0.619662 0
M  V30 7971 C 738.52 -1.52971 -1.75222 0
M  V30 7972 C 739.514 -0.400531 -1.64597 0
M  V30 7973 O 740.72 -0.575952 -1.70537 0
M  V30 7974 H 737.095 -0.480241 -0.578682 0
M  V30 7975 H 739.066 -2.48269 -1.65545 0
M  V30 7976 C 737.815 -1.50204 -3.13583 0
M  V30 7977 H 737.138 -2.36412 -3.22412 0
M  V30 7978 H 738.578 -1.59905 -3.92691 0
M  V30 7979 C 737.037 -0.22455 -3.36151 0
M  V30 7980 O 737.567 0.700574 -3.95544 0
M  V30 7981 N 735.773 -0.124052 -2.90335 0
M  V30 7982 H 735.32 -0.87774 -2.42185 0
M  V30 7983 H 735.278 0.729914 -3.0581 0
M  V30 7984 N 739.05 0.861098 -1.31996 0
M  V30 7985 C 740.296 1.61721 -1.22369 0
M  V30 7986 C 740.629 1.93 0.215587 0
M  V30 7987 O 739.904 1.56789 1.15098 0
M  V30 7988 C 740.187 2.9417 -2.07691 0
M  V30 7989 C 740.04 2.69714 -3.59965 0
M  V30 7990 C 741.359 3.95372 -1.93312 0
M  V30 7991 H 738.478 0.586822 -0.44588 0
M  V30 7992 H 741.12 0.994788 -1.61876 0
M  V30 7993 H 739.27 3.47292 -1.74128 0
M  V30 7994 H 740.942 2.23196 -4.03709 0
M  V30 7995 H 739.185 2.03789 -3.82952 0
M  V30 7996 H 739.856 3.63996 -4.14983 0
M  V30 7997 H 742.332 3.51487 -2.22701 0
M  V30 7998 H 741.208 4.85916 -2.55298 0
M  V30 7999 H 741.469 4.32865 -0.898922 0
M  V30 8000 N 740.528 1.15101 1.07655 0
M  V30 8001 C 741.46 0.802722 2.14684 0
M  V30 8002 C 742.473 -0.183874 1.61758 0
M  V30 8003 O 743.662 0.0389349 1.78458 0
M  V30 8004 C 740.762 0.172135 3.38463 0
M  V30 8005 C 739.935 1.19538 4.20749 0
M  V30 8006 C 738.994 0.58714 5.22914 0
M  V30 8007 O 738.02 1.25224 5.55255 0
M  V30 8008 N 739.222 -0.632566 5.77043 0
M  V30 8009 H 741.987 1.72379 2.45164 0
M  V30 8010 H 739.548 1.04647 1.23534 0
M  V30 8011 H 741.54 -0.247465 4.03943 0
M  V30 8012 H 740.11 -0.652214 3.0572 0
M  V30 8013 H 739.33 1.79165 3.51132 0
M  V30 8014 H 740.618 1.88636 4.7254 0
M  V30 8015 H 740.016 -1.19135 5.53013 0
M  V30 8016 H 738.573 -0.994566 6.44167 0
M  V30 8017 N 742.006 -1.2595 0.947325 0
M  V30 8018 C 743.253 -1.93463 0.598178 0
M  V30 8019 C 743.581 -1.74271 -0.863705 0
M  V30 8020 O 742.836 -1.07684 -1.63409 0
M  V30 8021 C 743.135 -3.46034 0.894158 0
M  V30 8022 C 742.801 -3.85373 2.3409 0
M  V30 8023 C 741.463 -3.95823 2.73637 0
M  V30 8024 C 743.815 -4.04986 3.2808 0
M  V30 8025 C 741.143 -4.23288 4.06257 0
M  V30 8026 C 743.495 -4.3394 4.60303 0
M  V30 8027 C 742.159 -4.42606 4.99656 0
M  V30 8028 H 741.429 -0.707933 0.218889 0
M  V30 8029 H 744.076 -1.4964 1.19499 0
M  V30 8030 H 742.381 -3.9121 0.214874 0
M  V30 8031 H 744.078 -3.96445 0.602698 0
M  V30 8032 H 740.668 -3.7779 2.02417 0
M  V30 8033 H 744.852 -3.96333 2.9872 0
M  V30 8034 H 740.108 -4.28211 4.36401 0
M  V30 8035 H 744.282 -4.48061 5.33118 0
M  V30 8036 H 741.909 -4.63641 6.02446 0
M  V30 8037 N 743.484 -0.715051 -1.40445 0
M  V30 8038 C 744.432 -0.0509974 -2.32544 0
M  V30 8039 C 745.426 0.747602 -1.52011 0
M  V30 8040 O 746.632 0.651031 -1.67814 0
M  V30 8041 H 743.007 0.00231113 -0.751996 0
M  V30 8042 H 744.978 -0.84449 -2.86201 0
M  V30 8043 C 743.727 0.857101 -3.3697 0
M  V30 8044 H 743.05 0.252 -3.99005 0
M  V30 8045 H 744.49 1.28971 -4.03909 0
M  V30 8046 C 742.949 1.98231 -2.72408 0
M  V30 8047 O 743.479 3.07309 -2.58697 0
M  V30 8048 N 741.685 1.76577 -2.308 0
M  V30 8049 H 741.232 0.878641 -2.42152 0
M  V30 8050 H 741.19 2.52043 -1.87941 0
M  V30 8051 N 744.962 1.50701 -0.461195 0
M  V30 8052 C 746.192 2.06381 0.0950376 0
M  V30 8053 C 746.6 1.32627 1.34933 0
M  V30 8054 O 745.943 0.386137 1.79596 0
M  V30 8055 C 746.005 3.56558 0.458965 0
M  V30 8056 C 745.669 4.51732 -0.691891 0
M  V30 8057 C 746.666 4.95594 -1.57105 0
M  V30 8058 C 744.351 4.94542 -0.879407 0
M  V30 8059 C 746.345 5.80963 -2.62223 0
M  V30 8060 C 744.032 5.79695 -1.93382 0
M  V30 8061 C 745.03 6.22806 -2.80359 0
M  V30 8062 O 744.718 7.06265 -3.83986 0
M  V30 8063 H 744.45 0.676 0.000687488 0
M  V30 8064 H 747.004 1.94974 -0.646087 0
M  V30 8065 H 745.234 3.65832 1.25314 0
M  V30 8066 H 746.923 3.94647 0.949124 0
M  V30 8067 H 747.689 4.63197 -1.43783 0
M  V30 8068 H 743.568 4.60513 -0.211907 0
M  V30 8069 H 747.112 6.14533 -3.30143 0
M  V30 8070 H 743.009 6.11506 -2.06715 0
M  V30 8071 H 743.777 7.24494 -3.80855 0
M  V30 8072 N 746.441 0.193421 1.56409 0
M  V30 8073 C 747.852 -0.319471 1.83946 0
M  V30 8074 C 748.203 -1.61505 1.11403 0
M  V30 8075 O 747.328 -2.13139 0.374289 0
M  V30 8076 C 747.923 -0.586411 3.33686 0
M  V30 8077 C 746.482 -1.04368 3.61641 0
M  V30 8078 C 745.629 -0.0913834 2.77149 0
M  V30 8079 H 748.58 0.417242 1.53117 0
M  V30 8080 H 748.601 -1.43591 3.52366 0
M  V30 8081 H 748.113 0.356701 3.86457 0
M  V30 8082 H 746.214 -2.00113 3.14302 0
M  V30 8083 H 746.327 -0.937549 4.69837 0
M  V30 8084 H 744.691 -0.592954 2.47702 0
M  V30 8085 H 745.474 0.846142 3.32709 0
M  V30 8086 N 747.919 -1.57396 -0.0801906 0
M  V30 8087 C 748.869 -1.9955 -1.10289 0
M  V30 8088 C 749.853 -0.876234 -1.34948 0
M  V30 8089 O 751.045 -1.14012 -1.35389 0
M  V30 8090 C 748.174 -2.43596 -2.419 0
M  V30 8091 C 747.26 -3.6224 -2.20551 0
M  V30 8092 N 747.651 -4.76693 -1.69109 0
M  V30 8093 C 745.949 -3.68627 -2.51059 0
M  V30 8094 C 746.65 -5.58577 -1.62379 0
M  V30 8095 N 745.626 -5.02178 -2.0813 0
M  V30 8096 H 749.428 -2.85483 -0.698335 0
M  V30 8097 H 746.942 -1.59837 -0.287395 0
M  V30 8098 H 748.939 -2.72031 -3.15919 0
M  V30 8099 H 747.599 -1.59047 -2.8308 0
M  V30 8100 H 748.61 -4.9915 -1.38092 0
M  V30 8101 H 745.287 -2.94772 -2.95661 0
M  V30 8102 H 746.677 -6.60447 -1.2353 0
M  V30 8103 N 749.397 0.351382 -1.53633 0
M  V30 8104 C 750.625 1.11275 -1.74429 0
M  V30 8105 C 751.04 1.82602 -0.479798 0
M  V30 8106 O 750.397 1.74074 0.548125 0
M  V30 8107 C 750.448 2.13223 -2.91921 0
M  V30 8108 O 750.169 1.44798 -4.13479 0
M  V30 8109 C 751.67 3.01797 -3.24706 0
M  V30 8110 H 748.89 0.332153 -0.583023 0
M  V30 8111 H 751.434 0.405974 -2.0043 0
M  V30 8112 H 749.589 2.79477 -2.68274 0
M  V30 8113 H 750.003 2.12839 -4.79374 0
M  V30 8114 H 751.477 3.69282 -4.10286 0
M  V30 8115 H 751.954 3.67387 -2.40673 0
M  V30 8116 H 752.56 2.41141 -3.5033 0
M  V30 8117 N 750.875 1.45233 0.611969 0
M  V30 8118 C 752.1 1.52767 1.40274 0
M  V30 8119 C 752.525 0.159701 1.87421 0
M  V30 8120 O 751.883 -0.854837 1.59882 0
M  V30 8121 C 751.931 2.51286 2.58626 0
M  V30 8122 O 751.035 2.02764 3.59111 0
M  V30 8123 H 750.376 0.515141 0.418958 0
M  V30 8124 H 752.906 1.90547 0.745188 0
M  V30 8125 H 752.916 2.69949 3.05927 0
M  V30 8126 H 751.591 3.50641 2.23659 0
M  V30 8127 H 750.168 1.93957 3.18489 0
M  V30 8128 N 752.353 -0.854086 1.3245 0
M  V30 8129 C 753.599 -1.61069 1.23225 0
M  V30 8130 C 753.932 -1.93111 -0.205349 0
M  V30 8131 O 753.207 -1.57397 -1.14265 0
M  V30 8132 C 753.49 -2.93065 2.09249 0
M  V30 8133 C 753.343 -2.67801 3.6139 0
M  V30 8134 C 754.662 -3.94341 1.95406 0
M  V30 8135 H 751.781 -0.584449 0.448986 0
M  V30 8136 H 754.423 -0.986189 1.62402 0
M  V30 8137 H 752.573 -3.46364 1.75967 0
M  V30 8138 H 754.245 -2.21052 4.04887 0
M  V30 8139 H 752.488 -2.01756 3.84027 0
M  V30 8140 H 753.159 -3.6179 4.16907 0
M  V30 8141 H 755.635 -3.50301 2.24562 0
M  V30 8142 H 754.511 -4.84555 2.57872 0
M  V30 8143 H 754.772 -4.32382 0.921865 0
M  V30 8144 N 753.831 -1.1567 -1.07043 0
M  V30 8145 C 755.059 -0.957471 -1.83412 0
M  V30 8146 C 755.474 0.494271 -1.82215 0
M  V30 8147 O 754.831 1.34288 -1.23584 0
M  V30 8148 C 754.882 -1.46784 -3.30359 0
M  V30 8149 O 754.603 -2.86271 -3.31633 0
M  V30 8150 C 756.104 -1.31054 -4.23485 0
M  V30 8151 H 753.324 -0.33986 -0.578564 0
M  V30 8152 H 755.868 -1.53518 -1.35102 0
M  V30 8153 H 754.023 -0.932586 -3.76007 0
M  V30 8154 H 754.437 -3.0948 -4.23465 0
M  V30 8155 H 755.911 -1.71605 -5.24648 0
M  V30 8156 H 756.388 -0.255107 -4.38458 0
M  V30 8157 H 756.994 -1.83503 -3.83676 0
M  V30 8158 N 755.309 1.25446 -0.953992 0
M  V30 8159 C 756.586 1.884 -0.525823 0
M  V30 8160 C 756.966 1.86079 0.996891 0
M  V30 8161 O 756.314 1.32389 1.8624 0
M  V30 8162 C 756.524 3.31154 -1.10172 0
M  V30 8163 C 757.872 4.07926 -1.17819 0
M  V30 8164 O 758.896 3.40273 -1.05323 0
M  V30 8165 O 757.755 5.28942 -1.37415 0
M  V30 8166 H 754.849 0.808629 -0.173345 0
M  V30 8167 H 757.395 1.33522 -1.04738 0
M  V30 8168 H 756.167 3.27271 -2.14499 0
M  V30 8169 H 755.79 3.93588 -0.56338 0
M  V30 8170 N 756.787 0.722489 1.40064 0
M  V30 8171 C 758.033 0.265371 2.01056 0
M  V30 8172 C 758.366 -1.14062 1.57174 0
M  V30 8173 O 757.641 -1.77514 0.794916 0
M  V30 8174 C 757.924 0.353157 3.58364 0
M  V30 8175 C 757.777 1.79802 4.123 0
M  V30 8176 C 759.096 -0.271677 4.39261 0
M  V30 8177 H 756.215 0.0979002 0.730469 0
M  V30 8178 H 758.857 0.916289 1.66446 0
M  V30 8179 H 757.007 -0.201037 3.87979 0
M  V30 8180 H 758.679 2.40813 3.93455 0
M  V30 8181 H 756.922 2.32348 3.66329 0
M  V30 8182 H 757.593 1.81079 5.21454 0
M  V30 8183 H 760.069 0.200607 4.15616 0
M  V30 8184 H 758.945 -0.179843 5.48605 0
M  V30 8185 H 759.206 -1.35611 4.20787 0
M  V30 8186 N 758.265 -1.50454 0.469181 0
M  V30 8187 C 759.493 -2.06729 -0.0842134 0
M  V30 8188 C 759.908 -1.33326 -1.33677 0
M  V30 8189 O 759.265 -0.401977 -1.78018 0
M  V30 8190 C 759.316 -3.59557 -0.374253 0
M  V30 8191 O 759.037 -4.30192 0.828622 0
M  V30 8192 C 760.538 -4.32449 -0.974824 0
M  V30 8193 H 757.758 -0.670971 0.006231 0
M  V30 8194 H 760.302 -1.93645 0.657415 0
M  V30 8195 H 758.457 -3.7245 -1.06581 0
M  V30 8196 H 758.871 -5.21371 0.572066 0
M  V30 8197 H 760.345 -5.40361 -1.12755 0
M  V30 8198 H 760.822 -3.92819 -1.96442 0
M  V30 8199 H 761.428 -4.24082 -0.321703 0
M  V30 8200 N 759.743 -0.201713 -1.56304 0
M  V30 8201 C 760.675 0.748466 -2.16635 0
M  V30 8202 C 761.688 1.172 -1.12996 0
M  V30 8203 O 762.877 1.10658 -1.40061 0
M  V30 8204 C 759.977 2.02296 -2.719 0
M  V30 8205 C 759.15 1.75818 -4.00508 0
M  V30 8206 C 758.209 2.87779 -4.40533 0
M  V30 8207 O 757.235 2.57101 -5.07826 0
M  V30 8208 N 758.437 4.16287 -4.04581 0
M  V30 8209 H 761.202 0.232505 -2.98797 0
M  V30 8210 H 758.763 -0.0199822 -1.61888 0
M  V30 8211 H 760.755 2.7635 -2.95657 0
M  V30 8212 H 759.325 2.44996 -1.94154 0
M  V30 8213 H 758.545 0.855095 -3.84814 0
M  V30 8214 H 759.833 1.55532 -4.84445 0
M  V30 8215 H 759.231 4.44061 -3.50466 0
M  V30 8216 H 757.788 4.86946 -4.33274 0
M  V30 8217 N 761.222 1.57436 0.0718424 0
M  V30 8218 C 762.17 2.04725 1.10411 0
M  V30 8219 C 763.164 0.952579 1.4008 0
M  V30 8220 O 764.37 1.13769 1.39487 0
M  V30 8221 H 760.745 0.652749 0.373393 0
M  V30 8222 H 762.716 2.90569 0.679126 0
M  V30 8223 C 761.465 2.5068 2.40946 0
M  V30 8224 H 760.788 3.34505 2.18967 0
M  V30 8225 H 762.228 2.87521 3.11621 0
M  V30 8226 C 760.687 1.38971 3.06902 0
M  V30 8227 O 761.217 0.731786 3.94978 0
M  V30 8228 N 759.423 1.13485 2.67525 0
M  V30 8229 H 758.97 1.67168 1.95991 0
M  V30 8230 H 758.928 0.389467 3.11978 0
M  V30 8231 N 762.7 -0.34323 1.53817 0
M  V30 8232 C 763.648 -1.44176 1.82527 0
M  V30 8233 C 764.642 -1.54452 0.695772 0
M  V30 8234 O 765.848 -1.57072 0.879114 0
M  V30 8235 H 762.223 -0.480729 0.578277 0
M  V30 8236 H 764.194 -1.17176 2.74431 0
M  V30 8237 C 762.943 -2.80695 2.05197 0
M  V30 8238 H 762.266 -2.73554 2.91561 0
M  V30 8239 H 763.706 -3.56679 2.29251 0
M  V30 8240 C 762.165 -3.26322 0.837589 0
M  V30 8241 O 762.695 -4.01683 0.0371631 0
M  V30 8242 N 760.901 -2.83128 0.654724 0
M  V30 8243 H 760.448 -2.21965 1.30725 0
M  V30 8244 H 760.406 -3.14011 -0.156345 0
M  V30 8245 N 764.178 -1.45556 -0.604258 0
M  V30 8246 C 765.425 -1.49746 -1.36317 0
M  V30 8247 C 765.753 -0.140516 -1.93992 0
M  V30 8248 O 765.008 0.861244 -1.7573 0
M  V30 8249 C 765.307 -2.52697 -2.52743 0
M  V30 8250 C 764.973 -3.97315 -2.13195 0
M  V30 8251 C 763.635 -4.36692 -2.02123 0
M  V30 8252 C 765.987 -4.88249 -1.8238 0
M  V30 8253 C 763.315 -5.64895 -1.58463 0
M  V30 8254 C 765.667 -6.16867 -1.40205 0
M  V30 8255 C 764.331 -6.55172 -1.27694 0
M  V30 8256 H 763.601 -0.54796 -0.49882 0
M  V30 8257 H 766.248 -1.7892 -0.682643 0
M  V30 8258 H 764.553 -2.17105 -3.26148 0
M  V30 8259 H 766.25 -2.53176 -3.10971 0
M  V30 8260 H 762.84 -3.66176 -2.22739 0
M  V30 8261 H 767.024 -4.58561 -1.89829 0
M  V30 8262 H 762.28 -5.93365 -1.47402 0
M  V30 8263 H 766.454 -6.86771 -1.15408 0
M  V30 8264 H 764.081 -7.54411 -0.936375 0
M  V30 8265 N 765.656 0.84705 -1.32902 0
M  V30 8266 C 766.606 1.94451 -1.19049 0
M  V30 8267 C 767.59 1.60617 -0.095461 0
M  V30 8268 O 768.782 1.74033 -0.322739 0
M  V30 8269 C 765.911 3.30645 -0.923509 0
M  V30 8270 C 764.997 3.70675 -2.0606 0
M  V30 8271 N 765.388 3.82468 -3.30986 0
M  V30 8272 C 763.686 4.00357 -1.96547 0
M  V30 8273 C 764.387 4.17056 -4.05511 0
M  V30 8274 N 763.363 4.28985 -3.33876 0
M  V30 8275 H 767.165 2.01713 -2.1375 0
M  V30 8276 H 764.679 1.03928 -1.24791 0
M  V30 8277 H 766.676 4.0905 -0.805212 0
M  V30 8278 H 765.336 3.24697 0.0150523 0
M  V30 8279 H 766.347 3.66589 -3.65832 0
M  V30 8280 H 763.024 4.02666 -1.10299 0
M  V30 8281 H 764.414 4.33585 -5.13277 0
M  V30 8282 N 767.134 1.16236 1.06428 0
M  V30 8283 C 768.082 0.863669 2.15971 0
M  V30 8284 C 769.076 -0.166723 1.68578 0
M  V30 8285 O 770.282 -0.0208425 1.79988 0
M  V30 8286 H 766.657 0.261684 0.705 0
M  V30 8287 H 768.628 1.79498 2.38376 0
M  V30 8288 C 767.377 0.379697 3.45621 0
M  V30 8289 H 766.7 1.16399 3.82481 0
M  V30 8290 H 768.14 0.209458 4.23482 0
M  V30 8291 C 766.599 -0.900499 3.24642 0
M  V30 8292 O 767.129 -1.97004 3.50074 0
M  V30 8293 N 765.335 -0.843721 2.78082 0
M  V30 8294 H 764.882 0.0268429 2.57586 0
M  V30 8295 H 764.84 -1.70078 2.64425 0
M  V30 8296 N 768.612 -1.24939 0.960631 0
M  V30 8297 C 769.842 -1.96595 0.635123 0
M  V30 8298 C 770.25 -1.71538 -0.798206 0
M  V30 8299 O 769.593 -0.991727 -1.5463 0
M  V30 8300 C 769.655 -3.49994 0.821248 0
M  V30 8301 C 769.319 -3.98738 2.23287 0
M  V30 8302 C 770.316 -4.08965 3.21004 0
M  V30 8303 C 768.001 -4.32247 2.55867 0
M  V30 8304 C 769.995 -4.52025 4.49391 0
M  V30 8305 C 767.682 -4.74991 3.84482 0
M  V30 8306 C 768.68 -4.84844 4.81056 0
M  V30 8307 O 768.368 -5.26638 6.07378 0
M  V30 8308 H 768.1 -0.633265 0.23654 0
M  V30 8309 H 770.654 -1.5991 1.28911 0
M  V30 8310 H 768.884 -3.86543 0.110105 0
M  V30 8311 H 770.573 -4.02859 0.495892 0
M  V30 8312 H 771.339 -3.83302 2.97161 0
M  V30 8313 H 767.218 -4.23801 1.81421 0
M  V30 8314 H 770.762 -4.5963 5.24773 0
M  V30 8315 H 766.659 -5.00101 4.08129 0
M  V30 8316 H 767.427 -5.44807 6.10842 0
M  V30 8317 N 770.09 -0.729906 -1.39679 0
M  V30 8318 C 771.337 -0.275622 -2.00615 0
M  V30 8319 C 771.665 1.13559 -1.57907 0
M  V30 8320 O 770.92 1.78745 -0.796789 0
M  V30 8321 C 771.219 -0.319564 -3.55968 0
M  V30 8322 C 770.885 -1.68308 -4.1831 0
M  V30 8323 C 769.547 -2.05629 -4.35052 0
M  V30 8324 C 771.899 -2.57857 -4.52945 0
M  V30 8325 C 769.227 -3.32018 -4.83716 0
M  V30 8326 C 771.579 -3.83613 -5.03015 0
M  V30 8327 C 770.243 -4.21033 -5.17965 0
M  V30 8328 H 769.513 -0.100857 -0.734104 0
M  V30 8329 H 772.16 -0.93575 -1.67081 0
M  V30 8330 H 770.465 0.42414 -3.89497 0
M  V30 8331 H 772.162 0.0499905 -4.00969 0
M  V30 8332 H 768.752 -1.3829 -4.05677 0
M  V30 8333 H 772.936 -2.30295 -4.39634 0
M  V30 8334 H 768.192 -3.6096 -4.93475 0
M  V30 8335 H 772.366 -4.53162 -5.28788 0
M  V30 8336 H 769.993 -5.19034 -5.55435 0
M  V30 8337 N 771.568 1.50203 -0.477153 0
M  V30 8338 C 772.816 2.01959 0.0755889 0
M  V30 8339 C 773.137 1.3608 1.39668 0
M  V30 8340 O 772.407 0.508136 1.89195 0
M  V30 8341 H 770.987 0.74636 0.0309248 0
M  V30 8342 H 773.649 1.84473 -0.628959 0
M  V30 8343 H 772.745 3.11305 0.222683 0
M  V30 8344 N 773.046 0.209999 1.56195 0
M  V30 8345 C 774.294 -0.423974 1.97603 0
M  V30 8346 C 774.615 -1.61112 1.09854 0
M  V30 8347 O 773.885 -1.95134 0.173032 0
M  V30 8348 H 772.465 -0.159629 0.729745 0
M  V30 8349 H 775.127 0.300205 1.92574 0
M  V30 8350 H 774.223 -0.75809 3.02753 0
M  V30 8351 N 774.524 -1.57472 -0.0634922 0
M  V30 8352 C 775.749 -1.92273 -0.77756 0
M  V30 8353 C 776.174 -0.807141 -1.69902 0
M  V30 8354 O 775.532 0.239523 -1.79711 0
M  V30 8355 C 775.58 -3.26054 -1.54017 0
M  V30 8356 O 774.684 -3.15873 -2.65138 0
M  V30 8357 H 774.025 -0.629389 -0.211579 0
M  V30 8358 H 776.555 -2.04579 -0.0292523 0
M  V30 8359 H 776.565 -3.60127 -1.91763 0
M  V30 8360 H 775.24 -4.06824 -0.864128 0
M  V30 8361 H 773.817 -2.93373 -2.30189 0
M  V30 8362 N 776.003 0.335068 -1.53997 0
M  V30 8363 C 776.913 1.43511 -1.85585 0
M  V30 8364 C 777.929 1.57162 -0.746726 0
M  V30 8365 O 779.105 1.72477 -1.03988 0
M  V30 8366 C 776.17 2.78386 -2.06646 0
M  V30 8367 C 775.231 2.74007 -3.30483 0
M  V30 8368 C 774.464 4.02449 -3.50529 0
M  V30 8369 O 774.687 5.00147 -2.74242 0
M  V30 8370 O 773.621 4.06405 -4.4398 0
M  V30 8371 H 777.447 1.19731 -2.79102 0
M  V30 8372 H 775.032 0.528033 -1.39758 0
M  V30 8373 H 776.914 3.58247 -2.21894 0
M  V30 8374 H 775.589 3.0208 -1.16317 0
M  V30 8375 H 774.496 1.92736 -3.2063 0
M  V30 8376 H 775.829 2.55267 -4.20832 0
M  V30 8377 N 777.481 1.45874 0.596531 0
M  V30 8378 C 778.73 1.49737 1.35135 0
M  V30 8379 C 779.043 0.147755 1.95041 0
M  V30 8380 O 780.249 0.0640984 2.71424 0
M  V30 8381 C 778.705 2.6378 2.44843 0
M  V30 8382 C 778.313 4.05102 1.91301 0
M  V30 8383 C 780.057 2.769 3.21755 0
M  V30 8384 C 777.964 5.10508 2.98557 0
M  V30 8385 H 776.894 0.557219 0.507959 0
M  V30 8386 H 779.545 1.72046 0.638147 0
M  V30 8387 H 777.927 2.34774 3.189 0
M  V30 8388 H 779.101 4.43836 1.2388 0
M  V30 8389 H 777.416 3.96528 1.271 0
M  V30 8390 H 780.013 3.52819 4.01775 0
M  V30 8391 H 780.356 1.83924 3.73467 0
M  V30 8392 H 780.889 3.05485 2.54802 0
M  V30 8393 H 777.628 6.0523 2.51749 0
M  V30 8394 H 777.148 4.76332 3.6451 0
M  V30 8395 H 778.827 5.35745 3.62748 0
M  V30 8396 N 778.959 -0.83999 1.33349 0
M  V30 8397 C 780.205 -1.59753 1.24927 0
M  V30 8398 C 780.538 -1.93318 -0.184855 0
M  V30 8399 O 779.813 -1.586 -1.12589 0
M  V30 8400 C 780.096 -2.90829 2.12345 0
M  V30 8401 C 779.949 -2.63953 3.6421 0
M  V30 8402 C 781.268 -3.92246 1.99577 0
M  V30 8403 H 778.387 -0.579654 0.45516 0
M  V30 8404 H 781.029 -0.968909 1.63439 0
M  V30 8405 H 779.179 -3.44478 1.79631 0
M  V30 8406 H 780.851 -2.16745 4.07209 0
M  V30 8407 H 779.094 -1.97671 3.86146 0
M  V30 8408 H 779.765 -3.57348 4.20721 0
M  V30 8409 H 782.241 -3.479 2.28265 0
M  V30 8410 H 781.117 -4.81793 2.62996 0
M  V30 8411 H 781.378 -4.3138 0.967673 0
M  V30 8412 N 780.437 -1.16799 -1.0581 0
M  V30 8413 C 781.683 -0.953935 -1.78963 0
M  V30 8414 C 782.016 0.516638 -1.87202 0
M  V30 8415 O 781.291 1.38338 -1.36721 0
M  V30 8416 C 781.574 -1.58808 -3.23191 0
M  V30 8417 C 781.427 -3.13032 -3.23003 0
M  V30 8418 C 782.746 -1.2868 -4.20867 0
M  V30 8419 H 779.865 -0.347972 -0.64968 0
M  V30 8420 H 782.507 -1.44204 -1.23715 0
M  V30 8421 H 780.657 -1.17303 -3.70368 0
M  V30 8422 H 782.329 -3.63553 -2.83949 0
M  V30 8423 H 780.572 -3.46108 -2.61518 0
M  V30 8424 H 781.243 -3.52527 -4.24769 0
M  V30 8425 H 783.719 -1.6461 -3.82155 0
M  V30 8426 H 782.595 -1.75645 -5.20038 0
M  V30 8427 H 782.856 -0.206491 -4.41618 0
M  V30 8428 N 781.915 1.24427 -0.967243 0
M  V30 8429 C 782.878 2.23637 -0.501927 0
M  V30 8430 C 783.878 1.55712 0.401283 0
M  V30 8431 O 785.068 1.73085 0.196808 0
M  V30 8432 C 782.2 3.39804 0.273176 0
M  V30 8433 H 783.393 2.66317 -1.37897 0
M  V30 8434 H 780.946 1.37033 -0.751783 0
M  V30 8435 H 781.681 3.02562 1.16733 0
M  V30 8436 H 781.466 3.90303 -0.37498 0
M  V30 8437 H 782.956 4.13443 0.587776 0
M  V30 8438 N 783.393 0.737304 1.3929 0
M  V30 8439 C 784.641 0.285691 2.00071 0
M  V30 8440 C 784.962 -1.13169 1.58801 0
M  V30 8441 O 784.232 -1.77104 0.837308 0
M  V30 8442 H 782.812 0.102638 0.739915 0
M  V30 8443 H 785.474 0.947775 1.70303 0
M  V30 8444 H 784.57 0.335906 3.10287 0
M  V30 8445 N 784.871 -1.49948 0.485112 0
M  V30 8446 C 785.818 -2.28819 -0.301729 0
M  V30 8447 C 786.788 -1.34496 -0.974683 0
M  V30 8448 O 787.973 -1.63444 -0.984418 0
M  V30 8449 C 785.113 -3.16758 -1.36961 0
M  V30 8450 C 784.226 -4.26125 -0.710027 0
M  V30 8451 C 783.361 -5.01302 -1.75699 0
M  V30 8452 C 782.4 -6.02525 -1.07841 0
M  V30 8453 N 781.537 -6.70927 -2.06886 0
M  V30 8454 H 786.377 -2.95604 0.377127 0
M  V30 8455 H 783.914 -1.45764 0.197826 0
M  V30 8456 H 785.872 -3.66106 -2.00056 0
M  V30 8457 H 784.502 -2.51991 -2.01744 0
M  V30 8458 H 783.554 -3.80385 0.0338278 0
M  V30 8459 H 784.866 -4.98493 -0.175079 0
M  V30 8460 H 784.02 -5.54438 -2.46339 0
M  V30 8461 H 782.759 -4.28672 -2.32577 0
M  V30 8462 H 781.764 -5.48635 -0.357706 0
M  V30 8463 H 782.989 -6.77134 -0.516345 0
M  V30 8464 H 780.935 -6.01079 -2.62755 0
M  V30 8465 H 780.852 -7.39216 -1.58414 0
M  V30 8466 H 782.12 -7.28675 -2.76863 0
M  V30 8467 N 786.349 -0.21828 -1.56081 0
M  V30 8468 C 787.596 0.414307 -1.98216 0
M  V30 8469 C 787.924 1.60005 -1.10584 0
M  V30 8470 O 787.179 1.95124 -0.150043 0
M  V30 8471 C 787.478 0.894782 -3.46018 0
M  V30 8472 C 787.144 -0.180083 -4.5054 0
M  V30 8473 C 785.806 -0.475367 -4.78846 0
M  V30 8474 C 788.158 -0.907191 -5.13244 0
M  V30 8475 C 785.486 -1.50233 -5.67139 0
M  V30 8476 C 787.838 -1.92347 -6.02649 0
M  V30 8477 C 786.502 -2.22571 -6.293 0
M  V30 8478 H 785.772 0.151606 -0.725325 0
M  V30 8479 H 788.419 -0.320113 -1.88806 0
M  V30 8480 H 786.724 1.7079 -3.52616 0
M  V30 8481 H 788.421 1.39403 -3.75989 0
M  V30 8482 H 785.011 0.06022 -4.28558 0
M  V30 8483 H 789.195 -0.692303 -4.91448 0
M  V30 8484 H 784.451 -1.74215 -5.86054 0
M  V30 8485 H 788.625 -2.49197 -6.50288 0
M  V30 8486 H 786.252 -3.0229 -6.97513 0
M  V30 8487 N 787.827 1.57504 0.0551401 0
M  V30 8488 C 789.104 1.79155 0.785048 0
M  V30 8489 C 789.484 0.809995 1.94942 0
M  V30 8490 O 788.832 -0.153432 2.27984 0
M  V30 8491 C 789.042 3.26134 1.24247 0
M  V30 8492 C 790.39 3.90419 1.66908 0
M  V30 8493 O 791.414 3.30126 1.33772 0
M  V30 8494 O 790.273 4.96523 2.28314 0
M  V30 8495 H 787.367 0.735825 0.377479 0
M  V30 8496 H 789.913 1.69666 0.0339285 0
M  V30 8497 H 788.685 3.89145 0.410089 0
M  V30 8498 H 788.308 3.40411 2.05441 0
M  V30 8499 N 789.305 -0.326896 1.54172 0
M  V30 8500 C 790.716 -0.901533 1.63491 0
M  V30 8501 C 791.067 -1.88994 0.52684 0
M  V30 8502 O 790.192 -2.137 -0.340794 0
M  V30 8503 C 790.787 -1.64192 2.96355 0
M  V30 8504 C 789.346 -2.16533 3.07881 0
M  V30 8505 C 788.493 -0.98966 2.59039 0
M  V30 8506 H 791.444 -0.104568 1.58355 0
M  V30 8507 H 791.465 -2.50592 2.86328 0
M  V30 8508 H 790.977 -0.922291 3.76982 0
M  V30 8509 H 789.078 -2.91622 2.31922 0
M  V30 8510 H 789.191 -2.41762 4.13628 0
M  V30 8511 H 787.555 -1.36787 2.14852 0
M  V30 8512 H 788.338 -0.284401 3.4212 0
M  V30 8513 N 790.784 -1.46188 -0.588786 0
M  V30 8514 C 791.747 -1.55882 -1.68029 0
M  V30 8515 C 792.747 -0.436515 -1.54762 0
M  V30 8516 O 793.937 -0.700626 -1.59489 0
M  V30 8517 C 791.069 -1.47332 -3.07418 0
M  V30 8518 H 792.262 -2.5315 -1.60795 0
M  V30 8519 H 789.815 -1.33908 -0.806116 0
M  V30 8520 H 790.55 -0.513193 -3.20214 0
M  V30 8521 H 790.335 -2.28753 -3.18456 0
M  V30 8522 H 791.825 -1.57187 -3.86887 0
M  V30 8523 N 792.262 0.832906 -1.33792 0
M  V30 8524 C 793.209 1.94314 -1.24541 0
M  V30 8525 C 794.179 1.65646 -0.122753 0
M  V30 8526 O 795.364 1.88394 -0.30204 0
M  V30 8527 C 792.504 3.30395 -0.996641 0
M  V30 8528 C 791.617 3.71422 -2.20612 0
M  V30 8529 C 790.752 4.96401 -1.89101 0
M  V30 8530 C 789.791 5.2998 -3.06247 0
M  V30 8531 N 788.928 6.46137 -2.74685 0
M  V30 8532 H 793.768 2.01559 -2.19495 0
M  V30 8533 H 791.305 0.986243 -1.09141 0
M  V30 8534 H 793.263 4.08803 -0.832817 0
M  V30 8535 H 791.893 3.22691 -0.0838242 0
M  V30 8536 H 790.945 2.88488 -2.47949 0
M  V30 8537 H 792.257 3.92215 -3.0817 0
M  V30 8538 H 791.411 5.82572 -1.69396 0
M  V30 8539 H 790.15 4.7759 -0.987882 0
M  V30 8540 H 789.155 4.42312 -3.26559 0
M  V30 8541 H 790.38 5.50737 -3.97323 0
M  V30 8542 H 788.326 6.28801 -1.86938 0
M  V30 8543 H 788.243 6.67054 -3.55774 0
M  V30 8544 H 789.511 7.35403 -2.58461 0
M  V30 8545 N 793.74 1.17359 1.05189 0
M  V30 8546 C 794.67 0.91365 2.14883 0
M  V30 8547 C 795.651 -0.144365 1.69486 0
M  V30 8548 O 796.836 0.00587861 1.94199 0
M  V30 8549 C 793.966 0.426196 3.44675 0
M  V30 8550 C 792.92 1.4234 4.03638 0
M  V30 8551 C 792.246 0.793902 5.28773 0
M  V30 8552 C 793.546 2.7966 4.41121 0
M  V30 8553 H 795.24 1.831 2.36885 0
M  V30 8554 H 792.786 0.881781 1.13845 0
M  V30 8555 H 794.739 0.231767 4.20762 0
M  V30 8556 H 793.463 -0.526693 3.22325 0
M  V30 8557 H 792.122 1.60457 3.2962 0
M  V30 8558 H 791.77 -0.165824 5.02727 0
M  V30 8559 H 791.47 1.45959 5.69183 0
M  V30 8560 H 792.994 0.609747 6.07548 0
M  V30 8561 H 794.408 2.6526 5.08242 0
M  V30 8562 H 792.805 3.42807 4.92548 0
M  V30 8563 H 793.875 3.34068 3.51464 0
M  V30 8564 N 795.218 -1.23913 0.973828 0
M  V30 8565 C 796.495 -1.87539 0.555729 0
M  V30 8566 C 796.875 -1.87641 -0.967162 0
M  V30 8567 O 796.223 -1.35335 -1.84111 0
M  V30 8568 C 796.433 -3.29359 1.15427 0
M  V30 8569 C 797.781 -4.06 1.24294 0
M  V30 8570 O 798.805 -3.38554 1.10723 0
M  V30 8571 O 797.664 -5.26689 1.45813 0
M  V30 8572 H 794.758 -0.805769 0.186188 0
M  V30 8573 H 797.304 -1.31838 1.06849 0
M  V30 8574 H 796.076 -3.23817 2.19678 0
M  V30 8575 H 795.699 -3.92642 0.625925 0
M  V30 8576 N 796.696 -0.74468 -1.38897 0
M  V30 8577 C 797.628 -0.0713608 -2.29089 0
M  V30 8578 C 798.641 0.693224 -1.47303 0
M  V30 8579 O 799.83 0.535785 -1.70269 0
M  V30 8580 C 796.93 0.923078 -3.26087 0
M  V30 8581 C 796.103 0.217998 -4.36856 0
M  V30 8582 C 795.162 1.12192 -5.14101 0
M  V30 8583 O 794.188 0.595771 -5.66073 0
M  V30 8584 N 795.39 2.45082 -5.26227 0
M  V30 8585 H 798.155 -0.845906 -2.87514 0
M  V30 8586 H 795.716 -0.594712 -1.50581 0
M  V30 8587 H 797.708 1.53061 -3.74639 0
M  V30 8588 H 796.278 1.59876 -2.68623 0
M  V30 8589 H 795.498 -0.570134 -3.90055 0
M  V30 8590 H 796.786 -0.270248 -5.08082 0
M  V30 8591 H 796.184 2.90294 -4.85537 0
M  V30 8592 H 794.741 3.00907 -5.78185 0
M  V30 8593 N 798.174 1.49689 -0.493057 0
M  V30 8594 C 799.423 2.01622 0.0560733 0
M  V30 8595 C 799.736 1.37838 1.3878 0
M  V30 8596 O 800.942 1.81054 2.02316 0
M  V30 8597 C 799.398 3.59586 0.150409 0
M  V30 8598 C 799.006 4.32338 -1.1742 0
M  V30 8599 C 800.75 4.19489 0.650327 0
M  V30 8600 C 798.657 5.8214 -1.04246 0
M  V30 8601 H 797.587 0.753594 0.0247297 0
M  V30 8602 H 800.238 1.723 -0.631279 0
M  V30 8603 H 798.62 3.8559 0.902035 0
M  V30 8604 H 799.794 4.18042 -1.9385 0
M  V30 8605 H 798.109 3.84144 -1.60694 0
M  V30 8606 H 800.706 5.29181 0.766272 0
M  V30 8607 H 801.049 3.82326 1.6472 0
M  V30 8608 H 801.582 3.97775 -0.0445371 0
M  V30 8609 H 798.321 6.23814 -2.01336 0
M  V30 8610 H 797.841 5.98952 -0.31892 0
M  V30 8611 H 799.52 6.43004 -0.717957 0
M  V30 8612 N 799.652 0.226554 1.55963 0
M  V30 8613 C 800.562 -0.692725 2.24139 0
M  V30 8614 C 801.578 -1.20971 1.25068 0
M  V30 8615 O 802.754 -1.25027 1.57893 0
M  V30 8616 C 799.819 -1.88183 2.91184 0
M  V30 8617 C 798.88 -1.40633 4.05612 0
M  V30 8618 C 798.113 -2.53875 4.6945 0
M  V30 8619 O 798.336 -3.72129 4.32292 0
M  V30 8620 O 797.27 -2.24792 5.58348 0
M  V30 8621 H 801.096 -0.141921 3.03368 0
M  V30 8622 H 798.681 -0.0041049 1.49399 0
M  V30 8623 H 800.563 -2.57617 3.33484 0
M  V30 8624 H 799.238 -2.42064 2.14911 0
M  V30 8625 H 798.145 -0.67986 3.67871 0
M  V30 8626 H 799.478 -0.913838 4.83642 0
M  V30 8627 N 801.13 -1.57531 -0.0467866 0
M  V30 8628 C 802.355 -1.93087 -0.757123 0
M  V30 8629 C 802.78 -0.825116 -1.69037 0
M  V30 8630 O 802.138 0.220449 -1.79955 0
M  V30 8631 C 802.186 -3.27669 -1.5055 0
M  V30 8632 O 801.29 -3.18667 -2.61773 0
M  V30 8633 H 800.631 -0.631597 -0.204892 0
M  V30 8634 H 803.161 -2.04599 -0.00755232 0
M  V30 8635 H 803.171 -3.6214 -1.87932 0
M  V30 8636 H 801.846 -4.07717 -0.820931 0
M  V30 8637 H 800.423 -2.95798 -2.27064 0
M  V30 8638 N 802.608 0.318715 -1.54344 0
M  V30 8639 C 803.854 1.05765 -1.73037 0
M  V30 8640 C 804.187 1.87514 -0.505181 0
M  V30 8641 O 803.462 1.88021 0.497838 0
M  V30 8642 C 803.745 1.97836 -3.00887 0
M  V30 8643 C 803.598 1.19384 -4.33668 0
M  V30 8644 C 804.917 2.97285 -3.24514 0
M  V30 8645 H 802.036 0.383104 -0.629603 0
M  V30 8646 H 804.678 0.333864 -1.87044 0
M  V30 8647 H 802.828 2.59552 -2.89076 0
M  V30 8648 H 804.5 0.600906 -4.57369 0
M  V30 8649 H 802.743 0.496198 -4.30953 0
M  V30 8650 H 803.414 1.87014 -5.19355 0
M  V30 8651 H 805.89 2.45693 -3.35819 0
M  V30 8652 H 804.766 3.58887 -4.15321 0
M  V30 8653 H 805.027 3.70003 -2.41971 0
M  V30 8654 N 804.086 1.46499 0.581025 0
M  V30 8655 C 805.335 1.51162 1.3354 0
M  V30 8656 C 805.648 0.168433 1.94873 0
M  V30 8657 O 806.854 0.092883 2.71341 0
M  V30 8658 C 805.31 2.66362 2.42032 0
M  V30 8659 C 804.918 4.07109 1.86994 0
M  V30 8660 C 806.662 2.80297 3.188 0
M  V30 8661 C 804.569 5.13645 2.93125 0
M  V30 8662 H 803.499 0.562576 0.502021 0
M  V30 8663 H 806.15 1.72713 0.619863 0
M  V30 8664 H 804.532 2.38143 3.16392 0
M  V30 8665 H 805.706 4.45125 1.19166 0
M  V30 8666 H 804.021 3.97854 1.22887 0
M  V30 8667 H 806.618 3.5706 3.9801 0
M  V30 8668 H 806.961 1.87875 3.71495 0
M  V30 8669 H 807.494 3.0817 2.51547 0
M  V30 8670 H 804.233 6.07866 2.45315 0
M  V30 8671 H 803.753 4.80172 3.59437 0
M  V30 8672 H 805.432 5.39562 3.57046 0
M  V30 8673 N 805.565 -0.825799 1.34232 0
M  V30 8674 C 806.793 -1.61363 1.29497 0
M  V30 8675 C 807.208 -1.88341 -0.131536 0
M  V30 8676 O 806.565 -1.47279 -1.07773 0
M  V30 8677 C 806.616 -2.95623 2.08061 0
M  V30 8678 O 806.337 -2.69824 3.45147 0
M  V30 8679 C 807.838 -3.90032 2.10688 0
M  V30 8680 H 805.058 -0.501676 0.445603 0
M  V30 8681 H 807.602 -1.02767 1.76803 0
M  V30 8682 H 805.757 -3.50785 1.64404 0
M  V30 8683 H 806.171 -3.55412 3.85723 0
M  V30 8684 H 807.645 -4.81411 2.70087 0
M  V30 8685 H 808.122 -4.25188 1.10052 0
M  V30 8686 H 808.728 -3.40807 2.54422 0
M  V30 8687 N 807.043 -1.17915 -1.04565 0
M  V30 8688 C 808.006 -0.903787 -2.10628 0
M  V30 8689 C 809.006 0.10873 -1.60432 0
M  V30 8690 O 810.196 -0.124152 -1.73757 0
M  V30 8691 C 807.328 -0.355017 -3.39046 0
M  V30 8692 H 808.521 -1.84425 -2.3649 0
M  V30 8693 H 806.074 -0.990477 -1.2091 0
M  V30 8694 H 806.809 0.592297 -3.18845 0
M  V30 8695 H 806.594 -1.08484 -3.76794 0
M  V30 8696 H 808.084 -0.180891 -4.17208 0
M  V30 8697 N 808.521 1.23394 -0.980386 0
M  V30 8698 C 809.749 1.95844 -0.667286 0
M  V30 8699 C 810.164 1.72574 0.765735 0
M  V30 8700 O 809.521 1.01715 1.51526 0
M  V30 8701 C 809.572 3.48844 -0.948151 0
M  V30 8702 O 809.293 3.71325 -2.32485 0
M  V30 8703 C 810.794 4.38494 -0.651002 0
M  V30 8704 H 808.014 0.623535 -0.247882 0
M  V30 8705 H 810.558 1.56885 -1.31176 0
M  V30 8706 H 808.713 3.85819 -0.349681 0
M  V30 8707 H 809.127 4.65619 -2.41452 0
M  V30 8708 H 810.601 5.44648 -0.897887 0
M  V30 8709 H 811.078 4.37236 0.414922 0
M  V30 8710 H 811.684 4.07127 -1.22995 0
M  V30 8711 N 809.999 0.752036 1.385 0
M  V30 8712 C 811.224 0.316993 2.04963 0
M  V30 8713 C 811.649 -1.04582 1.56346 0
M  V30 8714 O 811.007 -1.66616 0.714755 0
M  V30 8715 C 811.055 0.347235 3.58924 0
M  V30 8716 O 810.159 -0.659296 4.07096 0
M  V30 8717 H 809.5 0.140652 0.648932 0
M  V30 8718 H 812.03 1.02272 1.77205 0
M  V30 8719 H 812.04 0.19757 4.07521 0
M  V30 8720 H 810.715 1.34157 3.93668 0
M  V30 8721 H 809.292 -0.474371 3.6987 0
M  V30 8722 N 811.477 -1.49425 0.500989 0
M  V30 8723 C 812.44 -2.27646 -0.266416 0
M  V30 8724 C 813.44 -1.3366 -0.893961 0
M  V30 8725 O 814.63 -1.5682 -0.758495 0
M  V30 8726 C 811.762 -3.11618 -1.38227 0
M  V30 8727 H 812.955 -2.96945 0.419973 0
M  V30 8728 H 810.508 -1.5419 0.255954 0
M  V30 8729 H 811.243 -2.46885 -2.10281 0
M  V30 8730 H 811.028 -3.80721 -0.937746 0
M  V30 8731 H 812.518 -3.70698 -1.92283 0
M  V30 8732 N 812.955 -0.234822 -1.55841 0
M  V30 8733 C 813.903 0.686145 -2.22249 0
M  V30 8734 C 814.897 1.18948 -1.20614 0
M  V30 8735 O 816.103 1.14777 -1.38659 0
M  V30 8736 H 812.478 0.239724 -0.712767 0
M  V30 8737 H 814.449 0.102762 -2.98223 0
M  V30 8738 C 813.198 1.8776 -2.92646 0
M  V30 8739 H 812.521 1.49943 -3.70617 0
M  V30 8740 H 813.961 2.4995 -3.42493 0
M  V30 8741 C 812.42 2.74127 -1.95847 0
M  V30 8742 O 812.95 3.7329 -1.48384 0
M  V30 8743 N 811.156 2.4044 -1.63209 0
M  V30 8744 H 810.703 1.59854 -2.02001 0
M  V30 8745 H 810.661 2.98504 -0.987063 0
M  V30 8746 N 814.433 1.57553 0.0384317 0
M  V30 8747 C 815.661 1.93093 0.743141 0
M  V30 8748 C 816.076 0.833787 1.69391 0
M  V30 8749 O 815.433 -0.190532 1.81503 0
M  V30 8750 C 815.484 3.28533 1.50826 0
M  V30 8751 O 815.205 4.34032 0.595665 0
M  V30 8752 C 816.706 3.78297 2.31098 0
M  V30 8753 H 813.926 0.637486 0.20941 0
M  V30 8754 H 816.47 2.045 -0.00125154 0
M  V30 8755 H 814.625 3.18552 2.20462 0
M  V30 8756 H 815.039 5.12155 1.13124 0
M  V30 8757 H 816.513 4.75602 2.80191 0
M  V30 8758 H 816.99 3.09008 3.12107 0
M  V30 8759 H 817.596 3.91331 1.66555 0
M  V30 8760 N 815.911 -0.310526 1.54511 0
M  V30 8761 C 816.843 -1.40405 1.8116 0
M  V30 8762 C 817.856 -1.47261 0.694114 0
M  V30 8763 O 819.045 -1.49751 0.971441 0
M  V30 8764 C 816.145 -2.78849 1.92604 0
M  V30 8765 C 815.318 -2.95041 3.22908 0
M  V30 8766 C 814.377 -4.13925 3.24889 0
M  V30 8767 O 813.403 -4.06463 3.98467 0
M  V30 8768 N 814.605 -5.24099 2.496 0
M  V30 8769 H 817.37 -1.17903 2.75534 0
M  V30 8770 H 814.931 -0.500564 1.53967 0
M  V30 8771 H 816.923 -3.5661 1.91342 0
M  V30 8772 H 815.493 -2.94342 1.05268 0
M  V30 8773 H 814.713 -2.04472 3.37023 0
M  V30 8774 H 816.001 -3.02763 4.08916 0
M  V30 8775 H 815.399 -5.33039 1.89435 0
M  V30 8776 H 813.956 -6.0023 2.54102 0
M  V30 8777 N 817.389 -1.46805 -0.573248 0
M  V30 8778 C 818.319 -1.60951 -1.69165 0
M  V30 8779 C 819.3 -0.45948 -1.63777 0
M  V30 8780 O 820.485 -0.68688 -1.81647 0
M  V30 8781 C 817.615 -1.60844 -3.07809 0
M  V30 8782 C 816.569 -2.74913 -3.28035 0
M  V30 8783 C 815.895 -2.59871 -4.67302 0
M  V30 8784 C 817.195 -4.16654 -3.14955 0
M  V30 8785 H 818.889 -2.54574 -1.57582 0
M  V30 8786 H 816.435 -1.22516 -0.756686 0
M  V30 8787 H 818.388 -1.69334 -3.85881 0
M  V30 8788 H 817.112 -0.637714 -3.20314 0
M  V30 8789 H 815.771 -2.65908 -2.52366 0
M  V30 8790 H 815.419 -1.60861 -4.76585 0
M  V30 8791 H 815.119 -3.36386 -4.81786 0
M  V30 8792 H 816.643 -2.70265 -5.4753 0
M  V30 8793 H 818.057 -4.26721 -3.82861 0
M  V30 8794 H 816.454 -4.93831 -3.40956 0
M  V30 8795 H 817.524 -4.36146 -2.11908 0
M  V30 8796 N 818.867 0.818669 -1.34668 0
M  V30 8797 C 820.113 1.57746 -1.27453 0
M  V30 8798 C 820.446 1.93588 0.154077 0
M  V30 8799 O 819.721 1.60371 1.10051 0
M  V30 8800 C 820.004 2.87414 -2.16945 0
M  V30 8801 C 819.857 2.58125 -3.68363 0
M  V30 8802 C 821.176 3.89021 -2.05792 0
M  V30 8803 H 818.295 0.572339 -0.464324 0
M  V30 8804 H 820.937 0.942784 -1.64959 0
M  V30 8805 H 819.087 3.41576 -1.85089 0
M  V30 8806 H 820.759 2.10239 -4.10606 0
M  V30 8807 H 819.002 1.91503 -3.89242 0
M  V30 8808 H 819.673 3.5061 -4.26353 0
M  V30 8809 H 822.149 3.44224 -2.33771 0
M  V30 8810 H 821.025 4.77548 -2.70628 0
M  V30 8811 H 821.286 4.29786 -1.03618 0
M  V30 8812 N 820.346 1.18468 1.03938 0
M  V30 8813 C 821.276 0.936389 2.13902 0
M  V30 8814 C 822.257 -0.126381 1.6963 0
M  V30 8815 O 823.442 0.0264757 1.94182 0
M  V30 8816 C 820.572 0.462729 3.44204 0
M  V30 8817 C 819.526 1.46613 4.02105 0
M  V30 8818 C 818.852 0.84994 5.27902 0
M  V30 8819 C 820.152 2.84323 4.3813 0
M  V30 8820 H 821.846 1.85602 2.3493 0
M  V30 8821 H 819.392 0.893806 1.12903 0
M  V30 8822 H 821.345 0.276382 4.20493 0
M  V30 8823 H 820.069 -0.492477 3.22866 0
M  V30 8824 H 818.728 1.63944 3.27899 0
M  V30 8825 H 818.376 -0.112493 5.02874 0
M  V30 8826 H 818.076 1.51988 5.67603 0
M  V30 8827 H 819.6 0.674152 6.06867 0
M  V30 8828 H 821.014 2.70636 5.054 0
M  V30 8829 H 819.411 3.48012 4.88884 0
M  V30 8830 H 820.481 3.37776 3.47901 0
M  V30 8831 N 821.824 -1.22873 0.986916 0
M  V30 8832 C 822.734 -2.28277 0.540978 0
M  V30 8833 C 823.75 -1.69164 -0.407363 0
M  V30 8834 O 824.926 -1.99504 -0.275674 0
M  V30 8835 C 821.991 -3.46404 -0.143181 0
M  V30 8836 C 821.052 -4.20854 0.847375 0
M  V30 8837 C 820.285 -5.33341 0.19577 0
M  V30 8838 O 820.508 -5.61356 -1.0117 0
M  V30 8839 O 819.442 -5.95169 0.897623 0
M  V30 8840 H 823.268 -2.68578 1.41773 0
M  V30 8841 H 820.853 -1.28927 0.754867 0
M  V30 8842 H 822.735 -4.18096 -0.526676 0
M  V30 8843 H 821.41 -3.08041 -0.994593 0
M  V30 8844 H 820.317 -3.51459 1.28169 0
M  V30 8845 H 821.65 -4.63082 1.6678 0
M  V30 8846 N 823.302 -0.75937 -1.38099 0
M  V30 8847 C 824.53 -0.329111 -2.04266 0
M  V30 8848 C 824.945 1.04453 -1.57274 0
M  V30 8849 O 824.302 1.66449 -0.748397 0
M  V30 8850 C 824.353 -0.349192 -3.5981 0
M  V30 8851 O 824.074 -1.66863 -4.05078 0
M  V30 8852 C 825.575 0.0942106 -4.432 0
M  V30 8853 H 822.795 -0.13971 -0.656294 0
M  V30 8854 H 825.339 -1.02984 -1.76677 0
M  V30 8855 H 823.494 0.302846 -3.86214 0
M  V30 8856 H 823.908 -1.59877 -4.9954 0
M  V30 8857 H 825.382 0.0290004 -5.51992 0
M  V30 8858 H 825.859 1.1429 -4.24069 0
M  V30 8859 H 826.465 -0.529171 -4.21995 0
M  V30 8860 N 824.78 1.49157 -0.508906 0
M  V30 8861 C 825.71 2.32109 0.254469 0
M  V30 8862 C 826.691 1.40754 0.955111 0
M  V30 8863 O 827.876 1.69658 0.944983 0
M  V30 8864 C 825.006 3.21458 1.3146 0
M  V30 8865 C 823.96 4.2167 0.733368 0
M  V30 8866 C 823.286 5.00009 1.8946 0
M  V30 8867 C 824.586 5.21544 -0.280875 0
M  V30 8868 H 826.28 2.9618 -0.43795 0
M  V30 8869 H 823.826 1.4243 -0.212062 0
M  V30 8870 H 825.779 3.78305 1.85643 0
M  V30 8871 H 824.503 2.55346 2.03632 0
M  V30 8872 H 823.162 3.65979 0.213231 0
M  V30 8873 H 822.81 4.30338 2.60419 0
M  V30 8874 H 822.51 5.67821 1.51173 0
M  V30 8875 H 824.034 5.59702 2.44061 0
M  V30 8876 H 825.448 5.73039 0.173095 0
M  V30 8877 H 823.845 5.97291 -0.580006 0
M  V30 8878 H 824.915 4.69969 -1.19404 0
M  V30 8879 N 826.258 0.243083 1.55714 0
M  V30 8880 C 827.221 -0.644723 2.19945 0
M  V30 8881 C 828.221 -1.10562 1.16759 0
M  V30 8882 O 829.411 -1.01095 1.41865 0
M  V30 8883 C 826.543 -1.88569 2.83997 0
M  V30 8884 H 827.736 -0.0843839 2.99781 0
M  V30 8885 H 825.289 -0.00647246 1.56299 0
M  V30 8886 H 826.024 -2.48736 2.08089 0
M  V30 8887 H 825.809 -1.56345 3.59581 0
M  V30 8888 H 827.299 -2.51774 3.33166 0
M  V30 8889 N 827.736 -1.57571 -0.0300757 0
M  V30 8890 C 828.668 -2.0329 -1.05857 0
M  V30 8891 C 829.681 -0.945543 -1.32527 0
M  V30 8892 O 830.87 -1.22287 -1.30032 0
M  V30 8893 C 827.97 -2.39234 -2.40042 0
M  V30 8894 C 827.143 -3.70337 -2.32743 0
M  V30 8895 C 826.202 -3.93482 -3.49369 0
M  V30 8896 O 825.228 -4.64551 -3.28909 0
M  V30 8897 N 826.43 -3.39042 -4.71201 0
M  V30 8898 H 829.195 -2.9214 -0.668897 0
M  V30 8899 H 826.756 -1.60425 -0.218038 0
M  V30 8900 H 828.748 -2.51856 -3.16782 0
M  V30 8901 H 827.318 -1.5606 -2.70858 0
M  V30 8902 H 826.538 -3.68079 -1.41109 0
M  V30 8903 H 827.826 -4.56343 -2.25007 0
M  V30 8904 H 827.224 -2.81434 -4.90725 0
M  V30 8905 H 825.781 -3.57045 -5.45309 0
M  V30 8906 N 829.214 0.302327 -1.54673 0
M  V30 8907 C 830.147 1.39738 -1.80412 0
M  V30 8908 C 831.125 1.48813 -0.655241 0
M  V30 8909 O 832.309 1.65895 -0.89505 0
M  V30 8910 C 829.436 2.7766 -1.93966 0
M  V30 8911 C 828.482 2.86014 -3.16383 0
M  V30 8912 S 829.315 2.48246 -4.74483 0
M  V30 8913 C 830.471 3.88198 -4.90971 0
M  V30 8914 H 830.704 1.17696 -2.73011 0
M  V30 8915 H 828.237 0.500364 -1.46068 0
M  V30 8916 H 830.195 3.571 -2.0246 0
M  V30 8917 H 828.856 2.96971 -1.02307 0
M  V30 8918 H 828.049 3.87174 -3.22664 0
M  V30 8919 H 827.651 2.14568 -3.06328 0
M  V30 8920 H 829.943 4.83181 -4.74913 0
M  V30 8921 H 830.886 3.86887 -5.93063 0
M  V30 8922 H 831.294 3.78139 -4.19131 0
M  V30 8923 N 830.692 1.47107 0.565454 0
M  V30 8924 C 831.969 1.43787 1.32607 0
M  V30 8925 C 832.349 0.130428 2.10697 0
M  V30 8926 O 831.697 -0.888086 2.10536 0
M  V30 8927 C 831.907 2.67833 2.23755 0
M  V30 8928 C 833.255 3.14704 2.85037 0
M  V30 8929 O 834.279 2.68503 2.34061 0
M  V30 8930 O 833.138 3.95002 3.77671 0
M  V30 8931 H 830.232 0.572623 0.596684 0
M  V30 8932 H 832.778 1.59296 0.58504 0
M  V30 8933 H 831.55 3.54532 1.65597 0
M  V30 8934 H 831.173 2.54869 3.05168 0
M  V30 8935 N 832.17 -0.811516 1.35101 0
M  V30 8936 C 833.447 -1.55491 1.18667 0
M  V30 8937 C 833.827 -2.09775 -0.236189 0
M  V30 8938 O 833.175 -1.91989 -1.23905 0
M  V30 8939 C 833.385 -2.66732 2.25067 0
M  V30 8940 C 834.733 -3.35201 2.60625 0
M  V30 8941 O 835.757 -2.76998 2.23943 0
M  V30 8942 O 834.616 -4.40334 3.23679 0
M  V30 8943 H 831.71 -0.686783 0.460716 0
M  V30 8944 H 834.256 -0.851903 1.46768 0
M  V30 8945 H 833.028 -2.24457 3.20523 0
M  V30 8946 H 832.651 -3.44673 1.98208 0
M  V30 8947 N 833.648 -1.19017 -1.03309 0
M  V30 8948 C 834.578 -0.94772 -2.13402 0
M  V30 8949 C 835.559 0.117383 -1.69694 0
M  V30 8950 O 836.744 -0.0367733 -1.94165 0
M  V30 8951 C 833.874 -0.480977 -3.43953 0
M  V30 8952 C 832.828 -1.48743 -4.01322 0
M  V30 8953 C 832.154 -0.877924 -5.27443 0
M  V30 8954 C 833.454 -2.86642 -4.36616 0
M  V30 8955 H 835.148 -1.86846 -2.33942 0
M  V30 8956 H 832.694 -0.899781 -1.12427 0
M  V30 8957 H 834.647 -0.298677 -4.2034 0
M  V30 8958 H 833.371 0.475348 -3.23122 0
M  V30 8959 H 832.03 -1.65681 -3.27025 0
M  V30 8960 H 831.678 0.0858232 -5.02927 0
M  V30 8961 H 831.378 -1.54996 -5.66789 0
M  V30 8962 H 832.902 -0.706326 -6.06501 0
M  V30 8963 H 834.316 -2.73312 -5.03958 0
M  V30 8964 H 832.713 -3.50599 -4.87032 0
M  V30 8965 H 833.783 -3.39617 -3.46105 0
M  V30 8966 N 835.127 1.22348 -0.993418 0
M  V30 8967 C 836.059 2.23626 -0.502404 0
M  V30 8968 C 837.072 1.57739 0.402784 0
M  V30 8969 O 838.261 1.77321 0.204835 0
M  V30 8970 C 835.361 3.37647 0.291118 0
M  V30 8971 C 834.534 4.33121 -0.610332 0
M  V30 8972 C 833.593 5.26035 0.131572 0
M  V30 8973 O 832.619 5.67145 -0.483199 0
M  V30 8974 N 833.821 5.63023 1.41371 0
M  V30 8975 H 836.586 2.66385 -1.37329 0
M  V30 8976 H 834.147 1.36653 -0.868196 0
M  V30 8977 H 836.139 3.96792 0.796107 0
M  V30 8978 H 834.709 2.93967 1.0631 0
M  V30 8979 H 833.929 3.72287 -1.29598 0
M  V30 8980 H 835.217 4.93853 -1.22422 0
M  V30 8981 H 834.615 5.31596 1.93449 0
M  V30 8982 H 833.172 6.24582 1.86388 0
M  V30 8983 N 836.605 0.766683 1.37694 0
M  V30 8984 C 837.882 0.25366 1.93948 0
M  V30 8985 C 838.262 -1.25041 1.70082 0
M  V30 8986 O 837.61 -2.03115 1.04674 0
M  V30 8987 C 837.82 0.621549 3.43421 0
M  V30 8988 C 839.168 0.588504 4.20502 0
M  V30 8989 O 840.192 0.560632 3.5176 0
M  V30 8990 O 839.051 0.61107 5.43073 0
M  V30 8991 H 836.145 0.0570586 0.825029 0
M  V30 8992 H 838.691 0.847693 1.47011 0
M  V30 8993 H 837.463 1.65979 3.54354 0
M  V30 8994 H 837.086 0.000197027 3.976 0
M  V30 8995 N 838.083 -1.48885 0.516809 0
M  V30 8996 C 839.33 -2.02488 -0.0220602 0
M  V30 8997 C 839.658 -1.39513 -1.35523 0
M  V30 8998 O 838.913 -0.52558 -1.8851 0
M  V30 8999 C 839.212 -3.56801 -0.206798 0
M  V30 9000 C 838.878 -4.38496 1.05035 0
M  V30 9001 C 837.54 -4.60538 1.39492 0
M  V30 9002 C 839.892 -4.85909 1.88525 0
M  V30 9003 C 837.22 -5.2724 2.57361 0
M  V30 9004 C 839.572 -5.53909 3.05561 0
M  V30 9005 C 838.236 -5.74193 3.4038 0
M  V30 9006 H 837.506 -0.740956 -0.00807238 0
M  V30 9007 H 840.153 -1.79014 0.680168 0
M  V30 9008 H 838.458 -3.79042 -0.991687 0
M  V30 9009 H 840.155 -3.95885 -0.638447 0
M  V30 9010 H 836.745 -4.2159 0.771984 0
M  V30 9011 H 840.929 -4.68694 1.63218 0
M  V30 9012 H 836.185 -5.41145 2.84556 0
M  V30 9013 H 840.359 -5.89619 3.7057 0
M  V30 9014 H 837.986 -6.25652 4.31814 0
M  V30 9015 N 839.561 -0.251338 -1.55583 0
M  V30 9016 C 840.491 0.640437 -2.24545 0
M  V30 9017 C 841.472 1.17781 -1.22726 0
M  V30 9018 O 842.657 1.21633 -1.5139 0
M  V30 9019 C 839.787 1.8355 -2.94834 0
M  V30 9020 C 838.741 1.4307 -4.03379 0
M  V30 9021 C 838.067 2.70695 -4.61116 0
M  V30 9022 C 839.367 0.59848 -5.1886 0
M  V30 9023 H 841.061 0.0653772 -2.99329 0
M  V30 9024 H 838.607 0.0300042 -1.43969 0
M  V30 9025 H 840.56 2.46505 -3.4178 0
M  V30 9026 H 839.284 2.43601 -2.17546 0
M  V30 9027 H 837.943 0.824474 -3.57209 0
M  V30 9028 H 837.591 3.28954 -3.80524 0
M  V30 9029 H 837.291 2.44332 -5.34393 0
M  V30 9030 H 838.815 3.34541 -5.10798 0
M  V30 9031 H 840.229 1.13244 -5.62004 0
M  V30 9032 H 838.626 0.430728 -5.98552 0
M  V30 9033 H 839.696 -0.38829 -4.83343 0
M  V30 9034 N 841.039 1.57585 0.0217189 0
M  V30 9035 C 842.264 1.94267 0.726309 0
M  V30 9036 C 842.689 0.851904 1.67703 0
M  V30 9037 O 842.047 -0.191792 1.80283 0
M  V30 9038 C 842.095 3.30023 1.45318 0
M  V30 9039 O 841.199 3.22791 2.5667 0
M  V30 9040 H 840.54 0.634777 0.194818 0
M  V30 9041 H 843.07 2.04585 -0.0249985 0
M  V30 9042 H 843.08 3.65084 1.82147 0
M  V30 9043 H 841.755 4.08972 0.755962 0
M  V30 9044 H 840.332 2.99373 2.2233 0
M  V30 9045 N 842.517 -0.29412 1.54831 0
M  V30 9046 C 843.464 -1.36296 1.86258 0
M  V30 9047 C 844.434 -1.50061 0.712097 0
M  V30 9048 O 845.619 -1.64809 0.961381 0
M  V30 9049 C 842.759 -2.72187 2.12151 0
M  V30 9050 C 841.872 -2.66816 3.39755 0
M  V30 9051 C 841.007 -3.94747 3.55455 0
M  V30 9052 C 840.046 -3.838 4.76827 0
M  V30 9053 N 839.183 -5.03521 4.89296 0
M  V30 9054 H 844.023 -1.08796 2.7743 0
M  V30 9055 H 841.56 -0.526069 1.37371 0
M  V30 9056 H 843.518 -3.51225 2.25159 0
M  V30 9057 H 842.148 -2.97934 1.24237 0
M  V30 9058 H 841.2 -1.79605 3.3533 0
M  V30 9059 H 842.512 -2.5462 4.28917 0
M  V30 9060 H 841.666 -4.82223 3.68166 0
M  V30 9061 H 840.405 -4.09785 2.64438 0
M  V30 9062 H 839.41 -2.94708 4.64141 0
M  V30 9063 H 840.635 -3.70301 5.69258 0
M  V30 9064 H 838.581 -5.1901 4.01204 0
M  V30 9065 H 838.498 -4.93775 5.72471 0
M  V30 9066 H 839.766 -5.92629 5.06371 0
M  V30 9067 N 843.995 -1.47404 -0.557645 0
M  V30 9068 C 845.272 -1.44488 -1.31843 0
M  V30 9069 C 845.652 -0.1416 -2.10625 0
M  V30 9070 O 845 0.876908 -2.11004 0
M  V30 9071 C 845.21 -2.69016 -2.22331 0
M  V30 9072 C 846.558 -3.16212 -2.83364 0
M  V30 9073 O 847.582 -2.69741 -2.32634 0
M  V30 9074 O 846.441 -3.96999 -3.75571 0
M  V30 9075 H 843.535 -0.57578 -0.593639 0
M  V30 9076 H 846.081 -1.59605 -0.576584 0
M  V30 9077 H 844.853 -3.55406 -1.63715 0
M  V30 9078 H 844.476 -2.56484 -3.03812 0
M  V30 9079 N 845.473 0.80434 -1.35529 0
M  V30 9080 C 846.42 1.91629 -1.28635 0
M  V30 9081 C 847.39 1.65348 -0.157862 0
M  V30 9082 O 848.575 1.87711 -0.341934 0
M  V30 9083 C 845.715 3.28207 -1.0665 0
M  V30 9084 C 844.828 3.66659 -2.28441 0
M  V30 9085 C 843.963 4.92279 -1.99588 0
M  V30 9086 C 843.002 5.23365 -3.1742 0
M  V30 9087 N 842.139 6.40165 -2.88328 0
M  V30 9088 H 846.979 1.96858 -2.23721 0
M  V30 9089 H 844.516 0.962871 -1.11208 0
M  V30 9090 H 846.474 4.06945 -0.919343 0
M  V30 9091 H 845.104 3.22441 -0.152253 0
M  V30 9092 H 844.156 2.83164 -2.54013 0
M  V30 9093 H 845.468 3.8559 -3.1642 0
M  V30 9094 H 844.622 5.78847 -1.81715 0
M  V30 9095 H 843.361 4.75387 -1.08896 0
M  V30 9096 H 842.366 4.35285 -3.35867 0
M  V30 9097 H 843.591 5.42185 -4.08916 0
M  V30 9098 H 841.537 6.24694 -2.00233 0
M  V30 9099 H 841.454 6.59357 -3.69843 0
M  V30 9100 H 842.722 7.29755 -2.74002 0
M  V30 9101 N 846.951 1.19563 1.02676 0
M  V30 9102 C 847.901 0.903055 2.09354 0
M  V30 9103 C 848.885 -0.133009 1.60349 0
M  V30 9104 O 850.077 0.0729744 1.7685 0
M  V30 9105 C 847.206 0.445852 3.40392 0
M  V30 9106 C 846.292 1.51477 3.96126 0
M  V30 9107 N 846.683 2.73474 4.25495 0
M  V30 9108 C 844.981 1.37856 4.2416 0
M  V30 9109 C 845.682 3.42348 4.7029 0
M  V30 9110 N 844.658 2.69746 4.71952 0
M  V30 9111 H 848.46 1.83023 2.29956 0
M  V30 9112 H 845.974 1.08812 1.20556 0
M  V30 9113 H 847.971 0.21769 4.16331 0
M  V30 9114 H 846.631 -0.47482 3.2121 0
M  V30 9115 H 847.642 3.10217 4.14711 0
M  V30 9116 H 844.319 0.521512 4.1423 0
M  V30 9117 H 845.709 4.46686 5.01917 0
M  V30 9118 N 848.429 -1.21819 0.999893 0
M  V30 9119 C 849.392 -2.22227 0.561044 0
M  V30 9120 C 850.392 -1.56722 -0.359858 0
M  V30 9121 O 851.582 -1.73546 -0.150848 0
M  V30 9122 C 848.714 -3.40409 -0.182987 0
M  V30 9123 H 849.907 -2.62567 1.44909 0
M  V30 9124 H 847.46 -1.34991 0.78785 0
M  V30 9125 H 848.195 -3.05551 -1.08671 0
M  V30 9126 H 847.98 -3.89171 0.47833 0
M  V30 9127 H 849.47 -4.14856 -0.477952 0
M  V30 9128 N 849.908 -0.773975 -1.37286 0
M  V30 9129 C 851.185 -0.263942 -1.93811 0
M  V30 9130 C 851.565 1.24138 -1.70743 0
M  V30 9131 O 850.913 2.02557 -1.05749 0
M  V30 9132 C 851.123 -0.639753 -3.43086 0
M  V30 9133 C 852.471 -0.610796 -4.20184 0
M  V30 9134 O 853.495 -0.579278 -3.51458 0
M  V30 9135 O 852.354 -0.639862 -5.42741 0
M  V30 9136 H 849.448 -0.0614331 -0.824715 0
M  V30 9137 H 851.994 -0.855477 -1.46559 0
M  V30 9138 H 850.766 -1.67856 -3.53469 0
M  V30 9139 H 850.389 -0.0212827 -3.97594 0
M  V30 9140 N 851.386 1.48609 -0.524698 0
M  V30 9141 C 852.797 1.86516 -0.0828846 0
M  V30 9142 C 853.148 1.43478 1.33822 0
M  V30 9143 O 852.273 0.823139 2.00133 0
M  V30 9144 C 852.868 3.38495 -0.143639 0
M  V30 9145 C 851.427 3.75615 0.242951 0
M  V30 9146 C 850.574 2.72649 -0.505747 0
M  V30 9147 H 853.525 1.40589 -0.736233 0
M  V30 9148 H 853.546 3.74977 0.645955 0
M  V30 9149 H 853.058 3.69789 -1.17805 0
M  V30 9150 H 851.159 3.49935 1.27971 0
M  V30 9151 H 851.272 4.7901 -0.0929834 0
M  V30 9152 H 849.636 2.54656 0.0473482 0
M  V30 9153 H 850.419 3.06786 -1.54069 0
M  V30 9154 N 852.864 0.259585 1.55447 0
M  V30 9155 C 854.141 -0.412595 1.91199 0
M  V30 9156 C 854.521 -1.74909 1.18194 0
M  V30 9157 O 853.869 -2.26474 0.303603 0
M  V30 9158 C 854.079 -0.568195 3.44344 0
M  V30 9159 C 855.427 -0.858253 4.15836 0
M  V30 9160 O 856.451 -0.653588 3.50152 0
M  V30 9161 O 855.31 -1.24874 5.32042 0
M  V30 9162 H 852.404 -0.223403 0.796254 0
M  V30 9163 H 854.95 0.30459 1.66944 0
M  V30 9164 H 853.722 0.372989 3.89518 0
M  V30 9165 H 853.345 -1.33544 3.74502 0
M  V30 9166 N 854.342 -1.57594 -0.0133615 0
M  V30 9167 C 855.589 -1.8998 -0.70098 0
M  V30 9168 C 855.917 -0.858802 -1.74513 0
M  V30 9169 O 855.172 0.138209 -1.95211 0
M  V30 9170 C 855.471 -3.29121 -1.39336 0
M  V30 9171 C 855.137 -4.48298 -0.483687 0
M  V30 9172 C 853.799 -4.80635 -0.233186 0
M  V30 9173 C 856.151 -5.21003 0.143426 0
M  V30 9174 C 853.479 -5.83055 0.652943 0
M  V30 9175 C 855.831 -6.24366 1.01735 0
M  V30 9176 C 854.495 -6.55168 1.27716 0
M  V30 9177 H 853.765 -0.695187 -0.256507 0
M  V30 9178 H 856.412 -1.9146 0.0392965 0
M  V30 9179 H 854.717 -3.23703 -2.20735 0
M  V30 9180 H 856.414 -3.51433 -1.93121 0
M  V30 9181 H 853.004 -4.23024 -0.689092 0
M  V30 9182 H 857.188 -4.96286 -0.0371139 0
M  V30 9183 H 852.444 -6.05288 0.862379 0
M  V30 9184 H 856.618 -6.79839 1.5097 0
M  V30 9185 H 854.245 -7.34351 1.9655 0
M  V30 9186 N 855.82 0.285905 -1.54985 0
M  V30 9187 C 857.048 1.03776 -1.78992 0
M  V30 9188 C 857.463 1.80402 -0.556814 0
M  V30 9189 O 856.82 1.76242 0.473801 0
M  V30 9190 C 856.871 2.0065 -3.00702 0
M  V30 9191 O 856.592 1.27131 -4.19249 0
M  V30 9192 C 858.093 2.87753 -3.37214 0
M  V30 9193 H 855.313 0.307126 -0.596586 0
M  V30 9194 H 857.857 0.3206 -2.01971 0
M  V30 9195 H 856.012 2.67847 -2.79887 0
M  V30 9196 H 856.426 1.92316 -4.8797 0
M  V30 9197 H 857.9 3.51548 -4.2558 0
M  V30 9198 H 858.377 3.56848 -2.56039 0
M  V30 9199 H 858.983 2.26065 -3.60242 0
M  V30 9200 N 857.298 1.47698 0.54982 0
M  V30 9201 C 858.714 1.3338 0.876468 0
M  V30 9202 C 858.914 0.329837 1.98782 0
M  V30 9203 O 857.97 -0.256022 2.51199 0
M  V30 9204 C 859.283 2.72903 1.26272 0
M  V30 9205 C 860.831 2.81243 1.37373 0
M  V30 9206 C 861.306 4.21423 1.79351 0
M  V30 9207 N 862.797 4.24 1.86489 0
M  V30 9208 C 863.532 5.29386 2.20313 0
M  V30 9209 N 863.028 6.4507 2.527 0
M  V30 9210 N 864.821 5.16768 2.2115 0
M  V30 9211 H 856.972 2.11603 -0.183781 0
M  V30 9212 H 859.235 0.947798 -0.0195601 0
M  V30 9213 H 858.941 3.47836 0.519889 0
M  V30 9214 H 858.815 3.05151 2.21727 0
M  V30 9215 H 861.202 2.06577 2.10737 0
M  V30 9216 H 861.283 2.52639 0.400882 0
M  V30 9217 H 860.927 4.96597 1.06555 0
M  V30 9218 H 860.857 4.47456 2.77652 0
M  V30 9219 H 863.348 3.40547 1.63817 0
M  V30 9220 H 863.661 7.21236 2.77557 0
M  V30 9221 H 862.006 6.48377 2.50263 0
M  V30 9222 H 865.197 4.25416 1.95293 0
M  V30 9223 H 865.37 5.99004 2.4718 0
M  V30 9224 N 858.776 -0.797141 1.35954 0
M  V30 9225 C 859.723 -1.90944 1.2965 0
M  V30 9226 C 860.693 -1.65262 0.166628 0
M  V30 9227 O 861.878 -1.87527 0.351883 0
M  V30 9228 C 859.018 -3.27637 1.08389 0
M  V30 9229 C 858.131 -3.65442 2.30382 0
M  V30 9230 C 857.266 -4.91213 2.02195 0
M  V30 9231 C 856.305 -5.21674 3.20191 0
M  V30 9232 N 855.442 -6.38627 2.91719 0
M  V30 9233 H 860.282 -1.95668 2.24762 0
M  V30 9234 H 857.819 -0.95696 1.11717 0
M  V30 9235 H 859.777 -4.06451 0.940912 0
M  V30 9236 H 858.407 -3.22355 0.169351 0
M  V30 9237 H 857.459 -2.81813 2.55511 0
M  V30 9238 H 858.771 -3.83907 3.18461 0
M  V30 9239 H 857.925 -5.77876 1.84783 0
M  V30 9240 H 856.664 -4.74803 1.11416 0
M  V30 9241 H 855.669 -4.33498 3.38171 0
M  V30 9242 H 856.894 -5.40009 4.11786 0
M  V30 9243 H 854.84 -6.23623 2.03543 0
M  V30 9244 H 854.757 -6.57387 3.73334 0
M  V30 9245 H 856.025 -7.28292 2.77868 0
M  V30 9246 N 860.254 -1.20106 -1.0204 0
M  V30 9247 C 861.184 -0.970301 -2.12385 0
M  V30 9248 C 862.165 0.099378 -1.69809 0
M  V30 9249 O 863.35 -0.057365 -1.94115 0
M  V30 9250 C 860.48 -0.517431 -3.43424 0
M  V30 9251 C 859.434 -1.52992 -3.99722 0
M  V30 9252 C 858.76 -0.933817 -5.26483 0
M  V30 9253 C 860.06 -2.91257 -4.33551 0
M  V30 9254 H 861.754 -1.89316 -2.31948 0
M  V30 9255 H 859.3 -0.911655 -1.11467 0
M  V30 9256 H 861.253 -0.343243 -4.2 0
M  V30 9257 H 859.977 0.441049 -3.23608 0
M  V30 9258 H 858.636 -1.6914 -3.2525 0
M  V30 9259 H 858.284 0.0324763 -5.0299 0
M  V30 9260 H 857.984 -1.60999 -5.65113 0
M  V30 9261 H 859.508 -0.770614 -6.05718 0
M  V30 9262 H 860.922 -2.78642 -5.0103 0
M  V30 9263 H 859.319 -3.55745 -4.83286 0
M  V30 9264 H 860.389 -3.43269 -3.42483 0
M  V30 9265 N 861.732 1.21287 -1.00634 0
M  V30 9266 C 862.978 1.90957 -0.70051 0
M  V30 9267 C 863.333 1.76729 0.760567 0
M  V30 9268 O 862.626 1.13405 1.54434 0
M  V30 9269 C 862.82 3.41374 -1.05824 0
M  V30 9270 C 862.649 3.70237 -2.55254 0
M  V30 9271 C 861.419 3.89518 -3.21876 0
M  V30 9272 C 863.617 3.73633 -3.53417 0
M  V30 9273 N 861.599 4.05809 -4.60643 0
M  V30 9274 C 862.97 3.95225 -4.777 0
M  V30 9275 C 865.025 3.56545 -3.47534 0
M  V30 9276 C 863.728 4.01502 -5.96815 0
M  V30 9277 C 865.754 3.64089 -4.6604 0
M  V30 9278 C 865.116 3.86144 -5.89128 0
M  V30 9279 H 861.215 0.718861 -0.307835 0
M  V30 9280 H 863.799 1.45913 -1.28908 0
M  V30 9281 H 861.97 3.85193 -0.498106 0
M  V30 9282 H 863.702 3.98476 -0.707006 0
M  V30 9283 H 860.457 3.87479 -2.72318 0
M  V30 9284 H 860.881 4.17854 -5.32661 0
M  V30 9285 H 865.523 3.38469 -2.53375 0
M  V30 9286 H 863.241 4.18378 -6.91365 0
M  V30 9287 H 866.827 3.52188 -4.63092 0
M  V30 9288 H 865.707 3.91827 -6.79295 0
M  V30 9289 N 863.21 0.781244 1.36873 0
M  V30 9290 C 864.173 0.180094 2.28491 0
M  V30 9291 C 865.173 -0.617798 1.48458 0
M  V30 9292 O 866.363 -0.439991 1.68552 0
M  V30 9293 C 863.495 -0.751741 3.32508 0
M  V30 9294 H 864.688 0.987837 2.83164 0
M  V30 9295 H 862.241 0.550102 1.463 0
M  V30 9296 H 862.976 -1.58413 2.82977 0
M  V30 9297 H 862.761 -0.181649 3.91679 0
M  V30 9298 H 864.251 -1.16748 4.00949 0
M  V30 9299 N 864.689 -1.48329 0.532571 0
M  V30 9300 C 865.919 -2.066 0.00353785 0
M  V30 9301 C 866.327 -1.38913 -1.28451 0
M  V30 9302 O 865.67 -0.471385 -1.77549 0
M  V30 9303 C 865.732 -3.58342 -0.288324 0
M  V30 9304 C 865.396 -4.47917 0.906631 0
M  V30 9305 C 866.393 -4.87534 1.80572 0
M  V30 9306 C 864.078 -4.89783 1.11436 0
M  V30 9307 C 866.072 -5.6779 2.89642 0
M  V30 9308 C 863.759 -5.69809 2.20819 0
M  V30 9309 C 864.757 -6.08721 3.09755 0
M  V30 9310 O 864.445 -6.8714 4.17246 0
M  V30 9311 H 864.177 -0.675263 0.0315661 0
M  V30 9312 H 866.731 -1.91669 0.738375 0
M  V30 9313 H 864.961 -3.71395 -1.07717 0
M  V30 9314 H 866.65 -3.98726 -0.759752 0
M  V30 9315 H 867.416 -4.5581 1.65719 0
M  V30 9316 H 863.295 -4.58977 0.431382 0
M  V30 9317 H 866.839 -5.98082 3.59087 0
M  V30 9318 H 862.736 -6.00947 2.35655 0
M  V30 9319 H 863.504 -7.05498 4.14988 0
M  V30 9320 N 866.167 -0.267825 -1.55308 0
M  V30 9321 C 867.097 0.616585 -2.25212 0
M  V30 9322 C 868.078 1.16472 -1.23969 0
M  V30 9323 O 869.263 1.20021 -1.52672 0
M  V30 9324 C 866.393 1.80412 -2.96764 0
M  V30 9325 C 865.347 1.38784 -4.04874 0
M  V30 9326 C 864.673 2.65789 -4.63961 0
M  V30 9327 C 865.973 0.543415 -5.19465 0
M  V30 9328 H 867.667 0.0336257 -2.99381 0
M  V30 9329 H 865.213 0.0147328 -1.43992 0
M  V30 9330 H 867.166 2.42866 -3.44375 0
M  V30 9331 H 865.89 2.4128 -2.20118 0
M  V30 9332 H 864.549 0.786541 -3.58063 0
M  V30 9333 H 864.197 3.24899 -3.83992 0
M  V30 9334 H 863.897 2.38651 -5.36954 0
M  V30 9335 H 865.421 3.29104 -5.14318 0
M  V30 9336 H 866.835 1.07277 -5.63174 0
M  V30 9337 H 865.232 0.367219 -5.98975 0
M  V30 9338 H 866.302 -0.439534 -4.82904 0
M  V30 9339 N 867.645 1.57599 0.00500368 0
M  V30 9340 C 868.873 1.94626 0.702016 0
M  V30 9341 C 869.288 0.86953 1.67585 0
M  V30 9342 O 868.645 -0.15199 1.81866 0
M  V30 9343 C 868.696 3.31658 1.43824 0
M  V30 9344 O 868.417 4.35197 0.503467 0
M  V30 9345 C 869.918 3.83114 2.23021 0
M  V30 9346 H 867.138 0.641785 0.195841 0
M  V30 9347 H 869.682 2.04451 -0.0446287 0
M  V30 9348 H 867.837 3.23156 2.13655 0
M  V30 9349 H 868.251 5.1444 1.02235 0
M  V30 9350 H 869.725 4.81438 2.7004 0
M  V30 9351 H 870.202 3.15559 3.05482 0
M  V30 9352 H 870.808 3.94775 1.58216 0
M  V30 9353 N 869.123 -0.277682 1.55134 0
M  V30 9354 C 870.372 -1.00766 1.74726 0
M  V30 9355 C 870.685 -1.87617 0.553092 0
M  V30 9356 O 871.891 -2.64058 0.631318 0
M  V30 9357 C 870.347 -1.84147 3.09221 0
M  V30 9358 C 869.955 -1.02186 4.3619 0
M  V30 9359 C 871.699 -2.56604 3.38164 0
M  V30 9360 C 869.606 -1.84978 5.61727 0
M  V30 9361 H 868.536 -0.379948 0.651273 0
M  V30 9362 H 871.187 -0.263543 1.81598 0
M  V30 9363 H 869.569 -2.62637 2.96375 0
M  V30 9364 H 870.743 -0.281459 4.5994 0
M  V30 9365 H 869.058 -0.412054 4.14356 0
M  V30 9366 H 871.655 -3.18942 4.29162 0
M  V30 9367 H 871.998 -3.26647 2.58085 0
M  V30 9368 H 872.531 -1.85147 3.52087 0
M  V30 9369 H 869.27 -1.19365 6.4454 0
M  V30 9370 H 868.79 -2.56628 5.42128 0
M  V30 9371 H 870.469 -2.42458 5.99853 0
M  V30 9372 N 870.601 -1.47988 -0.541979 0
M  V30 9373 C 871.549 -1.62044 -1.66867 0
M  V30 9374 C 872.543 -0.487217 -1.62242 0
M  V30 9375 O 873.749 -0.66554 -1.67244 0
M  V30 9376 H 870.124 -0.51024 -0.552412 0
M  V30 9377 H 872.095 -2.56695 -1.52153 0
M  V30 9378 C 870.844 -1.66615 -3.0518 0
M  V30 9379 H 870.167 -2.5317 -3.09427 0
M  V30 9380 H 871.607 -1.80496 -3.83663 0
M  V30 9381 C 870.066 -0.402421 -3.34488 0
M  V30 9382 O 870.596 0.48992 -3.98701 0
M  V30 9383 N 868.802 -0.277778 -2.89269 0
M  V30 9384 H 868.349 -1.00488 -2.37192 0
M  V30 9385 H 868.307 0.566784 -3.09249 0
M  V30 9386 N 872.079 0.78992 -1.36375 0
M  V30 9387 C 873.011 1.91113 -1.26524 0
M  V30 9388 C 874.024 1.61747 -0.184851 0
M  V30 9389 O 875.213 1.73004 -0.439524 0
M  V30 9390 C 872.313 3.25908 -0.92937 0
M  V30 9391 C 871.486 3.83057 -2.11154 0
M  V30 9392 C 870.545 4.96289 -1.74881 0
M  V30 9393 O 869.571 5.12834 -2.46962 0
M  V30 9394 N 870.773 5.76478 -0.682193 0
M  V30 9395 H 873.538 2.00085 -2.23128 0
M  V30 9396 H 871.099 0.968165 -1.29762 0
M  V30 9397 H 873.091 3.99151 -0.667884 0
M  V30 9398 H 871.661 3.12556 -0.0524843 0
M  V30 9399 H 870.881 3.01808 -2.53586 0
M  V30 9400 H 872.169 4.1797 -2.90135 0
M  V30 9401 H 871.567 5.65638 -0.0836661 0
M  V30 9402 H 870.124 6.50026 -0.480529 0
M  V30 9403 N 873.557 1.20646 1.01402 0
M  V30 9404 C 874.487 0.98155 2.11867 0
M  V30 9405 C 875.468 -0.0903712 1.6986 0
M  V30 9406 O 876.653 0.0676586 1.94082 0
M  V30 9407 C 873.783 0.535636 3.43145 0
M  V30 9408 C 872.737 1.55109 3.98905 0
M  V30 9409 C 872.063 0.961725 5.2598 0
M  V30 9410 C 873.363 2.93552 4.32001 0
M  V30 9411 H 875.057 1.90544 2.3094 0
M  V30 9412 H 872.603 0.917554 1.10982 0
M  V30 9413 H 874.556 0.365512 4.19812 0
M  V30 9414 H 873.28 -0.423882 3.23838 0
M  V30 9415 H 871.939 1.70862 3.24348 0
M  V30 9416 H 871.587 -0.00580108 5.03 0
M  V30 9417 H 871.287 1.63993 5.64252 0
M  V30 9418 H 872.811 0.802726 6.053 0
M  V30 9419 H 874.225 2.81295 4.99546 0
M  V30 9420 H 872.622 3.58303 4.81393 0
M  V30 9421 H 873.692 3.4508 3.40658 0
M  V30 9422 N 875.035 -1.20752 1.01276 0
M  V30 9423 C 875.965 -2.25658 0.600064 0
M  V30 9424 C 876.946 -1.65733 -0.38298 0
M  V30 9425 O 878.131 -1.92324 -0.269256 0
M  V30 9426 C 875.261 -3.47237 -0.0663197 0
M  V30 9427 C 874.215 -4.1973 0.83731 0
M  V30 9428 C 873.541 -5.34687 0.0369102 0
M  V30 9429 C 874.841 -4.76286 2.14357 0
M  V30 9430 H 876.535 -2.60432 1.477 0
M  V30 9431 H 874.081 -1.25187 0.711634 0
M  V30 9432 H 876.034 -4.19803 -0.366563 0
M  V30 9433 H 874.758 -3.11615 -0.977944 0
M  V30 9434 H 873.417 -3.49024 1.1215 0
M  V30 9435 H 873.065 -4.95309 -0.876244 0
M  V30 9436 H 872.765 -5.84119 0.63865 0
M  V30 9437 H 874.289 -6.10059 -0.256968 0
M  V30 9438 H 875.703 -5.40691 1.90595 0
M  V30 9439 H 874.1 -5.36139 2.69583 0
M  V30 9440 H 875.17 -3.9524 2.80916 0
M  V30 9441 N 876.513 -0.788492 -1.36457 0
M  V30 9442 C 877.476 -0.192209 -2.28393 0
M  V30 9443 C 878.476 0.609916 -1.48784 0
M  V30 9444 O 879.666 0.431046 -1.68783 0
M  V30 9445 C 876.798 0.734096 -3.32902 0
M  V30 9446 H 877.991 -1.00284 -2.82636 0
M  V30 9447 H 875.544 -0.557852 -1.46006 0
M  V30 9448 H 876.279 1.5691 -2.83813 0
M  V30 9449 H 876.064 0.160875 -3.9177 0
M  V30 9450 H 877.554 1.1462 -4.01562 0
M  V30 9451 N 877.991 1.48044 -0.54043 0
M  V30 9452 C 878.901 2.33565 0.220163 0
M  V30 9453 C 879.917 1.47146 0.928659 0
M  V30 9454 O 881.093 1.80107 0.901295 0
M  V30 9455 C 878.158 3.2349 1.2472 0
M  V30 9456 C 877.219 4.25789 0.547938 0
M  V30 9457 C 876.452 5.11417 1.52605 0
M  V30 9458 O 876.675 4.99204 2.75956 0
M  V30 9459 O 875.609 5.92498 1.05972 0
M  V30 9460 H 879.435 2.99868 -0.480898 0
M  V30 9461 H 877.02 1.46332 -0.301226 0
M  V30 9462 H 878.902 3.79084 1.84047 0
M  V30 9463 H 877.577 2.59835 1.93048 0
M  V30 9464 H 876.484 3.74001 -0.0860941 0
M  V30 9465 H 877.817 4.92111 -0.0935896 0
M  V30 9466 N 879.47 0.276058 1.55163 0
M  V30 9467 C 880.886 -0.0780579 1.59409 0
M  V30 9468 C 881.086 -1.54521 1.29327 0
M  V30 9469 O 880.142 -2.29422 1.05459 0
M  V30 9470 C 881.455 0.297422 2.99225 0
M  V30 9471 C 883.003 0.244117 3.12047 0
M  V30 9472 C 883.478 0.594051 4.54131 0
M  V30 9473 N 884.969 0.54564 4.59975 0
M  V30 9474 C 885.704 0.789192 5.67943 0
M  V30 9475 N 885.2 1.09741 6.84053 0
M  V30 9476 N 886.993 0.717926 5.57496 0
M  V30 9477 H 879.144 1.23251 1.72982 0
M  V30 9478 H 881.407 0.497988 0.806667 0
M  V30 9479 H 881.113 1.31782 3.26077 0
M  V30 9480 H 880.987 -0.361286 3.75466 0
M  V30 9481 H 883.374 -0.766992 2.84958 0
M  V30 9482 H 883.455 0.937097 2.38017 0
M  V30 9483 H 883.099 1.60285 4.81945 0
M  V30 9484 H 883.029 -0.120728 5.26462 0
M  V30 9485 H 885.52 0.317334 3.76565 0
M  V30 9486 H 885.833 1.26989 7.62295 0
M  V30 9487 H 884.178 1.13519 6.85666 0
M  V30 9488 H 887.369 0.47697 4.65664 0
M  V30 9489 H 887.542 0.911118 6.41563 0
M  V30 9490 N 880.948 -1.576 0.00335426 0
M  V30 9491 C 882.173 -1.95398 -0.695311 0
M  V30 9492 C 882.598 -0.878476 -1.66326 0
M  V30 9493 O 881.956 0.163086 -1.80565 0
M  V30 9494 C 882.004 -3.32293 -1.40049 0
M  V30 9495 O 881.108 -3.26834 -2.51502 0
M  V30 9496 H 880.449 -0.637796 -0.184694 0
M  V30 9497 H 882.979 -2.04519 0.057543 0
M  V30 9498 H 882.989 -3.67936 -1.76316 0
M  V30 9499 H 881.664 -4.10123 -0.690803 0
M  V30 9500 H 880.241 -3.02872 -2.17539 0
M  V30 9501 N 882.426 0.269451 -1.5528 0
M  V30 9502 C 883.356 1.33729 -1.91413 0
M  V30 9503 C 884.337 1.51348 -0.776391 0
M  V30 9504 O 885.522 1.64332 -1.03482 0
M  V30 9505 C 882.652 2.69618 -2.18914 0
M  V30 9506 C 881.606 2.66725 -3.34726 0
M  V30 9507 C 880.932 4.06199 -3.47716 0
M  V30 9508 C 882.232 2.25684 -4.71025 0
M  V30 9509 H 883.926 1.03736 -2.80854 0
M  V30 9510 H 881.472 0.497579 -1.3513 0
M  V30 9511 H 883.425 3.44436 -2.42779 0
M  V30 9512 H 882.149 3.01201 -1.26275 0
M  V30 9513 H 880.808 1.94365 -3.10834 0
M  V30 9514 H 880.456 4.3501 -2.52537 0
M  V30 9515 H 880.156 4.05157 -4.25583 0
M  V30 9516 H 881.68 4.8275 -3.73877 0
M  V30 9517 H 883.094 2.90225 -4.94411 0
M  V30 9518 H 881.491 2.35797 -5.51833 0
M  V30 9519 H 882.561 1.20819 -4.69607 0
M  V30 9520 N 883.904 1.48273 0.534124 0
M  V30 9521 C 884.867 1.6201 1.62127 0
M  V30 9522 C 885.867 0.493653 1.53035 0
M  V30 9523 O 887.057 0.759337 1.56779 0
M  V30 9524 C 884.189 1.5864 3.01739 0
M  V30 9525 H 885.382 2.58944 1.51288 0
M  V30 9526 H 882.935 1.36808 0.755861 0
M  V30 9527 H 883.67 0.631685 3.18088 0
M  V30 9528 H 883.455 2.40415 3.09747 0
M  V30 9529 H 884.945 1.71438 3.80787 0
M  V30 9530 N 885.382 -0.782676 1.36792 0
M  V30 9531 C 886.793 -1.35828 1.28092 0
M  V30 9532 C 887.144 -1.96052 -0.076315 0
M  V30 9533 O 886.269 -1.93042 -0.977935 0
M  V30 9534 C 886.864 -2.46949 2.31952 0
M  V30 9535 C 885.423 -3.00307 2.2692 0
M  V30 9536 C 884.57 -1.73436 2.16368 0
M  V30 9537 H 887.521 -0.583788 1.47572 0
M  V30 9538 H 887.542 -3.26144 1.95986 0
M  V30 9539 H 887.054 -2.03087 3.30722 0
M  V30 9540 H 885.155 -3.48571 1.31639 0
M  V30 9541 H 885.268 -3.56663 3.19887 0
M  V30 9542 H 883.632 -1.95934 1.62733 0
M  V30 9543 H 884.415 -1.31693 3.17036 0
M  V30 9544 N 886.86 -1.21182 -1.00761 0
M  V30 9545 C 888.088 -1.05335 -1.78079 0
M  V30 9546 C 888.503 0.396988 -1.84579 0
M  V30 9547 O 887.86 1.27548 -1.30529 0
M  V30 9548 C 887.911 -1.64089 -3.22113 0
M  V30 9549 O 887.632 -3.03448 -3.15992 0
M  V30 9550 C 889.133 -1.53318 -4.15943 0
M  V30 9551 H 886.353 -0.37005 -0.559736 0
M  V30 9552 H 888.897 -1.60463 -1.26775 0
M  V30 9553 H 887.052 -1.13059 -3.70535 0
M  V30 9554 H 887.466 -3.31492 -4.06465 0
M  V30 9555 H 888.94 -1.99174 -5.14814 0
M  V30 9556 H 889.417 -0.487166 -4.3649 0
M  V30 9557 H 890.023 -2.03582 -3.73409 0
M  V30 9558 N 888.338 1.20213 -1.01915 0
M  V30 9559 C 889.301 2.21307 -0.596327 0
M  V30 9560 C 890.301 1.57274 0.334879 0
M  V30 9561 O 891.491 1.73764 0.12322 0
M  V30 9562 C 888.623 3.40657 0.128808 0
M  V30 9563 H 889.816 2.60228 -1.49068 0
M  V30 9564 H 887.369 1.33721 -0.809226 0
M  V30 9565 H 888.104 3.07241 1.03796 0
M  V30 9566 H 887.889 3.88361 -0.540183 0
M  V30 9567 H 889.379 4.15564 0.411892 0
M  V30 9568 N 889.816 0.795718 1.36037 0
M  V30 9569 C 890.779 0.204318 2.28287 0
M  V30 9570 C 891.779 -0.602017 1.49105 0
M  V30 9571 O 892.969 -0.422089 1.69009 0
M  V30 9572 C 890.101 -0.716431 3.33287 0
M  V30 9573 H 891.294 1.01781 2.821 0
M  V30 9574 H 888.847 0.565588 1.45708 0
M  V30 9575 H 889.582 -1.55403 2.84641 0
M  V30 9576 H 889.367 -0.140096 3.9185 0
M  V30 9577 H 890.857 -1.12488 4.02164 0
M  V30 9578 N 891.294 -1.47756 0.548274 0
M  V30 9579 C 892.257 -2.28379 -0.193857 0
M  V30 9580 C 893.257 -1.36436 -0.850986 0
M  V30 9581 O 894.447 -1.59154 -0.70822 0
M  V30 9582 C 891.579 -3.15858 -1.28243 0
M  V30 9583 H 892.772 -2.95458 0.514231 0
M  V30 9584 H 890.325 -1.53298 0.304879 0
M  V30 9585 H 891.06 -2.5345 -2.0232 0
M  V30 9586 H 890.845 -3.83512 -0.816148 0
M  V30 9587 H 892.335 -3.76627 -1.80393 0
M  V30 9588 N 892.772 -0.284283 -1.55015 0
M  V30 9589 C 893.719 0.599194 -2.22886 0
M  V30 9590 C 894.689 1.14264 -1.20553 0
M  V30 9591 O 895.874 1.19025 -1.49123 0
M  V30 9592 C 893.014 1.77317 -2.96062 0
M  V30 9593 C 892.127 1.26271 -4.13134 0
M  V30 9594 C 891.262 2.39922 -4.73931 0
M  V30 9595 C 890.301 1.85925 -5.8318 0
M  V30 9596 N 889.438 2.93084 -6.38002 0
M  V30 9597 H 894.278 0.0137816 -2.97997 0
M  V30 9598 H 891.815 -0.00496503 -1.47099 0
M  V30 9599 H 893.773 2.46339 -3.36709 0
M  V30 9600 H 892.403 2.33047 -2.23358 0
M  V30 9601 H 891.455 0.465296 -3.77544 0
M  V30 9602 H 892.767 0.827284 -4.91892 0
M  V30 9603 H 891.921 3.1692 -5.17346 0
M  V30 9604 H 890.66 2.86784 -3.9447 0
M  V30 9605 H 889.665 1.07409 -5.39206 0
M  V30 9606 H 890.89 1.39987 -6.64515 0
M  V30 9607 H 888.836 3.3931 -5.61431 0
M  V30 9608 H 888.753 2.53986 -7.12058 0
M  V30 9609 H 890.021 3.7003 -6.86075 0
M  V30 9610 N 894.251 1.57596 -0.0117121 0
M  V30 9611 C 895.667 1.55837 0.344506 0
M  V30 9612 C 895.867 1.01557 1.74036 0
M  V30 9613 O 894.923 0.654563 2.43868 0
M  V30 9614 C 896.236 2.99973 0.209023 0
M  V30 9615 C 897.784 3.11717 0.283092 0
M  V30 9616 C 898.259 4.57659 0.176599 0
M  V30 9617 N 899.75 4.62608 0.234133 0
M  V30 9618 C 900.485 5.73132 0.175252 0
M  V30 9619 N 899.981 6.92768 0.0662888 0
M  V30 9620 N 901.774 5.61638 0.227972 0
M  V30 9621 H 893.925 1.91215 -0.924692 0
M  V30 9622 H 896.188 0.878807 -0.355531 0
M  V30 9623 H 895.894 3.4357 -0.751826 0
M  V30 9624 H 895.768 3.64075 0.98635 0
M  V30 9625 H 898.155 2.68043 1.23439 0
M  V30 9626 H 898.236 2.50369 -0.52431 0
M  V30 9627 H 897.88 5.02011 -0.771205 0
M  V30 9628 H 897.81 5.16967 1.00264 0
M  V30 9629 H 900.301 3.76549 0.319203 0
M  V30 9630 H 900.614 7.72795 0.0275765 0
M  V30 9631 H 898.959 6.94993 0.0317502 0
M  V30 9632 H 902.15 4.67063 0.311377 0
M  V30 9633 H 902.323 6.47754 0.178621 0
M  V30 9634 N 895.729 -0.261212 1.5542 0
M  V30 9635 C 897.145 -0.609012 1.47524 0
M  V30 9636 C 897.345 -1.88986 0.699042 0
M  V30 9637 O 896.401 -2.51517 0.222628 0
M  V30 9638 C 897.714 -0.725025 2.91828 0
M  V30 9639 C 899.262 -0.818302 3.02114 0
M  V30 9640 C 899.737 -0.965996 4.47697 0
M  V30 9641 N 901.228 -1.03123 4.51575 0
M  V30 9642 C 901.963 -1.16451 5.6145 0
M  V30 9643 N 901.459 -1.26425 6.81167 0
M  V30 9644 N 903.252 -1.19655 5.49217 0
M  V30 9645 H 895.403 0.579807 2.04333 0
M  V30 9646 H 897.666 0.198072 0.927077 0
M  V30 9647 H 897.372 0.145871 3.51397 0
M  V30 9648 H 897.246 -1.60156 3.41511 0
M  V30 9649 H 899.633 -1.67966 2.42634 0
M  V30 9650 H 899.714 0.0830895 2.55665 0
M  V30 9651 H 899.358 -0.109251 5.07782 0
M  V30 9652 H 899.288 -1.88221 4.91813 0
M  V30 9653 H 901.779 -0.966072 3.65343 0
M  V30 9654 H 902.092 -1.36462 7.60656 0
M  V30 9655 H 900.437 -1.23408 6.83956 0
M  V30 9656 H 903.628 -1.11501 4.54626 0
M  V30 9657 H 903.801 -1.29698 6.34888 0
M  V30 9658 N 897.207 -1.48554 -0.526253 0
M  V30 9659 C 898.456 -1.56014 -1.27837 0
M  V30 9660 C 898.769 -0.240643 -1.94114 0
M  V30 9661 O 899.975 -0.193525 -2.70809 0
M  V30 9662 C 898.431 -2.75161 -2.31979 0
M  V30 9663 C 898.039 -4.13768 -1.71755 0
M  V30 9664 C 899.783 -2.91936 -3.08178 0
M  V30 9665 C 897.69 -5.24171 -2.7386 0
M  V30 9666 H 896.62 -0.58082 -0.480795 0
M  V30 9667 H 899.271 -1.74895 -0.555335 0
M  V30 9668 H 897.653 -2.49722 -3.07335 0
M  V30 9669 H 898.827 -4.49241 -1.02563 0
M  V30 9670 H 897.142 -4.02141 -1.08036 0
M  V30 9671 H 899.739 -3.71586 -3.84484 0
M  V30 9672 H 900.082 -2.01533 -3.64267 0
M  V30 9673 H 900.615 -3.17294 -2.39937 0
M  V30 9674 H 897.354 -6.16552 -2.22586 0
M  V30 9675 H 896.874 -4.93181 -3.41368 0
M  V30 9676 H 898.553 -5.52442 -3.36774 0
M  V30 9677 N 898.685 0.775411 -1.37205 0
M  V30 9678 C 899.913 1.56446 -1.35397 0
M  V30 9679 C 900.328 1.887 0.0615437 0
M  V30 9680 O 899.685 1.51178 1.02233 0
M  V30 9681 C 899.736 2.87697 -2.18889 0
M  V30 9682 O 899.457 2.56828 -3.54924 0
M  V30 9683 C 900.958 3.81944 -2.25019 0
M  V30 9684 H 898.178 0.484792 -0.463916 0
M  V30 9685 H 900.722 0.961346 -1.80495 0
M  V30 9686 H 898.877 3.44442 -1.7731 0
M  V30 9687 H 899.291 3.40851 -3.98649 0
M  V30 9688 H 900.765 4.71055 -2.87769 0
M  V30 9689 H 901.242 4.20811 -1.25757 0
M  V30 9690 H 901.848 3.3113 -2.66895 0
M  V30 9691 N 900.163 1.21714 1.00117 0
M  V30 9692 C 901.579 0.97532 1.26332 0
M  V30 9693 C 901.779 -0.336029 1.98678 0
M  V30 9694 O 900.835 -1.06073 2.29139 0
M  V30 9695 C 902.148 2.16848 2.0832 0
M  V30 9696 C 903.696 2.21115 2.21533 0
M  V30 9697 C 904.171 3.3996 3.06906 0
M  V30 9698 N 905.662 3.40071 3.14494 0
M  V30 9699 C 906.397 4.28678 3.80818 0
M  V30 9700 N 905.893 5.2749 4.49139 0
M  V30 9701 N 907.686 4.16476 3.77497 0
M  V30 9702 H 899.837 2.06039 0.515897 0
M  V30 9703 H 902.1 0.902423 0.290408 0
M  V30 9704 H 901.806 3.119 1.62515 0
M  V30 9705 H 901.68 2.16226 3.09073 0
M  V30 9706 H 904.067 1.26616 2.66557 0
M  V30 9707 H 904.148 2.2578 1.20238 0
M  V30 9708 H 903.792 4.34755 2.62585 0
M  V30 9709 H 903.722 3.32534 4.08324 0
M  V30 9710 H 906.213 2.68563 2.65861 0
M  V30 9711 H 906.526 5.91397 4.97463 0
M  V30 9712 H 904.871 5.31412 4.47914 0
M  V30 9713 H 908.062 3.38539 3.23278 0
M  V30 9714 H 908.235 4.85739 4.28908 0
M  V30 9715 N 901.641 -1.19671 1.02551 0
M  V30 9716 C 902.866 -1.93774 0.739363 0
M  V30 9717 C 903.291 -1.74787 -0.695064 0
M  V30 9718 O 902.649 -1.04796 -1.47944 0
M  V30 9719 C 902.697 -3.43684 1.09149 0
M  V30 9720 O 901.801 -4.11874 0.208213 0
M  V30 9721 H 901.142 -0.605064 0.273484 0
M  V30 9722 H 903.672 -1.51846 1.37128 0
M  V30 9723 H 903.682 -3.94339 1.04695 0
M  V30 9724 H 902.357 -3.56826 2.13654 0
M  V30 9725 H 900.934 -3.716 0.311045 0
M  V30 9726 N 903.119 -0.802921 -1.35613 0
M  V30 9727 C 904.368 -0.378087 -1.98125 0
M  V30 9728 C 904.681 1.05953 -1.64418 0
M  V30 9729 O 905.887 1.58729 -2.20266 0
M  V30 9730 C 904.343 -0.625077 -3.5443 0
M  V30 9731 C 903.951 -2.07499 -3.97049 0
M  V30 9732 C 905.695 -0.265419 -4.23669 0
M  V30 9733 C 903.602 -2.26793 -5.46186 0
M  V30 9734 H 902.532 -0.137633 -0.741332 0
M  V30 9735 H 905.183 -0.986461 -1.54729 0
M  V30 9736 H 903.565 0.0531975 -3.95964 0
M  V30 9737 H 904.739 -2.79077 -3.66678 0
M  V30 9738 H 903.054 -2.39417 -3.40688 0
M  V30 9739 H 905.651 -0.387669 -5.33293 0
M  V30 9740 H 905.994 0.787994 -4.08774 0
M  V30 9741 H 906.527 -0.897464 -3.87544 0
M  V30 9742 H 903.266 -3.30566 -5.66045 0
M  V30 9743 H 902.786 -1.59735 -5.78139 0
M  V30 9744 H 904.465 -2.08165 -6.12598 0
M  V30 9745 N 904.597 1.47463 -0.556102 0
M  V30 9746 C 905.527 2.32801 0.180497 0
M  V30 9747 C 906.508 1.43721 0.909848 0
M  V30 9748 O 907.693 1.72578 0.89053 0
M  V30 9749 C 904.823 3.25478 1.21167 0
M  V30 9750 C 903.777 4.2379 0.598846 0
M  V30 9751 C 903.103 5.05783 1.73457 0
M  V30 9752 C 904.403 5.20387 -0.446659 0
M  V30 9753 H 906.097 2.94636 -0.531956 0
M  V30 9754 H 903.643 1.41683 -0.257267 0
M  V30 9755 H 905.596 3.8402 1.73513 0
M  V30 9756 H 904.32 2.61695 1.95405 0
M  V30 9757 H 902.979 3.66472 0.0966897 0
M  V30 9758 H 902.627 4.38405 2.46596 0
M  V30 9759 H 902.327 5.72343 1.33031 0
M  V30 9760 H 903.851 5.67183 2.26131 0
M  V30 9761 H 905.265 5.73299 -0.00930019 0
M  V30 9762 H 903.662 5.95143 -0.769735 0
M  V30 9763 H 904.732 4.65932 -1.34295 0
M  V30 9764 N 906.075 0.2925 1.54862 0
M  V30 9765 C 907.007 -0.620889 2.2063 0
M  V30 9766 C 908.02 -1.10412 1.19637 0
M  V30 9767 O 909.209 -1.02304 1.46274 0
M  V30 9768 C 906.309 -1.861 2.83232 0
M  V30 9769 C 905.482 -1.52168 4.10078 0
M  V30 9770 C 904.541 -2.61605 4.56562 0
M  V30 9771 O 903.567 -2.27056 5.21952 0
M  V30 9772 N 904.769 -3.9199 4.28163 0
M  V30 9773 H 907.534 -0.0579028 2.99644 0
M  V30 9774 H 905.095 0.114333 1.61496 0
M  V30 9775 H 907.087 -2.58642 3.11266 0
M  V30 9776 H 905.657 -2.33259 2.08108 0
M  V30 9777 H 904.877 -0.629283 3.89145 0
M  V30 9778 H 906.165 -1.27023 4.92689 0
M  V30 9779 H 905.563 -4.22872 3.7576 0
M  V30 9780 H 904.12 -4.60857 4.60928 0
M  V30 9781 N 907.553 -1.57587 0.0200696 0
M  V30 9782 C 908.486 -2.05157 -0.999295 0
M  V30 9783 C 909.464 -0.945466 -1.32286 0
M  V30 9784 O 910.648 -1.21512 -1.44108 0
M  V30 9785 C 907.775 -2.46604 -2.32173 0
M  V30 9786 C 906.821 -3.68146 -2.15339 0
M  V30 9787 S 907.654 -5.15194 -1.46065 0
M  V30 9788 C 908.81 -5.59929 -2.79697 0
M  V30 9789 H 909.043 -2.91299 -0.59433 0
M  V30 9790 H 906.576 -1.53209 -0.191372 0
M  V30 9791 H 908.534 -2.7115 -3.08201 0
M  V30 9792 H 907.195 -1.60825 -2.69804 0
M  V30 9793 H 906.388 -3.94963 -3.13082 0
M  V30 9794 H 905.99 -3.43705 -1.47454 0
M  V30 9795 H 908.282 -5.63615 -3.75957 0
M  V30 9796 H 909.225 -6.59599 -2.57555 0
M  V30 9797 H 909.633 -4.87549 -2.84528 0
M  V30 9798 N 909.032 0.252966 -1.55557 0
M  V30 9799 C 910.257 1.0038 -1.8149 0
M  V30 9800 C 910.682 1.78397 -0.596318 0
M  V30 9801 O 910.04 1.7551 0.454535 0
M  V30 9802 C 910.088 1.9222 -3.05096 0
M  V30 9803 O 909.192 3.01302 -2.81587 0
M  V30 9804 H 908.533 0.285949 -0.599274 0
M  V30 9805 H 911.063 0.275795 -2.02733 0
M  V30 9806 H 911.073 2.338 -3.34368 0
M  V30 9807 H 909.748 1.34852 -3.93431 0
M  V30 9808 H 908.325 2.63894 -2.63466 0
M  V30 9809 N 910.51 1.48831 0.518367 0
M  V30 9810 C 911.44 1.67119 1.63075 0
M  V30 9811 C 912.421 0.519948 1.61958 0
M  V30 9812 O 913.606 0.753824 1.78972 0
M  V30 9813 C 910.736 1.72158 3.01627 0
M  V30 9814 C 909.69 2.86898 3.17606 0
M  V30 9815 C 909.016 2.77035 4.57335 0
M  V30 9816 C 910.316 4.28057 2.99274 0
M  V30 9817 H 912.01 2.60248 1.48025 0
M  V30 9818 H 909.556 1.2524 0.710694 0
M  V30 9819 H 911.509 1.83539 3.7933 0
M  V30 9820 H 910.233 0.756157 3.17726 0
M  V30 9821 H 908.892 2.75091 2.42323 0
M  V30 9822 H 908.54 1.78438 4.70286 0
M  V30 9823 H 908.24 3.54036 4.6897 0
M  V30 9824 H 909.764 2.904 5.37122 0
M  V30 9825 H 911.178 4.40636 3.6676 0
M  V30 9826 H 909.575 5.06145 3.22393 0
M  V30 9827 H 910.645 4.4371 1.95574 0
M  V30 9828 N 911.988 -0.768124 1.37614 0
M  V30 9829 C 913.265 -1.51637 1.23554 0
M  V30 9830 C 913.645 -2.1042 -0.169331 0
M  V30 9831 O 912.993 -1.95834 -1.17735 0
M  V30 9832 C 913.203 -2.59436 2.33439 0
M  V30 9833 C 914.551 -3.2674 2.71157 0
M  V30 9834 O 915.575 -2.69733 2.32642 0
M  V30 9835 O 914.434 -4.29814 3.37524 0
M  V30 9836 H 911.528 -0.671778 0.482332 0
M  V30 9837 H 914.074 -0.804779 1.49403 0
M  V30 9838 H 912.846 -2.14146 3.27502 0
M  V30 9839 H 912.469 -3.38192 2.09073 0
M  V30 9840 N 913.466 -1.22244 -0.994698 0
M  V30 9841 C 914.416 -0.958244 -2.06886 0
M  V30 9842 C 915.4 0.0904481 -1.60646 0
M  V30 9843 O 916.592 -0.119837 -1.76594 0
M  V30 9844 C 913.721 -0.535944 -3.39091 0
M  V30 9845 C 912.807 -1.61927 -3.9197 0
M  V30 9846 N 913.198 -2.84659 -4.18094 0
M  V30 9847 C 911.496 -1.49053 -4.20356 0
M  V30 9848 C 912.197 -3.54697 -4.61048 0
M  V30 9849 N 911.173 -2.82164 -4.64634 0
M  V30 9850 H 914.975 -1.89056 -2.25022 0
M  V30 9851 H 912.489 -1.1197 -1.17629 0
M  V30 9852 H 914.486 -0.327997 -4.15608 0
M  V30 9853 H 913.146 0.38949 -3.22355 0
M  V30 9854 H 914.157 -3.21104 -4.06341 0
M  V30 9855 H 910.834 -0.631154 -4.12702 0
M  V30 9856 H 912.224 -4.59837 -4.89898 0
M  V30 9857 N 914.944 1.19125 -1.03184 0
M  V30 9858 C 915.894 2.20348 -0.585731 0
M  V30 9859 C 916.878 1.56656 0.367109 0
M  V30 9860 O 918.07 1.76003 0.187598 0
M  V30 9861 C 915.199 3.43249 0.0590006 0
M  V30 9862 C 914.285 4.1408 -0.916457 0
M  V30 9863 N 914.676 4.61051 -2.08005 0
M  V30 9864 C 912.974 4.39809 -0.74054 0
M  V30 9865 C 913.675 5.15477 -2.69552 0
M  V30 9866 N 912.651 5.06456 -1.97493 0
M  V30 9867 H 916.453 2.54346 -1.47259 0
M  V30 9868 H 913.967 1.35232 -0.899225 0
M  V30 9869 H 915.964 4.15013 0.396236 0
M  V30 9870 H 914.624 3.1075 0.941507 0
M  V30 9871 H 915.635 4.55782 -2.45934 0
M  V30 9872 H 912.312 4.17397 0.0926238 0
M  V30 9873 H 913.702 5.62088 -3.68112 0
M  V30 9874 N 916.422 0.810101 1.35185 0
M  V30 9875 C 917.671 0.388589 1.97921 0
M  V30 9876 C 917.984 -1.05079 1.64978 0
M  V30 9877 O 919.19 -1.57559 2.21105 0
M  V30 9878 C 917.646 0.643864 3.54094 0
M  V30 9879 C 917.254 2.09602 3.95943 0
M  V30 9880 C 918.998 0.287883 4.23523 0
M  V30 9881 C 916.905 2.29686 5.44976 0
M  V30 9882 H 915.835 0.141562 0.740592 0
M  V30 9883 H 918.486 0.994653 1.54204 0
M  V30 9884 H 916.868 -0.0321978 3.95987 0
M  V30 9885 H 918.042 2.81018 3.65192 0
M  V30 9886 H 916.357 2.4122 3.39414 0
M  V30 9887 H 918.954 0.415946 5.3308 0
M  V30 9888 H 919.297 -0.766305 4.09186 0
M  V30 9889 H 919.83 0.918004 3.87063 0
M  V30 9890 H 916.569 3.33563 5.64284 0
M  V30 9891 H 916.089 1.62798 5.77284 0
M  V30 9892 H 917.768 2.11411 6.11485 0
M  V30 9893 N 917.9 -1.47166 0.563914 0
M  V30 9894 C 919.146 -2.02756 0.0424338 0
M  V30 9895 C 919.479 -1.43662 -1.3067 0
M  V30 9896 O 918.754 -0.594676 -1.85186 0
M  V30 9897 C 919.037 -3.60074 -0.0434793 0
M  V30 9898 C 918.89 -4.29587 1.33323 0
M  V30 9899 C 920.209 -4.336 -0.753568 0
M  V30 9900 H 917.328 -0.736806 0.0168946 0
M  V30 9901 H 919.97 -1.75521 0.727496 0
M  V30 9902 H 918.12 -3.83409 -0.626906 0
M  V30 9903 H 919.792 -4.17573 1.96037 0
M  V30 9904 H 918.035 -3.8968 1.9061 0
M  V30 9905 H 918.706 -5.38218 1.22576 0
M  V30 9906 H 921.182 -4.15299 -0.258126 0
M  V30 9907 H 920.058 -5.43291 -0.782659 0
M  V30 9908 H 920.319 -4.03302 -1.81108 0
M  V30 9909 N 919.378 -0.300708 -1.54705 0
M  V30 9910 C 920.606 0.31127 -2.04545 0
M  V30 9911 C 921.021 1.47542 -1.178 0
M  V30 9912 O 920.378 1.81361 -0.203571 0
M  V30 9913 C 920.429 0.767783 -3.53253 0
M  V30 9914 O 920.15 -0.350027 -4.36699 0
M  V30 9915 C 921.651 1.44494 -4.1909 0
M  V30 9916 H 918.871 0.067668 -0.667579 0
M  V30 9917 H 921.415 -0.440254 -1.99705 0
M  V30 9918 H 919.57 1.46933 -3.58454 0
M  V30 9919 H 919.984 0.00534038 -5.245 0
M  V30 9920 H 921.458 1.71553 -5.24665 0
M  V30 9921 H 921.935 2.3849 -3.68808 0
M  V30 9922 H 922.541 0.786581 -4.17963 0
M  V30 9923 N 920.856 1.57574 -0.0284266 0
M  V30 9924 C 922.267 1.79585 0.510502 0
M  V30 9925 C 922.618 0.938625 1.72291 0
M  V30 9926 O 921.743 0.14884 2.15888 0
M  V30 9927 C 922.338 3.25703 0.932912 0
M  V30 9928 C 920.897 3.48711 1.41696 0
M  V30 9929 C 920.044 2.74665 0.381356 0
M  V30 9930 H 922.995 1.56647 -0.254464 0
M  V30 9931 H 923.016 3.35376 1.79731 0
M  V30 9932 H 922.528 3.88067 0.0503036 0
M  V30 9933 H 920.629 2.91597 2.31952 0
M  V30 9934 H 920.742 4.57423 1.42481 0
M  V30 9935 H 919.106 2.40123 0.8493 0
M  V30 9936 H 919.889 3.39745 -0.492775 0
M  V30 9937 N 922.334 -0.244713 1.55689 0
M  V30 9938 C 923.264 -1.30667 1.93516 0
M  V30 9939 C 924.245 -1.50094 0.800371 0
M  V30 9940 O 925.43 -1.62665 1.06083 0
M  V30 9941 C 922.56 -2.66101 2.23176 0
M  V30 9942 C 921.514 -2.61366 3.38927 0
M  V30 9943 C 920.84 -4.00616 3.54134 0
M  V30 9944 C 922.14 -2.18161 4.74555 0
M  V30 9945 H 923.834 -0.992546 2.82469 0
M  V30 9946 H 921.38 -0.476018 1.35905 0
M  V30 9947 H 923.333 -3.4053 2.48228 0
M  V30 9948 H 922.057 -2.99154 1.31051 0
M  V30 9949 H 920.716 -1.89395 3.13887 0
M  V30 9950 H 920.364 -4.30938 2.59426 0
M  V30 9951 H 920.064 -3.98335 4.31975 0
M  V30 9952 H 921.588 -4.76741 3.8151 0
M  V30 9953 H 923.002 -2.82323 4.98965 0
M  V30 9954 H 921.399 -2.26988 5.55515 0
M  V30 9955 H 922.469 -1.13333 4.7147 0
M  V30 9956 N 923.813 -1.49104 -0.510467 0
M  V30 9957 C 925.041 -1.61806 -1.28944 0
M  V30 9958 C 925.456 -0.285774 -1.86625 0
M  V30 9959 O 924.813 0.727551 -1.67371 0
M  V30 9960 C 924.864 -2.67966 -2.42645 0
M  V30 9961 O 924.585 -3.96026 -1.87337 0
M  V30 9962 C 926.086 -2.91286 -3.34166 0
M  V30 9963 H 923.306 -0.544999 -0.391429 0
M  V30 9964 H 925.85 -1.95071 -0.613805 0
M  V30 9965 H 924.005 -2.37505 -3.06056 0
M  V30 9966 H 924.419 -4.54427 -2.61909 0
M  V30 9967 H 925.893 -3.69323 -4.1025 0
M  V30 9968 H 926.37 -2.00842 -3.90588 0
M  V30 9969 H 926.976 -3.23127 -2.76531 0
M  V30 9970 N 925.291 0.760815 -1.38019 0
M  V30 9971 C 926.516 1.55513 -1.37224 0
M  V30 9972 C 926.941 1.88062 0.037611 0
M  V30 9973 O 926.299 1.50042 1.0177 0
M  V30 9974 C 926.347 2.83539 -2.22796 0
M  V30 9975 O 925.451 3.78384 -1.64009 0
M  V30 9976 H 924.792 0.470642 -0.468393 0
M  V30 9977 H 927.322 0.940792 -1.81687 0
M  V30 9978 H 927.332 3.32535 -2.36399 0
M  V30 9979 H 926.007 2.59178 -3.25269 0
M  V30 9980 H 924.584 3.37063 -1.59508 0
M  V30 9981 N 926.769 1.22769 0.988202 0
M  V30 9982 C 927.699 1.02627 2.09738 0
M  V30 9983 C 928.68 -0.0543211 1.70013 0
M  V30 9984 O 929.865 0.108811 1.93895 0
M  V30 9985 C 926.995 0.608302 3.41931 0
M  V30 9986 C 925.949 1.63536 3.95525 0
M  V30 9987 C 925.275 1.07308 5.23822 0
M  V30 9988 C 926.575 3.02649 4.25677 0
M  V30 9989 H 928.269 1.954 2.26847 0
M  V30 9990 H 925.815 0.940888 1.09011 0
M  V30 9991 H 927.768 0.454478 4.18942 0
M  V30 9992 H 926.492 -0.355095 3.24664 0
M  V30 9993 H 925.151 1.77704 3.20651 0
M  V30 9994 H 924.799 0.100894 5.02899 0
M  V30 9995 H 924.499 1.75925 5.60646 0
M  V30 9996 H 926.023 0.930938 6.03462 0
M  V30 9997 H 927.437 2.91828 4.93467 0
M  V30 9998 H 925.834 3.68434 4.73684 0
M  V30 9999 H 926.904 3.52228 3.33262 0
M  V30 10000 N 928.247 -1.18576 1.03814 0
M  V30 10001 C 929.493 -1.88773 0.741132 0
M  V30 10002 C 929.826 -1.79993 -0.729127 0
M  V30 10003 O 929.101 -1.19851 -1.53186 0
M  V30 10004 C 929.384 -3.39352 1.20468 0
M  V30 10005 C 929.237 -3.56955 2.73684 0
M  V30 10006 C 930.556 -4.32901 0.792741 0
M  V30 10007 H 927.675 -0.685482 0.270708 0
M  V30 10008 H 930.317 -1.39523 1.2897 0
M  V30 10009 H 928.467 -3.81427 0.737974 0
M  V30 10010 H 930.139 -3.2399 3.28372 0
M  V30 10011 H 928.382 -2.99696 3.13632 0
M  V30 10012 H 929.053 -4.62598 3.01176 0
M  V30 10013 H 931.529 -3.98592 1.1943 0
M  V30 10014 H 930.405 -5.36828 1.14486 0
M  V30 10015 H 930.666 -4.41052 -0.304295 0
M  V30 10016 N 929.725 -0.817259 -1.34754 0
M  V30 10017 C 930.974 -0.39908 -1.97713 0
M  V30 10018 C 931.287 1.04203 -1.65533 0
M  V30 10019 O 932.493 1.56384 -2.21937 0
M  V30 10020 C 930.949 -0.662634 -3.53747 0
M  V30 10021 C 930.557 -2.11699 -3.94826 0
M  V30 10022 C 932.301 -0.31034 -4.23364 0
M  V30 10023 C 930.208 -2.32573 -5.4375 0
M  V30 10024 H 929.138 -0.145488 -0.739831 0
M  V30 10025 H 931.789 -1.00282 -1.53674 0
M  V30 10026 H 930.171 0.0111972 -3.95998 0
M  V30 10027 H 931.345 -2.82951 -3.63697 0
M  V30 10028 H 929.66 -2.43017 -3.3813 0
M  V30 10029 H 932.257 -0.44421 -5.32852 0
M  V30 10030 H 932.6 0.744594 -4.09587 0
M  V30 10031 H 933.133 -0.938518 -3.8657 0
M  V30 10032 H 929.872 -3.36551 -5.62507 0
M  V30 10033 H 929.392 -1.65858 -5.76412 0
M  V30 10034 H 931.071 -2.14651 -6.10356 0
M  V30 10035 N 931.203 1.46865 -0.571711 0
M  V30 10036 C 932.113 2.33979 0.170571 0
M  V30 10037 C 933.129 1.49083 0.897239 0
M  V30 10038 O 934.305 1.81979 0.862888 0
M  V30 10039 C 931.37 3.26063 1.17831 0
M  V30 10040 C 930.431 4.26855 0.457499 0
M  V30 10041 C 929.664 5.14539 1.41722 0
M  V30 10042 O 929.887 5.04945 2.65305 0
M  V30 10043 O 928.821 5.94612 0.9338 0
M  V30 10044 H 932.647 2.98781 -0.544396 0
M  V30 10045 H 930.232 1.4566 -0.332198 0
M  V30 10046 H 932.114 3.82903 1.75965 0
M  V30 10047 H 930.789 2.63871 1.87493 0
M  V30 10048 H 929.696 3.73734 -0.165406 0
M  V30 10049 H 931.029 4.91802 -0.197953 0
M  V30 10050 N 932.681 0.308908 1.54543 0
M  V30 10051 C 933.629 -0.579326 2.2527 0
M  V30 10052 C 934.623 -1.13058 1.26152 0
M  V30 10053 O 935.829 -1.08031 1.43977 0
M  V30 10054 H 932.204 -0.205444 0.723392 0
M  V30 10055 H 934.175 0.0396415 2.98374 0
M  V30 10056 C 932.924 -1.73584 3.01271 0
M  V30 10057 H 932.247 -1.32089 3.77349 0
M  V30 10058 H 933.687 -2.33324 3.54028 0
M  V30 10059 C 932.146 -2.6447 2.08703 0
M  V30 10060 O 932.676 -3.65785 1.66025 0
M  V30 10061 N 930.882 -2.32379 1.74495 0
M  V30 10062 H 930.429 -1.50034 2.09398 0
M  V30 10063 H 930.387 -2.93454 1.12836 0
M  V30 10064 N 934.159 -1.57557 0.0367827 0
M  V30 10065 C 935.069 -2.14148 -0.958017 0
M  V30 10066 C 936.085 -1.09564 -1.35173 0
M  V30 10067 O 937.261 -1.4166 -1.43158 0
M  V30 10068 C 934.326 -2.6636 -2.21931 0
M  V30 10069 C 933.387 -3.85688 -1.8853 0
M  V30 10070 C 932.62 -4.35401 -3.08645 0
M  V30 10071 O 932.843 -3.8425 -4.21554 0
M  V30 10072 O 931.777 -5.27158 -2.90497 0
M  V30 10073 H 935.603 -2.99442 -0.506797 0
M  V30 10074 H 933.188 -1.48259 -0.184275 0
M  V30 10075 H 935.07 -2.99976 -2.9596 0
M  V30 10076 H 933.745 -1.84145 -2.66219 0
M  V30 10077 H 932.652 -3.56985 -1.11861 0
M  V30 10078 H 933.985 -4.69089 -1.49052 0
M  V30 10079 N 935.637 0.236453 -1.55816 0
M  V30 10080 C 936.6 1.27633 -1.90375 0
M  V30 10081 C 937.6 1.40557 -0.781048 0
M  V30 10082 O 938.79 1.39078 -1.04895 0
M  V30 10083 C 935.922 2.65247 -2.14142 0
M  V30 10084 H 937.115 0.982019 -2.83366 0
M  V30 10085 H 934.668 0.476215 -1.48869 0
M  V30 10086 H 935.403 2.99801 -1.23653 0
M  V30 10087 H 935.188 2.57246 -2.95917 0
M  V30 10088 H 936.678 3.40313 -2.42026 0
M  V30 10089 N 937.115 1.49373 0.502552 0
M  V30 10090 C 938.363 1.58467 1.25429 0
M  V30 10091 C 938.684 0.272593 1.93085 0
M  V30 10092 O 937.954 -0.707947 1.82661 0
M  V30 10093 H 936.534 0.583866 0.46595 0
M  V30 10094 H 939.196 1.8599 0.582568 0
M  V30 10095 H 938.292 2.37993 2.01906 0
M  V30 10096 N 938.594 -0.753485 1.38421 0
M  V30 10097 C 939.871 -1.50318 1.25155 0
M  V30 10098 C 940.251 -2.10588 -0.147003 0
M  V30 10099 O 939.599 -1.97071 -1.15651 0
M  V30 10100 C 939.809 -2.56946 2.36177 0
M  V30 10101 C 941.157 -3.23846 2.74607 0
M  V30 10102 O 942.181 -2.67251 2.3549 0
M  V30 10103 O 941.04 -4.2621 3.42064 0
M  V30 10104 H 938.134 -0.666624 0.48943 0
M  V30 10105 H 940.68 -0.788887 1.50249 0
M  V30 10106 H 939.452 -2.1066 3.29754 0
M  V30 10107 H 939.075 -3.35956 2.12648 0
M  V30 10108 N 940.072 -1.23292 -0.981677 0
M  V30 10109 C 940.982 -1.02964 -2.10798 0
M  V30 10110 C 941.998 0.0254674 -1.73981 0
M  V30 10111 O 943.174 -0.169706 -2.00684 0
M  V30 10112 C 940.239 -0.621934 -3.41076 0
M  V30 10113 C 939.3 -1.75194 -3.91926 0
M  V30 10114 C 938.533 -1.36359 -5.15986 0
M  V30 10115 O 938.756 -0.247265 -5.69864 0
M  V30 10116 O 937.69 -2.18421 -5.60871 0
M  V30 10117 H 941.516 -1.97354 -2.30836 0
M  V30 10118 H 939.101 -1.01986 -1.09175 0
M  V30 10119 H 940.983 -0.405446 -4.19445 0
M  V30 10120 H 939.658 0.29299 -3.22371 0
M  V30 10121 H 938.565 -2.02305 -3.1468 0
M  V30 10122 H 939.898 -2.64513 -4.15083 0
M  V30 10123 N 941.55 1.18024 -1.04442 0
M  V30 10124 C 942.966 1.40107 -0.76435 0
M  V30 10125 C 943.166 1.90914 0.644516 0
M  V30 10126 O 942.222 2.0959 1.40813 0
M  V30 10127 C 943.535 2.39851 -1.81361 0
M  V30 10128 C 945.083 2.53571 -1.83496 0
M  V30 10129 C 945.558 3.56583 -2.87424 0
M  V30 10130 N 947.049 3.64094 -2.86339 0
M  V30 10131 C 947.784 4.43537 -3.63405 0
M  V30 10132 N 947.28 5.26557 -4.50233 0
M  V30 10133 N 949.073 4.38336 -3.51877 0
M  V30 10134 H 941.224 0.833726 -1.95353 0
M  V30 10135 H 943.487 0.42881 -0.845474 0
M  V30 10136 H 943.193 2.09576 -2.82438 0
M  V30 10137 H 943.067 3.39251 -1.6489 0
M  V30 10138 H 945.454 2.83161 -0.830883 0
M  V30 10139 H 945.535 1.54272 -2.04044 0
M  V30 10140 H 945.179 3.27733 -3.88012 0
M  V30 10141 H 945.109 4.55569 -2.6413 0
M  V30 10142 H 947.6 3.04814 -2.23376 0
M  V30 10143 H 947.913 5.84336 -5.05738 0
M  V30 10144 H 946.258 5.25964 -4.54298 0
M  V30 10145 H 949.449 3.72528 -2.83444 0
M  V30 10146 H 949.622 5.00007 -4.12186 0
M  V30 10147 N 943.028 0.824394 1.34319 0
M  V30 10148 C 943.961 0.192544 2.27386 0
M  V30 10149 C 944.939 -0.651901 1.4896 0
M  V30 10150 O 946.123 -0.615321 1.78174 0
M  V30 10151 C 943.25 -0.730958 3.30718 0
M  V30 10152 C 942.296 0.0361484 4.26485 0
M  V30 10153 S 943.129 1.3843 5.17298 0
M  V30 10154 C 944.285 0.465713 6.24165 0
M  V30 10155 H 944.518 0.981573 2.80629 0
M  V30 10156 H 942.051 0.620371 1.41389 0
M  V30 10157 H 944.009 -1.25822 3.90742 0
M  V30 10158 H 942.67 -1.49352 2.7632 0
M  V30 10159 H 941.863 -0.665969 4.99581 0
M  V30 10160 H 941.465 0.494011 3.70723 0
M  V30 10161 H 943.757 -0.342157 6.76635 0
M  V30 10162 H 944.7 1.16639 6.98427 0
M  V30 10163 H 945.108 0.0534895 5.64475 0
M  V30 10164 N 944.506 -1.46559 0.579492 0
M  V30 10165 C 945.436 -2.33059 -0.143437 0
M  V30 10166 C 946.417 -1.4515 -0.886868 0
M  V30 10167 O 947.602 -1.73973 -0.862961 0
M  V30 10168 C 944.732 -3.27364 -1.15973 0
M  V30 10169 C 943.686 -4.24689 -0.531348 0
M  V30 10170 C 943.012 -5.08479 -1.65388 0
M  V30 10171 C 944.312 -5.1961 0.529391 0
M  V30 10172 H 946.006 -2.93753 0.578762 0
M  V30 10173 H 943.552 -1.41256 0.279775 0
M  V30 10174 H 945.505 -3.86732 -1.67382 0
M  V30 10175 H 944.229 -2.64771 -1.91217 0
M  V30 10176 H 942.888 -3.6658 -0.0383749 0
M  V30 10177 H 942.536 -4.42273 -2.3959 0
M  V30 10178 H 942.236 -5.74387 -1.23909 0
M  V30 10179 H 943.76 -5.70709 -2.17079 0
M  V30 10180 H 945.174 -5.73212 0.100506 0
M  V30 10181 H 943.571 -5.93843 0.86432 0
M  V30 10182 H 944.641 -4.63737 1.4169 0
M  V30 10183 N 945.984 -0.3171 -1.54377 0
M  V30 10184 C 946.947 0.53905 -2.22771 0
M  V30 10185 C 947.947 1.04865 -1.21901 0
M  V30 10186 O 949.137 0.942108 -1.46526 0
M  V30 10187 C 946.269 1.74804 -2.92671 0
M  V30 10188 H 947.462 -0.0587417 -2.99842 0
M  V30 10189 H 945.015 -0.068107 -1.56152 0
M  V30 10190 H 945.75 2.38524 -2.1972 0
M  V30 10191 H 945.535 1.39011 -3.66631 0
M  V30 10192 H 947.025 2.35592 -3.44799 0
M  V30 10193 N 947.462 1.57535 -0.0451378 0
M  V30 10194 C 948.739 1.83785 0.669523 0
M  V30 10195 C 949.119 0.932331 1.89396 0
M  V30 10196 O 948.467 -0.00813229 2.28499 0
M  V30 10197 C 948.677 3.33376 1.03255 0
M  V30 10198 C 950.025 4.00243 1.41741 0
M  V30 10199 O 951.049 3.37965 1.12507 0
M  V30 10200 O 949.908 5.10038 1.96275 0
M  V30 10201 H 947.002 0.758342 0.329919 0
M  V30 10202 H 949.548 1.69538 -0.0740415 0
M  V30 10203 H 948.32 3.90965 0.161777 0
M  V30 10204 H 947.943 3.52787 1.83376 0
M  V30 10205 N 948.94 -0.228186 1.55939 0
M  V30 10206 C 949.903 -1.26621 1.91049 0
M  V30 10207 C 950.903 -1.40141 0.788491 0
M  V30 10208 O 952.093 -1.3852 1.05631 0
M  V30 10209 C 949.225 -2.64108 2.15545 0
M  V30 10210 H 950.418 -0.966978 2.83883 0
M  V30 10211 H 947.971 -0.468313 1.49119 0
M  V30 10212 H 948.706 -2.99141 1.25241 0
M  V30 10213 H 948.491 -2.55673 2.97277 0
M  V30 10214 H 949.981 -3.39025 2.43827 0
M  V30 10215 N 950.418 -1.49637 -0.494624 0
M  V30 10216 C 951.829 -1.52573 -1.07603 0
M  V30 10217 C 952.18 -0.315591 -1.93645 0
M  V30 10218 O 951.305 0.573966 -2.08649 0
M  V30 10219 C 951.9 -2.7648 -1.95817 0
M  V30 10220 C 950.459 -2.82173 -2.49109 0
M  V30 10221 C 949.606 -2.4657 -1.2688 0
M  V30 10222 H 952.557 -1.56242 -0.278251 0
M  V30 10223 H 952.578 -2.57003 -2.80588 0
M  V30 10224 H 952.09 -3.64538 -1.33167 0
M  V30 10225 H 950.191 -1.9841 -3.15379 0
M  V30 10226 H 950.304 -3.84501 -2.85825 0
M  V30 10227 H 948.668 -1.98489 -1.59607 0
M  V30 10228 H 949.451 -3.3691 -0.659281 0
M  V30 10229 N 951.896 0.746133 -1.38819 0
M  V30 10230 C 953.307 1.32384 -1.31648 0
M  V30 10231 C 953.658 1.96185 0.0243086 0
M  V30 10232 O 952.783 1.95567 0.92641 0
M  V30 10233 C 953.378 2.40712 -2.38418 0
M  V30 10234 C 951.937 2.94185 -2.34803 0
M  V30 10235 C 951.084 1.67639 -2.20891 0
M  V30 10236 H 954.035 0.544457 -1.49068 0
M  V30 10237 H 954.056 3.20833 -2.04564 0
M  V30 10238 H 953.568 1.94247 -3.3599 0
M  V30 10239 H 951.669 3.44959 -1.40834 0
M  V30 10240 H 951.782 3.48057 -3.29231 0
M  V30 10241 H 950.146 1.9155 -1.67871 0
M  V30 10242 H 950.929 1.23242 -3.20416 0
M  V30 10243 N 953.375 1.23811 0.975125 0
M  V30 10244 C 954.307 0.981779 2.07108 0
M  V30 10245 C 955.32 -0.0461211 1.62735 0
M  V30 10246 O 956.509 0.190039 1.77486 0
M  V30 10247 C 953.609 0.458364 3.35786 0
M  V30 10248 C 952.782 1.54767 4.09104 0
M  V30 10249 C 951.841 1.0282 5.16057 0
M  V30 10250 O 950.867 1.71831 5.42644 0
M  V30 10251 N 952.069 -0.141243 5.80328 0
M  V30 10252 H 954.834 1.92537 2.29673 0
M  V30 10253 H 952.395 1.1474 1.14221 0
M  V30 10254 H 954.387 0.0957686 4.04587 0
M  V30 10255 H 952.957 -0.390768 3.10148 0
M  V30 10256 H 952.177 2.08279 3.34684 0
M  V30 10257 H 953.465 2.28006 4.54853 0
M  V30 10258 H 952.863 -0.718382 5.6112 0
M  V30 10259 H 951.42 -0.445052 6.50279 0
M  V30 10260 N 954.853 -1.17469 1.05066 0
M  V30 10261 C 956.13 -1.83625 0.673872 0
M  V30 10262 C 956.51 -1.93412 -0.845871 0
M  V30 10263 O 955.858 -1.4677 -1.75131 0
M  V30 10264 C 956.068 -3.21352 1.36139 0
M  V30 10265 C 957.416 -3.97274 1.49863 0
M  V30 10266 O 958.44 -3.30827 1.3203 0
M  V30 10267 O 957.299 -5.16349 1.79013 0
M  V30 10268 H 954.393 -0.792297 0.237055 0
M  V30 10269 H 956.939 -1.24776 1.15017 0
M  V30 10270 H 955.711 -3.0919 2.39827 0
M  V30 10271 H 955.334 -3.87867 0.874364 0
M  V30 10272 N 956.331 -0.831506 -1.3388 0
M  V30 10273 C 957.742 -0.481375 -1.80388 0
M  V30 10274 C 958.093 0.998993 -1.68863 0
M  V30 10275 O 957.218 1.77795 -1.2336 0
M  V30 10276 C 957.813 -0.86699 -3.27519 0
M  V30 10277 C 956.372 -0.569105 -3.72073 0
M  V30 10278 C 955.519 -1.07929 -2.55434 0
M  V30 10279 H 958.47 -1.02089 -1.21505 0
M  V30 10280 H 958.491 -0.174128 -3.80101 0
M  V30 10281 H 958.003 -1.94447 -3.35875 0
M  V30 10282 H 956.104 0.498607 -3.69249 0
M  V30 10283 H 956.217 -1.11918 -4.65845 0
M  V30 10284 H 954.581 -0.500465 -2.49735 0
M  V30 10285 H 955.364 -2.16339 -2.66556 0
M  V30 10286 N 957.809 1.4625 -0.587256 0
M  V30 10287 C 959.034 2.07252 -0.0784517 0
M  V30 10288 C 959.459 1.43239 1.21919 0
M  V30 10289 O 958.817 0.517791 1.73749 0
M  V30 10290 C 958.865 3.60534 0.0691037 0
M  V30 10291 O 957.969 3.96773 1.12448 0
M  V30 10292 H 957.31 0.660825 -0.064859 0
M  V30 10293 H 959.84 1.87819 -0.811491 0
M  V30 10294 H 959.85 4.0708 0.273826 0
M  V30 10295 H 958.525 4.06516 -0.878514 0
M  V30 10296 H 957.102 3.6193 0.897852 0
M  V30 10297 N 959.287 0.325282 1.54207 0
M  V30 10298 C 960.527 -0.277347 2.0251 0
M  V30 10299 C 960.891 -1.49211 1.20831 0
M  V30 10300 O 962.092 -2.16771 1.58945 0
M  V30 10301 C 960.363 -0.601517 3.52302 0
M  V30 10302 S 961.922 -1.18356 4.22537 0
M  V30 10303 H 958.74 -0.08378 0.706047 0
M  V30 10304 H 961.342 0.458804 1.9004 0
M  V30 10305 H 960.046 0.290696 4.09369 0
M  V30 10306 H 959.577 -1.36782 3.68855 0
M  V30 10307 H 961.592 -2.47029 4.30338 0
M  V30 10308 N 960.765 -1.57509 0.0534917 0
M  V30 10309 C 962.005 -1.94654 -0.623641 0
M  V30 10310 C 962.369 -0.93184 -1.67871 0
M  V30 10311 O 963.57 -1.19031 -2.41009 0
M  V30 10312 C 961.841 -3.36575 -1.20216 0
M  V30 10313 S 963.4 -3.95677 -1.89697 0
M  V30 10314 H 960.218 -0.680893 -0.20471 0
M  V30 10315 H 962.82 -1.95113 0.122982 0
M  V30 10316 H 961.524 -4.08223 -0.422177 0
M  V30 10317 H 961.055 -3.39617 -1.98555 0
M  V30 10318 H 963.07 -3.81092 -3.17779 0
M  V30 10319 N 962.243 0.219913 -1.56058 0
M  V30 10320 C 963.468 0.965073 -1.83579 0
M  V30 10321 C 963.893 1.77092 -0.634024 0
M  V30 10322 O 963.251 1.76434 0.417205 0
M  V30 10323 C 963.299 1.85705 -3.09105 0
M  V30 10324 O 962.403 2.95261 -2.87914 0
M  V30 10325 H 961.744 0.273173 -0.605204 0
M  V30 10326 H 964.274 0.23273 -2.03272 0
M  V30 10327 H 964.284 2.26655 -3.39252 0
M  V30 10328 H 962.959 1.26476 -3.96203 0
M  V30 10329 H 961.536 2.58246 -2.69005 0
M  V30 10330 N 963.721 1.49897 0.486681 0
M  V30 10331 C 964.969 1.59789 1.23742 0
M  V30 10332 C 965.29 0.293056 1.92785 0
M  V30 10333 O 964.56 -0.688534 1.83401 0
M  V30 10334 H 963.14 0.588775 0.459731 0
M  V30 10335 H 965.802 1.86597 0.562808 0
M  V30 10336 H 964.898 2.40121 1.9937 0
M  V30 10337 N 965.199 -0.738761 1.39212 0
M  V30 10338 C 966.162 -1.83441 1.37412 0
M  V30 10339 C 967.162 -1.58484 0.271908 0
M  V30 10340 O 968.352 -1.65954 0.529609 0
M  V30 10341 C 965.484 -3.21167 1.143 0
M  V30 10342 H 966.677 -1.86441 2.34904 0
M  V30 10343 H 964.23 -0.942023 1.24722 0
M  V30 10344 H 964.965 -3.23829 0.174756 0
M  V30 10345 H 964.75 -3.40678 1.94116 0
M  V30 10346 H 966.24 -4.01231 1.15773 0
M  V30 10347 N 966.677 -1.24326 -0.968545 0
M  V30 10348 C 967.607 -1.05951 -2.08079 0
M  V30 10349 C 968.588 0.0272666 -1.70078 0
M  V30 10350 O 969.773 -0.139644 -1.93697 0
M  V30 10351 C 966.903 -0.662623 -3.4092 0
M  V30 10352 C 965.857 -1.69807 -3.92873 0
M  V30 10353 C 965.183 -1.15628 -5.22048 0
M  V30 10354 C 966.483 -3.09383 -4.20808 0
M  V30 10355 H 968.177 -1.98984 -2.23709 0
M  V30 10356 H 965.723 -0.958112 -1.075 0
M  V30 10357 H 967.676 -0.521071 -4.18166 0
M  V30 10358 H 966.4 0.303399 -3.25188 0
M  V30 10359 H 965.059 -1.82783 -3.17783 0
M  V30 10360 H 964.707 -0.180888 -5.02675 0
M  V30 10361 H 964.407 -1.84822 -5.57776 0
M  V30 10362 H 965.931 -1.02683 -6.01904 0
M  V30 10363 H 967.345 -2.99642 -4.88761 0
M  V30 10364 H 965.742 -3.75923 -4.67763 0
M  V30 10365 H 966.812 -3.57486 -3.27616 0
M  V30 10366 N 968.156 1.1691 -1.05688 0
M  V30 10367 C 969.386 1.90927 -0.789339 0
M  V30 10368 C 969.794 1.77339 0.659369 0
M  V30 10369 O 969.137 1.11147 1.4626 0
M  V30 10370 C 969.199 3.42361 -1.09677 0
M  V30 10371 C 968.863 3.79733 -2.54267 0
M  V30 10372 C 969.86 3.82163 -3.52487 0
M  V30 10373 C 967.545 4.10547 -2.89406 0
M  V30 10374 C 969.539 4.14884 -4.8389 0
M  V30 10375 C 967.226 4.42936 -4.21011 0
M  V30 10376 C 968.224 4.45084 -5.18063 0
M  V30 10377 O 967.912 4.76707 -6.47307 0
M  V30 10378 H 967.644 0.612466 -0.286115 0
M  V30 10379 H 970.198 1.4916 -1.4121 0
M  V30 10380 H 968.428 3.84446 -0.416924 0
M  V30 10381 H 970.117 3.97645 -0.814456 0
M  V30 10382 H 970.883 3.58476 -3.26681 0
M  V30 10383 H 966.762 4.08044 -2.14525 0
M  V30 10384 H 970.306 4.16475 -5.59638 0
M  V30 10385 H 966.203 4.66088 -4.46579 0
M  V30 10386 H 966.971 4.94544 -6.52203 0
M  V30 10387 N 969.634 0.838594 1.33437 0
M  V30 10388 C 970.864 0.446995 2.01707 0
M  V30 10389 C 971.272 -0.956335 1.63251 0
M  V30 10390 O 970.615 -1.63289 0.841566 0
M  V30 10391 C 970.677 0.487707 3.56176 0
M  V30 10392 C 970.341 1.8471 4.18009 0
M  V30 10393 C 971.338 2.81028 4.374 0
M  V30 10394 C 969.023 2.13987 4.54439 0
M  V30 10395 C 971.017 4.04785 4.92369 0
M  V30 10396 C 968.704 3.38 5.09116 0
M  V30 10397 C 969.702 4.33216 5.28027 0
M  V30 10398 O 969.39 5.55036 5.81541 0
M  V30 10399 H 969.122 0.175799 0.652741 0
M  V30 10400 H 971.676 1.13265 1.71348 0
M  V30 10401 H 969.906 -0.254719 3.8586 0
M  V30 10402 H 971.595 0.113971 4.0574 0
M  V30 10403 H 972.361 2.5971 4.09604 0
M  V30 10404 H 968.24 1.40668 4.39014 0
M  V30 10405 H 971.784 4.79114 5.07046 0
M  V30 10406 H 967.681 3.59175 5.36343 0
M  V30 10407 H 968.449 5.56772 5.99956 0
M  V30 10408 N 971.112 -1.45937 0.595003 0
M  V30 10409 C 972.36 -2.01921 0.0851368 0
M  V30 10410 C 972.681 -1.46748 -1.28413 0
M  V30 10411 O 971.951 -0.656873 -1.84559 0
M  V30 10412 H 970.531 -0.746457 0.0284826 0
M  V30 10413 H 973.193 -1.78891 0.773561 0
M  V30 10414 H 972.289 -3.1209 0.0254002 0
M  V30 10415 N 972.59 -0.333456 -1.54032 0
M  V30 10416 C 973.815 0.270517 -2.05628 0
M  V30 10417 C 974.24 1.44231 -1.20744 0
M  V30 10418 O 973.598 1.79975 -0.218822 0
M  V30 10419 C 973.646 0.673251 -3.54259 0
M  V30 10420 O 972.75 1.77448 -3.72271 0
M  V30 10421 H 972.091 0.0469753 -0.662336 0
M  V30 10422 H 974.621 -0.484739 -1.98775 0
M  V30 10423 H 974.631 0.953194 -3.96709 0
M  V30 10424 H 973.306 -0.183747 -4.15494 0
M  V30 10425 H 971.883 1.49259 -3.41725 0
M  V30 10426 N 974.068 1.57479 -0.061844 0
M  V30 10427 C 975.015 2.12152 0.908862 0
M  V30 10428 C 975.985 1.03152 1.30188 0
M  V30 10429 O 977.17 1.3076 1.38948 0
M  V30 10430 C 974.31 2.6796 2.17465 0
M  V30 10431 C 973.423 3.91083 1.83517 0
M  V30 10432 C 972.558 4.35169 3.04633 0
M  V30 10433 C 971.597 5.50964 2.66655 0
M  V30 10434 N 970.734 5.90055 3.80499 0
M  V30 10435 H 975.574 2.94797 0.435743 0
M  V30 10436 H 973.111 1.45686 0.203445 0
M  V30 10437 H 975.069 2.98421 2.91548 0
M  V30 10438 H 973.699 1.88096 2.62335 0
M  V30 10439 H 972.751 3.67146 0.995381 0
M  V30 10440 H 974.063 4.75214 1.51569 0
M  V30 10441 H 973.217 4.67239 3.87005 0
M  V30 10442 H 971.956 3.49871 3.39767 0
M  V30 10443 H 970.961 5.18556 1.82703 0
M  V30 10444 H 972.186 6.37986 2.32702 0
M  V30 10445 H 970.132 5.07708 4.15414 0
M  V30 10446 H 970.049 6.68903 3.52285 0
M  V30 10447 H 971.317 6.26744 4.63479 0
M  V30 10448 N 975.546 -0.211634 1.56173 0
M  V30 10449 C 976.792 -0.935935 1.79911 0
M  V30 10450 C 977.125 -1.83589 0.633155 0
M  V30 10451 O 976.4 -1.91004 -0.367132 0
M  V30 10452 C 976.683 -1.76638 3.13801 0
M  V30 10453 C 976.536 -0.892259 4.40861 0
M  V30 10454 C 977.855 -2.74224 3.44223 0
M  V30 10455 H 974.974 -0.338822 0.654499 0
M  V30 10456 H 977.616 -0.20422 1.88899 0
M  V30 10457 H 975.766 -2.39021 3.0627 0
M  V30 10458 H 977.438 -0.284407 4.60422 0
M  V30 10459 H 975.681 -0.198145 4.33347 0
M  V30 10460 H 976.352 -1.50793 5.31004 0
M  V30 10461 H 978.828 -2.21975 3.51946 0
M  V30 10462 H 977.704 -3.29424 4.39057 0
M  V30 10463 H 977.965 -3.52455 2.66885 0
M  V30 10464 N 977.024 -1.50153 -0.478725 0
M  V30 10465 C 978.27 -1.60998 -1.23318 0
M  V30 10466 C 978.603 -0.305868 -1.91776 0
M  V30 10467 O 977.878 0.692158 -1.81767 0
M  V30 10468 C 978.161 -2.78495 -2.28282 0
M  V30 10469 C 978.014 -4.18767 -1.64178 0
M  V30 10470 C 979.333 -2.91569 -3.2966 0
M  V30 10471 H 976.452 -0.585983 -0.446982 0
M  V30 10472 H 979.094 -1.82514 -0.528063 0
M  V30 10473 H 977.244 -2.60281 -2.8842 0
M  V30 10474 H 978.916 -4.48552 -1.07696 0
M  V30 10475 H 977.159 -4.23379 -0.94514 0
M  V30 10476 H 977.83 -4.96894 -2.40417 0
M  V30 10477 H 980.306 -3.08219 -2.79536 0
M  V30 10478 H 979.182 -3.75419 -4.0044 0
M  V30 10479 H 979.443 -2.01859 -3.93326 0
M  V30 10480 N 978.502 0.731368 -1.39602 0
M  V30 10481 C 979.913 1.30981 -1.33045 0
M  V30 10482 C 980.264 1.962 0.00349918 0
M  V30 10483 O 979.389 1.96539 0.905615 0
M  V30 10484 C 979.984 2.3817 -2.40958 0
M  V30 10485 C 978.543 2.91678 -2.3791 0
M  V30 10486 C 977.69 1.65286 -2.22656 0
M  V30 10487 H 980.641 0.528615 -1.49637 0
M  V30 10488 H 980.662 3.18645 -2.07955 0
M  V30 10489 H 980.174 1.90673 -3.38032 0
M  V30 10490 H 978.275 3.43446 -1.44485 0
M  V30 10491 H 978.388 3.44545 -3.32904 0
M  V30 10492 H 976.752 1.89759 -1.69893 0
M  V30 10493 H 977.535 1.19836 -3.21705 0
M  V30 10494 N 979.98 1.24838 0.961938 0
M  V30 10495 C 981.257 0.99939 1.68141 0
M  V30 10496 C 981.637 -0.476588 2.0565 0
M  V30 10497 O 980.985 -1.45224 1.76415 0
M  V30 10498 C 981.195 1.92797 2.90913 0
M  V30 10499 C 982.543 2.20219 3.63027 0
M  V30 10500 O 983.567 1.90496 3.00981 0
M  V30 10501 O 982.426 2.70725 4.74731 0
M  V30 10502 H 979.52 0.37842 0.735342 0
M  V30 10503 H 982.066 1.35961 1.01551 0
M  V30 10504 H 980.838 2.92492 2.59931 0
M  V30 10505 H 980.461 1.57127 3.65235 0
M  V30 10506 N 981.458 -1.16348 1.06306 0
M  V30 10507 C 982.683 -1.91323 0.800636 0
M  V30 10508 C 983.108 -1.7691 -0.639105 0
M  V30 10509 O 982.466 -1.0945 -1.44535 0
M  V30 10510 C 982.514 -3.40038 1.20027 0
M  V30 10511 O 981.618 -4.11003 0.339142 0
M  V30 10512 H 980.959 -0.596057 0.292595 0
M  V30 10513 H 983.489 -1.47406 1.41889 0
M  V30 10514 H 983.499 -3.90808 1.17188 0
M  V30 10515 H 982.174 -3.49848 2.24898 0
M  V30 10516 H 980.751 -3.70423 0.42911 0
M  V30 10517 N 982.937 -0.845659 -1.3299 0
M  V30 10518 C 984.165 -0.45835 -2.01759 0
M  V30 10519 C 984.58 0.94239 -1.63598 0
M  V30 10520 O 983.937 1.61353 -0.852738 0
M  V30 10521 C 983.988 -0.577311 -3.5686 0
M  V30 10522 O 983.709 -1.92287 -3.93646 0
M  V30 10523 C 985.21 -0.187839 -4.42902 0
M  V30 10524 H 982.43 -0.181165 -0.646081 0
M  V30 10525 H 984.974 -1.14011 -1.6977 0
M  V30 10526 H 983.129 0.0566146 -3.87359 0
M  V30 10527 H 983.543 -1.91322 -4.88361 0
M  V30 10528 H 985.017 -0.322105 -5.51059 0
M  V30 10529 H 985.494 0.870896 -4.30479 0
M  V30 10530 H 986.1 -0.796473 -4.17776 0
M  V30 10531 N 984.415 1.45619 -0.602734 0
M  V30 10532 C 985.826 1.85814 -0.181636 0
M  V30 10533 C 986.177 1.5037 1.26029 0
M  V30 10534 O 985.302 0.928068 1.95489 0
M  V30 10535 C 985.897 3.37258 -0.322866 0
M  V30 10536 C 984.456 3.76375 0.043504 0
M  V30 10537 C 983.603 2.69585 -0.649561 0
M  V30 10538 H 986.554 1.36489 -0.809721 0
M  V30 10539 H 986.575 3.77874 0.446279 0
M  V30 10540 H 986.087 3.63024 -1.37241 0
M  V30 10541 H 984.188 3.56226 1.09241 0
M  V30 10542 H 984.301 4.77843 -0.346765 0
M  V30 10543 H 982.665 2.54549 -0.087706 0
M  V30 10544 H 983.448 2.98188 -1.70115 0
M  V30 10545 N 985.893 0.34162 1.53853 0
M  V30 10546 C 987.118 -0.259608 2.05769 0
M  V30 10547 C 987.543 -1.43588 1.21507 0
M  V30 10548 O 986.901 -1.79856 0.228364 0
M  V30 10549 C 986.949 -0.654455 3.54611 0
M  V30 10550 O 986.053 -1.75472 3.73207 0
M  V30 10551 H 985.394 -0.0434621 0.662576 0
M  V30 10552 H 987.924 0.495274 1.98515 0
M  V30 10553 H 987.934 -0.932142 3.97209 0
M  V30 10554 H 986.609 0.205779 4.15391 0
M  V30 10555 H 985.186 -1.47444 3.42512 0
M  V30 10556 N 987.371 -1.57444 0.0701946 0
M  V30 10557 C 988.617 -1.94528 -0.594177 0
M  V30 10558 C 988.972 -0.949898 -1.67316 0
M  V30 10559 O 988.265 0.0280668 -1.91579 0
M  V30 10560 C 988.459 -3.36044 -1.21694 0
M  V30 10561 C 988.288 -4.49256 -0.199806 0
M  V30 10562 C 987.058 -5.04843 0.214963 0
M  V30 10563 C 989.256 -5.11217 0.562312 0
M  V30 10564 N 987.238 -6.01595 1.22297 0
M  V30 10565 C 988.609 -6.03453 1.42284 0
M  V30 10566 C 990.664 -4.94043 0.618555 0
M  V30 10567 C 989.367 -6.80359 2.33461 0
M  V30 10568 C 991.393 -5.71591 1.51783 0
M  V30 10569 C 990.755 -6.63474 2.36604 0
M  V30 10570 H 986.854 -0.758941 -0.1885 0
M  V30 10571 H 989.438 -1.94145 0.146965 0
M  V30 10572 H 987.609 -3.37168 -1.92801 0
M  V30 10573 H 989.341 -3.60368 -1.84165 0
M  V30 10574 H 986.096 -4.73303 -0.167835 0
M  V30 10575 H 986.52 -6.5467 1.72443 0
M  V30 10576 H 991.162 -4.22794 -0.0230235 0
M  V30 10577 H 988.88 -7.50886 2.98656 0
M  V30 10578 H 992.466 -5.60324 1.56616 0
M  V30 10579 H 991.346 -7.22432 3.0506 0
M  V30 10580 N 988.849 0.203349 -1.56283 0
M  V30 10581 C 989.812 1.23566 -1.93039 0
M  V30 10582 C 990.812 1.38869 -0.810687 0
M  V30 10583 O 992.002 1.36822 -1.07821 0
M  V30 10584 C 989.134 2.60645 -2.1972 0
M  V30 10585 H 990.327 0.921692 -2.85385 0
M  V30 10586 H 987.88 0.44453 -1.49845 0
M  V30 10587 H 988.615 2.9711 -1.29985 0
M  V30 10588 H 988.4 2.50911 -3.01307 0
M  V30 10589 H 989.89 3.35103 -2.4919 0
M  V30 10590 N 990.327 1.50405 0.470755 0
M  V30 10591 C 991.275 1.6982 1.58946 0
M  V30 10592 C 992.269 0.56407 1.59733 0
M  V30 10593 O 993.475 0.744576 1.63878 0
M  V30 10594 H 989.85 0.536016 0.527438 0
M  V30 10595 H 991.821 2.63662 1.39732 0
M  V30 10596 C 990.57 1.80986 2.96883 0
M  V30 10597 H 989.893 2.67645 2.96996 0
M  V30 10598 H 991.333 1.98596 3.74614 0
M  V30 10599 C 989.792 0.561551 3.32187 0
M  V30 10600 O 990.322 -0.299136 4.00585 0
M  V30 10601 N 988.528 0.415476 2.87615 0
M  V30 10602 H 988.075 1.11691 2.32127 0
M  V30 10603 H 988.033 -0.418592 3.11601 0
M  V30 10604 N 991.805 -0.723954 1.39988 0
M  V30 10605 C 993.216 -1.30273 1.33738 0
M  V30 10606 C 993.567 -1.96199 0.00690581 0
M  V30 10607 O 992.692 -1.97016 -0.895179 0
M  V30 10608 C 993.287 -2.36889 2.42217 0
M  V30 10609 C 991.846 -2.90412 2.39453 0
M  V30 10610 C 990.993 -1.64103 2.2353 0
M  V30 10611 H 993.944 -0.520672 1.49916 0
M  V30 10612 H 993.965 -3.17538 2.09642 0
M  V30 10613 H 993.477 -1.88878 3.39038 0
M  V30 10614 H 991.578 -3.42674 1.46304 0
M  V30 10615 H 991.691 -3.42775 3.34727 0
M  V30 10616 H 990.055 -1.88855 1.70897 0
M  V30 10617 H 990.838 -1.18128 3.22336 0
M  V30 10618 N 993.283 -1.25346 -0.955304 0
M  V30 10619 C 994.508 -1.12892 -1.73983 0
M  V30 10620 C 994.933 0.313455 -1.8547 0
M  V30 10621 O 994.291 1.22706 -1.33465 0
M  V30 10622 C 994.339 -1.78729 -3.1319 0
M  V30 10623 O 993.443 -1.06648 -3.98372 0
M  V30 10624 H 992.784 -0.394178 -0.534341 0
M  V30 10625 H 995.314 -1.65897 -1.19747 0
M  V30 10626 H 995.324 -1.84987 -3.63653 0
M  V30 10627 H 993.999 -2.83669 -3.04146 0
M  V30 10628 H 992.576 -1.08266 -3.56837 0
M  V30 10629 N 994.761 1.15782 -1.06922 0
M  V30 10630 C 996.172 1.68062 -0.813144 0
M  V30 10631 C 996.523 1.84681 0.662374 0
M  V30 10632 O 995.648 1.54696 1.51321 0
M  V30 10633 C 996.243 3.05273 -1.46949 0
M  V30 10634 C 994.802 3.54647 -1.26104 0
M  V30 10635 C 993.949 2.30477 -1.54194 0
M  V30 10636 H 996.9 1.00056 -1.23185 0
M  V30 10637 H 996.921 3.69986 -0.888308 0
M  V30 10638 H 996.433 2.93145 -2.54337 0
M  V30 10639 H 994.534 3.72024 -0.20718 0
M  V30 10640 H 994.647 4.36354 -1.97819 0
M  V30 10641 H 993.011 2.35803 -0.96276 0
M  V30 10642 H 993.794 2.2094 -2.62755 0
M  V30 10643 N 996.239 0.8527 1.3254 0
M  V30 10644 C 997.467 0.469044 2.01513 0
M  V30 10645 C 997.882 -0.933701 1.64096 0
M  V30 10646 O 997.239 -1.60898 0.861283 0
M  V30 10647 C 997.29 0.596228 3.56549 0
M  V30 10648 O 997.011 1.94371 3.92621 0
M  V30 10649 C 998.512 0.211324 4.42796 0
M  V30 10650 H 995.732 0.184589 0.645111 0
M  V30 10651 H 998.276 1.1491 1.69163 0
M  V30 10652 H 996.431 -0.0360712 3.87383 0
M  V30 10653 H 996.845 1.93909 4.87339 0
M  V30 10654 H 998.319 0.351324 5.50881 0
M  V30 10655 H 998.796 -0.848055 4.30935 0
M  V30 10656 H 999.402 0.818617 4.17347 0
M  V30 10657 N 997.718 -1.45297 0.610449 0
M  V30 10658 C 999.129 -1.85715 0.191488 0
M  V30 10659 C 999.48 -1.51036 -1.25229 0
M  V30 10660 O 998.605 -0.938422 -1.94994 0
M  V30 10661 C 999.2 -3.37082 0.340747 0
M  V30 10662 C 997.759 -3.76393 -0.0235433 0
M  V30 10663 C 996.906 -2.69237 0.663849 0
M  V30 10664 H 999.857 -1.36058 0.816948 0
M  V30 10665 H 999.878 -3.78105 -0.426233 0
M  V30 10666 H 999.39 -3.62291 1.39164 0
M  V30 10667 H 997.491 -3.56801 -1.07351 0
M  V30 10668 H 997.604 -4.77653 0.372102 0
M  V30 10669 H 995.968 -2.54499 0.101204 0
M  V30 10670 H 996.751 -2.97281 1.71694 0
M  V30 10671 N 999.196 -0.349774 -1.5367 0
M  V30 10672 C 1000.44 0.245189 -2.01312 0
M  V30 10673 C 1000.77 1.49702 -1.23705 0
M  V30 10674 O 1000.05 1.91742 -0.326371 0
M  V30 10675 C 1000.33 0.553071 -3.55827 0
M  V30 10676 C 1000.19 -0.71129 -4.4414 0
M  V30 10677 C 1001.5 1.36015 -4.18555 0
M  V30 10678 H 998.624 0.0876415 -0.73177 0
M  V30 10679 H 1001.27 -0.471543 -1.84056 0
M  V30 10680 H 999.416 1.16367 -3.70663 0
M  V30 10681 H 1001.09 -1.34913 -4.41131 0
M  V30 10682 H 999.331 -1.33491 -4.1275 0
M  V30 10683 H 1000 -0.45104 -5.50154 0
M  V30 10684 H 1002.48 0.843778 -4.07455 0
M  V30 10685 H 1001.35 1.54432 -5.26728 0
M  V30 10686 H 1001.61 2.36408 -3.73582 0
M  V30 10687 N 1000.67 1.57404 -0.0785433 0
M  V30 10688 C 1001.92 1.9292 0.588626 0
M  V30 10689 C 1002.24 0.961106 1.70359 0
M  V30 10690 O 1003.44 1.20934 2.43079 0
M  V30 10691 C 1001.9 3.42729 1.09839 0
M  V30 10692 C 1001.51 4.47998 0.0140773 0
M  V30 10693 C 1003.25 3.87235 1.73924 0
M  V30 10694 C 1001.16 5.88945 0.538269 0
M  V30 10695 H 1000.09 0.720069 0.223645 0
M  V30 10696 H 1002.74 1.8287 -0.15187 0
M  V30 10697 H 1001.12 3.47875 1.89207 0
M  V30 10698 H 1002.29 4.54476 -0.760773 0
M  V30 10699 H 1000.61 4.13001 -0.53095 0
M  V30 10700 H 1003.21 4.89927 2.14186 0
M  V30 10701 H 1003.55 3.24971 2.60191 0
M  V30 10702 H 1004.08 3.84721 1.01168 0
M  V30 10703 H 1000.82 6.5487 -0.287395 0
M  V30 10704 H 1000.34 5.85972 1.28049 0
M  V30 10705 H 1002.02 6.39028 1.01253 0
M  V30 10706 N 1002.15 -0.195058 1.56388 0
M  V30 10707 C 1003.38 -0.935745 1.85091 0
M  V30 10708 C 1003.8 -1.76061 0.662118 0
M  V30 10709 O 1003.16 -1.77076 -0.389083 0
M  V30 10710 C 1003.21 -1.80764 3.1202 0
M  V30 10711 O 1002.31 -2.90643 2.92575 0
M  V30 10712 H 1001.65 -0.26351 0.609474 0
M  V30 10713 H 1004.18 -0.200362 2.03617 0
M  V30 10714 H 1004.19 -2.21229 3.42815 0
M  V30 10715 H 1002.87 -1.20157 3.98165 0
M  V30 10716 H 1001.44 -2.53934 2.73079 0
M  V30 10717 N 1003.63 -1.50653 -0.462772 0
M  V30 10718 C 1004.56 -1.64773 -1.57877 0
M  V30 10719 C 1005.54 -0.495664 -1.54861 0
M  V30 10720 O 1006.72 -0.716248 -1.74362 0
M  V30 10721 C 1003.85 -1.63796 -2.9646 0
M  V30 10722 C 1002.9 -2.84663 -3.17599 0
M  V30 10723 S 1003.73 -4.45852 -2.96608 0
M  V30 10724 C 1004.89 -4.47581 -4.37518 0
M  V30 10725 H 1005.12 -2.59172 -1.45661 0
M  V30 10726 H 1002.65 -1.40019 -0.650699 0
M  V30 10727 H 1004.61 -1.63918 -3.76353 0
M  V30 10728 H 1003.27 -0.706185 -3.06059 0
M  V30 10729 H 1002.46 -2.80308 -4.1886 0
M  V30 10730 H 1002.07 -2.82152 -2.45492 0
M  V30 10731 H 1004.36 -4.21656 -5.30295 0
M  V30 10732 H 1005.3 -5.49248 -4.46914 0
M  V30 10733 H 1005.71 -3.7719 -4.19985 0
M  V30 10734 N 1005.11 0.71652 -1.4037 0
M  V30 10735 C 1006.04 1.84345 -1.43315 0
M  V30 10736 C 1007.02 1.67537 -0.294186 0
M  V30 10737 O 1008.2 1.87582 -0.502671 0
M  V30 10738 C 1005.33 3.2229 -1.29408 0
M  V30 10739 C 1004.29 3.53769 -2.40897 0
M  V30 10740 C 1003.61 4.90847 -2.12068 0
M  V30 10741 C 1004.91 3.54862 -3.83237 0
M  V30 10742 H 1006.61 1.82138 -2.37626 0
M  V30 10743 H 1004.15 0.874873 -1.14376 0
M  V30 10744 H 1006.11 4.00819 -1.30085 0
M  V30 10745 H 1004.83 3.2507 -0.31573 0
M  V30 10746 H 1003.49 2.77579 -2.39469 0
M  V30 10747 H 1003.14 4.90229 -1.12626 0
M  V30 10748 H 1002.84 5.12875 -2.86762 0
M  V30 10749 H 1004.36 5.71711 -2.14426 0
M  V30 10750 H 1005.78 4.23432 -3.86494 0
M  V30 10751 H 1004.17 3.88416 -4.57442 0
M  V30 10752 H 1005.24 2.54266 -4.12888 0
M  V30 10753 N 1006.59 1.25851 0.948643 0
M  V30 10754 C 1007.55 1.0683 2.0278 0
M  V30 10755 C 1008.55 0.0191016 1.60789 0
M  V30 10756 O 1009.74 0.261836 1.72221 0
M  V30 10757 C 1006.87 0.623318 3.35153 0
M  V30 10758 H 1008.06 2.02635 2.21086 0
M  V30 10759 H 1005.62 1.08343 1.12657 0
M  V30 10760 H 1006.35 -0.337053 3.22544 0
M  V30 10761 H 1006.14 1.38082 3.66982 0
M  V30 10762 H 1007.63 0.511854 4.14451 0
M  V30 10763 N 1008.06 -1.15214 1.07534 0
M  V30 10764 C 1009 -2.19634 0.655261 0
M  V30 10765 C 1010.01 -1.60139 -0.293165 0
M  V30 10766 O 1011.2 -1.78311 -0.0821957 0
M  V30 10767 C 1008.3 -3.38851 -0.0578281 0
M  V30 10768 C 1007.47 -4.27888 0.90725 0
M  V30 10769 C 1006.53 -5.25692 0.231115 0
M  V30 10770 O 1005.56 -5.62469 0.872746 0
M  V30 10771 N 1006.76 -5.71424 -1.0225 0
M  V30 10772 H 1009.52 -2.56292 1.55353 0
M  V30 10773 H 1007.08 -1.30347 0.960271 0
M  V30 10774 H 1009.08 -4.01334 -0.520874 0
M  V30 10775 H 1007.65 -3.00593 -0.858071 0
M  V30 10776 H 1006.87 -3.62475 1.54937 0
M  V30 10777 H 1008.15 -4.84246 1.56151 0
M  V30 10778 H 1007.55 -5.43659 -1.56369 0
M  V30 10779 H 1006.11 -6.35938 -1.42919 0
M  V30 10780 N 1009.54 -0.859717 -1.32086 0
M  V30 10781 C 1010.79 -0.464662 -1.96686 0
M  V30 10782 C 1011.11 0.98412 -1.68345 0
M  V30 10783 O 1010.38 1.68847 -0.993361 0
M  V30 10784 H 1008.96 -0.168838 -0.727669 0
M  V30 10785 H 1011.62 -1.09726 -1.61079 0
M  V30 10786 H 1010.72 -0.613904 -3.06003 0
M  V30 10787 N 1011.02 1.44971 -0.618145 0
M  V30 10788 C 1012.25 2.07039 -0.122395 0
M  V30 10789 C 1012.67 1.45793 1.18853 0
M  V30 10790 O 1012.03 0.55453 1.72611 0
M  V30 10791 C 1012.08 3.60599 -0.0073864 0
M  V30 10792 O 1011.18 3.99069 1.04007 0
M  V30 10793 H 1010.52 0.6593 -0.0788615 0
M  V30 10794 H 1013.05 1.86055 -0.851147 0
M  V30 10795 H 1013.06 4.07569 0.187417 0
M  V30 10796 H 1011.74 4.04561 -0.964544 0
M  V30 10797 H 1010.31 3.63753 0.820879 0
M  V30 10798 N 1012.5 0.357919 1.53482 0
M  V30 10799 C 1013.43 -0.526753 2.23065 0
M  V30 10800 C 1014.44 -1.05239 1.24212 0
M  V30 10801 O 1015.63 -0.960078 1.50482 0
M  V30 10802 C 1012.73 -1.73919 2.9087 0
M  V30 10803 C 1011.91 -1.34638 4.16163 0
M  V30 10804 C 1010.96 -2.42005 4.67247 0
M  V30 10805 O 1009.99 -2.04714 5.31113 0
M  V30 10806 N 1011.19 -3.73478 4.44404 0
M  V30 10807 H 1013.96 0.0692386 2.9962 0
M  V30 10808 H 1011.52 0.182726 1.60866 0
M  V30 10809 H 1013.51 -2.45207 3.21956 0
M  V30 10810 H 1012.08 -2.24223 2.17814 0
M  V30 10811 H 1011.3 -0.463667 3.91464 0
M  V30 10812 H 1012.59 -1.06012 4.97633 0
M  V30 10813 H 1011.99 -4.06555 3.93357 0
M  V30 10814 H 1010.54 -4.40893 4.80059 0
M  V30 10815 N 1013.98 -1.5736 0.0868897 0
M  V30 10816 C 1015.22 -1.94341 -0.579598 0
M  V30 10817 C 1015.56 -0.968238 -1.68341 0
M  V30 10818 O 1014.83 8.29649e-05 -1.945 0
M  V30 10819 C 1015.11 -3.41497 -1.14245 0
M  V30 10820 C 1014.97 -4.49778 -0.044255 0
M  V30 10821 C 1016.29 -3.89788 -2.04336 0
M  V30 10822 H 1013.4 -0.70668 -0.20922 0
M  V30 10823 H 1016.05 -1.89359 0.15593 0
M  V30 10824 H 1014.2 -3.45873 -1.76929 0
M  V30 10825 H 1015.87 -4.57517 0.58959 0
M  V30 10826 H 1014.11 -4.293 0.623207 0
M  V30 10827 H 1014.78 -5.4992 -0.478749 0
M  V30 10828 H 1017.26 -3.87513 -1.51569 0
M  V30 10829 H 1016.13 -4.93335 -2.40648 0
M  V30 10830 H 1016.4 -3.28603 -2.95757 0
M  V30 10831 N 1015.45 0.186762 -1.56489 0
M  V30 10832 C 1016.38 1.23395 -1.98232 0
M  V30 10833 C 1017.37 1.4702 -0.855526 0
M  V30 10834 O 1018.55 1.58616 -1.12048 0
M  V30 10835 C 1015.68 2.57635 -2.32898 0
M  V30 10836 C 1014.63 2.48607 -3.48394 0
M  V30 10837 C 1013.96 3.87196 -3.68759 0
M  V30 10838 C 1015.26 2.00398 -4.82325 0
M  V30 10839 H 1016.95 0.887026 -2.85958 0
M  V30 10840 H 1014.5 0.42525 -1.37578 0
M  V30 10841 H 1016.45 3.31082 -2.60696 0
M  V30 10842 H 1015.18 2.94084 -1.42064 0
M  V30 10843 H 1013.84 1.77615 -3.207 0
M  V30 10844 H 1013.48 4.21012 -2.75241 0
M  V30 10845 H 1013.18 3.82029 -4.46462 0
M  V30 10846 H 1014.71 4.62253 -3.98941 0
M  V30 10847 H 1016.12 2.6361 -5.091 0
M  V30 10848 H 1014.52 2.06214 -5.63556 0
M  V30 10849 H 1015.59 0.957562 -4.75351 0
M  V30 10850 N 1016.93 1.50896 0.454776 0
M  V30 10851 C 1017.84 1.73762 1.5762 0
M  V30 10852 C 1018.86 0.621206 1.62533 0
M  V30 10853 O 1020.03 0.901449 1.801 0
M  V30 10854 C 1017.1 1.84183 2.9373 0
M  V30 10855 C 1016.16 3.07982 2.99075 0
M  V30 10856 C 1015.39 3.17896 4.28693 0
M  V30 10857 O 1015.62 2.34184 5.20109 0
M  V30 10858 O 1014.55 4.10749 4.39964 0
M  V30 10859 H 1018.38 2.68856 1.41245 0
M  V30 10860 H 1015.96 1.35187 0.635984 0
M  V30 10861 H 1017.84 1.93123 3.74542 0
M  V30 10862 H 1016.52 0.922742 3.10269 0
M  V30 10863 H 1015.43 3.04531 2.17282 0
M  V30 10864 H 1016.76 3.99523 2.87476 0
M  V30 10865 N 1018.41 -0.709066 1.40748 0
M  V30 10866 C 1019.64 -1.50313 1.42901 0
M  V30 10867 C 1020.06 -1.88072 0.032213 0
M  V30 10868 O 1019.42 -1.53716 -0.96131 0
M  V30 10869 C 1019.47 -2.75074 2.33166 0
M  V30 10870 O 1018.57 -3.72036 1.7794 0
M  V30 10871 H 1017.91 -0.452934 0.485538 0
M  V30 10872 H 1020.44 -0.872712 1.85054 0
M  V30 10873 H 1020.45 -3.23532 2.48578 0
M  V30 10874 H 1019.13 -2.46927 3.34664 0
M  V30 10875 H 1017.7 -3.30911 1.71908 0
M  V30 10876 N 1019.89 -1.26353 -0.941956 0
M  V30 10877 C 1021.12 -1.14626 -1.72245 0
M  V30 10878 C 1021.53 0.298588 -1.86424 0
M  V30 10879 O 1020.89 1.2045 -1.37106 0
M  V30 10880 C 1020.94 -1.80933 -3.12963 0
M  V30 10881 O 1020.66 -3.19771 -2.99463 0
M  V30 10882 C 1022.16 -1.7515 -4.07231 0
M  V30 10883 H 1019.38 -0.3992 -0.539333 0
M  V30 10884 H 1021.93 -1.66958 -1.1809 0
M  V30 10885 H 1020.08 -1.32541 -3.64021 0
M  V30 10886 H 1020.5 -3.52571 -3.88322 0
M  V30 10887 H 1021.97 -2.26183 -5.03533 0
M  V30 10888 H 1022.45 -0.717855 -4.33294 0
M  V30 10889 H 1023.05 -2.2309 -3.62093 0
M  V30 10890 N 1021.37 1.14642 -1.08144 0
M  V30 10891 C 1022.78 1.6719 -0.830923 0
M  V30 10892 C 1023.13 1.85373 0.642749 0
M  V30 10893 O 1022.25 1.56293 1.49671 0
M  V30 10894 C 1022.85 3.03697 -1.50179 0
M  V30 10895 C 1021.41 3.5329 -1.29858 0
M  V30 10896 C 1020.56 2.28828 -1.5663 0
M  V30 10897 H 1023.51 0.987441 -1.24239 0
M  V30 10898 H 1023.53 3.69023 -0.9275 0
M  V30 10899 H 1023.04 2.90431 -2.57432 0
M  V30 10900 H 1021.14 3.71783 -0.246626 0
M  V30 10901 H 1021.25 4.34231 -2.02436 0
M  V30 10902 H 1019.62 2.34769 -0.987716 0
M  V30 10903 H 1020.4 2.18141 -2.65084 0
M  V30 10904 N 1022.85 0.866709 1.31628 0
M  V30 10905 C 1024.26 0.529032 1.79048 0
M  V30 10906 C 1024.61 -0.953871 1.71452 0
M  V30 10907 O 1023.73 -1.74462 1.28031 0
M  V30 10908 C 1024.33 0.953522 3.25105 0
M  V30 10909 C 1022.89 0.667554 3.70433 0
M  V30 10910 C 1022.03 1.14664 2.52483 0
M  V30 10911 H 1024.98 1.05275 1.18756 0
M  V30 10912 H 1025.01 0.274844 3.79506 0
M  V30 10913 H 1024.52 2.03283 3.30602 0
M  V30 10914 H 1022.62 -0.400532 3.70441 0
M  V30 10915 H 1022.73 1.2423 4.62714 0
M  V30 10916 H 1021.1 0.566502 2.4832 0
M  V30 10917 H 1021.88 2.2333 2.60727 0
M  V30 10918 N 1024.32 -1.44642 0.625825 0
M  V30 10919 C 1025.73 -1.85502 0.211175 0
M  V30 10920 C 1026.09 -1.52356 -1.2362 0
M  V30 10921 O 1025.21 -0.959051 -1.93988 0
M  V30 10922 C 1025.81 -3.36702 0.37648 0
M  V30 10923 C 1024.36 -3.76396 0.0163795 0
M  V30 10924 C 1023.51 -2.68517 0.692368 0
M  V30 10925 H 1026.46 -1.35183 0.831333 0
M  V30 10926 H 1026.48 -3.78536 -0.386106 0
M  V30 10927 H 1026 -3.60795 1.42999 0
M  V30 10928 H 1024.1 -3.57919 -1.0356 0
M  V30 10929 H 1024.21 -4.77231 0.422742 0
M  V30 10930 H 1022.57 -2.54377 0.128191 0
M  V30 10931 H 1023.36 -2.95444 1.74837 0
M  V30 10932 N 1025.8 -0.366053 -1.5329 0
M  V30 10933 C 1026.75 0.496656 -2.22525 0
M  V30 10934 C 1027.74 1.0483 -1.22063 0
M  V30 10935 O 1028.93 0.978266 -1.47509 0
M  V30 10936 C 1026.06 1.63559 -3.01833 0
M  V30 10937 C 1025.14 1.0968 -4.09672 0
M  V30 10938 N 1025.53 0.28104 -5.05019 0
M  V30 10939 C 1023.83 1.37157 -4.24387 0
M  V30 10940 C 1024.53 -0.0140071 -5.81698 0
M  V30 10941 N 1023.51 0.583743 -5.40457 0
M  V30 10942 H 1027.31 -0.133408 -2.93597 0
M  V30 10943 H 1024.82 -0.174095 -1.61464 0
M  V30 10944 H 1026.82 2.26582 -3.49952 0
M  V30 10945 H 1025.48 2.26871 -2.32292 0
M  V30 10946 H 1026.49 -0.0797947 -5.17839 0
M  V30 10947 H 1023.17 2.00743 -3.66072 0
M  V30 10948 H 1024.56 -0.673508 -6.68516 0
M  V30 10949 N 1027.28 1.57312 -0.0952337 0
M  V30 10950 C 1028.53 1.94646 0.569284 0
M  V30 10951 C 1028.86 0.977152 1.67825 0
M  V30 10952 O 1028.13 0.0102318 1.94497 0
M  V30 10953 C 1028.42 3.42098 1.12433 0
M  V30 10954 C 1028.27 4.49795 0.0204016 0
M  V30 10955 C 1029.59 3.90866 2.02266 0
M  V30 10956 H 1026.71 0.707779 0.205469 0
M  V30 10957 H 1029.35 1.89274 -0.16597 0
M  V30 10958 H 1027.5 3.46807 1.75092 0
M  V30 10959 H 1029.17 4.57198 -0.613845 0
M  V30 10960 H 1027.41 4.28964 -0.645965 0
M  V30 10961 H 1028.09 5.50166 0.449579 0
M  V30 10962 H 1030.56 3.88311 1.49512 0
M  V30 10963 H 1029.44 4.94604 2.38029 0
M  V30 10964 H 1029.7 3.30167 2.9401 0
M  V30 10965 N 1028.76 -0.17846 1.56586 0
M  V30 10966 C 1029.69 -1.2496 1.90946 0
M  V30 10967 C 1030.67 -1.43136 0.771424 0
M  V30 10968 O 1031.85 -1.58258 1.02405 0
M  V30 10969 C 1028.98 -2.61368 2.15417 0
M  V30 10970 C 1028.03 -2.59969 3.3811 0
M  V30 10971 S 1028.86 -2.09756 4.9271 0
M  V30 10972 C 1030.01 -3.47956 5.20267 0
M  V30 10973 H 1030.25 -0.956287 2.815 0
M  V30 10974 H 1027.78 -0.382709 1.49582 0
M  V30 10975 H 1029.74 -3.39882 2.30197 0
M  V30 10976 H 1028.4 -2.87903 1.25582 0
M  V30 10977 H 1027.59 -3.60309 3.52411 0
M  V30 10978 H 1027.19 -1.89547 3.2241 0
M  V30 10979 H 1029.49 -4.43914 5.11807 0
M  V30 10980 H 1030.43 -3.38536 6.21932 0
M  V30 10981 H 1030.84 -3.43637 4.47855 0
M  V30 10982 N 1030.24 -1.51135 -0.446768 0
M  V30 10983 C 1031.65 -1.39101 -0.782504 0
M  V30 10984 C 1031.85 -0.46599 -1.96038 0
M  V30 10985 O 1030.91 0.0823679 -2.52366 0
M  V30 10986 C 1032.22 -2.80953 -1.07173 0
M  V30 10987 C 1033.77 -2.90038 -1.17673 0
M  V30 10988 C 1034.24 -4.32777 -1.49894 0
M  V30 10989 N 1035.73 -4.3584 -1.56837 0
M  V30 10990 C 1036.47 -5.43305 -1.83322 0
M  V30 10991 N 1035.97 -6.60945 -2.07662 0
M  V30 10992 N 1037.76 -5.30775 -1.85026 0
M  V30 10993 H 1029.91 -2.09835 0.329114 0
M  V30 10994 H 1032.17 -0.944199 0.0848054 0
M  V30 10995 H 1031.88 -3.50591 -0.279037 0
M  V30 10996 H 1031.75 -3.197 -2.00179 0
M  V30 10997 H 1034.14 -2.20603 -1.96005 0
M  V30 10998 H 1034.22 -2.54801 -0.225892 0
M  V30 10999 H 1033.86 -5.02757 -0.720924 0
M  V30 11000 H 1033.79 -4.6552 -2.46168 0
M  V30 11001 H 1036.29 -3.51023 -1.39968 0
M  V30 11002 H 1036.6 -7.38643 -2.27214 0
M  V30 11003 H 1034.94 -6.64077 -2.05003 0
M  V30 11004 H 1038.13 -4.37858 -1.65523 0
M  V30 11005 H 1038.31 -6.14609 -2.05329 0
M  V30 11006 N 1031.71 0.701592 -1.41122 0
M  V30 11007 C 1032.96 1.46376 -1.40363 0
M  V30 11008 C 1033.29 1.94197 -0.0105442 0
M  V30 11009 O 1032.57 1.69121 0.960637 0
M  V30 11010 C 1032.85 2.67994 -2.40523 0
M  V30 11011 C 1032.7 2.25977 -3.88914 0
M  V30 11012 C 1034.02 3.70181 -2.38022 0
M  V30 11013 H 1031.14 0.530929 -0.511159 0
M  V30 11014 H 1033.78 0.799588 -1.72356 0
M  V30 11015 H 1031.93 3.24661 -2.13372 0
M  V30 11016 H 1033.61 1.74684 -4.26946 0
M  V30 11017 H 1031.85 1.57826 -4.04071 0
M  V30 11018 H 1032.52 3.13215 -4.54533 0
M  V30 11019 H 1035 3.23174 -2.62103 0
M  V30 11020 H 1033.87 4.52894 -3.10127 0
M  V30 11021 H 1034.13 4.19458 -1.3967 0
M  V30 11022 N 1033.19 1.2685 0.935242 0
M  V30 11023 C 1034.1 1.10716 2.06831 0
M  V30 11024 C 1035.12 0.0391222 1.73956 0
M  V30 11025 O 1036.29 0.244071 1.99916 0
M  V30 11026 C 1033.36 0.748093 3.38533 0
M  V30 11027 C 1032.42 1.89619 3.85153 0
M  V30 11028 C 1031.65 1.55416 5.1057 0
M  V30 11029 O 1031.88 0.458596 5.68553 0
M  V30 11030 O 1030.81 2.39087 5.52378 0
M  V30 11031 H 1034.64 2.05785 2.23352 0
M  V30 11032 H 1032.22 1.05967 1.05315 0
M  V30 11033 H 1034.1 0.560841 4.17651 0
M  V30 11034 H 1032.78 -0.173142 3.23237 0
M  V30 11035 H 1031.68 2.13845 3.06954 0
M  V30 11036 H 1033.02 2.79737 4.04979 0
M  V30 11037 N 1034.67 -1.14067 1.0875 0
M  V30 11038 C 1035.62 -2.21332 0.715195 0
M  V30 11039 C 1036.61 -1.67059 -0.280679 0
M  V30 11040 O 1037.82 -1.79432 -0.142874 0
M  V30 11041 H 1034.19 -0.721126 0.213264 0
M  V30 11042 H 1036.16 -2.50002 1.62916 0
M  V30 11043 C 1034.91 -3.474 0.144401 0
M  V30 11044 H 1034.24 -3.89495 0.901884 0
M  V30 11045 H 1035.68 -4.23928 -0.0782564 0
M  V30 11046 C 1034.14 -3.17787 -1.11862 0
M  V30 11047 O 1034.67 -3.35906 -2.20295 0
M  V30 11048 N 1032.87 -2.71719 -1.03039 0
M  V30 11049 H 1032.42 -2.57175 -0.14793 0
M  V30 11050 H 1032.38 -2.52281 -1.87621 0
M  V30 11051 N 1036.15 -0.873678 -1.31166 0
M  V30 11052 C 1037.43 -0.40698 -1.91319 0
M  V30 11053 C 1037.81 1.1113 -1.79481 0
M  V30 11054 O 1037.15 1.94155 -1.20483 0
M  V30 11055 C 1037.36 -0.892484 -3.37396 0
M  V30 11056 C 1038.71 -0.920795 -4.14496 0
M  V30 11057 O 1039.74 -0.838386 -3.46193 0
M  V30 11058 O 1038.59 -1.04069 -5.365 0
M  V30 11059 H 1035.69 -0.122439 -0.817886 0
M  V30 11060 H 1038.23 -0.961835 -1.3981 0
M  V30 11061 H 1037.01 -1.93613 -3.40044 0
M  V30 11062 H 1036.63 -0.31615 -3.96341 0
M  V30 11063 N 1037.63 1.44308 -0.633487 0
M  V30 11064 C 1039.04 1.85387 -0.221009 0
M  V30 11065 C 1039.39 1.5301 1.22811 0
M  V30 11066 O 1038.51 0.969325 1.93476 0
M  V30 11067 C 1039.11 3.36497 -0.394331 0
M  V30 11068 C 1037.67 3.76382 -0.0363405 0
M  V30 11069 C 1036.81 2.68146 -0.706598 0
M  V30 11070 H 1039.77 1.34741 -0.83849 0
M  V30 11071 H 1039.79 3.78735 0.366026 0
M  V30 11072 H 1039.3 3.60031 -1.44911 0
M  V30 11073 H 1037.4 3.58463 1.01661 0
M  V30 11074 H 1037.51 4.77 -0.448045 0
M  V30 11075 H 1035.88 2.54306 -0.14168 0
M  V30 11076 H 1036.66 2.94512 -1.76401 0
M  V30 11077 N 1039.1 0.374177 1.53094 0
M  V30 11078 C 1040.05 -0.484848 2.22785 0
M  V30 11079 C 1041.04 -1.04181 1.22617 0
M  V30 11080 O 1042.23 -0.97043 1.48026 0
M  V30 11081 C 1039.36 -1.61956 3.02696 0
M  V30 11082 C 1038.45 -1.07506 4.10248 0
M  V30 11083 N 1038.84 -0.254253 5.05161 0
M  V30 11084 C 1037.13 -1.34904 4.25108 0
M  V30 11085 C 1037.84 0.0448558 5.81683 0
M  V30 11086 N 1036.81 -0.555073 5.40759 0
M  V30 11087 H 1040.61 0.148976 2.93522 0
M  V30 11088 H 1038.13 0.182656 1.6137 0
M  V30 11089 H 1040.12 -2.24723 3.51148 0
M  V30 11090 H 1038.78 -2.25636 2.33492 0
M  V30 11091 H 1039.8 0.107256 5.17789 0
M  V30 11092 H 1036.47 -1.98799 3.67131 0
M  V30 11093 H 1037.86 0.708952 6.68149 0
M  V30 11094 N 1040.58 -1.57259 0.103575 0
M  V30 11095 C 1041.83 -1.94657 -0.558126 0
M  V30 11096 C 1042.16 -0.985886 -1.67662 0
M  V30 11097 O 1041.41 -0.0069745 -1.95699 0
M  V30 11098 C 1041.71 -3.38549 -1.14538 0
M  V30 11099 C 1041.38 -4.50651 -0.149818 0
M  V30 11100 C 1040.04 -4.8104 0.12398 0
M  V30 11101 C 1042.39 -5.18503 0.529497 0
M  V30 11102 C 1039.72 -5.76606 1.08364 0
M  V30 11103 C 1042.07 -6.15099 1.47769 0
M  V30 11104 C 1040.74 -6.43889 1.75963 0
M  V30 11105 H 1040.01 -0.712299 -0.204233 0
M  V30 11106 H 1042.65 -1.90641 0.181208 0
M  V30 11107 H 1040.96 -3.39185 -1.96115 0
M  V30 11108 H 1042.65 -3.6479 -1.66521 0
M  V30 11109 H 1039.24 -4.2697 -0.373404 0
M  V30 11110 H 1043.43 -4.95194 0.331121 0
M  V30 11111 H 1038.68 -5.97223 1.30899 0
M  V30 11112 H 1042.86 -6.66767 2.00983 0
M  V30 11113 H 1040.49 -7.17749 2.50481 0
M  V30 11114 N 1042.06 0.170153 -1.56679 0
M  V30 11115 C 1043.31 0.884902 -1.81252 0
M  V30 11116 C 1043.62 1.83361 -0.681024 0
M  V30 11117 O 1044.83 2.59082 -0.811722 0
M  V30 11118 C 1043.28 1.62408 -3.21172 0
M  V30 11119 C 1042.89 0.718947 -4.42194 0
M  V30 11120 C 1044.64 2.32699 -3.55037 0
M  V30 11121 C 1042.54 1.45843 -5.73135 0
M  V30 11122 H 1041.47 0.33418 -0.675899 0
M  V30 11123 H 1044.12 0.137818 -1.82982 0
M  V30 11124 H 1042.51 2.41596 -3.13763 0
M  V30 11125 H 1043.68 -0.0360521 -4.60786 0
M  V30 11126 H 1042 0.125634 -4.1621 0
M  V30 11127 H 1044.59 2.88621 -4.50114 0
M  V30 11128 H 1044.94 3.08092 -2.79974 0
M  V30 11129 H 1045.47 1.60453 -3.64005 0
M  V30 11130 H 1042.21 0.746799 -6.51232 0
M  V30 11131 H 1041.73 2.18672 -5.58518 0
M  V30 11132 H 1043.41 2.0056 -6.1513 0
M  V30 11133 N 1043.54 1.5137 0.438746 0
M  V30 11134 C 1044.79 1.63202 1.18524 0
M  V30 11135 C 1045.1 0.353408 1.92381 0
M  V30 11136 O 1046.31 0.351086 2.6922 0
M  V30 11137 C 1044.76 2.88218 2.15542 0
M  V30 11138 C 1044.37 4.23078 1.47339 0
M  V30 11139 C 1046.11 3.09407 2.90633 0
M  V30 11140 C 1044.02 5.39246 2.42833 0
M  V30 11141 H 1042.95 0.607864 0.446114 0
M  V30 11142 H 1045.6 1.77835 0.452421 0
M  V30 11143 H 1043.98 2.67216 2.92253 0
M  V30 11144 H 1045.16 4.54457 0.761964 0
M  V30 11145 H 1043.47 4.07755 0.844065 0
M  V30 11146 H 1046.07 3.9337 3.62165 0
M  V30 11147 H 1046.41 2.22428 3.51897 0
M  V30 11148 H 1046.95 3.30743 2.21029 0
M  V30 11149 H 1043.69 6.2848 1.8626 0
M  V30 11150 H 1043.21 5.12245 3.12034 0
M  V30 11151 H 1044.88 5.71137 3.03992 0
M  V30 11152 N 1045.02 -0.694098 1.41492 0
M  V30 11153 C 1046.25 -1.48071 1.44078 0
M  V30 11154 C 1046.65 -1.89147 0.0448984 0
M  V30 11155 O 1046 -1.57441 -0.946464 0
M  V30 11156 C 1046.06 -2.77324 2.28761 0
M  V30 11157 C 1045.72 -2.58443 3.76904 0
M  V30 11158 C 1046.72 -2.24294 4.69029 0
M  V30 11159 C 1044.41 -2.74037 4.20962 0
M  V30 11160 C 1046.4 -2.0598 6.03201 0
M  V30 11161 C 1044.09 -2.5534 5.55198 0
M  V30 11162 C 1045.08 -2.21362 6.46133 0
M  V30 11163 O 1044.77 -2.02829 7.77892 0
M  V30 11164 H 1044.5 -0.462794 0.492745 0
M  V30 11165 H 1047.06 -0.861968 1.86438 0
M  V30 11166 H 1045.29 -3.4161 1.81217 0
M  V30 11167 H 1046.98 -3.39134 2.23031 0
M  V30 11168 H 1047.74 -2.11859 4.36281 0
M  V30 11169 H 1043.62 -2.99467 3.50486 0
M  V30 11170 H 1047.17 -1.79382 6.74142 0
M  V30 11171 H 1043.06 -2.67366 5.87525 0
M  V30 11172 H 1043.83 -2.17581 7.89051 0
M  V30 11173 N 1046.49 -1.27344 -0.928501 0
M  V30 11174 C 1047.42 -1.12517 -2.04602 0
M  V30 11175 C 1048.41 -0.0268563 -1.70079 0
M  V30 11176 O 1049.59 -0.201197 -1.93155 0
M  V30 11177 C 1046.72 -0.770749 -3.3864 0
M  V30 11178 C 1045.67 -1.8222 -3.87272 0
M  V30 11179 C 1045 -1.32178 -5.18105 0
M  V30 11180 C 1046.3 -3.22614 -4.10752 0
M  V30 11181 H 1047.99 -2.06 -2.17265 0
M  V30 11182 H 1045.54 -0.991827 -1.04397 0
M  V30 11183 H 1047.49 -0.653843 -4.16297 0
M  V30 11184 H 1046.22 0.19979 -3.25988 0
M  V30 11185 H 1044.88 -1.928 -3.11807 0
M  V30 11186 H 1044.52 -0.340719 -5.01845 0
M  V30 11187 H 1044.22 -2.02474 -5.51614 0
M  V30 11188 H 1045.75 -1.2178 -5.98333 0
M  V30 11189 H 1047.16 -3.1504 -4.78981 0
M  V30 11190 H 1045.56 -3.90614 -4.55566 0
M  V30 11191 H 1046.63 -3.67727 -3.16077 0
M  V30 11192 N 1047.97 1.13488 -1.09353 0
M  V30 11193 C 1049.38 1.66299 -0.848609 0
M  V30 11194 C 1049.73 1.86044 0.623051 0
M  V30 11195 O 1048.86 1.57871 1.48005 0
M  V30 11196 C 1049.45 3.02087 -1.53391 0
M  V30 11197 C 1048.01 3.51893 -1.33598 0
M  V30 11198 C 1047.16 2.27154 -1.59048 0
M  V30 11199 H 1050.11 0.974208 -1.25279 0
M  V30 11200 H 1050.13 3.68018 -0.966587 0
M  V30 11201 H 1049.64 2.87684 -2.60498 0
M  V30 11202 H 1047.75 3.715 -0.286045 0
M  V30 11203 H 1047.86 4.32059 -2.0703 0
M  V30 11204 H 1046.22 2.33708 -1.01256 0
M  V30 11205 H 1047.01 2.15317 -2.67383 0
M  V30 11206 N 1049.45 0.880621 1.30701 0
M  V30 11207 C 1050.4 0.342397 2.28246 0
M  V30 11208 C 1051.37 -0.565023 1.56194 0
M  V30 11209 O 1052.55 -0.494377 1.84284 0
M  V30 11210 C 1049.69 -0.440859 3.42272 0
M  V30 11211 C 1048.81 0.495284 4.29151 0
M  V30 11212 C 1047.94 -0.303141 5.30334 0
M  V30 11213 C 1046.98 0.628751 6.08862 0
M  V30 11214 N 1046.12 -0.13408 7.01972 0
M  V30 11215 H 1050.96 1.17938 2.73669 0
M  V30 11216 H 1048.49 0.59296 1.34619 0
M  V30 11217 H 1050.45 -0.910854 4.07135 0
M  V30 11218 H 1049.08 -1.24245 2.97931 0
M  V30 11219 H 1048.13 1.08376 3.64635 0
M  V30 11220 H 1049.45 1.2094 4.83916 0
M  V30 11221 H 1048.6 -0.835181 6.00924 0
M  V30 11222 H 1047.34 -1.05049 4.76252 0
M  V30 11223 H 1046.34 1.17246 5.37153 0
M  V30 11224 H 1047.57 1.37512 6.65032 0
M  V30 11225 H 1045.52 -0.864046 6.50285 0
M  V30 11226 H 1045.43 0.520486 7.54206 0
M  V30 11227 H 1046.7 -0.647005 7.7681 0
M  V30 11228 N 1050.93 -1.4397 0.641131 0
M  V30 11229 C 1052.15 -2.06818 0.155318 0
M  V30 11230 C 1052.58 -1.47665 -1.16519 0
M  V30 11231 O 1051.94 -0.58192 -1.71707 0
M  V30 11232 C 1051.99 -3.60542 0.0647537 0
M  V30 11233 O 1051.09 -4.00674 -0.976447 0
M  V30 11234 H 1050.43 -0.657962 0.0893404 0
M  V30 11235 H 1052.96 -1.84678 0.88064 0
M  V30 11236 H 1052.97 -4.07816 -0.122552 0
M  V30 11237 H 1051.65 -4.02975 1.02878 0
M  V30 11238 H 1050.22 -3.65013 -0.762905 0
M  V30 11239 N 1052.41 -0.382291 -1.52893 0
M  V30 11240 C 1053.34 0.491199 -2.23875 0
M  V30 11241 C 1054.35 1.03249 -1.25871 0
M  V30 11242 O 1055.54 0.936016 -1.5199 0
M  V30 11243 C 1052.64 1.6927 -2.936 0
M  V30 11244 C 1051.81 1.28 -4.18252 0
M  V30 11245 C 1050.87 2.34541 -4.71038 0
M  V30 11246 O 1049.9 1.96239 -5.34302 0
M  V30 11247 N 1051.1 3.6636 -4.50289 0
M  V30 11248 H 1053.87 -0.116897 -2.99472 0
M  V30 11249 H 1051.43 -0.208296 -1.60554 0
M  V30 11250 H 1053.42 2.40054 -3.25816 0
M  V30 11251 H 1051.99 2.20729 -2.21354 0
M  V30 11252 H 1051.21 0.40133 -3.92152 0
M  V30 11253 H 1052.5 0.98082 -4.99257 0
M  V30 11254 H 1051.9 4.00245 -3.99775 0
M  V30 11255 H 1050.45 4.332 -4.87013 0
M  V30 11256 N 1053.89 1.57202 -0.111913 0
M  V30 11257 C 1054.83 2.14936 0.840908 0
M  V30 11258 C 1055.8 1.07242 1.2684 0
M  V30 11259 O 1056.99 1.35114 1.34718 0
M  V30 11260 C 1054.13 2.74743 2.0883 0
M  V30 11261 C 1053.24 3.96723 1.70982 0
M  V30 11262 C 1052.38 4.4464 2.90634 0
M  V30 11263 C 1051.41 5.59169 2.48992 0
M  V30 11264 N 1050.55 6.01862 3.61534 0
M  V30 11265 H 1055.39 2.96034 0.341735 0
M  V30 11266 H 1052.93 1.4626 0.156993 0
M  V30 11267 H 1054.89 3.07546 2.81907 0
M  V30 11268 H 1053.52 1.96346 2.56218 0
M  V30 11269 H 1052.57 3.70127 0.878072 0
M  V30 11270 H 1053.88 4.79795 1.36373 0
M  V30 11271 H 1053.03 4.79315 3.71944 0
M  V30 11272 H 1051.77 3.60503 3.28464 0
M  V30 11273 H 1050.78 5.24106 1.66113 0
M  V30 11274 H 1052 6.45067 2.12287 0
M  V30 11275 H 1049.95 5.20667 3.99051 0
M  V30 11276 H 1049.87 6.79772 3.30827 0
M  V30 11277 H 1051.13 6.41172 4.43305 0
M  V30 11278 N 1055.36 -0.161842 1.56767 0
M  V30 11279 C 1056.31 -1.21948 1.98069 0
M  V30 11280 C 1057.31 -1.45303 0.870835 0
M  V30 11281 O 1058.51 -1.45771 1.05598 0
M  V30 11282 H 1054.89 -0.410145 0.630306 0
M  V30 11283 H 1056.86 -0.844336 2.86205 0
M  V30 11284 C 1055.61 -2.549 2.36477 0
M  V30 11285 H 1054.93 -2.37755 3.21423 0
M  V30 11286 H 1056.37 -3.27568 2.69212 0
M  V30 11287 C 1054.83 -3.14353 1.21176 0
M  V30 11288 O 1055.36 -3.98519 0.504499 0
M  V30 11289 N 1053.56 -2.73582 0.979855 0
M  V30 11290 H 1053.11 -2.05239 1.55675 0
M  V30 11291 H 1053.07 -3.13696 0.21025 0
M  V30 11292 N 1056.84 -1.516 -0.430713 0
M  V30 11293 C 1058.09 -1.63829 -1.17657 0
M  V30 11294 C 1058.4 -0.363605 -1.92191 0
M  V30 11295 O 1059.61 -0.365358 -2.6903 0
M  V30 11296 C 1058.07 -2.89357 -2.14011 0
M  V30 11297 C 1057.67 -4.23854 -1.45094 0
M  V30 11298 C 1059.42 -3.10944 -2.88988 0
M  V30 11299 C 1057.32 -5.40526 -2.3997 0
M  V30 11300 H 1056.25 -0.610221 -0.442884 0
M  V30 11301 H 1058.91 -1.78073 -0.442984 0
M  V30 11302 H 1057.29 -2.68762 -2.90832 0
M  V30 11303 H 1058.46 -4.54854 -0.737853 0
M  V30 11304 H 1056.78 -4.08197 -0.822429 0
M  V30 11305 H 1059.37 -3.95286 -3.60074 0
M  V30 11306 H 1059.72 -2.24291 -3.50712 0
M  V30 11307 H 1060.25 -3.3191 -2.19272 0
M  V30 11308 H 1056.99 -6.29459 -1.82925 0
M  V30 11309 H 1056.51 -5.13893 -3.09313 0
M  V30 11310 H 1058.19 -5.72741 -3.00959 0
M  V30 11311 N 1058.32 0.686584 -1.41858 0
M  V30 11312 C 1059.56 1.45879 -1.43173 0
M  V30 11313 C 1059.92 1.91953 -0.0423059 0
M  V30 11314 O 1061.12 2.68709 0.069783 0
M  V30 11315 C 1059.4 2.63196 -2.41791 0
M  V30 11316 S 1060.95 3.52212 -2.6171 0
M  V30 11317 H 1057.77 0.498391 -0.507077 0
M  V30 11318 H 1060.37 0.800313 -1.78368 0
M  V30 11319 H 1059.08 2.27566 -3.41529 0
M  V30 11320 H 1058.61 3.33928 -2.0798 0
M  V30 11321 H 1060.62 4.58744 -1.89125 0
M  V30 11322 N 1059.8 1.27835 0.921735 0
M  V30 11323 C 1061.04 1.14523 1.67005 0
M  V30 11324 C 1061.37 -0.307776 1.92049 0
M  V30 11325 O 1060.63 -1.24103 1.51317 0
M  V30 11326 C 1060.93 1.88054 3.03925 0
M  V30 11327 C 1060.59 3.37886 2.9857 0
M  V30 11328 C 1059.25 3.78752 2.96817 0
M  V30 11329 C 1061.61 4.33462 2.89414 0
M  V30 11330 C 1058.93 5.13549 2.83698 0
M  V30 11331 C 1061.29 5.68322 2.77836 0
M  V30 11332 C 1059.95 6.08475 2.74436 0
M  V30 11333 H 1059.22 0.419068 0.611116 0
M  V30 11334 H 1061.87 1.58515 1.07449 0
M  V30 11335 H 1060.17 1.36587 3.67221 0
M  V30 11336 H 1061.87 1.75176 3.60714 0
M  V30 11337 H 1058.46 3.05389 3.00725 0
M  V30 11338 H 1062.64 4.02857 2.89862 0
M  V30 11339 H 1057.9 5.43796 2.79456 0
M  V30 11340 H 1062.07 6.42048 2.69717 0
M  V30 11341 H 1059.7 7.12877 2.64027 0
M  V30 11342 N 1061.28 -1.12907 1.09954 0
M  V30 11343 C 1062.22 -2.20561 0.73863 0
M  V30 11344 C 1063.22 -1.67347 -0.262944 0
M  V30 11345 O 1064.42 -1.79574 -0.123834 0
M  V30 11346 H 1060.8 -0.718823 0.220901 0
M  V30 11347 H 1062.77 -2.4826 1.65559 0
M  V30 11348 C 1061.52 -3.47227 0.181239 0
M  V30 11349 H 1060.84 -3.88516 0.943144 0
M  V30 11350 H 1062.28 -4.23987 -0.0332888 0
M  V30 11351 C 1060.74 -3.18956 -1.08485 0
M  V30 11352 O 1061.27 -3.38224 -2.1672 0
M  V30 11353 N 1059.48 -2.72797 -1.00151 0
M  V30 11354 H 1059.02 -2.57317 -0.120645 0
M  V30 11355 H 1058.98 -2.54256 -1.84935 0
M  V30 11356 N 1062.75 -0.88754 -1.30232 0
M  V30 11357 C 1064 -0.503322 -1.95319 0
M  V30 11358 C 1064.32 0.952817 -1.70824 0
M  V30 11359 O 1065.52 1.444 -2.29915 0
M  V30 11360 C 1063.98 -0.849216 -3.49738 0
M  V30 11361 C 1063.59 -2.3233 -3.83049 0
M  V30 11362 C 1065.33 -0.53432 -4.21124 0
M  V30 11363 C 1063.24 -2.61069 -5.30657 0
M  V30 11364 H 1062.17 -0.1845 -0.731078 0
M  V30 11365 H 1064.82 -1.08287 -1.48143 0
M  V30 11366 H 1063.2 -0.198729 -3.95501 0
M  V30 11367 H 1064.37 -3.01832 -3.48187 0
M  V30 11368 H 1062.69 -2.60599 -3.24773 0
M  V30 11369 H 1065.29 -0.726039 -5.29748 0
M  V30 11370 H 1065.63 0.526434 -4.12958 0
M  V30 11371 H 1066.16 -1.14211 -3.81052 0
M  V30 11372 H 1062.9 -3.65895 -5.43876 0
M  V30 11373 H 1062.42 -1.96179 -5.6681 0
M  V30 11374 H 1064.1 -2.46703 -5.98119 0
M  V30 11375 N 1064.23 1.43628 -0.648757 0
M  V30 11376 C 1065.51 1.95391 -0.0904551 0
M  V30 11377 C 1065.89 1.59021 1.38837 0
M  V30 11378 O 1065.24 0.873078 2.11163 0
M  V30 11379 C 1065.45 3.47418 -0.33196 0
M  V30 11380 C 1066.8 4.23952 -0.234521 0
M  V30 11381 O 1067.82 3.55218 -0.264276 0
M  V30 11382 O 1066.68 5.46282 -0.154428 0
M  V30 11383 H 1063.77 0.82691 0.0121884 0
M  V30 11384 H 1066.32 1.5359 -0.721685 0
M  V30 11385 H 1065.09 3.67001 -1.35741 0
M  V30 11386 H 1064.71 3.96207 0.332556 0
M  V30 11387 N 1065.71 0.390394 1.52688 0
M  V30 11388 C 1066.94 -0.194013 2.06491 0
M  V30 11389 C 1067.36 -1.3965 1.26014 0
M  V30 11390 O 1066.72 -1.79038 0.285468 0
M  V30 11391 C 1066.77 -0.541306 3.56514 0
M  V30 11392 O 1065.87 -1.63509 3.78601 0
M  V30 11393 H 1065.21 -0.0223608 0.663623 0
M  V30 11394 H 1067.74 0.558179 1.96839 0
M  V30 11395 H 1067.75 -0.805301 3.99974 0
M  V30 11396 H 1066.43 0.337828 4.14526 0
M  V30 11397 H 1065 -1.36473 3.4703 0
M  V30 11398 N 1067.19 -1.57141 0.120249 0
M  V30 11399 C 1068.1 -2.18925 -0.843155 0
M  V30 11400 C 1069.11 -1.16575 -1.29175 0
M  V30 11401 O 1070.29 -1.4905 -1.35448 0
M  V30 11402 C 1067.36 -2.7775 -2.075 0
M  V30 11403 C 1066.42 -3.95139 -1.6782 0
M  V30 11404 C 1065.65 -4.51149 -2.85132 0
M  V30 11405 O 1065.87 -4.06056 -4.00593 0
M  V30 11406 O 1064.81 -5.41815 -2.62145 0
M  V30 11407 H 1068.63 -3.01707 -0.347357 0
M  V30 11408 H 1066.22 -1.49028 -0.105427 0
M  V30 11409 H 1068.1 -3.15243 -2.79643 0
M  V30 11410 H 1066.77 -1.97998 -2.56083 0
M  V30 11411 H 1065.68 -3.62412 -0.927807 0
M  V30 11412 H 1067.01 -4.7633 -1.23977 0
M  V30 11413 N 1068.67 0.153526 -1.5685 0
M  V30 11414 C 1070.08 0.714247 -1.72498 0
M  V30 11415 C 1070.43 1.81968 -0.733621 0
M  V30 11416 O 1069.55 2.16163 0.10118 0
M  V30 11417 C 1070.15 1.30238 -3.12767 0
M  V30 11418 C 1068.71 1.80974 -3.30038 0
M  V30 11419 C 1067.85 0.695638 -2.68433 0
M  V30 11420 H 1070.81 -0.0720733 -1.58536 0
M  V30 11421 H 1070.83 2.17217 -3.12405 0
M  V30 11422 H 1070.34 0.497605 -3.84897 0
M  V30 11423 H 1068.44 2.64039 -2.62895 0
M  V30 11424 H 1068.55 1.94294 -4.37934 0
M  V30 11425 H 1066.92 1.12061 -2.28723 0
M  V30 11426 H 1067.7 -0.0975885 -3.43161 0
M  V30 11427 N 1070.14 1.51827 0.422667 0
M  V30 11428 C 1071.39 1.64893 1.16853 0
M  V30 11429 C 1071.71 0.37456 1.91369 0
M  V30 11430 O 1070.98 -0.610128 1.86157 0
M  V30 11431 H 1069.56 0.607744 0.434345 0
M  V30 11432 H 1072.23 1.88816 0.483159 0
M  V30 11433 H 1071.32 2.48361 1.89006 0
M  V30 11434 N 1071.62 -0.679052 1.4222 0
M  V30 11435 C 1072.57 -1.79269 1.45366 0
M  V30 11436 C 1073.54 -1.63255 0.306089 0
M  V30 11437 O 1074.72 -1.8387 0.509548 0
M  V30 11438 C 1071.86 -3.17272 1.35766 0
M  V30 11439 C 1070.98 -3.44603 2.60525 0
M  V30 11440 C 1070.11 -4.7231 2.43098 0
M  V30 11441 C 1069.15 -4.92661 3.63251 0
M  V30 11442 N 1068.29 -6.11606 3.44794 0
M  V30 11443 H 1073.13 -1.75916 2.40536 0
M  V30 11444 H 1070.67 -0.858836 1.19425 0
M  V30 11445 H 1072.62 -3.97015 1.282 0
M  V30 11446 H 1071.25 -3.1976 0.441939 0
M  V30 11447 H 1070.31 -2.59144 2.78475 0
M  V30 11448 H 1071.62 -3.55536 3.49851 0
M  V30 11449 H 1070.77 -5.60136 2.33093 0
M  V30 11450 H 1069.51 -4.63652 1.51255 0
M  V30 11451 H 1068.52 -4.03278 3.73693 0
M  V30 11452 H 1069.74 -5.03167 4.5607 0
M  V30 11453 H 1067.69 -6.04129 2.55663 0
M  V30 11454 H 1067.6 -6.23381 4.27705 0
M  V30 11455 H 1068.87 -7.02122 3.38592 0
M  V30 11456 N 1073.1 -1.28322 -0.914942 0
M  V30 11457 C 1074.35 -1.14785 -1.65853 0
M  V30 11458 C 1074.66 0.303135 -1.93237 0
M  V30 11459 O 1075.87 0.559606 -2.6567 0
M  V30 11460 C 1074.32 -2.00652 -2.98776 0
M  V30 11461 C 1073.93 -3.50483 -2.79044 0
M  V30 11462 C 1075.68 -1.95798 -3.76648 0
M  V30 11463 C 1073.58 -4.28505 -4.076 0
M  V30 11464 H 1072.51 -0.425987 -0.622135 0
M  V30 11465 H 1075.16 -1.52844 -1.01543 0
M  V30 11466 H 1073.55 -1.55447 -3.64214 0
M  V30 11467 H 1074.72 -4.03636 -2.22293 0
M  V30 11468 H 1073.04 -3.5685 -2.14586 0
M  V30 11469 H 1075.63 -2.51359 -4.71935 0
M  V30 11470 H 1075.98 -0.934455 -4.05677 0
M  V30 11471 H 1076.51 -2.38965 -3.18026 0
M  V30 11472 H 1073.25 -5.31433 -3.83744 0
M  V30 11473 H 1072.77 -3.80125 -4.63966 0
M  V30 11474 H 1074.45 -4.3836 -4.75867 0
M  V30 11475 N 1074.58 1.12322 -1.10551 0
M  V30 11476 C 1075.51 2.20176 -0.777486 0
M  V30 11477 C 1076.49 1.68252 0.250069 0
M  V30 11478 O 1077.67 1.93856 0.115574 0
M  V30 11479 C 1074.8 3.46666 -0.209822 0
M  V30 11480 C 1073.76 4.11749 -1.1682 0
M  V30 11481 C 1073.08 5.32703 -0.461684 0
M  V30 11482 C 1074.38 4.57746 -2.51527 0
M  V30 11483 H 1076.08 2.47872 -1.67928 0
M  V30 11484 H 1073.62 1.19136 -0.808863 0
M  V30 11485 H 1075.58 4.21388 0.0318068 0
M  V30 11486 H 1074.3 3.18401 0.727226 0
M  V30 11487 H 1072.96 3.39009 -1.3953 0
M  V30 11488 H 1072.61 5.00706 0.479875 0
M  V30 11489 H 1072.31 5.77197 -1.1008 0
M  V30 11490 H 1073.83 6.10172 -0.228629 0
M  V30 11491 H 1075.25 5.23835 -2.32958 0
M  V30 11492 H 1073.64 5.13021 -3.11335 0
M  V30 11493 H 1074.71 3.71667 -3.11435 0
M  V30 11494 N 1076.06 0.894434 1.2976 0
M  V30 11495 C 1077 0.357958 2.29829 0
M  V30 11496 C 1078 -0.540093 1.6056 0
M  V30 11497 O 1079.2 -0.423478 1.74948 0
M  V30 11498 H 1075.58 0.0971183 0.745702 0
M  V30 11499 H 1077.55 1.21542 2.72526 0
M  V30 11500 C 1076.3 -0.404126 3.45343 0
M  V30 11501 H 1075.62 0.277671 3.98835 0
M  V30 11502 H 1077.06 -0.744446 4.17413 0
M  V30 11503 C 1075.52 -1.6048 2.96222 0
M  V30 11504 O 1076.05 -2.70414 2.97051 0
M  V30 11505 N 1074.26 -1.44517 2.52117 0
M  V30 11506 H 1073.8 -0.55082 2.51642 0
M  V30 11507 H 1073.76 -2.24987 2.1961 0
M  V30 11508 N 1077.53 -1.43282 0.656365 0
M  V30 11509 C 1078.46 -2.33492 -0.0196962 0
M  V30 11510 C 1079.45 -1.49647 -0.80868 0
M  V30 11511 O 1080.63 -1.78303 -0.769529 0
M  V30 11512 C 1077.76 -3.33052 -0.984574 0
M  V30 11513 C 1076.71 -4.26908 -0.305483 0
M  V30 11514 C 1076.04 -5.16531 -1.38202 0
M  V30 11515 C 1077.34 -5.16073 0.804081 0
M  V30 11516 H 1079.03 -2.90272 0.733661 0
M  V30 11517 H 1076.58 -1.39574 0.354259 0
M  V30 11518 H 1078.53 -3.9506 -1.46647 0
M  V30 11519 H 1077.26 -2.74535 -1.76913 0
M  V30 11520 H 1075.92 -3.66268 0.155995 0
M  V30 11521 H 1075.56 -4.54351 -2.1581 0
M  V30 11522 H 1075.26 -5.80148 -0.932878 0
M  V30 11523 H 1076.79 -5.81414 -1.86522 0
M  V30 11524 H 1078.2 -5.71873 0.404212 0
M  V30 11525 H 1076.6 -5.88427 1.17789 0
M  V30 11526 H 1077.67 -4.55574 1.66073 0
M  V30 11527 N 1079.01 -0.398486 -1.52479 0
M  V30 11528 C 1080.26 0.181019 -2.0199 0
M  V30 11529 C 1080.59 1.45691 -1.28405 0
M  V30 11530 O 1079.87 1.90607 -0.387207 0
M  V30 11531 C 1080.15 0.439587 -3.57407 0
M  V30 11532 C 1080 -0.85223 -4.41653 0
M  V30 11533 C 1081.32 1.2263 -4.2267 0
M  V30 11534 H 1078.44 0.0643164 -0.734188 0
M  V30 11535 H 1081.08 -0.52986 -1.82462 0
M  V30 11536 H 1079.23 1.04516 -3.74177 0
M  V30 11537 H 1080.91 -1.48879 -4.36615 0
M  V30 11538 H 1079.15 -1.46555 -4.08294 0
M  V30 11539 H 1079.82 -0.625839 -5.48441 0
M  V30 11540 H 1082.3 0.713722 -4.09933 0
M  V30 11541 H 1081.17 1.37596 -5.31374 0
M  V30 11542 H 1081.43 2.24403 -3.80914 0
M  V30 11543 N 1080.49 1.57075 -0.12858 0
M  V30 11544 C 1081.72 2.00305 0.537839 0
M  V30 11545 C 1082.14 1.00787 1.58819 0
M  V30 11546 O 1081.5 -0.0190839 1.8129 0
M  V30 11547 C 1081.55 3.42371 1.13201 0
M  V30 11548 O 1080.65 3.45786 2.24735 0
M  V30 11549 H 1079.99 0.650456 0.133428 0
M  V30 11550 H 1082.52 2.03415 -0.219882 0
M  V30 11551 H 1082.53 3.80783 1.4652 0
M  V30 11552 H 1081.21 4.14315 0.362713 0
M  V30 11553 H 1079.78 3.19201 1.92783 0
M  V30 11554 N 1081.97 -0.145205 1.5693 0
M  V30 11555 C 1083.25 -0.88631 1.74367 0
M  V30 11556 C 1083.63 -1.99259 0.697081 0
M  V30 11557 O 1082.97 -2.26732 -0.28368 0
M  V30 11558 C 1083.18 -1.42712 3.18488 0
M  V30 11559 C 1084.53 -1.88982 3.80225 0
M  V30 11560 O 1085.56 -1.5245 3.21928 0
M  V30 11561 O 1084.42 -2.56361 4.8264 0
M  V30 11562 H 1081.51 -0.418979 0.713011 0
M  V30 11563 H 1084.06 -0.130991 1.69194 0
M  V30 11564 H 1082.83 -0.632165 3.8616 0
M  V30 11565 H 1082.45 -2.24589 3.28094 0
M  V30 11566 N 1083.45 -1.52049 -0.414609 0
M  V30 11567 C 1084.86 -1.58062 -0.993638 0
M  V30 11568 C 1085.21 -0.417795 -1.917 0
M  V30 11569 O 1084.33 0.462558 -2.11399 0
M  V30 11570 C 1084.93 -2.86471 -1.80886 0
M  V30 11571 C 1083.49 -2.94981 -2.33801 0
M  V30 11572 C 1082.64 -2.52949 -1.13631 0
M  V30 11573 H 1085.59 -1.57497 -0.19504 0
M  V30 11574 H 1085.61 -2.71515 -2.66571 0
M  V30 11575 H 1085.12 -3.71085 -1.13657 0
M  V30 11576 H 1083.22 -2.14849 -3.04419 0
M  V30 11577 H 1083.33 -3.99111 -2.65042 0
M  V30 11578 H 1081.7 -2.0667 -1.48861 0
M  V30 11579 H 1082.48 -3.39931 -0.479765 0
M  V30 11580 N 1084.93 0.6715 -1.42579 0
M  V30 11581 C 1085.84 1.81435 -1.48723 0
M  V30 11582 C 1086.85 1.69895 -0.375716 0
M  V30 11583 O 1088.03 1.91388 -0.627115 0
M  V30 11584 C 1085.09 3.17599 -1.39038 0
M  V30 11585 C 1084.15 3.41071 -2.60709 0
M  V30 11586 C 1083.39 4.7074 -2.51476 0
M  V30 11587 O 1083.61 5.48868 -1.55243 0
M  V30 11588 O 1082.54 4.95528 -3.41666 0
M  V30 11589 H 1086.37 1.79206 -2.45191 0
M  V30 11590 H 1083.95 0.827666 -1.24379 0
M  V30 11591 H 1085.84 3.98847 -1.3601 0
M  V30 11592 H 1084.51 3.20458 -0.456966 0
M  V30 11593 H 1083.42 2.59659 -2.69311 0
M  V30 11594 H 1084.75 3.43045 -3.5296 0
M  V30 11595 N 1086.4 1.28806 0.908124 0
M  V30 11596 C 1087.63 1.19271 1.69674 0
M  V30 11597 C 1088.05 -0.244403 1.86505 0
M  V30 11598 O 1087.41 -1.17668 1.37927 0
M  V30 11599 C 1087.46 1.9023 3.06341 0
M  V30 11600 O 1086.56 1.2136 3.94139 0
M  V30 11601 H 1085.9 0.413738 0.519343 0
M  V30 11602 H 1088.43 1.70227 1.13508 0
M  V30 11603 H 1088.44 1.98356 3.56537 0
M  V30 11604 H 1087.12 2.94762 2.93408 0
M  V30 11605 H 1085.7 1.21435 3.52573 0
M  V30 11606 N 1087.88 -1.11734 1.11145 0
M  V30 11607 C 1089.13 -1.83043 0.856717 0
M  V30 11608 C 1089.45 -1.84901 -0.619407 0
M  V30 11609 O 1088.72 -1.31738 -1.44989 0
M  V30 11610 H 1087.3 -0.677823 0.31395 0
M  V30 11611 H 1089.96 -1.35262 1.40322 0
M  V30 11612 H 1089.06 -2.87005 1.22616 0
M  V30 11613 N 1089.36 -0.901303 -1.29284 0
M  V30 11614 C 1090.61 -0.52401 -1.94774 0
M  V30 11615 C 1090.92 0.934645 -1.71825 0
M  V30 11616 O 1092.13 1.41953 -2.31434 0
M  V30 11617 C 1090.58 -0.886262 -3.48817 0
M  V30 11618 C 1090.19 -2.3638 -3.80564 0
M  V30 11619 C 1091.94 -0.578955 -4.20533 0
M  V30 11620 C 1089.84 -2.66682 -5.27858 0
M  V30 11621 H 1088.77 -0.192244 -0.72908 0
M  V30 11622 H 1091.42 -1.09852 -1.46986 0
M  V30 11623 H 1089.81 -0.240666 -3.95268 0
M  V30 11624 H 1090.98 -3.05508 -3.44966 0
M  V30 11625 H 1089.29 -2.64029 -3.2199 0
M  V30 11626 H 1091.89 -0.782185 -5.28948 0
M  V30 11627 H 1092.23 0.482605 -4.13493 0
M  V30 11628 H 1092.77 -1.18246 -3.79819 0
M  V30 11629 H 1089.51 -3.71643 -5.39965 0
M  V30 11630 H 1089.03 -2.02179 -5.64698 0
M  V30 11631 H 1090.71 -2.53033 -5.95469 0
M  V30 11632 N 1090.84 1.42931 -0.663954 0
M  V30 11633 C 1092.08 2.01982 -0.182007 0
M  V30 11634 C 1092.42 1.52323 1.20463 0
M  V30 11635 O 1091.69 0.720834 1.80649 0
M  V30 11636 C 1091.97 3.59518 -0.204671 0
M  V30 11637 C 1091.83 4.19382 -1.62599 0
M  V30 11638 C 1093.15 4.37762 0.45308 0
M  V30 11639 H 1090.27 0.733892 -0.0676115 0
M  V30 11640 H 1092.91 1.70092 -0.84668 0
M  V30 11641 H 1091.06 3.86816 0.361295 0
M  V30 11642 H 1092.73 4.03076 -2.24337 0
M  V30 11643 H 1090.97 3.75623 -2.17001 0
M  V30 11644 H 1091.64 5.28496 -1.59362 0
M  V30 11645 H 1094.12 4.1609 -0.0285774 0
M  V30 11646 H 1093 5.47392 0.406538 0
M  V30 11647 H 1093.26 4.1482 1.52895 0
M  V30 11648 N 1092.32 0.406567 1.52266 0
M  V30 11649 C 1093.56 -0.170305 2.02084 0
M  V30 11650 C 1093.89 -1.45008 1.29176 0
M  V30 11651 O 1093.17 -1.90399 0.39731 0
M  V30 11652 C 1093.45 -0.420627 3.57635 0
M  V30 11653 C 1093.31 0.87564 4.41194 0
M  V30 11654 C 1094.62 -1.20387 4.23314 0
M  V30 11655 H 1091.74 -0.0604219 0.734519 0
M  V30 11656 H 1094.39 0.539529 1.82179 0
M  V30 11657 H 1092.54 -1.0253 3.74726 0
M  V30 11658 H 1094.21 1.51192 4.35819 0
M  V30 11659 H 1092.45 1.48718 4.07511 0
M  V30 11660 H 1093.12 0.654916 5.48101 0
M  V30 11661 H 1095.6 -0.691972 4.10306 0
M  V30 11662 H 1094.47 -1.34776 5.32096 0
M  V30 11663 H 1094.73 -2.2238 3.82099 0
M  V30 11664 N 1093.79 -1.57004 0.136909 0
M  V30 11665 C 1094.74 -2.17524 -0.823784 0
M  V30 11666 C 1095.74 -1.1294 -1.26258 0
M  V30 11667 O 1096.94 -1.3121 -1.23223 0
M  V30 11668 H 1093.32 -0.696381 -0.283827 0
M  V30 11669 H 1095.29 -2.96997 -0.289052 0
M  V30 11670 C 1094.04 -2.80331 -2.05693 0
M  V30 11671 H 1093.36 -3.60515 -1.72825 0
M  V30 11672 H 1094.8 -3.26192 -2.70878 0
M  V30 11673 C 1093.26 -1.78322 -2.85837 0
M  V30 11674 O 1093.79 -1.2475 -3.81838 0
M  V30 11675 N 1092 -1.47854 -2.50175 0
M  V30 11676 H 1091.54 -1.9161 -1.72173 0
M  V30 11677 H 1091.5 -0.798464 -3.04092 0
M  V30 11678 N 1095.27 0.136881 -1.57004 0
M  V30 11679 C 1096.52 0.8461 -1.83536 0
M  V30 11680 C 1096.84 1.81246 -0.71937 0
M  V30 11681 O 1096.11 1.94191 0.258161 0
M  V30 11682 H 1094.69 0.315446 -0.677128 0
M  V30 11683 H 1097.35 0.128469 -1.94476 0
M  V30 11684 H 1096.45 1.40221 -2.78827 0
M  V30 11685 N 1096.75 1.52266 0.40654 0
M  V30 11686 C 1097.68 1.72025 1.51459 0
M  V30 11687 C 1098.7 0.600667 1.51314 0
M  V30 11688 O 1099.88 0.875894 1.55532 0
M  V30 11689 C 1096.98 1.7479 2.90348 0
M  V30 11690 C 1096.16 3.03826 3.14656 0
M  V30 11691 C 1095.22 2.98369 4.33431 0
M  V30 11692 O 1094.24 3.7227 4.30586 0
M  V30 11693 N 1095.44 2.16338 5.38682 0
M  V30 11694 H 1098.21 2.67622 1.34903 0
M  V30 11695 H 1095.77 1.50536 0.595867 0
M  V30 11696 H 1097.76 1.68667 3.67877 0
M  V30 11697 H 1096.33 0.86656 3.00349 0
M  V30 11698 H 1095.55 3.23577 2.25148 0
M  V30 11699 H 1096.84 3.89182 3.27742 0
M  V30 11700 H 1096.24 1.55731 5.43842 0
M  V30 11701 H 1094.8 2.1607 6.14945 0
M  V30 11702 N 1098.23 -0.663929 1.42933 0
M  V30 11703 C 1099.16 -1.78899 1.50058 0
M  V30 11704 C 1100.14 -1.66329 0.356164 0
M  V30 11705 O 1101.32 -1.85587 0.571944 0
M  V30 11706 C 1098.45 -3.17265 1.41281 0
M  V30 11707 C 1097.41 -3.44584 2.53861 0
M  V30 11708 C 1096.73 -4.82638 2.3014 0
M  V30 11709 C 1098.03 -3.40394 3.96143 0
M  V30 11710 H 1099.73 -1.73194 2.44222 0
M  V30 11711 H 1097.27 -0.83182 1.17545 0
M  V30 11712 H 1099.23 -3.95715 1.44872 0
M  V30 11713 H 1097.95 -3.23675 0.43616 0
M  V30 11714 H 1096.61 -2.685 2.49606 0
M  V30 11715 H 1096.26 -4.85711 1.30743 0
M  V30 11716 H 1095.96 -5.01879 3.056 0
M  V30 11717 H 1097.48 -5.63359 2.35497 0
M  V30 11718 H 1098.9 -4.08796 4.01943 0
M  V30 11719 H 1097.29 -3.7117 4.71543 0
M  V30 11720 H 1098.36 -2.38767 4.22041 0
M  V30 11721 N 1099.71 -1.29285 -0.901281 0
M  V30 11722 C 1100.95 -1.17339 -1.65407 0
M  V30 11723 C 1101.29 0.274834 -1.92245 0
M  V30 11724 O 1100.56 1.19865 -1.53176 0
M  V30 11725 C 1100.84 -1.98547 -3.00418 0
M  V30 11726 C 1100.7 -3.51501 -2.80655 0
M  V30 11727 C 1102.02 -1.81062 -4.01129 0
M  V30 11728 H 1099.13 -0.427624 -0.600255 0
M  V30 11729 H 1101.78 -1.58741 -1.0441 0
M  V30 11730 H 1099.93 -1.63366 -3.52482 0
M  V30 11731 H 1101.6 -3.96655 -2.35505 0
M  V30 11732 H 1099.84 -3.76504 -2.15469 0
M  V30 11733 H 1100.51 -4.03593 -3.76585 0
M  V30 11734 H 1102.99 -2.11788 -3.58169 0
M  V30 11735 H 1101.86 -2.40235 -4.93536 0
M  V30 11736 H 1102.13 -0.765388 -4.35424 0
M  V30 11737 N 1101.18 1.11143 -1.11736 0
M  V30 11738 C 1102.43 1.82586 -0.866412 0
M  V30 11739 C 1102.75 1.85227 0.609593 0
M  V30 11740 O 1102.02 1.32505 1.44288 0
M  V30 11741 H 1100.6 0.676149 -0.31754 0
M  V30 11742 H 1103.27 1.34516 -1.41037 0
M  V30 11743 H 1102.36 2.8635 -1.24136 0
M  V30 11744 N 1102.66 0.908147 1.28804 0
M  V30 11745 C 1103.63 0.397058 2.25735 0
M  V30 11746 C 1104.63 -0.473483 1.53671 0
M  V30 11747 O 1105.82 -0.277335 1.71978 0
M  V30 11748 C 1102.95 -0.431392 3.38159 0
M  V30 11749 H 1104.14 1.25323 2.72459 0
M  V30 11750 H 1101.69 0.687041 1.4039 0
M  V30 11751 H 1102.43 -1.3072 2.96787 0
M  V30 11752 H 1102.21 0.192502 3.91627 0
M  V30 11753 H 1103.7 -0.78 4.10251 0
M  V30 11754 N 1104.14 -1.42577 0.671525 0
M  V30 11755 C 1105.09 -2.30798 -0.00883676 0
M  V30 11756 C 1106.06 -1.4578 -0.796076 0
M  V30 11757 O 1107.24 -1.74617 -0.768987 0
M  V30 11758 C 1104.38 -3.31581 -0.956452 0
M  V30 11759 C 1103.5 -4.31691 -0.163381 0
M  V30 11760 C 1102.63 -5.19549 -1.10645 0
M  V30 11761 C 1101.67 -6.1134 -0.304876 0
M  V30 11762 N 1100.81 -6.91761 -1.20048 0
M  V30 11763 H 1105.65 -2.88426 0.749301 0
M  V30 11764 H 1103.18 -1.42074 0.381251 0
M  V30 11765 H 1105.14 -3.88539 -1.51966 0
M  V30 11766 H 1103.77 -2.75561 -1.68126 0
M  V30 11767 H 1102.82 -3.76879 0.516396 0
M  V30 11768 H 1104.14 -4.96683 0.459099 0
M  V30 11769 H 1103.29 -5.81223 -1.73969 0
M  V30 11770 H 1102.03 -4.54726 -1.76282 0
M  V30 11771 H 1101.03 -5.48738 0.341597 0
M  V30 11772 H 1102.26 -6.78211 0.347352 0
M  V30 11773 H 1100.2 -6.2957 -1.84331 0
M  V30 11774 H 1100.12 -7.53345 -0.633003 0
M  V30 11775 H 1101.39 -7.57924 -1.82129 0
M  V30 11776 N 1105.62 -0.414636 -1.52048 0
M  V30 11777 C 1106.57 0.408141 -2.27163 0
M  V30 11778 C 1107.54 1.03636 -1.29803 0
M  V30 11779 O 1108.72 1.05959 -1.58674 0
M  V30 11780 C 1105.86 1.51588 -3.10024 0
M  V30 11781 C 1104.97 0.908034 -4.22349 0
M  V30 11782 C 1104.11 1.98893 -4.9256 0
M  V30 11783 C 1103.15 1.35831 -5.96839 0
M  V30 11784 N 1102.28 2.37958 -6.60545 0
M  V30 11785 H 1107.12 -0.238822 -2.97041 0
M  V30 11786 H 1104.66 -0.129614 -1.46528 0
M  V30 11787 H 1106.62 2.16916 -3.56375 0
M  V30 11788 H 1105.25 2.13279 -2.42305 0
M  V30 11789 H 1104.3 0.143652 -3.80129 0
M  V30 11790 H 1105.61 0.407426 -4.97133 0
M  V30 11791 H 1104.77 2.71935 -5.42343 0
M  V30 11792 H 1103.51 2.5232 -4.17356 0
M  V30 11793 H 1102.51 0.613246 -5.46369 0
M  V30 11794 H 1103.74 0.831655 -6.73988 0
M  V30 11795 H 1101.68 2.90508 -5.88167 0
M  V30 11796 H 1101.6 1.92725 -7.31022 0
M  V30 11797 H 1102.87 3.10553 -7.14966 0
M  V30 11798 N 1107.1 1.56929 -0.145233 0
M  V30 11799 C 1108.51 1.82877 0.375884 0
M  V30 11800 C 1108.86 1.06384 1.64854 0
M  V30 11801 O 1107.98 0.30857 2.14189 0
M  V30 11802 C 1108.58 3.31725 0.688744 0
M  V30 11803 C 1107.14 3.58261 1.15439 0
M  V30 11804 C 1106.28 2.76737 0.176565 0
M  V30 11805 H 1109.24 1.54328 -0.36996 0
M  V30 11806 H 1109.26 3.47784 1.54359 0
M  V30 11807 H 1108.77 3.87371 -0.237694 0
M  V30 11808 H 1106.87 3.08 2.09683 0
M  V30 11809 H 1106.98 4.66732 1.08158 0
M  V30 11810 H 1105.35 2.45761 0.668843 0
M  V30 11811 H 1106.13 3.35154 -0.743432 0
M  V30 11812 N 1108.58 -0.128553 1.57075 0
M  V30 11813 C 1109.52 -1.17719 2.00611 0
M  V30 11814 C 1110.52 -1.43423 0.90146 0
M  V30 11815 O 1111.72 -1.43498 1.08666 0
M  V30 11816 H 1108.1 -0.396683 0.638864 0
M  V30 11817 H 1110.07 -0.783437 2.87932 0
M  V30 11818 C 1108.82 -2.49826 2.41831 0
M  V30 11819 H 1108.14 -2.30883 3.26394 0
M  V30 11820 H 1109.58 -3.21784 2.761 0
M  V30 11821 C 1108.04 -3.11712 1.27816 0
M  V30 11822 O 1108.57 -3.9736 0.588917 0
M  V30 11823 N 1106.78 -2.71442 1.03767 0
M  V30 11824 H 1106.32 -2.01891 1.59994 0
M  V30 11825 H 1106.28 -3.1318 0.276743 0
M  V30 11826 N 1110.05 -1.5248 -0.398459 0
M  V30 11827 C 1111 -1.77211 -1.50662 0
M  V30 11828 C 1112 -0.639638 -1.5686 0
M  V30 11829 O 1113.2 -0.821917 -1.60139 0
M  V30 11830 H 1109.58 -0.56057 -0.501264 0
M  V30 11831 H 1111.55 -2.70028 -1.26993 0
M  V30 11832 C 1110.3 -1.94944 -2.8791 0
M  V30 11833 H 1109.62 -2.8151 -2.83888 0
M  V30 11834 H 1111.06 -2.16243 -3.64712 0
M  V30 11835 C 1109.52 -0.719402 -3.29129 0
M  V30 11836 O 1110.05 0.107671 -4.01556 0
M  V30 11837 N 1108.25 -0.552228 -2.85305 0
M  V30 11838 H 1107.8 -1.22638 -2.26534 0
M  V30 11839 H 1107.76 0.269447 -3.13243 0
M  V30 11840 N 1111.53 0.65634 -1.43283 0
M  V30 11841 C 1112.78 1.41347 -1.44449 0
M  V30 11842 C 1113.1 1.94879 -0.0687217 0
M  V30 11843 O 1112.37 1.74235 0.895492 0
M  V30 11844 H 1110.95 0.524578 -0.531815 0
M  V30 11845 H 1113.61 0.774292 -1.7886 0
M  V30 11846 H 1112.71 2.25737 -2.15521 0
M  V30 11847 N 1113.01 1.29761 0.894412 0
M  V30 11848 C 1113.96 1.15341 1.99912 0
M  V30 11849 C 1114.93 0.0453488 1.66038 0
M  V30 11850 O 1116.11 0.213829 1.89598 0
M  V30 11851 C 1113.25 0.841432 3.34685 0
M  V30 11852 C 1112.36 2.03046 3.81309 0
M  V30 11853 C 1111.5 1.65739 5.04682 0
M  V30 11854 C 1110.54 2.81191 5.43689 0
M  V30 11855 N 1109.68 2.44244 6.58247 0
M  V30 11856 H 1114.52 2.09854 2.11578 0
M  V30 11857 H 1112.05 1.04421 1.03608 0
M  V30 11858 H 1114.01 0.641211 4.12243 0
M  V30 11859 H 1112.64 -0.066797 3.22731 0
M  V30 11860 H 1111.69 2.34222 2.9974 0
M  V30 11861 H 1113 2.89538 4.06164 0
M  V30 11862 H 1112.16 1.42036 5.8984 0
M  V30 11863 H 1110.9 0.764019 4.81678 0
M  V30 11864 H 1109.9 3.0557 4.57064 0
M  V30 11865 H 1111.13 3.712 5.68672 0
M  V30 11866 H 1109.07 1.57402 6.36837 0
M  V30 11867 H 1108.99 3.24269 6.82924 0
M  V30 11868 H 1110.26 2.23875 7.46659 0
M  V30 11869 N 1114.49 -1.10549 1.12324 0
M  V30 11870 C 1115.42 -2.18911 0.812416 0
M  V30 11871 C 1116.4 -1.68628 -0.22327 0
M  V30 11872 O 1117.58 -1.94015 -0.0847184 0
M  V30 11873 C 1114.71 -3.46288 0.264947 0
M  V30 11874 C 1113.67 -4.09838 1.23356 0
M  V30 11875 C 1112.99 -5.31901 0.546374 0
M  V30 11876 C 1114.29 -4.53686 2.58778 0
M  V30 11877 H 1115.99 -2.45169 1.71851 0
M  V30 11878 H 1113.53 -1.17834 0.827715 0
M  V30 11879 H 1115.49 -4.21385 0.0352364 0
M  V30 11880 H 1114.21 -3.19517 -0.676479 0
M  V30 11881 H 1112.87 -3.36746 1.44906 0
M  V30 11882 H 1112.52 -5.01406 -0.400157 0
M  V30 11883 H 1112.22 -5.75372 1.19249 0
M  V30 11884 H 1113.74 -6.09731 0.325673 0
M  V30 11885 H 1115.16 -5.20063 2.41263 0
M  V30 11886 H 1113.55 -5.08003 3.19457 0
M  V30 11887 H 1114.62 -3.66665 3.17309 0
M  V30 11888 N 1115.97 -0.914965 -1.28321 0
M  V30 11889 C 1117.19 -0.564023 -1.99583 0
M  V30 11890 C 1117.62 0.847821 -1.6791 0
M  V30 11891 O 1116.97 1.56682 -0.912171 0
M  V30 11892 C 1117.02 -0.781368 -3.52033 0
M  V30 11893 O 1116.13 0.159072 -4.12093 0
M  V30 11894 H 1115.47 -0.218565 -0.626997 0
M  V30 11895 H 1118 -1.23074 -1.63444 0
M  V30 11896 H 1118.01 -0.691946 -4.0209 0
M  V30 11897 H 1116.68 -1.81059 -3.7442 0
M  V30 11898 H 1115.26 0.0208145 -3.72894 0
M  V30 11899 N 1117.44 1.42219 -0.679077 0
M  V30 11900 C 1118.67 2.05815 -0.211649 0
M  V30 11901 C 1119.09 1.51037 1.13284 0
M  V30 11902 O 1118.44 0.651894 1.7046 0
M  V30 11903 C 1118.49 3.61218 -0.142663 0
M  V30 11904 O 1118.22 4.13965 -1.43402 0
M  V30 11905 C 1119.72 4.41934 0.347746 0
M  V30 11906 H 1116.94 0.663215 -0.101914 0
M  V30 11907 H 1119.48 1.82282 -0.927017 0
M  V30 11908 H 1117.64 3.83848 0.52342 0
M  V30 11909 H 1118.05 5.07872 -1.31021 0
M  V30 11910 H 1119.52 5.50921 0.344916 0
M  V30 11911 H 1120 4.16832 1.38377 0
M  V30 11912 H 1120.61 4.24332 -0.286751 0
M  V30 11913 N 1118.92 0.422693 1.51826 0
M  V30 11914 C 1120.15 -0.14753 2.06073 0
M  V30 11915 C 1120.56 -1.38264 1.2915 0
M  V30 11916 O 1119.9 -1.8052 0.340306 0
M  V30 11917 C 1119.96 -0.549558 3.55275 0
M  V30 11918 C 1119.63 0.576704 4.53347 0
M  V30 11919 C 1120.63 1.44442 4.99432 0
M  V30 11920 C 1118.31 0.753264 4.9662 0
M  V30 11921 C 1120.3 2.47352 5.87448 0
M  V30 11922 C 1117.99 1.78566 5.84429 0
M  V30 11923 C 1118.99 2.64419 6.29739 0
M  V30 11924 O 1118.68 3.65888 7.15808 0
M  V30 11925 H 1118.41 -0.0178911 0.675763 0
M  V30 11926 H 1120.96 0.596258 1.96555 0
M  V30 11927 H 1119.19 -1.34583 3.62525 0
M  V30 11928 H 1120.88 -1.04925 3.92104 0
M  V30 11929 H 1121.65 1.31948 4.66706 0
M  V30 11930 H 1117.53 0.0946405 4.60903 0
M  V30 11931 H 1121.07 3.14397 6.22736 0
M  V30 11932 H 1116.97 1.91086 6.16568 0
M  V30 11933 H 1117.74 3.62294 7.33952 0
M  V30 11934 N 1120.4 -1.5685 0.153553 0
M  V30 11935 C 1121.65 -1.96334 -0.495915 0
M  V30 11936 C 1121.97 -1.03873 -1.64441 0
M  V30 11937 O 1121.23 -0.069231 -1.95578 0
M  V30 11938 C 1121.53 -3.42022 -1.0371 0
M  V30 11939 C 1121.19 -4.509 -0.00637049 0
M  V30 11940 C 1119.86 -4.80402 0.276956 0
M  V30 11941 C 1122.21 -5.16556 0.694187 0
M  V30 11942 C 1119.54 -5.72866 1.26653 0
M  V30 11943 C 1121.89 -6.10087 1.67263 0
M  V30 11944 C 1120.55 -6.37965 1.96359 0
M  V30 11945 H 1119.82 -0.718436 -0.181468 0
M  V30 11946 H 1122.47 -1.89968 0.241768 0
M  V30 11947 H 1120.77 -3.45252 -1.85225 0
M  V30 11948 H 1122.47 -3.69903 -1.54831 0
M  V30 11949 H 1119.06 -4.27942 -0.237378 0
M  V30 11950 H 1123.25 -4.9389 0.488496 0
M  V30 11951 H 1118.5 -5.92756 1.49833 0
M  V30 11952 H 1122.68 -6.60036 2.22094 0
M  V30 11953 H 1120.3 -7.09416 2.73189 0
M  V30 11954 N 1121.88 0.120221 -1.57141 0
M  V30 11955 C 1123.13 0.826586 -1.84423 0
M  V30 11956 C 1123.45 1.80473 -0.738553 0
M  V30 11957 O 1122.72 1.94454 0.23755 0
M  V30 11958 H 1121.3 0.308246 -0.680436 0
M  V30 11959 H 1123.96 0.107835 -1.94601 0
M  V30 11960 H 1123.05 1.37256 -2.80298 0
M  V30 11961 N 1123.36 1.52689 0.390367 0
M  V30 11962 C 1124.3 1.7737 1.47677 0
M  V30 11963 C 1125.27 0.616864 1.54221 0
M  V30 11964 O 1126.46 0.856437 1.70499 0
M  V30 11965 C 1123.6 1.94715 2.84921 0
M  V30 11966 C 1122.71 3.22405 2.8754 0
M  V30 11967 C 1121.85 3.30074 4.16202 0
M  V30 11968 C 1120.89 4.51893 4.12867 0
M  V30 11969 N 1120.02 4.56851 5.33134 0
M  V30 11970 H 1124.86 2.70084 1.25932 0
M  V30 11971 H 1122.4 1.33813 0.610943 0
M  V30 11972 H 1124.36 2.02755 3.64618 0
M  V30 11973 H 1122.99 1.05363 3.0512 0
M  V30 11974 H 1122.04 3.23442 2.00223 0
M  V30 11975 H 1123.35 4.12156 2.80943 0
M  V30 11976 H 1122.51 3.3729 5.04302 0
M  V30 11977 H 1121.24 2.38295 4.25519 0
M  V30 11978 H 1120.25 4.44803 3.23156 0
M  V30 11979 H 1121.47 5.44987 4.05174 0
M  V30 11980 H 1119.42 3.67963 5.43083 0
M  V30 11981 H 1119.34 5.40472 5.28607 0
M  V30 11982 H 1120.61 4.6832 6.23134 0
M  V30 11983 N 1124.83 -0.648732 1.43629 0
M  V30 11984 C 1125.76 -1.77298 1.51947 0
M  V30 11985 C 1126.75 -1.65942 0.373785 0
M  V30 11986 O 1127.93 -1.8497 0.591596 0
M  V30 11987 C 1125.06 -3.15749 1.44638 0
M  V30 11988 C 1124.01 -3.41872 2.57502 0
M  V30 11989 C 1123.34 -4.8017 2.35246 0
M  V30 11990 C 1124.64 -3.36173 3.99731 0
M  V30 11991 H 1126.33 -1.70594 2.46045 0
M  V30 11992 H 1123.88 -0.819306 1.1842 0
M  V30 11993 H 1125.83 -3.94156 1.4906 0
M  V30 11994 H 1124.56 -3.23194 0.470466 0
M  V30 11995 H 1123.22 -2.65838 2.5244 0
M  V30 11996 H 1122.86 -4.84297 1.35887 0
M  V30 11997 H 1122.56 -4.9861 3.10906 0
M  V30 11998 H 1124.09 -5.6083 2.41459 0
M  V30 11999 H 1125.5 -4.0451 4.06257 0
M  V30 12000 H 1123.9 -3.66148 4.75453 0
M  V30 12001 H 1124.97 -2.34277 4.24549 0
M  V30 12002 N 1126.31 -1.30234 -0.887518 0
M  V30 12003 C 1127.56 -1.18675 -1.63587 0
M  V30 12004 C 1127.88 0.259342 -1.93268 0
M  V30 12005 O 1127.15 1.17523 -1.56733 0
M  V30 12006 H 1125.73 -0.436224 -0.606397 0
M  V30 12007 H 1128.39 -1.63326 -1.06351 0
M  V30 12008 H 1127.49 -1.74575 -2.58708 0
M  V30 12009 N 1127.79 1.09952 -1.12909 0
M  V30 12010 C 1129.04 1.82016 -0.887482 0
M  V30 12011 C 1129.37 1.85445 0.586546 0
M  V30 12012 O 1128.62 1.31446 1.44984 0
M  V30 12013 C 1128.92 3.28252 -1.41369 0
M  V30 12014 C 1128.59 3.44965 -2.90362 0
M  V30 12015 C 1127.25 3.49233 -3.31043 0
M  V30 12016 C 1129.6 3.49947 -3.86247 0
M  V30 12017 C 1126.93 3.56057 -4.66305 0
M  V30 12018 C 1129.28 3.58305 -5.21345 0
M  V30 12019 C 1127.94 3.6084 -5.61561 0
M  V30 12020 H 1127.21 0.666046 -0.324753 0
M  V30 12021 H 1129.86 1.29568 -1.41012 0
M  V30 12022 H 1128.17 3.83301 -0.81163 0
M  V30 12023 H 1129.86 3.82533 -1.20289 0
M  V30 12024 H 1126.45 3.42323 -2.57901 0
M  V30 12025 H 1130.64 3.45895 -3.55908 0
M  V30 12026 H 1125.89 3.56305 -4.96847 0
M  V30 12027 H 1130.07 3.61104 -5.95463 0
M  V30 12028 H 1127.69 3.6588 -6.6636 0
M  V30 12029 N 1129.27 0.921757 1.27833 0
M  V30 12030 C 1130.5 0.574368 1.98455 0
M  V30 12031 C 1130.91 -0.850577 1.69002 0
M  V30 12032 O 1130.25 -1.57607 0.943708 0
M  V30 12033 C 1130.31 0.713235 3.52354 0
M  V30 12034 C 1129.98 2.1092 4.05415 0
M  V30 12035 C 1130.97 3.08276 4.18643 0
M  V30 12036 C 1128.66 2.42454 4.3991 0
M  V30 12037 C 1130.65 4.35279 4.6563 0
M  V30 12038 C 1128.34 3.69694 4.8659 0
M  V30 12039 C 1129.34 4.6592 4.99407 0
M  V30 12040 O 1129.02 5.90896 5.45066 0
M  V30 12041 H 1128.76 0.216955 0.640239 0
M  V30 12042 H 1131.31 1.23932 1.63798 0
M  V30 12043 H 1129.54 -0.00881115 3.86699 0
M  V30 12044 H 1131.23 0.371776 4.04194 0
M  V30 12045 H 1132 2.85234 3.92258 0
M  V30 12046 H 1127.87 1.68303 4.2918 0
M  V30 12047 H 1131.42 5.10391 4.75549 0
M  V30 12048 H 1127.32 3.92557 5.12415 0
M  V30 12049 H 1128.08 5.938 5.63333 0
M  V30 12050 N 1130.75 -1.41857 0.686609 0
M  V30 12051 C 1131.99 -2.01368 0.213801 0
M  V30 12052 C 1132.32 -1.5434 -1.18361 0
M  V30 12053 O 1131.58 -0.741447 -1.81111 0
M  V30 12054 C 1131.88 -3.56783 0.209951 0
M  V30 12055 C 1131.54 -4.23288 1.55365 0
M  V30 12056 C 1130.2 -4.41169 1.92154 0
M  V30 12057 C 1132.56 -4.6066 2.43807 0
M  V30 12058 C 1129.88 -4.93697 3.16986 0
M  V30 12059 C 1132.24 -5.14573 3.67963 0
M  V30 12060 C 1130.9 -5.30667 4.04906 0
M  V30 12061 H 1130.17 -0.736858 0.0782352 0
M  V30 12062 H 1132.82 -1.69879 0.88393 0
M  V30 12063 H 1131.12 -3.88009 -0.543712 0
M  V30 12064 H 1132.82 -4.00625 -0.173267 0
M  V30 12065 H 1129.41 -4.09738 1.2575 0
M  V30 12066 H 1133.59 -4.46507 2.16668 0
M  V30 12067 H 1128.85 -5.04342 3.45615 0
M  V30 12068 H 1133.02 -5.42473 4.36687 0
M  V30 12069 H 1130.65 -5.71133 5.01709 0
M  V30 12070 N 1132.22 -0.430739 -1.51599 0
M  V30 12071 C 1133.16 0.419726 -2.25324 0
M  V30 12072 C 1134.17 0.991925 -1.29092 0
M  V30 12073 O 1135.36 0.887188 -1.54891 0
M  V30 12074 C 1132.46 1.59844 -2.98836 0
M  V30 12075 C 1131.63 1.14629 -4.22112 0
M  V30 12076 C 1130.69 2.19437 -4.78261 0
M  V30 12077 O 1129.72 1.79141 -5.40275 0
M  V30 12078 N 1130.92 3.51849 -4.61717 0
M  V30 12079 H 1133.68 -0.212112 -2.98948 0
M  V30 12080 H 1131.24 -0.259269 -1.59811 0
M  V30 12081 H 1133.24 2.29567 -3.33288 0
M  V30 12082 H 1131.81 2.13575 -2.28264 0
M  V30 12083 H 1131.03 0.276367 -3.9323 0
M  V30 12084 H 1132.31 0.821488 -5.02124 0
M  V30 12085 H 1131.71 3.87324 -4.12306 0
M  V30 12086 H 1130.27 4.17486 -5.00548 0
M  V30 12087 N 1133.7 1.56767 -0.161869 0
M  V30 12088 C 1134.93 2.01401 0.49523 0
M  V30 12089 C 1135.35 1.04133 1.56646 0
M  V30 12090 O 1134.71 0.0193747 1.8129 0
M  V30 12091 C 1134.76 3.44695 1.05913 0
M  V30 12092 O 1133.86 3.50475 2.1735 0
M  V30 12093 H 1133.2 0.65314 0.1196 0
M  V30 12094 H 1135.73 2.02903 -0.26298 0
M  V30 12095 H 1135.74 3.83805 1.3841 0
M  V30 12096 H 1134.42 4.14991 0.274749 0
M  V30 12097 H 1133 3.23218 1.85969 0
M  V30 12098 N 1135.18 -0.111886 1.57202 0
M  V30 12099 C 1136.09 -1.1556 2.04165 0
M  V30 12100 C 1137.11 -1.44898 0.963354 0
M  V30 12101 O 1138.28 -1.55873 1.27536 0
M  V30 12102 C 1135.35 -2.46048 2.44256 0
M  V30 12103 C 1134.41 -2.24043 3.66201 0
M  V30 12104 C 1133.64 -3.4831 4.04371 0
M  V30 12105 O 1133.86 -4.55895 3.42806 0
M  V30 12106 O 1132.8 -3.38891 4.9743 0
M  V30 12107 H 1136.62 -0.786778 2.93332 0
M  V30 12108 H 1134.21 -0.323196 1.45862 0
M  V30 12109 H 1136.09 -3.22916 2.70745 0
M  V30 12110 H 1134.77 -2.8239 1.58233 0
M  V30 12111 H 1133.67 -1.4501 3.44852 0
M  V30 12112 H 1135.01 -1.92602 4.52952 0
M  V30 12113 N 1136.66 -1.52894 -0.382264 0
M  V30 12114 C 1137.94 -1.58853 -1.14127 0
M  V30 12115 C 1138.32 -0.38582 -2.07544 0
M  V30 12116 O 1137.66 0.625323 -2.19777 0
M  V30 12117 C 1137.87 -2.93068 -1.89504 0
M  V30 12118 C 1139.22 -3.47048 -2.44629 0
M  V30 12119 O 1140.25 -2.94987 -1.99652 0
M  V30 12120 O 1139.1 -4.3802 -3.26804 0
M  V30 12121 H 1136.2 -0.640969 -0.522578 0
M  V30 12122 H 1138.74 -1.65231 -0.386873 0
M  V30 12123 H 1137.52 -3.72047 -1.2123 0
M  V30 12124 H 1137.14 -2.90106 -2.7189 0
M  V30 12125 N 1138.14 0.641106 -1.43971 0
M  V30 12126 C 1139.39 1.39676 -1.45511 0
M  V30 12127 C 1139.7 1.95403 -0.0877084 0
M  V30 12128 O 1140.91 2.71493 0.0193965 0
M  V30 12129 C 1139.36 2.52839 -2.56126 0
M  V30 12130 C 1138.97 2.03668 -3.99028 0
M  V30 12131 C 1140.71 3.30118 -2.66875 0
M  V30 12132 C 1138.62 3.14114 -5.01085 0
M  V30 12133 H 1137.55 0.524854 -0.541336 0
M  V30 12134 H 1140.2 0.69075 -1.70003 0
M  V30 12135 H 1138.58 3.25968 -2.24857 0
M  V30 12136 H 1139.76 1.3747 -4.39817 0
M  V30 12137 H 1138.07 1.39233 -3.92432 0
M  V30 12138 H 1140.67 4.12434 -3.40297 0
M  V30 12139 H 1141.01 3.78946 -1.72353 0
M  V30 12140 H 1141.55 2.64075 -2.97505 0
M  V30 12141 H 1138.28 2.70241 -5.97202 0
M  V30 12142 H 1137.8 3.78985 -4.64898 0
M  V30 12143 H 1139.48 3.79051 -5.24337 0
M  V30 12144 N 1139.62 1.30703 0.880598 0
M  V30 12145 C 1140.56 1.17455 1.98678 0
M  V30 12146 C 1141.53 0.0629569 1.65981 0
M  V30 12147 O 1142.72 0.233926 1.89361 0
M  V30 12148 C 1139.86 0.876882 3.33774 0
M  V30 12149 C 1138.97 2.07078 3.79134 0
M  V30 12150 C 1138.11 1.71082 5.02896 0
M  V30 12151 C 1137.14 2.86942 5.40676 0
M  V30 12152 N 1136.28 2.51212 6.55619 0
M  V30 12153 H 1141.12 2.12086 2.09341 0
M  V30 12154 H 1138.66 1.05514 1.02495 0
M  V30 12155 H 1140.62 0.684899 4.1154 0
M  V30 12156 H 1139.25 -0.0325633 3.22784 0
M  V30 12157 H 1138.3 2.37388 2.97239 0
M  V30 12158 H 1139.61 2.9383 4.0307 0
M  V30 12159 H 1138.76 1.48284 5.883 0
M  V30 12160 H 1137.5 0.815064 4.80841 0
M  V30 12161 H 1136.51 3.10401 4.53797 0
M  V30 12162 H 1137.73 3.77211 5.64703 0
M  V30 12163 H 1135.68 1.64147 6.35131 0
M  V30 12164 H 1135.6 3.31495 6.79446 0
M  V30 12165 H 1136.86 2.31781 7.44243 0
M  V30 12166 N 1141.09 -1.09351 1.1349 0
M  V30 12167 C 1142.34 -1.80915 0.89177 0
M  V30 12168 C 1142.66 -1.86688 -0.5837 0
M  V30 12169 O 1143.86 -2.54568 -0.943788 0
M  V30 12170 C 1142.32 -3.25009 1.54587 0
M  V30 12171 C 1141.93 -3.27501 3.05691 0
M  V30 12172 C 1143.67 -4.01323 1.38346 0
M  V30 12173 C 1141.58 -4.66123 3.63983 0
M  V30 12174 H 1140.51 -0.677961 0.329978 0
M  V30 12175 H 1143.16 -1.22893 1.3627 0
M  V30 12176 H 1141.54 -3.83098 1.0026 0
M  V30 12177 H 1142.71 -2.79174 3.66604 0
M  V30 12178 H 1141.03 -2.64677 3.21457 0
M  V30 12179 H 1143.63 -5.03739 1.79307 0
M  V30 12180 H 1143.97 -4.15003 0.328404 0
M  V30 12181 H 1144.5 -3.49679 1.89656 0
M  V30 12182 H 1141.24 -4.57646 4.69298 0
M  V30 12183 H 1140.76 -5.14772 3.07848 0
M  V30 12184 H 1142.44 -5.35097 3.63703 0
M  V30 12185 N 1142.57 -0.928524 -1.27343 0
M  V30 12186 C 1143.48 -0.433901 -2.30553 0
M  V30 12187 C 1144.5 0.485832 -1.6708 0
M  V30 12188 O 1145.67 0.36844 -1.98001 0
M  V30 12189 C 1142.74 0.304617 -3.45359 0
M  V30 12190 C 1141.8 -0.650131 -4.24349 0
M  V30 12191 C 1141.03 0.0532372 -5.33673 0
M  V30 12192 O 1141.26 1.27246 -5.56026 0
M  V30 12193 O 1140.19 -0.619009 -5.98709 0
M  V30 12194 H 1144.02 -1.2909 -2.74899 0
M  V30 12195 H 1141.6 -0.693903 -1.32308 0
M  V30 12196 H 1143.48 0.721137 -4.15184 0
M  V30 12197 H 1142.16 1.13721 -3.03066 0
M  V30 12198 H 1141.06 -1.11635 -3.57055 0
M  V30 12199 H 1142.4 -1.44996 -4.70358 0
M  V30 12200 N 1144.05 1.41491 -0.694123 0
M  V30 12201 C 1145.3 2.00479 -0.221585 0
M  V30 12202 C 1145.61 1.55605 1.18518 0
M  V30 12203 O 1146.82 2.07143 1.7551 0
M  V30 12204 C 1145.27 3.5824 -0.345264 0
M  V30 12205 C 1144.88 4.12096 -1.7573 0
M  V30 12206 C 1146.63 4.24446 0.0675731 0
M  V30 12207 C 1144.53 5.62286 -1.83271 0
M  V30 12208 H 1143.46 0.749841 -0.0790854 0
M  V30 12209 H 1146.11 1.61987 -0.86211 0
M  V30 12210 H 1144.5 3.94328 0.363487 0
M  V30 12211 H 1145.67 3.8743 -2.49469 0
M  V30 12212 H 1143.98 3.58411 -2.11969 0
M  V30 12213 H 1146.58 5.34691 0.0316485 0
M  V30 12214 H 1146.92 4.01338 1.10606 0
M  V30 12215 H 1147.46 3.93388 -0.59085 0
M  V30 12216 H 1144.2 5.9022 -2.85168 0
M  V30 12217 H 1143.72 5.88883 -1.13914 0
M  V30 12218 H 1145.4 6.27033 -1.59494 0
M  V30 12219 N 1145.53 0.438773 1.51369 0
M  V30 12220 C 1146.75 -0.128221 2.07003 0
M  V30 12221 C 1147.18 -1.3557 1.30393 0
M  V30 12222 O 1146.54 -1.7804 0.342283 0
M  V30 12223 C 1146.58 -0.42761 3.58056 0
M  V30 12224 O 1145.69 -1.51382 3.83611 0
M  V30 12225 H 1145.03 -0.00123679 0.663999 0
M  V30 12226 H 1147.56 0.62052 1.94963 0
M  V30 12227 H 1147.57 -0.677645 4.02333 0
M  V30 12228 H 1146.24 0.469535 4.13241 0
M  V30 12229 H 1144.82 -1.25363 3.51196 0
M  V30 12230 N 1147.01 -1.56678 0.170181 0
M  V30 12231 C 1148.23 -2.01223 -0.481362 0
M  V30 12232 C 1148.65 -1.05039 -1.56883 0
M  V30 12233 O 1148.01 -0.0510751 -1.82429 0
M  V30 12234 C 1148.06 -3.45588 -1.06073 0
M  V30 12235 O 1147.78 -4.38097 -0.0166754 0
M  V30 12236 C 1149.28 -4.05527 -1.79061 0
M  V30 12237 H 1146.5 -0.659574 -0.1233 0
M  V30 12238 H 1149.04 -2.02689 0.271576 0
M  V30 12239 H 1147.2 -3.449 -1.76417 0
M  V30 12240 H 1147.61 -5.22615 -0.444276 0
M  V30 12241 H 1149.09 -5.08467 -2.1486 0
M  V30 12242 H 1149.56 -3.47554 -2.68519 0
M  V30 12243 H 1150.17 -4.09914 -1.13361 0
M  V30 12244 N 1148.48 0.103547 -1.57259 0
M  V30 12245 C 1149.39 1.14475 -2.04774 0
M  V30 12246 C 1150.41 1.44385 -0.971025 0
M  V30 12247 O 1151.59 1.55195 -1.28361 0
M  V30 12248 C 1148.65 2.4475 -2.45558 0
M  V30 12249 C 1147.71 2.22098 -3.67384 0
M  V30 12250 C 1146.94 3.4616 -4.06213 0
M  V30 12251 O 1147.17 4.5407 -3.45219 0
M  V30 12252 O 1146.1 3.36248 -4.9922 0
M  V30 12253 H 1149.93 0.771211 -2.93745 0
M  V30 12254 H 1147.51 0.315456 -1.46032 0
M  V30 12255 H 1149.39 3.21476 -2.72454 0
M  V30 12256 H 1148.07 2.81547 -1.59728 0
M  V30 12257 H 1146.98 1.43179 -3.45616 0
M  V30 12258 H 1148.31 1.90197 -4.53967 0
M  V30 12259 N 1149.96 1.53094 0.37415 0
M  V30 12260 C 1151.19 1.72758 1.13852 0
M  V30 12261 C 1151.6 0.452638 1.83294 0
M  V30 12262 O 1150.96 -0.573906 1.73241 0
M  V30 12263 C 1151.01 2.88724 2.17534 0
M  V30 12264 O 1150.73 4.11284 1.5092 0
M  V30 12265 C 1152.23 3.2019 3.06584 0
M  V30 12266 H 1149.45 0.578028 0.340771 0
M  V30 12267 H 1152 1.99805 0.435683 0
M  V30 12268 H 1150.15 2.64096 2.83429 0
M  V30 12269 H 1150.57 4.76162 2.19932 0
M  V30 12270 H 1152.04 4.04759 3.75332 0
M  V30 12271 H 1152.52 2.35193 3.70919 0
M  V30 12272 H 1153.12 3.46712 2.46315 0
M  V30 12273 N 1151.44 -0.633461 1.44309 0
M  V30 12274 C 1152.69 -1.38902 1.4625 0
M  V30 12275 C 1153 -1.95354 0.0980699 0
M  V30 12276 O 1154.21 -2.715 -0.0049983 0
M  V30 12277 C 1152.66 -2.51477 2.57463 0
M  V30 12278 C 1152.27 -2.01549 4.00103 0
M  V30 12279 C 1154.02 -3.28698 2.68622 0
M  V30 12280 C 1151.92 -3.11452 5.02744 0
M  V30 12281 H 1150.85 -0.521976 0.544112 0
M  V30 12282 H 1153.5 -0.681725 1.70367 0
M  V30 12283 H 1151.89 -3.24771 2.26582 0
M  V30 12284 H 1153.06 -1.35135 4.4054 0
M  V30 12285 H 1151.37 -1.3715 3.93165 0
M  V30 12286 H 1153.97 -4.10624 3.42479 0
M  V30 12287 H 1154.31 -3.78027 1.7436 0
M  V30 12288 H 1154.85 -2.62494 2.98901 0
M  V30 12289 H 1151.59 -2.6707 5.98627 0
M  V30 12290 H 1151.11 -3.76514 4.66902 0
M  V30 12291 H 1152.79 -3.76265 5.2634 0
M  V30 12292 N 1152.92 -1.31168 -0.873655 0
M  V30 12293 C 1154.15 -1.23595 -1.65927 0
M  V30 12294 C 1154.56 0.199349 -1.87745 0
M  V30 12295 O 1153.92 1.13013 -1.43298 0
M  V30 12296 C 1153.97 -1.97268 -3.02932 0
M  V30 12297 O 1153.69 -3.35196 -2.82091 0
M  V30 12298 C 1155.19 -1.9649 -3.97374 0
M  V30 12299 H 1152.41 -0.427228 -0.517414 0
M  V30 12300 H 1154.96 -1.72983 -1.09074 0
M  V30 12301 H 1153.11 -1.51651 -3.56484 0
M  V30 12302 H 1153.52 -3.7266 -3.69087 0
M  V30 12303 H 1155 -2.52557 -4.90835 0
M  V30 12304 H 1155.48 -0.946525 -4.28879 0
M  V30 12305 H 1156.08 -2.4197 -3.49758 0
M  V30 12306 N 1154.4 1.08748 -1.14068 0
M  V30 12307 C 1155.33 2.17591 -0.84714 0
M  V30 12308 C 1156.31 1.68962 0.196415 0
M  V30 12309 O 1157.49 1.94125 0.0538415 0
M  V30 12310 C 1154.62 3.45823 -0.320005 0
M  V30 12311 C 1153.58 4.07824 -1.2986 0
M  V30 12312 C 1152.9 5.30965 -0.630925 0
M  V30 12313 C 1154.2 4.49512 -2.65963 0
M  V30 12314 H 1155.9 2.42404 -1.75729 0
M  V30 12315 H 1153.44 1.16502 -0.846356 0
M  V30 12316 H 1155.4 4.21276 -0.102271 0
M  V30 12317 H 1154.12 3.20553 0.625561 0
M  V30 12318 H 1152.78 3.34398 -1.50245 0
M  V30 12319 H 1152.43 5.01979 0.320337 0
M  V30 12320 H 1152.13 5.73402 -1.28388 0
M  V30 12321 H 1153.65 6.09136 -0.422635 0
M  V30 12322 H 1155.06 5.16159 -2.49506 0
M  V30 12323 H 1153.46 5.02857 -3.27498 0
M  V30 12324 H 1154.53 3.6157 -3.23102 0
M  V30 12325 N 1155.87 0.935264 1.26849 0
M  V30 12326 C 1157.1 0.595704 1.98661 0
M  V30 12327 C 1157.52 -0.821001 1.69237 0
M  V30 12328 O 1156.88 -1.55211 0.936982 0
M  V30 12329 C 1156.93 0.837275 3.50745 0
M  V30 12330 O 1156.03 -0.0934914 4.12294 0
M  V30 12331 H 1155.38 0.228512 0.623441 0
M  V30 12332 H 1157.91 1.25658 1.61466 0
M  V30 12333 H 1157.92 0.755827 4.00938 0
M  V30 12334 H 1156.59 1.86993 3.71492 0
M  V30 12335 H 1155.17 0.0385124 3.7288 0
M  V30 12336 N 1157.35 -1.41121 0.701616 0
M  V30 12337 C 1158.3 -2.27994 0.0168361 0
M  V30 12338 C 1159.29 -1.42523 -0.746733 0
M  V30 12339 O 1160.48 -1.6574 -0.621232 0
M  V30 12340 C 1157.61 -3.30898 -0.914417 0
M  V30 12341 C 1156.69 -4.23846 -0.146776 0
M  V30 12342 N 1157.08 -4.9839 0.862624 0
M  V30 12343 C 1155.38 -4.44366 -0.38138 0
M  V30 12344 C 1156.08 -5.66463 1.32266 0
M  V30 12345 N 1155.06 -5.39731 0.647433 0
M  V30 12346 H 1158.86 -2.83065 0.790675 0
M  V30 12347 H 1156.38 -1.53405 0.532977 0
M  V30 12348 H 1158.37 -3.91964 -1.4202 0
M  V30 12349 H 1157.03 -2.77387 -1.68779 0
M  V30 12350 H 1158.04 -5.02761 1.24305 0
M  V30 12351 H 1154.72 -4.01856 -1.13216 0
M  V30 12352 H 1156.11 -6.36213 2.16061 0
M  V30 12353 N 1158.83 -0.446794 -1.51134 0
M  V30 12354 C 1160.08 0.116263 -2.01765 0
M  V30 12355 C 1160.4 1.42382 -1.33238 0
M  V30 12356 O 1159.67 1.9018 -0.469915 0
M  V30 12357 H 1158.25 0.0459558 -0.745585 0
M  V30 12358 H 1160.91 -0.591664 -1.85702 0
M  V30 12359 H 1160.01 0.285358 -3.10793 0
M  V30 12360 N 1160.31 1.56586 -0.178487 0
M  V30 12361 C 1161.53 2.01915 0.473841 0
M  V30 12362 C 1161.96 1.05789 1.55533 0
M  V30 12363 O 1161.32 0.0386018 1.81259 0
M  V30 12364 C 1161.36 3.45799 1.02251 0
M  V30 12365 O 1160.47 3.52761 2.1362 0
M  V30 12366 H 1159.81 0.654372 0.112666 0
M  V30 12367 H 1162.34 2.02613 -0.284486 0
M  V30 12368 H 1162.35 3.85252 1.34332 0
M  V30 12369 H 1161.02 4.1526 0.230719 0
M  V30 12370 H 1159.6 3.25172 1.8253 0
M  V30 12371 N 1161.79 -0.095206 1.57312 0
M  V30 12372 C 1163.01 -0.81614 1.90667 0
M  V30 12373 C 1163.44 -1.71494 0.772746 0
M  V30 12374 O 1162.79 -1.79192 -0.275682 0
M  V30 12375 C 1162.84 -1.60555 3.22885 0
M  V30 12376 O 1161.95 -2.71448 3.10467 0
M  V30 12377 H 1161.29 -0.224217 0.624998 0
M  V30 12378 H 1163.82 -0.070464 2.04479 0
M  V30 12379 H 1163.83 -1.98979 3.5619 0
M  V30 12380 H 1162.5 -0.945918 4.05 0
M  V30 12381 H 1161.08 -2.36053 2.88675 0
M  V30 12382 N 1163.26 -1.53291 -0.366026 0
M  V30 12383 C 1164.49 -1.73359 -1.12934 0
M  V30 12384 C 1164.91 -0.462352 -1.83051 0
M  V30 12385 O 1164.26 0.564711 -1.73543 0
M  V30 12386 C 1164.32 -2.89873 -2.15999 0
M  V30 12387 O 1164.04 -4.12079 -1.48737 0
M  V30 12388 C 1165.54 -3.21811 -3.04881 0
M  V30 12389 H 1162.76 -0.579827 -0.337701 0
M  V30 12390 H 1165.3 -2.00033 -0.425081 0
M  V30 12391 H 1163.46 -2.65595 -2.82025 0
M  V30 12392 H 1163.87 -4.77322 -2.17404 0
M  V30 12393 H 1165.34 -4.06744 -3.7318 0
M  V30 12394 H 1165.82 -2.37156 -3.69667 0
M  V30 12395 H 1166.43 -3.48013 -2.44473 0
M  V30 12396 N 1164.74 0.6258 -1.44643 0
M  V30 12397 C 1165.99 1.38525 -1.47706 0
M  V30 12398 C 1166.32 1.94179 -0.111703 0
M  V30 12399 O 1165.57 1.74432 0.887237 0
M  V30 12400 C 1165.87 2.56466 -2.48917 0
M  V30 12401 C 1165.54 2.19069 -3.94106 0
M  V30 12402 C 1164.2 2.08583 -4.33643 0
M  V30 12403 C 1166.55 1.89608 -4.85488 0
M  V30 12404 C 1163.88 1.66831 -5.6248 0
M  V30 12405 C 1166.23 1.49347 -6.14718 0
M  V30 12406 C 1164.9 1.37406 -6.53204 0
M  V30 12407 H 1164.17 0.506899 -0.540494 0
M  V30 12408 H 1166.81 0.709128 -1.77887 0
M  V30 12409 H 1165.12 3.29335 -2.12239 0
M  V30 12410 H 1166.81 3.14695 -2.48532 0
M  V30 12411 H 1163.4 2.28151 -3.62829 0
M  V30 12412 H 1167.59 1.96616 -4.55693 0
M  V30 12413 H 1162.84 1.56195 -5.91112 0
M  V30 12414 H 1167.02 1.2559 -6.84982 0
M  V30 12415 H 1164.65 1.04826 -7.52938 0
M  V30 12416 N 1166.22 1.31629 0.866686 0
M  V30 12417 C 1167.45 1.24609 1.65793 0
M  V30 12418 C 1167.87 -0.184944 1.87189 0
M  V30 12419 O 1167.23 -1.1322 1.41601 0
M  V30 12420 C 1167.28 1.9988 3.00134 0
M  V30 12421 O 1166.38 1.33838 3.90079 0
M  V30 12422 H 1165.72 0.430051 0.505917 0
M  V30 12423 H 1168.25 1.73752 1.08035 0
M  V30 12424 H 1168.26 2.09599 3.50046 0
M  V30 12425 H 1166.94 3.03947 2.83882 0
M  V30 12426 H 1165.51 1.3259 3.48532 0
M  V30 12427 N 1167.7 -1.08142 1.14644 0
M  V30 12428 C 1168.63 -2.17139 0.858667 0
M  V30 12429 C 1169.61 -1.69064 -0.187452 0
M  V30 12430 O 1170.8 -1.94151 -0.0435458 0
M  V30 12431 C 1167.93 -3.45648 0.33834 0
M  V30 12432 C 1166.88 -4.07129 1.32021 0
M  V30 12433 C 1166.21 -5.30623 0.659075 0
M  V30 12434 C 1167.51 -4.48095 2.68343 0
M  V30 12435 H 1169.2 -2.41468 1.77012 0
M  V30 12436 H 1166.75 -1.16052 0.852523 0
M  V30 12437 H 1168.7 -4.21216 0.124611 0
M  V30 12438 H 1167.42 -3.2088 -0.608553 0
M  V30 12439 H 1166.08 -3.33596 1.52016 0
M  V30 12440 H 1165.73 -5.02142 -0.293711 0
M  V30 12441 H 1165.43 -5.72714 1.31427 0
M  V30 12442 H 1166.95 -6.08903 0.454933 0
M  V30 12443 H 1168.37 -5.14828 2.5224 0
M  V30 12444 H 1166.76 -5.01113 3.30161 0
M  V30 12445 H 1167.83 -3.59852 3.25015 0
M  V30 12446 N 1169.18 -0.941978 -1.26351 0
M  V30 12447 C 1170.4 -0.606231 -1.98342 0
M  V30 12448 C 1170.83 0.812014 -1.6967 0
M  V30 12449 O 1170.19 1.54712 -0.9452 0
M  V30 12450 C 1170.23 -0.855864 -3.50296 0
M  V30 12451 O 1169.34 0.0716251 -4.12338 0
M  V30 12452 H 1168.68 -0.231815 -0.62222 0
M  V30 12453 H 1171.21 -1.26513 -1.60797 0
M  V30 12454 H 1171.22 -0.777079 -4.00531 0
M  V30 12455 H 1169.89 -1.8896 -3.70496 0
M  V30 12456 H 1168.47 -0.0582866 -3.72854 0
M  V30 12457 N 1170.66 1.40747 -0.709091 0
M  V30 12458 C 1171.9 2.01796 -0.254976 0
M  V30 12459 C 1172.26 1.55202 1.13711 0
M  V30 12460 O 1171.55 0.759312 1.75912 0
M  V30 12461 C 1171.74 3.56404 -0.266685 0
M  V30 12462 C 1171.57 4.18005 -1.65837 0
M  V30 12463 C 1170.34 4.51719 -2.26447 0
M  V30 12464 C 1172.54 4.43302 -2.60744 0
M  V30 12465 N 1170.52 4.9868 -3.58039 0
M  V30 12466 C 1171.89 4.92185 -3.77033 0
M  V30 12467 C 1173.95 4.25332 -2.58839 0
M  V30 12468 C 1172.65 5.24984 -4.91715 0
M  V30 12469 C 1174.68 4.59228 -3.72644 0
M  V30 12470 C 1174.04 5.08294 -4.87664 0
M  V30 12471 H 1170.14 0.769549 -0.138991 0
M  V30 12472 H 1172.72 1.71081 -0.929488 0
M  V30 12473 H 1170.89 3.86562 0.377365 0
M  V30 12474 H 1172.63 4.04188 0.203528 0
M  V30 12475 H 1169.38 4.38631 -1.78605 0
M  V30 12476 H 1169.8 5.2655 -4.25528 0
M  V30 12477 H 1174.45 3.86623 -1.71121 0
M  V30 12478 H 1172.16 5.6261 -5.80082 0
M  V30 12479 H 1175.75 4.4697 -3.72437 0
M  V30 12480 H 1174.63 5.3403 -5.74267 0
M  V30 12481 N 1172.13 0.454803 1.50895 0
M  V30 12482 C 1173.36 -0.106259 2.07128 0
M  V30 12483 C 1173.78 -1.3418 1.31823 0
M  V30 12484 O 1173.14 -1.77667 0.361147 0
M  V30 12485 C 1173.19 -0.389609 3.58489 0
M  V30 12486 O 1172.29 -1.47305 3.85195 0
M  V30 12487 H 1171.63 0.00580588 0.663975 0
M  V30 12488 H 1174.16 0.641163 1.94294 0
M  V30 12489 H 1174.17 -0.634934 4.03029 0
M  V30 12490 H 1172.85 0.513338 4.1272 0
M  V30 12491 H 1171.43 -1.21631 3.52506 0
M  V30 12492 N 1173.61 -1.56489 0.186789 0
M  V30 12493 C 1174.89 -1.89066 -0.501337 0
M  V30 12494 C 1175.27 -1.09906 -1.80233 0
M  V30 12495 O 1174.62 -0.197626 -2.27644 0
M  V30 12496 C 1174.83 -3.41318 -0.728207 0
M  V30 12497 C 1176.17 -4.11379 -1.0513 0
M  V30 12498 O 1177.2 -3.46722 -0.816216 0
M  V30 12499 O 1176.06 -5.25638 -1.49557 0
M  V30 12500 H 1173.15 -0.784966 -0.260303 0
M  V30 12501 H 1175.7 -1.68183 0.226382 0
M  V30 12502 H 1174.47 -3.90834 0.19088 0
M  V30 12503 H 1174.09 -3.67865 -1.50869 0
M  V30 12504 N 1175.09 0.086862 -1.5736 0
M  V30 12505 C 1176.32 0.802167 -1.90717 0
M  V30 12506 C 1176.73 1.71875 -0.781304 0
M  V30 12507 O 1176.09 1.80831 0.246255 0
M  V30 12508 C 1176.14 1.60858 -3.23739 0
M  V30 12509 O 1175.86 0.728851 -4.31995 0
M  V30 12510 C 1177.36 2.42621 -3.71012 0
M  V30 12511 H 1174.58 0.228914 -0.630745 0
M  V30 12512 H 1177.13 0.061634 -2.04407 0
M  V30 12513 H 1175.28 2.30153 -3.11622 0
M  V30 12514 H 1175.7 1.2882 -5.08435 0
M  V30 12515 H 1177.17 2.94683 -4.66761 0
M  V30 12516 H 1177.65 3.21462 -2.99264 0
M  V30 12517 H 1178.25 1.78509 -3.86024 0
M  V30 12518 N 1176.57 1.53483 0.357892 0
M  V30 12519 C 1177.53 1.79782 1.42166 0
M  V30 12520 C 1178.53 0.668441 1.46248 0
M  V30 12521 O 1179.72 0.936677 1.46874 0
M  V30 12522 C 1176.85 1.92686 2.8122 0
M  V30 12523 H 1178.05 2.74794 1.20117 0
M  V30 12524 H 1175.6 1.44677 0.591468 0
M  V30 12525 H 1176.33 0.997669 3.08573 0
M  V30 12526 H 1176.12 2.74837 2.79655 0
M  V30 12527 H 1177.61 2.14599 3.58242 0
M  V30 12528 N 1178.05 -0.61812 1.44973 0
M  V30 12529 C 1178.98 -1.74299 1.48837 0
M  V30 12530 C 1179.99 -1.58296 0.38028 0
M  V30 12531 O 1181.18 -1.66371 0.646757 0
M  V30 12532 C 1178.28 -3.12179 1.31901 0
M  V30 12533 C 1177.45 -3.54519 2.56193 0
M  V30 12534 C 1176.51 -4.71324 2.33966 0
M  V30 12535 O 1175.54 -4.78975 3.07525 0
M  V30 12536 N 1176.74 -5.63894 1.37854 0
M  V30 12537 H 1179.5 -1.7145 2.45815 0
M  V30 12538 H 1177.07 -0.803087 1.40578 0
M  V30 12539 H 1179.06 -3.88059 1.14858 0
M  V30 12540 H 1177.63 -3.09595 0.43239 0
M  V30 12541 H 1176.85 -2.68711 2.88423 0
M  V30 12542 H 1178.14 -3.79563 3.38835 0
M  V30 12543 H 1177.53 -5.60418 0.771273 0
M  V30 12544 H 1176.09 -6.3935 1.26787 0
M  V30 12545 N 1179.52 -1.32087 -0.859693 0
M  V30 12546 C 1180.77 -1.22542 -1.6159 0
M  V30 12547 C 1181.1 0.213533 -1.93022 0
M  V30 12548 O 1180.38 1.14931 -1.56911 0
M  V30 12549 C 1180.66 -2.08004 -2.93949 0
M  V30 12550 C 1180.51 -3.60252 -2.6933 0
M  V30 12551 C 1181.83 -1.93732 -3.95166 0
M  V30 12552 H 1178.95 -0.446504 -0.586347 0
M  V30 12553 H 1181.59 -1.61982 -0.993064 0
M  V30 12554 H 1179.74 -1.74498 -3.47106 0
M  V30 12555 H 1181.42 -4.03947 -2.22766 0
M  V30 12556 H 1179.66 -3.83169 -2.03382 0
M  V30 12557 H 1180.33 -4.1537 -3.63555 0
M  V30 12558 H 1182.81 -2.23075 -3.5125 0
M  V30 12559 H 1181.68 -2.55815 -4.85644 0
M  V30 12560 H 1181.94 -0.903528 -4.32769 0
M  V30 12561 N 1181 1.07532 -1.15215 0
M  V30 12562 C 1182.23 1.83817 -0.949687 0
M  V30 12563 C 1182.64 1.82004 0.501991 0
M  V30 12564 O 1182 1.23014 1.34811 0
M  V30 12565 C 1182.05 3.30978 -1.45382 0
M  V30 12566 O 1181.77 3.32844 -2.84863 0
M  V30 12567 C 1183.27 4.24037 -1.29257 0
M  V30 12568 H 1180.49 0.58 -0.337404 0
M  V30 12569 H 1183.04 1.35752 -1.52944 0
M  V30 12570 H 1181.19 3.76399 -0.916638 0
M  V30 12571 H 1181.61 4.24773 -3.07682 0
M  V30 12572 H 1183.08 5.25371 -1.69379 0
M  V30 12573 H 1183.56 4.38563 -0.236519 0
M  V30 12574 H 1184.16 3.8445 -1.81874 0
M  V30 12575 N 1182.48 0.948665 1.2585 0
M  V30 12576 C 1183.43 0.455115 2.28104 0
M  V30 12577 C 1184.42 -0.471508 1.62706 0
M  V30 12578 O 1185.63 -0.348895 1.76586 0
M  V30 12579 H 1182 0.128659 0.740912 0
M  V30 12580 H 1183.97 1.32991 2.67125 0
M  V30 12581 C 1182.72 -0.25729 3.46747 0
M  V30 12582 H 1182.05 0.44658 3.97298 0
M  V30 12583 H 1183.49 -0.566736 4.20195 0
M  V30 12584 C 1181.95 -1.47772 3.02762 0
M  V30 12585 O 1182.48 -2.57571 3.08253 0
M  V30 12586 N 1180.68 -1.33694 2.5802 0
M  V30 12587 H 1180.23 -0.443595 2.53752 0
M  V30 12588 H 1180.19 -2.1547 2.28954 0
M  V30 12589 N 1183.96 -1.40369 0.716545 0
M  V30 12590 C 1184.89 -2.29186 0.0251905 0
M  V30 12591 C 1185.9 -1.45877 -0.722761 0
M  V30 12592 O 1187.09 -1.69155 -0.569982 0
M  V30 12593 C 1184.19 -3.24161 -0.988589 0
M  V30 12594 C 1183.37 -4.36329 -0.30597 0
M  V30 12595 C 1182.42 -5.11736 -1.22527 0
M  V30 12596 O 1181.45 -5.64758 -0.7097 0
M  V30 12597 N 1182.65 -5.21183 -2.55634 0
M  V30 12598 H 1185.42 -2.8916 0.787808 0
M  V30 12599 H 1182.98 -1.51749 0.564253 0
M  V30 12600 H 1184.97 -3.71479 -1.60578 0
M  V30 12601 H 1183.54 -2.65347 -1.65256 0
M  V30 12602 H 1182.76 -3.91125 0.491432 0
M  V30 12603 H 1184.05 -5.08523 0.167827 0
M  V30 12604 H 1183.45 -4.7959 -3.00017 0
M  V30 12605 H 1182 -5.72005 -3.12495 0
M  V30 12606 N 1185.44 -0.462799 -1.50652 0
M  V30 12607 C 1186.85 -0.11648 -1.59174 0
M  V30 12608 C 1187.05 1.37638 -1.47167 0
M  V30 12609 O 1186.11 2.14886 -1.3259 0
M  V30 12610 C 1187.42 -0.659289 -2.93383 0
M  V30 12611 C 1188.97 -0.62198 -3.06758 0
M  V30 12612 C 1189.44 -1.14219 -4.43529 0
M  V30 12613 N 1190.94 -1.10125 -4.49919 0
M  V30 12614 C 1191.67 -1.47436 -5.54121 0
M  V30 12615 N 1191.17 -1.92156 -6.65618 0
M  V30 12616 N 1192.96 -1.39091 -5.44619 0
M  V30 12617 H 1185.11 -1.43383 -1.56701 0
M  V30 12618 H 1187.37 -0.592438 -0.740082 0
M  V30 12619 H 1187.08 -1.70477 -3.07621 0
M  V30 12620 H 1186.95 -0.0982388 -3.77072 0
M  V30 12621 H 1189.34 0.414576 -2.92173 0
M  V30 12622 H 1189.42 -1.21974 -2.24847 0
M  V30 12623 H 1189.07 -2.17734 -4.58862 0
M  V30 12624 H 1189 -0.52073 -5.24019 0
M  V30 12625 H 1191.49 -0.773154 -3.69906 0
M  V30 12626 H 1191.8 -2.18796 -7.4118 0
M  V30 12627 H 1190.14 -1.96103 -6.6676 0
M  V30 12628 H 1193.34 -1.04001 -4.564 0
M  V30 12629 H 1193.51 -1.68496 -6.2571 0
M  V30 12630 N 1186.91 1.56388 -0.195085 0
M  V30 12631 C 1188.16 1.97872 0.444344 0
M  V30 12632 C 1188.49 1.0819 1.61271 0
M  V30 12633 O 1187.77 0.133904 1.94039 0
M  V30 12634 C 1188.05 3.48556 0.90449 0
M  V30 12635 C 1187.9 4.49015 -0.265693 0
M  V30 12636 C 1189.22 4.02938 1.76999 0
M  V30 12637 H 1186.34 0.719413 0.160041 0
M  V30 12638 H 1188.98 1.87835 -0.286005 0
M  V30 12639 H 1187.13 3.5724 1.52682 0
M  V30 12640 H 1188.81 4.52368 -0.903363 0
M  V30 12641 H 1187.05 4.23987 -0.917462 0
M  V30 12642 H 1187.72 5.51912 0.0987834 0
M  V30 12643 H 1190.2 3.97033 1.24514 0
M  V30 12644 H 1189.07 5.08741 2.06092 0
M  V30 12645 H 1189.33 3.48197 2.72418 0
M  V30 12646 N 1188.39 -0.0785156 1.57404 0
M  V30 12647 C 1189.32 -1.12058 1.99939 0
M  V30 12648 C 1190.34 -1.35372 0.904343 0
M  V30 12649 O 1191.53 -1.33731 1.1823 0
M  V30 12650 C 1188.63 -2.47285 2.31739 0
M  V30 12651 C 1187.8 -2.44021 3.63005 0
M  V30 12652 C 1186.86 -3.61303 3.82552 0
M  V30 12653 O 1185.88 -3.43039 4.54217 0
M  V30 12654 N 1187.09 -4.81404 3.24392 0
M  V30 12655 H 1189.85 -0.758416 2.89945 0
M  V30 12656 H 1187.41 -0.267266 1.59679 0
M  V30 12657 H 1189.4 -3.24377 2.41995 0
M  V30 12658 H 1187.97 -2.75529 1.47657 0
M  V30 12659 H 1187.19 -1.52361 3.63565 0
M  V30 12660 H 1188.48 -2.38934 4.49208 0
M  V30 12661 H 1187.88 -4.99147 2.66211 0
M  V30 12662 H 1186.44 -5.56031 3.40107 0
M  V30 12663 N 1189.87 -1.5367 -0.349747 0
M  V30 12664 C 1191.12 -1.69835 -1.08807 0
M  V30 12665 C 1191.43 -0.46497 -1.89993 0
M  V30 12666 O 1192.64 -0.507452 -2.66716 0
M  V30 12667 C 1191.09 -3.00294 -1.98372 0
M  V30 12668 C 1190.7 -4.30949 -1.22422 0
M  V30 12669 C 1192.45 -3.25826 -2.72099 0
M  V30 12670 C 1190.35 -5.52486 -2.1098 0
M  V30 12671 H 1189.28 -0.63284 -0.409915 0
M  V30 12672 H 1191.93 -1.80171 -0.347968 0
M  V30 12673 H 1190.32 -2.838 -2.76176 0
M  V30 12674 H 1191.49 -4.58126 -0.495707 0
M  V30 12675 H 1189.81 -4.11983 -0.604896 0
M  V30 12676 H 1192.4 -4.13817 -3.38615 0
M  V30 12677 H 1192.75 -2.42566 -3.3833 0
M  V30 12678 H 1193.28 -3.43067 -2.0137 0
M  V30 12679 H 1190.02 -6.38271 -1.49301 0
M  V30 12680 H 1189.54 -5.29566 -2.81638 0
M  V30 12681 H 1191.22 -5.87889 -2.70176 0
M  V30 12682 N 1191.35 0.610423 -1.45298 0
M  V30 12683 C 1192.57 1.40112 -1.52917 0
M  V30 12684 C 1193 1.87404 -0.161696 0
M  V30 12685 O 1192.36 1.59973 0.853135 0
M  V30 12686 C 1192.4 2.58359 -2.51561 0
M  V30 12687 O 1191.51 3.58895 -2.03146 0
M  V30 12688 H 1190.85 0.41841 -0.515586 0
M  V30 12689 H 1193.38 0.743159 -1.90626 0
M  V30 12690 H 1193.39 3.0564 -2.70275 0
M  V30 12691 H 1192.06 2.23286 -3.50879 0
M  V30 12692 H 1190.64 3.18282 -1.94296 0
M  V30 12693 N 1192.83 1.32541 0.852676 0
M  V30 12694 C 1194.07 1.23397 1.60938 0
M  V30 12695 C 1194.41 -0.203294 1.93133 0
M  V30 12696 O 1193.68 -1.14097 1.57519 0
M  V30 12697 C 1193.96 2.0956 2.92842 0
M  V30 12698 C 1193.82 3.61675 2.67416 0
M  V30 12699 C 1195.14 1.95825 3.94133 0
M  V30 12700 H 1192.25 0.449608 0.583971 0
M  V30 12701 H 1194.9 1.62507 0.98446 0
M  V30 12702 H 1193.05 1.76336 3.46176 0
M  V30 12703 H 1194.72 4.05122 2.20621 0
M  V30 12704 H 1192.96 3.84242 2.01347 0
M  V30 12705 H 1193.63 4.17292 3.61347 0
M  V30 12706 H 1196.11 2.24935 3.50062 0
M  V30 12707 H 1194.98 2.58387 4.8428 0
M  V30 12708 H 1195.25 0.926466 4.32284 0
M  V30 12709 N 1194.3 -1.0692 1.15784 0
M  V30 12710 C 1195.25 -2.14235 0.858616 0
M  V30 12711 C 1196.22 -1.65006 -0.190295 0
M  V30 12712 O 1197.41 -1.90715 -0.0568853 0
M  V30 12713 C 1194.55 -3.43229 0.35888 0
M  V30 12714 C 1193.66 -4.06225 1.46987 0
M  V30 12715 C 1192.79 -5.2307 0.925812 0
M  V30 12716 C 1191.83 -5.78037 2.01345 0
M  V30 12717 N 1190.97 -6.86206 1.48544 0
M  V30 12718 H 1195.81 -2.3917 1.77769 0
M  V30 12719 H 1193.35 -1.17354 0.886925 0
M  V30 12720 H 1195.31 -4.17169 0.0508198 0
M  V30 12721 H 1193.94 -3.18531 -0.523259 0
M  V30 12722 H 1192.99 -3.29895 1.89403 0
M  V30 12723 H 1194.3 -4.43081 2.29088 0
M  V30 12724 H 1193.45 -6.04011 0.570555 0
M  V30 12725 H 1192.19 -4.87644 0.0740371 0
M  V30 12726 H 1191.2 -4.95738 2.37748 0
M  V30 12727 H 1192.42 -6.15517 2.86907 0
M  V30 12728 H 1190.37 -6.52711 0.656092 0
M  V30 12729 H 1190.29 -7.2197 2.24266 0
M  V30 12730 H 1191.55 -7.70842 1.15856 0
M  V30 12731 N 1195.78 -0.955326 -1.25345 0
M  V30 12732 C 1196.73 -0.474888 -2.25862 0
M  V30 12733 C 1197.7 0.472996 -1.59223 0
M  V30 12734 O 1198.88 0.386094 -1.86853 0
M  V30 12735 C 1196.02 0.240554 -3.44261 0
M  V30 12736 C 1195.14 -0.74465 -4.25534 0
M  V30 12737 C 1194.27 -0.00657513 -5.312 0
M  V30 12738 C 1193.31 -0.982666 -6.04161 0
M  V30 12739 N 1192.45 -0.275418 -7.0156 0
M  V30 12740 H 1197.29 -1.33693 -2.66327 0
M  V30 12741 H 1194.83 -0.670439 -1.30933 0
M  V30 12742 H 1196.78 0.671933 -4.11753 0
M  V30 12743 H 1195.41 1.06664 -3.04668 0
M  V30 12744 H 1194.47 -1.29451 -3.57696 0
M  V30 12745 H 1195.78 -1.48948 -4.76042 0
M  V30 12746 H 1194.93 0.483404 -6.04771 0
M  V30 12747 H 1193.67 0.771035 -4.81567 0
M  V30 12748 H 1192.68 -1.48364 -5.29404 0
M  V30 12749 H 1193.9 -1.76052 -6.55883 0
M  V30 12750 H 1191.85 0.483441 -6.54216 0
M  V30 12751 H 1191.76 -0.959324 -7.49889 0
M  V30 12752 H 1193.03 0.193002 -7.79261 0
M  V30 12753 N 1197.26 1.39987 -0.723979 0
M  V30 12754 C 1198.17 2.3447 -0.0780936 0
M  V30 12755 C 1199.19 1.57744 0.734368 0
M  V30 12756 O 1200.36 1.90091 0.665385 0
M  V30 12757 C 1197.43 3.36705 0.826492 0
M  V30 12758 C 1196.49 4.293 0.00303036 0
M  V30 12759 C 1195.72 5.26651 0.864535 0
M  V30 12760 O 1195.95 5.30194 2.10357 0
M  V30 12761 O 1194.88 6.01157 0.299057 0
M  V30 12762 H 1198.71 2.91338 -0.857646 0
M  V30 12763 H 1196.29 1.41324 -0.484536 0
M  V30 12764 H 1198.17 3.9938 1.34439 0
M  V30 12765 H 1196.85 2.82237 1.58505 0
M  V30 12766 H 1195.75 3.69883 -0.560136 0
M  V30 12767 H 1197.09 4.86942 -0.717494 0
M  V30 12768 N 1198.74 0.470782 1.50404 0
M  V30 12769 C 1199.69 -0.32355 2.28521 0
M  V30 12770 C 1200.66 -0.987472 1.3356 0
M  V30 12771 O 1201.84 -0.999969 1.62497 0
M  V30 12772 C 1198.98 -1.39977 3.15437 0
M  V30 12773 C 1198.09 -0.750656 4.25428 0
M  V30 12774 C 1197.23 -1.80474 4.99602 0
M  V30 12775 C 1196.27 -1.13586 6.01469 0
M  V30 12776 N 1195.41 -2.13279 6.68922 0
M  V30 12777 H 1200.25 0.348902 2.9595 0
M  V30 12778 H 1197.78 0.183908 1.45946 0
M  V30 12779 H 1199.74 -2.0354 3.6418 0
M  V30 12780 H 1198.37 -2.04139 2.50054 0
M  V30 12781 H 1197.42 -0.00247092 3.804 0
M  V30 12782 H 1198.73 -0.222638 4.98303 0
M  V30 12783 H 1197.89 -2.51619 5.52062 0
M  V30 12784 H 1196.63 -2.36657 4.26433 0
M  V30 12785 H 1195.63 -0.410042 5.48269 0
M  V30 12786 H 1196.86 -0.580935 6.76611 0
M  V30 12787 H 1194.8 -2.68479 5.98544 0
M  V30 12788 H 1194.72 -1.65461 7.37671 0
M  V30 12789 H 1195.99 -2.83804 7.26 0
M  V30 12790 N 1200.22 -1.56282 0.203376 0
M  V30 12791 C 1201.46 -1.98105 -0.433844 0
M  V30 12792 C 1201.8 -1.09044 -1.60695 0
M  V30 12793 O 1201.07 -0.144193 -1.93965 0
M  V30 12794 C 1201.35 -3.4903 -0.885992 0
M  V30 12795 C 1201.21 -4.48867 0.289501 0
M  V30 12796 C 1202.53 -4.03871 -1.7486 0
M  V30 12797 H 1199.65 -0.720252 -0.156224 0
M  V30 12798 H 1202.29 -1.87681 0.295963 0
M  V30 12799 H 1200.44 -3.58045 -1.50785 0
M  V30 12800 H 1202.11 -4.51883 0.92734 0
M  V30 12801 H 1200.35 -4.23495 0.939934 0
M  V30 12802 H 1201.02 -5.51956 -0.0695128 0
M  V30 12803 H 1203.5 -3.97688 -1.22407 0
M  V30 12804 H 1202.38 -5.09827 -2.03391 0
M  V30 12805 H 1202.64 -3.49637 -2.70567 0
M  V30 12806 N 1201.7 0.070167 -1.57444 0
M  V30 12807 C 1202.94 0.770153 -1.87607 0
M  V30 12808 C 1203.27 1.77143 -0.795875 0
M  V30 12809 O 1202.55 1.93533 0.193674 0
M  V30 12810 C 1202.83 1.47668 -3.2843 0
M  V30 12811 C 1202.69 0.491712 -4.47104 0
M  V30 12812 C 1204 2.42118 -3.67514 0
M  V30 12813 H 1201.12 0.278519 -0.682346 0
M  V30 12814 H 1203.77 0.0333184 -1.89971 0
M  V30 12815 H 1201.92 2.10476 -3.26546 0
M  V30 12816 H 1203.59 -0.131283 -4.61113 0
M  V30 12817 H 1201.83 -0.192817 -4.33371 0
M  V30 12818 H 1202.5 1.02372 -5.42424 0
M  V30 12819 H 1204.98 1.89387 -3.70502 0
M  V30 12820 H 1203.85 2.88556 -4.66933 0
M  V30 12821 H 1204.11 3.26995 -2.97534 0
M  V30 12822 N 1203.17 1.53854 0.341593 0
M  V30 12823 C 1204.4 1.75134 1.10162 0
M  V30 12824 C 1204.82 0.491415 1.82292 0
M  V30 12825 O 1204.17 -0.53703 1.7442 0
M  V30 12826 C 1204.22 2.93273 2.1136 0
M  V30 12827 O 1203.95 4.14393 1.42162 0
M  V30 12828 C 1205.45 3.26621 2.99723 0
M  V30 12829 H 1202.67 0.585126 0.328434 0
M  V30 12830 H 1205.21 2.00684 0.393204 0
M  V30 12831 H 1203.37 2.70048 2.77764 0
M  V30 12832 H 1203.78 4.8072 2.09783 0
M  V30 12833 H 1205.25 4.12629 3.66662 0
M  V30 12834 H 1205.73 2.43008 3.65847 0
M  V30 12835 H 1206.34 3.51858 2.38906 0
M  V30 12836 N 1204.65 -0.602709 1.4562 0
M  V30 12837 C 1205.9 -1.35769 1.49163 0
M  V30 12838 C 1206.21 -1.95102 0.139485 0
M  V30 12839 O 1207.42 -2.71449 0.0525919 0
M  V30 12840 C 1205.88 -2.45959 2.62739 0
M  V30 12841 C 1205.48 -1.93017 4.04288 0
M  V30 12842 C 1207.23 -3.22926 2.75534 0
M  V30 12843 C 1205.13 -3.00718 5.09237 0
M  V30 12844 H 1204.06 -0.510317 0.555061 0
M  V30 12845 H 1206.72 -0.645434 1.71774 0
M  V30 12846 H 1205.1 -3.19892 2.3342 0
M  V30 12847 H 1206.27 -1.2576 4.43307 0
M  V30 12848 H 1204.59 -1.2878 3.95986 0
M  V30 12849 H 1207.18 -4.03267 3.51112 0
M  V30 12850 H 1207.53 -3.74243 1.82339 0
M  V30 12851 H 1208.06 -2.56095 3.04402 0
M  V30 12852 H 1204.8 -2.54312 6.04157 0
M  V30 12853 H 1204.32 -3.66526 4.74783 0
M  V30 12854 H 1206 -3.65016 5.34202 0
M  V30 12855 N 1206.13 -1.32992 -0.845635 0
M  V30 12856 C 1207.36 -1.27087 -1.63268 0
M  V30 12857 C 1207.77 0.159481 -1.88125 0
M  V30 12858 O 1207.13 1.09948 -1.45663 0
M  V30 12859 C 1207.18 -2.03649 -2.98679 0
M  V30 12860 O 1206.9 -3.41104 -2.74918 0
M  V30 12861 C 1208.4 -2.04875 -3.93117 0
M  V30 12862 H 1205.62 -0.438107 -0.508236 0
M  V30 12863 H 1208.17 -1.75257 -1.05381 0
M  V30 12864 H 1206.32 -1.59178 -3.53187 0
M  V30 12865 H 1206.74 -3.80405 -3.61099 0
M  V30 12866 H 1208.21 -2.62911 -4.85368 0
M  V30 12867 H 1208.69 -1.03728 -4.26775 0
M  V30 12868 H 1209.29 -2.49334 -3.44547 0
M  V30 12869 N 1207.61 1.06304 -1.1635 0
M  V30 12870 C 1208.54 2.15745 -0.893103 0
M  V30 12871 C 1209.52 1.69341 0.160531 0
M  V30 12872 O 1210.7 1.94196 0.0126526 0
M  V30 12873 C 1207.83 3.45066 -0.393287 0
M  V30 12874 C 1206.79 4.04978 -1.38482 0
M  V30 12875 C 1206.11 5.29507 -0.743409 0
M  V30 12876 C 1207.41 4.4377 -2.75438 0
M  V30 12877 H 1209.11 2.38622 -1.80831 0
M  V30 12878 H 1206.65 1.14681 -0.870878 0
M  V30 12879 H 1208.61 4.20964 -0.191607 0
M  V30 12880 H 1207.33 3.21808 0.557426 0
M  V30 12881 H 1205.99 3.31136 -1.57304 0
M  V30 12882 H 1205.64 5.02545 0.213787 0
M  V30 12883 H 1205.34 5.7055 -1.40521 0
M  V30 12884 H 1206.86 6.08102 -0.551746 0
M  V30 12885 H 1208.28 5.1075 -2.60398 0
M  V30 12886 H 1206.67 4.95797 -3.38091 0
M  V30 12887 H 1207.74 3.54636 -3.30699 0
M  V30 12888 N 1209.09 0.96196 1.24836 0
M  V30 12889 C 1210.36 0.537809 1.88061 0
M  V30 12890 C 1210.74 -0.985023 1.8671 0
M  V30 12891 O 1210.09 -1.85394 1.33572 0
M  V30 12892 C 1210.3 1.12279 3.30446 0
M  V30 12893 C 1211.65 1.20414 4.07168 0
M  V30 12894 O 1212.67 1.07488 3.39595 0
M  V30 12895 O 1211.53 1.4078 5.28056 0
M  V30 12896 H 1208.63 0.178491 0.807509 0
M  V30 12897 H 1211.17 1.05586 1.32852 0
M  V30 12898 H 1209.94 2.16578 3.25898 0
M  V30 12899 H 1209.57 0.58843 3.93222 0
M  V30 12900 N 1210.56 -1.39601 0.731392 0
M  V30 12901 C 1211.51 -2.30628 0.0890606 0
M  V30 12902 C 1212.48 -1.49025 -0.73353 0
M  V30 12903 O 1213.67 -1.77722 -0.694234 0
M  V30 12904 C 1210.81 -3.35339 -0.814956 0
M  V30 12905 C 1209.92 -4.31995 0.0198606 0
M  V30 12906 C 1209.05 -5.23774 -0.885095 0
M  V30 12907 C 1208.09 -6.12083 -0.045311 0
M  V30 12908 N 1207.23 -6.9623 -0.906002 0
M  V30 12909 H 1212.07 -2.84988 0.870958 0
M  V30 12910 H 1209.61 -1.40329 0.441166 0
M  V30 12911 H 1211.56 -3.94634 -1.3535 0
M  V30 12912 H 1210.19 -2.82443 -1.56287 0
M  V30 12913 H 1209.25 -3.74349 0.675778 0
M  V30 12914 H 1210.56 -4.94289 0.669346 0
M  V30 12915 H 1209.71 -5.88078 -1.49161 0
M  V30 12916 H 1208.45 -4.61794 -1.56837 0
M  V30 12917 H 1207.46 -5.46795 0.574028 0
M  V30 12918 H 1208.68 -6.76128 0.634692 0
M  V30 12919 H 1206.63 -6.36821 -1.57463 0
M  V30 12920 H 1206.54 -7.55352 -0.312914 0
M  V30 12921 H 1207.81 -7.64967 -1.49819 0
M  V30 12922 N 1212.04 -0.478751 -1.50152 0
M  V30 12923 C 1212.95 0.316554 -2.32455 0
M  V30 12924 C 1213.97 0.98871 -1.4318 0
M  V30 12925 O 1215.14 0.974998 -1.76226 0
M  V30 12926 C 1212.21 1.3799 -3.18056 0
M  V30 12927 C 1211.27 0.723534 -4.23159 0
M  V30 12928 C 1210.5 1.73621 -5.0467 0
M  V30 12929 O 1210.73 2.96362 -4.87366 0
M  V30 12930 O 1209.66 1.30381 -5.87609 0
M  V30 12931 H 1213.49 -0.356491 -3.016 0
M  V30 12932 H 1211.07 -0.24046 -1.47452 0
M  V30 12933 H 1212.95 1.99565 -3.71149 0
M  V30 12934 H 1211.63 2.03627 -2.5163 0
M  V30 12935 H 1210.54 0.0686296 -3.74037 0
M  V30 12936 H 1211.87 0.109979 -4.92077 0
M  V30 12937 N 1213.52 1.56172 -0.211661 0
M  V30 12938 C 1214.45 2.15791 0.74225 0
M  V30 12939 C 1215.43 1.0994 1.198 0
M  V30 12940 O 1216.62 1.38143 1.28253 0
M  V30 12941 C 1213.74 2.73021 2.00443 0
M  V30 12942 C 1212.79 3.91611 1.68946 0
M  V30 12943 S 1213.62 5.29139 0.822949 0
M  V30 12944 C 1214.78 5.898 2.09491 0
M  V30 12945 H 1215.01 2.96366 0.235482 0
M  V30 12946 H 1212.54 1.544 0.0035357 0
M  V30 12947 H 1214.5 3.06635 2.7292 0
M  V30 12948 H 1213.16 1.92457 2.48232 0
M  V30 12949 H 1212.36 4.30122 2.62699 0
M  V30 12950 H 1211.96 3.59093 1.04539 0
M  V30 12951 H 1214.25 6.05172 3.04587 0
M  V30 12952 H 1215.19 6.86036 1.75386 0
M  V30 12953 H 1215.6 5.18546 2.23093 0
M  V30 12954 N 1215 -0.0618163 1.57479 0
M  V30 12955 C 1216.22 -0.775513 1.92355 0
M  V30 12956 C 1216.65 -1.69816 0.808949 0
M  V30 12957 O 1216.01 -1.79736 -0.23761 0
M  V30 12958 C 1216.05 -1.5367 3.26218 0
M  V30 12959 O 1215.16 -2.64802 3.16155 0
M  V30 12960 H 1214.5 -0.210909 0.629614 0
M  V30 12961 H 1217.03 -0.0270752 2.04582 0
M  V30 12962 H 1217.04 -1.91379 3.6033 0
M  V30 12963 H 1215.71 -0.859798 4.06916 0
M  V30 12964 H 1214.29 -2.29876 2.93618 0
M  V30 12965 N 1216.48 -1.54033 -0.333429 0
M  V30 12966 C 1217.72 -1.71765 -1.07252 0
M  V30 12967 C 1218.05 -0.486135 -1.88327 0
M  V30 12968 O 1217.31 0.532135 -1.88326 0
M  V30 12969 C 1217.61 -2.93926 -2.03328 0
M  V30 12970 C 1217.27 -4.29107 -1.38486 0
M  V30 12971 C 1215.93 -4.6586 -1.20532 0
M  V30 12972 C 1218.29 -5.13041 -0.918624 0
M  V30 12973 C 1215.61 -5.84155 -0.545881 0
M  V30 12974 C 1217.97 -6.3201 -0.273055 0
M  V30 12975 C 1216.63 -6.67451 -0.0812815 0
M  V30 12976 H 1215.9 -0.628532 -0.392464 0
M  V30 12977 H 1218.55 -1.88261 -0.350709 0
M  V30 12978 H 1216.85 -2.72075 -2.81926 0
M  V30 12979 H 1218.55 -3.0484 -2.60526 0
M  V30 12980 H 1215.14 -4.00185 -1.5346 0
M  V30 12981 H 1219.32 -4.8517 -1.04515 0
M  V30 12982 H 1214.58 -6.1018 -0.386009 0
M  V30 12983 H 1218.75 -6.96333 0.0962582 0
M  V30 12984 H 1216.38 -7.58973 0.431734 0
M  V30 12985 N 1217.95 0.594978 -1.45938 0
M  V30 12986 C 1219.18 1.38482 -1.54394 0
M  V30 12987 C 1219.6 1.87222 -0.181563 0
M  V30 12988 O 1218.96 1.60869 0.836119 0
M  V30 12989 C 1219.01 2.55676 -2.54287 0
M  V30 12990 O 1218.11 3.5672 -2.06941 0
M  V30 12991 H 1217.46 0.412918 -0.519995 0
M  V30 12992 H 1219.99 0.722899 -1.91404 0
M  V30 12993 H 1220 3.02756 -2.73501 0
M  V30 12994 H 1218.67 2.19552 -3.53228 0
M  V30 12995 H 1217.25 3.16204 -1.97661 0
M  V30 12996 N 1219.43 1.33438 0.838571 0
M  V30 12997 C 1220.68 1.25097 1.5962 0
M  V30 12998 C 1221.01 -0.182798 1.93338 0
M  V30 12999 O 1220.29 -1.1242 1.5872 0
M  V30 13000 C 1220.57 2.12655 2.90603 0
M  V30 13001 C 1220.42 3.64491 2.63565 0
M  V30 13002 C 1221.74 1.99994 3.92033 0
M  V30 13003 H 1218.86 0.455776 0.579169 0
M  V30 13004 H 1221.5 1.63542 0.967169 0
M  V30 13005 H 1219.65 1.79998 3.44286 0
M  V30 13006 H 1221.32 4.0744 2.16312 0
M  V30 13007 H 1219.57 3.86356 1.9726 0
M  V30 13008 H 1220.24 4.21101 3.569 0
M  V30 13009 H 1222.71 2.28635 3.47657 0
M  V30 13010 H 1221.59 2.63509 4.81512 0
M  V30 13011 H 1221.85 0.972263 4.31277 0
M  V30 13012 N 1220.91 -1.05686 1.16912 0
M  V30 13013 C 1221.84 -2.15268 0.904532 0
M  V30 13014 C 1222.82 -1.69424 -0.151548 0
M  V30 13015 O 1224.01 -1.942 -0.00235371 0
M  V30 13016 C 1221.14 -3.44853 0.411581 0
M  V30 13017 C 1220.09 -4.04237 1.40628 0
M  V30 13018 C 1219.42 -5.29105 0.771479 0
M  V30 13019 C 1220.72 -4.42303 2.77787 0
M  V30 13020 H 1222.41 -2.37659 1.82094 0
M  V30 13021 H 1219.96 -1.14217 0.876947 0
M  V30 13022 H 1221.91 -4.20857 0.213929 0
M  V30 13023 H 1220.63 -3.22099 -0.540352 0
M  V30 13024 H 1219.29 -3.30297 1.59058 0
M  V30 13025 H 1218.94 -5.02652 -0.187133 0
M  V30 13026 H 1218.64 -5.69797 1.43545 0
M  V30 13027 H 1220.16 -6.07801 0.583988 0
M  V30 13028 H 1221.58 -5.09362 2.63103 0
M  V30 13029 H 1219.98 -4.93997 3.40716 0
M  V30 13030 H 1221.05 -3.52877 3.32575 0
M  V30 13031 N 1222.39 -0.968567 -1.24324 0
M  V30 13032 C 1223.32 -0.518323 -2.27674 0
M  V30 13033 C 1224.3 0.442479 -1.64244 0
M  V30 13034 O 1225.48 0.338416 -1.91229 0
M  V30 13035 C 1222.61 0.191459 -3.46772 0
M  V30 13036 C 1221.57 -0.685449 -4.22476 0
M  V30 13037 C 1220.89 0.155873 -5.34473 0
M  V30 13038 C 1222.19 -1.97047 -4.83704 0
M  V30 13039 H 1223.89 -1.38215 -2.65588 0
M  V30 13040 H 1221.43 -0.66604 -1.27671 0
M  V30 13041 H 1223.39 0.517667 -4.18208 0
M  V30 13042 H 1222.11 1.08965 -3.07887 0
M  V30 13043 H 1220.77 -0.994942 -3.52841 0
M  V30 13044 H 1220.42 1.05424 -4.91828 0
M  V30 13045 H 1220.12 -0.427655 -5.86042 0
M  V30 13046 H 1221.64 0.476733 -6.08736 0
M  V30 13047 H 1223.06 -1.70979 -5.4721 0
M  V30 13048 H 1221.45 -2.50079 -5.45509 0
M  V30 13049 H 1222.52 -2.66484 -4.0511 0
M  V30 13050 N 1223.87 1.39211 -0.738786 0
M  V30 13051 C 1224.82 2.27869 -0.0772787 0
M  V30 13052 C 1225.8 1.44452 0.708683 0
M  V30 13053 O 1226.99 1.67329 0.57707 0
M  V30 13054 C 1224.12 3.33206 0.826364 0
M  V30 13055 C 1223.21 4.24086 0.034349 0
M  V30 13056 N 1223.6 4.95928 -0.99446 0
M  V30 13057 C 1221.9 4.45221 0.26343 0
M  V30 13058 C 1222.6 5.62757 -1.47238 0
M  V30 13059 N 1221.57 5.37824 -0.790305 0
M  V30 13060 H 1225.38 2.80869 -0.865447 0
M  V30 13061 H 1222.89 1.51938 -0.573462 0
M  V30 13062 H 1224.89 3.95592 1.31578 0
M  V30 13063 H 1223.55 2.81765 1.61365 0
M  V30 13064 H 1224.56 4.99289 -1.37591 0
M  V30 13065 H 1221.23 4.04717 1.02522 0
M  V30 13066 H 1222.62 6.30261 -2.32853 0
M  V30 13067 N 1225.34 0.486708 1.49896 0
M  V30 13068 C 1226.76 0.141788 1.58969 0
M  V30 13069 C 1226.96 -1.35279 1.49338 0
M  V30 13070 O 1226.02 -2.1275 1.35992 0
M  V30 13071 C 1227.33 0.70588 2.92297 0
M  V30 13072 C 1228.88 0.670704 3.0573 0
M  V30 13073 C 1229.35 1.21261 4.41656 0
M  V30 13074 N 1230.84 1.17269 4.4811 0
M  V30 13075 C 1231.58 1.56233 5.51705 0
M  V30 13076 N 1231.07 2.02721 6.62477 0
M  V30 13077 N 1232.87 1.47738 5.42337 0
M  V30 13078 H 1225.02 1.45858 1.544 0
M  V30 13079 H 1227.28 0.604137 0.730563 0
M  V30 13080 H 1226.99 1.7535 3.04869 0
M  V30 13081 H 1226.86 0.158215 3.76868 0
M  V30 13082 H 1229.25 -0.368041 2.92796 0
M  V30 13083 H 1229.33 1.25535 2.22878 0
M  V30 13084 H 1228.97 2.25006 4.5534 0
M  V30 13085 H 1228.9 0.604031 5.23124 0
M  V30 13086 H 1231.39 0.831905 3.6863 0
M  V30 13087 H 1231.71 2.3056 7.37606 0
M  V30 13088 H 1230.05 2.06686 6.63556 0
M  V30 13089 H 1233.24 1.11249 4.54688 0
M  V30 13090 H 1233.42 1.78429 6.2295 0
M  V30 13091 N 1226.82 -1.56058 0.219941 0
M  V30 13092 C 1228.07 -1.98554 -0.412808 0
M  V30 13093 C 1228.4 -1.10742 -1.5953 0
M  V30 13094 O 1227.68 -0.164757 -1.93801 0
M  V30 13095 C 1227.96 -3.4995 -0.848923 0
M  V30 13096 C 1227.81 -4.48535 0.337094 0
M  V30 13097 C 1229.13 -4.05703 -1.70567 0
M  V30 13098 H 1226.25 -0.721869 -0.148576 0
M  V30 13099 H 1228.89 -1.87356 0.315852 0
M  V30 13100 H 1227.04 -3.59624 -1.46979 0
M  V30 13101 H 1228.72 -4.50874 0.975216 0
M  V30 13102 H 1226.96 -4.22474 0.984798 0
M  V30 13103 H 1227.63 -5.51999 -0.0109665 0
M  V30 13104 H 1230.11 -3.98964 -1.18182 0
M  V30 13105 H 1228.98 -5.11955 -1.97972 0
M  V30 13106 H 1229.24 -3.52487 -2.66844 0
M  V30 13107 N 1228.3 0.053464 -1.57509 0
M  V30 13108 C 1229.55 0.744867 -1.8927 0
M  V30 13109 C 1229.9 1.74249 -0.815791 0
M  V30 13110 O 1229.2 1.9077 0.178187 0
M  V30 13111 C 1229.39 1.47666 -3.25468 0
M  V30 13112 C 1229.22 0.551427 -4.46306 0
M  V30 13113 C 1227.99 0.181517 -5.04974 0
M  V30 13114 C 1230.19 -0.159765 -5.14052 0
M  V30 13115 N 1228.17 -0.747526 -6.09332 0
M  V30 13116 C 1229.54 -0.94533 -6.12751 0
M  V30 13117 C 1231.59 -0.2293 -4.97372 0
M  V30 13118 C 1230.3 -1.794 -6.96569 0
M  V30 13119 C 1232.32 -1.065 -5.81732 0
M  V30 13120 C 1231.69 -1.83856 -6.79983 0
M  V30 13121 H 1227.78 0.247424 -0.741826 0
M  V30 13122 H 1230.37 0.00570542 -1.94699 0
M  V30 13123 H 1228.54 2.18643 -3.21014 0
M  V30 13124 H 1230.27 2.11852 -3.4482 0
M  V30 13125 H 1227.03 0.538408 -4.7053 0
M  V30 13126 H 1227.45 -1.20583 -6.66175 0
M  V30 13127 H 1232.09 0.354441 -4.21312 0
M  V30 13128 H 1229.81 -2.38864 -7.71991 0
M  V30 13129 H 1233.4 -1.12202 -5.70878 0
M  V30 13130 H 1232.28 -2.47479 -7.44126 0
M  V30 13131 N 1229.78 1.54207 0.325255 0
M  V30 13132 C 1230.73 1.83474 1.40021 0
M  V30 13133 C 1231.7 0.681719 1.51466 0
M  V30 13134 O 1232.88 0.92798 1.66713 0
M  V30 13135 C 1230.02 2.06624 2.76407 0
M  V30 13136 C 1229.13 3.3431 2.73607 0
M  V30 13137 C 1228.27 3.4743 4.01828 0
M  V30 13138 C 1227.31 4.68997 3.93329 0
M  V30 13139 N 1226.45 4.79052 5.13277 0
M  V30 13140 H 1231.29 2.75182 1.14363 0
M  V30 13141 H 1228.82 1.36284 0.553639 0
M  V30 13142 H 1230.78 2.18037 3.5569 0
M  V30 13143 H 1229.41 1.18209 3.00377 0
M  V30 13144 H 1228.46 3.31643 1.86324 0
M  V30 13145 H 1229.77 4.237 2.6321 0
M  V30 13146 H 1228.93 3.58376 4.89542 0
M  V30 13147 H 1227.67 2.56128 4.1503 0
M  V30 13148 H 1226.67 4.58109 3.04 0
M  V30 13149 H 1227.9 5.61681 3.81695 0
M  V30 13150 H 1225.84 3.90666 5.26988 0
M  V30 13151 H 1225.76 5.62406 5.05208 0
M  V30 13152 H 1227.03 4.94328 6.02711 0
M  V30 13153 N 1231.26 -0.58723 1.46251 0
M  V30 13154 C 1232.2 -1.69662 1.56472 0
M  V30 13155 C 1233.17 -1.60978 0.409294 0
M  V30 13156 O 1234.36 -1.80257 0.625451 0
M  V30 13157 C 1231.5 -3.07996 1.55669 0
M  V30 13158 C 1230.61 -3.27337 2.81913 0
M  V30 13159 C 1229.75 -4.55894 2.72644 0
M  V30 13160 C 1228.79 -4.68562 3.93847 0
M  V30 13161 N 1227.92 -5.8844 3.82991 0
M  V30 13162 H 1232.76 -1.60262 2.51237 0
M  V30 13163 H 1230.3 -0.781148 1.24645 0
M  V30 13164 H 1232.26 -3.88058 1.53189 0
M  V30 13165 H 1230.89 -3.16303 0.6444 0
M  V30 13166 H 1229.94 -2.4091 2.94392 0
M  V30 13167 H 1231.25 -3.32567 3.71754 0
M  V30 13168 H 1230.41 -5.44178 2.68244 0
M  V30 13169 H 1229.15 -4.53094 1.80435 0
M  V30 13170 H 1228.15 -3.78696 3.98584 0
M  V30 13171 H 1229.38 -4.73144 4.87146 0
M  V30 13172 H 1227.32 -5.86647 2.93566 0
M  V30 13173 H 1227.24 -5.94919 4.66484 0
M  V30 13174 H 1228.51 -6.79168 3.82559 0
M  V30 13175 N 1232.74 -1.33881 -0.831482 0
M  V30 13176 C 1233.69 -1.2131 -1.93049 0
M  V30 13177 C 1234.67 -0.114199 -1.60494 0
M  V30 13178 O 1235.86 -0.343027 -1.73644 0
M  V30 13179 C 1232.99 -0.962034 -3.29545 0
M  V30 13180 C 1232.08 -2.10372 -3.68245 0
M  V30 13181 N 1232.47 -3.35427 -3.78579 0
M  V30 13182 C 1230.77 -2.01206 -3.98036 0
M  V30 13183 C 1231.47 -4.10351 -4.12295 0
M  V30 13184 N 1230.44 -3.3886 -4.25059 0
M  V30 13185 H 1234.24 -2.1609 -1.99204 0
M  V30 13186 H 1231.76 -1.25995 -1.02464 0
M  V30 13187 H 1233.76 -0.852895 -4.08082 0
M  V30 13188 H 1232.42 -0.0228423 -3.24692 0
M  V30 13189 H 1233.43 -3.70085 -3.62295 0
M  V30 13190 H 1230.1 -1.14991 -4.01352 0
M  V30 13191 H 1231.49 -5.18302 -4.27566 0
M  V30 13192 N 1234.21 1.05064 -1.1747 0
M  V30 13193 C 1235.62 1.59547 -0.969628 0
M  V30 13194 C 1235.98 1.90153 0.483332 0
M  V30 13195 O 1235.1 1.68415 1.35887 0
M  V30 13196 C 1235.7 2.89877 -1.75377 0
M  V30 13197 C 1234.25 3.41013 -1.59332 0
M  V30 13198 C 1233.4 2.1473 -1.7546 0
M  V30 13199 H 1236.35 0.878595 -1.3216 0
M  V30 13200 H 1236.37 3.59834 -1.23691 0
M  V30 13201 H 1235.89 2.67569 -2.8112 0
M  V30 13202 H 1233.99 3.68355 -0.560827 0
M  V30 13203 H 1234.1 4.15512 -2.38509 0
M  V30 13204 H 1232.46 2.25553 -1.18313 0
M  V30 13205 H 1233.25 1.9489 -2.82618 0
M  V30 13206 N 1235.69 0.975146 1.23809 0
M  V30 13207 C 1236.94 0.642074 1.92367 0
M  V30 13208 C 1237.27 -0.82164 1.75962 0
M  V30 13209 O 1236.55 -1.59205 1.11732 0
M  V30 13210 C 1236.83 1.02677 3.45151 0
M  V30 13211 C 1236.68 2.54773 3.7069 0
M  V30 13212 C 1238 0.5668 4.36435 0
M  V30 13213 H 1235.12 0.234735 0.698619 0
M  V30 13214 H 1237.76 1.21549 1.46034 0
M  V30 13215 H 1235.91 0.538846 3.84745 0
M  V30 13216 H 1237.58 3.11099 3.4061 0
M  V30 13217 H 1235.83 2.97641 3.15583 0
M  V30 13218 H 1236.5 2.7674 4.77618 0
M  V30 13219 H 1238.97 0.985635 4.04258 0
M  V30 13220 H 1237.85 0.864458 5.4205 0
M  V30 13221 H 1238.11 -0.532989 4.38875 0
M  V30 13222 N 1237.17 -1.38817 0.746158 0
M  V30 13223 C 1238.12 -2.32373 0.102785 0
M  V30 13224 C 1239.11 -1.53638 -0.713556 0
M  V30 13225 O 1240.32 -1.69223 -0.613488 0
M  V30 13226 H 1236.69 -0.751861 0.0144405 0
M  V30 13227 H 1238.66 -2.84249 0.908032 0
M  V30 13228 C 1237.41 -3.38796 -0.781827 0
M  V30 13229 H 1236.74 -3.99467 -0.163057 0
M  V30 13230 H 1238.18 -4.06682 -1.19941 0
M  V30 13231 C 1236.63 -2.76756 -1.92113 0
M  V30 13232 O 1237.16 -2.65478 -3.0147 0
M  V30 13233 N 1235.37 -2.34676 -1.71392 0
M  V30 13234 H 1234.92 -2.44049 -0.824483 0
M  V30 13235 H 1234.88 -1.93508 -2.47794 0
M  V30 13236 N 1238.65 -0.49465 -1.49636 0
M  V30 13237 C 1239.89 0.0521945 -2.02733 0
M  V30 13238 C 1240.23 1.3723 -1.37411 0
M  V30 13239 O 1239.5 1.87758 -0.507642 0
M  V30 13240 C 1239.78 0.2114 -3.59479 0
M  V30 13241 C 1239.64 -1.13138 -4.35339 0
M  V30 13242 C 1240.96 0.955015 -4.29613 0
M  V30 13243 H 1238.08 0.0174946 -0.736792 0
M  V30 13244 H 1240.72 -0.644827 -1.78723 0
M  V30 13245 H 1238.87 0.805078 -3.80067 0
M  V30 13246 H 1240.54 -1.76345 -4.26263 0
M  V30 13247 H 1238.78 -1.72224 -3.98147 0
M  V30 13248 H 1239.45 -0.97336 -5.4335 0
M  V30 13249 H 1241.93 0.451575 -4.13642 0
M  V30 13250 H 1240.81 1.03524 -5.39049 0
M  V30 13251 H 1241.07 1.99724 -3.94414 0
M  V30 13252 N 1240.13 1.55939 -0.228214 0
M  V30 13253 C 1241.4 1.90329 0.451033 0
M  V30 13254 C 1241.78 1.14646 1.77255 0
M  V30 13255 O 1241.13 0.257912 2.2704 0
M  V30 13256 C 1241.34 3.43129 0.637456 0
M  V30 13257 C 1242.69 4.14022 0.94186 0
M  V30 13258 O 1243.71 3.48764 0.724002 0
M  V30 13259 O 1242.57 5.29418 1.35568 0
M  V30 13260 H 1239.67 0.791591 0.2394 0
M  V30 13261 H 1242.21 1.67524 -0.270893 0
M  V30 13262 H 1240.98 3.90191 -0.294435 0
M  V30 13263 H 1240.61 3.71735 1.41062 0
M  V30 13264 N 1241.6 -0.0451101 1.57535 0
M  V30 13265 C 1242.85 -0.739114 1.88529 0
M  V30 13266 C 1243.18 -1.76208 0.823468 0
M  V30 13267 O 1242.43 -1.94893 -0.177512 0
M  V30 13268 C 1242.73 -1.45938 3.26247 0
M  V30 13269 C 1242.4 -0.57391 4.47233 0
M  V30 13270 C 1241.06 -0.329974 4.80067 0
M  V30 13271 C 1243.41 0.0384272 5.21186 0
M  V30 13272 C 1240.74 0.535339 5.84253 0
M  V30 13273 C 1243.09 0.891349 6.26289 0
M  V30 13274 C 1241.76 1.1449 6.57608 0
M  V30 13275 H 1241.03 -0.270461 0.689878 0
M  V30 13276 H 1243.67 0.000714103 1.915 0
M  V30 13277 H 1241.98 -2.27212 3.1919 0
M  V30 13278 H 1243.68 -2.00162 3.47471 0
M  V30 13279 H 1240.27 -0.774181 4.2155 0
M  V30 13280 H 1244.45 -0.137096 4.96111 0
M  V30 13281 H 1239.71 0.740253 6.06902 0
M  V30 13282 H 1243.88 1.37243 6.82743 0
M  V30 13283 H 1241.51 1.81715 7.38162 0
M  V30 13284 N 1243.08 -1.54377 -0.317073 0
M  V30 13285 C 1244.01 -1.8721 -1.39552 0
M  V30 13286 C 1244.99 -0.729483 -1.53664 0
M  V30 13287 O 1246.18 -0.983799 -1.67437 0
M  V30 13288 C 1243.31 -2.1052 -2.76222 0
M  V30 13289 C 1242.26 -3.26366 -2.76892 0
M  V30 13290 C 1241.59 -3.35061 -4.16699 0
M  V30 13291 C 1242.89 -4.63862 -2.40061 0
M  V30 13292 H 1244.58 -2.77532 -1.12323 0
M  V30 13293 H 1242.13 -1.33536 -0.538897 0
M  V30 13294 H 1244.08 -2.32073 -3.51739 0
M  V30 13295 H 1242.81 -1.16953 -3.04942 0
M  V30 13296 H 1241.46 -3.0471 -2.03831 0
M  V30 13297 H 1241.11 -2.39041 -4.4257 0
M  V30 13298 H 1240.81 -4.12923 -4.18053 0
M  V30 13299 H 1242.34 -3.58856 -4.94019 0
M  V30 13300 H 1243.75 -4.85252 -3.05292 0
M  V30 13301 H 1242.15 -5.44321 -2.52655 0
M  V30 13302 H 1243.22 -4.6567 -1.35202 0
M  V30 13303 N 1244.56 0.579466 -1.4656 0
M  V30 13304 C 1245.81 1.33492 -1.51738 0
M  V30 13305 C 1246.13 1.94241 -0.171926 0
M  V30 13306 O 1245.4 1.78737 0.801875 0
M  V30 13307 H 1243.98 0.49565 -0.558874 0
M  V30 13308 H 1246.64 0.678394 -1.82712 0
M  V30 13309 H 1245.74 2.13995 -2.27183 0
M  V30 13310 N 1246.04 1.3432 0.824371 0
M  V30 13311 C 1247.29 1.25938 1.57552 0
M  V30 13312 C 1247.6 -0.169298 1.94866 0
M  V30 13313 O 1248.81 -0.375262 2.68894 0
M  V30 13314 C 1247.26 2.20757 2.84244 0
M  V30 13315 C 1246.87 3.68873 2.54237 0
M  V30 13316 C 1248.61 2.21279 3.62265 0
M  V30 13317 C 1246.52 4.55566 3.77113 0
M  V30 13318 H 1245.45 0.467832 0.591311 0
M  V30 13319 H 1248.1 1.59476 0.907724 0
M  V30 13320 H 1246.48 1.80168 3.52641 0
M  V30 13321 H 1247.66 4.17991 1.93959 0
M  V30 13322 H 1245.97 3.70784 1.89494 0
M  V30 13323 H 1248.57 2.83272 4.53499 0
M  V30 13324 H 1248.91 1.2117 3.98276 0
M  V30 13325 H 1249.45 2.60305 3.00809 0
M  V30 13326 H 1246.19 5.56605 3.46223 0
M  V30 13327 H 1245.71 4.11184 4.36678 0
M  V30 13328 H 1247.38 4.701 4.44539 0
M  V30 13329 N 1247.52 -1.0444 1.18026 0
M  V30 13330 C 1248.75 -1.80971 0.996642 0
M  V30 13331 C 1249.15 -1.83568 -0.458192 0
M  V30 13332 O 1248.5 -1.26713 -1.33002 0
M  V30 13333 C 1248.56 -3.28051 1.47048 0
M  V30 13334 C 1248.22 -3.49122 2.94895 0
M  V30 13335 C 1249.22 -3.40621 3.92777 0
M  V30 13336 C 1246.91 -3.7584 3.33241 0
M  V30 13337 C 1248.9 -3.58535 5.27002 0
M  V30 13338 C 1246.59 -3.93402 4.6763 0
M  V30 13339 C 1247.58 -3.84749 5.6432 0
M  V30 13340 O 1247.27 -4.01813 6.96277 0
M  V30 13341 H 1247 -0.576873 0.352411 0
M  V30 13342 H 1249.56 -1.32542 1.56913 0
M  V30 13343 H 1247.79 -3.77431 0.841609 0
M  V30 13344 H 1249.48 -3.8613 1.25135 0
M  V30 13345 H 1250.24 -3.19948 3.64497 0
M  V30 13346 H 1246.12 -3.81674 2.58545 0
M  V30 13347 H 1249.67 -3.51698 6.02457 0
M  V30 13348 H 1245.56 -4.13568 4.95613 0
M  V30 13349 H 1246.33 -4.18995 7.03126 0
M  V30 13350 N 1248.99 -0.981699 -1.2329 0
M  V30 13351 C 1250.24 -0.646818 -1.91048 0
M  V30 13352 C 1250.56 0.823479 -1.77421 0
M  V30 13353 O 1251.76 1.26948 -2.39993 0
M  V30 13354 C 1250.22 -1.1063 -3.42475 0
M  V30 13355 C 1249.83 -2.60103 -3.6476 0
M  V30 13356 C 1251.57 -0.845227 -4.16 0
M  V30 13357 C 1249.48 -2.99712 -5.0983 0
M  V30 13358 H 1248.41 -0.238221 -0.715379 0
M  V30 13359 H 1251.06 -1.18977 -1.39702 0
M  V30 13360 H 1249.44 -0.491554 -3.92937 0
M  V30 13361 H 1250.61 -3.26828 -3.24839 0
M  V30 13362 H 1248.93 -2.83972 -3.04547 0
M  V30 13363 H 1251.53 -1.11699 -5.22903 0
M  V30 13364 H 1251.87 0.218661 -4.15725 0
M  V30 13365 H 1252.4 -1.42162 -3.7153 0
M  V30 13366 H 1249.14 -4.0523 -5.15237 0
M  V30 13367 H 1248.66 -2.37683 -5.50697 0
M  V30 13368 H 1250.34 -2.9039 -5.78172 0
M  V30 13369 N 1250.47 1.3842 -0.753509 0
M  V30 13370 C 1251.88 1.82847 -0.377331 0
M  V30 13371 C 1252.23 1.62867 1.09401 0
M  V30 13372 O 1251.36 1.12981 1.84565 0
M  V30 13373 C 1251.95 3.31945 -0.678095 0
M  V30 13374 C 1250.51 3.7472 -0.355196 0
M  V30 13375 C 1249.66 2.61193 -0.931311 0
M  V30 13376 H 1252.61 1.2715 -0.949667 0
M  V30 13377 H 1252.63 3.80475 0.0437292 0
M  V30 13378 H 1252.14 3.46455 -1.74902 0
M  V30 13379 H 1250.25 3.65789 0.70915 0
M  V30 13380 H 1250.36 4.71487 -0.850693 0
M  V30 13381 H 1248.72 2.5219 -0.356695 0
M  V30 13382 H 1249.51 2.78503 -2.00727 0
M  V30 13383 N 1251.95 0.502579 1.49372 0
M  V30 13384 C 1253.36 0.055187 1.86618 0
M  V30 13385 C 1253.71 -1.35938 1.41476 0
M  V30 13386 O 1252.84 -2.01333 0.793338 0
M  V30 13387 C 1253.43 0.0933734 3.38671 0
M  V30 13388 C 1251.99 -0.298685 3.75213 0
M  V30 13389 C 1251.14 0.465216 2.7337 0
M  V30 13390 H 1254.09 0.715281 1.41667 0
M  V30 13391 H 1254.11 -0.701549 3.73977 0
M  V30 13392 H 1253.62 1.12303 3.71497 0
M  V30 13393 H 1251.72 -1.33151 3.47996 0
M  V30 13394 H 1251.84 0.0218637 4.79095 0
M  V30 13395 H 1250.2 -0.0851469 2.54558 0
M  V30 13396 H 1250.98 1.49498 3.09039 0
M  V30 13397 N 1253.43 -1.55816 0.23648 0
M  V30 13398 C 1254.66 -2.03083 -0.395584 0
M  V30 13399 C 1255.07 -1.11599 -1.52286 0
M  V30 13400 O 1254.43 -0.128403 -1.82048 0
M  V30 13401 C 1254.48 -3.49776 -0.913197 0
M  V30 13402 O 1254.2 -4.37773 0.169151 0
M  V30 13403 C 1255.7 -4.12756 -1.617 0
M  V30 13404 H 1252.92 -0.66421 -0.0952146 0
M  V30 13405 H 1255.47 -2.01354 0.357299 0
M  V30 13406 H 1253.62 -3.52072 -1.6163 0
M  V30 13407 H 1254.03 -5.24029 -0.222217 0
M  V30 13408 H 1255.51 -5.17123 -1.93101 0
M  V30 13409 H 1255.99 -3.58631 -2.53537 0
M  V30 13410 H 1256.59 -4.14353 -0.958736 0
M  V30 13411 N 1254.91 0.036755 -1.57557 0
M  V30 13412 C 1255.85 1.05823 -2.07133 0
M  V30 13413 C 1256.85 1.37923 -0.983546 0
M  V30 13414 O 1258.05 1.36918 -1.16848 0
M  V30 13415 H 1254.43 0.358761 -0.660905 0
M  V30 13416 H 1256.4 0.614232 -2.9201 0
M  V30 13417 C 1255.15 2.35302 -2.55985 0
M  V30 13418 H 1254.47 2.11461 -3.393 0
M  V30 13419 H 1255.91 3.05139 -2.94391 0
M  V30 13420 C 1254.37 3.0373 -1.45773 0
M  V30 13421 O 1254.9 3.9325 -0.819587 0
M  V30 13422 N 1253.11 2.64931 -1.19416 0
M  V30 13423 H 1252.65 1.92219 -1.71492 0
M  V30 13424 H 1252.61 3.11033 -0.458865 0
M  V30 13425 N 1256.39 1.54543 0.308881 0
M  V30 13426 C 1257.33 1.84949 1.38067 0
M  V30 13427 C 1258.3 0.697746 1.50734 0
M  V30 13428 O 1259.49 0.94561 1.65719 0
M  V30 13429 C 1256.63 2.09544 2.74199 0
M  V30 13430 C 1255.74 3.37193 2.70046 0
M  V30 13431 C 1254.88 3.51672 3.98121 0
M  V30 13432 C 1253.91 4.73143 3.88333 0
M  V30 13433 N 1253.05 4.84469 5.08167 0
M  V30 13434 H 1257.89 2.76379 1.11438 0
M  V30 13435 H 1255.43 1.36863 0.539153 0
M  V30 13436 H 1257.39 2.21798 3.53358 0
M  V30 13437 H 1256.02 1.21389 2.99106 0
M  V30 13438 H 1255.07 3.33601 1.82796 0
M  V30 13439 H 1256.38 4.26468 2.58701 0
M  V30 13440 H 1255.53 3.63548 4.85714 0
M  V30 13441 H 1254.27 2.60516 4.1229 0
M  V30 13442 H 1253.28 4.61308 2.99124 0
M  V30 13443 H 1254.5 5.65698 3.75716 0
M  V30 13444 H 1252.45 3.96234 5.22814 0
M  V30 13445 H 1252.37 5.67733 4.99215 0
M  V30 13446 H 1253.63 5.00693 5.97434 0
M  V30 13447 N 1257.86 -0.571685 1.46866 0
M  V30 13448 C 1259.11 -1.32948 1.52745 0
M  V30 13449 C 1259.44 -1.93631 0.183694 0
M  V30 13450 O 1258.69 -1.77605 -0.821886 0
M  V30 13451 C 1258.99 -2.47051 2.58264 0
M  V30 13452 C 1258.66 -2.04291 4.01965 0
M  V30 13453 C 1257.32 -1.92345 4.41086 0
M  V30 13454 C 1259.67 -1.71458 4.9219 0
M  V30 13455 C 1257 -1.4584 5.68285 0
M  V30 13456 C 1259.35 -1.26429 6.19837 0
M  V30 13457 C 1258.02 -1.13068 6.57854 0
M  V30 13458 H 1257.29 -0.48649 0.558935 0
M  V30 13459 H 1259.93 -0.642618 1.80396 0
M  V30 13460 H 1258.24 -3.21231 2.24316 0
M  V30 13461 H 1259.94 -3.05254 2.6004 0
M  V30 13462 H 1256.53 -2.14527 3.71047 0
M  V30 13463 H 1260.71 -1.79567 4.62676 0
M  V30 13464 H 1255.97 -1.34148 5.96502 0
M  V30 13465 H 1260.14 -1.00081 6.89171 0
M  V30 13466 H 1257.77 -0.768094 7.5631 0
M  V30 13467 N 1259.34 -1.34755 -0.817236 0
M  V30 13468 C 1260.57 -1.30676 -1.61054 0
M  V30 13469 C 1260.99 0.115343 -1.87746 0
M  V30 13470 O 1260.35 1.07887 -1.45705 0
M  V30 13471 C 1260.4 -2.10881 -2.92509 0
M  V30 13472 O 1259.5 -1.48223 -3.84842 0
M  V30 13473 H 1258.84 -0.448531 -0.489608 0
M  V30 13474 H 1261.37 -1.77642 -1.01512 0
M  V30 13475 H 1261.38 -2.22446 -3.42026 0
M  V30 13476 H 1260.06 -3.14274 -2.72406 0
M  V30 13477 H 1258.63 -1.45434 -3.4337 0
M  V30 13478 N 1260.82 1.03812 -1.18578 0
M  V30 13479 C 1262.23 1.58509 -0.986496 0
M  V30 13480 C 1262.58 1.90655 0.463136 0
M  V30 13481 O 1261.71 1.69847 1.34093 0
M  V30 13482 C 1262.3 2.88 -1.78441 0
M  V30 13483 C 1260.86 3.39304 -1.6294 0
M  V30 13484 C 1260.01 2.12857 -1.77727 0
M  V30 13485 H 1262.96 0.864528 -1.33085 0
M  V30 13486 H 1262.98 3.58502 -1.27501 0
M  V30 13487 H 1262.49 2.64572 -2.83942 0
M  V30 13488 H 1260.59 3.6774 -0.599864 0
M  V30 13489 H 1260.71 4.12959 -2.42902 0
M  V30 13490 H 1259.07 2.24285 -1.20699 0
M  V30 13491 H 1259.85 1.91882 -2.84669 0
M  V30 13492 N 1262.3 0.988223 1.22768 0
M  V30 13493 C 1263.24 0.534605 2.24523 0
M  V30 13494 C 1264.21 -0.430615 1.60421 0
M  V30 13495 O 1265.4 -0.336417 1.87811 0
M  V30 13496 C 1262.54 -0.149195 3.44777 0
M  V30 13497 C 1261.65 0.85721 4.2341 0
M  V30 13498 C 1260.79 0.147411 5.30995 0
M  V30 13499 C 1259.83 1.1425 6.01343 0
M  V30 13500 N 1258.96 0.461327 7.00583 0
M  V30 13501 H 1263.8 1.40708 2.62689 0
M  V30 13502 H 1261.34 0.704918 1.2911 0
M  V30 13503 H 1263.3 -0.562527 4.1339 0
M  V30 13504 H 1261.93 -0.985485 3.07389 0
M  V30 13505 H 1260.98 1.38889 3.54138 0
M  V30 13506 H 1262.29 1.61517 4.71926 0
M  V30 13507 H 1261.45 -0.32289 6.0584 0
M  V30 13508 H 1260.19 -0.643085 4.83442 0
M  V30 13509 H 1259.19 1.62348 5.25284 0
M  V30 13510 H 1260.42 1.93379 6.50985 0
M  V30 13511 H 1258.36 -0.309818 6.55268 0
M  V30 13512 H 1258.28 1.15781 7.47082 0
M  V30 13513 H 1259.55 0.0136734 7.79499 0
M  V30 13514 N 1263.78 -1.38018 0.760839 0
M  V30 13515 C 1264.74 -2.28734 0.146154 0
M  V30 13516 C 1265.74 -1.47525 -0.639768 0
M  V30 13517 O 1266.93 -1.6788 -0.464964 0
M  V30 13518 C 1264.06 -3.31356 -0.801019 0
M  V30 13519 H 1265.25 -2.84599 0.945692 0
M  V30 13520 H 1262.81 -1.471 0.528323 0
M  V30 13521 H 1263.54 -2.80594 -1.62597 0
M  V30 13522 H 1263.33 -3.91366 -0.239775 0
M  V30 13523 H 1264.82 -3.99171 -1.22687 0
M  V30 13524 N 1265.25 -0.510493 -1.49103 0
M  V30 13525 C 1266.2 0.282297 -2.26246 0
M  V30 13526 C 1267.19 0.927187 -1.31499 0
M  V30 13527 O 1268.38 0.833216 -1.56162 0
M  V30 13528 C 1265.51 1.34046 -3.16049 0
M  V30 13529 C 1264.59 0.701334 -4.18261 0
M  V30 13530 N 1264.99 -0.201593 -5.05398 0
M  V30 13531 C 1263.28 0.960822 -4.35527 0
M  V30 13532 C 1263.98 -0.568383 -5.78916 0
M  V30 13533 N 1262.96 0.0659546 -5.4356 0
M  V30 13534 H 1266.76 -0.41264 -2.90989 0
M  V30 13535 H 1264.28 -0.327201 -1.5907 0
M  V30 13536 H 1266.27 1.92195 -3.69955 0
M  V30 13537 H 1264.93 2.03697 -2.52859 0
M  V30 13538 H 1265.94 -0.573004 -5.1472 0
M  V30 13539 H 1262.62 1.64938 -3.83539 0
M  V30 13540 H 1264.01 -1.30763 -6.59053 0
M  V30 13541 N 1266.73 1.55688 -0.24474 0
M  V30 13542 C 1267.98 1.98498 0.379852 0
M  V30 13543 C 1268.3 1.13416 1.58625 0
M  V30 13544 O 1267.57 0.216456 1.947 0
M  V30 13545 H 1266.15 0.73312 0.143334 0
M  V30 13546 H 1268.81 1.91858 -0.343027 0
M  V30 13547 H 1267.91 3.04367 0.690463 0
M  V30 13548 N 1268.21 -0.0283989 1.57574 0
M  V30 13549 C 1269.14 -1.02828 2.09639 0
M  V30 13550 C 1270.12 -1.37668 0.999076 0
M  V30 13551 O 1271.31 -1.4654 1.27435 0
M  V30 13552 C 1268.44 -2.329 2.57633 0
M  V30 13553 C 1267.39 -2.12301 3.71635 0
M  V30 13554 C 1266.72 -3.48138 4.05837 0
M  V30 13555 C 1268.02 -1.50864 5.00037 0
M  V30 13556 H 1269.71 -0.594876 2.93431 0
M  V30 13557 H 1267.26 -0.284701 1.41158 0
M  V30 13558 H 1269.21 -3.03179 2.92678 0
M  V30 13559 H 1267.93 -2.78302 1.70926 0
M  V30 13560 H 1266.59 -1.44454 3.3694 0
M  V30 13561 H 1266.24 -3.9119 3.16195 0
M  V30 13562 H 1265.94 -3.3518 4.82626 0
M  V30 13563 H 1267.46 -4.19779 4.43417 0
M  V30 13564 H 1268.88 -2.11062 5.33035 0
M  V30 13565 H 1267.27 -1.48479 5.81441 0
M  V30 13566 H 1268.34 -0.474541 4.82572 0
M  V30 13567 N 1269.69 -1.54705 -0.300681 0
M  V30 13568 C 1270.94 -1.73211 -1.03349 0
M  V30 13569 C 1271.25 -0.52518 -1.88418 0
M  V30 13570 O 1272.46 -0.592049 -2.64966 0
M  V30 13571 C 1270.91 -3.06453 -1.88717 0
M  V30 13572 C 1270.52 -4.34625 -1.0865 0
M  V30 13573 C 1272.26 -3.34317 -2.61595 0
M  V30 13574 C 1270.17 -5.58919 -1.93297 0
M  V30 13575 H 1269.1 -0.64556 -0.389574 0
M  V30 13576 H 1271.75 -1.81186 -0.290472 0
M  V30 13577 H 1270.13 -2.92443 -2.67008 0
M  V30 13578 H 1271.31 -4.59471 -0.349707 0
M  V30 13579 H 1269.62 -4.13699 -0.473521 0
M  V30 13580 H 1272.22 -4.2438 -3.25278 0
M  V30 13581 H 1272.56 -2.53207 -3.30442 0
M  V30 13582 H 1273.1 -3.493 -1.90354 0
M  V30 13583 H 1269.83 -6.42697 -1.2892 0
M  V30 13584 H 1269.35 -5.38258 -2.64647 0
M  V30 13585 H 1271.03 -5.96187 -2.51336 0
M  V30 13586 N 1271.17 0.563888 -1.47167 0
M  V30 13587 C 1272.41 1.31875 -1.53145 0
M  V30 13588 C 1272.74 1.94047 -0.192518 0
M  V30 13589 O 1272.01 1.79577 0.782872 0
M  V30 13590 H 1270.59 0.489694 -0.5641 0
M  V30 13591 H 1273.25 0.658976 -1.83422 0
M  V30 13592 H 1272.34 2.11574 -2.2944 0
M  V30 13593 N 1272.64 1.35187 0.810078 0
M  V30 13594 C 1273.58 1.23673 1.92971 0
M  V30 13595 C 1274.59 0.160819 1.62004 0
M  V30 13596 O 1275.78 0.413793 1.73638 0
M  V30 13597 C 1272.88 0.880887 3.27252 0
M  V30 13598 C 1272.05 2.05444 3.86149 0
M  V30 13599 C 1271.11 1.67494 4.98831 0
M  V30 13600 O 1270.14 2.39322 5.16443 0
M  V30 13601 N 1271.34 0.596539 5.77427 0
M  V30 13602 H 1274.1 2.20133 2.03376 0
M  V30 13603 H 1271.66 1.2831 0.987322 0
M  V30 13604 H 1273.66 0.608556 4.00098 0
M  V30 13605 H 1272.23 0.00607926 3.12599 0
M  V30 13606 H 1271.45 2.49077 3.05539 0
M  V30 13607 H 1272.73 2.83898 4.22231 0
M  V30 13608 H 1272.13 -0.000312591 5.657 0
M  V30 13609 H 1270.69 0.383979 6.50668 0
M  V30 13610 N 1274.12 -1.03182 1.19127 0
M  V30 13611 C 1275.37 -1.76533 0.992093 0
M  V30 13612 C 1275.7 -1.88549 -0.477429 0
M  V30 13613 O 1274.95 -1.39675 -1.37074 0
M  V30 13614 C 1275.25 -3.19452 1.60267 0
M  V30 13615 C 1274.92 -3.27449 3.09981 0
M  V30 13616 C 1273.58 -3.29338 3.50841 0
M  V30 13617 C 1275.93 -3.26833 4.05992 0
M  V30 13618 C 1273.26 -3.28265 4.86271 0
M  V30 13619 C 1275.61 -3.27299 5.41348 0
M  V30 13620 C 1274.28 -3.27485 5.81644 0
M  V30 13621 H 1273.55 -0.645979 0.363033 0
M  V30 13622 H 1276.19 -1.21127 1.48326 0
M  V30 13623 H 1274.5 -3.77917 1.03372 0
M  V30 13624 H 1276.19 -3.74869 1.42388 0
M  V30 13625 H 1272.78 -3.26704 2.77421 0
M  V30 13626 H 1276.97 -3.24556 3.75469 0
M  V30 13627 H 1272.22 -3.26731 5.16775 0
M  V30 13628 H 1276.4 -3.25773 6.15504 0
M  V30 13629 H 1274.03 -3.26407 6.86558 0
M  V30 13630 N 1275.6 -0.99472 -1.22242 0
M  V30 13631 C 1276.53 -0.491445 -2.22845 0
M  V30 13632 C 1277.51 0.449265 -1.5627 0
M  V30 13633 O 1278.7 0.374386 -1.84745 0
M  V30 13634 C 1275.82 0.287355 -3.37479 0
M  V30 13635 C 1274.87 -0.599617 -4.22264 0
M  V30 13636 S 1275.7 -2.05599 -4.94459 0
M  V30 13637 C 1276.86 -1.28673 -6.12531 0
M  V30 13638 H 1277.09 -1.34393 -2.6519 0
M  V30 13639 H 1274.62 -0.801833 -1.31947 0
M  V30 13640 H 1276.58 0.730646 -4.03945 0
M  V30 13641 H 1275.24 1.11514 -2.93638 0
M  V30 13642 H 1274.44 -0.000289277 -5.04 0
M  V30 13643 H 1274.04 -0.979748 -3.60939 0
M  V30 13644 H 1276.33 -0.555315 -6.7522 0
M  V30 13645 H 1277.27 -2.07943 -6.76879 0
M  V30 13646 H 1277.68 -0.79922 -5.58814 0
M  V30 13647 N 1277.08 1.37613 -0.768148 0
M  V30 13648 C 1278.01 2.28935 -0.110234 0
M  V30 13649 C 1279.02 1.48459 0.668122 0
M  V30 13650 O 1280.21 1.71154 0.506808 0
M  V30 13651 C 1277.31 3.27606 0.867598 0
M  V30 13652 C 1276.49 4.37163 0.143819 0
M  V30 13653 C 1275.54 5.15931 1.03449 0
M  V30 13654 O 1274.57 5.67003 0.499605 0
M  V30 13655 N 1275.77 5.30311 2.36114 0
M  V30 13656 H 1278.54 2.86037 -0.894585 0
M  V30 13657 H 1276.1 1.4955 -0.620185 0
M  V30 13658 H 1278.09 3.77183 1.4668 0
M  V30 13659 H 1276.66 2.71298 1.55294 0
M  V30 13660 H 1275.88 3.89031 -0.636257 0
M  V30 13661 H 1277.17 5.0755 -0.356446 0
M  V30 13662 H 1276.57 4.90394 2.82011 0
M  V30 13663 H 1275.12 5.83209 2.9105 0
M  V30 13664 N 1278.56 0.518393 1.4883 0
M  V30 13665 C 1279.47 -0.254811 2.33212 0
M  V30 13666 C 1280.48 -0.950401 1.45751 0
M  V30 13667 O 1281.66 -0.927932 1.78749 0
M  V30 13668 C 1278.72 -1.29509 3.21603 0
M  V30 13669 C 1277.78 -0.611086 4.24928 0
M  V30 13670 C 1277.02 -1.6018 5.09095 0
M  V30 13671 O 1277.24 -2.83336 4.95052 0
M  V30 13672 O 1276.17 -1.14756 5.90859 0
M  V30 13673 H 1280 0.436329 3.00549 0
M  V30 13674 H 1277.59 0.27947 1.46763 0
M  V30 13675 H 1279.47 -1.89654 3.7631 0
M  V30 13676 H 1278.14 -1.96884 2.5694 0
M  V30 13677 H 1277.05 0.0305638 3.74088 0
M  V30 13678 H 1278.38 0.0205249 4.92196 0
M  V30 13679 N 1280.03 -1.55556 0.252993 0
M  V30 13680 C 1281.45 -1.85032 -0.249011 0
M  V30 13681 C 1281.8 -1.17488 -1.57134 0
M  V30 13682 O 1280.92 -0.455387 -2.11554 0
M  V30 13683 C 1281.52 -3.35682 -0.458589 0
M  V30 13684 C 1280.08 -3.65362 -0.90485 0
M  V30 13685 C 1279.22 -2.77296 0.0144927 0
M  V30 13686 H 1282.17 -1.51412 0.475394 0
M  V30 13687 H 1282.19 -3.57591 -1.30034 0
M  V30 13688 H 1281.71 -3.84814 0.503981 0
M  V30 13689 H 1279.81 -3.21713 -1.87967 0
M  V30 13690 H 1279.92 -4.73074 -0.757492 0
M  V30 13691 H 1278.28 -2.49785 -0.497954 0
M  V30 13692 H 1279.07 -3.29236 0.972546 0
M  V30 13693 N 1281.51 0.0200419 -1.57587 0
M  V30 13694 C 1282.46 1.01784 -2.07144 0
M  V30 13695 C 1283.43 1.3537 -0.962501 0
M  V30 13696 O 1284.61 1.45553 -1.23365 0
M  V30 13697 C 1281.75 2.31091 -2.56302 0
M  V30 13698 C 1280.87 2.03584 -3.81022 0
M  V30 13699 C 1280 3.26827 -4.18757 0
M  V30 13700 C 1279.04 2.94915 -5.36369 0
M  V30 13701 N 1278.18 4.10636 -5.69493 0
M  V30 13702 H 1283.02 0.588288 -2.92136 0
M  V30 13703 H 1280.56 0.278848 -1.44433 0
M  V30 13704 H 1282.51 3.06656 -2.82874 0
M  V30 13705 H 1281.14 2.71752 -1.74215 0
M  V30 13706 H 1280.2 1.18475 -3.6148 0
M  V30 13707 H 1281.51 1.76049 -4.66699 0
M  V30 13708 H 1280.66 4.10753 -4.46505 0
M  V30 13709 H 1279.4 3.57483 -3.31749 0
M  V30 13710 H 1278.41 2.09392 -5.08365 0
M  V30 13711 H 1279.63 2.65528 -6.25037 0
M  V30 13712 H 1277.58 4.41226 -4.85444 0
M  V30 13713 H 1277.49 3.86556 -6.497 0
M  V30 13714 H 1278.76 4.95409 -6.01822 0
M  V30 13715 N 1282.99 1.54862 0.292472 0
M  V30 13716 C 1284.24 1.73756 1.02429 0
M  V30 13717 C 1284.55 0.535164 1.88137 0
M  V30 13718 O 1285.76 0.606092 2.64648 0
M  V30 13719 C 1284.21 3.0745 1.8709 0
M  V30 13720 C 1283.82 4.35195 1.06343 0
M  V30 13721 C 1285.57 3.357 2.59819 0
M  V30 13722 C 1283.47 5.59936 1.9033 0
M  V30 13723 H 1282.4 0.647617 0.386145 0
M  V30 13724 H 1285.05 1.81338 0.28086 0
M  V30 13725 H 1283.44 2.93855 2.65453 0
M  V30 13726 H 1284.61 4.5965 0.325335 0
M  V30 13727 H 1282.93 4.13944 0.451574 0
M  V30 13728 H 1285.52 4.26099 3.23023 0
M  V30 13729 H 1285.87 2.54956 3.29094 0
M  V30 13730 H 1286.4 3.50304 1.88499 0
M  V30 13731 H 1283.14 6.43372 1.25509 0
M  V30 13732 H 1282.66 5.39654 2.61789 0
M  V30 13733 H 1284.34 5.97512 2.48171 0
M  V30 13734 N 1284.47 -0.556076 1.47464 0
M  V30 13735 C 1285.42 -1.6586 1.56444 0
M  V30 13736 C 1286.4 -1.55233 0.423262 0
M  V30 13737 O 1287.59 -1.63696 0.673247 0
M  V30 13738 C 1284.72 -3.04633 1.58283 0
M  V30 13739 C 1283.81 -3.2046 2.77788 0
M  V30 13740 N 1284.2 -3.06347 4.02474 0
M  V30 13741 C 1282.5 -3.51462 2.74573 0
M  V30 13742 C 1283.2 -3.24893 4.82514 0
M  V30 13743 N 1282.18 -3.51278 4.14855 0
M  V30 13744 H 1285.98 -1.53519 2.50618 0
M  V30 13745 H 1283.49 -0.760862 1.43474 0
M  V30 13746 H 1285.49 -3.83797 1.62806 0
M  V30 13747 H 1284.15 -3.18085 0.652052 0
M  V30 13748 H 1285.16 -2.8365 4.33316 0
M  V30 13749 H 1281.84 -3.71434 1.90639 0
M  V30 13750 H 1283.23 -3.1894 5.91377 0
M  V30 13751 N 1285.95 -1.35615 -0.802897 0
M  V30 13752 C 1287.2 -1.28428 -1.55528 0
M  V30 13753 C 1287.51 0.138275 -1.95111 0
M  V30 13754 O 1288.72 0.332435 -2.69457 0
M  V30 13755 C 1287.17 -2.25251 -2.80696 0
M  V30 13756 C 1286.78 -3.72871 -2.48336 0
M  V30 13757 C 1288.52 -2.27014 -3.58699 0
M  V30 13758 C 1286.43 -4.61507 -3.69817 0
M  V30 13759 H 1285.36 -0.47718 -0.583794 0
M  V30 13760 H 1288.01 -1.609 -0.882238 0
M  V30 13761 H 1286.39 -1.85755 -3.4973 0
M  V30 13762 H 1287.57 -4.21024 -1.87285 0
M  V30 13763 H 1285.88 -3.73752 -1.83571 0
M  V30 13764 H 1288.48 -2.90451 -4.48935 0
M  V30 13765 H 1288.82 -1.27491 -3.96298 0
M  V30 13766 H 1289.36 -2.65058 -2.9663 0
M  V30 13767 H 1286.09 -5.62043 -3.37324 0
M  V30 13768 H 1285.61 -4.18079 -4.30081 0
M  V30 13769 H 1287.29 -4.77113 -4.37004 0
M  V30 13770 N 1287.43 1.02549 -1.19673 0
M  V30 13771 C 1288.67 1.76004 -1.00144 0
M  V30 13772 C 1289 1.888 0.467423 0
M  V30 13773 O 1288.26 1.404 1.36331 0
M  V30 13774 C 1288.55 3.18597 -1.61959 0
M  V30 13775 C 1288.22 3.258 -3.11713 0
M  V30 13776 C 1286.88 3.27473 -3.52583 0
M  V30 13777 C 1289.23 3.24675 -4.0772 0
M  V30 13778 C 1286.56 3.25681 -4.88005 0
M  V30 13779 C 1288.91 3.24424 -5.43076 0
M  V30 13780 C 1287.58 3.24396 -5.83372 0
M  V30 13781 H 1286.85 0.644044 -0.366453 0
M  V30 13782 H 1289.5 1.20338 -1.48966 0
M  V30 13783 H 1287.8 3.77364 -1.05375 0
M  V30 13784 H 1289.5 3.74109 -1.44374 0
M  V30 13785 H 1286.09 3.25228 -2.7915 0
M  V30 13786 H 1290.27 3.2256 -3.77185 0
M  V30 13787 H 1285.53 3.23986 -5.18501 0
M  V30 13788 H 1289.7 3.22504 -6.17223 0
M  V30 13789 H 1287.33 3.22762 -6.8828 0
M  V30 13790 N 1288.9 1.00119 1.21713 0
M  V30 13791 C 1289.85 0.551452 2.25969 0
M  V30 13792 C 1290.85 -0.402075 1.64559 0
M  V30 13793 O 1292.05 -0.273685 1.77907 0
M  V30 13794 H 1288.43 0.159968 0.734789 0
M  V30 13795 H 1290.4 1.44201 2.61244 0
M  V30 13796 C 1289.15 -0.109992 3.47526 0
M  V30 13797 H 1288.47 0.614686 3.95046 0
M  V30 13798 H 1289.91 -0.388007 4.22221 0
M  V30 13799 C 1288.37 -1.34798 3.08757 0
M  V30 13800 O 1288.9 -2.44266 3.189 0
M  V30 13801 N 1287.1 -1.2263 2.63458 0
M  V30 13802 H 1286.65 -0.335571 2.55405 0
M  V30 13803 H 1286.61 -2.05565 2.37887 0
M  V30 13804 N 1290.38 -1.37203 0.775435 0
M  V30 13805 C 1291.29 -2.34019 0.165062 0
M  V30 13806 C 1292.31 -1.6036 -0.675316 0
M  V30 13807 O 1293.48 -1.9243 -0.594375 0
M  V30 13808 C 1290.55 -3.3954 -0.700957 0
M  V30 13809 C 1289.61 -4.29015 0.156304 0
M  V30 13810 C 1288.84 -5.29497 -0.668476 0
M  V30 13811 O 1289.07 -5.37636 -1.90535 0
M  V30 13812 O 1288 -6.01852 -0.0757351 0
M  V30 13813 H 1291.83 -2.87955 0.965184 0
M  V30 13814 H 1289.41 -1.39429 0.536654 0
M  V30 13815 H 1291.29 -4.04094 -1.19524 0
M  V30 13816 H 1289.97 -2.87926 -1.4792 0
M  V30 13817 H 1288.87 -3.67549 0.69703 0
M  V30 13818 H 1290.21 -4.83944 0.897725 0
M  V30 13819 N 1291.86 -0.526279 -1.48553 0
M  V30 13820 C 1293.28 -0.183886 -1.58537 0
M  V30 13821 C 1293.48 1.31272 -1.52872 0
M  V30 13822 O 1292.53 2.09069 -1.41585 0
M  V30 13823 C 1293.84 -0.78313 -2.90323 0
M  V30 13824 C 1295.39 -0.751527 -3.03844 0
M  V30 13825 C 1295.87 -1.32928 -4.38285 0
M  V30 13826 N 1297.36 -1.29109 -4.44843 0
M  V30 13827 C 1298.09 -1.70806 -5.47369 0
M  V30 13828 N 1297.59 -2.20215 -6.56869 0
M  V30 13829 N 1299.38 -1.62065 -5.3823 0
M  V30 13830 H 1291.53 -1.499 -1.50478 0
M  V30 13831 H 1293.8 -0.623294 -0.714289 0
M  V30 13832 H 1293.5 -1.83371 -3.00113 0
M  V30 13833 H 1293.38 -0.25808 -3.76316 0
M  V30 13834 H 1295.76 0.290282 -2.93669 0
M  V30 13835 H 1295.84 -1.314 -2.19471 0
M  V30 13836 H 1295.49 -2.37 -4.49214 0
M  V30 13837 H 1295.42 -0.742516 -5.21339 0
M  V30 13838 H 1297.91 -0.929348 -3.66294 0
M  V30 13839 H 1298.22 -2.50035 -7.31233 0
M  V30 13840 H 1296.57 -2.24206 -6.57842 0
M  V30 13841 H 1299.76 -1.23265 -4.51579 0
M  V30 13842 H 1299.93 -1.94883 -6.18001 0
M  V30 13843 N 1293.34 1.5542 -0.261239 0
M  V30 13844 C 1294.75 1.85161 0.239195 0
M  V30 13845 C 1295.1 1.18319 1.56509 0
M  V30 13846 O 1294.22 0.4666 2.1131 0
M  V30 13847 C 1294.82 3.3592 0.440781 0
M  V30 13848 C 1293.38 3.65837 0.885461 0
M  V30 13849 C 1292.53 2.77285 -0.0291982 0
M  V30 13850 H 1295.48 1.51158 -0.483417 0
M  V30 13851 H 1295.5 3.58276 1.28136 0
M  V30 13852 H 1295.01 3.84541 -0.524382 0
M  V30 13853 H 1293.11 3.22705 1.86259 0
M  V30 13854 H 1293.22 4.73469 0.732394 0
M  V30 13855 H 1291.59 2.50045 0.484701 0
M  V30 13856 H 1292.37 3.28716 -0.989992 0
M  V30 13857 N 1294.82 -0.0116844 1.57596 0
M  V30 13858 C 1296.06 -0.697577 1.89679 0
M  V30 13859 C 1296.38 -1.74956 0.861122 0
M  V30 13860 O 1295.65 -1.95629 -0.103031 0
M  V30 13861 H 1294.23 -0.26064 0.700054 0
M  V30 13862 H 1296.9 0.0264782 1.94882 0
M  V30 13863 H 1295.99 -1.17621 2.89088 0
M  V30 13864 N 1296.29 -1.55015 -0.284256 0
M  V30 13865 C 1297.24 -1.87122 -1.35107 0
M  V30 13866 C 1298.21 -0.721638 -1.49605 0
M  V30 13867 O 1299.4 -0.971855 -1.64194 0
M  V30 13868 C 1296.54 -2.1388 -2.70831 0
M  V30 13869 C 1295.65 -3.41447 -2.64647 0
M  V30 13870 C 1294.78 -3.57961 -3.92476 0
M  V30 13871 C 1293.82 -4.79261 -3.80757 0
M  V30 13872 N 1292.96 -4.92492 -5.00395 0
M  V30 13873 H 1297.8 -2.78117 -1.07027 0
M  V30 13874 H 1295.34 -1.37704 -0.517311 0
M  V30 13875 H 1297.29 -2.27391 -3.49784 0
M  V30 13876 H 1295.92 -1.26132 -2.97137 0
M  V30 13877 H 1294.98 -3.36467 -1.77466 0
M  V30 13878 H 1296.29 -4.3053 -2.51884 0
M  V30 13879 H 1295.44 -3.71229 -4.79868 0
M  V30 13880 H 1294.18 -2.67042 -4.08093 0
M  V30 13881 H 1293.19 -4.66008 -2.91747 0
M  V30 13882 H 1294.41 -5.71604 -3.66669 0
M  V30 13883 H 1292.36 -4.04501 -5.16445 0
M  V30 13884 H 1292.27 -5.75603 -4.9012 0
M  V30 13885 H 1293.54 -5.10134 -5.89392 0
M  V30 13886 N 1297.77 0.548248 -1.47757 0
M  V30 13887 C 1299.05 1.3092 -1.45325 0
M  V30 13888 C 1299.43 2.1053 -0.155008 0
M  V30 13889 O 1298.78 2.11558 0.863455 0
M  V30 13890 C 1298.99 2.20614 -2.70426 0
M  V30 13891 C 1300.33 2.81345 -3.18009 0
M  V30 13892 O 1301.36 2.30911 -2.71216 0
M  V30 13893 O 1300.22 3.73036 -3.99383 0
M  V30 13894 H 1297.31 0.58996 -0.579548 0
M  V30 13895 H 1299.86 0.56641 -1.59968 0
M  V30 13896 H 1298.63 1.61449 -3.56441 0
M  V30 13897 H 1298.25 3.02173 -2.58413 0
M  V30 13898 N 1299.25 1.36039 0.795694 0
M  V30 13899 C 1300.66 1.2679 1.37044 0
M  V30 13900 C 1301.01 -0.0950192 1.9597 0
M  V30 13901 O 1300.14 -0.996311 1.921 0
M  V30 13902 C 1300.73 2.29585 2.49151 0
M  V30 13903 C 1299.29 2.24044 3.02458 0
M  V30 13904 C 1298.44 2.14703 1.75493 0
M  V30 13905 H 1301.39 1.47009 0.597843 0
M  V30 13906 H 1301.41 1.92864 3.27999 0
M  V30 13907 H 1300.92 3.28769 2.06234 0
M  V30 13908 H 1299.02 1.28307 3.49812 0
M  V30 13909 H 1299.14 3.1647 3.597 0
M  V30 13910 H 1297.5 1.60856 1.97478 0
M  V30 13911 H 1298.28 3.15765 1.34713 0
M  V30 13912 N 1300.73 -1.01913 1.20215 0
M  V30 13913 C 1301.64 -2.13864 0.964328 0
M  V30 13914 C 1302.65 -1.73821 -0.0789556 0
M  V30 13915 O 1303.83 -2.01111 0.107914 0
M  V30 13916 C 1300.9 -3.42827 0.516757 0
M  V30 13917 C 1299.96 -3.97127 1.63059 0
M  V30 13918 C 1299.19 -5.19935 1.20428 0
M  V30 13919 O 1299.41 -5.70355 0.0719119 0
M  V30 13920 O 1298.35 -5.67322 2.01071 0
M  V30 13921 H 1302.17 -2.36795 1.90162 0
M  V30 13922 H 1299.76 -1.1226 0.985803 0
M  V30 13923 H 1301.64 -4.20493 0.276272 0
M  V30 13924 H 1300.31 -3.21318 -0.391983 0
M  V30 13925 H 1299.22 -3.20752 1.92533 0
M  V30 13926 H 1300.55 -4.2302 2.51624 0
M  V30 13927 N 1302.21 -1.00763 -1.2118 0
M  V30 13928 C 1303.15 -0.570257 -2.23644 0
M  V30 13929 C 1304.12 0.405039 -1.61086 0
M  V30 13930 O 1305.31 0.306496 -1.88322 0
M  V30 13931 C 1302.45 0.094325 -3.44971 0
M  V30 13932 C 1301.56 -0.924463 -4.21993 0
M  V30 13933 C 1300.7 -0.231869 -5.30694 0
M  V30 13934 C 1299.74 -1.23803 -5.99449 0
M  V30 13935 N 1298.87 -0.572725 -6.9976 0
M  V30 13936 H 1303.71 -1.44869 -2.60417 0
M  V30 13937 H 1301.25 -0.725369 -1.27972 0
M  V30 13938 H 1303.21 0.496689 -4.14233 0
M  V30 13939 H 1301.84 0.936457 -3.08918 0
M  V30 13940 H 1300.89 -1.44505 -3.51884 0
M  V30 13941 H 1302.2 -1.69004 -4.69296 0
M  V30 13942 H 1301.36 0.226465 -6.06277 0
M  V30 13943 H 1300.09 0.566092 -4.84403 0
M  V30 13944 H 1299.1 -1.70684 -5.22635 0
M  V30 13945 H 1300.32 -2.03711 -6.47826 0
M  V30 13946 H 1298.27 0.205531 -6.55678 0
M  V30 13947 H 1298.19 -1.27651 -7.45145 0
M  V30 13948 H 1299.46 -0.137683 -7.79378 0
M  V30 13949 N 1303.68 1.3679 -0.7827 0
M  V30 13950 C 1305.1 1.82006 -0.41603 0
M  V30 13951 C 1305.45 1.65151 1.05922 0
M  V30 13952 O 1304.57 1.1687 1.82127 0
M  V30 13953 C 1305.17 3.30432 -0.748353 0
M  V30 13954 C 1303.73 3.73883 -0.4346 0
M  V30 13955 C 1302.87 2.59159 -0.986505 0
M  V30 13956 H 1305.82 1.25107 -0.976423 0
M  V30 13957 H 1305.84 3.80482 -0.036985 0
M  V30 13958 H 1305.36 3.42667 -1.82212 0
M  V30 13959 H 1303.46 3.67211 0.631401 0
M  V30 13960 H 1303.57 4.69577 -0.950511 0
M  V30 13961 H 1301.93 2.51377 -0.410108 0
M  V30 13962 H 1302.72 2.74182 -2.06589 0
M  V30 13963 N 1305.16 0.53415 1.48272 0
M  V30 13964 C 1306.07 -0.230062 2.33469 0
M  V30 13965 C 1307.09 -0.934889 1.46751 0
M  V30 13966 O 1308.26 -0.908921 1.79724 0
M  V30 13967 C 1305.33 -1.2609 3.22958 0
M  V30 13968 C 1304.39 -0.565983 4.25553 0
M  V30 13969 C 1303.62 -1.54771 5.10766 0
M  V30 13970 O 1303.85 -2.7807 4.9803 0
M  V30 13971 O 1302.78 -1.08482 5.92043 0
M  V30 13972 H 1306.61 0.468182 3.0007 0
M  V30 13973 H 1304.19 0.29502 1.46458 0
M  V30 13974 H 1306.07 -1.85652 3.783 0
M  V30 13975 H 1304.75 -1.94148 2.59014 0
M  V30 13976 H 1303.66 0.0702391 3.74034 0
M  V30 13977 H 1304.99 0.0727277 4.92146 0
M  V30 13978 N 1306.64 -1.55279 0.269478 0
M  V30 13979 C 1307.6 -2.21008 -0.607299 0
M  V30 13980 C 1308.6 -1.18619 -1.08564 0
M  V30 13981 O 1309.79 -1.4356 -0.986721 0
M  V30 13982 C 1306.93 -2.87157 -1.83721 0
M  V30 13983 H 1308.12 -2.99881 -0.0334894 0
M  V30 13984 H 1305.67 -1.56287 0.0200573 0
M  V30 13985 H 1306.41 -2.12281 -2.45168 0
M  V30 13986 H 1306.19 -3.62183 -1.5022 0
M  V30 13987 H 1307.68 -3.37391 -2.46083 0
M  V30 13988 N 1308.12 0.00332656 -1.576 0
M  V30 13989 C 1309.34 0.703587 -1.95101 0
M  V30 13990 C 1309.77 1.66697 -0.871418 0
M  V30 13991 O 1309.13 1.80494 0.170739 0
M  V30 13992 C 1309.17 1.41457 -3.31696 0
M  V30 13993 O 1308.28 2.52885 -3.25765 0
M  V30 13994 H 1307.62 0.187396 -0.637008 0
M  V30 13995 H 1310.15 -0.0488727 -2.04542 0
M  V30 13996 H 1310.16 1.77874 -3.67185 0
M  V30 13997 H 1308.83 0.708182 -4.09826 0
M  V30 13998 H 1307.41 2.18821 -3.01947 0
M  V30 13999 N 1309.6 1.55164 0.276031 0
M  V30 14000 C 1310.53 1.82758 1.36656 0
M  V30 14001 C 1311.51 0.680405 1.4768 0
M  V30 14002 O 1312.69 0.923078 1.64352 0
M  V30 14003 C 1309.82 1.98651 2.74328 0
M  V30 14004 C 1308.86 3.21192 2.80603 0
M  V30 14005 S 1309.7 4.78628 2.40156 0
M  V30 14006 C 1310.85 4.9749 3.79809 0
M  V30 14007 H 1311.09 2.74969 1.13045 0
M  V30 14008 H 1308.62 1.46896 0.4755 0
M  V30 14009 H 1310.58 2.08492 3.53612 0
M  V30 14010 H 1309.24 1.07333 2.95192 0
M  V30 14011 H 1308.43 3.29189 3.81642 0
M  V30 14012 H 1308.03 3.09926 2.09337 0
M  V30 14013 H 1310.33 4.83045 4.75051 0
M  V30 14014 H 1311.27 5.99544 3.76765 0
M  V30 14015 H 1311.68 4.25489 3.70971 0
M  V30 14016 N 1311.07 -0.540404 1.48045 0
M  V30 14017 C 1311.98 -1.67308 1.64455 0
M  V30 14018 C 1313 -1.65823 0.527152 0
M  V30 14019 O 1314.18 -1.84964 0.796881 0
M  V30 14020 C 1311.24 -3.03792 1.67068 0
M  V30 14021 C 1310.3 -3.16213 2.90358 0
M  V30 14022 C 1309.54 -4.46187 2.92837 0
M  V30 14023 O 1309.76 -5.32662 2.04029 0
M  V30 14024 O 1308.69 -4.62754 3.84892 0
M  V30 14025 H 1312.52 -1.56403 2.6033 0
M  V30 14026 H 1310.1 -0.712323 1.31325 0
M  V30 14027 H 1311.99 -3.84982 1.71368 0
M  V30 14028 H 1310.66 -3.15043 0.74363 0
M  V30 14029 H 1309.57 -2.34357 2.91595 0
M  V30 14030 H 1310.9 -3.09874 3.82412 0
M  V30 14031 N 1312.55 -1.36459 -0.788468 0
M  V30 14032 C 1313.8 -1.30935 -1.54867 0
M  V30 14033 C 1314.13 0.110916 -1.93883 0
M  V30 14034 O 1313.41 1.06452 -1.62783 0
M  V30 14035 C 1313.69 -2.23294 -2.8251 0
M  V30 14036 C 1313.54 -3.74022 -2.49856 0
M  V30 14037 C 1314.86 -2.14407 -3.84341 0
M  V30 14038 H 1311.98 -0.476958 -0.561854 0
M  V30 14039 H 1314.62 -1.67018 -0.905805 0
M  V30 14040 H 1312.77 -1.92652 -3.37369 0
M  V30 14041 H 1314.44 -4.15187 -2.01041 0
M  V30 14042 H 1312.69 -3.93411 -1.82785 0
M  V30 14043 H 1313.36 -4.34057 -3.41026 0
M  V30 14044 H 1315.83 -2.41381 -3.38932 0
M  V30 14045 H 1314.71 -2.81199 -4.71401 0
M  V30 14046 H 1314.97 -1.13166 -4.27371 0
M  V30 14047 N 1314.03 1.01274 -1.20754 0
M  V30 14048 C 1314.98 2.09894 -0.959852 0
M  V30 14049 C 1315.95 1.65726 0.111351 0
M  V30 14050 O 1317.13 1.90769 -0.0341721 0
M  V30 14051 C 1314.27 3.41126 -0.52223 0
M  V30 14052 C 1313.39 3.98749 -1.66202 0
M  V30 14053 C 1312.52 5.18057 -1.17432 0
M  V30 14054 C 1311.56 5.67772 -2.28694 0
M  V30 14055 N 1310.7 6.78338 -1.81114 0
M  V30 14056 H 1315.54 2.30416 -1.88977 0
M  V30 14057 H 1313.07 1.12989 -0.941906 0
M  V30 14058 H 1315.03 4.16451 -0.249799 0
M  V30 14059 H 1313.66 3.20665 0.370688 0
M  V30 14060 H 1312.71 3.20483 -2.04927 0
M  V30 14061 H 1314.03 4.31646 -2.49967 0
M  V30 14062 H 1313.18 6.00601 -0.858086 0
M  V30 14063 H 1311.92 4.86735 -0.306614 0
M  V30 14064 H 1310.92 4.8383 -2.61129 0
M  V30 14065 H 1312.15 6.01127 -3.15948 0
M  V30 14066 H 1310.09 6.48837 -0.966761 0
M  V30 14067 H 1310.01 7.10448 -2.58457 0
M  V30 14068 H 1311.28 7.64437 -1.52502 0
M  V30 14069 N 1315.51 1.01404 1.20644 0
M  V30 14070 C 1316.76 0.700523 1.89571 0
M  V30 14071 C 1317.08 -0.771978 1.79068 0
M  V30 14072 O 1316.35 -1.55506 1.19142 0
M  V30 14073 H 1314.93 0.256122 0.70172 0
M  V30 14074 H 1317.59 1.28509 1.46531 0
M  V30 14075 H 1316.69 0.981665 2.9626 0
M  V30 14076 N 1316.99 -1.36373 0.789944 0
M  V30 14077 C 1317.92 -2.2873 0.146642 0
M  V30 14078 C 1318.93 -1.49503 -0.644419 0
M  V30 14079 O 1320.12 -1.71939 -0.479515 0
M  V30 14080 C 1317.22 -3.28945 -0.815369 0
M  V30 14081 C 1316.39 -4.37337 -0.0742515 0
M  V30 14082 C 1315.45 -5.17511 -0.952284 0
M  V30 14083 O 1314.48 -5.67726 -0.409336 0
M  V30 14084 N 1315.68 -5.34001 -2.27648 0
M  V30 14085 H 1318.45 -2.84578 0.939978 0
M  V30 14086 H 1316.01 -1.48545 0.643898 0
M  V30 14087 H 1318 -3.79469 -1.40661 0
M  V30 14088 H 1316.57 -2.73734 -1.50958 0
M  V30 14089 H 1315.79 -3.8797 0.698068 0
M  V30 14090 H 1317.08 -5.06919 0.437148 0
M  V30 14091 H 1316.48 -4.94819 -2.74173 0
M  V30 14092 H 1315.03 -5.87766 -2.81735 0
M  V30 14093 N 1318.47 -0.542005 -1.47987 0
M  V30 14094 C 1319.41 0.214151 -2.29804 0
M  V30 14095 C 1320.38 0.922625 -1.38119 0
M  V30 14096 O 1321.57 0.921301 -1.67083 0
M  V30 14097 C 1318.71 1.24768 -3.21756 0
M  V30 14098 C 1317.82 0.546824 -4.28525 0
M  V30 14099 C 1316.96 1.56432 -5.07644 0
M  V30 14100 C 1315.99 0.847598 -6.06203 0
M  V30 14101 N 1315.13 1.81121 -6.78336 0
M  V30 14102 H 1319.97 -0.489707 -2.93949 0
M  V30 14103 H 1317.51 -0.253331 -1.44902 0
M  V30 14104 H 1319.47 1.85933 -3.73477 0
M  V30 14105 H 1318.1 1.91976 -2.59509 0
M  V30 14106 H 1317.15 -0.179026 -3.79978 0
M  V30 14107 H 1318.46 -0.0153623 -4.98798 0
M  V30 14108 H 1317.61 2.24992 -5.63439 0
M  V30 14109 H 1316.35 2.16041 -4.37238 0
M  V30 14110 H 1315.36 0.147989 -5.49601 0
M  V30 14111 H 1316.58 0.257454 -6.78612 0
M  V30 14112 H 1314.53 2.39615 -6.10672 0
M  V30 14113 H 1314.45 1.30077 -7.44725 0
M  V30 14114 H 1315.71 2.48842 -7.38714 0
M  V30 14115 N 1319.94 1.55134 -0.277709 0
M  V30 14116 C 1320.87 2.256 0.602232 0
M  V30 14117 C 1321.85 1.24708 1.15681 0
M  V30 14118 O 1323.04 1.53433 1.19046 0
M  V30 14119 C 1320.17 2.97907 1.78519 0
M  V30 14120 C 1319.12 4.0575 1.36203 0
M  V30 14121 C 1318.45 4.65644 2.62829 0
M  V30 14122 C 1319.75 5.19801 0.510327 0
M  V30 14123 H 1321.44 2.99396 0.0145622 0
M  V30 14124 H 1318.99 1.43999 0.00556389 0
M  V30 14125 H 1320.94 3.45915 2.40668 0
M  V30 14126 H 1319.67 2.21649 2.39873 0
M  V30 14127 H 1318.33 3.58557 0.763726 0
M  V30 14128 H 1317.97 3.86053 3.22447 0
M  V30 14129 H 1317.67 5.38463 2.35227 0
M  V30 14130 H 1319.2 5.16403 3.25823 0
M  V30 14131 H 1320.61 5.63845 1.03689 0
M  V30 14132 H 1319.01 5.99197 0.329073 0
M  V30 14133 H 1320.08 4.82614 -0.470273 0
M  V30 14134 N 1321.42 0.00503138 1.57599 0
M  V30 14135 C 1322.67 -0.677979 1.89964 0
M  V30 14136 C 1322.98 -1.74657 0.88059 0
M  V30 14137 O 1324.19 -2.48455 1.09463 0
M  V30 14138 C 1322.65 -1.25708 3.37232 0
M  V30 14139 C 1322.25 -0.223045 4.47444 0
M  V30 14140 C 1324 -1.91799 3.787 0
M  V30 14141 C 1321.9 -0.812416 5.85793 0
M  V30 14142 H 1320.83 -0.256991 0.708852 0
M  V30 14143 H 1323.49 0.0663988 1.8338 0
M  V30 14144 H 1321.87 -2.05228 3.3867 0
M  V30 14145 H 1323.04 0.54794 4.57531 0
M  V30 14146 H 1321.36 0.337714 4.15028 0
M  V30 14147 H 1323.95 -2.36808 4.79402 0
M  V30 14148 H 1324.3 -2.75067 3.1248 0
M  V30 14149 H 1324.83 -1.19004 3.79583 0
M  V30 14150 H 1321.57 -0.0184031 6.55497 0
M  V30 14151 H 1321.09 -1.55244 5.79361 0
M  V30 14152 H 1322.77 -1.30952 6.33609 0
M  V30 14153 N 1322.9 -1.55308 -0.267798 0
M  V30 14154 C 1324.15 -1.75364 -0.996515 0
M  V30 14155 C 1324.46 -0.565028 -1.87261 0
M  V30 14156 O 1325.67 -0.648119 -2.63651 0
M  V30 14157 C 1324.12 -3.10388 -1.82175 0
M  V30 14158 C 1323.73 -4.36832 -0.994062 0
M  V30 14159 C 1325.48 -3.39791 -2.54445 0
M  V30 14160 C 1323.38 -5.62893 -1.81398 0
M  V30 14161 H 1322.31 -0.653679 -0.375793 0
M  V30 14162 H 1324.96 -1.81762 -0.251975 0
M  V30 14163 H 1323.35 -2.98041 -2.60744 0
M  V30 14164 H 1324.52 -4.6011 -0.252167 0
M  V30 14165 H 1322.83 -4.1461 -0.385662 0
M  V30 14166 H 1325.43 -4.31184 -3.16203 0
M  V30 14167 H 1325.77 -2.60159 -3.24997 0
M  V30 14168 H 1326.31 -3.53259 -1.82902 0
M  V30 14169 H 1323.05 -6.45287 -1.15258 0
M  V30 14170 H 1322.57 -5.43751 -2.5317 0
M  V30 14171 H 1324.25 -6.01384 -2.38634 0
M  V30 14172 N 1324.38 0.532545 -1.4833 0
M  V30 14173 C 1325.61 1.31331 -1.59874 0
M  V30 14174 C 1326.02 1.87028 -0.258037 0
M  V30 14175 O 1325.38 1.66272 0.752317 0
M  V30 14176 C 1325.43 2.46596 -2.64334 0
M  V30 14177 O 1325.15 1.93195 -3.93201 0
M  V30 14178 C 1326.65 3.38454 -2.86294 0
M  V30 14179 H 1323.87 0.399476 -0.539129 0
M  V30 14180 H 1326.41 0.642696 -1.94138 0
M  V30 14181 H 1324.57 3.09548 -2.32936 0
M  V30 14182 H 1324.98 2.68627 -4.50489 0
M  V30 14183 H 1326.46 4.15687 -3.63192 0
M  V30 14184 H 1326.93 3.93526 -1.95022 0
M  V30 14185 H 1327.54 2.81297 -3.18986 0
M  V30 14186 N 1325.86 1.36875 0.78122 0
M  V30 14187 C 1327.27 1.17467 1.08044 0
M  V30 14188 C 1327.47 0.00434799 2.015 0
M  V30 14189 O 1326.53 -0.658499 2.43762 0
M  V30 14190 C 1327.84 2.48917 1.68704 0
M  V30 14191 C 1329.39 2.55354 1.81007 0
M  V30 14192 C 1329.86 3.8691 2.45081 0
M  V30 14193 N 1331.35 3.88301 2.52541 0
M  V30 14194 C 1332.09 4.86837 3.02947 0
M  V30 14195 N 1331.59 5.95768 3.53598 0
M  V30 14196 N 1333.38 4.74249 3.01735 0
M  V30 14197 H 1325.53 2.11793 0.160503 0
M  V30 14198 H 1327.79 0.938507 0.133825 0
M  V30 14199 H 1327.5 3.34867 1.07503 0
M  V30 14200 H 1327.37 2.65319 2.68115 0
M  V30 14201 H 1329.76 1.69816 2.41343 0
M  V30 14202 H 1329.84 2.42843 0.803783 0
M  V30 14203 H 1329.48 4.72858 1.85386 0
M  V30 14204 H 1329.41 3.9672 3.46296 0
M  V30 14205 H 1331.91 3.09607 2.16684 0
M  V30 14206 H 1332.22 6.66918 3.90435 0
M  V30 14207 H 1330.56 5.99426 3.51728 0
M  V30 14208 H 1333.75 3.88275 2.61458 0
M  V30 14209 H 1333.93 5.512 3.40709 0
M  V30 14210 N 1327.33 -1.00632 1.21289 0
M  V30 14211 C 1328.58 -1.74044 1.02728 0
M  V30 14212 C 1328.9 -1.89963 -0.440351 0
M  V30 14213 O 1328.17 -1.44958 -1.31772 0
M  V30 14214 H 1326.75 -0.644813 0.377127 0
M  V30 14215 H 1329.41 -1.21272 1.52575 0
M  V30 14216 H 1328.51 -2.74011 1.49413 0
M  V30 14217 N 1328.81 -1.02043 -1.20104 0
M  V30 14218 C 1329.74 -0.614421 -2.25271 0
M  V30 14219 C 1330.72 0.37242 -1.65973 0
M  V30 14220 O 1331.91 0.257005 -1.92492 0
M  V30 14221 C 1329.04 0.0442085 -3.47272 0
M  V30 14222 C 1327.99 -0.864019 -4.19188 0
M  V30 14223 C 1327.32 -0.0709551 -5.34653 0
M  V30 14224 C 1328.62 -2.17385 -4.74912 0
M  V30 14225 H 1330.31 -1.49355 -2.59487 0
M  V30 14226 H 1327.86 -0.719591 -1.24731 0
M  V30 14227 H 1329.81 0.339825 -4.20028 0
M  V30 14228 H 1328.53 0.958082 -3.12231 0
M  V30 14229 H 1327.19 -1.1437 -3.48303 0
M  V30 14230 H 1326.84 0.844688 -4.95857 0
M  V30 14231 H 1326.54 -0.67583 -5.83701 0
M  V30 14232 H 1328.07 0.218118 -6.1021 0
M  V30 14233 H 1329.48 -1.94034 -5.39466 0
M  V30 14234 H 1327.88 -2.72991 -5.34412 0
M  V30 14235 H 1328.95 -2.83427 -3.93443 0
M  V30 14236 N 1330.29 1.35952 -0.797165 0
M  V30 14237 C 1331.22 2.28649 -0.15877 0
M  V30 14238 C 1332.24 1.49842 0.636481 0
M  V30 14239 O 1333.42 1.72191 0.47039 0
M  V30 14240 C 1330.52 3.29373 0.797913 0
M  V30 14241 C 1329.7 4.3737 0.0510574 0
M  V30 14242 C 1328.76 5.18009 0.924826 0
M  V30 14243 O 1327.78 5.67935 0.379223 0
M  V30 14244 N 1328.98 5.352 2.24813 0
M  V30 14245 H 1331.75 2.84075 -0.955056 0
M  V30 14246 H 1329.31 1.48201 -0.651767 0
M  V30 14247 H 1331.3 3.80209 1.38646 0
M  V30 14248 H 1329.87 2.74531 1.49504 0
M  V30 14249 H 1329.09 3.87594 -0.718633 0
M  V30 14250 H 1330.38 5.0668 -0.464025 0
M  V30 14251 H 1329.78 4.96266 2.71545 0
M  V30 14252 H 1328.34 5.89252 2.78614 0
M  V30 14253 N 1331.77 0.549846 1.47697 0
M  V30 14254 C 1332.72 -0.201961 2.29915 0
M  V30 14255 C 1333.69 -0.915287 1.38606 0
M  V30 14256 O 1334.87 -0.912427 1.67569 0
M  V30 14257 C 1332.01 -1.2306 3.22413 0
M  V30 14258 C 1331.12 -0.524091 4.28809 0
M  V30 14259 C 1330.26 -1.53738 5.08466 0
M  V30 14260 C 1329.3 -0.815437 6.06644 0
M  V30 14261 N 1328.43 -1.77521 6.79287 0
M  V30 14262 H 1333.27 0.505289 2.93685 0
M  V30 14263 H 1330.81 0.261012 1.44766 0
M  V30 14264 H 1332.77 -1.83949 3.74458 0
M  V30 14265 H 1331.4 -1.90597 2.60523 0
M  V30 14266 H 1330.45 0.199174 3.79878 0
M  V30 14267 H 1331.76 0.0418145 4.98782 0
M  V30 14268 H 1330.92 -2.22001 5.64624 0
M  V30 14269 H 1329.66 -2.1372 4.38378 0
M  V30 14270 H 1328.66 -0.11884 5.49672 0
M  V30 14271 H 1329.89 -0.221462 6.78739 0
M  V30 14272 H 1327.83 -2.36374 6.11934 0
M  V30 14273 H 1327.75 -1.26126 7.45405 0
M  V30 14274 H 1329.02 -2.44921 7.40023 0
M  V30 14275 N 1333.25 -1.54984 0.285932 0
M  V30 14276 C 1334.52 -1.91872 -0.380083 0
M  V30 14277 C 1334.9 -1.21146 -1.72878 0
M  V30 14278 O 1334.25 -0.341999 -2.25926 0
M  V30 14279 C 1334.46 -3.45258 -0.509667 0
M  V30 14280 C 1335.81 -4.17232 -0.787549 0
M  V30 14281 O 1336.83 -3.51211 -0.594062 0
M  V30 14282 O 1335.69 -5.34085 -1.15826 0
M  V30 14283 H 1332.79 -0.799931 -0.209856 0
M  V30 14284 H 1335.33 -1.66403 0.332882 0
M  V30 14285 H 1334.1 -3.88829 0.439049 0
M  V30 14286 H 1333.73 -3.76715 -1.27168 0
M  V30 14287 N 1334.72 -0.0133892 -1.57594 0
M  V30 14288 C 1335.95 0.67827 -1.95149 0
M  V30 14289 C 1336.36 1.67089 -0.887572 0
M  V30 14290 O 1335.71 1.8316 0.140774 0
M  V30 14291 C 1335.77 1.45441 -3.28766 0
M  V30 14292 C 1335.43 0.621889 -4.52749 0
M  V30 14293 C 1336.43 -0.0961541 -5.19811 0
M  V30 14294 C 1334.11 0.563917 -4.99124 0
M  V30 14295 C 1336.11 -0.86101 -6.31558 0
M  V30 14296 C 1333.79 -0.204654 -6.10757 0
M  V30 14297 C 1334.79 -0.915839 -6.76832 0
M  V30 14298 O 1334.48 -1.67184 -7.86323 0
M  V30 14299 H 1334.21 0.192983 -0.647869 0
M  V30 14300 H 1336.77 -0.0646816 -2.05298 0
M  V30 14301 H 1335 2.24215 -3.15063 0
M  V30 14302 H 1336.69 2.03268 -3.51336 0
M  V30 14303 H 1337.45 -0.0606029 -4.84962 0
M  V30 14304 H 1333.33 1.10702 -4.47511 0
M  V30 14305 H 1336.87 -1.41664 -6.83064 0
M  V30 14306 H 1332.77 -0.241979 -6.45046 0
M  V30 14307 H 1333.54 -1.58996 -8.02909 0
M  V30 14308 N 1336.2 1.55448 0.259558 0
M  V30 14309 C 1337.62 1.47588 0.607442 0
M  V30 14310 C 1337.82 0.701053 1.88911 0
M  V30 14311 O 1336.87 0.225305 2.51493 0
M  V30 14312 C 1338.19 2.91905 0.72192 0
M  V30 14313 C 1339.74 3.02201 0.815087 0
M  V30 14314 C 1340.21 4.47799 0.961231 0
M  V30 14315 N 1341.7 4.51684 1.02642 0
M  V30 14316 C 1342.44 5.61574 1.15854 0
M  V30 14317 N 1341.93 6.81301 1.257 0
M  V30 14318 N 1343.73 5.49344 1.1907 0
M  V30 14319 H 1335.88 2.04271 -0.581981 0
M  V30 14320 H 1338.14 0.926865 -0.199059 0
M  V30 14321 H 1337.85 3.51382 -0.149611 0
M  V30 14322 H 1337.72 3.41681 1.59793 0
M  V30 14323 H 1340.11 2.42813 1.67708 0
M  V30 14324 H 1340.19 2.55656 -0.0858102 0
M  V30 14325 H 1339.83 5.07794 0.103848 0
M  V30 14326 H 1339.76 4.92013 1.87698 0
M  V30 14327 H 1342.25 3.65446 0.962184 0
M  V30 14328 H 1342.57 7.60801 1.35652 0
M  V30 14329 H 1340.91 6.84087 1.2268 0
M  V30 14330 H 1344.1 4.54745 1.11018 0
M  V30 14331 H 1344.27 6.35025 1.29022 0
M  V30 14332 N 1337.68 -0.524672 1.4861 0
M  V30 14333 C 1338.91 -1.30482 1.60568 0
M  V30 14334 C 1339.32 -1.86889 0.267952 0
M  V30 14335 O 1338.68 -1.66669 -0.743488 0
M  V30 14336 C 1338.73 -2.45191 2.65638 0
M  V30 14337 O 1338.45 -1.91107 3.9422 0
M  V30 14338 C 1339.95 -3.36931 2.88084 0
M  V30 14339 H 1337.17 -0.396612 0.541239 0
M  V30 14340 H 1339.72 -0.632392 1.94476 0
M  V30 14341 H 1337.87 -3.08308 2.34574 0
M  V30 14342 H 1338.29 -2.66234 4.51907 0
M  V30 14343 H 1339.76 -4.13755 3.65391 0
M  V30 14344 H 1340.24 -3.92487 1.97106 0
M  V30 14345 H 1340.84 -2.79601 3.20473 0
M  V30 14346 N 1339.16 -1.37287 -0.77395 0
M  V30 14347 C 1340.44 -1.2291 -1.52159 0
M  V30 14348 C 1340.82 0.178249 -2.10346 0
M  V30 14349 O 1340.16 1.18564 -1.95333 0
M  V30 14350 C 1340.37 -2.32337 -2.60424 0
M  V30 14351 C 1341.72 -2.69769 -3.27887 0
M  V30 14352 O 1342.75 -2.31497 -2.70717 0
M  V30 14353 O 1341.6 -3.35699 -4.31241 0
M  V30 14354 H 1338.7 -0.47948 -0.673816 0
M  V30 14355 H 1341.24 -1.49061 -0.811105 0
M  V30 14356 H 1340.02 -3.26591 -2.15532 0
M  V30 14357 H 1339.64 -2.07638 -3.39076 0
M  V30 14358 N 1340.64 0.999871 -1.21821 0
M  V30 14359 C 1341.57 2.10708 -1.00621 0
M  V30 14360 C 1342.55 1.69954 0.0705417 0
M  V30 14361 O 1343.73 1.9399 -0.0903042 0
M  V30 14362 C 1340.86 3.42496 -0.575646 0
M  V30 14363 C 1339.82 3.97068 -1.59754 0
M  V30 14364 C 1339.14 5.24822 -1.02304 0
M  V30 14365 C 1340.44 4.28545 -2.98574 0
M  V30 14366 H 1342.14 2.28701 -1.93226 0
M  V30 14367 H 1339.68 1.09903 -0.930443 0
M  V30 14368 H 1341.64 4.19357 -0.414481 0
M  V30 14369 H 1340.36 3.2431 0.386059 0
M  V30 14370 H 1339.02 3.22332 -1.74636 0
M  V30 14371 H 1338.67 5.02972 -0.0529016 0
M  V30 14372 H 1338.37 5.62299 -1.70567 0
M  V30 14373 H 1339.89 6.04322 -0.873312 0
M  V30 14374 H 1341.3 4.96229 -2.87106 0
M  V30 14375 H 1339.7 4.77178 -3.63897 0
M  V30 14376 H 1340.77 3.36607 -3.49032 0
M  V30 14377 N 1342.11 1.02678 1.19562 0
M  V30 14378 C 1343.36 0.723086 1.89471 0
M  V30 14379 C 1343.69 -0.746269 1.79289 0
M  V30 14380 O 1342.97 -1.54322 1.18384 0
M  V30 14381 C 1343.25 1.17224 3.40486 0
M  V30 14382 C 1343.1 2.70266 3.5955 0
M  V30 14383 C 1344.42 0.751397 4.33638 0
M  V30 14384 H 1341.54 0.264155 0.688034 0
M  V30 14385 H 1344.18 1.27633 1.40747 0
M  V30 14386 H 1342.33 0.701544 3.82113 0
M  V30 14387 H 1344.01 3.25266 3.27108 0
M  V30 14388 H 1342.25 3.10758 3.02675 0
M  V30 14389 H 1342.92 2.96748 4.65451 0
M  V30 14390 H 1345.4 1.15621 3.99714 0
M  V30 14391 H 1344.27 1.09358 5.37896 0
M  V30 14392 H 1344.53 -0.346367 4.40741 0
M  V30 14393 N 1343.59 -1.35528 0.804364 0
M  V30 14394 C 1344.84 -1.98832 0.383692 0
M  V30 14395 C 1345.17 -1.63816 -1.04855 0
M  V30 14396 O 1344.42 -0.892272 -1.74175 0
M  V30 14397 C 1344.72 -3.5372 0.511571 0
M  V30 14398 C 1344.39 -4.08597 1.9068 0
M  V30 14399 C 1343.05 -4.23297 2.28852 0
M  V30 14400 C 1345.4 -4.3834 2.81971 0
M  V30 14401 C 1342.73 -4.65056 3.57687 0
M  V30 14402 C 1345.08 -4.81537 4.1025 0
M  V30 14403 C 1343.75 -4.94442 4.48423 0
M  V30 14404 H 1343.02 -0.727577 0.140403 0
M  V30 14405 H 1345.66 -1.61777 1.02472 0
M  V30 14406 H 1343.97 -3.91221 -0.212916 0
M  V30 14407 H 1345.66 -4.00653 0.166888 0
M  V30 14408 H 1342.25 -3.97606 1.60023 0
M  V30 14409 H 1346.44 -4.26538 2.5373 0
M  V30 14410 H 1341.69 -4.73236 3.87115 0
M  V30 14411 H 1345.87 -5.03512 4.81091 0
M  V30 14412 H 1343.5 -5.26558 5.48307 0
M  V30 14413 N 1345.07 -0.557671 -1.47404 0
M  V30 14414 C 1346.32 -0.0337216 -2.02072 0
M  V30 14415 C 1346.64 1.32106 -1.43433 0
M  V30 14416 O 1345.91 1.86171 -0.609692 0
M  V30 14417 H 1344.49 -0.00947648 -0.74694 0
M  V30 14418 H 1347.15 -0.727784 -1.80802 0
M  V30 14419 H 1346.25 0.0540331 -3.12053 0
M  V30 14420 N 1346.55 1.54831 -0.294147 0
M  V30 14421 C 1347.78 2.04411 0.319938 0
M  V30 14422 C 1348.19 1.17174 1.4804 0
M  V30 14423 O 1347.55 0.195881 1.81446 0
M  V30 14424 C 1347.6 3.52924 0.782751 0
M  V30 14425 O 1347.32 4.36844 -0.331512 0
M  V30 14426 C 1348.82 4.18474 1.4627 0
M  V30 14427 H 1346.04 0.667286 0.0704973 0
M  V30 14428 H 1348.59 1.9989 -0.431785 0
M  V30 14429 H 1346.74 3.57828 1.48451 0
M  V30 14430 H 1347.16 5.24493 0.0275743 0
M  V30 14431 H 1348.63 5.23933 1.73776 0
M  V30 14432 H 1349.11 3.67793 2.40052 0
M  V30 14433 H 1349.71 4.17626 0.804291 0
M  V30 14434 N 1348.03 0.0217466 1.57585 0
M  V30 14435 C 1349.3 -0.696733 1.8277 0
M  V30 14436 C 1349.68 -1.90759 0.904112 0
M  V30 14437 O 1349.03 -2.28461 -0.0420522 0
M  V30 14438 C 1349.24 -1.08193 3.31806 0
M  V30 14439 C 1350.59 -1.47667 3.98095 0
M  V30 14440 O 1351.61 -1.17511 3.36258 0
M  V30 14441 O 1350.47 -2.03825 5.07068 0
M  V30 14442 H 1347.57 -0.341141 0.75336 0
M  V30 14443 H 1350.11 0.0488652 1.6963 0
M  V30 14444 H 1348.89 -0.219799 3.90682 0
M  V30 14445 H 1348.51 -1.88593 3.50026 0
M  V30 14446 N 1349.51 -1.55583 -0.251311 0
M  V30 14447 C 1350.75 -1.77471 -0.981418 0
M  V30 14448 C 1351.08 -0.586228 -1.85141 0
M  V30 14449 O 1350.36 0.415623 -1.90007 0
M  V30 14450 C 1350.64 -3.09204 -1.84567 0
M  V30 14451 C 1350.5 -4.38448 -1.00417 0
M  V30 14452 C 1351.81 -3.37133 -2.82895 0
M  V30 14453 H 1348.93 -0.645664 -0.355369 0
M  V30 14454 H 1351.58 -1.88318 -0.252228 0
M  V30 14455 H 1349.73 -3.00087 -2.46738 0
M  V30 14456 H 1351.4 -4.5955 -0.40149 0
M  V30 14457 H 1349.64 -4.32703 -0.308365 0
M  V30 14458 H 1350.31 -5.26995 -1.64258 0
M  V30 14459 H 1352.79 -3.46183 -2.3086 0
M  V30 14460 H 1351.66 -4.30531 -3.40491 0
M  V30 14461 H 1351.92 -2.57829 -3.59133 0
M  V30 14462 N 1350.98 0.516783 -1.48886 0
M  V30 14463 C 1352.21 1.29628 -1.61258 0
M  V30 14464 C 1352.63 1.86744 -0.27786 0
M  V30 14465 O 1351.98 1.67061 0.734639 0
M  V30 14466 C 1352.03 2.43779 -2.66935 0
M  V30 14467 O 1351.76 1.89014 -3.95228 0
M  V30 14468 C 1353.26 3.35398 -2.89867 0
M  V30 14469 H 1350.48 0.393736 -0.543335 0
M  V30 14470 H 1353.02 0.622069 -1.94809 0
M  V30 14471 H 1351.18 3.0706 -2.36206 0
M  V30 14472 H 1351.59 2.63833 -4.53312 0
M  V30 14473 H 1353.06 4.11812 -3.6758 0
M  V30 14474 H 1353.54 3.91436 -1.99185 0
M  V30 14475 H 1354.15 2.77898 -3.21952 0
M  V30 14476 N 1352.46 1.37696 0.766659 0
M  V30 14477 C 1353.7 1.34588 1.53836 0
M  V30 14478 C 1354.07 -0.0676384 1.91881 0
M  V30 14479 O 1355.27 -0.223479 2.67869 0
M  V30 14480 C 1353.54 2.26329 2.76604 0
M  V30 14481 S 1355.1 2.4112 3.66615 0
M  V30 14482 H 1351.91 0.477717 0.5266 0
M  V30 14483 H 1354.52 1.73495 0.901099 0
M  V30 14484 H 1353.22 3.27943 2.46742 0
M  V30 14485 H 1352.75 1.88525 3.45285 0
M  V30 14486 H 1354.77 1.62556 4.68818 0
M  V30 14487 N 1353.94 -0.993397 1.22349 0
M  V30 14488 C 1355.19 -1.73635 1.05936 0
M  V30 14489 C 1355.54 -1.88166 -0.401414 0
M  V30 14490 O 1354.83 -1.41338 -1.2936 0
M  V30 14491 C 1355.03 -3.14191 1.70349 0
M  V30 14492 C 1354.86 -3.13367 3.22539 0
M  V30 14493 C 1353.63 -3.19289 3.91641 0
M  V30 14494 C 1355.82 -2.97559 4.1948 0
M  V30 14495 N 1353.81 -3.08213 5.30922 0
M  V30 14496 C 1355.18 -2.94506 5.45588 0
M  V30 14497 C 1357.23 -2.81947 4.10378 0
M  V30 14498 C 1355.94 -2.7744 6.63641 0
M  V30 14499 C 1357.96 -2.66241 5.28081 0
M  V30 14500 C 1357.32 -2.63875 6.53107 0
M  V30 14501 H 1353.42 -0.64505 0.44208 0
M  V30 14502 H 1356.01 -1.17981 1.54882 0
M  V30 14503 H 1354.18 -3.6809 1.23954 0
M  V30 14504 H 1355.91 -3.77046 1.47032 0
M  V30 14505 H 1352.66 -3.26951 3.42637 0
M  V30 14506 H 1353.09 -3.05986 6.03905 0
M  V30 14507 H 1357.73 -2.82574 3.14502 0
M  V30 14508 H 1355.45 -2.75558 7.59666 0
M  V30 14509 H 1359.03 -2.55144 5.2287 0
M  V30 14510 H 1357.91 -2.5187 7.42652 0
M  V30 14511 N 1355.42 -1.03311 -1.19015 0
M  V30 14512 C 1356.66 -0.732039 -1.88805 0
M  V30 14513 C 1356.99 0.739688 -1.79886 0
M  V30 14514 O 1356.25 1.55476 -1.18851 0
M  V30 14515 C 1356.55 -1.13402 -3.38932 0
M  V30 14516 C 1356.21 -2.60473 -3.68055 0
M  V30 14517 C 1354.87 -3.00654 -3.75713 0
M  V30 14518 C 1357.23 -3.55604 -3.81045 0
M  V30 14519 C 1354.55 -4.3487 -3.93833 0
M  V30 14520 C 1356.91 -4.89529 -4.00679 0
M  V30 14521 C 1355.57 -5.29392 -4.06571 0
M  V30 14522 H 1354.84 -0.267872 -0.690888 0
M  V30 14523 H 1357.49 -1.29673 -1.40915 0
M  V30 14524 H 1355.79 -0.487997 -3.88749 0
M  V30 14525 H 1357.49 -0.878532 -3.91258 0
M  V30 14526 H 1354.08 -2.28348 -3.62706 0
M  V30 14527 H 1358.26 -3.25711 -3.74467 0
M  V30 14528 H 1353.52 -4.65285 -3.96636 0
M  V30 14529 H 1357.69 -5.63153 -4.09672 0
M  V30 14530 H 1355.32 -6.33402 -4.20364 0
M  V30 14531 N 1356.9 1.35099 -0.81154 0
M  V30 14532 C 1358.14 1.9892 -0.394815 0
M  V30 14533 C 1358.47 1.6422 1.0366 0
M  V30 14534 O 1357.75 0.908031 1.72003 0
M  V30 14535 C 1358.03 3.55331 -0.58413 0
M  V30 14536 C 1357.89 3.99812 -2.06084 0
M  V30 14537 C 1359.2 4.40098 -0.0129096 0
M  V30 14538 H 1356.32 0.72261 -0.144926 0
M  V30 14539 H 1358.97 1.60173 -1.02199 0
M  V30 14540 H 1357.12 3.88468 -0.0502446 0
M  V30 14541 H 1358.79 3.77061 -2.65749 0
M  V30 14542 H 1357.03 3.50539 -2.55548 0
M  V30 14543 H 1357.7 5.08655 -2.14416 0
M  V30 14544 H 1360.18 4.13449 -0.468917 0
M  V30 14545 H 1359.05 5.4862 -0.175252 0
M  V30 14546 H 1359.31 4.28675 1.0812 0
M  V30 14547 N 1358.37 0.56548 1.47106 0
M  V30 14548 C 1359.32 -0.198133 2.27137 0
M  V30 14549 C 1360.31 -0.877743 1.3485 0
M  V30 14550 O 1361.5 -0.774683 1.59147 0
M  V30 14551 C 1358.63 -1.22223 3.20806 0
M  V30 14552 C 1357.71 -0.545616 4.20576 0
M  V30 14553 N 1358.11 0.389029 5.04302 0
M  V30 14554 C 1356.4 -0.798517 4.38793 0
M  V30 14555 C 1357.1 0.782852 5.76408 0
M  V30 14556 N 1356.08 0.13583 5.4343 0
M  V30 14557 H 1359.88 0.520354 2.89257 0
M  V30 14558 H 1357.4 0.386013 1.57746 0
M  V30 14559 H 1359.39 -1.78332 3.76833 0
M  V30 14560 H 1358.05 -1.94172 2.60244 0
M  V30 14561 H 1359.06 0.763644 5.12239 0
M  V30 14562 H 1355.74 -1.50589 3.89396 0
M  V30 14563 H 1357.13 1.55133 6.53746 0
M  V30 14564 N 1359.85 -1.54672 0.302354 0
M  V30 14565 C 1360.8 -2.25022 -0.58887 0
M  V30 14566 C 1361.79 -1.25671 -1.13592 0
M  V30 14567 O 1363 -1.43518 -1.0864 0
M  V30 14568 H 1359.38 -0.722515 -0.208509 0
M  V30 14569 H 1361.35 -2.98388 0.0269928 0
M  V30 14570 C 1360.1 -3.00532 -1.74859 0
M  V30 14571 H 1359.42 -3.76786 -1.33688 0
M  V30 14572 H 1360.86 -3.53036 -2.34823 0
M  V30 14573 C 1359.32 -2.0758 -2.65353 0
M  V30 14574 O 1359.85 -1.64473 -3.66485 0
M  V30 14575 N 1358.05 -1.73508 -2.33116 0
M  V30 14576 H 1357.6 -2.0876 -1.5092 0
M  V30 14577 H 1357.56 -1.11591 -2.9393 0
M  V30 14578 N 1361.33 -0.0301034 -1.57571 0
M  V30 14579 C 1362.56 0.662045 -1.9655 0
M  V30 14580 C 1362.98 1.64811 -0.906581 0
M  V30 14581 O 1362.34 1.80816 0.132415 0
M  V30 14582 C 1362.39 1.34389 -3.34622 0
M  V30 14583 O 1361.49 2.45919 -3.31056 0
M  V30 14584 H 1360.83 0.173842 -0.640839 0
M  V30 14585 H 1363.36 -0.092248 -2.04392 0
M  V30 14586 H 1363.37 1.70045 -3.70875 0
M  V30 14587 H 1362.05 0.621092 -4.11236 0
M  V30 14588 H 1360.62 2.12367 -3.06521 0
M  V30 14589 N 1362.81 1.55714 0.243056 0
M  V30 14590 C 1364.06 1.77375 0.968638 0
M  V30 14591 C 1364.38 0.594781 1.85708 0
M  V30 14592 O 1363.65 -0.38928 1.91993 0
M  V30 14593 H 1362.23 0.654174 0.360646 0
M  V30 14594 H 1364.89 1.93157 0.260079 0
M  V30 14595 H 1363.99 2.68674 1.5881 0
M  V30 14596 N 1364.29 -0.50888 1.49158 0
M  V30 14597 C 1365.23 -1.61129 1.65246 0
M  V30 14598 C 1366.2 -1.58582 0.49405 0
M  V30 14599 O 1367.39 -1.76689 0.720122 0
M  V30 14600 C 1364.53 -2.99311 1.71776 0
M  V30 14601 C 1363.64 -3.11933 2.98868 0
M  V30 14602 C 1362.78 -4.408 2.96426 0
M  V30 14603 C 1361.82 -4.47027 4.18131 0
M  V30 14604 N 1360.95 -5.67311 4.13645 0
M  V30 14605 H 1365.79 -1.4672 2.59379 0
M  V30 14606 H 1363.33 -0.713978 1.28611 0
M  V30 14607 H 1365.29 -3.79392 1.73543 0
M  V30 14608 H 1363.92 -3.12442 0.811159 0
M  V30 14609 H 1362.97 -2.24966 3.06748 0
M  V30 14610 H 1364.28 -3.12393 3.8886 0
M  V30 14611 H 1363.44 -5.29194 2.96712 0
M  V30 14612 H 1362.17 -4.42893 2.04199 0
M  V30 14613 H 1361.18 -3.57036 4.18097 0
M  V30 14614 H 1362.4 -4.46656 5.11542 0
M  V30 14615 H 1360.35 -5.70261 3.2425 0
M  V30 14616 H 1360.27 -5.69355 4.97364 0
M  V30 14617 H 1361.54 -6.57934 4.18022 0
M  V30 14618 N 1365.76 -1.381 -0.759346 0
M  V30 14619 C 1367.01 -1.33727 -1.5153 0
M  V30 14620 C 1367.33 0.0739504 -1.9486 0
M  V30 14621 O 1366.6 1.02049 -1.67221 0
M  V30 14622 H 1365.18 -0.492037 -0.562058 0
M  V30 14623 H 1367.85 -1.72719 -0.902995 0
M  V30 14624 H 1366.94 -1.98439 -2.40891 0
M  V30 14625 N 1367.24 0.986894 -1.22875 0
M  V30 14626 C 1368.49 1.72729 -1.05693 0
M  V30 14627 C 1368.82 1.90191 0.407121 0
M  V30 14628 O 1368.07 1.44667 1.31796 0
M  V30 14629 C 1368.37 3.13283 -1.72012 0
M  V30 14630 C 1368.04 3.15719 -3.2192 0
M  V30 14631 C 1366.7 3.1609 -3.62823 0
M  V30 14632 C 1369.05 3.11539 -4.17843 0
M  V30 14633 C 1366.38 3.09991 -4.98119 0
M  V30 14634 C 1368.73 3.06982 -5.53123 0
M  V30 14635 C 1367.4 3.05672 -5.93397 0
M  V30 14636 H 1366.67 0.63206 -0.386758 0
M  V30 14637 H 1369.31 1.15538 -1.52719 0
M  V30 14638 H 1367.62 3.7382 -1.17327 0
M  V30 14639 H 1369.31 3.69326 -1.56203 0
M  V30 14640 H 1365.9 3.16183 -2.89355 0
M  V30 14641 H 1370.09 3.10397 -3.87256 0
M  V30 14642 H 1365.34 3.07326 -5.28546 0
M  V30 14643 H 1369.52 3.02705 -6.27171 0
M  V30 14644 H 1367.15 3.00701 -6.982 0
M  V30 14645 N 1368.72 1.0394 1.18466 0
M  V30 14646 C 1369.97 0.737233 1.87744 0
M  V30 14647 C 1370.28 -0.737891 1.81148 0
M  V30 14648 O 1371.49 -1.15353 2.45776 0
M  V30 14649 C 1369.94 1.26844 3.36806 0
M  V30 14650 C 1369.55 2.7721 3.51935 0
M  V30 14651 C 1371.3 1.04274 4.11494 0
M  V30 14652 C 1369.2 3.23696 4.9495 0
M  V30 14653 H 1368.13 0.272082 0.703198 0
M  V30 14654 H 1370.78 1.25507 1.33866 0
M  V30 14655 H 1369.17 0.67847 3.90145 0
M  V30 14656 H 1370.34 3.41954 3.08875 0
M  V30 14657 H 1368.66 2.98179 2.90652 0
M  V30 14658 H 1371.25 1.3652 5.16978 0
M  V30 14659 H 1371.6 -0.0200645 4.16295 0
M  V30 14660 H 1372.13 1.59726 3.64325 0
M  V30 14661 H 1368.87 4.29351 4.95316 0
M  V30 14662 H 1368.39 2.63687 5.38729 0
M  V30 14663 H 1370.07 3.17645 5.63658 0
M  V30 14664 N 1370.2 -1.34667 0.818693 0
M  V30 14665 C 1371.48 -1.92838 0.327521 0
M  V30 14666 C 1371.86 -1.74732 -1.18457 0
M  V30 14667 O 1371.2 -1.12352 -1.98971 0
M  V30 14668 C 1371.41 -3.40797 0.752207 0
M  V30 14669 C 1372.76 -4.17948 0.748613 0
M  V30 14670 O 1373.79 -3.49364 0.694517 0
M  V30 14671 O 1372.64 -5.40344 0.817958 0
M  V30 14672 H 1369.74 -0.822249 0.0885148 0
M  V30 14673 H 1372.28 -1.43668 0.9032 0
M  V30 14674 H 1371.06 -3.47759 1.79387 0
M  V30 14675 H 1370.68 -3.97309 0.151992 0
M  V30 14676 N 1371.68 -0.573274 -1.46804 0
M  V30 14677 C 1372.92 -0.0551522 -2.02025 0
M  V30 14678 C 1373.25 1.30577 -1.44826 0
M  V30 14679 O 1372.52 1.85514 -0.629403 0
M  V30 14680 H 1371.1 -0.0173982 -0.746797 0
M  V30 14681 H 1373.76 -0.746919 -1.8002 0
M  V30 14682 H 1372.85 0.0209326 -3.12093 0
M  V30 14683 N 1373.15 1.5451 -0.310553 0
M  V30 14684 C 1374.1 2.2059 0.576555 0
M  V30 14685 C 1375.09 1.18205 1.09163 0
M  V30 14686 O 1376.28 1.43887 1.03081 0
M  V30 14687 C 1373.41 2.95741 1.74334 0
M  V30 14688 C 1372.5 4.05452 1.24378 0
M  V30 14689 N 1372.89 5.03677 0.462921 0
M  V30 14690 C 1371.18 4.19166 1.52367 0
M  V30 14691 C 1371.89 5.81371 0.195709 0
M  V30 14692 N 1370.86 5.38001 0.778203 0
M  V30 14693 H 1374.66 2.93887 -0.0274771 0
M  V30 14694 H 1372.18 1.61987 -0.115773 0
M  V30 14695 H 1374.17 3.41556 2.39051 0
M  V30 14696 H 1372.83 2.23962 2.35098 0
M  V30 14697 H 1373.85 5.1779 0.106943 0
M  V30 14698 H 1370.52 3.58597 2.1381 0
M  V30 14699 H 1371.91 6.70509 -0.432064 0
M  V30 14700 N 1374.63 0.0384594 1.57553 0
M  V30 14701 C 1375.86 -0.647137 1.96203 0
M  V30 14702 C 1376.27 -1.65656 0.914042 0
M  V30 14703 O 1375.61 -1.83361 -0.111617 0
M  V30 14704 C 1375.68 -1.40193 3.31038 0
M  V30 14705 C 1375.34 -0.549782 4.53681 0
M  V30 14706 C 1376.34 0.178839 5.19592 0
M  V30 14707 C 1374.02 -0.48444 4.99958 0
M  V30 14708 C 1376.02 0.961376 6.30108 0
M  V30 14709 C 1373.7 0.301795 6.10354 0
M  V30 14710 C 1374.7 1.0234 6.75289 0
M  V30 14711 O 1374.39 1.79673 7.83564 0
M  V30 14712 H 1374.12 -0.182651 0.650857 0
M  V30 14713 H 1376.68 0.0973346 2.05169 0
M  V30 14714 H 1374.91 -2.19175 3.1859 0
M  V30 14715 H 1376.59 -1.97653 3.54525 0
M  V30 14716 H 1377.36 0.137749 4.84804 0
M  V30 14717 H 1373.24 -1.03568 4.49216 0
M  V30 14718 H 1376.78 1.52513 6.80724 0
M  V30 14719 H 1372.68 0.344569 6.4458 0
M  V30 14720 H 1373.45 1.71749 8.00278 0
M  V30 14721 N 1376.11 -1.55841 -0.234795 0
M  V30 14722 C 1377.06 -1.91326 -1.29086 0
M  V30 14723 C 1378.03 -0.768868 -1.47233 0
M  V30 14724 O 1379.21 -1.0236 -1.61019 0
M  V30 14725 C 1376.35 -2.22388 -2.6389 0
M  V30 14726 C 1375.47 -3.49693 -2.5365 0
M  V30 14727 C 1374.6 -3.70267 -3.80889 0
M  V30 14728 C 1373.64 -4.91132 -3.65317 0
M  V30 14729 N 1372.78 -5.08163 -4.84474 0
M  V30 14730 H 1377.62 -2.81382 -0.981246 0
M  V30 14731 H 1375.15 -1.3928 -0.47324 0
M  V30 14732 H 1377.11 -2.38404 -3.42373 0
M  V30 14733 H 1375.74 -1.35521 -2.92974 0
M  V30 14734 H 1374.79 -3.41943 -1.66672 0
M  V30 14735 H 1376.11 -4.38326 -2.38059 0
M  V30 14736 H 1375.26 -3.86308 -4.67815 0
M  V30 14737 H 1374 -2.7989 -3.9939 0
M  V30 14738 H 1373 -4.75054 -2.76774 0
M  V30 14739 H 1374.23 -5.8298 -3.48298 0
M  V30 14740 H 1372.18 -4.20726 -5.03314 0
M  V30 14741 H 1372.09 -5.90904 -4.71559 0
M  V30 14742 H 1373.36 -5.28627 -5.72865 0
M  V30 14743 N 1377.59 0.500963 -1.49426 0
M  V30 14744 C 1378.87 1.26231 -1.49416 0
M  V30 14745 C 1379.25 2.0993 -0.221908 0
M  V30 14746 O 1378.59 2.14198 0.795712 0
M  V30 14747 C 1378.8 2.11899 -2.77308 0
M  V30 14748 C 1380.15 2.71086 -3.26799 0
M  V30 14749 O 1381.18 2.22166 -2.78425 0
M  V30 14750 O 1380.04 3.60141 -4.11049 0
M  V30 14751 H 1377.13 0.571224 -0.598024 0
M  V30 14752 H 1379.68 0.51523 -1.61689 0
M  V30 14753 H 1378.45 1.50027 -3.61397 0
M  V30 14754 H 1378.07 2.93799 -2.67896 0
M  V30 14755 N 1379.07 1.38501 0.752011 0
M  V30 14756 C 1380.3 1.37832 1.53902 0
M  V30 14757 C 1380.71 -0.0333526 1.89171 0
M  V30 14758 O 1380.05 -1.01076 1.53393 0
M  V30 14759 C 1380.11 2.17098 2.86546 0
M  V30 14760 C 1379.77 3.65895 2.73807 0
M  V30 14761 C 1380.77 4.59353 2.43497 0
M  V30 14762 C 1378.46 4.0927 2.9121 0
M  V30 14763 C 1380.45 5.94167 2.30746 0
M  V30 14764 C 1378.14 5.44165 2.78079 0
M  V30 14765 C 1379.14 6.36427 2.47891 0
M  V30 14766 O 1378.82 7.68839 2.34822 0
M  V30 14767 H 1378.56 0.473187 0.482773 0
M  V30 14768 H 1381.11 1.82715 0.938324 0
M  V30 14769 H 1379.34 1.66936 3.48811 0
M  V30 14770 H 1381.03 2.08817 3.48067 0
M  V30 14771 H 1381.79 4.27147 2.29718 0
M  V30 14772 H 1377.67 3.37803 3.13704 0
M  V30 14773 H 1381.22 6.66148 2.07105 0
M  V30 14774 H 1377.11 5.75967 2.91432 0
M  V30 14775 H 1377.88 7.79379 2.50022 0
M  V30 14776 N 1380.55 -0.980364 1.23396 0
M  V30 14777 C 1381.79 -1.72166 1.06607 0
M  V30 14778 C 1382.12 -1.90405 -0.397029 0
M  V30 14779 O 1381.38 -1.45363 -1.31027 0
M  V30 14780 C 1381.67 -3.12367 1.73671 0
M  V30 14781 C 1381.34 -3.14007 3.2359 0
M  V30 14782 C 1380 -3.14162 3.64494 0
M  V30 14783 C 1382.35 -3.09319 4.19489 0
M  V30 14784 C 1379.68 -3.07345 4.99756 0
M  V30 14785 C 1382.03 -3.04044 5.54743 0
M  V30 14786 C 1380.7 -3.02521 5.9501 0
M  V30 14787 H 1379.97 -0.63 0.390104 0
M  V30 14788 H 1382.62 -1.14727 1.5333 0
M  V30 14789 H 1380.92 -3.73193 1.19308 0
M  V30 14790 H 1382.62 -3.68493 1.58159 0
M  V30 14791 H 1379.21 -3.14644 2.91028 0
M  V30 14792 H 1383.39 -3.08339 3.88897 0
M  V30 14793 H 1378.65 -3.04519 5.30168 0
M  V30 14794 H 1382.82 -2.99374 6.28767 0
M  V30 14795 H 1380.45 -2.96994 6.99785 0
M  V30 14796 N 1382.02 -1.04567 -1.17913 0
M  V30 14797 C 1383.27 -0.753137 -1.88297 0
M  V30 14798 C 1383.6 0.717651 -1.80453 0
M  V30 14799 O 1382.88 1.5242 -1.20824 0
M  V30 14800 C 1383.16 -1.22626 -3.38578 0
M  V30 14801 C 1383.01 -2.75952 -3.55205 0
M  V30 14802 C 1384.33 -0.82029 -4.32388 0
M  V30 14803 H 1381.45 -0.275067 -0.683745 0
M  V30 14804 H 1384.09 -1.29856 -1.38699 0
M  V30 14805 H 1382.24 -0.762246 -3.80949 0
M  V30 14806 H 1383.92 -3.30429 -3.21892 0
M  V30 14807 H 1382.16 -3.15534 -2.97693 0
M  V30 14808 H 1382.83 -3.04116 -4.60671 0
M  V30 14809 H 1385.31 -1.21965 -3.97824 0
M  V30 14810 H 1384.18 -1.17902 -5.36088 0
M  V30 14811 H 1384.44 0.276205 -4.41236 0
M  V30 14812 N 1383.5 1.34231 -0.825823 0
M  V30 14813 C 1384.91 1.8059 -0.473724 0
M  V30 14814 C 1385.26 1.68438 1.00614 0
M  V30 14815 O 1384.39 1.22606 1.78317 0
M  V30 14816 C 1384.98 3.27884 -0.853099 0
M  V30 14817 C 1383.54 3.72311 -0.553327 0
M  V30 14818 C 1382.69 2.55889 -1.06845 0
M  V30 14819 H 1385.64 1.21937 -1.01573 0
M  V30 14820 H 1385.66 3.80172 -0.158014 0
M  V30 14821 H 1385.17 3.36696 -1.93021 0
M  V30 14822 H 1383.27 3.69034 0.514256 0
M  V30 14823 H 1383.39 4.66315 -1.09942 0
M  V30 14824 H 1381.75 2.49945 -0.489874 0
M  V30 14825 H 1382.53 2.67471 -2.15207 0
M  V30 14826 N 1384.98 0.581051 1.46498 0
M  V30 14827 C 1385.91 -0.19094 2.28403 0
M  V30 14828 C 1386.92 -0.857039 1.38415 0
M  V30 14829 O 1388.11 -0.726881 1.6303 0
M  V30 14830 C 1385.21 -1.28972 3.134 0
M  V30 14831 C 1384.39 -0.715867 4.31502 0
M  V30 14832 C 1383.45 -1.70215 4.97909 0
M  V30 14833 O 1382.47 -1.23885 5.55555 0
M  V30 14834 N 1383.67 -3.0362 4.94768 0
M  V30 14835 H 1386.44 0.511754 2.95298 0
M  V30 14836 H 1384 0.41871 1.56392 0
M  V30 14837 H 1385.99 -1.94877 3.5469 0
M  V30 14838 H 1384.56 -1.8953 2.4859 0
M  V30 14839 H 1383.78 0.120591 3.94016 0
M  V30 14840 H 1385.07 -0.312226 5.07841 0
M  V30 14841 H 1384.47 -3.43885 4.49177 0
M  V30 14842 H 1383.02 -3.65018 5.40005 0
M  V30 14843 N 1386.46 -1.54343 0.318742 0
M  V30 14844 C 1387.39 -2.27118 -0.542206 0
M  V30 14845 C 1388.37 -1.27731 -1.12334 0
M  V30 14846 O 1389.55 -1.56535 -1.14937 0
M  V30 14847 C 1386.68 -3.02535 -1.70558 0
M  V30 14848 C 1385.64 -4.09218 -1.25398 0
M  V30 14849 C 1384.96 -4.72449 -2.50391 0
M  V30 14850 C 1386.26 -5.20971 -0.372332 0
M  V30 14851 H 1387.96 -2.9933 0.0648226 0
M  V30 14852 H 1385.5 -1.43963 0.0326168 0
M  V30 14853 H 1387.46 -3.52174 -2.31412 0
M  V30 14854 H 1386.18 -2.27931 -2.33912 0
M  V30 14855 H 1384.84 -3.60455 -0.668392 0
M  V30 14856 H 1384.49 -3.94466 -3.12099 0
M  V30 14857 H 1384.19 -5.4451 -2.20868 0
M  V30 14858 H 1385.71 -5.2486 -3.12016 0
M  V30 14859 H 1387.13 -5.66396 -0.887029 0
M  V30 14860 H 1385.52 -5.99859 -0.17009 0
M  V30 14861 H 1386.59 -4.81198 0.598064 0
M  V30 14862 N 1387.94 -0.0468143 -1.5753 0
M  V30 14863 C 1389.17 0.636723 -1.96544 0
M  V30 14864 C 1389.57 1.65169 -0.922814 0
M  V30 14865 O 1388.92 1.83417 0.101892 0
M  V30 14866 C 1388.98 1.38435 -3.31777 0
M  V30 14867 C 1388.64 0.525714 -4.53966 0
M  V30 14868 C 1389.64 -0.206392 -5.1949 0
M  V30 14869 C 1387.32 0.457919 -5.00208 0
M  V30 14870 C 1389.32 -0.994779 -6.29589 0
M  V30 14871 C 1387.01 -0.334159 -6.10186 0
M  V30 14872 C 1388 -1.0592 -6.74737 0
M  V30 14873 O 1387.69 -1.83826 -7.826 0
M  V30 14874 H 1387.42 0.179197 -0.651816 0
M  V30 14875 H 1389.98 -0.108214 -2.05115 0
M  V30 14876 H 1388.21 2.17482 -3.19748 0
M  V30 14877 H 1389.9 1.9577 -3.55568 0
M  V30 14878 H 1390.66 -0.163457 -4.84724 0
M  V30 14879 H 1386.54 1.01185 -4.49758 0
M  V30 14880 H 1390.09 -1.56121 -6.79906 0
M  V30 14881 H 1385.98 -0.378748 -6.44388 0
M  V30 14882 H 1386.75 -1.75991 -7.99356 0
M  V30 14883 N 1389.41 1.55964 0.226527 0
M  V30 14884 C 1390.64 1.83168 0.972846 0
M  V30 14885 C 1391.06 0.626512 1.7736 0
M  V30 14886 O 1390.42 -0.42468 1.76256 0
M  V30 14887 C 1390.47 3.08315 1.87014 0
M  V30 14888 O 1389.57 2.8666 2.96479 0
M  V30 14889 H 1388.92 0.604041 0.275736 0
M  V30 14890 H 1391.45 2.03172 0.241345 0
M  V30 14891 H 1391.46 3.38288 2.28091 0
M  V30 14892 H 1390.13 3.95663 1.28154 0
M  V30 14893 H 1388.71 2.67907 2.59384 0
M  V30 14894 N 1390.89 -0.493031 1.4969 0
M  V30 14895 C 1392.14 -1.24664 1.59578 0
M  V30 14896 C 1392.47 -1.92385 0.286075 0
M  V30 14897 O 1391.72 -1.81712 -0.726586 0
M  V30 14898 C 1392.02 -2.33014 2.70997 0
M  V30 14899 C 1391.69 -1.82697 4.12229 0
M  V30 14900 C 1390.35 -1.68694 4.50662 0
M  V30 14901 C 1392.7 -1.45127 5.00587 0
M  V30 14902 C 1390.03 -1.15512 5.75216 0
M  V30 14903 C 1392.38 -0.933951 6.25668 0
M  V30 14904 C 1391.05 -0.780378 6.62923 0
M  V30 14905 H 1390.32 -0.456178 0.583937 0
M  V30 14906 H 1392.96 -0.546091 1.83549 0
M  V30 14907 H 1391.27 -3.08889 2.41029 0
M  V30 14908 H 1392.96 -2.91041 2.75855 0
M  V30 14909 H 1389.55 -1.94557 3.81897 0
M  V30 14910 H 1393.74 -1.5479 4.71544 0
M  V30 14911 H 1388.99 -1.0234 6.02774 0
M  V30 14912 H 1393.17 -0.634088 6.93507 0
M  V30 14913 H 1390.8 -0.366111 7.59318 0
M  V30 14914 N 1392.37 -1.38898 -0.744656 0
M  V30 14915 C 1393.3 -1.39571 -1.87195 0
M  V30 14916 C 1394.28 -0.260372 -1.68095 0
M  V30 14917 O 1395.47 -0.464776 -1.88556 0
M  V30 14918 C 1392.6 -1.22889 -3.24832 0
M  V30 14919 C 1391.55 -2.33721 -3.58551 0
M  V30 14920 C 1390.88 -2.02136 -4.9502 0
M  V30 14921 C 1392.18 -3.7601 -3.62511 0
M  V30 14922 H 1393.87 -2.33908 -1.86889 0
M  V30 14923 H 1391.42 -1.12591 -0.897739 0
M  V30 14924 H 1393.37 -1.21983 -4.03359 0
M  V30 14925 H 1392.09 -0.250172 -3.2564 0
M  V30 14926 H 1390.75 -2.33828 -2.82348 0
M  V30 14927 H 1390.4 -1.02726 -4.92399 0
M  V30 14928 H 1390.1 -2.76371 -5.18549 0
M  V30 14929 H 1391.62 -2.02864 -5.75915 0
M  V30 14930 H 1393.04 -3.77885 -4.31133 0
M  V30 14931 H 1391.44 -4.49524 -3.97553 0
M  V30 14932 H 1392.51 -4.07682 -2.62533 0
M  V30 14933 N 1393.85 0.973806 -1.23914 0
M  V30 14934 C 1394.8 2.06734 -1.02614 0
M  V30 14935 C 1395.77 1.65997 0.0585705 0
M  V30 14936 O 1396.95 1.90564 -0.0948467 0
M  V30 14937 C 1394.09 3.39292 -0.630493 0
M  V30 14938 C 1393.2 3.9326 -1.78803 0
M  V30 14939 C 1392.34 5.14059 -1.33854 0
M  V30 14940 C 1391.38 5.60209 -2.46642 0
M  V30 14941 N 1390.51 6.72232 -2.02603 0
M  V30 14942 H 1395.35 2.24287 -1.96212 0
M  V30 14943 H 1392.89 1.09935 -0.977376 0
M  V30 14944 H 1394.85 4.15446 -0.382163 0
M  V30 14945 H 1393.48 3.21682 0.268483 0
M  V30 14946 H 1392.53 3.13801 -2.15019 0
M  V30 14947 H 1393.84 4.23475 -2.63573 0
M  V30 14948 H 1393 5.97567 -1.04873 0
M  V30 14949 H 1391.74 4.85513 -0.46131 0
M  V30 14950 H 1390.74 4.75278 -2.7639 0
M  V30 14951 H 1391.97 5.90771 -3.34912 0
M  V30 14952 H 1389.91 6.45433 -1.17269 0
M  V30 14953 H 1389.83 7.01865 -2.80929 0
M  V30 14954 H 1391.1 7.59198 -1.76745 0
M  V30 14955 N 1395.33 1.05191 1.17357 0
M  V30 14956 C 1396.74 0.773255 1.39617 0
M  V30 14957 C 1396.94 -0.632346 1.91321 0
M  V30 14958 O 1396 -1.39475 2.10483 0
M  V30 14959 C 1397.31 1.82885 2.38692 0
M  V30 14960 C 1398.86 1.85106 2.52398 0
M  V30 14961 C 1399.33 2.89689 3.54746 0
M  V30 14962 N 1400.83 2.88651 3.62263 0
M  V30 14963 C 1401.56 3.66221 4.41214 0
M  V30 14964 N 1401.06 4.53577 5.23679 0
M  V30 14965 N 1402.85 3.54661 4.36087 0
M  V30 14966 H 1395 1.9588 0.82127 0
M  V30 14967 H 1397.26 0.848187 0.423417 0
M  V30 14968 H 1396.97 2.83766 2.07773 0
M  V30 14969 H 1396.84 1.67047 3.38194 0
M  V30 14970 H 1399.23 0.848896 2.82627 0
M  V30 14971 H 1399.31 2.05022 1.5297 0
M  V30 14972 H 1398.96 3.90091 3.25255 0
M  V30 14973 H 1398.89 2.67025 4.53878 0
M  V30 14974 H 1401.38 2.25312 3.03386 0
M  V30 14975 H 1401.69 5.09449 5.81104 0
M  V30 14976 H 1400.03 4.57638 5.23061 0
M  V30 14977 H 1403.23 2.8581 3.70716 0
M  V30 14978 H 1403.4 4.15361 4.97372 0
M  V30 14979 N 1396.8 -1.33791 0.83293 0
M  V30 14980 C 1398.22 -1.80336 0.483294 0
M  V30 14981 C 1398.57 -1.68969 -0.997195 0
M  V30 14982 O 1397.69 -1.23549 -1.77664 0
M  V30 14983 C 1398.29 -3.27427 0.870475 0
M  V30 14984 C 1396.85 -3.72012 0.573064 0
M  V30 14985 C 1395.99 -2.55319 1.08201 0
M  V30 14986 H 1398.94 -1.21396 1.02218 0
M  V30 14987 H 1398.96 -3.80083 0.178173 0
M  V30 14988 H 1398.48 -3.35668 1.94804 0
M  V30 14989 H 1396.58 -3.69302 -0.494678 0
M  V30 14990 H 1396.69 -4.65725 1.12414 0
M  V30 14991 H 1395.05 -2.49681 0.503123 0
M  V30 14992 H 1395.84 -2.66326 2.16623 0
M  V30 14993 O 1398.32 -0.729452 -1.44088 0
M  V30 14994 H 1399.01 -0.279191 -1.91677 0
M  V30 END ATOM
M  V30 BEGIN BOND
M  V30 END BOND
M  V30 END CTAB
M  END
$$$$
