drugbank_target|P19883 Follistatin (DB01666)
 OpenBabel12092120543D

  0  0  0     0  0            999 V3000
M  V30 BEGIN CTAB
M  V30 COUNTS 5171 5214 0 0 0
M  V30 BEGIN ATOM
M  V30 1 H -0.908 1.98254 -0.117106 0
M  V30 2 N 0 1.576 0 0
M  V30 3 C 0.933 2.03868 1.02534 0
M  V30 4 C 1.911 0.928543 1.3348 0
M  V30 5 O 3.095 1.19667 1.45644 0
M  V30 6 C 0.222 2.43627 2.35294 0
M  V30 7 C -0.732 3.65373 2.2001 0
M  V30 8 S 0.101 5.13292 1.52614 0
M  V30 9 C 1.257 5.56322 2.86805 0
M  V30 10 H 1.49 2.90518 0.631377 0
M  V30 11 H -0.977 1.52953 0.210867 0
M  V30 12 H 0.981 2.67203 3.11629 0
M  V30 13 H -0.358 1.57376 2.7183 0
M  V30 14 H -1.165 3.90944 3.18086 0
M  V30 15 H -1.563 3.418 1.51819 0
M  V30 16 H 0.729 5.58782 3.83104 0
M  V30 17 H 1.672 6.56266 2.65933 0
M  V30 18 H 2.08 4.83886 2.90714 0
M  V30 19 N 1.4781 -0.272755 1.55222 0
M  V30 20 C 2.7241 -1.00581 1.761 0
M  V30 21 C 3.0571 -1.85932 0.560625 0
M  V30 22 O 2.3321 -1.89416 -0.441801 0
M  V30 23 C 2.6151 -1.88816 3.06628 0
M  V30 24 C 2.4681 -1.06457 4.37021 0
M  V30 25 C 3.7871 -2.8752 3.33197 0
M  V30 26 H 0.9061 -0.364244 0.640699 0
M  V30 27 H 3.5481 -0.278189 1.87952 0
M  V30 28 H 1.6981 -2.50856 2.96654 0
M  V30 29 H 3.3701 -0.464863 4.58952 0
M  V30 30 H 1.6131 -0.368043 4.32236 0
M  V30 31 H 2.2841 -1.71514 5.24678 0
M  V30 32 H 4.7601 -2.35615 3.42965 0
M  V30 33 H 3.6361 -3.46399 4.25792 0
M  V30 34 H 3.8971 -3.62657 2.52849 0
M  V30 35 N 2.9562 -1.48159 -0.537278 0
M  V30 36 C 4.3722 -1.34118 -0.865129 0
M  V30 37 C 4.5722 -0.346678 -1.98495 0
M  V30 38 O 3.6282 0.234715 -2.51407 0
M  V30 39 C 4.9412 -2.73963 -1.23954 0
M  V30 40 C 6.4892 -2.82397 -1.34984 0
M  V30 41 C 6.9642 -4.22928 -1.75772 0
M  V30 42 N 8.4552 -4.25566 -1.82887 0
M  V30 43 C 9.1902 -5.31235 -2.15817 0
M  V30 44 N 8.6862 -6.47189 -2.47222 0
M  V30 45 N 10.4792 -5.18624 -2.16761 0
M  V30 46 H 2.6302 -2.1144 0.201715 0
M  V30 47 H 4.8932 -0.947598 0.0275949 0
M  V30 48 H 4.5992 -3.48264 -0.490381 0
M  V30 49 H 4.4732 -3.0702 -2.19132 0
M  V30 50 H 6.8602 -2.08356 -2.08978 0
M  V30 51 H 6.9412 -2.5297 -0.379448 0
M  V30 52 H 6.5852 -4.97482 -1.02341 0
M  V30 53 H 6.5152 -4.49794 -2.73848 0
M  V30 54 H 9.0062 -3.41924 -1.60924 0
M  V30 55 H 9.3192 -7.23564 -2.71433 0
M  V30 56 H 7.6642 -6.50476 -2.44757 0
M  V30 57 H 10.8552 -4.27056 -1.91679 0
M  V30 58 H 11.0282 -6.01078 -2.42093 0
M  V30 59 N 4.4343 0.785586 -1.36625 0
M  V30 60 C 5.3973 1.87999 -1.31107 0
M  V30 61 C 6.3973 1.59316 -0.217959 0
M  V30 62 O 7.5873 1.67656 -0.472977 0
M  V30 63 C 4.7193 3.24861 -1.03334 0
M  V30 64 H 5.9123 1.94307 -2.2844 0
M  V30 65 H 3.4653 0.983813 -1.21453 0
M  V30 66 H 4.2003 3.24235 -0.0647432 0
M  V30 67 H 3.9853 3.4707 -1.82441 0
M  V30 68 H 5.4753 4.04929 -1.02088 0
M  V30 69 N 5.9124 1.20967 1.01018 0
M  V30 70 C 7.3284 0.965905 1.27053 0
M  V30 71 C 7.5284 -0.350785 1.98423 0
M  V30 72 O 6.5844 -1.07773 2.28344 0
M  V30 73 C 7.8974 2.15294 2.09926 0
M  V30 74 C 9.4454 2.19463 2.23171 0
M  V30 75 C 9.9204 3.3767 3.09424 0
M  V30 76 N 11.4114 3.37724 3.17012 0
M  V30 77 C 12.1464 4.25837 3.83993 0
M  V30 78 N 11.6424 5.24138 4.53047 0
M  V30 79 N 13.4354 4.1366 3.80581 0
M  V30 80 H 5.5864 2.0565 0.531194 0
M  V30 81 H 7.8494 0.90024 0.297106 0
M  V30 82 H 7.5554 3.10684 1.64828 0
M  V30 83 H 7.4294 2.13923 3.10672 0
M  V30 84 H 9.8164 1.24632 2.6749 0
M  V30 85 H 9.8974 2.2488 1.21912 0
M  V30 86 H 9.5414 4.32791 2.65808 0
M  V30 87 H 9.4714 3.29491 4.10784 0
M  V30 88 H 11.9624 2.6658 2.6785 0
M  V30 89 H 12.2754 5.87684 5.01844 0
M  V30 90 H 10.6204 5.28068 4.5185 0
M  V30 91 H 13.8114 3.36127 3.25785 0
M  V30 92 H 13.9844 4.82538 4.32505 0
M  V30 93 N 7.3905 -1.2043 1.01659 0
M  V30 94 C 8.3405 -2.21076 0.557623 0
M  V30 95 C 9.3245 -1.56176 -0.387029 0
M  V30 96 O 10.5165 -1.7575 -0.209996 0
M  V30 97 C 7.6455 -3.43146 -0.102707 0
M  V30 98 C 6.7315 -4.15213 0.863652 0
M  V30 99 N 7.1225 -4.63662 2.02117 0
M  V30 100 C 5.4205 -4.40716 0.684472 0
M  V30 101 C 6.1215 -5.18868 2.62966 0
M  V30 102 N 5.0975 -5.0893 1.91027 0
M  V30 103 H 8.8995 -2.56201 1.44008 0
M  V30 104 H 6.4135 -1.36366 0.881931 0
M  V30 105 H 8.4105 -4.14475 -0.449054 0
M  V30 106 H 7.0705 -3.09526 -0.981003 0
M  V30 107 H 8.0815 -4.58877 2.40109 0
M  V30 108 H 4.7585 -4.17245 -0.14577 0
M  V30 109 H 6.1485 -5.6673 3.60924 0
M  V30 110 N 8.8686 -0.792821 -1.36206 0
M  V30 111 C 9.8006 -0.151469 -2.28699 0
M  V30 112 C 10.8136 0.641262 -1.49638 0
M  V30 113 O 12.0026 0.475885 -1.72039 0
M  V30 114 C 9.1026 0.808424 -3.29117 0
M  V30 115 C 8.2756 0.0650202 -4.37352 0
M  V30 116 C 7.3346 0.941358 -5.17711 0
M  V30 117 O 6.3606 0.397352 -5.67811 0
M  V30 118 N 7.5626 2.2652 -5.3448 0
M  V30 119 H 10.3276 -0.945982 -2.84379 0
M  V30 120 H 7.8886 -0.647032 -1.48409 0
M  V30 121 H 9.8806 1.3986 -3.79765 0
M  V30 122 H 8.4506 1.5038 -2.74052 0
M  V30 123 H 7.6706 -0.706255 -3.87822 0
M  V30 124 H 8.9586 -0.447847 -5.06825 0
M  V30 125 H 8.3566 2.73128 -4.95396 0
M  V30 126 H 6.9136 2.80493 -5.88359 0
M  V30 127 N 10.3467 1.47872 -0.545128 0
M  V30 128 C 11.7577 1.86384 -0.108581 0
M  V30 129 C 12.1087 1.45309 1.31832 0
M  V30 130 O 11.2337 0.850641 1.9898 0
M  V30 131 C 11.8287 3.38265 -0.190274 0
M  V30 132 C 10.3877 3.75914 0.191164 0
M  V30 133 C 9.5347 2.71926 -0.543273 0
M  V30 134 H 12.4857 1.39561 -0.755537 0
M  V30 135 H 12.5067 3.75831 0.594217 0
M  V30 136 H 12.0187 3.6813 -1.2289 0
M  V30 137 H 10.1197 3.51665 1.23136 0
M  V30 138 H 10.2327 4.78836 -0.158987 0
M  V30 139 H 8.5967 2.54697 0.0122495 0
M  V30 140 H 9.3797 3.04634 -1.58282 0
M  V30 141 N 11.8248 0.280983 1.55075 0
M  V30 142 C 13.0728 -0.333455 1.9933 0
M  V30 143 C 13.3938 -1.55937 1.17085 0
M  V30 144 O 12.6638 -1.94143 0.261805 0
M  V30 145 H 11.2438 -0.126197 0.736263 0
M  V30 146 H 13.9058 0.387678 1.91005 0
M  V30 147 H 13.0018 -0.619292 3.05894 0
M  V30 148 N 13.3029 -1.57598 0.00835791 0
M  V30 149 C 14.5509 -1.90551 -0.6734 0
M  V30 150 C 14.8719 -0.883301 -1.73847 0
M  V30 151 O 14.1419 0.0781442 -1.95744 0
M  V30 152 H 12.7219 -0.703312 -0.251717 0
M  V30 153 H 15.3839 -1.94833 0.0512592 0
M  V30 154 H 14.4799 -2.9056 -1.13935 0
M  V30 155 N 14.781 0.264519 -1.55364 0
M  V30 156 C 15.711 1.33121 -1.91836 0
M  V30 157 C 16.692 1.51101 -0.781192 0
M  V30 158 O 17.877 1.64003 -1.04003 0
M  V30 159 C 15.007 2.68921 -2.19769 0
M  V30 160 C 13.961 2.65661 -3.35571 0
M  V30 161 C 13.287 4.05093 -3.49004 0
M  V30 162 C 14.587 2.24187 -4.71739 0
M  V30 163 H 16.281 1.02844 -2.81182 0
M  V30 164 H 13.827 0.493286 -1.35287 0
M  V30 165 H 15.78 3.43663 -2.43872 0
M  V30 166 H 14.504 3.00799 -1.27231 0
M  V30 167 H 13.163 1.93377 -3.1145 0
M  V30 168 H 12.811 4.34206 -2.53917 0
M  V30 169 H 12.511 4.03804 -4.26868 0
M  V30 170 H 14.035 4.81561 -3.75408 0
M  V30 171 H 15.449 2.88654 -4.9533 0
M  V30 172 H 13.846 2.34044 -5.52579 0
M  V30 173 H 14.916 1.19327 -4.69988 0
M  V30 174 N 16.2591 1.48442 0.529413 0
M  V30 175 C 17.4991 1.58086 1.29569 0
M  V30 176 C 17.8631 0.249302 1.90375 0
M  V30 177 O 19.0641 0.220738 2.67892 0
M  V30 178 C 17.3351 2.68793 2.35552 0
M  V30 179 S 18.8941 2.98207 3.21898 0
M  V30 180 H 15.7121 0.557922 0.440732 0
M  V30 181 H 18.3141 1.85966 0.603059 0
M  V30 182 H 17.0181 3.64102 1.89363 0
M  V30 183 H 16.5491 2.42817 3.09522 0
M  V30 184 H 18.5641 2.37548 4.35644 0
M  V30 185 N 17.7372 -0.778329 1.37039 0
M  V30 186 C 18.6672 -1.90546 1.34962 0
M  V30 187 C 19.6482 -1.68681 0.219274 0
M  V30 188 O 20.8332 -1.89634 0.418624 0
M  V30 189 C 17.9632 -3.27734 1.14925 0
M  V30 190 C 16.9172 -3.64147 2.24902 0
M  V30 191 C 16.2432 -4.99806 1.89996 0
M  V30 192 C 17.5432 -3.71579 3.67051 0
M  V30 193 H 19.2372 -1.92541 2.29277 0
M  V30 194 H 16.7832 -0.924948 1.10366 0
M  V30 195 H 18.7362 -4.06215 1.12104 0
M  V30 196 H 17.4602 -3.26154 0.170631 0
M  V30 197 H 16.1192 -2.8797 2.26868 0
M  V30 198 H 15.7672 -4.94759 0.906796 0
M  V30 199 H 15.4672 -5.25139 2.63634 0
M  V30 200 H 16.9912 -5.80694 1.88749 0
M  V30 201 H 18.4052 -4.40227 3.67251 0
M  V30 202 H 16.8022 -4.08405 4.39688 0
M  V30 203 H 17.8722 -2.72404 4.01154 0
M  V30 204 N 19.2153 -1.21501 -1.00376 0
M  V30 205 C 20.1453 -0.999478 -2.11028 0
M  V30 206 C 21.1263 0.0759671 -1.6993 0
M  V30 207 O 22.3113 -0.0841106 -1.94018 0
M  V30 208 C 19.4413 -0.564709 -3.42678 0
M  V30 209 C 18.3953 -1.58486 -3.97576 0
M  V30 210 C 17.7213 -1.00628 -5.25146 0
M  V30 211 C 19.0213 -2.97204 -4.29496 0
M  V30 212 H 20.7153 -1.92495 -2.29317 0
M  V30 213 H 18.2613 -0.92693 -1.102 0
M  V30 214 H 20.2143 -0.401091 -4.19487 0
M  V30 215 H 18.9383 0.396411 -3.24185 0
M  V30 216 H 17.5973 -1.73606 -3.22888 0
M  V30 217 H 17.2453 -0.0368439 -5.02987 0
M  V30 218 H 16.9453 -1.68771 -5.62841 0
M  V30 219 H 18.4693 -0.854015 -6.04598 0
M  V30 220 H 19.8833 -2.8552 -4.97143 0
M  V30 221 H 18.2803 -3.62372 -4.78338 0
M  V30 222 H 19.3503 -3.47956 -3.3772 0
M  V30 223 N 20.6934 1.19889 -1.02296 0
M  V30 224 C 21.6234 2.25141 -0.619174 0
M  V30 225 C 22.6044 1.66051 0.368915 0
M  V30 226 O 23.7894 1.92546 0.252941 0
M  V30 227 C 20.9194 3.4728 0.0368783 0
M  V30 228 C 19.8734 4.19005 -0.872865 0
M  V30 229 C 19.1994 5.34637 -0.0822402 0
M  V30 230 C 20.4994 4.74452 -2.18387 0
M  V30 231 H 22.1934 2.59171 -1.49903 0
M  V30 232 H 19.7394 1.24579 -0.722222 0
M  V30 233 H 21.6924 4.20098 0.330958 0
M  V30 234 H 20.4164 3.12433 0.95149 0
M  V30 235 H 19.0754 3.48061 -1.15105 0
M  V30 236 H 18.7234 4.96034 0.83422 0
M  V30 237 H 18.4234 5.83557 -0.688149 0
M  V30 238 H 19.9474 6.10255 0.205238 0
M  V30 239 H 21.3614 5.39055 -1.95172 0
M  V30 240 H 19.7584 5.33834 -2.74119 0
M  V30 241 H 20.8284 3.92844 -2.84257 0
M  V30 242 N 22.1715 0.800033 1.35784 0
M  V30 243 C 23.1015 0.220184 2.3246 0
M  V30 244 C 24.0825 -0.65073 1.57161 0
M  V30 245 O 25.2675 -0.582359 1.85263 0
M  V30 246 C 22.3975 -0.637353 3.41402 0
M  V30 247 C 21.3515 0.134531 4.27789 0
M  V30 248 C 20.6775 -0.844285 5.27992 0
M  V30 249 C 21.9775 1.32979 5.05088 0
M  V30 250 H 23.6715 1.02787 2.81203 0
M  V30 251 H 21.2175 0.495717 1.35199 0
M  V30 252 H 23.1705 -1.05302 4.08031 0
M  V30 253 H 21.8945 -1.47785 2.91251 0
M  V30 254 H 20.5535 0.531296 3.6273 0
M  V30 255 H 20.2015 -1.68011 4.74111 0
M  V30 256 H 19.9015 -0.332184 5.8666 0
M  V30 257 H 21.4255 -1.2583 5.97494 0
M  V30 258 H 22.8395 0.98934 5.64699 0
M  V30 259 H 21.2365 1.77593 5.7322 0
M  V30 260 H 22.3065 2.11978 4.36111 0
M  V30 261 N 23.6496 -1.47581 0.552962 0
M  V30 262 C 24.5796 -2.32762 -0.185451 0
M  V30 263 C 25.5606 -1.43527 -0.912905 0
M  V30 264 O 26.7456 -1.72388 -0.894201 0
M  V30 265 C 23.8756 -3.25219 -1.21859 0
M  V30 266 C 22.8296 -4.23661 -0.607864 0
M  V30 267 C 22.1556 -5.05413 -1.74533 0
M  V30 268 C 23.4556 -5.20481 0.435582 0
M  V30 269 H 25.1496 -2.94749 0.525684 0
M  V30 270 H 22.6956 -1.41738 0.254251 0
M  V30 271 H 24.6486 -3.8365 -1.7433 0
M  V30 272 H 23.3726 -2.61279 -1.95961 0
M  V30 273 H 22.0316 -3.66451 -0.104489 0
M  V30 274 H 21.6796 -4.3788 -2.47529 0
M  V30 275 H 21.3796 -5.72059 -1.34249 0
M  V30 276 H 22.9036 -5.66701 -2.27338 0
M  V30 277 H 24.3176 -5.733 -0.00290157 0
M  V30 278 H 22.7146 -5.95305 0.757067 0
M  V30 279 H 23.7846 -4.66217 1.33303 0
M  V30 280 N 25.1277 -0.289203 -1.54924 0
M  V30 281 C 26.0577 0.58549 -2.2604 0
M  V30 282 C 27.0387 1.14753 -1.25562 0
M  V30 283 O 28.2237 1.17906 -1.54311 0
M  V30 284 C 25.3537 1.76305 -2.99222 0
M  V30 285 C 24.3077 1.33191 -4.06748 0
M  V30 286 C 23.6337 2.5937 -4.6758 0
M  V30 287 C 24.9337 0.471775 -5.20165 0
M  V30 288 H 26.6277 -0.00763532 -2.99399 0
M  V30 289 H 24.1737 -0.00511229 -1.43999 0
M  V30 290 H 26.1267 2.38097 -3.47689 0
M  V30 291 H 24.8507 2.38223 -2.23422 0
M  V30 292 H 23.5097 0.737121 -3.59113 0
M  V30 293 H 23.1577 3.19576 -3.88433 0
M  V30 294 H 22.8577 2.31228 -5.40192 0
M  V30 295 H 24.3817 3.21985 -5.18804 0
M  V30 296 H 25.7957 0.995056 -5.64599 0
M  V30 297 H 24.1927 0.284639 -5.99425 0
M  V30 298 H 25.2627 -0.506041 -4.82252 0
M  V30 299 N 26.6058 1.57591 -0.0167156 0
M  V30 300 C 27.8458 1.93145 0.668902 0
M  V30 301 C 28.2098 0.892406 1.7 0
M  V30 302 O 29.4108 1.13373 2.43721 0
M  V30 303 C 27.6818 3.33678 1.28039 0
M  V30 304 S 29.2408 3.91142 1.9888 0
M  V30 305 H 26.0588 0.67593 0.220545 0
M  V30 306 H 28.6608 1.95347 -0.0774105 0
M  V30 307 H 27.3648 4.07126 0.517339 0
M  V30 308 H 26.8958 3.3489 2.06427 0
M  V30 309 H 28.9108 3.73571 3.26587 0
M  V30 310 N 28.0839 -0.256276 1.55502 0
M  V30 311 C 29.0159 -1.33981 1.85962 0
M  V30 312 C 30.0289 -1.44743 0.745212 0
M  V30 313 O 31.2179 -1.4626 1.02324 0
M  V30 314 C 28.3179 -2.7194 2.02242 0
M  V30 315 C 27.4909 -2.83562 3.33033 0
M  V30 316 C 26.5499 -4.02304 3.39172 0
M  V30 317 O 25.5759 -3.92273 4.12444 0
M  V30 318 N 26.7779 -5.15045 2.67784 0
M  V30 319 H 29.5429 -1.08191 2.7949 0
M  V30 320 H 27.1039 -0.446388 1.55624 0
M  V30 321 H 29.0959 -3.49697 2.03701 0
M  V30 322 H 27.6659 -2.90479 1.15502 0
M  V30 323 H 26.8859 -1.92555 3.43971 0
M  V30 324 H 28.1739 -2.88271 4.19258 0
M  V30 325 H 27.5719 -5.26085 2.07968 0
M  V30 326 H 26.1289 -5.90972 2.74947 0
M  V30 327 N 29.562 -1.4872 -0.521534 0
M  V30 328 C 30.809 -1.57168 -1.27689 0
M  V30 329 C 31.137 -0.249275 -1.92896 0
M  V30 330 O 30.392 0.761162 -1.80291 0
M  V30 331 C 30.691 -2.66497 -2.38148 0
M  V30 332 C 30.357 -4.08664 -1.90538 0
M  V30 333 C 29.019 -4.47357 -1.77271 0
M  V30 334 C 31.371 -4.97724 -1.54663 0
M  V30 335 C 28.699 -5.72905 -1.26478 0
M  V30 336 C 31.051 -6.2377 -1.05329 0
M  V30 337 C 29.715 -6.61311 -0.906861 0
M  V30 338 H 28.985 -0.575117 -0.467249 0
M  V30 339 H 31.632 -1.82472 -0.581051 0
M  V30 340 H 29.937 -2.35085 -3.13437 0
M  V30 341 H 31.634 -2.70246 -2.96257 0
M  V30 342 H 28.224 -3.78111 -2.01816 0
M  V30 343 H 32.408 -4.68501 -1.63768 0
M  V30 344 H 27.664 -6.00709 -1.13835 0
M  V30 345 H 31.838 -6.9217 -0.76644 0
M  V30 346 H 29.465 -7.5848 -0.511083 0
M  V30 347 N 31.0401 0.771051 -1.3745 0
M  V30 348 C 31.9731 1.89166 -1.27638 0
M  V30 349 C 32.9511 1.61842 -0.156782 0
M  V30 350 O 34.1351 1.85569 -0.331111 0
M  V30 351 C 31.2621 3.24405 -0.973621 0
M  V30 352 C 30.3081 3.70638 -2.1102 0
M  V30 353 S 31.1411 3.84228 -3.73 0
M  V30 354 C 32.2971 5.22313 -3.44876 0
M  V30 355 H 32.5301 1.972 -2.22485 0
M  V30 356 H 30.0631 0.932224 -1.23081 0
M  V30 357 H 32.0211 4.02514 -0.805766 0
M  V30 358 H 30.6821 3.14071 -0.0426279 0
M  V30 359 H 29.8751 4.68685 -1.85338 0
M  V30 360 H 29.4771 2.99632 -2.23822 0
M  V30 361 H 31.7691 6.07505 -2.99908 0
M  V30 362 H 32.7121 5.53008 -4.42253 0
M  V30 363 H 33.1201 4.90284 -2.79789 0
M  V30 364 N 32.5182 1.22032 0.997298 0
M  V30 365 C 33.4282 1.00271 2.12092 0
M  V30 366 C 34.4442 -0.047621 1.73935 0
M  V30 367 O 35.6202 0.144136 2.00884 0
M  V30 368 C 32.6852 0.578449 3.4184 0
M  V30 369 C 31.7462 1.70189 3.94125 0
M  V30 370 C 30.9792 1.29778 5.17681 0
M  V30 371 O 31.2022 0.174676 5.70132 0
M  V30 372 O 30.1362 2.11261 5.63607 0
M  V30 373 H 33.9622 1.94398 2.3333 0
M  V30 374 H 31.5472 1.00587 1.10465 0
M  V30 375 H 33.4292 0.351998 4.19927 0
M  V30 376 H 32.1042 -0.334019 3.21972 0
M  V30 377 H 31.0112 1.98282 3.1723 0
M  V30 378 H 32.3442 2.59206 4.18417 0
M  V30 379 N 33.9963 -1.19345 1.0293 0
M  V30 380 C 35.2733 -1.84811 0.640642 0
M  V30 381 C 35.6533 -1.91855 -0.88062 0
M  V30 382 O 35.0013 -1.43587 -1.7775 0
M  V30 383 C 35.2113 -3.23755 1.30321 0
M  V30 384 C 36.5593 -3.99912 1.42673 0
M  V30 385 O 37.5833 -3.33155 1.26041 0
M  V30 386 O 36.4423 -5.19494 1.6967 0
M  V30 387 H 33.5363 -0.796443 0.222726 0
M  V30 388 H 36.0823 -1.26831 1.12748 0
M  V30 389 H 34.8543 -3.13466 2.34211 0
M  V30 390 H 34.4773 -3.89381 0.804261 0
M  V30 391 N 35.4744 -0.807222 -1.35358 0
M  V30 392 C 36.8904 -0.491038 -1.51858 0
M  V30 393 C 37.0904 0.987648 -1.75635 0
M  V30 394 O 36.1464 1.77265 -1.79815 0
M  V30 395 C 37.4594 -1.33695 -2.69344 0
M  V30 396 C 39.0074 -1.33246 -2.83222 0
M  V30 397 C 39.4824 -2.1625 -4.03733 0
M  V30 398 N 40.9734 -2.1379 -4.10911 0
M  V30 399 C 41.7084 -2.74772 -5.03277 0
M  V30 400 N 41.2044 -3.44684 -6.0097 0
M  V30 401 N 42.9974 -2.6441 -4.96028 0
M  V30 402 H 35.1484 -1.76485 -1.18181 0
M  V30 403 H 37.4114 -0.751199 -0.578276 0
M  V30 404 H 37.1174 -2.38634 -2.58354 0
M  V30 405 H 36.9914 -0.990618 -3.6396 0
M  V30 406 H 39.3784 -0.290911 -2.93663 0
M  V30 407 H 39.4594 -1.71866 -1.89461 0
M  V30 408 H 39.1034 -3.20445 -3.94052 0
M  V30 409 H 39.0334 -1.74989 -4.96675 0
M  V30 410 H 41.5244 -1.62923 -3.40976 0
M  V30 411 H 41.8374 -3.88501 -6.68047 0
M  V30 412 H 40.1824 -3.48788 -6.01142 0
M  V30 413 H 43.3734 -2.0938 -4.18662 0
M  V30 414 H 43.5464 -3.12225 -5.6782 0
M  V30 415 N 36.9525 1.47285 -0.560781 0
M  V30 416 C 38.1775 2.07359 -0.0410566 0
M  V30 417 C 38.6025 1.41017 1.24483 0
M  V30 418 O 37.9605 0.486368 1.74654 0
M  V30 419 C 38.0085 3.6035 0.134123 0
M  V30 420 O 37.1125 3.94681 1.19587 0
M  V30 421 H 36.4535 0.661887 -0.0529291 0
M  V30 422 H 38.9835 1.89252 -0.777482 0
M  V30 423 H 38.9935 4.0652 0.347207 0
M  V30 424 H 37.6685 4.08034 -0.805047 0
M  V30 425 H 36.2455 3.60251 0.962987 0
M  V30 426 N 38.4306 0.297415 1.54768 0
M  V30 427 C 39.3936 -0.567375 2.22066 0
M  V30 428 C 40.3936 -1.06409 1.20556 0
M  V30 429 O 41.5836 -0.960691 1.45315 0
M  V30 430 C 38.7156 -1.78517 2.90421 0
M  V30 431 H 39.9086 0.0205534 2.99893 0
M  V30 432 H 37.4616 0.0482163 1.56226 0
M  V30 433 H 38.1966 -2.41303 2.16664 0
M  V30 434 H 37.9816 -1.43669 3.64831 0
M  V30 435 H 39.4716 -2.39964 3.41771 0
M  V30 436 N 39.9087 -1.5758 0.0250728 0
M  V30 437 C 40.8407 -2.06869 -0.986796 0
M  V30 438 C 41.8537 -0.991332 -1.29137 0
M  V30 439 O 43.0427 -1.26761 -1.25674 0
M  V30 440 C 40.1427 -2.47486 -2.31525 0
M  V30 441 C 39.3157 -3.78253 -2.19643 0
M  V30 442 C 38.3747 -4.05464 -3.35388 0
M  V30 443 O 37.4007 -4.75774 -3.12454 0
M  V30 444 N 38.6027 -3.55321 -4.59051 0
M  V30 445 H 41.3677 -2.94302 -0.566276 0
M  V30 446 H 38.9287 -1.6109 -0.161776 0
M  V30 447 H 40.9207 -2.62785 -3.07776 0
M  V30 448 H 39.4907 -1.65441 -2.65232 0
M  V30 449 H 38.7107 -3.7279 -1.28144 0
M  V30 450 H 39.9987 -4.63936 -2.08903 0
M  V30 451 H 39.3967 -2.98431 -4.80578 0
M  V30 452 H 37.9537 -3.75905 -5.32483 0
M  V30 453 N 41.3868 0.248026 -1.55636 0
M  V30 454 C 42.3498 1.29044 -1.89421 0
M  V30 455 C 43.3498 1.41134 -0.770581 0
M  V30 456 O 44.5398 1.39854 -1.03858 0
M  V30 457 C 41.6718 2.66831 -2.12165 0
M  V30 458 H 42.8648 1.00305 -2.82629 0
M  V30 459 H 40.4178 0.487265 -1.48511 0
M  V30 460 H 41.1528 3.00711 -1.21422 0
M  V30 461 H 40.9378 2.59438 -2.93997 0
M  V30 462 H 42.4278 3.42103 -2.3949 0
M  V30 463 N 42.8649 1.48995 0.513639 0
M  V30 464 C 44.1129 1.57531 1.26604 0
M  V30 465 C 44.4339 0.258236 1.93283 0
M  V30 466 O 43.7039 -0.721502 1.8213 0
M  V30 467 H 42.2839 0.580387 0.470276 0
M  V30 468 H 44.9459 1.85552 0.596373 0
M  V30 469 H 44.0419 2.36486 2.03669 0
M  V30 470 N 44.343 -0.763751 1.37857 0
M  V30 471 C 45.291 -1.89864 1.34367 0
M  V30 472 C 46.285 -1.67816 0.231143 0
M  V30 473 O 47.491 -1.75508 0.399617 0
M  V30 474 H 43.866 -0.624501 0.41893 0
M  V30 475 H 45.837 -1.89925 2.30155 0
M  V30 476 C 44.586 -3.27227 1.1755 0
M  V30 477 H 43.909 -3.44773 2.02414 0
M  V30 478 H 45.349 -4.06911 1.1916 0
M  V30 479 C 43.808 -3.36692 -0.118311 0
M  V30 480 O 44.338 -3.86374 -1.09902 0
M  V30 481 N 42.544 -2.90092 -0.171717 0
M  V30 482 H 42.091 -2.49853 0.627012 0
M  V30 483 H 42.049 -2.96806 -1.03699 0
M  V30 484 N 45.8211 -1.22559 -0.990812 0
M  V30 485 C 47.0611 -1.06302 -1.74583 0
M  V30 486 C 47.4251 0.394737 -1.87898 0
M  V30 487 O 48.6261 0.678214 -2.60103 0
M  V30 488 C 46.8971 -1.75699 -3.11231 0
M  V30 489 S 48.4561 -1.74882 -4.02445 0
M  V30 490 H 45.2741 -0.380639 -0.600529 0
M  V30 491 H 47.8761 -1.55532 -1.18449 0
M  V30 492 H 46.5801 -2.80923 -2.99183 0
M  V30 493 H 46.1111 -1.26708 -3.72436 0
M  V30 494 H 48.1261 -0.799997 -4.89709 0
M  V30 495 N 47.2992 1.18797 -1.03562 0
M  V30 496 C 48.5452 1.89192 -0.746867 0
M  V30 497 C 48.9002 1.78531 0.717245 0
M  V30 498 O 48.1932 1.17137 1.51622 0
M  V30 499 C 48.3872 3.38692 -1.14117 0
M  V30 500 C 48.2162 3.63902 -2.64207 0
M  V30 501 C 46.9862 3.81553 -3.31279 0
M  V30 502 C 49.1842 3.64903 -3.62423 0
M  V30 503 N 47.1662 3.94455 -4.70402 0
M  V30 504 C 48.5372 3.83458 -4.87196 0
M  V30 505 C 50.5922 3.47965 -3.56125 0
M  V30 506 C 49.2952 3.86829 -6.06429 0
M  V30 507 C 51.3212 3.52616 -4.7478 0
M  V30 508 C 50.6832 3.71663 -5.9837 0
M  V30 509 H 46.7822 0.711141 -0.325273 0
M  V30 510 H 49.3662 1.42727 -1.32428 0
M  V30 511 H 47.5372 3.83864 -0.591889 0
M  V30 512 H 49.2692 3.96634 -0.803966 0
M  V30 513 H 46.0242 3.80723 -2.81686 0
M  V30 514 H 46.4482 4.0474 -5.42692 0
M  V30 515 H 51.0902 3.32189 -2.61553 0
M  V30 516 H 48.8082 4.01395 -7.01362 0
M  V30 517 H 52.3942 3.40791 -4.71543 0
M  V30 518 H 51.2742 3.75145 -6.88648 0
M  V30 519 N 48.7773 0.814389 1.34928 0
M  V30 520 C 49.7073 0.244827 2.32213 0
M  V30 521 C 50.6883 -0.634024 1.57842 0
M  V30 522 O 51.8733 -0.562676 1.8587 0
M  V30 523 C 49.0033 -0.601106 3.42058 0
M  V30 524 C 47.9573 0.179896 4.27622 0
M  V30 525 C 47.2833 -0.788237 5.28858 0
M  V30 526 C 48.5833 1.38329 5.03649 0
M  V30 527 H 50.2773 1.05763 2.80097 0
M  V30 528 H 47.8233 0.510029 1.34665 0
M  V30 529 H 49.7763 -1.00968 4.09125 0
M  V30 530 H 48.5003 -1.44688 2.92802 0
M  V30 531 H 47.1593 0.569739 3.62146 0
M  V30 532 H 46.8073 -1.62973 4.75866 0
M  V30 533 H 46.5073 -0.269942 5.8698 0
M  V30 534 H 48.0313 -1.19485 5.98795 0
M  V30 535 H 49.4453 1.04918 5.63618 0
M  V30 536 H 47.8423 1.83662 5.71304 0
M  V30 537 H 48.9123 2.16592 4.33839 0
M  V30 538 N 50.2554 -1.46986 0.568584 0
M  V30 539 C 51.6714 -1.57946 0.229189 0
M  V30 540 C 51.8714 -1.56567 -1.26843 0
M  V30 541 O 50.9274 -1.47511 -2.04931 0
M  V30 542 C 52.2404 -2.87963 0.865909 0
M  V30 543 C 53.7884 -3.01568 0.838188 0
M  V30 544 C 54.2634 -4.34301 1.45419 0
M  V30 545 N 55.7544 -4.40965 1.41788 0
M  V30 546 C 56.4894 -5.42256 1.86403 0
M  V30 547 N 55.9854 -6.50297 2.38926 0
M  V30 548 N 57.7784 -5.3337 1.77405 0
M  V30 549 H 49.9294 -1.46126 1.54146 0
M  V30 550 H 52.1924 -0.696156 0.643484 0
M  V30 551 H 51.8984 -2.94742 1.91886 0
M  V30 552 H 51.7724 -3.75423 0.365687 0
M  V30 553 H 54.1594 -2.94379 -0.206106 0
M  V30 554 H 54.2404 -2.1562 1.37629 0
M  V30 555 H 53.8844 -4.42247 2.49761 0
M  V30 556 H 53.8144 -5.19 0.891435 0
M  V30 557 H 56.3054 -3.63484 1.03381 0
M  V30 558 H 56.6184 -7.23777 2.70863 0
M  V30 559 H 54.9634 -6.51155 2.42944 0
M  V30 560 H 58.1544 -4.47865 1.3614 0
M  V30 561 H 58.3274 -6.12169 2.12492 0
M  V30 562 N 51.7335 -0.305618 -1.54608 0
M  V30 563 C 52.6655 0.602161 -2.21149 0
M  V30 564 C 53.6785 1.09394 -1.20569 0
M  V30 565 O 54.8675 1.0106 -1.47136 0
M  V30 566 C 51.9675 1.83692 -2.84799 0
M  V30 567 C 51.1405 1.48686 -4.11353 0
M  V30 568 C 50.1995 2.57725 -4.58764 0
M  V30 569 O 49.2255 2.22623 -5.23858 0
M  V30 570 N 50.4275 3.88346 -4.31471 0
M  V30 571 H 53.1925 0.0324966 -2.99682 0
M  V30 572 H 50.7535 -0.128021 -1.61393 0
M  V30 573 H 52.7455 2.55994 -3.13448 0
M  V30 574 H 51.3155 2.31486 -2.10078 0
M  V30 575 H 50.5355 0.596269 -3.89664 0
M  V30 576 H 51.8235 1.22842 -4.93748 0
M  V30 577 H 51.2215 4.19671 -3.79331 0
M  V30 578 H 49.7785 4.56932 -4.64818 0
M  V30 579 N 53.2116 1.57565 -0.0334293 0
M  V30 580 C 54.1746 2.09393 0.932048 0
M  V30 581 C 55.1746 1.00986 1.25134 0
M  V30 582 O 56.3646 1.27129 1.19096 0
M  V30 583 C 53.4966 2.56338 2.2473 0
M  V30 584 H 54.6896 2.95984 0.483085 0
M  V30 585 H 52.2426 1.54819 0.21468 0
M  V30 586 H 52.9776 1.7309 2.74245 0
M  V30 587 H 52.7626 3.35542 2.02865 0
M  V30 588 H 54.2526 2.96646 2.93923 0
M  V30 589 N 54.6897 -0.239769 1.55765 0
M  V30 590 C 55.6367 -1.29696 1.90913 0
M  V30 591 C 56.6067 -1.47478 0.764164 0
M  V30 592 O 57.7917 -1.61345 1.01845 0
M  V30 593 C 54.9317 -2.64598 2.21544 0
M  V30 594 C 54.0447 -2.54765 3.48882 0
M  V30 595 C 53.1797 -3.82069 3.69049 0
M  V30 596 C 52.2187 -3.66883 4.89963 0
M  V30 597 N 51.3557 -4.86094 5.06614 0
M  V30 598 H 56.1957 -0.990224 2.81067 0
M  V30 599 H 53.7327 -0.477684 1.39128 0
M  V30 600 H 55.6907 -3.43132 2.3731 0
M  V30 601 H 54.3207 -2.93405 1.34585 0
M  V30 602 H 53.3727 -1.67763 3.41409 0
M  V30 603 H 54.6847 -2.39457 4.37563 0
M  V30 604 H 53.8387 -4.69046 3.84812 0
M  V30 605 H 52.5777 -4.00282 2.78614 0
M  V30 606 H 51.5827 -2.78289 4.74168 0
M  V30 607 H 52.8077 -3.50157 5.81865 0
M  V30 608 H 50.7537 -5.04655 4.19117 0
M  V30 609 H 50.6707 -4.73443 5.89396 0
M  V30 610 H 51.9387 -5.74549 5.26795 0
M  V30 611 N 56.1678 -1.49265 -0.50573 0
M  V30 612 C 57.1158 -1.66065 -1.62866 0
M  V30 613 C 58.1098 -0.526636 -1.61006 0
M  V30 614 O 59.3158 -0.706126 -1.65571 0
M  V30 615 H 55.6908 -0.52356 -0.539805 0
M  V30 616 H 57.6618 -2.60329 -1.45848 0
M  V30 617 C 56.4108 -1.74008 -3.01026 0
M  V30 618 H 55.7338 -2.6064 -3.03161 0
M  V30 619 H 57.1738 -1.89798 -3.79147 0
M  V30 620 C 55.6328 -0.483868 -3.33407 0
M  V30 621 O 56.1628 0.392548 -3.99777 0
M  V30 622 N 54.3688 -0.348236 -2.88506 0
M  V30 623 H 53.9158 -1.06242 -2.34671 0
M  V30 624 H 53.8738 0.491204 -3.10539 0
M  V30 625 N 57.6459 0.756429 -1.3826 0
M  V30 626 C 58.8939 1.51248 -1.34047 0
M  V30 627 C 59.2149 1.94875 0.0698372 0
M  V30 628 O 58.4849 1.67436 1.01696 0
M  V30 629 H 57.0649 0.561018 -0.493222 0
M  V30 630 H 59.7269 0.899347 -1.7291 0
M  V30 631 H 58.8229 2.40472 -1.98947 0
M  V30 632 N 59.124 1.23083 0.984299 0
M  V30 633 C 60.54 0.992637 1.24975 0
M  V30 634 C 60.74 -0.308618 1.99123 0
M  V30 635 O 59.796 -1.02905 2.30579 0
M  V30 636 C 61.109 2.19698 2.05312 0
M  V30 637 C 62.657 2.24147 2.18465 0
M  V30 638 C 63.132 3.44157 3.02192 0
M  V30 639 N 64.623 3.44372 3.09777 0
M  V30 640 C 65.358 4.33886 3.74874 0
M  V30 641 N 64.854 5.3363 4.41827 0
M  V30 642 N 66.647 4.21639 3.71721 0
M  V30 643 H 58.798 2.06731 0.487453 0
M  V30 644 H 61.061 0.906339 0.277944 0
M  V30 645 H 60.767 3.1411 1.58201 0
M  V30 646 H 60.641 2.20465 3.06064 0
M  V30 647 H 63.028 1.30277 2.64786 0
M  V30 648 H 63.109 2.27415 1.17115 0
M  V30 649 H 62.753 4.38332 2.56568 0
M  V30 650 H 62.683 3.3813 4.03702 0
M  V30 651 H 65.174 2.72201 2.62135 0
M  V30 652 H 65.487 5.98196 4.89266 0
M  V30 653 H 63.832 5.37534 4.40548 0
M  V30 654 H 67.023 3.42962 3.18582 0
M  V30 655 H 67.196 4.91604 4.22173 0
M  V30 656 N 60.6021 -1.18246 1.0419 0
M  V30 657 C 61.8421 -1.89948 0.754916 0
M  V30 658 C 62.2061 -1.78608 -0.70451 0
M  V30 659 O 63.4071 -2.4503 -1.10516 0
M  V30 660 C 61.6781 -3.36305 1.20969 0
M  V30 661 S 63.2371 -4.26088 1.04854 0
M  V30 662 H 60.0551 -0.655897 0.274446 0
M  V30 663 H 62.6571 -1.42873 1.33445 0
M  V30 664 H 61.3611 -3.42089 2.26722 0
M  V30 665 H 60.8921 -3.8842 0.624004 0
M  V30 666 H 62.9071 -4.96189 -0.0332896 0
M  V30 667 N 62.0802 -0.821533 -1.34494 0
M  V30 668 C 63.0122 -0.199946 -2.28326 0
M  V30 669 C 64.0252 0.609377 -1.50965 0
M  V30 670 O 65.2142 0.439285 -1.7301 0
M  V30 671 C 62.3142 0.738431 -3.30757 0
M  V30 672 C 61.4872 -0.0277632 -4.37391 0
M  V30 673 C 60.5462 0.831332 -5.19591 0
M  V30 674 O 59.5722 0.276822 -5.68526 0
M  V30 675 N 60.7742 2.15132 -5.39165 0
M  V30 676 H 63.5392 -1.00609 -2.82308 0
M  V30 677 H 61.1002 -0.678366 -1.47003 0
M  V30 678 H 63.0922 1.31773 -3.82646 0
M  V30 679 H 61.6622 1.44533 -2.7718 0
M  V30 680 H 60.8822 -0.788359 -3.86236 0
M  V30 681 H 62.1702 -0.555251 -5.05761 0
M  V30 682 H 61.5682 2.62559 -5.01078 0
M  V30 683 H 60.1252 2.6795 -5.94177 0
M  V30 684 N 63.5583 1.46682 -0.576371 0
M  V30 685 C 64.8043 2.02712 -0.0596221 0
M  V30 686 C 65.1373 1.44765 1.29448 0
M  V30 687 O 64.4123 0.610355 1.84675 0
M  V30 688 C 64.6953 3.60098 0.0129503 0
M  V30 689 C 64.5483 4.28441 -1.3696 0
M  V30 690 C 65.8673 4.34224 0.71678 0
M  V30 691 H 62.9863 0.736637 -0.0231407 0
M  V30 692 H 65.6283 1.74898 -0.742351 0
M  V30 693 H 63.7783 3.83926 0.594378 0
M  V30 694 H 65.4503 4.15896 -1.9957 0
M  V30 695 H 63.6933 3.8805 -1.93907 0
M  V30 696 H 64.3643 5.3716 -1.27135 0
M  V30 697 H 66.8403 4.15503 0.222908 0
M  V30 698 H 65.7163 5.43936 0.73657 0
M  V30 699 H 65.9773 4.04823 1.77682 0
M  V30 700 N 65.0364 0.313813 1.54444 0
M  V30 701 C 65.9664 -0.549454 2.26943 0
M  V30 702 C 66.9474 -1.12741 1.27372 0
M  V30 703 O 68.1324 -1.15436 1.56167 0
M  V30 704 C 65.2624 -1.71523 3.01989 0
M  V30 705 C 64.2164 -1.26703 4.08816 0
M  V30 706 C 63.5424 -2.51898 4.71647 0
M  V30 707 C 64.8424 -0.388962 5.2085 0
M  V30 708 H 66.5364 0.0552661 2.99349 0
M  V30 709 H 64.0824 0.0280207 1.43973 0
M  V30 710 H 66.0354 -2.32535 3.51433 0
M  V30 711 H 64.7594 -2.34639 2.27183 0
M  V30 712 H 63.4184 -0.679896 3.6024 0
M  V30 713 H 63.0664 -3.13356 3.93468 0
M  V30 714 H 62.7664 -2.22605 5.43802 0
M  V30 715 H 64.2904 -3.1369 5.23861 0
M  V30 716 H 65.7044 -0.905107 5.6611 0
M  V30 717 H 64.1014 -0.18924 5.99802 0
M  V30 718 H 65.1714 0.582699 4.81386 0
M  V30 719 N 66.5145 -1.57545 0.0417849 0
M  V30 720 C 67.7445 -1.96339 -0.642995 0
M  V30 721 C 68.1525 -0.917536 -1.65463 0
M  V30 722 O 67.4955 0.107747 -1.83384 0
M  V30 723 C 67.5575 -3.31333 -1.39494 0
M  V30 724 C 67.2215 -4.53796 -0.540204 0
M  V30 725 C 68.2185 -5.19553 0.189806 0
M  V30 726 C 65.9035 -5.0006 -0.473886 0
M  V30 727 C 67.8975 -6.29904 0.974674 0
M  V30 728 C 65.5845 -6.10289 0.314677 0
M  V30 729 C 66.5825 -6.75072 1.03765 0
M  V30 730 O 66.2705 -7.83183 1.81327 0
M  V30 731 H 66.0025 -0.651241 -0.181277 0
M  V30 732 H 68.5565 -2.05148 0.101665 0
M  V30 733 H 66.7865 -3.19052 -2.18502 0
M  V30 734 H 68.4755 -3.54942 -1.96904 0
M  V30 735 H 69.2415 -4.84774 0.147981 0
M  V30 736 H 65.1205 -4.49433 -1.0262 0
M  V30 737 H 68.6645 -6.80401 1.5395 0
M  V30 738 H 64.5615 -6.44506 0.358174 0
M  V30 739 H 65.3295 -7.99913 1.73438 0
M  V30 740 N 67.9926 0.231505 -1.5589 0
M  V30 741 C 68.9396 1.28682 -1.91598 0
M  V30 742 C 69.9096 1.47071 -0.771974 0
M  V30 743 O 71.0946 1.60802 -1.027 0
M  V30 744 C 68.2346 2.6342 -2.22944 0
M  V30 745 C 67.3476 2.52912 -3.50228 0
M  V30 746 C 66.4826 3.80106 -3.7107 0
M  V30 747 C 65.5216 3.64279 -4.91902 0
M  V30 748 N 64.6586 4.834 -5.09184 0
M  V30 749 H 69.4986 0.975305 -2.81588 0
M  V30 750 H 67.0356 0.470299 -1.39379 0
M  V30 751 H 68.9936 3.41869 -2.39126 0
M  V30 752 H 67.6236 2.92687 -1.36139 0
M  V30 753 H 66.6756 1.6595 -3.42294 0
M  V30 754 H 67.9876 2.37133 -4.38827 0
M  V30 755 H 67.1416 4.66999 -3.87295 0
M  V30 756 H 65.8806 3.98799 -2.80733 0
M  V30 757 H 64.8856 2.7577 -4.75637 0
M  V30 758 H 66.1106 3.47067 -5.83714 0
M  V30 759 H 64.0566 5.02425 -4.21788 0
M  V30 760 H 63.9736 4.70311 -5.91898 0
M  V30 761 H 65.2416 5.71747 -5.29835 0
M  V30 762 N 69.4707 1.49531 0.497807 0
M  V30 763 C 70.6987 1.62893 1.27567 0
M  V30 764 C 71.1137 0.301585 1.86376 0
M  V30 765 O 70.4707 -0.713335 1.67982 0
M  V30 766 C 70.5217 2.70013 2.40364 0
M  V30 767 O 70.2427 3.976 1.83972 0
M  V30 768 C 71.7437 2.94109 3.31685 0
M  V30 769 H 68.9637 0.548298 0.386794 0
M  V30 770 H 71.5077 1.95584 0.597245 0
M  V30 771 H 69.6627 2.40092 3.04031 0
M  V30 772 H 70.0767 4.56631 2.58047 0
M  V30 773 H 71.5507 3.72788 4.07104 0
M  V30 774 H 72.0277 2.04147 3.88871 0
M  V30 775 H 72.6337 3.2546 2.73781 0
M  V30 776 N 70.9488 -0.749086 1.3866 0
M  V30 777 C 71.8588 -1.89358 1.38494 0
M  V30 778 C 72.8748 -1.71708 0.281476 0
M  V30 779 O 74.0508 -1.94554 0.520643 0
M  V30 780 C 71.1158 -3.24782 1.21316 0
M  V30 781 C 70.1768 -3.54926 2.41508 0
M  V30 782 C 69.4098 -4.83888 2.2514 0
M  V30 783 O 69.6328 -5.56592 1.24746 0
M  V30 784 O 68.5668 -5.13612 3.13826 0
M  V30 785 H 72.3928 -1.92452 2.34938 0
M  V30 786 H 69.9778 -0.894981 1.19626 0
M  V30 787 H 71.8598 -4.05739 1.13814 0
M  V30 788 H 70.5348 -3.2249 0.279592 0
M  V30 789 H 69.4418 -2.74112 2.54585 0
M  V30 790 H 70.7748 -3.61983 3.3351 0
M  V30 791 N 72.4269 -1.23603 -0.977757 0
M  V30 792 C 73.3569 -1.04401 -2.0886 0
M  V30 793 C 74.3379 0.0399052 -1.70053 0
M  V30 794 O 75.5229 -0.125246 -1.93796 0
M  V30 795 C 72.6529 -0.637269 -3.41403 0
M  V30 796 C 71.6069 -1.66883 -3.94124 0
M  V30 797 C 70.9329 -1.11745 -5.22893 0
M  V30 798 C 72.2329 -3.06247 -4.23096 0
M  V30 799 H 73.9269 -1.97316 -2.25182 0
M  V30 800 H 71.4729 -0.950096 -1.08209 0
M  V30 801 H 73.4259 -0.48998 -4.18542 0
M  V30 802 H 72.1499 0.327557 -3.24953 0
M  V30 803 H 70.8089 -1.80416 -3.19133 0
M  V30 804 H 70.4569 -0.143527 -5.02795 0
M  V30 805 H 70.1569 -1.80672 -5.59134 0
M  V30 806 H 71.6809 -0.982067 -6.02651 0
M  V30 807 H 73.0949 -2.96001 -4.90975 0
M  V30 808 H 71.4919 -3.72436 -4.70544 0
M  V30 809 H 72.5619 -3.55041 -3.30263 0
M  V30 810 N 73.905 1.17692 -1.04816 0
M  V30 811 C 75.13 1.92327 -0.776207 0
M  V30 812 C 75.555 1.76082 0.661581 0
M  V30 813 O 74.913 1.076 1.45917 0
M  V30 814 C 74.961 3.41539 -1.15687 0
M  V30 815 O 74.065 4.11402 -0.286775 0
M  V30 816 H 73.406 0.599735 -0.284981 0
M  V30 817 H 75.936 1.49201 -1.4 0
M  V30 818 H 75.946 3.92269 -1.12202 0
M  V30 819 H 74.621 3.52684 -2.20425 0
M  V30 820 H 73.198 3.70939 -0.381903 0
M  V30 821 N 75.3831 0.828654 1.34056 0
M  V30 822 C 76.3301 0.252567 2.29414 0
M  V30 823 C 77.3001 -0.62588 1.53857 0
M  V30 824 O 78.4851 -0.566312 1.82202 0
M  V30 825 C 75.6251 -0.574831 3.40279 0
M  V30 826 C 74.7381 0.326499 4.30764 0
M  V30 827 C 73.8731 -0.511016 5.28736 0
M  V30 828 C 72.9121 0.389342 6.1086 0
M  V30 829 N 72.0491 -0.409439 7.00905 0
M  V30 830 H 76.8891 1.07108 2.78086 0
M  V30 831 H 74.4261 0.539677 1.36843 0
M  V30 832 H 76.3841 -1.06992 4.03248 0
M  V30 833 H 75.0141 -1.35841 2.92826 0
M  V30 834 H 74.0661 0.939837 3.68607 0
M  V30 835 H 75.3781 1.01857 4.88289 0
M  V30 836 H 74.5321 -1.07035 5.97184 0
M  V30 837 H 73.2711 -1.23657 4.71763 0
M  V30 838 H 72.2761 0.960769 5.4134 0
M  V30 839 H 73.5011 1.1131 6.69916 0
M  V30 840 H 71.4471 -1.11856 6.46393 0
M  V30 841 H 71.3641 0.224126 7.55668 0
M  V30 842 H 72.6321 -0.951336 7.73673 0
M  V30 843 N 76.8612 -1.46375 0.584142 0
M  V30 844 C 77.7712 -2.34115 -0.150728 0
M  V30 845 C 78.7872 -1.49838 -0.884567 0
M  V30 846 O 79.9632 -1.82704 -0.847429 0
M  V30 847 C 77.0282 -3.2705 -1.15062 0
M  V30 848 C 76.0892 -4.27228 -0.421293 0
M  V30 849 C 75.3222 -5.15722 -1.37355 0
M  V30 850 O 75.5452 -5.07176 -2.61014 0
M  V30 851 O 74.4792 -5.95383 -0.883355 0
M  V30 852 H 78.3052 -2.98309 0.569708 0
M  V30 853 H 75.8902 -1.45373 0.344535 0
M  V30 854 H 77.7722 -3.84381 -1.72712 0
M  V30 855 H 76.4472 -2.65451 -1.8525 0
M  V30 856 H 75.3542 -3.7358 0.197085 0
M  V30 857 H 76.6872 -4.91616 0.239641 0
M  V30 858 N 78.3393 -0.321999 -1.54275 0
M  V30 859 C 79.2493 0.553631 -2.27974 0
M  V30 860 C 80.2653 1.13054 -1.32268 0
M  V30 861 O 81.4413 1.15084 -1.6528 0
M  V30 862 C 78.5063 1.69927 -3.02201 0
M  V30 863 C 77.5673 1.15433 -4.1349 0
M  V30 864 C 76.8003 2.24537 -4.84168 0
M  V30 865 O 77.0233 3.44852 -4.5435 0
M  V30 866 O 75.9573 1.90044 -5.7111 0
M  V30 867 H 79.7833 -0.0448345 -3.03667 0
M  V30 868 H 77.3683 -0.0877418 -1.49142 0
M  V30 869 H 79.2503 2.3663 -3.48689 0
M  V30 870 H 77.9253 2.28395 -2.29385 0
M  V30 871 H 76.8323 0.452436 -3.71354 0
M  V30 872 H 78.1653 0.614805 -4.88345 0
M  V30 873 N 79.8174 1.5752 -0.0501392 0
M  V30 874 C 81.0574 1.94521 0.627783 0
M  V30 875 C 81.4214 0.928265 1.68069 0
M  V30 876 O 82.6224 1.18517 2.41261 0
M  V30 877 C 80.8934 3.36319 1.20932 0
M  V30 878 S 82.4524 3.95272 1.90539 0
M  V30 879 H 79.2704 0.680456 0.206158 0
M  V30 880 H 81.8724 1.95139 -0.118829 0
M  V30 881 H 80.5764 4.08132 0.430865 0
M  V30 882 H 80.1074 3.39193 1.99277 0
M  V30 883 H 82.1224 3.80415 3.18589 0
M  V30 884 N 81.2955 -0.223234 1.56011 0
M  V30 885 C 82.5355 -0.954962 1.8072 0
M  V30 886 C 82.8995 -1.81598 0.623384 0
M  V30 887 O 84.1005 -2.58132 0.749745 0
M  V30 888 C 82.3715 -1.77313 3.10314 0
M  V30 889 S 83.9305 -2.56073 3.56332 0
M  V30 890 H 80.7485 -0.320812 0.634508 0
M  V30 891 H 83.3505 -0.220686 1.9425 0
M  V30 892 H 82.0545 -1.13071 3.94516 0
M  V30 893 H 81.5855 -2.54974 2.99586 0
M  V30 894 H 83.6005 -3.79619 3.19536 0
M  V30 895 N 82.7736 -1.49793 -0.48987 0
M  V30 896 C 83.9986 -1.63836 -1.27172 0
M  V30 897 C 84.4236 -0.31402 -1.8546 0
M  V30 898 O 83.7816 0.719803 -1.66399 0
M  V30 899 C 83.8296 -2.71797 -2.36978 0
M  V30 900 O 82.9336 -2.31744 -3.41128 0
M  V30 901 H 82.2746 -0.547997 -0.37496 0
M  V30 902 H 84.8046 -1.96053 -0.585191 0
M  V30 903 H 84.8146 -2.94305 -2.82575 0
M  V30 904 H 83.4896 -3.67923 -1.93921 0
M  V30 905 H 82.0666 -2.1961 -3.01373 0
M  V30 906 N 84.2517 0.741722 -1.39055 0
M  V30 907 C 85.4797 1.53098 -1.39171 0
M  V30 908 C 85.8947 1.88794 0.0155099 0
M  V30 909 O 85.2517 1.53626 0.985159 0
M  V30 910 C 85.3027 2.82274 -2.2584 0
M  V30 911 O 85.0237 2.48097 -3.61081 0
M  V30 912 C 86.5247 3.76343 -2.34266 0
M  V30 913 H 83.7447 0.473335 -0.4756 0
M  V30 914 H 86.2887 0.917045 -1.82785 0
M  V30 915 H 84.4437 3.40015 -1.85656 0
M  V30 916 H 84.8577 3.31029 -4.06842 0
M  V30 917 H 86.3317 4.63898 -2.9917 0
M  V30 918 H 86.8087 4.17619 -1.35982 0
M  V30 919 H 87.4147 3.24523 -2.74891 0
M  V30 920 N 85.7298 1.2412 0.971189 0
M  V30 921 C 86.9778 1.07668 1.71032 0
M  V30 922 C 87.2988 -0.385797 1.91146 0
M  V30 923 O 86.5688 -1.27569 1.4867 0
M  V30 924 H 85.1488 0.395429 0.633755 0
M  V30 925 H 87.8108 1.55984 1.16855 0
M  V30 926 H 86.9068 1.57195 2.69622 0
M  V30 927 N 87.2079 -1.17134 1.05439 0
M  V30 928 C 88.6239 -1.39454 0.776201 0
M  V30 929 C 88.8239 -1.91454 -0.628307 0
M  V30 930 O 87.8799 -2.10777 -1.39031 0
M  V30 931 C 89.1929 -2.38305 1.83388 0
M  V30 932 C 90.7409 -2.52006 1.85639 0
M  V30 933 C 91.2159 -3.54133 2.90437 0
M  V30 934 N 92.7069 -3.61653 2.89415 0
M  V30 935 C 93.4419 -4.4044 3.67152 0
M  V30 936 N 92.9379 -5.22721 4.54681 0
M  V30 937 N 94.7309 -4.35337 3.55581 0
M  V30 938 H 86.8819 -0.817134 1.96053 0
M  V30 939 H 89.1449 -0.421626 0.849079 0
M  V30 940 H 88.8509 -2.07173 2.84204 0
M  V30 941 H 88.7249 -3.37841 1.67761 0
M  V30 942 H 91.1119 -2.82447 0.85486 0
M  V30 943 H 91.1929 -1.52537 2.05344 0
M  V30 944 H 90.8369 -3.24431 3.90777 0
M  V30 945 H 90.7669 -4.53313 2.67983 0
M  V30 946 H 93.2579 -3.02909 2.25952 0
M  V30 947 H 93.5709 -5.80027 5.10674 0
M  V30 948 H 91.9159 -5.22093 4.58741 0
M  V30 949 H 95.1069 -3.70112 2.86592 0
M  V30 950 H 95.2799 -4.96494 4.1641 0
M  V30 951 N 88.686 -0.835752 -1.33615 0
M  V30 952 C 89.616 -0.281739 -2.31794 0
M  V30 953 C 90.597 0.608833 -1.58831 0
M  V30 954 O 91.782 0.533035 -1.86741 0
M  V30 955 C 88.912 0.546612 -3.42971 0
M  V30 956 C 87.866 -0.247904 -4.27281 0
M  V30 957 C 87.192 0.704001 -5.30045 0
M  V30 958 C 88.492 -1.46324 -5.01385 0
M  V30 959 H 90.186 -1.10206 -2.78379 0
M  V30 960 H 87.732 -0.531388 -1.33837 0
M  V30 961 H 89.685 0.944467 -4.1068 0
M  V30 962 H 88.409 1.40011 -2.95067 0
M  V30 963 H 87.068 -0.627281 -3.61194 0
M  V30 964 H 86.716 1.55381 -4.78399 0
M  V30 965 H 86.416 0.176524 -5.87335 0
M  V30 966 H 87.94 1.09944 -6.0062 0
M  V30 967 H 89.354 -1.13871 -5.61877 0
M  V30 968 H 87.751 -1.92728 -5.6831 0
M  V30 969 H 88.821 -2.23467 -4.30338 0
M  V30 970 N 90.1641 1.46063 -0.591896 0
M  V30 971 C 91.3891 2.07226 -0.0850314 0
M  V30 972 C 91.8141 1.43625 1.21463 0
M  V30 973 O 91.1721 0.523305 1.73583 0
M  V30 974 C 91.2201 3.60554 0.0576567 0
M  V30 975 O 90.3241 3.97128 1.11188 0
M  V30 976 H 89.6651 0.660615 -0.0669568 0
M  V30 977 H 92.1951 1.8756 -0.81745 0
M  V30 978 H 92.2051 4.07165 0.2609 0
M  V30 979 H 90.8801 4.06235 -0.891416 0
M  V30 980 H 89.4571 3.62213 0.886356 0
M  V30 981 N 91.6422 0.330177 1.54103 0
M  V30 982 C 92.8702 -0.272179 2.05102 0
M  V30 983 C 93.2852 -1.45267 1.20595 0
M  V30 984 O 92.6422 -1.8094 0.238144 0
M  V30 985 C 92.6932 -0.70023 3.54653 0
M  V30 986 O 92.4142 0.433301 4.35952 0
M  V30 987 C 93.9152 -1.3647 4.21771 0
M  V30 988 H 91.1352 -0.0549159 0.668749 0
M  V30 989 H 93.6792 0.478285 1.98828 0
M  V30 990 H 91.8342 -1.40066 3.61193 0
M  V30 991 H 92.2482 0.0947539 5.24414 0
M  V30 992 H 93.7222 -1.61509 5.27843 0
M  V30 993 H 94.1992 -2.31409 3.73292 0
M  V30 994 H 94.8052 -0.706675 4.19388 0
M  V30 995 N 93.1203 -1.57491 0.0584922 0
M  V30 996 C 94.3453 -1.97711 -0.62652 0
M  V30 997 C 94.7703 -0.936132 -1.63151 0
M  V30 998 O 94.1283 0.099811 -1.81025 0
M  V30 999 C 94.1763 -3.36989 -1.28338 0
M  V30 1000 O 93.2803 -3.35433 -2.39913 0
M  V30 1001 H 92.6213 -0.643868 -0.162266 0
M  V30 1002 H 95.1513 -2.04193 0.129064 0
M  V30 1003 H 95.1613 -3.73879 -1.63335 0
M  V30 1004 H 93.8363 -4.12289 -0.546889 0
M  V30 1005 H 92.4133 -3.10298 -2.06809 0
M  V30 1006 N 94.5984 0.214957 -1.56127 0
M  V30 1007 C 95.8444 0.935325 -1.80619 0
M  V30 1008 C 96.1994 1.81706 -0.632507 0
M  V30 1009 O 95.4924 1.87931 0.373182 0
M  V30 1010 C 95.6864 1.80314 -3.0858 0
M  V30 1011 C 95.5154 1.00691 -4.38282 0
M  V30 1012 C 94.2854 0.699211 -5.00439 0
M  V30 1013 C 96.4834 0.369057 -5.12974 0
M  V30 1014 N 94.4654 -0.117734 -6.13787 0
M  V30 1015 C 95.8364 -0.310981 -6.1922 0
M  V30 1016 C 97.8914 0.282759 -4.97096 0
M  V30 1017 C 96.5944 -1.06907 -7.11311 0
M  V30 1018 C 98.6204 -0.461881 -5.89594 0
M  V30 1019 C 97.9824 -1.13044 -6.9527 0
M  V30 1020 H 94.0814 0.322307 -0.71249 0
M  V30 1021 H 96.6654 0.205649 -1.93611 0
M  V30 1022 H 94.8364 2.50458 -2.96859 0
M  V30 1023 H 96.5684 2.46148 -3.21237 0
M  V30 1024 H 93.3234 1.01884 -4.62511 0
M  V30 1025 H 93.7474 -0.515235 -6.75037 0
M  V30 1026 H 98.3894 0.785292 -4.15443 0
M  V30 1027 H 96.1074 -1.5831 -7.92442 0
M  V30 1028 H 99.6934 -0.529746 -5.79383 0
M  V30 1029 H 98.5734 -1.69742 -7.65609 0
M  V30 1030 N 96.0765 1.50051 0.48192 0
M  V30 1031 C 97.3045 1.64237 1.25832 0
M  V30 1032 C 97.7195 0.321336 1.86045 0
M  V30 1033 O 97.0765 -0.695478 1.68729 0
M  V30 1034 C 97.1275 2.72548 2.37487 0
M  V30 1035 O 96.8485 3.99529 1.79745 0
M  V30 1036 C 98.3495 2.9761 3.28547 0
M  V30 1037 H 95.5695 0.55237 0.380957 0
M  V30 1038 H 98.1135 1.96207 0.576467 0
M  V30 1039 H 96.2685 2.43303 3.01467 0
M  V30 1040 H 96.6825 4.59342 2.5319 0
M  V30 1041 H 98.1565 3.77084 4.03127 0
M  V30 1042 H 98.6335 2.0826 3.86684 0
M  V30 1043 H 99.2395 3.28345 2.70314 0
M  V30 1044 N 97.5546 -0.734337 1.39446 0
M  V30 1045 C 98.4646 -1.87879 1.40495 0
M  V30 1046 C 99.4806 -1.714 0.299672 0
M  V30 1047 O 100.657 -1.93991 0.541249 0
M  V30 1048 C 97.7216 -3.23477 1.24754 0
M  V30 1049 C 96.7826 -3.52344 2.45259 0
M  V30 1050 C 96.0156 -4.81473 2.30259 0
M  V30 1051 O 96.2386 -5.55237 1.30643 0
M  V30 1052 O 95.1726 -5.10254 3.19256 0
M  V30 1053 H 98.9986 -1.89949 2.36966 0
M  V30 1054 H 96.5836 -0.882243 1.20569 0
M  V30 1055 H 98.4656 -4.04509 1.18111 0
M  V30 1056 H 97.1406 -3.22176 0.313781 0
M  V30 1057 H 96.0476 -2.71396 2.57478 0
M  V30 1058 H 97.3806 -3.58426 3.37331 0
M  V30 1059 N 99.0327 -1.24633 -0.964593 0
M  V30 1060 C 99.9427 -1.05859 -2.09359 0
M  V30 1061 C 100.959 0.00148855 -1.74 0
M  V30 1062 O 102.135 -0.197346 -2.00431 0
M  V30 1063 C 99.1997 -0.668879 -3.40187 0
M  V30 1064 C 98.2607 -1.80578 -3.89474 0
M  V30 1065 C 97.4937 -1.43457 -5.14058 0
M  V30 1066 O 97.7167 -0.325775 -5.69469 0
M  V30 1067 O 96.6507 -2.2613 -5.57807 0
M  V30 1068 H 100.477 -2.00516 -2.28094 0
M  V30 1069 H 98.0617 -1.03481 -1.0776 0
M  V30 1070 H 99.9437 -0.463211 -4.18846 0
M  V30 1071 H 98.6187 0.248536 -3.22744 0
M  V30 1072 H 97.5257 -2.06623 -3.11862 0
M  V30 1073 H 98.8587 -2.70208 -4.11398 0
M  V30 1074 N 100.511 1.16574 -1.06058 0
M  V30 1075 C 101.788 1.83048 -0.689416 0
M  V30 1076 C 102.168 1.94122 0.829443 0
M  V30 1077 O 101.516 1.48249 1.7388 0
M  V30 1078 C 101.726 3.20186 -1.38859 0
M  V30 1079 C 103.074 3.95989 -1.53226 0
M  V30 1080 O 104.098 3.29696 -1.3483 0
M  V30 1081 O 102.957 5.14813 -1.83384 0
M  V30 1082 H 100.051 0.790258 -0.243764 0
M  V30 1083 H 102.597 1.23797 -1.16071 0
M  V30 1084 H 101.369 3.07146 -2.4244 0
M  V30 1085 H 100.992 3.87112 -0.907216 0
M  V30 1086 N 101.989 0.842826 1.3317 0
M  V30 1087 C 103.235 0.441099 1.97945 0
M  V30 1088 C 103.568 -0.998024 1.66593 0
M  V30 1089 O 102.843 -1.69839 0.947898 0
M  V30 1090 C 103.126 0.666841 3.53872 0
M  V30 1091 C 102.979 2.15352 3.94897 0
M  V30 1092 C 104.298 0.115544 4.39948 0
M  V30 1093 H 101.417 0.161739 0.719034 0
M  V30 1094 H 104.059 1.05907 1.57746 0
M  V30 1095 H 102.209 0.140828 3.88245 0
M  V30 1096 H 103.881 2.7447 3.70761 0
M  V30 1097 H 102.124 2.63653 3.44484 0
M  V30 1098 H 102.795 2.26221 5.03516 0
M  V30 1099 H 105.271 0.565213 4.12243 0
M  V30 1100 H 104.147 0.303152 5.48062 0
M  V30 1101 H 104.408 -0.980935 4.3108 0
M  V30 1102 N 103.467 -1.45747 0.599634 0
M  V30 1103 C 104.415 -2.322 -0.136426 0
M  V30 1104 C 105.409 -1.45497 -0.867583 0
M  V30 1105 O 106.615 -1.62027 -0.78405 0
M  V30 1106 H 102.99 -0.749368 -0.0628588 0
M  V30 1107 H 104.961 -2.92072 0.611281 0
M  V30 1108 C 103.71 -3.28974 -1.12567 0
M  V30 1109 H 103.033 -3.9568 -0.572484 0
M  V30 1110 H 104.473 -3.92212 -1.61077 0
M  V30 1111 C 102.932 -2.55561 -2.19523 0
M  V30 1112 O 103.462 -2.33111 -3.27143 0
M  V30 1113 N 101.668 -2.15832 -1.94589 0
M  V30 1114 H 101.215 -2.3429 -1.07078 0
M  V30 1115 H 101.173 -1.67034 -2.66359 0
M  V30 1116 N 104.945 -0.338344 -1.53925 0
M  V30 1117 C 106.222 0.314774 -1.93051 0
M  V30 1118 C 106.602 1.68669 -1.26941 0
M  V30 1119 O 105.95 2.24636 -0.418445 0
M  V30 1120 C 106.16 0.392249 -3.46789 0
M  V30 1121 C 107.508 0.645554 -4.19664 0
M  V30 1122 O 108.532 0.474575 -3.53024 0
M  V30 1123 O 107.391 0.976408 -5.37707 0
M  V30 1124 H 104.485 0.182598 -0.80659 0
M  V30 1125 H 107.031 -0.389141 -1.65178 0
M  V30 1126 H 105.803 -0.570702 -3.87116 0
M  V30 1127 H 105.426 1.14316 -3.80812 0
M  V30 1128 N 106.423 1.57458 -0.0668435 0
M  V30 1129 C 107.371 2.13639 0.919851 0
M  V30 1130 C 108.365 1.07204 1.31163 0
M  V30 1131 O 109.571 1.25591 1.28945 0
M  V30 1132 H 105.946 0.683048 0.314562 0
M  V30 1133 H 107.917 2.95415 0.421047 0
M  V30 1134 C 106.666 2.70892 2.17975 0
M  V30 1135 H 105.989 3.5246 1.88711 0
M  V30 1136 H 107.429 3.13803 2.85138 0
M  V30 1137 C 105.888 1.65414 2.93496 0
M  V30 1138 O 106.418 1.07619 3.87015 0
M  V30 1139 N 104.624 1.36564 2.56512 0
M  V30 1140 H 104.171 1.83751 1.80536 0
M  V30 1141 H 104.129 0.66223 3.07347 0
M  V30 1142 N 107.901 -0.206675 1.56239 0
M  V30 1143 C 109.129 -0.945345 1.8404 0
M  V30 1144 C 109.544 -1.77336 0.647885 0
M  V30 1145 O 108.901 -1.78425 -0.383511 0
M  V30 1146 C 108.952 -1.8509 3.10522 0
M  V30 1147 O 108.673 -1.05634 4.25174 0
M  V30 1148 C 110.174 -2.70222 3.51418 0
M  V30 1149 H 107.394 -0.276372 0.61144 0
M  V30 1150 H 109.938 -0.217417 2.03341 0
M  V30 1151 H 108.093 -2.53259 2.93153 0
M  V30 1152 H 108.507 -1.67238 4.97124 0
M  V30 1153 H 109.981 -3.29438 4.42916 0
M  V30 1154 H 110.458 -3.43358 2.73864 0
M  V30 1155 H 111.064 -2.07443 3.71278 0
M  V30 1156 N 109.379 -1.50304 -0.473955 0
M  V30 1157 C 110.309 -1.71886 -1.58042 0
M  V30 1158 C 111.29 -0.567799 -1.60344 0
M  V30 1159 O 112.475 -0.806623 -1.76656 0
M  V30 1160 C 109.605 -1.81036 -2.96384 0
M  V30 1161 C 108.559 -2.962 -3.08949 0
M  V30 1162 C 107.885 -2.9049 -4.48909 0
M  V30 1163 C 109.185 -4.36752 -2.86434 0
M  V30 1164 H 110.879 -2.64527 -1.40234 0
M  V30 1165 H 108.425 -1.27295 -0.673201 0
M  V30 1166 H 110.378 -1.94719 -3.73714 0
M  V30 1167 H 109.102 -0.850147 -3.15341 0
M  V30 1168 H 107.761 -2.82164 -2.3405 0
M  V30 1169 H 107.409 -1.92321 -4.64781 0
M  V30 1170 H 107.109 -3.67802 -4.58253 0
M  V30 1171 H 108.633 -3.06218 -5.28264 0
M  V30 1172 H 110.047 -4.5133 -3.53517 0
M  V30 1173 H 108.444 -5.15493 -3.07225 0
M  V30 1174 H 109.514 -4.49321 -1.82316 0
M  V30 1175 N 110.857 0.726932 -1.39834 0
M  V30 1176 C 112.104 1.48664 -1.37496 0
M  V30 1177 C 112.432 1.94482 0.0264678 0
M  V30 1178 O 111.687 1.67692 1.00886 0
M  V30 1179 C 111.986 2.73495 -2.30077 0
M  V30 1180 C 111.652 2.46502 -3.77555 0
M  V30 1181 C 110.314 2.3885 -4.17737 0
M  V30 1182 C 112.666 2.23604 -4.70798 0
M  V30 1183 C 109.994 2.06352 -5.49214 0
M  V30 1184 C 112.346 1.92622 -6.02561 0
M  V30 1185 C 111.01 1.83444 -6.41798 0
M  V30 1186 H 110.28 0.544001 -0.503135 0
M  V30 1187 H 112.927 0.833657 -1.72402 0
M  V30 1188 H 111.232 3.43575 -1.88317 0
M  V30 1189 H 112.929 3.31549 -2.25558 0
M  V30 1190 H 109.519 2.5334 -3.45712 0
M  V30 1191 H 113.703 2.28479 -4.40581 0
M  V30 1192 H 108.959 1.97776 -5.78528 0
M  V30 1193 H 113.133 1.73914 -6.74334 0
M  V30 1194 H 110.76 1.58029 -7.43593 0
M  V30 1195 N 112.336 1.25143 0.95797 0
M  V30 1196 C 113.283 1.05235 2.05412 0
M  V30 1197 C 114.253 -0.0374561 1.66058 0
M  V30 1198 O 115.438 0.119073 1.90428 0
M  V30 1199 C 112.578 0.673589 3.38462 0
M  V30 1200 C 111.691 1.8379 3.90954 0
M  V30 1201 C 110.826 1.40381 5.12315 0
M  V30 1202 C 109.865 2.53746 5.57027 0
M  V30 1203 N 109.002 2.11136 6.69601 0
M  V30 1204 H 113.842 1.99048 2.21774 0
M  V30 1205 H 111.379 0.991277 1.08683 0
M  V30 1206 H 113.337 0.434964 4.14926 0
M  V30 1207 H 111.967 -0.227554 3.21997 0
M  V30 1208 H 111.019 2.18992 3.11041 0
M  V30 1209 H 112.331 2.68937 4.20089 0
M  V30 1210 H 111.485 1.12464 5.96185 0
M  V30 1211 H 110.224 0.523015 4.84887 0
M  V30 1212 H 109.229 2.82412 4.71724 0
M  V30 1213 H 110.454 3.42398 5.86464 0
M  V30 1214 H 108.4 1.25468 6.4389 0
M  V30 1215 H 108.317 2.89832 6.98236 0
M  V30 1216 H 109.585 1.86385 7.56889 0
M  V30 1217 N 113.814 -1.1601 1.06675 0
M  V30 1218 C 115.06 -1.87145 0.796766 0
M  V30 1219 C 115.415 -1.8037 -0.669658 0
M  V30 1220 O 114.708 -1.21116 -1.48463 0
M  V30 1221 C 114.902 -3.35547 1.23057 0
M  V30 1222 C 114.731 -3.56769 2.73762 0
M  V30 1223 C 113.501 -3.72635 3.41279 0
M  V30 1224 C 115.699 -3.55166 3.7197 0
M  V30 1225 N 113.681 -3.81845 4.80695 0
M  V30 1226 C 115.052 -3.70406 4.97191 0
M  V30 1227 C 117.107 -3.384 3.65226 0
M  V30 1228 C 115.81 -3.70615 6.16471 0
M  V30 1229 C 117.836 -3.39904 4.83962 0
M  V30 1230 C 117.198 -3.55667 6.08013 0
M  V30 1231 H 113.297 -0.702267 0.344014 0
M  V30 1232 H 115.881 -1.39165 1.36166 0
M  V30 1233 H 114.052 -3.82159 0.693456 0
M  V30 1234 H 115.784 -3.94363 0.908844 0
M  V30 1235 H 112.539 -3.73121 2.91681 0
M  V30 1236 H 112.963 -3.90209 5.53232 0
M  V30 1237 H 117.605 -3.25138 2.70269 0
M  V30 1238 H 115.323 -3.82658 7.11757 0
M  V30 1239 H 118.909 -3.28169 4.80413 0
M  V30 1240 H 117.789 -3.56755 6.98352 0
M  V30 1241 N 115.292 -0.849877 -1.32721 0
M  V30 1242 C 116.225 -0.235903 -2.26977 0
M  V30 1243 C 117.203 0.623355 -1.50177 0
M  V30 1244 O 118.387 0.581207 -1.79316 0
M  V30 1245 C 115.514 0.667712 -3.32053 0
M  V30 1246 C 114.56 -0.11753 -4.26338 0
M  V30 1247 S 115.393 -1.48277 -5.14562 0
M  V30 1248 C 116.549 -0.584741 -6.23163 0
M  V30 1249 H 116.782 -1.03495 -2.78704 0
M  V30 1250 H 114.315 -0.64724 -1.40179 0
M  V30 1251 H 116.273 1.18343 -3.93072 0
M  V30 1252 H 114.934 1.44052 -2.7912 0
M  V30 1253 H 114.127 0.57051 -5.00761 0
M  V30 1254 H 113.729 -0.564668 -3.69713 0
M  V30 1255 H 116.021 0.212968 -6.77165 0
M  V30 1256 H 116.964 -1.29947 -6.96074 0
M  V30 1257 H 117.372 -0.161202 -5.6427 0
M  V30 1258 N 116.77 1.45427 -0.607355 0
M  V30 1259 C 118.019 2.01452 -0.100036 0
M  V30 1260 C 118.332 1.48159 1.27704 0
M  V30 1261 O 119.538 1.96159 1.87707 0
M  V30 1262 C 117.994 3.59672 -0.128158 0
M  V30 1263 C 117.602 4.21962 -1.50507 0
M  V30 1264 C 119.346 4.23262 0.323932 0
M  V30 1265 C 117.253 5.72333 -1.48959 0
M  V30 1266 H 116.183 0.75325 -0.0336299 0
M  V30 1267 H 118.834 1.66901 -0.76265 0
M  V30 1268 H 117.216 3.91411 0.601105 0
M  V30 1269 H 118.39 4.01796 -2.25602 0
M  V30 1270 H 116.705 3.70565 -1.89923 0
M  V30 1271 H 119.302 5.33522 0.354691 0
M  V30 1272 H 119.645 3.93921 1.34656 0
M  V30 1273 H 120.178 3.96239 -0.352056 0
M  V30 1274 H 116.917 6.06373 -2.48981 0
M  V30 1275 H 116.437 5.94691 -0.781214 0
M  V30 1276 H 118.116 6.35525 -1.21313 0
M  V30 1277 N 118.248 0.346503 1.53744 0
M  V30 1278 C 119.495 -0.249104 2.00962 0
M  V30 1279 C 119.823 -1.5032 1.23426 0
M  V30 1280 O 119.078 -1.93217 0.310761 0
M  V30 1281 C 119.377 -0.605809 3.52228 0
M  V30 1282 C 119.043 0.551747 4.47512 0
M  V30 1283 C 117.705 0.86941 4.73281 0
M  V30 1284 C 120.057 1.32818 5.03993 0
M  V30 1285 C 117.385 1.96582 5.52786 0
M  V30 1286 C 119.737 2.41486 5.84694 0
M  V30 1287 C 118.401 2.73808 6.08757 0
M  V30 1288 H 117.671 -0.0911538 0.735372 0
M  V30 1289 H 120.318 0.475027 1.85515 0
M  V30 1290 H 118.623 -1.4107 3.65522 0
M  V30 1291 H 120.32 -1.07858 3.86222 0
M  V30 1292 H 116.91 0.294102 4.2759 0
M  V30 1293 H 121.094 1.09602 4.84047 0
M  V30 1294 H 116.35 2.22045 5.69654 0
M  V30 1295 H 120.524 3.02078 6.27473 0
M  V30 1296 H 118.151 3.58892 6.7015 0
M  V30 1297 N 119.726 -1.57421 0.075193 0
M  V30 1298 C 120.674 -2.14124 -0.908508 0
M  V30 1299 C 121.668 -1.07898 -1.30592 0
M  V30 1300 O 122.874 -1.26273 -1.28277 0
M  V30 1301 H 119.249 -0.684707 -0.310935 0
M  V30 1302 H 121.22 -2.95634 -0.405374 0
M  V30 1303 C 119.969 -2.72044 -2.16535 0
M  V30 1304 H 119.292 -3.53456 -1.86839 0
M  V30 1305 H 120.732 -3.15311 -2.83469 0
M  V30 1306 C 119.191 -1.66968 -2.92615 0
M  V30 1307 O 119.721 -1.0967 -3.86439 0
M  V30 1308 N 117.927 -1.37923 -2.55784 0
M  V30 1309 H 117.474 -1.84706 -1.79559 0
M  V30 1310 H 117.432 -0.67852 -3.06991 0
M  V30 1311 N 121.204 0.198386 -1.56346 0
M  V30 1312 C 122.452 0.91747 -1.80075 0
M  V30 1313 C 122.773 1.83929 -0.647692 0
M  V30 1314 O 122.043 1.93029 0.334166 0
M  V30 1315 H 120.623 0.341774 -0.664228 0
M  V30 1316 H 123.285 0.204684 -1.93822 0
M  V30 1317 H 122.381 1.51055 -2.7311 0
M  V30 1318 N 122.682 1.50554 0.465978 0
M  V30 1319 C 123.93 1.61479 1.21528 0
M  V30 1320 C 124.251 0.319596 1.92363 0
M  V30 1321 O 123.521 -0.663194 1.84333 0
M  V30 1322 H 122.101 0.595055 0.451573 0
M  V30 1323 H 124.763 1.87355 0.53704 0
M  V30 1324 H 123.859 2.42846 1.96042 0
M  V30 1325 N 124.16 -0.719506 1.40217 0
M  V30 1326 C 125.123 -1.8153 1.39927 0
M  V30 1327 C 126.123 -1.58095 0.293723 0
M  V30 1328 O 127.313 -1.65209 0.552429 0
M  V30 1329 C 124.445 -3.19561 1.18716 0
M  V30 1330 H 125.638 -1.83186 2.37451 0
M  V30 1331 H 123.191 -0.924746 1.26008 0
M  V30 1332 H 123.926 -3.23557 0.219366 0
M  V30 1333 H 123.711 -3.3797 1.98793 0
M  V30 1334 H 125.201 -3.99598 1.21291 0
M  V30 1335 N 125.638 -1.25649 -0.95132 0
M  V30 1336 C 127.049 -1.09654 -1.51106 0
M  V30 1337 C 127.4 0.326615 -1.93462 0
M  V30 1338 O 126.525 1.21697 -1.78938 0
M  V30 1339 C 127.12 -1.98437 -2.74605 0
M  V30 1340 C 125.679 -1.86618 -3.2688 0
M  V30 1341 C 124.826 -1.9239 -1.99703 0
M  V30 1342 H 127.777 -1.38887 -0.767865 0
M  V30 1343 H 127.798 -1.5263 -3.48546 0
M  V30 1344 H 127.31 -3.02009 -2.43746 0
M  V30 1345 H 125.411 -0.859421 -3.62553 0
M  V30 1346 H 125.524 -2.71607 -3.94673 0
M  V30 1347 H 123.888 -1.36317 -2.15151 0
M  V30 1348 H 124.671 -2.97573 -1.71188 0
M  V30 1349 N 127.117 1.15442 -1.07289 0
M  V30 1350 C 128.065 2.22225 -0.686952 0
M  V30 1351 C 129.059 1.66688 0.30193 0
M  V30 1352 O 130.265 1.79236 0.165712 0
M  V30 1353 H 126.64 0.723783 -0.204064 0
M  V30 1354 H 128.611 2.52056 -1.5972 0
M  V30 1355 C 127.36 3.47556 -0.100149 0
M  V30 1356 H 126.683 3.90612 -0.852211 0
M  V30 1357 H 128.123 4.23794 0.132235 0
M  V30 1358 C 126.582 3.16337 1.159 0
M  V30 1359 O 127.112 3.33074 2.24555 0
M  V30 1360 N 125.318 2.70385 1.06491 0
M  V30 1361 H 124.865 2.56966 0.180668 0
M  V30 1362 H 124.823 2.49871 1.90819 0
M  V30 1363 N 128.595 0.856903 1.32268 0
M  V30 1364 C 129.835 0.467705 1.98977 0
M  V30 1365 C 130.199 -0.959231 1.66321 0
M  V30 1366 O 131.4 -1.4531 2.26138 0
M  V30 1367 C 129.671 0.70256 3.50427 0
M  V30 1368 S 131.23 0.411269 4.36868 0
M  V30 1369 H 128.048 0.175121 0.689096 0
M  V30 1370 H 130.65 1.1101 1.60925 0
M  V30 1371 H 129.354 1.74012 3.71683 0
M  V30 1372 H 128.885 0.0466707 3.93372 0
M  V30 1373 H 130.9 -0.761799 4.90317 0
M  V30 1374 N 130.073 -1.45103 0.615059 0
M  V30 1375 C 131.322 -2.01396 0.110718 0
M  V30 1376 C 131.635 -1.48834 -1.26916 0
M  V30 1377 O 132.841 -1.97152 -1.86664 0
M  V30 1378 C 131.297 -3.59599 0.14723 0
M  V30 1379 C 130.905 -4.21158 1.52743 0
M  V30 1380 C 132.649 -4.23428 -0.30148 0
M  V30 1381 C 130.556 -5.71535 1.51992 0
M  V30 1382 H 129.486 -0.753061 0.0376241 0
M  V30 1383 H 132.137 -1.66494 0.77149 0
M  V30 1384 H 130.519 -3.91724 -0.580339 0
M  V30 1385 H 131.693 -4.00594 2.2773 0
M  V30 1386 H 130.008 -3.69552 1.91886 0
M  V30 1387 H 132.605 -5.33703 -0.326392 0
M  V30 1388 H 132.948 -3.94629 -1.32565 0
M  V30 1389 H 133.481 -3.96047 0.373065 0
M  V30 1390 H 130.22 -6.05044 2.52193 0
M  V30 1391 H 129.74 -5.94268 0.81274 0
M  V30 1392 H 131.419 -6.34873 1.24681 0
M  V30 1393 N 131.551 -0.354651 -1.53558 0
M  V30 1394 C 132.962 0.126902 -1.86268 0
M  V30 1395 C 133.313 1.49075 -1.27558 0
M  V30 1396 O 132.438 2.08105 -0.5934 0
M  V30 1397 C 133.033 0.237046 -3.3797 0
M  V30 1398 C 131.592 0.662842 -3.70518 0
M  V30 1399 C 130.739 -0.196652 -2.76602 0
M  V30 1400 H 133.69 -0.573849 -1.47962 0
M  V30 1401 H 133.711 1.06259 -3.65362 0
M  V30 1402 H 133.223 -0.755725 -3.80671 0
M  V30 1403 H 131.324 1.66424 -3.33367 0
M  V30 1404 H 131.437 0.445034 -4.77029 0
M  V30 1405 H 129.801 0.332763 -2.52517 0
M  V30 1406 H 130.584 -1.18676 -3.22135 0
M  V30 1407 N 133.029 1.57378 -0.0835403 0
M  V30 1408 C 134.269 1.95808 0.586381 0
M  V30 1409 C 134.633 0.963706 1.66062 0
M  V30 1410 O 135.834 1.23608 2.38693 0
M  V30 1411 C 134.105 3.38808 1.13771 0
M  V30 1412 S 135.664 3.99225 1.82112 0
M  V30 1413 H 132.482 0.684675 0.191679 0
M  V30 1414 H 135.084 1.94843 -0.160194 0
M  V30 1415 H 133.788 4.08954 0.344197 0
M  V30 1416 H 133.319 3.43344 1.92038 0
M  V30 1417 H 135.334 3.87087 3.10449 0
M  V30 1418 N 134.507 -0.190092 1.56449 0
M  V30 1419 C 135.454 -1.23557 1.94942 0
M  V30 1420 C 136.424 -1.44972 0.810696 0
M  V30 1421 O 137.609 -1.58023 1.06927 0
M  V30 1422 C 134.749 -2.57416 2.2985 0
M  V30 1423 C 133.862 -2.43537 3.5681 0
M  V30 1424 C 132.997 -3.70134 3.81017 0
M  V30 1425 C 132.036 -3.51109 5.01387 0
M  V30 1426 N 131.173 -4.6973 5.21822 0
M  V30 1427 H 136.013 -0.900304 2.84075 0
M  V30 1428 H 133.55 -0.43318 1.40577 0
M  V30 1429 H 135.508 -3.35409 2.48106 0
M  V30 1430 H 134.138 -2.88975 1.43852 0
M  V30 1431 H 133.19 -1.56816 3.46573 0
M  V30 1432 H 134.502 -2.25415 4.4496 0
M  V30 1433 H 133.656 -4.56566 3.9954 0
M  V30 1434 H 132.395 -3.91215 2.91207 0
M  V30 1435 H 131.4 -2.63063 4.82782 0
M  V30 1436 H 132.625 -3.31468 5.9271 0
M  V30 1437 H 130.571 -4.91065 4.34961 0
M  V30 1438 H 130.488 -4.54452 6.0416 0
M  V30 1439 H 131.756 -5.57499 5.44808 0
M  V30 1440 N 135.985 -1.50799 -0.457987 0
M  V30 1441 C 136.895 -1.73426 -1.57989 0
M  V30 1442 C 137.911 -0.617745 -1.62665 0
M  V30 1443 O 139.087 -0.897614 -1.80291 0
M  V30 1444 C 136.152 -1.83557 -2.94122 0
M  V30 1445 C 135.213 -3.07345 -2.99729 0
M  V30 1446 C 134.446 -3.16983 -4.29368 0
M  V30 1447 O 134.669 -2.33077 -5.20607 0
M  V30 1448 O 133.603 -4.09812 -4.40837 0
M  V30 1449 H 137.429 -2.68555 -1.41817 0
M  V30 1450 H 135.014 -1.35052 -0.638859 0
M  V30 1451 H 136.896 -1.92326 -3.74952 0
M  V30 1452 H 135.571 -0.916137 -3.10465 0
M  V30 1453 H 134.478 -3.04068 -2.1793 0
M  V30 1454 H 135.811 -3.9891 -2.88326 0
M  V30 1455 N 137.463 0.71206 -1.40597 0
M  V30 1456 C 138.691 1.50111 -1.42388 0
M  V30 1457 C 139.106 1.88784 -0.0245395 0
M  V30 1458 O 138.463 1.55681 0.952351 0
M  V30 1459 C 138.514 2.7742 -2.31776 0
M  V30 1460 O 138.235 2.40382 -3.66262 0
M  V30 1461 C 139.736 3.7129 -2.42196 0
M  V30 1462 H 136.956 0.46314 -0.485533 0
M  V30 1463 H 139.5 0.878068 -1.8469 0
M  V30 1464 H 137.655 3.36001 -1.92827 0
M  V30 1465 H 138.069 3.22324 -4.13772 0
M  V30 1466 H 139.543 4.57448 -3.08943 0
M  V30 1467 H 140.02 4.14641 -1.44809 0
M  V30 1468 H 140.626 3.18619 -2.81712 0
M  V30 1469 N 138.941 1.26152 0.944643 0
M  V30 1470 C 140.181 1.12708 1.70517 0
M  V30 1471 C 140.545 -0.324727 1.89234 0
M  V30 1472 O 141.746 -0.581211 2.62441 0
M  V30 1473 C 140.017 1.8713 3.04495 0
M  V30 1474 S 141.576 1.89698 3.95677 0
M  V30 1475 H 138.394 0.402665 0.585988 0
M  V30 1476 H 140.996 1.59821 1.12594 0
M  V30 1477 H 139.7 2.91833 2.88551 0
M  V30 1478 H 139.231 1.40444 3.67477 0
M  V30 1479 H 141.246 0.981198 4.86402 0
M  V30 1480 N 140.419 -1.14872 1.07899 0
M  V30 1481 C 141.329 -2.2341 0.715915 0
M  V30 1482 C 142.345 -1.71808 -0.275306 0
M  V30 1483 O 143.521 -2.01039 -0.120545 0
M  V30 1484 C 140.586 -3.46474 0.125168 0
M  V30 1485 C 139.647 -4.13039 1.17034 0
M  V30 1486 C 138.88 -5.30229 0.607688 0
M  V30 1487 O 139.103 -5.675 -0.574497 0
M  V30 1488 O 138.037 -5.86444 1.35526 0
M  V30 1489 H 141.863 -2.56808 1.62121 0
M  V30 1490 H 139.448 -1.22702 0.852322 0
M  V30 1491 H 141.33 -4.20917 -0.201729 0
M  V30 1492 H 140.005 -3.14811 -0.753364 0
M  V30 1493 H 138.912 -3.40493 1.54968 0
M  V30 1494 H 140.245 -4.48796 2.02097 0
M  V30 1495 N 141.898 -0.863906 -1.31812 0
M  V30 1496 C 142.846 -0.30422 -2.30602 0
M  V30 1497 C 143.84 0.577419 -1.59255 0
M  V30 1498 O 145.046 0.464194 -1.73912 0
M  V30 1499 H 141.421 -0.0796877 -0.747766 0
M  V30 1500 H 143.392 -1.15148 -2.75288 0
M  V30 1501 C 142.141 0.484617 -3.44306 0
M  V30 1502 H 141.464 -0.18451 -3.99374 0
M  V30 1503 H 142.904 0.841664 -4.15562 0
M  V30 1504 C 141.363 1.6735 -2.92396 0
M  V30 1505 O 141.893 2.77273 -2.90659 0
M  V30 1506 N 140.099 1.50362 -2.48676 0
M  V30 1507 H 139.646 0.609402 -2.50288 0
M  V30 1508 H 139.604 2.30051 -2.14299 0
M  V30 1509 N 143.376 1.44774 -0.622745 0
M  V30 1510 C 144.622 2.0242 -0.124083 0
M  V30 1511 C 144.955 1.4881 1.24777 0
M  V30 1512 O 144.23 0.668799 1.8264 0
M  V30 1513 C 144.513 3.59957 -0.101619 0
M  V30 1514 C 144.366 4.23867 -1.50521 0
M  V30 1515 C 145.685 4.36284 0.578272 0
M  V30 1516 H 142.804 0.735528 -0.0465645 0
M  V30 1517 H 145.446 1.72447 -0.797617 0
M  V30 1518 H 143.596 3.85623 0.471934 0
M  V30 1519 H 145.268 4.09336 -2.12701 0
M  V30 1520 H 143.511 3.81684 -2.06154 0
M  V30 1521 H 144.182 5.32843 -1.4416 0
M  V30 1522 H 146.658 4.16001 0.0906057 0
M  V30 1523 H 145.534 5.46004 0.563149 0
M  V30 1524 H 145.795 4.10271 1.64713 0
M  V30 1525 N 144.854 0.36279 1.53368 0
M  V30 1526 C 146.131 -0.284021 1.93527 0
M  V30 1527 C 146.511 -1.66628 1.29608 0
M  V30 1528 O 145.859 -2.23942 0.45413 0
M  V30 1529 C 146.069 -0.337028 3.47369 0
M  V30 1530 C 147.417 -0.578708 4.20638 0
M  V30 1531 O 148.441 -0.418352 3.53735 0
M  V30 1532 O 147.3 -0.89074 5.39192 0
M  V30 1533 H 144.394 -0.169743 0.809393 0
M  V30 1534 H 146.94 0.41537 1.64538 0
M  V30 1535 H 145.712 0.632217 3.86159 0
M  V30 1536 H 145.335 -1.08243 3.82582 0
M  V30 1537 N 146.332 -1.57332 0.0918853 0
M  V30 1538 C 147.572 -1.96117 -0.575988 0
M  V30 1539 C 147.936 -0.972499 -1.65549 0
M  V30 1540 O 149.137 -1.24872 -2.38034 0
M  V30 1541 C 147.408 -3.39407 -1.11973 0
M  V30 1542 S 148.967 -4.00185 -1.79992 0
M  V30 1543 H 145.785 -0.685682 -0.188045 0
M  V30 1544 H 148.387 -1.94755 0.170525 0
M  V30 1545 H 147.091 -4.09131 -0.322504 0
M  V30 1546 H 146.622 -3.44358 -1.90214 0
M  V30 1547 H 148.637 -3.88728 -3.08391 0
M  V30 1548 N 147.81 0.181792 -1.56548 0
M  V30 1549 C 149.058 0.89832 -1.81038 0
M  V30 1550 C 149.379 1.83232 -0.667164 0
M  V30 1551 O 148.649 1.93372 0.313673 0
M  V30 1552 H 147.229 0.33471 -0.667816 0
M  V30 1553 H 149.891 0.184116 -1.94028 0
M  V30 1554 H 148.987 1.4815 -2.74696 0
M  V30 1555 N 149.288 1.51039 0.449983 0
M  V30 1556 C 150.699 1.557 1.03026 0
M  V30 1557 C 151.05 0.372939 1.92623 0
M  V30 1558 O 150.175 -0.511771 2.10261 0
M  V30 1559 C 150.77 2.82171 1.87523 0
M  V30 1560 C 149.329 2.89444 2.40622 0
M  V30 1561 C 148.476 2.50228 1.19504 0
M  V30 1562 H 151.427 1.56999 0.231745 0
M  V30 1563 H 151.448 2.65219 2.72835 0
M  V30 1564 H 150.96 3.68331 1.22286 0
M  V30 1565 H 149.061 2.07685 3.0935 0
M  V30 1566 H 149.174 3.92816 2.74285 0
M  V30 1567 H 147.538 2.03139 1.53644 0
M  V30 1568 H 148.321 3.38719 0.558972 0
M  V30 1569 N 150.766 -0.704594 1.40972 0
M  V30 1570 C 152.014 -1.46169 1.39568 0
M  V30 1571 C 152.335 -1.95 0.00253745 0
M  V30 1572 O 151.605 -1.71095 -0.954114 0
M  V30 1573 H 150.185 -0.542326 0.513704 0
M  V30 1574 H 152.847 -0.834553 1.76128 0
M  V30 1575 H 151.943 -2.32922 2.07735 0
M  V30 1576 N 152.244 -1.26651 -0.937939 0
M  V30 1577 C 153.191 -1.0849 -2.03712 0
M  V30 1578 C 154.161 0.011033 -1.66096 0
M  V30 1579 O 155.346 -0.149353 -1.90215 0
M  V30 1580 C 152.486 -0.72735 -3.37348 0
M  V30 1581 C 151.599 -1.89986 -3.87981 0
M  V30 1582 C 150.734 -1.48513 -5.10017 0
M  V30 1583 C 149.773 -2.62575 -5.5292 0
M  V30 1584 N 148.91 -2.21762 -6.66158 0
M  V30 1585 H 153.75 -2.02551 -2.18579 0
M  V30 1586 H 151.287 -1.00844 -1.07093 0
M  V30 1587 H 153.245 -0.50092 -4.14182 0
M  V30 1588 H 151.875 0.176298 -3.22318 0
M  V30 1589 H 150.927 -2.23913 -3.07518 0
M  V30 1590 H 152.239 -2.75586 -4.15757 0
M  V30 1591 H 151.393 -1.21934 -5.94321 0
M  V30 1592 H 150.132 -0.60009 -4.83994 0
M  V30 1593 H 149.137 -2.8988 -4.67172 0
M  V30 1594 H 150.362 -3.51685 -5.80943 0
M  V30 1595 H 148.308 -1.35696 -6.41812 0
M  V30 1596 H 148.225 -3.00903 -6.93537 0
M  V30 1597 H 149.493 -1.98403 -7.53828 0
M  V30 1598 N 153.722 1.14298 -1.08507 0
M  V30 1599 C 154.669 2.19414 -0.715965 0
M  V30 1600 C 155.639 1.63399 0.298326 0
M  V30 1601 O 156.824 1.89929 0.182101 0
M  V30 1602 C 153.964 3.44845 -0.132534 0
M  V30 1603 C 153.077 4.15007 -1.19973 0
M  V30 1604 C 152.212 5.28024 -0.580048 0
M  V30 1605 C 151.251 5.9002 -1.62921 0
M  V30 1606 N 150.388 6.94485 -1.03125 0
M  V30 1607 H 155.228 2.50336 -1.61666 0
M  V30 1608 H 152.765 1.2293 -0.807882 0
M  V30 1609 H 154.723 4.16601 0.223454 0
M  V30 1610 H 153.353 3.14403 0.731467 0
M  V30 1611 H 152.405 3.41629 -1.67313 0
M  V30 1612 H 153.717 4.57178 -1.99473 0
M  V30 1613 H 152.871 6.06455 -0.172364 0
M  V30 1614 H 151.61 4.87076 0.246603 0
M  V30 1615 H 150.615 5.10291 -2.04654 0
M  V30 1616 H 151.84 6.33042 -2.45835 0
M  V30 1617 H 149.786 6.55612 -0.225711 0
M  V30 1618 H 149.703 7.35148 -1.76334 0
M  V30 1619 H 150.971 7.7679 -0.649458 0
M  V30 1620 N 155.201 0.870884 1.31352 0
M  V30 1621 C 156.441 0.488783 1.9847 0
M  V30 1622 C 156.805 -0.941536 1.67329 0
M  V30 1623 O 158.006 -1.42903 2.27667 0
M  V30 1624 C 156.277 0.739688 3.49662 0
M  V30 1625 S 157.836 0.457582 4.36408 0
M  V30 1626 H 154.654 0.18242 0.6872 0
M  V30 1627 H 157.256 1.12711 1.59739 0
M  V30 1628 H 155.96 1.77944 3.69816 0
M  V30 1629 H 155.491 0.0883905 3.93301 0
M  V30 1630 H 157.506 -0.709752 4.91098 0
M  V30 1631 N 156.679 -1.44442 0.630414 0
M  V30 1632 C 158.095 -1.56832 0.295973 0
M  V30 1633 C 158.295 -1.61806 -1.20088 0
M  V30 1634 O 157.351 -1.5607 -1.9849 0
M  V30 1635 C 158.664 -2.84031 0.987264 0
M  V30 1636 C 160.212 -2.97742 0.96534 0
M  V30 1637 C 160.687 -4.27743 1.63708 0
M  V30 1638 N 162.178 -4.34555 1.60364 0
M  V30 1639 C 162.913 -5.33862 2.09234 0
M  V30 1640 N 162.409 -6.39578 2.66292 0
M  V30 1641 N 164.202 -5.25366 1.99867 0
M  V30 1642 H 156.353 -1.39457 1.60205 0
M  V30 1643 H 158.616 -0.668237 0.672431 0
M  V30 1644 H 158.322 -2.86338 2.04215 0
M  V30 1645 H 158.196 -3.73534 0.524588 0
M  V30 1646 H 160.583 -2.94989 -0.0810639 0
M  V30 1647 H 160.664 -2.09589 1.4665 0
M  V30 1648 H 160.308 -4.31255 2.68293 0
M  V30 1649 H 160.238 -5.14752 1.11076 0
M  V30 1650 H 162.729 -3.58772 1.18705 0
M  V30 1651 H 163.042 -7.11637 3.01317 0
M  V30 1652 H 161.387 -6.40265 2.70343 0
M  V30 1653 H 164.578 -4.41688 1.55013 0
M  V30 1654 H 164.751 -6.02606 2.38265 0
M  V30 1655 N 158.157 -0.370918 -1.53173 0
M  V30 1656 C 159.09 0.516727 -2.22273 0
M  V30 1657 C 160.068 1.07877 -1.21661 0
M  V30 1658 O 161.252 1.13389 -1.50583 0
M  V30 1659 C 158.379 1.71346 -2.92161 0
M  V30 1660 C 157.425 1.27838 -4.0689 0
M  V30 1661 S 158.258 0.275217 -5.34792 0
M  V30 1662 C 159.414 1.47816 -6.08195 0
M  V30 1663 H 159.647 -0.0701054 -2.97217 0
M  V30 1664 H 157.18 -0.155038 -1.5362 0
M  V30 1665 H 159.138 2.39988 -3.3304 0
M  V30 1666 H 157.799 2.27156 -2.16931 0
M  V30 1667 H 156.992 2.17141 -4.54825 0
M  V30 1668 H 156.594 0.671105 -3.6793 0
M  V30 1669 H 158.886 2.40831 -6.33251 0
M  V30 1670 H 159.829 1.04008 -7.0042 0
M  V30 1671 H 160.237 1.68663 -5.38714 0
M  V30 1672 N 159.635 1.57281 -0.100228 0
M  V30 1673 C 160.583 2.15542 0.874328 0
M  V30 1674 C 161.577 1.09962 1.28859 0
M  V30 1675 O 162.783 1.28298 1.26252 0
M  V30 1676 H 159.158 0.689567 0.300003 0
M  V30 1677 H 161.129 2.96241 0.35829 0
M  V30 1678 C 159.878 2.75454 2.1218 0
M  V30 1679 H 159.201 3.56384 1.81193 0
M  V30 1680 H 160.641 3.19781 2.78417 0
M  V30 1681 C 159.1 1.71602 2.89921 0
M  V30 1682 O 159.63 1.15804 3.84646 0
M  V30 1683 N 157.836 1.41975 2.53558 0
M  V30 1684 H 157.383 1.87539 1.76598 0
M  V30 1685 H 157.341 0.727274 3.05873 0
M  V30 1686 N 161.113 -0.173488 1.56642 0
M  V30 1687 C 162.06 -1.21482 1.96242 0
M  V30 1688 C 163.03 -1.44104 0.826027 0
M  V30 1689 O 164.215 -1.5688 1.08597 0
M  V30 1690 C 161.355 -2.54964 2.32567 0
M  V30 1691 C 160.468 -2.39739 3.59373 0
M  V30 1692 C 159.603 -3.66072 3.84921 0
M  V30 1693 C 158.642 -3.45771 5.05083 0
M  V30 1694 N 157.779 -4.64169 5.26775 0
M  V30 1695 H 162.619 -0.870123 2.85014 0
M  V30 1696 H 160.156 -0.418245 1.41029 0
M  V30 1697 H 162.114 -3.32758 2.5165 0
M  V30 1698 H 160.744 -2.87433 1.46908 0
M  V30 1699 H 159.796 -1.53131 3.48217 0
M  V30 1700 H 161.108 -2.20683 4.47326 0
M  V30 1701 H 160.262 -4.52303 4.0436 0
M  V30 1702 H 159.001 -3.88105 2.9534 0
M  V30 1703 H 158.006 -2.57927 4.85545 0
M  V30 1704 H 159.231 -3.25163 5.96193 0
M  V30 1705 H 157.177 -4.86425 4.40144 0
M  V30 1706 H 157.094 -4.48019 6.08946 0
M  V30 1707 H 158.362 -5.51689 5.5069 0
M  V30 1708 N 162.591 -1.51276 -0.441967 0
M  V30 1709 C 163.538 -1.72256 -1.53612 0
M  V30 1710 C 164.508 -0.564164 -1.56225 0
M  V30 1711 O 165.693 -0.798074 -1.73307 0
M  V30 1712 C 162.833 -1.84932 -2.91366 0
M  V30 1713 C 161.946 -3.12459 -2.98317 0
M  V30 1714 C 161.081 -3.15758 -4.27166 0
M  V30 1715 C 160.12 -4.37619 -4.27967 0
M  V30 1716 N 159.257 -4.38493 -5.48333 0
M  V30 1717 H 164.097 -2.65654 -1.35026 0
M  V30 1718 H 161.634 -1.31662 -0.656009 0
M  V30 1719 H 163.592 -1.90263 -3.7129 0
M  V30 1720 H 162.222 -0.949461 -3.08521 0
M  V30 1721 H 161.274 -3.1646 -2.11086 0
M  V30 1722 H 162.586 -4.02382 -2.94771 0
M  V30 1723 H 161.74 -3.19979 -5.15459 0
M  V30 1724 H 160.479 -2.23715 -4.33362 0
M  V30 1725 H 159.484 -4.33579 -3.38067 0
M  V30 1726 H 160.709 -5.30921 -4.23438 0
M  V30 1727 H 158.655 -3.49318 -5.55259 0
M  V30 1728 H 158.572 -5.22219 -5.46647 0
M  V30 1729 H 159.84 -4.469 -6.38671 0
M  V30 1730 N 164.069 0.697108 -1.41344 0
M  V30 1731 C 165.017 1.83237 -1.43272 0
M  V30 1732 C 166.011 1.66522 -0.310947 0
M  V30 1733 O 167.217 1.73402 -0.482899 0
M  V30 1734 H 163.592 0.603802 -0.448249 0
M  V30 1735 H 165.563 1.78727 -2.38954 0
M  V30 1736 C 164.312 3.21245 -1.33029 0
M  V30 1737 H 163.635 3.34723 -2.18633 0
M  V30 1738 H 165.075 4.00763 -1.38439 0
M  V30 1739 C 163.534 3.36873 -0.0424635 0
M  V30 1740 O 164.064 3.91177 0.913421 0
M  V30 1741 N 162.27 2.90581 0.0331145 0
M  V30 1742 H 161.817 2.46577 -0.745506 0
M  V30 1743 H 161.775 3.01416 0.894199 0
M  V30 1744 N 165.547 1.27147 0.931209 0
M  V30 1745 C 166.494 1.09568 2.03134 0
M  V30 1746 C 167.464 -0.00222433 1.661 0
M  V30 1747 O 168.649 0.159439 1.90133 0
M  V30 1748 C 165.789 0.745231 3.36957 0
M  V30 1749 C 164.902 1.92041 3.86968 0
M  V30 1750 C 164.037 1.51216 5.09222 0
M  V30 1751 C 163.076 2.65504 5.5152 0
M  V30 1752 N 162.213 2.25291 6.64972 0
M  V30 1753 H 167.053 2.03708 2.17502 0
M  V30 1754 H 164.59 1.01411 1.06556 0
M  V30 1755 H 166.548 0.522878 4.1391 0
M  V30 1756 H 165.178 -0.159202 3.22407 0
M  V30 1757 H 164.23 2.25541 3.06326 0
M  V30 1758 H 165.542 2.77787 4.1429 0
M  V30 1759 H 164.696 1.25084 5.93666 0
M  V30 1760 H 163.435 0.625749 4.83669 0
M  V30 1761 H 162.44 2.92354 4.65628 0
M  V30 1762 H 163.665 3.54761 5.7907 0
M  V30 1763 H 161.611 1.39098 6.41083 0
M  V30 1764 H 161.528 3.04577 6.91931 0
M  V30 1765 H 162.796 2.02398 7.52765 0
M  V30 1766 N 167.025 -1.13721 1.09112 0
M  V30 1767 C 168.436 -1.6648 0.845068 0
M  V30 1768 C 168.787 -1.85911 -0.62701 0
M  V30 1769 O 167.912 -1.57556 -1.48341 0
M  V30 1770 C 168.507 -3.02413 1.52748 0
M  V30 1771 C 167.066 -3.52176 1.32849 0
M  V30 1772 C 166.213 -2.27492 1.58564 0
M  V30 1773 H 169.164 -0.976872 1.25072 0
M  V30 1774 H 169.185 -3.68223 0.958752 0
M  V30 1775 H 168.697 -2.88238 2.59885 0
M  V30 1776 H 166.798 -3.7156 0.278137 0
M  V30 1777 H 166.911 -4.32499 2.0611 0
M  V30 1778 H 165.275 -2.33923 1.00758 0
M  V30 1779 H 166.058 -2.15886 2.66924 0
M  V30 1780 N 168.503 -0.877838 -1.30888 0
M  V30 1781 C 169.919 -0.570844 -1.49042 0
M  V30 1782 C 170.119 0.893159 -1.80624 0
M  V30 1783 O 169.175 1.67485 -1.88958 0
M  V30 1784 C 170.488 -1.47784 -2.61878 0
M  V30 1785 C 172.036 -1.48071 -2.75761 0
M  V30 1786 C 172.511 -2.37347 -3.91702 0
M  V30 1787 N 174.002 -2.35271 -3.99001 0
M  V30 1788 C 174.737 -3.01063 -4.88004 0
M  V30 1789 N 174.233 -3.76055 -5.81854 0
M  V30 1790 N 176.026 -2.90332 -4.81315 0
M  V30 1791 H 168.177 -1.82502 -1.0866 0
M  V30 1792 H 170.44 -0.780797 -0.537644 0
M  V30 1793 H 170.146 -2.51993 -2.45341 0
M  V30 1794 H 170.02 -1.18215 -3.58197 0
M  V30 1795 H 172.407 -0.446166 -2.91708 0
M  V30 1796 H 172.488 -1.81668 -1.80085 0
M  V30 1797 H 172.132 -3.40883 -3.76512 0
M  V30 1798 H 172.062 -2.01071 -4.86701 0
M  V30 1799 H 174.553 -1.80768 -3.3186 0
M  V30 1800 H 174.866 -4.23366 -6.46514 0
M  V30 1801 H 173.211 -3.80163 -5.81808 0
M  V30 1802 H 176.402 -2.31278 -4.06974 0
M  V30 1803 H 176.575 -3.41885 -5.50471 0
M  V30 1804 N 169.982 1.44106 -0.638065 0
M  V30 1805 C 171.222 2.03858 -0.148733 0
M  V30 1806 C 171.586 1.49153 1.20903 0
M  V30 1807 O 172.787 2.00452 1.79088 0
M  V30 1808 C 171.058 3.57117 -0.142314 0
M  V30 1809 S 172.617 4.37897 0.281385 0
M  V30 1810 H 169.435 0.708069 -0.0644912 0
M  V30 1811 H 172.037 1.7639 -0.843009 0
M  V30 1812 H 170.741 3.94436 -1.13349 0
M  V30 1813 H 170.272 3.89205 0.572988 0
M  V30 1814 H 172.287 4.72218 1.52395 0
M  V30 1815 N 171.46 0.379036 1.52974 0
M  V30 1816 C 172.706 -0.206727 2.01744 0
M  V30 1817 C 173.039 -1.47314 1.26539 0
M  V30 1818 O 172.314 -1.91084 0.362903 0
M  V30 1819 C 172.597 -0.485066 3.56818 0
M  V30 1820 C 172.45 0.795919 4.42702 0
M  V30 1821 C 173.769 -1.28003 4.21074 0
M  V30 1822 H 170.888 -0.0736607 0.73331 0
M  V30 1823 H 173.53 0.506581 1.83122 0
M  V30 1824 H 171.68 -1.09272 3.72816 0
M  V30 1825 H 173.352 1.43307 4.38476 0
M  V30 1826 H 171.595 1.41344 4.10127 0
M  V30 1827 H 172.266 0.555947 5.49193 0
M  V30 1828 H 174.742 -0.765867 4.08991 0
M  V30 1829 H 173.618 -1.44352 5.29579 0
M  V30 1830 H 173.879 -2.29236 3.78026 0
M  V30 1831 N 172.938 -1.57226 0.108567 0
M  V30 1832 C 174.178 -1.96717 -0.555155 0
M  V30 1833 C 174.542 -0.990003 -1.64508 0
M  V30 1834 O 175.743 -1.2739 -2.36696 0
M  V30 1835 C 174.014 -3.40575 -1.08367 0
M  V30 1836 S 175.573 -4.02072 -1.75737 0
M  V30 1837 H 172.391 -0.687638 -0.180762 0
M  V30 1838 H 174.993 -1.94563 0.191172 0
M  V30 1839 H 173.697 -4.0945 -0.279092 0
M  V30 1840 H 173.228 -3.46356 -1.86551 0
M  V30 1841 H 175.243 -3.91977 -3.04251 0
M  V30 1842 N 174.416 0.165178 -1.56732 0
M  V30 1843 C 175.379 1.18822 -1.95995 0
M  V30 1844 C 176.379 1.3685 -0.84431 0
M  V30 1845 O 177.569 1.34152 -1.11126 0
M  V30 1846 C 174.701 2.5521 -2.26011 0
M  V30 1847 H 175.894 0.851825 -2.87548 0
M  V30 1848 H 173.447 0.407857 -1.50885 0
M  V30 1849 H 174.182 2.93852 -1.37191 0
M  V30 1850 H 173.967 2.43489 -3.07336 0
M  V30 1851 H 175.457 3.28927 -2.57288 0
M  V30 1852 N 175.894 1.51508 0.433938 0
M  V30 1853 C 177.305 1.56784 1.01369 0
M  V30 1854 C 177.656 0.393349 1.92217 0
M  V30 1855 O 176.781 -0.489441 2.10792 0
M  V30 1856 C 177.376 2.84144 1.8452 0
M  V30 1857 C 175.935 2.9198 2.37539 0
M  V30 1858 C 175.082 2.51482 1.16843 0
M  V30 1859 H 178.033 1.57236 0.215081 0
M  V30 1860 H 178.054 2.68098 2.70007 0
M  V30 1861 H 177.566 3.69607 1.18373 0
M  V30 1862 H 175.667 2.10955 3.0713 0
M  V30 1863 H 175.78 3.95704 2.70103 0
M  V30 1864 H 174.144 2.04758 1.51481 0
M  V30 1865 H 174.927 3.39293 0.523015 0
M  V30 1866 N 177.372 -0.689602 1.41712 0
M  V30 1867 C 178.649 -1.44457 1.31877 0
M  V30 1868 C 179.029 -2.11039 -0.0508537 0
M  V30 1869 O 178.377 -2.02138 -1.06547 0
M  V30 1870 C 178.587 -2.45913 2.47645 0
M  V30 1871 C 179.935 -3.10991 2.89084 0
M  V30 1872 O 180.959 -2.56238 2.47428 0
M  V30 1873 O 179.818 -4.10174 3.61137 0
M  V30 1874 H 176.912 -0.64362 0.519309 0
M  V30 1875 H 179.458 -0.719576 1.53689 0
M  V30 1876 H 178.23 -1.95409 3.39015 0
M  V30 1877 H 177.853 -3.25913 2.27742 0
M  V30 1878 N 178.85 -1.27639 -0.924453 0
M  V30 1879 C 180.09 -1.15407 -1.68703 0
M  V30 1880 C 180.454 0.294581 -1.89727 0
M  V30 1881 O 181.655 0.539385 -2.63333 0
M  V30 1882 C 179.926 -1.9195 -3.0148 0
M  V30 1883 S 181.485 -1.95969 -3.92609 0
M  V30 1884 H 178.303 -0.411937 -0.579507 0
M  V30 1885 H 180.905 -1.61592 -1.10038 0
M  V30 1886 H 179.609 -2.96387 -2.83871 0
M  V30 1887 H 179.14 -1.46272 -3.65196 0
M  V30 1888 H 181.155 -1.05846 -4.84779 0
M  V30 1889 N 180.328 1.1314 -1.09713 0
M  V30 1890 C 181.553 1.88862 -0.857081 0
M  V30 1891 C 181.978 1.78729 0.586304 0
M  V30 1892 O 181.336 1.13692 1.41222 0
M  V30 1893 C 181.384 3.36325 -1.30069 0
M  V30 1894 O 180.488 4.09815 -0.461007 0
M  V30 1895 H 179.829 0.587108 -0.310162 0
M  V30 1896 H 182.359 1.43129 -1.46203 0
M  V30 1897 H 182.369 3.87157 -1.28738 0
M  V30 1898 H 181.044 3.43017 -2.35185 0
M  V30 1899 H 179.621 3.68986 -0.538888 0
M  V30 1900 N 181.806 0.884767 1.30421 0
M  V30 1901 C 182.754 0.340869 2.30089 0
M  V30 1902 C 183.748 -0.55201 1.60154 0
M  V30 1903 O 184.954 -0.436467 1.74628 0
M  V30 1904 H 181.329 0.0915739 0.746404 0
M  V30 1905 H 183.3 1.19513 2.73421 0
M  V30 1906 C 182.049 -0.429779 3.45034 0
M  V30 1907 H 181.372 0.248024 3.9903 0
M  V30 1908 H 182.812 -0.775445 4.16849 0
M  V30 1909 C 181.271 -1.62677 2.95022 0
M  V30 1910 O 181.801 -2.72614 2.95033 0
M  V30 1911 N 180.007 -1.46387 2.51036 0
M  V30 1912 H 179.554 -0.569506 2.51226 0
M  V30 1913 H 179.512 -2.26612 2.17932 0
M  V30 1914 N 183.284 -1.43765 0.645699 0
M  V30 1915 C 184.533 -2.01116 0.153412 0
M  V30 1916 C 184.846 -1.51493 -1.23731 0
M  V30 1917 O 186.052 -2.01067 -1.8244 0
M  V30 1918 C 184.508 -3.59206 0.223473 0
M  V30 1919 C 184.116 -4.17823 1.61642 0
M  V30 1920 C 185.86 -4.23972 -0.211597 0
M  V30 1921 C 183.767 -5.68183 1.64081 0
M  V30 1922 H 182.697 -0.752093 0.0535891 0
M  V30 1923 H 185.348 -1.6482 0.806633 0
M  V30 1924 H 183.73 -3.92867 -0.497118 0
M  V30 1925 H 184.904 -3.95674 2.36176 0
M  V30 1926 H 183.219 -3.65399 1.99681 0
M  V30 1927 H 185.816 -5.34275 -0.213112 0
M  V30 1928 H 186.159 -3.97352 -1.24165 0
M  V30 1929 H 186.692 -3.95166 0.456988 0
M  V30 1930 H 183.431 -5.99559 2.64971 0
M  V30 1931 H 182.951 -5.9241 0.938611 0
M  V30 1932 H 184.63 -6.32085 1.3812 0
M  V30 1933 N 184.763 -0.387143 -1.52771 0
M  V30 1934 C 185.991 0.195869 -2.05971 0
M  V30 1935 C 186.406 1.40691 -1.25903 0
M  V30 1936 O 185.763 1.79931 -0.305134 0
M  V30 1937 C 185.814 0.56812 -3.57008 0
M  V30 1938 O 185.535 -0.594803 -4.34043 0
M  V30 1939 C 187.036 1.20723 -4.26545 0
M  V30 1940 H 184.256 0.0300578 -0.670326 0
M  V30 1941 H 186.8 -0.551749 -1.96916 0
M  V30 1942 H 184.955 1.26564 -3.66143 0
M  V30 1943 H 185.369 -0.289322 -5.23701 0
M  V30 1944 H 186.843 1.41807 -5.33474 0
M  V30 1945 H 187.32 2.17395 -3.81623 0
M  V30 1946 H 187.926 0.550535 -4.21722 0
M  V30 1947 N 186.241 1.57166 -0.116904 0
M  V30 1948 C 187.487 1.96206 0.536166 0
M  V30 1949 C 187.842 0.99915 1.64422 0
M  V30 1950 O 187.135 0.0288195 1.91578 0
M  V30 1951 C 187.329 3.39508 1.11664 0
M  V30 1952 C 187.158 4.49651 0.0663474 0
M  V30 1953 C 185.928 5.03982 -0.36474 0
M  V30 1954 C 188.126 5.09322 -0.713829 0
M  V30 1955 N 186.108 5.97699 -1.40102 0
M  V30 1956 C 187.479 5.98963 -1.60136 0
M  V30 1957 C 189.534 4.91989 -0.764948 0
M  V30 1958 C 188.237 6.73128 -2.53556 0
M  V30 1959 C 190.263 5.66833 -1.68685 0
M  V30 1960 C 189.625 6.56158 -2.56196 0
M  V30 1961 H 185.724 0.764203 0.165886 0
M  V30 1962 H 188.308 1.93623 -0.204535 0
M  V30 1963 H 186.479 3.42743 1.82707 0
M  V30 1964 H 188.211 3.65677 1.73386 0
M  V30 1965 H 184.966 4.73592 0.027252 0
M  V30 1966 H 185.39 6.49262 -1.91802 0
M  V30 1967 H 190.032 4.22676 -0.102501 0
M  V30 1968 H 187.75 7.41689 -3.20816 0
M  V30 1969 H 191.336 5.55427 -1.73181 0
M  V30 1970 H 190.216 7.13057 -3.26372 0
M  V30 1971 N 187.719 -0.156864 1.56817 0
M  V30 1972 C 188.666 -1.19394 1.97519 0
M  V30 1973 C 189.636 -1.4322 0.841265 0
M  V30 1974 O 190.821 -1.55719 1.10255 0
M  V30 1975 C 187.961 -2.52483 2.35258 0
M  V30 1976 C 187.074 -2.35914 3.61896 0
M  V30 1977 C 186.209 -3.61969 3.88782 0
M  V30 1978 C 185.248 -3.40395 5.08722 0
M  V30 1979 N 184.385 -4.58556 5.31668 0
M  V30 1980 H 189.225 -0.839845 2.85921 0
M  V30 1981 H 186.762 -0.403264 1.41464 0
M  V30 1982 H 188.72 -3.30071 2.55165 0
M  V30 1983 H 187.35 -2.85859 1.49949 0
M  V30 1984 H 186.402 -1.49429 3.49821 0
M  V30 1985 H 187.714 -2.15926 4.49641 0
M  V30 1986 H 186.868 -4.47989 4.09135 0
M  V30 1987 H 185.607 -3.84951 2.9944 0
M  V30 1988 H 184.612 -2.52763 4.88253 0
M  V30 1989 H 185.837 -3.18822 5.99608 0
M  V30 1990 H 183.783 -4.81729 4.45279 0
M  V30 1991 H 183.7 -4.41535 6.13664 0
M  V30 1992 H 184.968 -5.45817 5.5651 0
M  V30 1993 N 189.197 -1.51736 -0.425897 0
M  V30 1994 C 190.445 -1.64644 -1.17204 0
M  V30 1995 C 190.766 -0.370486 -1.91448 0
M  V30 1996 O 190.036 0.614088 -1.86026 0
M  V30 1997 H 188.616 -0.606819 -0.435638 0
M  V30 1998 H 191.278 -1.88713 -0.487177 0
M  V30 1999 H 190.374 -2.47958 -1.89534 0
M  V30 2000 N 190.675 0.682077 -1.42076 0
M  V30 2001 C 192.086 1.26246 -1.37546 0
M  V30 2002 C 192.437 1.96092 -0.0651481 0
M  V30 2003 O 191.562 1.99587 0.836297 0
M  V30 2004 C 192.157 2.29594 -2.49143 0
M  V30 2005 C 190.716 2.83175 -2.47969 0
M  V30 2006 C 189.863 1.57395 -2.28303 0
M  V30 2007 H 192.814 0.475937 -1.51395 0
M  V30 2008 H 192.835 3.11175 -2.18976 0
M  V30 2009 H 192.347 1.78729 -3.44496 0
M  V30 2010 H 190.448 3.3818 -1.56413 0
M  V30 2011 H 190.561 3.32687 -3.44755 0
M  V30 2012 H 188.925 1.83699 -1.76428 0
M  V30 2013 H 189.708 1.08507 -3.25701 0
M  V30 2014 N 192.153 1.28127 0.917671 0
M  V30 2015 C 193.399 1.15223 1.66888 0
M  V30 2016 C 193.732 -0.299293 1.9188 0
M  V30 2017 O 193.007 -1.21805 1.51637 0
M  V30 2018 C 193.29 1.94706 3.02922 0
M  V30 2019 C 193.143 3.47898 2.85109 0
M  V30 2020 C 194.462 1.75939 4.03402 0
M  V30 2021 H 191.581 0.419946 0.605652 0
M  V30 2022 H 194.223 1.57398 1.06423 0
M  V30 2023 H 192.373 1.58864 3.54534 0
M  V30 2024 H 194.045 3.93624 2.40537 0
M  V30 2025 H 192.288 3.7373 2.20246 0
M  V30 2026 H 192.959 3.98765 3.81694 0
M  V30 2027 H 195.435 2.07209 3.60837 0
M  V30 2028 H 194.311 2.33931 4.96556 0
M  V30 2029 H 194.572 0.709877 4.36364 0
M  V30 2030 N 193.631 -1.12557 1.10312 0
M  V30 2031 C 194.871 -1.8568 0.854543 0
M  V30 2032 C 195.235 -1.82091 -0.608843 0
M  V30 2033 O 196.436 -2.50544 -0.973717 0
M  V30 2034 C 194.707 -3.2942 1.38626 0
M  V30 2035 S 196.266 -4.19931 1.27293 0
M  V30 2036 H 193.084 -0.640427 0.308827 0
M  V30 2037 H 195.686 -1.35599 1.40831 0
M  V30 2038 H 194.39 -3.2959 2.44537 0
M  V30 2039 H 193.921 -3.84566 0.82902 0
M  V30 2040 H 195.936 -4.95668 0.229776 0
M  V30 2041 N 195.109 -0.891671 -1.2995 0
M  V30 2042 C 196.357 -0.512486 -1.95494 0
M  V30 2043 C 196.678 0.942776 -1.70695 0
M  V30 2044 O 195.948 1.66374 -1.03424 0
M  V30 2045 H 194.528 -0.186533 -0.723336 0
M  V30 2046 H 197.19 -1.13621 -1.58355 0
M  V30 2047 H 196.286 -0.688342 -3.04415 0
M  V30 2048 N 196.587 1.43421 -0.653314 0
M  V30 2049 C 197.517 2.33487 0.0246656 0
M  V30 2050 C 198.498 1.49475 0.811863 0
M  V30 2051 O 199.683 1.78139 0.773322 0
M  V30 2052 C 196.813 3.32841 0.99166 0
M  V30 2053 C 195.767 4.26842 0.314568 0
M  V30 2054 C 195.093 5.16236 1.39302 0
M  V30 2055 C 196.393 5.16243 -0.793095 0
M  V30 2056 H 198.087 2.90427 -0.727481 0
M  V30 2057 H 195.633 1.39649 -0.351287 0
M  V30 2058 H 197.586 3.94747 1.47487 0
M  V30 2059 H 196.31 2.74158 1.77497 0
M  V30 2060 H 194.969 3.663 -0.148199 0
M  V30 2061 H 194.617 4.53891 2.16776 0
M  V30 2062 H 194.317 5.79948 0.945223 0
M  V30 2063 H 195.841 5.81015 1.87759 0
M  V30 2064 H 197.255 5.71958 -0.392039 0
M  V30 2065 H 195.652 5.88676 -1.16536 0
M  V30 2066 H 196.722 4.55927 -1.65103 0
M  V30 2067 N 198.065 0.39524 1.52563 0
M  V30 2068 C 199.342 -0.242908 1.94086 0
M  V30 2069 C 199.722 -1.63841 1.33114 0
M  V30 2070 O 199.07 -2.22928 0.501529 0
M  V30 2071 C 199.28 -0.26327 3.48006 0
M  V30 2072 C 200.628 -0.489354 4.21771 0
M  V30 2073 O 201.652 -0.343226 3.54543 0
M  V30 2074 O 200.511 -0.776169 5.4096 0
M  V30 2075 H 197.605 -0.152536 0.812811 0
M  V30 2076 H 200.151 0.450178 1.6362 0
M  V30 2077 H 198.923 0.713985 3.84731 0
M  V30 2078 H 198.546 -1.00103 3.84792 0
M  V30 2079 N 199.544 -1.57102 0.125237 0
M  V30 2080 C 200.792 -1.95021 -0.530198 0
M  V30 2081 C 201.113 -1.00982 -1.66816 0
M  V30 2082 O 200.383 -0.0672693 -1.95784 0
M  V30 2083 H 198.963 -0.720046 -0.198853 0
M  V30 2084 H 201.625 -1.93916 0.19564 0
M  V30 2085 H 200.721 -2.98211 -0.920681 0
M  V30 2086 N 201.022 0.148545 -1.56898 0
M  V30 2087 C 201.969 1.18345 -1.98149 0
M  V30 2088 C 202.939 1.42772 -0.848848 0
M  V30 2089 O 204.124 1.55132 -1.11079 0
M  V30 2090 C 201.264 2.51231 -2.36594 0
M  V30 2091 C 200.377 2.33991 -3.63142 0
M  V30 2092 C 199.512 3.59902 -3.90697 0
M  V30 2093 C 198.551 3.37692 -5.1052 0
M  V30 2094 N 197.688 4.5573 -5.34092 0
M  V30 2095 H 202.528 0.82467 -2.86362 0
M  V30 2096 H 200.065 0.395756 -1.41676 0
M  V30 2097 H 202.023 3.28713 -2.56912 0
M  V30 2098 H 200.653 2.85059 -1.51463 0
M  V30 2099 H 199.705 1.47572 -3.50609 0
M  V30 2100 H 201.017 2.13539 -4.5078 0
M  V30 2101 H 200.171 4.45813 -4.11505 0
M  V30 2102 H 198.91 3.83357 -3.01477 0
M  V30 2103 H 197.915 2.5017 -4.89587 0
M  V30 2104 H 199.14 3.15637 -6.0129 0
M  V30 2105 H 197.086 4.79361 -4.47827 0
M  V30 2106 H 197.003 4.38274 -6.15996 0
M  V30 2107 H 198.271 5.42858 -5.59397 0
M  V30 2108 N 202.5 1.5196 0.417844 0
M  V30 2109 C 203.728 1.69426 1.18753 0
M  V30 2110 C 204.143 0.399955 1.84515 0
M  V30 2111 O 203.5 -0.623288 1.71527 0
M  V30 2112 C 203.551 2.82375 2.25714 0
M  V30 2113 O 203.272 4.06793 1.62638 0
M  V30 2114 C 204.773 3.11277 3.15628 0
M  V30 2115 H 201.993 0.568031 0.357186 0
M  V30 2116 H 204.537 1.98475 0.49273 0
M  V30 2117 H 202.692 2.5587 2.90877 0
M  V30 2118 H 203.106 4.69667 2.3348 0
M  V30 2119 H 204.58 3.93843 3.86771 0
M  V30 2120 H 205.057 2.24473 3.77503 0
M  V30 2121 H 205.663 3.39515 2.56144 0
M  V30 2122 N 203.978 -0.674533 1.42435 0
M  V30 2123 C 205.208 -1.46071 1.46105 0
M  V30 2124 C 205.616 -1.89067 0.0709605 0
M  V30 2125 O 204.959 -1.58731 -0.924677 0
M  V30 2126 C 205.021 -2.74145 2.32561 0
M  V30 2127 C 204.685 -2.53224 3.8043 0
M  V30 2128 C 205.682 -2.17809 4.72075 0
M  V30 2129 C 203.367 -2.6821 4.24698 0
M  V30 2130 C 205.361 -1.97648 6.05982 0
M  V30 2131 C 203.048 -2.47665 5.58664 0
M  V30 2132 C 204.046 -2.12437 6.49122 0
M  V30 2133 O 203.734 -1.9209 7.80613 0
M  V30 2134 H 203.466 -0.455959 0.499076 0
M  V30 2135 H 206.02 -0.836193 1.87609 0
M  V30 2136 H 204.25 -3.3908 1.85908 0
M  V30 2137 H 205.939 -3.36028 2.27683 0
M  V30 2138 H 206.705 -2.05826 4.39159 0
M  V30 2139 H 202.584 -2.94609 3.54579 0
M  V30 2140 H 206.128 -1.70075 6.7655 0
M  V30 2141 H 202.025 -2.59244 5.91154 0
M  V30 2142 H 202.793 -2.06686 7.91974 0
M  V30 2143 N 205.456 -1.28612 -0.910864 0
M  V30 2144 C 206.872 -1.06381 -1.18976 0
M  V30 2145 C 207.072 0.191998 -2.00583 0
M  V30 2146 O 206.128 0.892869 -2.36187 0
M  V30 2147 C 207.441 -2.31295 -1.92154 0
M  V30 2148 C 208.989 -2.36503 -2.05025 0
M  V30 2149 C 209.464 -3.61191 -2.81612 0
M  V30 2150 N 210.955 -3.61847 -2.89172 0
M  V30 2151 C 211.69 -4.55004 -3.4894 0
M  V30 2152 N 211.186 -5.58482 -4.09963 0
M  V30 2153 N 212.979 -4.42594 -3.46506 0
M  V30 2154 H 205.13 -2.09221 -0.366094 0
M  V30 2155 H 207.393 -0.921003 -0.224629 0
M  V30 2156 H 207.099 -3.228 -1.39618 0
M  V30 2157 H 206.973 -2.37934 -2.9269 0
M  V30 2158 H 209.36 -1.45494 -2.5674 0
M  V30 2159 H 209.441 -2.33857 -1.03657 0
M  V30 2160 H 209.085 -4.52545 -2.30576 0
M  V30 2161 H 209.015 -3.61092 -3.83302 0
M  V30 2162 H 211.506 -2.87022 -2.45819 0
M  V30 2163 H 211.819 -6.25704 -4.53557 0
M  V30 2164 H 210.164 -5.62305 -4.08459 0
M  V30 2165 H 213.355 -3.60953 -2.98045 0
M  V30 2166 H 213.528 -5.15381 -3.92793 0
M  V30 2167 N 206.934 1.1197 -1.10907 0
M  V30 2168 C 207.882 2.19927 -0.757303 0
M  V30 2169 C 208.876 1.67564 0.248747 0
M  V30 2170 O 210.082 1.79672 0.108605 0
M  V30 2171 H 206.457 0.716925 -0.226987 0
M  V30 2172 H 208.428 2.46847 -1.67658 0
M  V30 2173 C 207.177 3.47061 -0.210671 0
M  V30 2174 H 206.5 3.87703 -0.976049 0
M  V30 2175 H 207.94 4.24 -0.0026584 0
M  V30 2176 C 206.399 3.19864 1.05777 0
M  V30 2177 O 206.929 3.40049 2.13845 0
M  V30 2178 N 205.135 2.73636 0.978349 0
M  V30 2179 H 204.682 2.5741 0.0988246 0
M  V30 2180 H 204.64 2.55815 1.82773 0
M  V30 2181 N 208.412 0.89855 1.29475 0
M  V30 2182 C 209.322 0.379974 2.31502 0
M  V30 2183 C 210.338 -0.524695 1.659 0
M  V30 2184 O 211.514 -0.414551 1.97087 0
M  V30 2185 C 208.579 -0.385138 3.44554 0
M  V30 2186 C 207.64 0.550914 4.2575 0
M  V30 2187 C 206.873 -0.177778 5.33404 0
M  V30 2188 O 207.096 -1.40189 5.52904 0
M  V30 2189 O 206.03 0.479106 5.9999 0
M  V30 2190 H 209.856 1.22639 2.77837 0
M  V30 2191 H 207.441 0.662834 1.33891 0
M  V30 2192 H 209.323 -0.817841 4.13388 0
M  V30 2193 H 207.998 -1.20763 3.0033 0
M  V30 2194 H 206.905 1.03271 3.59564 0
M  V30 2195 H 208.238 1.33979 4.73614 0
M  V30 2196 N 209.89 -1.43072 0.660911 0
M  V30 2197 C 211.13 -2.03596 0.181146 0
M  V30 2198 C 211.494 -1.51057 -1.18515 0
M  V30 2199 O 212.695 -2.03275 -1.75877 0
M  V30 2200 C 210.966 -3.56845 0.19911 0
M  V30 2201 S 212.525 -4.38289 -0.211684 0
M  V30 2202 H 209.343 -0.706954 0.0757479 0
M  V30 2203 H 211.945 -1.75027 0.870965 0
M  V30 2204 H 210.649 -3.92583 1.1961 0
M  V30 2205 H 210.18 -3.90067 -0.510996 0
M  V30 2206 H 212.195 -4.74583 -1.44863 0
M  V30 2207 N 211.368 -0.403325 -1.52352 0
M  V30 2208 C 212.331 0.413051 -2.25447 0
M  V30 2209 C 213.331 0.978513 -1.276 0
M  V30 2210 O 214.521 0.858305 -1.51587 0
M  V30 2211 C 211.653 1.58087 -3.02029 0
M  V30 2212 H 212.846 -0.227094 -2.99039 0
M  V30 2213 H 210.399 -0.155722 -1.55522 0
M  V30 2214 H 211.134 2.25804 -2.32772 0
M  V30 2215 H 210.919 1.18195 -3.73861 0
M  V30 2216 H 212.409 2.1585 -3.57489 0
M  V30 2217 N 212.846 1.57033 -0.133567 0
M  V30 2218 C 213.776 2.1909 0.807567 0
M  V30 2219 C 214.757 1.13517 1.26681 0
M  V30 2220 O 215.942 1.41809 1.32679 0
M  V30 2221 C 213.072 2.80188 2.05212 0
M  V30 2222 C 212.026 3.91471 1.73015 0
M  V30 2223 C 211.352 4.39443 3.04622 0
M  V30 2224 C 212.652 5.12886 0.987168 0
M  V30 2225 H 214.346 2.97988 0.290403 0
M  V30 2226 H 211.892 1.43335 0.138239 0
M  V30 2227 H 213.845 3.22264 2.71521 0
M  V30 2228 H 212.569 1.98601 2.59278 0
M  V30 2229 H 211.228 3.49993 1.0909 0
M  V30 2230 H 210.876 3.54695 3.56651 0
M  V30 2231 H 210.576 5.14495 2.83847 0
M  V30 2232 H 212.1 4.8418 3.72024 0
M  V30 2233 H 213.514 5.51891 1.55208 0
M  V30 2234 H 211.911 5.93615 0.87985 0
M  V30 2235 H 212.981 4.84894 -0.0235286 0
M  V30 2236 N 214.325 -0.140222 1.56975 0
M  V30 2237 C 215.255 -1.17456 2.01808 0
M  V30 2238 C 216.236 -1.44415 0.898794 0
M  V30 2239 O 217.421 -1.5522 1.16707 0
M  V30 2240 C 214.551 -2.50607 2.40444 0
M  V30 2241 C 213.505 -2.38155 3.55621 0
M  V30 2242 C 212.831 -3.76078 3.80091 0
M  V30 2243 C 214.131 -1.85991 4.88062 0
M  V30 2244 H 215.825 -0.801743 2.88466 0
M  V30 2245 H 213.371 -0.38422 1.38779 0
M  V30 2246 H 215.324 -3.23197 2.7041 0
M  V30 2247 H 214.048 -2.89737 1.50732 0
M  V30 2248 H 212.707 -1.68016 3.25832 0
M  V30 2249 H 212.355 -4.12656 2.87618 0
M  V30 2250 H 212.055 -3.68606 4.57606 0
M  V30 2251 H 213.579 -4.50206 4.12488 0
M  V30 2252 H 214.993 -2.4838 5.16701 0
M  V30 2253 H 213.39 -1.89393 5.6943 0
M  V30 2254 H 214.46 -0.816023 4.77984 0
M  V30 2255 N 215.803 -1.52179 -0.40978 0
M  V30 2256 C 216.75 -1.75475 -1.49924 0
M  V30 2257 C 217.72 -0.597175 -1.54994 0
M  V30 2258 O 218.905 -0.834655 -1.71575 0
M  V30 2259 C 216.045 -1.9107 -2.87378 0
M  V30 2260 C 215.158 -3.18717 -2.91622 0
M  V30 2261 C 214.293 -3.24747 -4.20372 0
M  V30 2262 C 213.332 -4.46598 -4.18588 0
M  V30 2263 N 212.469 -4.50025 -5.38908 0
M  V30 2264 H 217.309 -2.68458 -1.29361 0
M  V30 2265 H 214.846 -1.33024 -0.627934 0
M  V30 2266 H 216.804 -1.98096 -3.6717 0
M  V30 2267 H 215.434 -1.01469 -3.06437 0
M  V30 2268 H 214.486 -3.20866 -2.04326 0
M  V30 2269 H 215.798 -4.08544 -2.86169 0
M  V30 2270 H 214.952 -3.30841 -5.08556 0
M  V30 2271 H 213.691 -2.32857 -4.28519 0
M  V30 2272 H 212.696 -4.40652 -3.28794 0
M  V30 2273 H 213.921 -5.39783 -4.12081 0
M  V30 2274 H 211.867 -3.61017 -5.47725 0
M  V30 2275 H 211.784 -5.33697 -5.35447 0
M  V30 2276 H 213.052 -4.60347 -6.29048 0
M  V30 2277 N 217.281 0.66697 -1.42791 0
M  V30 2278 C 218.244 1.76211 -1.46568 0
M  V30 2279 C 219.244 1.56896 -0.352196 0
M  V30 2280 O 220.434 1.63044 -0.613364 0
M  V30 2281 C 217.566 3.14935 -1.30494 0
M  V30 2282 H 218.759 1.74247 -2.44086 0
M  V30 2283 H 216.312 0.877342 -1.29354 0
M  V30 2284 H 217.047 3.2252 -0.339301 0
M  V30 2285 H 216.832 3.30359 -2.11199 0
M  V30 2286 H 218.322 3.94821 -1.36038 0
M  V30 2287 N 218.759 1.29093 0.90403 0
M  V30 2288 C 220.175 1.07011 1.1841 0
M  V30 2289 C 220.375 -0.181358 2.00682 0
M  V30 2290 O 219.431 -0.880331 2.36657 0
M  V30 2291 C 220.744 2.32311 1.90924 0
M  V30 2292 C 222.292 2.37587 2.03768 0
M  V30 2293 C 222.767 3.62679 2.79693 0
M  V30 2294 N 224.258 3.63376 2.87249 0
M  V30 2295 C 224.993 4.56848 3.46522 0
M  V30 2296 N 224.489 5.60648 4.06996 0
M  V30 2297 N 226.282 4.44426 3.44154 0
M  V30 2298 H 218.433 2.09412 0.354993 0
M  V30 2299 H 220.696 0.922181 0.219742 0
M  V30 2300 H 220.402 3.23536 1.37905 0
M  V30 2301 H 220.276 2.39483 2.91424 0
M  V30 2302 H 222.663 1.46853 2.55965 0
M  V30 2303 H 222.744 2.34403 1.02415 0
M  V30 2304 H 222.388 4.53762 2.28173 0
M  V30 2305 H 222.318 3.63119 3.81381 0
M  V30 2306 H 224.809 2.88321 2.44293 0
M  V30 2307 H 225.122 6.28101 4.50232 0
M  V30 2308 H 223.467 5.64463 4.05471 0
M  V30 2309 H 226.658 3.62529 2.96126 0
M  V30 2310 H 226.831 5.17457 3.90054 0
M  V30 2311 N 220.237 -1.11381 1.11499 0
M  V30 2312 C 221.477 -1.84763 0.874188 0
M  V30 2313 C 221.841 -1.82726 -0.589496 0
M  V30 2314 O 223.042 -2.51562 -0.947089 0
M  V30 2315 C 221.313 -3.27931 1.42112 0
M  V30 2316 S 222.872 -4.18557 1.31739 0
M  V30 2317 H 219.69 -0.637115 0.315603 0
M  V30 2318 H 222.292 -1.34097 1.42261 0
M  V30 2319 H 220.996 -3.26978 2.48019 0
M  V30 2320 H 220.527 -3.83665 0.869761 0
M  V30 2321 H 222.542 -4.95396 0.282335 0
M  V30 2322 N 221.715 -0.905404 -1.28997 0
M  V30 2323 C 222.662 -0.385892 -2.27551 0
M  V30 2324 C 223.632 0.535113 -1.57244 0
M  V30 2325 O 224.817 0.459119 -1.85194 0
M  V30 2326 C 221.957 0.375461 -3.43051 0
M  V30 2327 C 221.07 -0.577092 -4.28128 0
M  V30 2328 C 220.205 0.201879 -5.30816 0
M  V30 2329 C 219.244 -0.744829 -6.07551 0
M  V30 2330 N 218.381 9.42587e-05 -7.021 0
M  V30 2331 H 223.221 -1.23139 -2.71368 0
M  V30 2332 H 220.758 -0.618542 -1.33463 0
M  V30 2333 H 222.716 0.832992 -4.088 0
M  V30 2334 H 221.346 1.18537 -3.00248 0
M  V30 2335 H 220.398 -1.15315 -3.62501 0
M  V30 2336 H 221.71 -1.30152 -4.8152 0
M  V30 2337 H 220.864 0.720351 -6.02408 0
M  V30 2338 H 219.603 0.959413 -4.7817 0
M  V30 2339 H 218.608 -1.27475 -5.34818 0
M  V30 2340 H 219.833 -1.50178 -6.62286 0
M  V30 2341 H 217.779 0.739791 -6.51815 0
M  V30 2342 H 217.696 -0.664321 -7.53076 0
M  V30 2343 H 218.964 0.498644 -7.77903 0
M  V30 2344 N 223.193 1.4272 -0.668489 0
M  V30 2345 C 224.103 2.34596 0.0139753 0
M  V30 2346 C 225.119 1.5474 0.795703 0
M  V30 2347 O 226.295 1.87334 0.739466 0
M  V30 2348 C 223.36 3.33202 0.957982 0
M  V30 2349 C 222.421 4.28957 0.17149 0
M  V30 2350 C 221.654 5.22853 1.07053 0
M  V30 2351 O 221.877 5.21531 2.31001 0
M  V30 2352 O 220.811 5.9952 0.534727 0
M  V30 2353 H 224.637 2.9448 -0.742661 0
M  V30 2354 H 222.222 1.43117 -0.428705 0
M  V30 2355 H 224.104 3.93796 1.50008 0
M  V30 2356 H 222.779 2.758 1.69458 0
M  V30 2357 H 221.686 3.71796 -0.414558 0
M  V30 2358 H 223.019 4.89383 -0.52586 0
M  V30 2359 N 224.671 0.411399 1.52136 0
M  V30 2360 C 225.603 -0.448386 2.24771 0
M  V30 2361 C 226.616 -1.00828 1.27818 0
M  V30 2362 O 227.805 -0.906841 1.53749 0
M  V30 2363 C 224.905 -1.63636 2.96777 0
M  V30 2364 C 224.078 -1.19995 4.20618 0
M  V30 2365 C 223.137 -2.25509 4.75428 0
M  V30 2366 O 222.163 -1.86007 5.3795 0
M  V30 2367 N 223.365 -3.577 4.57199 0
M  V30 2368 H 226.13 0.174025 2.99194 0
M  V30 2369 H 223.691 0.238897 1.60128 0
M  V30 2370 H 225.683 -2.33793 3.30338 0
M  V30 2371 H 224.253 -2.16465 2.25526 0
M  V30 2372 H 223.473 -0.326421 3.92846 0
M  V30 2373 H 224.761 -0.885365 5.01038 0
M  V30 2374 H 224.159 -3.92543 4.07341 0
M  V30 2375 H 222.716 -4.23827 4.95191 0
M  V30 2376 N 226.149 -1.5696 0.141893 0
M  V30 2377 C 227.56 -1.82797 -0.379776 0
M  V30 2378 C 227.911 -1.06033 -1.6508 0
M  V30 2379 O 227.036 -0.304011 -2.14254 0
M  V30 2380 C 227.631 -3.31578 -0.695802 0
M  V30 2381 C 226.19 -3.58014 -1.16201 0
M  V30 2382 C 225.337 -2.76699 -0.182455 0
M  V30 2383 H 228.288 -1.54406 0.366675 0
M  V30 2384 H 228.309 -3.47454 -1.55099 0
M  V30 2385 H 227.821 -3.87421 0.229449 0
M  V30 2386 H 225.922 -3.07553 -2.10338 0
M  V30 2387 H 226.035 -4.66501 -1.09151 0
M  V30 2388 H 224.399 -2.45618 -0.674072 0
M  V30 2389 H 225.182 -3.35311 0.736297 0
M  V30 2390 N 227.627 0.131896 -1.57047 0
M  V30 2391 C 228.537 1.1815 -2.02676 0
M  V30 2392 C 229.553 1.46113 -0.944824 0
M  V30 2393 O 230.729 1.57485 -1.25541 0
M  V30 2394 C 227.794 2.49139 -2.41103 0
M  V30 2395 C 226.855 2.28688 -3.63318 0
M  V30 2396 C 226.088 3.53431 -3.99903 0
M  V30 2397 O 226.311 4.60223 -3.36973 0
M  V30 2398 O 225.245 3.45198 -4.93074 0
M  V30 2399 H 229.071 0.824069 -2.92306 0
M  V30 2400 H 226.656 0.341745 -1.45439 0
M  V30 2401 H 228.538 3.26338 -2.66611 0
M  V30 2402 H 227.213 2.84382 -1.54624 0
M  V30 2403 H 226.12 1.4939 -3.42977 0
M  V30 2404 H 227.453 1.98355 -4.50462 0
M  V30 2405 N 229.106 1.52395 0.401703 0
M  V30 2406 C 230.036 1.79231 1.49661 0
M  V30 2407 C 231.017 0.643654 1.57452 0
M  V30 2408 O 232.202 0.889989 1.72606 0
M  V30 2409 C 229.332 1.94971 2.87409 0
M  V30 2410 C 228.286 3.10604 2.94465 0
M  V30 2411 C 227.612 3.11577 4.34538 0
M  V30 2412 C 228.912 4.49921 2.6527 0
M  V30 2413 H 230.606 2.70917 1.27454 0
M  V30 2414 H 228.152 1.30362 0.6117 0
M  V30 2415 H 230.105 2.12328 3.63999 0
M  V30 2416 H 228.829 0.999632 3.10926 0
M  V30 2417 H 227.488 2.93009 2.20321 0
M  V30 2418 H 227.136 2.14277 4.55076 0
M  V30 2419 H 226.836 3.89247 4.40183 0
M  V30 2420 H 228.36 3.31073 5.13053 0
M  V30 2421 H 229.774 4.67683 3.31581 0
M  V30 2422 H 228.171 5.29564 2.82281 0
M  V30 2423 H 229.241 4.57507 1.60671 0
M  V30 2424 N 230.584 -0.659388 1.43143 0
M  V30 2425 C 231.494 -1.80167 1.50256 0
M  V30 2426 C 232.51 -1.69571 0.390106 0
M  V30 2427 O 233.686 -1.90849 0.643319 0
M  V30 2428 C 230.751 -3.16409 1.41725 0
M  V30 2429 C 229.812 -3.38848 2.63591 0
M  V30 2430 C 229.045 -4.68591 2.55458 0
M  V30 2431 O 229.268 -5.47532 1.59891 0
M  V30 2432 O 228.202 -4.92614 3.45854 0
M  V30 2433 H 232.028 -1.77121 2.46702 0
M  V30 2434 H 229.613 -0.817092 1.25076 0
M  V30 2435 H 231.495 -3.9768 1.39387 0
M  V30 2436 H 230.17 -3.20059 0.484118 0
M  V30 2437 H 229.077 -2.57366 2.71502 0
M  V30 2438 H 230.41 -3.4004 3.55856 0
M  V30 2439 N 232.062 -1.29571 -0.897171 0
M  V30 2440 C 233.308 -1.17863 -1.65034 0
M  V30 2441 C 233.641 0.268729 -1.92332 0
M  V30 2442 O 232.916 1.19378 -1.53555 0
M  V30 2443 C 233.199 -1.995 -2.99786 0
M  V30 2444 C 233.052 -3.5239 -2.79538 0
M  V30 2445 C 234.371 -1.82335 -4.00552 0
M  V30 2446 H 231.49 -0.429528 -0.598895 0
M  V30 2447 H 234.132 -1.59072 -1.03905 0
M  V30 2448 H 232.282 -1.64485 -3.51962 0
M  V30 2449 H 233.954 -3.97401 -2.34244 0
M  V30 2450 H 232.197 -3.77187 -2.14273 0
M  V30 2451 H 232.868 -4.04787 -3.75302 0
M  V30 2452 H 235.344 -2.12924 -3.57495 0
M  V30 2453 H 234.22 -2.41801 -4.92771 0
M  V30 2454 H 234.481 -0.779209 -4.35179 0
M  V30 2455 N 233.54 1.10788 -1.12088 0
M  V30 2456 C 234.472 2.16816 -0.743213 0
M  V30 2457 C 235.485 1.6119 0.228412 0
M  V30 2458 O 236.674 1.78497 0.0102931 0
M  V30 2459 C 233.774 3.38809 -0.0787313 0
M  V30 2460 C 232.947 4.23885 -1.0789 0
M  V30 2461 C 232.006 5.24334 -0.442713 0
M  V30 2462 O 231.032 5.58497 -1.09864 0
M  V30 2463 N 232.234 5.75079 0.791457 0
M  V30 2464 H 234.999 2.49825 -1.65552 0
M  V30 2465 H 232.56 1.26373 -1.012 0
M  V30 2466 H 234.552 4.03107 0.358766 0
M  V30 2467 H 233.122 3.03805 0.736275 0
M  V30 2468 H 232.342 3.55939 -1.69414 0
M  V30 2469 H 233.63 4.77562 -1.75533 0
M  V30 2470 H 233.028 5.49517 1.3434 0
M  V30 2471 H 231.585 6.4118 1.17183 0
M  V30 2472 N 235.018 0.912232 1.28515 0
M  V30 2473 C 236.248 0.559604 1.98877 0
M  V30 2474 C 236.656 -0.863113 1.68366 0
M  V30 2475 O 235.999 -1.58304 0.931969 0
M  V30 2476 C 236.061 0.68703 3.52874 0
M  V30 2477 C 235.725 2.07901 4.06972 0
M  V30 2478 C 236.722 3.05157 4.20922 0
M  V30 2479 C 234.407 2.39178 4.417 0
M  V30 2480 C 236.401 4.31806 4.68852 0
M  V30 2481 C 234.088 3.66068 4.89324 0
M  V30 2482 C 235.086 4.62195 5.02856 0
M  V30 2483 O 234.774 5.86829 5.49442 0
M  V30 2484 H 234.506 0.212191 0.641834 0
M  V30 2485 H 237.06 1.22712 1.64715 0
M  V30 2486 H 235.29 -0.0375486 3.86682 0
M  V30 2487 H 236.979 0.341727 4.04459 0
M  V30 2488 H 237.745 2.82311 3.94367 0
M  V30 2489 H 233.624 1.65109 4.30418 0
M  V30 2490 H 237.168 5.06842 4.79329 0
M  V30 2491 H 233.065 3.88739 5.15318 0
M  V30 2492 H 233.833 5.89597 5.6773 0
M  V30 2493 N 236.496 -1.42363 0.676048 0
M  V30 2494 C 237.428 -2.29164 -0.0404605 0
M  V30 2495 C 238.441 -1.43747 -0.764245 0
M  V30 2496 O 239.63 -1.67453 -0.618195 0
M  V30 2497 C 236.73 -3.21196 -1.08103 0
M  V30 2498 C 235.903 -4.35273 -0.430812 0
M  V30 2499 C 234.962 -5.08017 -1.37133 0
M  V30 2500 O 233.988 -5.62494 -0.87116 0
M  V30 2501 N 235.19 -5.13647 -2.70456 0
M  V30 2502 H 237.955 -2.91298 0.704667 0
M  V30 2503 H 235.516 -1.53303 0.520559 0
M  V30 2504 H 237.508 -3.66728 -1.71152 0
M  V30 2505 H 236.078 -2.60505 -1.72788 0
M  V30 2506 H 235.298 -3.92372 0.379209 0
M  V30 2507 H 236.586 -5.08795 0.0221132 0
M  V30 2508 H 235.984 -4.708 -3.1363 0
M  V30 2509 H 234.541 -5.62821 -3.28749 0
M  V30 2510 N 237.974 -0.419461 -1.51915 0
M  V30 2511 C 239.222 0.152637 -2.01523 0
M  V30 2512 C 239.543 1.44762 -1.30649 0
M  V30 2513 O 238.813 1.90997 -0.435535 0
M  V30 2514 H 237.393 0.0593966 -0.744635 0
M  V30 2515 H 240.055 -0.558073 -1.86739 0
M  V30 2516 H 239.151 0.341369 -3.10227 0
M  V30 2517 N 239.452 1.56882 -0.150215 0
M  V30 2518 C 240.868 1.58263 0.20617 0
M  V30 2519 C 241.068 1.16464 1.64434 0
M  V30 2520 O 240.124 0.866422 2.3717 0
M  V30 2521 C 241.437 3.00649 -0.0555025 0
M  V30 2522 C 242.985 3.12999 0.00795388 0
M  V30 2523 C 243.46 4.5744 -0.226429 0
M  V30 2524 N 244.951 4.62875 -0.173469 0
M  V30 2525 C 245.686 5.72454 -0.329288 0
M  V30 2526 N 245.182 6.90669 -0.543005 0
M  V30 2527 N 246.975 5.61467 -0.266666 0
M  V30 2528 H 239.126 1.82345 -1.08922 0
M  V30 2529 H 241.389 0.844149 -0.431413 0
M  V30 2530 H 241.095 3.3563 -1.05096 0
M  V30 2531 H 240.969 3.71337 0.66246 0
M  V30 2532 H 243.356 2.77857 0.993966 0
M  V30 2533 H 243.437 2.4479 -0.742388 0
M  V30 2534 H 243.081 4.93287 -1.20956 0
M  V30 2535 H 243.011 5.2378 0.544274 0
M  V30 2536 H 245.502 3.77898 -0.0130709 0
M  V30 2537 H 245.815 7.70045 -0.651922 0
M  V30 2538 H 244.16 6.92581 -0.579366 0
M  V30 2539 H 247.351 4.67992 -0.100441 0
M  V30 2540 H 247.524 6.46816 -0.391535 0
M  V30 2541 N 240.93 -0.123565 1.57115 0
M  V30 2542 C 242.17 -0.838097 1.86428 0
M  V30 2543 C 242.534 -1.77266 0.737611 0
M  V30 2544 O 243.735 -2.52842 0.912389 0
M  V30 2545 C 242.006 -1.57219 3.20962 0
M  V30 2546 S 243.565 -2.32893 3.71896 0
M  V30 2547 H 240.383 -0.279811 0.653626 0
M  V30 2548 H 242.985 -0.0967034 1.95261 0
M  V30 2549 H 241.689 -0.877522 4.00909 0
M  V30 2550 H 241.22 -2.35405 3.15195 0
M  V30 2551 H 243.235 -3.5853 3.43032 0
M  V30 2552 N 242.408 -1.52605 -0.393616 0
M  V30 2553 C 243.355 -1.77055 -1.48054 0
M  V30 2554 C 244.325 -0.61358 -1.54352 0
M  V30 2555 O 245.51 -0.852806 -1.70681 0
M  V30 2556 C 242.65 -1.94108 -2.85335 0
M  V30 2557 C 241.763 -3.21792 -2.88226 0
M  V30 2558 C 240.898 -3.29188 -4.16904 0
M  V30 2559 C 239.937 -4.51013 -4.13828 0
M  V30 2560 N 239.074 -4.55716 -5.34105 0
M  V30 2561 H 243.914 -2.69815 -1.26506 0
M  V30 2562 H 241.451 -1.33683 -0.61379 0
M  V30 2563 H 243.409 -2.01979 -3.65049 0
M  V30 2564 H 242.039 -1.04713 -3.05344 0
M  V30 2565 H 241.091 -3.23015 -2.00911 0
M  V30 2566 H 242.403 -4.11557 -2.8182 0
M  V30 2567 H 241.557 -3.36216 -5.05018 0
M  V30 2568 H 240.296 -2.37389 -4.26026 0
M  V30 2569 H 239.301 -4.44115 -3.24102 0
M  V30 2570 H 240.526 -5.44123 -4.06333 0
M  V30 2571 H 238.472 -3.66807 -5.43865 0
M  V30 2572 H 238.389 -5.39346 -5.29756 0
M  V30 2573 H 239.657 -4.66993 -6.2413 0
M  V30 2574 N 243.887 0.651787 -1.4349 0
M  V30 2575 C 244.834 1.76462 -1.4876 0
M  V30 2576 C 245.804 1.62641 -0.337189 0
M  V30 2577 O 246.989 1.82864 -0.544544 0
M  V30 2578 C 244.129 3.14623 -1.41796 0
M  V30 2579 C 243.242 3.39568 -2.67053 0
M  V30 2580 C 242.377 4.67585 -2.52068 0
M  V30 2581 C 241.416 4.85639 -3.72587 0
M  V30 2582 N 240.553 6.04915 -3.56402 0
M  V30 2583 H 245.393 1.71293 -2.43849 0
M  V30 2584 H 242.93 0.835889 -1.21043 0
M  V30 2585 H 244.888 3.94496 -1.35753 0
M  V30 2586 H 243.518 3.18859 -0.50288 0
M  V30 2587 H 242.57 2.53783 -2.8337 0
M  V30 2588 H 243.882 3.48795 -3.56572 0
M  V30 2589 H 243.036 5.55586 -2.4374 0
M  V30 2590 H 241.775 4.60681 -1.60075 0
M  V30 2591 H 240.78 3.96073 -3.81321 0
M  V30 2592 H 242.005 4.94372 -4.65589 0
M  V30 2593 H 239.951 5.9914 -2.67146 0
M  V30 2594 H 239.868 6.15106 -4.39524 0
M  V30 2595 H 241.136 6.95533 -3.51929 0
M  V30 2596 N 245.365 1.30045 0.890287 0
M  V30 2597 C 246.593 1.21472 1.67487 0
M  V30 2598 C 247.008 -0.223241 1.87476 0
M  V30 2599 O 246.365 -1.14828 1.41847 0
M  V30 2600 C 246.416 1.93394 3.05419 0
M  V30 2601 O 246.137 3.31576 2.86337 0
M  V30 2602 C 247.638 1.91414 3.99844 0
M  V30 2603 H 244.858 0.420604 0.522813 0
M  V30 2604 H 247.402 1.7158 1.11268 0
M  V30 2605 H 245.557 1.47099 3.58386 0
M  V30 2606 H 245.971 3.67929 3.73802 0
M  V30 2607 H 247.445 2.46285 4.94012 0
M  V30 2608 H 247.922 0.891833 4.3005 0
M  V30 2609 H 248.528 2.37496 3.52811 0
M  V30 2610 N 246.843 -1.10192 1.12674 0
M  V30 2611 C 248.083 -1.83825 0.893736 0
M  V30 2612 C 248.447 -1.83341 -0.570082 0
M  V30 2613 O 249.648 -2.52553 -0.920354 0
M  V30 2614 C 247.919 -3.26405 1.45582 0
M  V30 2615 S 249.478 -4.17136 1.36171 0
M  V30 2616 H 246.296 -0.633732 0.322342 0
M  V30 2617 H 248.898 -1.32581 1.43675 0
M  V30 2618 H 247.602 -3.24329 2.51473 0
M  V30 2619 H 247.133 -3.82721 0.910405 0
M  V30 2620 H 249.148 -4.95069 0.334863 0
M  V30 2621 N 248.321 -0.919034 -1.28029 0
M  V30 2622 C 249.737 -0.617972 -1.4715 0
M  V30 2623 C 249.937 0.835242 -1.83374 0
M  V30 2624 O 248.993 1.61388 -1.94191 0
M  V30 2625 C 250.306 -1.56041 -2.57044 0
M  V30 2626 C 251.854 -1.56769 -2.7091 0
M  V30 2627 C 252.329 -2.49688 -3.83953 0
M  V30 2628 N 253.82 -2.47845 -3.91314 0
M  V30 2629 C 254.555 -3.16437 -4.78179 0
M  V30 2630 N 254.051 -3.94376 -5.69596 0
M  V30 2631 N 255.844 -3.05498 -4.71834 0
M  V30 2632 H 247.995 -1.85866 -1.02798 0
M  V30 2633 H 250.258 -0.797506 -0.512531 0
M  V30 2634 H 249.964 -2.59671 -2.372 0
M  V30 2635 H 249.838 -1.29551 -3.54255 0
M  V30 2636 H 252.225 -0.538745 -2.90141 0
M  V30 2637 H 252.306 -1.87305 -1.74214 0
M  V30 2638 H 251.95 -3.52688 -3.65477 0
M  V30 2639 H 251.88 -2.16453 -4.80058 0
M  V30 2640 H 254.371 -1.91234 -3.25941 0
M  V30 2641 H 254.684 -4.43721 -6.32718 0
M  V30 2642 H 253.029 -3.98481 -5.69419 0
M  V30 2643 H 256.22 -2.44108 -3.99411 0
M  V30 2644 H 256.393 -3.59225 -5.39316 0
M  V30 2645 N 249.799 1.42003 -0.683588 0
M  V30 2646 C 251.076 1.95112 -0.138075 0
M  V30 2647 C 251.456 1.62359 1.34918 0
M  V30 2648 O 250.804 0.924311 2.08971 0
M  V30 2649 C 251.014 3.46505 -0.416581 0
M  V30 2650 C 252.362 4.23254 -0.337834 0
M  V30 2651 O 253.386 3.54468 -0.35082 0
M  V30 2652 O 252.245 5.45743 -0.287596 0
M  V30 2653 H 249.339 0.826961 -0.00797996 0
M  V30 2654 H 251.885 1.51784 -0.758924 0
M  V30 2655 H 250.657 3.63582 -1.4465 0
M  V30 2656 H 250.28 3.969 0.235839 0
M  V30 2657 N 251.277 0.427512 1.51691 0
M  V30 2658 C 252.523 -0.142439 2.02299 0
M  V30 2659 C 252.856 -1.43214 1.31162 0
M  V30 2660 O 252.131 -1.89833 0.423511 0
M  V30 2661 C 252.414 -0.371301 3.58181 0
M  V30 2662 C 252.267 0.936358 4.39946 0
M  V30 2663 C 253.586 -1.14542 4.24933 0
M  V30 2664 H 250.705 -0.0502937 0.735282 0
M  V30 2665 H 253.347 0.564584 1.81418 0
M  V30 2666 H 251.497 -0.973559 3.76104 0
M  V30 2667 H 253.169 1.57184 4.33694 0
M  V30 2668 H 251.412 1.5432 4.05423 0
M  V30 2669 H 252.083 0.730388 5.47147 0
M  V30 2670 H 254.559 -0.635362 4.11221 0
M  V30 2671 H 253.435 -1.27431 5.33903 0
M  V30 2672 H 253.696 -2.17093 3.85127 0
M  V30 2673 N 252.755 -1.56801 0.158532 0
M  V30 2674 C 254.002 -1.9649 -0.489679 0
M  V30 2675 C 254.33 -1.04394 -1.6411 0
M  V30 2676 O 253.585 -0.0754401 -1.95555 0
M  V30 2677 C 253.884 -3.4235 -1.02623 0
M  V30 2678 C 253.55 -4.50899 0.00794526 0
M  V30 2679 C 252.212 -4.80312 0.292207 0
M  V30 2680 C 254.564 -5.16333 0.710584 0
M  V30 2681 C 251.892 -5.72461 1.28472 0
M  V30 2682 C 254.244 -6.09553 1.69199 0
M  V30 2683 C 252.908 -6.37339 1.98383 0
M  V30 2684 H 252.178 -0.719009 -0.179186 0
M  V30 2685 H 254.825 -1.8989 0.247798 0
M  V30 2686 H 253.13 -3.45838 -1.84128 0
M  V30 2687 H 254.827 -3.70393 -1.53656 0
M  V30 2688 H 251.417 -4.28015 -0.22379 0
M  V30 2689 H 255.601 -4.93732 0.504174 0
M  V30 2690 H 250.857 -5.92278 1.51714 0
M  V30 2691 H 255.031 -6.59327 2.24189 0
M  V30 2692 H 252.658 -7.08546 2.7544 0
M  V30 2693 N 254.233 0.115231 -1.57178 0
M  V30 2694 C 255.473 0.828199 -1.8687 0
M  V30 2695 C 255.837 1.76873 -0.747002 0
M  V30 2696 O 257.038 2.52354 -0.925785 0
M  V30 2697 C 255.309 1.55515 -3.21792 0
M  V30 2698 S 256.868 2.30917 -3.73125 0
M  V30 2699 H 253.686 0.27634 -0.655101 0
M  V30 2700 H 256.288 0.0863469 -1.95309 0
M  V30 2701 H 254.992 0.856248 -4.01368 0
M  V30 2702 H 254.523 2.3373 -3.16439 0
M  V30 2703 H 256.538 3.56705 -3.44929 0
M  V30 2704 N 255.711 1.52812 0.385517 0
M  V30 2705 C 257.122 1.5993 0.963293 0
M  V30 2706 C 257.473 0.454302 1.90868 0
M  V30 2707 O 256.598 -0.422132 2.12243 0
M  V30 2708 C 257.193 2.89871 1.75387 0
M  V30 2709 C 255.752 2.99389 2.28129 0
M  V30 2710 C 254.899 2.55071 1.08783 0
M  V30 2711 H 257.85 1.5784 0.164948 0
M  V30 2712 H 257.871 2.76553 2.61341 0
M  V30 2713 H 257.383 3.73186 1.06554 0
M  V30 2714 H 255.484 2.20619 3.00263 0
M  V30 2715 H 255.597 4.04096 2.57377 0
M  V30 2716 H 253.961 2.09473 1.4489 0
M  V30 2717 H 254.744 3.40785 0.414807 0
M  V30 2718 N 257.189 -0.644168 1.43834 0
M  V30 2719 C 258.437 -1.40117 1.45642 0
M  V30 2720 C 258.758 -1.94814 0.0852413 0
M  V30 2721 O 258.028 -1.74988 -0.880688 0
M  V30 2722 H 256.608 -0.52005 0.536243 0
M  V30 2723 H 259.27 -0.7591 1.7951 0
M  V30 2724 H 258.366 -2.23902 2.17427 0
M  V30 2725 N 258.668 -1.30515 -0.883378 0
M  V30 2726 C 259.893 -1.22487 -1.67367 0
M  V30 2727 C 260.318 0.208767 -1.86938 0
M  V30 2728 O 259.676 1.15015 -1.40148 0
M  V30 2729 C 259.724 -1.96041 -3.02655 0
M  V30 2730 O 258.828 -1.28859 -3.91751 0
M  V30 2731 H 258.169 -0.423573 -0.511353 0
M  V30 2732 H 260.699 -1.72362 -1.10239 0
M  V30 2733 H 260.709 -2.05124 -3.52687 0
M  V30 2734 H 259.384 -3.00307 -2.8773 0
M  V30 2735 H 257.961 -1.28141 -3.50192 0
M  V30 2736 N 260.146 1.09593 -1.13257 0
M  V30 2737 C 261.371 1.8604 -0.916732 0
M  V30 2738 C 261.796 1.80504 0.529146 0
M  V30 2739 O 261.154 1.18127 1.37534 0
M  V30 2740 C 261.202 3.32017 -1.40703 0
M  V30 2741 O 260.306 4.08141 -0.591153 0
M  V30 2742 H 259.647 0.576943 -0.328683 0
M  V30 2743 H 262.177 1.38405 -1.50682 0
M  V30 2744 H 262.187 3.82865 -1.4099 0
M  V30 2745 H 260.862 3.35361 -2.45979 0
M  V30 2746 H 259.439 3.67084 -0.656005 0
M  V30 2747 N 261.624 0.925811 1.2754 0
M  V30 2748 C 262.852 0.581509 1.9856 0
M  V30 2749 C 263.267 -0.840041 1.69082 0
M  V30 2750 O 262.624 -1.55805 0.950312 0
M  V30 2751 C 262.675 0.795589 3.52637 0
M  V30 2752 O 262.396 2.16121 3.81082 0
M  V30 2753 C 263.897 0.459744 4.4091 0
M  V30 2754 H 261.117 0.220538 0.633722 0
M  V30 2755 H 263.661 1.24232 1.6244 0
M  V30 2756 H 261.816 0.18161 3.86974 0
M  V30 2757 H 262.23 2.2098 4.75676 0
M  V30 2758 H 263.704 0.660244 5.48037 0
M  V30 2759 H 264.181 -0.604625 4.35018 0
M  V30 2760 H 264.787 1.05178 4.12089 0
M  V30 2761 N 263.102 -1.41638 0.69111 0
M  V30 2762 C 264.342 -2.03166 0.224291 0
M  V30 2763 C 264.706 -1.53537 -1.15284 0
M  V30 2764 O 265.907 -2.0696 -1.71525 0
M  V30 2765 C 264.178 -3.56342 0.274758 0
M  V30 2766 S 265.737 -4.3864 -0.118669 0
M  V30 2767 H 262.555 -0.705188 0.0907263 0
M  V30 2768 H 265.157 -1.7314 0.907895 0
M  V30 2769 H 263.861 -3.89958 1.2791 0
M  V30 2770 H 263.392 -3.91063 -0.428142 0
M  V30 2771 H 265.407 -4.77549 -1.34764 0
M  V30 2772 N 264.58 -0.43555 -1.51462 0
M  V30 2773 C 265.826 0.131709 -2.02372 0
M  V30 2774 C 266.159 1.42516 -1.3192 0
M  V30 2775 O 265.434 1.89606 -0.433573 0
M  V30 2776 C 265.717 0.352301 -3.58373 0
M  V30 2777 C 265.57 -0.959676 -4.39443 0
M  V30 2778 C 266.889 1.12286 -4.25535 0
M  V30 2779 H 264.008 0.0463936 -0.735538 0
M  V30 2780 H 266.65 -0.574197 -1.81116 0
M  V30 2781 H 264.8 0.9536 -3.76615 0
M  V30 2782 H 266.472 -1.59482 -4.32855 0
M  V30 2783 H 264.715 -1.56468 -4.04599 0
M  V30 2784 H 265.386 -0.759394 -5.46752 0
M  V30 2785 H 267.862 0.613545 -4.11552 0
M  V30 2786 H 266.738 1.24598 -5.34571 0
M  V30 2787 H 266.999 2.15048 -3.86273 0
M  V30 2788 N 266.058 1.56714 -0.166846 0
M  V30 2789 C 267.304 1.97039 0.479962 0
M  V30 2790 C 267.637 1.05264 1.63197 0
M  V30 2791 O 266.912 0.0988833 1.94248 0
M  V30 2792 C 267.195 3.46867 0.967212 0
M  V30 2793 C 267.048 4.49421 -0.18466 0
M  V30 2794 C 268.367 3.9968 1.84238 0
M  V30 2795 H 265.486 0.71641 0.172992 0
M  V30 2796 H 268.128 1.8832 -0.252079 0
M  V30 2797 H 266.278 3.54428 1.59101 0
M  V30 2798 H 267.95 4.53924 -0.821621 0
M  V30 2799 H 266.193 4.25573 -0.840837 0
M  V30 2800 H 266.864 5.51644 0.198317 0
M  V30 2801 H 269.34 3.94723 1.31655 0
M  V30 2802 H 268.216 5.04941 2.15234 0
M  V30 2803 H 268.477 3.43226 2.78654 0
M  V30 2804 N 267.536 -0.106894 1.57237 0
M  V30 2805 C 268.813 -0.843526 1.76477 0
M  V30 2806 C 269.193 -1.97499 0.745464 0
M  V30 2807 O 268.541 -2.27357 -0.228306 0
M  V30 2808 C 268.751 -1.34903 3.21873 0
M  V30 2809 C 270.099 -1.79654 3.8472 0
M  V30 2810 O 271.123 -1.44554 3.2555 0
M  V30 2811 O 269.982 -2.44515 4.88748 0
M  V30 2812 H 267.076 -0.401468 0.723016 0
M  V30 2813 H 269.622 -0.0896927 1.69463 0
M  V30 2814 H 268.394 -0.53781 3.87586 0
M  V30 2815 H 268.017 -2.16522 3.33473 0
M  V30 2816 N 269.014 -1.53014 -0.377408 0
M  V30 2817 C 269.946 -1.74884 -1.48149 0
M  V30 2818 C 270.959 -0.629433 -1.5014 0
M  V30 2819 O 272.148 -0.905416 -1.53833 0
M  V30 2820 C 269.248 -1.80299 -2.86959 0
M  V30 2821 C 268.421 -3.09776 -3.08801 0
M  V30 2822 C 267.48 -3.06586 -4.27658 0
M  V30 2823 O 266.506 -3.80419 -4.23403 0
M  V30 2824 N 267.708 -2.26578 -5.34455 0
M  V30 2825 H 270.473 -2.70147 -1.29771 0
M  V30 2826 H 268.034 -1.51646 -0.56703 0
M  V30 2827 H 270.026 -1.75657 -3.64591 0
M  V30 2828 H 268.596 -0.92372 -2.98641 0
M  V30 2829 H 267.816 -3.27815 -2.18931 0
M  V30 2830 H 269.104 -3.95366 -3.20255 0
M  V30 2831 H 268.502 -1.66081 -5.40771 0
M  V30 2832 H 267.059 -2.27766 -6.10709 0
M  V30 2833 N 270.492 0.636531 -1.44174 0
M  V30 2834 C 271.72 1.42353 -1.50144 0
M  V30 2835 C 272.135 1.88389 -0.124575 0
M  V30 2836 O 271.492 1.6051 0.868489 0
M  V30 2837 C 271.543 2.64744 -2.46156 0
M  V30 2838 O 271.264 2.20629 -3.7849 0
M  V30 2839 C 272.765 3.57929 -2.61537 0
M  V30 2840 H 269.985 0.436752 -0.5094 0
M  V30 2841 H 272.529 0.778933 -1.89084 0
M  V30 2842 H 270.684 3.25307 -2.10366 0
M  V30 2843 H 271.098 2.99938 -4.30276 0
M  V30 2844 H 272.572 4.40428 -3.32757 0
M  V30 2845 H 273.049 4.06382 -1.66585 0
M  V30 2846 H 273.655 3.03238 -2.98206 0
M  V30 2847 N 271.97 1.30982 0.876444 0
M  V30 2848 C 272.918 1.18006 2.00443 0
M  V30 2849 C 273.912 0.0898871 1.69161 0
M  V30 2850 O 275.118 0.251333 1.78237 0
M  V30 2851 H 271.493 0.365196 0.65737 0
M  V30 2852 H 273.464 2.13453 2.0852 0
M  V30 2853 C 272.213 0.897521 3.35916 0
M  V30 2854 H 271.536 1.7285 3.60504 0
M  V30 2855 H 272.976 0.846874 4.15456 0
M  V30 2856 C 271.435 -0.399674 3.34521 0
M  V30 2857 O 271.965 -1.41852 3.7582 0
M  V30 2858 N 270.171 -0.413893 2.87637 0
M  V30 2859 H 269.718 0.41571 2.54224 0
M  V30 2860 H 269.676 -1.28175 2.87086 0
M  V30 2861 N 273.449 -1.08991 1.13837 0
M  V30 2862 C 274.397 -2.17841 0.815347 0
M  V30 2863 C 275.391 -1.68164 -0.204233 0
M  V30 2864 O 276.597 -1.79897 -0.0609304 0
M  V30 2865 H 272.972 -0.710654 0.245915 0
M  V30 2866 H 274.943 -2.42315 1.74143 0
M  V30 2867 C 273.692 -3.46381 0.302614 0
M  V30 2868 H 273.015 -3.84979 1.0785 0
M  V30 2869 H 274.455 -4.23844 0.115074 0
M  V30 2870 C 272.914 -3.22556 -0.972591 0
M  V30 2871 O 273.444 -3.45599 -2.04754 0
M  V30 2872 N 271.65 -2.76134 -0.905455 0
M  V30 2873 H 271.197 -2.57582 -0.0305421 0
M  V30 2874 H 271.155 -2.60571 -1.75926 0
M  V30 2875 N 274.927 -0.932562 -1.27047 0
M  V30 2876 C 275.89 -0.440064 -2.24936 0
M  V30 2877 C 276.89 0.444071 -1.54547 0
M  V30 2878 O 278.08 0.244465 -1.72476 0
M  V30 2879 C 275.212 0.36678 -3.38921 0
M  V30 2880 H 276.405 -1.305 -2.70018 0
M  V30 2881 H 273.958 -0.713707 -1.39054 0
M  V30 2882 H 274.693 1.25033 -2.99228 0
M  V30 2883 H 274.478 -0.267204 -3.91188 0
M  V30 2884 H 275.968 0.701567 -4.11665 0
M  V30 2885 N 276.405 1.4127 -0.698611 0
M  V30 2886 C 277.635 2.05205 -0.239644 0
M  V30 2887 C 278.043 1.52684 1.11733 0
M  V30 2888 O 277.386 0.671222 1.70998 0
M  V30 2889 C 277.448 3.59289 -0.123126 0
M  V30 2890 C 277.112 4.34619 -1.41263 0
M  V30 2891 C 278.109 4.63701 -2.35111 0
M  V30 2892 C 275.794 4.73837 -1.66684 0
M  V30 2893 C 277.788 5.30966 -3.52639 0
M  V30 2894 C 275.475 5.40837 -2.84498 0
M  V30 2895 C 276.473 5.69329 -3.77298 0
M  V30 2896 O 276.161 6.34949 -4.93047 0
M  V30 2897 H 275.893 0.66723 -0.108537 0
M  V30 2898 H 278.447 1.81974 -0.952602 0
M  V30 2899 H 276.677 3.81272 0.645628 0
M  V30 2900 H 278.366 4.04797 0.299056 0
M  V30 2901 H 279.132 4.33882 -2.16729 0
M  V30 2902 H 275.011 4.51039 -0.953135 0
M  V30 2903 H 278.555 5.53121 -4.25091 0
M  V30 2904 H 274.452 5.70075 -3.02795 0
M  V30 2905 H 275.22 6.53445 -4.92902 0
M  V30 2906 N 277.883 0.443576 1.51229 0
M  V30 2907 C 279.123 -0.119889 2.04048 0
M  V30 2908 C 279.487 -1.39418 1.32009 0
M  V30 2909 O 280.688 -2.03829 1.75235 0
M  V30 2910 C 278.959 -0.327233 3.55899 0
M  V30 2911 S 280.518 -0.853208 4.30425 0
M  V30 2912 H 277.336 -0.028921 0.710412 0
M  V30 2913 H 279.938 0.604413 1.85922 0
M  V30 2914 H 278.642 0.606445 4.05895 0
M  V30 2915 H 278.173 -1.07844 3.7833 0
M  V30 2916 H 280.188 -2.13005 4.48155 0
M  V30 2917 N 279.361 -1.56624 0.175154 0
M  V30 2918 C 280.607 -1.9729 -0.469506 0
M  V30 2919 C 280.94 -1.06128 -1.62636 0
M  V30 2920 O 280.215 -0.109183 -1.94193 0
M  V30 2921 C 280.498 -3.47375 -0.948804 0
M  V30 2922 C 280.351 -4.49317 0.208491 0
M  V30 2923 C 281.67 -4.00652 -1.82116 0
M  V30 2924 H 278.789 -0.717317 -0.16919 0
M  V30 2925 H 281.431 -1.88184 0.262062 0
M  V30 2926 H 279.581 -3.55267 -1.57219 0
M  V30 2927 H 281.253 -4.53482 0.845682 0
M  V30 2928 H 279.496 -4.25121 0.863395 0
M  V30 2929 H 280.167 -5.51741 -0.169059 0
M  V30 2930 H 282.643 -3.95416 -1.2956 0
M  V30 2931 H 281.519 -5.06075 -2.12554 0
M  V30 2932 H 281.78 -3.44699 -2.7683 0
M  V30 2933 N 280.839 0.0985539 -1.57292 0
M  V30 2934 C 282.067 0.816318 -1.90115 0
M  V30 2935 C 282.482 1.72451 -0.768509 0
M  V30 2936 O 281.839 1.80643 0.259687 0
M  V30 2937 C 281.89 1.63259 -3.22535 0
M  V30 2938 O 281.611 0.760934 -4.31441 0
M  V30 2939 C 283.112 2.45372 -3.69199 0
M  V30 2940 H 280.332 0.233595 -0.629027 0
M  V30 2941 H 282.876 0.0768229 -2.04356 0
M  V30 2942 H 281.031 2.32463 -3.09903 0
M  V30 2943 H 281.445 1.32595 -5.07463 0
M  V30 2944 H 282.919 2.98144 -4.64558 0
M  V30 2945 H 283.396 3.23677 -2.96867 0
M  V30 2946 H 284.002 1.81373 -3.84687 0
M  V30 2947 N 282.317 1.53212 0.369288 0
M  V30 2948 C 283.557 1.70915 1.12105 0
M  V30 2949 C 283.921 0.449444 1.86665 0
M  V30 2950 O 285.122 0.503105 2.6405 0
M  V30 2951 C 283.393 2.9222 2.05772 0
M  V30 2952 S 284.952 3.30609 2.88519 0
M  V30 2953 H 281.77 0.601445 0.379189 0
M  V30 2954 H 284.372 1.91306 0.402794 0
M  V30 2955 H 283.076 3.82103 1.49752 0
M  V30 2956 H 282.607 2.7422 2.82076 0
M  V30 2957 H 284.622 2.82333 4.08047 0
M  V30 2958 N 283.795 -0.628877 1.44509 0
M  V30 2959 C 284.743 -1.76193 1.51852 0
M  V30 2960 C 285.737 -1.64849 0.390042 0
M  V30 2961 O 286.943 -1.709 0.565082 0
M  V30 2962 H 283.318 -0.581728 0.476547 0
M  V30 2963 H 285.289 -1.67123 2.47209 0
M  V30 2964 C 284.038 -3.14533 1.48204 0
M  V30 2965 H 283.361 -3.23911 2.34354 0
M  V30 2966 H 284.801 -3.93701 1.57402 0
M  V30 2967 C 283.26 -3.36287 0.203142 0
M  V30 2968 O 283.79 -3.9509 -0.725745 0
M  V30 2969 N 281.996 -2.90408 0.105563 0
M  V30 2970 H 281.543 -2.42739 0.862301 0
M  V30 2971 H 281.501 -3.05339 -0.749371 0
M  V30 2972 N 285.273 -1.31445 -0.869486 0
M  V30 2973 C 286.689 -1.10113 -1.15531 0
M  V30 2974 C 286.889 0.128087 -2.01092 0
M  V30 2975 O 285.945 0.817276 -2.38908 0
M  V30 2976 C 287.258 -2.37291 -1.84698 0
M  V30 2977 C 288.806 -2.42906 -1.97397 0
M  V30 2978 C 289.281 -3.69967 -2.69979 0
M  V30 2979 N 290.772 -3.70864 -2.77514 0
M  V30 2980 C 291.507 -4.65875 -3.34287 0
M  V30 2981 N 291.003 -5.71242 -3.91988 0
M  V30 2982 N 292.796 -4.53394 -3.3225 0
M  V30 2983 H 284.947 -2.1028 -0.299347 0
M  V30 2984 H 287.21 -0.927683 -0.195214 0
M  V30 2985 H 286.916 -3.27078 -1.29278 0
M  V30 2986 H 286.79 -2.47125 -2.84972 0
M  V30 2987 H 289.177 -1.53588 -2.51982 0
M  V30 2988 H 289.258 -2.37036 -0.961643 0
M  V30 2989 H 288.902 -4.59652 -2.16062 0
M  V30 2990 H 288.832 -3.73103 -3.7162 0
M  V30 2991 H 291.323 -2.94697 -2.36563 0
M  V30 2992 H 291.636 -6.39817 -4.33421 0
M  V30 2993 H 289.981 -5.75015 -3.90362 0
M  V30 2994 H 293.172 -3.70252 -2.8641 0
M  V30 2995 H 293.345 -5.27617 -3.76197 0
M  V30 2996 N 286.751 1.08385 -1.14413 0
M  V30 2997 C 288 1.80153 -0.907076 0
M  V30 2998 C 288.313 1.87176 0.567851 0
M  V30 2999 O 289.519 2.55359 0.922172 0
M  V30 3000 C 287.975 3.23687 -1.57336 0
M  V30 3001 C 287.583 3.24897 -3.08457 0
M  V30 3002 C 289.327 4.00136 -1.41744 0
M  V30 3003 C 287.234 4.6302 -3.67921 0
M  V30 3004 H 286.164 0.675139 -0.335714 0
M  V30 3005 H 288.815 1.21733 -1.37307 0
M  V30 3006 H 287.197 3.82234 -1.03505 0
M  V30 3007 H 288.371 2.76055 -3.68958 0
M  V30 3008 H 286.686 2.61943 -3.2369 0
M  V30 3009 H 289.283 5.02201 -1.83572 0
M  V30 3010 H 289.626 4.14709 -0.363576 0
M  V30 3011 H 290.159 3.48058 -1.92614 0
M  V30 3012 H 286.898 4.5365 -4.73161 0
M  V30 3013 H 286.418 5.12143 -3.12201 0
M  V30 3014 H 288.097 5.31994 -3.68227 0
M  V30 3015 N 288.23 0.939286 1.26551 0
M  V30 3016 C 289.47 0.5933 1.956 0
M  V30 3017 C 289.834 -0.851515 1.72085 0
M  V30 3018 O 291.035 -1.30634 2.34921 0
M  V30 3019 C 289.306 0.923996 3.45249 0
M  V30 3020 S 290.865 0.688269 4.33369 0
M  V30 3021 H 287.683 0.218591 0.676564 0
M  V30 3022 H 290.285 1.2102 1.5354 0
M  V30 3023 H 288.989 1.97297 3.59864 0
M  V30 3024 H 288.52 0.296746 3.92279 0
M  V30 3025 H 290.535 -0.448434 4.9417 0
M  V30 3026 N 289.708 -1.40897 0.706093 0
M  V30 3027 C 291.119 -1.84023 0.315052 0
M  V30 3028 C 291.47 -1.5906 -1.14866 0
M  V30 3029 O 290.595 -1.06651 -1.88293 0
M  V30 3030 C 291.19 -3.34055 0.565038 0
M  V30 3031 C 289.749 -3.7571 0.227806 0
M  V30 3032 C 288.896 -2.64204 0.842122 0
M  V30 3033 H 291.847 -1.303 0.905963 0
M  V30 3034 H 291.868 -3.80107 -0.172843 0
M  V30 3035 H 291.38 -3.52192 1.63042 0
M  V30 3036 H 289.481 -3.63172 -0.832895 0
M  V30 3037 H 289.594 -4.74103 0.690174 0
M  V30 3038 H 287.958 -2.53255 0.270893 0
M  V30 3039 H 288.741 -2.85155 1.91158 0
M  V30 3040 N 291.186 -0.45159 -1.50991 0
M  V30 3041 C 292.096 0.358431 -2.31846 0
M  V30 3042 C 293.112 1.01438 -1.41373 0
M  V30 3043 O 294.288 1.00663 -1.74439 0
M  V30 3044 C 291.353 1.43704 -3.15515 0
M  V30 3045 C 290.414 0.799742 -4.21785 0
M  V30 3046 C 289.647 1.82696 -5.01456 0
M  V30 3047 O 289.87 3.05105 -4.81941 0
M  V30 3048 O 288.804 1.40958 -5.85162 0
M  V30 3049 H 292.63 -0.302032 -3.02194 0
M  V30 3050 H 290.215 -0.213825 -1.47862 0
M  V30 3051 H 292.097 2.06227 -3.67489 0
M  V30 3052 H 290.772 2.08133 -2.47916 0
M  V30 3053 H 289.679 0.136084 -3.73852 0
M  V30 3054 H 291.012 0.198718 -4.91799 0
M  V30 3055 N 292.664 1.56529 -0.183458 0
M  V30 3056 C 294.075 1.83739 0.331177 0
M  V30 3057 C 294.426 1.10373 1.62211 0
M  V30 3058 O 293.551 0.36071 2.13373 0
M  V30 3059 C 294.146 3.33306 0.607646 0
M  V30 3060 C 292.705 3.60969 1.06668 0
M  V30 3061 C 291.852 2.77086 0.109029 0
M  V30 3062 H 294.803 1.53379 -0.407484 0
M  V30 3063 H 294.824 3.51444 1.45832 0
M  V30 3064 H 294.336 3.86677 -0.332086 0
M  V30 3065 H 292.437 3.13021 2.0211 0
M  V30 3066 H 292.55 4.69231 0.967447 0
M  V30 3067 H 290.914 2.47319 0.608714 0
M  V30 3068 H 291.697 3.33241 -0.82494 0
M  V30 3069 N 294.142 -0.090211 1.57342 0
M  V30 3070 C 295.105 -1.09335 2.01441 0
M  V30 3071 C 296.105 -1.32666 0.908641 0
M  V30 3072 O 297.295 -1.28697 1.174 0
M  V30 3073 C 294.427 -2.44136 2.3793 0
M  V30 3074 H 295.62 -0.713662 2.91285 0
M  V30 3075 H 293.173 -0.335404 1.52659 0
M  V30 3076 H 293.908 -2.86972 1.51055 0
M  V30 3077 H 293.693 -2.28548 3.18603 0
M  V30 3078 H 295.183 -3.16277 2.72688 0
M  V30 3079 N 295.62 -1.53406 -0.361157 0
M  V30 3080 C 296.845 -1.74024 -1.12829 0
M  V30 3081 C 297.27 -0.470069 -1.82132 0
M  V30 3082 O 296.628 0.57619 -1.719 0
M  V30 3083 C 296.676 -2.90903 -2.13091 0
M  V30 3084 O 295.78 -2.59821 -3.20261 0
M  V30 3085 H 295.121 -0.577804 -0.327168 0
M  V30 3086 H 297.651 -2.00307 -0.41693 0
M  V30 3087 H 297.661 -3.17194 -2.56616 0
M  V30 3088 H 296.336 -3.83034 -1.62042 0
M  V30 3089 H 294.913 -2.44362 -2.81677 0
M  V30 3090 N 297.098 0.621204 -1.44841 0
M  V30 3091 C 298.323 1.41244 -1.51871 0
M  V30 3092 C 298.748 1.87519 -0.147764 0
M  V30 3093 O 298.106 1.59334 0.865 0
M  V30 3094 C 298.154 2.60221 -2.49634 0
M  V30 3095 O 297.258 3.60395 -2.00473 0
M  V30 3096 H 296.599 0.42223 -0.512463 0
M  V30 3097 H 299.129 0.757305 -1.90069 0
M  V30 3098 H 299.139 3.0764 -2.67996 0
M  V30 3099 H 297.814 2.25887 -3.4921 0
M  V30 3100 H 296.391 3.19717 -1.91925 0
M  V30 3101 N 298.576 1.31904 0.862503 0
M  V30 3102 C 299.486 1.22161 2.00285 0
M  V30 3103 C 300.502 0.136785 1.73462 0
M  V30 3104 O 301.678 0.355994 1.98229 0
M  V30 3105 C 298.743 0.937093 3.33796 0
M  V30 3106 C 297.804 2.10957 3.73893 0
M  V30 3107 C 297.037 1.83853 5.01033 0
M  V30 3108 O 297.26 0.777274 5.65079 0
M  V30 3109 O 296.194 2.69741 5.38074 0
M  V30 3110 H 300.02 2.18008 2.11439 0
M  V30 3111 H 297.605 1.11716 0.991957 0
M  V30 3112 H 299.487 0.794583 4.13841 0
M  V30 3113 H 298.162 0.00871894 3.23699 0
M  V30 3114 H 297.069 2.30752 2.94456 0
M  V30 3115 H 298.402 3.02046 3.88625 0
M  V30 3116 N 300.054 -1.07777 1.14986 0
M  V30 3117 C 300.986 -2.14769 0.800436 0
M  V30 3118 C 301.999 -1.61739 -0.185595 0
M  V30 3119 O 303.188 -1.78462 0.0370358 0
M  V30 3120 C 300.288 -3.38481 0.168533 0
M  V30 3121 C 299.461 -4.20876 1.1909 0
M  V30 3122 C 298.52 -5.22976 0.581575 0
M  V30 3123 O 297.546 -5.55388 1.24633 0
M  V30 3124 N 298.748 -5.76976 -0.638706 0
M  V30 3125 H 301.513 -2.45348 1.72118 0
M  V30 3126 H 299.074 -1.23645 1.04515 0
M  V30 3127 H 301.066 -4.03916 -0.251764 0
M  V30 3128 H 299.636 -3.05651 -0.655467 0
M  V30 3129 H 298.856 -3.51322 1.78791 0
M  V30 3130 H 300.144 -4.7274 1.88133 0
M  V30 3131 H 299.542 -5.52886 -1.19723 0
M  V30 3132 H 298.099 -6.44061 -1.00142 0
M  V30 3133 N 301.532 -0.945985 -1.26051 0
M  V30 3134 C 302.762 -0.612136 -1.97323 0
M  V30 3135 C 303.17 0.818171 -1.70595 0
M  V30 3136 O 302.513 1.55777 -0.973613 0
M  V30 3137 C 302.575 -0.780347 -3.50929 0
M  V30 3138 C 302.239 -2.18619 -4.01317 0
M  V30 3139 C 303.236 -3.16209 -4.12683 0
M  V30 3140 C 300.921 -2.50805 -4.35203 0
M  V30 3141 C 302.915 -4.44085 -4.57238 0
M  V30 3142 C 300.602 -3.78912 -4.79446 0
M  V30 3143 C 301.6 -4.75365 -4.90425 0
M  V30 3144 O 301.288 -6.01191 -5.3369 0
M  V30 3145 H 301.02 -0.229134 -0.635982 0
M  V30 3146 H 303.574 -1.27036 -1.61404 0
M  V30 3147 H 301.804 -0.0649864 -3.86645 0
M  V30 3148 H 303.493 -0.448842 -4.03411 0
M  V30 3149 H 304.259 -2.92668 -3.86744 0
M  V30 3150 H 300.138 -1.76463 -4.2589 0
M  V30 3151 H 303.682 -5.19373 -4.65723 0
M  V30 3152 H 299.579 -4.02265 -5.0483 0
M  V30 3153 H 300.347 -6.04442 -5.51899 0
M  V30 3154 N 303.011 1.40521 -0.713556 0
M  V30 3155 C 303.941 2.33381 -0.0743864 0
M  V30 3156 C 304.922 1.52784 0.747735 0
M  V30 3157 O 306.107 1.81258 0.697071 0
M  V30 3158 C 303.237 3.36748 0.849598 0
M  V30 3159 C 302.191 4.27793 0.133247 0
M  V30 3160 C 301.517 5.21679 1.17281 0
M  V30 3161 C 302.817 5.12415 -1.01134 0
M  V30 3162 H 304.511 2.87081 -0.850007 0
M  V30 3163 H 302.057 1.38034 -0.410201 0
M  V30 3164 H 304.01 4.00648 1.30612 0
M  V30 3165 H 302.734 2.81439 1.65709 0
M  V30 3166 H 301.393 3.65342 -0.303426 0
M  V30 3167 H 301.041 4.62677 1.9733 0
M  V30 3168 H 300.741 5.83435 0.698397 0
M  V30 3169 H 302.265 5.88456 1.62947 0
M  V30 3170 H 303.679 5.69781 -0.634274 0
M  V30 3171 H 302.076 5.83203 -1.41399 0
M  V30 3172 H 303.146 4.48514 -1.84292 0
M  V30 3173 N 304.489 0.459591 1.5075 0
M  V30 3174 C 305.729 -0.09824 2.04164 0
M  V30 3175 C 306.093 -1.3801 1.33481 0
M  V30 3176 O 307.294 -2.01959 1.77387 0
M  V30 3177 C 305.565 -0.289467 3.56226 0
M  V30 3178 S 307.124 -0.807507 4.31306 0
M  V30 3179 H 303.942 -0.0213845 0.710678 0
M  V30 3180 H 306.544 0.624098 1.85271 0
M  V30 3181 H 305.248 0.649461 4.05229 0
M  V30 3182 H 304.779 -1.03825 3.79452 0
M  V30 3183 H 306.794 -2.0824 4.50389 0
M  V30 3184 N 305.967 -1.56429 0.191757 0
M  V30 3185 C 307.215 -1.97095 -0.447006 0
M  V30 3186 C 307.536 -1.07967 -1.62383 0
M  V30 3187 O 306.806 -0.150248 -1.95323 0
M  V30 3188 H 305.386 -0.727832 -0.168135 0
M  V30 3189 H 308.048 -1.92911 0.27771 0
M  V30 3190 H 307.144 -3.01848 -0.793371 0
M  V30 3191 N 307.445 0.0818655 -1.57387 0
M  V30 3192 C 308.393 1.11712 -2.04018 0
M  V30 3193 C 309.387 1.40683 -0.94364 0
M  V30 3194 O 310.593 1.40209 -1.12878 0
M  V30 3195 H 306.968 0.377542 -0.650358 0
M  V30 3196 H 308.939 0.697614 -2.90131 0
M  V30 3197 C 307.688 2.42537 -2.49141 0
M  V30 3198 H 307.011 2.21092 -3.33104 0
M  V30 3199 H 308.451 3.13446 -2.85531 0
M  V30 3200 C 306.91 3.0778 -1.37014 0
M  V30 3201 O 307.44 3.95436 -0.706621 0
M  V30 3202 N 305.646 2.68242 -1.11779 0
M  V30 3203 H 305.193 1.97052 -1.65917 0
M  V30 3204 H 305.151 3.1222 -0.369594 0
M  V30 3205 N 308.923 1.53595 0.353017 0
M  V30 3206 C 310.2 1.61002 1.11075 0
M  V30 3207 C 310.58 0.425356 2.0677 0
M  V30 3208 O 309.928 -0.583267 2.2093 0
M  V30 3209 C 310.138 2.96631 1.83877 0
M  V30 3210 C 311.486 3.51653 2.37961 0
M  V30 3211 O 312.51 2.98743 1.93987 0
M  V30 3212 O 311.369 4.44177 3.18386 0
M  V30 3213 H 308.463 0.650825 0.510251 0
M  V30 3214 H 311.009 1.6594 0.35527 0
M  V30 3215 H 309.781 3.74293 1.14108 0
M  V30 3216 H 309.404 2.95242 2.66304 0
M  V30 3217 N 310.401 -0.613514 1.45168 0
M  V30 3218 C 311.649 -1.36997 1.48581 0
M  V30 3219 C 311.97 -1.94589 0.126545 0
M  V30 3220 O 311.24 -1.76816 -0.843372 0
M  V30 3221 H 309.82 -0.508558 0.547154 0
M  V30 3222 H 312.482 -0.720853 1.81079 0
M  V30 3223 H 311.578 -2.1924 2.22127 0
M  V30 3224 N 311.879 -1.3236 -0.855495 0
M  V30 3225 C 313.125 -1.23054 -1.612 0
M  V30 3226 C 313.458 0.207404 -1.93089 0
M  V30 3227 O 312.733 1.14432 -1.57275 0
M  V30 3228 C 313.016 -2.08937 -2.93287 0
M  V30 3229 C 312.869 -3.61105 -2.68185 0
M  V30 3230 C 314.188 -1.94986 -3.94549 0
M  V30 3231 H 311.307 -0.448364 -0.584926 0
M  V30 3232 H 313.949 -1.62297 -0.987917 0
M  V30 3233 H 312.099 -1.75599 -3.46551 0
M  V30 3234 H 313.771 -4.04652 -2.21483 0
M  V30 3235 H 312.014 -3.83813 -2.02164 0
M  V30 3236 H 312.685 -4.16522 -3.62234 0
M  V30 3237 H 315.161 -2.24189 -3.5054 0
M  V30 3238 H 314.037 -2.57356 -4.84829 0
M  V30 3239 H 314.298 -0.917263 -4.3248 0
M  V30 3240 N 313.357 1.07166 -1.15556 0
M  V30 3241 C 314.585 1.83514 -0.955519 0
M  V30 3242 C 315 1.82163 0.49621 0
M  V30 3243 O 314.357 1.23441 1.34419 0
M  V30 3244 C 314.408 3.30515 -1.46432 0
M  V30 3245 O 314.129 3.31937 -2.85918 0
M  V30 3246 C 315.63 4.23625 -1.30603 0
M  V30 3247 H 312.85 0.578926 -0.339244 0
M  V30 3248 H 315.394 1.35265 -1.53374 0
M  V30 3249 H 313.549 3.76106 -0.928584 0
M  V30 3250 H 313.963 4.23794 -3.09029 0
M  V30 3251 H 315.437 5.24831 -1.71047 0
M  V30 3252 H 315.914 4.38485 -0.250441 0
M  V30 3253 H 316.52 3.83871 -1.83094 0
M  V30 3254 N 314.835 0.952656 1.25548 0
M  V30 3255 C 316.065 0.622592 1.96996 0
M  V30 3256 C 316.473 -0.809112 1.71026 0
M  V30 3257 O 315.816 -1.55258 0.981861 0
M  V30 3258 C 315.878 0.798946 3.5051 0
M  V30 3259 C 315.542 2.20744 4.00151 0
M  V30 3260 C 316.539 3.18394 4.11001 0
M  V30 3261 C 314.224 2.5311 4.33867 0
M  V30 3262 C 316.218 4.46504 4.54877 0
M  V30 3263 C 313.905 3.8145 4.7743 0
M  V30 3264 C 314.903 4.77959 4.87897 0
M  V30 3265 O 314.591 6.04012 5.30494 0
M  V30 3266 H 314.323 0.232503 0.634758 0
M  V30 3267 H 316.877 1.2789 1.60728 0
M  V30 3268 H 315.107 0.0854903 3.86605 0
M  V30 3269 H 316.796 0.47023 4.03167 0
M  V30 3270 H 317.562 2.94715 3.85186 0
M  V30 3271 H 313.441 1.78719 4.24948 0
M  V30 3272 H 316.985 5.21835 4.62962 0
M  V30 3273 H 312.882 4.04936 5.0269 0
M  V30 3274 H 313.65 6.0736 5.48685 0
M  V30 3275 N 316.313 -1.40141 0.720998 0
M  V30 3276 C 317.538 -2.05618 0.271258 0
M  V30 3277 C 317.963 -1.53978 -1.08039 0
M  V30 3278 O 317.321 -0.677463 -1.68167 0
M  V30 3279 C 317.369 -3.59609 0.267197 0
M  V30 3280 O 316.473 -4.05526 -0.749814 0
M  V30 3281 H 315.814 -0.651904 0.126162 0
M  V30 3282 H 318.344 -1.79439 0.982997 0
M  V30 3283 H 318.354 -4.0786 0.106744 0
M  V30 3284 H 317.029 -3.96559 1.25354 0
M  V30 3285 H 315.606 -3.68722 -0.556644 0
M  V30 3286 N 317.792 -0.46758 -1.50504 0
M  V30 3287 C 319.017 0.0886943 -2.0721 0
M  V30 3288 C 319.442 1.33057 -1.32956 0
M  V30 3289 O 318.8 1.77354 -0.376197 0
M  V30 3290 C 318.848 0.359202 -3.58806 0
M  V30 3291 O 317.952 1.44034 -3.8643 0
M  V30 3292 H 317.293 -0.0114349 -0.663902 0
M  V30 3293 H 319.823 -0.657613 -1.93744 0
M  V30 3294 H 319.833 0.600742 -4.03553 0
M  V30 3295 H 318.508 -0.548311 -4.1227 0
M  V30 3296 H 317.085 1.18638 -3.53524 0
M  V30 3297 N 319.27 1.56325 -0.20005 0
M  V30 3298 C 320.233 2.18084 0.705132 0
M  V30 3299 C 321.233 1.13666 1.1374 0
M  V30 3300 O 322.423 1.39023 1.04968 0
M  V30 3301 C 319.555 2.78689 1.96329 0
M  V30 3302 H 320.748 2.99435 0.167023 0
M  V30 3303 H 318.301 1.56221 0.0495725 0
M  V30 3304 H 319.036 2.0115 2.5438 0
M  V30 3305 H 318.821 3.55133 1.66202 0
M  V30 3306 H 320.311 3.26096 2.60866 0
M  V30 3307 N 320.748 -0.0735177 1.57428 0
M  V30 3308 C 321.988 -0.778363 1.89 0
M  V30 3309 C 322.352 -1.7483 0.793634 0
M  V30 3310 O 323.553 -2.49811 0.992367 0
M  V30 3311 C 321.824 -1.46929 3.25802 0
M  V30 3312 S 323.383 -2.20943 3.79117 0
M  V30 3313 H 320.201 -0.258874 0.662197 0
M  V30 3314 H 322.803 -0.0345338 1.95469 0
M  V30 3315 H 321.507 -0.749532 4.03497 0
M  V30 3316 H 321.038 -2.25258 3.22525 0
M  V30 3317 H 323.053 -3.47435 3.54265 0
M  V30 3318 N 322.226 -1.5378 -0.344866 0
M  V30 3319 C 323.176 -1.78057 -1.42407 0
M  V30 3320 C 324.16 -0.635732 -1.47808 0
M  V30 3321 O 325.352 -0.89508 -1.527 0
M  V30 3322 C 322.481 -1.99242 -2.79566 0
M  V30 3323 C 321.567 -3.19787 -2.78562 0
M  V30 3324 N 321.958 -4.41284 -2.47189 0
M  V30 3325 C 320.256 -3.2093 -3.0971 0
M  V30 3326 C 320.957 -5.23128 -2.54385 0
M  V30 3327 N 319.933 -4.59813 -2.89953 0
M  V30 3328 H 323.735 -2.69588 -1.17046 0
M  V30 3329 H 321.249 -1.52687 -0.553217 0
M  V30 3330 H 323.246 -2.14768 -3.57324 0
M  V30 3331 H 321.906 -1.08953 -3.05875 0
M  V30 3332 H 322.917 -4.68657 -2.20411 0
M  V30 3333 H 319.594 -2.40603 -3.41199 0
M  V30 3334 H 320.984 -6.30096 -2.333 0
M  V30 3335 N 323.704 0.605807 -1.45491 0
M  V30 3336 C 324.634 1.72709 -1.57143 0
M  V30 3337 C 325.615 1.6476 -0.422884 0
M  V30 3338 O 326.8 1.83132 -0.646247 0
M  V30 3339 C 323.93 3.11316 -1.53948 0
M  V30 3340 C 322.884 3.34077 -2.67537 0
M  V30 3341 C 322.21 4.72975 -2.49397 0
M  V30 3342 C 323.51 3.24158 -4.09535 0
M  V30 3343 H 325.204 1.63214 -2.51001 0
M  V30 3344 H 322.75 0.78379 -1.208 0
M  V30 3345 H 324.703 3.89557 -1.60696 0
M  V30 3346 H 323.427 3.21655 -0.566205 0
M  V30 3347 H 322.086 2.58227 -2.6022 0
M  V30 3348 H 321.734 4.8005 -1.50205 0
M  V30 3349 H 321.434 4.8916 -3.25571 0
M  V30 3350 H 322.958 5.53414 -2.58002 0
M  V30 3351 H 324.372 3.92271 -4.18086 0
M  V30 3352 H 322.769 3.51872 -4.86113 0
M  V30 3353 H 323.839 2.2157 -4.31317 0
M  V30 3354 N 325.182 1.32811 0.848464 0
M  V30 3355 C 326.598 1.11937 1.13764 0
M  V30 3356 C 326.798 -0.0960789 2.01271 0
M  V30 3357 O 325.854 -0.779165 2.40178 0
M  V30 3358 C 327.167 2.402 1.809 0
M  V30 3359 C 328.715 2.46016 1.93508 0
M  V30 3360 C 329.19 3.74215 2.64059 0
M  V30 3361 N 330.681 3.75232 2.71579 0
M  V30 3362 C 331.416 4.71134 3.26833 0
M  V30 3363 N 330.912 5.77406 3.8285 0
M  V30 3364 N 332.705 4.58623 3.24995 0
M  V30 3365 H 324.856 2.1073 0.265855 0
M  V30 3366 H 327.119 0.930671 0.180431 0
M  V30 3367 H 326.825 3.29093 1.24058 0
M  V30 3368 H 326.699 2.51628 2.81004 0
M  V30 3369 H 329.086 1.57577 2.49506 0
M  V30 3370 H 329.167 2.38536 0.923811 0
M  V30 3371 H 328.811 4.63031 2.08722 0
M  V30 3372 H 328.741 3.78968 3.65637 0
M  V30 3373 H 331.232 2.98423 2.31845 0
M  V30 3374 H 331.545 6.46632 4.23187 0
M  V30 3375 H 329.89 5.81152 3.81165 0
M  V30 3376 H 333.081 3.74762 2.80484 0
M  V30 3377 H 333.254 5.33535 3.67756 0
M  V30 3378 N 326.66 -1.06551 1.16123 0
M  V30 3379 C 327.607 -2.13961 0.865414 0
M  V30 3380 C 328.577 -1.65066 -0.185055 0
M  V30 3381 O 329.762 -1.90732 -0.05083 0
M  V30 3382 C 326.902 -3.43113 0.369776 0
M  V30 3383 C 326.015 -4.05756 1.48276 0
M  V30 3384 C 325.15 -5.22773 0.942414 0
M  V30 3385 C 324.189 -5.77395 2.03179 0
M  V30 3386 N 323.326 -6.85731 1.50721 0
M  V30 3387 H 328.166 -2.38605 1.78527 0
M  V30 3388 H 325.703 -1.17072 0.890646 0
M  V30 3389 H 327.661 -4.17151 0.0640643 0
M  V30 3390 H 326.291 -3.18695 -0.513143 0
M  V30 3391 H 325.343 -3.29292 1.9045 0
M  V30 3392 H 326.655 -4.42351 2.30493 0
M  V30 3393 H 325.809 -6.03827 0.589729 0
M  V30 3394 H 324.548 -4.87618 0.0895191 0
M  V30 3395 H 323.553 -4.94981 2.3932 0
M  V30 3396 H 324.778 -6.14603 2.8886 0
M  V30 3397 H 322.724 -6.52499 0.676811 0
M  V30 3398 H 322.641 -7.21254 2.26557 0
M  V30 3399 H 323.909 -7.7047 1.18303 0
M  V30 3400 N 328.138 -0.959301 -1.25041 0
M  V30 3401 C 329.101 -0.487677 -2.23952 0
M  V30 3402 C 330.101 0.41119 -1.55454 0
M  V30 3403 O 331.291 0.207825 -1.72956 0
M  V30 3404 C 328.423 0.294807 -3.39623 0
M  V30 3405 H 329.616 -1.36198 -2.67189 0
M  V30 3406 H 327.169 -0.743042 -1.37508 0
M  V30 3407 H 327.904 1.18658 -3.01813 0
M  V30 3408 H 327.689 -0.35012 -3.90534 0
M  V30 3409 H 329.179 0.614089 -4.1306 0
M  V30 3410 N 329.616 1.39756 -0.72842 0
M  V30 3411 C 330.844 2.04948 -0.283528 0
M  V30 3412 C 331.259 1.54908 1.0793 0
M  V30 3413 O 330.616 0.711135 1.68075 0
M  V30 3414 C 330.667 3.60498 -0.268957 0
M  V30 3415 O 330.388 4.08695 -1.57798 0
M  V30 3416 C 331.889 4.4288 0.192912 0
M  V30 3417 H 329.109 0.659243 -0.125056 0
M  V30 3418 H 331.653 1.78927 -0.990226 0
M  V30 3419 H 329.808 3.85444 0.388801 0
M  V30 3420 H 330.222 5.02977 -1.48709 0
M  V30 3421 H 331.696 5.51791 0.151952 0
M  V30 3422 H 332.173 4.21418 1.23708 0
M  V30 3423 H 332.779 4.23069 -0.435039 0
M  V30 3424 N 331.094 0.475555 1.50254 0
M  V30 3425 C 332.334 -0.0765802 2.04256 0
M  V30 3426 C 332.698 -1.36587 1.34937 0
M  V30 3427 O 333.899 -2.00066 1.79519 0
M  V30 3428 C 332.17 -0.251668 3.56513 0
M  V30 3429 S 333.729 -0.761716 4.32138 0
M  V30 3430 H 330.547 -0.0138456 0.710865 0
M  V30 3431 H 333.149 0.643714 1.84598 0
M  V30 3432 H 331.853 0.692404 4.04517 0
M  V30 3433 H 331.384 -0.997946 3.80532 0
M  V30 3434 H 333.399 -2.03451 4.52573 0
M  V30 3435 N 332.573 -1.56217 0.208337 0
M  V30 3436 C 333.503 -2.22694 -0.702116 0
M  V30 3437 C 334.484 -1.19432 -1.2112 0
M  V30 3438 O 335.669 -1.47978 -1.25762 0
M  V30 3439 C 332.799 -2.8966 -1.9161 0
M  V30 3440 C 331.753 -3.9928 -1.5414 0
M  V30 3441 C 331.079 -4.53476 -2.83308 0
M  V30 3442 C 332.379 -5.17012 -0.741339 0
M  V30 3443 H 334.073 -2.99034 -0.147898 0
M  V30 3444 H 331.619 -1.43831 -0.0696951 0
M  V30 3445 H 333.572 -3.34852 -2.55836 0
M  V30 3446 H 332.296 -2.10746 -2.49507 0
M  V30 3447 H 330.955 -3.54799 -0.922668 0
M  V30 3448 H 330.603 -3.71308 -3.39322 0
M  V30 3449 H 330.303 -5.27451 -2.58976 0
M  V30 3450 H 331.827 -5.01378 -3.485 0
M  V30 3451 H 333.241 -5.58667 -1.28699 0
M  V30 3452 H 331.638 -5.97137 -0.595627 0
M  V30 3453 H 332.708 -4.8423 0.254851 0
M  V30 3454 N 334.051 0.0651679 -1.57465 0
M  V30 3455 C 334.981 1.07693 -2.07182 0
M  V30 3456 C 335.962 1.39962 -0.966673 0
M  V30 3457 O 337.147 1.49475 -1.2398 0
M  V30 3458 C 334.277 2.3885 -2.52127 0
M  V30 3459 C 333.231 2.20917 -3.66579 0
M  V30 3460 C 332.557 3.57515 -3.97601 0
M  V30 3461 C 333.857 1.62493 -4.9638 0
M  V30 3462 H 335.551 0.663199 -2.91962 0
M  V30 3463 H 333.097 0.317569 -1.40455 0
M  V30 3464 H 335.05 3.09928 -2.85522 0
M  V30 3465 H 333.774 2.82215 -1.64384 0
M  V30 3466 H 332.433 1.52279 -3.33477 0
M  V30 3467 H 332.081 3.98463 -3.06979 0
M  V30 3468 H 331.781 3.46353 -4.74672 0
M  V30 3469 H 333.305 4.30013 -4.33499 0
M  V30 3470 H 334.719 2.23445 -5.27963 0
M  V30 3471 H 333.116 1.62009 -5.77818 0
M  V30 3472 H 334.186 0.587041 -4.81333 0
M  V30 3473 N 335.529 1.53961 0.336706 0
M  V30 3474 C 336.777 1.71197 1.07405 0
M  V30 3475 C 337.098 0.481475 1.88962 0
M  V30 3476 O 336.368 -0.504585 1.8929 0
M  V30 3477 H 334.948 0.631185 0.399517 0
M  V30 3478 H 337.61 1.91232 0.376323 0
M  V30 3479 H 336.706 2.58587 1.74755 0
M  V30 3480 N 337.007 -0.598083 1.45811 0
M  V30 3481 C 338.423 -0.919847 1.30426 0
M  V30 3482 C 338.623 -1.99759 0.264303 0
M  V30 3483 O 337.679 -2.50221 -0.338472 0
M  V30 3484 C 338.992 -1.35176 2.68603 0
M  V30 3485 C 340.54 -1.46546 2.76574 0
M  V30 3486 C 341.015 -1.9311 4.15298 0
M  V30 3487 N 342.506 -2.00328 4.1764 0
M  V30 3488 C 343.241 -2.37599 5.21856 0
M  V30 3489 N 342.737 -2.73771 6.36413 0
M  V30 3490 N 344.53 -2.38021 5.09218 0
M  V30 3491 H 336.681 0.114111 2.12093 0
M  V30 3492 H 338.944 -0.0116121 0.947929 0
M  V30 3493 H 338.65 -0.633969 3.45939 0
M  V30 3494 H 338.524 -2.3164 2.97696 0
M  V30 3495 H 340.911 -2.17415 1.99537 0
M  V30 3496 H 340.992 -0.483727 2.51185 0
M  V30 3497 H 340.636 -1.22824 4.92825 0
M  V30 3498 H 340.566 -2.92213 4.38086 0
M  V30 3499 H 343.057 -1.74925 3.34977 0
M  V30 3500 H 343.37 -3.0112 7.11721 0
M  V30 3501 H 341.715 -2.71445 6.39799 0
M  V30 3502 H 344.906 -2.09174 4.18765 0
M  V30 3503 H 345.079 -2.66741 5.90554 0
M  V30 3504 N 338.485 -1.33259 -0.841409 0
M  V30 3505 C 339.71 -1.2775 -1.63385 0
M  V30 3506 C 340.135 0.149188 -1.87507 0
M  V30 3507 O 339.493 1.10498 -1.43736 0
M  V30 3508 C 339.541 -2.05571 -2.96265 0
M  V30 3509 O 338.645 -1.41257 -3.87453 0
M  V30 3510 H 337.986 -0.439627 -0.497618 0
M  V30 3511 H 340.516 -1.75782 -1.04699 0
M  V30 3512 H 340.526 -2.16241 -3.45982 0
M  V30 3513 H 339.201 -3.09309 -2.7803 0
M  V30 3514 H 337.778 -1.39217 -3.45938 0
M  V30 3515 N 339.963 1.05934 -1.16686 0
M  V30 3516 C 341.212 1.78188 -0.945085 0
M  V30 3517 C 341.525 1.88338 0.528021 0
M  V30 3518 O 342.731 2.57258 0.867799 0
M  V30 3519 C 341.187 3.20277 -1.64167 0
M  V30 3520 C 340.795 3.18281 -3.15279 0
M  V30 3521 C 342.539 3.97039 -1.502 0
M  V30 3522 C 340.446 4.55112 -3.7766 0
M  V30 3523 H 339.376 0.667866 -0.349959 0
M  V30 3524 H 342.027 1.18794 -1.39858 0
M  V30 3525 H 340.409 3.79952 -1.11589 0
M  V30 3526 H 341.583 2.68167 -3.74731 0
M  V30 3527 H 339.898 2.55018 -3.29173 0
M  V30 3528 H 342.495 4.98194 -1.94183 0
M  V30 3529 H 342.838 4.13845 -0.451461 0
M  V30 3530 H 343.371 3.43894 -1.99954 0
M  V30 3531 H 340.11 4.43512 -4.82677 0
M  V30 3532 H 339.63 5.05406 -3.22994 0
M  V30 3533 H 341.309 5.24064 -3.79428 0
M  V30 3534 N 341.441 0.965919 1.2453 0
M  V30 3535 C 342.689 0.625593 1.92174 0
M  V30 3536 C 343.01 -0.841652 1.75901 0
M  V30 3537 O 342.28 -1.60061 1.12948 0
M  V30 3538 H 340.86 0.228388 0.71123 0
M  V30 3539 H 343.522 1.2266 1.51461 0
M  V30 3540 H 342.618 0.864653 2.99884 0
M  V30 3541 N 342.919 -1.39368 0.735821 0
M  V30 3542 C 343.849 -2.33234 0.111506 0
M  V30 3543 C 344.83 -1.53954 -0.723334 0
M  V30 3544 O 346.015 -1.82344 -0.668147 0
M  V30 3545 C 343.145 -3.38057 -0.795917 0
M  V30 3546 C 342.099 -4.2795 -0.065172 0
M  V30 3547 C 341.425 -5.23479 -1.08967 0
M  V30 3548 C 342.725 -5.10741 1.09273 0
M  V30 3549 H 344.419 -2.85692 0.895571 0
M  V30 3550 H 341.965 -1.37364 0.432109 0
M  V30 3551 H 343.918 -4.02675 -1.24221 0
M  V30 3552 H 342.642 -2.8404 -1.61211 0
M  V30 3553 H 341.301 -3.64813 0.361511 0
M  V30 3554 H 340.949 -4.65758 -1.89944 0
M  V30 3555 H 340.649 -5.84472 -0.605489 0
M  V30 3556 H 342.173 -5.90974 -1.53565 0
M  V30 3557 H 343.587 -5.68699 0.724841 0
M  V30 3558 H 341.984 -5.8088 1.50659 0
M  V30 3559 H 343.054 -4.45525 1.91404 0
M  V30 3560 N 344.397 -0.483516 -1.5 0
M  V30 3561 C 345.36 0.292965 -2.2732 0
M  V30 3562 C 346.36 0.909499 -1.32608 0
M  V30 3563 O 347.55 0.776745 -1.55924 0
M  V30 3564 C 344.682 1.41854 -3.09984 0
M  V30 3565 H 345.875 -0.385289 -2.97415 0
M  V30 3566 H 343.428 -0.237942 -1.54478 0
M  V30 3567 H 344.163 2.13148 -2.44414 0
M  V30 3568 H 343.948 0.982114 -3.79601 0
M  V30 3569 H 345.438 1.96597 -3.68429 0
M  V30 3570 N 345.875 1.56104 -0.216619 0
M  V30 3571 C 347.105 2.02269 0.420802 0
M  V30 3572 C 347.513 1.09575 1.5424 0
M  V30 3573 O 346.856 0.0967308 1.83445 0
M  V30 3574 C 346.918 3.44784 1.01806 0
M  V30 3575 C 346.582 4.56988 0.0325154 0
M  V30 3576 C 347.579 5.14225 -0.766055 0
M  V30 3577 C 345.264 5.02228 -0.0848092 0
M  V30 3578 C 347.258 6.15169 -1.6687 0
M  V30 3579 C 344.945 6.03011 -0.990994 0
M  V30 3580 C 345.943 6.59357 -1.78149 0
M  V30 3581 O 345.631 7.58179 -2.67245 0
M  V30 3582 H 345.363 0.667353 0.107776 0
M  V30 3583 H 347.917 2.02747 -0.329034 0
M  V30 3584 H 346.147 3.41359 1.81689 0
M  V30 3585 H 347.836 3.74626 1.56237 0
M  V30 3586 H 348.602 4.80126 -0.685836 0
M  V30 3587 H 344.481 4.58054 0.520349 0
M  V30 3588 H 348.025 6.59076 -2.28615 0
M  V30 3589 H 343.922 6.36532 -1.07225 0
M  V30 3590 H 344.69 7.75682 -2.61265 0
M  V30 3591 N 347.353 -0.0568162 1.57498 0
M  V30 3592 C 348.263 -1.08346 2.08083 0
M  V30 3593 C 349.279 -1.41439 1.01346 0
M  V30 3594 O 350.455 -1.51316 1.32912 0
M  V30 3595 C 347.52 -2.37352 2.52715 0
M  V30 3596 C 346.581 -2.11093 3.73816 0
M  V30 3597 C 345.814 -3.33949 4.1631 0
M  V30 3598 O 346.037 -4.43622 3.58547 0
M  V30 3599 O 344.971 -3.21279 5.08983 0
M  V30 3600 H 348.797 -0.683667 2.95905 0
M  V30 3601 H 346.382 -0.271965 1.46904 0
M  V30 3602 H 348.264 -3.13246 2.81877 0
M  V30 3603 H 346.939 -2.76681 1.68016 0
M  V30 3604 H 345.846 -1.32856 3.49714 0
M  V30 3605 H 347.179 -1.76637 4.59413 0
M  V30 3606 N 348.832 -1.54138 -0.328536 0
M  V30 3607 C 350.08 -1.71765 -1.06496 0
M  V30 3608 C 350.401 -0.49149 -1.88704 0
M  V30 3609 O 349.671 0.494539 -1.89555 0
M  V30 3610 H 348.251 -0.633295 -0.396164 0
M  V30 3611 H 350.913 -1.91429 -0.366176 0
M  V30 3612 H 350.009 -2.5951 -1.73381 0
M  V30 3613 N 350.31 0.590341 -1.46126 0
M  V30 3614 C 351.257 1.69994 -1.56111 0
M  V30 3615 C 352.227 1.61065 -0.405867 0
M  V30 3616 O 353.412 1.8039 -0.621613 0
M  V30 3617 C 350.552 3.08326 -1.55013 0
M  V30 3618 C 349.665 3.27936 -2.81215 0
M  V30 3619 C 348.8 4.56473 -2.71673 0
M  V30 3620 C 347.839 4.694 -3.92849 0
M  V30 3621 N 346.976 5.89254 -3.81738 0
M  V30 3622 H 351.816 1.60797 -2.50895 0
M  V30 3623 H 349.353 0.783799 -1.24479 0
M  V30 3624 H 351.311 3.88383 -1.52362 0
M  V30 3625 H 349.941 3.16439 -0.637667 0
M  V30 3626 H 348.993 2.41536 -2.93879 0
M  V30 3627 H 350.305 3.33357 -3.71045 0
M  V30 3628 H 349.459 5.44748 -2.67085 0
M  V30 3629 H 348.198 4.53477 -1.7947 0
M  V30 3630 H 347.203 3.79544 -3.97777 0
M  V30 3631 H 348.428 4.7418 -4.86138 0
M  V30 3632 H 346.374 5.87271 -2.92317 0
M  V30 3633 H 346.291 5.95911 -4.65217 0
M  V30 3634 H 347.559 6.79981 -3.81112 0
M  V30 3635 N 351.788 1.33704 0.83433 0
M  V30 3636 C 353.028 1.26754 1.60352 0
M  V30 3637 C 353.392 -0.163182 1.91305 0
M  V30 3638 O 354.593 -0.3567 2.66423 0
M  V30 3639 C 352.864 2.12262 2.8754 0
M  V30 3640 S 354.423 2.22549 3.78176 0
M  V30 3641 H 351.241 0.450879 0.549753 0
M  V30 3642 H 353.843 1.68788 0.986444 0
M  V30 3643 H 352.547 3.15238 2.62779 0
M  V30 3644 H 352.078 1.71082 3.54252 0
M  V30 3645 H 354.093 1.3899 4.76336 0
M  V30 3646 N 353.266 -1.05314 1.17247 0
M  V30 3647 C 354.515 -1.77685 0.954521 0
M  V30 3648 C 354.828 -1.88616 -0.518025 0
M  V30 3649 O 356.034 -2.57714 -0.854144 0
M  V30 3650 C 354.49 -3.19402 1.65863 0
M  V30 3651 C 354.098 -3.16605 3.16963 0
M  V30 3652 C 355.842 -3.96237 1.52303 0
M  V30 3653 C 353.749 -4.53103 3.80068 0
M  V30 3654 H 352.679 -0.666 0.353496 0
M  V30 3655 H 355.33 -1.1805 1.40486 0
M  V30 3656 H 353.712 -3.79355 1.13602 0
M  V30 3657 H 354.886 -2.66176 3.76148 0
M  V30 3658 H 353.201 -2.53268 3.30521 0
M  V30 3659 H 355.798 -4.97157 1.96822 0
M  V30 3660 H 356.141 -4.136 0.473401 0
M  V30 3661 H 356.674 -3.42829 2.01775 0
M  V30 3662 H 353.413 -4.40946 4.85023 0
M  V30 3663 H 352.933 -5.03686 3.2567 0
M  V30 3664 H 354.612 -5.22045 3.82202 0
M  V30 3665 N 354.744 -0.972509 -1.24016 0
M  V30 3666 C 355.691 -0.505969 -2.25186 0
M  V30 3667 C 356.661 0.451009 -1.5986 0
M  V30 3668 O 357.846 0.360307 -1.87367 0
M  V30 3669 C 354.986 0.193089 -3.44559 0
M  V30 3670 C 354.099 -0.803222 -4.24467 0
M  V30 3671 C 353.234 -0.0797793 -5.3114 0
M  V30 3672 C 352.273 -1.06583 -6.02749 0
M  V30 3673 N 351.41 -0.372074 -7.01113 0
M  V30 3674 H 356.25 -1.37351 -2.64459 0
M  V30 3675 H 353.787 -0.688419 -1.29997 0
M  V30 3676 H 355.745 0.615125 -4.1264 0
M  V30 3677 H 354.375 1.02455 -3.06109 0
M  V30 3678 H 353.427 -1.34368 -3.55878 0
M  V30 3679 H 354.739 -1.55494 -4.73944 0
M  V30 3680 H 353.893 0.400015 -6.0538 0
M  V30 3681 H 352.632 0.704597 -4.82583 0
M  V30 3682 H 351.637 -1.55645 -5.27309 0
M  V30 3683 H 352.862 -1.85074 -6.53395 0
M  V30 3684 H 350.808 0.393238 -6.5482 0
M  V30 3685 H 350.725 -1.06258 -7.48495 0
M  V30 3686 H 351.993 0.0855932 -7.79453 0
M  V30 3687 N 356.222 1.38976 -0.743202 0
M  V30 3688 C 357.185 2.28901 -0.117014 0
M  V30 3689 C 358.185 1.46698 0.658503 0
M  V30 3690 O 359.375 1.67274 0.486305 0
M  V30 3691 C 356.507 3.30309 0.84315 0
M  V30 3692 H 357.7 2.8578 -0.909373 0
M  V30 3693 H 355.253 1.47761 -0.509547 0
M  V30 3694 H 355.988 2.785 1.66157 0
M  V30 3695 H 355.773 3.91029 0.289594 0
M  V30 3696 H 357.263 3.97577 1.2776 0
M  V30 3697 N 357.7 0.491464 1.49741 0
M  V30 3698 C 358.647 -0.292027 2.28945 0
M  V30 3699 C 359.617 -0.968973 1.34908 0
M  V30 3700 O 360.802 -0.97748 1.6386 0
M  V30 3701 C 357.942 -1.35617 3.17336 0
M  V30 3702 C 357.055 -0.691957 4.26422 0
M  V30 3703 C 356.19 -1.73572 5.02042 0
M  V30 3704 C 355.229 -1.05286 6.02977 0
M  V30 3705 N 354.366 -2.0404 6.71798 0
M  V30 3706 H 359.206 0.389654 2.95442 0
M  V30 3707 H 356.743 0.204003 1.45679 0
M  V30 3708 H 358.701 -1.98502 3.66951 0
M  V30 3709 H 357.331 -2.00674 2.52844 0
M  V30 3710 H 356.383 0.0499523 3.80367 0
M  V30 3711 H 357.695 -0.153946 4.98562 0
M  V30 3712 H 356.849 -2.43987 5.55478 0
M  V30 3713 H 355.588 -2.30757 4.29654 0
M  V30 3714 H 354.593 -0.334446 5.48782 0
M  V30 3715 H 355.818 -0.487636 6.77347 0
M  V30 3716 H 353.764 -2.60205 6.02187 0
M  V30 3717 H 353.681 -1.55279 7.39881 0
M  V30 3718 H 354.949 -2.73772 7.29842 0
M  V30 3719 N 359.178 -1.55987 0.224894 0
M  V30 3720 C 360.403 -2.03232 -0.41369 0
M  V30 3721 C 360.828 -1.10359 -1.52323 0
M  V30 3722 O 360.186 -0.092395 -1.81064 0
M  V30 3723 C 360.234 -3.48682 -0.919405 0
M  V30 3724 O 359.338 -3.58947 -2.03054 0
M  V30 3725 H 358.679 -0.657428 -0.0931903 0
M  V30 3726 H 361.209 -2.01679 0.34451 0
M  V30 3727 H 361.219 -3.8907 -1.22835 0
M  V30 3728 H 359.894 -4.15761 -0.107339 0
M  V30 3729 H 358.471 -3.30448 -1.72796 0
M  V30 3730 N 360.656 0.0484629 -1.57525 0
M  V30 3731 C 361.896 0.748196 -1.90214 0
M  V30 3732 C 362.26 1.73545 -0.821347 0
M  V30 3733 O 363.461 2.48201 -1.03198 0
M  V30 3734 C 361.732 1.41727 -3.28098 0
M  V30 3735 S 363.291 2.14884 -3.82584 0
M  V30 3736 H 360.109 0.248307 -0.666232 0
M  V30 3737 H 362.711 0.00343188 -1.955 0
M  V30 3738 H 361.415 0.685244 -4.04639 0
M  V30 3739 H 360.946 2.20099 -3.26068 0
M  V30 3740 H 362.961 3.41755 -3.59747 0
M  V30 3741 N 362.134 1.5431 0.320358 0
M  V30 3742 C 363.044 1.86946 1.41734 0
M  V30 3743 C 364.06 0.761689 1.56443 0
M  V30 3744 O 365.236 1.05629 1.71477 0
M  V30 3745 C 362.301 2.09293 2.76401 0
M  V30 3746 C 361.362 3.33082 2.70841 0
M  V30 3747 C 360.595 3.54353 3.99086 0
M  V30 3748 O 360.818 2.79002 4.97508 0
M  V30 3749 O 359.752 4.47838 4.0215 0
M  V30 3750 H 363.578 2.80232 1.17062 0
M  V30 3751 H 361.163 1.40255 0.514673 0
M  V30 3752 H 363.045 2.25303 3.56113 0
M  V30 3753 H 361.72 1.19194 3.00956 0
M  V30 3754 H 360.627 3.22454 1.89668 0
M  V30 3755 H 361.96 4.23249 2.5124 0
M  V30 3756 N 363.613 -0.582584 1.46437 0
M  V30 3757 C 364.89 -1.34276 1.4223 0
M  V30 3758 C 365.27 -2.10835 0.10583 0
M  V30 3759 O 364.618 -2.09485 -0.912596 0
M  V30 3760 C 364.828 -2.26865 2.65204 0
M  V30 3761 C 366.176 -2.88691 3.11356 0
M  V30 3762 O 367.2 -2.37178 2.65753 0
M  V30 3763 O 366.059 -3.82255 3.90568 0
M  V30 3764 H 363.153 -0.603326 0.565621 0
M  V30 3765 H 365.699 -0.603591 1.58603 0
M  V30 3766 H 364.471 -1.69724 3.52576 0
M  V30 3767 H 364.094 -3.08122 2.5129 0
M  V30 3768 N 365.091 -1.34144 -0.827227 0
M  V30 3769 C 366.34 -1.25602 -1.5782 0
M  V30 3770 C 366.653 0.173445 -1.94829 0
M  V30 3771 O 367.859 0.380984 -2.68814 0
M  V30 3772 C 366.315 -2.20151 -2.84713 0
M  V30 3773 C 365.923 -3.68331 -2.55021 0
M  V30 3774 C 367.667 -2.20508 -3.62735 0
M  V30 3775 C 365.574 -4.54762 -3.78082 0
M  V30 3776 H 364.504 -0.466573 -0.592306 0
M  V30 3777 H 367.155 -1.59283 -0.911116 0
M  V30 3778 H 365.537 -1.79417 -3.53023 0
M  V30 3779 H 366.711 -4.17577 -1.94849 0
M  V30 3780 H 365.026 -3.7038 -1.90283 0
M  V30 3781 H 367.623 -2.82306 -4.54101 0
M  V30 3782 H 367.966 -1.20322 -3.98533 0
M  V30 3783 H 368.499 -2.59664 -3.01362 0
M  V30 3784 H 365.238 -5.55867 -3.47407 0
M  V30 3785 H 364.758 -4.10254 -4.37552 0
M  V30 3786 H 366.437 -4.69153 -4.45538 0
M  V30 3787 N 366.569 1.04691 -1.17803 0
M  V30 3788 C 367.501 2.12571 -0.857097 0
M  V30 3789 C 368.514 1.62174 0.142647 0
M  V30 3790 O 369.703 1.78301 -0.0843387 0
M  V30 3791 C 366.803 3.37915 -0.258216 0
M  V30 3792 C 365.976 4.1757 -1.30207 0
M  V30 3793 C 365.035 5.2125 -0.720029 0
M  V30 3794 O 364.061 5.51888 -1.39314 0
M  V30 3795 N 365.263 5.78466 0.485507 0
M  V30 3796 H 368.028 2.40698 -1.78562 0
M  V30 3797 H 365.589 1.20831 -1.07757 0
M  V30 3798 H 367.581 4.04442 0.144584 0
M  V30 3799 H 366.151 3.07281 0.574199 0
M  V30 3800 H 365.371 3.46458 -1.88043 0
M  V30 3801 H 366.659 4.67586 -2.00601 0
M  V30 3802 H 366.057 5.55866 1.05022 0
M  V30 3803 H 364.614 6.4649 0.830307 0
M  V30 3804 N 368.047 0.979072 1.23499 0
M  V30 3805 C 369.287 0.655228 1.93613 0
M  V30 3806 C 369.651 -0.796336 1.74707 0
M  V30 3807 O 370.852 -1.23094 2.38959 0
M  V30 3808 C 369.123 1.03337 3.42135 0
M  V30 3809 S 370.682 0.825793 4.3096 0
M  V30 3810 H 367.5 0.240004 0.669267 0
M  V30 3811 H 370.102 1.25843 1.49612 0
M  V30 3812 H 368.806 2.08646 3.53405 0
M  V30 3813 H 368.337 0.421397 3.91137 0
M  V30 3814 H 370.352 -0.290991 4.95346 0
M  V30 3815 N 369.525 -1.3858 0.750561 0
M  V30 3816 C 370.753 -2.04471 0.316098 0
M  V30 3817 C 371.168 -1.56606 -1.05452 0
M  V30 3818 O 370.525 -0.737784 -1.66922 0
M  V30 3819 C 370.576 -3.60025 0.326275 0
M  V30 3820 O 370.297 -4.06133 1.6428 0
M  V30 3821 C 371.798 -4.43131 -0.122429 0
M  V30 3822 H 369.018 -0.65717 0.135528 0
M  V30 3823 H 371.562 -1.77329 1.01857 0
M  V30 3824 H 369.717 -3.86014 -0.327431 0
M  V30 3825 H 370.131 -5.00547 1.56693 0
M  V30 3826 H 371.605 -5.51963 -0.0641473 0
M  V30 3827 H 372.082 -4.23333 -1.16988 0
M  V30 3828 H 372.688 -4.22323 0.50229 0
M  V30 3829 N 371.003 -0.499398 -1.49478 0
M  V30 3830 C 372.251 0.0455996 -2.02049 0
M  V30 3831 C 372.572 1.37633 -1.38138 0
M  V30 3832 O 371.842 1.8842 -0.536166 0
M  V30 3833 H 370.422 0.0198416 -0.746736 0
M  V30 3834 H 373.084 -0.656274 -1.83519 0
M  V30 3835 H 372.18 0.176445 -3.11601 0
M  V30 3836 N 372.481 1.55866 -0.233164 0
M  V30 3837 C 373.729 1.9821 0.394593 0
M  V30 3838 C 374.05 1.12234 1.59463 0
M  V30 3839 O 373.32 0.201981 1.94856 0
M  V30 3840 H 371.9 0.732034 0.148778 0
M  V30 3841 H 374.562 1.92107 -0.32876 0
M  V30 3842 H 373.658 3.03845 0.713063 0
M  V30 3843 N 373.959 -0.0401083 1.57549 0
M  V30 3844 C 374.906 -1.04413 2.05831 0
M  V30 3845 C 375.876 -1.36585 0.945184 0
M  V30 3846 O 377.061 -1.47112 1.21502 0
M  V30 3847 C 374.201 -2.34336 2.53339 0
M  V30 3848 C 373.314 -2.08419 3.78398 0
M  V30 3849 C 372.449 -3.32133 4.14561 0
M  V30 3850 C 371.488 -3.01721 5.3257 0
M  V30 3851 N 370.625 -4.17855 5.64218 0
M  V30 3852 H 375.465 -0.625442 2.91363 0
M  V30 3853 H 373.002 -0.297218 1.44066 0
M  V30 3854 H 374.96 -3.10234 2.78946 0
M  V30 3855 H 373.59 -2.73948 1.7074 0
M  V30 3856 H 372.642 -1.23069 3.59942 0
M  V30 3857 H 373.954 -1.81978 4.64419 0
M  V30 3858 H 373.108 -4.16406 4.41238 0
M  V30 3859 H 371.847 -3.61678 3.2717 0
M  V30 3860 H 370.852 -2.15849 5.05657 0
M  V30 3861 H 372.077 -2.73466 6.21605 0
M  V30 3862 H 370.023 -4.47372 4.79786 0
M  V30 3863 H 369.94 -3.94798 6.44725 0
M  V30 3864 H 371.208 -5.03033 5.95465 0
M  V30 3865 N 375.437 -1.54477 -0.31217 0
M  V30 3866 C 376.384 -1.84655 -1.38461 0
M  V30 3867 C 377.354 -0.694536 -1.50882 0
M  V30 3868 O 378.539 -0.942081 -1.6592 0
M  V30 3869 C 375.679 -2.0896 -2.74645 0
M  V30 3870 C 374.792 -3.36618 -2.70763 0
M  V30 3871 C 373.927 -3.50824 -3.98868 0
M  V30 3872 C 372.966 -4.72315 -3.89339 0
M  V30 3873 N 372.103 -4.83387 -5.09197 0
M  V30 3874 H 376.943 -2.76142 -1.12026 0
M  V30 3875 H 374.48 -1.36748 -0.542065 0
M  V30 3876 H 376.438 -2.21045 -3.53829 0
M  V30 3877 H 375.068 -1.20752 -2.99364 0
M  V30 3878 H 374.12 -3.33211 -1.83506 0
M  V30 3879 H 375.432 -4.25917 -2.59608 0
M  V30 3880 H 374.586 -3.62513 -4.86486 0
M  V30 3881 H 373.325 -2.59638 -4.12843 0
M  V30 3882 H 372.33 -4.6067 -3.00105 0
M  V30 3883 H 373.555 -5.64897 -3.76919 0
M  V30 3884 H 371.501 -3.9512 -5.23657 0
M  V30 3885 H 371.418 -5.66669 -5.00422 0
M  V30 3886 H 372.686 -4.9942 -5.98498 0
M  V30 3887 N 376.915 0.57481 -1.46744 0
M  V30 3888 C 378.155 1.34369 -1.54027 0
M  V30 3889 C 378.519 1.91051 -0.190642 0
M  V30 3890 O 379.72 2.68444 -0.138255 0
M  V30 3891 C 377.991 2.43706 -2.61423 0
M  V30 3892 S 379.55 3.30915 -2.88167 0
M  V30 3893 H 376.368 0.45768 -0.544105 0
M  V30 3894 H 378.97 0.659959 -1.84024 0
M  V30 3895 H 377.674 2.0047 -3.58106 0
M  V30 3896 H 377.205 3.16842 -2.33184 0
M  V30 3897 H 379.22 4.42742 -2.24039 0
M  V30 3898 N 378.394 1.34581 0.820102 0
M  V30 3899 C 379.324 1.29038 1.94606 0
M  V30 3900 C 380.305 0.1673 1.69275 0
M  V30 3901 O 381.49 0.360112 1.90832 0
M  V30 3902 C 378.62 1.04793 3.31113 0
M  V30 3903 C 377.574 2.13597 3.70891 0
M  V30 3904 C 376.9 1.74537 5.05412 0
M  V30 3905 C 378.2 3.55451 3.8269 0
M  V30 3906 H 379.894 2.23248 1.99501 0
M  V30 3907 H 377.44 1.0747 0.958449 0
M  V30 3908 H 379.393 0.995592 4.0947 0
M  V30 3909 H 378.117 0.0702565 3.26524 0
M  V30 3910 H 376.776 2.17905 2.9481 0
M  V30 3911 H 376.424 0.754226 4.97313 0
M  V30 3912 H 376.124 2.47361 5.32997 0
M  V30 3913 H 377.648 1.70803 5.86224 0
M  V30 3914 H 379.062 3.5354 4.51312 0
M  V30 3915 H 377.459 4.26922 4.21732 0
M  V30 3916 H 378.529 3.92587 2.84611 0
M  V30 3917 N 379.872 -1.04064 1.18357 0
M  V30 3918 C 381.118 -1.77658 0.990412 0
M  V30 3919 C 381.473 -1.86446 -0.474944 0
M  V30 3920 O 380.766 -1.36153 -1.34807 0
M  V30 3921 C 380.96 -3.20634 1.57888 0
M  V30 3922 C 380.789 -3.25782 3.09994 0
M  V30 3923 C 379.559 -3.34411 3.7881 0
M  V30 3924 C 381.757 -3.13791 4.0748 0
M  V30 3925 N 379.739 -3.28809 5.18418 0
M  V30 3926 C 381.11 -3.15689 5.33611 0
M  V30 3927 C 383.165 -2.97833 3.98998 0
M  V30 3928 C 381.868 -3.03268 6.52243 0
M  V30 3929 C 383.894 -2.86759 5.17227 0
M  V30 3930 C 383.256 -2.893 6.4225 0
M  V30 3931 H 379.355 -0.661901 0.416427 0
M  V30 3932 H 381.939 -1.23968 1.50133 0
M  V30 3933 H 380.11 -3.7267 1.09414 0
M  V30 3934 H 381.842 -3.82525 1.32124 0
M  V30 3935 H 378.597 -3.40144 3.29543 0
M  V30 3936 H 379.021 -3.29448 5.91433 0
M  V30 3937 H 383.663 -2.94698 3.03171 0
M  V30 3938 H 381.381 -3.05156 7.48268 0
M  V30 3939 H 384.967 -2.75465 5.12455 0
M  V30 3940 H 383.847 -2.80818 7.32196 0
M  V30 3941 N 381.35 -0.985608 -1.22978 0
M  V30 3942 C 382.627 -0.573599 -1.87001 0
M  V30 3943 C 383.007 0.949213 -1.88555 0
M  V30 3944 O 382.355 1.82811 -1.37086 0
M  V30 3945 C 382.565 -1.18564 -3.28243 0
M  V30 3946 C 383.913 -1.28163 -4.04796 0
M  V30 3947 O 384.937 -1.13949 -3.37482 0
M  V30 3948 O 383.796 -1.50832 -5.25273 0
M  V30 3949 H 380.89 -0.193868 -0.803955 0
M  V30 3950 H 383.436 -1.08102 -1.30813 0
M  V30 3951 H 382.208 -2.22758 -3.21706 0
M  V30 3952 H 381.831 -0.663363 -3.92027 0
M  V30 3953 N 382.828 1.3818 -0.7579 0
M  V30 3954 C 384.075 2.00019 -0.315985 0
M  V30 3955 C 384.403 1.60163 1.10355 0
M  V30 3956 O 383.658 0.83264 1.77103 0
M  V30 3957 C 383.957 3.55252 -0.391218 0
M  V30 3958 C 383.623 4.14834 -1.76702 0
M  V30 3959 C 382.285 4.30821 -2.14353 0
M  V30 3960 C 384.637 4.47658 -2.66931 0
M  V30 3961 C 381.965 4.76928 -3.41696 0
M  V30 3962 C 384.317 4.95184 -3.93669 0
M  V30 3963 C 382.981 5.09377 -4.31383 0
M  V30 3964 H 382.251 0.731923 -0.115627 0
M  V30 3965 H 384.898 1.65161 -0.969223 0
M  V30 3966 H 383.203 3.90273 0.34558 0
M  V30 3967 H 384.9 4.00988 -0.030805 0
M  V30 3968 H 381.49 4.02808 -1.46435 0
M  V30 3969 H 385.674 4.34904 -2.39106 0
M  V30 3970 H 380.93 4.86103 -3.70829 0
M  V30 3971 H 385.104 5.19551 -4.63724 0
M  V30 3972 H 382.731 5.44865 -5.30119 0
M  V30 3973 N 384.306 0.507319 1.49211 0
M  V30 3974 C 385.253 -0.267728 2.29242 0
M  V30 3975 C 386.223 -0.954609 1.35928 0
M  V30 3976 O 387.408 -0.960046 1.64887 0
M  V30 3977 C 384.548 -1.32243 3.18756 0
M  V30 3978 C 383.661 -0.64669 4.27132 0
M  V30 3979 C 382.796 -1.68238 5.03855 0
M  V30 3980 C 381.835 -0.98885 6.0406 0
M  V30 3981 N 380.972 -1.96903 6.73924 0
M  V30 3982 H 385.812 0.420968 2.95012 0
M  V30 3983 H 383.349 0.219443 1.45454 0
M  V30 3984 H 385.307 -1.94599 3.69036 0
M  V30 3985 H 383.937 -1.97981 2.54958 0
M  V30 3986 H 382.989 0.0902926 3.80293 0
M  V30 3987 H 384.301 -0.101058 4.98698 0
M  V30 3988 H 383.455 -2.38081 5.58034 0
M  V30 3989 H 382.194 -2.26187 4.32077 0
M  V30 3990 H 381.199 -0.276222 5.49106 0
M  V30 3991 H 382.424 -0.415767 6.77826 0
M  V30 3992 H 380.37 -2.53803 6.04913 0
M  V30 3993 H 380.287 -1.47423 7.41487 0
M  V30 3994 H 381.555 -2.66015 7.32705 0
M  V30 3995 N 385.784 -1.5574 0.241426 0
M  V30 3996 C 387.03 -1.99104 -0.385406 0
M  V30 3997 C 387.363 -1.1293 -1.57988 0
M  V30 3998 O 386.638 -0.191449 -1.93555 0
M  V30 3999 C 386.921 -3.51087 -0.800616 0
M  V30 4000 C 386.774 -4.48028 0.398874 0
M  V30 4001 C 388.093 -4.08015 -1.64959 0
M  V30 4002 H 385.212 -0.723848 -0.138614 0
M  V30 4003 H 387.854 -1.86903 0.341642 0
M  V30 4004 H 386.004 -3.61615 -1.4201 0
M  V30 4005 H 387.676 -4.49487 1.03726 0
M  V30 4006 H 385.919 -4.21077 1.04293 0
M  V30 4007 H 386.59 -5.51962 0.0651056 0
M  V30 4008 H 389.066 -4.00555 -1.12672 0
M  V30 4009 H 387.942 -5.14635 -1.90898 0
M  V30 4010 H 388.203 -3.56131 -2.61961 0
M  V30 4011 N 387.262 0.0317525 -1.57568 0
M  V30 4012 C 388.51 0.721676 -1.88776 0
M  V30 4013 C 388.831 1.76039 -0.838772 0
M  V30 4014 O 388.101 1.95482 0.127935 0
M  V30 4015 H 386.681 0.269534 -0.696678 0
M  V30 4016 H 389.343 -0.00165879 -1.949 0
M  V30 4017 H 388.439 1.21293 -2.87566 0
M  V30 4018 N 388.74 1.54641 0.303973 0
M  V30 4019 C 390.156 1.45788 0.649463 0
M  V30 4020 C 390.356 0.64666 1.90842 0
M  V30 4021 O 389.412 0.153183 2.52035 0
M  V30 4022 C 390.725 2.89718 0.805227 0
M  V30 4023 C 392.273 2.99742 0.901305 0
M  V30 4024 C 392.748 4.44863 1.08909 0
M  V30 4025 N 394.239 4.48559 1.15536 0
M  V30 4026 C 394.974 5.58026 1.3189 0
M  V30 4027 N 394.47 6.77422 1.45161 0
M  V30 4028 N 396.263 5.45708 1.34755 0
M  V30 4029 H 388.414 2.05854 -0.523237 0
M  V30 4030 H 390.677 0.932186 -0.172431 0
M  V30 4031 H 390.383 3.51666 -0.0489108 0
M  V30 4032 H 390.257 3.36964 1.69513 0
M  V30 4033 H 392.644 2.3791 1.74593 0
M  V30 4034 H 392.725 2.55797 -0.0125531 0
M  V30 4035 H 392.369 5.07288 0.249241 0
M  V30 4036 H 392.299 4.86436 2.01713 0
M  V30 4037 H 394.79 3.6254 1.06646 0
M  V30 4038 H 395.103 7.56604 1.57387 0
M  V30 4039 H 393.448 6.80292 1.42223 0
M  V30 4040 H 396.639 4.51378 1.23996 0
M  V30 4041 H 396.812 6.3107 1.47157 0
M  V30 4042 N 390.218 -0.567019 1.47046 0
M  V30 4043 C 391.466 -1.322 1.52864 0
M  V30 4044 C 391.787 -1.94088 0.188388 0
M  V30 4045 O 391.057 -1.7941 -0.786693 0
M  V30 4046 H 389.637 -0.490894 0.563056 0
M  V30 4047 H 392.299 -0.662879 1.83281 0
M  V30 4048 H 391.395 -2.12062 2.2899 0
M  V30 4049 N 391.696 -1.35014 -0.812953 0
M  V30 4050 C 393.112 -1.14914 -1.10757 0
M  V30 4051 C 393.312 0.0426818 -2.01455 0
M  V30 4052 O 392.368 0.715212 -2.42159 0
M  V30 4053 C 393.681 -2.44911 -1.74468 0
M  V30 4054 C 395.229 -2.5106 -1.86917 0
M  V30 4055 C 395.704 -3.81085 -2.54044 0
M  V30 4056 N 397.195 -3.82301 -2.61535 0
M  V30 4057 C 397.93 -4.79634 -3.14227 0
M  V30 4058 N 397.426 -5.87353 -3.67407 0
M  V30 4059 N 399.219 -4.67078 -3.12721 0
M  V30 4060 H 391.37 -2.1136 -0.20989 0
M  V30 4061 H 393.633 -0.935128 -0.155692 0
M  V30 4062 H 393.339 -3.32267 -1.15289 0
M  V30 4063 H 393.213 -2.58989 -2.74234 0
M  V30 4064 H 395.6 -1.64137 -2.45241 0
M  V30 4065 H 395.681 -2.40901 -0.860242 0
M  V30 4066 H 395.325 -4.68402 -1.96372 0
M  V30 4067 H 395.255 -3.88529 -3.55461 0
M  V30 4068 H 397.746 -3.04465 -2.23851 0
M  V30 4069 H 398.059 -6.57624 -4.05894 0
M  V30 4070 H 396.404 -5.91054 -3.65623 0
M  V30 4071 H 399.595 -3.82067 -2.70449 0
M  V30 4072 H 399.768 -5.43098 -3.53481 0
M  V30 4073 N 393.175 1.03435 -1.18907 0
M  V30 4074 C 394.415 1.78302 -0.999391 0
M  V30 4075 C 394.779 1.86353 0.462219 0
M  V30 4076 O 395.98 2.57489 0.771543 0
M  V30 4077 C 394.251 3.17362 -1.64365 0
M  V30 4078 S 395.81 4.08488 -1.6026 0
M  V30 4079 H 392.628 0.613861 -0.358742 0
M  V30 4080 H 395.23 1.23979 -1.51161 0
M  V30 4081 H 393.934 3.09116 -2.69955 0
M  V30 4082 H 393.465 3.76762 -1.13199 0
M  V30 4083 H 395.48 4.92274 -0.622932 0
M  V30 4084 N 394.653 0.992116 1.22453 0
M  V30 4085 C 395.878 0.685644 1.95739 0
M  V30 4086 C 396.303 -0.743 1.72804 0
M  V30 4087 O 395.661 -1.50778 1.00676 0
M  V30 4088 C 395.709 0.996293 3.46564 0
M  V30 4089 O 394.813 0.0945512 4.12292 0
M  V30 4090 H 394.154 0.256694 0.612376 0
M  V30 4091 H 396.684 1.32888 1.5557 0
M  V30 4092 H 396.694 0.93781 3.97076 0
M  V30 4093 H 395.369 2.03733 3.62582 0
M  V30 4094 H 393.946 0.208451 3.72317 0
M  V30 4095 N 396.131 -1.37776 0.765217 0
M  V30 4096 C 397.061 -2.32945 0.160953 0
M  V30 4097 C 398.042 -1.55454 -0.690516 0
M  V30 4098 O 399.227 -1.83721 -0.629318 0
M  V30 4099 C 396.357 -3.39669 -0.724031 0
M  V30 4100 C 395.311 -4.27992 0.0256173 0
M  V30 4101 C 394.637 -5.25673 -0.978383 0
M  V30 4102 C 395.937 -5.08309 1.20082 0
M  V30 4103 H 397.631 -2.83728 0.955969 0
M  V30 4104 H 395.177 -1.36416 0.461149 0
M  V30 4105 H 397.13 -4.05219 -1.15652 0
M  V30 4106 H 395.854 -2.87396 -1.5515 0
M  V30 4107 H 394.513 -3.63964 0.438812 0
M  V30 4108 H 394.161 -4.69682 -1.80022 0
M  V30 4109 H 393.861 -5.85625 -0.481378 0
M  V30 4110 H 395.385 -5.94098 -1.40995 0
M  V30 4111 H 396.799 -5.67034 0.845307 0
M  V30 4112 H 395.196 -5.77554 1.62947 0
M  V30 4113 H 396.266 -4.41365 2.00811 0
M  V30 4114 N 397.609 -0.515225 -1.4894 0
M  V30 4115 C 398.849 0.0223983 -2.04388 0
M  V30 4116 C 399.213 1.32961 -1.38511 0
M  V30 4117 O 400.414 1.95236 -1.8476 0
M  V30 4118 C 398.685 0.157056 -3.57055 0
M  V30 4119 S 400.244 0.646875 -4.34006 0
M  V30 4120 H 397.062 -0.00500662 -0.710982 0
M  V30 4121 H 399.664 -0.69243 -1.82827 0
M  V30 4122 H 398.368 -0.799412 -4.02539 0
M  V30 4123 H 397.899 0.896704 -3.83044 0
M  V30 4124 H 399.914 1.91381 -4.57808 0
M  V30 4125 N 399.087 1.5561 -0.249682 0
M  V30 4126 C 400.364 1.90932 0.424761 0
M  V30 4127 C 400.744 1.17078 1.75658 0
M  V30 4128 O 400.092 0.289176 2.26663 0
M  V30 4129 C 400.302 3.43975 0.590109 0
M  V30 4130 C 401.65 4.15281 0.884714 0
M  V30 4131 O 402.674 3.49729 0.67587 0
M  V30 4132 O 401.533 5.31236 1.28259 0
M  V30 4133 H 398.627 0.794815 0.228468 0
M  V30 4134 H 401.173 1.67135 -0.293954 0
M  V30 4135 H 399.945 3.89748 -0.34818 0
M  V30 4136 H 399.568 3.73644 1.35926 0
M  V30 4137 N 400.565 -0.0233959 1.57583 0
M  V30 4138 C 401.475 -1.03907 2.10334 0
M  V30 4139 C 402.491 -1.39257 1.04323 0
M  V30 4140 O 403.667 -1.48462 1.36091 0
M  V30 4141 C 400.732 -2.31938 2.57693 0
M  V30 4142 C 399.793 -2.03117 3.78209 0
M  V30 4143 C 399.026 -3.25043 4.233 0
M  V30 4144 O 399.249 -4.35916 3.67876 0
M  V30 4145 O 398.183 -3.10411 5.15683 0
M  V30 4146 H 402.009 -0.620748 2.97288 0
M  V30 4147 H 399.594 -0.240743 1.47448 0
M  V30 4148 H 401.476 -3.07196 2.88458 0
M  V30 4149 H 400.151 -2.73055 1.73847 0
M  V30 4150 H 399.058 -1.25408 3.52454 0
M  V30 4151 H 400.391 -1.66852 4.63056 0
M  V30 4152 N 402.043 -1.548 -0.295768 0
M  V30 4153 C 402.973 -1.89115 -1.36959 0
M  V30 4154 C 403.954 -0.75059 -1.52644 0
M  V30 4155 O 405.139 -1.00678 -1.66065 0
M  V30 4156 C 402.269 -2.14307 -2.73295 0
M  V30 4157 C 401.223 -3.30151 -2.72368 0
M  V30 4158 C 400.549 -3.40772 -4.12042 0
M  V30 4159 C 401.849 -4.67126 -2.33646 0
M  V30 4160 H 403.543 -2.79053 -1.08488 0
M  V30 4161 H 401.089 -1.34266 -0.520443 0
M  V30 4162 H 403.042 -2.36898 -3.48507 0
M  V30 4163 H 401.766 -1.21145 -3.03301 0
M  V30 4164 H 400.425 -3.0749 -1.99613 0
M  V30 4165 H 400.073 -2.45117 -4.39234 0
M  V30 4166 H 399.773 -4.18645 -4.12322 0
M  V30 4167 H 401.297 -3.6563 -4.89027 0
M  V30 4168 H 402.711 -4.89414 -2.98575 0
M  V30 4169 H 401.108 -5.47751 -2.45129 0
M  V30 4170 H 402.178 -4.67489 -1.28772 0
M  V30 4171 N 403.521 0.559213 -1.47345 0
M  V30 4172 C 404.761 1.32728 -1.55444 0
M  V30 4173 C 405.125 1.90838 -0.210895 0
M  V30 4174 O 406.326 2.68282 -0.166719 0
M  V30 4175 C 404.597 2.4092 -2.63993 0
M  V30 4176 S 406.156 3.2784 -2.91661 0
M  V30 4177 H 402.974 0.451883 -0.548929 0
M  V30 4178 H 405.576 0.640404 -1.84714 0
M  V30 4179 H 404.28 1.9666 -3.60212 0
M  V30 4180 H 403.811 3.14351 -2.36531 0
M  V30 4181 H 405.826 4.40341 -2.28722 0
M  V30 4182 N 404.999 1.35443 0.805782 0
M  V30 4183 C 406.41 1.25768 1.37983 0
M  V30 4184 C 406.761 -0.10958 1.95894 0
M  V30 4185 O 405.886 -1.01056 1.91355 0
M  V30 4186 C 406.481 2.27727 2.5085 0
M  V30 4187 C 405.04 2.2179 3.04115 0
M  V30 4188 C 404.187 2.13393 1.77084 0
M  V30 4189 H 407.138 1.4656 0.608752 0
M  V30 4190 H 407.159 1.90422 3.29424 0
M  V30 4191 H 406.671 3.27227 2.08671 0
M  V30 4192 H 404.772 1.25703 3.50756 0
M  V30 4193 H 404.885 3.13788 3.62042 0
M  V30 4194 H 403.249 1.59384 1.98668 0
M  V30 4195 H 404.032 3.14755 1.37056 0
M  V30 4196 N 406.477 -1.02803 1.19454 0
M  V30 4197 C 407.754 -1.73299 0.907013 0
M  V30 4198 C 408.134 -2.02772 -0.587086 0
M  V30 4199 O 407.482 -1.68304 -1.54551 0
M  V30 4200 C 407.692 -3.00912 1.76785 0
M  V30 4201 C 409.04 -3.74403 2.00268 0
M  V30 4202 O 410.064 -3.10841 1.73943 0
M  V30 4203 O 408.923 -4.88675 2.4466 0
M  V30 4204 H 406.017 -0.754727 0.338106 0
M  V30 4205 H 408.563 -1.08754 1.30271 0
M  V30 4206 H 407.335 -2.75366 2.7801 0
M  V30 4207 H 406.958 -3.73197 1.37149 0
M  V30 4208 N 407.956 -0.998596 -1.21925 0
M  V30 4209 C 409.181 -0.696015 -1.95372 0
M  V30 4210 C 409.606 0.733826 -1.73195 0
M  V30 4211 O 408.964 1.50242 -1.01474 0
M  V30 4212 C 409.012 -1.01466 -3.4603 0
M  V30 4213 O 408.116 -0.116415 -4.12236 0
M  V30 4214 H 407.457 -0.259938 -0.611006 0
M  V30 4215 H 409.987 -1.33711 -1.54863 0
M  V30 4216 H 409.997 -0.958855 -3.96573 0
M  V30 4217 H 408.672 -2.05653 -3.61497 0
M  V30 4218 H 407.249 -0.228193 -3.72201 0
M  V30 4219 N 409.434 1.37368 -0.772513 0
M  V30 4220 C 410.381 2.30262 -0.157488 0
M  V30 4221 C 411.351 1.51137 0.688965 0
M  V30 4222 O 412.536 1.79704 0.641168 0
M  V30 4223 C 409.676 3.37611 0.715045 0
M  V30 4224 C 408.789 4.31746 -0.148098 0
M  V30 4225 C 407.924 5.26171 0.729213 0
M  V30 4226 C 406.963 6.11948 -0.136418 0
M  V30 4227 N 406.1 6.98613 0.698914 0
M  V30 4228 H 410.94 2.82277 -0.955179 0
M  V30 4229 H 408.477 1.38957 -0.482631 0
M  V30 4230 H 410.435 3.98479 1.23575 0
M  V30 4231 H 409.065 2.86959 1.47833 0
M  V30 4232 H 408.117 3.72178 -0.786613 0
M  V30 4233 H 409.429 4.92084 -0.81579 0
M  V30 4234 H 408.583 5.92247 1.31637 0
M  V30 4235 H 407.322 4.66246 1.43059 0
M  V30 4236 H 406.327 5.4485 -0.736102 0
M  V30 4237 H 407.552 6.73945 -0.835134 0
M  V30 4238 H 405.498 6.41215 1.38489 0
M  V30 4239 H 405.415 7.55948 0.0885358 0
M  V30 4240 H 406.683 7.69077 1.27044 0
M  V30 4241 N 410.912 0.523116 1.48665 0
M  V30 4242 C 412.137 -0.0117284 2.07397 0
M  V30 4243 C 412.562 -1.28031 1.37803 0
M  V30 4244 O 411.92 -1.75836 0.441762 0
M  V30 4245 C 411.968 -0.225786 3.59892 0
M  V30 4246 O 411.072 -1.29592 3.91509 0
M  V30 4247 H 410.413 0.0360673 0.66302 0
M  V30 4248 H 412.943 0.729066 1.9117 0
M  V30 4249 H 412.953 -0.450552 4.05505 0
M  V30 4250 H 411.628 0.700944 4.09951 0
M  V30 4251 H 410.205 -1.05436 3.57684 0
M  V30 4252 N 412.39 -1.55475 0.257931 0
M  V30 4253 C 413.667 -1.91155 -0.414629 0
M  V30 4254 C 414.047 -1.18008 -1.75035 0
M  V30 4255 O 413.395 -0.301193 -2.26506 0
M  V30 4256 C 413.605 -3.44283 -0.571859 0
M  V30 4257 C 414.953 -4.15744 -0.862678 0
M  V30 4258 O 415.977 -3.50083 -0.657314 0
M  V30 4259 O 414.836 -5.31909 -1.2544 0
M  V30 4260 H 411.93 -0.796016 -0.22425 0
M  V30 4261 H 414.476 -1.66976 0.302814 0
M  V30 4262 H 413.248 -3.89558 0.368844 0
M  V30 4263 H 412.871 -3.7436 -1.33943 0
M  V30 4264 N 413.868 0.0150385 -1.57593 0
M  V30 4265 C 414.778 1.02791 -2.10882 0
M  V30 4266 C 415.794 1.38702 -1.0506 0
M  V30 4267 O 416.97 1.47739 -1.36877 0
M  V30 4268 C 414.035 2.30568 -2.58919 0
M  V30 4269 C 413.096 2.01108 -3.79281 0
M  V30 4270 C 412.329 3.22794 -4.25018 0
M  V30 4271 O 412.552 4.33959 -3.70183 0
M  V30 4272 O 411.486 3.07672 -5.17322 0
M  V30 4273 H 415.312 0.604973 -2.97613 0
M  V30 4274 H 412.897 0.23292 -1.47573 0
M  V30 4275 H 414.779 3.05662 -2.90084 0
M  V30 4276 H 413.454 2.72129 -1.75293 0
M  V30 4277 H 412.361 1.23537 -3.53114 0
M  V30 4278 H 413.694 1.64394 -4.63935 0
M  V30 4279 N 415.346 1.54954 0.287554 0
M  V30 4280 C 416.757 1.65732 0.859634 0
M  V30 4281 C 417.108 0.574767 1.87592 0
M  V30 4282 O 416.233 -0.286299 2.14498 0
M  V30 4283 C 416.828 3.00438 1.56597 0
M  V30 4284 C 415.387 3.13292 2.08627 0
M  V30 4285 C 414.534 2.61473 0.923416 0
M  V30 4286 H 417.485 1.5857 0.0642338 0
M  V30 4287 H 417.506 2.92613 2.43224 0
M  V30 4288 H 417.018 3.79207 0.826053 0
M  V30 4289 H 415.119 2.39268 2.85625 0
M  V30 4290 H 415.232 4.19647 2.31157 0
M  V30 4291 H 413.596 2.18264 1.31275 0
M  V30 4292 H 414.379 3.42733 0.197241 0
M  V30 4293 N 416.824 -0.551391 1.4764 0
M  V30 4294 C 418.07 -1.31024 1.54792 0
M  V30 4295 C 418.403 -1.9304 0.211967 0
M  V30 4296 O 417.678 -1.78175 -0.77999 0
M  V30 4297 C 417.961 -2.41593 2.67029 0
M  V30 4298 C 417.814 -1.84408 4.10261 0
M  V30 4299 C 419.133 -3.43488 2.75143 0
M  V30 4300 H 416.252 -0.475031 0.563485 0
M  V30 4301 H 418.894 -0.616454 1.79722 0
M  V30 4302 H 417.044 -3.00772 2.45904 0
M  V30 4303 H 418.716 -1.29445 4.42766 0
M  V30 4304 H 416.959 -1.15051 4.18265 0
M  V30 4305 H 417.63 -2.64367 4.84576 0
M  V30 4306 H 420.106 -2.94236 2.94218 0
M  V30 4307 H 418.982 -4.18274 3.55441 0
M  V30 4308 H 419.243 -4.02703 1.82435 0
M  V30 4309 N 418.302 -1.35869 -0.798587 0
M  V30 4310 C 419.542 -1.30961 -1.56935 0
M  V30 4311 C 419.906 0.112404 -1.91671 0
M  V30 4312 O 421.107 0.285937 -2.67275 0
M  V30 4313 C 419.378 -2.19811 -2.81811 0
M  V30 4314 S 420.937 -2.32498 -3.72143 0
M  V30 4315 H 417.755 -0.465297 -0.537606 0
M  V30 4316 H 420.357 -1.71344 -0.941346 0
M  V30 4317 H 419.061 -3.22095 -2.54329 0
M  V30 4318 H 418.592 -1.80415 -3.49591 0
M  V30 4319 H 420.607 -1.5157 -4.72484 0
M  V30 4320 N 419.78 1.02168 -1.19998 0
M  V30 4321 C 420.743 2.08765 -0.94604 0
M  V30 4322 C 421.743 1.60618 0.0763846 0
M  V30 4323 O 422.933 1.73472 -0.159135 0
M  V30 4324 C 420.065 3.38262 -0.423255 0
M  V30 4325 H 421.258 2.32726 -1.89153 0
M  V30 4326 H 418.811 1.1889 -1.01464 0
M  V30 4327 H 419.546 3.19974 0.527938 0
M  V30 4328 H 419.331 3.74532 -1.16053 0
M  V30 4329 H 420.821 4.16759 -0.264911 0
M  V30 4330 N 421.258 1.00505 1.21394 0
M  V30 4331 C 422.483 0.706367 1.95001 0
M  V30 4332 C 422.908 -0.72463 1.73582 0
M  V30 4333 O 422.266 -1.49702 1.0227 0
M  V30 4334 C 422.314 1.03299 3.45487 0
M  V30 4335 O 421.418 0.138275 4.12168 0
M  V30 4336 H 420.759 0.263175 0.609619 0
M  V30 4337 H 423.289 1.34531 1.54151 0
M  V30 4338 H 423.299 0.979872 3.96059 0
M  V30 4339 H 421.974 2.07567 3.60401 0
M  V30 4340 H 420.551 0.247928 3.72075 0
M  V30 4341 N 422.737 -1.36956 0.779787 0
M  V30 4342 C 424.014 -1.93697 0.272156 0
M  V30 4343 C 424.394 -1.71267 -1.23413 0
M  V30 4344 O 423.742 -1.06607 -2.02107 0
M  V30 4345 C 423.952 -3.42812 0.654291 0
M  V30 4346 C 425.3 -4.19921 0.628602 0
M  V30 4347 O 426.324 -3.51209 0.594172 0
M  V30 4348 O 425.183 -5.42465 0.662864 0
M  V30 4349 H 422.277 -0.824447 0.0649286 0
M  V30 4350 H 424.823 -1.46196 0.861682 0
M  V30 4351 H 423.595 -3.52754 1.69353 0
M  V30 4352 H 423.218 -3.97582 0.0381369 0
M  V30 4353 N 424.215 -0.530993 -1.48385 0
M  V30 4354 C 425.163 0.244595 -2.3131 0
M  V30 4355 C 426.157 0.93451 -1.41291 0
M  V30 4356 O 427.363 0.85878 -1.58193 0
M  V30 4357 H 423.738 0.0977472 -0.74562 0
M  V30 4358 H 425.709 -0.474369 -2.94605 0
M  V30 4359 C 424.458 1.2779 -3.23365 0
M  V30 4360 H 423.781 0.756439 -3.92579 0
M  V30 4361 H 425.221 1.79198 -3.84271 0
M  V30 4362 C 423.68 2.31205 -2.45042 0
M  V30 4363 O 424.21 3.37661 -2.17596 0
M  V30 4364 N 422.416 2.04446 -2.0652 0
M  V30 4365 H 421.963 1.17891 -2.2904 0
M  V30 4366 H 421.921 2.73861 -1.54427 0
M  V30 4367 N 425.693 1.55336 -0.266172 0
M  V30 4368 C 426.656 2.20878 0.612001 0
M  V30 4369 C 427.656 1.18388 1.08816 0
M  V30 4370 O 428.846 1.4335 0.989774 0
M  V30 4371 C 425.978 2.86765 1.84332 0
M  V30 4372 H 427.171 2.99873 0.0398718 0
M  V30 4373 H 424.724 1.56291 -0.0167309 0
M  V30 4374 H 425.459 2.11759 2.45619 0
M  V30 4375 H 425.244 3.61862 1.5099 0
M  V30 4376 H 426.734 3.36867 2.46801 0
M  V30 4377 N 427.171 -0.0066808 1.57599 0
M  V30 4378 C 428.399 -0.704087 1.94551 0
M  V30 4379 C 428.814 -1.67677 0.867746 0
M  V30 4380 O 428.171 -1.8185 -0.153925 0
M  V30 4381 C 428.222 -1.44177 3.31505 0
M  V30 4382 O 427.943 -0.508097 4.35144 0
M  V30 4383 C 429.444 -2.23429 3.82876 0
M  V30 4384 H 426.664 -0.196523 0.641576 0
M  V30 4385 H 429.208 0.042453 2.04456 0
M  V30 4386 H 427.363 -2.13999 3.22929 0
M  V30 4387 H 427.777 -1.02782 5.14331 0
M  V30 4388 H 429.251 -2.70552 4.8115 0
M  V30 4389 H 429.728 -3.05818 3.15233 0
M  V30 4390 H 430.334 -1.58636 3.94607 0
M  V30 4391 N 428.649 -1.55105 -0.279332 0
M  V30 4392 C 429.879 -1.7917 -1.02867 0
M  V30 4393 C 430.287 -0.56204 -1.80659 0
M  V30 4394 O 429.63 0.478266 -1.77365 0
M  V30 4395 C 429.692 -2.96061 -2.03932 0
M  V30 4396 C 429.356 -4.33341 -1.45137 0
M  V30 4397 C 430.353 -5.12565 -0.870266 0
M  V30 4398 C 428.038 -4.79987 -1.48048 0
M  V30 4399 C 430.032 -6.36565 -0.326097 0
M  V30 4400 C 427.719 -6.03944 -0.932443 0
M  V30 4401 C 428.717 -6.8207 -0.356247 0
M  V30 4402 O 428.405 -8.03691 0.183412 0
M  V30 4403 H 428.137 -0.600796 -0.309872 0
M  V30 4404 H 430.691 -2.02932 -0.317468 0
M  V30 4405 H 428.921 -2.67975 -2.78794 0
M  V30 4406 H 430.61 -3.07506 -2.64943 0
M  V30 4407 H 431.376 -4.77661 -0.840521 0
M  V30 4408 H 427.255 -4.1919 -1.91835 0
M  V30 4409 H 430.799 -6.97489 0.124286 0
M  V30 4410 H 426.696 -6.3833 -0.959407 0
M  V30 4411 H 427.464 -8.18468 0.0721681 0
M  V30 4412 N 430.127 0.543554 -1.4793 0
M  V30 4413 C 431.09 1.63156 -1.60975 0
M  V30 4414 C 432.09 1.53346 -0.483899 0
M  V30 4415 O 433.28 1.5726 -0.749339 0
M  V30 4416 C 430.412 3.02743 -1.56716 0
M  V30 4417 H 431.605 1.52934 -2.57975 0
M  V30 4418 H 429.158 0.764557 -1.36324 0
M  V30 4419 H 429.893 3.18484 -0.611418 0
M  V30 4420 H 429.678 3.11272 -2.38438 0
M  V30 4421 H 431.168 3.81871 -1.6901 0
M  V30 4422 N 431.605 1.3629 0.791371 0
M  V30 4423 C 432.83 1.33726 1.58531 0
M  V30 4424 C 433.255 -0.0794933 1.87932 0
M  V30 4425 O 432.613 -1.05087 1.47738 0
M  V30 4426 C 432.661 2.16425 2.88431 0
M  V30 4427 O 431.765 1.5554 3.81944 0
M  V30 4428 H 431.106 0.457793 0.480959 0
M  V30 4429 H 433.636 1.79547 0.981031 0
M  V30 4430 H 433.646 2.28933 3.37718 0
M  V30 4431 H 432.321 3.19415 2.66359 0
M  V30 4432 H 430.898 1.51961 3.40532 0
M  V30 4433 N 433.083 -1.0153 1.20538 0
M  V30 4434 C 433.993 -2.13557 0.971113 0
M  V30 4435 C 435.009 -1.73845 -0.0734366 0
M  V30 4436 O 436.185 -2.01075 0.114299 0
M  V30 4437 C 433.25 -3.42661 0.527639 0
M  V30 4438 C 432.311 -3.96608 1.64319 0
M  V30 4439 C 431.544 -5.1955 1.22078 0
M  V30 4440 O 431.767 -5.70329 0.0900198 0
M  V30 4441 O 430.701 -5.66681 2.02871 0
M  V30 4442 H 434.527 -2.3619 1.90913 0
M  V30 4443 H 432.112 -1.11946 0.989362 0
M  V30 4444 H 433.994 -4.20404 0.289621 0
M  V30 4445 H 432.669 -3.21441 -0.381779 0
M  V30 4446 H 431.576 -3.20139 1.93551 0
M  V30 4447 H 432.909 -4.22219 2.52966 0
M  V30 4448 N 434.561 -1.01147 -1.20859 0
M  V30 4449 C 435.801 -0.706331 -1.91808 0
M  V30 4450 C 436.165 0.749736 -1.76757 0
M  V30 4451 O 437.366 1.16716 -2.42138 0
M  V30 4452 C 435.637 -1.12371 -3.39275 0
M  V30 4453 S 437.196 -0.939764 -4.28619 0
M  V30 4454 H 434.014 -0.257665 -0.662669 0
M  V30 4455 H 436.616 -1.29766 -1.46223 0
M  V30 4456 H 435.32 -2.17943 -3.47749 0
M  V30 4457 H 434.851 -0.524952 -3.89882 0
M  V30 4458 H 436.866 0.159556 -4.95943 0
M  V30 4459 N 436.039 1.36541 -0.78704 0
M  V30 4460 C 437.002 2.28413 -0.189778 0
M  V30 4461 C 438.002 1.48719 0.611499 0
M  V30 4462 O 439.192 1.68737 0.432842 0
M  V30 4463 C 436.324 3.32824 0.737638 0
M  V30 4464 H 437.517 2.82743 -0.999831 0
M  V30 4465 H 435.07 1.46065 -0.556298 0
M  V30 4466 H 435.805 2.83646 1.57212 0
M  V30 4467 H 435.59 3.91752 0.165044 0
M  V30 4468 H 437.08 4.0144 1.15047 0
M  V30 4469 N 437.518 0.538854 1.48102 0
M  V30 4470 C 438.451 -0.266495 2.26639 0
M  V30 4471 C 439.429 -0.93687 1.32897 0
M  V30 4472 O 440.613 -0.959507 1.62252 0
M  V30 4473 C 437.74 -1.37814 3.09394 0
M  V30 4474 C 436.786 -0.818247 4.18577 0
M  V30 4475 S 437.619 0.320848 5.34538 0
M  V30 4476 C 438.775 -0.793059 6.20855 0
M  V30 4477 H 439.008 0.399994 2.94597 0
M  V30 4478 H 436.541 0.324808 1.50945 0
M  V30 4479 H 438.499 -2.01488 3.57649 0
M  V30 4480 H 437.16 -2.01639 2.40833 0
M  V30 4481 H 436.353 -1.65247 4.7614 0
M  V30 4482 H 435.955 -0.258036 3.73109 0
M  V30 4483 H 438.247 -1.68961 6.56093 0
M  V30 4484 H 439.19 -0.255204 7.0764 0
M  V30 4485 H 439.598 -1.07746 5.54122 0
M  V30 4486 N 438.996 -1.55193 0.274407 0
M  V30 4487 C 439.943 -2.225 -0.613374 0
M  V30 4488 C 440.913 -1.19823 -1.15029 0
M  V30 4489 O 442.098 -1.48362 -1.19973 0
M  V30 4490 C 439.238 -2.94927 -1.79199 0
M  V30 4491 C 438.351 -4.12322 -1.28899 0
M  V30 4492 C 437.486 -4.72394 -2.42934 0
M  V30 4493 C 436.525 -5.81984 -1.89634 0
M  V30 4494 N 435.662 -6.36123 -2.9714 0
M  V30 4495 H 440.502 -2.97982 -0.032756 0
M  V30 4496 H 438.039 -1.47099 -0.00440146 0
M  V30 4497 H 439.997 -3.35134 -2.48478 0
M  V30 4498 H 438.627 -2.2187 -2.34465 0
M  V30 4499 H 437.679 -3.7724 -0.489327 0
M  V30 4500 H 438.991 -4.91355 -0.858587 0
M  V30 4501 H 438.145 -5.15317 -3.20208 0
M  V30 4502 H 436.884 -3.92636 -2.8929 0
M  V30 4503 H 435.889 -5.38511 -1.1084 0
M  V30 4504 H 437.114 -6.6361 -1.44215 0
M  V30 4505 H 435.06 -5.59259 -3.42878 0
M  V30 4506 H 434.977 -7.10427 -2.58515 0
M  V30 4507 H 436.245 -6.83704 -3.74391 0
M  V30 4508 N 440.474 -0.00167713 -1.576 0
M  V30 4509 C 441.384 1.00548 -2.1196 0
M  V30 4510 C 442.4 1.3758 -1.06526 0
M  V30 4511 O 443.576 1.46278 -1.38436 0
M  V30 4512 C 440.641 2.27809 -2.6135 0
M  V30 4513 C 439.702 1.97074 -3.81393 0
M  V30 4514 C 438.935 3.18267 -4.28417 0
M  V30 4515 O 439.158 4.30009 -3.74765 0
M  V30 4516 O 438.092 3.02167 -5.20556 0
M  V30 4517 H 441.918 0.573373 -2.98238 0
M  V30 4518 H 439.503 0.217255 -1.47812 0
M  V30 4519 H 441.385 3.02568 -2.93309 0
M  V30 4520 H 440.06 2.70254 -1.78169 0
M  V30 4521 H 438.967 1.19785 -3.54404 0
M  V30 4522 H 440.3 1.59464 -4.65652 0
M  V30 4523 N 441.952 1.55251 0.271103 0
M  V30 4524 C 442.915 1.87484 1.31842 0
M  V30 4525 C 443.915 0.749545 1.42262 0
M  V30 4526 O 445.105 1.01771 1.4138 0
M  V30 4527 C 442.237 2.0818 2.69951 0
M  V30 4528 H 443.43 2.81108 1.0449 0
M  V30 4529 H 440.983 1.47771 0.509258 0
M  V30 4530 H 441.718 1.16944 3.02481 0
M  V30 4531 H 441.503 2.90114 2.63774 0
M  V30 4532 H 442.993 2.34385 3.4562 0
M  V30 4533 N 443.43 -0.535701 1.48216 0
M  V30 4534 C 444.393 -1.623 1.61838 0
M  V30 4535 C 445.393 -1.53087 0.492024 0
M  V30 4536 O 446.583 -1.5686 0.757668 0
M  V30 4537 C 443.715 -3.01907 1.58319 0
M  V30 4538 H 444.908 -1.51564 2.58783 0
M  V30 4539 H 442.461 -0.757317 1.36727 0
M  V30 4540 H 443.196 -3.18155 0.628299 0
M  V30 4541 H 442.981 -3.10003 2.40085 0
M  V30 4542 H 444.471 -3.80969 1.71033 0
M  V30 4543 N 444.908 -1.36708 -0.784132 0
M  V30 4544 C 446.148 -1.32618 -1.55537 0
M  V30 4545 C 446.512 0.0920681 -1.91779 0
M  V30 4546 O 447.713 0.257573 -2.67563 0
M  V30 4547 C 445.984 -2.22788 -2.79464 0
M  V30 4548 S 447.543 -2.36432 -3.69656 0
M  V30 4549 H 444.361 -0.470973 -0.53264 0
M  V30 4550 H 446.963 -1.72333 -0.92312 0
M  V30 4551 H 445.667 -3.24774 -2.50899 0
M  V30 4552 H 445.198 -1.84112 -3.47658 0
M  V30 4553 H 447.213 -1.56573 -4.7085 0
M  V30 4554 N 446.386 1.0089 -1.21074 0
M  V30 4555 C 447.611 1.78727 -1.05221 0
M  V30 4556 C 448.036 1.83932 0.393795 0
M  V30 4557 O 447.394 1.28004 1.28393 0
M  V30 4558 C 447.442 3.20665 -1.64944 0
M  V30 4559 O 446.546 4.02632 -0.892273 0
M  V30 4560 H 445.887 0.550973 -0.370574 0
M  V30 4561 H 448.417 1.26847 -1.60534 0
M  V30 4562 H 448.427 3.71352 -1.69002 0
M  V30 4563 H 447.102 3.16191 -2.70177 0
M  V30 4564 H 445.679 3.61207 -0.926492 0
M  V30 4565 N 447.864 1.01787 1.20321 0
M  V30 4566 C 449.089 0.727009 1.9424 0
M  V30 4567 C 449.514 -0.706179 1.74341 0
M  V30 4568 O 448.872 -1.48609 1.03852 0
M  V30 4569 C 448.92 1.06958 3.44372 0
M  V30 4570 O 448.024 0.181983 4.11998 0
M  V30 4571 H 447.365 0.269626 0.606793 0
M  V30 4572 H 449.895 1.36158 1.52716 0
M  V30 4573 H 449.905 1.02182 3.94997 0
M  V30 4574 H 448.58 2.11378 3.58179 0
M  V30 4575 H 447.157 0.287378 3.71791 0
M  V30 4576 N 449.342 -1.36122 0.79427 0
M  V30 4577 C 450.59 -1.98718 0.368177 0
M  V30 4578 C 450.911 -1.63345 -1.06506 0
M  V30 4579 O 450.181 -0.909825 -1.73491 0
M  V30 4580 H 448.761 -0.735038 0.133146 0
M  V30 4581 H 451.423 -1.66239 1.01739 0
M  V30 4582 H 450.519 -3.08633 0.463923 0
M  V30 4583 N 450.82 -0.546701 -1.47814 0
M  V30 4584 C 452.066 -0.0187684 -2.02791 0
M  V30 4585 C 452.399 1.32338 -1.42128 0
M  V30 4586 O 451.674 1.85867 -0.573023 0
M  V30 4587 C 451.957 0.0854985 -3.59998 0
M  V30 4588 C 451.81 -1.283 -4.31114 0
M  V30 4589 C 453.129 0.80412 -4.32691 0
M  V30 4590 H 450.248 -0.0082946 -0.736953 0
M  V30 4591 H 452.89 -0.706962 -1.76358 0
M  V30 4592 H 451.04 0.671609 -3.82651 0
M  V30 4593 H 452.712 -1.91151 -4.19832 0
M  V30 4594 H 450.955 -1.86049 -3.91878 0
M  V30 4595 H 451.626 -1.16287 -5.39612 0
M  V30 4596 H 454.102 0.306576 -4.14969 0
M  V30 4597 H 452.978 0.846011 -5.42341 0
M  V30 4598 H 453.239 1.85802 -4.01161 0
M  V30 4599 N 452.299 1.55045 -0.282633 0
M  V30 4600 C 453.229 2.2579 0.595066 0
M  V30 4601 C 454.21 1.25074 1.15284 0
M  V30 4602 O 455.395 1.5381 1.18559 0
M  V30 4603 C 452.525 2.98472 1.77572 0
M  V30 4604 C 451.479 4.0618 1.34914 0
M  V30 4605 C 450.805 4.66477 2.6135 0
M  V30 4606 C 452.105 5.1996 0.493821 0
M  V30 4607 H 453.799 2.994 0.00505653 0
M  V30 4608 H 451.345 1.44 0.000992001 0
M  V30 4609 H 453.298 3.46677 2.39568 0
M  V30 4610 H 452.022 2.2241 2.39168 0
M  V30 4611 H 450.681 3.58797 0.752338 0
M  V30 4612 H 450.329 3.87074 3.2122 0
M  V30 4613 H 450.029 5.39207 2.33516 0
M  V30 4614 H 451.553 5.17435 3.24181 0
M  V30 4615 H 452.967 5.64172 1.01898 0
M  V30 4616 H 451.364 5.99299 0.310047 0
M  V30 4617 H 452.434 4.82462 -0.485593 0
M  V30 4618 N 453.777 0.010035 1.57597 0
M  V30 4619 C 454.707 -0.976857 2.12084 0
M  V30 4620 C 455.688 -1.35191 1.03235 0
M  V30 4621 O 456.873 -1.43389 1.3097 0
M  V30 4622 C 454.003 -2.26548 2.63236 0
M  V30 4623 C 452.957 -2.03175 3.76701 0
M  V30 4624 C 452.283 -3.38138 4.14206 0
M  V30 4625 C 453.583 -1.38625 5.03568 0
M  V30 4626 H 455.277 -0.523145 2.94794 0
M  V30 4627 H 452.823 -0.250195 1.4181 0
M  V30 4628 H 454.776 -2.95952 2.99984 0
M  V30 4629 H 453.5 -2.74051 1.77661 0
M  V30 4630 H 452.159 -1.36195 3.40362 0
M  V30 4631 H 451.807 -3.83363 3.25641 0
M  V30 4632 H 451.507 -3.23312 4.90656 0
M  V30 4633 H 453.031 -4.08841 4.53521 0
M  V30 4634 H 454.445 -1.98 5.38023 0
M  V30 4635 H 452.842 -1.34256 5.84889 0
M  V30 4636 H 453.912 -0.356722 4.83586 0
M  V30 4637 N 455.255 -1.55392 -0.262866 0
M  V30 4638 C 456.165 -1.92077 -1.34698 0
M  V30 4639 C 457.181 -0.819227 -1.53508 0
M  V30 4640 O 458.357 -1.11921 -1.67439 0
M  V30 4641 C 455.422 -2.19407 -2.68443 0
M  V30 4642 C 454.483 -3.42905 -2.58292 0
M  V30 4643 C 453.716 -3.68921 -3.85659 0
M  V30 4644 O 453.939 -2.97275 -4.8681 0
M  V30 4645 O 452.873 -4.62455 -3.85252 0
M  V30 4646 H 456.699 -2.84384 -1.06581 0
M  V30 4647 H 454.284 -1.42069 -0.462264 0
M  V30 4648 H 456.166 -2.38365 -3.47506 0
M  V30 4649 H 454.841 -1.30282 -2.96325 0
M  V30 4650 H 453.748 -3.29272 -1.7757 0
M  V30 4651 H 455.081 -4.32282 -2.35358 0
M  V30 4652 N 456.733 0.527833 -1.48498 0
M  V30 4653 C 457.979 1.28545 -1.56857 0
M  V30 4654 C 458.312 1.92678 -0.242651 0
M  V30 4655 O 457.587 1.79394 0.751545 0
M  V30 4656 C 457.87 2.37314 -2.70839 0
M  V30 4657 C 457.723 1.77858 -4.13142 0
M  V30 4658 C 459.042 3.39068 -2.80573 0
M  V30 4659 H 456.161 0.466006 -0.570971 0
M  V30 4660 H 458.803 0.587784 -1.8068 0
M  V30 4661 H 456.953 2.96821 -2.50658 0
M  V30 4662 H 458.625 1.22385 -4.44769 0
M  V30 4663 H 456.868 1.08383 -4.20042 0
M  V30 4664 H 457.539 2.56624 -4.88721 0
M  V30 4665 H 460.015 2.89518 -2.98862 0
M  V30 4666 H 458.891 4.12566 -3.6205 0
M  V30 4667 H 459.152 3.9975 -1.88818 0
M  V30 4668 N 458.211 1.37122 0.776871 0
M  V30 4669 C 459.158 1.3247 1.88998 0
M  V30 4670 C 460.128 0.191143 1.64997 0
M  V30 4671 O 461.313 0.379683 1.86984 0
M  V30 4672 C 458.453 1.13241 3.25992 0
M  V30 4673 C 457.566 2.35782 3.61982 0
M  V30 4674 C 456.701 2.09465 4.88158 0
M  V30 4675 C 455.74 3.279 5.16864 0
M  V30 4676 N 454.877 3.01167 6.34226 0
M  V30 4677 H 459.717 2.27642 1.9231 0
M  V30 4678 H 457.254 1.13125 0.94027 0
M  V30 4679 H 459.212 1.00115 4.0501 0
M  V30 4680 H 457.842 0.217186 3.22069 0
M  V30 4681 H 456.894 2.59666 2.77989 0
M  V30 4682 H 458.206 3.24125 3.79137 0
M  V30 4683 H 457.36 1.93341 5.75069 0
M  V30 4684 H 456.099 1.18452 4.73097 0
M  V30 4685 H 455.104 3.44569 4.2843 0
M  V30 4686 H 456.329 4.19757 5.33836 0
M  V30 4687 H 454.275 2.12779 6.20533 0
M  V30 4688 H 454.192 3.83052 6.51772 0
M  V30 4689 H 455.46 2.88649 7.24087 0
M  V30 4690 N 459.689 -1.00246 1.21608 0
M  V30 4691 C 460.639 -2.07492 0.945051 0
M  V30 4692 C 461.623 -1.60585 -0.100675 0
M  V30 4693 O 462.815 -1.76667 0.10859 0
M  V30 4694 C 459.944 -3.39425 0.514342 0
M  V30 4695 C 459.03 -3.92993 1.59428 0
M  V30 4696 N 459.421 -4.19898 2.81991 0
M  V30 4697 C 457.719 -4.21297 1.46374 0
M  V30 4698 C 458.42 -4.63297 3.51754 0
M  V30 4699 N 457.396 -4.66421 2.79199 0
M  V30 4700 H 461.198 -2.26222 1.87619 0
M  V30 4701 H 458.712 -1.18339 1.11219 0
M  V30 4702 H 460.709 -4.15808 0.301527 0
M  V30 4703 H 459.369 -3.22101 -0.410008 0
M  V30 4704 H 460.38 -4.08377 3.1851 0
M  V30 4705 H 457.057 -4.13095 0.604863 0
M  V30 4706 H 458.447 -4.92816 4.56708 0
M  V30 4707 N 461.167 -1.02423 -1.1978 0
M  V30 4708 C 462.392 -0.7373 -1.93852 0
M  V30 4709 C 462.817 0.696923 -1.74713 0
M  V30 4710 O 462.175 1.48056 -1.04638 0
M  V30 4711 C 462.223 -1.08783 -3.438 0
M  V30 4712 O 461.327 -0.20383 -4.11896 0
M  V30 4713 H 460.668 -0.27284 -0.605355 0
M  V30 4714 H 463.198 -1.36966 -1.51992 0
M  V30 4715 H 463.208 -1.04276 -3.9445 0
M  V30 4716 H 461.883 -2.13274 -3.57053 0
M  V30 4717 H 460.46 -0.307091 -3.71633 0
M  V30 4718 N 462.645 1.35699 -0.801477 0
M  V30 4719 C 463.893 1.9852 -0.37871 0
M  V30 4720 C 464.214 1.63907 1.05638 0
M  V30 4721 O 463.484 0.919013 1.73006 0
M  V30 4722 H 462.064 0.734322 -0.137042 0
M  V30 4723 H 464.726 1.65697 -1.02619 0
M  V30 4724 H 463.822 3.08382 -0.480284 0
M  V30 4725 N 464.123 0.554532 1.47522 0
M  V30 4726 C 465.348 0.0322661 2.07375 0
M  V30 4727 C 465.773 -1.25079 1.40488 0
M  V30 4728 O 465.131 -1.74859 0.47896 0
M  V30 4729 C 465.179 -0.149397 3.6029 0
M  V30 4730 O 464.283 -1.21259 3.9417 0
M  V30 4731 H 463.624 0.0501228 0.662106 0
M  V30 4732 H 466.154 0.769452 1.8958 0
M  V30 4733 H 466.164 -0.364437 4.06369 0
M  V30 4734 H 464.839 0.787743 4.08372 0
M  V30 4735 H 463.416 -0.97825 3.5984 0
M  V30 4736 N 465.601 -1.54893 0.290851 0
M  V30 4737 C 466.841 -2.01842 -0.322388 0
M  V30 4738 C 467.205 -1.17477 -1.51865 0
M  V30 4739 O 468.406 -1.54077 -2.20258 0
M  V30 4740 C 466.677 -3.50874 -0.679844 0
M  V30 4741 S 468.236 -4.19796 -1.27739 0
M  V30 4742 H 465.054 -0.704005 -0.0994866 0
M  V30 4743 H 467.656 -1.91015 0.416358 0
M  V30 4744 H 466.36 -4.09915 0.199435 0
M  V30 4745 H 465.891 -3.65717 -1.44964 0
M  V30 4746 H 467.906 -4.24729 -2.56554 0
M  V30 4747 N 467.08 -0.0183926 -1.57589 0
M  V30 4748 C 468.028 0.985111 -2.10709 0
M  V30 4749 C 469.022 1.34397 -1.0312 0
M  V30 4750 O 470.228 1.32746 -1.21567 0
M  V30 4751 H 466.603 0.335418 -0.673052 0
M  V30 4752 H 468.574 0.511689 -2.9398 0
M  V30 4753 C 467.323 2.26202 -2.64061 0
M  V30 4754 H 466.646 1.9946 -3.4649 0
M  V30 4755 H 468.086 2.94652 -3.04887 0
M  V30 4756 C 466.545 2.98444 -1.5631 0
M  V30 4757 O 467.075 3.90142 -0.956674 0
M  V30 4758 N 465.281 2.6059 -1.28612 0
M  V30 4759 H 464.828 1.86101 -1.78112 0
M  V30 4760 H 464.786 3.09238 -0.567406 0
M  V30 4761 N 468.558 1.5553 0.254621 0
M  V30 4762 C 469.783 1.81383 1.00573 0
M  V30 4763 C 470.208 0.594419 1.78461 0
M  V30 4764 O 469.566 -0.456403 1.75461 0
M  V30 4765 C 469.614 3.04892 1.92545 0
M  V30 4766 O 468.718 2.81266 3.01601 0
M  V30 4767 H 468.059 0.598969 0.286587 0
M  V30 4768 H 470.589 2.02703 0.277952 0
M  V30 4769 H 470.599 3.34119 2.34155 0
M  V30 4770 H 469.274 3.93287 1.3527 0
M  V30 4771 H 467.851 2.63185 2.64174 0
M  V30 4772 N 470.036 -0.519951 1.48776 0
M  V30 4773 C 471.285 -1.27175 1.56555 0
M  V30 4774 C 471.598 -1.9401 0.248869 0
M  V30 4775 O 472.804 -2.70725 0.205004 0
M  V30 4776 C 471.26 -2.30811 2.76142 0
M  V30 4777 C 470.868 -1.7 4.14493 0
M  V30 4778 C 472.612 -3.06937 2.9324 0
M  V30 4779 C 470.519 -2.71635 5.25327 0
M  V30 4780 H 469.449 -0.478329 0.582853 0
M  V30 4781 H 472.1 -0.547916 1.75129 0
M  V30 4782 H 470.482 -3.06274 2.51023 0
M  V30 4783 H 471.656 -1.00658 4.49672 0
M  V30 4784 H 469.971 -1.06331 4.02595 0
M  V30 4785 H 472.568 -3.82905 3.73213 0
M  V30 4786 H 472.911 -3.63409 2.03075 0
M  V30 4787 H 473.444 -2.38589 3.18308 0
M  V30 4788 H 470.183 -2.1997 6.1749 0
M  V30 4789 H 469.703 -3.39275 4.94624 0
M  V30 4790 H 471.382 -3.34429 5.53865 0
M  V30 4791 N 471.514 -1.37532 -0.769588 0
M  V30 4792 C 472.739 -1.36231 -1.56384 0
M  V30 4793 C 473.164 0.0495849 -1.88035 0
M  V30 4794 O 472.522 1.02723 -1.49391 0
M  V30 4795 C 472.57 -2.20986 -2.84952 0
M  V30 4796 O 471.674 -1.61597 -3.79421 0
M  V30 4797 H 471.015 -0.465387 -0.473615 0
M  V30 4798 H 473.545 -1.81085 -0.952342 0
M  V30 4799 H 473.555 -2.34277 -3.34034 0
M  V30 4800 H 472.23 -3.23612 -2.61243 0
M  V30 4801 H 470.807 -1.57359 -3.38072 0
M  V30 4802 N 472.992 0.995999 -1.22138 0
M  V30 4803 C 473.902 2.11985 -1.00496 0
M  V30 4804 C 474.918 1.7394 0.0457701 0
M  V30 4805 O 476.094 2.00868 -0.146273 0
M  V30 4806 C 473.159 3.41779 -0.582086 0
M  V30 4807 C 472.22 3.93943 -1.70608 0
M  V30 4808 C 471.453 5.17542 -1.30328 0
M  V30 4809 O 471.676 5.70114 -0.180743 0
M  V30 4810 O 470.61 5.63382 -2.11861 0
M  V30 4811 H 474.436 2.33123 -1.94647 0
M  V30 4812 H 472.021 1.10358 -1.00705 0
M  V30 4813 H 473.903 4.1989 -0.356467 0
M  V30 4814 H 472.578 3.22007 0.330592 0
M  V30 4815 H 471.485 3.17019 -1.98619 0
M  V30 4816 H 472.818 4.18141 -2.59651 0
M  V30 4817 N 474.47 1.03057 1.19235 0
M  V30 4818 C 475.747 0.642608 1.84743 0
M  V30 4819 C 476.127 -0.878577 1.91948 0
M  V30 4820 O 475.475 -1.77597 1.43776 0
M  V30 4821 C 475.685 1.30665 3.23616 0
M  V30 4822 C 477.033 1.43098 3.9976 0
M  V30 4823 O 478.057 1.26396 3.3302 0
M  V30 4824 O 476.916 1.70223 5.19313 0
M  V30 4825 H 474.01 0.223573 0.796206 0
M  V30 4826 H 476.556 1.12883 1.26711 0
M  V30 4827 H 475.328 2.34544 3.13217 0
M  V30 4828 H 474.951 0.808405 3.89295 0
M  V30 4829 N 475.948 -1.35272 0.808662 0
M  V30 4830 C 477.176 -2.02946 0.402537 0
M  V30 4831 C 477.591 -1.60937 -0.987147 0
M  V30 4832 O 476.948 -0.807917 -1.63643 0
M  V30 4833 C 476.999 -3.58317 0.47868 0
M  V30 4834 O 476.72 -3.98799 1.81358 0
M  V30 4835 C 478.221 -4.43251 0.0656281 0
M  V30 4836 H 475.441 -0.650831 0.163279 0
M  V30 4837 H 477.985 -1.72849 1.09286 0
M  V30 4838 H 476.14 -3.87055 -0.163415 0
M  V30 4839 H 476.554 -4.93451 1.77781 0
M  V30 4840 H 478.028 -5.51738 0.170017 0
M  V30 4841 H 478.505 -4.27913 -0.989278 0
M  V30 4842 H 479.111 -4.19813 0.68096 0
M  V30 4843 N 477.426 -0.562348 -1.47226 0
M  V30 4844 C 478.336 0.185466 -2.33866 0
M  V30 4845 C 479.352 0.906713 -1.48508 0
M  V30 4846 O 480.528 0.874458 -1.81425 0
M  V30 4847 C 477.593 1.19904 -3.25306 0
M  V30 4848 C 476.654 0.484669 -4.26555 0
M  V30 4849 C 475.887 1.44996 -5.13626 0
M  V30 4850 O 476.11 2.68515 -5.03245 0
M  V30 4851 O 475.044 0.971642 -5.94006 0
M  V30 4852 H 478.87 -0.525361 -2.99121 0
M  V30 4853 H 476.455 -0.322916 -1.45868 0
M  V30 4854 H 478.337 1.78399 -3.81774 0
M  V30 4855 H 477.012 1.8917 -2.62672 0
M  V30 4856 H 475.919 -0.141605 -3.73832 0
M  V30 4857 H 477.252 -0.166634 -4.91918 0
M  V30 4858 N 478.904 1.54736 -0.299062 0
M  V30 4859 C 479.814 2.27127 0.587413 0
M  V30 4860 C 480.83 1.30575 1.15005 0
M  V30 4861 O 482.006 1.63554 1.17525 0
M  V30 4862 C 479.071 2.99645 1.74395 0
M  V30 4863 C 478.132 4.11731 1.21559 0
M  V30 4864 C 477.365 4.80781 2.317 0
M  V30 4865 O 477.588 4.4918 3.51558 0
M  V30 4866 O 476.522 5.68226 1.98501 0
M  V30 4867 H 480.348 3.037 0.000250109 0
M  V30 4868 H 477.933 1.49256 -0.0655919 0
M  V30 4869 H 479.815 3.45138 2.4178 0
M  V30 4870 H 478.49 2.25969 2.31775 0
M  V30 4871 H 477.397 3.70641 0.507514 0
M  V30 4872 H 478.73 4.87379 0.687233 0
M  V30 4873 N 480.382 0.0267497 1.57577 0
M  V30 4874 C 481.292 -0.971633 2.13533 0
M  V30 4875 C 482.308 -1.35868 1.08701 0
M  V30 4876 O 483.484 -1.44058 1.40746 0
M  V30 4877 C 480.549 -2.23622 2.64941 0
M  V30 4878 C 479.61 -1.90982 3.8448 0
M  V30 4879 C 478.843 -3.11411 4.33427 0
M  V30 4880 O 479.066 -4.23992 3.81558 0
M  V30 4881 O 478 -2.93848 5.25297 0
M  V30 4882 H 481.826 -0.525853 2.99113 0
M  V30 4883 H 479.411 -0.193712 1.48139 0
M  V30 4884 H 481.293 -2.97864 2.98086 0
M  V30 4885 H 479.968 -2.67386 1.82446 0
M  V30 4886 H 478.875 -1.14132 3.56265 0
M  V30 4887 H 480.208 -1.52036 4.6813 0
M  V30 4888 N 481.861 -1.55662 -0.24637 0
M  V30 4889 C 482.771 -1.93495 -1.32653 0
M  V30 4890 C 483.787 -0.835462 -1.5263 0
M  V30 4891 O 484.963 -1.1369 -1.66242 0
M  V30 4892 C 482.028 -2.22242 -2.66101 0
M  V30 4893 C 481.089 -3.45625 -2.54641 0
M  V30 4894 C 480.322 -3.72991 -3.81724 0
M  V30 4895 O 480.545 -3.02421 -4.8363 0
M  V30 4896 O 479.479 -4.66515 -3.80325 0
M  V30 4897 H 483.305 -2.85498 -1.03559 0
M  V30 4898 H 480.89 -1.42551 -0.44717 0
M  V30 4899 H 482.772 -2.42037 -3.44958 0
M  V30 4900 H 481.447 -1.33417 -2.94926 0
M  V30 4901 H 480.354 -3.31136 -1.74067 0
M  V30 4902 H 481.687 -4.34754 -2.3076 0
M  V30 4903 N 483.339 0.512053 -1.4905 0
M  V30 4904 C 484.249 1.64139 -1.67617 0
M  V30 4905 C 485.265 1.64786 -0.558701 0
M  V30 4906 O 486.441 1.8341 -0.832034 0
M  V30 4907 C 483.506 3.00548 -1.72835 0
M  V30 4908 C 482.567 3.10615 -2.96339 0
M  V30 4909 C 481.8 4.40517 -3.01298 0
M  V30 4910 O 482.023 5.28671 -2.14157 0
M  V30 4911 O 480.957 4.55325 -3.93653 0
M  V30 4912 H 484.783 1.51407 -2.63267 0
M  V30 4913 H 482.368 0.687131 -1.32661 0
M  V30 4914 H 484.25 3.81641 -1.78683 0
M  V30 4915 H 482.925 3.13566 -0.803616 0
M  V30 4916 H 481.832 2.2875 -2.96014 0
M  V30 4917 H 483.165 3.0252 -3.88256 0
M  V30 4918 N 484.817 1.37938 0.762283 0
M  V30 4919 C 486.094 1.24196 1.51112 0
M  V30 4920 C 486.474 -0.160409 2.1049 0
M  V30 4921 O 485.822 -1.16904 1.96331 0
M  V30 4922 C 486.032 2.34537 2.58445 0
M  V30 4923 C 487.38 2.7254 3.25588 0
M  V30 4924 O 488.404 2.33783 2.68745 0
M  V30 4925 O 487.263 3.39343 4.28379 0
M  V30 4926 H 484.357 0.485175 0.669727 0
M  V30 4927 H 486.903 1.49743 0.798438 0
M  V30 4928 H 485.675 3.28406 2.12756 0
M  V30 4929 H 485.298 2.10505 3.37303 0
M  V30 4930 N 486.295 -0.989507 1.22664 0
M  V30 4931 C 487.205 -2.11449 1.01619 0
M  V30 4932 C 488.221 -1.73962 -0.036545 0
M  V30 4933 O 489.397 -2.00788 0.156924 0
M  V30 4934 C 486.462 -3.41465 0.600204 0
M  V30 4935 C 485.523 -3.93033 1.72695 0
M  V30 4936 C 484.756 -5.16844 1.33071 0
M  V30 4937 O 484.979 -5.7001 0.210975 0
M  V30 4938 O 483.913 -5.6225 2.14845 0
M  V30 4939 H 487.739 -2.32088 1.9588 0
M  V30 4940 H 485.324 -1.09823 1.01289 0
M  V30 4941 H 487.206 -4.19695 0.37873 0
M  V30 4942 H 485.881 -3.22178 -0.313511 0
M  V30 4943 H 484.788 -3.15961 2.00298 0
M  V30 4944 H 486.121 -4.16758 2.61865 0
M  V30 4945 N 487.773 -1.03688 -1.18687 0
M  V30 4946 C 489.05 -0.652397 -1.84399 0
M  V30 4947 C 489.43 0.868386 -1.92412 0
M  V30 4948 O 488.778 1.76832 -1.44716 0
M  V30 4949 C 488.988 -1.3238 -3.22919 0
M  V30 4950 C 490.336 -1.45216 -3.98996 0
M  V30 4951 O 491.36 -1.2816 -3.32345 0
M  V30 4952 O 490.219 -1.72975 -5.18403 0
M  V30 4953 H 487.313 -0.227793 -0.795009 0
M  V30 4954 H 489.859 -1.13553 -1.2611 0
M  V30 4955 H 488.631 -2.36202 -3.11968 0
M  V30 4956 H 488.254 -0.829039 -3.88861 0
M  V30 4957 N 489.251 1.34841 -0.815825 0
M  V30 4958 C 490.183 2.28409 -0.190265 0
M  V30 4959 C 491.196 1.50705 0.615771 0
M  V30 4960 O 492.385 1.72822 0.446616 0
M  V30 4961 C 489.485 3.30441 0.752446 0
M  V30 4962 C 488.658 4.37399 -0.00922152 0
M  V30 4963 C 487.717 5.19234 0.853351 0
M  V30 4964 O 486.743 5.68404 0.300919 0
M  V30 4965 N 487.945 5.38248 2.17416 0
M  V30 4966 H 490.71 2.82732 -0.994114 0
M  V30 4967 H 488.271 1.47289 -0.672129 0
M  V30 4968 H 490.263 3.82084 1.33394 0
M  V30 4969 H 488.833 2.76565 1.45707 0
M  V30 4970 H 488.053 3.86567 -0.771979 0
M  V30 4971 H 489.341 5.05992 -0.533807 0
M  V30 4972 H 488.739 4.99961 2.6468 0
M  V30 4973 H 487.296 5.93035 2.70467 0
M  V30 4974 N 490.729 0.570148 1.46925 0
M  V30 4975 C 492.006 -0.0153259 1.95594 0
M  V30 4976 C 492.386 -1.47232 1.51281 0
M  V30 4977 O 491.734 -2.15574 0.757624 0
M  V30 4978 C 491.944 0.143624 3.48704 0
M  V30 4979 C 493.292 0.00494484 4.246 0
M  V30 4980 O 494.316 0.0718214 3.56128 0
M  V30 4981 O 493.175 -0.141175 5.46318 0
M  V30 4982 H 490.269 -0.0568819 0.825041 0
M  V30 4983 H 492.815 0.637583 1.57267 0
M  V30 4984 H 491.587 1.15699 3.73804 0
M  V30 4985 H 491.21 -0.5463 3.93829 0
M  V30 4986 N 492.207 -1.54576 0.307264 0
M  V30 4987 C 493.437 -2.04378 -0.302158 0
M  V30 4988 C 493.845 -1.18381 -1.47589 0
M  V30 4989 O 493.188 -0.20352 -1.82569 0
M  V30 4990 C 493.25 -3.50133 -0.815305 0
M  V30 4991 C 492.914 -4.56401 0.233977 0
M  V30 4992 C 493.911 -5.08884 1.06456 0
M  V30 4993 C 491.596 -5.0088 0.377478 0
M  V30 4994 C 493.59 -6.04394 2.02452 0
M  V30 4995 C 491.277 -5.96208 1.34088 0
M  V30 4996 C 492.275 -6.47849 2.16288 0
M  V30 4997 O 491.963 -7.41308 3.10994 0
M  V30 4998 H 491.695 -0.672502 -0.0686839 0
M  V30 4999 H 494.249 -2.00484 0.446682 0
M  V30 5000 H 492.479 -3.51371 -1.61478 0
M  V30 5001 H 494.168 -3.83098 -1.34129 0
M  V30 5002 H 494.934 -4.75311 0.964596 0
M  V30 5003 H 490.813 -4.60309 -0.252405 0
M  V30 5004 H 494.357 -6.44626 2.66652 0
M  V30 5005 H 490.254 -6.29198 1.44154 0
M  V30 5006 H 491.022 -7.5913 3.06045 0
M  V30 5007 N 493.685 -0.035106 -1.57561 0
M  V30 5008 C 494.91 0.655802 -1.96759 0
M  V30 5009 C 495.335 1.64523 -0.911809 0
M  V30 5010 O 494.693 1.80857 0.126673 0
M  V30 5011 C 494.741 1.33326 -3.35047 0
M  V30 5012 O 493.845 2.44866 -3.31835 0
M  V30 5013 H 493.186 0.171807 -0.641388 0
M  V30 5014 H 495.716 -0.0987369 -2.04362 0
M  V30 5015 H 495.726 1.68867 -3.71413 0
M  V30 5016 H 494.401 0.608033 -4.11431 0
M  V30 5017 H 492.978 2.11392 -3.07193 0
M  V30 5018 N 495.163 1.55791 0.238111 0
M  V30 5019 C 496.41 1.78033 0.964907 0
M  V30 5020 C 496.738 0.600984 1.84982 0
M  V30 5021 O 495.993 -0.41536 1.91241 0
M  V30 5022 C 496.292 3.05869 1.84875 0
M  V30 5023 C 495.958 4.36808 1.11846 0
M  V30 5024 C 494.62 4.72388 0.916662 0
M  V30 5025 C 496.972 5.17717 0.60151 0
M  V30 5026 C 494.3 5.86406 0.185756 0
M  V30 5027 C 496.652 6.32494 -0.115972 0
M  V30 5028 C 495.316 6.66688 -0.329168 0
M  V30 5029 H 494.586 0.651469 0.353085 0
M  V30 5030 H 497.233 1.90061 0.234318 0
M  V30 5031 H 495.538 2.88891 2.64668 0
M  V30 5032 H 497.235 3.20278 2.41294 0
M  V30 5033 H 493.825 4.08862 1.28569 0
M  V30 5034 H 498.009 4.90678 0.744932 0
M  V30 5035 H 493.265 6.11399 0.0101886 0
M  V30 5036 H 497.439 6.94425 -0.524127 0
M  V30 5037 H 495.066 7.54884 -0.897474 0
M  V30 5038 N 496.642 -0.504142 1.49319 0
M  V30 5039 C 498.053 -1.08572 1.51885 0
M  V30 5040 C 498.404 -1.93842 0.303255 0
M  V30 5041 O 497.529 -2.0828 -0.58724 0
M  V30 5042 C 498.124 -1.97574 2.75227 0
M  V30 5043 C 496.683 -2.509 2.80581 0
M  V30 5044 C 495.83 -1.28447 2.45757 0
M  V30 5045 H 498.781 -0.288194 1.56061 0
M  V30 5046 H 498.802 -2.82219 2.55211 0
M  V30 5047 H 498.314 -1.35486 3.63683 0
M  V30 5048 H 496.415 -3.16636 1.96398 0
M  V30 5049 H 496.528 -2.88268 3.82673 0
M  V30 5050 H 494.892 -1.60868 1.97468 0
M  V30 5051 H 495.675 -0.68072 3.36483 0
M  V30 5052 N 498.12 -1.38341 -0.754957 0
M  V30 5053 C 499.369 -1.33791 -1.5094 0
M  V30 5054 C 499.682 0.0699267 -1.95475 0
M  V30 5055 O 500.888 0.237956 -2.70455 0
M  V30 5056 C 499.344 -2.34934 -2.72643 0
M  V30 5057 C 498.952 -3.81332 -2.35138 0
M  V30 5058 C 500.696 -2.39425 -3.50536 0
M  V30 5059 C 498.603 -4.74164 -3.53444 0
M  V30 5060 H 497.533 -0.497314 -0.566741 0
M  V30 5061 H 500.184 -1.63888 -0.825403 0
M  V30 5062 H 498.566 -1.97878 -3.43017 0
M  V30 5063 H 499.74 -4.27319 -1.7244 0
M  V30 5064 H 498.055 -3.79946 -1.70382 0
M  V30 5065 H 500.652 -3.0598 -4.38498 0
M  V30 5066 H 500.995 -1.41278 -3.91594 0
M  V30 5067 H 501.528 -2.75274 -2.87174 0
M  V30 5068 H 498.267 -5.73501 -3.17453 0
M  V30 5069 H 497.787 -4.3287 -4.15191 0
M  V30 5070 H 499.466 -4.92111 -4.20043 0
M  V30 5071 N 499.598 0.982988 -1.23187 0
M  V30 5072 C 500.823 1.76455 -1.08988 0
M  V30 5073 C 501.248 1.84726 0.354691 0
M  V30 5074 O 500.606 1.30699 1.25649 0
M  V30 5075 C 500.654 3.17094 -1.71708 0
M  V30 5076 O 499.758 4.00648 -0.977477 0
M  V30 5077 H 499.099 0.542988 -0.382177 0
M  V30 5078 H 501.629 1.23413 -1.63188 0
M  V30 5079 H 501.639 3.67684 -1.76841 0
M  V30 5080 H 500.314 3.10389 -2.76823 0
M  V30 5081 H 498.891 3.59161 -1.0029 0
M  V30 5082 N 501.076 1.04316 1.18135 0
M  V30 5083 C 502.301 0.768047 1.92655 0
M  V30 5084 C 502.726 -0.66904 1.758 0
M  V30 5085 O 502.084 -1.46372 1.06981 0
M  V30 5086 C 502.132 1.14239 3.42026 0
M  V30 5087 O 501.236 0.269333 4.1152 0
M  V30 5088 H 500.577 0.282436 0.600937 0
M  V30 5089 H 503.107 1.39367 1.49793 0
M  V30 5090 H 503.117 1.10538 3.92741 0
M  V30 5091 H 501.792 2.18928 3.53615 0
M  V30 5092 H 500.369 0.366175 3.71098 0
M  V30 5093 N 502.554 -1.34406 0.822964 0
M  V30 5094 C 503.803 -1.97542 0.407458 0
M  V30 5095 C 504.116 -1.65973 -1.035 0
M  V30 5096 O 505.322 -2.22598 -1.55442 0
M  V30 5097 C 503.778 -3.53463 0.677623 0
M  V30 5098 C 503.386 -3.93925 2.1337 0
M  V30 5099 C 505.13 -4.23229 0.328284 0
M  V30 5100 C 503.037 -5.42759 2.34876 0
M  V30 5101 H 501.967 -0.739207 0.148623 0
M  V30 5102 H 504.618 -1.53248 1.00932 0
M  V30 5103 H 503 -3.96 0.00558965 0
M  V30 5104 H 504.174 -3.62494 2.8449 0
M  V30 5105 H 502.489 -3.37097 2.44448 0
M  V30 5106 H 505.086 -5.32659 0.466794 0
M  V30 5107 H 505.429 -4.09899 -0.727224 0
M  V30 5108 H 505.962 -3.86169 0.954896 0
M  V30 5109 H 502.701 -5.61075 3.38932 0
M  V30 5110 H 502.221 -5.75704 1.68299 0
M  V30 5111 H 503.9 -6.0944 2.17236 0
M  V30 5112 N 504.032 -0.577932 -1.46621 0
M  V30 5113 C 504.962 0.145917 -2.33044 0
M  V30 5114 C 505.943 0.888412 -1.45056 0
M  V30 5115 O 507.128 0.864812 -1.73881 0
M  V30 5116 C 504.258 1.16322 -3.27241 0
M  V30 5117 C 503.212 0.535868 -4.24632 0
M  V30 5118 C 502.538 1.65929 -5.08303 0
M  V30 5119 C 503.838 -0.523861 -5.19666 0
M  V30 5120 H 505.532 -0.575636 -2.93814 0
M  V30 5121 H 503.078 -0.278272 -1.41286 0
M  V30 5122 H 505.031 1.67793 -3.86553 0
M  V30 5123 H 503.755 1.91498 -2.64567 0
M  V30 5124 H 502.414 0.0422759 -3.66576 0
M  V30 5125 H 502.062 2.40061 -4.42018 0
M  V30 5126 H 501.762 1.2452 -5.74255 0
M  V30 5127 H 503.286 2.17686 -5.70478 0
M  V30 5128 H 504.7 -0.0944059 -5.73222 0
M  V30 5129 H 503.097 -0.858 -5.93935 0
M  V30 5130 H 504.167 -1.41197 -4.63887 0
M  V30 5131 N 505.51 1.54411 -0.315457 0
M  V30 5132 C 506.42 2.27737 0.56329 0
M  V30 5133 C 507.436 1.31787 1.13614 0
M  V30 5134 O 508.612 1.64791 1.15784 0
M  V30 5135 C 505.677 3.01478 1.71207 0
M  V30 5136 C 504.738 4.12997 1.17185 0
M  V30 5137 C 503.971 4.83212 2.26588 0
M  V30 5138 O 504.194 4.52884 3.46775 0
M  V30 5139 O 503.128 5.70299 1.92463 0
M  V30 5140 H 506.954 3.03683 -0.0319614 0
M  V30 5141 H 504.539 1.49178 -0.0814188 0
M  V30 5142 H 506.421 3.47683 2.38106 0
M  V30 5143 H 505.096 2.28414 2.29366 0
M  V30 5144 H 504.003 3.71159 0.468174 0
M  V30 5145 H 505.336 4.8808 0.635501 0
M  V30 5146 N 506.988 0.0434614 1.5754 0
M  V30 5147 C 508.234 -0.627109 1.93491 0
M  V30 5148 C 508.589 -1.68904 0.921362 0
M  V30 5149 O 507.882 -1.91504 -0.0605799 0
M  V30 5150 C 508.076 -1.2738 3.3393 0
M  V30 5151 C 507.905 -0.27603 4.48852 0
M  V30 5152 C 506.675 0.129244 5.05135 0
M  V30 5153 C 508.873 0.475462 5.12098 0
M  V30 5154 N 506.855 1.12068 6.03584 0
M  V30 5155 C 508.226 1.32021 6.05781 0
M  V30 5156 C 510.281 0.534611 4.95022 0
M  V30 5157 C 508.984 2.2188 6.84223 0
M  V30 5158 C 511.01 1.42059 5.74085 0
M  V30 5159 C 510.372 2.25309 6.67394 0
M  V30 5160 H 506.471 -0.201354 0.755633 0
M  V30 5161 H 509.055 0.113991 1.94366 0
M  V30 5162 H 507.226 -1.98496 3.33847 0
M  V30 5163 H 508.958 -1.90255 3.57191 0
M  V30 5164 H 505.713 -0.248145 4.72949 0
M  V30 5165 H 506.137 1.61306 6.57502 0
M  V30 5166 H 510.779 -0.0947817 4.22694 0
M  V30 5167 H 508.497 2.85868 7.55847 0
M  V30 5168 H 512.083 1.47083 5.62901 0
M  V30 5169 H 510.963 2.92754 7.27506 0
M  V30 5170 O 508.505 -1.61203 -0.0978465 0
M  V30 5171 H 509.196 -1.79548 -0.726781 0
M  V30 END ATOM
M  V30 BEGIN BOND
M  V30 END BOND
M  V30 END CTAB
M  END
$$$$
