drugbank_target|P19827 Inter-alpha-trypsin inhibitor heavy chain H1 (DB01593; DB14487; DB14533; DB14548)
 OpenBabel12092121083D

  0  0  0     0  0            999 V3000
M  V30 BEGIN CTAB
M  V30 COUNTS 14213 14361 0 0 0
M  V30 BEGIN ATOM
M  V30 1 H -0.908 1.98254 -0.117106 0
M  V30 2 N 0 1.576 0 0
M  V30 3 C 0.933 2.03868 1.02534 0
M  V30 4 C 1.911 0.928543 1.3348 0
M  V30 5 O 3.095 1.19667 1.45644 0
M  V30 6 C 0.222 2.43627 2.35294 0
M  V30 7 C -0.732 3.65373 2.2001 0
M  V30 8 S 0.101 5.13292 1.52614 0
M  V30 9 C 1.257 5.56322 2.86805 0
M  V30 10 H 1.49 2.90518 0.631377 0
M  V30 11 H -0.977 1.52953 0.210867 0
M  V30 12 H 0.981 2.67203 3.11629 0
M  V30 13 H -0.358 1.57376 2.7183 0
M  V30 14 H -1.165 3.90944 3.18086 0
M  V30 15 H -1.563 3.418 1.51819 0
M  V30 16 H 0.729 5.58782 3.83104 0
M  V30 17 H 1.672 6.56266 2.65933 0
M  V30 18 H 2.08 4.83886 2.90714 0
M  V30 19 N 1.4781 -0.272755 1.55222 0
M  V30 20 C 2.7551 -1.02562 1.66555 0
M  V30 21 C 3.1351 -2.04282 0.532189 0
M  V30 22 O 2.4831 -2.23662 -0.467717 0
M  V30 23 C 2.6931 -1.6822 3.05782 0
M  V30 24 C 4.0411 -2.19373 3.63539 0
M  V30 25 O 5.0651 -1.78206 3.08417 0
M  V30 26 O 3.9241 -2.94883 4.60115 0
M  V30 27 H 1.0181 -0.475755 0.676451 0
M  V30 28 H 3.5641 -0.268593 1.67561 0
M  V30 29 H 2.3361 -0.945112 3.79715 0
M  V30 30 H 1.9591 -2.50609 3.08676 0
M  V30 31 N 2.9562 -1.48159 -0.537278 0
M  V30 32 C 4.2042 -1.55497 -1.29094 0
M  V30 33 C 4.5252 -0.227454 -1.93669 0
M  V30 34 O 3.7952 0.750386 -1.80959 0
M  V30 35 H 2.3752 -0.572832 -0.47945 0
M  V30 36 H 5.0372 -1.84579 -0.625818 0
M  V30 37 H 4.1332 -2.33216 -2.07405 0
M  V30 38 N 4.4343 0.785586 -1.36625 0
M  V30 39 C 5.3973 1.87999 -1.31107 0
M  V30 40 C 6.3973 1.59316 -0.217959 0
M  V30 41 O 7.5873 1.67656 -0.472977 0
M  V30 42 C 4.7193 3.24861 -1.03334 0
M  V30 43 H 5.9123 1.94307 -2.2844 0
M  V30 44 H 3.4653 0.983813 -1.21453 0
M  V30 45 H 4.2003 3.24235 -0.0647432 0
M  V30 46 H 3.9853 3.4707 -1.82441 0
M  V30 47 H 5.4753 4.04929 -1.02088 0
M  V30 48 N 5.9124 1.20967 1.01018 0
M  V30 49 C 6.8454 0.907578 2.09376 0
M  V30 50 C 7.8234 -0.142868 1.61971 0
M  V30 51 O 9.0074 -0.0150391 1.88494 0
M  V30 52 C 6.1344 0.361791 3.36762 0
M  V30 53 C 5.1804 1.39423 4.03068 0
M  V30 54 S 6.0134 2.96159 4.4615 0
M  V30 55 C 7.1694 2.43173 5.7673 0
M  V30 56 H 7.4024 1.82519 2.34678 0
M  V30 57 H 4.9354 1.03884 1.14225 0
M  V30 58 H 6.8934 0.0534523 4.10465 0
M  V30 59 H 5.5544 -0.53443 3.0952 0
M  V30 60 H 4.7474 0.961853 4.94737 0
M  V30 61 H 4.3494 1.65038 3.35617 0
M  V30 62 H 6.6414 1.83335 6.52223 0
M  V30 63 H 7.5844 3.33264 6.24773 0
M  V30 64 H 7.9924 1.85069 5.33301 0
M  V30 65 N 7.3905 -1.2043 1.01659 0
M  V30 66 C 8.6385 -1.89423 0.704522 0
M  V30 67 C 8.9595 -1.79231 -0.768197 0
M  V30 68 O 8.2295 -1.1947 -1.55254 0
M  V30 69 H 6.8095 -0.701178 0.257602 0
M  V30 70 H 9.4715 -1.4626 1.28818 0
M  V30 71 H 8.5675 -2.96052 0.987916 0
M  V30 72 N 8.8686 -0.792821 -1.36206 0
M  V30 73 C 10.2796 -0.429513 -1.81692 0
M  V30 74 C 10.6306 1.04695 -1.65932 0
M  V30 75 O 9.7556 1.81256 -1.18218 0
M  V30 76 C 10.3506 -0.772831 -3.29868 0
M  V30 77 C 8.9096 -0.462307 -3.7355 0
M  V30 78 C 8.0566 -1.00569 -2.5842 0
M  V30 79 H 11.0076 -0.985672 -1.24379 0
M  V30 80 H 11.0286 -0.0651928 -3.80444 0
M  V30 81 H 10.5406 -1.84747 -3.41307 0
M  V30 82 H 8.6416 0.604158 -3.67669 0
M  V30 83 H 8.7546 -0.985299 -4.68859 0
M  V30 84 H 7.1186 -0.428734 -2.51066 0
M  V30 85 H 7.9016 -2.08616 -2.72643 0
M  V30 86 N 10.3467 1.47872 -0.545128 0
M  V30 87 C 11.7627 1.5829 -0.204032 0
M  V30 88 C 11.9627 1.54529 1.29317 0
M  V30 89 O 11.0187 1.44232 2.07252 0
M  V30 90 C 12.3317 2.89304 -0.819987 0
M  V30 91 C 13.8797 3.02864 -0.790105 0
M  V30 92 C 14.3547 4.3656 -1.38491 0
M  V30 93 N 15.8457 4.43165 -1.34755 0
M  V30 94 C 16.5807 5.45153 -1.77753 0
M  V30 95 N 16.0767 6.54016 -2.2855 0
M  V30 96 N 17.8697 5.36125 -1.68897 0
M  V30 97 H 10.0207 1.4856 -1.51802 0
M  V30 98 H 12.2837 0.706305 -0.632327 0
M  V30 99 H 11.9897 2.97757 -1.87173 0
M  V30 100 H 11.8637 3.75957 -0.305915 0
M  V30 101 H 14.2507 2.94014 0.252913 0
M  V30 102 H 14.3317 2.17782 -1.34181 0
M  V30 103 H 13.9757 4.46164 -2.42693 0
M  V30 104 H 13.9057 5.20353 -0.808754 0
M  V30 105 H 16.3967 3.65083 -0.975855 0
M  V30 106 H 16.7097 7.27994 -2.59314 0
M  V30 107 H 15.0547 6.54938 -2.32553 0
M  V30 108 H 18.2457 4.49975 -1.28998 0
M  V30 109 H 18.4187 6.15472 -2.02726 0
M  V30 110 N 11.8248 0.280983 1.55075 0
M  V30 111 C 13.0728 -0.333455 1.9933 0
M  V30 112 C 13.3938 -1.55937 1.17085 0
M  V30 113 O 12.6638 -1.94143 0.261805 0
M  V30 114 H 11.2438 -0.126197 0.736263 0
M  V30 115 H 13.9058 0.387678 1.91005 0
M  V30 116 H 13.0018 -0.619292 3.05894 0
M  V30 117 N 13.3029 -1.57598 0.00835791 0
M  V30 118 C 14.2329 -2.1198 -0.979113 0
M  V30 119 C 15.2139 -1.03091 -1.35301 0
M  V30 120 O 16.3989 -1.30818 -1.43528 0
M  V30 121 C 13.5289 -2.62995 -2.26828 0
M  V30 122 C 12.4829 -3.76485 -2.03576 0
M  V30 123 C 11.8089 -4.13846 -3.38579 0
M  V30 124 C 13.1089 -5.0342 -1.39161 0
M  V30 125 H 14.8029 -2.94738 -0.526281 0
M  V30 126 H 12.3489 -1.41783 -0.251704 0
M  V30 127 H 14.3019 -2.99669 -2.96271 0
M  V30 128 H 13.0259 -1.7737 -2.7424 0
M  V30 129 H 11.6849 -3.40217 -1.36557 0
M  V30 130 H 11.3329 -3.25232 -3.83709 0
M  V30 131 H 11.0329 -4.90312 -3.23834 0
M  V30 132 H 12.5569 -4.53086 -4.09323 0
M  V30 133 H 13.9709 -5.37812 -1.98573 0
M  V30 134 H 12.3679 -5.84746 -1.34878 0
M  V30 135 H 13.4379 -4.83548 -0.361868 0
M  V30 136 N 14.781 0.264519 -1.55364 0
M  V30 137 C 15.711 1.33121 -1.91836 0
M  V30 138 C 16.692 1.51101 -0.781192 0
M  V30 139 O 17.877 1.64003 -1.04003 0
M  V30 140 C 15.007 2.68921 -2.19769 0
M  V30 141 C 13.961 2.65661 -3.35571 0
M  V30 142 C 13.287 4.05093 -3.49004 0
M  V30 143 C 14.587 2.24187 -4.71739 0
M  V30 144 H 16.281 1.02844 -2.81182 0
M  V30 145 H 13.827 0.493286 -1.35287 0
M  V30 146 H 15.78 3.43663 -2.43872 0
M  V30 147 H 14.504 3.00799 -1.27231 0
M  V30 148 H 13.163 1.93377 -3.1145 0
M  V30 149 H 12.811 4.34206 -2.53917 0
M  V30 150 H 12.511 4.03804 -4.26868 0
M  V30 151 H 14.035 4.81561 -3.75408 0
M  V30 152 H 15.449 2.88654 -4.9533 0
M  V30 153 H 13.846 2.34044 -5.52579 0
M  V30 154 H 14.916 1.19327 -4.69988 0
M  V30 155 N 16.2591 1.48442 0.529413 0
M  V30 156 C 17.1891 1.65902 1.64313 0
M  V30 157 C 18.1701 0.507897 1.6234 0
M  V30 158 O 19.3551 0.740503 1.79528 0
M  V30 159 C 16.4851 1.69911 3.02898 0
M  V30 160 C 15.4391 2.8453 3.19729 0
M  V30 161 C 14.7651 2.73629 4.59381 0
M  V30 162 C 16.0651 4.25821 3.02447 0
M  V30 163 H 17.7591 2.5914 1.49955 0
M  V30 164 H 15.3051 1.24709 0.719982 0
M  V30 165 H 17.2581 1.80715 3.80684 0
M  V30 166 H 15.9821 0.732524 3.18279 0
M  V30 167 H 14.6411 2.73283 2.44361 0
M  V30 168 H 14.2891 1.74938 4.71599 0
M  V30 169 H 13.9891 3.50541 4.71588 0
M  V30 170 H 15.5131 2.86401 5.39265 0
M  V30 171 H 16.9271 4.37898 3.70024 0
M  V30 172 H 15.3241 5.03735 3.26146 0
M  V30 173 H 16.3941 4.42244 1.98867 0
M  V30 174 N 17.7372 -0.778329 1.37039 0
M  V30 175 C 18.9772 -1.54973 1.33276 0
M  V30 176 C 19.3412 -1.91816 -0.0839376 0
M  V30 177 O 20.5422 -2.6767 -0.246228 0
M  V30 178 C 18.8132 -2.78517 2.23971 0
M  V30 179 S 20.3722 -3.6865 2.37997 0
M  V30 180 H 17.1902 -0.530639 0.473226 0
M  V30 181 H 19.7922 -0.915806 1.72723 0
M  V30 182 H 18.4962 -2.4952 3.25835 0
M  V30 183 H 18.0272 -3.46875 1.85584 0
M  V30 184 H 20.0422 -4.70182 1.58567 0
M  V30 185 N 19.2153 -1.21501 -1.00376 0
M  V30 186 C 20.1483 -0.918669 -2.08892 0
M  V30 187 C 21.1263 0.134277 -1.62045 0
M  V30 188 O 22.3103 0.00504255 -1.88499 0
M  V30 189 C 19.4373 -0.379645 -3.36566 0
M  V30 190 C 18.4833 -1.41559 -4.02323 0
M  V30 191 S 19.3163 -2.98521 -4.44574 0
M  V30 192 C 20.4723 -2.46228 -5.75433 0
M  V30 193 H 20.7053 -1.83761 -2.33707 0
M  V30 194 H 18.2383 -1.04489 -1.13673 0
M  V30 195 H 20.1963 -0.0752195 -4.10431 0
M  V30 196 H 18.8573 0.518008 -3.09799 0
M  V30 197 H 18.0503 -0.988076 -4.9422 0
M  V30 198 H 17.6523 -1.66815 -3.34737 0
M  V30 199 H 19.9443 -1.86791 -6.51241 0
M  V30 200 H 20.8873 -3.36572 -6.22997 0
M  V30 201 H 21.2953 -1.87894 -5.32312 0
M  V30 202 N 20.6934 1.19889 -1.02296 0
M  V30 203 C 21.9234 1.93109 -0.734332 0
M  V30 204 C 22.3314 1.75377 0.709889 0
M  V30 205 O 21.6744 1.06912 1.49384 0
M  V30 206 C 21.7364 3.45362 -0.99827 0
M  V30 207 C 21.4004 3.8686 -2.43287 0
M  V30 208 C 22.3974 3.92102 -3.41397 0
M  V30 209 C 20.0824 4.18668 -2.77529 0
M  V30 210 C 22.0764 4.28573 -4.71809 0
M  V30 211 C 19.7634 4.54813 -4.08153 0
M  V30 212 C 20.7614 4.59739 -5.05103 0
M  V30 213 O 20.4494 4.95051 -6.33388 0
M  V30 214 H 20.1814 0.620409 -0.268456 0
M  V30 215 H 22.7354 1.53144 -1.3688 0
M  V30 216 H 20.9654 3.85482 -0.306645 0
M  V30 217 H 22.6544 3.99814 -0.700234 0
M  V30 218 H 23.4204 3.67685 -3.1628 0
M  V30 219 H 19.2994 4.14021 -2.0275 0
M  V30 220 H 22.8434 4.32333 -5.4748 0
M  V30 221 H 18.7404 4.78687 -4.33047 0
M  V30 222 H 19.5084 5.1302 -6.37772 0
M  V30 223 N 22.1715 0.800033 1.35784 0
M  V30 224 C 23.1015 0.220184 2.3246 0
M  V30 225 C 24.0825 -0.65073 1.57161 0
M  V30 226 O 25.2675 -0.582359 1.85263 0
M  V30 227 C 22.3975 -0.637353 3.41402 0
M  V30 228 C 21.3515 0.134531 4.27789 0
M  V30 229 C 20.6775 -0.844285 5.27992 0
M  V30 230 C 21.9775 1.32979 5.05088 0
M  V30 231 H 23.6715 1.02787 2.81203 0
M  V30 232 H 21.2175 0.495717 1.35199 0
M  V30 233 H 23.1705 -1.05302 4.08031 0
M  V30 234 H 21.8945 -1.47785 2.91251 0
M  V30 235 H 20.5535 0.531296 3.6273 0
M  V30 236 H 20.2015 -1.68011 4.74111 0
M  V30 237 H 19.9015 -0.332184 5.8666 0
M  V30 238 H 21.4255 -1.2583 5.97494 0
M  V30 239 H 22.8395 0.98934 5.64699 0
M  V30 240 H 21.2365 1.77593 5.7322 0
M  V30 241 H 22.3065 2.11978 4.36111 0
M  V30 242 N 23.6496 -1.47581 0.552962 0
M  V30 243 C 24.8956 -2.02782 0.0273648 0
M  V30 244 C 25.2286 -1.42687 -1.31734 0
M  V30 245 O 24.5036 -0.580897 -1.85623 0
M  V30 246 C 24.7866 -3.60031 -0.0702371 0
M  V30 247 C 24.6396 -4.30566 1.30126 0
M  V30 248 C 25.9586 -4.33028 -0.785771 0
M  V30 249 H 23.0776 -0.736912 0.0114185 0
M  V30 250 H 25.7196 -1.76056 0.714432 0
M  V30 251 H 23.8696 -3.82932 -0.655382 0
M  V30 252 H 25.5416 -4.19018 1.92929 0
M  V30 253 H 23.7846 -3.91086 1.87709 0
M  V30 254 H 24.4556 -5.39114 1.18573 0
M  V30 255 H 26.9316 -4.15095 -0.288982 0
M  V30 256 H 25.8076 -5.42695 -0.823013 0
M  V30 257 H 26.0686 -4.01945 -1.841 0
M  V30 258 N 25.1277 -0.289203 -1.54924 0
M  V30 259 C 26.3527 0.329299 -2.04769 0
M  V30 260 C 26.7777 1.4763 -1.16564 0
M  V30 261 O 26.1357 1.80527 -0.167186 0
M  V30 262 C 26.1837 0.774438 -3.52186 0
M  V30 263 O 25.2877 1.88038 -3.67036 0
M  V30 264 H 24.6287 0.0659259 -0.660719 0
M  V30 265 H 27.1587 -0.42761 -2.00082 0
M  V30 266 H 27.1687 1.06642 -3.93816 0
M  V30 267 H 25.8437 -0.0646707 -4.1585 0
M  V30 268 H 24.4207 1.58985 -3.3731 0
M  V30 269 N 26.6058 1.57591 -0.0167156 0
M  V30 270 C 27.5358 2.12496 0.967858 0
M  V30 271 C 28.5168 1.03807 1.34752 0
M  V30 272 O 29.7018 1.31577 1.42833 0
M  V30 273 C 26.8318 2.64194 2.25431 0
M  V30 274 C 25.7858 3.77559 2.01576 0
M  V30 275 C 25.1118 4.15636 3.36379 0
M  V30 276 C 26.4118 5.04151 1.36489 0
M  V30 277 H 28.1058 2.95013 0.510643 0
M  V30 278 H 25.6518 1.41915 0.244181 0
M  V30 279 H 27.6048 3.01236 2.94678 0
M  V30 280 H 26.3288 1.78821 2.73296 0
M  V30 281 H 24.9878 3.40937 1.34751 0
M  V30 282 H 24.6358 3.27263 3.81979 0
M  V30 283 H 24.3358 4.92022 3.21229 0
M  V30 284 H 25.8598 4.5525 4.06915 0
M  V30 285 H 27.2738 5.38857 1.95718 0
M  V30 286 H 25.6708 5.85453 1.31776 0
M  V30 287 H 26.7408 4.83733 0.336219 0
M  V30 288 N 28.0839 -0.256276 1.55502 0
M  V30 289 C 29.0139 -1.32102 1.92539 0
M  V30 290 C 29.9949 -1.50684 0.789194 0
M  V30 291 O 31.1799 -1.63449 1.04872 0
M  V30 292 C 28.3099 -2.67752 2.21192 0
M  V30 293 C 27.2639 -2.63878 3.36975 0
M  V30 294 C 26.5899 -4.03236 3.51147 0
M  V30 295 C 27.8899 -2.21682 4.72921 0
M  V30 296 H 29.5839 -1.01351 2.81724 0
M  V30 297 H 27.1299 -0.486105 1.35547 0
M  V30 298 H 29.0829 -3.42365 2.45691 0
M  V30 299 H 27.8069 -3.0012 1.28824 0
M  V30 300 H 26.4659 -1.91722 3.12471 0
M  V30 301 H 26.1139 -4.32854 2.56216 0
M  V30 302 H 25.8139 -4.01535 4.29003 0
M  V30 303 H 27.3379 -4.79563 3.77957 0
M  V30 304 H 28.7519 -2.86023 4.96854 0
M  V30 305 H 27.1489 -2.3111 5.53812 0
M  V30 306 H 28.2189 -1.16833 4.70615 0
M  V30 307 N 29.562 -1.4872 -0.521534 0
M  V30 308 C 30.811 -1.56419 -1.27341 0
M  V30 309 C 31.124 -0.246805 -1.94037 0
M  V30 310 O 32.33 -0.202122 -2.70747 0
M  V30 311 C 30.786 -2.75896 -2.31105 0
M  V30 312 C 30.394 -4.14311 -1.70441 0
M  V30 313 C 32.138 -2.92913 -3.07249 0
M  V30 314 C 30.045 -5.25038 -2.72194 0
M  V30 315 H 28.975 -0.582344 -0.478949 0
M  V30 316 H 31.626 -1.75071 -0.549779 0
M  V30 317 H 30.008 -2.50697 -3.06541 0
M  V30 318 H 31.182 -4.49564 -1.01136 0
M  V30 319 H 29.497 -4.02482 -1.06759 0
M  V30 320 H 32.094 -3.72805 -3.83302 0
M  V30 321 H 32.437 -2.02689 -3.63625 0
M  V30 322 H 32.97 -3.18054 -2.38928 0
M  V30 323 H 29.709 -6.17255 -2.20627 0
M  V30 324 H 29.229 -4.94263 -3.39801 0
M  V30 325 H 30.908 -5.53508 -3.35019 0
M  V30 326 N 31.0401 0.771051 -1.3745 0
M  V30 327 C 31.9701 1.89827 -1.3597 0
M  V30 328 C 32.9511 1.68562 -0.228216 0
M  V30 329 O 34.1361 1.8941 -0.428675 0
M  V30 330 C 31.2661 3.2712 -1.16662 0
M  V30 331 C 30.2201 3.6295 -2.2683 0
M  V30 332 C 29.5461 4.98791 -1.92644 0
M  V30 333 C 30.8461 3.69627 -3.69017 0
M  V30 334 H 32.5401 1.91323 -2.30295 0
M  V30 335 H 30.0861 0.919082 -1.10855 0
M  V30 336 H 32.0391 4.05615 -1.14256 0
M  V30 337 H 30.7631 3.26059 -0.187926 0
M  V30 338 H 29.4221 2.86763 -2.28392 0
M  V30 339 H 29.0701 4.94271 -0.933021 0
M  V30 340 H 28.7701 5.23733 -2.66416 0
M  V30 341 H 30.2941 5.79685 -1.91826 0
M  V30 342 H 31.7081 4.38273 -3.69581 0
M  V30 343 H 30.1051 4.06067 -4.41848 0
M  V30 344 H 31.1751 2.70273 -4.02592 0
M  V30 345 N 32.5182 1.22032 0.997298 0
M  V30 346 C 33.4502 0.944263 2.08845 0
M  V30 347 C 34.4632 -0.0754663 1.62625 0
M  V30 348 O 35.6522 0.157994 1.77799 0
M  V30 349 C 32.7522 0.397723 3.36558 0
M  V30 350 C 31.9252 1.47362 4.11829 0
M  V30 351 C 30.9842 0.934951 5.17827 0
M  V30 352 O 30.0102 1.62016 5.45655 0
M  V30 353 N 31.2122 -0.245895 5.79979 0
M  V30 354 H 33.9772 1.88363 2.33109 0
M  V30 355 H 31.5382 1.12661 1.16272 0
M  V30 356 H 33.5302 0.0227771 4.04694 0
M  V30 357 H 32.1002 -0.446646 3.09393 0
M  V30 358 H 31.3202 2.02208 3.38386 0
M  V30 359 H 32.6082 2.19764 4.58891 0
M  V30 360 H 32.0062 -0.819475 5.59733 0
M  V30 361 H 30.5632 -0.562272 6.4937 0
M  V30 362 N 33.9963 -1.19345 1.0293 0
M  V30 363 C 34.9593 -2.20793 0.615069 0
M  V30 364 C 35.9593 -1.57553 -0.321533 0
M  V30 365 O 37.1493 -1.73862 -0.108483 0
M  V30 366 C 34.2813 -3.40754 -0.0999222 0
M  V30 367 H 35.4743 -2.58955 1.51269 0
M  V30 368 H 33.0273 -1.3303 0.820534 0
M  V30 369 H 33.7623 -3.0811 -1.01187 0
M  V30 370 H 33.5473 -3.87889 0.57309 0
M  V30 371 H 35.0373 -4.15898 -0.376645 0
M  V30 372 N 35.4744 -0.807222 -1.35358 0
M  V30 373 C 36.4074 -0.163572 -2.27613 0
M  V30 374 C 37.3854 0.670817 -1.48118 0
M  V30 375 O 38.5694 0.63796 -1.77376 0
M  V30 376 C 35.6964 0.773015 -3.29761 0
M  V30 377 C 34.7424 0.0181653 -4.26496 0
M  V30 378 S 35.5754 -1.31831 -5.19019 0
M  V30 379 C 36.7314 -0.38619 -6.24707 0
M  V30 380 H 36.9644 -0.945757 -2.81856 0
M  V30 381 H 34.4974 -0.602315 -1.42167 0
M  V30 382 H 36.4554 1.30788 -3.89108 0
M  V30 383 H 35.1164 1.52859 -2.74396 0
M  V30 384 H 34.3094 0.729534 -4.98692 0
M  V30 385 H 33.9114 -0.446761 -3.71322 0
M  V30 386 H 36.2034 0.428295 -6.76145 0
M  V30 387 H 37.1464 -1.07736 -6.99856 0
M  V30 388 H 37.5544 0.018398 -5.64497 0
M  V30 389 N 36.9525 1.47285 -0.560781 0
M  V30 390 C 38.3635 1.86258 -0.128343 0
M  V30 391 C 38.7145 1.46699 1.30284 0
M  V30 392 O 37.8395 0.871698 1.98067 0
M  V30 393 C 38.4345 3.38044 -0.22614 0
M  V30 394 C 36.9935 3.76096 0.151283 0
M  V30 395 C 36.1405 2.71335 -0.572084 0
M  V30 396 H 39.0915 1.38752 -0.770297 0
M  V30 397 H 39.1125 3.76441 0.554322 0
M  V30 398 H 38.6245 3.66806 -1.26788 0
M  V30 399 H 36.7255 3.52951 1.19399 0
M  V30 400 H 36.8385 4.78641 -0.209765 0
M  V30 401 H 35.2025 2.54696 -0.0147653 0
M  V30 402 H 35.9855 3.02938 -1.61504 0
M  V30 403 N 38.4306 0.297415 1.54768 0
M  V30 404 C 39.3936 -0.567375 2.22066 0
M  V30 405 C 40.3936 -1.06409 1.20556 0
M  V30 406 O 41.5836 -0.960691 1.45315 0
M  V30 407 C 38.7156 -1.78517 2.90421 0
M  V30 408 H 39.9086 0.0205534 2.99893 0
M  V30 409 H 37.4616 0.0482163 1.56226 0
M  V30 410 H 38.1966 -2.41303 2.16664 0
M  V30 411 H 37.9816 -1.43669 3.64831 0
M  V30 412 H 39.4716 -2.39964 3.41771 0
M  V30 413 N 39.9087 -1.5758 0.0250728 0
M  V30 414 C 40.8387 -2.13007 -0.956575 0
M  V30 415 C 41.8197 -1.0452 -1.342 0
M  V30 416 O 43.0047 -1.32332 -1.42133 0
M  V30 417 C 40.1347 -2.65386 -2.24026 0
M  V30 418 C 39.0887 -3.78623 -1.99571 0
M  V30 419 C 38.4147 -4.17414 -3.3417 0
M  V30 420 C 39.7147 -5.04867 -1.33814 0
M  V30 421 H 41.4087 -2.9528 -0.494991 0
M  V30 422 H 38.9547 -1.42042 -0.236651 0
M  V30 423 H 40.9077 -3.02794 -2.93076 0
M  V30 424 H 39.6317 -1.80268 -2.72343 0
M  V30 425 H 38.2907 -3.41646 -1.32941 0
M  V30 426 H 37.9387 -3.29284 -3.80238 0
M  V30 427 H 37.6387 -4.93719 -3.18615 0
M  V30 428 H 39.1627 -4.57402 -4.04495 0
M  V30 429 H 40.5767 -5.39888 -1.92857 0
M  V30 430 H 38.9737 -5.86144 -1.28669 0
M  V30 431 H 40.0437 -4.83904 -0.310561 0
M  V30 432 N 41.3868 0.248026 -1.55636 0
M  V30 433 C 42.6348 0.974295 -1.77065 0
M  V30 434 C 42.9558 1.85897 -0.588849 0
M  V30 435 O 42.2258 1.91868 0.395407 0
M  V30 436 H 40.8058 0.362733 -0.653019 0
M  V30 437 H 43.4678 0.266244 -1.93073 0
M  V30 438 H 42.5638 1.59667 -2.68166 0
M  V30 439 N 42.8649 1.48995 0.513639 0
M  V30 440 C 44.0899 1.61792 1.29762 0
M  V30 441 C 44.5149 0.284475 1.85936 0
M  V30 442 O 43.8729 -0.746185 1.65232 0
M  V30 443 C 43.9209 2.67993 2.41272 0
M  V30 444 O 43.0249 2.26287 3.44772 0
M  V30 445 H 42.3659 0.541963 0.38363 0
M  V30 446 H 44.8959 1.95097 0.616307 0
M  V30 447 H 44.9059 2.89772 2.87221 0
M  V30 448 H 43.5809 3.64791 1.9975 0
M  V30 449 H 42.1579 2.14788 3.04829 0
M  V30 450 N 44.343 -0.763751 1.37857 0
M  V30 451 C 45.306 -1.85889 1.34081 0
M  V30 452 C 46.306 -1.58949 0.243277 0
M  V30 453 O 47.496 -1.66882 0.499589 0
M  V30 454 C 44.628 -3.23176 1.08489 0
M  V30 455 H 45.821 -1.90648 2.31502 0
M  V30 456 H 43.374 -0.964367 1.23003 0
M  V30 457 H 44.109 -3.24091 0.116318 0
M  V30 458 H 43.894 -3.44124 1.8794 0
M  V30 459 H 45.384 -4.03254 1.08517 0
M  V30 460 N 45.8211 -1.22559 -0.990812 0
M  V30 461 C 47.0491 -1.07779 -1.76611 0
M  V30 462 C 47.4641 0.371513 -1.85109 0
M  V30 463 O 46.8211 1.25737 -1.32274 0
M  V30 464 C 46.8721 -1.68512 -3.19822 0
M  V30 465 O 46.5931 -3.07774 -3.1178 0
M  V30 466 C 48.0941 -1.59035 -4.13791 0
M  V30 467 H 45.3141 -0.377729 -0.554583 0
M  V30 468 H 47.8581 -1.62195 -1.24551 0
M  V30 469 H 46.0131 -1.18154 -3.68942 0
M  V30 470 H 46.4271 -3.37062 -4.01858 0
M  V30 471 H 47.9011 -2.0625 -5.1202 0
M  V30 472 H 48.3781 -0.547273 -4.35777 0
M  V30 473 H 48.9841 -2.08709 -3.70568 0
M  V30 474 N 47.2992 1.18797 -1.03562 0
M  V30 475 C 48.5472 1.88278 -0.734569 0
M  V30 476 C 48.8682 1.8043 0.739586 0
M  V30 477 O 48.1382 1.21925 1.53333 0
M  V30 478 H 46.7182 0.696991 -0.268725 0
M  V30 479 H 49.3802 1.44192 -1.31129 0
M  V30 480 H 48.4762 2.94443 -1.03489 0
M  V30 481 N 48.7773 0.814389 1.34928 0
M  V30 482 C 50.1933 0.499084 1.51596 0
M  V30 483 C 50.3933 -0.978319 1.76157 0
M  V30 484 O 49.4493 -1.76309 1.80752 0
M  V30 485 C 50.7623 1.35121 2.68631 0
M  V30 486 C 52.3103 1.34746 2.82511 0
M  V30 487 C 52.7853 2.18388 4.0258 0
M  V30 488 N 54.2763 2.15966 4.09772 0
M  V30 489 C 55.0113 2.77437 5.01813 0
M  V30 490 N 54.5073 3.47866 5.99134 0
M  V30 491 N 56.3003 2.67037 4.94619 0
M  V30 492 H 48.4513 1.7711 1.17243 0
M  V30 493 H 50.7143 0.754256 0.574284 0
M  V30 494 H 50.4203 2.40001 2.57085 0
M  V30 495 H 50.2943 1.00991 3.63429 0
M  V30 496 H 52.6813 0.30648 2.93504 0
M  V30 497 H 52.7623 1.72869 1.88547 0
M  V30 498 H 52.4063 3.2253 3.92347 0
M  V30 499 H 52.3363 1.77621 4.9574 0
M  V30 500 H 54.8273 1.64729 3.40107 0
M  V30 501 H 55.1403 3.92038 6.65977 0
M  V30 502 H 53.4853 3.51972 5.99284 0
M  V30 503 H 56.6763 2.11597 4.17546 0
M  V30 504 H 56.8493 3.15232 5.66156 0
M  V30 505 N 50.2554 -1.46986 0.568584 0
M  V30 506 C 51.4804 -2.07335 0.0520528 0
M  V30 507 C 51.9054 -1.41675 -1.23733 0
M  V30 508 O 51.2634 -0.495623 -1.74394 0
M  V30 509 C 51.3114 -3.60417 -0.11501 0
M  V30 510 O 50.4154 -3.95309 -1.17492 0
M  V30 511 H 49.7564 -0.661597 0.0564385 0
M  V30 512 H 52.2864 -1.88837 0.787507 0
M  V30 513 H 52.2964 -4.06698 -0.325644 0
M  V30 514 H 50.9714 -4.07601 0.826675 0
M  V30 515 H 49.5484 -3.60757 -0.943869 0
M  V30 516 N 51.7335 -0.305618 -1.54608 0
M  V30 517 C 52.6805 0.568421 -2.23691 0
M  V30 518 C 53.6505 1.12592 -1.22116 0
M  V30 519 O 54.8355 1.16959 -1.50749 0
M  V30 520 C 51.9755 1.7322 -2.98477 0
M  V30 521 C 51.0885 1.20566 -4.14835 0
M  V30 522 C 50.2235 2.33368 -4.77193 0
M  V30 523 C 49.2625 1.7787 -5.85686 0
M  V30 524 N 48.3995 2.84263 -6.4198 0
M  V30 525 H 53.2395 -0.0272867 -2.97988 0
M  V30 526 H 50.7765 -0.0252363 -1.47078 0
M  V30 527 H 52.7345 2.41675 -3.40072 0
M  V30 528 H 51.3645 2.29947 -2.26548 0
M  V30 529 H 50.4165 0.413223 -3.78149 0
M  V30 530 H 51.7285 0.759417 -4.92985 0
M  V30 531 H 50.8825 3.09761 -5.21664 0
M  V30 532 H 49.6215 2.8132 -3.98385 0
M  V30 533 H 48.6265 0.99968 -5.40635 0
M  V30 534 H 49.8515 1.30816 -6.66381 0
M  V30 535 H 47.7975 3.31541 -5.66053 0
M  V30 536 H 47.7145 2.44149 -7.15491 0
M  V30 537 H 48.9825 3.6054 -6.91109 0
M  V30 538 N 53.2116 1.57565 -0.0334293 0
M  V30 539 C 54.4366 1.96689 0.657895 0
M  V30 540 C 54.8616 0.910057 1.64619 0
M  V30 541 O 54.2196 -0.128598 1.80843 0
M  V30 542 C 54.2676 3.34905 1.33683 0
M  V30 543 O 53.3716 3.31574 2.45219 0
M  V30 544 H 52.7126 0.641205 0.172489 0
M  V30 545 H 55.2426 2.04372 -0.0965621 0
M  V30 546 H 55.2526 3.71234 1.69262 0
M  V30 547 H 53.9276 4.11366 0.612411 0
M  V30 548 H 52.5046 3.06968 2.11719 0
M  V30 549 N 54.6897 -0.239769 1.55765 0
M  V30 550 C 55.9147 -0.988373 1.82335 0
M  V30 551 C 56.3397 -1.77886 0.611421 0
M  V30 552 O 55.6977 -1.75889 -0.439639 0
M  V30 553 C 55.7457 -1.89627 3.06715 0
M  V30 554 O 54.8497 -2.98904 2.84131 0
M  V30 555 H 54.1907 -0.280858 0.601677 0
M  V30 556 H 56.7207 -0.258597 2.02959 0
M  V30 557 H 56.7307 -2.30957 3.36338 0
M  V30 558 H 55.4057 -1.31511 3.9456 0
M  V30 559 H 53.9827 -2.61651 2.65694 0
M  V30 560 N 56.1678 -1.49265 -0.50573 0
M  V30 561 C 57.0778 -1.68312 -1.63427 0
M  V30 562 C 58.0938 -0.565682 -1.64548 0
M  V30 563 O 59.2698 -0.839801 -1.83055 0
M  V30 564 C 56.3348 -1.74107 -2.99813 0
M  V30 565 C 55.3958 -2.97653 -3.09356 0
M  V30 566 C 54.6288 -3.03163 -4.39236 0
M  V30 567 O 54.8518 -2.16396 -5.27758 0
M  V30 568 O 53.7858 -3.9558 -4.53652 0
M  V30 569 H 57.6118 -2.63907 -1.50289 0
M  V30 570 H 55.1968 -1.32951 -0.681502 0
M  V30 571 H 57.0788 -1.803 -3.80881 0
M  V30 572 H 55.7538 -0.816901 -3.13223 0
M  V30 573 H 54.6608 -2.96981 -2.27493 0
M  V30 574 H 55.9938 -3.89535 -3.00871 0
M  V30 575 N 57.6459 0.756429 -1.3826 0
M  V30 576 C 58.5929 1.87011 -1.35261 0
M  V30 577 C 59.5629 1.64695 -0.215616 0
M  V30 578 O 60.7479 1.864 -0.407399 0
M  V30 579 C 57.8879 3.24275 -1.18068 0
M  V30 580 C 57.0009 3.58442 -2.41129 0
M  V30 581 C 56.1359 4.84994 -2.16689 0
M  V30 582 C 55.1749 5.11939 -3.35537 0
M  V30 583 N 54.3119 6.29685 -3.10549 0
M  V30 584 H 59.1519 1.8891 -2.30472 0
M  V30 585 H 56.6889 0.923373 -1.14509 0
M  V30 586 H 58.6469 4.03479 -1.06116 0
M  V30 587 H 57.2769 3.21711 -0.264973 0
M  V30 588 H 56.3289 2.74103 -2.63764 0
M  V30 589 H 57.6409 3.74283 -3.29717 0
M  V30 590 H 56.7949 5.72135 -2.01857 0
M  V30 591 H 55.5339 4.71286 -1.25462 0
M  V30 592 H 54.5389 4.23268 -3.50891 0
M  V30 593 H 55.7639 5.27546 -4.27635 0
M  V30 594 H 53.7099 6.17306 -2.21967 0
M  V30 595 H 53.6269 6.46014 -3.92686 0
M  V30 596 H 54.8949 7.19722 -2.99367 0
M  V30 597 N 59.124 1.23083 0.984299 0
M  V30 598 C 60.54 0.992637 1.24975 0
M  V30 599 C 60.74 -0.308618 1.99123 0
M  V30 600 O 59.796 -1.02905 2.30579 0
M  V30 601 C 61.109 2.19698 2.05312 0
M  V30 602 C 62.657 2.24147 2.18465 0
M  V30 603 C 63.132 3.44157 3.02192 0
M  V30 604 N 64.623 3.44372 3.09777 0
M  V30 605 C 65.358 4.33886 3.74874 0
M  V30 606 N 64.854 5.3363 4.41827 0
M  V30 607 N 66.647 4.21639 3.71721 0
M  V30 608 H 58.798 2.06731 0.487453 0
M  V30 609 H 61.061 0.906339 0.277944 0
M  V30 610 H 60.767 3.1411 1.58201 0
M  V30 611 H 60.641 2.20465 3.06064 0
M  V30 612 H 63.028 1.30277 2.64786 0
M  V30 613 H 63.109 2.27415 1.17115 0
M  V30 614 H 62.753 4.38332 2.56568 0
M  V30 615 H 62.683 3.3813 4.03702 0
M  V30 616 H 65.174 2.72201 2.62135 0
M  V30 617 H 65.487 5.98196 4.89266 0
M  V30 618 H 63.832 5.37534 4.40548 0
M  V30 619 H 67.023 3.42962 3.18582 0
M  V30 620 H 67.196 4.91604 4.22173 0
M  V30 621 N 60.6021 -1.18246 1.0419 0
M  V30 622 C 61.5341 -2.2142 0.592088 0
M  V30 623 C 62.5471 -1.59233 -0.338909 0
M  V30 624 O 63.7361 -1.78002 -0.133231 0
M  V30 625 C 60.8361 -3.38546 -0.154854 0
M  V30 626 C 60.0091 -4.3031 0.784328 0
M  V30 627 C 59.0681 -5.26138 0.0804583 0
M  V30 628 O 58.0941 -5.64738 0.711292 0
M  V30 629 N 59.2961 -5.68261 -1.18574 0
M  V30 630 H 62.0611 -2.60636 1.47949 0
M  V30 631 H 59.6221 -1.33044 0.922544 0
M  V30 632 H 61.6141 -3.99678 -0.635606 0
M  V30 633 H 60.1841 -2.98012 -0.943811 0
M  V30 634 H 59.4041 -3.66764 1.44491 0
M  V30 635 H 60.6921 -4.8852 1.42218 0
M  V30 636 H 60.0901 -5.38957 -1.71876 0
M  V30 637 H 58.6471 -6.31584 -1.61074 0
M  V30 638 N 62.0802 -0.821533 -1.34494 0
M  V30 639 C 63.0432 -0.247847 -2.27856 0
M  V30 640 C 64.0432 0.573453 -1.50227 0
M  V30 641 O 65.2332 0.389759 -1.69784 0
M  V30 642 C 62.3652 0.652698 -3.34593 0
M  V30 643 H 63.5582 -1.07146 -2.80107 0
M  V30 644 H 61.1112 -0.593291 -1.44602 0
M  V30 645 H 61.8462 1.49943 -2.87555 0
M  V30 646 H 61.6312 0.065292 -3.92046 0
M  V30 647 H 63.1212 1.04793 -4.04238 0
M  V30 648 N 63.5583 1.46682 -0.576371 0
M  V30 649 C 64.8043 2.02712 -0.0596221 0
M  V30 650 C 65.1373 1.44765 1.29448 0
M  V30 651 O 64.4123 0.610355 1.84675 0
M  V30 652 C 64.6953 3.60098 0.0129503 0
M  V30 653 C 64.5483 4.28441 -1.3696 0
M  V30 654 C 65.8673 4.34224 0.71678 0
M  V30 655 H 62.9863 0.736637 -0.0231407 0
M  V30 656 H 65.6283 1.74898 -0.742351 0
M  V30 657 H 63.7783 3.83926 0.594378 0
M  V30 658 H 65.4503 4.15896 -1.9957 0
M  V30 659 H 63.6933 3.8805 -1.93907 0
M  V30 660 H 64.3643 5.3716 -1.27135 0
M  V30 661 H 66.8403 4.15503 0.222908 0
M  V30 662 H 65.7163 5.43936 0.73657 0
M  V30 663 H 65.9773 4.04823 1.77682 0
M  V30 664 N 65.0364 0.313813 1.54444 0
M  V30 665 C 66.3134 -0.345447 1.92525 0
M  V30 666 C 66.6934 -1.70667 1.24242 0
M  V30 667 O 66.0414 -2.25273 0.382654 0
M  V30 668 C 66.2514 -0.44737 3.46121 0
M  V30 669 C 67.5994 -0.712238 4.18584 0
M  V30 670 O 68.6234 -0.530678 3.52225 0
M  V30 671 O 67.4824 -1.06183 5.36085 0
M  V30 672 H 64.5764 -0.195407 0.803583 0
M  V30 673 H 67.1224 0.362813 1.65776 0
M  V30 674 H 65.8944 0.509043 3.87975 0
M  V30 675 H 65.5174 -1.20359 3.78945 0
M  V30 676 N 66.5145 -1.57545 0.0417849 0
M  V30 677 C 67.7425 -1.96624 -0.643928 0
M  V30 678 C 68.1575 -0.918897 -1.64929 0
M  V30 679 O 67.5145 0.0979323 -1.82237 0
M  V30 680 C 67.5655 -3.35781 -1.33914 0
M  V30 681 O 67.2865 -4.365 -0.374048 0
M  V30 682 C 68.7875 -3.89566 -2.1155 0
M  V30 683 H 66.0075 -0.647316 -0.176702 0
M  V30 684 H 68.5515 -2.04229 0.105304 0
M  V30 685 H 66.7065 -3.29357 -2.03968 0
M  V30 686 H 67.1205 -5.17248 -0.869179 0
M  V30 687 H 68.5945 -4.89242 -2.55628 0
M  V30 688 H 69.0715 -3.24488 -2.9598 0
M  V30 689 H 69.6775 -3.99298 -1.46427 0
M  V30 690 N 67.9926 0.231505 -1.5589 0
M  V30 691 C 68.9556 1.27028 -1.90779 0
M  V30 692 C 69.9556 1.40308 -0.785507 0
M  V30 693 O 71.1456 1.38744 -1.05336 0
M  V30 694 C 68.2776 2.64566 -2.14983 0
M  V30 695 H 69.4706 0.973017 -2.83677 0
M  V30 696 H 67.0236 0.471486 -1.49019 0
M  V30 697 H 67.7586 2.99406 -1.24604 0
M  V30 698 H 67.5436 2.56305 -2.96732 0
M  V30 699 H 69.0336 3.39543 -2.43105 0
M  V30 700 N 69.4707 1.49531 0.497807 0
M  V30 701 C 70.7167 1.59415 1.25358 0
M  V30 702 C 71.0497 0.281422 1.9215 0
M  V30 703 O 70.3247 -0.715249 1.80871 0
M  V30 704 C 70.6077 2.75566 2.3181 0
M  V30 705 C 70.4607 4.16642 1.69498 0
M  V30 706 C 71.7797 2.87347 3.33346 0
M  V30 707 H 68.8987 0.580244 0.454408 0
M  V30 708 H 71.5407 1.81827 0.551262 0
M  V30 709 H 69.6907 2.56587 2.91711 0
M  V30 710 H 71.3627 4.47145 1.13399 0
M  V30 711 H 69.6057 4.22141 0.998978 0
M  V30 712 H 70.2767 4.93792 2.46725 0
M  V30 713 H 72.7527 3.04634 2.83438 0
M  V30 714 H 71.6287 3.70289 4.05188 0
M  V30 715 H 71.8897 1.96834 3.95865 0
M  V30 716 N 70.9488 -0.749086 1.3866 0
M  V30 717 C 72.2258 -1.4992 1.25632 0
M  V30 718 C 72.6058 -2.10633 -0.140317 0
M  V30 719 O 71.9538 -1.97437 -1.15025 0
M  V30 720 C 72.1638 -2.56195 2.36992 0
M  V30 721 C 73.5118 -3.22972 2.75634 0
M  V30 722 O 74.5358 -2.66502 2.36337 0
M  V30 723 O 73.3948 -4.25122 3.43415 0
M  V30 724 H 70.4888 -0.665067 0.491544 0
M  V30 725 H 73.0348 -0.784113 1.50498 0
M  V30 726 H 71.8068 -2.09612 3.30422 0
M  V30 727 H 71.4298 -3.35279 2.13714 0
M  V30 728 N 72.4269 -1.23603 -0.977757 0
M  V30 729 C 73.6749 -1.06759 -1.71601 0
M  V30 730 C 73.9959 0.395929 -1.90938 0
M  V30 731 O 73.2659 1.28356 -1.47992 0
M  V30 732 H 71.8459 -0.392062 -0.635843 0
M  V30 733 H 74.5079 -1.55362 -1.1768 0
M  V30 734 H 73.6039 -1.55763 -2.70452 0
M  V30 735 N 73.905 1.17692 -1.04816 0
M  V30 736 C 75.151 1.88137 -0.75711 0
M  V30 737 C 75.484 1.80604 0.713841 0
M  V30 738 O 74.759 1.21146 1.52164 0
M  V30 739 C 75.042 3.38318 -1.2334 0
M  V30 740 C 74.895 3.54622 -2.76701 0
M  V30 741 C 76.214 4.32214 -0.829415 0
M  V30 742 H 73.333 0.683163 -0.27651 0
M  V30 743 H 75.975 1.38424 -1.30149 0
M  V30 744 H 74.125 3.80787 -0.770286 0
M  V30 745 H 75.797 3.21194 -3.31107 0
M  V30 746 H 74.04 2.97026 -3.16161 0
M  V30 747 H 74.711 4.60028 -3.05088 0
M  V30 748 H 77.187 3.97565 -1.22805 0
M  V30 749 H 76.063 5.35838 -1.19033 0
M  V30 750 H 76.324 4.41294 0.266891 0
M  V30 751 N 75.3831 0.828654 1.34056 0
M  V30 752 C 76.6301 0.419458 1.98108 0
M  V30 753 C 76.9581 -1.01886 1.65679 0
M  V30 754 O 76.2131 -1.72539 0.923512 0
M  V30 755 C 76.5121 0.575226 3.52741 0
M  V30 756 C 76.1781 1.98012 4.05095 0
M  V30 757 C 74.8401 2.36442 4.19104 0
M  V30 758 C 77.1921 2.89824 4.33188 0
M  V30 759 C 74.5201 3.66009 4.58535 0
M  V30 760 C 76.8721 4.1886 4.74066 0
M  V30 761 C 75.5361 4.5726 4.86281 0
M  V30 762 H 74.8061 0.153491 0.724929 0
M  V30 763 H 77.4531 1.05371 1.59904 0
M  V30 764 H 75.7581 -0.142385 3.91541 0
M  V30 765 H 77.4551 0.239057 4.00287 0
M  V30 766 H 74.0451 1.67162 3.94658 0
M  V30 767 H 78.2291 2.61375 4.21897 0
M  V30 768 H 73.4851 3.95579 4.66184 0
M  V30 769 H 77.6591 4.90086 4.94761 0
M  V30 770 H 75.2861 5.57707 5.16592 0
M  V30 771 N 76.8612 -1.46375 0.584142 0
M  V30 772 C 78.1102 -2.01585 0.0679741 0
M  V30 773 C 78.4232 -1.46109 -1.30045 0
M  V30 774 O 79.6292 -1.93148 -1.90804 0
M  V30 775 C 78.0852 -3.5983 0.0709207 0
M  V30 776 C 77.6932 -4.24303 1.43775 0
M  V30 777 C 79.4372 -4.22693 -0.391228 0
M  V30 778 C 77.3442 -5.74631 1.39834 0
M  V30 779 H 76.2742 -0.753689 0.0216421 0
M  V30 780 H 78.9252 -1.68093 0.736001 0
M  V30 781 H 77.3072 -3.90405 -0.663299 0
M  V30 782 H 78.4812 -4.05335 2.19181 0
M  V30 783 H 76.7962 -3.73539 1.84004 0
M  V30 784 H 79.3932 -5.3289 -0.439524 0
M  V30 785 H 79.7362 -3.91728 -1.40906 0
M  V30 786 H 80.2692 -3.96749 0.288974 0
M  V30 787 H 77.0082 -6.10258 2.39303 0
M  V30 788 H 76.5282 -5.95858 0.686505 0
M  V30 789 H 78.2072 -6.37375 1.11187 0
M  V30 790 N 78.3393 -0.321999 -1.54275 0
M  V30 791 C 79.7553 0.0306999 -1.5957 0
M  V30 792 C 79.9553 1.50614 -1.33857 0
M  V30 793 O 79.0113 2.2619 -1.12223 0
M  V30 794 C 80.3243 -0.386122 -2.98211 0
M  V30 795 C 81.8723 -0.336647 -3.11184 0
M  V30 796 C 82.3473 -0.728607 -4.52167 0
M  V30 797 N 83.8383 -0.681952 -4.58152 0
M  V30 798 C 84.5733 -0.957449 -5.6535 0
M  V30 799 N 84.0693 -1.3 -6.80494 0
M  V30 800 N 85.8623 -0.883113 -5.55119 0
M  V30 801 H 78.0133 -1.28332 -1.69247 0
M  V30 802 H 80.2763 -0.521716 -0.791528 0
M  V30 803 H 79.9823 -1.41404 -3.22022 0
M  V30 804 H 79.8563 0.249662 -3.76373 0
M  V30 805 H 82.2433 0.682058 -2.8711 0
M  V30 806 H 82.3243 -1.00734 -2.3513 0
M  V30 807 H 81.9683 -1.74522 -4.76974 0
M  V30 808 H 81.8983 -0.0356152 -5.26588 0
M  V30 809 H 84.3893 -0.428985 -3.75457 0
M  V30 810 H 84.7023 -1.49563 -7.58189 0
M  V30 811 H 83.0473 -1.33824 -6.81994 0
M  V30 812 H 86.2383 -0.615001 -4.64042 0
M  V30 813 H 86.4113 -1.10118 -6.38575 0
M  V30 814 N 79.8174 1.5752 -0.0501392 0
M  V30 815 C 81.0424 1.97376 0.636997 0
M  V30 816 C 81.4674 0.927466 1.63645 0
M  V30 817 O 80.8254 -0.10941 1.8097 0
M  V30 818 C 80.8734 3.36304 1.30123 0
M  V30 819 O 79.9774 3.34156 2.41689 0
M  V30 820 H 79.3184 0.642998 0.165679 0
M  V30 821 H 81.8484 2.04258 -0.118233 0
M  V30 822 H 81.8584 3.73008 1.65315 0
M  V30 823 H 80.5334 4.11993 0.568746 0
M  V30 824 H 79.1104 3.09196 2.08451 0
M  V30 825 N 81.2955 -0.223234 1.56011 0
M  V30 826 C 82.2255 -1.27988 1.95298 0
M  V30 827 C 83.2065 -1.48976 0.820979 0
M  V30 828 O 84.3915 -1.61188 1.08315 0
M  V30 829 C 81.5215 -2.63 2.26822 0
M  V30 830 C 80.4755 -2.56671 3.42497 0
M  V30 831 C 79.8015 -3.95697 3.59622 0
M  V30 832 C 81.1015 -2.11601 4.77517 0
M  V30 833 H 82.7955 -0.953525 2.8381 0
M  V30 834 H 80.3415 -0.457244 1.36548 0
M  V30 835 H 82.2945 -3.37077 2.52898 0
M  V30 836 H 81.0185 -2.9732 1.35161 0
M  V30 837 H 79.6775 -1.85051 3.16467 0
M  V30 838 H 79.3255 -4.27322 2.6534 0
M  V30 839 H 79.0255 -3.92345 4.37424 0
M  V30 840 H 80.5495 -4.71438 3.88044 0
M  V30 841 H 81.9635 -2.7542 5.02809 0
M  V30 842 H 80.3605 -2.19311 5.5859 0
M  V30 843 H 81.4305 -1.06824 4.72987 0
M  V30 844 N 82.7736 -1.49793 -0.48987 0
M  V30 845 C 83.7206 -1.67281 -1.59014 0
M  V30 846 C 84.6906 -0.514177 -1.57941 0
M  V30 847 O 85.8756 -0.742533 -1.75759 0
M  V30 848 C 83.0156 -1.75569 -2.97102 0
M  V30 849 C 82.1286 -3.0281 -3.08107 0
M  V30 850 C 81.2636 -3.02008 -4.36995 0
M  V30 851 C 80.3026 -4.23782 -4.41673 0
M  V30 852 N 79.4396 -4.20826 -5.62005 0
M  V30 853 H 84.2796 -2.61224 -1.43409 0
M  V30 854 H 81.8166 -1.29508 -0.697565 0
M  V30 855 H 83.7746 -1.78354 -3.77155 0
M  V30 856 H 82.4046 -0.850827 -3.11385 0
M  V30 857 H 81.4566 -3.09584 -2.21047 0
M  V30 858 H 82.7686 -3.92801 -3.07423 0
M  V30 859 H 81.9226 -3.03418 -5.25378 0
M  V30 860 H 80.6616 -2.09815 -4.4026 0
M  V30 861 H 79.6666 -4.22604 -3.5169 0
M  V30 862 H 80.8916 -5.17181 -4.40115 0
M  V30 863 H 78.8376 -3.31476 -5.66091 0
M  V30 864 H 78.7546 -5.04564 -5.62984 0
M  V30 865 H 80.0226 -4.26355 -6.52565 0
M  V30 866 N 84.2517 0.741722 -1.39055 0
M  V30 867 C 85.4977 1.50336 -1.36113 0
M  V30 868 C 85.8307 1.94148 0.0450796 0
M  V30 869 O 85.1057 1.66301 1.00868 0
M  V30 870 C 85.3887 2.74773 -2.32749 0
M  V30 871 C 85.2417 2.37023 -3.82283 0
M  V30 872 C 86.5607 3.76846 -2.27322 0
M  V30 873 H 83.6797 0.545351 -0.495743 0
M  V30 874 H 86.3217 0.848624 -1.69995 0
M  V30 875 H 84.4717 3.30639 -2.03986 0
M  V30 876 H 86.1437 1.8684 -4.21768 0
M  V30 877 H 84.3867 1.69334 -3.99385 0
M  V30 878 H 85.0577 3.26104 -4.45376 0
M  V30 879 H 87.5337 3.30548 -2.5274 0
M  V30 880 H 86.4097 4.6159 -2.97028 0
M  V30 881 H 86.6707 4.23286 -1.27599 0
M  V30 882 N 85.7298 1.2412 0.971189 0
M  V30 883 C 86.6778 1.02812 2.08644 0
M  V30 884 C 87.6718 -0.0358403 1.69362 0
M  V30 885 O 88.8778 0.118429 1.7961 0
M  V30 886 H 85.2528 0.315428 0.682649 0
M  V30 887 H 87.2238 1.97397 2.23779 0
M  V30 888 C 85.9728 0.645874 3.41649 0
M  V30 889 H 85.2958 1.45632 3.72332 0
M  V30 890 H 86.7358 0.536366 4.20594 0
M  V30 891 C 85.1948 -0.646713 3.30635 0
M  V30 892 O 85.7248 -1.69338 3.64263 0
M  V30 893 N 83.9308 -0.626115 2.83775 0
M  V30 894 H 83.4778 0.225988 2.56607 0
M  V30 895 H 83.4358 -1.49117 2.76788 0
M  V30 896 N 87.2079 -1.17134 1.05439 0
M  V30 897 C 88.4479 -1.89137 0.77502 0
M  V30 898 C 88.8119 -1.79345 -0.685526 0
M  V30 899 O 90.0129 -2.46188 -1.0791 0
M  V30 900 C 88.2839 -3.35003 1.2453 0
M  V30 901 S 89.8429 -4.24952 1.09367 0
M  V30 902 H 86.6609 -0.652949 0.281387 0
M  V30 903 H 89.2629 -1.4145 1.34953 0
M  V30 904 H 87.9669 -3.39666 2.30338 0
M  V30 905 H 87.4979 -3.87736 0.665166 0
M  V30 906 H 89.5129 -4.96196 0.0193397 0
M  V30 907 N 88.686 -0.835752 -1.33615 0
M  V30 908 C 89.633 -0.26473 -2.29277 0
M  V30 909 C 90.603 0.617712 -1.54187 0
M  V30 910 O 91.788 0.556641 -1.825 0
M  V30 911 C 88.928 0.556777 -3.40579 0
M  V30 912 C 88.041 -0.349339 -4.30585 0
M  V30 913 C 87.176 0.482969 -5.29 0
M  V30 914 C 86.215 -0.421732 -6.10645 0
M  V30 915 N 85.352 0.372262 -7.01112 0
M  V30 916 H 90.192 -1.08582 -2.77514 0
M  V30 917 H 87.729 -0.546927 -1.36554 0
M  V30 918 H 89.687 1.04852 -4.03809 0
M  V30 919 H 88.317 1.34286 -2.93542 0
M  V30 920 H 87.369 -0.959372 -3.68104 0
M  V30 921 H 88.681 -1.04445 -4.87742 0
M  V30 922 H 87.835 1.03866 -5.97743 0
M  V30 923 H 86.574 1.21153 -4.72412 0
M  V30 924 H 85.579 -0.989464 -5.40823 0
M  V30 925 H 86.804 -1.14861 -6.69316 0
M  V30 926 H 84.75 1.08426 -6.46977 0
M  V30 927 H 84.667 -0.264198 -7.55538 0
M  V30 928 H 85.935 0.910293 -7.74167 0
M  V30 929 N 90.1641 1.46063 -0.591896 0
M  V30 930 C 91.4101 2.02638 -0.0811191 0
M  V30 931 C 91.7431 1.4613 1.27905 0
M  V30 932 O 91.0181 0.629908 1.84017 0
M  V30 933 C 91.3011 3.60091 -0.0252436 0
M  V30 934 C 91.1541 4.26965 -1.41496 0
M  V30 935 C 92.4731 4.3496 0.670685 0
M  V30 936 H 89.5921 0.73635 -0.0309524 0
M  V30 937 H 92.2341 1.741 -0.760859 0
M  V30 938 H 90.3841 3.84535 0.553624 0
M  V30 939 H 92.0561 4.13756 -2.0397 0
M  V30 940 H 90.2991 3.85971 -1.98011 0
M  V30 941 H 90.9701 5.35781 -1.32825 0
M  V30 942 H 93.4461 4.15716 0.178825 0
M  V30 943 H 92.3221 5.44686 0.678837 0
M  V30 944 H 92.5831 4.06685 1.73379 0
M  V30 945 N 91.6422 0.330177 1.54103 0
M  V30 946 C 92.8702 -0.272179 2.05102 0
M  V30 947 C 93.2852 -1.45267 1.20595 0
M  V30 948 O 92.6422 -1.8094 0.238144 0
M  V30 949 C 92.6932 -0.70023 3.54653 0
M  V30 950 O 92.4142 0.433301 4.35952 0
M  V30 951 C 93.9152 -1.3647 4.21771 0
M  V30 952 H 91.1352 -0.0549159 0.668749 0
M  V30 953 H 93.6792 0.478285 1.98828 0
M  V30 954 H 91.8342 -1.40066 3.61193 0
M  V30 955 H 92.2482 0.0947539 5.24414 0
M  V30 956 H 93.7222 -1.61509 5.27843 0
M  V30 957 H 94.1992 -2.31409 3.73292 0
M  V30 958 H 94.8052 -0.706675 4.19388 0
M  V30 959 N 93.1203 -1.57491 0.0584922 0
M  V30 960 C 94.3453 -1.97711 -0.62652 0
M  V30 961 C 94.7703 -0.936132 -1.63151 0
M  V30 962 O 94.1283 0.099811 -1.81025 0
M  V30 963 C 94.1763 -3.36989 -1.28338 0
M  V30 964 O 93.2803 -3.35433 -2.39913 0
M  V30 965 H 92.6213 -0.643868 -0.162266 0
M  V30 966 H 95.1513 -2.04193 0.129064 0
M  V30 967 H 95.1613 -3.73879 -1.63335 0
M  V30 968 H 93.8363 -4.12289 -0.546889 0
M  V30 969 H 92.4133 -3.10298 -2.06809 0
M  V30 970 N 94.5984 0.214957 -1.56127 0
M  V30 971 C 96.0144 0.564948 -1.49267 0
M  V30 972 C 96.2144 1.86827 -0.754838 0
M  V30 973 O 95.2704 2.50745 -0.297198 0
M  V30 974 C 96.5834 0.638071 -2.93852 0
M  V30 975 C 98.1314 0.728253 -3.0441 0
M  V30 976 C 98.6064 0.832663 -4.50367 0
M  V30 977 N 100.097 0.896712 -4.54437 0
M  V30 978 C 100.832 0.997324 -5.6466 0
M  V30 979 N 100.328 1.06147 -6.8462 0
M  V30 980 N 102.121 1.03297 -5.52527 0
M  V30 981 H 94.2724 -0.640211 -2.02522 0
M  V30 982 H 96.5354 -0.225507 -0.920788 0
M  V30 983 H 96.2414 -0.250126 -3.50809 0
M  V30 984 H 96.1154 1.49947 -3.46115 0
M  V30 985 H 98.5024 1.60689 -2.47514 0
M  V30 986 H 98.5834 -0.158952 -2.55306 0
M  V30 987 H 98.2274 -0.0415417 -5.07883 0
M  V30 988 H 98.1574 1.73538 -4.97184 0
M  V30 989 H 100.648 0.857188 -3.6805 0
M  V30 990 H 100.961 1.1382 -7.64372 0
M  V30 991 H 99.3064 1.03049 -6.87318 0
M  V30 992 H 102.497 0.979558 -4.57736 0
M  V30 993 H 102.67 1.10793 -6.38458 0
M  V30 994 N 96.0765 1.50051 0.48192 0
M  V30 995 C 97.3235 1.60498 1.23477 0
M  V30 996 C 97.6515 0.300331 1.92167 0
M  V30 997 O 96.9065 -0.713094 1.82246 0
M  V30 998 C 97.2055 2.72717 2.30998 0
M  V30 999 C 96.8715 4.13572 1.79636 0
M  V30 1000 C 95.5335 4.519 1.65348 0
M  V30 1001 C 97.8855 5.01649 1.41412 0
M  V30 1002 C 95.2135 5.76057 1.11244 0
M  V30 1003 C 97.5655 6.26343 0.887538 0
M  V30 1004 C 96.2295 6.63483 0.731207 0
M  V30 1005 H 95.4995 0.587303 0.451836 0
M  V30 1006 H 98.1465 1.83948 0.532468 0
M  V30 1007 H 96.4515 2.43312 3.07094 0
M  V30 1008 H 98.1485 2.78006 2.88988 0
M  V30 1009 H 94.7385 3.83329 1.91721 0
M  V30 1010 H 98.9225 4.72679 1.51289 0
M  V30 1011 H 94.1785 6.03516 0.978686 0
M  V30 1012 H 98.3525 6.93958 0.582654 0
M  V30 1013 H 95.9795 7.59568 0.309806 0
M  V30 1014 N 97.5546 -0.734337 1.39446 0
M  V30 1015 C 98.5176 -1.83004 1.37994 0
M  V30 1016 C 99.5176 -1.58397 0.276938 0
M  V30 1017 O 100.708 -1.65785 0.534875 0
M  V30 1018 C 97.8396 -3.20802 1.1532 0
M  V30 1019 H 99.0326 -1.85694 2.35494 0
M  V30 1020 H 96.5856 -0.938059 1.25021 0
M  V30 1021 H 97.3206 -3.23772 0.185036 0
M  V30 1022 H 97.1056 -3.4006 1.95197 0
M  V30 1023 H 98.5956 -4.00862 1.17046 0
M  V30 1024 N 99.0327 -1.24633 -0.964593 0
M  V30 1025 C 99.9827 -1.00841 -2.04487 0
M  V30 1026 C 100.967 0.0512468 -1.60818 0
M  V30 1027 O 102.159 -0.162865 -1.76249 0
M  V30 1028 C 99.2877 -0.618474 -3.37683 0
M  V30 1029 C 98.3737 -1.71437 -3.87905 0
M  V30 1030 N 98.7647 -2.9477 -4.11029 0
M  V30 1031 C 97.0627 -1.5926 -4.16596 0
M  V30 1032 C 97.7637 -3.65834 -4.52261 0
M  V30 1033 N 96.7397 -2.9341 -4.57615 0
M  V30 1034 H 100.542 -1.94487 -2.20345 0
M  V30 1035 H 98.0557 -1.14805 -1.14863 0
M  V30 1036 H 100.053 -0.429247 -4.14684 0
M  V30 1037 H 98.7127 0.310766 -3.23209 0
M  V30 1038 H 99.7237 -3.30917 -3.9839 0
M  V30 1039 H 96.4007 -0.731606 -4.1104 0
M  V30 1040 H 97.7907 -4.71646 -4.78539 0
M  V30 1041 N 100.511 1.16574 -1.06058 0
M  V30 1042 C 101.741 1.90675 -0.795397 0
M  V30 1043 C 102.149 1.77547 0.653735 0
M  V30 1044 O 101.492 1.11611 1.45907 0
M  V30 1045 C 101.554 3.42011 -1.10764 0
M  V30 1046 C 101.218 3.78924 -2.55471 0
M  V30 1047 C 102.215 3.81042 -3.53699 0
M  V30 1048 C 99.8998 4.09626 -2.90708 0
M  V30 1049 C 101.894 4.13346 -4.85205 0
M  V30 1050 C 99.5808 4.41597 -4.22416 0
M  V30 1051 C 100.579 4.43436 -5.19474 0
M  V30 1052 O 100.267 4.74649 -6.48817 0
M  V30 1053 H 99.9988 0.611554 -0.288058 0
M  V30 1054 H 102.553 1.48711 -1.41683 0
M  V30 1055 H 100.783 3.84312 -0.429128 0
M  V30 1056 H 102.472 3.97384 -0.827077 0
M  V30 1057 H 103.238 3.57437 -3.27817 0
M  V30 1058 H 99.1168 4.07361 -2.15819 0
M  V30 1059 H 102.661 4.14696 -5.60957 0
M  V30 1060 H 98.5578 4.64667 -4.48056 0
M  V30 1061 H 99.3258 4.9247 -6.5377 0
M  V30 1062 N 101.989 0.842826 1.3317 0
M  V30 1063 C 103.235 0.441099 1.97945 0
M  V30 1064 C 103.568 -0.998024 1.66593 0
M  V30 1065 O 102.843 -1.69839 0.947898 0
M  V30 1066 C 103.126 0.666841 3.53872 0
M  V30 1067 C 102.979 2.15352 3.94897 0
M  V30 1068 C 104.298 0.115544 4.39948 0
M  V30 1069 H 101.417 0.161739 0.719034 0
M  V30 1070 H 104.059 1.05907 1.57746 0
M  V30 1071 H 102.209 0.140828 3.88245 0
M  V30 1072 H 103.881 2.7447 3.70761 0
M  V30 1073 H 102.124 2.63653 3.44484 0
M  V30 1074 H 102.795 2.26221 5.03516 0
M  V30 1075 H 105.271 0.565213 4.12243 0
M  V30 1076 H 104.147 0.303152 5.48062 0
M  V30 1077 H 104.408 -0.980935 4.3108 0
M  V30 1078 N 103.467 -1.45747 0.599634 0
M  V30 1079 C 104.713 -2.02592 0.0918643 0
M  V30 1080 C 105.046 -1.46806 -1.27128 0
M  V30 1081 O 104.321 -0.639658 -1.83681 0
M  V30 1082 C 104.604 -3.60073 0.0443398 0
M  V30 1083 C 104.457 -4.26208 1.43759 0
M  V30 1084 C 105.776 -4.35309 -0.647608 0
M  V30 1085 H 102.895 -0.736175 0.034857 0
M  V30 1086 H 105.537 -1.73694 0.770081 0
M  V30 1087 H 103.687 -3.84823 -0.533224 0
M  V30 1088 H 105.359 -4.12668 2.06162 0
M  V30 1089 H 103.602 -3.84916 2.00056 0
M  V30 1090 H 104.273 -5.35069 1.35665 0
M  V30 1091 H 106.749 -4.15805 -0.156776 0
M  V30 1092 H 105.625 -5.45038 -0.649942 0
M  V30 1093 H 105.886 -4.07598 -1.71219 0
M  V30 1094 N 104.945 -0.338344 -1.53925 0
M  V30 1095 C 106.173 0.261298 -2.05243 0
M  V30 1096 C 106.588 1.44625 -1.21363 0
M  V30 1097 O 105.945 1.80811 -0.247736 0
M  V30 1098 C 105.996 0.681412 -3.5502 0
M  V30 1099 O 105.717 -0.456414 -4.35716 0
M  V30 1100 C 107.218 1.34232 -4.22489 0
M  V30 1101 H 104.438 0.0513685 -0.669031 0
M  V30 1102 H 106.982 -0.488822 -1.98572 0
M  V30 1103 H 105.137 1.38148 -3.61931 0
M  V30 1104 H 105.551 -0.122564 -5.24357 0
M  V30 1105 H 107.025 1.58708 -5.28693 0
M  V30 1106 H 107.502 2.29426 -3.74514 0
M  V30 1107 H 108.108 0.684424 -4.19757 0
M  V30 1108 N 106.423 1.57458 -0.0668435 0
M  V30 1109 C 107.648 1.9804 0.616027 0
M  V30 1110 C 108.073 0.944771 1.62652 0
M  V30 1111 O 107.431 -0.0902094 1.81075 0
M  V30 1112 C 107.479 3.37665 1.26549 0
M  V30 1113 O 106.583 3.36701 2.38131 0
M  V30 1114 H 105.924 0.644719 0.158849 0
M  V30 1115 H 108.454 2.04121 -0.139891 0
M  V30 1116 H 108.464 3.7474 1.6135 0
M  V30 1117 H 107.139 4.12573 0.525016 0
M  V30 1118 H 105.716 3.1139 2.0516 0
M  V30 1119 N 107.901 -0.206675 1.56239 0
M  V30 1120 C 108.833 -1.27997 1.9013 0
M  V30 1121 C 109.846 -1.42299 0.790883 0
M  V30 1122 O 111.035 -1.42931 1.06925 0
M  V30 1123 C 108.135 -2.65368 2.10792 0
M  V30 1124 C 107.308 -2.72824 3.41886 0
M  V30 1125 C 106.367 -3.9131 3.51799 0
M  V30 1126 O 105.393 -3.78953 4.24716 0
M  V30 1127 N 106.595 -5.06265 2.84035 0
M  V30 1128 H 109.36 -0.992444 2.82791 0
M  V30 1129 H 106.921 -0.396652 1.56966 0
M  V30 1130 H 108.913 -3.43039 2.14724 0
M  V30 1131 H 107.483 -2.86657 1.24685 0
M  V30 1132 H 106.703 -1.81515 3.49923 0
M  V30 1133 H 107.991 -2.74786 4.28217 0
M  V30 1134 H 107.389 -5.19203 2.246 0
M  V30 1135 H 105.946 -5.81925 2.93609 0
M  V30 1136 N 109.379 -1.50304 -0.473955 0
M  V30 1137 C 110.625 -1.61389 -1.22806 0
M  V30 1138 C 110.958 -0.311955 -1.91678 0
M  V30 1139 O 110.233 0.686384 -1.81986 0
M  V30 1140 C 110.516 -2.79219 -2.27396 0
M  V30 1141 C 110.369 -4.19286 -1.62848 0
M  V30 1142 C 111.688 -2.92614 -3.28732 0
M  V30 1143 H 108.807 -0.587399 -0.445119 0
M  V30 1144 H 111.449 -1.82681 -0.522265 0
M  V30 1145 H 109.599 -2.61195 -2.87592 0
M  V30 1146 H 111.271 -4.48892 -1.06271 0
M  V30 1147 H 109.514 -4.23677 -0.931693 0
M  V30 1148 H 110.185 -4.97655 -2.38838 0
M  V30 1149 H 112.661 -3.09105 -2.78556 0
M  V30 1150 H 111.537 -3.76688 -3.99246 0
M  V30 1151 H 111.798 -2.03107 -3.92683 0
M  V30 1152 N 110.857 0.726932 -1.39834 0
M  V30 1153 C 112.103 1.48884 -1.377 0
M  V30 1154 C 112.436 1.94185 0.0244852 0
M  V30 1155 O 111.711 1.67361 0.990986 0
M  V30 1156 C 111.994 2.72288 -2.3565 0
M  V30 1157 C 111.847 2.32956 -3.84775 0
M  V30 1158 C 113.166 3.74414 -2.31306 0
M  V30 1159 H 110.285 0.540062 -0.5015 0
M  V30 1160 H 112.927 0.830547 -1.70886 0
M  V30 1161 H 111.077 3.28457 -2.07481 0
M  V30 1162 H 112.749 1.82356 -4.23726 0
M  V30 1163 H 110.992 1.65088 -4.01159 0
M  V30 1164 H 111.663 3.21362 -4.4881 0
M  V30 1165 H 114.139 3.27849 -2.56231 0
M  V30 1166 H 113.015 4.58414 -3.01907 0
M  V30 1167 H 113.276 4.21909 -1.32081 0
M  V30 1168 N 112.336 1.25143 0.95797 0
M  V30 1169 C 113.284 1.05019 2.07542 0
M  V30 1170 C 114.278 -0.0178751 1.69391 0
M  V30 1171 O 115.484 0.137472 1.79474 0
M  V30 1172 H 111.859 0.32265 0.679265 0
M  V30 1173 H 113.83 1.99759 2.21673 0
M  V30 1174 C 112.579 0.682074 3.40944 0
M  V30 1175 H 111.902 1.49573 3.70767 0
M  V30 1176 H 113.342 0.580945 4.20001 0
M  V30 1177 C 111.801 -0.611608 3.31302 0
M  V30 1178 O 112.331 -1.65465 3.66038 0
M  V30 1179 N 110.537 -0.595982 2.84423 0
M  V30 1180 H 110.084 0.253192 2.56353 0
M  V30 1181 H 110.042 -1.46173 2.78354 0
M  V30 1182 N 113.814 -1.1601 1.06675 0
M  V30 1183 C 115.042 -1.90527 0.806667 0
M  V30 1184 C 115.457 -1.77643 -0.639396 0
M  V30 1185 O 114.814 -1.12369 -1.43803 0
M  V30 1186 C 114.865 -3.41106 1.19705 0
M  V30 1187 O 114.586 -3.53608 2.58636 0
M  V30 1188 C 116.087 -4.32663 0.965266 0
M  V30 1189 H 113.307 -0.604053 0.292166 0
M  V30 1190 H 115.851 -1.47026 1.4214 0
M  V30 1191 H 114.006 -3.82296 0.626774 0
M  V30 1192 H 114.42 -4.47011 2.74375 0
M  V30 1193 H 115.894 -5.36763 1.288 0
M  V30 1194 H 116.371 -4.39089 -0.0987936 0
M  V30 1195 H 116.977 -3.97206 1.52011 0
M  V30 1196 N 115.292 -0.849877 -1.32721 0
M  V30 1197 C 116.255 -0.296122 -2.27279 0
M  V30 1198 C 117.255 0.541458 -1.5141 0
M  V30 1199 O 118.445 0.353658 -1.70572 0
M  V30 1200 C 115.577 0.581579 -3.35902 0
M  V30 1201 H 116.77 -1.13064 -2.77771 0
M  V30 1202 H 114.323 -0.62383 -1.43311 0
M  V30 1203 H 115.058 1.43809 -2.9067 0
M  V30 1204 H 114.843 -0.0178814 -3.92096 0
M  V30 1205 H 116.333 0.961951 -4.0637 0
M  V30 1206 N 116.77 1.45427 -0.607355 0
M  V30 1207 C 117.718 2.32269 0.12411 0
M  V30 1208 C 118.712 1.45955 0.859854 0
M  V30 1209 O 119.918 1.6244 0.775447 0
M  V30 1210 H 116.293 0.749691 0.0588839 0
M  V30 1211 H 118.264 2.91743 -0.626762 0
M  V30 1212 C 117.013 3.29567 1.1082 0
M  V30 1213 H 116.336 3.95978 0.551492 0
M  V30 1214 H 117.776 3.93061 1.58995 0
M  V30 1215 C 116.235 2.56722 2.18164 0
M  V30 1216 O 116.765 2.34842 3.25902 0
M  V30 1217 N 114.971 2.16861 1.93442 0
M  V30 1218 H 114.518 2.34855 1.05834 0
M  V30 1219 H 114.476 1.68444 2.65469 0
M  V30 1220 N 118.248 0.346503 1.53744 0
M  V30 1221 C 119.158 -0.517293 2.28826 0
M  V30 1222 C 120.174 -1.10935 1.3405 0
M  V30 1223 O 121.35 -1.1244 1.6709 0
M  V30 1224 C 118.415 -1.65098 3.04866 0
M  V30 1225 C 117.476 -1.0884 4.15274 0
M  V30 1226 C 116.709 -2.16806 4.87679 0
M  V30 1227 O 116.932 -3.3758 4.59778 0
M  V30 1228 O 115.866 -1.80934 5.74061 0
M  V30 1229 H 119.692 0.0931396 3.03557 0
M  V30 1230 H 117.277 0.111458 1.48984 0
M  V30 1231 H 119.159 -2.31053 3.5241 0
M  V30 1232 H 117.834 -2.24717 2.32989 0
M  V30 1233 H 116.741 -0.3933 3.72027 0
M  V30 1234 H 118.074 -0.537036 4.89261 0
M  V30 1235 N 119.726 -1.57421 0.075193 0
M  V30 1236 C 120.689 -2.11791 -0.876203 0
M  V30 1237 C 121.689 -1.04268 -1.22412 0
M  V30 1238 O 122.879 -1.30242 -1.15684 0
M  V30 1239 C 120.011 -2.62207 -2.17854 0
M  V30 1240 H 121.204 -2.9716 -0.40444 0
M  V30 1241 H 118.757 -1.55333 -0.173557 0
M  V30 1242 H 119.492 -1.803 -2.6956 0
M  V30 1243 H 119.277 -3.40802 -1.93897 0
M  V30 1244 H 120.767 -3.04335 -2.85955 0
M  V30 1245 N 121.204 0.198386 -1.56346 0
M  V30 1246 C 122.62 0.549085 -1.49857 0
M  V30 1247 C 122.82 1.86016 -0.774611 0
M  V30 1248 O 121.876 2.50416 -0.323776 0
M  V30 1249 C 123.189 0.606868 -2.94512 0
M  V30 1250 C 124.737 0.695925 -3.05165 0
M  V30 1251 C 125.212 0.784848 -4.51225 0
M  V30 1252 N 126.703 0.848463 -4.55363 0
M  V30 1253 C 127.438 0.937378 -5.65686 0
M  V30 1254 N 126.934 0.9888 -6.85707 0
M  V30 1255 N 128.727 0.974312 -5.53592 0
M  V30 1256 H 120.878 -0.661655 -2.01831 0
M  V30 1257 H 123.141 -0.235261 -0.918344 0
M  V30 1258 H 122.847 -0.28732 -3.50524 0
M  V30 1259 H 122.721 1.46268 -3.47686 0
M  V30 1260 H 125.108 1.58055 -2.49204 0
M  V30 1261 H 125.189 -0.186022 -2.55123 0
M  V30 1262 H 124.833 -0.0954072 -5.0781 0
M  V30 1263 H 124.763 1.68255 -4.98997 0
M  V30 1264 H 127.254 0.818103 -3.68938 0
M  V30 1265 H 127.567 1.05707 -7.65536 0
M  V30 1266 H 125.912 0.957534 -6.88372 0
M  V30 1267 H 129.103 0.930954 -4.58749 0
M  V30 1268 H 129.276 1.04015 -6.39597 0
M  V30 1269 N 122.682 1.50554 0.465978 0
M  V30 1270 C 123.592 1.72585 1.58907 0
M  V30 1271 C 124.608 0.60911 1.6299 0
M  V30 1272 O 125.784 0.88804 1.80765 0
M  V30 1273 C 122.849 1.81995 2.95091 0
M  V30 1274 C 121.91 3.05751 3.01355 0
M  V30 1275 C 121.143 3.14702 4.31043 0
M  V30 1276 O 121.366 2.30313 5.21835 0
M  V30 1277 O 120.3 4.07468 4.43005 0
M  V30 1278 H 124.126 2.67799 1.43239 0
M  V30 1279 H 121.711 1.34711 0.646013 0
M  V30 1280 H 123.593 1.90335 3.75966 0
M  V30 1281 H 122.268 0.899659 3.10947 0
M  V30 1282 H 121.175 3.02908 2.19539 0
M  V30 1283 H 122.508 3.97375 2.90437 0
M  V30 1284 N 124.16 -0.719506 1.40217 0
M  V30 1285 C 125.406 -1.48152 1.38488 0
M  V30 1286 C 125.739 -1.94195 -0.0141867 0
M  V30 1287 O 125.014 -1.67884 -0.982096 0
M  V30 1288 C 125.297 -2.71035 2.37091 0
M  V30 1289 C 125.15 -2.30912 3.86005 0
M  V30 1290 C 126.469 -3.73182 2.33288 0
M  V30 1291 H 123.588 -0.537395 0.504357 0
M  V30 1292 H 126.23 -0.821472 1.71324 0
M  V30 1293 H 124.38 -3.27352 2.0922 0
M  V30 1294 H 126.052 -1.80107 4.24687 0
M  V30 1295 H 124.295 -1.62958 4.02029 0
M  V30 1296 H 124.966 -3.18978 4.50508 0
M  V30 1297 H 127.442 -3.26485 2.57966 0
M  V30 1298 H 126.318 -4.56806 3.04334 0
M  V30 1299 H 126.579 -4.21202 1.34317 0
M  V30 1300 N 125.638 -1.25649 -0.95132 0
M  V30 1301 C 126.601 -1.06399 -2.03007 0
M  V30 1302 C 127.601 -0.0156794 -1.60792 0
M  V30 1303 O 128.791 -0.25817 -1.72276 0
M  V30 1304 C 125.923 -0.616184 -3.35285 0
M  V30 1305 H 127.116 -2.02164 -2.21517 0
M  V30 1306 H 124.669 -1.08103 -1.12887 0
M  V30 1307 H 125.404 0.343917 -3.22471 0
M  V30 1308 H 125.189 -1.37301 -3.67275 0
M  V30 1309 H 126.679 -0.503032 -4.14559 0
M  V30 1310 N 127.117 1.15442 -1.07289 0
M  V30 1311 C 128.364 1.86213 -0.795668 0
M  V30 1312 C 128.692 1.82291 0.678238 0
M  V30 1313 O 127.947 1.24057 1.51355 0
M  V30 1314 C 128.246 3.3489 -1.24834 0
M  V30 1315 C 127.912 3.59007 -2.72809 0
M  V30 1316 C 126.574 3.65298 -3.13227 0
M  V30 1317 C 128.926 3.68762 -3.68326 0
M  V30 1318 C 126.254 3.78854 -4.4798 0
M  V30 1319 C 128.606 3.83842 -5.0284 0
M  V30 1320 C 127.27 3.88378 -5.4288 0
M  V30 1321 H 126.54 0.681403 -0.291155 0
M  V30 1322 H 129.187 1.36435 -1.34379 0
M  V30 1323 H 127.492 3.8687 -0.619595 0
M  V30 1324 H 129.189 3.88052 -1.01076 0
M  V30 1325 H 125.779 3.5475 -2.40521 0
M  V30 1326 H 129.963 3.63202 -3.38227 0
M  V30 1327 H 125.219 3.80623 -4.78472 0
M  V30 1328 H 129.393 3.90332 -5.76727 0
M  V30 1329 H 127.02 3.98635 -6.47298 0
M  V30 1330 N 128.595 0.856903 1.32268 0
M  V30 1331 C 129.872 0.382583 1.91822 0
M  V30 1332 C 130.252 -1.13407 1.78051 0
M  V30 1333 O 129.6 -1.95673 1.18001 0
M  V30 1334 C 129.81 0.849446 3.38505 0
M  V30 1335 C 131.158 0.867936 4.15634 0
M  V30 1336 O 132.182 0.794232 3.47232 0
M  V30 1337 O 131.041 0.972286 5.37781 0
M  V30 1338 H 128.135 0.112014 0.819379 0
M  V30 1339 H 130.681 0.943952 1.41024 0
M  V30 1340 H 129.453 1.89267 3.42482 0
M  V30 1341 H 129.076 0.265652 3.96712 0
M  V30 1342 N 130.073 -1.45103 0.615059 0
M  V30 1343 C 131.003 -2.33339 -0.0865619 0
M  V30 1344 C 131.984 -1.4727 -0.851209 0
M  V30 1345 O 133.169 -1.76026 -0.820281 0
M  V30 1346 C 130.299 -3.30095 -1.07956 0
M  V30 1347 C 129.253 -4.25858 -0.427628 0
M  V30 1348 C 128.579 -5.12361 -1.5294 0
M  V30 1349 C 129.879 -5.18165 0.655944 0
M  V30 1350 H 131.573 -2.92254 0.650224 0
M  V30 1351 H 129.119 -1.40532 0.314138 0
M  V30 1352 H 131.072 -3.90698 -1.57901 0
M  V30 1353 H 129.796 -2.69355 -1.84703 0
M  V30 1354 H 128.455 -3.66564 0.0510292 0
M  V30 1355 H 128.103 -4.47984 -2.28734 0
M  V30 1356 H 127.803 -5.77238 -1.09865 0
M  V30 1357 H 129.327 -5.75833 -2.03098 0
M  V30 1358 H 130.741 -5.72796 0.240257 0
M  V30 1359 H 129.138 -5.91559 1.00888 0
M  V30 1360 H 130.208 -4.60144 1.52957 0
M  V30 1361 N 131.551 -0.354651 -1.53558 0
M  V30 1362 C 132.461 0.50515 -2.29097 0
M  V30 1363 C 133.477 1.10223 -1.34636 0
M  V30 1364 O 134.653 1.11553 -1.67684 0
M  V30 1365 C 131.718 1.63479 -3.05738 0
M  V30 1366 C 130.779 1.06636 -4.15845 0
M  V30 1367 C 130.012 2.14217 -4.88822 0
M  V30 1368 O 130.235 3.35137 -4.61562 0
M  V30 1369 O 129.169 1.77887 -5.75013 0
M  V30 1370 H 132.995 -0.109237 -3.03503 0
M  V30 1371 H 130.58 -0.119357 -1.48922 0
M  V30 1372 H 132.462 2.2918 -3.5363 0
M  V30 1373 H 131.137 2.23478 -2.34178 0
M  V30 1374 H 130.044 0.373565 -3.7223 0
M  V30 1375 H 131.377 0.511081 -4.89539 0
M  V30 1376 N 133.029 1.57378 -0.0835403 0
M  V30 1377 C 134.278 1.93106 0.582498 0
M  V30 1378 C 134.591 0.96651 1.70053 0
M  V30 1379 O 135.797 1.21705 2.42693 0
M  V30 1380 C 134.253 3.43076 1.08751 0
M  V30 1381 C 133.861 4.48 -0.000146404 0
M  V30 1382 C 135.605 3.87785 1.72694 0
M  V30 1383 C 133.512 5.89113 0.519568 0
M  V30 1384 H 132.442 0.720775 0.221358 0
M  V30 1385 H 135.093 1.82821 -0.157675 0
M  V30 1386 H 133.475 3.48474 1.88101 0
M  V30 1387 H 134.649 4.54233 -0.775199 0
M  V30 1388 H 132.964 4.1283 -0.54406 0
M  V30 1389 H 135.561 4.90604 2.1263 0
M  V30 1390 H 135.904 3.25796 2.59158 0
M  V30 1391 H 136.437 3.8504 0.999457 0
M  V30 1392 H 133.176 6.54775 -0.308186 0
M  V30 1393 H 132.696 5.86376 1.26188 0
M  V30 1394 H 134.375 6.39346 0.992237 0
M  V30 1395 N 134.507 -0.190092 1.56449 0
M  V30 1396 C 135.918 -0.754312 1.70784 0
M  V30 1397 C 136.269 -1.83631 0.690951 0
M  V30 1398 O 135.394 -2.15868 -0.151604 0
M  V30 1399 C 135.989 -1.37503 3.09642 0
M  V30 1400 C 134.548 -1.88628 3.25725 0
M  V30 1401 C 133.695 -0.758098 2.66736 0
M  V30 1402 H 136.646 0.0350524 1.58661 0
M  V30 1403 H 136.667 -2.2445 3.0725 0
M  V30 1404 H 136.179 -0.587302 3.83631 0
M  V30 1405 H 134.28 -2.70103 2.56661 0
M  V30 1406 H 134.393 -2.04462 4.3328 0
M  V30 1407 H 132.757 -1.17369 2.26046 0
M  V30 1408 H 133.54 0.0174705 3.43296 0
M  V30 1409 N 135.985 -1.50799 -0.457987 0
M  V30 1410 C 136.932 -1.70617 -1.5543 0
M  V30 1411 C 137.902 -0.547562 -1.56815 0
M  V30 1412 O 139.087 -0.779647 -1.74144 0
M  V30 1413 C 136.227 -1.81831 -2.93311 0
M  V30 1414 C 135.34 -3.09278 -3.01615 0
M  V30 1415 C 134.475 -3.11209 -4.30491 0
M  V30 1416 C 133.514 -4.33055 -4.32585 0
M  V30 1417 N 132.651 -4.32652 -5.52952 0
M  V30 1418 H 137.491 -2.64207 -1.37836 0
M  V30 1419 H 135.028 -1.30959 -0.669937 0
M  V30 1420 H 136.986 -1.86314 -3.73287 0
M  V30 1421 H 135.616 -0.916685 -3.0951 0
M  V30 1422 H 134.668 -3.14203 -2.1443 0
M  V30 1423 H 135.98 -3.99233 -2.99022 0
M  V30 1424 H 135.134 -3.14494 -5.18824 0
M  V30 1425 H 133.873 -2.19106 -4.35711 0
M  V30 1426 H 132.878 -4.29969 -3.42647 0
M  V30 1427 H 134.103 -5.264 -4.29046 0
M  V30 1428 H 132.049 -3.43409 -5.58933 0
M  V30 1429 H 131.966 -5.16392 -5.52155 0
M  V30 1430 H 133.234 -4.40101 -6.43375 0
M  V30 1431 N 137.463 0.71206 -1.40597 0
M  V30 1432 C 138.691 1.50111 -1.42388 0
M  V30 1433 C 139.106 1.88784 -0.0245395 0
M  V30 1434 O 138.463 1.55681 0.952351 0
M  V30 1435 C 138.514 2.7742 -2.31776 0
M  V30 1436 O 138.235 2.40382 -3.66262 0
M  V30 1437 C 139.736 3.7129 -2.42196 0
M  V30 1438 H 136.956 0.46314 -0.485533 0
M  V30 1439 H 139.5 0.878068 -1.8469 0
M  V30 1440 H 137.655 3.36001 -1.92827 0
M  V30 1441 H 138.069 3.22324 -4.13772 0
M  V30 1442 H 139.543 4.57448 -3.08943 0
M  V30 1443 H 140.02 4.14641 -1.44809 0
M  V30 1444 H 140.626 3.18619 -2.81712 0
M  V30 1445 N 138.941 1.26152 0.944643 0
M  V30 1446 C 139.904 1.07474 2.0244 0
M  V30 1447 C 140.904 0.0242064 1.60782 0
M  V30 1448 O 142.094 0.267302 1.72137 0
M  V30 1449 C 139.226 0.633956 3.34953 0
M  V30 1450 H 140.419 2.03336 2.20442 0
M  V30 1451 H 137.972 1.087 1.12312 0
M  V30 1452 H 138.707 -0.326811 3.22649 0
M  V30 1453 H 138.492 1.39247 3.66542 0
M  V30 1454 H 139.982 0.52501 4.14287 0
M  V30 1455 N 140.419 -1.14872 1.07899 0
M  V30 1456 C 141.666 -1.85789 0.805532 0
M  V30 1457 C 141.994 -1.82649 -0.668561 0
M  V30 1458 O 141.249 -1.24858 -1.50695 0
M  V30 1459 C 141.548 -3.34223 1.26609 0
M  V30 1460 C 141.214 -3.57555 2.74709 0
M  V30 1461 C 139.876 -3.63631 3.1516 0
M  V30 1462 C 142.228 -3.66803 3.70277 0
M  V30 1463 C 139.556 -3.76473 4.49983 0
M  V30 1464 C 141.908 -3.8117 5.04869 0
M  V30 1465 C 140.572 -3.85494 5.44932 0
M  V30 1466 H 139.842 -0.679849 0.294765 0
M  V30 1467 H 142.489 -1.3572 1.35101 0
M  V30 1468 H 140.794 -3.86536 0.640103 0
M  V30 1469 H 142.491 -3.87511 1.03132 0
M  V30 1470 H 139.081 -3.5347 2.42398 0
M  V30 1471 H 143.265 -3.61404 3.40149 0
M  V30 1472 H 138.521 -3.7808 4.80484 0
M  V30 1473 H 142.695 -3.87268 5.78789 0
M  V30 1474 H 140.322 -3.95197 6.49403 0
M  V30 1475 N 141.898 -0.863906 -1.31812 0
M  V30 1476 C 143.147 -0.46801 -1.96195 0
M  V30 1477 C 143.46 0.983474 -1.69077 0
M  V30 1478 O 144.666 1.48523 -2.27273 0
M  V30 1479 C 143.122 -0.785995 -3.51212 0
M  V30 1480 C 142.73 -2.25383 -3.87178 0
M  V30 1481 C 144.474 -0.458274 -4.22019 0
M  V30 1482 C 142.381 -2.51455 -5.3528 0
M  V30 1483 H 141.311 -0.171283 -0.734287 0
M  V30 1484 H 143.962 -1.05597 -1.50072 0
M  V30 1485 H 142.344 -0.127359 -3.95795 0
M  V30 1486 H 143.518 -2.95502 -3.53575 0
M  V30 1487 H 141.833 -2.54698 -3.2942 0
M  V30 1488 H 144.43 -0.630369 -5.30971 0
M  V30 1489 H 144.773 0.600834 -4.11941 0
M  V30 1490 H 145.306 -1.07319 -3.8305 0
M  V30 1491 H 142.045 -3.56025 -5.50387 0
M  V30 1492 H 141.565 -1.85923 -5.70257 0
M  V30 1493 H 143.244 -2.35874 -6.02472 0
M  V30 1494 N 143.376 1.44774 -0.622745 0
M  V30 1495 C 144.601 2.06999 -0.128968 0
M  V30 1496 C 145.026 1.4617 1.1839 0
M  V30 1497 O 144.384 0.560007 1.72434 0
M  V30 1498 C 144.432 3.60595 -0.0188351 0
M  V30 1499 O 143.536 3.99398 1.02739 0
M  V30 1500 H 142.877 0.659047 -0.0809544 0
M  V30 1501 H 145.407 1.85784 -0.85705 0
M  V30 1502 H 145.417 4.07627 0.174476 0
M  V30 1503 H 144.092 4.04252 -0.977384 0
M  V30 1504 H 142.669 3.64011 0.809326 0
M  V30 1505 N 144.854 0.36279 1.53368 0
M  V30 1506 C 146.131 -0.284021 1.93527 0
M  V30 1507 C 146.511 -1.66628 1.29608 0
M  V30 1508 O 145.859 -2.23942 0.45413 0
M  V30 1509 C 146.069 -0.337028 3.47369 0
M  V30 1510 C 147.417 -0.578708 4.20638 0
M  V30 1511 O 148.441 -0.418352 3.53735 0
M  V30 1512 O 147.3 -0.89074 5.39192 0
M  V30 1513 H 144.394 -0.169743 0.809393 0
M  V30 1514 H 146.94 0.41537 1.64538 0
M  V30 1515 H 145.712 0.632217 3.86159 0
M  V30 1516 H 145.335 -1.08243 3.82582 0
M  V30 1517 N 146.332 -1.57332 0.0918853 0
M  V30 1518 C 147.579 -1.94236 -0.572577 0
M  V30 1519 C 147.907 -0.973398 -1.6839 0
M  V30 1520 O 147.162 0.00756912 -1.95699 0
M  V30 1521 C 147.461 -3.37689 -1.17051 0
M  V30 1522 C 147.127 -4.50527 -0.183304 0
M  V30 1523 C 145.789 -4.81119 0.0882276 0
M  V30 1524 C 148.141 -5.18883 0.49095 0
M  V30 1525 C 145.469 -5.77395 1.04076 0
M  V30 1526 C 147.821 -6.1618 1.43193 0
M  V30 1527 C 146.485 -6.45179 1.71173 0
M  V30 1528 H 145.755 -0.710762 -0.209521 0
M  V30 1529 H 148.402 -1.9077 0.167036 0
M  V30 1530 H 146.707 -3.37718 -1.9863 0
M  V30 1531 H 148.404 -3.63543 -1.69227 0
M  V30 1532 H 144.994 -4.26681 -0.405124 0
M  V30 1533 H 149.178 -4.95427 0.294312 0
M  V30 1534 H 144.434 -5.98179 1.26457 0
M  V30 1535 H 148.608 -6.68243 1.96023 0
M  V30 1536 H 146.235 -7.1959 2.4514 0
M  V30 1537 N 147.81 0.181792 -1.56548 0
M  V30 1538 C 148.773 1.20894 -1.94724 0
M  V30 1539 C 149.773 1.37738 -0.829747 0
M  V30 1540 O 150.963 1.35323 -1.09697 0
M  V30 1541 C 148.095 2.57593 -2.23291 0
M  V30 1542 H 149.288 0.882275 -2.86629 0
M  V30 1543 H 146.841 0.423838 -1.50444 0
M  V30 1544 H 147.576 2.95291 -1.34067 0
M  V30 1545 H 147.361 2.46735 -3.04736 0
M  V30 1546 H 148.851 3.31637 -2.53785 0
M  V30 1547 N 149.288 1.51039 0.449983 0
M  V30 1548 C 150.534 1.63322 1.20223 0
M  V30 1549 C 150.867 0.34241 1.91158 0
M  V30 1550 O 150.142 -0.657344 1.83055 0
M  V30 1551 C 150.425 2.82801 2.22925 0
M  V30 1552 C 150.278 4.21823 1.56157 0
M  V30 1553 C 151.597 2.97807 3.24035 0
M  V30 1554 H 148.716 0.594407 0.435718 0
M  V30 1555 H 151.358 1.83489 0.493136 0
M  V30 1556 H 149.508 2.65738 2.834 0
M  V30 1557 H 151.18 4.50526 0.991162 0
M  V30 1558 H 149.423 4.25105 0.864172 0
M  V30 1559 H 150.094 5.01391 2.30891 0
M  V30 1560 H 152.57 3.13497 2.73603 0
M  V30 1561 H 151.446 3.82992 3.93202 0
M  V30 1562 H 151.707 2.09328 3.89402 0
M  V30 1563 N 150.766 -0.704594 1.40972 0
M  V30 1564 C 151.994 -1.49354 1.43182 0
M  V30 1565 C 152.409 -1.88768 0.0345508 0
M  V30 1566 O 151.766 -1.56184 -0.944081 0
M  V30 1567 C 151.817 -2.76187 2.33244 0
M  V30 1568 O 151.538 -2.38436 3.67532 0
M  V30 1569 C 153.039 -3.7 2.44162 0
M  V30 1570 H 150.259 -0.460559 0.487982 0
M  V30 1571 H 152.803 -0.868261 1.85153 0
M  V30 1572 H 150.958 -3.34974 1.94606 0
M  V30 1573 H 151.372 -3.20126 4.15475 0
M  V30 1574 H 152.846 -4.55803 3.11364 0
M  V30 1575 H 153.323 -4.13867 1.47006 0
M  V30 1576 H 153.929 -3.17121 2.83398 0
M  V30 1577 N 152.244 -1.26651 -0.937939 0
M  V30 1578 C 153.207 -1.08546 -2.01867 0
M  V30 1579 C 154.207 -0.0327327 -1.60767 0
M  V30 1580 O 155.397 -0.276427 -1.71993 0
M  V30 1581 C 152.529 -0.651711 -3.34613 0
M  V30 1582 H 153.722 -2.04502 -2.1936 0
M  V30 1583 H 151.275 -1.09294 -1.11734 0
M  V30 1584 H 152.01 0.309696 -3.22818 0
M  V30 1585 H 151.795 -1.41189 -3.65798 0
M  V30 1586 H 153.285 -0.546973 -4.14002 0
M  V30 1587 N 153.722 1.14298 -1.08507 0
M  V30 1588 C 154.999 1.81544 -0.728088 0
M  V30 1589 C 155.379 1.95838 0.78808 0
M  V30 1590 O 154.727 1.51904 1.70697 0
M  V30 1591 C 154.937 3.17169 -1.45619 0
M  V30 1592 C 156.285 3.9265 -1.61591 0
M  V30 1593 O 157.309 3.26762 -1.41793 0
M  V30 1594 O 156.168 5.10807 -1.94263 0
M  V30 1595 H 153.262 0.78491 -0.260471 0
M  V30 1596 H 155.808 1.21307 -1.18671 0
M  V30 1597 H 154.58 3.01934 -2.489 0
M  V30 1598 H 154.203 3.851 -0.989124 0
M  V30 1599 N 155.201 0.870884 1.31352 0
M  V30 1600 C 156.449 0.48132 1.96285 0
M  V30 1601 C 156.77 -0.969813 1.69173 0
M  V30 1602 O 156.04 -1.67998 1.00764 0
M  V30 1603 H 154.62 0.175002 0.726212 0
M  V30 1604 H 157.282 1.11087 1.60143 0
M  V30 1605 H 156.378 0.639825 3.05471 0
M  V30 1606 N 156.679 -1.44442 0.630414 0
M  V30 1607 C 157.627 -2.32437 -0.0871428 0
M  V30 1608 C 158.621 -1.47304 -0.836525 0
M  V30 1609 O 159.827 -1.63653 -0.749506 0
M  V30 1610 H 156.202 -0.750533 -0.0469495 0
M  V30 1611 H 158.173 -2.90709 0.673096 0
M  V30 1612 C 156.922 -3.31288 -1.05563 0
M  V30 1613 H 156.245 -3.96805 -0.488426 0
M  V30 1614 H 157.685 -3.9554 -1.52721 0
M  V30 1615 C 156.144 -2.6016 -2.14052 0
M  V30 1616 O 156.674 -2.39997 -3.22124 0
M  V30 1617 N 154.88 -2.19911 -1.89967 0
M  V30 1618 H 154.427 -2.36509 -1.02085 0
M  V30 1619 H 154.385 -1.72646 -2.62756 0
M  V30 1620 N 158.157 -0.370918 -1.53173 0
M  V30 1621 C 159.12 0.460778 -2.24521 0
M  V30 1622 C 160.12 1.00536 -1.25496 0
M  V30 1623 O 161.31 0.890266 -1.49733 0
M  V30 1624 C 158.442 1.64457 -2.98608 0
M  V30 1625 H 159.635 -0.163613 -2.99453 0
M  V30 1626 H 157.188 -0.122699 -1.55818 0
M  V30 1627 H 157.923 2.30691 -2.2793 0
M  V30 1628 H 157.708 1.26099 -3.7127 0
M  V30 1629 H 159.198 2.23384 -3.5283 0
M  V30 1630 N 159.635 1.57281 -0.100228 0
M  V30 1631 C 160.882 1.94537 0.562268 0
M  V30 1632 C 161.21 0.982315 1.67871 0
M  V30 1633 O 160.465 0.00280936 1.957 0
M  V30 1634 C 160.764 3.38305 1.15259 0
M  V30 1635 C 160.43 4.50618 0.159409 0
M  V30 1636 C 159.092 4.81066 -0.113741 0
M  V30 1637 C 161.444 5.18615 -0.518461 0
M  V30 1638 C 158.772 5.76835 -1.07137 0
M  V30 1639 C 161.124 6.15412 -1.46459 0
M  V30 1640 C 159.788 6.44262 -1.74592 0
M  V30 1641 H 159.058 0.711863 0.205748 0
M  V30 1642 H 161.705 1.90679 -0.17715 0
M  V30 1643 H 160.01 3.38766 1.96836 0
M  V30 1644 H 161.707 3.64435 1.67297 0
M  V30 1645 H 158.297 4.2689 0.382491 0
M  V30 1646 H 162.481 4.95264 -0.320581 0
M  V30 1647 H 157.737 5.975 -1.29628 0
M  V30 1648 H 161.911 6.67194 -1.99564 0
M  V30 1649 H 159.538 7.1828 -2.48953 0
M  V30 1650 N 161.113 -0.173488 1.56642 0
M  V30 1651 C 162.362 -0.888758 1.81063 0
M  V30 1652 C 162.675 -1.83506 0.67712 0
M  V30 1653 O 163.881 -2.59254 0.806206 0
M  V30 1654 C 162.337 -1.63091 3.20826 0
M  V30 1655 C 161.945 -0.728357 4.4204 0
M  V30 1656 C 163.689 -2.33454 3.54541 0
M  V30 1657 C 161.596 -1.47062 5.72823 0
M  V30 1658 H 160.526 -0.335618 0.675186 0
M  V30 1659 H 163.177 -0.141712 1.82952 0
M  V30 1660 H 161.559 -2.42263 3.13248 0
M  V30 1661 H 162.733 0.0262449 4.60793 0
M  V30 1662 H 161.048 -0.134492 4.16183 0
M  V30 1663 H 163.645 -2.89578 4.49498 0
M  V30 1664 H 163.988 -3.08687 2.79317 0
M  V30 1665 H 164.521 -1.61227 3.63663 0
M  V30 1666 H 161.26 -0.760658 6.51072 0
M  V30 1667 H 160.78 -2.1986 5.58052 0
M  V30 1668 H 162.459 -2.01868 6.14702 0
M  V30 1669 N 162.591 -1.51276 -0.441967 0
M  V30 1670 C 163.839 -1.63392 -1.18943 0
M  V30 1671 C 164.16 -0.350159 -1.9183 0
M  V30 1672 O 163.43 0.633784 -1.85364 0
M  V30 1673 H 162.01 -0.602164 -0.442049 0
M  V30 1674 H 164.672 -1.88186 -0.507165 0
M  V30 1675 H 163.768 -2.45934 -1.92154 0
M  V30 1676 N 164.069 0.697108 -1.41344 0
M  V30 1677 C 165.346 1.45154 -1.31109 0
M  V30 1678 C 165.726 2.11009 0.0620449 0
M  V30 1679 O 165.074 2.01571 1.07618 0
M  V30 1680 C 165.284 2.47223 -2.46337 0
M  V30 1681 C 166.632 3.1252 -2.87431 0
M  V30 1682 O 167.656 2.57547 -2.46065 0
M  V30 1683 O 166.515 4.12083 -3.58957 0
M  V30 1684 H 163.609 0.646365 -0.515889 0
M  V30 1685 H 166.155 0.727716 -1.53305 0
M  V30 1686 H 164.927 1.97204 -3.37974 0
M  V30 1687 H 164.55 3.27116 -2.2601 0
M  V30 1688 N 165.547 1.27147 0.931209 0
M  V30 1689 C 166.796 1.12664 1.67302 0
M  V30 1690 C 167.109 -0.327718 1.92835 0
M  V30 1691 O 168.315 -0.593392 2.64936 0
M  V30 1692 C 166.771 1.9683 3.01307 0
M  V30 1693 C 166.379 3.46901 2.83485 0
M  V30 1694 C 168.123 1.90985 3.79111 0
M  V30 1695 C 166.03 4.23279 4.13024 0
M  V30 1696 H 164.96 0.41803 0.627509 0
M  V30 1697 H 167.611 1.51539 1.03481 0
M  V30 1698 H 165.993 1.50797 3.66164 0
M  V30 1699 H 167.167 4.00773 2.27415 0
M  V30 1700 H 165.482 3.54088 2.19113 0
M  V30 1701 H 168.079 2.45328 4.75098 0
M  V30 1702 H 168.422 0.882718 4.06834 0
M  V30 1703 H 168.955 2.34895 3.21044 0
M  V30 1704 H 165.694 5.26503 3.90481 0
M  V30 1705 H 165.214 3.74186 4.6877 0
M  V30 1706 H 166.893 4.32265 4.81411 0
M  V30 1707 N 167.025 -1.13721 1.09112 0
M  V30 1708 C 167.972 -2.19031 0.727591 0
M  V30 1709 C 168.942 -1.63555 -0.289656 0
M  V30 1710 O 170.127 -1.90023 -0.172026 0
M  V30 1711 C 167.267 -3.4477 0.15082 0
M  V30 1712 C 166.38 -4.14365 1.22172 0
M  V30 1713 C 165.515 -5.27709 0.608042 0
M  V30 1714 C 164.554 -5.89147 1.66047 0
M  V30 1715 N 163.691 -6.93929 1.06806 0
M  V30 1716 H 168.531 -2.49475 1.62991 0
M  V30 1717 H 166.068 -1.22499 0.81439 0
M  V30 1718 H 168.026 -4.16714 -0.201358 0
M  V30 1719 H 166.656 -3.14787 -0.714783 0
M  V30 1720 H 165.708 -3.40737 1.69122 0
M  V30 1721 H 167.02 -4.56114 2.01895 0
M  V30 1722 H 166.174 -6.06355 0.204523 0
M  V30 1723 H 164.913 -4.872 -0.220769 0
M  V30 1724 H 163.918 -5.09198 2.07357 0
M  V30 1725 H 165.143 -6.31729 2.49189 0
M  V30 1726 H 163.089 -6.55483 0.260476 0
M  V30 1727 H 163.006 -7.34202 1.8023 0
M  V30 1728 H 164.274 -7.76434 0.690644 0
M  V30 1729 N 168.503 -0.877838 -1.30888 0
M  V30 1730 C 169.78 -0.413052 -1.91189 0
M  V30 1731 C 170.16 1.1056 -1.79832 0
M  V30 1732 O 169.508 1.93771 -1.21099 0
M  V30 1733 C 169.718 -0.903191 -3.3711 0
M  V30 1734 C 171.066 -0.93395 -4.14201 0
M  V30 1735 O 172.09 -0.849373 -3.45925 0
M  V30 1736 O 170.949 -1.05772 -5.36167 0
M  V30 1737 H 168.043 -0.125035 -0.817493 0
M  V30 1738 H 170.589 -0.966269 -1.39504 0
M  V30 1739 H 169.361 -1.94692 -3.39427 0
M  V30 1740 H 168.984 -0.328732 -3.96239 0
M  V30 1741 N 169.982 1.44106 -0.638065 0
M  V30 1742 C 170.929 2.30715 0.062701 0
M  V30 1743 C 171.899 1.43882 0.829883 0
M  V30 1744 O 173.084 1.72775 0.809532 0
M  V30 1745 C 170.224 3.29258 1.03358 0
M  V30 1746 C 169.337 4.31192 0.26409 0
M  V30 1747 C 168.472 5.16825 1.22741 0
M  V30 1748 C 167.511 6.10462 0.447475 0
M  V30 1749 N 166.648 6.8877 1.36161 0
M  V30 1750 H 171.488 2.90096 -0.681781 0
M  V30 1751 H 169.025 1.42925 -0.347988 0
M  V30 1752 H 170.983 3.84886 1.60992 0
M  V30 1753 H 169.613 2.71562 1.74511 0
M  V30 1754 H 168.665 3.77981 -0.428295 0
M  V30 1755 H 169.977 4.97619 -0.343052 0
M  V30 1756 H 169.131 5.77004 1.87487 0
M  V30 1757 H 167.87 4.50488 1.86847 0
M  V30 1758 H 166.875 5.49386 -0.213433 0
M  V30 1759 H 168.1 6.78837 -0.188968 0
M  V30 1760 H 166.046 6.25096 1.98975 0
M  V30 1761 H 165.963 7.51663 0.808656 0
M  V30 1762 H 167.231 7.53467 1.99769 0
M  V30 1763 N 171.46 0.379036 1.52974 0
M  V30 1764 C 172.706 -0.206727 2.01744 0
M  V30 1765 C 173.039 -1.47314 1.26539 0
M  V30 1766 O 172.314 -1.91084 0.362903 0
M  V30 1767 C 172.597 -0.485066 3.56818 0
M  V30 1768 C 172.45 0.795919 4.42702 0
M  V30 1769 C 173.769 -1.28003 4.21074 0
M  V30 1770 H 170.888 -0.0736607 0.73331 0
M  V30 1771 H 173.53 0.506581 1.83122 0
M  V30 1772 H 171.68 -1.09272 3.72816 0
M  V30 1773 H 173.352 1.43307 4.38476 0
M  V30 1774 H 171.595 1.41344 4.10127 0
M  V30 1775 H 172.266 0.555947 5.49193 0
M  V30 1776 H 174.742 -0.765867 4.08991 0
M  V30 1777 H 173.618 -1.44352 5.29579 0
M  V30 1778 H 173.879 -2.29236 3.78026 0
M  V30 1779 N 172.938 -1.57226 0.108567 0
M  V30 1780 C 174.166 -1.99179 -0.559954 0
M  V30 1781 C 174.581 -0.988022 -1.60884 0
M  V30 1782 O 173.938 0.0205512 -1.82488 0
M  V30 1783 C 173.989 -3.41159 -1.19552 0
M  V30 1784 O 173.71 -4.37694 -0.188577 0
M  V30 1785 C 175.211 -3.98188 -1.94837 0
M  V30 1786 H 172.431 -0.654228 -0.149088 0
M  V30 1787 H 174.975 -2.03598 0.19183 0
M  V30 1788 H 173.13 -3.37711 -1.89815 0
M  V30 1789 H 173.544 -5.20469 -0.649014 0
M  V30 1790 H 175.018 -4.99644 -2.34648 0
M  V30 1791 H 175.495 -3.3675 -2.81951 0
M  V30 1792 H 176.101 -4.0515 -1.2936 0
M  V30 1793 N 174.416 0.165178 -1.56732 0
M  V30 1794 C 175.379 1.18822 -1.95995 0
M  V30 1795 C 176.379 1.3685 -0.84431 0
M  V30 1796 O 177.569 1.34152 -1.11126 0
M  V30 1797 C 174.701 2.5521 -2.26011 0
M  V30 1798 H 175.894 0.851825 -2.87548 0
M  V30 1799 H 173.447 0.407857 -1.50885 0
M  V30 1800 H 174.182 2.93852 -1.37191 0
M  V30 1801 H 173.967 2.43489 -3.07336 0
M  V30 1802 H 175.457 3.28927 -2.57288 0
M  V30 1803 N 175.894 1.51508 0.433938 0
M  V30 1804 C 177.14 1.65549 1.18173 0
M  V30 1805 C 177.495 0.368751 1.88833 0
M  V30 1806 O 176.788 -0.635616 1.8075 0
M  V30 1807 C 176.982 2.79928 2.22205 0
M  V30 1808 C 176.811 4.19601 1.61756 0
M  V30 1809 C 175.581 4.85489 1.40101 0
M  V30 1810 C 177.779 5.02574 1.09194 0
M  V30 1811 N 175.761 6.09266 0.752859 0
M  V30 1812 C 177.132 6.17381 0.569255 0
M  V30 1813 C 179.187 4.88079 0.984025 0
M  V30 1814 C 177.89 7.19282 -0.0507472 0
M  V30 1815 C 179.916 5.90191 0.377912 0
M  V30 1816 C 179.278 7.04272 -0.134216 0
M  V30 1817 H 175.377 0.659653 0.419979 0
M  V30 1818 H 177.961 1.88746 0.477818 0
M  V30 1819 H 176.132 2.5839 2.89982 0
M  V30 1820 H 177.864 2.83132 2.89168 0
M  V30 1821 H 174.619 4.43417 1.66369 0
M  V30 1822 H 175.043 6.75528 0.446123 0
M  V30 1823 H 179.685 4.00131 1.36583 0
M  V30 1824 H 177.403 8.06876 -0.444676 0
M  V30 1825 H 180.989 5.81045 0.296269 0
M  V30 1826 H 179.869 7.81933 -0.59585 0
M  V30 1827 N 177.372 -0.689602 1.41712 0
M  V30 1828 C 178.319 -1.80345 1.44029 0
M  V30 1829 C 179.289 -1.63478 0.293948 0
M  V30 1830 O 180.474 -1.84244 0.495869 0
M  V30 1831 C 177.614 -3.18272 1.33405 0
M  V30 1832 C 176.727 -3.46529 2.57956 0
M  V30 1833 C 175.862 -4.74103 2.39582 0
M  V30 1834 C 174.901 -4.95347 3.5958 0
M  V30 1835 N 174.038 -6.14151 3.40239 0
M  V30 1836 H 178.878 -1.77698 2.39222 0
M  V30 1837 H 176.415 -0.867688 1.18784 0
M  V30 1838 H 178.373 -3.97956 1.25246 0
M  V30 1839 H 177.003 -3.2008 0.418164 0
M  V30 1840 H 176.055 -2.61207 2.76542 0
M  V30 1841 H 177.367 -3.58126 3.47199 0
M  V30 1842 H 176.521 -5.61853 2.28924 0
M  V30 1843 H 175.26 -4.64763 1.47805 0
M  V30 1844 H 174.265 -4.06044 3.70686 0
M  V30 1845 H 175.49 -5.06542 4.52318 0
M  V30 1846 H 173.436 -6.06013 2.51167 0
M  V30 1847 H 173.353 -6.26543 4.23061 0
M  V30 1848 H 174.621 -7.04619 3.33365 0
M  V30 1849 N 178.85 -1.27639 -0.924453 0
M  V30 1850 C 179.782 -1.06442 -2.02985 0
M  V30 1851 C 180.795 -0.0194771 -1.62788 0
M  V30 1852 O 181.984 -0.261388 -1.76576 0
M  V30 1853 C 179.084 -0.59327 -3.33667 0
M  V30 1854 C 178.257 -1.71123 -4.02537 0
M  V30 1855 C 177.316 -1.23527 -5.11495 0
M  V30 1856 O 176.342 -1.93553 -5.35281 0
M  V30 1857 N 177.544 -0.0926678 -5.80426 0
M  V30 1858 H 180.309 -2.01633 -2.2173 0
M  V30 1859 H 177.87 -1.19248 -1.09505 0
M  V30 1860 H 179.862 -0.258686 -4.03872 0
M  V30 1861 H 178.432 0.265502 -3.1147 0
M  V30 1862 H 177.652 -2.21593 -3.26022 0
M  V30 1863 H 178.94 -2.46145 -4.45298 0
M  V30 1864 H 178.338 0.491741 -5.63559 0
M  V30 1865 H 176.895 0.182714 -6.51544 0
M  V30 1866 N 180.328 1.1314 -1.09713 0
M  V30 1867 C 181.558 1.88048 -0.855656 0
M  V30 1868 C 181.966 1.79537 0.596919 0
M  V30 1869 O 181.309 1.16196 1.42282 0
M  V30 1870 C 181.371 3.38314 -1.21589 0
M  V30 1871 C 181.035 3.70605 -2.67397 0
M  V30 1872 C 182.032 3.69596 -3.65643 0
M  V30 1873 C 179.717 4.0017 -3.03593 0
M  V30 1874 C 181.711 3.977 -4.9811 0
M  V30 1875 C 179.398 4.27935 -4.36251 0
M  V30 1876 C 180.396 4.26685 -5.33318 0
M  V30 1877 O 180.084 4.53767 -6.63589 0
M  V30 1878 H 179.816 0.60208 -0.307368 0
M  V30 1879 H 182.37 1.44128 -1.46343 0
M  V30 1880 H 180.6 3.82752 -0.551177 0
M  V30 1881 H 182.289 3.94552 -0.953083 0
M  V30 1882 H 183.055 3.46826 -3.39023 0
M  V30 1883 H 178.934 4.00289 -2.2867 0
M  V30 1884 H 182.478 3.9664 -5.73866 0
M  V30 1885 H 178.375 4.50178 -4.62613 0
M  V30 1886 H 179.143 4.71422 -6.69107 0
M  V30 1887 N 181.806 0.884767 1.30421 0
M  V30 1888 C 183.222 0.57874 1.48737 0
M  V30 1889 C 183.422 -0.883567 1.81095 0
M  V30 1890 O 182.478 -1.6648 1.89844 0
M  V30 1891 C 183.791 1.49171 2.61091 0
M  V30 1892 C 185.339 1.49532 2.74971 0
M  V30 1893 C 185.814 2.39421 3.90438 0
M  V30 1894 N 187.305 2.37383 3.97748 0
M  V30 1895 C 188.04 3.03647 4.86401 0
M  V30 1896 N 187.536 3.79136 5.79852 0
M  V30 1897 N 189.329 2.9288 4.79768 0
M  V30 1898 H 181.48 1.83075 1.0769 0
M  V30 1899 H 183.743 0.783637 0.533495 0
M  V30 1900 H 183.449 2.53291 2.44001 0
M  V30 1901 H 183.323 1.20113 3.57565 0
M  V30 1902 H 185.71 0.46163 2.91467 0
M  V30 1903 H 185.791 1.8262 1.79119 0
M  V30 1904 H 185.435 3.42874 3.74699 0
M  V30 1905 H 185.365 2.03649 4.85628 0
M  V30 1906 H 187.856 1.82525 3.30897 0
M  V30 1907 H 188.169 4.26789 6.4426 0
M  V30 1908 H 186.514 3.83243 5.79784 0
M  V30 1909 H 189.705 2.33433 4.05742 0
M  V30 1910 H 189.878 3.448 5.4865 0
M  V30 1911 N 183.284 -1.43765 0.645699 0
M  V30 1912 C 184.231 -2.30745 -0.0504648 0
M  V30 1913 C 185.201 -1.4432 -0.822241 0
M  V30 1914 O 186.386 -1.73202 -0.800358 0
M  V30 1915 C 183.526 -3.29802 -1.0161 0
M  V30 1916 C 182.639 -4.31326 -0.241219 0
M  V30 1917 C 181.774 -5.17469 -1.19998 0
M  V30 1918 C 180.813 -6.10691 -0.415094 0
M  V30 1919 N 179.95 -6.89483 -1.32506 0
M  V30 1920 H 184.79 -2.8973 0.697155 0
M  V30 1921 H 182.327 -1.42738 0.355563 0
M  V30 1922 H 184.285 -3.85734 -1.58949 0
M  V30 1923 H 182.915 -2.72483 -1.73069 0
M  V30 1924 H 181.967 -3.77749 0.448334 0
M  V30 1925 H 183.279 -4.9743 0.369437 0
M  V30 1926 H 182.433 -5.7799 -1.84424 0
M  V30 1927 H 181.172 -4.51473 -1.84455 0
M  V30 1928 H 180.177 -5.49265 0.242565 0
M  V30 1929 H 181.402 -6.78727 0.224966 0
M  V30 1930 H 179.348 -6.26142 -1.95657 0
M  V30 1931 H 179.265 -7.52081 -0.768783 0
M  V30 1932 H 180.533 -7.54516 -1.9577 0
M  V30 1933 N 184.763 -0.387143 -1.52771 0
M  V30 1934 C 185.726 0.436939 -2.24997 0
M  V30 1935 C 186.726 0.991991 -1.26555 0
M  V30 1936 O 187.916 0.874335 -1.50669 0
M  V30 1937 C 185.048 1.61281 -3.00335 0
M  V30 1938 H 186.241 -0.195365 -2.99263 0
M  V30 1939 H 183.794 -0.139218 -1.55679 0
M  V30 1940 H 184.529 2.2826 -2.30364 0
M  V30 1941 H 184.314 1.22154 -3.72587 0
M  V30 1942 H 185.804 2.19629 -3.5518 0
M  V30 1943 N 186.241 1.57166 -0.116904 0
M  V30 1944 C 187.204 2.14039 0.819742 0
M  V30 1945 C 188.204 1.07477 1.19605 0
M  V30 1946 O 189.394 1.33263 1.1219 0
M  V30 1947 C 186.526 2.67891 2.10826 0
M  V30 1948 H 187.719 2.98128 0.325511 0
M  V30 1949 H 185.272 1.55739 0.132312 0
M  V30 1950 H 186.007 1.87384 2.64685 0
M  V30 1951 H 185.792 3.45823 1.84793 0
M  V30 1952 H 187.282 3.11809 2.77785 0
M  V30 1953 N 187.719 -0.156864 1.56817 0
M  V30 1954 C 188.968 -0.869504 1.81996 0
M  V30 1955 C 189.281 -1.82777 0.696545 0
M  V30 1956 O 190.487 -2.58384 0.833658 0
M  V30 1957 C 188.943 -1.59679 3.22538 0
M  V30 1958 C 188.551 -0.681431 4.42787 0
M  V30 1959 C 190.295 -2.2968 3.56997 0
M  V30 1960 C 188.202 -1.40978 5.74351 0
M  V30 1961 H 187.132 -0.328438 0.678708 0
M  V30 1962 H 189.783 -0.1223 1.83092 0
M  V30 1963 H 188.165 -2.38927 3.158 0
M  V30 1964 H 189.339 0.0751166 4.60739 0
M  V30 1965 H 187.654 -0.0903431 4.16302 0
M  V30 1966 H 190.251 -2.84794 4.52544 0
M  V30 1967 H 190.594 -3.05707 2.82576 0
M  V30 1968 H 191.127 -1.57361 3.65352 0
M  V30 1969 H 187.866 -0.691561 6.51842 0
M  V30 1970 H 187.386 -2.13929 5.60352 0
M  V30 1971 H 189.065 -1.95337 6.16808 0
M  V30 1972 N 189.197 -1.51736 -0.425897 0
M  V30 1973 C 190.422 -1.69082 -1.20108 0
M  V30 1974 C 190.847 -0.392398 -1.83962 0
M  V30 1975 O 190.205 0.64858 -1.69302 0
M  V30 1976 C 190.253 -2.81604 -2.25237 0
M  V30 1977 O 189.357 -2.46004 -3.30992 0
M  V30 1978 H 188.698 -0.563408 -0.35138 0
M  V30 1979 H 191.228 -1.98358 -0.501512 0
M  V30 1980 H 191.238 -3.06025 -2.69838 0
M  V30 1981 H 189.913 -3.75817 -1.78142 0
M  V30 1982 H 188.49 -2.32195 -2.91787 0
M  V30 1983 N 190.675 0.682077 -1.42076 0
M  V30 1984 C 191.923 1.4393 -1.41876 0
M  V30 1985 C 192.244 1.94971 -0.0335599 0
M  V30 1986 O 191.514 1.72591 0.926773 0
M  V30 1987 H 190.094 0.534085 -0.522267 0
M  V30 1988 H 192.756 0.806427 -1.77434 0
M  V30 1989 H 191.852 2.29588 -2.11414 0
M  V30 1990 N 192.153 1.28127 0.917671 0
M  V30 1991 C 193.063 1.13556 2.05286 0
M  V30 1992 C 194.079 0.0630914 1.73886 0
M  V30 1993 O 195.255 0.271598 1.9956 0
M  V30 1994 C 192.32 0.794676 3.3747 0
M  V30 1995 C 191.381 1.94909 3.82504 0
M  V30 1996 C 190.614 1.62437 5.0838 0
M  V30 1997 O 190.837 0.536905 5.67867 0
M  V30 1998 O 189.771 2.46677 5.4903 0
M  V30 1999 H 193.597 2.08844 2.20495 0
M  V30 2000 H 191.182 1.07409 1.03845 0
M  V30 2001 H 193.064 0.618344 4.16839 0
M  V30 2002 H 191.739 -0.128581 3.23445 0
M  V30 2003 H 190.646 2.18055 3.03978 0
M  V30 2004 H 191.979 2.85291 4.01086 0
M  V30 2005 N 193.631 -1.12557 1.10312 0
M  V30 2006 C 194.579 -2.20325 0.745629 0
M  V30 2007 C 195.573 -1.67429 -0.25763 0
M  V30 2008 O 196.779 -1.79612 -0.118132 0
M  V30 2009 H 193.154 -0.718118 0.223182 0
M  V30 2010 H 195.125 -2.47733 1.66346 0
M  V30 2011 C 193.874 -3.47168 0.192262 0
M  V30 2012 H 193.197 -3.88215 0.955475 0
M  V30 2013 H 194.637 -4.23995 -0.0198274 0
M  V30 2014 C 193.096 -3.19298 -1.07472 0
M  V30 2015 O 193.626 -3.3891 -2.15645 0
M  V30 2016 N 191.832 -2.73113 -0.992847 0
M  V30 2017 H 191.379 -2.57354 -0.112474 0
M  V30 2018 H 191.337 -2.54842 -1.84127 0
M  V30 2019 N 195.109 -0.891671 -1.2995 0
M  V30 2020 C 196.072 -0.36828 -2.26222 0
M  V30 2021 C 197.072 0.493014 -1.53056 0
M  V30 2022 O 198.262 0.299213 -1.71611 0
M  V30 2023 C 195.394 0.47442 -3.37583 0
M  V30 2024 H 196.587 -1.21844 -2.74033 0
M  V30 2025 H 194.14 -0.669107 -1.41254 0
M  V30 2026 H 194.875 1.34489 -2.95099 0
M  V30 2027 H 194.66 -0.142615 -3.91841 0
M  V30 2028 H 196.15 0.83218 -4.09224 0
M  V30 2029 N 196.587 1.43421 -0.653314 0
M  V30 2030 C 197.835 2.01414 -0.166415 0
M  V30 2031 C 198.156 1.51803 1.22397 0
M  V30 2032 O 197.426 0.730693 1.81763 0
M  V30 2033 H 196.006 0.744703 -0.0585319 0
M  V30 2034 H 198.668 1.75629 -0.845003 0
M  V30 2035 H 197.764 3.11734 -0.151111 0
M  V30 2036 N 198.065 0.39524 1.52563 0
M  V30 2037 C 198.995 -0.428384 2.29537 0
M  V30 2038 C 199.976 -1.05831 1.33169 0
M  V30 2039 O 201.161 -1.06995 1.62067 0
M  V30 2040 C 198.291 -1.55274 3.10656 0
M  V30 2041 C 197.245 -1.04855 4.14957 0
M  V30 2042 C 196.571 -2.26543 4.84337 0
M  V30 2043 C 197.871 -0.112324 5.22179 0
M  V30 2044 H 199.565 0.213867 2.98635 0
M  V30 2045 H 197.111 0.104298 1.43622 0
M  V30 2046 H 199.064 -2.1358 3.63265 0
M  V30 2047 H 197.788 -2.22266 2.39302 0
M  V30 2048 H 196.447 -0.487985 3.63338 0
M  V30 2049 H 196.095 -2.92059 4.09525 0
M  V30 2050 H 195.795 -1.93466 5.54837 0
M  V30 2051 H 197.319 -2.85481 5.39753 0
M  V30 2052 H 198.733 -0.603752 5.70112 0
M  V30 2053 H 197.13 0.128968 5.99961 0
M  V30 2054 H 198.2 0.837052 4.77621 0
M  V30 2055 N 199.544 -1.57102 0.125237 0
M  V30 2056 C 200.79 -1.95697 -0.532035 0
M  V30 2057 C 201.123 -1.009 -1.6593 0
M  V30 2058 O 200.398 -0.047347 -1.94442 0
M  V30 2059 C 200.681 -3.44181 -1.05884 0
M  V30 2060 C 200.534 -4.49752 0.0654392 0
M  V30 2061 C 201.853 -3.94655 -1.9477 0
M  V30 2062 H 198.972 -0.711571 -0.191925 0
M  V30 2063 H 201.614 -1.88923 0.20206 0
M  V30 2064 H 199.764 -3.50085 -1.68442 0
M  V30 2065 H 201.436 -4.55943 0.700982 0
M  V30 2066 H 199.679 -4.27653 0.727709 0
M  V30 2067 H 200.35 -5.50924 -0.344505 0
M  V30 2068 H 202.826 -3.91094 -1.42074 0
M  V30 2069 H 201.702 -4.99057 -2.28546 0
M  V30 2070 H 201.963 -3.35718 -2.87656 0
M  V30 2071 N 201.022 0.148545 -1.56898 0
M  V30 2072 C 202.438 0.501131 -1.51528 0
M  V30 2073 C 202.638 1.83458 -0.833399 0
M  V30 2074 O 201.694 2.49259 -0.40328 0
M  V30 2075 C 203.007 0.512864 -2.96294 0
M  V30 2076 C 204.555 0.598487 -3.07225 0
M  V30 2077 C 205.03 0.640897 -4.53494 0
M  V30 2078 N 206.521 0.703163 -4.57832 0
M  V30 2079 C 207.256 0.756935 -5.68382 0
M  V30 2080 N 206.752 0.770147 -6.88506 0
M  V30 2081 N 208.545 0.797698 -5.56411 0
M  V30 2082 H 200.696 -0.725532 -1.99624 0
M  V30 2083 H 202.959 -0.264358 -0.910395 0
M  V30 2084 H 202.665 -0.398691 -3.49433 0
M  V30 2085 H 202.539 1.35133 -3.52163 0
M  V30 2086 H 204.926 1.50046 -2.54106 0
M  V30 2087 H 205.007 -0.267093 -2.54402 0
M  V30 2088 H 204.651 -0.256915 -5.0725 0
M  V30 2089 H 204.581 1.52295 -5.04097 0
M  V30 2090 H 207.072 0.700314 -3.71354 0
M  V30 2091 H 207.385 0.812983 -7.68512 0
M  V30 2092 H 205.73 0.738049 -6.9107 0
M  V30 2093 H 208.921 0.784535 -4.61479 0
M  V30 2094 H 209.094 0.83614 -6.42583 0
M  V30 2095 N 202.5 1.5196 0.417844 0
M  V30 2096 C 203.463 1.74065 1.49111 0
M  V30 2097 C 204.463 0.610537 1.48758 0
M  V30 2098 O 205.653 0.87832 1.50437 0
M  V30 2099 C 202.785 1.81502 2.88565 0
M  V30 2100 H 203.978 2.69869 1.30807 0
M  V30 2101 H 201.531 1.42244 0.647785 0
M  V30 2102 H 202.266 0.875813 3.1225 0
M  V30 2103 H 202.051 2.63651 2.90225 0
M  V30 2104 H 203.541 2.00376 3.66387 0
M  V30 2105 N 203.978 -0.674533 1.42435 0
M  V30 2106 C 205.203 -1.46784 1.46524 0
M  V30 2107 C 205.628 -1.87938 0.078066 0
M  V30 2108 O 204.986 -1.56014 -0.92354 0
M  V30 2109 C 205.034 -2.69307 2.39805 0
M  V30 2110 O 204.138 -3.67587 1.86959 0
M  V30 2111 H 203.479 -0.440959 0.496439 0
M  V30 2112 H 206.009 -0.827326 1.87127 0
M  V30 2113 H 206.019 -3.17374 2.56393 0
M  V30 2114 H 204.694 -2.38692 3.40586 0
M  V30 2115 H 203.271 -3.2662 1.79927 0
M  V30 2116 N 205.456 -1.28612 -0.910864 0
M  V30 2117 C 206.704 -1.15705 -1.65701 0
M  V30 2118 C 207.025 0.29416 -1.92769 0
M  V30 2119 O 206.295 1.20331 -1.54588 0
M  V30 2120 H 204.875 -0.425216 -0.614167 0
M  V30 2121 H 207.537 -1.61381 -1.0928 0
M  V30 2122 H 206.633 -1.6988 -2.61815 0
M  V30 2123 N 206.934 1.1197 -1.10907 0
M  V30 2124 C 208.35 1.35591 -0.841852 0
M  V30 2125 C 208.55 1.94233 0.536246 0
M  V30 2126 O 207.606 2.1717 1.28816 0
M  V30 2127 C 208.919 2.29284 -1.94549 0
M  V30 2128 C 210.467 2.42862 -1.97451 0
M  V30 2129 C 210.942 3.39873 -3.07002 0
M  V30 2130 N 212.433 3.47433 -3.06341 0
M  V30 2131 C 213.168 4.22421 -3.87748 0
M  V30 2132 N 212.664 5.00432 -4.79103 0
M  V30 2133 N 214.457 4.17876 -3.75946 0
M  V30 2134 H 206.608 0.722664 -1.99728 0
M  V30 2135 H 208.871 0.380635 -0.868229 0
M  V30 2136 H 208.577 1.93378 -2.93765 0
M  V30 2137 H 208.451 3.29452 -1.83688 0
M  V30 2138 H 210.838 2.78046 -0.988645 0
M  V30 2139 H 210.919 1.42566 -2.12388 0
M  V30 2140 H 210.563 3.05417 -4.05811 0
M  V30 2141 H 210.493 4.40011 -2.89306 0
M  V30 2142 H 212.984 2.91784 -2.40147 0
M  V30 2143 H 213.297 5.55002 -5.37766 0
M  V30 2144 H 211.642 4.99612 -4.83128 0
M  V30 2145 H 214.833 3.56016 -3.03924 0
M  V30 2146 H 215.006 4.76061 -4.39624 0
M  V30 2147 N 208.412 0.89855 1.29475 0
M  V30 2148 C 209.64 0.539261 1.99749 0
M  V30 2149 C 210.055 -0.875716 1.67262 0
M  V30 2150 O 209.412 -1.57786 0.917049 0
M  V30 2151 C 209.463 0.72061 3.54245 0
M  V30 2152 O 209.184 2.07989 3.8558 0
M  V30 2153 C 210.685 0.366118 4.41786 0
M  V30 2154 H 207.905 0.207047 0.638258 0
M  V30 2155 H 210.449 1.20758 1.65039 0
M  V30 2156 H 208.604 0.0994862 3.87272 0
M  V30 2157 H 209.018 2.10841 4.80257 0
M  V30 2158 H 210.492 0.543848 5.49314 0
M  V30 2159 H 210.969 -0.696763 4.33638 0
M  V30 2160 H 211.575 0.964135 4.14228 0
M  V30 2161 N 209.89 -1.43072 0.660911 0
M  V30 2162 C 210.823 -2.28074 -0.0758862 0
M  V30 2163 C 211.801 -1.40271 -0.822362 0
M  V30 2164 O 212.985 -1.69713 -0.820352 0
M  V30 2165 C 210.112 -3.19843 -1.11437 0
M  V30 2166 C 209.158 -4.23957 -0.465069 0
M  V30 2167 S 209.991 -5.29978 0.767078 0
M  V30 2168 C 211.147 -6.25314 -0.270682 0
M  V30 2169 H 211.38 -2.90216 0.645139 0
M  V30 2170 H 208.913 -1.47697 0.449995 0
M  V30 2171 H 210.871 -3.73257 -1.70849 0
M  V30 2172 H 209.532 -2.56863 -1.80776 0
M  V30 2173 H 208.725 -4.88299 -1.24819 0
M  V30 2174 H 208.327 -3.73959 0.0551242 0
M  V30 2175 H 210.619 -6.67932 -1.13459 0
M  V30 2176 H 211.562 -7.07293 0.337916 0
M  V30 2177 H 211.97 -5.61195 -0.609937 0
M  V30 2178 N 211.368 -0.403325 -1.52352 0
M  V30 2179 C 212.278 0.432009 -2.30588 0
M  V30 2180 C 213.294 1.05884 -1.38075 0
M  V30 2181 O 214.47 1.06161 -1.71148 0
M  V30 2182 C 211.535 1.53669 -3.10784 0
M  V30 2183 C 210.596 0.933525 -4.19027 0
M  V30 2184 C 209.829 1.98557 -4.9539 0
M  V30 2185 O 210.052 3.20283 -4.71991 0
M  V30 2186 O 208.986 1.59504 -5.80381 0
M  V30 2187 H 212.812 -0.205739 -3.03002 0
M  V30 2188 H 210.397 -0.166675 -1.48467 0
M  V30 2189 H 212.279 2.17814 -3.60742 0
M  V30 2190 H 210.954 2.15915 -2.41169 0
M  V30 2191 H 209.861 0.254954 -3.7323 0
M  V30 2192 H 211.194 0.35508 -4.90918 0
M  V30 2193 N 212.846 1.57033 -0.133567 0
M  V30 2194 C 213.778 2.13176 0.841944 0
M  V30 2195 C 214.791 1.07794 1.22001 0
M  V30 2196 O 215.98 1.35117 1.16643 0
M  V30 2197 C 213.08 2.62847 2.13926 0
M  V30 2198 C 212.253 3.92486 1.93064 0
M  V30 2199 C 211.312 4.27605 3.0666 0
M  V30 2200 O 210.338 4.96168 2.78937 0
M  V30 2201 N 211.54 3.861 4.33483 0
M  V30 2202 H 214.305 2.97503 0.362192 0
M  V30 2203 H 211.866 1.61821 0.05042 0
M  V30 2204 H 213.858 2.83363 2.88942 0
M  V30 2205 H 212.428 1.83319 2.53205 0
M  V30 2206 H 211.648 3.80732 1.02159 0
M  V30 2207 H 212.936 4.77225 1.76447 0
M  V30 2208 H 212.334 3.30828 4.58878 0
M  V30 2209 H 210.891 4.11694 5.05323 0
M  V30 2210 N 214.325 -0.140222 1.56975 0
M  V30 2211 C 215.572 -0.851687 1.83719 0
M  V30 2212 C 215.9 -1.80862 0.715485 0
M  V30 2213 O 215.155 -1.93464 -0.294956 0
M  V30 2214 C 215.454 -1.65386 3.16832 0
M  V30 2215 C 215.12 -0.843112 4.42947 0
M  V30 2216 C 213.782 -0.619464 4.77196 0
M  V30 2217 C 216.134 -0.276582 5.20466 0
M  V30 2218 C 213.462 0.181312 5.8642 0
M  V30 2219 C 215.814 0.51127 6.30531 0
M  V30 2220 C 214.478 0.745432 6.63325 0
M  V30 2221 H 213.748 -0.311654 0.672274 0
M  V30 2222 H 216.395 -0.115006 1.91154 0
M  V30 2223 H 214.7 -2.46084 3.04877 0
M  V30 2224 H 216.397 -2.20793 3.34741 0
M  V30 2225 H 212.987 -1.0275 4.16101 0
M  V30 2226 H 217.171 -0.436632 4.94376 0
M  V30 2227 H 212.427 0.372165 6.10266 0
M  V30 2228 H 216.601 0.957354 6.89788 0
M  V30 2229 H 214.228 1.36778 7.47794 0
M  V30 2230 N 215.803 -1.52179 -0.40978 0
M  V30 2231 C 217.031 -1.70054 -1.17853 0
M  V30 2232 C 217.446 -0.409735 -1.843 0
M  V30 2233 O 216.803 0.614183 -1.71855 0
M  V30 2234 C 216.854 -2.83568 -2.24213 0
M  V30 2235 O 216.575 -4.0765 -1.60478 0
M  V30 2236 C 218.076 -3.12947 -3.13973 0
M  V30 2237 H 215.296 -0.569917 -0.354169 0
M  V30 2238 H 217.84 -1.98734 -0.482198 0
M  V30 2239 H 215.995 -2.57409 -2.89516 0
M  V30 2240 H 216.409 -4.70899 -2.30986 0
M  V30 2241 H 217.883 -3.95889 -3.84677 0
M  V30 2242 H 218.36 -2.26472 -3.76307 0
M  V30 2243 H 218.966 -3.40868 -2.5434 0
M  V30 2244 N 217.281 0.66697 -1.42791 0
M  V30 2245 C 218.53 1.42278 -1.42968 0
M  V30 2246 C 218.843 1.9553 -0.0524489 0
M  V30 2247 O 220.049 2.71414 0.068363 0
M  V30 2248 C 218.505 2.57418 -2.51524 0
M  V30 2249 C 218.113 2.10832 -3.9529 0
M  V30 2250 C 219.857 3.34878 -2.60877 0
M  V30 2251 C 217.764 3.23101 -4.95338 0
M  V30 2252 H 216.694 0.534533 -0.531781 0
M  V30 2253 H 219.345 0.721302 -1.68729 0
M  V30 2254 H 217.727 3.29971 -2.18941 0
M  V30 2255 H 218.901 1.4538 -4.37266 0
M  V30 2256 H 217.216 1.46289 -3.89857 0
M  V30 2257 H 219.813 4.18505 -3.32802 0
M  V30 2258 H 220.156 3.81993 -1.6549 0
M  V30 2259 H 220.689 2.69398 -2.92693 0
M  V30 2260 H 217.428 2.80969 -5.9223 0
M  V30 2261 H 216.948 3.87309 -4.57987 0
M  V30 2262 H 218.627 3.88447 -5.17415 0
M  V30 2263 N 218.759 1.29093 0.90403 0
M  V30 2264 C 219.709 1.10482 1.99443 0
M  V30 2265 C 220.693 0.0255401 1.6088 0
M  V30 2266 O 221.885 0.24677 1.75271 0
M  V30 2267 C 219.014 0.778882 3.34348 0
M  V30 2268 C 218.1 1.89749 3.79284 0
M  V30 2269 N 218.491 3.14045 3.96497 0
M  V30 2270 C 216.789 1.78955 4.08523 0
M  V30 2271 C 217.49 3.86996 4.34292 0
M  V30 2272 N 216.466 3.14909 4.43095 0
M  V30 2273 H 220.268 2.04778 2.10815 0
M  V30 2274 H 217.782 1.20155 1.09255 0
M  V30 2275 H 219.779 0.62661 4.12164 0
M  V30 2276 H 218.439 -0.156205 3.24324 0
M  V30 2277 H 219.45 3.49548 3.82148 0
M  V30 2278 H 216.127 0.926886 4.07081 0
M  V30 2279 H 217.517 4.93941 4.55491 0
M  V30 2280 N 220.237 -1.11381 1.11499 0
M  V30 2281 C 221.167 -2.19509 0.796125 0
M  V30 2282 C 222.148 -1.68458 -0.235796 0
M  V30 2283 O 223.333 -1.93947 -0.0991344 0
M  V30 2284 C 220.463 -3.46475 0.239205 0
M  V30 2285 C 219.417 -4.10744 1.20307 0
M  V30 2286 C 218.743 -5.32293 0.50683 0
M  V30 2287 C 220.043 -4.55597 2.55399 0
M  V30 2288 H 221.737 -2.46439 1.70024 0
M  V30 2289 H 219.283 -1.18446 0.818935 0
M  V30 2290 H 221.236 -4.214 0.00392006 0
M  V30 2291 H 219.96 -3.19006 -0.700206 0
M  V30 2292 H 218.619 -3.37813 1.42399 0
M  V30 2293 H 218.267 -5.01095 -0.437408 0
M  V30 2294 H 217.967 -5.76243 1.1497 0
M  V30 2295 H 219.491 -6.09956 0.280351 0
M  V30 2296 H 220.905 -5.21841 2.37391 0
M  V30 2297 H 219.302 -5.10363 3.15673 0
M  V30 2298 H 220.372 -3.69013 3.14575 0
M  V30 2299 N 221.715 -0.905404 -1.28997 0
M  V30 2300 C 222.943 -0.549846 -1.9946 0
M  V30 2301 C 223.358 0.866834 -1.67724 0
M  V30 2302 O 222.715 1.57298 -0.925404 0
M  V30 2303 C 222.766 -0.739387 -3.53858 0
M  V30 2304 O 222.487 -2.10031 -3.84472 0
M  V30 2305 C 223.988 -0.389541 -4.41585 0
M  V30 2306 H 221.208 -0.210429 -0.637151 0
M  V30 2307 H 223.752 -1.21632 -1.64396 0
M  V30 2308 H 221.907 -0.120023 -3.87214 0
M  V30 2309 H 222.321 -2.13385 -4.79132 0
M  V30 2310 H 223.795 -0.572972 -5.49018 0
M  V30 2311 H 224.272 0.673756 -4.34001 0
M  V30 2312 H 224.878 -0.986089 -4.1371 0
M  V30 2313 N 223.193 1.4272 -0.668489 0
M  V30 2314 C 224.439 2.01923 -0.188419 0
M  V30 2315 C 224.772 1.52704 1.19979 0
M  V30 2316 O 224.047 0.726566 1.8042 0
M  V30 2317 C 224.33 3.59451 -0.216085 0
M  V30 2318 C 224.183 4.18864 -1.6393 0
M  V30 2319 C 225.502 4.37903 0.439179 0
M  V30 2320 H 222.621 0.733674 -0.0699412 0
M  V30 2321 H 225.263 1.69822 -0.852076 0
M  V30 2322 H 223.413 3.86929 0.349012 0
M  V30 2323 H 225.085 4.02362 -2.25616 0
M  V30 2324 H 223.328 3.74933 -2.18193 0
M  V30 2325 H 223.999 5.27987 -1.61039 0
M  V30 2326 H 226.475 4.16079 -0.0417878 0
M  V30 2327 H 225.351 5.47519 0.389157 0
M  V30 2328 H 225.612 4.15303 1.51577 0
M  V30 2329 N 224.671 0.411399 1.52136 0
M  V30 2330 C 225.619 -0.427633 2.28635 0
M  V30 2331 C 226.613 -1.04383 1.33419 0
M  V30 2332 O 227.819 -0.981772 1.50868 0
M  V30 2333 H 224.194 -0.156689 0.735495 0
M  V30 2334 H 226.165 0.238761 2.97443 0
M  V30 2335 C 224.914 -1.53082 3.12188 0
M  V30 2336 H 224.237 -1.06601 3.85326 0
M  V30 2337 H 225.677 -2.09167 3.68816 0
M  V30 2338 C 224.136 -2.49946 2.25895 0
M  V30 2339 O 224.666 -3.53884 1.90076 0
M  V30 2340 N 222.872 -2.2021 1.8962 0
M  V30 2341 H 222.419 -1.35719 2.18948 0
M  V30 2342 H 222.377 -2.85266 1.32176 0
M  V30 2343 N 226.149 -1.5696 0.141893 0
M  V30 2344 C 227.56 -1.82797 -0.379776 0
M  V30 2345 C 227.911 -1.06033 -1.6508 0
M  V30 2346 O 227.036 -0.304011 -2.14254 0
M  V30 2347 C 227.631 -3.31578 -0.695802 0
M  V30 2348 C 226.19 -3.58014 -1.16201 0
M  V30 2349 C 225.337 -2.76699 -0.182455 0
M  V30 2350 H 228.288 -1.54406 0.366675 0
M  V30 2351 H 228.309 -3.47454 -1.55099 0
M  V30 2352 H 227.821 -3.87421 0.229449 0
M  V30 2353 H 225.922 -3.07553 -2.10338 0
M  V30 2354 H 226.035 -4.66501 -1.09151 0
M  V30 2355 H 224.399 -2.45618 -0.674072 0
M  V30 2356 H 225.182 -3.35311 0.736297 0
M  V30 2357 N 227.627 0.131896 -1.57047 0
M  V30 2358 C 228.559 1.1878 -1.9602 0
M  V30 2359 C 229.572 1.38363 -0.857875 0
M  V30 2360 O 230.761 1.37666 -1.13623 0
M  V30 2361 C 227.861 2.55008 -2.23213 0
M  V30 2362 C 227.034 2.56201 -3.54513 0
M  V30 2363 C 226.093 3.7408 -3.70069 0
M  V30 2364 O 225.119 3.58258 -4.42312 0
M  V30 2365 N 226.321 4.92137 -3.07866 0
M  V30 2366 H 229.086 0.85639 -2.87204 0
M  V30 2367 H 226.647 0.321309 -1.5868 0
M  V30 2368 H 228.639 3.32404 -2.30846 0
M  V30 2369 H 227.209 2.80382 -1.3822 0
M  V30 2370 H 226.429 1.64613 -3.58185 0
M  V30 2371 H 227.717 2.54043 -4.4084 0
M  V30 2372 H 227.115 5.07895 -2.49116 0
M  V30 2373 H 225.672 5.67254 -3.21039 0
M  V30 2374 N 229.106 1.52395 0.401703 0
M  V30 2375 C 230.331 1.70972 1.17403 0
M  V30 2376 C 230.756 0.421615 1.83314 0
M  V30 2377 O 230.114 -0.621564 1.70312 0
M  V30 2378 C 230.162 2.85151 2.20728 0
M  V30 2379 O 229.266 2.51238 3.27037 0
M  V30 2380 H 228.607 0.568927 0.342372 0
M  V30 2381 H 231.137 1.99131 0.469891 0
M  V30 2382 H 231.147 3.10279 2.64936 0
M  V30 2383 H 229.822 3.78603 1.7214 0
M  V30 2384 H 228.399 2.36808 2.88057 0
M  V30 2385 N 230.584 -0.659388 1.43143 0
M  V30 2386 C 231.531 -1.77249 1.47822 0
M  V30 2387 C 232.501 -1.62818 0.328558 0
M  V30 2388 O 233.686 -1.83151 0.534838 0
M  V30 2389 C 230.826 -3.15371 1.40126 0
M  V30 2390 C 229.939 -3.4098 2.65249 0
M  V30 2391 C 229.074 -4.68915 2.49584 0
M  V30 2392 C 228.113 -4.87608 3.70006 0
M  V30 2393 N 227.25 -6.06796 3.53189 0
M  V30 2394 H 232.09 -1.72584 2.42938 0
M  V30 2395 H 229.627 -0.842297 1.20598 0
M  V30 2396 H 231.585 -3.9521 1.33659 0
M  V30 2397 H 230.215 -3.19121 0.485964 0
M  V30 2398 H 229.267 -2.55282 2.8202 0
M  V30 2399 H 230.579 -3.50681 3.54717 0
M  V30 2400 H 229.733 -5.56871 2.4079 0
M  V30 2401 H 228.472 -4.61524 1.5763 0
M  V30 2402 H 227.477 -3.9809 3.79215 0
M  V30 2403 H 228.702 -4.96834 4.62961 0
M  V30 2404 H 226.648 -6.00549 2.63965 0
M  V30 2405 H 226.565 -6.17428 4.36255 0
M  V30 2406 H 227.833 -6.9739 3.48236 0
M  V30 2407 N 232.062 -1.29571 -0.897171 0
M  V30 2408 C 233.308 -1.17863 -1.65034 0
M  V30 2409 C 233.641 0.268729 -1.92332 0
M  V30 2410 O 232.916 1.19378 -1.53555 0
M  V30 2411 C 233.199 -1.995 -2.99786 0
M  V30 2412 C 233.052 -3.5239 -2.79538 0
M  V30 2413 C 234.371 -1.82335 -4.00552 0
M  V30 2414 H 231.49 -0.429528 -0.598895 0
M  V30 2415 H 234.132 -1.59072 -1.03905 0
M  V30 2416 H 232.282 -1.64485 -3.51962 0
M  V30 2417 H 233.954 -3.97401 -2.34244 0
M  V30 2418 H 232.197 -3.77187 -2.14273 0
M  V30 2419 H 232.868 -4.04787 -3.75302 0
M  V30 2420 H 235.344 -2.12924 -3.57495 0
M  V30 2421 H 234.22 -2.41801 -4.92771 0
M  V30 2422 H 234.481 -0.779209 -4.35179 0
M  V30 2423 N 233.54 1.10788 -1.12088 0
M  V30 2424 C 234.768 1.86461 -0.896651 0
M  V30 2425 C 235.183 1.80492 0.553912 0
M  V30 2426 O 234.54 1.19102 1.38278 0
M  V30 2427 C 234.591 3.35006 -1.35843 0
M  V30 2428 O 234.312 3.40866 -2.75213 0
M  V30 2429 C 235.813 4.27565 -1.1706 0
M  V30 2430 H 233.033 0.589425 -0.320654 0
M  V30 2431 H 235.577 1.40076 -1.48993 0
M  V30 2432 H 233.732 3.7887 -0.808458 0
M  V30 2433 H 234.146 4.33411 -2.9539 0
M  V30 2434 H 235.62 5.30007 -1.54263 0
M  V30 2435 H 236.097 4.3906 -0.110814 0
M  V30 2436 H 236.703 3.89501 -1.70789 0
M  V30 2437 N 235.018 0.912232 1.28515 0
M  V30 2438 C 236.265 0.544599 1.95039 0
M  V30 2439 C 236.593 -0.911435 1.71823 0
M  V30 2440 O 235.848 -1.66317 1.03137 0
M  V30 2441 C 236.147 0.798392 3.48368 0
M  V30 2442 C 235.813 2.23374 3.91682 0
M  V30 2443 C 234.475 2.62617 4.03219 0
M  V30 2444 C 236.827 3.16786 4.13879 0
M  V30 2445 C 234.155 3.94429 4.3433 0
M  V30 2446 C 236.507 4.48161 4.46469 0
M  V30 2447 C 235.171 4.8726 4.56217 0
M  V30 2448 H 234.441 0.199283 0.7137 0
M  V30 2449 H 237.088 1.15327 1.52879 0
M  V30 2450 H 235.393 0.106908 3.91654 0
M  V30 2451 H 237.09 0.493141 3.97956 0
M  V30 2452 H 233.68 1.91922 3.83228 0
M  V30 2453 H 237.864 2.87677 4.0442 0
M  V30 2454 H 233.12 4.24426 4.40082 0
M  V30 2455 H 237.294 5.20559 4.62592 0
M  V30 2456 H 234.921 5.89431 4.80078 0
M  V30 2457 N 236.496 -1.42363 0.676048 0
M  V30 2458 C 237.428 -2.29164 -0.0404605 0
M  V30 2459 C 238.441 -1.43747 -0.764245 0
M  V30 2460 O 239.63 -1.67453 -0.618195 0
M  V30 2461 C 236.73 -3.21196 -1.08103 0
M  V30 2462 C 235.903 -4.35273 -0.430812 0
M  V30 2463 C 234.962 -5.08017 -1.37133 0
M  V30 2464 O 233.988 -5.62494 -0.87116 0
M  V30 2465 N 235.19 -5.13647 -2.70456 0
M  V30 2466 H 237.955 -2.91298 0.704667 0
M  V30 2467 H 235.516 -1.53303 0.520559 0
M  V30 2468 H 237.508 -3.66728 -1.71152 0
M  V30 2469 H 236.078 -2.60505 -1.72788 0
M  V30 2470 H 235.298 -3.92372 0.379209 0
M  V30 2471 H 236.586 -5.08795 0.0221132 0
M  V30 2472 H 235.984 -4.708 -3.1363 0
M  V30 2473 H 234.541 -5.62821 -3.28749 0
M  V30 2474 N 237.974 -0.419461 -1.51915 0
M  V30 2475 C 238.904 0.391813 -2.30189 0
M  V30 2476 C 239.885 1.03699 -1.34836 0
M  V30 2477 O 241.07 1.04403 -1.63748 0
M  V30 2478 C 238.2 1.50312 -3.13087 0
M  V30 2479 C 237.154 0.9824 -4.16573 0
M  V30 2480 C 236.48 2.18809 -4.8788 0
M  V30 2481 C 237.78 0.0292356 -5.22292 0
M  V30 2482 H 239.474 -0.26135 -2.98257 0
M  V30 2483 H 237.02 -0.127134 -1.43438 0
M  V30 2484 H 238.973 2.07773 -3.66617 0
M  V30 2485 H 237.697 2.18431 -2.42807 0
M  V30 2486 H 236.356 0.430119 -3.64068 0
M  V30 2487 H 236.004 2.85507 -4.14119 0
M  V30 2488 H 235.704 1.84615 -5.57845 0
M  V30 2489 H 237.228 2.76858 -5.44226 0
M  V30 2490 H 238.642 0.512976 -5.71 0
M  V30 2491 H 237.039 -0.2244 -5.9968 0
M  V30 2492 H 238.109 -0.912931 -4.76228 0
M  V30 2493 N 239.452 1.56882 -0.150215 0
M  V30 2494 C 240.68 2.00593 0.506948 0
M  V30 2495 C 241.095 1.03033 1.58208 0
M  V30 2496 O 240.452 0.0278396 1.82479 0
M  V30 2497 C 240.503 3.44209 1.10465 0
M  V30 2498 O 240.224 4.3804 0.0724636 0
M  V30 2499 C 241.725 4.03214 1.84211 0
M  V30 2500 H 238.945 0.65795 0.13169 0
M  V30 2501 H 241.489 2.03018 -0.245743 0
M  V30 2502 H 239.644 3.42625 1.80795 0
M  V30 2503 H 240.058 5.22007 0.510793 0
M  V30 2504 H 241.532 5.0569 2.21318 0
M  V30 2505 H 242.009 3.44107 2.72923 0
M  V30 2506 H 242.615 4.08437 1.18572 0
M  V30 2507 N 240.93 -0.123565 1.57115 0
M  V30 2508 C 242.16 -0.845233 1.88519 0
M  V30 2509 C 242.568 -1.74168 0.739064 0
M  V30 2510 O 241.911 -1.81244 -0.299355 0
M  V30 2511 C 241.973 -1.73452 3.14888 0
M  V30 2512 C 241.637 -1.01285 4.45635 0
M  V30 2513 C 242.634 -0.355774 5.18681 0
M  V30 2514 C 240.319 -0.99538 4.92339 0
M  V30 2515 C 242.313 0.309114 6.3665 0
M  V30 2516 C 240 -0.32669 6.10226 0
M  V30 2517 C 240.998 0.324406 6.82229 0
M  V30 2518 O 240.686 0.982437 7.97874 0
M  V30 2519 H 240.418 -0.248534 0.628655 0
M  V30 2520 H 242.972 -0.113907 2.05084 0
M  V30 2521 H 241.202 -2.50737 2.94394 0
M  V30 2522 H 242.891 -2.33021 3.32349 0
M  V30 2523 H 243.657 -0.360918 4.83655 0
M  V30 2524 H 239.536 -1.49159 4.36202 0
M  V30 2525 H 243.08 0.8179 6.92789 0
M  V30 2526 H 238.977 -0.319294 6.4471 0
M  V30 2527 H 239.745 0.886454 8.13686 0
M  V30 2528 N 242.408 -1.52605 -0.393616 0
M  V30 2529 C 243.318 -1.79971 -1.50492 0
M  V30 2530 C 244.334 -0.686181 -1.59899 0
M  V30 2531 O 245.51 -0.973274 -1.76322 0
M  V30 2532 C 242.575 -1.95867 -2.86072 0
M  V30 2533 C 241.636 -3.19781 -2.86424 0
M  V30 2534 C 240.869 -3.34909 -4.15538 0
M  V30 2535 O 241.092 -2.54948 -5.10253 0
M  V30 2536 O 240.026 -4.28141 -4.23059 0
M  V30 2537 H 243.852 -2.74328 -1.30299 0
M  V30 2538 H 241.437 -1.3764 -0.581005 0
M  V30 2539 H 243.319 -2.08056 -3.66457 0
M  V30 2540 H 241.994 -1.04699 -3.063 0
M  V30 2541 H 240.901 -3.13038 -2.04837 0
M  V30 2542 H 242.234 -4.1078 -2.71147 0
M  V30 2543 N 243.887 0.651787 -1.4349 0
M  V30 2544 C 244.797 1.79368 -1.5121 0
M  V30 2545 C 245.813 1.69361 -0.399093 0
M  V30 2546 O 246.989 1.90505 -0.653431 0
M  V30 2547 C 244.054 3.15653 -1.43401 0
M  V30 2548 C 243.115 3.37446 -2.65384 0
M  V30 2549 C 242.348 4.67229 -2.57939 0
M  V30 2550 O 242.571 5.46676 -1.62792 0
M  V30 2551 O 241.505 4.90773 -3.48462 0
M  V30 2552 H 245.331 1.7581 -2.47638 0
M  V30 2553 H 242.916 0.810447 -1.25507 0
M  V30 2554 H 244.798 3.96935 -1.41494 0
M  V30 2555 H 243.473 3.19798 -0.501085 0
M  V30 2556 H 242.38 2.55923 -2.72863 0
M  V30 2557 H 243.713 3.38148 -3.57654 0
M  V30 2558 N 245.365 1.30045 0.890287 0
M  V30 2559 C 246.611 1.18737 1.64406 0
M  V30 2560 C 246.944 -0.258525 1.92472 0
M  V30 2561 O 246.219 -1.18562 1.54186 0
M  V30 2562 C 246.502 2.01087 2.98724 0
M  V30 2563 C 246.355 3.53867 2.77665 0
M  V30 2564 C 247.674 1.84457 3.9958 0
M  V30 2565 H 244.793 0.432698 0.596608 0
M  V30 2566 H 247.435 1.5962 1.0306 0
M  V30 2567 H 245.585 1.66349 3.51084 0
M  V30 2568 H 247.257 3.98637 2.32133 0
M  V30 2569 H 245.5 3.78318 2.12269 0
M  V30 2570 H 246.171 4.06772 3.7315 0
M  V30 2571 H 248.647 2.14817 3.56361 0
M  V30 2572 H 247.523 2.44411 4.91482 0
M  V30 2573 H 247.784 0.802276 4.3476 0
M  V30 2574 N 246.843 -1.10192 1.12674 0
M  V30 2575 C 247.773 -2.18652 0.819362 0
M  V30 2576 C 248.754 -1.68698 -0.217915 0
M  V30 2577 O 249.939 -1.94041 -0.0785581 0
M  V30 2578 C 247.069 -3.46202 0.27594 0
M  V30 2579 C 246.023 -4.09444 1.24656 0
M  V30 2580 C 245.349 -5.31725 0.563258 0
M  V30 2581 C 246.649 -4.52863 2.60217 0
M  V30 2582 H 248.343 -2.44622 1.72628 0
M  V30 2583 H 245.889 -1.17571 0.831451 0
M  V30 2584 H 247.842 -4.21372 0.0486149 0
M  V30 2585 H 246.566 -3.1973 -0.666331 0
M  V30 2586 H 245.225 -3.36284 1.45974 0
M  V30 2587 H 244.873 -5.0153 -0.384235 0
M  V30 2588 H 244.573 -5.74991 1.21075 0
M  V30 2589 H 246.097 -6.09624 0.34503 0
M  V30 2590 H 247.511 -5.19294 2.42913 0
M  V30 2591 H 245.908 -5.06986 3.21068 0
M  V30 2592 H 246.978 -3.65656 3.18471 0
M  V30 2593 N 248.321 -0.919034 -1.28029 0
M  V30 2594 C 249.268 -0.410005 -2.27129 0
M  V30 2595 C 250.238 0.518405 -1.57803 0
M  V30 2596 O 251.423 0.439451 -1.8567 0
M  V30 2597 C 248.563 0.339054 -3.4343 0
M  V30 2598 C 247.676 -0.622468 -4.27492 0
M  V30 2599 C 246.811 0.145567 -5.31001 0
M  V30 2600 C 245.85 -0.809226 -6.06727 0
M  V30 2601 N 244.987 -0.0743728 -7.02061 0
M  V30 2602 H 249.827 -1.26011 -2.70047 0
M  V30 2603 H 247.364 -0.632663 -1.328 0
M  V30 2604 H 249.322 0.789586 -4.0966 0
M  V30 2605 H 247.952 1.15346 -3.01488 0
M  V30 2606 H 247.004 -1.19153 -3.61257 0
M  V30 2607 H 248.316 -1.35252 -4.80113 0
M  V30 2608 H 247.47 0.656417 -6.03139 0
M  V30 2609 H 246.209 0.908643 -4.79161 0
M  V30 2610 H 245.214 -1.3314 -5.33436 0
M  V30 2611 H 246.439 -1.57194 -6.60656 0
M  V30 2612 H 244.385 0.670616 -6.52563 0
M  V30 2613 H 244.302 -0.744157 -7.52329 0
M  V30 2614 H 245.57 0.416109 -7.78389 0
M  V30 2615 N 249.799 1.42003 -0.683588 0
M  V30 2616 C 251.215 1.55625 -0.353976 0
M  V30 2617 C 251.415 1.66151 1.14 0
M  V30 2618 O 250.471 1.63329 1.92561 0
M  V30 2619 C 251.784 2.80171 -1.092 0
M  V30 2620 C 253.332 2.93954 -1.07518 0
M  V30 2621 C 253.807 4.21372 -1.79471 0
M  V30 2622 N 255.298 4.28303 -1.76381 0
M  V30 2623 C 256.033 5.25729 -2.28904 0
M  V30 2624 N 255.529 6.29254 -2.89846 0
M  V30 2625 N 257.322 5.17586 -2.19228 0
M  V30 2626 H 249.473 1.33415 -1.6527 0
M  V30 2627 H 251.736 0.64282 -0.696769 0
M  V30 2628 H 251.442 2.78561 -2.14701 0
M  V30 2629 H 251.316 3.7133 -0.662862 0
M  V30 2630 H 253.703 2.95086 -0.028475 0
M  V30 2631 H 253.784 2.04002 -1.54328 0
M  V30 2632 H 253.428 4.21001 -2.84114 0
M  V30 2633 H 253.358 5.10275 -1.30104 0
M  V30 2634 H 255.849 3.54119 -1.31939 0
M  V30 2635 H 256.162 6.99964 -3.27522 0
M  V30 2636 H 254.507 6.29791 -2.93919 0
M  V30 2637 H 257.698 4.35631 -1.71299 0
M  V30 2638 H 257.871 5.93348 -2.60466 0
M  V30 2639 N 251.277 0.427512 1.51691 0
M  V30 2640 C 252.225 -0.403359 2.29076 0
M  V30 2641 C 253.219 -1.02962 1.34518 0
M  V30 2642 O 254.425 -0.965715 1.51901 0
M  V30 2643 H 250.8 -0.148879 0.737115 0
M  V30 2644 H 252.771 0.270295 2.97173 0
M  V30 2645 C 251.52 -1.49763 3.13794 0
M  V30 2646 H 250.843 -1.02508 3.86435 0
M  V30 2647 H 252.283 -2.05244 3.71014 0
M  V30 2648 C 250.742 -2.47536 2.28533 0
M  V30 2649 O 251.272 -3.51848 1.93819 0
M  V30 2650 N 249.478 -2.18187 1.91945 0
M  V30 2651 H 249.025 -1.33389 2.20375 0
M  V30 2652 H 248.983 -2.83848 1.35195 0
M  V30 2653 N 252.755 -1.56801 0.158532 0
M  V30 2654 C 253.705 -2.13923 -0.788738 0
M  V30 2655 C 254.689 -1.07006 -1.2016 0
M  V30 2656 O 255.881 -1.33159 -1.1661 0
M  V30 2657 C 253.01 -2.77348 -2.02319 0
M  V30 2658 C 252.096 -3.91404 -1.6329 0
M  V30 2659 N 252.487 -4.9677 -0.951463 0
M  V30 2660 C 250.785 -4.02326 -1.92482 0
M  V30 2661 C 251.486 -5.76698 -0.761221 0
M  V30 2662 N 250.462 -5.27859 -1.29869 0
M  V30 2663 H 254.264 -2.92757 -0.258995 0
M  V30 2664 H 251.778 -1.62344 -0.0426055 0
M  V30 2665 H 253.775 -3.16639 -2.71192 0
M  V30 2666 H 252.435 -1.99991 -2.558 0
M  V30 2667 H 253.446 -5.14284 -0.610928 0
M  V30 2668 H 250.123 -3.36059 -2.47732 0
M  V30 2669 H 251.513 -6.71529 -0.223284 0
M  V30 2670 N 254.233 0.115231 -1.57178 0
M  V30 2671 C 255.166 1.17166 -1.95825 0
M  V30 2672 C 256.144 1.39912 -0.828463 0
M  V30 2673 O 257.328 1.54004 -1.08697 0
M  V30 2674 C 254.455 2.52478 -2.25771 0
M  V30 2675 C 253.501 2.46136 -3.48309 0
M  V30 2676 S 254.334 1.89736 -5.0076 0
M  V30 2677 C 255.49 3.26713 -5.33863 0
M  V30 2678 H 255.723 0.842103 -2.85124 0
M  V30 2679 H 253.256 0.322136 -1.51002 0
M  V30 2680 H 255.214 3.30332 -2.43702 0
M  V30 2681 H 253.875 2.82609 -1.37079 0
M  V30 2682 H 253.068 3.45819 -3.66641 0
M  V30 2683 H 252.67 1.76404 -3.29784 0
M  V30 2684 H 254.962 4.22935 -5.29275 0
M  V30 2685 H 255.905 3.13205 -6.35065 0
M  V30 2686 H 256.313 3.25316 -4.61335 0
M  V30 2687 N 255.711 1.52812 0.385517 0
M  V30 2688 C 256.643 1.74096 1.49074 0
M  V30 2689 C 257.656 0.621462 1.50472 0
M  V30 2690 O 258.845 0.897245 1.54311 0
M  V30 2691 C 255.945 1.78774 2.87911 0
M  V30 2692 C 255.118 3.08134 3.10439 0
M  V30 2693 C 254.177 3.04313 4.29278 0
M  V30 2694 O 253.203 3.78168 4.25415 0
M  V30 2695 N 254.405 2.23741 5.35649 0
M  V30 2696 H 257.17 2.69455 1.31202 0
M  V30 2697 H 254.731 1.51343 0.575065 0
M  V30 2698 H 256.723 1.73721 3.65518 0
M  V30 2699 H 255.293 0.907869 2.99126 0
M  V30 2700 H 254.513 3.26649 2.20667 0
M  V30 2701 H 255.801 3.93662 3.22347 0
M  V30 2702 H 255.199 1.63211 5.41645 0
M  V30 2703 H 253.756 2.24524 6.11909 0
M  V30 2704 N 257.189 -0.644168 1.43834 0
M  V30 2705 C 258.419 -1.42939 1.49171 0
M  V30 2706 C 258.827 -1.88874 0.111048 0
M  V30 2707 O 258.17 -1.60656 -0.8908 0
M  V30 2708 C 258.232 -2.69151 2.38324 0
M  V30 2709 C 257.896 -2.45097 3.85715 0
M  V30 2710 C 258.893 -2.07747 4.76589 0
M  V30 2711 C 256.578 -2.59141 4.30292 0
M  V30 2712 C 258.572 -1.8475 6.10038 0
M  V30 2713 C 256.259 -2.35759 5.63792 0
M  V30 2714 C 257.257 -1.9862 6.53482 0
M  V30 2715 O 256.945 -1.75489 7.84512 0
M  V30 2716 H 256.677 -0.445271 0.508635 0
M  V30 2717 H 259.231 -0.79621 1.8934 0
M  V30 2718 H 257.461 -3.3506 1.93058 0
M  V30 2719 H 259.15 -3.31123 2.3476 0
M  V30 2720 H 259.916 -1.96465 4.43426 0
M  V30 2721 H 255.795 -2.87022 3.60749 0
M  V30 2722 H 259.339 -1.55686 6.80006 0
M  V30 2723 H 255.236 -2.46646 5.9652 0
M  V30 2724 H 256.004 -1.89841 7.9618 0
M  V30 2725 N 258.668 -1.30515 -0.883378 0
M  V30 2726 C 259.578 -1.18959 -2.02203 0
M  V30 2727 C 260.594 -0.109172 -1.73657 0
M  V30 2728 O 261.77 -0.324413 -1.9877 0
M  V30 2729 C 258.835 -0.883871 -3.35244 0
M  V30 2730 C 257.896 -2.04982 -3.77201 0
M  V30 2731 C 257.129 -1.75859 -5.03894 0
M  V30 2732 O 257.352 -0.687276 -5.66244 0
M  V30 2733 O 256.286 -2.61146 -5.42297 0
M  V30 2734 H 260.112 -2.14616 -2.1488 0
M  V30 2735 H 257.697 -1.10124 -1.0096 0
M  V30 2736 H 259.579 -0.728644 -4.15053 0
M  V30 2737 H 258.254 0.0427798 -3.23672 0
M  V30 2738 H 257.161 -2.26038 -2.9809 0
M  V30 2739 H 258.494 -2.95825 -3.93381 0
M  V30 2740 N 260.146 1.09593 -1.13257 0
M  V30 2741 C 261.395 1.81105 -0.887917 0
M  V30 2742 C 261.708 1.86563 0.587672 0
M  V30 2743 O 262.914 2.54367 0.949204 0
M  V30 2744 C 261.37 3.25338 -1.53895 0
M  V30 2745 C 260.978 3.28151 -3.04994 0
M  V30 2746 C 262.722 4.01617 -1.37492 0
M  V30 2747 C 260.629 4.66897 -3.6299 0
M  V30 2748 H 259.559 0.678661 -0.328534 0
M  V30 2749 H 262.21 1.23183 -1.36008 0
M  V30 2750 H 260.592 3.8331 -0.994446 0
M  V30 2751 H 261.766 2.79953 -3.66009 0
M  V30 2752 H 260.081 2.65361 -3.20893 0
M  V30 2753 H 262.678 5.04119 -1.78235 0
M  V30 2754 H 263.021 4.15072 -0.31957 0
M  V30 2755 H 263.554 3.50082 -1.88912 0
M  V30 2756 H 260.293 4.58643 -4.68323 0
M  V30 2757 H 259.813 5.15426 -3.06752 0
M  V30 2758 H 261.492 5.3587 -3.62563 0
M  V30 2759 N 261.624 0.925811 1.2754 0
M  V30 2760 C 262.87 0.566092 1.94739 0
M  V30 2761 C 263.203 -0.890057 1.72603 0
M  V30 2762 O 262.478 -1.63467 1.05399 0
M  V30 2763 C 262.761 0.89054 3.48915 0
M  V30 2764 C 262.614 2.4003 3.80402 0
M  V30 2765 C 263.933 0.395101 4.38323 0
M  V30 2766 H 261.052 0.20714 0.707292 0
M  V30 2767 H 263.694 1.15725 1.50691 0
M  V30 2768 H 261.844 0.387452 3.86563 0
M  V30 2769 H 263.516 2.97494 3.52555 0
M  V30 2770 H 261.759 2.85028 3.2702 0
M  V30 2771 H 262.43 2.57785 4.8811 0
M  V30 2772 H 264.906 0.826241 4.07814 0
M  V30 2773 H 263.782 0.651086 5.45025 0
M  V30 2774 H 264.043 -0.704798 4.36446 0
M  V30 2775 N 263.102 -1.41638 0.69111 0
M  V30 2776 C 264.351 -2.00526 0.217318 0
M  V30 2777 C 264.664 -1.55353 -1.18848 0
M  V30 2778 O 265.87 -2.06769 -1.75951 0
M  V30 2779 C 264.326 -3.58313 0.337639 0
M  V30 2780 C 263.934 -4.12469 1.74852 0
M  V30 2781 C 265.678 -4.24431 -0.0766066 0
M  V30 2782 C 263.585 -5.62675 1.82074 0
M  V30 2783 H 262.515 -0.750008 0.0774893 0
M  V30 2784 H 265.166 -1.6217 0.858661 0
M  V30 2785 H 263.548 -3.9425 -0.371879 0
M  V30 2786 H 264.722 -3.8796 2.48644 0
M  V30 2787 H 263.037 -3.58861 2.11205 0
M  V30 2788 H 265.634 -5.34683 -0.0430284 0
M  V30 2789 H 265.977 -4.01101 -1.1146 0
M  V30 2790 H 266.51 -3.93512 0.582476 0
M  V30 2791 H 263.249 -5.90826 2.83911 0
M  V30 2792 H 262.769 -5.89124 1.12661 0
M  V30 2793 H 264.448 -6.27371 1.58159 0
M  V30 2794 N 264.58 -0.43555 -1.51462 0
M  V30 2795 C 265.527 0.376797 -2.27703 0
M  V30 2796 C 266.497 1.01838 -1.31219 0
M  V30 2797 O 267.682 1.03762 -1.60119 0
M  V30 2798 C 264.822 1.47301 -3.12084 0
M  V30 2799 C 263.935 0.849744 -4.2356 0
M  V30 2800 C 263.07 1.92086 -4.95254 0
M  V30 2801 C 262.109 1.27593 -5.98654 0
M  V30 2802 N 261.246 2.28833 -6.63762 0
M  V30 2803 H 266.086 -0.279734 -2.96684 0
M  V30 2804 H 263.623 -0.149795 -1.46335 0
M  V30 2805 H 265.581 2.11984 -3.59331 0
M  V30 2806 H 264.211 2.0992 -2.45221 0
M  V30 2807 H 263.263 0.0912529 -3.80291 0
M  V30 2808 H 264.575 0.338878 -4.97648 0
M  V30 2809 H 263.729 2.64435 -5.46039 0
M  V30 2810 H 262.468 2.46545 -4.20793 0
M  V30 2811 H 261.473 0.537893 -5.47162 0
M  V30 2812 H 262.698 0.738693 -6.7507 0
M  V30 2813 H 260.644 2.82375 -5.92115 0
M  V30 2814 H 260.561 1.82632 -7.33608 0
M  V30 2815 H 261.829 3.00671 -7.19178 0
M  V30 2816 N 266.058 1.56714 -0.166846 0
M  V30 2817 C 267.304 1.97039 0.479962 0
M  V30 2818 C 267.637 1.05264 1.63197 0
M  V30 2819 O 266.912 0.0988833 1.94248 0
M  V30 2820 C 267.195 3.46867 0.967212 0
M  V30 2821 C 267.048 4.49421 -0.18466 0
M  V30 2822 C 268.367 3.9968 1.84238 0
M  V30 2823 H 265.486 0.71641 0.172992 0
M  V30 2824 H 268.128 1.8832 -0.252079 0
M  V30 2825 H 266.278 3.54428 1.59101 0
M  V30 2826 H 267.95 4.53924 -0.821621 0
M  V30 2827 H 266.193 4.25573 -0.840837 0
M  V30 2828 H 266.864 5.51644 0.198317 0
M  V30 2829 H 269.34 3.94723 1.31655 0
M  V30 2830 H 268.216 5.04941 2.15234 0
M  V30 2831 H 268.477 3.43226 2.78654 0
M  V30 2832 N 267.536 -0.106894 1.57237 0
M  V30 2833 C 268.483 -1.13049 2.01217 0
M  V30 2834 C 269.453 -1.40471 0.886403 0
M  V30 2835 O 270.638 -1.52133 1.15153 0
M  V30 2836 C 267.778 -2.4487 2.43172 0
M  V30 2837 C 266.891 -2.24281 3.69218 0
M  V30 2838 C 266.026 -3.49417 4.00101 0
M  V30 2839 C 265.065 -3.24038 5.19294 0
M  V30 2840 N 264.202 -4.41409 5.45988 0
M  V30 2841 H 269.042 -0.748456 2.88448 0
M  V30 2842 H 266.579 -0.358054 1.42676 0
M  V30 2843 H 268.537 -3.21786 2.65537 0
M  V30 2844 H 267.167 -2.80944 1.58967 0
M  V30 2845 H 266.219 -1.38224 3.54398 0
M  V30 2846 H 267.531 -2.01512 4.56283 0
M  V30 2847 H 266.685 -4.34746 4.2318 0
M  V30 2848 H 265.424 -3.75229 3.11535 0
M  V30 2849 H 264.429 -2.37102 4.96047 0
M  V30 2850 H 265.654 -2.99584 6.09447 0
M  V30 2851 H 263.6 -4.67319 4.60379 0
M  V30 2852 H 263.517 -4.21788 6.274 0
M  V30 2853 H 264.785 -5.27836 5.73593 0
M  V30 2854 N 269.014 -1.53014 -0.377408 0
M  V30 2855 C 270.425 -1.60438 -0.954798 0
M  V30 2856 C 270.776 -0.464418 -1.90624 0
M  V30 2857 O 269.901 0.41087 -2.12464 0
M  V30 2858 C 270.496 -2.90797 -1.73847 0
M  V30 2859 C 269.055 -3.00595 -2.26538 0
M  V30 2860 C 268.202 -2.55645 -1.07429 0
M  V30 2861 H 271.153 -1.57926 -0.156575 0
M  V30 2862 H 271.174 -2.77935 -2.5987 0
M  V30 2863 H 270.686 -3.73746 -1.04574 0
M  V30 2864 H 268.787 -2.22208 -2.99089 0
M  V30 2865 H 268.9 -4.05456 -2.5523 0
M  V30 2866 H 267.264 -2.10239 -1.43777 0
M  V30 2867 H 268.047 -3.41 -0.396728 0
M  V30 2868 N 270.492 0.636531 -1.44174 0
M  V30 2869 C 271.439 1.74875 -1.50624 0
M  V30 2870 C 272.409 1.62275 -0.35442 0
M  V30 2871 O 273.594 1.82276 -0.563908 0
M  V30 2872 C 270.734 3.13102 -1.45125 0
M  V30 2873 C 269.847 3.36717 -2.7064 0
M  V30 2874 C 268.982 4.64885 -2.57013 0
M  V30 2875 C 268.021 4.8166 -3.77717 0
M  V30 2876 N 267.158 6.01101 -3.62798 0
M  V30 2877 H 271.998 1.68697 -2.45653 0
M  V30 2878 H 269.535 0.823004 -1.21922 0
M  V30 2879 H 271.493 3.93034 -1.39929 0
M  V30 2880 H 270.123 3.18308 -0.536671 0
M  V30 2881 H 269.175 2.50763 -2.86046 0
M  V30 2882 H 270.487 3.44993 -3.60252 0
M  V30 2883 H 269.641 5.52969 -2.49619 0
M  V30 2884 H 268.38 4.58957 -1.64953 0
M  V30 2885 H 267.385 3.92007 -3.85501 0
M  V30 2886 H 268.61 4.89406 -4.70807 0
M  V30 2887 H 266.556 5.96273 -2.73486 0
M  V30 2888 H 266.473 6.10409 -4.46023 0
M  V30 2889 H 267.741 6.91761 -3.59286 0
M  V30 2890 N 271.97 1.30982 0.876444 0
M  V30 2891 C 272.902 1.13902 1.98894 0
M  V30 2892 C 273.915 0.0798815 1.62604 0
M  V30 2893 O 275.104 0.326743 1.75484 0
M  V30 2894 C 272.204 0.716699 3.31235 0
M  V30 2895 C 271.377 1.85945 3.95908 0
M  V30 2896 C 270.436 1.42426 5.06558 0
M  V30 2897 O 269.462 2.13287 5.27729 0
M  V30 2898 N 270.664 0.308025 5.79682 0
M  V30 2899 H 273.429 2.09724 2.14094 0
M  V30 2900 H 270.99 1.2323 1.05004 0
M  V30 2901 H 272.982 0.408403 4.02634 0
M  V30 2902 H 271.552 -0.149719 3.12241 0
M  V30 2903 H 270.772 2.33541 3.17573 0
M  V30 2904 H 272.06 2.62503 4.35855 0
M  V30 2905 H 271.458 -0.282241 5.64995 0
M  V30 2906 H 270.015 0.0592282 6.51773 0
M  V30 2907 N 273.449 -1.08991 1.13837 0
M  V30 2908 C 274.379 -2.17771 0.842507 0
M  V30 2909 C 275.36 -1.6892 -0.20001 0
M  V30 2910 O 276.545 -1.94113 -0.0579731 0
M  V30 2911 C 273.675 -3.4589 0.312644 0
M  V30 2912 C 272.629 -4.08099 1.28992 0
M  V30 2913 C 271.955 -5.31098 0.619623 0
M  V30 2914 C 273.255 -4.50077 2.65005 0
M  V30 2915 H 274.949 -2.42777 1.75213 0
M  V30 2916 H 272.495 -1.16682 0.843875 0
M  V30 2917 H 274.448 -4.21297 0.0933043 0
M  V30 2918 H 273.172 -3.20419 -0.632382 0
M  V30 2919 H 271.831 -3.34717 1.49533 0
M  V30 2920 H 271.479 -5.0191 -0.33102 0
M  V30 2921 H 271.179 -5.73674 1.27167 0
M  V30 2922 H 272.703 -6.09224 0.409669 0
M  V30 2923 H 274.117 -5.16688 2.48407 0
M  V30 2924 H 272.514 -5.03553 3.26427 0
M  V30 2925 H 273.584 -3.62257 3.22332 0
M  V30 2926 N 274.927 -0.932562 -1.27047 0
M  V30 2927 C 276.173 -0.576412 -1.94436 0
M  V30 2928 C 276.506 0.880891 -1.73072 0
M  V30 2929 O 275.781 1.62905 -1.06264 0
M  V30 2930 C 276.064 -0.909031 -3.48437 0
M  V30 2931 C 275.917 -2.42044 -3.79123 0
M  V30 2932 C 277.236 -0.418341 -4.38107 0
M  V30 2933 H 274.355 -0.210888 -0.706184 0
M  V30 2934 H 276.997 -1.16522 -1.50075 0
M  V30 2935 H 275.147 -0.407947 -3.86352 0
M  V30 2936 H 276.819 -2.99359 -3.50973 0
M  V30 2937 H 275.062 -2.86758 -3.25503 0
M  V30 2938 H 275.733 -2.6037 -4.86736 0
M  V30 2939 H 278.209 -0.847856 -4.0737 0
M  V30 2940 H 277.085 -0.679981 -5.44672 0
M  V30 2941 H 277.346 0.681642 -4.36814 0
M  V30 2942 N 276.405 1.4127 -0.698611 0
M  V30 2943 C 277.355 2.27997 -0.0119836 0
M  V30 2944 C 278.339 1.42363 0.749765 0
M  V30 2945 O 279.531 1.65607 0.624758 0
M  V30 2946 C 276.66 3.30702 0.921458 0
M  V30 2947 C 275.746 4.23814 0.155796 0
M  V30 2948 N 276.137 4.98572 -0.852015 0
M  V30 2949 C 274.435 4.44284 0.390836 0
M  V30 2950 C 275.136 5.66744 -1.3106 0
M  V30 2951 N 274.112 5.39867 -0.635944 0
M  V30 2952 H 277.914 2.83232 -0.784649 0
M  V30 2953 H 275.428 1.53518 -0.529711 0
M  V30 2954 H 277.425 3.91661 1.42854 0
M  V30 2955 H 276.085 2.77028 1.69369 0
M  V30 2956 H 277.096 5.03024 -1.23235 0
M  V30 2957 H 273.773 4.01614 1.14071 0
M  V30 2958 H 275.163 6.36672 -2.14707 0
M  V30 2959 N 277.883 0.443576 1.51229 0
M  V30 2960 C 278.833 -0.382787 2.24764 0
M  V30 2961 C 279.817 -0.984836 1.27239 0
M  V30 2962 O 281.009 -0.901943 1.52296 0
M  V30 2963 C 278.138 -1.47989 3.09765 0
M  V30 2964 C 277.224 -0.886931 4.14722 0
M  V30 2965 N 277.615 -0.0237103 5.05794 0
M  V30 2966 C 275.913 -1.15385 4.30816 0
M  V30 2967 C 276.614 0.309971 5.80874 0
M  V30 2968 N 275.59 -0.307989 5.42727 0
M  V30 2969 H 279.392 0.282624 2.92538 0
M  V30 2970 H 276.906 0.256027 1.60369 0
M  V30 2971 H 278.903 -2.08482 3.61027 0
M  V30 2972 H 277.563 -2.14758 2.43535 0
M  V30 2973 H 278.574 0.34318 5.16762 0
M  V30 2974 H 275.251 -1.81857 3.75812 0
M  V30 2975 H 276.641 1.01279 6.64223 0
M  V30 2976 N 279.361 -1.56624 0.175154 0
M  V30 2977 C 280.608 -1.96999 -0.468811 0
M  V30 2978 C 280.936 -1.06129 -1.62994 0
M  V30 2979 O 280.191 -0.0961771 -1.95464 0
M  V30 2980 C 280.49 -3.43419 -0.989864 0
M  V30 2981 C 280.156 -4.50866 0.0557687 0
M  V30 2982 C 278.818 -4.79975 0.343134 0
M  V30 2983 C 281.17 -5.15551 0.765308 0
M  V30 2984 C 278.498 -5.71066 1.34536 0
M  V30 2985 C 280.85 -6.07724 1.75654 0
M  V30 2986 C 279.514 -6.35199 2.05132 0
M  V30 2987 H 278.784 -0.720869 -0.17155 0
M  V30 2988 H 281.431 -1.89616 0.267924 0
M  V30 2989 H 279.736 -3.47772 -1.80449 0
M  V30 2990 H 281.433 -3.72002 -1.49719 0
M  V30 2991 H 278.023 -4.28229 -0.178381 0
M  V30 2992 H 282.207 -4.9317 0.556513 0
M  V30 2993 H 277.463 -5.90635 1.57988 0
M  V30 2994 H 281.637 -6.56912 2.31169 0
M  V30 2995 H 279.264 -7.05584 2.8294 0
M  V30 2996 N 280.839 0.0985539 -1.57292 0
M  V30 2997 C 281.749 1.13824 -2.05137 0
M  V30 2998 C 282.765 1.44076 -0.975604 0
M  V30 2999 O 283.941 1.54786 -1.28853 0
M  V30 3000 C 281.006 2.43969 -2.46333 0
M  V30 3001 C 280.067 2.2093 -3.68087 0
M  V30 3002 C 279.3 3.44869 -4.0731 0
M  V30 3003 O 279.523 4.52972 -3.46659 0
M  V30 3004 O 278.457 3.34661 -5.00285 0
M  V30 3005 H 282.283 0.761881 -2.93988 0
M  V30 3006 H 279.868 0.310818 -1.46131 0
M  V30 3007 H 281.75 3.20609 -2.73473 0
M  V30 3008 H 280.425 2.81038 -1.60621 0
M  V30 3009 H 279.332 1.42081 -3.46069 0
M  V30 3010 H 280.665 1.88755 -4.54568 0
M  V30 3011 N 282.317 1.53212 0.369288 0
M  V30 3012 C 283.566 1.68436 1.10961 0
M  V30 3013 C 283.879 0.440738 1.9057 0
M  V30 3014 O 285.085 0.473446 2.6734 0
M  V30 3015 C 283.541 2.97744 2.0218 0
M  V30 3016 C 283.149 4.29355 1.279 0
M  V30 3017 C 284.893 3.22334 2.76226 0
M  V30 3018 C 282.8 5.49755 2.17999 0
M  V30 3019 H 281.73 0.627568 0.41794 0
M  V30 3020 H 284.381 1.79713 0.370884 0
M  V30 3021 H 282.763 2.8026 2.79768 0
M  V30 3022 H 283.937 4.57458 0.554007 0
M  V30 3023 H 282.252 4.11179 0.657311 0
M  V30 3024 H 284.849 4.09471 3.43857 0
M  V30 3025 H 285.192 2.38238 3.41392 0
M  V30 3026 H 285.725 3.40475 2.05723 0
M  V30 3027 H 282.464 6.36318 1.57417 0
M  V30 3028 H 281.984 5.25937 2.88359 0
M  V30 3029 H 283.663 5.84401 2.77641 0
M  V30 3030 N 283.795 -0.628877 1.44509 0
M  V30 3031 C 285.072 -1.38733 1.37886 0
M  V30 3032 C 285.452 -2.11065 0.0387008 0
M  V30 3033 O 284.8 -2.06476 -0.97878 0
M  V30 3034 C 285.01 -2.35188 2.57852 0
M  V30 3035 C 286.358 -2.9845 3.02014 0
M  V30 3036 O 287.382 -2.45513 2.58073 0
M  V30 3037 O 286.241 -3.94487 3.78209 0
M  V30 3038 H 283.335 -0.621015 0.54614 0
M  V30 3039 H 285.881 -0.653744 1.56602 0
M  V30 3040 H 284.653 -1.80855 3.46998 0
M  V30 3041 H 284.276 -3.1596 2.4136 0
M  V30 3042 N 285.273 -1.31445 -0.869486 0
M  V30 3043 C 286.519 -1.21337 -1.62496 0
M  V30 3044 C 286.852 0.227872 -1.92858 0
M  V30 3045 O 286.127 1.16094 -1.56053 0
M  V30 3046 C 286.41 -2.05814 -2.95487 0
M  V30 3047 C 286.263 -3.5824 -2.72 0
M  V30 3048 C 287.582 -1.9079 -3.96594 0
M  V30 3049 H 284.701 -0.442135 -0.589649 0
M  V30 3050 H 287.343 -1.6124 -1.00507 0
M  V30 3051 H 285.493 -1.71913 -3.48394 0
M  V30 3052 H 287.165 -4.0228 -2.25762 0
M  V30 3053 H 285.408 -3.81647 -2.06224 0
M  V30 3054 H 286.079 -4.12657 -3.66631 0
M  V30 3055 H 288.555 -2.20459 -3.52898 0
M  V30 3056 H 287.431 -2.52199 -4.87531 0
M  V30 3057 H 287.692 -0.871341 -4.33428 0
M  V30 3058 N 286.751 1.08385 -1.14413 0
M  V30 3059 C 288.028 1.77429 -0.823297 0
M  V30 3060 C 288.408 1.9974 0.683163 0
M  V30 3061 O 287.756 1.60739 1.62405 0
M  V30 3062 C 287.966 3.09004 -1.62227 0
M  V30 3063 C 289.314 3.83532 -1.82177 0
M  V30 3064 O 290.338 3.18786 -1.58915 0
M  V30 3065 O 289.197 4.99792 -2.21067 0
M  V30 3066 H 286.291 0.769999 -0.301712 0
M  V30 3067 H 288.837 1.14846 -1.24934 0
M  V30 3068 H 287.609 2.88316 -2.64555 0
M  V30 3069 H 287.232 3.79316 -1.19187 0
M  V30 3070 N 288.23 0.939286 1.26551 0
M  V30 3071 C 289.479 0.581601 1.93133 0
M  V30 3072 C 289.792 -0.883224 1.74524 0
M  V30 3073 O 290.998 -1.3502 2.35546 0
M  V30 3074 C 289.454 0.989425 3.46032 0
M  V30 3075 C 289.062 2.47573 3.73379 0
M  V30 3076 C 290.806 0.703544 4.18629 0
M  V30 3077 C 288.713 2.82235 5.19709 0
M  V30 3078 H 287.643 0.213803 0.723052 0
M  V30 3079 H 290.294 1.14167 1.4366 0
M  V30 3080 H 288.676 0.357902 3.94379 0
M  V30 3081 H 289.85 3.15614 3.35744 0
M  V30 3082 H 288.165 2.73471 3.1401 0
M  V30 3083 H 290.762 0.938869 5.26393 0
M  V30 3084 H 291.105 -0.359639 4.14744 0
M  V30 3085 H 291.638 1.2947 3.76141 0
M  V30 3086 H 288.377 3.87509 5.28694 0
M  V30 3087 H 287.897 2.18854 5.58447 0
M  V30 3088 H 289.576 2.70599 5.87695 0
M  V30 3089 N 289.708 -1.40897 0.706093 0
M  V30 3090 C 290.955 -2.01054 0.241531 0
M  V30 3091 C 291.283 -1.55956 -1.16223 0
M  V30 3092 O 290.538 -0.766336 -1.80072 0
M  V30 3093 C 290.837 -3.5646 0.259099 0
M  V30 3094 C 290.503 -4.21106 1.61184 0
M  V30 3095 C 289.165 -4.38479 1.98216 0
M  V30 3096 C 291.517 -4.57256 2.50132 0
M  V30 3097 C 288.845 -4.89282 3.2376 0
M  V30 3098 C 291.197 -5.09454 3.7502 0
M  V30 3099 C 289.861 -5.25037 4.12181 0
M  V30 3100 H 289.131 -0.73571 0.0883825 0
M  V30 3101 H 291.778 -1.68645 0.907257 0
M  V30 3102 H 290.083 -3.88721 -0.490189 0
M  V30 3103 H 291.78 -4.00826 -0.11804 0
M  V30 3104 H 288.37 -4.07966 1.31384 0
M  V30 3105 H 292.554 -4.43479 2.228 0
M  V30 3106 H 287.81 -4.99531 3.52532 0
M  V30 3107 H 291.984 -5.36404 4.44121 0
M  V30 3108 H 289.611 -5.64164 5.09532 0
M  V30 3109 N 291.186 -0.45159 -1.50991 0
M  V30 3110 C 292.096 0.358431 -2.31846 0
M  V30 3111 C 293.112 1.01438 -1.41373 0
M  V30 3112 O 294.288 1.00663 -1.74439 0
M  V30 3113 C 291.353 1.43704 -3.15515 0
M  V30 3114 C 290.414 0.799742 -4.21785 0
M  V30 3115 C 289.647 1.82696 -5.01456 0
M  V30 3116 O 289.87 3.05105 -4.81941 0
M  V30 3117 O 288.804 1.40958 -5.85162 0
M  V30 3118 H 292.63 -0.302032 -3.02194 0
M  V30 3119 H 290.215 -0.213825 -1.47862 0
M  V30 3120 H 292.097 2.06227 -3.67489 0
M  V30 3121 H 290.772 2.08133 -2.47916 0
M  V30 3122 H 289.679 0.136084 -3.73852 0
M  V30 3123 H 291.012 0.198718 -4.91799 0
M  V30 3124 N 292.664 1.56529 -0.183458 0
M  V30 3125 C 294.075 1.83739 0.331177 0
M  V30 3126 C 294.426 1.10373 1.62211 0
M  V30 3127 O 293.551 0.36071 2.13373 0
M  V30 3128 C 294.146 3.33306 0.607646 0
M  V30 3129 C 292.705 3.60969 1.06668 0
M  V30 3130 C 291.852 2.77086 0.109029 0
M  V30 3131 H 294.803 1.53379 -0.407484 0
M  V30 3132 H 294.824 3.51444 1.45832 0
M  V30 3133 H 294.336 3.86677 -0.332086 0
M  V30 3134 H 292.437 3.13021 2.0211 0
M  V30 3135 H 292.55 4.69231 0.967447 0
M  V30 3136 H 290.914 2.47319 0.608714 0
M  V30 3137 H 291.697 3.33241 -0.82494 0
M  V30 3138 N 294.142 -0.090211 1.57342 0
M  V30 3139 C 295.074 -1.13541 1.99101 0
M  V30 3140 C 296.087 -1.3604 0.894258 0
M  V30 3141 O 297.276 -1.34606 1.17233 0
M  V30 3142 C 294.376 -2.49001 2.29895 0
M  V30 3143 C 293.549 -2.46712 3.61182 0
M  V30 3144 C 292.608 -3.64136 3.79857 0
M  V30 3145 O 291.634 -3.46405 4.51655 0
M  V30 3146 N 292.836 -4.83802 3.20806 0
M  V30 3147 H 295.601 -0.779942 2.89373 0
M  V30 3148 H 293.162 -0.279125 1.59476 0
M  V30 3149 H 295.154 -3.26166 2.39578 0
M  V30 3150 H 293.724 -2.76619 1.45605 0
M  V30 3151 H 292.944 -1.55058 3.62423 0
M  V30 3152 H 294.232 -2.42265 4.4742 0
M  V30 3153 H 293.63 -5.01112 2.62494 0
M  V30 3154 H 292.187 -5.58543 3.35966 0
M  V30 3155 N 295.62 -1.53406 -0.361157 0
M  V30 3156 C 296.868 -1.69467 -1.10115 0
M  V30 3157 C 297.189 -0.451352 -1.89705 0
M  V30 3158 O 296.459 0.534636 -1.88463 0
M  V30 3159 H 295.039 -0.624749 -0.409508 0
M  V30 3160 H 297.701 -1.90609 -0.406699 0
M  V30 3161 H 296.797 -2.55774 -1.78847 0
M  V30 3162 N 297.098 0.621204 -1.44841 0
M  V30 3163 C 298.347 1.37658 -1.47422 0
M  V30 3164 C 298.66 1.95264 -0.114629 0
M  V30 3165 O 299.866 2.71494 -0.0180199 0
M  V30 3166 C 298.322 2.49285 -2.59586 0
M  V30 3167 C 297.93 1.98149 -4.01797 0
M  V30 3168 C 299.674 3.26409 -2.71399 0
M  V30 3169 C 297.581 3.07178 -5.05367 0
M  V30 3170 H 296.511 0.517344 -0.548517 0
M  V30 3171 H 299.162 0.667257 -1.70938 0
M  V30 3172 H 297.544 3.22839 -2.29328 0
M  V30 3173 H 298.718 1.31395 -4.41669 0
M  V30 3174 H 297.033 1.33812 -3.94314 0
M  V30 3175 H 299.63 4.07706 -3.45948 0
M  V30 3176 H 299.973 3.76535 -1.77559 0
M  V30 3177 H 300.506 2.5995 -3.01116 0
M  V30 3178 H 297.245 2.61985 -6.00869 0
M  V30 3179 H 296.765 3.72542 -4.70077 0
M  V30 3180 H 298.444 3.71789 -5.29511 0
M  V30 3181 N 298.576 1.31904 0.862503 0
M  V30 3182 C 299.801 1.25135 1.65397 0
M  V30 3183 C 300.226 -0.179 1.87246 0
M  V30 3184 O 299.584 -1.1277 1.4196 0
M  V30 3185 C 299.632 2.00832 2.99498 0
M  V30 3186 O 298.736 1.35075 3.89652 0
M  V30 3187 H 298.077 0.431655 0.504549 0
M  V30 3188 H 300.607 1.74094 1.07483 0
M  V30 3189 H 300.617 2.10709 3.49379 0
M  V30 3190 H 299.292 3.04847 2.82916 0
M  V30 3191 H 297.869 1.33696 3.48109 0
M  V30 3192 N 300.054 -1.07777 1.14986 0
M  V30 3193 C 301.001 -2.14867 0.842672 0
M  V30 3194 C 301.971 -1.6486 -0.202552 0
M  V30 3195 O 303.156 -1.90668 -0.0710568 0
M  V30 3196 C 300.296 -3.43486 0.333363 0
M  V30 3197 C 299.409 -4.07306 1.43965 0
M  V30 3198 C 298.544 -5.23744 0.886914 0
M  V30 3199 C 297.583 -5.79517 1.97043 0
M  V30 3200 N 296.72 -6.87291 1.4344 0
M  V30 3201 H 301.56 -2.40485 1.75986 0
M  V30 3202 H 299.097 -1.1801 0.878179 0
M  V30 3203 H 301.055 -4.17195 0.0198163 0
M  V30 3204 H 299.685 -3.18133 -0.546916 0
M  V30 3205 H 298.737 -3.31293 1.86946 0
M  V30 3206 H 300.049 -4.44771 2.25788 0
M  V30 3207 H 299.203 -6.04419 0.525651 0
M  V30 3208 H 297.942 -4.87685 0.0377957 0
M  V30 3209 H 296.947 -4.97491 2.34057 0
M  V30 3210 H 298.172 -6.17632 2.82325 0
M  V30 3211 H 296.118 -6.5318 0.607567 0
M  V30 3212 H 296.035 -7.23617 2.18895 0
M  V30 3213 H 297.303 -7.71682 1.10124 0
M  V30 3214 N 301.532 -0.945985 -1.26051 0
M  V30 3215 C 302.462 -0.477172 -2.28572 0
M  V30 3216 C 303.443 0.472032 -1.63419 0
M  V30 3217 O 304.628 0.372853 -1.90587 0
M  V30 3218 C 301.758 0.253975 -3.4637 0
M  V30 3219 C 300.712 -0.609135 -4.23643 0
M  V30 3220 C 300.038 0.252252 -5.34105 0
M  V30 3221 C 301.338 -1.8829 -4.8718 0
M  V30 3222 H 303.032 -1.33402 -2.68038 0
M  V30 3223 H 300.578 -0.642904 -1.28852 0
M  V30 3224 H 302.531 0.593016 -4.17207 0
M  V30 3225 H 301.255 1.145 -3.05871 0
M  V30 3226 H 299.914 -0.931138 -3.54578 0
M  V30 3227 H 299.562 1.14278 -4.89846 0
M  V30 3228 H 299.262 -0.32188 -5.86718 0
M  V30 3229 H 300.786 0.586454 -6.07777 0
M  V30 3230 H 302.2 -1.61081 -5.50205 0
M  V30 3231 H 300.597 -2.40199 -5.49931 0
M  V30 3232 H 301.667 -2.59134 -4.09851 0
M  V30 3233 N 303.011 1.40521 -0.713556 0
M  V30 3234 C 304.288 1.94775 -0.17943 0
M  V30 3235 C 304.668 1.65184 1.31444 0
M  V30 3236 O 304.016 0.968429 2.06963 0
M  V30 3237 C 304.226 3.45543 -0.489986 0
M  V30 3238 C 305.574 4.22442 -0.427536 0
M  V30 3239 O 306.598 3.53644 -0.425929 0
M  V30 3240 O 305.457 5.4501 -0.403292 0
M  V30 3241 H 302.551 0.826606 -0.0255192 0
M  V30 3242 H 305.097 1.5014 -0.790949 0
M  V30 3243 H 303.869 3.60432 -1.5233 0
M  V30 3244 H 303.492 3.97311 0.151598 0
M  V30 3245 N 304.489 0.459591 1.5075 0
M  V30 3246 C 305.452 -0.329093 2.26825 0
M  V30 3247 C 306.452 -0.930481 1.31144 0
M  V30 3248 O 307.642 -0.801453 1.54669 0
M  V30 3249 C 304.774 -1.46768 3.07688 0
M  V30 3250 H 305.967 0.337924 2.9799 0
M  V30 3251 H 303.52 0.213336 1.54837 0
M  V30 3252 H 304.255 -2.17009 2.40993 0
M  V30 3253 H 304.04 -1.04238 3.77991 0
M  V30 3254 H 305.53 -2.02433 3.65254 0
M  V30 3255 N 305.967 -1.56429 0.191757 0
M  V30 3256 C 306.899 -2.16154 -0.762245 0
M  V30 3257 C 307.912 -1.12247 -1.17917 0
M  V30 3258 O 309.101 -1.39353 -1.11548 0
M  V30 3259 C 306.201 -2.70606 -2.04024 0
M  V30 3260 C 305.374 -3.99381 -1.78364 0
M  V30 3261 C 304.433 -4.38692 -2.90578 0
M  V30 3262 O 303.459 -5.06179 -2.6033 0
M  V30 3263 N 304.661 -4.01922 -4.18854 0
M  V30 3264 H 307.426 -2.98643 -0.251526 0
M  V30 3265 H 304.987 -1.61897 0.00967373 0
M  V30 3266 H 306.979 -2.93891 -2.78227 0
M  V30 3267 H 305.549 -1.9259 -2.46227 0
M  V30 3268 H 304.769 -3.84262 -0.879581 0
M  V30 3269 H 306.057 -4.83445 -1.58614 0
M  V30 3270 H 305.455 -3.47631 -4.46283 0
M  V30 3271 H 304.012 -4.30165 -4.89695 0
M  V30 3272 N 307.445 0.0818655 -1.57387 0
M  V30 3273 C 308.408 1.08265 -2.02018 0
M  V30 3274 C 309.408 1.32183 -0.915664 0
M  V30 3275 O 310.598 1.28073 -1.18081 0
M  V30 3276 C 307.73 2.42871 -2.39221 0
M  V30 3277 H 308.923 0.698204 -2.91659 0
M  V30 3278 H 306.476 0.327303 -1.52835 0
M  V30 3279 H 307.211 2.86167 -1.52575 0
M  V30 3280 H 306.996 2.26855 -3.19811 0
M  V30 3281 H 308.486 3.14826 -2.74362 0
M  V30 3282 N 308.923 1.53595 0.353017 0
M  V30 3283 C 310.148 1.7462 1.11904 0
M  V30 3284 C 310.573 0.479721 1.8188 0
M  V30 3285 O 309.931 -0.567066 1.72204 0
M  V30 3286 C 309.979 2.92029 2.11545 0
M  V30 3287 O 309.083 2.61516 3.18878 0
M  V30 3288 H 308.424 0.579531 0.324099 0
M  V30 3289 H 310.954 2.00525 0.406301 0
M  V30 3290 H 310.964 3.18551 2.5493 0
M  V30 3291 H 309.639 3.83888 1.60008 0
M  V30 3292 H 308.216 2.45852 2.80377 0
M  V30 3293 N 310.401 -0.613514 1.45168 0
M  V30 3294 C 311.648 -1.37268 1.48875 0
M  V30 3295 C 311.976 -1.94077 0.128161 0
M  V30 3296 O 311.231 -1.75178 -0.872416 0
M  V30 3297 C 311.53 -2.54347 2.51083 0
M  V30 3298 C 311.196 -2.1572 3.95949 0
M  V30 3299 C 309.858 -2.04899 4.35396 0
M  V30 3300 C 312.21 -1.85485 4.87078 0
M  V30 3301 C 309.538 -1.62057 5.63875 0
M  V30 3302 C 311.89 -1.4413 6.15962 0
M  V30 3303 C 310.554 -1.31863 6.54346 0
M  V30 3304 H 309.824 -0.502299 0.544773 0
M  V30 3305 H 312.471 -0.694021 1.78481 0
M  V30 3306 H 310.776 -3.27524 2.15024 0
M  V30 3307 H 312.473 -3.12577 2.51191 0
M  V30 3308 H 309.063 -2.25066 3.64751 0
M  V30 3309 H 313.247 -1.92745 4.57343 0
M  V30 3310 H 308.503 -1.51177 5.92415 0
M  V30 3311 H 312.677 -1.19778 6.86022 0
M  V30 3312 H 310.304 -0.984392 7.538 0
M  V30 3313 N 311.879 -1.3236 -0.855495 0
M  V30 3314 C 312.809 -1.23833 -1.97958 0
M  V30 3315 C 313.79 -0.122361 -1.69659 0
M  V30 3316 O 314.975 -0.30939 -1.9172 0
M  V30 3317 C 312.105 -0.959772 -3.33775 0
M  V30 3318 C 311.059 -2.03689 -3.76424 0
M  V30 3319 C 310.385 -1.61075 -5.09862 0
M  V30 3320 C 311.685 -3.4518 -3.9198 0
M  V30 3321 H 313.379 -2.1788 -2.0535 0
M  V30 3322 H 310.925 -1.04891 -0.986605 0
M  V30 3323 H 312.878 -0.886678 -4.11966 0
M  V30 3324 H 311.602 0.0163404 -3.26596 0
M  V30 3325 H 310.261 -2.10012 -3.00484 0
M  V30 3326 H 309.909 -0.622107 -4.99138 0
M  V30 3327 H 309.609 -2.33143 -5.39368 0
M  V30 3328 H 311.133 -1.55201 -5.90546 0
M  V30 3329 H 312.547 -3.4145 -4.60526 0
M  V30 3330 H 310.944 -4.1559 -4.32903 0
M  V30 3331 H 312.014 -3.84903 -2.94919 0
M  V30 3332 N 313.357 1.07166 -1.15556 0
M  V30 3333 C 314.768 1.6127 -0.940693 0
M  V30 3334 C 315.119 1.89251 0.517551 0
M  V30 3335 O 314.244 1.65937 1.38903 0
M  V30 3336 C 314.839 2.92993 -1.7012 0
M  V30 3337 C 313.398 3.43832 -1.53156 0
M  V30 3338 C 312.545 2.1786 -1.71558 0
M  V30 3339 H 315.496 0.90229 -1.30554 0
M  V30 3340 H 315.517 3.62007 -1.17181 0
M  V30 3341 H 315.029 2.72596 -2.76248 0
M  V30 3342 H 313.13 3.69307 -0.494294 0
M  V30 3343 H 313.243 4.19747 -2.30975 0
M  V30 3344 H 311.607 2.2765 -1.14225 0
M  V30 3345 H 312.39 1.99956 -2.79056 0
M  V30 3346 N 314.835 0.952656 1.25548 0
M  V30 3347 C 315.782 0.47008 2.25962 0
M  V30 3348 C 316.752 -0.476384 1.59122 0
M  V30 3349 O 317.937 -0.39007 1.8677 0
M  V30 3350 C 315.077 -0.247881 3.44209 0
M  V30 3351 C 314.19 0.735591 4.25691 0
M  V30 3352 C 313.325 -0.0047306 5.312 0
M  V30 3353 C 312.364 0.969805 6.04368 0
M  V30 3354 N 311.501 0.260486 7.01617 0
M  V30 3355 H 316.341 1.33126 2.66611 0
M  V30 3356 H 313.878 0.66765 1.31076 0
M  V30 3357 H 315.836 -0.680695 4.1161 0
M  V30 3358 H 314.466 -1.07312 3.0444 0
M  V30 3359 H 313.518 1.28689 3.57971 0
M  V30 3360 H 314.83 1.47934 4.76358 0
M  V30 3361 H 313.984 -0.496275 6.04667 0
M  V30 3362 H 312.723 -0.781282 4.81401 0
M  V30 3363 H 311.728 1.47237 5.29718 0
M  V30 3364 H 312.953 1.74655 6.56256 0
M  V30 3365 H 310.899 -0.497364 6.54112 0
M  V30 3366 H 310.816 0.943362 7.50091 0
M  V30 3367 H 312.084 -0.209587 7.79218 0
M  V30 3368 N 316.313 -1.40141 0.720998 0
M  V30 3369 C 317.223 -2.34486 0.0731031 0
M  V30 3370 C 318.239 -1.57587 -0.737723 0
M  V30 3371 O 319.415 -1.89949 -0.669429 0
M  V30 3372 C 316.48 -3.36528 -0.833656 0
M  V30 3373 C 315.541 -4.29298 -0.0121673 0
M  V30 3374 C 314.774 -5.26466 -0.875742 0
M  V30 3375 O 314.997 -5.29745 -2.11485 0
M  V30 3376 O 313.931 -6.01092 -0.31185 0
M  V30 3377 H 317.757 -2.9152 0.851444 0
M  V30 3378 H 315.342 -1.41427 0.481527 0
M  V30 3379 H 317.224 -3.99093 -1.35289 0
M  V30 3380 H 315.899 -2.81899 -1.59105 0
M  V30 3381 H 314.806 -3.70001 0.552262 0
M  V30 3382 H 316.139 -4.87094 0.707129 0
M  V30 3383 N 317.792 -0.46758 -1.50504 0
M  V30 3384 C 318.722 0.318381 -2.31319 0
M  V30 3385 C 319.703 0.993564 -1.38066 0
M  V30 3386 O 320.888 0.991411 -1.66987 0
M  V30 3387 C 318.018 1.40275 -3.17711 0
M  V30 3388 C 316.972 0.849373 -4.19487 0
M  V30 3389 C 316.298 2.03177 -4.94594 0
M  V30 3390 C 317.598 -0.136942 -5.2212 0
M  V30 3391 H 319.292 -0.356106 -2.97275 0
M  V30 3392 H 316.838 -0.172703 -1.42961 0
M  V30 3393 H 318.791 1.96004 -3.73042 0
M  V30 3394 H 317.515 2.10596 -2.49634 0
M  V30 3395 H 316.174 0.314076 -3.65252 0
M  V30 3396 H 315.822 2.72187 -4.22993 0
M  V30 3397 H 315.522 1.66774 -5.63436 0
M  V30 3398 H 317.046 2.59403 -5.52759 0
M  V30 3399 H 318.46 0.331056 -5.72343 0
M  V30 3400 H 316.857 -0.41507 -5.98663 0
M  V30 3401 H 317.927 -1.06398 -4.73083 0
M  V30 3402 N 319.27 1.56325 -0.20005 0
M  V30 3403 C 320.233 2.18084 0.705132 0
M  V30 3404 C 321.233 1.13666 1.1374 0
M  V30 3405 O 322.423 1.39023 1.04968 0
M  V30 3406 C 319.555 2.78689 1.96329 0
M  V30 3407 H 320.748 2.99435 0.167023 0
M  V30 3408 H 318.301 1.56221 0.0495725 0
M  V30 3409 H 319.036 2.0115 2.5438 0
M  V30 3410 H 318.821 3.55133 1.66202 0
M  V30 3411 H 320.311 3.26096 2.60866 0
M  V30 3412 N 320.748 -0.0735177 1.57428 0
M  V30 3413 C 321.711 -1.07192 2.02589 0
M  V30 3414 C 322.711 -1.31695 0.922661 0
M  V30 3415 O 323.901 -1.27445 1.18758 0
M  V30 3416 C 321.033 -2.41599 2.40506 0
M  V30 3417 H 322.226 -0.682727 2.92025 0
M  V30 3418 H 319.779 -0.319193 1.53006 0
M  V30 3419 H 320.514 -2.85354 1.5409 0
M  V30 3420 H 320.299 -2.25156 3.21009 0
M  V30 3421 H 321.789 -3.13367 2.76027 0
M  V30 3422 N 322.226 -1.5378 -0.344866 0
M  V30 3423 C 323.158 -1.77988 -1.44406 0
M  V30 3424 C 324.171 -0.661138 -1.48771 0
M  V30 3425 O 325.36 -0.937842 -1.51877 0
M  V30 3426 C 322.46 -1.86345 -2.8307 0
M  V30 3427 C 321.633 -3.16256 -3.0216 0
M  V30 3428 C 320.692 -3.15588 -4.21059 0
M  V30 3429 O 319.718 -3.89314 -4.15239 0
M  V30 3430 N 320.92 -2.37864 -5.29529 0
M  V30 3431 H 323.685 -2.72839 -1.24012 0
M  V30 3432 H 321.246 -1.52814 -0.534737 0
M  V30 3433 H 323.238 -1.83351 -3.60783 0
M  V30 3434 H 321.808 -0.986858 -2.96614 0
M  V30 3435 H 321.028 -3.32385 -2.11929 0
M  V30 3436 H 322.316 -4.0207 -3.11797 0
M  V30 3437 H 321.714 -1.77514 -5.37127 0
M  V30 3438 H 320.271 -2.40668 -6.05741 0
M  V30 3439 N 323.704 0.605807 -1.45491 0
M  V30 3440 C 324.932 1.39136 -1.5313 0
M  V30 3441 C 325.347 1.88082 -0.164507 0
M  V30 3442 O 324.704 1.62316 0.834247 0
M  V30 3443 C 324.755 2.59463 -2.51716 0
M  V30 3444 O 324.476 2.12551 -3.83084 0
M  V30 3445 C 325.977 3.52301 -2.6907 0
M  V30 3446 H 323.197 0.425849 -0.51855 0
M  V30 3447 H 325.741 0.73865 -1.90694 0
M  V30 3448 H 323.896 3.20772 -2.17219 0
M  V30 3449 H 324.31 2.90744 -4.36541 0
M  V30 3450 H 325.784 4.33271 -3.42024 0
M  V30 3451 H 326.261 4.02757 -1.75167 0
M  V30 3452 H 326.867 2.96845 -3.04571 0
M  V30 3453 N 325.182 1.32811 0.848464 0
M  V30 3454 C 326.431 1.23075 1.59798 0
M  V30 3455 C 326.744 -0.204419 1.94529 0
M  V30 3456 O 327.95 -0.423701 2.68173 0
M  V30 3457 C 326.406 2.15594 2.88179 0
M  V30 3458 C 326.014 3.64228 2.60849 0
M  V30 3459 C 327.758 2.14709 3.66197 0
M  V30 3460 C 325.665 4.48689 3.85269 0
M  V30 3461 H 324.595 0.457091 0.599653 0
M  V30 3462 H 327.246 1.57813 0.936342 0
M  V30 3463 H 325.628 1.73778 3.55833 0
M  V30 3464 H 326.802 4.14424 2.01467 0
M  V30 3465 H 325.117 3.67306 1.96151 0
M  V30 3466 H 327.714 2.75046 4.58534 0
M  V30 3467 H 328.057 1.13966 4.00397 0
M  V30 3468 H 328.59 2.54837 3.05455 0
M  V30 3469 H 325.329 5.5027 3.56207 0
M  V30 3470 H 324.849 4.03241 4.44024 0
M  V30 3471 H 326.528 4.62006 4.52946 0
M  V30 3472 N 326.66 -1.06551 1.16123 0
M  V30 3473 C 327.607 -2.13961 0.865414 0
M  V30 3474 C 328.577 -1.65066 -0.185055 0
M  V30 3475 O 329.762 -1.90732 -0.05083 0
M  V30 3476 C 326.902 -3.43113 0.369776 0
M  V30 3477 C 326.015 -4.05756 1.48276 0
M  V30 3478 C 325.15 -5.22773 0.942414 0
M  V30 3479 C 324.189 -5.77395 2.03179 0
M  V30 3480 N 323.326 -6.85731 1.50721 0
M  V30 3481 H 328.166 -2.38605 1.78527 0
M  V30 3482 H 325.703 -1.17072 0.890646 0
M  V30 3483 H 327.661 -4.17151 0.0640643 0
M  V30 3484 H 326.291 -3.18695 -0.513143 0
M  V30 3485 H 325.343 -3.29292 1.9045 0
M  V30 3486 H 326.655 -4.42351 2.30493 0
M  V30 3487 H 325.809 -6.03827 0.589729 0
M  V30 3488 H 324.548 -4.87618 0.0895191 0
M  V30 3489 H 323.553 -4.94981 2.3932 0
M  V30 3490 H 324.778 -6.14603 2.8886 0
M  V30 3491 H 322.724 -6.52499 0.676811 0
M  V30 3492 H 322.641 -7.21254 2.26557 0
M  V30 3493 H 323.909 -7.7047 1.18303 0
M  V30 3494 N 328.138 -0.959301 -1.25041 0
M  V30 3495 C 329.085 -0.482057 -2.2571 0
M  V30 3496 C 330.055 0.467939 -1.59372 0
M  V30 3497 O 331.24 0.380159 -1.86974 0
M  V30 3498 C 328.38 0.229623 -3.44335 0
M  V30 3499 C 327.493 -0.758156 -4.25295 0
M  V30 3500 C 326.628 -0.0234403 -5.31195 0
M  V30 3501 C 325.667 -1.00184 -6.03846 0
M  V30 3502 N 324.804 -0.29769 -7.01469 0
M  V30 3503 H 329.644 -1.34538 -2.65901 0
M  V30 3504 H 327.181 -0.674592 -1.3072 0
M  V30 3505 H 329.139 0.658856 -4.11965 0
M  V30 3506 H 327.769 1.05696 -3.05005 0
M  V30 3507 H 326.821 -1.30586 -3.57284 0
M  V30 3508 H 328.133 -1.50458 -4.75567 0
M  V30 3509 H 327.287 0.464201 -6.04922 0
M  V30 3510 H 326.026 0.755741 -4.81809 0
M  V30 3511 H 325.031 -1.50044 -5.2893 0
M  V30 3512 H 326.256 -1.78133 -6.55321 0
M  V30 3513 H 324.202 0.462668 -6.54366 0
M  V30 3514 H 324.119 -0.983128 -7.4958 0
M  V30 3515 H 325.387 0.16826 -7.79318 0
M  V30 3516 N 329.616 1.39756 -0.72842 0
M  V30 3517 C 330.841 2.05472 -0.282159 0
M  V30 3518 C 331.266 1.54549 1.07221 0
M  V30 3519 O 330.624 0.686372 1.67805 0
M  V30 3520 C 330.672 3.59462 -0.286264 0
M  V30 3521 O 329.776 4.05918 0.728298 0
M  V30 3522 H 329.117 0.651226 -0.129618 0
M  V30 3523 H 331.647 1.78915 -0.992499 0
M  V30 3524 H 331.657 4.07798 -0.128373 0
M  V30 3525 H 330.332 3.95889 -1.27456 0
M  V30 3526 H 328.909 3.69012 0.537081 0
M  V30 3527 N 331.094 0.475555 1.50254 0
M  V30 3528 C 332.341 -0.0778919 2.0235 0
M  V30 3529 C 332.669 -1.39319 1.35722 0
M  V30 3530 O 331.924 -1.89888 0.473395 0
M  V30 3531 C 332.223 -0.305114 3.56095 0
M  V30 3532 C 331.889 0.92903 4.41225 0
M  V30 3533 C 330.551 1.26739 4.6421 0
M  V30 3534 C 332.903 1.75054 4.90923 0
M  V30 3535 C 330.231 2.42724 5.34137 0
M  V30 3536 C 332.583 2.9017 5.62125 0
M  V30 3537 C 331.247 3.24416 5.83362 0
M  V30 3538 H 330.517 -0.0285027 0.740452 0
M  V30 3539 H 333.164 0.630543 1.80821 0
M  V30 3540 H 331.469 -1.09584 3.76163 0
M  V30 3541 H 333.166 -0.747377 3.93974 0
M  V30 3542 H 329.756 0.655428 4.23559 0
M  V30 3543 H 333.94 1.50231 4.73016 0
M  V30 3544 H 329.196 2.69525 5.48786 0
M  V30 3545 H 333.37 3.54169 5.99614 0
M  V30 3546 H 330.997 4.14396 6.37323 0
M  V30 3547 N 332.573 -1.56217 0.208337 0
M  V30 3548 C 333.798 -2.02782 -0.435222 0
M  V30 3549 C 334.223 -1.08738 -1.53485 0
M  V30 3550 O 333.581 -0.0731855 -1.81152 0
M  V30 3551 C 333.629 -3.47687 -0.956335 0
M  V30 3552 O 332.733 -3.56773 -2.06849 0
M  V30 3553 H 332.074 -0.656403 -0.100158 0
M  V30 3554 H 334.604 -2.02033 0.3231 0
M  V30 3555 H 334.614 -3.87745 -1.26955 0
M  V30 3556 H 333.289 -4.15624 -0.15143 0
M  V30 3557 H 331.866 -3.28597 -1.76292 0
M  V30 3558 N 334.051 0.0651679 -1.57465 0
M  V30 3559 C 335.299 0.761555 -1.87202 0
M  V30 3560 C 335.62 1.77778 -0.801243 0
M  V30 3561 O 334.89 1.95166 0.16937 0
M  V30 3562 H 333.47 0.284251 -0.690804 0
M  V30 3563 H 336.132 0.0396827 -1.9486 0
M  V30 3564 H 335.228 1.27365 -2.84929 0
M  V30 3565 N 335.529 1.53961 0.336706 0
M  V30 3566 C 336.476 1.82428 1.41381 0
M  V30 3567 C 337.446 0.670444 1.51968 0
M  V30 3568 O 338.631 0.915565 1.67398 0
M  V30 3569 C 335.771 2.04564 2.77934 0
M  V30 3570 C 334.884 3.32267 2.76084 0
M  V30 3571 C 334.019 3.44434 4.04399 0
M  V30 3572 C 333.058 4.66061 3.96804 0
M  V30 3573 N 332.195 4.75224 5.16823 0
M  V30 3574 H 337.035 2.74324 1.16405 0
M  V30 3575 H 334.572 1.35869 0.563752 0
M  V30 3576 H 336.53 2.15388 3.57301 0
M  V30 3577 H 335.16 1.15974 3.01247 0
M  V30 3578 H 334.212 3.3025 1.88784 0
M  V30 3579 H 335.524 4.21733 2.66351 0
M  V30 3580 H 334.678 3.54728 4.92192 0
M  V30 3581 H 333.417 2.53037 4.16921 0
M  V30 3582 H 332.422 4.55838 3.07396 0
M  V30 3583 H 333.647 5.58829 3.85858 0
M  V30 3584 H 331.593 3.86739 5.29876 0
M  V30 3585 H 331.51 5.58636 5.09374 0
M  V30 3586 H 332.778 4.89835 6.06367 0
M  V30 3587 N 337.007 -0.598083 1.45811 0
M  V30 3588 C 337.954 -1.7082 1.55207 0
M  V30 3589 C 338.924 -1.61278 0.39732 0
M  V30 3590 O 340.109 -1.80717 0.612038 0
M  V30 3591 C 337.249 -3.09144 1.53376 0
M  V30 3592 C 336.362 -3.29423 2.79472 0
M  V30 3593 C 335.497 -4.57907 2.69248 0
M  V30 3594 C 334.536 -4.71476 3.90354 0
M  V30 3595 N 333.673 -5.9127 3.78608 0
M  V30 3596 H 338.513 -1.62125 2.50039 0
M  V30 3597 H 336.05 -0.790389 1.24062 0
M  V30 3598 H 338.008 -3.89186 1.50301 0
M  V30 3599 H 336.638 -3.16773 0.620876 0
M  V30 3600 H 335.69 -2.43091 2.92594 0
M  V30 3601 H 337.002 -3.3532 3.69272 0
M  V30 3602 H 336.156 -5.46157 2.64192 0
M  V30 3603 H 334.895 -4.54423 1.77063 0
M  V30 3604 H 333.9 -3.81648 3.95759 0
M  V30 3605 H 335.125 -4.76751 4.83617 0
M  V30 3606 H 333.071 -5.88813 2.89199 0
M  V30 3607 H 332.988 -5.98369 4.6205 0
M  V30 3608 H 334.256 -6.81992 3.77501 0
M  V30 3609 N 338.485 -1.33259 -0.841409 0
M  V30 3610 C 339.733 -1.24326 -1.59334 0
M  V30 3611 C 340.054 0.191564 -1.94057 0
M  V30 3612 O 339.324 1.11967 -1.60749 0
M  V30 3613 H 337.904 -0.457174 -0.590763 0
M  V30 3614 H 340.566 -1.66947 -1.00571 0
M  V30 3615 H 339.662 -1.8352 -2.52442 0
M  V30 3616 N 339.963 1.05934 -1.16686 0
M  V30 3617 C 340.913 2.11764 -0.844978 0
M  V30 3618 C 341.897 1.59922 0.177178 0
M  V30 3619 O 343.089 1.76983 -0.0241768 0
M  V30 3620 C 340.218 3.41493 -0.351812 0
M  V30 3621 C 339.304 4.00152 -1.40496 0
M  V30 3622 N 339.695 4.32874 -2.61636 0
M  V30 3623 C 337.993 4.278 -1.26106 0
M  V30 3624 C 338.694 4.79552 -3.29249 0
M  V30 3625 N 337.67 4.79211 -2.56628 0
M  V30 3626 H 341.472 2.34916 -1.76612 0
M  V30 3627 H 338.986 1.23511 -1.05446 0
M  V30 3628 H 340.983 4.16773 -0.102796 0
M  V30 3629 H 339.643 3.19778 0.56322 0
M  V30 3630 H 340.654 4.23109 -2.98663 0
M  V30 3631 H 337.331 4.15511 -0.407081 0
M  V30 3632 H 338.721 5.14045 -4.32675 0
M  V30 3633 N 341.441 0.965919 1.2453 0
M  V30 3634 C 342.687 0.62776 1.92839 0
M  V30 3635 C 343.02 -0.834694 1.75347 0
M  V30 3636 O 342.295 -1.60031 1.10546 0
M  V30 3637 C 342.578 1.00109 3.45905 0
M  V30 3638 C 342.431 2.52011 3.72573 0
M  V30 3639 C 343.75 0.53435 4.36844 0
M  V30 3640 H 340.869 0.229537 0.700344 0
M  V30 3641 H 343.511 1.2046 1.46933 0
M  V30 3642 H 341.661 0.510238 3.85135 0
M  V30 3643 H 343.333 3.08559 3.42912 0
M  V30 3644 H 341.576 2.95287 3.17786 0
M  V30 3645 H 342.247 2.73183 4.79661 0
M  V30 3646 H 344.723 0.955565 4.04979 0
M  V30 3647 H 343.599 0.824152 5.42678 0
M  V30 3648 H 343.86 -0.565589 4.38467 0
M  V30 3649 N 342.919 -1.39368 0.735821 0
M  V30 3650 C 343.849 -2.33234 0.111506 0
M  V30 3651 C 344.83 -1.53954 -0.723334 0
M  V30 3652 O 346.015 -1.82344 -0.668147 0
M  V30 3653 C 343.145 -3.38057 -0.795917 0
M  V30 3654 C 342.099 -4.2795 -0.065172 0
M  V30 3655 C 341.425 -5.23479 -1.08967 0
M  V30 3656 C 342.725 -5.10741 1.09273 0
M  V30 3657 H 344.419 -2.85692 0.895571 0
M  V30 3658 H 341.965 -1.37364 0.432109 0
M  V30 3659 H 343.918 -4.02675 -1.24221 0
M  V30 3660 H 342.642 -2.8404 -1.61211 0
M  V30 3661 H 341.301 -3.64813 0.361511 0
M  V30 3662 H 340.949 -4.65758 -1.89944 0
M  V30 3663 H 340.649 -5.84472 -0.605489 0
M  V30 3664 H 342.173 -5.90974 -1.53565 0
M  V30 3665 H 343.587 -5.68699 0.724841 0
M  V30 3666 H 341.984 -5.8088 1.50659 0
M  V30 3667 H 343.054 -4.45525 1.91404 0
M  V30 3668 N 344.397 -0.483516 -1.5 0
M  V30 3669 C 345.644 0.0671597 -2.02389 0
M  V30 3670 C 345.972 1.38597 -1.36459 0
M  V30 3671 O 345.227 1.89634 -0.483458 0
M  V30 3672 C 345.526 0.286226 -3.56252 0
M  V30 3673 C 345.192 -0.952416 -4.40726 0
M  V30 3674 C 343.854 -1.29199 -4.63531 0
M  V30 3675 C 346.206 -1.77655 -4.89988 0
M  V30 3676 C 343.534 -2.45553 -5.32842 0
M  V30 3677 C 345.886 -2.93147 -5.60578 0
M  V30 3678 C 344.55 -3.27505 -5.81633 0
M  V30 3679 H 343.82 0.0245755 -0.740592 0
M  V30 3680 H 346.467 -0.640124 -1.80485 0
M  V30 3681 H 344.772 1.07587 -3.76739 0
M  V30 3682 H 346.469 0.726473 -3.94365 0
M  V30 3683 H 343.059 -0.677881 -4.23205 0
M  V30 3684 H 347.243 -1.52737 -4.72213 0
M  V30 3685 H 342.499 -2.72431 -5.47349 0
M  V30 3686 H 346.673 -3.57344 -5.97727 0
M  V30 3687 H 344.3 -4.1777 -6.35116 0
M  V30 3688 N 345.875 1.56104 -0.216619 0
M  V30 3689 C 347.291 1.58995 0.13886 0
M  V30 3690 C 347.491 1.23333 1.59346 0
M  V30 3691 O 346.547 0.966234 2.33281 0
M  V30 3692 C 347.86 3.00143 -0.182968 0
M  V30 3693 C 349.408 3.12751 -0.124807 0
M  V30 3694 C 349.883 4.56068 -0.420241 0
M  V30 3695 N 351.374 4.61723 -0.369634 0
M  V30 3696 C 352.109 5.70542 -0.571789 0
M  V30 3697 N 351.605 6.87744 -0.835453 0
M  V30 3698 N 353.398 5.59831 -0.504563 0
M  V30 3699 H 345.549 1.77562 -1.16557 0
M  V30 3700 H 347.812 0.825091 -0.466828 0
M  V30 3701 H 347.518 3.30871 -1.19237 0
M  V30 3702 H 347.392 3.73813 0.504367 0
M  V30 3703 H 349.779 2.81822 0.875223 0
M  V30 3704 H 349.86 2.41421 -0.845544 0
M  V30 3705 H 349.504 4.87713 -1.41769 0
M  V30 3706 H 349.434 5.25617 0.321631 0
M  V30 3707 H 351.925 3.77502 -0.173338 0
M  V30 3708 H 352.238 7.66587 -0.977938 0
M  V30 3709 H 350.583 6.895 -0.872592 0
M  V30 3710 H 353.774 4.67145 -0.298842 0
M  V30 3711 H 353.947 6.44573 -0.665519 0
M  V30 3712 N 347.353 -0.0568162 1.57498 0
M  V30 3713 C 348.764 -0.606858 1.76562 0
M  V30 3714 C 349.115 -1.77114 0.844094 0
M  V30 3715 O 348.24 -2.16376 0.0318911 0
M  V30 3716 C 348.835 -1.10766 3.20182 0
M  V30 3717 C 347.394 -1.60344 3.40539 0
M  V30 3718 C 346.541 -0.529311 2.72201 0
M  V30 3719 H 349.492 0.169393 1.57793 0
M  V30 3720 H 349.513 -1.97602 3.25167 0
M  V30 3721 H 349.025 -0.26006 3.87228 0
M  V30 3722 H 347.126 -2.47379 2.78629 0
M  V30 3723 H 347.239 -1.67006 4.4905 0
M  V30 3724 H 345.603 -0.977893 2.35179 0
M  V30 3725 H 346.386 0.308352 3.41912 0
M  V30 3726 N 348.832 -1.54138 -0.328536 0
M  V30 3727 C 350.06 -1.76062 -1.08673 0
M  V30 3728 C 350.475 -0.506852 -1.81869 0
M  V30 3729 O 349.832 0.522223 -1.74869 0
M  V30 3730 C 349.883 -2.95054 -2.08866 0
M  V30 3731 O 349.604 -4.15583 -1.38644 0
M  V30 3732 C 351.105 -3.2915 -2.96943 0
M  V30 3733 H 348.325 -0.587889 -0.323461 0
M  V30 3734 H 350.869 -2.0101 -0.376175 0
M  V30 3735 H 349.024 -2.72394 -2.75464 0
M  V30 3736 H 349.438 -4.82481 -2.05699 0
M  V30 3737 H 350.912 -4.15723 -3.63151 0
M  V30 3738 H 351.389 -2.461 -3.63774 0
M  V30 3739 H 351.995 -3.53871 -2.35914 0
M  V30 3740 N 350.31 0.590341 -1.46126 0
M  V30 3741 C 351.556 1.35082 -1.51264 0
M  V30 3742 C 351.889 1.93534 -0.160711 0
M  V30 3743 O 351.164 1.76045 0.826956 0
M  V30 3744 C 351.447 2.48588 -2.6053 0
M  V30 3745 C 351.3 1.95221 -4.05227 0
M  V30 3746 C 352.619 3.50662 -2.6594 0
M  V30 3747 H 349.738 0.489803 -0.550692 0
M  V30 3748 H 352.38 0.663887 -1.78024 0
M  V30 3749 H 350.53 3.07186 -2.37843 0
M  V30 3750 H 352.202 1.41139 -4.39178 0
M  V30 3751 H 350.445 1.26101 -4.15068 0
M  V30 3752 H 351.116 2.77121 -4.77397 0
M  V30 3753 H 353.592 3.01934 -2.86313 0
M  V30 3754 H 352.468 4.27551 -3.44226 0
M  V30 3755 H 352.729 4.07399 -1.71694 0
M  V30 3756 N 351.788 1.33704 0.83433 0
M  V30 3757 C 353.013 1.28615 1.62705 0
M  V30 3758 C 353.438 -0.139242 1.87584 0
M  V30 3759 O 352.796 -1.09734 1.4432 0
M  V30 3760 C 352.844 2.07139 2.95171 0
M  V30 3761 O 351.948 1.4331 3.86699 0
M  V30 3762 H 351.289 0.44226 0.49528 0
M  V30 3763 H 353.819 1.76335 1.03766 0
M  V30 3764 H 353.829 2.18073 3.44831 0
M  V30 3765 H 352.504 3.10779 2.76386 0
M  V30 3766 H 351.081 1.4105 3.45195 0
M  V30 3767 N 353.266 -1.05314 1.17247 0
M  V30 3768 C 354.198 -2.13023 0.845812 0
M  V30 3769 C 355.211 -1.62096 -0.151246 0
M  V30 3770 O 356.4 -1.78343 0.0748818 0
M  V30 3771 C 353.5 -3.38047 0.240292 0
M  V30 3772 C 352.673 -4.18255 1.27991 0
M  V30 3773 C 351.732 -5.21625 0.692375 0
M  V30 3774 O 350.758 -5.52619 1.36385 0
M  V30 3775 N 351.96 -5.78201 -0.516178 0
M  V30 3776 H 354.725 -2.41642 1.77283 0
M  V30 3777 H 352.286 -1.21401 1.07115 0
M  V30 3778 H 354.278 -4.04359 -0.16603 0
M  V30 3779 H 352.848 -3.06972 -0.590487 0
M  V30 3780 H 352.068 -3.47451 1.86203 0
M  V30 3781 H 353.356 -4.68643 1.98119 0
M  V30 3782 H 352.754 -5.55301 -1.07969 0
M  V30 3783 H 351.311 -6.4604 -0.86458 0
M  V30 3784 N 354.744 -0.972509 -1.24016 0
M  V30 3785 C 355.676 -0.464375 -2.24446 0
M  V30 3786 C 356.689 0.4295 -1.57032 0
M  V30 3787 O 357.878 0.234902 -1.76948 0
M  V30 3788 C 354.978 0.348385 -3.37105 0
M  V30 3789 C 354.151 -0.53673 -4.34094 0
M  V30 3790 C 353.21 0.220838 -5.25736 0
M  V30 3791 O 352.236 -0.386867 -5.67884 0
M  V30 3792 N 353.438 1.50907 -5.60542 0
M  V30 3793 H 356.203 -1.32788 -2.68677 0
M  V30 3794 H 353.764 -0.844877 -1.38107 0
M  V30 3795 H 355.756 0.863341 -3.95384 0
M  V30 3796 H 354.326 1.11285 -2.92121 0
M  V30 3797 H 353.546 -1.23261 -3.74433 0
M  V30 3798 H 354.834 -1.14022 -4.95859 0
M  V30 3799 H 354.232 2.02444 -5.28236 0
M  V30 3800 H 352.789 1.96962 -6.21329 0
M  V30 3801 N 356.222 1.38976 -0.743202 0
M  V30 3802 C 357.154 2.29096 -0.0689228 0
M  V30 3803 C 358.167 1.47229 0.694791 0
M  V30 3804 O 359.356 1.70212 0.537597 0
M  V30 3805 C 356.456 3.25988 0.926548 0
M  V30 3806 C 355.629 4.36833 0.222647 0
M  V30 3807 C 354.688 5.13981 1.12739 0
M  V30 3808 O 353.714 5.6601 0.601795 0
M  V30 3809 N 354.916 5.25966 2.45641 0
M  V30 3810 H 357.681 2.87604 -0.842846 0
M  V30 3811 H 355.242 1.50645 -0.593109 0
M  V30 3812 H 357.234 3.74476 1.5346 0
M  V30 3813 H 355.804 2.68453 1.60162 0
M  V30 3814 H 355.024 3.90116 -0.565983 0
M  V30 3815 H 356.312 5.0811 -0.264841 0
M  V30 3816 H 355.71 4.85228 2.9081 0
M  V30 3817 H 354.267 5.77865 3.01522 0
M  V30 3818 N 357.7 0.491464 1.49741 0
M  V30 3819 C 358.925 -0.0557177 2.07325 0
M  V30 3820 C 359.35 -1.30925 1.35056 0
M  V30 3821 O 358.708 -1.76733 0.404365 0
M  V30 3822 C 358.756 -0.302074 3.59333 0
M  V30 3823 O 357.86 -1.37868 3.88672 0
M  V30 3824 H 357.201 0.0219956 0.663636 0
M  V30 3825 H 359.731 0.688352 1.92673 0
M  V30 3826 H 359.741 -0.536464 4.04458 0
M  V30 3827 H 358.416 0.61383 4.11345 0
M  V30 3828 H 356.993 -1.12999 3.55367 0
M  V30 3829 N 359.178 -1.55987 0.224894 0
M  V30 3830 C 360.418 -2.00293 -0.407706 0
M  V30 3831 C 360.782 -1.1093 -1.56711 0
M  V30 3832 O 361.983 -1.44597 -2.26595 0
M  V30 3833 C 360.254 -3.47675 -0.82805 0
M  V30 3834 S 361.813 -4.14 -1.45429 0
M  V30 3835 H 358.631 -0.699152 -0.129256 0
M  V30 3836 H 361.233 -1.92609 0.334967 0
M  V30 3837 H 359.937 -4.10392 0.0253964 0
M  V30 3838 H 359.468 -3.59239 -1.60345 0
M  V30 3839 H 361.483 -4.13465 -2.74337 0
M  V30 3840 N 360.656 0.0484629 -1.57525 0
M  V30 3841 C 362.067 0.597486 -1.76881 0
M  V30 3842 C 362.418 1.76664 -0.853475 0
M  V30 3843 O 361.543 2.16357 -0.0433656 0
M  V30 3844 C 362.138 1.09066 -3.20765 0
M  V30 3845 C 360.697 1.58535 -3.41385 0
M  V30 3846 C 359.844 0.514868 -2.72478 0
M  V30 3847 H 362.795 -0.177758 -1.57701 0
M  V30 3848 H 362.816 1.95875 -3.2621 0
M  V30 3849 H 362.328 0.239521 -3.8736 0
M  V30 3850 H 360.429 2.45898 -2.79937 0
M  V30 3851 H 360.542 1.64622 -4.49929 0
M  V30 3852 H 358.906 0.965407 -2.35695 0
M  V30 3853 H 359.689 -0.32648 -3.41744 0
M  V30 3854 N 362.134 1.5431 0.320358 0
M  V30 3855 C 363.362 1.76636 1.07738 0
M  V30 3856 C 363.777 0.51649 1.81598 0
M  V30 3857 O 363.134 -0.512942 1.75143 0
M  V30 3858 C 363.185 2.96158 2.07299 0
M  V30 3859 O 362.906 4.16313 1.36438 0
M  V30 3860 C 364.407 3.3072 2.95193 0
M  V30 3861 H 361.627 0.589597 0.320339 0
M  V30 3862 H 364.171 2.01207 0.36551 0
M  V30 3863 H 362.326 2.73851 2.74016 0
M  V30 3864 H 362.74 4.83565 2.03138 0
M  V30 3865 H 364.214 4.17643 3.60941 0
M  V30 3866 H 364.691 2.48026 3.62463 0
M  V30 3867 H 365.297 3.55117 2.34034 0
M  V30 3868 N 363.613 -0.582584 1.46437 0
M  V30 3869 C 364.853 -1.35184 1.53312 0
M  V30 3870 C 365.217 -1.9115 0.180508 0
M  V30 3871 O 366.418 -2.68514 0.124017 0
M  V30 3872 C 364.689 -2.45089 2.60127 0
M  V30 3873 S 366.248 -3.32439 2.86408 0
M  V30 3874 H 363.066 -0.460559 0.54167 0
M  V30 3875 H 365.668 -0.669709 1.83671 0
M  V30 3876 H 364.372 -2.02366 3.57038 0
M  V30 3877 H 363.903 -3.18074 2.315 0
M  V30 3878 H 365.918 -4.43924 2.21688 0
M  V30 3879 N 365.091 -1.34144 -0.827227 0
M  V30 3880 C 366.316 -1.29476 -1.62021 0
M  V30 3881 C 366.741 0.129292 -1.87655 0
M  V30 3882 O 366.099 1.08967 -1.449 0
M  V30 3883 C 366.147 -2.08702 -2.94068 0
M  V30 3884 O 365.251 -1.45359 -3.85933 0
M  V30 3885 H 364.592 -0.444881 -0.492927 0
M  V30 3886 H 367.122 -1.76882 -1.02829 0
M  V30 3887 H 367.132 -2.19898 -3.43669 0
M  V30 3888 H 365.807 -3.12241 -2.74734 0
M  V30 3889 H 364.384 -1.42879 -3.44442 0
M  V30 3890 N 366.569 1.04691 -1.17803 0
M  V30 3891 C 367.797 1.81446 -0.99423 0
M  V30 3892 C 368.212 1.83174 0.457459 0
M  V30 3893 O 367.569 1.26265 1.31771 0
M  V30 3894 C 367.62 3.27334 -1.5341 0
M  V30 3895 O 367.341 3.25798 -2.92895 0
M  V30 3896 C 368.842 4.20759 -1.39559 0
M  V30 3897 H 366.062 0.571599 -0.351447 0
M  V30 3898 H 368.606 1.31982 -1.56208 0
M  V30 3899 H 366.761 3.74052 -1.00815 0
M  V30 3900 H 367.175 4.17144 -3.17949 0
M  V30 3901 H 368.649 5.21084 -1.82141 0
M  V30 3902 H 369.126 4.37856 -0.343394 0
M  V30 3903 H 369.732 3.79901 -1.91195 0
M  V30 3904 N 368.047 0.979072 1.23499 0
M  V30 3905 C 369.272 0.664845 1.96455 0
M  V30 3906 C 369.697 -0.761287 1.72006 0
M  V30 3907 O 369.055 -1.51837 0.990713 0
M  V30 3908 C 369.103 0.959479 3.47601 0
M  V30 3909 O 368.207 0.0508168 4.12369 0
M  V30 3910 H 367.548 0.250185 0.615064 0
M  V30 3911 H 370.078 1.31231 1.5697 0
M  V30 3912 H 370.088 0.895642 3.98048 0
M  V30 3913 H 368.763 1.99876 3.64723 0
M  V30 3914 H 367.34 0.16895 3.72517 0
M  V30 3915 N 369.525 -1.3858 0.750561 0
M  V30 3916 C 370.455 -2.33102 0.136237 0
M  V30 3917 C 371.436 -1.54713 -0.706965 0
M  V30 3918 O 372.621 -1.83043 -0.648769 0
M  V30 3919 C 369.751 -3.38882 -0.760017 0
M  V30 3920 C 368.705 -4.27995 -0.0197785 0
M  V30 3921 C 368.031 -5.24605 -1.03408 0
M  V30 3922 C 369.331 -5.09554 1.14684 0
M  V30 3923 H 371.025 -2.84726 0.925822 0
M  V30 3924 H 368.571 -1.36898 0.446654 0
M  V30 3925 H 370.524 -4.0397 -1.19943 0
M  V30 3926 H 369.248 -2.85734 -1.58189 0
M  V30 3927 H 367.907 -3.64409 0.400184 0
M  V30 3928 H 367.555 -4.67746 -1.84994 0
M  V30 3929 H 367.255 -5.85081 -0.543464 0
M  V30 3930 H 368.779 -5.9257 -1.47288 0
M  V30 3931 H 370.193 -5.67899 0.785118 0
M  V30 3932 H 368.59 -5.7925 1.56812 0
M  V30 3933 H 369.66 -4.4347 1.96118 0
M  V30 3934 N 371.003 -0.499398 -1.49478 0
M  V30 3935 C 371.933 0.269244 -2.31943 0
M  V30 3936 C 372.914 0.964054 -1.40143 0
M  V30 3937 O 374.099 0.955767 -1.69052 0
M  V30 3938 C 371.229 1.33504 -3.20615 0
M  V30 3939 C 370.183 0.760202 -4.21195 0
M  V30 3940 C 369.509 1.9264 -4.98792 0
M  V30 3941 C 370.809 -0.247661 -5.21712 0
M  V30 3942 H 372.503 -0.419082 -2.96452 0
M  V30 3943 H 370.049 -0.202988 -1.42562 0
M  V30 3944 H 372.002 1.88048 -3.77115 0
M  V30 3945 H 370.726 2.05253 -2.54045 0
M  V30 3946 H 369.385 0.23653 -3.65836 0
M  V30 3947 H 369.033 2.63154 -4.28671 0
M  V30 3948 H 368.733 1.54785 -5.66847 0
M  V30 3949 H 370.257 2.4762 -5.58137 0
M  V30 3950 H 371.671 0.209579 -5.72917 0
M  V30 3951 H 370.068 -0.541962 -5.97648 0
M  V30 3952 H 371.138 -1.16409 -4.7072 0
M  V30 3953 N 372.481 1.55866 -0.233164 0
M  V30 3954 C 373.429 2.22176 0.68851 0
M  V30 3955 C 374.423 1.20487 1.19076 0
M  V30 3956 O 375.629 1.38536 1.14925 0
M  V30 3957 H 372.004 0.712511 0.240483 0
M  V30 3958 H 373.975 2.98212 0.105935 0
M  V30 3959 C 372.724 2.92446 1.88071 0
M  V30 3960 H 372.047 3.70458 1.50337 0
M  V30 3961 H 373.487 3.42226 2.50314 0
M  V30 3962 C 371.946 1.95555 2.74335 0
M  V30 3963 O 372.476 1.47986 3.73447 0
M  V30 3964 N 370.682 1.62953 2.40613 0
M  V30 3965 H 370.229 2.01831 1.60069 0
M  V30 3966 H 370.187 0.983886 2.98609 0
M  V30 3967 N 373.959 -0.0401083 1.57549 0
M  V30 3968 C 375.207 -0.731677 1.8839 0
M  V30 3969 C 375.528 -1.76481 0.829425 0
M  V30 3970 O 374.798 -1.95411 -0.1383 0
M  V30 3971 H 373.378 -0.273225 0.695239 0
M  V30 3972 H 376.04 -0.00867725 1.94898 0
M  V30 3973 H 375.136 -1.22816 2.86919 0
M  V30 3974 N 375.437 -1.54477 -0.31217 0
M  V30 3975 C 376.387 -1.81037 -1.38598 0
M  V30 3976 C 377.371 -0.666941 -1.46426 0
M  V30 3977 O 378.563 -0.927269 -1.50767 0
M  V30 3978 C 375.692 -2.05127 -2.75277 0
M  V30 3979 C 374.778 -3.25624 -2.71716 0
M  V30 3980 N 375.169 -4.46428 -2.37773 0
M  V30 3981 C 373.467 -3.27427 -3.02833 0
M  V30 3982 C 374.168 -5.28406 -2.43232 0
M  V30 3983 N 373.144 -4.6586 -2.80135 0
M  V30 3984 H 376.946 -2.7201 -1.11301 0
M  V30 3985 H 374.46 -1.53826 -0.520705 0
M  V30 3986 H 376.457 -2.22299 -3.52688 0
M  V30 3987 H 375.117 -1.15416 -3.03495 0
M  V30 3988 H 376.128 -4.73227 -2.1042 0
M  V30 3989 H 372.805 -2.47786 -3.36018 0
M  V30 3990 H 374.195 -6.34903 -2.19882 0
M  V30 3991 N 376.915 0.57481 -1.46744 0
M  V30 3992 C 378.162 1.33272 -1.52462 0
M  V30 3993 C 378.49 1.93669 -0.179572 0
M  V30 3994 O 377.745 1.7743 0.825664 0
M  V30 3995 C 378.044 2.476 -2.57738 0
M  V30 3996 C 377.71 2.05146 -4.01529 0
M  V30 3997 C 376.372 1.93284 -4.40676 0
M  V30 3998 C 378.724 1.72506 -4.91824 0
M  V30 3999 C 376.052 1.47049 -5.67973 0
M  V30 4000 C 378.404 1.27748 -6.19567 0
M  V30 4001 C 377.068 1.14468 -6.57612 0
M  V30 4002 H 376.338 0.487678 -0.557899 0
M  V30 4003 H 378.985 0.646456 -1.80259 0
M  V30 4004 H 377.29 3.21708 -2.23632 0
M  V30 4005 H 378.987 3.05807 -2.5939 0
M  V30 4006 H 375.577 2.15316 -3.7059 0
M  V30 4007 H 379.761 1.80552 -4.62293 0
M  V30 4008 H 375.017 1.35417 -5.96215 0
M  V30 4009 H 379.191 1.01547 -6.88957 0
M  V30 4010 H 376.818 0.78419 -7.56145 0
M  V30 4011 N 378.394 1.34581 0.820102 0
M  V30 4012 C 379.341 1.2639 1.93117 0
M  V30 4013 C 380.311 0.138554 1.65521 0
M  V30 4014 O 381.496 0.320004 1.88097 0
M  V30 4015 C 378.636 1.02812 3.29429 0
M  V30 4016 C 377.749 2.24146 3.693 0
M  V30 4017 C 376.884 1.93829 4.94574 0
M  V30 4018 C 375.923 3.1129 5.27034 0
M  V30 4019 N 375.06 2.80838 6.43486 0
M  V30 4020 H 379.9 2.21408 1.99455 0
M  V30 4021 H 377.437 1.10077 0.975784 0
M  V30 4022 H 379.395 0.871788 4.0799 0
M  V30 4023 H 378.025 0.114612 3.22596 0
M  V30 4024 H 377.077 2.50691 2.86109 0
M  V30 4025 H 378.389 3.11899 3.89257 0
M  V30 4026 H 377.543 1.74948 5.80929 0
M  V30 4027 H 376.282 1.03341 4.76626 0
M  V30 4028 H 375.287 3.30764 4.39175 0
M  V30 4029 H 376.512 4.02561 5.4692 0
M  V30 4030 H 374.458 1.92929 6.26988 0
M  V30 4031 H 374.375 3.62123 6.63629 0
M  V30 4032 H 375.643 2.65467 7.32903 0
M  V30 4033 N 379.872 -1.04064 1.18357 0
M  V30 4034 C 381.118 -1.77528 0.980397 0
M  V30 4035 C 381.451 -1.87948 -0.48879 0
M  V30 4036 O 380.726 -1.3876 -1.36293 0
M  V30 4037 C 381.009 -3.20797 1.63588 0
M  V30 4038 C 380.862 -3.1832 3.17793 0
M  V30 4039 C 382.181 -4.18911 1.34914 0
M  V30 4040 H 379.3 -0.644443 0.357578 0
M  V30 4041 H 381.942 -1.2156 1.46024 0
M  V30 4042 H 380.092 -3.68586 1.22788 0
M  V30 4043 H 381.764 -2.78521 3.67728 0
M  V30 4044 H 380.007 -2.56351 3.49952 0
M  V30 4045 H 380.678 -4.19489 3.58794 0
M  V30 4046 H 383.154 -3.7967 1.70265 0
M  V30 4047 H 382.03 -5.17374 1.83346 0
M  V30 4048 H 382.291 -4.41262 0.272027 0
M  V30 4049 N 381.35 -0.985608 -1.22978 0
M  V30 4050 C 382.578 -0.675582 -1.95559 0
M  V30 4051 C 382.993 0.758413 -1.72897 0
M  V30 4052 O 382.35 1.51094 -1.02357 0
M  V30 4053 C 382.401 -0.96293 -3.48439 0
M  V30 4054 O 382.122 -2.34057 -3.70336 0
M  V30 4055 C 383.623 -0.669585 -4.38214 0
M  V30 4056 H 380.843 -0.250523 -0.622478 0
M  V30 4057 H 383.387 -1.3184 -1.56328 0
M  V30 4058 H 381.542 -0.366033 -3.85667 0
M  V30 4059 H 381.956 -2.43424 -4.64591 0
M  V30 4060 H 383.43 -0.920967 -5.44263 0
M  V30 4061 H 383.907 0.396383 -4.37408 0
M  V30 4062 H 384.513 -1.2472 -4.06602 0
M  V30 4063 N 382.828 1.3818 -0.7579 0
M  V30 4064 C 384.058 2.04004 -0.326463 0
M  V30 4065 C 384.466 1.57286 1.05156 0
M  V30 4066 O 383.809 0.743144 1.67997 0
M  V30 4067 C 383.871 3.58444 -0.275402 0
M  V30 4068 C 383.535 4.28237 -1.59569 0
M  V30 4069 C 384.532 4.53312 -2.54566 0
M  V30 4070 C 382.217 4.66341 -1.86631 0
M  V30 4071 C 384.211 5.15531 -3.74842 0
M  V30 4072 C 381.898 5.28283 -3.0718 0
M  V30 4073 C 382.896 5.52814 -4.01106 0
M  V30 4074 O 382.584 6.13465 -5.19534 0
M  V30 4075 H 382.316 0.662026 -0.136739 0
M  V30 4076 H 384.87 1.7777 -1.02893 0
M  V30 4077 H 383.1 3.83667 0.483337 0
M  V30 4078 H 384.789 4.05701 0.127099 0
M  V30 4079 H 385.555 4.24299 -2.34936 0
M  V30 4080 H 381.434 4.46591 -1.14358 0
M  V30 4081 H 384.978 5.34594 -4.48168 0
M  V30 4082 H 380.875 5.56719 -3.26702 0
M  V30 4083 H 381.643 6.31951 -5.20173 0
M  V30 4084 N 384.306 0.507319 1.49211 0
M  V30 4085 C 385.583 -0.0982702 1.95353 0
M  V30 4086 C 385.963 -1.53516 1.449 0
M  V30 4087 O 385.311 -2.18594 0.66551 0
M  V30 4088 C 385.521 -0.00440283 3.49 0
M  V30 4089 C 386.869 -0.175147 4.24239 0
M  V30 4090 O 387.893 -0.0792891 3.56112 0
M  V30 4091 O 386.752 -0.37276 5.45227 0
M  V30 4092 H 383.846 -0.0918236 0.821887 0
M  V30 4093 H 386.392 0.570307 1.5983 0
M  V30 4094 H 385.164 0.997402 3.78375 0
M  V30 4095 H 384.787 -0.712845 3.91158 0
M  V30 4096 N 385.784 -1.5574 0.241426 0
M  V30 4097 C 387.03 -1.99104 -0.385406 0
M  V30 4098 C 387.363 -1.1293 -1.57988 0
M  V30 4099 O 386.638 -0.191449 -1.93555 0
M  V30 4100 C 386.921 -3.51087 -0.800616 0
M  V30 4101 C 386.774 -4.48028 0.398874 0
M  V30 4102 C 388.093 -4.08015 -1.64959 0
M  V30 4103 H 385.212 -0.723848 -0.138614 0
M  V30 4104 H 387.854 -1.86903 0.341642 0
M  V30 4105 H 386.004 -3.61615 -1.4201 0
M  V30 4106 H 387.676 -4.49487 1.03726 0
M  V30 4107 H 385.919 -4.21077 1.04293 0
M  V30 4108 H 386.59 -5.51962 0.0651056 0
M  V30 4109 H 389.066 -4.00555 -1.12672 0
M  V30 4110 H 387.942 -5.14635 -1.90898 0
M  V30 4111 H 388.203 -3.56131 -2.61961 0
M  V30 4112 N 387.262 0.0317525 -1.57568 0
M  V30 4113 C 388.487 0.738664 -1.938 0
M  V30 4114 C 388.912 1.68242 -0.841208 0
M  V30 4115 O 388.27 1.80157 0.203267 0
M  V30 4116 C 388.318 1.47417 -3.29091 0
M  V30 4117 O 387.422 2.5872 -3.2115 0
M  V30 4118 H 386.763 0.198856 -0.633524 0
M  V30 4119 H 389.293 -0.0119713 -2.04596 0
M  V30 4120 H 389.303 1.84468 -3.63917 0
M  V30 4121 H 387.978 0.781988 -4.08482 0
M  V30 4122 H 386.555 2.24231 -2.97951 0
M  V30 4123 N 388.74 1.54641 0.303973 0
M  V30 4124 C 390.156 1.45788 0.649463 0
M  V30 4125 C 390.356 0.64666 1.90842 0
M  V30 4126 O 389.412 0.153183 2.52035 0
M  V30 4127 C 390.725 2.89718 0.805227 0
M  V30 4128 C 392.273 2.99742 0.901305 0
M  V30 4129 C 392.748 4.44863 1.08909 0
M  V30 4130 N 394.239 4.48559 1.15536 0
M  V30 4131 C 394.974 5.58026 1.3189 0
M  V30 4132 N 394.47 6.77422 1.45161 0
M  V30 4133 N 396.263 5.45708 1.34755 0
M  V30 4134 H 388.414 2.05854 -0.523237 0
M  V30 4135 H 390.677 0.932186 -0.172431 0
M  V30 4136 H 390.383 3.51666 -0.0489108 0
M  V30 4137 H 390.257 3.36964 1.69513 0
M  V30 4138 H 392.644 2.3791 1.74593 0
M  V30 4139 H 392.725 2.55797 -0.0125531 0
M  V30 4140 H 392.369 5.07288 0.249241 0
M  V30 4141 H 392.299 4.86436 2.01713 0
M  V30 4142 H 394.79 3.6254 1.06646 0
M  V30 4143 H 395.103 7.56604 1.57387 0
M  V30 4144 H 393.448 6.80292 1.42223 0
M  V30 4145 H 396.639 4.51378 1.23996 0
M  V30 4146 H 396.812 6.3107 1.47157 0
M  V30 4147 N 390.218 -0.567019 1.47046 0
M  V30 4148 C 391.495 -1.3276 1.43646 0
M  V30 4149 C 391.875 -2.1071 0.128186 0
M  V30 4150 O 391.223 -2.10441 -0.890326 0
M  V30 4151 C 391.433 -2.2404 2.67595 0
M  V30 4152 C 392.781 -2.85372 3.14401 0
M  V30 4153 O 393.805 -2.34346 2.68254 0
M  V30 4154 O 392.664 -3.78091 3.946 0
M  V30 4155 H 389.758 -0.597293 0.571988 0
M  V30 4156 H 392.304 -0.586735 1.59234 0
M  V30 4157 H 391.076 -1.65975 3.54356 0
M  V30 4158 H 390.699 -3.05439 2.54544 0
M  V30 4159 N 391.696 -1.35014 -0.812953 0
M  V30 4160 C 392.643 -1.27412 -1.92444 0
M  V30 4161 C 393.613 -0.14733 -1.65445 0
M  V30 4162 O 394.798 -0.329974 -1.87925 0
M  V30 4163 C 391.938 -1.04558 -3.28879 0
M  V30 4164 C 391.051 -2.26101 -3.68106 0
M  V30 4165 C 390.186 -1.96449 -4.9354 0
M  V30 4166 C 389.225 -3.14081 -5.25376 0
M  V30 4167 N 388.362 -2.84246 -6.41988 0
M  V30 4168 H 393.202 -2.22463 -1.98278 0
M  V30 4169 H 390.739 -1.10593 -0.969933 0
M  V30 4170 H 392.697 -0.893413 -4.07522 0
M  V30 4171 H 391.327 -0.131719 -3.22531 0
M  V30 4172 H 390.379 -2.52204 -2.84775 0
M  V30 4173 H 391.691 -3.13959 -3.87597 0
M  V30 4174 H 390.845 -1.78026 -5.79993 0
M  V30 4175 H 389.584 -1.05867 -4.76071 0
M  V30 4176 H 388.589 -3.33089 -4.37415 0
M  V30 4177 H 389.814 -4.05455 -5.44778 0
M  V30 4178 H 387.76 -1.96252 -6.25956 0
M  V30 4179 H 387.677 -3.65637 -6.61699 0
M  V30 4180 H 388.945 -2.6935 -7.31485 0
M  V30 4181 N 393.175 1.03435 -1.18907 0
M  V30 4182 C 394.424 1.76143 -0.982669 0
M  V30 4183 C 394.737 1.89416 0.487953 0
M  V30 4184 O 395.943 2.59041 0.813036 0
M  V30 4185 C 394.399 3.16722 -1.70924 0
M  V30 4186 C 394.007 3.11522 -3.21959 0
M  V30 4187 C 395.751 3.93764 -1.58588 0
M  V30 4188 C 393.658 4.46999 -3.87228 0
M  V30 4189 H 392.588 0.660292 -0.364047 0
M  V30 4190 H 395.239 1.158 -1.42347 0
M  V30 4191 H 393.621 3.775 -1.19623 0
M  V30 4192 H 394.795 2.60158 -3.80335 0
M  V30 4193 H 393.11 2.47978 -3.34508 0
M  V30 4194 H 395.707 4.93963 -2.04707 0
M  V30 4195 H 396.05 4.12794 -0.539142 0
M  V30 4196 H 396.583 3.39576 -2.07203 0
M  V30 4197 H 393.322 4.33174 -4.91976 0
M  V30 4198 H 392.842 4.98441 -3.33642 0
M  V30 4199 H 394.521 5.15898 -3.90459 0
M  V30 4200 N 394.653 0.992116 1.22453 0
M  V30 4201 C 395.893 0.675727 1.92907 0
M  V30 4202 C 396.257 -0.777762 1.75542 0
M  V30 4203 O 397.458 -1.20553 2.40251 0
M  V30 4204 C 395.729 1.0696 3.4102 0
M  V30 4205 S 397.288 0.871456 4.30059 0
M  V30 4206 H 394.106 0.247089 0.666684 0
M  V30 4207 H 396.708 1.27423 1.48269 0
M  V30 4208 H 395.412 2.12383 3.51172 0
M  V30 4209 H 394.943 0.462858 3.90668 0
M  V30 4210 H 396.958 -0.238436 4.95627 0
M  V30 4211 N 396.131 -1.37776 0.765217 0
M  V30 4212 C 397.408 -1.93975 0.251596 0
M  V30 4213 C 397.788 -1.69949 -1.25222 0
M  V30 4214 O 397.136 -1.04457 -2.03226 0
M  V30 4215 C 397.346 -3.43487 0.617895 0
M  V30 4216 C 398.694 -4.20564 0.584029 0
M  V30 4217 O 399.718 -3.5182 0.556888 0
M  V30 4218 O 398.577 -5.43138 0.605291 0
M  V30 4219 H 395.671 -0.82509 0.0561806 0
M  V30 4220 H 398.217 -1.47101 0.846128 0
M  V30 4221 H 396.989 -3.5453 1.65602 0
M  V30 4222 H 396.612 -3.976 -0.00403411 0
M  V30 4223 N 397.609 -0.515225 -1.4894 0
M  V30 4224 C 398.539 0.244628 -2.32215 0
M  V30 4225 C 399.52 0.949136 -1.41157 0
M  V30 4226 O 400.705 0.937783 -1.70057 0
M  V30 4227 C 397.835 1.30096 -3.22013 0
M  V30 4228 C 396.789 0.715486 -4.21977 0
M  V30 4229 C 396.115 1.87339 -5.00808 0
M  V30 4230 C 397.415 -0.302982 -5.2142 0
M  V30 4231 H 399.109 -0.450501 -2.95991 0
M  V30 4232 H 396.655 -0.218098 -1.42339 0
M  V30 4233 H 398.608 1.84037 -3.79089 0
M  V30 4234 H 397.332 2.02547 -2.56207 0
M  V30 4235 H 395.991 0.197715 -3.66066 0
M  V30 4236 H 395.639 2.58592 -4.31438 0
M  V30 4237 H 395.339 1.48764 -5.68457 0
M  V30 4238 H 396.863 2.41686 -5.60732 0
M  V30 4239 H 398.277 0.148802 -5.73107 0
M  V30 4240 H 396.674 -0.60532 -5.97039 0
M  V30 4241 H 397.744 -1.21395 -4.69459 0
M  V30 4242 N 399.087 1.5561 -0.249682 0
M  V30 4243 C 400.017 2.24477 0.642826 0
M  V30 4244 C 400.998 1.22601 1.17911 0
M  V30 4245 O 402.183 1.5126 1.21795 0
M  V30 4246 C 399.313 2.94638 1.83863 0
M  V30 4247 C 398.267 4.03227 1.435 0
M  V30 4248 C 397.593 4.60828 2.71186 0
M  V30 4249 C 398.893 5.18796 0.604002 0
M  V30 4250 H 400.587 2.99321 0.0685625 0
M  V30 4251 H 398.133 1.43965 0.0315363 0
M  V30 4252 H 400.086 3.41517 2.46868 0
M  V30 4253 H 398.81 2.17287 2.43832 0
M  V30 4254 H 397.469 3.57121 0.828275 0
M  V30 4255 H 397.117 3.80174 3.29358 0
M  V30 4256 H 396.817 5.34132 2.44901 0
M  V30 4257 H 398.341 5.10442 3.35084 0
M  V30 4258 H 399.755 5.61883 1.13842 0
M  V30 4259 H 398.152 5.98506 0.437097 0
M  V30 4260 H 399.222 4.83384 -0.383147 0
M  V30 4261 N 400.565 -0.0233959 1.57583 0
M  V30 4262 C 401.811 -0.714119 1.89811 0
M  V30 4263 C 402.144 -1.74702 0.848113 0
M  V30 4264 O 401.419 -1.94023 -0.136135 0
M  V30 4265 C 401.702 -1.37853 3.32669 0
M  V30 4266 C 401.555 -0.358764 4.48367 0
M  V30 4267 C 402.874 -2.31101 3.7454 0
M  V30 4268 H 399.993 -0.25814 0.690314 0
M  V30 4269 H 402.635 0.0230927 1.89986 0
M  V30 4270 H 400.785 -2.00689 3.3265 0
M  V30 4271 H 402.457 0.268115 4.6052 0
M  V30 4272 H 400.7 0.321387 4.32608 0
M  V30 4273 H 401.371 -0.862242 5.45224 0
M  V30 4274 H 403.847 -1.78304 3.75961 0
M  V30 4275 H 402.723 -2.74567 4.75294 0
M  V30 4276 H 402.984 -3.18018 3.0711 0
M  V30 4277 N 402.043 -1.548 -0.295768 0
M  V30 4278 C 403.006 -1.85363 -1.34808 0
M  V30 4279 C 404.006 -0.726817 -1.43436 0
M  V30 4280 O 405.196 -0.995088 -1.42981 0
M  V30 4281 C 402.328 -2.03859 -2.73229 0
M  V30 4282 H 403.521 -2.7941 -1.08949 0
M  V30 4283 H 401.074 -1.46942 -0.532702 0
M  V30 4284 H 401.809 -1.12117 -3.04303 0
M  V30 4285 H 401.594 -2.8588 -2.68356 0
M  V30 4286 H 403.084 -2.28857 -3.49305 0
M  V30 4287 N 403.521 0.559213 -1.47345 0
M  V30 4288 C 404.469 1.68747 -1.60085 0
M  V30 4289 C 405.463 1.628 -0.46825 0
M  V30 4290 O 406.669 1.68009 -0.645977 0
M  V30 4291 H 403.044 0.558329 -0.503759 0
M  V30 4292 H 405.015 1.55138 -2.54902 0
M  V30 4293 C 403.764 3.07103 -1.63042 0
M  V30 4294 H 403.087 3.12361 -2.49541 0
M  V30 4295 H 404.527 3.85743 -1.76006 0
M  V30 4296 C 402.986 3.34935 -0.363357 0
M  V30 4297 O 403.516 3.98102 0.536416 0
M  V30 4298 N 401.722 2.89574 -0.244 0
M  V30 4299 H 401.269 2.38348 -0.977133 0
M  V30 4300 H 401.227 3.08566 0.602836 0
M  V30 4301 N 404.999 1.35443 0.805782 0
M  V30 4302 C 405.947 1.28465 1.93906 0
M  V30 4303 C 406.941 0.17943 1.68447 0
M  V30 4304 O 408.147 0.345459 1.76654 0
M  V30 4305 H 404.522 0.399528 0.637088 0
M  V30 4306 H 406.493 2.24206 1.96912 0
M  V30 4307 C 405.242 1.07432 3.30687 0
M  V30 4308 H 404.565 1.91716 3.50835 0
M  V30 4309 H 406.005 1.06591 4.10383 0
M  V30 4310 C 404.464 -0.22179 3.36169 0
M  V30 4311 O 404.994 -1.21731 3.82811 0
M  V30 4312 N 403.2 -0.260841 2.89427 0
M  V30 4313 H 402.747 0.549884 2.51663 0
M  V30 4314 H 402.705 -1.12777 2.93477 0
M  V30 4315 N 406.477 -1.02803 1.19454 0
M  V30 4316 C 407.427 -2.0945 0.900827 0
M  V30 4317 C 408.411 -1.60335 -0.134715 0
M  V30 4318 O 409.603 -1.76857 0.0710924 0
M  V30 4319 C 406.732 -3.4044 0.442229 0
M  V30 4320 C 405.818 -3.96286 1.51056 0
M  V30 4321 N 406.209 -4.25785 2.73021 0
M  V30 4322 C 404.507 -4.24307 1.37404 0
M  V30 4323 C 405.208 -4.70654 3.41848 0
M  V30 4324 N 404.184 -4.72238 2.69243 0
M  V30 4325 H 407.986 -2.3015 1.82779 0
M  V30 4326 H 405.5 -1.20672 1.08683 0
M  V30 4327 H 407.497 -4.16354 0.21326 0
M  V30 4328 H 406.157 -3.21159 -0.478238 0
M  V30 4329 H 407.168 -4.15041 3.09776 0
M  V30 4330 H 403.845 -4.14285 0.517103 0
M  V30 4331 H 405.235 -5.02392 4.46152 0
M  V30 4332 N 407.956 -0.998596 -1.21925 0
M  V30 4333 C 409.203 -0.677663 -1.90824 0
M  V30 4334 C 409.531 0.790905 -1.77693 0
M  V30 4335 O 408.786 1.58817 -1.14349 0
M  V30 4336 C 409.085 -1.03648 -3.42041 0
M  V30 4337 C 408.751 -2.49825 -3.75364 0
M  V30 4338 C 407.413 -2.8977 -3.8417 0
M  V30 4339 C 409.765 -3.44545 -3.91073 0
M  V30 4340 C 407.093 -4.23412 -4.06127 0
M  V30 4341 C 409.445 -4.77853 -4.14535 0
M  V30 4342 C 408.109 -5.17531 -4.21566 0
M  V30 4343 H 407.379 -0.247975 -0.698276 0
M  V30 4344 H 410.026 -1.25584 -1.44571 0
M  V30 4345 H 408.331 -0.376457 -3.89987 0
M  V30 4346 H 410.028 -0.766113 -3.93614 0
M  V30 4347 H 406.618 -2.17866 -3.69097 0
M  V30 4348 H 410.802 -3.14853 -3.83642 0
M  V30 4349 H 406.058 -4.53734 -4.09799 0
M  V30 4350 H 410.232 -5.51189 -4.25633 0
M  V30 4351 H 407.859 -6.21102 -4.38333 0
M  V30 4352 N 409.434 1.37368 -0.772513 0
M  V30 4353 C 410.397 2.28601 -0.165541 0
M  V30 4354 C 411.397 1.48062 0.627238 0
M  V30 4355 O 412.587 1.68268 0.450715 0
M  V30 4356 C 409.719 3.32023 0.772897 0
M  V30 4357 H 410.912 2.83787 -0.969787 0
M  V30 4358 H 408.465 1.46647 -0.540775 0
M  V30 4359 H 409.2 2.81962 1.60212 0
M  V30 4360 H 408.985 3.91555 0.206585 0
M  V30 4361 H 410.475 4.00197 1.19298 0
M  V30 4362 N 410.912 0.523116 1.48665 0
M  V30 4363 C 411.862 -0.263106 2.26477 0
M  V30 4364 C 412.846 -0.916005 1.32281 0
M  V30 4365 O 414.038 -0.819946 1.56863 0
M  V30 4366 C 411.167 -1.31361 3.17174 0
M  V30 4367 C 410.253 -0.665849 4.1884 0
M  V30 4368 N 410.644 0.244434 5.05209 0
M  V30 4369 C 408.942 -0.923863 4.36326 0
M  V30 4370 C 409.643 0.617443 5.78414 0
M  V30 4371 N 408.619 -0.0198686 5.43596 0
M  V30 4372 H 412.421 0.437295 2.90629 0
M  V30 4373 H 409.935 0.340675 1.58787 0
M  V30 4374 H 411.932 -1.89052 3.71571 0
M  V30 4375 H 410.592 -2.01546 2.54576 0
M  V30 4376 H 411.603 0.616621 5.14216 0
M  V30 4377 H 408.28 -1.6168 3.84923 0
M  V30 4378 H 409.67 1.36346 6.57921 0
M  V30 4379 N 412.39 -1.55475 0.257931 0
M  V30 4380 C 413.637 -1.99207 -0.363728 0
M  V30 4381 C 413.965 -1.1462 -1.57139 0
M  V30 4382 O 413.22 -0.199653 -1.94679 0
M  V30 4383 C 413.519 -3.48183 -0.806433 0
M  V30 4384 C 413.185 -4.49936 0.294684 0
M  V30 4385 C 411.847 -4.77481 0.597076 0
M  V30 4386 C 414.199 -5.10769 1.03751 0
M  V30 4387 C 411.527 -5.63132 1.64618 0
M  V30 4388 C 413.879 -5.97558 2.07622 0
M  V30 4389 C 412.543 -6.23432 2.38514 0
M  V30 4390 H 411.813 -0.728949 -0.133097 0
M  V30 4391 H 414.46 -1.8793 0.368059 0
M  V30 4392 H 412.765 -3.56848 -1.61761 0
M  V30 4393 H 414.462 -3.79415 -1.29789 0
M  V30 4394 H 411.052 -4.28572 0.0488649 0
M  V30 4395 H 415.236 -4.89527 0.817149 0
M  V30 4396 H 410.492 -5.8143 1.89074 0
M  V30 4397 H 414.666 -6.43735 2.65666 0
M  V30 4398 H 412.293 -6.89594 3.19943 0
M  V30 4399 N 413.868 0.0150385 -1.57593 0
M  V30 4400 C 415.115 0.703001 -1.89906 0
M  V30 4401 C 415.443 1.74604 -0.856944 0
M  V30 4402 O 414.698 1.95197 0.140287 0
M  V30 4403 C 414.997 1.39686 -3.28972 0
M  V30 4404 C 414.663 0.488457 -4.48246 0
M  V30 4405 C 413.325 0.2383 -4.8061 0
M  V30 4406 C 415.677 -0.137881 -5.21018 0
M  V30 4407 C 413.005 -0.646738 -5.83125 0
M  V30 4408 C 415.357 -1.0107 -6.24474 0
M  V30 4409 C 414.021 -1.27019 -6.55303 0
M  V30 4410 H 413.291 0.257246 -0.694914 0
M  V30 4411 H 415.938 -0.037259 -1.91464 0
M  V30 4412 H 414.243 2.21079 -3.23468 0
M  V30 4413 H 415.94 1.93495 -3.51227 0
M  V30 4414 H 412.53 0.693593 -4.22951 0
M  V30 4415 H 416.714 0.0423953 -4.96282 0
M  V30 4416 H 411.97 -0.855937 -6.05379 0
M  V30 4417 H 416.144 -1.50247 -6.79999 0
M  V30 4418 H 413.771 -1.95769 -7.3456 0
M  V30 4419 N 415.346 1.54954 0.287554 0
M  V30 4420 C 416.309 1.86076 1.33823 0
M  V30 4421 C 417.309 0.734414 1.43049 0
M  V30 4422 O 418.499 1.00266 1.42452 0
M  V30 4423 C 415.631 2.05305 2.72144 0
M  V30 4424 H 416.824 2.79984 1.07465 0
M  V30 4425 H 414.377 1.47223 0.524902 0
M  V30 4426 H 415.112 1.1373 3.03704 0
M  V30 4427 H 414.897 2.873 2.66836 0
M  V30 4428 H 416.387 2.30706 3.48087 0
M  V30 4429 N 416.824 -0.551391 1.4764 0
M  V30 4430 C 418.235 -1.13349 1.48354 0
M  V30 4431 C 418.586 -1.94709 0.241432 0
M  V30 4432 O 417.711 -2.06306 -0.653205 0
M  V30 4433 C 418.306 -2.0623 2.68802 0
M  V30 4434 C 416.865 -2.597 2.72457 0
M  V30 4435 C 416.012 -1.36201 2.41546 0
M  V30 4436 H 418.963 -0.337698 1.55065 0
M  V30 4437 H 418.984 -2.90196 2.46103 0
M  V30 4438 H 418.496 -1.46987 3.59188 0
M  V30 4439 H 416.597 -3.22724 1.86225 0
M  V30 4440 H 416.71 -3.00296 3.73308 0
M  V30 4441 H 415.074 -1.67068 1.9225 0
M  V30 4442 H 415.857 -0.787425 3.34147 0
M  V30 4443 N 418.302 -1.35869 -0.798587 0
M  V30 4444 C 419.234 -1.25305 -1.91915 0
M  V30 4445 C 420.247 -0.174548 -1.61862 0
M  V30 4446 O 421.436 -0.428499 -1.73281 0
M  V30 4447 C 418.536 -0.9086 -3.26493 0
M  V30 4448 C 417.709 -2.08711 -3.84394 0
M  V30 4449 C 416.768 -1.71717 -4.97393 0
M  V30 4450 O 415.794 -2.43692 -5.14396 0
M  V30 4451 N 416.996 -0.645473 -5.769 0
M  V30 4452 H 419.761 -2.21849 -2.01502 0
M  V30 4453 H 417.322 -1.29143 -0.976408 0
M  V30 4454 H 419.314 -0.642455 -3.99568 0
M  V30 4455 H 417.884 -0.0325815 -3.12583 0
M  V30 4456 H 417.104 -2.51659 -3.03416 0
M  V30 4457 H 418.392 -2.87468 -4.19809 0
M  V30 4458 H 417.79 -0.047648 -5.6568 0
M  V30 4459 H 416.347 -0.43913 -6.50319 0
M  V30 4460 N 419.78 1.02168 -1.19998 0
M  V30 4461 C 420.728 2.12717 -0.940967 0
M  V30 4462 C 421.722 1.69069 0.105841 0
M  V30 4463 O 422.928 1.79946 -0.0440583 0
M  V30 4464 H 419.303 0.695108 -0.28693 0
M  V30 4465 H 421.274 2.3175 -1.87975 0
M  V30 4466 C 420.023 3.44027 -0.504049 0
M  V30 4467 H 419.346 3.78036 -1.30112 0
M  V30 4468 H 420.786 4.22452 -0.361991 0
M  V30 4469 C 419.245 3.27678 0.782878 0
M  V30 4470 O 419.775 3.56949 1.84256 0
M  V30 4471 N 417.981 2.80943 0.742921 0
M  V30 4472 H 417.528 2.57322 -0.119687 0
M  V30 4473 H 417.486 2.70385 1.60435 0
M  V30 4474 N 421.258 1.00505 1.21394 0
M  V30 4475 C 422.188 0.585684 2.26035 0
M  V30 4476 C 423.169 -0.393525 1.65485 0
M  V30 4477 O 424.354 -0.281497 1.92149 0
M  V30 4478 C 421.484 -0.0884283 3.47187 0
M  V30 4479 C 420.438 0.810567 4.20254 0
M  V30 4480 C 419.764 0.00286382 5.347 0
M  V30 4481 C 421.064 2.1132 4.77641 0
M  V30 4482 H 422.758 1.46039 2.61368 0
M  V30 4483 H 420.304 0.703648 1.25638 0
M  V30 4484 H 422.257 -0.393286 4.19561 0
M  V30 4485 H 420.981 -0.997766 3.10986 0
M  V30 4486 H 419.64 1.09925 3.49731 0
M  V30 4487 H 419.288 -0.907765 4.94741 0
M  V30 4488 H 418.988 0.601444 5.84514 0
M  V30 4489 H 420.512 -0.295808 6.09883 0
M  V30 4490 H 421.926 1.87148 5.41893 0
M  V30 4491 H 420.323 2.66164 5.37845 0
M  V30 4492 H 421.393 2.78393 3.9702 0
M  V30 4493 N 422.737 -1.36956 0.779787 0
M  V30 4494 C 423.965 -2.03755 0.359398 0
M  V30 4495 C 424.38 -1.58807 -1.02106 0
M  V30 4496 O 423.737 -0.773024 -1.6532 0
M  V30 4497 C 423.788 -3.59251 0.402568 0
M  V30 4498 O 423.509 -4.02557 1.72858 0
M  V30 4499 C 425.01 -4.43291 -0.0284068 0
M  V30 4500 H 422.23 -0.654148 0.149437 0
M  V30 4501 H 424.774 -1.75128 1.05595 0
M  V30 4502 H 422.929 -3.86621 -0.245478 0
M  V30 4503 H 423.343 -4.97111 1.67275 0
M  V30 4504 H 424.817 -5.51975 0.0529466 0
M  V30 4505 H 425.294 -4.25719 -1.07982 0
M  V30 4506 H 425.9 -4.21163 0.591758 0
M  V30 4507 N 424.215 -0.530993 -1.48385 0
M  V30 4508 C 425.163 0.244595 -2.3131 0
M  V30 4509 C 426.157 0.93451 -1.41291 0
M  V30 4510 O 427.363 0.85878 -1.58193 0
M  V30 4511 H 423.738 0.0977472 -0.74562 0
M  V30 4512 H 425.709 -0.474369 -2.94605 0
M  V30 4513 C 424.458 1.2779 -3.23365 0
M  V30 4514 H 423.781 0.756439 -3.92579 0
M  V30 4515 H 425.221 1.79198 -3.84271 0
M  V30 4516 C 423.68 2.31205 -2.45042 0
M  V30 4517 O 424.21 3.37661 -2.17596 0
M  V30 4518 N 422.416 2.04446 -2.0652 0
M  V30 4519 H 421.963 1.17891 -2.2904 0
M  V30 4520 H 421.921 2.73861 -1.54427 0
M  V30 4521 N 425.693 1.55336 -0.266172 0
M  V30 4522 C 426.626 2.18256 0.666296 0
M  V30 4523 C 427.604 1.14064 1.1588 0
M  V30 4524 O 428.788 1.42546 1.23341 0
M  V30 4525 C 425.915 2.79867 1.90768 0
M  V30 4526 C 424.961 3.97283 1.55141 0
M  V30 4527 S 425.794 5.31694 0.637313 0
M  V30 4528 C 426.95 5.96769 1.88727 0
M  V30 4529 H 427.183 2.97008 0.131647 0
M  V30 4530 H 424.716 1.54317 -0.0504869 0
M  V30 4531 H 426.674 3.15996 2.62025 0
M  V30 4532 H 425.335 2.01025 2.41346 0
M  V30 4533 H 424.528 4.3905 2.4749 0
M  V30 4534 H 424.13 3.6253 0.919113 0
M  V30 4535 H 426.422 6.15458 2.83227 0
M  V30 4536 H 427.365 6.91752 1.51276 0
M  V30 4537 H 427.773 5.26034 2.04814 0
M  V30 4538 N 427.171 -0.0066808 1.57599 0
M  V30 4539 C 428.119 -1.01851 2.09115 0
M  V30 4540 C 429.113 -1.36021 1.00969 0
M  V30 4541 O 430.319 -1.34663 1.19439 0
M  V30 4542 H 426.694 -0.346083 0.667631 0
M  V30 4543 H 428.665 -0.558394 2.93129 0
M  V30 4544 C 427.414 -2.30374 2.60429 0
M  V30 4545 H 426.737 -2.04947 3.43273 0
M  V30 4546 H 428.177 -2.99466 3.00161 0
M  V30 4547 C 426.636 -3.00893 1.51542 0
M  V30 4548 O 427.166 -3.91614 0.894484 0
M  V30 4549 N 425.372 -2.62603 1.2445 0
M  V30 4550 H 424.919 -1.88911 1.75129 0
M  V30 4551 H 424.877 -3.10101 0.518137 0
M  V30 4552 N 428.649 -1.55105 -0.279332 0
M  V30 4553 C 429.596 -1.8755 -1.34513 0
M  V30 4554 C 430.566 -0.726384 -1.49375 0
M  V30 4555 O 431.751 -0.977063 -1.63884 0
M  V30 4556 C 428.891 -2.14738 -2.70151 0
M  V30 4557 C 428.004 -3.42285 -2.63562 0
M  V30 4558 C 427.139 -3.59206 -3.91337 0
M  V30 4559 C 426.178 -4.80467 -3.79233 0
M  V30 4560 N 425.315 -4.94079 -4.98829 0
M  V30 4561 H 430.155 -2.78456 -1.06143 0
M  V30 4562 H 427.692 -1.37867 -0.512936 0
M  V30 4563 H 429.65 -2.28501 -3.49061 0
M  V30 4564 H 428.28 -1.27075 -2.96735 0
M  V30 4565 H 427.332 -3.37029 -1.76397 0
M  V30 4566 H 428.644 -4.31328 -2.50515 0
M  V30 4567 H 427.798 -3.72751 -4.78687 0
M  V30 4568 H 426.537 -2.68337 -4.07243 0
M  V30 4569 H 425.542 -4.66932 -2.90266 0
M  V30 4570 H 426.767 -5.72765 -3.64852 0
M  V30 4571 H 424.713 -4.06139 -5.15158 0
M  V30 4572 H 424.63 -5.77156 -4.8829 0
M  V30 4573 H 425.898 -5.12003 -5.8777 0
M  V30 4574 N 430.127 0.543554 -1.4793 0
M  V30 4575 C 431.075 1.67039 -1.61866 0
M  V30 4576 C 432.069 1.62294 -0.48549 0
M  V30 4577 O 433.275 1.67315 -0.66376 0
M  V30 4578 H 429.65 0.552954 -0.509652 0
M  V30 4579 H 431.621 1.52426 -2.56533 0
M  V30 4580 C 430.37 3.05357 -1.6629 0
M  V30 4581 H 429.693 3.09696 -2.5284 0
M  V30 4582 H 431.133 3.83855 -1.80088 0
M  V30 4583 C 429.592 3.34531 -0.398861 0
M  V30 4584 O 430.122 3.98649 0.494162 0
M  V30 4585 N 428.328 2.89299 -0.2747 0
M  V30 4586 H 427.875 2.37298 -1.00236 0
M  V30 4587 H 427.833 3.09188 0.570075 0
M  V30 4588 N 431.605 1.3629 0.791371 0
M  V30 4589 C 432.851 1.30605 1.55146 0
M  V30 4590 C 433.184 -0.115042 1.93859 0
M  V30 4591 O 432.459 -1.06798 1.62556 0
M  V30 4592 C 432.742 2.22692 2.82985 0
M  V30 4593 C 432.595 3.73489 2.50651 0
M  V30 4594 C 433.914 2.13588 3.84796 0
M  V30 4595 H 431.033 0.475761 0.562868 0
M  V30 4596 H 433.675 1.66825 0.909358 0
M  V30 4597 H 431.825 1.91933 3.37778 0
M  V30 4598 H 433.497 4.14758 2.01924 0
M  V30 4599 H 431.74 3.93021 1.83622 0
M  V30 4600 H 432.411 4.3333 3.41949 0
M  V30 4601 H 434.887 2.40659 3.39445 0
M  V30 4602 H 433.763 2.80195 4.71998 0
M  V30 4603 H 434.024 1.12256 4.27611 0
M  V30 4604 N 433.083 -1.0153 1.20538 0
M  V30 4605 C 434.329 -1.75408 1.01783 0
M  V30 4606 C 434.662 -1.88943 -0.448814 0
M  V30 4607 O 433.937 -1.4162 -1.33319 0
M  V30 4608 C 434.22 -3.17255 1.70356 0
M  V30 4609 C 434.073 -3.11508 3.24473 0
M  V30 4610 C 435.392 -4.15955 1.43769 0
M  V30 4611 H 432.511 -0.636713 0.371167 0
M  V30 4612 H 435.153 -1.18436 1.4857 0
M  V30 4613 H 433.303 -3.65898 1.30578 0
M  V30 4614 H 434.975 -2.70658 3.73553 0
M  V30 4615 H 433.218 -2.4887 3.55311 0
M  V30 4616 H 433.889 -4.11784 3.67611 0
M  V30 4617 H 436.365 -3.75973 1.7828 0
M  V30 4618 H 435.241 -5.13368 1.94279 0
M  V30 4619 H 435.502 -4.40586 0.365564 0
M  V30 4620 N 434.561 -1.01147 -1.20859 0
M  V30 4621 C 435.808 -0.697865 -1.90095 0
M  V30 4622 C 436.136 0.772014 -1.78522 0
M  V30 4623 O 435.391 1.57595 -1.16027 0
M  V30 4624 C 435.69 -1.0727 -3.40922 0
M  V30 4625 C 435.356 -2.53792 -3.72693 0
M  V30 4626 C 434.018 -2.93829 -3.81075 0
M  V30 4627 C 436.37 -3.48674 -3.87397 0
M  V30 4628 C 433.698 -4.27696 -4.01613 0
M  V30 4629 C 436.05 -4.82223 -4.09444 0
M  V30 4630 C 434.714 -5.21973 -4.16054 0
M  V30 4631 H 433.984 -0.255367 -0.695607 0
M  V30 4632 H 436.631 -1.27111 -1.43231 0
M  V30 4633 H 434.936 -0.417799 -3.89566 0
M  V30 4634 H 436.633 -0.807818 -3.92779 0
M  V30 4635 H 433.223 -2.21768 -3.66765 0
M  V30 4636 H 437.407 -3.18904 -3.80281 0
M  V30 4637 H 432.663 -4.58055 -4.04964 0
M  V30 4638 H 436.837 -5.55672 -4.19763 0
M  V30 4639 H 434.464 -6.25717 -4.31721 0
M  V30 4640 N 436.039 1.36541 -0.78704 0
M  V30 4641 C 437.285 1.99599 -0.358872 0
M  V30 4642 C 437.618 1.62323 1.06606 0
M  V30 4643 O 436.893 0.876858 1.73613 0
M  V30 4644 C 437.176 3.56327 -0.519944 0
M  V30 4645 C 437.029 4.03464 -1.98839 0
M  V30 4646 C 438.348 4.4005 0.0664737 0
M  V30 4647 H 435.467 0.725107 -0.131869 0
M  V30 4648 H 438.109 1.6199 -0.992936 0
M  V30 4649 H 436.259 3.88495 0.0198321 0
M  V30 4650 H 437.931 3.81793 -2.58905 0
M  V30 4651 H 436.174 3.55092 -2.49183 0
M  V30 4652 H 436.845 5.12439 -2.05207 0
M  V30 4653 H 439.321 4.14228 -0.394267 0
M  V30 4654 H 438.197 5.48847 -0.0762682 0
M  V30 4655 H 438.458 4.26655 1.15835 0
M  V30 4656 N 437.518 0.538854 1.48102 0
M  V30 4657 C 438.767 0.0059532 2.01699 0
M  V30 4658 C 439.08 -1.34476 1.42041 0
M  V30 4659 O 440.286 -1.96653 1.87189 0
M  V30 4660 C 438.742 -0.0397627 3.59878 0
M  V30 4661 C 438.35 1.30659 4.28523 0
M  V30 4662 C 440.094 -0.521024 4.2129 0
M  V30 4663 C 438.001 1.22098 5.78659 0
M  V30 4664 H 436.931 -0.00154456 0.753998 0
M  V30 4665 H 439.582 0.683963 1.70277 0
M  V30 4666 H 437.964 -0.783037 3.88181 0
M  V30 4667 H 439.138 2.06613 4.11883 0
M  V30 4668 H 437.453 1.7243 3.79021 0
M  V30 4669 H 440.05 -0.603184 5.31287 0
M  V30 4670 H 440.393 -1.52885 3.8721 0
M  V30 4671 H 440.926 0.166834 3.9745 0
M  V30 4672 H 437.665 2.20424 6.17328 0
M  V30 4673 H 437.185 0.50295 5.97688 0
M  V30 4674 H 438.864 0.915345 6.40492 0
M  V30 4675 N 438.996 -1.55193 0.274407 0
M  V30 4676 C 440.273 -1.91584 -0.394331 0
M  V30 4677 C 440.653 -1.19858 -1.73774 0
M  V30 4678 O 440.001 -0.3252 -2.26174 0
M  V30 4679 C 440.211 -3.4487 -0.535311 0
M  V30 4680 C 441.559 -4.16636 -0.818534 0
M  V30 4681 O 442.583 -3.5076 -0.620146 0
M  V30 4682 O 441.442 -5.33209 -1.19792 0
M  V30 4683 H 438.536 -0.798349 -0.215794 0
M  V30 4684 H 441.082 -1.66646 0.320507 0
M  V30 4685 H 439.854 -3.89145 0.410141 0
M  V30 4686 H 439.477 -3.75759 -1.29964 0
M  V30 4687 N 440.474 -0.00167713 -1.576 0
M  V30 4688 C 441.723 0.682021 -1.89819 0
M  V30 4689 C 442.036 1.74844 -0.876871 0
M  V30 4690 O 443.242 2.48688 -1.08934 0
M  V30 4691 C 441.698 1.26425 -3.36964 0
M  V30 4692 C 441.306 0.232568 -4.47396 0
M  V30 4693 C 443.05 1.92604 -3.78291 0
M  V30 4694 C 440.957 0.824882 -5.85619 0
M  V30 4695 H 439.887 0.258499 -0.708304 0
M  V30 4696 H 442.538 -0.0624957 -1.83394 0
M  V30 4697 H 440.92 2.05949 -3.38232 0
M  V30 4698 H 442.094 -0.5382 -4.57646 0
M  V30 4699 H 440.409 -0.32888 -4.15099 0
M  V30 4700 H 443.006 2.37827 -4.78897 0
M  V30 4701 H 443.349 2.75732 -3.11894 0
M  V30 4702 H 443.882 1.19812 -3.79328 0
M  V30 4703 H 440.621 0.0323542 -6.55492 0
M  V30 4704 H 440.141 1.56477 -5.79029 0
M  V30 4705 H 441.82 1.32301 -6.33329 0
M  V30 4706 N 441.952 1.55251 0.271103 0
M  V30 4707 C 443.177 1.80306 1.02491 0
M  V30 4708 C 443.602 0.575457 1.79081 0
M  V30 4709 O 442.96 -0.474987 1.74967 0
M  V30 4710 C 443.008 3.02832 1.95768 0
M  V30 4711 O 442.112 2.78051 3.04568 0
M  V30 4712 H 441.453 0.595896 0.292923 0
M  V30 4713 H 443.983 2.02397 0.299436 0
M  V30 4714 H 443.993 3.31616 2.37686 0
M  V30 4715 H 442.668 3.9183 1.39434 0
M  V30 4716 H 441.245 2.60369 2.66951 0
M  V30 4717 N 443.43 -0.535701 1.48216 0
M  V30 4718 C 444.678 -1.28928 1.55634 0
M  V30 4719 C 444.999 -1.93645 0.229514 0
M  V30 4720 O 444.269 -1.81038 -0.74846 0
M  V30 4721 H 442.849 -0.47884 0.573342 0
M  V30 4722 H 445.511 -0.623853 1.84646 0
M  V30 4723 H 444.607 -2.07157 2.33436 0
M  V30 4724 N 444.908 -1.36708 -0.784132 0
M  V30 4725 C 446.133 -1.34565 -1.5782 0
M  V30 4726 C 446.558 0.0695257 -1.87971 0
M  V30 4727 O 445.916 1.04302 -1.48293 0
M  V30 4728 C 445.964 -2.17952 -2.87279 0
M  V30 4729 O 445.068 -1.57563 -3.81114 0
M  V30 4730 H 444.409 -0.460337 -0.478524 0
M  V30 4731 H 446.939 -1.80064 -0.971495 0
M  V30 4732 H 446.949 -2.30721 -3.365 0
M  V30 4733 H 445.624 -3.20823 -2.64661 0
M  V30 4734 H 444.201 -1.53764 -3.39722 0
M  V30 4735 N 446.386 1.0089 -1.21074 0
M  V30 4736 C 447.319 2.09279 -0.909806 0
M  V30 4737 C 448.297 1.61986 0.141145 0
M  V30 4738 O 449.481 1.88495 0.0130332 0
M  V30 4739 C 446.608 3.36723 -0.365374 0
M  V30 4740 C 445.654 4.02919 -1.39852 0
M  V30 4741 S 446.487 4.45835 -2.96633 0
M  V30 4742 C 447.643 5.76471 -2.43786 0
M  V30 4743 H 447.876 2.34484 -1.82769 0
M  V30 4744 H 445.409 1.14115 -1.04006 0
M  V30 4745 H 447.367 4.10459 -0.0578203 0
M  V30 4746 H 446.028 3.09577 0.531136 0
M  V30 4747 H 445.221 4.94634 -0.967117 0
M  V30 4748 H 444.823 3.35441 -1.65395 0
M  V30 4749 H 447.115 6.52027 -1.84029 0
M  V30 4750 H 448.058 6.24418 -3.33928 0
M  V30 4751 H 448.466 5.33104 -1.85636 0
M  V30 4752 N 447.864 1.01787 1.20321 0
M  V30 4753 C 449.28 0.732951 1.41774 0
M  V30 4754 C 449.48 -0.686883 1.89431 0
M  V30 4755 O 448.536 -1.45446 2.06402 0
M  V30 4756 C 449.849 1.75973 2.43832 0
M  V30 4757 C 451.397 1.77802 2.57596 0
M  V30 4758 C 451.872 2.7941 3.62897 0
M  V30 4759 N 453.363 2.78157 3.70382 0
M  V30 4760 C 454.098 3.53434 4.51521 0
M  V30 4761 N 453.594 4.38392 5.36455 0
M  V30 4762 N 455.387 3.42026 4.46066 0
M  V30 4763 H 447.538 1.93447 0.877035 0
M  V30 4764 H 449.801 0.835712 0.447536 0
M  V30 4765 H 449.507 2.77699 2.15815 0
M  V30 4766 H 449.381 1.57292 3.4284 0
M  V30 4767 H 451.768 0.767602 2.84942 0
M  V30 4768 H 451.849 2.00557 1.58779 0
M  V30 4769 H 451.493 3.80616 3.36295 0
M  V30 4770 H 451.423 2.53916 4.61339 0
M  V30 4771 H 453.914 2.16531 3.09714 0
M  V30 4772 H 454.227 4.92596 5.95457 0
M  V30 4773 H 452.572 4.4247 5.35953 0
M  V30 4774 H 455.763 2.75075 3.78749 0
M  V30 4775 H 455.936 4.00946 5.09064 0
M  V30 4776 N 449.342 -1.36122 0.79427 0
M  V30 4777 C 450.59 -1.98718 0.368177 0
M  V30 4778 C 450.911 -1.63345 -1.06506 0
M  V30 4779 O 450.181 -0.909825 -1.73491 0
M  V30 4780 H 448.761 -0.735038 0.133146 0
M  V30 4781 H 451.423 -1.66239 1.01739 0
M  V30 4782 H 450.519 -3.08633 0.463923 0
M  V30 4783 N 450.82 -0.546701 -1.47814 0
M  V30 4784 C 451.752 0.244196 -2.27895 0
M  V30 4785 C 452.765 0.88911 -1.36377 0
M  V30 4786 O 453.954 0.764733 -1.61289 0
M  V30 4787 C 451.054 1.36252 -3.10304 0
M  V30 4788 C 450.227 0.816382 -4.29714 0
M  V30 4789 C 449.286 1.81789 -4.93801 0
M  V30 4790 O 448.312 1.36818 -5.52512 0
M  V30 4791 N 449.514 3.15085 -4.87547 0
M  V30 4792 H 452.279 -0.442694 -2.96412 0
M  V30 4793 H 449.84 -0.382095 -1.57327 0
M  V30 4794 H 451.832 2.03102 -3.50045 0
M  V30 4795 H 450.402 1.95281 -2.44099 0
M  V30 4796 H 449.622 -0.0285981 -3.9419 0
M  V30 4797 H 450.91 0.430668 -5.06974 0
M  V30 4798 H 450.308 3.54275 -4.41028 0
M  V30 4799 H 448.865 3.77522 -5.31339 0
M  V30 4800 N 452.299 1.55045 -0.282633 0
M  V30 4801 C 453.246 2.22822 0.601566 0
M  V30 4802 C 454.216 1.20431 1.14392 0
M  V30 4803 O 455.401 1.48996 1.19184 0
M  V30 4804 C 452.541 2.95873 1.77632 0
M  V30 4805 C 451.654 4.12999 1.26711 0
M  V30 4806 C 450.789 4.73676 2.40426 0
M  V30 4807 C 449.828 5.82981 1.86545 0
M  V30 4808 N 448.965 6.3769 2.93762 0
M  V30 4809 H 453.805 2.97995 0.0169528 0
M  V30 4810 H 451.342 1.471 -0.00339964 0
M  V30 4811 H 453.3 3.36447 2.46697 0
M  V30 4812 H 451.93 2.2311 2.33285 0
M  V30 4813 H 450.982 3.77494 0.469314 0
M  V30 4814 H 452.294 4.91803 0.832518 0
M  V30 4815 H 451.448 5.17008 3.17471 0
M  V30 4816 H 450.187 3.94164 2.87203 0
M  V30 4817 H 449.192 5.39092 1.07983 0
M  V30 4818 H 450.417 6.64366 1.40694 0
M  V30 4819 H 448.363 5.61069 3.39908 0
M  V30 4820 H 448.28 7.11788 2.54744 0
M  V30 4821 H 449.548 6.8568 3.7076 0
M  V30 4822 N 453.777 0.010035 1.57597 0
M  V30 4823 C 455.023 -0.673697 1.91283 0
M  V30 4824 C 455.356 -1.72863 0.884979 0
M  V30 4825 O 454.631 -1.94268 -0.0949487 0
M  V30 4826 C 454.914 -1.30766 3.35518 0
M  V30 4827 C 454.767 -0.263578 4.49027 0
M  V30 4828 C 456.086 -2.23105 3.79358 0
M  V30 4829 H 453.205 -0.243439 0.695634 0
M  V30 4830 H 455.847 0.0633864 1.89894 0
M  V30 4831 H 453.997 -1.93588 3.36832 0
M  V30 4832 H 455.669 0.365738 4.59848 0
M  V30 4833 H 453.912 0.413077 4.31829 0
M  V30 4834 H 454.583 -0.746398 5.4693 0
M  V30 4835 H 457.059 -1.70289 3.79659 0
M  V30 4836 H 455.935 -2.64424 4.81011 0
M  V30 4837 H 456.196 -3.11433 3.13787 0
M  V30 4838 N 455.255 -1.55392 -0.262866 0
M  V30 4839 C 456.202 -1.88966 -1.32516 0
M  V30 4840 C 457.172 -0.742187 -1.48596 0
M  V30 4841 O 458.357 -0.99439 -1.62839 0
M  V30 4842 C 455.497 -2.17592 -2.67858 0
M  V30 4843 C 454.61 -3.45061 -2.59917 0
M  V30 4844 C 453.745 -3.63336 -3.87505 0
M  V30 4845 C 452.784 -4.84462 -3.74116 0
M  V30 4846 N 451.921 -4.99342 -4.93561 0
M  V30 4847 H 456.761 -2.79566 -1.03184 0
M  V30 4848 H 454.298 -1.38404 -0.498285 0
M  V30 4849 H 456.256 -2.3219 -3.46617 0
M  V30 4850 H 454.886 -1.30215 -2.95371 0
M  V30 4851 H 453.938 -3.38881 -1.72812 0
M  V30 4852 H 455.25 -4.3396 -2.45926 0
M  V30 4853 H 454.404 -3.77807 -4.74707 0
M  V30 4854 H 453.143 -2.72641 -4.04374 0
M  V30 4855 H 452.148 -4.69985 -2.85297 0
M  V30 4856 H 453.373 -5.76603 -3.58757 0
M  V30 4857 H 451.319 -4.1158 -5.10821 0
M  V30 4858 H 451.236 -5.82303 -4.82141 0
M  V30 4859 H 452.504 -5.18208 -5.82306 0
M  V30 4860 N 456.733 0.527833 -1.48498 0
M  V30 4861 C 457.665 1.6482 -1.5927 0
M  V30 4862 C 458.678 1.55659 -0.476869 0
M  V30 4863 O 459.867 1.62081 -0.747806 0
M  V30 4864 C 456.967 3.0348 -1.50842 0
M  V30 4865 C 456.14 3.381 -2.77502 0
M  V30 4866 C 455.199 4.5605 -2.62497 0
M  V30 4867 O 454.225 4.59165 -3.36387 0
M  V30 4868 N 455.427 5.54353 -1.72257 0
M  V30 4869 H 458.192 1.56015 -2.55889 0
M  V30 4870 H 455.753 0.715152 -1.45249 0
M  V30 4871 H 457.745 3.80264 -1.38496 0
M  V30 4872 H 456.315 3.06352 -0.621887 0
M  V30 4873 H 455.535 2.50473 -3.04396 0
M  V30 4874 H 456.823 3.58017 -3.61527 0
M  V30 4875 H 456.221 5.54617 -1.11431 0
M  V30 4876 H 454.778 6.30347 -1.65849 0
M  V30 4877 N 458.211 1.37122 0.776871 0
M  V30 4878 C 459.439 1.3523 1.5659 0
M  V30 4879 C 459.854 -0.0635518 1.88693 0
M  V30 4880 O 459.211 -1.02394 1.51069 0
M  V30 4881 C 459.262 2.18583 2.8793 0
M  V30 4882 O 458.983 3.5465 2.57206 0
M  V30 4883 C 460.484 2.24612 3.82183 0
M  V30 4884 H 457.704 0.4634 0.485285 0
M  V30 4885 H 460.248 1.80392 0.963266 0
M  V30 4886 H 458.403 1.76943 3.4463 0
M  V30 4887 H 458.817 3.98286 3.41275 0
M  V30 4888 H 460.291 2.87267 4.71361 0
M  V30 4889 H 460.768 1.25309 4.20944 0
M  V30 4890 H 461.374 2.66543 3.31414 0
M  V30 4891 N 459.689 -1.00246 1.21608 0
M  V30 4892 C 460.636 -2.09073 0.977613 0
M  V30 4893 C 461.606 -1.65815 -0.097297 0
M  V30 4894 O 462.791 -1.90734 0.0503445 0
M  V30 4895 C 459.931 -3.40671 0.551133 0
M  V30 4896 C 459.044 -3.97326 1.69576 0
M  V30 4897 C 458.179 -5.17043 1.2182 0
M  V30 4898 C 457.218 -5.65813 2.335 0
M  V30 4899 N 456.355 -6.76778 1.86859 0
M  V30 4900 H 461.195 -2.28806 1.90924 0
M  V30 4901 H 458.732 -1.12186 0.951452 0
M  V30 4902 H 460.69 -4.16225 0.285097 0
M  V30 4903 H 459.32 -3.20967 -0.343489 0
M  V30 4904 H 458.372 -3.18734 2.07637 0
M  V30 4905 H 459.684 -4.29511 2.53617 0
M  V30 4906 H 458.838 -5.99852 0.908975 0
M  V30 4907 H 457.577 -4.86458 0.347869 0
M  V30 4908 H 456.582 -4.81599 2.65222 0
M  V30 4909 H 457.807 -5.98427 3.21033 0
M  V30 4910 H 455.753 -6.47994 1.02174 0
M  V30 4911 H 455.67 -7.08231 2.64471 0
M  V30 4912 H 456.938 -7.63116 1.58978 0
M  V30 4913 N 461.167 -1.02423 -1.1978 0
M  V30 4914 C 462.077 -0.610919 -2.26506 0
M  V30 4915 C 463.093 0.355152 -1.70337 0
M  V30 4916 O 464.269 0.214195 -2.00258 0
M  V30 4917 C 461.334 0.0365921 -3.46681 0
M  V30 4918 C 460.395 -0.976389 -4.18049 0
M  V30 4919 C 459.628 -0.359683 -5.32487 0
M  V30 4920 O 459.851 0.838601 -5.64202 0
M  V30 4921 O 458.785 -1.08022 -5.92127 0
M  V30 4922 H 462.611 -1.49965 -2.64091 0
M  V30 4923 H 460.196 -0.794156 -1.26545 0
M  V30 4924 H 462.078 0.39786 -4.19518 0
M  V30 4925 H 460.753 0.899398 -3.10954 0
M  V30 4926 H 459.66 -1.38916 -3.47352 0
M  V30 4927 H 460.993 -1.80941 -4.57735 0
M  V30 4928 N 462.645 1.35699 -0.801477 0
M  V30 4929 C 463.608 2.28199 -0.213994 0
M  V30 4930 C 464.608 1.49359 0.595691 0
M  V30 4931 O 465.798 1.69186 0.414921 0
M  V30 4932 C 462.93 3.33587 0.702297 0
M  V30 4933 H 464.123 2.81666 -1.02976 0
M  V30 4934 H 461.676 1.45467 -0.571759 0
M  V30 4935 H 462.411 2.85297 1.54195 0
M  V30 4936 H 462.196 3.91906 0.123484 0
M  V30 4937 H 463.686 4.02638 1.10783 0
M  V30 4938 N 464.123 0.554532 1.47522 0
M  V30 4939 C 465.053 -0.182974 2.32782 0
M  V30 4940 C 466.034 -0.911377 1.43624 0
M  V30 4941 O 467.219 -0.892366 1.72483 0
M  V30 4942 C 464.349 -1.21513 3.25349 0
M  V30 4943 C 463.303 -0.603355 4.23726 0
M  V30 4944 C 462.629 -1.73995 5.05598 0
M  V30 4945 C 463.929 0.441121 5.20434 0
M  V30 4946 H 465.623 0.52882 2.94693 0
M  V30 4947 H 463.169 0.255759 1.41711 0
M  V30 4948 H 465.122 -1.73922 3.83835 0
M  V30 4949 H 463.846 -1.95683 2.61487 0
M  V30 4950 H 462.505 -0.10059 3.66462 0
M  V30 4951 H 462.153 -2.47063 4.38143 0
M  V30 4952 H 461.853 -1.3364 5.72201 0
M  V30 4953 H 463.377 -2.26735 5.66942 0
M  V30 4954 H 464.791 0.00319931 5.733 0
M  V30 4955 H 463.188 0.763402 5.95224 0
M  V30 4956 H 464.258 1.33799 4.66075 0
M  V30 4957 N 465.601 -1.54893 0.290851 0
M  V30 4958 C 466.531 -2.26103 -0.583084 0
M  V30 4959 C 467.512 -1.25684 -1.14619 0
M  V30 4960 O 468.697 -1.54436 -1.17741 0
M  V30 4961 C 465.827 -2.99409 -1.75987 0
M  V30 4962 C 464.781 -4.0689 -1.32758 0
M  V30 4963 C 464.107 -4.67856 -2.58872 0
M  V30 4964 C 465.407 -5.20215 -0.46624 0
M  V30 4965 H 467.101 -2.99398 0.0108214 0
M  V30 4966 H 464.647 -1.43998 0.00664468 0
M  V30 4967 H 466.6 -3.47943 -2.37727 0
M  V30 4968 H 465.324 -2.23675 -2.37985 0
M  V30 4969 H 463.983 -3.59191 -0.733299 0
M  V30 4970 H 463.631 -3.88772 -3.19163 0
M  V30 4971 H 463.331 -5.40438 -2.30653 0
M  V30 4972 H 464.855 -5.19147 -3.21433 0
M  V30 4973 H 466.269 -5.64704 -0.989047 0
M  V30 4974 H 464.666 -5.99455 -0.27826 0
M  V30 4975 H 465.736 -4.82198 0.511173 0
M  V30 4976 N 467.08 -0.0183926 -1.57589 0
M  V30 4977 C 468.027 0.967022 -2.09565 0
M  V30 4978 C 468.997 1.32983 -0.995225 0
M  V30 4979 O 470.182 1.42501 -1.26878 0
M  V30 4980 C 467.322 2.24772 -2.61861 0
M  V30 4981 C 466.435 1.94232 -3.85873 0
M  V30 4982 C 465.57 3.16518 -4.26603 0
M  V30 4983 C 464.609 2.81748 -5.43401 0
M  V30 4984 N 463.746 3.96626 -5.79338 0
M  V30 4985 H 468.586 0.516874 -2.93483 0
M  V30 4986 H 466.123 0.243544 -1.4507 0
M  V30 4987 H 468.081 2.99667 -2.90268 0
M  V30 4988 H 466.711 2.67423 -1.8079 0
M  V30 4989 H 465.763 1.09625 -3.64262 0
M  V30 4990 H 467.075 1.64616 -4.70853 0
M  V30 4991 H 466.229 3.99743 -4.56389 0
M  V30 4992 H 464.968 3.49286 -3.40368 0
M  V30 4993 H 463.973 1.96933 -5.1332 0
M  V30 4994 H 465.198 2.50207 -6.31327 0
M  V30 4995 H 463.144 4.29257 -4.96059 0
M  V30 4996 H 463.061 3.70598 -6.58933 0
M  V30 4997 H 464.329 4.80586 -6.13724 0
M  V30 4998 N 468.558 1.5553 0.254621 0
M  V30 4999 C 469.807 1.76202 0.981612 0
M  V30 5000 C 470.12 0.580883 1.86776 0
M  V30 5001 O 471.326 0.670448 2.63092 0
M  V30 5002 C 469.782 3.11921 1.79537 0
M  V30 5003 C 469.39 4.37659 0.956991 0
M  V30 5004 C 471.134 3.41936 2.51555 0
M  V30 5005 C 469.041 5.64411 1.76619 0
M  V30 5006 H 467.971 0.656841 0.370237 0
M  V30 5007 H 470.622 1.81969 0.236556 0
M  V30 5008 H 469.004 3.00241 2.58208 0
M  V30 5009 H 470.178 4.60307 0.21315 0
M  V30 5010 H 468.493 4.14922 0.350497 0
M  V30 5011 H 471.09 4.33849 3.12536 0
M  V30 5012 H 471.433 2.62905 3.22779 0
M  V30 5013 H 471.966 3.54797 1.799 0
M  V30 5014 H 468.705 6.46241 1.09783 0
M  V30 5015 H 468.225 5.45877 2.48551 0
M  V30 5016 H 469.904 6.03386 2.33527 0
M  V30 5017 N 470.036 -0.519951 1.48776 0
M  V30 5018 C 470.966 -1.63253 1.66945 0
M  V30 5019 C 471.947 -1.62014 0.518224 0
M  V30 5020 O 473.132 -1.79053 0.751919 0
M  V30 5021 C 470.262 -3.0181 1.71836 0
M  V30 5022 C 469.216 -3.17911 2.8656 0
M  V30 5023 C 468.542 -4.5763 2.76548 0
M  V30 5024 C 469.842 -2.99729 4.27738 0
M  V30 5025 H 471.536 -1.48302 2.6009 0
M  V30 5026 H 469.082 -0.712026 1.25165 0
M  V30 5027 H 471.035 -3.79525 1.83135 0
M  V30 5028 H 469.759 -3.17806 0.752775 0
M  V30 5029 H 468.418 -2.42616 2.74833 0
M  V30 5030 H 468.066 -4.70476 1.77937 0
M  V30 5031 H 467.766 -4.69346 3.53536 0
M  V30 5032 H 469.29 -5.37431 2.89828 0
M  V30 5033 H 470.704 -3.67228 4.40246 0
M  V30 5034 H 469.101 -3.22932 5.05801 0
M  V30 5035 H 470.171 -1.96047 4.43502 0
M  V30 5036 N 471.514 -1.37532 -0.769588 0
M  V30 5037 C 472.762 -1.32597 -1.5252 0
M  V30 5038 C 473.083 0.0884294 -1.94799 0
M  V30 5039 O 472.353 1.03289 -1.66458 0
M  V30 5040 H 470.933 -0.487846 -0.565699 0
M  V30 5041 H 473.595 -1.72044 -0.915806 0
M  V30 5042 H 472.691 -1.96643 -2.42359 0
M  V30 5043 N 472.992 0.995999 -1.22138 0
M  V30 5044 C 474.269 1.70834 -0.952642 0
M  V30 5045 C 474.649 2.04257 0.533119 0
M  V30 5046 O 473.997 1.72343 1.50034 0
M  V30 5047 C 474.207 2.96119 -1.84701 0
M  V30 5048 C 475.555 3.68962 -2.10124 0
M  V30 5049 O 476.579 3.0612 -1.82124 0
M  V30 5050 O 475.438 4.82017 -2.57531 0
M  V30 5051 H 472.532 0.745498 -0.357997 0
M  V30 5052 H 475.078 1.05262 -1.33109 0
M  V30 5053 H 473.85 2.67898 -2.85213 0
M  V30 5054 H 473.473 3.6943 -1.46995 0
M  V30 5055 N 474.47 1.03057 1.19235 0
M  V30 5056 C 475.403 0.557384 2.21288 0
M  V30 5057 C 476.381 -0.402675 1.57535 0
M  V30 5058 O 477.565 -0.319376 1.85775 0
M  V30 5059 C 474.692 -0.187041 3.38183 0
M  V30 5060 C 473.738 0.72471 4.20298 0
M  V30 5061 S 474.571 2.20187 4.88137 0
M  V30 5062 C 475.727 1.46801 6.08441 0
M  V30 5063 H 475.96 1.42207 2.61083 0
M  V30 5064 H 473.493 0.840651 1.29508 0
M  V30 5065 H 475.451 -0.610405 4.05936 0
M  V30 5066 H 474.112 -1.02748 2.96819 0
M  V30 5067 H 473.305 0.149911 5.03777 0
M  V30 5068 H 472.907 1.08647 3.57871 0
M  V30 5069 H 475.199 0.755522 6.73274 0
M  V30 5070 H 476.142 2.27946 6.70407 0
M  V30 5071 H 476.55 0.964762 5.56195 0
M  V30 5072 N 475.948 -1.35272 0.808662 0
M  V30 5073 C 476.88 -2.28507 0.178149 0
M  V30 5074 C 477.893 -1.50377 -0.623754 0
M  V30 5075 O 479.082 -1.72583 -0.455774 0
M  V30 5076 C 476.182 -3.30038 -0.769959 0
M  V30 5077 C 475.355 -4.37398 -0.0139749 0
M  V30 5078 C 474.414 -5.18775 -0.880875 0
M  V30 5079 O 473.44 -5.68236 -0.331059 0
M  V30 5080 N 474.642 -5.37087 -2.20267 0
M  V30 5081 H 477.407 -2.83255 0.979106 0
M  V30 5082 H 474.968 -1.47643 0.664308 0
M  V30 5083 H 476.96 -3.81371 -1.35418 0
M  V30 5084 H 475.53 -2.75789 -1.47171 0
M  V30 5085 H 474.75 -3.86971 0.751468 0
M  V30 5086 H 476.038 -5.06268 0.506965 0
M  V30 5087 H 475.436 -4.9855 -2.67328 0
M  V30 5088 H 473.993 -5.91593 -2.73608 0
M  V30 5089 N 477.426 -0.562348 -1.47226 0
M  V30 5090 C 478.837 -0.130325 -1.86245 0
M  V30 5091 C 479.188 1.30128 -1.46838 0
M  V30 5092 O 478.313 1.97974 -0.873805 0
M  V30 5093 C 478.908 -0.229738 -3.3802 0
M  V30 5094 C 477.467 0.14728 -3.76112 0
M  V30 5095 C 476.614 -0.574971 -2.71274 0
M  V30 5096 H 479.565 -0.771773 -1.3867 0
M  V30 5097 H 479.586 0.550316 -3.76499 0
M  V30 5098 H 479.098 -1.27178 -3.66671 0
M  V30 5099 H 477.199 1.19023 -3.53078 0
M  V30 5100 H 477.312 -0.214858 -4.78618 0
M  V30 5101 H 475.676 -0.0174756 -2.54694 0
M  V30 5102 H 476.459 -1.61827 -3.02766 0
M  V30 5103 N 478.904 1.54736 -0.299062 0
M  V30 5104 C 480.152 1.99706 0.31017 0
M  V30 5105 C 480.473 1.18896 1.54559 0
M  V30 5106 O 479.743 0.284445 1.93824 0
M  V30 5107 H 478.323 0.737686 0.117596 0
M  V30 5108 H 480.985 1.9054 -0.409943 0
M  V30 5109 H 480.081 3.06596 0.58355 0
M  V30 5110 N 480.382 0.0267497 1.57577 0
M  V30 5111 C 481.659 -0.690926 1.82991 0
M  V30 5112 C 482.039 -1.90471 0.910164 0
M  V30 5113 O 481.387 -2.28474 -0.0347985 0
M  V30 5114 C 481.597 -1.07139 3.32148 0
M  V30 5115 C 482.945 -1.46402 3.98562 0
M  V30 5116 O 483.969 -1.16443 3.36629 0
M  V30 5117 O 482.828 -2.02214 5.07712 0
M  V30 5118 H 479.922 -0.338747 0.75444 0
M  V30 5119 H 482.468 0.0542506 1.69613 0
M  V30 5120 H 481.24 -0.207394 3.9075 0
M  V30 5121 H 480.863 -1.87481 3.50623 0
M  V30 5122 N 481.861 -1.55662 -0.24637 0
M  V30 5123 C 483.091 -1.81312 -0.990438 0
M  V30 5124 C 483.499 -0.600234 -1.79426 0
M  V30 5125 O 482.842 0.440537 -1.78339 0
M  V30 5126 C 482.904 -3.0032 -1.97607 0
M  V30 5127 C 482.568 -4.36322 -1.35912 0
M  V30 5128 C 483.565 -5.14295 -0.761348 0
M  V30 5129 C 481.25 -4.83019 -1.37833 0
M  V30 5130 C 483.244 -6.37114 -0.190998 0
M  V30 5131 C 480.931 -6.05786 -0.804128 0
M  V30 5132 C 481.929 -6.82672 -0.211489 0
M  V30 5133 O 481.617 -8.03121 0.353845 0
M  V30 5134 H 481.349 -0.607233 -0.297058 0
M  V30 5135 H 483.903 -2.0356 -0.274351 0
M  V30 5136 H 482.133 -2.73829 -2.73047 0
M  V30 5137 H 483.822 -3.13057 -2.58361 0
M  V30 5138 H 484.588 -4.79337 -0.739013 0
M  V30 5139 H 480.467 -4.23165 -1.829 0
M  V30 5140 H 484.011 -6.97069 0.272206 0
M  V30 5141 H 479.908 -6.40222 -0.823792 0
M  V30 5142 H 480.676 -8.18131 0.245761 0
M  V30 5143 N 483.339 0.512053 -1.4905 0
M  V30 5144 C 484.586 1.26686 -1.57978 0
M  V30 5145 C 484.914 1.92733 -0.261553 0
M  V30 5146 O 484.169 1.80772 0.749667 0
M  V30 5147 C 484.468 2.36446 -2.68008 0
M  V30 5148 C 484.134 1.87932 -4.09869 0
M  V30 5149 C 482.796 1.74419 -4.48477 0
M  V30 5150 C 485.148 1.5149 -4.98698 0
M  V30 5151 C 482.476 1.22827 -5.73699 0
M  V30 5152 C 484.828 1.01355 -6.24428 0
M  V30 5153 C 483.492 0.864735 -6.61875 0
M  V30 5154 H 482.762 0.463577 -0.578081 0
M  V30 5155 H 485.409 0.569421 -1.82838 0
M  V30 5156 H 483.714 3.11933 -2.37076 0
M  V30 5157 H 485.411 2.9453 -2.72127 0
M  V30 5158 H 482.001 1.99405 -3.79389 0
M  V30 5159 H 486.185 1.60782 -4.69535 0
M  V30 5160 H 481.441 1.10008 -6.01422 0
M  V30 5161 H 485.615 0.722351 -6.92644 0
M  V30 5162 H 483.242 0.462777 -7.5879 0
M  V30 5163 N 484.817 1.37938 0.762283 0
M  V30 5164 C 486.094 1.24196 1.51112 0
M  V30 5165 C 486.474 -0.160409 2.1049 0
M  V30 5166 O 485.822 -1.16904 1.96331 0
M  V30 5167 C 486.032 2.34537 2.58445 0
M  V30 5168 C 487.38 2.7254 3.25588 0
M  V30 5169 O 488.404 2.33783 2.68745 0
M  V30 5170 O 487.263 3.39343 4.28379 0
M  V30 5171 H 484.357 0.485175 0.669727 0
M  V30 5172 H 486.903 1.49743 0.798438 0
M  V30 5173 H 485.675 3.28406 2.12756 0
M  V30 5174 H 485.298 2.10505 3.37303 0
M  V30 5175 N 486.295 -0.989507 1.22664 0
M  V30 5176 C 487.225 -2.09847 1.02404 0
M  V30 5177 C 488.206 -1.70007 -0.0561303 0
M  V30 5178 O 489.391 -1.93906 0.106748 0
M  V30 5179 C 486.521 -3.41996 0.604663 0
M  V30 5180 C 485.475 -3.95699 1.63115 0
M  V30 5181 C 484.801 -5.23936 1.0675 0
M  V30 5182 C 486.101 -4.25999 3.02196 0
M  V30 5183 H 487.795 -2.27054 1.95158 0
M  V30 5184 H 485.341 -1.09111 0.939727 0
M  V30 5185 H 487.294 -4.1899 0.45002 0
M  V30 5186 H 486.018 -3.24626 -0.35855 0
M  V30 5187 H 484.677 -3.2084 1.77362 0
M  V30 5188 H 484.325 -5.02909 0.0955422 0
M  V30 5189 H 484.025 -5.60833 1.75328 0
M  V30 5190 H 485.549 -6.0356 0.924516 0
M  V30 5191 H 486.963 -4.93777 2.91303 0
M  V30 5192 H 485.36 -4.74076 3.67929 0
M  V30 5193 H 486.43 -3.33636 3.51873 0
M  V30 5194 N 487.773 -1.03688 -1.18687 0
M  V30 5195 C 489.019 -0.739123 -1.88851 0
M  V30 5196 C 489.352 0.731042 -1.79915 0
M  V30 5197 O 488.627 1.53313 -1.19688 0
M  V30 5198 C 488.91 -1.20106 -3.3948 0
M  V30 5199 C 488.763 -2.73304 -3.57246 0
M  V30 5200 C 490.082 -0.788134 -4.32986 0
M  V30 5201 H 487.201 -0.269978 -0.68577 0
M  V30 5202 H 489.843 -1.28822 -1.3966 0
M  V30 5203 H 487.993 -0.733915 -3.81505 0
M  V30 5204 H 489.665 -3.28027 -3.24339 0
M  V30 5205 H 487.908 -3.13313 -3.00029 0
M  V30 5206 H 488.579 -3.00684 -4.62918 0
M  V30 5207 H 491.055 -1.19005 -3.98719 0
M  V30 5208 H 489.931 -1.13915 -5.36949 0
M  V30 5209 H 490.192 0.308988 -4.41019 0
M  V30 5210 N 489.251 1.34841 -0.815825 0
M  V30 5211 C 490.181 2.32187 -0.247298 0
M  V30 5212 C 491.162 1.5791 0.632344 0
M  V30 5213 O 492.347 1.8593 0.560698 0
M  V30 5214 C 489.477 3.42122 0.597466 0
M  V30 5215 C 488.431 4.27602 -0.184446 0
M  V30 5216 C 487.757 5.28942 0.782609 0
M  V30 5217 C 489.057 5.03502 -1.38865 0
M  V30 5218 H 490.751 2.79985 -1.06061 0
M  V30 5219 H 488.297 1.34611 -0.511461 0
M  V30 5220 H 490.25 4.09232 1.00533 0
M  V30 5221 H 488.974 2.92956 1.44376 0
M  V30 5222 H 487.633 3.62085 -0.573592 0
M  V30 5223 H 487.281 4.7604 1.62466 0
M  V30 5224 H 486.981 5.87008 0.263695 0
M  V30 5225 H 488.505 5.98922 1.18848 0
M  V30 5226 H 489.919 5.63506 -1.05518 0
M  V30 5227 H 488.316 5.71108 -1.8427 0
M  V30 5228 H 489.386 4.33608 -2.17054 0
M  V30 5229 N 490.729 0.570148 1.46925 0
M  V30 5230 C 491.976 0.0509529 2.02436 0
M  V30 5231 C 492.304 -1.30405 1.44308 0
M  V30 5232 O 491.559 -1.86493 0.593198 0
M  V30 5233 C 491.858 -0.0780336 3.57315 0
M  V30 5234 C 491.524 1.20775 4.34424 0
M  V30 5235 C 490.186 1.56004 4.5521 0
M  V30 5236 C 492.538 2.0592 4.78797 0
M  V30 5237 C 489.866 2.76201 5.17619 0
M  V30 5238 C 492.218 3.25332 5.42533 0
M  V30 5239 C 490.882 3.60859 5.61549 0
M  V30 5240 H 490.152 0.018645 0.740765 0
M  V30 5241 H 492.799 0.744262 1.76445 0
M  V30 5242 H 491.104 -0.854394 3.82371 0
M  V30 5243 H 492.801 -0.495312 3.97929 0
M  V30 5244 H 489.391 0.923469 4.18533 0
M  V30 5245 H 493.575 1.80008 4.62505 0
M  V30 5246 H 488.831 3.0388 5.30535 0
M  V30 5247 H 493.005 3.91586 5.75876 0
M  V30 5248 H 490.632 4.54088 6.09678 0
M  V30 5249 N 492.207 -1.54576 0.307264 0
M  V30 5250 C 493.455 -1.99867 -0.299574 0
M  V30 5251 C 493.776 -1.19714 -1.53927 0
M  V30 5252 O 493.046 -0.29472 -1.9367 0
M  V30 5253 H 491.626 -0.738299 -0.113683 0
M  V30 5254 H 494.288 -1.9032 0.420042 0
M  V30 5255 H 493.384 -3.06901 -0.567283 0
M  V30 5256 N 493.685 -0.035106 -1.57561 0
M  V30 5257 C 494.913 0.652258 -1.9635 0
M  V30 5258 C 495.328 1.65317 -0.911897 0
M  V30 5259 O 494.685 1.82194 0.105657 0
M  V30 5260 C 494.736 1.35337 -3.35211 0
M  V30 5261 O 494.457 0.392548 -4.36338 0
M  V30 5262 C 495.958 2.13199 -3.88666 0
M  V30 5263 H 493.178 0.179444 -0.646561 0
M  V30 5264 H 495.722 -0.0966459 -2.04271 0
M  V30 5265 H 493.877 2.05362 -3.28489 0
M  V30 5266 H 494.291 0.891097 -5.16875 0
M  V30 5267 H 495.765 2.577 -4.88154 0
M  V30 5268 H 496.242 2.97353 -3.23231 0
M  V30 5269 H 496.848 1.48118 -3.98674 0
M  V30 5270 N 495.163 1.55791 0.238111 0
M  V30 5271 C 496.579 1.48411 0.587045 0
M  V30 5272 C 496.779 0.72702 1.87927 0
M  V30 5273 O 495.835 0.259942 2.51158 0
M  V30 5274 C 497.148 2.92873 0.681623 0
M  V30 5275 C 498.696 3.03295 0.773363 0
M  V30 5276 C 499.171 4.49082 0.899428 0
M  V30 5277 N 500.662 4.53056 0.964075 0
M  V30 5278 C 501.397 5.63117 1.08104 0
M  V30 5279 N 500.893 6.82969 1.16299 0
M  V30 5280 N 502.686 5.50933 1.11488 0
M  V30 5281 H 494.837 2.0345 -0.610076 0
M  V30 5282 H 497.1 0.924034 -0.211813 0
M  V30 5283 H 496.806 3.51142 -0.19802 0
M  V30 5284 H 496.68 3.43851 1.55069 0
M  V30 5285 H 499.067 2.45101 1.64346 0
M  V30 5286 H 499.148 2.55513 -0.121034 0
M  V30 5287 H 498.792 5.07889 0.0338586 0
M  V30 5288 H 498.722 4.94553 1.809 0
M  V30 5289 H 501.213 3.66737 0.91173 0
M  V30 5290 H 501.526 7.62598 1.25155 0
M  V30 5291 H 499.871 6.85712 1.13241 0
M  V30 5292 H 503.062 4.56231 1.0474 0
M  V30 5293 H 503.235 6.36743 1.20259 0
M  V30 5294 N 496.642 -0.504142 1.49319 0
M  V30 5295 C 497.888 -1.26033 1.58882 0
M  V30 5296 C 498.221 -1.92268 0.273274 0
M  V30 5297 O 497.496 -1.80567 -0.72291 0
M  V30 5298 C 497.779 -2.32976 2.7458 0
M  V30 5299 C 497.632 -1.71263 4.1592 0
M  V30 5300 C 498.951 -3.34561 2.85932 0
M  V30 5301 H 496.07 -0.456863 0.578312 0
M  V30 5302 H 498.712 -0.558965 1.81592 0
M  V30 5303 H 496.862 -2.92796 2.55348 0
M  V30 5304 H 498.534 -1.15294 4.4666 0
M  V30 5305 H 496.777 -1.01686 4.21714 0
M  V30 5306 H 497.448 -2.48816 4.92742 0
M  V30 5307 H 499.924 -2.84727 3.0343 0
M  V30 5308 H 498.8 -4.06754 3.68568 0
M  V30 5309 H 499.061 -3.96695 1.95154 0
M  V30 5310 N 498.12 -1.38341 -0.754957 0
M  V30 5311 C 499.052 -1.31347 -1.87831 0
M  V30 5312 C 500.065 -0.225955 -1.61224 0
M  V30 5313 O 501.254 -0.48341 -1.7183 0
M  V30 5314 C 498.354 -1.01201 -3.23437 0
M  V30 5315 C 497.527 -2.20834 -3.77559 0
M  V30 5316 C 496.586 -1.87454 -4.91678 0
M  V30 5317 O 495.612 -2.59934 -5.06382 0
M  V30 5318 N 496.814 -0.828682 -5.74555 0
M  V30 5319 H 499.579 -2.28147 -1.94342 0
M  V30 5320 H 497.14 -1.32184 -0.934828 0
M  V30 5321 H 499.132 -0.769249 -3.97322 0
M  V30 5322 H 497.702 -0.132011 -3.12321 0
M  V30 5323 H 496.922 -2.61184 -2.95256 0
M  V30 5324 H 498.21 -3.00678 -4.10451 0
M  V30 5325 H 497.608 -0.227591 -5.65242 0
M  V30 5326 H 496.165 -0.645802 -6.48593 0
M  V30 5327 N 499.598 0.982988 -1.23187 0
M  V30 5328 C 500.823 1.76455 -1.08988 0
M  V30 5329 C 501.248 1.84726 0.354691 0
M  V30 5330 O 500.606 1.30699 1.25649 0
M  V30 5331 C 500.654 3.17094 -1.71708 0
M  V30 5332 O 499.758 4.00648 -0.977477 0
M  V30 5333 H 499.099 0.542988 -0.382177 0
M  V30 5334 H 501.629 1.23413 -1.63188 0
M  V30 5335 H 501.639 3.67684 -1.76841 0
M  V30 5336 H 500.314 3.10389 -2.76823 0
M  V30 5337 H 498.891 3.59161 -1.0029 0
M  V30 5338 N 501.076 1.04316 1.18135 0
M  V30 5339 C 502.322 0.758899 1.88712 0
M  V30 5340 C 502.677 -0.705863 1.78984 0
M  V30 5341 O 501.97 -1.50874 1.18101 0
M  V30 5342 C 502.164 1.16271 3.37958 0
M  V30 5343 C 501.993 2.66518 3.62213 0
M  V30 5344 C 500.763 3.33702 3.79436 0
M  V30 5345 C 502.961 3.64739 3.62588 0
M  V30 5346 N 500.943 4.72904 3.91452 0
M  V30 5347 C 502.314 4.89627 3.80348 0
M  V30 5348 C 504.369 3.58333 3.4569 0
M  V30 5349 C 503.072 6.08879 3.8296 0
M  V30 5350 C 505.098 4.77016 3.49586 0
M  V30 5351 C 504.46 6.00724 3.67845 0
M  V30 5352 H 500.559 0.329795 0.709055 0
M  V30 5353 H 503.143 1.33334 1.4188 0
M  V30 5354 H 501.314 0.616319 3.83479 0
M  V30 5355 H 503.046 0.829205 3.96114 0
M  V30 5356 H 499.801 2.84105 3.78921 0
M  V30 5357 H 500.225 5.45258 4.01277 0
M  V30 5358 H 504.867 2.63663 3.30517 0
M  V30 5359 H 502.585 7.03903 3.96921 0
M  V30 5360 H 506.171 4.73703 3.37782 0
M  V30 5361 H 505.051 6.91022 3.70753 0
M  V30 5362 N 502.554 -1.34406 0.822964 0
M  V30 5363 C 503.501 -2.29519 0.24284 0
M  V30 5364 C 504.471 -1.5359 -0.632397 0
M  V30 5365 O 505.656 -1.8196 -0.57403 0
M  V30 5366 C 502.796 -3.40032 -0.58925 0
M  V30 5367 C 501.909 -4.30899 0.308236 0
M  V30 5368 C 501.044 -5.28515 -0.533425 0
M  V30 5369 C 500.083 -6.1102 0.363444 0
M  V30 5370 N 499.22 -7.00725 -0.439147 0
M  V30 5371 H 504.06 -2.78537 1.05929 0
M  V30 5372 H 501.597 -1.3707 0.533872 0
M  V30 5373 H 503.555 -4.0279 -1.087 0
M  V30 5374 H 502.185 -2.92248 -1.37081 0
M  V30 5375 H 501.237 -3.69002 0.924203 0
M  V30 5376 H 502.549 -4.88717 0.997862 0
M  V30 5377 H 501.703 -5.96725 -1.09565 0
M  V30 5378 H 500.442 -4.71235 -1.25656 0
M  V30 5379 H 499.447 -5.41743 0.937812 0
M  V30 5380 H 500.672 -6.70381 1.08469 0
M  V30 5381 H 498.618 -6.45913 -1.14595 0
M  V30 5382 H 498.535 -7.55756 0.19209 0
M  V30 5383 H 499.803 -7.73263 -0.984124 0
M  V30 5384 N 504.032 -0.577932 -1.46621 0
M  V30 5385 C 505.28 -0.061566 -2.02006 0
M  V30 5386 C 505.601 1.30117 -1.4524 0
M  V30 5387 O 504.871 1.85313 -0.63529 0
M  V30 5388 H 503.451 -0.0197692 -0.746738 0
M  V30 5389 H 506.113 -0.752631 -1.79782 0
M  V30 5390 H 505.209 0.0110238 -3.12098 0
M  V30 5391 N 505.51 1.54411 -0.315457 0
M  V30 5392 C 506.735 2.05299 0.294496 0
M  V30 5393 C 507.16 1.19052 1.4563 0
M  V30 5394 O 506.518 0.197804 1.80218 0
M  V30 5395 C 506.566 3.5345 0.714549 0
M  V30 5396 O 505.67 3.70175 1.81781 0
M  V30 5397 H 505.011 0.661743 0.0547019 0
M  V30 5398 H 507.541 1.99327 -0.461508 0
M  V30 5399 H 507.551 3.9557 0.999426 0
M  V30 5400 H 506.226 4.1568 -0.135244 0
M  V30 5401 H 504.803 3.3996 1.53236 0
M  V30 5402 N 506.988 0.0434614 1.5754 0
M  V30 5403 C 507.918 -0.931651 2.14109 0
M  V30 5404 C 508.899 -1.32971 1.06079 0
M  V30 5405 O 510.084 -1.40579 1.33982 0
M  V30 5406 C 507.214 -2.20914 2.67982 0
M  V30 5407 C 506.168 -1.95139 3.80926 0
M  V30 5408 C 505.494 -3.29276 4.21285 0
M  V30 5409 C 506.794 -1.27913 5.06395 0
M  V30 5410 H 508.488 -0.460497 2.95837 0
M  V30 5411 H 506.034 -0.220058 1.42309 0
M  V30 5412 H 507.987 -2.89522 3.06194 0
M  V30 5413 H 506.711 -2.70221 1.83434 0
M  V30 5414 H 505.37 -1.28945 3.43175 0
M  V30 5415 H 505.018 -3.76369 3.33699 0
M  V30 5416 H 504.718 -3.12831 4.97404 0
M  V30 5417 H 506.242 -3.99129 4.62091 0
M  V30 5418 H 507.656 -1.86544 5.42102 0
M  V30 5419 H 506.053 -1.2182 5.87605 0
M  V30 5420 H 507.123 -0.254066 4.84234 0
M  V30 5421 N 508.466 -1.55915 -0.229846 0
M  V30 5422 C 509.712 -1.78807 -0.956868 0
M  V30 5423 C 510.045 -0.611687 -1.84315 0
M  V30 5424 O 509.32 0.389398 -1.90562 0
M  V30 5425 C 509.603 -3.11718 -1.80288 0
M  V30 5426 C 509.456 -4.3979 -0.943649 0
M  V30 5427 C 510.775 -3.40999 -2.78222 0
M  V30 5428 H 507.894 -0.6505 -0.346437 0
M  V30 5429 H 510.536 -1.88648 -0.226252 0
M  V30 5430 H 508.686 -3.03459 -2.42579 0
M  V30 5431 H 510.358 -4.60059 -0.338121 0
M  V30 5432 H 508.601 -4.33086 -0.248705 0
M  V30 5433 H 509.272 -5.29208 -1.5698 0
M  V30 5434 H 511.748 -3.49332 -2.26067 0
M  V30 5435 H 510.624 -4.35183 -3.34526 0
M  V30 5436 H 510.885 -2.62754 -3.55546 0
M  V30 5437 N 509.944 0.496216 -1.49584 0
M  V30 5438 C 510.876 1.61404 -1.62731 0
M  V30 5439 C 511.889 1.54613 -0.50978 0
M  V30 5440 O 513.078 1.60458 -0.782017 0
M  V30 5441 C 510.178 3.00212 -1.57245 0
M  V30 5442 C 509.351 3.32138 -2.84611 0
M  V30 5443 C 508.41 4.5038 -2.72112 0
M  V30 5444 O 507.436 4.51926 -3.46051 0
M  V30 5445 N 508.638 5.50575 -1.83977 0
M  V30 5446 H 511.403 1.50552 -2.59141 0
M  V30 5447 H 508.964 0.684182 -1.46733 0
M  V30 5448 H 510.956 3.77241 -1.4653 0
M  V30 5449 H 509.526 3.04964 -0.686729 0
M  V30 5450 H 508.746 2.4396 -3.09641 0
M  V30 5451 H 510.034 3.50268 -3.69039 0
M  V30 5452 H 509.432 5.52128 -1.23171 0
M  V30 5453 H 507.989 6.26687 -1.79182 0
M  V30 5454 N 511.423 1.38739 0.74761 0
M  V30 5455 C 512.386 1.36241 1.84312 0
M  V30 5456 C 513.386 0.261811 1.58654 0
M  V30 5457 O 514.576 0.519031 1.66288 0
M  V30 5458 C 511.708 1.12253 3.21888 0
M  V30 5459 H 512.901 2.33712 1.87933 0
M  V30 5460 H 510.454 1.2412 0.949946 0
M  V30 5461 H 511.189 0.154133 3.23934 0
M  V30 5462 H 510.974 1.91943 3.41907 0
M  V30 5463 H 512.464 1.13215 4.0196 0
M  V30 5464 N 512.901 -0.976442 1.23707 0
M  V30 5465 C 514.126 -1.75875 1.09922 0
M  V30 5466 C 514.551 -1.84911 -0.34489 0
M  V30 5467 O 513.909 -1.31363 -1.24954 0
M  V30 5468 C 513.957 -3.16179 1.73388 0
M  V30 5469 O 513.061 -4.00124 0.99871 0
M  V30 5470 H 512.402 -0.540954 0.385052 0
M  V30 5471 H 514.932 -1.22546 1.6384 0
M  V30 5472 H 514.942 -3.66741 1.78788 0
M  V30 5473 H 513.617 -3.08917 2.78466 0
M  V30 5474 H 512.194 -3.58624 1.02193 0
M  V30 5475 N 514.379 -1.04941 -1.1758 0
M  V30 5476 C 515.289 -0.658826 -2.25159 0
M  V30 5477 C 516.305 0.318941 -1.71052 0
M  V30 5478 O 517.481 0.171669 -2.00667 0
M  V30 5479 C 514.546 -0.0369522 -3.4668 0
M  V30 5480 C 513.607 -1.06484 -4.15884 0
M  V30 5481 C 512.84 -0.472551 -5.31604 0
M  V30 5482 O 513.063 0.718736 -5.65854 0
M  V30 5483 O 511.997 -1.20557 -5.89703 0
M  V30 5484 H 515.823 -1.55533 -2.60851 0
M  V30 5485 H 513.408 -0.820819 -1.24832 0
M  V30 5486 H 515.29 0.308784 -4.20267 0
M  V30 5487 H 513.965 0.833238 -3.12792 0
M  V30 5488 H 512.872 -1.46253 -3.44327 0
M  V30 5489 H 514.205 -1.9061 -4.53794 0
M  V30 5490 N 515.857 1.33968 -0.830081 0
M  V30 5491 C 516.82 2.27694 -0.26235 0
M  V30 5492 C 517.82 1.50589 0.563876 0
M  V30 5493 O 519.01 1.70028 0.378941 0
M  V30 5494 C 516.142 3.35002 0.63138 0
M  V30 5495 H 517.335 2.79419 -1.08928 0
M  V30 5496 H 514.888 1.44221 -0.602486 0
M  V30 5497 H 515.623 2.88504 1.48109 0
M  V30 5498 H 515.408 3.92079 0.0403276 0
M  V30 5499 H 516.898 4.04897 1.02217 0
M  V30 5500 N 517.335 0.585699 1.46312 0
M  V30 5501 C 518.283 -0.158577 2.32059 0
M  V30 5502 C 519.277 -0.881427 1.44662 0
M  V30 5503 O 520.483 -0.799476 1.61271 0
M  V30 5504 H 516.858 -0.0700066 0.748734 0
M  V30 5505 H 518.829 0.583383 2.92642 0
M  V30 5506 C 517.578 -1.15701 3.27885 0
M  V30 5507 H 516.901 -0.610215 3.95116 0
M  V30 5508 H 518.341 -1.64812 3.90657 0
M  V30 5509 C 516.8 -2.21951 2.53455 0
M  V30 5510 O 517.33 -3.29352 2.29978 0
M  V30 5511 N 515.536 -1.9664 2.13965 0
M  V30 5512 H 515.083 -1.09309 2.33258 0
M  V30 5513 H 515.041 -2.6794 1.64485 0
M  V30 5514 N 518.813 -1.54241 0.323641 0
M  V30 5515 C 519.743 -2.27289 -0.534993 0
M  V30 5516 C 520.724 -1.28087 -1.11927 0
M  V30 5517 O 521.909 -1.56899 -1.14439 0
M  V30 5518 C 519.039 -3.03075 -1.69596 0
M  V30 5519 C 517.993 -4.09614 -1.24098 0
M  V30 5520 C 517.319 -4.73242 -2.4889 0
M  V30 5521 C 518.619 -5.21087 -0.355789 0
M  V30 5522 H 520.313 -2.99308 0.0743257 0
M  V30 5523 H 517.859 -1.43952 0.0371874 0
M  V30 5524 H 519.812 -3.52907 -2.30293 0
M  V30 5525 H 518.536 -2.28673 -2.33187 0
M  V30 5526 H 517.195 -3.60666 -0.656945 0
M  V30 5527 H 516.843 -3.95455 -3.10845 0
M  V30 5528 H 516.543 -5.45209 -2.19138 0
M  V30 5529 H 518.067 -5.25848 -3.10348 0
M  V30 5530 H 519.481 -5.66675 -0.869042 0
M  V30 5531 H 517.878 -5.9991 -0.151045 0
M  V30 5532 H 518.948 -4.81005 0.613339 0
M  V30 5533 N 520.291 -0.0518155 -1.57515 0
M  V30 5534 C 521.223 0.951542 -2.08515 0
M  V30 5535 C 522.236 1.27436 -1.01311 0
M  V30 5536 O 523.425 1.23504 -1.28876 0
M  V30 5537 C 520.525 2.27291 -2.5138 0
M  V30 5538 C 519.698 2.13191 -3.81927 0
M  V30 5539 C 518.757 3.28458 -4.11098 0
M  V30 5540 O 517.783 3.04334 -4.81009 0
M  V30 5541 N 518.985 4.52954 -3.63061 0
M  V30 5542 H 521.75 0.516242 -2.9522 0
M  V30 5543 H 519.311 0.13441 -1.61341 0
M  V30 5544 H 521.303 3.03272 -2.67971 0
M  V30 5545 H 519.873 2.62386 -1.69919 0
M  V30 5546 H 519.093 1.21798 -3.74912 0
M  V30 5547 H 520.381 2.00999 -4.67415 0
M  V30 5548 H 519.779 4.75444 -3.06545 0
M  V30 5549 H 518.336 5.26026 -3.84889 0
M  V30 5550 N 521.769 1.56035 0.221574 0
M  V30 5551 C 522.732 1.91584 1.2581 0
M  V30 5552 C 523.732 0.794425 1.39805 0
M  V30 5553 O 524.922 1.06217 1.38071 0
M  V30 5554 C 522.054 2.16663 2.63192 0
M  V30 5555 H 523.247 2.8429 0.954935 0
M  V30 5556 H 520.8 1.49316 0.461988 0
M  V30 5557 H 521.535 1.26508 2.98607 0
M  V30 5558 H 521.32 2.98358 2.5441 0
M  V30 5559 H 522.81 2.45262 3.37988 0
M  V30 5560 N 523.247 -0.488276 1.49845 0
M  V30 5561 C 524.21 -1.57069 1.66919 0
M  V30 5562 C 525.21 -1.51445 0.540479 0
M  V30 5563 O 526.4 -1.5437 0.807188 0
M  V30 5564 C 523.532 -2.96718 1.67844 0
M  V30 5565 H 524.725 -1.43254 2.63474 0
M  V30 5566 H 522.278 -0.713435 1.39068 0
M  V30 5567 H 523.013 -3.15996 0.7292 0
M  V30 5568 H 522.798 -3.02208 2.49826 0
M  V30 5569 H 524.288 -3.75335 1.83066 0
M  V30 5570 N 524.725 -1.39134 -0.740242 0
M  V30 5571 C 525.657 -1.33332 -1.86428 0
M  V30 5572 C 526.67 -0.243042 -1.60976 0
M  V30 5573 O 527.859 -0.501608 -1.71307 0
M  V30 5574 C 524.959 -1.04626 -3.22346 0
M  V30 5575 C 524.132 -2.24826 -3.75196 0
M  V30 5576 C 523.191 -1.92659 -4.89662 0
M  V30 5577 O 522.217 -2.6529 -5.03597 0
M  V30 5578 N 523.419 -0.889575 -5.73643 0
M  V30 5579 H 526.184 -2.30196 -1.91911 0
M  V30 5580 H 523.745 -1.33168 -0.920756 0
M  V30 5581 H 525.737 -0.811347 -3.96484 0
M  V30 5582 H 524.307 -0.165129 -3.12164 0
M  V30 5583 H 523.527 -2.64301 -2.9247 0
M  V30 5584 H 524.815 -3.05015 -4.07239 0
M  V30 5585 H 524.213 -0.287529 -5.64969 0
M  V30 5586 H 522.77 -0.714557 -6.47871 0
M  V30 5587 N 526.204 0.969867 -1.24223 0
M  V30 5588 C 527.481 1.68774 -0.988664 0
M  V30 5589 C 527.861 2.05342 0.489673 0
M  V30 5590 O 527.209 1.75486 1.46345 0
M  V30 5591 C 527.419 2.92135 -1.90941 0
M  V30 5592 C 528.767 3.64422 -2.17903 0
M  V30 5593 O 529.791 3.02188 -1.88576 0
M  V30 5594 O 528.65 4.76446 -2.67697 0
M  V30 5595 H 525.744 0.737736 -0.37373 0
M  V30 5596 H 528.29 1.02415 -1.35312 0
M  V30 5597 H 527.062 2.61788 -2.90831 0
M  V30 5598 H 526.685 3.66228 -1.54798 0
M  V30 5599 N 527.682 1.05563 1.17022 0
M  V30 5600 C 528.929 0.767937 1.87374 0
M  V30 5601 C 529.257 -0.705224 1.81265 0
M  V30 5602 O 528.512 -1.5318 1.21796 0
M  V30 5603 C 528.811 1.19849 3.36706 0
M  V30 5604 C 528.477 2.6745 3.63017 0
M  V30 5605 C 527.139 3.0777 3.69907 0
M  V30 5606 C 529.491 3.62811 3.74189 0
M  V30 5607 C 526.819 4.42307 3.85463 0
M  V30 5608 C 529.171 4.97087 3.91264 0
M  V30 5609 C 527.835 5.37055 3.96394 0
M  V30 5610 H 527.105 0.281008 0.68565 0
M  V30 5611 H 529.752 1.32339 1.38415 0
M  V30 5612 H 528.057 0.562096 3.87747 0
M  V30 5613 H 529.754 0.953038 3.8951 0
M  V30 5614 H 526.344 2.35228 3.58282 0
M  V30 5615 H 530.528 3.32798 3.68183 0
M  V30 5616 H 525.784 4.72769 3.87684 0
M  V30 5617 H 529.958 5.70869 3.9885 0
M  V30 5618 H 527.585 6.41308 4.082 0
M  V30 5619 N 529.16 -1.33526 0.837174 0
M  V30 5620 C 530.406 -1.9813 0.432704 0
M  V30 5621 C 530.739 -1.66168 -1.00508 0
M  V30 5622 O 530.014 -0.94069 -1.70239 0
M  V30 5623 C 530.297 -3.54151 0.651834 0
M  V30 5624 C 530.15 -3.95806 2.13676 0
M  V30 5625 C 531.469 -4.39993 0.0968937 0
M  V30 5626 H 528.588 -0.719713 0.15869 0
M  V30 5627 H 531.23 -1.58193 1.05237 0
M  V30 5628 H 529.38 -3.88301 0.124369 0
M  V30 5629 H 531.052 -3.71921 2.72896 0
M  V30 5630 H 529.295 -3.45599 2.62191 0
M  V30 5631 H 529.966 -5.0447 2.24084 0
M  V30 5632 H 532.442 -4.12479 0.547733 0
M  V30 5633 H 531.318 -5.48186 0.279917 0
M  V30 5634 H 531.579 -4.3066 -0.9992 0
M  V30 5635 N 530.638 -0.59345 -1.46 0
M  V30 5636 C 532.054 -0.255965 -1.57534 0
M  V30 5637 C 532.254 1.24167 -1.58697 0
M  V30 5638 O 531.31 2.02398 -1.50968 0
M  V30 5639 C 532.623 -0.91466 -2.86451 0
M  V30 5640 C 534.171 -0.889253 -3.00102 0
M  V30 5641 C 534.646 -1.52769 -4.3177 0
M  V30 5642 N 536.137 -1.49253 -4.38495 0
M  V30 5643 C 536.872 -1.9558 -5.39014 0
M  V30 5644 N 536.368 -2.49929 -6.46148 0
M  V30 5645 N 538.161 -1.86432 -5.30282 0
M  V30 5646 H 530.312 -1.56604 -1.43489 0
M  V30 5647 H 532.575 -0.655207 -0.685133 0
M  V30 5648 H 532.281 -1.96861 -2.91442 0
M  V30 5649 H 532.155 -0.429356 -3.74748 0
M  V30 5650 H 534.542 0.156111 -2.94687 0
M  V30 5651 H 534.623 -1.41268 -2.13253 0
M  V30 5652 H 534.267 -2.57231 -4.37944 0
M  V30 5653 H 534.197 -0.979398 -5.17412 0
M  V30 5654 H 536.688 -1.09536 -3.61677 0
M  V30 5655 H 537.001 -2.83109 -7.19075 0
M  V30 5656 H 535.346 -2.53961 -6.46938 0
M  V30 5657 H 538.537 -1.43722 -4.4549 0
M  V30 5658 H 538.71 -2.22852 -6.08474 0
M  V30 5659 N 532.116 1.54067 -0.331816 0
M  V30 5660 C 533.364 2.00319 0.267739 0
M  V30 5661 C 533.685 1.22148 1.52003 0
M  V30 5662 O 532.955 0.325494 1.93177 0
M  V30 5663 H 531.535 0.740014 0.101922 0
M  V30 5664 H 534.197 1.89628 -0.450267 0
M  V30 5665 H 533.293 3.07765 0.518385 0
M  V30 5666 N 533.594 0.0601682 1.57485 0
M  V30 5667 C 534.841 -0.611594 1.93043 0
M  V30 5668 C 535.169 -1.70317 0.939274 0
M  V30 5669 O 534.424 -1.95644 -0.046996 0
M  V30 5670 C 534.723 -1.23831 3.35262 0
M  V30 5671 C 534.389 -0.274037 4.50066 0
M  V30 5672 C 533.051 -0.00872394 4.81199 0
M  V30 5673 C 535.403 0.386308 5.19766 0
M  V30 5674 C 532.731 0.924218 5.79375 0
M  V30 5675 C 535.083 1.3075 6.1894 0
M  V30 5676 C 533.747 1.58139 6.48497 0
M  V30 5677 H 533.017 -0.223798 0.706396 0
M  V30 5678 H 535.664 0.128566 1.91068 0
M  V30 5679 H 533.969 -2.05394 3.33647 0
M  V30 5680 H 535.666 -1.76517 3.60059 0
M  V30 5681 H 532.256 -0.491008 4.25778 0
M  V30 5682 H 536.44 0.194436 4.95919 0
M  V30 5683 H 531.696 1.1438 6.00606 0
M  V30 5684 H 535.87 1.82519 6.72056 0
M  V30 5685 H 533.497 2.30593 7.24383 0
M  V30 5686 N 535.072 -1.5615 -0.213296 0
M  V30 5687 C 536.297 -1.83986 -0.957282 0
M  V30 5688 C 536.722 -0.641526 -1.76822 0
M  V30 5689 O 536.08 0.409722 -1.7661 0
M  V30 5690 C 536.128 -3.09889 -1.84393 0
M  V30 5691 O 535.232 -2.89163 -2.94038 0
M  V30 5692 H 534.573 -0.606357 -0.270605 0
M  V30 5693 H 537.103 -2.03369 -0.224111 0
M  V30 5694 H 537.113 -3.40209 -2.25215 0
M  V30 5695 H 535.788 -3.96735 -1.24795 0
M  V30 5696 H 534.365 -2.70097 -2.57103 0
M  V30 5697 N 536.55 0.480323 -1.50102 0
M  V30 5698 C 537.48 1.58769 -1.71215 0
M  V30 5699 C 538.461 1.60583 -0.560997 0
M  V30 5700 O 539.646 1.76996 -0.799127 0
M  V30 5701 C 536.776 2.97148 -1.79778 0
M  V30 5702 C 535.73 3.10201 -2.94888 0
M  V30 5703 C 535.056 4.50137 -2.88584 0
M  V30 5704 C 536.356 2.88283 -4.35534 0
M  V30 5705 H 538.05 1.41354 -2.6393 0
M  V30 5706 H 535.596 0.678591 -1.27008 0
M  V30 5707 H 537.549 3.74536 -1.93133 0
M  V30 5708 H 536.273 3.15699 -0.836772 0
M  V30 5709 H 534.932 2.35244 -2.81169 0
M  V30 5710 H 534.58 4.65593 -1.90349 0
M  V30 5711 H 534.28 4.59808 -3.65856 0
M  V30 5712 H 535.804 5.29558 -3.03976 0
M  V30 5713 H 537.218 3.55427 -4.49827 0
M  V30 5714 H 535.615 3.09408 -5.14186 0
M  V30 5715 H 536.685 1.84219 -4.48544 0
M  V30 5716 N 538.028 1.39524 0.732853 0
M  V30 5717 C 539.305 1.27373 1.48444 0
M  V30 5718 C 539.685 -0.115725 2.10783 0
M  V30 5719 O 539.033 -1.12713 1.98766 0
M  V30 5720 C 539.243 2.39966 2.53412 0
M  V30 5721 C 540.591 2.79384 3.19733 0
M  V30 5722 O 541.615 2.39431 2.63725 0
M  V30 5723 O 540.474 3.48353 4.21085 0
M  V30 5724 H 537.568 0.499272 0.659285 0
M  V30 5725 H 540.114 1.51403 0.766496 0
M  V30 5726 H 538.886 3.32845 2.05742 0
M  V30 5727 H 538.509 2.17612 3.32762 0
M  V30 5728 N 539.506 -0.963266 1.24736 0
M  V30 5729 C 540.416 -2.09246 1.06082 0
M  V30 5730 C 541.432 -1.74 0.000363101 0
M  V30 5731 O 542.608 -2.0041 0.199479 0
M  V30 5732 C 539.673 -3.40115 0.672498 0
M  V30 5733 C 538.734 -3.89282 1.80993 0
M  V30 5734 C 537.967 -5.13905 1.44004 0
M  V30 5735 O 538.19 -5.69434 0.331835 0
M  V30 5736 O 537.124 -5.57566 2.26723 0
M  V30 5737 H 540.95 -2.27881 2.00759 0
M  V30 5738 H 538.535 -1.07649 1.03595 0
M  V30 5739 H 540.417 -4.18797 0.467668 0
M  V30 5740 H 539.092 -3.22771 -0.245102 0
M  V30 5741 H 537.999 -3.11642 2.06955 0
M  V30 5742 H 539.332 -4.1111 2.70646 0
M  V30 5743 N 540.985 -1.06182 -1.16461 0
M  V30 5744 C 541.948 -0.675723 -2.19013 0
M  V30 5745 C 542.948 0.277963 -1.58379 0
M  V30 5746 O 544.138 0.0604962 -1.74095 0
M  V30 5747 C 541.27 0.00591459 -3.40899 0
M  V30 5748 H 542.463 -1.58353 -2.54685 0
M  V30 5749 H 540.016 -0.856908 -1.30716 0
M  V30 5750 H 540.751 0.92652 -3.10783 0
M  V30 5751 H 540.536 -0.67984 -3.86161 0
M  V30 5752 H 542.026 0.26181 -4.16778 0
M  V30 5753 N 542.463 1.3308 -0.844243 0
M  V30 5754 C 543.691 2.01808 -0.456203 0
M  V30 5755 C 544.106 1.63498 0.944131 0
M  V30 5756 O 543.463 0.85102 1.61443 0
M  V30 5757 C 543.514 3.56922 -0.573513 0
M  V30 5758 O 543.235 3.93851 -1.91868 0
M  V30 5759 C 544.736 4.42922 -0.183125 0
M  V30 5760 H 541.956 0.646273 -0.180477 0
M  V30 5761 H 544.5 1.69891 -1.1383 0
M  V30 5762 H 542.655 3.87352 0.0607367 0
M  V30 5763 H 543.069 4.88564 -1.90802 0
M  V30 5764 H 544.543 5.51093 -0.316241 0
M  V30 5765 H 545.02 4.30386 0.875477 0
M  V30 5766 H 545.626 4.1786 -0.792027 0
M  V30 5767 N 543.941 0.601185 1.45683 0
M  V30 5768 C 544.889 -0.133955 2.32214 0
M  V30 5769 C 545.883 -0.866034 1.45589 0
M  V30 5770 O 547.089 -0.782326 1.6211 0
M  V30 5771 H 543.464 -0.0620613 0.749435 0
M  V30 5772 H 545.435 0.614389 2.92007 0
M  V30 5773 C 544.184 -1.12216 3.29094 0
M  V30 5774 H 543.507 -0.568273 3.95741 0
M  V30 5775 H 544.947 -1.60659 3.92383 0
M  V30 5776 C 543.406 -2.19251 2.55794 0
M  V30 5777 O 543.936 -3.26894 2.33459 0
M  V30 5778 N 542.142 -1.9436 2.16039 0
M  V30 5779 H 541.689 -1.06829 2.34404 0
M  V30 5780 H 541.647 -2.66181 1.67318 0
M  V30 5781 N 545.419 -1.53889 0.339982 0
M  V30 5782 C 546.349 -2.27843 -0.510856 0
M  V30 5783 C 547.33 -1.29267 -1.10563 0
M  V30 5784 O 548.515 -1.58104 -1.12768 0
M  V30 5785 C 545.645 -3.04857 -1.66372 0
M  V30 5786 C 544.599 -4.10907 -1.19746 0
M  V30 5787 C 543.925 -4.75855 -2.43857 0
M  V30 5788 C 545.225 -5.21435 -0.300501 0
M  V30 5789 H 546.919 -2.99212 0.106067 0
M  V30 5790 H 544.465 -1.43904 0.0524533 0
M  V30 5791 H 546.418 -3.5533 -2.26537 0
M  V30 5792 H 545.142 -2.31133 -2.30749 0
M  V30 5793 H 543.801 -3.61342 -0.618654 0
M  V30 5794 H 543.449 -3.9873 -3.06633 0
M  V30 5795 H 543.149 -5.47502 -2.13343 0
M  V30 5796 H 544.673 -5.2911 -3.04754 0
M  V30 5797 H 546.087 -5.67565 -0.80889 0
M  V30 5798 H 544.484 -6.00036 -0.0874076 0
M  V30 5799 H 545.554 -4.80328 0.664321 0
M  V30 5800 N 546.897 -0.0685191 -1.57451 0
M  V30 5801 C 547.845 0.917577 -2.13736 0
M  V30 5802 C 548.839 1.31049 -1.07344 0
M  V30 5803 O 550.045 1.28811 -1.25728 0
M  V30 5804 H 546.42 0.313835 -0.683382 0
M  V30 5805 H 548.391 0.417903 -2.95459 0
M  V30 5806 C 547.14 2.17686 -2.71123 0
M  V30 5807 H 546.463 1.88336 -3.52661 0
M  V30 5808 H 547.903 2.84803 -3.14107 0
M  V30 5809 C 546.362 2.9332 -1.65726 0
M  V30 5810 O 546.892 3.86901 -1.08031 0
M  V30 5811 N 545.098 2.56367 -1.36837 0
M  V30 5812 H 544.645 1.80341 -1.83943 0
M  V30 5813 H 544.603 3.07276 -0.665501 0
M  V30 5814 N 548.375 1.56261 0.205012 0
M  V30 5815 C 549.623 1.79684 0.925096 0
M  V30 5816 C 549.944 0.63989 1.84202 0
M  V30 5817 O 549.214 -0.342345 1.92885 0
M  V30 5818 H 547.794 0.662774 0.344587 0
M  V30 5819 H 550.456 1.93734 0.212899 0
M  V30 5820 H 549.552 2.72467 1.52211 0
M  V30 5821 N 549.853 -0.472356 1.50355 0
M  V30 5822 C 551.101 -1.22211 1.60962 0
M  V30 5823 C 551.422 -1.92497 0.311439 0
M  V30 5824 O 550.692 -1.8405 -0.671002 0
M  V30 5825 H 549.272 -0.454092 0.593135 0
M  V30 5826 H 551.934 -0.544977 1.87126 0
M  V30 5827 H 551.03 -1.9707 2.42012 0
M  V30 5828 N 551.331 -1.39911 -0.725443 0
M  V30 5829 C 552.261 -1.42138 -1.85254 0
M  V30 5830 C 553.242 -0.283513 -1.67721 0
M  V30 5831 O 554.427 -0.490717 -1.87898 0
M  V30 5832 C 551.557 -1.27354 -3.23107 0
M  V30 5833 C 550.511 -2.3864 -3.55296 0
M  V30 5834 C 549.837 -2.08939 -4.92188 0
M  V30 5835 C 551.137 -3.8097 -3.57295 0
M  V30 5836 H 552.831 -2.36461 -1.83648 0
M  V30 5837 H 550.377 -1.13817 -0.882138 0
M  V30 5838 H 552.33 -1.2753 -4.01639 0
M  V30 5839 H 551.054 -0.295025 -3.25265 0
M  V30 5840 H 549.713 -2.37696 -2.79099 0
M  V30 5841 H 549.361 -1.09502 -4.90936 0
M  V30 5842 H 549.061 -2.83491 -5.14691 0
M  V30 5843 H 550.585 -2.10781 -5.73065 0
M  V30 5844 H 551.999 -3.8379 -4.25885 0
M  V30 5845 H 550.396 -4.5496 -3.9132 0
M  V30 5846 H 551.466 -4.11261 -2.5689 0
M  V30 5847 N 552.809 0.956637 -1.25245 0
M  V30 5848 C 553.739 2.07058 -1.07931 0
M  V30 5849 C 554.72 1.70096 0.0110361 0
M  V30 5850 O 555.905 1.93555 -0.158121 0
M  V30 5851 C 553.035 3.40272 -0.695124 0
M  V30 5852 C 551.989 3.91235 -1.73549 0
M  V30 5853 C 551.315 5.20921 -1.20604 0
M  V30 5854 C 552.615 4.17837 -3.13385 0
M  V30 5855 H 554.309 2.218 -2.01109 0
M  V30 5856 H 551.855 1.06581 -0.968326 0
M  V30 5857 H 553.808 4.1765 -0.560949 0
M  V30 5858 H 552.532 3.25462 0.272355 0
M  V30 5859 H 551.191 3.16025 -1.85807 0
M  V30 5860 H 550.839 5.02479 -0.228846 0
M  V30 5861 H 550.539 5.55987 -1.90136 0
M  V30 5862 H 552.063 6.00897 -1.08421 0
M  V30 5863 H 553.477 4.8588 -3.04292 0
M  V30 5864 H 551.874 4.64154 -3.80369 0
M  V30 5865 H 552.944 3.2419 -3.60595 0
M  V30 5866 N 554.287 1.06798 1.15896 0
M  V30 5867 C 555.703 0.792423 1.38538 0
M  V30 5868 C 555.903 -0.60592 1.92174 0
M  V30 5869 O 554.959 -1.36561 2.12385 0
M  V30 5870 C 556.272 1.86157 2.36149 0
M  V30 5871 C 557.82 1.88567 2.49823 0
M  V30 5872 C 558.295 2.9455 3.5072 0
M  V30 5873 N 559.786 2.93616 3.58251 0
M  V30 5874 C 560.521 3.72267 4.36125 0
M  V30 5875 N 560.017 4.60751 5.17379 0
M  V30 5876 N 561.81 3.60637 4.31158 0
M  V30 5877 H 553.961 1.96993 0.794198 0
M  V30 5878 H 556.224 0.853942 0.411688 0
M  V30 5879 H 555.93 2.86603 2.03843 0
M  V30 5880 H 555.804 1.71692 3.3586 0
M  V30 5881 H 558.191 0.887765 2.8143 0
M  V30 5882 H 558.272 2.0711 1.5013 0
M  V30 5883 H 557.916 3.94537 3.19849 0
M  V30 5884 H 557.846 2.73255 4.50155 0
M  V30 5885 H 560.337 2.29472 3.00252 0
M  V30 5886 H 560.65 5.17408 5.74028 0
M  V30 5887 H 558.995 4.64803 5.16704 0
M  V30 5888 H 562.186 2.90892 3.66742 0
M  V30 5889 H 562.359 4.22176 4.91601 0
M  V30 5890 N 555.766 -1.3263 0.851289 0
M  V30 5891 C 557.014 -1.96978 0.452128 0
M  V30 5892 C 557.335 -1.67715 -0.99482 0
M  V30 5893 O 556.605 -0.98259 -1.69476 0
M  V30 5894 H 555.185 -0.72873 0.164202 0
M  V30 5895 H 557.847 -1.61774 1.08698 0
M  V30 5896 H 556.943 -3.06387 0.594407 0
M  V30 5897 N 557.244 -0.608902 -1.45362 0
M  V30 5898 C 558.493 -0.10218 -2.01441 0
M  V30 5899 C 558.806 1.27546 -1.48295 0
M  V30 5900 O 560.012 1.87498 -1.96359 0
M  V30 5901 C 558.468 -0.131985 -3.59658 0
M  V30 5902 C 558.076 -1.50956 -4.21801 0
M  V30 5903 C 559.82 0.319427 -4.23296 0
M  V30 5904 C 557.727 -1.49568 -5.72174 0
M  V30 5905 H 556.657 -0.0344314 -0.753213 0
M  V30 5906 H 559.308 -0.764426 -1.6682 0
M  V30 5907 H 557.69 0.596939 -3.91475 0
M  V30 5908 H 558.864 -2.26029 -4.01556 0
M  V30 5909 H 557.179 -1.90318 -3.70362 0
M  V30 5910 H 559.776 0.349013 -5.3356 0
M  V30 5911 H 560.119 1.34237 -3.94064 0
M  V30 5912 H 560.652 -0.356273 -3.96201 0
M  V30 5913 H 557.391 -2.49626 -6.06108 0
M  V30 5914 H 556.911 -0.787542 -5.94607 0
M  V30 5915 H 558.59 -1.21989 -6.35396 0
M  V30 5916 N 558.722 1.53707 -0.348139 0
M  V30 5917 C 559.632 2.28881 0.514857 0
M  V30 5918 C 560.648 1.34168 1.10793 0
M  V30 5919 O 561.824 1.6721 1.12262 0
M  V30 5920 C 558.889 3.05042 1.64774 0
M  V30 5921 C 557.95 4.15389 1.08398 0
M  V30 5922 C 557.183 4.87909 2.16287 0
M  V30 5923 O 557.406 4.60137 3.3709 0
M  V30 5924 O 556.34 5.74254 1.80323 0
M  V30 5925 H 560.166 3.03547 -0.0963699 0
M  V30 5926 H 557.751 1.48972 -0.113043 0
M  V30 5927 H 559.633 3.52656 2.30677 0
M  V30 5928 H 558.308 2.33228 2.24469 0
M  V30 5929 H 557.215 3.72068 0.389341 0
M  V30 5930 H 558.548 4.89318 0.531829 0
M  V30 5931 N 560.2 0.0768682 1.57412 0
M  V30 5932 C 561.449 -0.590679 1.92857 0
M  V30 5933 C 561.762 -1.70461 0.959293 0
M  V30 5934 O 562.968 -2.43207 1.20675 0
M  V30 5935 C 561.424 -1.10204 3.42612 0
M  V30 5936 C 561.032 -0.0188447 4.47996 0
M  V30 5937 C 562.776 -1.74336 3.87049 0
M  V30 5938 C 560.683 -0.544536 5.88888 0
M  V30 5939 H 559.613 -0.224411 0.71983 0
M  V30 5940 H 562.264 0.149924 1.82887 0
M  V30 5941 H 560.646 -1.89577 3.47673 0
M  V30 5942 H 561.82 0.755936 4.54557 0
M  V30 5943 H 560.135 0.526555 4.13057 0
M  V30 5944 H 562.732 -2.14708 4.89699 0
M  V30 5945 H 563.075 -2.60537 3.24694 0
M  V30 5946 H 563.608 -1.01577 3.84613 0
M  V30 5947 H 560.347 0.280426 6.549 0
M  V30 5948 H 559.867 -1.28673 5.85836 0
M  V30 5949 H 561.546 -1.01933 6.3892 0
M  V30 5950 N 561.678 -1.56367 -0.196722 0
M  V30 5951 C 562.608 -1.97442 -1.24655 0
M  V30 5952 C 563.589 -0.846147 -1.47561 0
M  V30 5953 O 564.774 -1.11035 -1.59326 0
M  V30 5954 C 561.904 -2.31253 -2.59112 0
M  V30 5955 C 560.858 -3.46804 -2.50821 0
M  V30 5956 C 560.184 -3.66286 -3.89536 0
M  V30 5957 C 561.484 -4.8104 -2.03465 0
M  V30 5958 H 563.178 -2.85388 -0.905216 0
M  V30 5959 H 560.724 -1.37304 -0.434002 0
M  V30 5960 H 562.677 -2.58583 -3.32736 0
M  V30 5961 H 561.401 -1.40188 -2.94983 0
M  V30 5962 H 560.06 -3.19563 -1.79653 0
M  V30 5963 H 559.708 -2.72555 -4.22756 0
M  V30 5964 H 559.408 -4.4402 -3.84864 0
M  V30 5965 H 560.932 -3.9599 -4.64784 0
M  V30 5966 H 562.346 -5.07411 -2.66846 0
M  V30 5967 H 560.743 -5.62232 -2.09798 0
M  V30 5968 H 561.813 -4.74732 -0.98781 0
M  V30 5969 N 563.156 0.464375 -1.50603 0
M  V30 5970 C 564.104 1.58224 -1.70493 0
M  V30 5971 C 565.098 1.59492 -0.570836 0
M  V30 5972 O 566.304 1.63561 -0.751517 0
M  V30 5973 H 562.679 0.525161 -0.538247 0
M  V30 5974 H 564.65 1.38613 -2.64252 0
M  V30 5975 C 563.399 2.96113 -1.82243 0
M  V30 5976 H 562.722 2.95858 -2.68901 0
M  V30 5977 H 564.162 3.73769 -2.00182 0
M  V30 5978 C 562.621 3.31946 -0.575628 0
M  V30 5979 O 563.151 4.00708 0.282152 0
M  V30 5980 N 561.357 2.87436 -0.427665 0
M  V30 5981 H 560.904 2.31652 -1.12674 0
M  V30 5982 H 560.862 3.11776 0.405379 0
M  V30 5983 N 564.634 1.40294 0.718013 0
M  V30 5984 C 565.566 1.36281 1.84283 0
M  V30 5985 C 566.579 0.268621 1.60569 0
M  V30 5986 O 567.768 0.528798 1.70487 0
M  V30 5987 C 564.868 1.09741 3.2064 0
M  V30 5988 C 564.041 2.30767 3.71571 0
M  V30 5989 C 563.1 2.00424 4.86535 0
M  V30 5990 O 562.126 2.73268 4.99313 0
M  V30 5991 N 563.328 0.980724 5.72156 0
M  V30 5992 H 566.093 2.3322 1.88225 0
M  V30 5993 H 563.654 1.34616 0.899453 0
M  V30 5994 H 565.646 0.874322 3.95143 0
M  V30 5995 H 564.216 0.214771 3.11861 0
M  V30 5996 H 563.436 2.68921 2.88228 0
M  V30 5997 H 564.724 3.11455 4.02335 0
M  V30 5998 H 564.122 0.377375 5.6444 0
M  V30 5999 H 562.679 0.817538 6.46653 0
M  V30 6000 N 566.112 -0.949982 1.2575 0
M  V30 6001 C 567.358 -1.69766 1.10938 0
M  V30 6002 C 567.691 -1.91056 -0.348028 0
M  V30 6003 O 566.966 -1.48488 -1.25625 0
M  V30 6004 C 567.249 -3.07779 1.86933 0
M  V30 6005 C 567.102 -2.9387 3.4053 0
M  V30 6006 C 568.421 -4.07749 1.65616 0
M  V30 6007 H 565.54 -0.616144 0.404396 0
M  V30 6008 H 568.182 -1.10394 1.54639 0
M  V30 6009 H 566.332 -3.58462 1.4979 0
M  V30 6010 H 568.004 -2.50476 3.87375 0
M  V30 6011 H 566.247 -2.29686 3.68004 0
M  V30 6012 H 566.918 -3.91719 3.88922 0
M  V30 6013 H 569.394 -3.65994 1.97959 0
M  V30 6014 H 568.27 -5.02348 2.21218 0
M  V30 6015 H 568.531 -4.38029 0.598595 0
M  V30 6016 N 567.59 -1.07411 -1.15328 0
M  V30 6017 C 568.522 -0.652924 -2.19703 0
M  V30 6018 C 569.535 0.294869 -1.60107 0
M  V30 6019 O 570.724 0.0840932 -1.78302 0
M  V30 6020 C 567.824 0.061434 -3.38844 0
M  V30 6021 C 566.997 -0.902696 -4.27984 0
M  V30 6022 C 566.056 -0.225521 -5.25717 0
M  V30 6023 O 565.082 -0.86676 -5.62562 0
M  V30 6024 N 566.284 1.02858 -5.71315 0
M  V30 6025 H 569.049 -1.55081 -2.56457 0
M  V30 6026 H 566.61 -0.958883 -1.30449 0
M  V30 6027 H 568.602 0.525145 -4.01278 0
M  V30 6028 H 567.172 0.861269 -3.00501 0
M  V30 6029 H 566.392 -1.54551 -3.6264 0
M  V30 6030 H 567.68 -1.55636 -4.84412 0
M  V30 6031 H 567.078 1.56948 -5.43492 0
M  V30 6032 H 565.635 1.43596 -6.35786 0
M  V30 6033 N 569.068 1.32177 -0.85831 0
M  V30 6034 C 569.978 2.32561 -0.308606 0
M  V30 6035 C 570.994 1.64209 0.575462 0
M  V30 6036 O 572.17 1.95719 0.474961 0
M  V30 6037 C 569.235 3.43207 0.490909 0
M  V30 6038 C 568.296 4.27243 -0.419733 0
M  V30 6039 C 567.529 5.32605 0.341719 0
M  V30 6040 O 567.752 5.48332 1.57125 0
M  V30 6041 O 566.686 6.0118 -0.294379 0
M  V30 6042 H 570.512 2.81477 -1.14037 0
M  V30 6043 H 568.097 1.35866 -0.621349 0
M  V30 6044 H 569.979 4.10677 0.944574 0
M  V30 6045 H 568.654 2.96474 1.29941 0
M  V30 6046 H 567.561 3.62569 -0.921652 0
M  V30 6047 H 568.894 4.7751 -1.19352 0
M  V30 6048 N 570.547 0.616602 1.45037 0
M  V30 6049 C 571.772 0.120192 2.07051 0
M  V30 6050 C 572.197 -1.19008 1.45666 0
M  V30 6051 O 571.555 -1.7267 0.552692 0
M  V30 6052 C 571.603 0.00354901 3.606 0
M  V30 6053 O 570.707 -1.04431 3.98958 0
M  V30 6054 H 570.048 0.0781599 0.659384 0
M  V30 6055 H 572.578 0.849167 1.86146 0
M  V30 6056 H 572.588 -0.191754 4.07549 0
M  V30 6057 H 571.263 0.960239 4.04663 0
M  V30 6058 H 569.84 -0.824749 3.63665 0
M  V30 6059 N 572.025 -1.5352 0.356285 0
M  V30 6060 C 572.955 -2.28372 -0.486661 0
M  V30 6061 C 573.936 -1.30432 -1.09185 0
M  V30 6062 O 575.121 -1.59291 -1.11085 0
M  V30 6063 C 572.251 -3.06604 -1.63129 0
M  V30 6064 C 571.205 -4.12154 -1.15381 0
M  V30 6065 C 570.531 -4.78415 -2.38796 0
M  V30 6066 C 571.831 -5.21724 -0.245179 0
M  V30 6067 H 573.525 -2.99083 0.137797 0
M  V30 6068 H 571.071 -1.43841 0.0677134 0
M  V30 6069 H 573.024 -3.57712 -2.22755 0
M  V30 6070 H 571.748 -2.33568 -2.28284 0
M  V30 6071 H 570.407 -3.61978 -0.580294 0
M  V30 6072 H 570.055 -4.01959 -3.02387 0
M  V30 6073 H 569.755 -5.49734 -2.07524 0
M  V30 6074 H 571.279 -5.32313 -2.99125 0
M  V30 6075 H 572.693 -5.68391 -0.748646 0
M  V30 6076 H 571.09 -6.00095 -0.0237608 0
M  V30 6077 H 572.16 -4.79596 0.715229 0
M  V30 6078 N 573.503 -0.0852151 -1.57369 0
M  V30 6079 C 574.914 0.445428 -1.81309 0
M  V30 6080 C 575.265 1.68795 -1.00013 0
M  V30 6081 O 574.39 2.15211 -0.226573 0
M  V30 6082 C 574.985 0.814887 -3.28854 0
M  V30 6083 C 573.544 1.29032 -3.53592 0
M  V30 6084 C 572.691 0.282089 -2.75861 0
M  V30 6085 H 575.642 -0.310771 -1.55627 0
M  V30 6086 H 575.663 1.67524 -3.41637 0
M  V30 6087 H 575.175 -0.0896309 -3.87996 0
M  V30 6088 H 573.276 2.21289 -2.9977 0
M  V30 6089 H 573.389 1.25898 -4.62262 0
M  V30 6090 H 571.753 0.762182 -2.43029 0
M  V30 6091 H 572.536 -0.614936 -3.37748 0
M  V30 6092 N 574.981 1.5647 0.188427 0
M  V30 6093 C 575.891 1.98285 1.2538 0
M  V30 6094 C 576.907 0.891535 1.49424 0
M  V30 6095 O 578.083 1.19782 1.61908 0
M  V30 6096 C 575.148 2.31965 2.57669 0
M  V30 6097 C 574.209 3.54838 2.41638 0
M  V30 6098 C 573.442 3.86901 3.67618 0
M  V30 6099 O 573.665 3.20163 4.72072 0
M  V30 6100 O 572.599 4.80309 3.62749 0
M  V30 6101 H 576.425 2.89145 0.928912 0
M  V30 6102 H 574.01 1.44112 0.393955 0
M  V30 6103 H 575.892 2.54673 3.35737 0
M  V30 6104 H 574.567 1.44271 2.89771 0
M  V30 6105 H 573.474 3.37369 1.61658 0
M  V30 6106 H 574.807 4.43019 2.14465 0
M  V30 6107 N 576.459 -0.456382 1.50847 0
M  V30 6108 C 577.389 -1.56025 1.73719 0
M  V30 6109 C 578.37 -1.5967 0.586473 0
M  V30 6110 O 579.555 -1.75702 0.827185 0
M  V30 6111 C 576.685 -2.94251 1.84483 0
M  V30 6112 C 575.639 -3.05471 2.99786 0
M  V30 6113 C 574.965 -4.45489 2.95709 0
M  V30 6114 C 576.265 -2.81318 4.40065 0
M  V30 6115 H 577.959 -1.37138 2.66146 0
M  V30 6116 H 575.505 -0.658299 1.28072 0
M  V30 6117 H 577.458 -3.71417 1.99067 0
M  V30 6118 H 576.182 -3.14328 0.886891 0
M  V30 6119 H 574.841 -2.30741 2.84876 0
M  V30 6120 H 574.489 -4.62505 1.97732 0
M  V30 6121 H 574.189 -4.53929 3.73125 0
M  V30 6122 H 575.713 -5.24655 3.12362 0
M  V30 6123 H 577.127 -3.48226 4.55425 0
M  V30 6124 H 575.524 -3.01188 5.19043 0
M  V30 6125 H 576.594 -1.7706 4.51418 0
M  V30 6126 N 577.937 -1.40673 -0.710563 0
M  V30 6127 C 579.162 -1.42741 -1.50465 0
M  V30 6128 C 579.587 -0.0302116 -1.88076 0
M  V30 6129 O 578.945 0.962945 -1.53613 0
M  V30 6130 C 578.993 -2.32873 -2.75322 0
M  V30 6131 O 578.097 -1.77544 -3.72226 0
M  V30 6132 H 577.438 -0.485056 -0.45345 0
M  V30 6133 H 579.968 -1.84961 -0.874681 0
M  V30 6134 H 579.978 -2.48233 -3.23797 0
M  V30 6135 H 578.653 -3.34401 -2.47283 0
M  V30 6136 H 577.23 -1.71556 -3.31093 0
M  V30 6137 N 579.415 0.9433 -1.26252 0
M  V30 6138 C 580.363 2.06302 -1.07434 0
M  V30 6139 C 581.357 1.694 -0.00189471 0
M  V30 6140 O 582.563 1.79302 -0.158408 0
M  V30 6141 H 578.938 0.675453 -0.330556 0
M  V30 6142 H 580.909 2.19326 -2.02333 0
M  V30 6143 C 579.658 3.40125 -0.721817 0
M  V30 6144 H 578.981 3.68996 -1.5389 0
M  V30 6145 H 580.421 4.19295 -0.629922 0
M  V30 6146 C 578.88 3.31993 0.572902 0
M  V30 6147 O 579.41 3.67945 1.61182 0
M  V30 6148 N 577.616 2.85099 0.562748 0
M  V30 6149 H 577.163 2.5604 -0.283092 0
M  V30 6150 H 577.121 2.80041 1.42915 0
M  V30 6151 N 580.893 1.08022 1.14757 0
M  V30 6152 C 581.843 0.676345 2.17737 0
M  V30 6153 C 582.827 -0.302018 1.5804 0
M  V30 6154 O 584.019 -0.11466 1.76628 0
M  V30 6155 C 581.148 0.082984 3.432 0
M  V30 6156 C 580.234 1.0869 4.09936 0
M  V30 6157 N 580.625 2.26891 4.52055 0
M  V30 6158 C 578.923 0.921768 4.36371 0
M  V30 6159 C 579.624 2.90636 5.0389 0
M  V30 6160 N 578.6 2.18266 4.97856 0
M  V30 6161 H 582.402 1.5765 2.4804 0
M  V30 6162 H 579.916 0.954374 1.31398 0
M  V30 6163 H 581.913 -0.224289 4.16296 0
M  V30 6164 H 580.573 -0.812206 3.14378 0
M  V30 6165 H 581.584 2.6457 4.45223 0
M  V30 6166 H 578.261 0.0800499 4.17423 0
M  V30 6167 H 579.651 3.9104 5.46386 0
M  V30 6168 N 582.371 -1.3172 0.865308 0
M  V30 6169 C 583.334 -2.26918 0.322627 0
M  V30 6170 C 584.334 -1.52031 -0.523751 0
M  V30 6171 O 585.524 -1.70973 -0.333727 0
M  V30 6172 C 582.656 -3.36558 -0.542338 0
M  V30 6173 H 583.849 -2.76432 1.16298 0
M  V30 6174 H 581.402 -1.42573 0.640512 0
M  V30 6175 H 582.137 -2.92329 -1.40407 0
M  V30 6176 H 581.922 -3.92048 0.0636395 0
M  V30 6177 H 583.412 -4.07465 -0.91446 0
M  V30 6178 N 583.85 -0.624285 -1.44708 0
M  V30 6179 C 585.075 -0.131171 -2.06985 0
M  V30 6180 C 585.5 1.18234 -1.46295 0
M  V30 6181 O 584.858 1.72375 -0.561842 0
M  V30 6182 C 584.906 -0.0226724 -3.60593 0
M  V30 6183 O 584.01 1.02314 -3.99507 0
M  V30 6184 H 583.351 -0.0816556 -0.65896 0
M  V30 6185 H 585.88 -0.859027 -1.85693 0
M  V30 6186 H 585.891 0.170138 -4.07645 0
M  V30 6187 H 584.566 -0.981685 -4.04148 0
M  V30 6188 H 583.143 0.805452 -3.64097 0
M  V30 6189 N 585.328 1.53329 -0.364422 0
M  V30 6190 C 586.577 2.00421 0.226747 0
M  V30 6191 C 586.89 1.25581 1.49963 0
M  V30 6192 O 588.096 1.63256 2.16933 0
M  V30 6193 C 586.552 3.57017 0.454618 0
M  V30 6194 C 586.16 4.40734 -0.803568 0
M  V30 6195 C 587.904 4.12468 1.00351 0
M  V30 6196 C 585.811 5.8888 -0.545345 0
M  V30 6197 H 584.741 0.748787 0.0885082 0
M  V30 6198 H 587.392 1.7703 -0.482983 0
M  V30 6199 H 585.774 3.76558 1.22558 0
M  V30 6200 H 586.948 4.32967 -1.57723 0
M  V30 6201 H 585.263 3.96381 -1.27559 0
M  V30 6202 H 587.86 5.20783 1.212 0
M  V30 6203 H 588.203 3.6699 1.9653 0
M  V30 6204 H 588.736 3.96721 0.29274 0
M  V30 6205 H 585.475 6.38633 -1.47743 0
M  V30 6206 H 584.995 5.99499 0.189842 0
M  V30 6207 H 586.674 6.46776 -0.170425 0
M  V30 6208 N 586.806 0.0935595 1.57322 0
M  V30 6209 C 587.736 -0.863062 2.16964 0
M  V30 6210 C 588.717 -1.29528 1.10256 0
M  V30 6211 O 589.902 -1.36245 1.38387 0
M  V30 6212 C 587.032 -2.12276 2.74875 0
M  V30 6213 C 585.986 -1.82921 3.86942 0
M  V30 6214 C 585.312 -3.15707 4.31548 0
M  V30 6215 C 586.612 -1.11737 5.10208 0
M  V30 6216 H 588.306 -0.366145 2.97153 0
M  V30 6217 H 585.852 -0.174673 1.42937 0
M  V30 6218 H 587.805 -2.79634 3.1525 0
M  V30 6219 H 586.529 -2.64248 1.91938 0
M  V30 6220 H 585.188 -1.17961 3.47103 0
M  V30 6221 H 584.836 -3.65563 3.45504 0
M  V30 6222 H 584.536 -2.96849 5.07104 0
M  V30 6223 H 586.06 -3.84226 4.74555 0
M  V30 6224 H 587.474 -1.69203 5.47762 0
M  V30 6225 H 585.871 -1.03064 5.91183 0
M  V30 6226 H 586.941 -0.0998818 4.84797 0
M  V30 6227 N 588.284 -1.56567 -0.180126 0
M  V30 6228 C 589.533 -1.80685 -0.896426 0
M  V30 6229 C 589.846 -0.669335 -1.83791 0
M  V30 6230 O 591.052 -0.795209 -2.59593 0
M  V30 6231 C 589.508 -3.20132 -1.6445 0
M  V30 6232 C 589.116 -4.41727 -0.747088 0
M  V30 6233 C 590.86 -3.53549 -2.34955 0
M  V30 6234 C 588.767 -5.72195 -1.49489 0
M  V30 6235 H 587.697 -0.673758 -0.338477 0
M  V30 6236 H 590.348 -1.8289 -0.149467 0
M  V30 6237 H 588.73 -3.12218 -2.43589 0
M  V30 6238 H 589.904 -4.608 0.00671129 0
M  V30 6239 H 588.219 -4.16122 -0.152134 0
M  V30 6240 H 590.816 -4.48267 -2.91481 0
M  V30 6241 H 591.159 -2.78006 -3.09868 0
M  V30 6242 H 591.692 -3.62976 -1.62768 0
M  V30 6243 H 588.431 -6.50743 -0.788251 0
M  V30 6244 H 587.951 -5.57115 -2.22224 0
M  V30 6245 H 589.63 -6.1384 -2.04472 0
M  V30 6246 N 589.762 0.448376 -1.51087 0
M  V30 6247 C 590.695 1.56298 -1.66272 0
M  V30 6248 C 591.673 1.54381 -0.510419 0
M  V30 6249 O 592.857 1.73671 -0.732854 0
M  V30 6250 C 589.984 2.94883 -1.66618 0
M  V30 6251 C 589.03 3.14868 -2.87681 0
M  V30 6252 S 589.863 2.9234 -4.48662 0
M  V30 6253 C 591.019 4.33227 -4.51735 0
M  V30 6254 H 591.252 1.43182 -2.6055 0
M  V30 6255 H 588.785 0.637309 -1.40633 0
M  V30 6256 H 590.743 3.74771 -1.67502 0
M  V30 6257 H 589.404 3.05371 -0.735358 0
M  V30 6258 H 588.597 4.16166 -2.84292 0
M  V30 6259 H 588.199 2.42788 -2.84482 0
M  V30 6260 H 590.491 5.26247 -4.26697 0
M  V30 6261 H 591.434 4.41653 -5.53487 0
M  V30 6262 H 591.842 4.16367 -3.81181 0
M  V30 6263 N 591.24 1.41047 0.703093 0
M  V30 6264 C 592.17 1.45067 1.82969 0
M  V30 6265 C 593.151 0.31016 1.67248 0
M  V30 6266 O 594.336 0.520548 1.87093 0
M  V30 6267 C 591.466 1.32478 3.2104 0
M  V30 6268 C 590.42 2.44262 3.51454 0
M  V30 6269 C 589.746 2.16742 4.88801 0
M  V30 6270 C 591.046 3.86606 3.51189 0
M  V30 6271 H 592.74 2.39353 1.79863 0
M  V30 6272 H 590.286 1.15206 0.863919 0
M  V30 6273 H 592.239 1.33904 3.99559 0
M  V30 6274 H 590.963 0.346735 3.24754 0
M  V30 6275 H 589.622 2.42107 2.75282 0
M  V30 6276 H 589.27 1.17299 4.89132 0
M  V30 6277 H 588.97 2.91643 5.10116 0
M  V30 6278 H 590.494 2.19872 5.69639 0
M  V30 6279 H 591.908 3.90517 4.19725 0
M  V30 6280 H 590.305 4.61128 3.84033 0
M  V30 6281 H 591.375 4.15296 2.50315 0
M  V30 6282 N 592.718 -0.936591 1.26751 0
M  V30 6283 C 593.946 -1.71758 1.15355 0
M  V30 6284 C 594.361 -1.86549 -0.290683 0
M  V30 6285 O 593.718 -1.37616 -1.19868 0
M  V30 6286 C 593.769 -3.12193 1.82258 0
M  V30 6287 O 593.49 -2.98105 3.21038 0
M  V30 6288 C 594.991 -4.06485 1.76875 0
M  V30 6289 H 592.211 -0.537636 0.401483 0
M  V30 6290 H 594.755 -1.17382 1.67457 0
M  V30 6291 H 592.91 -3.63456 1.34083 0
M  V30 6292 H 593.324 -3.86824 3.54214 0
M  V30 6293 H 594.798 -5.02569 2.28316 0
M  V30 6294 H 595.275 -4.32986 0.736216 0
M  V30 6295 H 595.881 -3.61144 2.24623 0
M  V30 6296 N 594.196 -1.08629 -1.14182 0
M  V30 6297 C 595.473 -0.73002 -1.81466 0
M  V30 6298 C 595.853 0.785996 -1.95922 0
M  V30 6299 O 595.201 1.70535 -1.52086 0
M  V30 6300 C 595.411 -1.45957 -3.17014 0
M  V30 6301 C 596.759 -1.62008 -3.92477 0
M  V30 6302 O 597.783 -1.42141 -3.26611 0
M  V30 6303 O 596.642 -1.94806 -5.106 0
M  V30 6304 H 593.736 -0.261307 -0.784632 0
M  V30 6305 H 596.282 -1.188 -1.2118 0
M  V30 6306 H 595.054 -2.49221 -3.01669 0
M  V30 6307 H 594.677 -0.993222 -3.84995 0
M  V30 6308 N 595.674 1.31259 -0.872281 0
M  V30 6309 C 596.922 1.96233 -0.483409 0
M  V30 6310 C 597.243 1.69276 0.968012 0
M  V30 6311 O 596.513 1.00943 1.67891 0
M  V30 6312 H 595.093 0.726025 -0.175774 0
M  V30 6313 H 597.755 1.60024 -1.11258 0
M  V30 6314 H 596.851 3.05403 -0.643075 0
M  V30 6315 N 597.152 0.631951 1.44375 0
M  V30 6316 C 598.429 0.067646 1.95483 0
M  V30 6317 C 598.809 -1.40683 1.57389 0
M  V30 6318 O 598.157 -2.12167 0.848375 0
M  V30 6319 C 598.367 0.291392 3.47781 0
M  V30 6320 C 599.715 0.185028 4.24197 0
M  V30 6321 O 600.739 0.222803 3.55503 0
M  V30 6322 O 599.598 0.0906642 5.46425 0
M  V30 6323 H 596.692 -0.0218379 0.826712 0
M  V30 6324 H 599.238 0.703711 1.54421 0
M  V30 6325 H 598.01 1.31449 3.68561 0
M  V30 6326 H 597.633 -0.378772 3.95792 0
M  V30 6327 N 598.631 -1.53133 0.372548 0
M  V30 6328 C 600.042 -1.86404 -0.105155 0
M  V30 6329 C 600.393 -1.29289 -1.47576 0
M  V30 6330 O 599.518 -0.617646 -2.07398 0
M  V30 6331 C 600.113 -3.38223 -0.197588 0
M  V30 6332 C 598.672 -3.71266 -0.619556 0
M  V30 6333 C 597.819 -2.76353 0.228919 0
M  V30 6334 H 600.77 -1.47282 0.591077 0
M  V30 6335 H 600.791 -3.66577 -1.01987 0
M  V30 6336 H 600.303 -3.79763 0.800099 0
M  V30 6337 H 598.404 -3.35287 -1.62522 0
M  V30 6338 H 598.517 -4.77515 -0.389332 0
M  V30 6339 H 596.881 -2.52888 -0.303271 0
M  V30 6340 H 597.664 -3.20728 1.22428 0
M  V30 6341 N 600.109 -0.101901 -1.5727 0
M  V30 6342 C 601.337 0.568392 -1.98939 0
M  V30 6343 C 601.752 1.61301 -0.981194 0
M  V30 6344 O 601.109 1.82478 0.0282869 0
M  V30 6345 C 601.16 1.20997 -3.40649 0
M  V30 6346 O 600.881 0.207129 -4.3761 0
M  V30 6347 C 602.382 1.96523 -3.97358 0
M  V30 6348 H 599.602 0.15186 -0.65359 0
M  V30 6349 H 602.146 -0.183198 -2.03678 0
M  V30 6350 H 600.301 1.91245 -3.36904 0
M  V30 6351 H 600.715 0.671071 -5.20189 0
M  V30 6352 H 602.189 2.36764 -4.98645 0
M  V30 6353 H 602.666 2.83376 -3.35552 0
M  V30 6354 H 603.272 1.31076 -4.04598 0
M  V30 6355 N 601.587 1.56661 0.17182 0
M  V30 6356 C 602.497 1.99604 1.2327 0
M  V30 6357 C 603.513 0.907333 1.4847 0
M  V30 6358 O 604.689 1.21492 1.60629 0
M  V30 6359 C 601.754 2.34685 2.55194 0
M  V30 6360 C 600.815 3.57381 2.3786 0
M  V30 6361 C 600.048 3.90779 3.63494 0
M  V30 6362 O 600.271 3.25152 4.6865 0
M  V30 6363 O 599.205 4.84129 3.57634 0
M  V30 6364 H 603.031 2.90114 0.898192 0
M  V30 6365 H 600.616 1.44522 0.378647 0
M  V30 6366 H 602.498 2.5822 3.33017 0
M  V30 6367 H 601.173 1.47336 2.88225 0
M  V30 6368 H 600.08 3.39064 1.5807 0
M  V30 6369 H 601.413 4.45268 2.09754 0
M  V30 6370 N 603.065 -0.440357 1.51323 0
M  V30 6371 C 604.313 -1.18769 1.63518 0
M  V30 6372 C 604.634 -1.91793 0.352201 0
M  V30 6373 O 603.904 -1.85432 -0.631811 0
M  V30 6374 H 602.484 -0.441408 0.602634 0
M  V30 6375 H 605.146 -0.505162 1.8824 0
M  V30 6376 H 604.242 -1.91892 2.46138 0
M  V30 6377 N 604.543 -1.41418 -0.695603 0
M  V30 6378 C 605.789 -1.40982 -1.4578 0
M  V30 6379 C 606.122 -0.0187763 -1.94191 0
M  V30 6380 O 605.397 0.95346 -1.69527 0
M  V30 6381 C 605.68 -2.41657 -2.66972 0
M  V30 6382 C 605.533 -3.89869 -2.24327 0
M  V30 6383 C 606.852 -2.39589 -3.69168 0
M  V30 6384 H 603.971 -0.513405 -0.528757 0
M  V30 6385 H 606.613 -1.72693 -0.792275 0
M  V30 6386 H 604.763 -2.14746 -3.23754 0
M  V30 6387 H 606.435 -4.27683 -1.72872 0
M  V30 6388 H 604.678 -4.04737 -1.56111 0
M  V30 6389 H 605.349 -4.55857 -3.11285 0
M  V30 6390 H 607.825 -2.63471 -3.2206 0
M  V30 6391 H 606.701 -3.12044 -4.51575 0
M  V30 6392 H 606.962 -1.41447 -4.18862 0
M  V30 6393 N 606.021 0.929856 -1.27246 0
M  V30 6394 C 607.249 1.71144 -1.16265 0
M  V30 6395 C 607.664 1.867 0.280786 0
M  V30 6396 O 607.021 1.38249 1.19136 0
M  V30 6397 C 607.072 3.11222 -1.83911 0
M  V30 6398 O 606.793 2.96398 -3.22614 0
M  V30 6399 C 608.294 4.05541 -1.79028 0
M  V30 6400 H 605.514 0.535499 -0.404328 0
M  V30 6401 H 608.058 1.16492 -1.68077 0
M  V30 6402 H 606.213 3.6274 -1.36009 0
M  V30 6403 H 606.627 3.8494 -3.56261 0
M  V30 6404 H 608.101 5.01351 -2.30978 0
M  V30 6405 H 608.578 4.32589 -0.759168 0
M  V30 6406 H 609.184 3.59947 -2.26535 0
M  V30 6407 N 607.499 1.09233 1.13605 0
M  V30 6408 C 608.776 0.739633 1.81077 0
M  V30 6409 C 609.156 -0.775595 1.96336 0
M  V30 6410 O 608.504 -1.69726 1.52988 0
M  V30 6411 C 608.714 1.47636 3.16235 0
M  V30 6412 C 610.062 1.64087 3.91613 0
M  V30 6413 O 611.086 1.43871 3.25852 0
M  V30 6414 O 609.945 1.97511 5.0956 0
M  V30 6415 H 607.039 0.265464 0.783236 0
M  V30 6416 H 609.585 1.19441 1.20549 0
M  V30 6417 H 608.357 2.50818 3.00344 0
M  V30 6418 H 607.98 1.01362 3.84462 0
M  V30 6419 N 608.977 -1.30795 0.87923 0
M  V30 6420 C 610.393 -1.48981 0.57243 0
M  V30 6421 C 610.593 -1.80719 -0.891236 0
M  V30 6422 O 609.649 -1.89136 -1.67283 0
M  V30 6423 C 610.962 -2.61721 1.48063 0
M  V30 6424 C 612.51 -2.75603 1.48365 0
M  V30 6425 C 612.985 -3.91449 2.37763 0
M  V30 6426 N 614.476 -3.98751 2.35695 0
M  V30 6427 C 615.211 -4.87684 3.01583 0
M  V30 6428 N 614.707 -5.81454 3.76674 0
M  V30 6429 N 616.5 -4.81005 2.90844 0
M  V30 6430 H 608.651 -1.08465 1.82617 0
M  V30 6431 H 610.914 -0.536813 0.781368 0
M  V30 6432 H 610.62 -2.45073 2.52254 0
M  V30 6433 H 610.494 -3.58071 1.18596 0
M  V30 6434 H 612.881 -2.9166 0.44927 0
M  V30 6435 H 612.962 -1.79891 1.81859 0
M  V30 6436 H 612.606 -3.76149 3.41283 0
M  V30 6437 H 612.536 -4.86487 2.01589 0
M  V30 6438 H 615.027 -3.31668 1.81121 0
M  V30 6439 H 615.34 -6.46063 4.24054 0
M  V30 6440 H 613.685 -5.81403 3.80782 0
M  V30 6441 H 616.876 -4.06728 2.31711 0
M  V30 6442 H 617.049 -5.50107 3.42471 0
M  V30 6443 N 610.455 -0.639598 -1.44038 0
M  V30 6444 C 611.68 -0.153117 -2.06834 0
M  V30 6445 C 612.105 1.16676 -1.47541 0
M  V30 6446 O 611.463 1.71769 -0.580093 0
M  V30 6447 C 611.511 -0.0609169 -3.60549 0
M  V30 6448 O 610.615 0.98071 -4.00569 0
M  V30 6449 H 609.956 -0.0886402 -0.658057 0
M  V30 6450 H 612.486 -0.878674 -1.84771 0
M  V30 6451 H 612.496 0.126892 -4.07803 0
M  V30 6452 H 611.171 -1.0245 -4.03084 0
M  V30 6453 H 609.748 0.766789 -3.64931 0
M  V30 6454 N 611.933 1.52934 -0.380664 0
M  V30 6455 C 612.865 2.23822 0.493581 0
M  V30 6456 C 613.878 1.25761 1.03383 0
M  V30 6457 O 615.067 1.5189 0.937633 0
M  V30 6458 C 612.167 2.9342 1.69582 0
M  V30 6459 C 611.34 4.18115 1.28445 0
M  V30 6460 C 610.399 4.70788 2.35042 0
M  V30 6461 O 609.425 5.34093 1.96807 0
M  V30 6462 N 610.627 4.49899 3.66839 0
M  V30 6463 H 613.392 2.99484 -0.11371 0
M  V30 6464 H 610.953 1.60577 -0.206587 0
M  V30 6465 H 612.945 3.2556 2.40401 0
M  V30 6466 H 611.515 2.21119 2.20965 0
M  V30 6467 H 610.735 3.92109 0.405503 0
M  V30 6468 H 612.023 4.99152 0.986132 0
M  V30 6469 H 611.421 3.99349 4.0067 0
M  V30 6470 H 609.978 4.86551 4.33718 0
M  V30 6471 N 613.412 0.11024 1.57214 0
M  V30 6472 C 614.661 -0.549638 1.94067 0
M  V30 6473 C 614.974 -1.68388 0.995234 0
M  V30 6474 O 616.18 -2.40593 1.25807 0
M  V30 6475 C 614.636 -1.02912 3.44873 0
M  V30 6476 C 614.244 0.0761861 4.47935 0
M  V30 6477 C 615.988 -1.66087 3.9066 0
M  V30 6478 C 613.895 -0.419502 5.8991 0
M  V30 6479 H 612.825 -0.209092 0.724428 0
M  V30 6480 H 615.476 0.188683 1.82527 0
M  V30 6481 H 613.858 -1.82159 3.51616 0
M  V30 6482 H 615.032 0.852185 4.52851 0
M  V30 6483 H 613.347 0.614052 4.11847 0
M  V30 6484 H 615.944 -2.04272 4.94143 0
M  V30 6485 H 616.287 -2.53591 3.30148 0
M  V30 6486 H 616.82 -0.933959 3.86681 0
M  V30 6487 H 613.559 0.419277 6.54158 0
M  V30 6488 H 613.079 -1.16217 5.88433 0
M  V30 6489 H 614.758 -0.883577 6.40938 0
M  V30 6490 N 614.89 -1.56749 -0.16351 0
M  V30 6491 C 615.82 -2.00042 -1.20438 0
M  V30 6492 C 616.801 -0.877256 -1.45733 0
M  V30 6493 O 617.986 -1.1439 -1.56935 0
M  V30 6494 C 615.116 -2.36697 -2.54149 0
M  V30 6495 C 614.07 -3.52046 -2.43408 0
M  V30 6496 C 613.396 -3.74466 -3.81679 0
M  V30 6497 C 614.696 -4.85247 -1.93216 0
M  V30 6498 H 616.39 -2.87244 -0.844477 0
M  V30 6499 H 613.936 -1.38194 -0.40478 0
M  V30 6500 H 615.889 -2.65582 -3.27176 0
M  V30 6501 H 614.613 -1.46414 -2.91943 0
M  V30 6502 H 613.272 -3.23301 -1.72834 0
M  V30 6503 H 612.92 -2.81461 -4.1688 0
M  V30 6504 H 612.62 -4.52084 -3.75359 0
M  V30 6505 H 614.144 -4.0576 -4.5628 0
M  V30 6506 H 615.558 -5.12957 -2.56023 0
M  V30 6507 H 613.955 -5.66556 -1.97825 0
M  V30 6508 H 615.025 -4.7672 -0.88689 0
M  V30 6509 N 616.368 0.432326 -1.51554 0
M  V30 6510 C 617.315 1.52512 -1.7323 0
M  V30 6511 C 618.285 1.55863 -0.5741 0
M  V30 6512 O 619.47 1.72796 -0.809093 0
M  V30 6513 C 616.61 2.90183 -1.86783 0
M  V30 6514 C 615.723 2.96322 -3.14352 0
M  V30 6515 C 614.858 4.25147 -3.18471 0
M  V30 6516 C 613.897 4.25172 -4.40335 0
M  V30 6517 N 613.034 5.45529 -4.41975 0
M  V30 6518 H 617.874 1.33332 -2.66508 0
M  V30 6519 H 615.411 0.647613 -1.32077 0
M  V30 6520 H 617.369 3.70071 -1.92623 0
M  V30 6521 H 615.999 3.0791 -0.969087 0
M  V30 6522 H 615.051 2.09066 -3.17798 0
M  V30 6523 H 616.363 2.92203 -4.04251 0
M  V30 6524 H 615.517 5.13411 -3.23255 0
M  V30 6525 H 614.256 4.31929 -2.2647 0
M  V30 6526 H 613.261 3.353 -4.35723 0
M  V30 6527 H 614.486 4.20049 -5.33606 0
M  V30 6528 H 612.432 5.53024 -3.52847 0
M  V30 6529 H 612.349 5.43311 -5.25689 0
M  V30 6530 H 613.617 6.35812 -4.50958 0
M  V30 6531 N 617.846 1.41785 0.688094 0
M  V30 6532 C 618.794 1.44436 1.82321 0
M  V30 6533 C 619.788 0.321544 1.6632 0
M  V30 6534 O 620.994 0.493931 1.73091 0
M  V30 6535 H 617.369 0.452084 0.600936 0
M  V30 6536 H 619.34 2.40087 1.77202 0
M  V30 6537 C 618.089 1.35071 3.20392 0
M  V30 6538 H 617.412 2.2076 3.33324 0
M  V30 6539 H 618.852 1.40988 3.99873 0
M  V30 6540 C 617.311 0.0639127 3.36839 0
M  V30 6541 O 617.841 -0.888495 3.91751 0
M  V30 6542 N 616.047 -0.0146114 2.90596 0
M  V30 6543 H 615.594 0.761191 2.46097 0
M  V30 6544 H 615.552 -0.874988 3.01979 0
M  V30 6545 N 619.324 -0.923095 1.27737 0
M  V30 6546 C 620.57 -1.67375 1.14514 0
M  V30 6547 C 620.903 -1.91751 -0.307424 0
M  V30 6548 O 620.178 -1.51119 -1.22447 0
M  V30 6549 C 620.461 -3.03745 1.9342 0
M  V30 6550 C 620.314 -2.86581 3.46686 0
M  V30 6551 C 621.633 -4.04144 1.74228 0
M  V30 6552 H 618.752 -0.607427 0.417374 0
M  V30 6553 H 621.394 -1.07089 1.56946 0
M  V30 6554 H 619.544 -3.55204 1.5736 0
M  V30 6555 H 621.216 -2.42203 3.92601 0
M  V30 6556 H 619.459 -2.21829 3.72793 0
M  V30 6557 H 620.13 -3.83381 3.97143 0
M  V30 6558 H 622.606 -3.61712 2.05678 0
M  V30 6559 H 621.482 -4.97543 2.31824 0
M  V30 6560 H 621.743 -4.36661 0.691373 0
M  V30 6561 N 620.802 -1.09834 -1.13024 0
M  V30 6562 C 622.218 -0.828875 -1.36388 0
M  V30 6563 C 622.418 0.554756 -1.93713 0
M  V30 6564 O 621.474 1.30882 -2.15931 0
M  V30 6565 C 622.787 -1.92352 -2.3113 0
M  V30 6566 C 624.335 -1.95124 -2.44735 0
M  V30 6567 C 624.81 -3.03745 -3.42787 0
M  V30 6568 N 626.301 -3.03012 -3.5034 0
M  V30 6569 C 627.036 -3.83699 -4.26101 0
M  V30 6570 N 626.532 -4.74306 -5.04981 0
M  V30 6571 N 628.325 -3.71942 -4.21445 0
M  V30 6572 H 620.476 -1.99029 -0.74169 0
M  V30 6573 H 622.739 -0.864557 -0.388903 0
M  V30 6574 H 622.445 -2.91906 -1.96172 0
M  V30 6575 H 622.319 -1.80536 -3.3119 0
M  V30 6576 H 624.706 -0.962069 -2.78977 0
M  V30 6577 H 624.787 -2.11018 -1.44586 0
M  V30 6578 H 624.431 -4.02878 -3.09276 0
M  V30 6579 H 624.361 -2.85094 -4.42752 0
M  V30 6580 H 626.852 -2.37352 -2.94062 0
M  V30 6581 H 627.165 -5.32446 -5.60108 0
M  V30 6582 H 625.51 -4.78339 -5.04199 0
M  V30 6583 H 628.701 -3.00513 -3.589 0
M  V30 6584 H 628.874 -4.35062 -4.80235 0
M  V30 6585 N 622.28 1.30327 -0.886154 0
M  V30 6586 C 623.228 2.30052 -0.343317 0
M  V30 6587 C 624.222 1.60212 0.550305 0
M  V30 6588 O 625.428 1.74674 0.434609 0
M  V30 6589 H 621.803 0.746306 -0.0923681 0
M  V30 6590 H 623.774 2.73294 -1.19804 0
M  V30 6591 C 622.523 3.45079 0.426107 0
M  V30 6592 H 621.846 3.99003 -0.25227 0
M  V30 6593 H 623.286 4.16931 0.771009 0
M  V30 6594 C 621.745 2.95195 1.62363 0
M  V30 6595 O 622.275 2.95323 2.723 0
M  V30 6596 N 620.481 2.51192 1.4612 0
M  V30 6597 H 620.028 2.51286 0.566832 0
M  V30 6598 H 619.986 2.18173 2.2638 0
M  V30 6599 N 623.758 0.647228 1.43697 0
M  V30 6600 C 624.721 -0.0385101 2.29168 0
M  V30 6601 C 625.721 -0.756487 1.41894 0
M  V30 6602 O 626.911 -0.598641 1.63591 0
M  V30 6603 C 624.043 -1.06524 3.23829 0
M  V30 6604 H 625.236 0.713445 2.9129 0
M  V30 6605 H 622.789 0.408153 1.50877 0
M  V30 6606 H 623.524 -1.84664 2.66589 0
M  V30 6607 H 623.309 -0.554147 3.88164 0
M  V30 6608 H 624.799 -1.54432 3.87996 0
M  V30 6609 N 625.236 -1.5273 0.388769 0
M  V30 6610 C 626.485 -2.00757 -0.194833 0
M  V30 6611 C 626.798 -1.27951 -1.47946 0
M  V30 6612 O 628.004 -1.66686 -2.14308 0
M  V30 6613 C 626.46 -3.57695 -0.397762 0
M  V30 6614 C 626.068 -4.394 0.873583 0
M  V30 6615 C 627.812 -4.14012 -0.937759 0
M  V30 6616 C 625.719 -5.87938 0.638962 0
M  V30 6617 H 624.649 -0.750101 -0.0765845 0
M  V30 6618 H 627.3 -1.76239 0.511086 0
M  V30 6619 H 625.682 -3.7846 -1.16552 0
M  V30 6620 H 626.856 -4.30403 1.64591 0
M  V30 6621 H 625.171 -3.94301 1.33849 0
M  V30 6622 H 627.768 -5.22645 -1.12899 0
M  V30 6623 H 628.111 -3.7007 -1.90666 0
M  V30 6624 H 628.644 -3.97137 -0.229588 0
M  V30 6625 H 625.383 -6.36202 1.57885 0
M  V30 6626 H 624.903 -5.99726 -0.094443 0
M  V30 6627 H 626.582 -6.46423 0.273299 0
M  V30 6628 N 626.714 -0.118576 -1.57153 0
M  V30 6629 C 628.13 0.238014 -1.57815 0
M  V30 6630 C 628.33 1.66747 -1.13127 0
M  V30 6631 O 627.386 2.38867 -0.818462 0
M  V30 6632 C 628.699 0.00508207 -3.007 0
M  V30 6633 C 630.247 0.0710139 -3.12919 0
M  V30 6634 C 630.722 -0.13422 -4.57803 0
M  V30 6635 N 632.213 -0.0801755 -4.63131 0
M  V30 6636 C 632.948 -0.213885 -5.73001 0
M  V30 6637 N 632.444 -0.403742 -6.91623 0
M  V30 6638 N 634.237 -0.15349 -5.6189 0
M  V30 6639 H 626.388 -1.05226 -1.84503 0
M  V30 6640 H 628.651 -0.414318 -0.852669 0
M  V30 6641 H 628.357 -0.983125 -3.3768 0
M  V30 6642 H 628.231 0.73714 -3.69927 0
M  V30 6643 H 630.618 1.04975 -2.75798 0
M  V30 6644 H 630.699 -0.692918 -2.46236 0
M  V30 6645 H 630.343 -1.10992 -4.95624 0
M  V30 6646 H 630.273 0.649692 -5.22577 0
M  V30 6647 H 632.764 0.0630689 -3.77847 0
M  V30 6648 H 633.077 -0.496645 -7.71202 0
M  V30 6649 H 631.422 -0.43971 -6.93608 0
M  V30 6650 H 634.613 -0.00613174 -4.681 0
M  V30 6651 H 634.786 -0.261138 -6.47474 0
M  V30 6652 N 628.193 1.56834 0.155195 0
M  V30 6653 C 629.441 1.82536 0.867462 0
M  V30 6654 C 629.762 0.698168 1.82073 0
M  V30 6655 O 629.032 -0.280807 1.93877 0
M  V30 6656 H 627.612 0.673401 0.323327 0
M  V30 6657 H 630.274 1.94313 0.151156 0
M  V30 6658 H 629.37 2.77171 1.43466 0
M  V30 6659 N 629.671 -0.424282 1.51781 0
M  V30 6660 C 631.087 -0.761768 1.40247 0
M  V30 6661 C 631.287 -1.95324 0.495041 0
M  V30 6662 O 630.343 -2.5246 -0.0448949 0
M  V30 6663 C 631.656 -1.0299 2.82513 0
M  V30 6664 C 633.204 -1.13354 2.91753 0
M  V30 6665 C 633.679 -1.43453 4.34954 0
M  V30 6666 N 635.17 -1.5035 4.3812 0
M  V30 6667 C 635.905 -1.75236 5.45967 0
M  V30 6668 N 635.401 -1.97827 6.63955 0
M  V30 6669 N 637.194 -1.77126 5.33463 0
M  V30 6670 H 629.345 0.360228 2.09323 0
M  V30 6671 H 631.608 0.0988128 0.942836 0
M  V30 6672 H 631.314 -0.226961 3.50967 0
M  V30 6673 H 631.188 -1.95411 3.22637 0
M  V30 6674 H 633.575 -1.92709 2.23489 0
M  V30 6675 H 633.656 -0.188041 2.55108 0
M  V30 6676 H 633.3 -0.646209 5.03772 0
M  V30 6677 H 633.23 -2.3923 4.69123 0
M  V30 6678 H 635.721 -1.34742 3.53062 0
M  V30 6679 H 636.034 -2.16223 7.41935 0
M  V30 6680 H 634.379 -1.95123 6.67047 0
M  V30 6681 H 637.57 -1.59005 4.40267 0
M  V30 6682 H 637.743 -1.96182 6.17589 0
M  V30 6683 N 631.149 -1.42148 -0.680565 0
M  V30 6684 C 632.396 -1.4231 -1.44063 0
M  V30 6685 C 632.724 -0.037488 -1.94464 0
M  V30 6686 O 631.979 0.953184 -1.70918 0
M  V30 6687 C 632.278 -2.38945 -2.65782 0
M  V30 6688 C 631.944 -3.85455 -2.33956 0
M  V30 6689 C 630.606 -4.25364 -2.24987 0
M  V30 6690 C 632.958 -4.77895 -2.08004 0
M  V30 6691 C 630.286 -5.55701 -1.88184 0
M  V30 6692 C 632.638 -6.08568 -1.72706 0
M  V30 6693 C 631.302 -6.47482 -1.62244 0
M  V30 6694 H 630.572 -0.520748 -0.527164 0
M  V30 6695 H 633.219 -1.7505 -0.776524 0
M  V30 6696 H 631.524 -1.99511 -3.37198 0
M  V30 6697 H 633.221 -2.36336 -3.23954 0
M  V30 6698 H 629.811 -3.53855 -2.41836 0
M  V30 6699 H 633.995 -4.47854 -2.1387 0
M  V30 6700 H 629.251 -5.84718 -1.78648 0
M  V30 6701 H 633.425 -6.79688 -1.5165 0
M  V30 6702 H 631.052 -7.48387 -1.33496 0
M  V30 6703 N 632.627 0.916307 -1.28225 0
M  V30 6704 C 634.038 1.48024 -1.13779 0
M  V30 6705 C 634.389 1.94289 0.273139 0
M  V30 6706 O 633.514 1.82226 1.16716 0
M  V30 6707 C 634.109 2.69029 -2.05935 0
M  V30 6708 C 632.668 3.2161 -1.95561 0
M  V30 6709 C 631.815 1.94321 -1.97825 0
M  V30 6710 H 634.766 0.729272 -1.40951 0
M  V30 6711 H 634.787 3.44204 -1.62184 0
M  V30 6712 H 634.299 2.35325 -3.08616 0
M  V30 6713 H 632.4 3.60045 -0.959076 0
M  V30 6714 H 632.513 3.87032 -2.82388 0
M  V30 6715 H 630.877 2.1131 -1.42198 0
M  V30 6716 H 631.66 1.62917 -3.0218 0
M  V30 6717 N 634.105 1.10431 1.1244 0
M  V30 6718 C 635.035 0.775143 2.20258 0
M  V30 6719 C 636.016 -0.25186 1.68225 0
M  V30 6720 O 637.201 -0.117637 1.93843 0
M  V30 6721 C 634.331 0.206133 3.46688 0
M  V30 6722 C 633.285 1.16382 4.11873 0
M  V30 6723 C 632.611 0.456014 5.32752 0
M  V30 6724 C 633.911 2.5104 4.58013 0
M  V30 6725 H 635.605 1.67665 2.4805 0
M  V30 6726 H 633.151 0.807595 1.19222 0
M  V30 6727 H 635.104 -0.036291 4.21384 0
M  V30 6728 H 633.828 -0.730614 3.18323 0
M  V30 6729 H 632.487 1.39169 3.39157 0
M  V30 6730 H 632.135 -0.485203 5.00654 0
M  V30 6731 H 631.835 1.09466 5.77314 0
M  V30 6732 H 633.359 0.222135 6.10196 0
M  V30 6733 H 634.773 2.32401 5.24083 0
M  V30 6734 H 633.17 3.10789 5.13352 0
M  V30 6735 H 634.24 3.11039 3.71998 0
M  V30 6736 N 635.583 -1.29855 0.893053 0
M  V30 6737 C 636.813 -1.99686 0.530019 0
M  V30 6738 C 637.221 -1.67066 -0.888012 0
M  V30 6739 O 636.564 -0.908366 -1.5967 0
M  V30 6740 C 636.626 -3.53855 0.63457 0
M  V30 6741 C 636.29 -4.10013 2.01837 0
M  V30 6742 C 637.287 -4.25406 2.98874 0
M  V30 6743 C 634.972 -4.45202 2.32595 0
M  V30 6744 C 636.966 -4.7521 4.24799 0
M  V30 6745 C 634.653 -4.94704 3.58763 0
M  V30 6746 C 635.651 -5.09662 4.5468 0
M  V30 6747 O 635.339 -5.58093 5.78608 0
M  V30 6748 H 635.071 -0.644913 0.20264 0
M  V30 6749 H 637.625 -1.66518 1.20253 0
M  V30 6750 H 635.855 -3.86583 -0.0949477 0
M  V30 6751 H 637.544 -4.04922 0.281648 0
M  V30 6752 H 638.31 -3.98515 2.76425 0
M  V30 6753 H 634.189 -4.32822 1.58701 0
M  V30 6754 H 637.733 -4.86801 4.99671 0
M  V30 6755 H 633.63 -5.21032 3.81046 0
M  V30 6756 H 634.398 -5.7642 5.81104 0
M  V30 6757 N 637.061 -0.65484 -1.43351 0
M  V30 6758 C 638.009 0.0476784 -2.32551 0
M  V30 6759 C 639.003 0.811403 -1.48703 0
M  V30 6760 O 640.209 0.721621 -1.64902 0
M  V30 6761 H 636.584 0.0342038 -0.751222 0
M  V30 6762 H 638.555 -0.722342 -2.89525 0
M  V30 6763 C 637.304 0.999251 -3.33032 0
M  V30 6764 H 636.627 0.421005 -3.97577 0
M  V30 6765 H 638.067 1.45986 -3.98076 0
M  V30 6766 C 636.526 2.09606 -2.63756 0
M  V30 6767 O 637.056 3.18004 -2.4543 0
M  V30 6768 N 635.262 1.86207 -2.23103 0
M  V30 6769 H 634.809 0.980555 -2.38208 0
M  V30 6770 H 634.767 2.59787 -1.77081 0
M  V30 6771 N 638.539 1.52521 -0.396863 0
M  V30 6772 C 639.469 2.29582 0.425941 0
M  V30 6773 C 640.45 1.33281 1.05689 0
M  V30 6774 O 641.635 1.62181 1.06823 0
M  V30 6775 C 638.765 3.10821 1.54943 0
M  V30 6776 C 637.719 4.15069 1.04413 0
M  V30 6777 C 637.045 4.84578 2.26028 0
M  V30 6778 C 638.345 5.22191 0.106767 0
M  V30 6779 H 640.039 2.98612 -0.217045 0
M  V30 6780 H 637.585 1.43611 -0.105826 0
M  V30 6781 H 639.538 3.63492 2.13193 0
M  V30 6782 H 638.262 2.39538 2.22011 0
M  V30 6783 H 636.921 3.63389 0.484118 0
M  V30 6784 H 636.569 4.09835 2.91623 0
M  V30 6785 H 636.269 5.55043 1.92876 0
M  V30 6786 H 637.793 5.40056 2.84906 0
M  V30 6787 H 639.207 5.70176 0.597685 0
M  V30 6788 H 637.604 5.99947 -0.135352 0
M  V30 6789 H 638.674 4.77531 -0.842134 0
M  V30 6790 N 640.017 0.126909 1.57088 0
M  V30 6791 C 641.265 -0.528123 1.95078 0
M  V30 6792 C 641.586 -1.66708 1.0116 0
M  V30 6793 O 640.856 -1.95777 0.0693527 0
M  V30 6794 H 639.436 -0.198087 0.720257 0
M  V30 6795 H 642.098 0.197703 1.93895 0
M  V30 6796 H 641.194 -0.917507 2.98309 0
M  V30 6797 N 641.495 -1.56914 -0.146875 0
M  V30 6798 C 642.742 -1.83356 -0.859467 0
M  V30 6799 C 643.07 -0.707811 -1.81164 0
M  V30 6800 O 642.325 0.303155 -1.93338 0
M  V30 6801 C 642.624 -3.16128 -1.66727 0
M  V30 6802 C 642.29 -4.42586 -0.861881 0
M  V30 6803 C 640.952 -4.76929 -0.639687 0
M  V30 6804 C 643.304 -5.20344 -0.298643 0
M  V30 6805 C 640.632 -5.86491 0.156451 0
M  V30 6806 C 642.984 -6.30742 0.484536 0
M  V30 6807 C 641.648 -6.63635 0.717306 0
M  V30 6808 H 640.918 -0.670947 -0.314501 0
M  V30 6809 H 643.565 -1.91104 -0.123108 0
M  V30 6810 H 641.87 -3.03831 -2.47374 0
M  V30 6811 H 643.567 -3.33802 -2.2221 0
M  V30 6812 H 640.157 -4.15662 -1.04513 0
M  V30 6813 H 644.341 -4.94186 -0.457585 0
M  V30 6814 H 639.597 -6.10419 0.346292 0
M  V30 6815 H 643.771 -6.90188 0.928105 0
M  V30 6816 H 641.398 -7.48367 1.33607 0
M  V30 6817 N 642.974 0.416227 -1.52004 0
M  V30 6818 C 644.222 1.16153 -1.65387 0
M  V30 6819 C 644.543 1.91208 -0.382669 0
M  V30 6820 O 643.813 1.86413 0.602231 0
M  V30 6821 H 642.393 0.431765 -0.60958 0
M  V30 6822 H 645.055 0.475151 -1.89019 0
M  V30 6823 H 644.151 1.87952 -2.4916 0
M  V30 6824 N 644.452 1.42507 0.673017 0
M  V30 6825 C 645.402 1.4258 1.77919 0
M  V30 6826 C 646.386 0.296885 1.58137 0
M  V30 6827 O 647.578 0.539243 1.68586 0
M  V30 6828 C 644.707 1.33238 3.1639 0
M  V30 6829 C 643.793 2.51081 3.41788 0
M  V30 6830 N 644.184 3.76498 3.37761 0
M  V30 6831 C 642.482 2.4538 3.72431 0
M  V30 6832 C 643.183 4.54784 3.62693 0
M  V30 6833 N 642.159 3.8522 3.83544 0
M  V30 6834 H 645.961 2.37442 1.73201 0
M  V30 6835 H 643.475 1.36881 0.873924 0
M  V30 6836 H 645.472 1.31372 3.9566 0
M  V30 6837 H 644.132 0.393794 3.22303 0
M  V30 6838 H 645.143 4.09068 3.17622 0
M  V30 6839 H 641.82 1.60109 3.85579 0
M  V30 6840 H 643.21 5.63774 3.65525 0
M  V30 6841 N 645.93 -0.909495 1.28709 0
M  V30 6842 C 646.878 -2.03381 1.12866 0
M  V30 6843 C 647.872 -1.69335 0.0468074 0
M  V30 6844 O 649.078 -1.78819 0.205891 0
M  V30 6845 H 645.453 -0.666452 0.348348 0
M  V30 6846 H 647.424 -2.13885 2.08077 0
M  V30 6847 C 646.173 -3.38092 0.811742 0
M  V30 6848 H 645.496 -3.64786 1.63619 0
M  V30 6849 H 646.936 -4.17477 0.740869 0
M  V30 6850 C 645.395 -3.33395 -0.484679 0
M  V30 6851 O 645.925 -3.72089 -1.5137 0
M  V30 6852 N 644.131 -2.86491 -0.486961 0
M  V30 6853 H 643.678 -2.55199 0.350877 0
M  V30 6854 H 643.636 -2.83731 -1.3544 0
M  V30 6855 N 647.408 -1.11026 -1.11852 0
M  V30 6856 C 648.654 -0.857729 -1.83768 0
M  V30 6857 C 648.987 0.615143 -1.842 0
M  V30 6858 O 648.262 1.45391 -1.29196 0
M  V30 6859 C 648.545 -1.41453 -3.31154 0
M  V30 6860 C 648.398 -2.95471 -3.39142 0
M  V30 6861 C 649.717 -1.0619 -4.27097 0
M  V30 6862 H 646.836 -0.313044 -0.667212 0
M  V30 6863 H 649.478 -1.37443 -1.31185 0
M  V30 6864 H 647.628 -0.975052 -3.76065 0
M  V30 6865 H 649.3 -3.4799 -3.02821 0
M  V30 6866 H 647.543 -3.31759 -2.79497 0
M  V30 6867 H 648.214 -3.29515 -4.42859 0
M  V30 6868 H 650.69 -1.44122 -3.90344 0
M  V30 6869 H 649.566 -1.47832 -5.28618 0
M  V30 6870 H 649.827 0.0278912 -4.42091 0
M  V30 6871 N 648.886 1.2938 -0.899927 0
M  V30 6872 C 650.163 1.9046 -0.445443 0
M  V30 6873 C 650.543 1.81683 1.07492 0
M  V30 6874 O 649.891 1.24371 1.91688 0
M  V30 6875 C 650.101 3.35529 -0.960279 0
M  V30 6876 C 651.449 4.12556 -1.00412 0
M  V30 6877 O 652.473 3.44434 -0.907965 0
M  V30 6878 O 651.332 5.34294 -1.14857 0
M  V30 6879 H 648.426 0.815253 -0.138893 0
M  V30 6880 H 650.972 1.37844 -0.989808 0
M  V30 6881 H 649.744 3.36074 -2.00425 0
M  V30 6882 H 649.367 3.95624 -0.395939 0
M  V30 6883 N 650.364 0.662433 1.43002 0
M  V30 6884 C 651.611 0.179591 2.01702 0
M  V30 6885 C 651.939 -1.20964 1.52309 0
M  V30 6886 O 651.194 -1.82343 0.7106 0
M  V30 6887 C 651.493 0.149363 3.57088 0
M  V30 6888 C 651.159 1.48158 4.25864 0
M  V30 6889 C 649.821 1.84638 4.44367 0
M  V30 6890 C 652.173 2.35953 4.64732 0
M  V30 6891 C 649.501 3.08561 4.99006 0
M  V30 6892 C 651.853 3.59176 5.20745 0
M  V30 6893 C 650.517 3.95841 5.37463 0
M  V30 6894 H 649.787 0.0657172 0.73808 0
M  V30 6895 H 652.434 0.854968 1.71355 0
M  V30 6896 H 650.739 -0.609491 3.8703 0
M  V30 6897 H 652.436 -0.241241 4.00274 0
M  V30 6898 H 649.026 1.18777 4.11813 0
M  V30 6899 H 653.21 2.09058 4.50121 0
M  V30 6900 H 648.466 3.37005 5.10135 0
M  V30 6901 H 652.64 4.27417 5.49807 0
M  V30 6902 H 650.267 4.91942 5.79566 0
M  V30 6903 N 651.842 -1.52309 0.404946 0
M  V30 6904 C 652.79 -2.28452 -0.437321 0
M  V30 6905 C 653.784 -1.32975 -1.04948 0
M  V30 6906 O 654.99 -1.50451 -0.988159 0
M  V30 6907 H 651.365 -0.734824 -0.159805 0
M  V30 6908 H 653.336 -2.97542 0.22615 0
M  V30 6909 C 652.085 -3.11536 -1.54404 0
M  V30 6910 H 651.408 -3.84871 -1.08233 0
M  V30 6911 H 652.848 -3.67926 -2.10729 0
M  V30 6912 C 651.307 -2.24833 -2.50902 0
M  V30 6913 O 651.837 -1.88574 -3.54687 0
M  V30 6914 N 650.043 -1.88685 -2.21012 0
M  V30 6915 H 649.59 -2.18371 -1.36646 0
M  V30 6916 H 649.548 -1.30966 -2.85824 0
M  V30 6917 N 653.32 -0.135238 -1.57019 0
M  V30 6918 C 654.567 0.518794 -1.95742 0
M  V30 6919 C 654.895 1.65642 -1.01947 0
M  V30 6920 O 654.15 1.95645 -0.0464016 0
M  V30 6921 C 654.449 1.07694 -3.40788 0
M  V30 6922 C 654.115 0.058992 -4.50861 0
M  V30 6923 C 652.777 -0.220872 -4.80693 0
M  V30 6924 C 655.129 -0.633856 -5.17331 0
M  V30 6925 C 652.457 -1.19959 -5.74305 0
M  V30 6926 C 654.809 -1.60131 -6.11997 0
M  V30 6927 C 653.473 -1.889 -6.40213 0
M  V30 6928 H 652.743 0.18984 -0.716269 0
M  V30 6929 H 655.39 -0.219581 -1.90237 0
M  V30 6930 H 653.695 1.89241 -3.43067 0
M  V30 6931 H 655.392 1.59137 -3.68071 0
M  V30 6932 H 651.982 0.287304 -4.27636 0
M  V30 6933 H 656.166 -0.430823 -4.94427 0
M  V30 6934 H 651.422 -1.42905 -5.94465 0
M  V30 6935 H 655.596 -2.14376 -6.62583 0
M  V30 6936 H 653.223 -2.64891 -7.12556 0
M  V30 6937 N 654.798 1.5699 0.138552 0
M  V30 6938 C 655.728 2.01933 1.17241 0
M  V30 6939 C 656.709 0.90033 1.44319 0
M  V30 6940 O 657.894 1.16872 1.55095 0
M  V30 6941 C 655.024 2.40711 2.50351 0
M  V30 6942 C 653.978 3.55874 2.37776 0
M  V30 6943 C 653.304 3.80491 3.75674 0
M  V30 6944 C 654.604 4.8826 1.85472 0
M  V30 6945 H 656.298 2.88551 0.798672 0
M  V30 6946 H 653.844 1.3882 0.382743 0
M  V30 6947 H 655.797 2.70754 3.22909 0
M  V30 6948 H 654.521 1.5104 2.89576 0
M  V30 6949 H 653.18 3.2601 1.67669 0
M  V30 6950 H 652.828 2.88057 4.12349 0
M  V30 6951 H 652.528 4.57998 3.68119 0
M  V30 6952 H 654.052 4.12967 4.49767 0
M  V30 6953 H 655.466 5.16965 2.4783 0
M  V30 6954 H 653.863 5.69631 1.88787 0
M  V30 6955 H 654.933 4.78071 0.810935 0
M  V30 6956 N 656.276 -0.40816 1.52223 0
M  V30 6957 C 657.186 -1.52202 1.78526 0
M  V30 6958 C 658.202 -1.60546 0.670892 0
M  V30 6959 O 659.378 -1.77242 0.956404 0
M  V30 6960 C 656.443 -2.87928 1.93128 0
M  V30 6961 C 655.504 -2.89463 3.17033 0
M  V30 6962 C 654.737 -4.18715 3.30929 0
M  V30 6963 O 654.96 -5.12662 2.50067 0
M  V30 6964 O 653.894 -4.27125 4.24084 0
M  V30 6965 H 657.72 -1.32911 2.73072 0
M  V30 6966 H 655.305 -0.594112 1.37079 0
M  V30 6967 H 657.187 -3.68426 2.04549 0
M  V30 6968 H 655.862 -3.07285 1.01772 0
M  V30 6969 H 654.769 -2.07815 3.11069 0
M  V30 6970 H 656.102 -2.75055 4.08174 0
M  V30 6971 N 657.755 -1.42862 -0.66545 0
M  V30 6972 C 659.001 -1.44043 -1.42757 0
M  V30 6973 C 659.334 -0.0599629 -1.94107 0
M  V30 6974 O 658.609 0.917286 -1.71511 0
M  V30 6975 C 658.892 -2.47266 -2.61786 0
M  V30 6976 C 658.745 -3.94539 -2.16007 0
M  V30 6977 C 660.064 -2.47365 -3.64003 0
M  V30 6978 H 657.183 -0.524506 -0.517748 0
M  V30 6979 H 659.825 -1.74335 -0.755466 0
M  V30 6980 H 657.975 -2.21565 -3.19126 0
M  V30 6981 H 659.647 -4.31254 -1.63762 0
M  V30 6982 H 657.89 -4.07957 -1.47491 0
M  V30 6983 H 658.561 -4.62357 -3.01546 0
M  V30 6984 H 661.037 -2.70243 -3.16399 0
M  V30 6985 H 659.913 -3.21552 -4.44854 0
M  V30 6986 H 660.174 -1.50299 -4.15767 0
M  V30 6987 N 659.233 0.902656 -1.29189 0
M  V30 6988 C 660.166 2.00816 -1.0839 0
M  V30 6989 C 661.144 1.626 0.00335266 0
M  V30 6990 O 662.328 1.87928 -0.146765 0
M  V30 6991 C 659.455 3.32415 -0.649435 0
M  V30 6992 C 658.501 3.89617 -1.73496 0
M  V30 6993 S 659.334 4.19091 -3.33351 0
M  V30 6994 C 660.49 5.53736 -2.91766 0
M  V30 6995 H 660.723 2.18151 -2.01984 0
M  V30 6996 H 658.256 1.0489 -1.13303 0
M  V30 6997 H 660.214 4.08492 -0.405479 0
M  V30 6998 H 658.875 3.12964 0.266857 0
M  V30 6999 H 658.068 4.84658 -1.38284 0
M  V30 7000 H 657.67 3.20217 -1.93229 0
M  V30 7001 H 659.962 6.34085 -2.38627 0
M  V30 7002 H 660.905 5.93871 -3.85647 0
M  V30 7003 H 661.313 5.15453 -2.30149 0
M  V30 7004 N 660.711 1.11618 1.11262 0
M  V30 7005 C 661.936 0.889013 1.8738 0
M  V30 7006 C 662.361 -0.555884 1.79698 0
M  V30 7007 O 661.719 -1.39272 1.16073 0
M  V30 7008 C 661.767 1.35759 3.34069 0
M  V30 7009 O 660.871 0.530499 4.08974 0
M  V30 7010 H 660.212 0.320082 0.581759 0
M  V30 7011 H 662.742 1.48611 1.40627 0
M  V30 7012 H 662.752 1.35291 3.84916 0
M  V30 7013 H 661.427 2.40973 3.38976 0
M  V30 7014 H 660.004 0.601439 3.68018 0
M  V30 7015 N 662.189 -1.289 0.906776 0
M  V30 7016 C 663.122 -2.25737 0.334362 0
M  V30 7017 C 664.1 -1.52745 -0.557474 0
M  V30 7018 O 665.284 -1.81673 -0.502697 0
M  V30 7019 C 662.411 -3.34642 -0.522716 0
M  V30 7020 C 661.457 -4.25424 0.302777 0
M  V30 7021 S 662.29 -5.07629 1.70508 0
M  V30 7022 C 663.446 -6.20031 0.855118 0
M  V30 7023 H 663.679 -2.73941 1.15514 0
M  V30 7024 H 661.212 -1.37233 0.707573 0
M  V30 7025 H 663.17 -3.97845 -1.01141 0
M  V30 7026 H 661.831 -2.85119 -1.31781 0
M  V30 7027 H 661.024 -5.02767 -0.352257 0
M  V30 7028 H 660.626 -3.66908 0.724873 0
M  V30 7029 H 662.918 -6.77451 0.0816418 0
M  V30 7030 H 663.861 -6.89767 1.60087 0
M  V30 7031 H 664.269 -5.63035 0.406375 0
M  V30 7032 N 663.667 -0.670007 -1.42649 0
M  V30 7033 C 664.577 0.0114788 -2.34597 0
M  V30 7034 C 665.593 0.794055 -1.54825 0
M  V30 7035 O 666.769 0.737472 -1.87412 0
M  V30 7036 C 663.834 0.954436 -3.33304 0
M  V30 7037 C 662.895 0.166925 -4.28975 0
M  V30 7038 C 662.128 1.06497 -5.22967 0
M  V30 7039 O 662.351 2.30446 -5.21777 0
M  V30 7040 O 661.285 0.528347 -5.99577 0
M  V30 7041 H 665.111 -0.745794 -2.944 0
M  V30 7042 H 662.696 -0.430228 -1.43071 0
M  V30 7043 H 664.578 1.49589 -3.93956 0
M  V30 7044 H 663.253 1.69164 -2.7598 0
M  V30 7045 H 662.16 -0.418515 -3.71752 0
M  V30 7046 H 663.493 -0.531067 -4.89327 0
M  V30 7047 N 665.145 1.52092 -0.413018 0
M  V30 7048 C 666.093 2.28681 0.425199 0
M  V30 7049 C 667.087 1.3353 1.04241 0
M  V30 7050 O 668.293 1.50973 0.980166 0
M  V30 7051 H 664.668 0.735661 0.155906 0
M  V30 7052 H 666.639 2.97418 -0.241926 0
M  V30 7053 C 665.388 3.1235 1.5275 0
M  V30 7054 H 664.711 3.85439 1.06191 0
M  V30 7055 H 666.151 3.69038 2.08774 0
M  V30 7056 C 664.61 2.26161 2.49706 0
M  V30 7057 O 665.14 1.90452 3.53682 0
M  V30 7058 N 663.346 1.89854 2.20008 0
M  V30 7059 H 662.893 2.19092 1.35486 0
M  V30 7060 H 662.851 1.3248 2.85125 0
M  V30 7061 N 666.623 0.143563 1.56945 0
M  V30 7062 C 667.571 -0.814556 2.17871 0
M  V30 7063 C 668.565 -1.25778 1.13474 0
M  V30 7064 O 669.771 -1.22666 1.31731 0
M  V30 7065 H 666.146 -0.280873 0.697578 0
M  V30 7066 H 668.117 -0.276459 2.97117 0
M  V30 7067 C 666.866 -2.04503 2.81201 0
M  V30 7068 H 666.189 -1.71296 3.61245 0
M  V30 7069 H 667.629 -2.69493 3.27337 0
M  V30 7070 C 666.088 -2.85079 1.79532 0
M  V30 7071 O 666.618 -3.81306 1.26368 0
M  V30 7072 N 664.824 -2.49546 1.48913 0
M  V30 7073 H 664.371 -1.71359 1.92338 0
M  V30 7074 H 664.329 -3.03751 0.811348 0
M  V30 7075 N 668.101 -1.57061 -0.130224 0
M  V30 7076 C 669.349 -1.83893 -0.838313 0
M  V30 7077 C 669.67 -0.727046 -1.80939 0
M  V30 7078 O 668.94 0.249927 -1.94299 0
M  V30 7079 H 667.52 -0.67846 -0.312573 0
M  V30 7080 H 670.182 -1.94529 -0.120224 0
M  V30 7081 H 669.278 -2.79419 -1.39038 0
M  V30 7082 N 669.579 0.400081 -1.52437 0
M  V30 7083 C 670.995 0.739359 -1.41441 0
M  V30 7084 C 671.195 1.94512 -0.526053 0
M  V30 7085 O 670.251 2.525 0.00472502 0
M  V30 7086 C 671.564 0.984824 -2.84116 0
M  V30 7087 C 673.112 1.08698 -2.93519 0
M  V30 7088 C 673.587 1.36515 -4.37181 0
M  V30 7089 N 675.078 1.43361 -4.40457 0
M  V30 7090 C 675.813 1.66528 -5.48686 0
M  V30 7091 N 675.309 1.87239 -6.67018 0
M  V30 7092 N 677.102 1.68617 -5.36213 0
M  V30 7093 H 669.253 -0.393484 -2.08723 0
M  V30 7094 H 671.516 -0.1138 -0.941145 0
M  V30 7095 H 671.222 0.171096 -3.51284 0
M  V30 7096 H 671.096 1.90253 -3.25705 0
M  V30 7097 H 673.483 1.89129 -2.26526 0
M  V30 7098 H 673.564 0.147432 -2.55375 0
M  V30 7099 H 673.208 0.565982 -5.04737 0
M  V30 7100 H 673.138 2.31737 -4.7287 0
M  V30 7101 H 675.629 1.29108 -3.55161 0
M  V30 7102 H 675.942 2.04392 -7.45281 0
M  V30 7103 H 674.287 1.84486 -6.70067 0
M  V30 7104 H 677.478 1.5198 -4.42741 0
M  V30 7105 H 677.651 1.86332 -6.20632 0
M  V30 7106 N 671.057 1.43213 0.657864 0
M  V30 7107 C 672.02 1.47687 1.75275 0
M  V30 7108 C 673.02 0.362179 1.56668 0
M  V30 7109 O 674.21 0.623734 1.62651 0
M  V30 7110 C 671.342 1.32497 3.14098 0
M  V30 7111 H 672.535 2.4519 1.7269 0
M  V30 7112 H 670.088 1.2991 0.869087 0
M  V30 7113 H 670.823 0.359831 3.22298 0
M  V30 7114 H 670.608 2.13299 3.29008 0
M  V30 7115 H 672.098 1.38549 3.93946 0
M  V30 7116 N 672.536 -0.895792 1.29666 0
M  V30 7117 C 673.468 -2.00563 1.10937 0
M  V30 7118 C 674.481 -1.62705 0.055734 0
M  V30 7119 O 675.67 -1.7595 0.300656 0
M  V30 7120 C 672.77 -3.32262 0.667448 0
M  V30 7121 C 671.943 -3.98625 1.80047 0
M  V30 7122 C 671.002 -5.08617 1.3489 0
M  V30 7123 O 670.028 -5.30837 2.05429 0
M  V30 7124 N 671.23 -5.80076 0.221937 0
M  V30 7125 H 673.995 -2.17184 2.06522 0
M  V30 7126 H 671.556 -1.06822 1.21658 0
M  V30 7127 H 673.548 -4.03196 0.348586 0
M  V30 7128 H 672.118 -3.11985 -0.196055 0
M  V30 7129 H 671.338 -3.21005 2.28801 0
M  V30 7130 H 672.626 -4.39704 2.56003 0
M  V30 7131 H 672.024 -5.64514 -0.366084 0
M  V30 7132 H 670.581 -6.51789 -0.0375346 0
M  V30 7133 N 674.014 -1.12206 -1.10668 0
M  V30 7134 C 675.43 -0.857619 -1.346 0
M  V30 7135 C 675.63 0.513542 -1.94846 0
M  V30 7136 O 674.686 1.26273 -2.18658 0
M  V30 7137 C 675.999 -1.97212 -2.26998 0
M  V30 7138 C 677.547 -2.00272 -2.40542 0
M  V30 7139 C 678.022 -3.10948 -3.36267 0
M  V30 7140 N 679.513 -3.10375 -3.43834 0
M  V30 7141 C 680.248 -3.92651 -4.17867 0
M  V30 7142 N 679.744 -4.84911 -4.94807 0
M  V30 7143 N 681.537 -3.80798 -4.1346 0
M  V30 7144 H 673.688 -2.00558 -0.699306 0
M  V30 7145 H 675.951 -0.872612 -0.370477 0
M  V30 7146 H 675.657 -2.96002 -1.89936 0
M  V30 7147 H 675.531 -1.87521 -3.27286 0
M  V30 7148 H 677.918 -1.02103 -2.76874 0
M  V30 7149 H 677.999 -2.14037 -1.40077 0
M  V30 7150 H 677.643 -4.09348 -3.00661 0
M  V30 7151 H 677.573 -2.94421 -4.36605 0
M  V30 7152 H 680.064 -2.43536 -2.88961 0
M  V30 7153 H 680.377 -5.44207 -5.48688 0
M  V30 7154 H 678.722 -4.88926 -4.93939 0
M  V30 7155 H 681.913 -3.08058 -3.52445 0
M  V30 7156 H 682.086 -4.4515 -4.70898 0
M  V30 7157 N 675.492 1.28418 -0.913599 0
M  V30 7158 C 676.741 1.94265 -0.542572 0
M  V30 7159 C 677.054 1.72709 0.918207 0
M  V30 7160 O 678.26 2.32778 1.39738 0
M  V30 7161 C 676.716 3.47956 -0.919507 0
M  V30 7162 C 676.324 3.78291 -2.4 0
M  V30 7163 C 678.068 4.19962 -0.619057 0
M  V30 7164 C 675.975 5.2529 -2.71707 0
M  V30 7165 H 674.905 0.727213 -0.199192 0
M  V30 7166 H 677.556 1.45931 -1.11249 0
M  V30 7167 H 675.938 3.9502 -0.278372 0
M  V30 7168 H 677.112 3.42035 -3.08786 0
M  V30 7169 H 675.427 3.19456 -2.67089 0
M  V30 7170 H 678.024 5.28178 -0.832623 0
M  V30 7171 H 678.367 4.13935 0.443126 0
M  V30 7172 H 678.9 3.78674 -1.21865 0
M  V30 7173 H 675.639 5.36394 -3.76778 0
M  V30 7174 H 675.159 5.62743 -2.07559 0
M  V30 7175 H 676.838 5.93027 -2.58703 0
M  V30 7176 N 676.97 0.677563 1.42291 0
M  V30 7177 C 678.2 0.209155 2.05539 0
M  V30 7178 C 678.608 -1.13987 1.51009 0
M  V30 7179 O 677.951 -1.71976 0.645764 0
M  V30 7180 C 678.013 0.0697758 3.59432 0
M  V30 7181 C 677.677 1.34795 4.36668 0
M  V30 7182 C 678.674 2.28201 4.67141 0
M  V30 7183 C 676.359 1.59632 4.76259 0
M  V30 7184 C 678.353 3.44718 5.36142 0
M  V30 7185 C 676.04 2.76437 5.45 0
M  V30 7186 C 677.038 3.68805 5.74867 0
M  V30 7187 O 676.726 4.83567 6.42198 0
M  V30 7188 H 676.458 0.0986202 0.668768 0
M  V30 7189 H 679.012 0.925483 1.83368 0
M  V30 7190 H 677.242 -0.702157 3.80272 0
M  V30 7191 H 678.931 -0.359115 4.04308 0
M  V30 7192 H 679.697 2.10264 4.37052 0
M  V30 7193 H 675.576 0.886073 4.52404 0
M  V30 7194 H 679.12 4.16833 5.59371 0
M  V30 7195 H 675.017 2.94299 5.74507 0
M  V30 7196 H 675.785 4.83147 6.6069 0
M  V30 7197 N 678.448 -1.51871 0.421078 0
M  V30 7198 C 679.358 -2.31077 -0.405069 0
M  V30 7199 C 680.374 -1.39301 -1.04265 0
M  V30 7200 O 681.55 -1.72376 -1.04157 0
M  V30 7201 C 678.615 -3.12556 -1.50032 0
M  V30 7202 C 677.676 -4.20088 -0.884559 0
M  V30 7203 C 676.909 -4.97673 -1.92762 0
M  V30 7204 O 677.132 -4.75696 -3.14753 0
M  V30 7205 O 676.066 -5.82203 -1.52719 0
M  V30 7206 H 679.892 -3.02742 0.241086 0
M  V30 7207 H 677.477 -1.48263 0.183991 0
M  V30 7208 H 679.359 -3.6326 -2.13589 0
M  V30 7209 H 678.034 -2.43672 -2.13086 0
M  V30 7210 H 676.941 -3.73502 -0.211379 0
M  V30 7211 H 678.274 -4.91298 -0.297763 0
M  V30 7212 N 679.926 -0.151884 -1.56866 0
M  V30 7213 C 681.203 0.543328 -1.87902 0
M  V30 7214 C 681.583 1.82636 -1.05864 0
M  V30 7215 O 680.931 2.28028 -0.146868 0
M  V30 7216 C 681.141 0.804056 -3.39611 0
M  V30 7217 C 682.489 1.14267 -4.08935 0
M  V30 7218 O 683.513 0.893248 -3.44818 0
M  V30 7219 O 682.372 1.61229 -5.22176 0
M  V30 7220 H 679.466 0.277724 -0.778973 0
M  V30 7221 H 682.012 -0.188862 -1.68646 0
M  V30 7222 H 680.784 -0.103772 -3.91162 0
M  V30 7223 H 680.407 1.59025 -3.64413 0
M  V30 7224 N 681.404 1.57128 0.121893 0
M  V30 7225 C 682.354 1.96556 1.15541 0
M  V30 7226 C 683.338 0.840147 1.37224 0
M  V30 7227 O 684.53 1.10382 1.38365 0
M  V30 7228 C 681.659 2.37097 2.48274 0
M  V30 7229 C 680.745 3.56265 2.30078 0
M  V30 7230 N 681.136 4.72041 1.81688 0
M  V30 7231 C 679.434 3.61841 2.60744 0
M  V30 7232 C 680.135 5.54075 1.77132 0
M  V30 7233 N 679.111 4.96483 2.21371 0
M  V30 7234 H 682.913 2.83531 0.77378 0
M  V30 7235 H 680.427 1.59019 0.329672 0
M  V30 7236 H 682.424 2.6356 3.2302 0
M  V30 7237 H 681.084 1.51486 2.87197 0
M  V30 7238 H 682.095 4.95313 1.51278 0
M  V30 7239 H 678.772 2.8683 3.03373 0
M  V30 7240 H 680.162 6.56939 1.40998 0
M  V30 7241 N 682.882 -0.391992 1.52647 0
M  V30 7242 C 684.159 -1.15136 1.58123 0
M  V30 7243 C 684.539 -2.07786 0.372597 0
M  V30 7244 O 683.887 -2.19374 -0.639304 0
M  V30 7245 C 684.097 -1.91367 2.91856 0
M  V30 7246 C 685.445 -2.46833 3.45483 0
M  V30 7247 O 686.469 -2.01527 2.9371 0
M  V30 7248 O 685.328 -3.29587 4.3593 0
M  V30 7249 H 682.422 -0.526649 0.637629 0
M  V30 7250 H 684.968 -0.397386 1.64982 0
M  V30 7251 H 683.74 -1.23597 3.71268 0
M  V30 7252 H 683.363 -2.73732 2.88369 0
M  V30 7253 N 684.36 -1.4356 -0.65026 0
M  V30 7254 C 685.323 -1.48615 -1.74489 0
M  V30 7255 C 686.323 -0.370483 -1.56474 0
M  V30 7256 O 687.513 -0.632351 -1.62317 0
M  V30 7257 C 684.645 -1.34161 -3.13391 0
M  V30 7258 H 685.838 -2.46103 -1.71387 0
M  V30 7259 H 683.391 -1.30369 -0.862186 0
M  V30 7260 H 684.126 -0.376918 -3.22102 0
M  V30 7261 H 683.911 -2.1504 -3.27872 0
M  V30 7262 H 685.401 -1.40637 -3.93206 0
M  V30 7263 N 685.838 0.888903 -1.30139 0
M  V30 7264 C 687.066 1.67358 -1.21651 0
M  V30 7265 C 687.481 1.87499 0.221246 0
M  V30 7266 O 686.838 1.41969 1.14677 0
M  V30 7267 C 686.889 3.05213 -1.93719 0
M  V30 7268 O 686.61 2.85984 -3.31881 0
M  V30 7269 C 688.111 3.9964 -1.9184 0
M  V30 7270 H 685.331 0.522365 -0.42116 0
M  V30 7271 H 687.875 1.11086 -1.71698 0
M  V30 7272 H 686.03 3.5823 -1.4748 0
M  V30 7273 H 686.444 3.73411 -3.68327 0
M  V30 7274 H 687.918 4.93749 -2.46811 0
M  V30 7275 H 688.395 4.29955 -0.896409 0
M  V30 7276 H 689.001 3.52558 -2.37872 0
M  V30 7277 N 687.317 1.12792 1.10072 0
M  V30 7278 C 688.249 0.757003 2.16338 0
M  V30 7279 C 689.262 -0.218144 1.61332 0
M  V30 7280 O 690.451 0.0010727 1.785 0
M  V30 7281 C 687.551 0.100303 3.38752 0
M  V30 7282 C 686.724 1.10586 4.2319 0
M  V30 7283 C 685.783 0.47609 5.24042 0
M  V30 7284 O 684.809 1.13418 5.57786 0
M  V30 7285 N 686.011 -0.754823 5.75572 0
M  V30 7286 H 688.776 1.6714 2.48766 0
M  V30 7287 H 686.337 1.02003 1.25726 0
M  V30 7288 H 688.329 -0.333092 4.03327 0
M  V30 7289 H 686.899 -0.716915 3.04268 0
M  V30 7290 H 686.119 1.71677 3.54853 0
M  V30 7291 H 687.407 1.78571 4.76435 0
M  V30 7292 H 686.805 -1.30838 5.50362 0
M  V30 7293 H 685.362 -1.13098 6.41913 0
M  V30 7294 N 688.795 -1.27931 0.920396 0
M  V30 7295 C 689.727 -2.26175 0.371169 0
M  V30 7296 C 690.74 -1.55122 -0.494065 0
M  V30 7297 O 691.929 -1.75825 -0.30787 0
M  V30 7298 C 689.029 -3.35376 -0.487481 0
M  V30 7299 C 688.202 -4.35943 0.356772 0
M  V30 7300 C 687.261 -5.24374 -0.438042 0
M  V30 7301 O 686.287 -5.68998 0.151715 0
M  V30 7302 N 687.489 -5.53823 -1.73956 0
M  V30 7303 H 690.254 -2.73938 1.21564 0
M  V30 7304 H 687.815 -1.41482 0.787047 0
M  V30 7305 H 689.807 -3.91476 -1.02609 0
M  V30 7306 H 688.377 -2.87269 -1.23269 0
M  V30 7307 H 687.597 -3.7921 1.07672 0
M  V30 7308 H 688.885 -5.0015 0.934206 0
M  V30 7309 H 688.283 -5.19413 -2.24114 0
M  V30 7310 H 686.84 -6.12653 -2.22486 0
M  V30 7311 N 690.273 -0.685099 -1.4193 0
M  V30 7312 C 691.203 -0.0273506 -2.33484 0
M  V30 7313 C 692.184 0.778366 -1.51246 0
M  V30 7314 O 693.369 0.733449 -1.79817 0
M  V30 7315 C 690.499 0.917272 -3.34968 0
M  V30 7316 C 689.453 0.21941 -4.27437 0
M  V30 7317 C 688.779 1.27768 -5.1921 0
M  V30 7318 C 690.079 -0.907894 -5.14349 0
M  V30 7319 H 691.773 -0.791994 -2.88735 0
M  V30 7320 H 689.319 -0.382308 -1.38832 0
M  V30 7321 H 691.272 1.38657 -3.97935 0
M  V30 7322 H 689.996 1.71346 -2.78043 0
M  V30 7323 H 688.655 -0.229757 -3.65879 0
M  V30 7324 H 688.303 2.06612 -4.58607 0
M  V30 7325 H 688.003 0.815803 -5.81909 0
M  V30 7326 H 689.527 1.7477 -5.85054 0
M  V30 7327 H 690.941 -0.519348 -5.70943 0
M  V30 7328 H 689.338 -1.2962 -5.85934 0
M  V30 7329 H 690.408 -1.75218 -4.52136 0
M  V30 7330 N 691.751 1.51645 -0.429126 0
M  V30 7331 C 692.683 2.25279 0.422124 0
M  V30 7332 C 693.696 1.28986 0.993299 0
M  V30 7333 O 694.885 1.54797 0.888836 0
M  V30 7334 C 691.985 2.98666 1.60162 0
M  V30 7335 C 691.158 4.2199 1.15078 0
M  V30 7336 C 690.217 4.78028 2.19946 0
M  V30 7337 O 689.243 5.40084 1.79716 0
M  V30 7338 N 690.445 4.61342 3.5234 0
M  V30 7339 H 693.21 2.98971 -0.208931 0
M  V30 7340 H 690.771 1.59838 -0.257568 0
M  V30 7341 H 692.763 3.33044 2.29922 0
M  V30 7342 H 691.333 2.28036 2.13818 0
M  V30 7343 H 690.553 3.932 0.280552 0
M  V30 7344 H 691.841 5.02037 0.826831 0
M  V30 7345 H 691.239 4.11894 3.87763 0
M  V30 7346 H 689.796 5.00104 4.18019 0
M  V30 7347 N 693.229 0.160201 1.56784 0
M  V30 7348 C 694.477 -0.486625 1.96154 0
M  V30 7349 C 694.798 -1.64525 1.04673 0
M  V30 7350 O 694.068 -1.95586 0.110864 0
M  V30 7351 H 692.648 -0.182764 0.724297 0
M  V30 7352 H 695.31 0.238787 1.93432 0
M  V30 7353 H 694.406 -0.854025 3.00188 0
M  V30 7354 N 694.707 -1.5719 -0.113559 0
M  V30 7355 C 695.954 -1.85138 -0.820382 0
M  V30 7356 C 696.282 -0.74608 -1.79622 0
M  V30 7357 O 695.537 0.262077 -1.93937 0
M  V30 7358 C 695.836 -3.19593 -1.59984 0
M  V30 7359 C 695.502 -4.44315 -0.767809 0
M  V30 7360 C 694.164 -4.78179 -0.538379 0
M  V30 7361 C 696.516 -5.2086 -0.188203 0
M  V30 7362 C 693.844 -5.86028 0.28082 0
M  V30 7363 C 696.196 -6.29572 0.618217 0
M  V30 7364 C 694.86 -6.61964 0.857912 0
M  V30 7365 H 694.13 -0.677467 -0.300199 0
M  V30 7366 H 696.777 -1.91322 -0.0825443 0
M  V30 7367 H 695.082 -3.0901 -2.40874 0
M  V30 7368 H 696.779 -3.3844 -2.1508 0
M  V30 7369 H 693.369 -4.17786 -0.956724 0
M  V30 7370 H 697.553 -4.95045 -0.352658 0
M  V30 7371 H 692.809 -6.09547 0.475693 0
M  V30 7372 H 696.983 -6.88064 1.0743 0
M  V30 7373 H 694.61 -7.45365 1.49451 0
M  V30 7374 N 696.185 0.383891 -1.52853 0
M  V30 7375 C 697.415 1.14783 -1.7178 0
M  V30 7376 C 697.823 1.84055 -0.438211 0
M  V30 7377 O 697.166 1.73713 0.597465 0
M  V30 7378 C 697.228 2.23543 -2.81547 0
M  V30 7379 C 696.892 1.74195 -4.22499 0
M  V30 7380 C 697.889 1.21591 -5.05481 0
M  V30 7381 C 695.574 1.80262 -4.6884 0
M  V30 7382 C 697.568 0.757104 -6.32888 0
M  V30 7383 C 695.255 1.33993 -5.96229 0
M  V30 7384 C 696.253 0.818049 -6.78083 0
M  V30 7385 O 695.941 0.362123 -8.03084 0
M  V30 7386 H 695.673 0.349908 -0.578395 0
M  V30 7387 H 698.227 0.454377 -2.00311 0
M  V30 7388 H 696.457 2.96328 -2.48449 0
M  V30 7389 H 698.146 2.8519 -2.88828 0
M  V30 7390 H 698.912 1.16257 -4.7086 0
M  V30 7391 H 694.791 2.19825 -4.05213 0
M  V30 7392 H 698.335 0.34908 -6.96726 0
M  V30 7393 H 694.232 1.39015 -6.30353 0
M  V30 7394 H 695 0.483134 -8.17073 0
M  V30 7395 N 697.663 1.43903 0.642637 0
M  V30 7396 C 698.888 1.49758 1.43483 0
M  V30 7397 C 699.313 0.119911 1.87717 0
M  V30 7398 O 698.671 -0.888558 1.58033 0
M  V30 7399 C 698.719 2.45744 2.63898 0
M  V30 7400 O 697.823 1.95101 3.63331 0
M  V30 7401 H 697.164 0.506138 0.429791 0
M  V30 7402 H 699.694 1.88923 0.785438 0
M  V30 7403 H 699.704 2.63399 3.11584 0
M  V30 7404 H 698.379 3.45818 2.31046 0
M  V30 7405 H 696.956 1.87158 3.22531 0
M  V30 7406 N 699.141 -0.881989 1.30609 0
M  V30 7407 C 700.073 -1.99375 1.13058 0
M  V30 7408 C 701.086 -1.62636 0.0729879 0
M  V30 7409 O 702.275 -1.75621 0.319301 0
M  V30 7410 C 699.375 -3.31536 0.702651 0
M  V30 7411 C 698.548 -3.96693 1.84265 0
M  V30 7412 C 697.607 -5.07158 1.40277 0
M  V30 7413 O 696.633 -5.28628 2.11048 0
M  V30 7414 N 697.835 -5.79808 0.283449 0
M  V30 7415 H 700.6 -2.14981 2.08814 0
M  V30 7416 H 698.161 -1.05526 1.22784 0
M  V30 7417 H 700.153 -4.02804 0.391331 0
M  V30 7418 H 698.723 -3.12175 -0.162954 0
M  V30 7419 H 697.943 -3.1856 2.32192 0
M  V30 7420 H 699.231 -4.36964 2.60653 0
M  V30 7421 H 698.629 -5.64871 -0.306189 0
M  V30 7422 H 697.186 -6.51792 0.0315985 0
M  V30 7423 N 700.619 -1.13374 -1.09472 0
M  V30 7424 C 701.865 -0.896516 -1.81908 0
M  V30 7425 C 702.198 0.575933 -1.85463 0
M  V30 7426 O 701.473 1.42618 -1.32251 0
M  V30 7427 C 701.756 -1.48445 -3.28079 0
M  V30 7428 C 701.609 -3.02598 -3.32798 0
M  V30 7429 C 702.928 -1.15226 -4.24748 0
M  V30 7430 H 700.047 -0.327127 -0.660422 0
M  V30 7431 H 702.689 -1.40195 -1.2824 0
M  V30 7432 H 700.839 -1.0546 -3.73912 0
M  V30 7433 H 702.511 -3.54335 -2.95372 0
M  V30 7434 H 700.754 -3.37613 -2.72397 0
M  V30 7435 H 701.425 -3.38835 -4.3577 0
M  V30 7436 H 703.901 -1.52369 -3.87199 0
M  V30 7437 H 702.777 -1.59012 -5.25363 0
M  V30 7438 H 703.038 -0.0658891 -4.42051 0
M  V30 7439 N 702.098 1.27442 -0.927168 0
M  V30 7440 C 703.061 2.2512 -0.430525 0
M  V30 7441 C 704.061 1.54357 0.450619 0
M  V30 7442 O 705.251 1.72371 0.251774 0
M  V30 7443 C 702.383 3.38763 0.381144 0
M  V30 7444 H 703.576 2.70569 -1.29354 0
M  V30 7445 H 701.129 1.39355 -0.707806 0
M  V30 7446 H 701.864 2.98695 1.263 0
M  V30 7447 H 701.649 3.91298 -0.250618 0
M  V30 7448 H 703.139 4.11364 0.719012 0
M  V30 7449 N 703.576 0.692616 1.41565 0
M  V30 7450 C 704.523 0.0254264 2.30786 0
M  V30 7451 C 705.493 -0.774347 1.46946 0
M  V30 7452 O 706.678 -0.742981 1.7574 0
M  V30 7453 C 703.818 -0.907123 3.32964 0
M  V30 7454 C 702.931 -0.0992784 4.31886 0
M  V30 7455 C 702.066 -1.0292 5.21134 0
M  V30 7456 C 701.105 -0.214088 6.11725 0
M  V30 7457 N 700.242 -1.09766 6.93467 0
M  V30 7458 H 705.082 0.792036 2.87282 0
M  V30 7459 H 702.619 0.4023 1.41492 0
M  V30 7460 H 704.577 -1.46181 3.90752 0
M  V30 7461 H 703.207 -1.64016 2.78026 0
M  V30 7462 H 702.259 0.572287 3.76071 0
M  V30 7463 H 703.571 0.532782 4.95946 0
M  V30 7464 H 702.725 -1.65321 5.83741 0
M  V30 7465 H 701.464 -1.69512 4.57293 0
M  V30 7466 H 700.469 0.42302 5.4817 0
M  V30 7467 H 701.694 0.447995 6.77621 0
M  V30 7468 H 699.64 -1.74965 6.32237 0
M  V30 7469 H 699.557 -0.521099 7.54202 0
M  V30 7470 H 700.825 -1.70858 7.60544 0
M  V30 7471 N 705.054 -1.51416 0.437162 0
M  V30 7472 C 706.465 -1.86682 -0.0260005 0
M  V30 7473 C 706.816 -1.35432 -1.4196 0
M  V30 7474 O 705.941 -0.705055 -2.04592 0
M  V30 7475 C 706.536 -3.38757 -0.0539577 0
M  V30 7476 C 705.095 -3.7356 -0.461532 0
M  V30 7477 C 704.242 -2.75134 0.345924 0
M  V30 7478 H 707.193 -1.44642 0.653013 0
M  V30 7479 H 707.214 -3.70573 -0.863478 0
M  V30 7480 H 706.726 -3.76028 0.96045 0
M  V30 7481 H 704.827 -3.41878 -1.48155 0
M  V30 7482 H 704.94 -4.78737 -0.186451 0
M  V30 7483 H 703.304 -2.53947 -0.195739 0
M  V30 7484 H 704.087 -3.15247 1.35921 0
M  V30 7485 N 706.532 -0.168513 -1.56696 0
M  V30 7486 C 707.462 0.758563 -2.20835 0
M  V30 7487 C 708.443 1.24121 -1.1631 0
M  V30 7488 O 709.628 1.29487 -1.4473 0
M  V30 7489 C 706.758 1.9892 -2.8469 0
M  V30 7490 C 705.712 1.64252 -3.95228 0
M  V30 7491 C 705.038 2.94757 -4.46119 0
M  V30 7492 C 706.338 0.872675 -5.14958 0
M  V30 7493 H 708.032 0.223953 -2.98561 0
M  V30 7494 H 705.578 0.106277 -1.43607 0
M  V30 7495 H 707.531 2.64275 -3.28233 0
M  V30 7496 H 706.255 2.5479 -2.04327 0
M  V30 7497 H 704.914 1.01266 -3.52336 0
M  V30 7498 H 704.562 3.48662 -3.62552 0
M  V30 7499 H 704.262 2.72316 -5.2069 0
M  V30 7500 H 705.786 3.61147 -4.92347 0
M  V30 7501 H 707.2 1.42875 -5.55211 0
M  V30 7502 H 705.597 0.747402 -5.95428 0
M  V30 7503 H 706.667 -0.131535 -4.84722 0
M  V30 7504 N 708.01 1.57248 0.105221 0
M  V30 7505 C 708.94 2.04374 1.12931 0
M  V30 7506 C 709.921 0.93074 1.42377 0
M  V30 7507 O 711.106 1.20136 1.52581 0
M  V30 7508 C 708.236 2.45967 2.45189 0
M  V30 7509 C 707.19 3.60838 2.30174 0
M  V30 7510 C 706.516 3.88374 3.67518 0
M  V30 7511 C 707.816 4.92084 1.75073 0
M  V30 7512 H 709.51 2.9018 0.737287 0
M  V30 7513 H 707.056 1.39601 0.353211 0
M  V30 7514 H 709.009 2.77542 3.17094 0
M  V30 7515 H 707.733 1.57148 2.86308 0
M  V30 7516 H 706.392 3.29493 1.60716 0
M  V30 7517 H 706.04 2.96739 4.06147 0
M  V30 7518 H 705.74 4.65703 3.58321 0
M  V30 7519 H 707.264 4.22415 4.40906 0
M  V30 7520 H 708.678 5.22106 2.36809 0
M  V30 7521 H 707.075 5.73507 1.76662 0
M  V30 7522 H 708.145 4.79684 0.709347 0
M  V30 7523 N 709.488 -0.375779 1.53054 0
M  V30 7524 C 710.734 -1.12114 1.68992 0
M  V30 7525 C 711.067 -1.8926 0.435238 0
M  V30 7526 O 710.342 -1.86044 -0.567278 0
M  V30 7527 C 710.625 -2.08867 2.93337 0
M  V30 7528 C 710.478 -1.35397 4.28938 0
M  V30 7529 C 711.797 -3.09124 3.13257 0
M  V30 7530 H 708.916 -0.406207 0.614951 0
M  V30 7531 H 711.558 -0.403054 1.85676 0
M  V30 7532 H 709.708 -2.70102 2.79244 0
M  V30 7533 H 711.38 -0.770242 4.54824 0
M  V30 7534 H 709.623 -0.655801 4.28814 0
M  V30 7535 H 710.294 -2.06161 5.12056 0
M  V30 7536 H 712.77 -2.57987 3.26469 0
M  V30 7537 H 711.646 -3.74054 4.01715 0
M  V30 7538 H 711.907 -3.78729 2.28072 0
M  V30 7539 N 710.966 -1.44241 -0.634997 0
M  V30 7540 C 712.243 -1.37296 -1.39317 0
M  V30 7541 C 712.623 -0.0297532 -2.11079 0
M  V30 7542 O 711.971 0.987524 -2.06059 0
M  V30 7543 C 712.181 -2.56853 -2.36279 0
M  V30 7544 C 713.529 -3.00747 -2.99728 0
M  V30 7545 O 714.553 -2.5703 -2.46605 0
M  V30 7546 O 713.412 -3.76533 -3.96087 0
M  V30 7547 H 710.506 -0.543503 -0.623325 0
M  V30 7548 H 713.052 -1.56324 -0.660376 0
M  V30 7549 H 711.824 -3.46228 -1.82324 0
M  V30 7550 H 711.447 -2.40019 -3.16981 0
M  V30 7551 N 712.444 0.87505 -1.31075 0
M  V30 7552 C 713.69 1.63009 -1.20647 0
M  V30 7553 C 714.023 1.9276 0.236045 0
M  V30 7554 O 713.298 1.55559 1.16754 0
M  V30 7555 C 713.581 2.96357 -2.0456 0
M  V30 7556 C 713.434 2.73516 -3.57084 0
M  V30 7557 C 714.753 3.974 -1.89107 0
M  V30 7558 H 711.872 0.591518 -0.439631 0
M  V30 7559 H 714.514 1.0119 -1.60812 0
M  V30 7560 H 712.664 3.49119 -1.70435 0
M  V30 7561 H 714.336 2.27465 -4.01319 0
M  V30 7562 H 712.579 2.0784 -3.80769 0
M  V30 7563 H 713.25 3.68377 -4.11099 0
M  V30 7564 H 715.726 3.5383 -2.18961 0
M  V30 7565 H 714.602 4.88596 -2.5013 0
M  V30 7566 H 714.863 4.33794 -0.85296 0
M  V30 7567 N 713.922 1.13953 1.08869 0
M  V30 7568 C 715.199 0.815768 1.77777 0
M  V30 7569 C 715.579 -0.691624 1.99449 0
M  V30 7570 O 714.927 -1.63085 1.60049 0
M  V30 7571 C 715.137 1.60916 3.09689 0
M  V30 7572 C 716.485 1.80549 3.84301 0
M  V30 7573 O 717.509 1.57562 3.19457 0
M  V30 7574 O 716.368 2.18946 5.00724 0
M  V30 7575 H 713.462 0.298445 0.771271 0
M  V30 7576 H 716.008 1.24446 1.15374 0
M  V30 7577 H 714.78 2.6333 2.89435 0
M  V30 7578 H 714.403 1.17578 3.79817 0
M  V30 7579 N 715.4 -1.26948 0.933913 0
M  V30 7580 C 716.33 -2.29017 0.45534 0
M  V30 7581 C 717.311 -1.62961 -0.487605 0
M  V30 7582 O 718.496 -1.90223 -0.391022 0
M  V30 7583 C 715.626 -3.46112 -0.287015 0
M  V30 7584 C 714.58 -4.24205 0.568682 0
M  V30 7585 C 713.906 -5.3384 -0.303206 0
M  V30 7586 C 715.206 -4.88954 1.83633 0
M  V30 7587 H 716.9 -2.69298 1.30839 0
M  V30 7588 H 714.446 -1.29459 0.630579 0
M  V30 7589 H 716.399 -4.16622 -0.6328 0
M  V30 7590 H 715.123 -3.04765 -1.17414 0
M  V30 7591 H 713.782 -3.5545 0.897261 0
M  V30 7592 H 713.43 -4.88734 -1.18947 0
M  V30 7593 H 713.13 -5.86998 0.265879 0
M  V30 7594 H 714.654 -6.0719 -0.644423 0
M  V30 7595 H 716.068 -5.51717 1.55823 0
M  V30 7596 H 714.465 -5.52198 2.34941 0
M  V30 7597 H 715.535 -4.12305 2.55211 0
M  V30 7598 N 716.879 -0.700114 -1.41195 0
M  V30 7599 C 717.811 0.00155823 -2.292 0
M  V30 7600 C 718.824 0.739736 -1.45023 0
M  V30 7601 O 720.013 0.589684 -1.68478 0
M  V30 7602 C 717.113 1.02635 -3.22985 0
M  V30 7603 C 716.286 0.356871 -4.35942 0
M  V30 7604 C 715.345 1.28491 -5.10271 0
M  V30 7605 O 714.371 0.775562 -5.63892 0
M  V30 7606 N 715.573 2.61699 -5.18164 0
M  V30 7607 H 718.338 -0.754008 -2.9006 0
M  V30 7608 H 715.899 -0.546504 -1.52397 0
M  V30 7609 H 717.891 1.64902 -3.6958 0
M  V30 7610 H 716.461 1.68341 -2.63401 0
M  V30 7611 H 715.681 -0.445753 -3.91672 0
M  V30 7612 H 716.969 -0.108469 -5.08684 0
M  V30 7613 H 716.367 3.05594 -4.76056 0
M  V30 7614 H 714.924 3.19149 -5.6832 0
M  V30 7615 N 718.357 1.51182 -0.445186 0
M  V30 7616 C 719.587 2.06269 0.116922 0
M  V30 7617 C 719.995 1.31188 1.36332 0
M  V30 7618 O 719.338 0.367067 1.79995 0
M  V30 7619 C 719.4 3.56051 0.496757 0
M  V30 7620 C 719.064 4.52441 -0.64394 0
M  V30 7621 C 720.061 4.97233 -1.5184 0
M  V30 7622 C 717.746 4.95447 -0.826905 0
M  V30 7623 C 719.74 5.83712 -2.56046 0
M  V30 7624 C 717.427 5.81714 -1.87222 0
M  V30 7625 C 718.425 6.25745 -2.73738 0
M  V30 7626 O 718.113 7.10298 -3.76474 0
M  V30 7627 H 717.845 0.675954 0.00785733 0
M  V30 7628 H 720.399 1.95648 -0.625371 0
M  V30 7629 H 718.629 3.64483 1.29187 0
M  V30 7630 H 720.318 3.93618 0.990928 0
M  V30 7631 H 721.084 4.64696 -1.38862 0
M  V30 7632 H 716.963 4.60712 -0.163052 0
M  V30 7633 H 720.507 6.18 -3.23607 0
M  V30 7634 H 716.404 6.13664 -2.00218 0
M  V30 7635 H 717.172 7.28493 -3.73149 0
M  V30 7636 N 719.835 0.176821 1.56605 0
M  V30 7637 C 721.246 -0.338963 1.83597 0
M  V30 7638 C 721.597 -1.62677 1.09684 0
M  V30 7639 O 720.722 -2.13524 0.351661 0
M  V30 7640 C 721.317 -0.62177 3.33046 0
M  V30 7641 C 719.876 -1.08198 3.60514 0
M  V30 7642 C 719.023 -0.120774 2.77037 0
M  V30 7643 H 721.974 0.400978 1.53551 0
M  V30 7644 H 721.995 -1.47321 3.50823 0
M  V30 7645 H 721.507 0.315692 3.86814 0
M  V30 7646 H 719.608 -2.03435 3.12162 0
M  V30 7647 H 719.721 -0.987329 4.68816 0
M  V30 7648 H 718.085 -0.619192 2.47059 0
M  V30 7649 H 718.868 0.810806 3.33588 0
M  V30 7650 N 721.313 -1.57302 -0.09688 0
M  V30 7651 C 722.245 -1.98618 -1.14384 0
M  V30 7652 C 723.258 -0.888483 -1.36418 0
M  V30 7653 O 724.447 -1.16661 -1.35101 0
M  V30 7654 C 721.547 -2.28838 -2.49973 0
M  V30 7655 C 720.72 -3.60132 -2.48241 0
M  V30 7656 C 719.779 -3.7831 -3.65743 0
M  V30 7657 O 718.805 -4.50183 -3.48316 0
M  V30 7658 N 720.007 -3.18752 -4.85157 0
M  V30 7659 H 722.772 -2.8904 -0.792202 0
M  V30 7660 H 720.333 -1.59356 -0.285883 0
M  V30 7661 H 722.325 -2.38193 -3.27179 0
M  V30 7662 H 720.895 -1.44431 -2.77233 0
M  V30 7663 H 720.115 -3.61763 -1.56593 0
M  V30 7664 H 721.403 -4.46389 -2.4416 0
M  V30 7665 H 720.801 -2.60368 -5.0222 0
M  V30 7666 H 719.358 -3.33595 -5.59962 0
M  V30 7667 N 722.791 0.367657 -1.53252 0
M  V30 7668 C 724.068 1.12606 -1.59935 0
M  V30 7669 C 724.448 2.07167 -0.405606 0
M  V30 7670 O 723.796 2.20364 0.604323 0
M  V30 7671 C 724.006 1.86699 -2.94863 0
M  V30 7672 C 725.354 2.41306 -3.49366 0
M  V30 7673 O 726.378 1.96828 -2.96879 0
M  V30 7674 O 725.237 3.2261 -4.41118 0
M  V30 7675 H 722.331 0.516438 -0.645926 0
M  V30 7676 H 724.877 0.371088 -1.65593 0
M  V30 7677 H 723.649 1.17674 -3.73187 0
M  V30 7678 H 723.272 2.6911 -2.92687 0
M  V30 7679 N 724.269 1.44576 0.627338 0
M  V30 7680 C 725.232 1.51372 1.72102 0
M  V30 7681 C 726.232 0.395329 1.55865 0
M  V30 7682 O 727.422 0.658094 1.61291 0
M  V30 7683 C 724.554 1.39129 3.11217 0
M  V30 7684 H 725.747 2.48798 1.6745 0
M  V30 7685 H 723.3 1.31724 0.841336 0
M  V30 7686 H 724.035 0.428114 3.21462 0
M  V30 7687 H 723.82 2.20229 3.24409 0
M  V30 7688 H 725.31 1.46874 3.90919 0
M  V30 7689 N 725.747 -0.868086 1.31537 0
M  V30 7690 C 726.993 -1.62367 1.2151 0
M  V30 7691 C 727.326 -1.92883 -0.225819 0
M  V30 7692 O 726.601 -1.56176 -1.15927 0
M  V30 7693 C 726.884 -2.95268 2.06129 0
M  V30 7694 C 726.737 -2.71619 3.58529 0
M  V30 7695 C 728.056 -3.96391 1.91212 0
M  V30 7696 H 725.175 -0.589178 0.442762 0
M  V30 7697 H 727.817 -1.00336 1.61347 0
M  V30 7698 H 725.967 -3.4821 1.72284 0
M  V30 7699 H 727.639 -2.25334 4.0252 0
M  V30 7700 H 725.882 -2.05817 3.81866 0
M  V30 7701 H 726.553 -3.66192 4.13047 0
M  V30 7702 H 729.029 -3.52663 2.20834 0
M  V30 7703 H 727.905 -4.87263 2.52718 0
M  V30 7704 H 728.166 -4.33335 0.875953 0
M  V30 7705 N 727.225 -1.14528 -1.08264 0
M  V30 7706 C 728.155 -0.856356 -2.1723 0
M  V30 7707 C 729.136 0.189251 -1.69044 0
M  V30 7708 O 730.321 0.0456119 -1.94146 0
M  V30 7709 C 727.451 -0.334662 -3.45684 0
M  V30 7710 C 726.405 -1.31588 -4.0727 0
M  V30 7711 C 725.731 -0.653428 -5.30692 0
M  V30 7712 C 727.031 -2.67866 -4.48381 0
M  V30 7713 H 728.725 -1.76755 -2.41657 0
M  V30 7714 H 726.271 -0.851287 -1.16143 0
M  V30 7715 H 728.224 -0.120128 -4.21229 0
M  V30 7716 H 726.948 0.611967 -3.20815 0
M  V30 7717 H 725.607 -1.51661 -3.33758 0
M  V30 7718 H 725.255 0.299054 -5.0211 0
M  V30 7719 H 724.955 -1.30817 -5.72853 0
M  V30 7720 H 726.479 -0.448453 -6.08951 0
M  V30 7721 H 727.893 -2.51692 -5.15096 0
M  V30 7722 H 726.29 -3.29627 -5.01464 0
M  V30 7723 H 727.36 -3.24632 -3.60198 0
M  V30 7724 N 728.703 1.26451 -0.940633 0
M  V30 7725 C 729.666 2.24651 -0.454378 0
M  V30 7726 C 730.666 1.54826 0.434222 0
M  V30 7727 O 731.856 1.72628 0.233477 0
M  V30 7728 C 728.988 3.39148 0.345192 0
M  V30 7729 H 730.181 2.69182 -1.32217 0
M  V30 7730 H 727.734 1.38596 -0.722547 0
M  V30 7731 H 728.469 3.00018 1.23125 0
M  V30 7732 H 728.254 3.9101 -0.292107 0
M  V30 7733 H 729.744 4.12103 0.675341 0
M  V30 7734 N 730.181 0.707592 1.40822 0
M  V30 7735 C 731.111 0.0644925 2.33411 0
M  V30 7736 C 732.092 -0.754205 1.52466 0
M  V30 7737 O 733.277 -0.704749 1.80961 0
M  V30 7738 C 730.407 -0.863865 3.36385 0
M  V30 7739 C 729.361 -0.15138 4.27732 0
M  V30 7740 C 728.687 -1.19491 5.21177 0
M  V30 7741 C 729.987 0.989607 5.12839 0
M  V30 7742 H 731.681 0.837829 2.87438 0
M  V30 7743 H 729.227 0.404346 1.38207 0
M  V30 7744 H 731.18 -1.32309 4.0009 0
M  V30 7745 H 729.904 -1.66901 2.80734 0
M  V30 7746 H 728.563 0.287937 3.65467 0
M  V30 7747 H 728.211 -1.9929 4.61836 0
M  V30 7748 H 727.911 -0.723123 5.83134 0
M  V30 7749 H 729.435 -1.6544 5.8776 0
M  V30 7750 H 730.849 0.610114 5.70044 0
M  V30 7751 H 729.246 1.38926 5.83798 0
M  V30 7752 H 730.316 1.82389 4.49291 0
M  V30 7753 N 731.66 -1.50943 0.453197 0
M  V30 7754 C 732.888 -2.06628 -0.106135 0
M  V30 7755 C 733.303 -1.31901 -1.35084 0
M  V30 7756 O 732.66 -0.383074 -1.78434 0
M  V30 7757 C 732.711 -3.5914 -0.412368 0
M  V30 7758 O 732.432 -4.31047 0.782948 0
M  V30 7759 C 733.933 -4.31391 -1.02064 0
M  V30 7760 H 731.153 -0.670999 -0.000885896 0
M  V30 7761 H 733.697 -1.94331 0.63684 0
M  V30 7762 H 731.852 -3.71299 -1.10526 0
M  V30 7763 H 732.266 -5.21948 0.516736 0
M  V30 7764 H 733.74 -5.39135 -1.1848 0
M  V30 7765 H 734.217 -3.90714 -2.00598 0
M  V30 7766 H 734.823 -4.23716 -0.366664 0
M  V30 7767 N 733.138 -0.185124 -1.56509 0
M  V30 7768 C 734.07 0.771401 -2.15829 0
M  V30 7769 C 735.083 1.18392 -1.11747 0
M  V30 7770 O 736.272 1.12137 -1.38879 0
M  V30 7771 C 733.372 2.05169 -2.69739 0
M  V30 7772 C 732.545 1.80056 -3.98621 0
M  V30 7773 C 731.604 2.92435 -4.37456 0
M  V30 7774 O 730.63 2.62473 -5.05071 0
M  V30 7775 N 731.832 4.20554 -4.00143 0
M  V30 7776 H 734.597 0.264184 -2.98533 0
M  V30 7777 H 732.158 -0.00281069 -1.619 0
M  V30 7778 H 734.15 2.7947 -2.92709 0
M  V30 7779 H 732.72 2.47041 -1.91545 0
M  V30 7780 H 731.94 0.895862 -3.83885 0
M  V30 7781 H 733.228 1.60662 -4.82768 0
M  V30 7782 H 732.626 4.47753 -3.45736 0
M  V30 7783 H 731.183 4.91514 -4.28085 0
M  V30 7784 N 734.616 1.57351 0.0885366 0
M  V30 7785 C 735.564 2.03542 1.12576 0
M  V30 7786 C 736.558 0.937668 1.41082 0
M  V30 7787 O 737.764 1.12283 1.40686 0
M  V30 7788 H 734.139 0.648752 0.380296 0
M  V30 7789 H 736.11 2.89833 0.709906 0
M  V30 7790 C 734.859 2.4811 2.43591 0
M  V30 7791 H 734.182 3.32164 2.22502 0
M  V30 7792 H 735.622 2.842 3.14653 0
M  V30 7793 C 734.081 1.35708 3.08359 0
M  V30 7794 O 734.611 0.689852 3.95732 0
M  V30 7795 N 732.817 1.10641 2.68713 0
M  V30 7796 H 732.364 1.6508 1.97753 0
M  V30 7797 H 732.322 0.356355 3.12374 0
M  V30 7798 N 736.094 -0.359525 1.53444 0
M  V30 7799 C 737.044 -1.441 1.7669 0
M  V30 7800 C 738.028 -1.48408 0.621599 0
M  V30 7801 O 739.22 -1.53547 0.880468 0
M  V30 7802 C 736.349 -2.81455 1.96566 0
M  V30 7803 C 735.435 -2.81601 3.17115 0
M  V30 7804 N 735.826 -2.51388 4.38905 0
M  V30 7805 C 734.124 -3.12758 3.1796 0
M  V30 7806 C 734.825 -2.59365 5.20677 0
M  V30 7807 N 733.801 -2.94328 4.57025 0
M  V30 7808 H 737.603 -1.19613 2.68458 0
M  V30 7809 H 735.117 -0.567761 1.52152 0
M  V30 7810 H 737.114 -3.59357 2.11348 0
M  V30 7811 H 735.774 -3.06901 1.06029 0
M  V30 7812 H 736.785 -2.24873 4.66533 0
M  V30 7813 H 733.462 -3.43479 2.37336 0
M  V30 7814 H 734.852 -2.39301 6.27841 0
M  V30 7815 N 737.572 -1.44907 -0.619662 0
M  V30 7816 C 738.522 -1.49085 -1.72504 0
M  V30 7817 C 739.506 -0.355372 -1.56926 0
M  V30 7818 O 740.698 -0.601441 -1.66468 0
M  V30 7819 C 737.827 -1.44889 -3.11227 0
M  V30 7820 C 736.913 -2.63593 -3.32234 0
M  V30 7821 N 737.304 -3.88775 -3.23555 0
M  V30 7822 C 735.602 -2.59033 -3.63067 0
M  V30 7823 C 736.303 -4.67932 -3.45564 0
M  V30 7824 N 735.279 -3.9919 -3.68983 0
M  V30 7825 H 739.081 -2.43706 -1.6427 0
M  V30 7826 H 736.595 -1.4003 -0.82252 0
M  V30 7827 H 738.592 -1.45966 -3.90512 0
M  V30 7828 H 737.252 -0.513143 -3.2062 0
M  V30 7829 H 738.263 -4.20574 -3.02221 0
M  V30 7830 H 734.94 -1.7431 -3.79371 0
M  V30 7831 H 736.33 -5.76952 -3.44349 0
M  V30 7832 N 739.05 0.861098 -1.31996 0
M  V30 7833 C 739.997 1.96912 -1.20392 0
M  V30 7834 C 740.967 1.65869 -0.0875899 0
M  V30 7835 O 742.152 1.88992 -0.262011 0
M  V30 7836 C 739.292 3.32435 -0.926335 0
M  V30 7837 C 738.405 3.76018 -2.12684 0
M  V30 7838 C 737.54 5.00301 -1.78529 0
M  V30 7839 C 736.579 5.36357 -2.94937 0
M  V30 7840 N 735.716 6.51818 -2.60917 0
M  V30 7841 H 740.556 2.06169 -2.1517 0
M  V30 7842 H 738.093 1.00917 -1.07024 0
M  V30 7843 H 740.051 4.10478 -0.745917 0
M  V30 7844 H 738.681 3.22796 -0.0153578 0
M  V30 7845 H 737.733 2.93683 -2.41774 0
M  V30 7846 H 739.045 3.98664 -2.99781 0
M  V30 7847 H 738.199 5.86034 -1.57001 0
M  V30 7848 H 736.938 4.79578 -0.886356 0
M  V30 7849 H 735.943 4.49139 -3.17103 0
M  V30 7850 H 737.168 5.59041 -3.85552 0
M  V30 7851 H 735.114 6.32624 -1.73558 0
M  V30 7852 H 735.031 6.7445 -3.41544 0
M  V30 7853 H 736.299 7.4072 -2.42804 0
M  V30 7854 N 740.528 1.15101 1.07655 0
M  V30 7855 C 741.46 0.802722 2.14684 0
M  V30 7856 C 742.473 -0.183874 1.61758 0
M  V30 7857 O 743.662 0.0389349 1.78458 0
M  V30 7858 C 740.762 0.172135 3.38463 0
M  V30 7859 C 739.935 1.19538 4.20749 0
M  V30 7860 C 738.994 0.58714 5.22914 0
M  V30 7861 O 738.02 1.25224 5.55255 0
M  V30 7862 N 739.222 -0.632566 5.77043 0
M  V30 7863 H 741.987 1.72379 2.45164 0
M  V30 7864 H 739.548 1.04647 1.23534 0
M  V30 7865 H 741.54 -0.247465 4.03943 0
M  V30 7866 H 740.11 -0.652214 3.0572 0
M  V30 7867 H 739.33 1.79165 3.51132 0
M  V30 7868 H 740.618 1.88636 4.7254 0
M  V30 7869 H 740.016 -1.19135 5.53013 0
M  V30 7870 H 738.573 -0.994566 6.44167 0
M  V30 7871 N 742.006 -1.2595 0.947325 0
M  V30 7872 C 743.236 -1.97258 0.614235 0
M  V30 7873 C 743.644 -1.70682 -0.816355 0
M  V30 7874 O 742.987 -0.97527 -1.55673 0
M  V30 7875 C 743.049 -3.50845 0.784081 0
M  V30 7876 C 742.713 -4.01084 2.19045 0
M  V30 7877 C 743.71 -4.12347 3.16648 0
M  V30 7878 C 741.395 -4.34936 2.51268 0
M  V30 7879 C 743.389 -4.56766 4.44572 0
M  V30 7880 C 741.076 -4.79043 3.79422 0
M  V30 7881 C 742.074 -4.89919 4.75887 0
M  V30 7882 O 741.762 -5.3305 6.01758 0
M  V30 7883 H 741.494 -0.635738 0.22981 0
M  V30 7884 H 744.048 -1.61268 1.27207 0
M  V30 7885 H 742.278 -3.86638 0.069101 0
M  V30 7886 H 743.967 -4.03363 0.453135 0
M  V30 7887 H 744.733 -3.86432 2.93079 0
M  V30 7888 H 740.612 -4.25702 1.76916 0
M  V30 7889 H 744.156 -4.6517 5.19868 0
M  V30 7890 H 740.053 -5.04402 4.02802 0
M  V30 7891 H 740.821 -5.51255 6.05029 0
M  V30 7892 N 743.484 -0.715051 -1.40445 0
M  V30 7893 C 744.714 -0.263576 -2.04912 0
M  V30 7894 C 745.122 1.09943 -1.53978 0
M  V30 7895 O 744.465 1.70203 -0.691133 0
M  V30 7896 C 744.527 -0.165048 -3.59121 0
M  V30 7897 C 744.191 -1.46325 -4.32941 0
M  V30 7898 C 745.188 -2.40506 -4.60926 0
M  V30 7899 C 742.873 -1.72203 -4.7186 0
M  V30 7900 C 744.867 -3.58812 -5.26814 0
M  V30 7901 C 742.554 -2.9079 -5.3748 0
M  V30 7902 C 743.552 -3.83917 -5.64887 0
M  V30 7903 O 743.24 -5.00424 -6.29151 0
M  V30 7904 H 742.972 -0.116317 -0.665918 0
M  V30 7905 H 745.526 -0.973774 -1.8085 0
M  V30 7906 H 743.756 0.601088 -3.82 0
M  V30 7907 H 745.445 0.251794 -4.05118 0
M  V30 7908 H 746.211 -2.21778 -4.31323 0
M  V30 7909 H 742.09 -1.00571 -4.49896 0
M  V30 7910 H 745.634 -4.31517 -5.48123 0
M  V30 7911 H 741.531 -3.09428 -5.66502 0
M  V30 7912 H 742.299 -5.00494 -6.47648 0
M  V30 7913 N 744.962 1.50701 -0.461195 0
M  V30 7914 C 745.872 2.32069 0.343661 0
M  V30 7915 C 746.888 1.42016 1.00535 0
M  V30 7916 O 748.064 1.75077 0.995498 0
M  V30 7917 C 745.129 3.16424 1.41692 0
M  V30 7918 C 744.19 4.22286 0.772869 0
M  V30 7919 C 743.423 5.02609 1.79499 0
M  V30 7920 O 743.646 4.83874 3.0203 0
M  V30 7921 O 742.58 5.86047 1.3723 0
M  V30 7922 H 746.406 3.01996 -0.321268 0
M  V30 7923 H 743.991 1.47723 -0.223235 0
M  V30 7924 H 745.873 3.68795 2.03883 0
M  V30 7925 H 744.548 2.49236 2.0655 0
M  V30 7926 H 743.455 3.73931 0.112277 0
M  V30 7927 H 744.788 4.91915 0.167399 0
M  V30 7928 N 746.441 0.193421 1.56409 0
M  V30 7929 C 747.689 -0.444908 1.97142 0
M  V30 7930 C 748.01 -1.62268 1.08139 0
M  V30 7931 O 747.28 -1.95307 0.152326 0
M  V30 7932 H 745.86 -0.16736 0.728011 0
M  V30 7933 H 748.522 0.279763 1.92882 0
M  V30 7934 H 747.618 -0.790159 3.01932 0
M  V30 7935 N 747.919 -1.57396 -0.0801906 0
M  V30 7936 C 749.144 -1.91437 -0.797909 0
M  V30 7937 C 749.569 -0.789075 -1.70749 0
M  V30 7938 O 748.927 0.25857 -1.79447 0
M  V30 7939 C 748.975 -3.24402 -1.57467 0
M  V30 7940 O 748.079 -3.13043 -2.68473 0
M  V30 7941 H 747.42 -0.627109 -0.218243 0
M  V30 7942 H 749.95 -2.04537 -0.050949 0
M  V30 7943 H 749.96 -3.58072 -1.95571 0
M  V30 7944 H 748.635 -4.05884 -0.907229 0
M  V30 7945 H 747.212 -2.90915 -2.33287 0
M  V30 7946 N 749.397 0.351382 -1.53633 0
M  V30 7947 C 750.307 1.45471 -1.84052 0
M  V30 7948 C 751.323 1.57945 -0.730015 0
M  V30 7949 O 752.499 1.73571 -1.02153 0
M  V30 7950 C 749.564 2.80562 -2.03681 0
M  V30 7951 C 748.625 2.77497 -3.27558 0
M  V30 7952 C 747.858 4.06144 -3.46241 0
M  V30 7953 O 748.081 5.03028 -2.68922 0
M  V30 7954 O 747.015 4.11092 -4.39645 0
M  V30 7955 H 750.841 1.22684 -2.77817 0
M  V30 7956 H 748.426 0.542827 -1.3919 0
M  V30 7957 H 750.308 3.6058 -2.18082 0
M  V30 7958 H 748.983 3.03296 -1.13106 0
M  V30 7959 H 747.89 1.96126 -3.18568 0
M  V30 7960 H 749.223 2.59716 -4.18101 0
M  V30 7961 N 750.875 1.45233 0.611969 0
M  V30 7962 C 752.124 1.48296 1.36716 0
M  V30 7963 C 752.437 0.12706 1.95187 0
M  V30 7964 O 753.643 0.0353066 2.71477 0
M  V30 7965 C 752.099 2.61168 2.47627 0
M  V30 7966 C 751.707 4.03051 1.95587 0
M  V30 7967 C 753.451 2.73472 3.24674 0
M  V30 7968 C 751.358 5.07312 3.03954 0
M  V30 7969 H 750.288 0.5518 0.513841 0
M  V30 7970 H 752.939 1.7136 0.656359 0
M  V30 7971 H 751.321 2.31379 3.21372 0
M  V30 7972 H 752.495 4.42497 1.2858 0
M  V30 7973 H 750.81 3.95158 1.31298 0
M  V30 7974 H 753.407 3.48537 4.05494 0
M  V30 7975 H 753.75 1.79953 3.75397 0
M  V30 7976 H 754.283 3.02765 2.58028 0
M  V30 7977 H 751.022 6.02525 2.58154 0
M  V30 7978 H 750.542 4.7244 3.69541 0
M  V30 7979 H 752.221 5.31867 3.6841 0
M  V30 7980 N 752.353 -0.854086 1.3245 0
M  V30 7981 C 753.599 -1.61069 1.23225 0
M  V30 7982 C 753.932 -1.93111 -0.205349 0
M  V30 7983 O 753.207 -1.57397 -1.14265 0
M  V30 7984 C 753.49 -2.93065 2.09249 0
M  V30 7985 C 753.343 -2.67801 3.6139 0
M  V30 7986 C 754.662 -3.94341 1.95406 0
M  V30 7987 H 751.781 -0.584449 0.448986 0
M  V30 7988 H 754.423 -0.986189 1.62402 0
M  V30 7989 H 752.573 -3.46364 1.75967 0
M  V30 7990 H 754.245 -2.21052 4.04887 0
M  V30 7991 H 752.488 -2.01756 3.84027 0
M  V30 7992 H 753.159 -3.6179 4.16907 0
M  V30 7993 H 755.635 -3.50301 2.24562 0
M  V30 7994 H 754.511 -4.84555 2.57872 0
M  V30 7995 H 754.772 -4.32382 0.921865 0
M  V30 7996 N 753.831 -1.1567 -1.07043 0
M  V30 7997 C 755.077 -0.9349 -1.79965 0
M  V30 7998 C 755.41 0.536464 -1.86643 0
M  V30 7999 O 754.685 1.39781 -1.35247 0
M  V30 8000 C 754.968 -1.55371 -3.24857 0
M  V30 8001 C 754.821 -3.09589 -3.26305 0
M  V30 8002 C 756.14 -1.24209 -4.22209 0
M  V30 8003 H 753.259 -0.341061 -0.653335 0
M  V30 8004 H 755.901 -1.42883 -1.25237 0
M  V30 8005 H 754.051 -1.13368 -3.71591 0
M  V30 8006 H 755.723 -3.60521 -2.87789 0
M  V30 8007 H 753.966 -3.43315 -2.65174 0
M  V30 8008 H 754.637 -3.48002 -4.28484 0
M  V30 8009 H 757.113 -1.60548 -3.8388 0
M  V30 8010 H 755.989 -1.70119 -5.21872 0
M  V30 8011 H 756.25 -0.15964 -4.41812 0
M  V30 8012 N 755.309 1.25446 -0.953992 0
M  V30 8013 C 756.272 2.24156 -0.478179 0
M  V30 8014 C 757.272 1.55278 0.417776 0
M  V30 8015 O 758.462 1.72866 0.215155 0
M  V30 8016 C 755.594 3.39495 0.309202 0
M  V30 8017 H 756.787 2.67764 -1.35064 0
M  V30 8018 H 754.34 1.37822 -0.737206 0
M  V30 8019 H 755.075 3.01307 1.19936 0
M  V30 8020 H 754.86 3.90679 -0.333562 0
M  V30 8021 H 756.35 4.12796 0.631594 0
M  V30 8022 N 756.787 0.722489 1.40064 0
M  V30 8023 C 758.035 0.264455 2.00362 0
M  V30 8024 C 758.356 -1.14847 1.57592 0
M  V30 8025 O 757.626 -1.77982 0.818477 0
M  V30 8026 H 756.206 0.0947846 0.740962 0
M  V30 8027 H 758.868 0.929659 1.71299 0
M  V30 8028 H 757.964 0.302977 3.10626 0
M  V30 8029 N 758.265 -1.50454 0.469181 0
M  V30 8030 C 759.681 -1.59124 0.123226 0
M  V30 8031 C 759.881 -1.47749 -1.37013 0
M  V30 8032 O 758.937 -1.335 -2.14322 0
M  V30 8033 C 760.25 -2.93101 0.67172 0
M  V30 8034 C 761.798 -3.06491 0.634978 0
M  V30 8035 C 762.273 -4.43041 1.16098 0
M  V30 8036 N 763.764 -4.49448 1.12031 0
M  V30 8037 C 764.499 -5.53491 1.49784 0
M  V30 8038 N 763.995 -6.64798 1.94976 0
M  V30 8039 N 765.788 -5.44025 1.41399 0
M  V30 8040 H 757.939 -1.56091 1.44046 0
M  V30 8041 H 760.202 -0.737564 0.59557 0
M  V30 8042 H 759.908 -3.06895 1.7178 0
M  V30 8043 H 759.782 -3.77027 0.114222 0
M  V30 8044 H 762.169 -2.92346 -0.402187 0
M  V30 8045 H 762.25 -2.24328 1.22926 0
M  V30 8046 H 761.894 -4.57935 2.19677 0
M  V30 8047 H 761.824 -5.23794 0.542939 0
M  V30 8048 H 764.315 -3.69575 0.788828 0
M  V30 8049 H 764.628 -7.40246 2.21936 0
M  V30 8050 H 762.973 -6.65923 1.98927 0
M  V30 8051 H 766.164 -4.55955 1.05935 0
M  V30 8052 H 766.337 -6.2499 1.71147 0
M  V30 8053 N 759.743 -0.201713 -1.56304 0
M  V30 8054 C 760.992 0.435557 -1.96941 0
M  V30 8055 C 761.305 1.62299 -1.09172 0
M  V30 8056 O 762.511 2.32849 -1.3962 0
M  V30 8057 C 760.967 0.826298 -3.50286 0
M  V30 8058 C 760.575 -0.337216 -4.46729 0
M  V30 8059 C 762.319 1.43028 -3.99679 0
M  V30 8060 C 760.226 0.0748539 -5.91353 0
M  V30 8061 H 759.156 0.1665 -0.735387 0
M  V30 8062 H 761.807 -0.294781 -1.81117 0
M  V30 8063 H 760.189 1.61349 -3.61639 0
M  V30 8064 H 761.363 -1.11476 -4.47113 0
M  V30 8065 H 759.678 -0.853126 -4.07567 0
M  V30 8066 H 762.275 1.75115 -5.05212 0
M  V30 8067 H 762.618 2.33911 -3.44371 0
M  V30 8068 H 763.151 0.706924 -3.91468 0
M  V30 8069 H 759.89 -0.799957 -6.506 0
M  V30 8070 H 759.41 0.817122 -5.94208 0
M  V30 8071 H 761.089 0.508389 -6.45 0
M  V30 8072 N 761.222 1.57436 0.0718424 0
M  V30 8073 C 762.185 2.02703 1.06977 0
M  V30 8074 C 763.185 0.924062 1.31597 0
M  V30 8075 O 764.375 1.18894 1.27318 0
M  V30 8076 C 761.507 2.40763 2.41342 0
M  V30 8077 H 762.7 2.92098 0.679619 0
M  V30 8078 H 760.253 1.5304 0.317565 0
M  V30 8079 H 760.988 1.54394 2.8519 0
M  V30 8080 H 760.773 3.21249 2.24814 0
M  V30 8081 H 762.263 2.76361 3.13073 0
M  V30 8082 N 762.7 -0.34323 1.53817 0
M  V30 8083 C 763.977 -1.10047 1.61706 0
M  V30 8084 C 764.357 -2.06495 0.438514 0
M  V30 8085 O 763.705 -2.21297 -0.569188 0
M  V30 8086 C 763.915 -1.81985 2.97796 0
M  V30 8087 C 765.263 -2.35717 3.53161 0
M  V30 8088 O 766.287 -1.9208 2.99973 0
M  V30 8089 O 765.146 -3.15551 4.46195 0
M  V30 8090 H 762.24 -0.506096 0.654061 0
M  V30 8091 H 764.786 -0.344697 1.66162 0
M  V30 8092 H 763.558 -1.11722 3.75012 0
M  V30 8093 H 763.181 -2.64419 2.96931 0
M  V30 8094 N 764.178 -1.45556 -0.604258 0
M  V30 8095 C 765.126 -1.5482 -1.7359 0
M  V30 8096 C 766.12 -0.417966 -1.64163 0
M  V30 8097 O 767.326 -0.594007 -1.69916 0
M  V30 8098 H 763.701 -0.486352 -0.573556 0
M  V30 8099 H 765.672 -2.5001 -1.62903 0
M  V30 8100 C 764.421 -1.53521 -3.11972 0
M  V30 8101 H 763.744 -2.39818 -3.19886 0
M  V30 8102 H 765.184 -1.64061 -3.90973 0
M  V30 8103 C 763.643 -0.260191 -3.35894 0
M  V30 8104 O 764.173 0.658582 -3.96265 0
M  V30 8105 N 762.379 -0.154839 -2.90187 0
M  V30 8106 H 761.926 -0.903378 -2.4124 0
M  V30 8107 H 761.884 0.697437 -3.06567 0
M  V30 8108 N 765.656 0.84705 -1.32902 0
M  V30 8109 C 766.603 1.95624 -1.22473 0
M  V30 8110 C 767.573 1.65767 -0.105178 0
M  V30 8111 O 768.758 1.88704 -0.282042 0
M  V30 8112 C 765.898 3.31434 -0.961542 0
M  V30 8113 C 765.011 3.73741 -2.1666 0
M  V30 8114 C 764.146 4.98379 -1.83825 0
M  V30 8115 C 763.185 5.33199 -3.00609 0
M  V30 8116 N 762.322 6.49014 -2.67816 0
M  V30 8117 H 767.162 2.03875 -2.17345 0
M  V30 8118 H 764.699 0.997764 -1.08088 0
M  V30 8119 H 766.657 4.09663 -0.789411 0
M  V30 8120 H 765.287 3.22762 -0.0495938 0
M  V30 8121 H 764.339 2.91102 -2.44875 0
M  V30 8122 H 765.651 3.95462 -3.03993 0
M  V30 8123 H 764.805 5.84336 -1.63208 0
M  V30 8124 H 763.544 4.78611 -0.937172 0
M  V30 8125 H 762.549 4.4575 -3.21849 0
M  V30 8126 H 763.774 5.5492 -3.9146 0
M  V30 8127 H 761.72 6.30748 -1.80258 0
M  V30 8128 H 761.637 6.7079 -3.48679 0
M  V30 8129 H 762.905 7.38103 -2.50647 0
M  V30 8130 N 767.134 1.16236 1.06428 0
M  V30 8131 C 768.066 0.825446 2.1382 0
M  V30 8132 C 769.079 -0.166707 1.61944 0
M  V30 8133 O 770.268 0.0578606 1.78406 0
M  V30 8134 C 767.368 0.208023 3.38261 0
M  V30 8135 C 766.541 1.23994 4.19457 0
M  V30 8136 C 765.6 0.642569 5.22262 0
M  V30 8137 O 764.626 1.31106 5.53895 0
M  V30 8138 N 765.828 -0.571327 5.77682 0
M  V30 8139 H 768.593 1.7497 2.43322 0
M  V30 8140 H 766.154 1.05951 1.22417 0
M  V30 8141 H 768.146 -0.204608 4.04182 0
M  V30 8142 H 766.716 -0.619752 3.06395 0
M  V30 8143 H 765.936 1.82879 3.49212 0
M  V30 8144 H 767.224 1.93638 4.70512 0
M  V30 8145 H 766.622 -1.13263 5.54245 0
M  V30 8146 H 765.179 -0.926187 6.45186 0
M  V30 8147 N 768.612 -1.24939 0.960631 0
M  V30 8148 C 769.837 -1.9742 0.635608 0
M  V30 8149 C 770.262 -1.70857 -0.786737 0
M  V30 8150 O 769.62 -0.968063 -1.53291 0
M  V30 8151 C 769.668 -3.48987 0.907771 0
M  V30 8152 O 768.772 -4.12399 -0.0104053 0
M  V30 8153 H 768.113 -0.61871 0.241027 0
M  V30 8154 H 770.643 -1.58901 1.28886 0
M  V30 8155 H 770.653 -3.99334 0.836453 0
M  V30 8156 H 769.328 -3.6765 1.94439 0
M  V30 8157 H 767.905 -3.72727 0.113631 0
M  V30 8158 N 770.09 -0.729906 -1.39679 0
M  V30 8159 C 771.315 -0.284345 -2.05442 0
M  V30 8160 C 771.74 1.07056 -1.54663 0
M  V30 8161 O 771.098 1.67732 -0.688157 0
M  V30 8162 C 771.146 -0.290089 -3.59431 0
M  V30 8163 O 770.25 0.723978 -4.05995 0
M  V30 8164 H 769.591 -0.130311 -0.651088 0
M  V30 8165 H 772.121 -0.994403 -1.78809 0
M  V30 8166 H 772.131 -0.132712 -4.07784 0
M  V30 8167 H 770.806 -1.27877 -3.95753 0
M  V30 8168 H 769.383 0.533154 -3.69069 0
M  V30 8169 N 771.568 1.50203 -0.477153 0
M  V30 8170 C 772.815 2.02358 0.0757385 0
M  V30 8171 C 773.143 1.3587 1.39174 0
M  V30 8172 O 772.398 0.475415 1.89838 0
M  V30 8173 C 772.697 3.56127 0.301325 0
M  V30 8174 C 772.363 4.41126 -0.933725 0
M  V30 8175 C 771.025 4.64075 -1.27233 0
M  V30 8176 C 773.377 4.90737 -1.75576 0
M  V30 8177 C 770.705 5.33878 -2.43292 0
M  V30 8178 C 773.057 5.61816 -2.90768 0
M  V30 8179 C 771.721 5.83016 -3.25036 0
M  V30 8180 H 770.991 0.740482 0.0277147 0
M  V30 8181 H 773.638 1.80754 -0.632467 0
M  V30 8182 H 771.943 3.76279 1.09183 0
M  V30 8183 H 773.64 3.94053 0.743184 0
M  V30 8184 H 770.23 4.23489 -0.659935 0
M  V30 8185 H 774.414 4.72856 -1.50734 0
M  V30 8186 H 769.67 5.48499 -2.70109 0
M  V30 8187 H 773.844 5.99237 -3.54807 0
M  V30 8188 H 771.471 6.36881 -4.15074 0
M  V30 8189 N 773.046 0.209999 1.56195 0
M  V30 8190 C 773.993 -0.704854 2.19774 0
M  V30 8191 C 774.963 -1.19886 1.14964 0
M  V30 8192 O 776.148 -1.26005 1.43274 0
M  V30 8193 C 773.288 -1.91241 2.87265 0
M  V30 8194 C 772.401 -1.45838 4.06639 0
M  V30 8195 C 771.536 -2.6226 4.61945 0
M  V30 8196 C 770.575 -2.13537 5.73645 0
M  V30 8197 N 769.712 -3.2319 6.23292 0
M  V30 8198 H 774.552 -0.155944 2.97592 0
M  V30 8199 H 772.089 -0.0652235 1.46955 0
M  V30 8200 H 774.047 -2.62123 3.24573 0
M  V30 8201 H 772.677 -2.43439 2.11985 0
M  V30 8202 H 771.729 -0.644897 3.74894 0
M  V30 8203 H 773.041 -1.06103 4.87384 0
M  V30 8204 H 772.195 -3.41243 5.01636 0
M  V30 8205 H 770.934 -3.05278 3.80338 0
M  V30 8206 H 769.939 -1.33013 5.33468 0
M  V30 8207 H 771.164 -1.71533 6.57079 0
M  V30 8208 H 769.11 -3.65711 5.44602 0
M  V30 8209 H 769.027 -2.8767 6.99129 0
M  V30 8210 H 770.295 -4.02342 6.67639 0
M  V30 8211 N 774.524 -1.57472 -0.0634922 0
M  V30 8212 C 775.487 -2.03268 -1.059 0
M  V30 8213 C 776.487 -0.931028 -1.31105 0
M  V30 8214 O 777.677 -1.19567 -1.26686 0
M  V30 8215 C 774.809 -2.42039 -2.40062 0
M  V30 8216 H 776.002 -2.92454 -0.664119 0
M  V30 8217 H 773.555 -1.53206 -0.309444 0
M  V30 8218 H 774.29 -1.55904 -2.84367 0
M  V30 8219 H 774.075 -3.22437 -2.23108 0
M  V30 8220 H 775.565 -2.78017 -3.11603 0
M  V30 8221 N 776.003 0.335068 -1.53997 0
M  V30 8222 C 777.28 1.09188 -1.62288 0
M  V30 8223 C 777.66 2.0626 -0.449458 0
M  V30 8224 O 777.008 2.21596 0.557444 0
M  V30 8225 C 777.218 1.80403 -2.98757 0
M  V30 8226 C 778.566 2.33841 -3.54406 0
M  V30 8227 O 779.59 1.90487 -3.00987 0
M  V30 8228 O 778.449 3.1318 -4.47862 0
M  V30 8229 H 775.543 0.502621 -0.656736 0
M  V30 8230 H 778.089 0.33588 -1.66343 0
M  V30 8231 H 776.861 1.09732 -3.75599 0
M  V30 8232 H 776.484 2.62841 -2.9833 0
M  V30 8233 N 777.481 1.45874 0.596531 0
M  V30 8234 C 778.727 1.5069 1.35722 0
M  V30 8235 C 779.06 0.152506 1.936 0
M  V30 8236 O 778.335 -0.834411 1.75692 0
M  V30 8237 C 778.618 2.59474 2.4969 0
M  V30 8238 C 778.471 4.04396 1.96937 0
M  V30 8239 C 779.79 2.64451 3.51787 0
M  V30 8240 H 776.909 0.548611 0.492133 0
M  V30 8241 H 779.551 1.77741 0.671428 0
M  V30 8242 H 777.701 2.36539 3.08191 0
M  V30 8243 H 779.373 4.38576 1.43 0
M  V30 8244 H 777.616 4.14529 1.27859 0
M  V30 8245 H 778.287 4.76218 2.79143 0
M  V30 8246 H 780.763 2.85031 3.03145 0
M  V30 8247 H 779.639 3.42411 4.29006 0
M  V30 8248 H 779.9 1.69965 4.08123 0
M  V30 8249 N 778.959 -0.83999 1.33349 0
M  V30 8250 C 779.891 -1.95678 1.19344 0
M  V30 8251 C 780.904 -1.62322 0.124692 0
M  V30 8252 O 782.093 -1.74516 0.375012 0
M  V30 8253 C 779.193 -3.29133 0.807771 0
M  V30 8254 C 778.366 -3.9063 1.96792 0
M  V30 8255 C 777.425 -5.02438 1.56341 0
M  V30 8256 O 776.451 -5.21646 2.27759 0
M  V30 8257 N 777.653 -5.78612 0.467767 0
M  V30 8258 H 780.418 -2.08229 2.15548 0
M  V30 8259 H 777.979 -1.01566 1.26079 0
M  V30 8260 H 779.971 -4.01355 0.519282 0
M  V30 8261 H 778.541 -3.12535 -0.063555 0
M  V30 8262 H 777.761 -3.11011 2.4221 0
M  V30 8263 H 779.049 -4.2845 2.74422 0
M  V30 8264 H 778.447 -5.65559 -0.126324 0
M  V30 8265 H 777.004 -6.51362 0.238945 0
M  V30 8266 N 780.437 -1.16799 -1.0581 0
M  V30 8267 C 781.4 -0.881396 -2.11575 0
M  V30 8268 C 782.4 0.12574 -1.60308 0
M  V30 8269 O 783.59 -0.105716 -1.73879 0
M  V30 8270 C 780.722 -0.319037 -3.39404 0
M  V30 8271 H 781.915 -1.81907 -2.38432 0
M  V30 8272 H 779.468 -0.977597 -1.21954 0
M  V30 8273 H 780.203 0.626082 -3.18199 0
M  V30 8274 H 779.988 -1.04481 -3.77923 0
M  V30 8275 H 781.478 -0.13663 -4.17376 0
M  V30 8276 N 781.915 1.24427 -0.967243 0
M  V30 8277 C 782.865 2.23143 -0.468106 0
M  V30 8278 C 783.849 1.5449 0.449633 0
M  V30 8279 O 785.041 1.74761 0.28063 0
M  V30 8280 C 782.17 3.42454 0.240867 0
M  V30 8281 C 781.256 4.18355 -0.695674 0
M  V30 8282 N 781.647 4.71428 -1.83273 0
M  V30 8283 C 779.945 4.43116 -0.506365 0
M  V30 8284 C 780.646 5.29041 -2.41849 0
M  V30 8285 N 779.622 5.16213 -1.70369 0
M  V30 8286 H 783.424 2.61795 -1.3357 0
M  V30 8287 H 780.938 1.39809 -0.826277 0
M  V30 8288 H 782.935 4.12329 0.615668 0
M  V30 8289 H 781.595 3.05323 1.10491 0
M  V30 8290 H 782.606 4.68177 -2.21428 0
M  V30 8291 H 779.283 4.16319 0.313747 0
M  V30 8292 H 780.673 5.80811 -3.37799 0
M  V30 8293 N 783.393 0.737304 1.3929 0
M  V30 8294 C 784.641 0.285691 2.00071 0
M  V30 8295 C 784.962 -1.13169 1.58801 0
M  V30 8296 O 784.232 -1.77104 0.837308 0
M  V30 8297 H 782.812 0.102638 0.739915 0
M  V30 8298 H 785.474 0.947775 1.70303 0
M  V30 8299 H 784.57 0.335906 3.10287 0
M  V30 8300 N 784.871 -1.49948 0.485112 0
M  V30 8301 C 785.781 -2.32587 -0.306697 0
M  V30 8302 C 786.797 -1.43598 -0.982632 0
M  V30 8303 O 787.973 -1.76638 -0.967519 0
M  V30 8304 C 785.038 -3.18638 -1.3664 0
M  V30 8305 C 784.099 -4.23462 -0.705589 0
M  V30 8306 C 783.332 -5.05401 -1.7148 0
M  V30 8307 O 783.555 -4.88618 -2.94293 0
M  V30 8308 O 782.489 -5.88157 -1.27889 0
M  V30 8309 H 786.315 -3.01447 0.369272 0
M  V30 8310 H 783.9 -1.47349 0.246709 0
M  V30 8311 H 785.782 -3.71992 -1.9799 0
M  V30 8312 H 784.457 -2.52491 -2.02559 0
M  V30 8313 H 783.364 -3.74063 -0.0527733 0
M  V30 8314 H 784.697 -4.92119 -0.0891187 0
M  V30 8315 N 786.349 -0.21828 -1.56081 0
M  V30 8316 C 787.597 0.413488 -1.97825 0
M  V30 8317 C 787.918 1.60527 -1.10707 0
M  V30 8318 O 787.188 1.9504 -0.183378 0
M  V30 8319 H 785.768 0.155757 -0.730581 0
M  V30 8320 H 788.43 -0.310413 -1.92412 0
M  V30 8321 H 787.526 0.742024 -3.03151 0
M  V30 8322 N 787.827 1.57504 0.0551401 0
M  V30 8323 C 788.759 2.0158 1.09078 0
M  V30 8324 C 789.772 0.92434 1.34014 0
M  V30 8325 O 790.961 1.20202 1.31961 0
M  V30 8326 C 788.061 2.35385 2.43818 0
M  V30 8327 C 787.234 3.66588 2.38605 0
M  V30 8328 C 786.293 3.87874 3.55585 0
M  V30 8329 O 785.319 4.59259 3.36258 0
M  V30 8330 N 786.521 3.31503 4.76536 0
M  V30 8331 H 789.286 2.91039 0.71529 0
M  V30 8332 H 786.847 1.60058 0.243532 0
M  V30 8333 H 788.839 2.46784 3.20749 0
M  V30 8334 H 787.409 1.51731 2.73307 0
M  V30 8335 H 786.629 3.65787 1.46947 0
M  V30 8336 H 787.917 4.52706 2.32239 0
M  V30 8337 H 787.315 2.73592 4.9514 0
M  V30 8338 H 785.872 3.48324 5.50921 0
M  V30 8339 N 789.305 -0.326896 1.54172 0
M  V30 8340 C 790.215 -1.42525 1.86343 0
M  V30 8341 C 791.231 -1.56764 0.75505 0
M  V30 8342 O 792.407 -1.71924 1.04901 0
M  V30 8343 C 789.472 -2.77286 2.08119 0
M  V30 8344 C 788.533 -2.7225 3.31931 0
M  V30 8345 C 787.766 -4.00584 3.52659 0
M  V30 8346 O 787.989 -4.98686 2.76891 0
M  V30 8347 O 786.923 -4.04045 4.46129 0
M  V30 8348 H 790.749 -1.18249 2.79734 0
M  V30 8349 H 788.334 -0.520614 1.40036 0
M  V30 8350 H 790.216 -3.57065 2.23791 0
M  V30 8351 H 788.891 -3.01459 1.17917 0
M  V30 8352 H 787.798 -1.91033 3.21647 0
M  V30 8353 H 789.131 -2.53032 4.2218 0
M  V30 8354 N 790.784 -1.46188 -0.588786 0
M  V30 8355 C 792.031 -1.51184 -1.34721 0
M  V30 8356 C 792.359 -0.161084 -1.93832 0
M  V30 8357 O 791.614 0.842557 -1.76634 0
M  V30 8358 C 791.913 -2.55364 -2.50048 0
M  V30 8359 C 791.579 -3.99553 -2.08969 0
M  V30 8360 C 790.241 -4.38811 -1.9748 0
M  V30 8361 C 792.593 -4.90156 -1.77191 0
M  V30 8362 C 789.921 -5.66544 -1.52463 0
M  V30 8363 C 792.273 -6.1832 -1.33654 0
M  V30 8364 C 790.937 -6.5649 -1.20738 0
M  V30 8365 H 790.207 -0.55322 -0.49298 0
M  V30 8366 H 792.854 -1.79634 -0.663627 0
M  V30 8367 H 791.159 -2.20552 -3.23827 0
M  V30 8368 H 792.856 -2.5646 -3.08268 0
M  V30 8369 H 789.446 -3.68518 -2.18843 0
M  V30 8370 H 793.63 -4.60549 -1.84955 0
M  V30 8371 H 788.886 -5.94895 -1.411 0
M  V30 8372 H 793.06 -6.87956 -1.08117 0
M  V30 8373 H 790.687 -7.55362 -0.856307 0
M  V30 8374 N 792.262 0.832906 -1.33792 0
M  V30 8375 C 793.487 1.62568 -1.28788 0
M  V30 8376 C 793.912 1.87599 0.137246 0
M  V30 8377 O 793.27 1.44436 1.0958 0
M  V30 8378 C 793.318 2.9495 -2.07453 0
M  V30 8379 O 792.422 3.86546 -1.43722 0
M  V30 8380 H 791.763 0.494809 -0.442787 0
M  V30 8381 H 794.293 1.03578 -1.76445 0
M  V30 8382 H 794.303 3.44599 -2.1844 0
M  V30 8383 H 792.978 2.76055 -3.11073 0
M  V30 8384 H 791.555 3.45044 -1.41417 0
M  V30 8385 N 793.74 1.17359 1.05189 0
M  V30 8386 C 794.989 0.956412 1.77583 0
M  V30 8387 C 795.302 -0.516018 1.88671 0
M  V30 8388 O 796.508 -0.851401 2.57805 0
M  V30 8389 C 794.964 1.66203 3.19225 0
M  V30 8390 C 794.572 3.17299 3.16267 0
M  V30 8391 C 796.316 1.52725 3.96075 0
M  V30 8392 C 794.223 3.8055 4.52698 0
M  V30 8393 H 793.153 0.354204 0.665624 0
M  V30 8394 H 795.804 1.40612 1.17901 0
M  V30 8395 H 794.186 1.14006 3.79234 0
M  V30 8396 H 795.36 3.76431 2.65776 0
M  V30 8397 H 793.675 3.3079 2.52917 0
M  V30 8398 H 796.272 1.97351 4.96947 0
M  V30 8399 H 796.615 0.477803 4.13549 0
M  V30 8400 H 797.148 2.02139 3.42614 0
M  V30 8401 H 793.887 4.85492 4.4043 0
M  V30 8402 H 793.407 3.26206 5.03339 0
M  V30 8403 H 795.086 3.82757 5.21638 0
M  V30 8404 N 795.218 -1.23913 0.973828 0
M  V30 8405 C 796.446 -1.96195 0.656891 0
M  V30 8406 C 796.861 -1.72166 -0.774876 0
M  V30 8407 O 796.218 -1.0091 -1.52064 0
M  V30 8408 C 796.269 -3.49342 0.929638 0
M  V30 8409 O 795.99 -3.72553 2.30512 0
M  V30 8410 C 797.491 -4.38833 0.627739 0
M  V30 8411 H 794.711 -0.624841 0.244572 0
M  V30 8412 H 797.255 -1.57579 1.30343 0
M  V30 8413 H 795.41 -3.85999 0.329216 0
M  V30 8414 H 795.824 -4.66893 2.3898 0
M  V30 8415 H 797.298 -5.45117 0.868991 0
M  V30 8416 H 797.775 -4.37009 -0.438104 0
M  V30 8417 H 798.381 -4.07773 1.20834 0
M  V30 8418 N 796.696 -0.74468 -1.38897 0
M  V30 8419 C 797.936 -0.301691 -2.02161 0
M  V30 8420 C 798.3 1.09338 -1.57826 0
M  V30 8421 O 799.501 1.63499 -2.13358 0
M  V30 8422 C 797.772 -0.410601 -3.55034 0
M  V30 8423 S 799.331 -0.0488802 -4.38773 0
M  V30 8424 H 796.149 -0.117583 -0.70121 0
M  V30 8425 H 798.751 -0.973334 -1.69548 0
M  V30 8426 H 797.455 -1.42705 -3.8479 0
M  V30 8427 H 796.986 0.278531 -3.92413 0
M  V30 8428 H 799.001 1.16434 -4.82346 0
M  V30 8429 N 798.174 1.49689 -0.493057 0
M  V30 8430 C 799.104 2.31826 0.279073 0
M  V30 8431 C 800.085 1.39733 0.969987 0
M  V30 8432 O 801.27 1.68646 0.962925 0
M  V30 8433 C 798.4 3.20046 1.34862 0
M  V30 8434 C 797.354 4.20869 0.77805 0
M  V30 8435 C 796.68 4.97971 1.94753 0
M  V30 8436 C 797.98 5.21813 -0.225543 0
M  V30 8437 H 799.674 2.96627 -0.406512 0
M  V30 8438 H 797.22 1.42647 -0.196943 0
M  V30 8439 H 799.173 3.76315 1.89645 0
M  V30 8440 H 797.897 2.53172 2.06328 0
M  V30 8441 H 796.556 3.65733 0.252036 0
M  V30 8442 H 796.204 4.27552 2.64969 0
M  V30 8443 H 795.904 5.66186 1.57187 0
M  V30 8444 H 797.428 5.57082 2.49984 0
M  V30 8445 H 798.842 5.72823 0.233864 0
M  V30 8446 H 797.239 5.97872 -0.516622 0
M  V30 8447 H 798.309 4.71209 -1.14412 0
M  V30 8448 N 799.652 0.226554 1.55963 0
M  V30 8449 C 800.898 -0.404387 1.98727 0
M  V30 8450 C 801.231 -1.59059 1.11418 0
M  V30 8451 O 800.506 -1.93729 0.172971 0
M  V30 8452 C 800.789 -0.834081 3.50307 0
M  V30 8453 C 800.642 0.356104 4.48388 0
M  V30 8454 C 801.961 -1.68845 4.06423 0
M  V30 8455 H 799.08 -0.145515 0.722492 0
M  V30 8456 H 801.722 0.323791 1.87221 0
M  V30 8457 H 799.872 -1.45454 3.60244 0
M  V30 8458 H 801.544 0.99432 4.50456 0
M  V30 8459 H 799.787 1.0027 4.22053 0
M  V30 8460 H 800.458 0.0124333 5.51999 0
M  V30 8461 H 802.934 -1.16489 3.99461 0
M  V30 8462 H 801.81 -1.958 5.1279 0
M  V30 8463 H 802.071 -2.65347 3.53615 0
M  V30 8464 N 801.13 -1.57531 -0.0467866 0
M  V30 8465 C 802.407 -1.79568 -0.775536 0
M  V30 8466 C 802.787 -0.820322 -1.94509 0
M  V30 8467 O 802.135 0.14134 -2.28062 0
M  V30 8468 C 802.345 -3.26789 -1.22516 0
M  V30 8469 C 803.693 -3.91299 -1.64835 0
M  V30 8470 O 804.717 -3.30831 -1.3202 0
M  V30 8471 O 803.576 -4.97727 -2.25677 0
M  V30 8472 H 800.67 -0.737817 -0.373572 0
M  V30 8473 H 803.216 -1.69682 -0.0249302 0
M  V30 8474 H 801.988 -3.89357 -0.389446 0
M  V30 8475 H 801.611 -3.41496 -2.03633 0
M  V30 8476 N 802.608 0.318715 -1.54344 0
M  V30 8477 C 803.518 1.41535 -1.87097 0
M  V30 8478 C 804.534 1.56361 -0.763353 0
M  V30 8479 O 805.71 1.71365 -1.05811 0
M  V30 8480 C 802.775 2.76178 -2.09587 0
M  V30 8481 C 801.836 2.70486 -3.3337 0
M  V30 8482 C 801.069 3.98708 -3.54778 0
M  V30 8483 O 801.292 4.9721 -2.79532 0
M  V30 8484 O 800.226 4.01674 -4.48266 0
M  V30 8485 H 804.052 1.16764 -2.80357 0
M  V30 8486 H 801.637 0.51318 -1.4031 0
M  V30 8487 H 803.519 3.55873 -2.25682 0
M  V30 8488 H 802.194 3.00829 -1.19514 0
M  V30 8489 H 801.101 1.89325 -3.22656 0
M  V30 8490 H 802.434 2.50789 -4.23516 0
M  V30 8491 N 804.086 1.46499 0.581025 0
M  V30 8492 C 804.996 1.59778 1.71779 0
M  V30 8493 C 806.012 0.481223 1.67213 0
M  V30 8494 O 807.188 0.74557 1.87091 0
M  V30 8495 C 804.253 1.58626 3.08283 0
M  V30 8496 C 803.314 2.81527 3.241 0
M  V30 8497 C 802.547 2.80421 4.54092 0
M  V30 8498 O 802.77 1.89262 5.38085 0
M  V30 8499 O 801.704 3.71984 4.73193 0
M  V30 8500 H 805.53 2.55918 1.63523 0
M  V30 8501 H 803.115 1.29311 0.748267 0
M  V30 8502 H 804.997 1.60686 3.89561 0
M  V30 8503 H 803.672 0.656467 3.16973 0
M  V30 8504 H 802.579 2.85021 2.42309 0
M  V30 8505 H 803.912 3.73721 3.20302 0
M  V30 8506 N 805.565 -0.825799 1.34232 0
M  V30 8507 C 806.475 -1.9684 1.27638 0
M  V30 8508 C 807.491 -1.73018 0.184569 0
M  V30 8509 O 808.667 -1.97172 0.410525 0
M  V30 8510 C 805.732 -3.31084 1.02879 0
M  V30 8511 C 804.793 -3.67933 2.21188 0
M  V30 8512 C 804.026 -4.95772 1.976 0
M  V30 8513 O 804.249 -5.62721 0.93281 0
M  V30 8514 O 803.183 -5.30431 2.84477 0
M  V30 8515 H 807.009 -2.05346 2.23756 0
M  V30 8516 H 804.594 -0.960772 1.1441 0
M  V30 8517 H 806.476 -4.11492 0.908406 0
M  V30 8518 H 805.151 -3.23552 0.0979821 0
M  V30 8519 H 804.058 -2.87981 2.38784 0
M  V30 8520 H 805.391 -3.80147 3.12648 0
M  V30 8521 N 807.043 -1.17915 -1.04565 0
M  V30 8522 C 807.976 -0.845021 -2.11978 0
M  V30 8523 C 808.954 0.19089 -1.61476 0
M  V30 8524 O 810.138 0.0709905 -1.88366 0
M  V30 8525 C 807.265 -0.261657 -3.37688 0
M  V30 8526 C 806.311 -1.27396 -4.07029 0
M  V30 8527 S 807.144 -2.82783 -4.54746 0
M  V30 8528 C 808.3 -2.25944 -5.83695 0
M  V30 8529 H 808.533 -1.75472 -2.39993 0
M  V30 8530 H 806.066 -1.00447 -1.17259 0
M  V30 8531 H 808.024 0.0684257 -4.10443 0
M  V30 8532 H 806.685 0.626082 -3.07797 0
M  V30 8533 H 805.878 -0.814557 -4.97374 0
M  V30 8534 H 805.48 -1.55002 -3.40368 0
M  V30 8535 H 807.772 -1.63892 -6.57378 0
M  V30 8536 H 808.715 -3.14569 -6.34391 0
M  V30 8537 H 809.123 -1.69155 -5.3856 0
M  V30 8538 N 808.521 1.23394 -0.980386 0
M  V30 8539 C 809.468 2.24859 -0.520298 0
M  V30 8540 C 810.438 1.60144 0.440821 0
M  V30 8541 O 811.623 1.87593 0.348369 0
M  V30 8542 C 808.763 3.44675 0.171145 0
M  V30 8543 C 807.876 4.23947 -0.830233 0
M  V30 8544 C 807.011 5.31079 -0.113597 0
M  V30 8545 C 806.05 6.02058 -1.10419 0
M  V30 8546 N 805.187 7.00862 -0.416709 0
M  V30 8547 H 810.027 2.63579 -1.39032 0
M  V30 8548 H 807.564 1.29556 -0.696682 0
M  V30 8549 H 809.522 4.13024 0.588838 0
M  V30 8550 H 808.152 3.06755 1.00504 0
M  V30 8551 H 807.204 3.55016 -1.36631 0
M  V30 8552 H 808.516 4.72945 -1.58508 0
M  V30 8553 H 807.67 6.05622 0.36146 0
M  V30 8554 H 806.409 4.83022 0.673854 0
M  V30 8555 H 805.414 5.26307 -1.59 0
M  V30 8556 H 806.639 6.52203 -1.8923 0
M  V30 8557 H 804.585 6.55057 0.351535 0
M  V30 8558 H 804.502 7.47804 -1.11021 0
M  V30 8559 H 805.77 7.79492 0.0359606 0
M  V30 8560 N 809.999 0.752036 1.385 0
M  V30 8561 C 810.946 0.123288 2.3047 0
M  V30 8562 C 811.916 -0.711326 1.50098 0
M  V30 8563 O 813.101 -0.667775 1.78733 0
M  V30 8564 C 810.241 -0.765085 3.36512 0
M  V30 8565 C 809.354 0.0839885 4.31918 0
M  V30 8566 C 808.489 -0.807243 5.25031 0
M  V30 8567 C 807.528 0.0455583 6.12083 0
M  V30 8568 N 806.665 -0.802547 6.97498 0
M  V30 8569 H 811.505 0.913169 2.83664 0
M  V30 8570 H 809.042 0.46195 1.39658 0
M  V30 8571 H 811 -1.29476 3.966 0
M  V30 8572 H 809.63 -1.52077 2.84732 0
M  V30 8573 H 808.682 0.731276 3.73305 0
M  V30 8574 H 809.994 0.74265 4.9324 0
M  V30 8575 H 809.148 -1.40414 5.90228 0
M  V30 8576 H 807.887 -1.49964 4.64071 0
M  V30 8577 H 806.892 0.655137 5.45883 0
M  V30 8578 H 808.117 0.734994 6.75111 0
M  V30 8579 H 806.063 -1.47992 6.39089 0
M  V30 8580 H 805.98 -0.200747 7.55733 0
M  V30 8581 H 807.248 -1.38447 7.67107 0
M  V30 8582 N 811.477 -1.49425 0.500989 0
M  V30 8583 C 812.407 -2.31971 -0.266775 0
M  V30 8584 C 813.388 -1.40245 -0.962563 0
M  V30 8585 O 814.573 -1.69154 -0.953968 0
M  V30 8586 C 811.703 -3.20757 -1.33163 0
M  V30 8587 C 810.657 -4.21275 -0.75572 0
M  V30 8588 C 809.983 -4.98997 -1.92109 0
M  V30 8589 C 811.283 -5.21686 0.253213 0
M  V30 8590 H 812.977 -2.96408 0.422237 0
M  V30 8591 H 810.523 -1.4254 0.204505 0
M  V30 8592 H 812.476 -3.77315 -1.87646 0
M  V30 8593 H 811.2 -2.54263 -2.04983 0
M  V30 8594 H 809.859 -3.65861 -0.232637 0
M  V30 8595 H 809.507 -4.28951 -2.62698 0
M  V30 8596 H 809.207 -5.67011 -1.54182 0
M  V30 8597 H 810.731 -5.584 -2.47026 0
M  V30 8598 H 812.145 -5.72939 -0.203483 0
M  V30 8599 H 810.542 -5.9759 0.548322 0
M  V30 8600 H 811.612 -4.70596 1.16909 0
M  V30 8601 N 812.955 -0.234822 -1.55841 0
M  V30 8602 C 813.885 0.664217 -2.23854 0
M  V30 8603 C 814.866 1.19076 -1.2147 0
M  V30 8604 O 816.051 1.23232 -1.50091 0
M  V30 8605 C 813.181 1.86666 -2.9287 0
M  V30 8606 C 812.135 1.47341 -4.01839 0
M  V30 8607 C 811.461 2.75571 -4.58219 0
M  V30 8608 C 812.761 0.653479 -5.18196 0
M  V30 8609 H 814.455 0.0971213 -2.99242 0
M  V30 8610 H 812.001 0.0452724 -1.43929 0
M  V30 8611 H 813.954 2.50116 -3.39146 0
M  V30 8612 H 812.678 2.45894 -2.1495 0
M  V30 8613 H 811.337 0.862314 -3.56314 0
M  V30 8614 H 810.985 3.32971 -3.77014 0
M  V30 8615 H 810.685 2.49987 -5.31771 0
M  V30 8616 H 812.209 3.39939 -5.07221 0
M  V30 8617 H 813.623 1.19198 -5.60771 0
M  V30 8618 H 812.02 0.494188 -5.98062 0
M  V30 8619 H 813.09 -0.337004 -4.83728 0
M  V30 8620 N 814.433 1.57553 0.0384317 0
M  V30 8621 C 815.849 1.54663 0.39391 0
M  V30 8622 C 816.049 0.959685 1.77179 0
M  V30 8623 O 815.105 0.576647 2.45827 0
M  V30 8624 C 816.418 2.99156 0.304352 0
M  V30 8625 C 817.966 3.10659 0.382119 0
M  V30 8626 C 818.441 4.56866 0.322111 0
M  V30 8627 N 819.932 4.61629 0.38119 0
M  V30 8628 C 820.667 5.72284 0.357501 0
M  V30 8629 N 820.163 6.92207 0.286654 0
M  V30 8630 N 821.956 5.60628 0.406538 0
M  V30 8631 H 814.107 1.9406 -0.86339 0
M  V30 8632 H 816.37 0.889673 -0.327392 0
M  V30 8633 H 816.076 3.45788 -0.642141 0
M  V30 8634 H 815.95 3.60753 1.10168 0
M  V30 8635 H 818.337 2.6398 1.31904 0
M  V30 8636 H 818.418 2.5191 -0.444391 0
M  V30 8637 H 818.062 5.0421 -0.611104 0
M  V30 8638 H 817.992 5.13515 1.1666 0
M  V30 8639 H 820.483 3.75343 0.438838 0
M  V30 8640 H 820.796 7.72316 0.273421 0
M  V30 8641 H 819.141 6.9454 0.252841 0
M  V30 8642 H 822.332 4.65836 0.459812 0
M  V30 8643 H 822.505 6.46858 0.384608 0
M  V30 8644 N 815.911 -0.310526 1.54511 0
M  V30 8645 C 816.821 -1.4054 1.87844 0
M  V30 8646 C 817.837 -1.55954 0.771635 0
M  V30 8647 O 819.013 -1.70801 1.06719 0
M  V30 8648 C 816.078 -2.75063 2.11048 0
M  V30 8649 C 815.139 -2.68715 3.348 0
M  V30 8650 C 814.372 -3.96821 3.56887 0
M  V30 8651 O 814.595 -4.95721 2.82165 0
M  V30 8652 O 813.529 -3.99291 4.50389 0
M  V30 8653 H 817.355 -1.15275 2.80972 0
M  V30 8654 H 814.94 -0.505732 1.4058 0
M  V30 8655 H 816.822 -3.54671 2.27566 0
M  V30 8656 H 815.497 -3.00191 1.21108 0
M  V30 8657 H 814.404 -1.87611 3.23655 0
M  V30 8658 H 815.737 -2.4854 4.2484 0
M  V30 8659 N 817.389 -1.46805 -0.573248 0
M  V30 8660 C 818.805 -1.31969 -0.897577 0
M  V30 8661 C 819.005 -0.298171 -1.99282 0
M  V30 8662 O 818.061 0.295953 -2.5076 0
M  V30 8663 C 819.374 -2.70859 -1.30598 0
M  V30 8664 C 820.922 -2.79022 -1.4183 0
M  V30 8665 C 821.397 -4.18516 -1.86033 0
M  V30 8666 N 822.888 -4.2098 -1.9321 0
M  V30 8667 C 823.623 -5.25814 -2.28707 0
M  V30 8668 N 823.119 -6.40968 -2.6293 0
M  V30 8669 N 824.912 -5.13184 -2.29343 0
M  V30 8670 H 817.063 -2.11869 0.150094 0
M  V30 8671 H 819.326 -0.947989 0.00447895 0
M  V30 8672 H 819.032 -3.46965 -0.575161 0
M  V30 8673 H 818.906 -3.01585 -2.26554 0
M  V30 8674 H 821.293 -2.03198 -2.13996 0
M  V30 8675 H 821.374 -2.51969 -0.441024 0
M  V30 8676 H 821.018 -4.94839 -1.14442 0
M  V30 8677 H 820.948 -4.42982 -2.84735 0
M  V30 8678 H 823.439 -3.37898 -1.69214 0
M  V30 8679 H 823.752 -7.16729 -2.88996 0
M  V30 8680 H 822.097 -6.44314 -2.60547 0
M  V30 8681 H 825.288 -4.22255 -2.02036 0
M  V30 8682 H 825.461 -5.94996 -2.56679 0
M  V30 8683 N 818.867 0.818669 -1.34668 0
M  V30 8684 C 820.115 1.57201 -1.27013 0
M  V30 8685 C 820.436 1.94354 0.158599 0
M  V30 8686 O 819.706 1.62626 1.09223 0
M  V30 8687 H 818.286 0.582919 -0.467135 0
M  V30 8688 H 820.948 0.977234 -1.6863 0
M  V30 8689 H 820.044 2.49291 -1.87778 0
M  V30 8690 N 820.346 1.18468 1.03938 0
M  V30 8691 C 821.296 0.880799 2.103 0
M  V30 8692 C 822.28 -0.150008 1.60199 0
M  V30 8693 O 823.472 0.054213 1.76917 0
M  V30 8694 C 820.601 0.409723 3.40846 0
M  V30 8695 C 819.687 1.47267 3.9771 0
M  V30 8696 N 820.078 2.68945 4.28371 0
M  V30 8697 C 818.376 1.33349 4.25598 0
M  V30 8698 C 819.077 3.37341 4.73894 0
M  V30 8699 N 818.053 2.64725 4.74786 0
M  V30 8700 H 821.855 1.80574 2.31884 0
M  V30 8701 H 819.369 1.07527 1.21703 0
M  V30 8702 H 821.366 0.17352 4.16539 0
M  V30 8703 H 820.026 -0.508862 3.20688 0
M  V30 8704 H 821.037 3.05801 4.17978 0
M  V30 8705 H 817.714 0.477548 4.1476 0
M  V30 8706 H 819.104 4.41338 5.06627 0
M  V30 8707 N 821.824 -1.22873 0.986916 0
M  V30 8708 C 822.757 -2.23154 0.477245 0
M  V30 8709 C 823.735 -1.55981 -0.459206 0
M  V30 8710 O 824.919 -1.84503 -0.386141 0
M  V30 8711 C 822.046 -3.37289 -0.308838 0
M  V30 8712 C 821.092 -4.22637 0.572717 0
M  V30 8713 S 821.925 -4.95758 2.02446 0
M  V30 8714 C 823.081 -6.13338 1.2477 0
M  V30 8715 H 823.314 -2.6604 1.32702 0
M  V30 8716 H 820.847 -1.32455 0.793415 0
M  V30 8717 H 822.805 -4.03472 -0.756351 0
M  V30 8718 H 821.466 -2.92922 -1.13381 0
M  V30 8719 H 820.659 -5.0399 -0.0318024 0
M  V30 8720 H 820.261 -3.61555 0.956746 0
M  V30 8721 H 822.553 -6.7556 0.51231 0
M  V30 8722 H 823.496 -6.78189 2.03629 0
M  V30 8723 H 823.904 -5.59311 0.763622 0
M  V30 8724 N 823.302 -0.75937 -1.38099 0
M  V30 8725 C 824.232 -0.151077 -2.33011 0
M  V30 8726 C 825.213 0.697099 -1.5516 0
M  V30 8727 O 826.398 0.637101 -1.83452 0
M  V30 8728 C 823.528 0.738423 -3.39359 0
M  V30 8729 C 822.482 -0.0074741 -4.27999 0
M  V30 8730 C 821.808 1.00066 -5.25253 0
M  V30 8731 C 823.108 -1.17926 -5.08813 0
M  V30 8732 H 824.802 -0.943933 -2.84131 0
M  V30 8733 H 822.348 -0.455362 -1.36611 0
M  V30 8734 H 824.301 1.17369 -4.04725 0
M  V30 8735 H 823.025 1.56366 -2.86735 0
M  V30 8736 H 821.684 -0.423379 -3.64147 0
M  V30 8737 H 821.332 1.82012 -4.68914 0
M  V30 8738 H 821.032 0.506199 -5.85416 0
M  V30 8739 H 822.556 1.43512 -5.93495 0
M  V30 8740 H 823.97 -0.821262 -5.67387 0
M  V30 8741 H 822.367 -1.60497 -5.78239 0
M  V30 8742 H 823.437 -1.98938 -4.42212 0
M  V30 8743 N 824.78 1.49157 -0.508906 0
M  V30 8744 C 825.69 2.33045 0.269656 0
M  V30 8745 C 826.706 1.45143 0.959662 0
M  V30 8746 O 827.882 1.78155 0.939295 0
M  V30 8747 C 824.947 3.20772 1.31554 0
M  V30 8748 C 824.008 4.24531 0.638131 0
M  V30 8749 C 823.241 5.08065 1.63418 0
M  V30 8750 O 823.464 4.93238 2.86483 0
M  V30 8751 O 822.398 5.90117 1.18516 0
M  V30 8752 H 826.224 3.00821 -0.417183 0
M  V30 8753 H 823.809 1.46938 -0.270119 0
M  V30 8754 H 825.691 3.75095 1.92047 0
M  V30 8755 H 824.366 2.55681 1.98516 0
M  V30 8756 H 823.273 3.74099 -0.00674357 0
M  V30 8757 H 824.606 4.92199 0.0108155 0
M  V30 8758 N 826.258 0.243083 1.55714 0
M  V30 8759 C 827.206 -0.674349 2.2261 0
M  V30 8760 C 828.2 -1.18307 1.21243 0
M  V30 8761 O 829.406 -1.1404 1.39265 0
M  V30 8762 H 825.781 -0.235941 0.714028 0
M  V30 8763 H 827.752 -0.0869446 2.98273 0
M  V30 8764 C 826.501 -1.86206 2.93637 0
M  V30 8765 H 825.824 -1.47975 3.71407 0
M  V30 8766 H 827.264 -2.4813 3.43813 0
M  V30 8767 C 825.723 -2.73084 1.97298 0
M  V30 8768 O 826.253 -3.72497 1.50361 0
M  V30 8769 N 824.459 -2.39571 1.64482 0
M  V30 8770 H 824.006 -1.5878 2.02846 0
M  V30 8771 H 823.964 -2.97976 1.00288 0
M  V30 8772 N 827.736 -1.57571 -0.0300757 0
M  V30 8773 C 828.686 -2.02958 -1.03885 0
M  V30 8774 C 829.67 -0.918723 -1.32092 0
M  V30 8775 O 830.862 -1.18262 -1.31694 0
M  V30 8776 C 827.991 -2.51169 -2.34028 0
M  V30 8777 C 827.077 -3.69073 -2.08915 0
M  V30 8778 N 827.468 -4.81831 -1.53858 0
M  V30 8779 C 825.766 -3.76427 -2.39204 0
M  V30 8780 C 826.467 -5.6346 -1.44526 0
M  V30 8781 N 825.443 -5.08545 -1.92048 0
M  V30 8782 H 829.245 -2.8756 -0.607157 0
M  V30 8783 H 826.759 -1.6067 -0.236399 0
M  V30 8784 H 828.756 -2.81944 -3.07104 0
M  V30 8785 H 827.416 -1.67972 -2.77876 0
M  V30 8786 H 828.427 -5.03291 -1.22142 0
M  V30 8787 H 825.104 -3.04029 -2.86134 0
M  V30 8788 H 826.494 -6.64042 -1.02456 0
M  V30 8789 N 829.214 0.302327 -1.54673 0
M  V30 8790 C 830.46 1.03924 -1.74149 0
M  V30 8791 C 830.793 1.86968 -0.525041 0
M  V30 8792 O 830.068 1.88538 0.477868 0
M  V30 8793 C 830.351 1.94633 -3.02969 0
M  V30 8794 C 830.204 1.14778 -4.34909 0
M  V30 8795 C 831.523 2.93826 -3.27649 0
M  V30 8796 H 828.642 0.376405 -0.633631 0
M  V30 8797 H 831.284 0.314007 -1.87387 0
M  V30 8798 H 829.434 2.56471 -2.91813 0
M  V30 8799 H 831.106 0.552363 -4.57981 0
M  V30 8800 H 829.349 0.450462 -4.31455 0
M  V30 8801 H 830.02 1.81495 -5.21309 0
M  V30 8802 H 832.496 2.42117 -3.38406 0
M  V30 8803 H 831.372 3.54462 -4.19104 0
M  V30 8804 H 831.633 3.67416 -2.45882 0
M  V30 8805 N 830.692 1.47107 0.565454 0
M  V30 8806 C 831.602 1.61591 1.70075 0
M  V30 8807 C 832.618 0.498931 1.66693 0
M  V30 8808 O 833.794 0.765372 1.8629 0
M  V30 8809 C 830.859 1.61887 3.06583 0
M  V30 8810 C 829.92 2.84949 3.21096 0
M  V30 8811 C 829.153 2.85221 4.51093 0
M  V30 8812 O 829.376 1.94959 5.36048 0
M  V30 8813 O 828.31 3.76982 4.69221 0
M  V30 8814 H 832.136 2.57638 1.60799 0
M  V30 8815 H 829.721 1.30097 0.73451 0
M  V30 8816 H 831.603 1.64809 3.87835 0
M  V30 8817 H 830.278 0.69005 3.16259 0
M  V30 8818 H 829.185 2.87575 2.39273 0
M  V30 8819 H 830.518 3.77098 3.1632 0
M  V30 8820 N 832.17 -0.811516 1.35101 0
M  V30 8821 C 833.586 -1.10634 1.15031 0
M  V30 8822 C 833.786 -2.01459 -0.0405379 0
M  V30 8823 O 832.842 -2.42235 -0.712635 0
M  V30 8824 C 834.155 -1.74207 2.45097 0
M  V30 8825 C 835.703 -1.8665 2.51258 0
M  V30 8826 C 836.178 -2.53638 3.81355 0
M  V30 8827 N 837.669 -2.61128 3.82579 0
M  V30 8828 C 838.404 -3.13717 4.79968 0
M  V30 8829 N 837.9 -3.66782 5.87744 0
M  V30 8830 N 839.693 -3.12224 4.67411 0
M  V30 8831 H 831.844 -0.207641 2.11383 0
M  V30 8832 H 834.107 -0.154697 0.935293 0
M  V30 8833 H 833.813 -1.14936 3.32389 0
M  V30 8834 H 833.687 -2.73958 2.59281 0
M  V30 8835 H 836.074 -2.45066 1.64398 0
M  V30 8836 H 836.155 -0.857678 2.40993 0
M  V30 8837 H 835.799 -1.95873 4.68611 0
M  V30 8838 H 835.729 -3.55047 3.88907 0
M  V30 8839 H 838.22 -2.23527 3.04703 0
M  V30 8840 H 838.533 -4.05194 6.58056 0
M  V30 8841 H 836.878 -3.64994 5.91443 0
M  V30 8842 H 840.069 -2.70042 3.82354 0
M  V30 8843 H 840.242 -3.52903 5.43474 0
M  V30 8844 N 833.648 -1.19017 -1.03309 0
M  V30 8845 C 834.578 -0.94772 -2.13402 0
M  V30 8846 C 835.559 0.117383 -1.69694 0
M  V30 8847 O 836.744 -0.0367733 -1.94165 0
M  V30 8848 C 833.874 -0.480977 -3.43953 0
M  V30 8849 C 832.828 -1.48743 -4.01322 0
M  V30 8850 C 832.154 -0.877924 -5.27443 0
M  V30 8851 C 833.454 -2.86642 -4.36616 0
M  V30 8852 H 835.148 -1.86846 -2.33942 0
M  V30 8853 H 832.694 -0.899781 -1.12427 0
M  V30 8854 H 834.647 -0.298677 -4.2034 0
M  V30 8855 H 833.371 0.475348 -3.23122 0
M  V30 8856 H 832.03 -1.65681 -3.27025 0
M  V30 8857 H 831.678 0.0858232 -5.02927 0
M  V30 8858 H 831.378 -1.54996 -5.66789 0
M  V30 8859 H 832.902 -0.706326 -6.06501 0
M  V30 8860 H 834.316 -2.73312 -5.03958 0
M  V30 8861 H 832.713 -3.50599 -4.87032 0
M  V30 8862 H 833.783 -3.39617 -3.46105 0
M  V30 8863 N 835.127 1.22348 -0.993418 0
M  V30 8864 C 836.373 1.91689 -0.680217 0
M  V30 8865 C 836.728 1.75912 0.779269 0
M  V30 8866 O 836.021 1.11761 1.55628 0
M  V30 8867 C 836.215 3.42477 -1.02197 0
M  V30 8868 C 836.044 3.72923 -2.51313 0
M  V30 8869 C 834.814 3.9291 -3.17726 0
M  V30 8870 C 837.012 3.7736 -3.49434 0
M  V30 8871 N 834.994 4.10672 -4.56313 0
M  V30 8872 C 836.365 4.00269 -4.73481 0
M  V30 8873 C 838.42 3.60211 -3.43733 0
M  V30 8874 C 837.123 4.0781 -5.92523 0
M  V30 8875 C 839.149 3.69011 -4.62152 0
M  V30 8876 C 838.511 3.92371 -5.85 0
M  V30 8877 H 834.61 0.722086 -0.300193 0
M  V30 8878 H 837.194 1.47273 -1.27353 0
M  V30 8879 H 835.365 3.85699 -0.457223 0
M  V30 8880 H 837.097 3.99204 -0.664702 0
M  V30 8881 H 833.852 3.90345 -2.68193 0
M  V30 8882 H 834.276 4.2348 -5.28199 0
M  V30 8883 H 838.918 3.41137 -2.49771 0
M  V30 8884 H 836.636 4.25688 -6.86888 0
M  V30 8885 H 840.222 3.5708 -4.59331 0
M  V30 8886 H 839.102 3.9901 -6.75101 0
M  V30 8887 N 836.605 0.766683 1.37694 0
M  V30 8888 C 837.568 0.155849 2.2867 0
M  V30 8889 C 838.568 -0.633509 1.47795 0
M  V30 8890 O 839.758 -0.457844 1.68076 0
M  V30 8891 C 836.89 -0.786965 3.31692 0
M  V30 8892 H 838.083 0.957748 2.84196 0
M  V30 8893 H 835.636 0.534554 1.46875 0
M  V30 8894 H 836.371 -1.61406 2.8128 0
M  V30 8895 H 836.156 -0.223182 3.91464 0
M  V30 8896 H 837.646 -1.20994 3.99688 0
M  V30 8897 N 838.083 -1.48885 0.516809 0
M  V30 8898 C 839.313 -2.06592 -0.018375 0
M  V30 8899 C 839.721 -1.37543 -1.29917 0
M  V30 8900 O 839.064 -0.452527 -1.78039 0
M  V30 8901 C 839.126 -3.58016 -0.326315 0
M  V30 8902 C 838.79 -4.48853 0.859072 0
M  V30 8903 C 839.787 -4.89422 1.75391 0
M  V30 8904 C 837.472 -4.90937 1.06235 0
M  V30 8905 C 839.466 -5.70831 2.83604 0
M  V30 8906 C 837.153 -5.72119 2.14763 0
M  V30 8907 C 838.151 -6.11972 3.03281 0
M  V30 8908 O 837.839 -6.91527 4.09934 0
M  V30 8909 H 837.571 -0.675559 0.0244023 0
M  V30 8910 H 840.125 -1.92442 0.718005 0
M  V30 8911 H 838.355 -3.70231 -1.1165 0
M  V30 8912 H 840.044 -3.97898 -0.801999 0
M  V30 8913 H 840.81 -4.57542 1.60875 0
M  V30 8914 H 836.689 -4.59409 0.382677 0
M  V30 8915 H 840.233 -6.01857 3.52724 0
M  V30 8916 H 836.13 -6.03412 2.29268 0
M  V30 8917 H 836.898 -7.0986 4.07482 0
M  V30 8918 N 839.561 -0.251338 -1.55583 0
M  V30 8919 C 840.491 0.640437 -2.24545 0
M  V30 8920 C 841.472 1.17781 -1.22726 0
M  V30 8921 O 842.657 1.21633 -1.5139 0
M  V30 8922 C 839.787 1.8355 -2.94834 0
M  V30 8923 C 838.741 1.4307 -4.03379 0
M  V30 8924 C 838.067 2.70695 -4.61116 0
M  V30 8925 C 839.367 0.59848 -5.1886 0
M  V30 8926 H 841.061 0.0653772 -2.99329 0
M  V30 8927 H 838.607 0.0300042 -1.43969 0
M  V30 8928 H 840.56 2.46505 -3.4178 0
M  V30 8929 H 839.284 2.43601 -2.17546 0
M  V30 8930 H 837.943 0.824474 -3.57209 0
M  V30 8931 H 837.591 3.28954 -3.80524 0
M  V30 8932 H 837.291 2.44332 -5.34393 0
M  V30 8933 H 838.815 3.34541 -5.10798 0
M  V30 8934 H 840.229 1.13244 -5.62004 0
M  V30 8935 H 838.626 0.430728 -5.98552 0
M  V30 8936 H 839.696 -0.38829 -4.83343 0
M  V30 8937 N 841.039 1.57585 0.0217189 0
M  V30 8938 C 842.267 1.93871 0.722619 0
M  V30 8939 C 842.682 0.851706 1.68498 0
M  V30 8940 O 842.039 -0.17127 1.81695 0
M  V30 8941 C 842.09 3.30114 1.47333 0
M  V30 8942 O 841.811 4.34639 0.549597 0
M  V30 8943 C 843.312 3.80727 2.27072 0
M  V30 8944 H 840.532 0.639671 0.202637 0
M  V30 8945 H 843.076 2.04487 -0.0229414 0
M  V30 8946 H 841.231 3.20872 2.17071 0
M  V30 8947 H 841.645 5.13326 1.07686 0
M  V30 8948 H 843.119 4.78547 2.75131 0
M  V30 8949 H 843.596 3.12301 3.08812 0
M  V30 8950 H 844.202 3.93075 1.62395 0
M  V30 8951 N 842.517 -0.29412 1.54831 0
M  V30 8952 C 843.766 -1.02614 1.73647 0
M  V30 8953 C 844.079 -1.88193 0.533162 0
M  V30 8954 O 845.285 -2.64713 0.603275 0
M  V30 8955 C 843.741 -1.87417 3.07251 0
M  V30 8956 C 843.349 -1.06806 4.35082 0
M  V30 8957 C 845.093 -2.60176 3.35423 0
M  V30 8958 C 843 -1.90926 5.59733 0
M  V30 8959 H 841.93 -0.386834 0.647206 0
M  V30 8960 H 844.581 -0.282789 1.81308 0
M  V30 8961 H 842.963 -2.65765 2.93572 0
M  V30 8962 H 844.137 -0.330226 4.59615 0
M  V30 8963 H 842.452 -0.455979 4.13896 0
M  V30 8964 H 845.049 -3.23476 4.25755 0
M  V30 8965 H 845.392 -3.29365 2.54606 0
M  V30 8966 H 845.925 -1.88871 3.50103 0
M  V30 8967 H 842.664 -1.26194 6.43238 0
M  V30 8968 H 842.184 -2.62363 5.39375 0
M  V30 8969 H 843.863 -2.48807 5.97247 0
M  V30 8970 N 843.995 -1.47404 -0.557645 0
M  V30 8971 C 844.927 -1.55917 -1.67995 0
M  V30 8972 C 845.94 -0.445411 -1.56588 0
M  V30 8973 O 847.129 -0.714999 -1.63554 0
M  V30 8974 C 844.229 -1.44697 -3.06457 0
M  V30 8975 C 843.402 -2.70633 -3.43622 0
M  V30 8976 C 842.461 -2.53256 -4.61246 0
M  V30 8977 O 841.487 -3.27068 -4.65849 0
M  V30 8978 N 842.689 -1.61053 -5.57711 0
M  V30 8979 H 845.454 -2.52694 -1.61139 0
M  V30 8980 H 843.015 -1.43778 -0.744271 0
M  V30 8981 H 845.007 -1.30806 -3.82978 0
M  V30 8982 H 843.577 -0.560039 -3.07542 0
M  V30 8983 H 842.797 -2.99288 -2.56555 0
M  V30 8984 H 844.085 -3.5424 -3.65228 0
M  V30 8985 H 843.483 -1.00235 -5.56749 0
M  V30 8986 H 842.04 -1.53115 -6.33561 0
M  V30 8987 N 845.473 0.80434 -1.35529 0
M  V30 8988 C 846.383 1.94784 -1.30753 0
M  V30 8989 C 847.399 1.72703 -0.212071 0
M  V30 8990 O 848.575 1.96494 -0.441841 0
M  V30 8991 C 845.64 3.29406 -1.08133 0
M  V30 8992 C 844.701 3.64367 -2.27013 0
M  V30 8993 C 843.934 4.92566 -2.05463 0
M  V30 8994 O 844.157 5.61166 -1.02222 0
M  V30 8995 O 843.091 5.25838 -2.92879 0
M  V30 8996 H 846.917 2.01761 -2.26994 0
M  V30 8997 H 844.502 0.942448 -1.15924 0
M  V30 8998 H 846.384 4.09995 -0.973756 0
M  V30 8999 H 845.059 3.23355 -0.149444 0
M  V30 9000 H 843.966 2.84146 -2.43335 0
M  V30 9001 H 845.299 3.75125 -3.18656 0
M  V30 9002 N 846.951 1.19563 1.02676 0
M  V30 9003 C 847.881 0.959024 2.12897 0
M  V30 9004 C 848.862 -0.108382 1.69754 0
M  V30 9005 O 850.047 0.0470698 1.94143 0
M  V30 9006 C 847.177 0.499211 3.43693 0
M  V30 9007 C 846.131 1.5087 4.00528 0
M  V30 9008 C 845.457 0.905884 5.2697 0
M  V30 9009 C 846.757 2.88954 4.3509 0
M  V30 9010 H 848.451 1.88084 2.32948 0
M  V30 9011 H 845.997 0.905731 1.11949 0
M  V30 9012 H 847.95 0.320965 4.20176 0
M  V30 9013 H 846.674 -0.458205 3.2337 0
M  V30 9014 H 845.333 1.67413 3.26142 0
M  V30 9015 H 844.981 -0.0591506 5.02965 0
M  V30 9016 H 844.681 1.58 5.65959 0
M  V30 9017 H 846.205 0.73848 6.06118 0
M  V30 9018 H 847.619 2.75981 5.02501 0
M  V30 9019 H 846.016 3.53177 4.85166 0
M  V30 9020 H 847.086 3.41447 3.44299 0
M  V30 9021 N 848.429 -1.21819 0.999893 0
M  V30 9022 C 849.359 -2.26282 0.576096 0
M  V30 9023 C 850.34 -1.65317 -0.400537 0
M  V30 9024 O 851.525 -1.92028 -0.28964 0
M  V30 9025 C 848.655 -3.47147 -0.103145 0
M  V30 9026 C 847.609 -4.20594 0.792745 0
M  V30 9027 C 846.935 -5.34696 -0.0198026 0
M  V30 9028 C 848.235 -4.78533 2.09293 0
M  V30 9029 H 849.929 -2.61984 1.4493 0
M  V30 9030 H 847.475 -1.25935 0.698316 0
M  V30 9031 H 849.428 -4.1939 -0.411068 0
M  V30 9032 H 848.152 -3.1056 -1.01094 0
M  V30 9033 H 846.811 -3.50194 1.08442 0
M  V30 9034 H 846.459 -4.94352 -0.928729 0
M  V30 9035 H 846.159 -5.84764 0.576661 0
M  V30 9036 H 847.683 -6.09752 -0.321659 0
M  V30 9037 H 849.097 -5.42682 1.8485 0
M  V30 9038 H 847.494 -5.38968 2.63881 0
M  V30 9039 H 848.564 -3.98197 2.76708 0
M  V30 9040 N 849.908 -0.773975 -1.37286 0
M  V30 9041 C 850.871 -0.167974 -2.28584 0
M  V30 9042 C 851.871 0.625662 -1.48129 0
M  V30 9043 O 853.061 0.448924 -1.68316 0
M  V30 9044 C 850.193 0.769364 -3.32105 0
M  V30 9045 H 851.386 -0.972806 -2.83684 0
M  V30 9046 H 848.939 -0.542335 -1.46589 0
M  V30 9047 H 849.674 1.59912 -2.82132 0
M  V30 9048 H 849.459 0.202419 -3.91577 0
M  V30 9049 H 850.949 1.18872 -4.00324 0
M  V30 9050 N 851.386 1.48609 -0.524698 0
M  V30 9051 C 852.333 2.29539 0.240956 0
M  V30 9052 C 853.303 1.37033 0.938681 0
M  V30 9053 O 854.488 1.65996 0.940737 0
M  V30 9054 C 851.628 3.20278 1.28514 0
M  V30 9055 C 850.741 4.27858 0.596798 0
M  V30 9056 C 849.876 5.05784 1.62346 0
M  V30 9057 C 848.915 6.05173 0.918287 0
M  V30 9058 N 848.052 6.76176 1.89025 0
M  V30 9059 H 852.892 2.945 -0.455368 0
M  V30 9060 H 850.429 1.45188 -0.236403 0
M  V30 9061 H 852.387 3.71281 1.90279 0
M  V30 9062 H 851.017 2.57251 1.94992 0
M  V30 9063 H 850.069 3.80162 -0.134668 0
M  V30 9064 H 851.381 4.98782 0.0428506 0
M  V30 9065 H 850.535 5.60775 2.31553 0
M  V30 9066 H 849.274 4.34687 2.2113 0
M  V30 9067 H 848.279 5.49391 0.21212 0
M  V30 9068 H 849.504 6.78265 0.336633 0
M  V30 9069 H 847.45 6.07834 2.46726 0
M  V30 9070 H 847.367 7.43157 1.3876 0
M  V30 9071 H 848.635 7.35759 2.57446 0
M  V30 9072 N 852.864 0.259585 1.55447 0
M  V30 9073 C 854.28 -0.094961 1.59317 0
M  V30 9074 C 854.48 -1.55884 1.2768 0
M  V30 9075 O 853.536 -2.30528 1.0302 0
M  V30 9076 C 854.849 0.265669 2.99524 0
M  V30 9077 C 856.397 0.211007 3.12288 0
M  V30 9078 C 856.872 0.545851 4.54736 0
M  V30 9079 N 858.363 0.496823 4.60528 0
M  V30 9080 C 859.098 0.728909 5.68748 0
M  V30 9081 N 858.594 1.02479 6.85179 0
M  V30 9082 N 860.387 0.658756 5.58226 0
M  V30 9083 H 852.538 1.2141 1.7428 0
M  V30 9084 H 854.801 0.489404 0.811904 0
M  V30 9085 H 854.507 1.28316 3.27457 0
M  V30 9086 H 854.381 -0.401089 3.75061 0
M  V30 9087 H 856.768 -0.797172 2.84129 0
M  V30 9088 H 856.849 0.911799 2.38998 0
M  V30 9089 H 856.493 1.55164 4.83618 0
M  V30 9090 H 856.423 -0.17656 5.26304 0
M  V30 9091 H 858.914 0.277376 3.76881 0
M  V30 9092 H 859.227 1.18897 7.63599 0
M  V30 9093 H 857.572 1.0624 6.86832 0
M  V30 9094 H 860.763 0.427553 4.66143 0
M  V30 9095 H 860.936 0.84302 6.42493 0
M  V30 9096 N 854.342 -1.57594 -0.0133615 0
M  V30 9097 C 855.275 -2.02991 -1.04259 0
M  V30 9098 C 856.253 -0.917193 -1.34262 0
M  V30 9099 O 857.437 -1.18428 -1.46653 0
M  V30 9100 C 854.564 -2.41624 -2.37351 0
M  V30 9101 C 853.61 -3.63495 -2.231 0
M  V30 9102 S 854.443 -5.1198 -1.5696 0
M  V30 9103 C 855.599 -5.5387 -2.91511 0
M  V30 9104 H 855.832 -2.89973 -0.655985 0
M  V30 9105 H 853.365 -1.52769 -0.223827 0
M  V30 9106 H 855.323 -2.64551 -3.13884 0
M  V30 9107 H 853.984 -1.55065 -2.73155 0
M  V30 9108 H 853.177 -3.88233 -3.21389 0
M  V30 9109 H 852.779 -3.405 -1.54711 0
M  V30 9110 H 855.071 -5.55514 -3.87828 0
M  V30 9111 H 856.014 -6.53988 -2.71488 0
M  V30 9112 H 856.422 -4.81404 -2.94806 0
M  V30 9113 N 855.82 0.285905 -1.54985 0
M  V30 9114 C 856.767 1.35306 -1.86978 0
M  V30 9115 C 857.737 1.49682 -0.720046 0
M  V30 9116 O 858.922 1.64297 -0.970107 0
M  V30 9117 C 856.062 2.71059 -2.13591 0
M  V30 9118 C 855.175 2.6501 -3.41165 0
M  V30 9119 C 854.31 3.92856 -3.57544 0
M  V30 9120 C 853.349 3.81266 -4.78855 0
M  V30 9121 N 852.486 5.00919 -4.9196 0
M  V30 9122 H 857.326 1.07323 -2.78003 0
M  V30 9123 H 854.863 0.518776 -1.37649 0
M  V30 9124 H 856.821 3.50026 -2.27019 0
M  V30 9125 H 855.451 2.97271 -1.25816 0
M  V30 9126 H 854.503 1.77824 -3.36278 0
M  V30 9127 H 855.815 2.52342 -4.30262 0
M  V30 9128 H 854.969 4.80263 -3.70718 0
M  V30 9129 H 853.708 4.08377 -2.66608 0
M  V30 9130 H 852.713 2.92243 -4.65698 0
M  V30 9131 H 853.938 3.67277 -5.71213 0
M  V30 9132 H 851.884 5.16875 -4.03951 0
M  V30 9133 H 851.801 4.90732 -5.75081 0
M  V30 9134 H 853.069 5.89935 -5.09507 0
M  V30 9135 N 857.298 1.47698 0.54982 0
M  V30 9136 C 858.544 1.54931 1.30859 0
M  V30 9137 C 858.877 0.214021 1.93017 0
M  V30 9138 O 858.152 -0.778093 1.78258 0
M  V30 9139 C 858.435 2.67286 2.41309 0
M  V30 9140 C 858.288 4.10457 1.83971 0
M  V30 9141 C 859.607 2.75509 3.43195 0
M  V30 9142 H 856.726 0.56399 0.474431 0
M  V30 9143 H 859.368 1.79787 0.614541 0
M  V30 9144 H 857.518 2.46224 3.0051 0
M  V30 9145 H 859.19 4.42903 1.28974 0
M  V30 9146 H 857.433 4.18387 1.14606 0
M  V30 9147 H 858.104 4.84857 2.63851 0
M  V30 9148 H 860.58 2.94531 2.93923 0
M  V30 9149 H 859.456 3.55886 4.17895 0
M  V30 9150 H 859.717 1.82863 4.02509 0
M  V30 9151 N 858.776 -0.797141 1.35954 0
M  V30 9152 C 860.053 -1.54224 1.2031 0
M  V30 9153 C 860.433 -2.10013 -0.213926 0
M  V30 9154 O 859.781 -1.93292 -1.21862 0
M  V30 9155 C 859.991 -2.6433 2.27883 0
M  V30 9156 C 861.339 -3.32418 2.64165 0
M  V30 9157 O 862.363 -2.74607 2.26868 0
M  V30 9158 O 861.222 -4.36876 3.28331 0
M  V30 9159 H 858.316 -0.681857 0.467974 0
M  V30 9160 H 860.862 -0.836288 1.47663 0
M  V30 9161 H 859.634 -2.21044 3.22885 0
M  V30 9162 H 859.257 -3.42551 2.01853 0
M  V30 9163 N 860.254 -1.20106 -1.0204 0
M  V30 9164 C 861.67 -0.955099 -1.27867 0
M  V30 9165 C 861.87 0.367595 -1.98119 0
M  V30 9166 O 860.926 1.09705 -2.27423 0
M  V30 9167 C 862.239 -2.13507 -2.11744 0
M  V30 9168 C 863.787 -2.17563 -2.25023 0
M  V30 9169 C 864.262 -3.35035 -3.12275 0
M  V30 9170 N 865.753 -3.35024 -3.19864 0
M  V30 9171 C 866.488 -4.22566 -3.8759 0
M  V30 9172 N 865.984 -5.20278 -4.57474 0
M  V30 9173 N 867.777 -4.10418 -3.84075 0
M  V30 9174 H 859.928 -2.05193 -0.54861 0
M  V30 9175 H 862.191 -0.897689 -0.304728 0
M  V30 9176 H 861.897 -3.09275 -1.67456 0
M  V30 9177 H 861.771 -2.11281 -3.12474 0
M  V30 9178 H 864.158 -1.22359 -2.68537 0
M  V30 9179 H 864.239 -2.23838 -1.23815 0
M  V30 9180 H 863.883 -4.30522 -2.69468 0
M  V30 9181 H 863.813 -3.25996 -4.13563 0
M  V30 9182 H 866.304 -2.64299 -2.701 0
M  V30 9183 H 866.617 -5.83408 -5.06809 0
M  V30 9184 H 864.962 -5.24219 -4.56311 0
M  V30 9185 H 868.153 -3.33353 -3.28623 0
M  V30 9186 H 868.326 -4.78854 -4.36581 0
M  V30 9187 N 861.732 1.21287 -1.00634 0
M  V30 9188 C 862.642 2.27388 -0.577226 0
M  V30 9189 C 863.658 1.69791 0.380399 0
M  V30 9190 O 864.834 1.99918 0.2439 0
M  V30 9191 C 861.899 3.46588 0.0880532 0
M  V30 9192 C 860.96 4.19453 -0.914222 0
M  V30 9193 C 860.193 5.32962 -0.280596 0
M  V30 9194 O 860.416 5.62895 0.922265 0
M  V30 9195 O 859.35 5.93666 -0.992196 0
M  V30 9196 H 863.176 2.66289 -1.46028 0
M  V30 9197 H 860.761 1.2771 -0.775283 0
M  V30 9198 H 862.643 4.18881 0.460094 0
M  V30 9199 H 861.318 3.09585 0.945461 0
M  V30 9200 H 860.225 3.49376 -1.33744 0
M  V30 9201 H 861.558 4.6037 -1.74126 0
M  V30 9202 N 863.21 0.781244 1.36873 0
M  V30 9203 C 864.12 0.174981 2.33947 0
M  V30 9204 C 865.136 -0.668512 1.60645 0
M  V30 9205 O 866.312 -0.586213 1.9268 0
M  V30 9206 C 863.377 -0.686557 3.39834 0
M  V30 9207 C 862.438 0.174489 4.28945 0
M  V30 9208 C 861.671 -0.646024 5.29776 0
M  V30 9209 O 861.894 -1.88254 5.38439 0
M  V30 9210 O 860.828 -0.0502214 6.01879 0
M  V30 9211 H 864.654 0.977382 2.87543 0
M  V30 9212 H 862.239 0.542559 1.392 0
M  V30 9213 H 864.121 -1.1781 4.04597 0
M  V30 9214 H 862.796 -1.46699 2.8855 0
M  V30 9215 H 861.703 0.712604 3.6725 0
M  V30 9216 H 863.036 0.918232 4.83559 0
M  V30 9217 N 864.689 -1.48329 0.532571 0
M  V30 9218 C 866.105 -1.58458 0.190605 0
M  V30 9219 C 866.305 -1.53427 -1.30623 0
M  V30 9220 O 865.361 -1.4247 -2.08467 0
M  V30 9221 C 866.674 -2.89989 0.79543 0
M  V30 9222 C 868.222 -3.03523 0.7644 0
M  V30 9223 C 868.697 -4.37718 1.34785 0
M  V30 9224 N 870.188 -4.44292 1.30993 0
M  V30 9225 C 870.923 -5.4664 1.73124 0
M  V30 9226 N 870.419 -6.5593 2.22997 0
M  V30 9227 N 872.212 -5.37538 1.64346 0
M  V30 9228 H 864.363 -1.49842 1.50537 0
M  V30 9229 H 866.626 -0.71164 0.626316 0
M  V30 9230 H 866.332 -2.99333 1.84642 0
M  V30 9231 H 866.206 -3.76203 0.27403 0
M  V30 9232 H 868.593 -2.93789 -0.277831 0
M  V30 9233 H 868.674 -2.18912 1.3233 0
M  V30 9234 H 868.318 -4.48206 2.38902 0
M  V30 9235 H 868.248 -5.21019 0.764609 0
M  V30 9236 H 870.739 -3.65897 0.944868 0
M  V30 9237 H 871.052 -7.30167 2.53133 0
M  V30 9238 H 869.397 -6.56886 2.26992 0
M  V30 9239 H 872.588 -4.51052 1.25178 0
M  V30 9240 H 872.761 -6.17169 1.97501 0
M  V30 9241 N 866.167 -0.267825 -1.55308 0
M  V30 9242 C 867.13 0.60965 -2.20943 0
M  V30 9243 C 868.13 1.0869 -1.18504 0
M  V30 9244 O 869.32 0.988248 -1.43455 0
M  V30 9245 C 866.452 1.84027 -2.86961 0
M  V30 9246 H 867.645 0.0366806 -2.99878 0
M  V30 9247 H 865.198 -0.0183941 -1.56289 0
M  V30 9248 H 865.933 2.45394 -2.1202 0
M  V30 9249 H 865.718 1.50605 -3.62023 0
M  V30 9250 H 867.208 2.46442 -3.37129 0
M  V30 9251 N 867.645 1.57599 0.00500368 0
M  V30 9252 C 868.593 2.09223 1.01628 0
M  V30 9253 C 869.587 1.01113 1.35913 0
M  V30 9254 O 870.793 1.19583 1.34536 0
M  V30 9255 H 867.168 0.667999 0.345372 0
M  V30 9256 H 869.139 2.93188 0.555274 0
M  V30 9257 C 867.888 2.60674 2.30097 0
M  V30 9258 H 867.211 3.43491 2.04582 0
M  V30 9259 H 868.651 3.00479 2.99146 0
M  V30 9260 C 867.11 1.51862 3.00731 0
M  V30 9261 O 867.64 0.898651 3.91519 0
M  V30 9262 N 865.846 1.24729 2.62471 0
M  V30 9263 H 865.393 1.7533 1.88725 0
M  V30 9264 H 865.351 0.521437 3.10046 0
M  V30 9265 N 869.123 -0.277682 1.55134 0
M  V30 9266 C 870.053 -1.34742 1.90701 0
M  V30 9267 C 871.034 -1.51757 0.768354 0
M  V30 9268 O 872.219 -1.64879 1.02609 0
M  V30 9269 C 869.349 -2.70775 2.17481 0
M  V30 9270 C 868.303 -2.68497 3.33307 0
M  V30 9271 C 867.629 -4.08037 3.45557 0
M  V30 9272 C 868.929 -2.28178 4.69821 0
M  V30 9273 H 870.623 -1.05224 2.803 0
M  V30 9274 H 868.169 -0.504738 1.34864 0
M  V30 9275 H 870.122 -3.45719 2.40949 0
M  V30 9276 H 868.846 -3.01867 1.24676 0
M  V30 9277 H 867.505 -1.9601 3.09799 0
M  V30 9278 H 867.153 -4.36344 2.50226 0
M  V30 9279 H 866.853 -4.07409 4.23429 0
M  V30 9280 H 868.377 -4.84726 3.71312 0
M  V30 9281 H 869.791 -2.92843 4.92865 0
M  V30 9282 H 868.188 -2.3872 5.50575 0
M  V30 9283 H 869.258 -1.23308 4.6896 0
M  V30 9284 N 870.601 -1.47988 -0.541979 0
M  V30 9285 C 871.826 -1.59286 -1.32826 0
M  V30 9286 C 872.251 -0.24894 -1.86445 0
M  V30 9287 O 871.609 0.777581 -1.63778 0
M  V30 9288 C 871.657 -2.6334 -2.46343 0
M  V30 9289 O 870.761 -2.19667 -3.49028 0
M  V30 9290 H 870.102 -0.534543 -0.393903 0
M  V30 9291 H 872.632 -1.93885 -0.653427 0
M  V30 9292 H 872.642 -2.84238 -2.92699 0
M  V30 9293 H 871.317 -3.60913 -2.06675 0
M  V30 9294 H 869.894 -2.08932 -3.08872 0
M  V30 9295 N 872.079 0.78992 -1.36375 0
M  V30 9296 C 873.304 1.58389 -1.33895 0
M  V30 9297 C 873.729 1.8794 0.0774934 0
M  V30 9298 O 873.087 1.4785 1.0493 0
M  V30 9299 C 873.135 2.88201 -2.16732 0
M  V30 9300 O 872.239 3.81778 -1.55946 0
M  V30 9301 H 871.58 0.480471 -0.458305 0
M  V30 9302 H 874.11 0.979119 -1.79651 0
M  V30 9303 H 874.12 3.37475 -2.29292 0
M  V30 9304 H 872.795 2.66019 -3.19698 0
M  V30 9305 H 871.372 3.40371 -1.52323 0
M  V30 9306 N 873.557 1.20646 1.01402 0
M  V30 9307 C 874.489 0.915392 2.10127 0
M  V30 9308 C 875.502 -0.0978705 1.62506 0
M  V30 9309 O 876.691 0.133477 1.78 0
M  V30 9310 C 873.791 0.351304 3.37074 0
M  V30 9311 C 872.964 1.41673 4.13821 0
M  V30 9312 C 872.023 0.8635 5.19067 0
M  V30 9313 O 871.049 1.54481 5.47836 0
M  V30 9314 N 872.251 -0.325799 5.79585 0
M  V30 9315 H 875.016 1.85132 2.35682 0
M  V30 9316 H 872.577 1.11048 1.17813 0
M  V30 9317 H 874.569 -0.032996 4.04687 0
M  V30 9318 H 873.139 -0.489242 3.08748 0
M  V30 9319 H 872.359 1.97526 3.41141 0
M  V30 9320 H 873.647 2.1342 4.61876 0
M  V30 9321 H 873.045 -0.896534 5.58551 0
M  V30 9322 H 871.602 -0.651708 6.48534 0
M  V30 9323 N 875.035 -1.20752 1.01276 0
M  V30 9324 C 875.998 -2.2162 0.584583 0
M  V30 9325 C 876.998 -1.57094 -0.343215 0
M  V30 9326 O 878.188 -1.73696 -0.132433 0
M  V30 9327 C 875.32 -3.40583 -0.146872 0
M  V30 9328 H 876.513 -2.61015 1.47686 0
M  V30 9329 H 874.066 -1.34148 0.802123 0
M  V30 9330 H 874.801 -3.06686 -1.05424 0
M  V30 9331 H 874.586 -3.88642 0.51958 0
M  V30 9332 H 876.076 -4.15339 -0.433924 0
M  V30 9333 N 876.513 -0.788492 -1.36457 0
M  V30 9334 C 877.443 -0.200468 -2.32638 0
M  V30 9335 C 878.424 0.664031 -1.56603 0
M  V30 9336 O 879.609 0.598045 -1.84762 0
M  V30 9337 C 876.739 0.666274 -3.40849 0
M  V30 9338 C 875.693 -0.0982574 -4.27887 0
M  V30 9339 C 875.019 0.889018 -5.27258 0
M  V30 9340 C 876.319 -1.28692 -5.06197 0
M  V30 9341 H 878.013 -1.00399 -2.82065 0
M  V30 9342 H 875.559 -0.484237 -1.35614 0
M  V30 9343 H 877.512 1.08757 -4.07124 0
M  V30 9344 H 876.236 1.50249 -2.89987 0
M  V30 9345 H 874.895 -0.500525 -3.63167 0
M  V30 9346 H 874.543 1.72024 -4.7267 0
M  V30 9347 H 874.243 0.381909 -5.86358 0
M  V30 9348 H 875.767 1.30891 -5.96406 0
M  V30 9349 H 877.181 -0.941429 -5.65517 0
M  V30 9350 H 875.578 -1.72726 -5.74705 0
M  V30 9351 H 876.648 -2.08273 -4.37893 0
M  V30 9352 N 877.991 1.48044 -0.54043 0
M  V30 9353 C 878.923 2.2779 0.253854 0
M  V30 9354 C 879.936 1.35999 0.894883 0
M  V30 9355 O 881.125 1.60963 0.771563 0
M  V30 9356 C 878.225 3.09724 1.37566 0
M  V30 9357 C 877.398 4.29364 0.83459 0
M  V30 9358 C 876.457 4.93026 1.83881 0
M  V30 9359 O 875.483 5.51927 1.39159 0
M  V30 9360 N 876.685 4.86207 3.17149 0
M  V30 9361 H 879.45 2.96597 -0.430125 0
M  V30 9362 H 877.011 1.57487 -0.375423 0
M  V30 9363 H 879.003 3.49181 2.04584 0
M  V30 9364 H 877.573 2.43269 1.96314 0
M  V30 9365 H 876.793 3.94198 -0.0118878 0
M  V30 9366 H 878.081 5.06787 0.452155 0
M  V30 9367 H 877.479 4.39523 3.56141 0
M  V30 9368 H 876.036 5.29733 3.79771 0
M  V30 9369 N 879.47 0.276058 1.55163 0
M  V30 9370 C 880.403 -0.652386 2.18676 0
M  V30 9371 C 881.381 -1.15151 1.148 0
M  V30 9372 O 882.565 -1.22431 1.43328 0
M  V30 9373 C 879.692 -1.88982 2.81076 0
M  V30 9374 C 878.738 -1.52609 3.98262 0
M  V30 9375 S 879.571 -0.603445 5.32089 0
M  V30 9376 C 880.727 -1.84923 5.97958 0
M  V30 9377 H 880.96 -0.112733 2.97086 0
M  V30 9378 H 878.493 0.0603118 1.54282 0
M  V30 9379 H 880.451 -2.60007 3.17658 0
M  V30 9380 H 879.112 -2.40061 2.02557 0
M  V30 9381 H 878.305 -2.44689 4.40617 0
M  V30 9382 H 877.907 -0.89601 3.63108 0
M  V30 9383 H 880.199 -2.79303 6.17249 0
M  V30 9384 H 881.142 -1.46868 6.92702 0
M  V30 9385 H 881.55 -2.0146 5.27327 0
M  V30 9386 N 880.948 -1.576 0.00335426 0
M  V30 9387 C 882.173 -1.95398 -0.695311 0
M  V30 9388 C 882.598 -0.878476 -1.66326 0
M  V30 9389 O 881.956 0.163086 -1.80565 0
M  V30 9390 C 882.004 -3.32293 -1.40049 0
M  V30 9391 O 881.108 -3.26834 -2.51502 0
M  V30 9392 H 880.449 -0.637796 -0.184694 0
M  V30 9393 H 882.979 -2.04519 0.057543 0
M  V30 9394 H 882.989 -3.67936 -1.76316 0
M  V30 9395 H 881.664 -4.10123 -0.690803 0
M  V30 9396 H 880.241 -3.02872 -2.17539 0
M  V30 9397 N 882.426 0.269451 -1.5528 0
M  V30 9398 C 883.356 1.33729 -1.91413 0
M  V30 9399 C 884.337 1.51348 -0.776391 0
M  V30 9400 O 885.522 1.64332 -1.03482 0
M  V30 9401 C 882.652 2.69618 -2.18914 0
M  V30 9402 C 881.606 2.66725 -3.34726 0
M  V30 9403 C 880.932 4.06199 -3.47716 0
M  V30 9404 C 882.232 2.25684 -4.71025 0
M  V30 9405 H 883.926 1.03736 -2.80854 0
M  V30 9406 H 881.472 0.497579 -1.3513 0
M  V30 9407 H 883.425 3.44436 -2.42779 0
M  V30 9408 H 882.149 3.01201 -1.26275 0
M  V30 9409 H 880.808 1.94365 -3.10834 0
M  V30 9410 H 880.456 4.3501 -2.52537 0
M  V30 9411 H 880.156 4.05157 -4.25583 0
M  V30 9412 H 881.68 4.8275 -3.73877 0
M  V30 9413 H 883.094 2.90225 -4.94411 0
M  V30 9414 H 881.491 2.35797 -5.51833 0
M  V30 9415 H 882.561 1.20819 -4.69607 0
M  V30 9416 N 883.904 1.48273 0.534124 0
M  V30 9417 C 885.181 1.46567 1.29528 0
M  V30 9418 C 885.561 0.17509 2.10373 0
M  V30 9419 O 884.909 -0.843228 2.12372 0
M  V30 9420 C 885.119 2.72519 2.18023 0
M  V30 9421 C 886.467 3.2068 2.78298 0
M  V30 9422 O 887.491 2.73408 2.28313 0
M  V30 9423 O 886.35 4.02924 3.69208 0
M  V30 9424 H 883.444 0.585151 0.584403 0
M  V30 9425 H 885.99 1.60502 0.551119 0
M  V30 9426 H 884.762 3.57965 1.5804 0
M  V30 9427 H 884.385 2.61285 2.99693 0
M  V30 9428 N 885.382 -0.782676 1.36792 0
M  V30 9429 C 886.612 -1.56934 1.3437 0
M  V30 9430 C 887.02 -1.89049 -0.0754828 0
M  V30 9431 O 886.363 -1.51103 -1.04467 0
M  V30 9432 C 886.425 -2.91311 2.10661 0
M  V30 9433 C 886.089 -2.81889 3.59705 0
M  V30 9434 C 887.086 -2.53668 4.53815 0
M  V30 9435 C 884.771 -3.00254 4.02682 0
M  V30 9436 C 886.765 -2.43925 5.8888 0
M  V30 9437 C 884.452 -2.90132 5.37835 0
M  V30 9438 C 885.45 -2.62006 6.30747 0
M  V30 9439 O 885.138 -2.5189 7.63418 0
M  V30 9440 H 884.87 -0.493194 0.462316 0
M  V30 9441 H 887.424 -0.978791 1.80579 0
M  V30 9442 H 885.654 -3.52443 1.59125 0
M  V30 9443 H 887.343 -3.52632 2.01012 0
M  V30 9444 H 888.109 -2.39176 4.21924 0
M  V30 9445 H 883.988 -3.21151 3.30731 0
M  V30 9446 H 887.532 -2.21892 6.6137 0
M  V30 9447 H 883.429 -3.04189 5.69332 0
M  V30 9448 H 884.197 -2.67321 7.73616 0
M  V30 9449 N 886.86 -1.21182 -1.00761 0
M  V30 9450 C 888.108 -1.02543 -1.74153 0
M  V30 9451 C 888.429 0.442372 -1.89916 0
M  V30 9452 O 887.699 1.31927 -1.44818 0
M  V30 9453 H 886.279 -0.37644 -0.645214 0
M  V30 9454 H 888.941 -1.52446 -1.21434 0
M  V30 9455 H 888.037 -1.49122 -2.7417 0
M  V30 9456 N 888.338 1.20213 -1.01915 0
M  V30 9457 C 889.585 1.89647 -0.709955 0
M  V30 9458 C 889.913 1.7901 0.760631 0
M  V30 9459 O 889.168 1.17028 1.56853 0
M  V30 9460 C 889.467 3.40232 -1.09438 0
M  V30 9461 C 889.133 3.7107 -2.5616 0
M  V30 9462 C 887.795 3.79196 -2.96249 0
M  V30 9463 C 890.147 3.85169 -3.51133 0
M  V30 9464 C 887.475 3.98882 -4.30244 0
M  V30 9465 C 889.827 4.06365 -4.8482 0
M  V30 9466 C 888.491 4.12722 -5.24611 0
M  V30 9467 H 887.761 0.693967 -0.259791 0
M  V30 9468 H 890.408 1.42419 -1.2802 0
M  V30 9469 H 888.713 3.89292 -0.442596 0
M  V30 9470 H 890.41 3.92257 -0.832811 0
M  V30 9471 H 887 3.65346 -2.24099 0
M  V30 9472 H 891.184 3.78243 -3.21319 0
M  V30 9473 H 886.44 4.02039 -4.60624 0
M  V30 9474 H 890.614 4.16216 -5.58334 0
M  V30 9475 H 888.241 4.27728 -6.28453 0
M  V30 9476 N 889.816 0.795718 1.36037 0
M  V30 9477 C 891.062 0.371574 1.99367 0
M  V30 9478 C 891.395 -1.0557 1.62999 0
M  V30 9479 O 890.67 -1.73051 0.887895 0
M  V30 9480 C 890.953 0.542622 3.55988 0
M  V30 9481 C 890.806 2.01404 4.0219 0
M  V30 9482 C 892.125 -0.0384527 4.40083 0
M  V30 9483 H 889.244 0.136483 0.724252 0
M  V30 9484 H 891.886 1.00323 1.61355 0
M  V30 9485 H 890.036 0.0049053 3.885 0
M  V30 9486 H 891.708 2.6133 3.80137 0
M  V30 9487 H 889.951 2.51439 3.53498 0
M  V30 9488 H 890.622 2.08466 5.11122 0
M  V30 9489 H 893.098 0.420634 4.13968 0
M  V30 9490 H 891.974 0.111214 5.48787 0
M  V30 9491 H 892.235 -1.13116 4.27384 0
M  V30 9492 N 891.294 -1.47756 0.548274 0
M  V30 9493 C 892.522 -2.06884 0.0254873 0
M  V30 9494 C 892.937 -1.40225 -1.26422 0
M  V30 9495 O 892.294 -0.495776 -1.75637 0
M  V30 9496 C 892.345 -3.61036 -0.183134 0
M  V30 9497 O 892.066 -4.25195 1.05549 0
M  V30 9498 C 893.567 -4.37008 -0.744222 0
M  V30 9499 H 890.787 -0.669697 0.041789 0
M  V30 9500 H 893.331 -1.89888 0.759138 0
M  V30 9501 H 891.486 -3.77576 -0.866886 0
M  V30 9502 H 891.9 -5.17606 0.847629 0
M  V30 9503 H 893.374 -5.45579 -0.839529 0
M  V30 9504 H 893.851 -4.0268 -1.75344 0
M  V30 9505 H 894.457 -4.25191 -0.0964542 0
M  V30 9506 N 892.772 -0.284283 -1.55015 0
M  V30 9507 C 894.183 0.211681 -1.85496 0
M  V30 9508 C 894.534 1.54735 -1.2063 0
M  V30 9509 O 893.659 2.10594 -0.497918 0
M  V30 9510 C 894.254 0.390864 -3.36538 0
M  V30 9511 C 892.813 0.831055 -3.67111 0
M  V30 9512 C 891.96 -0.0703581 -2.77211 0
M  V30 9513 H 894.911 -0.505803 -1.50424 0
M  V30 9514 H 894.932 1.22803 -3.60138 0
M  V30 9515 H 894.444 -0.581409 -3.8372 0
M  V30 9516 H 892.545 1.81447 -3.25434 0
M  V30 9517 H 892.658 0.662026 -4.74504 0
M  V30 9518 H 891.022 0.447528 -2.50737 0
M  V30 9519 H 891.805 -1.03868 -3.2721 0
M  V30 9520 N 894.251 1.57596 -0.0117121 0
M  V30 9521 C 895.181 2.12188 0.9746 0
M  V30 9522 C 896.162 1.03379 1.35081 0
M  V30 9523 O 897.347 1.31123 1.4325 0
M  V30 9524 C 894.477 2.63477 2.26268 0
M  V30 9525 C 893.431 3.76917 2.02774 0
M  V30 9526 C 892.757 4.14566 3.37697 0
M  V30 9527 C 894.057 5.03715 1.38089 0
M  V30 9528 H 895.751 2.9485 0.520007 0
M  V30 9529 H 893.297 1.41836 0.248685 0
M  V30 9530 H 895.25 3.00299 2.95633 0
M  V30 9531 H 893.974 1.77953 2.73862 0
M  V30 9532 H 892.633 3.40507 1.35832 0
M  V30 9533 H 892.281 3.26048 3.83016 0
M  V30 9534 H 891.981 4.91 3.22789 0
M  V30 9535 H 893.505 4.53956 4.08358 0
M  V30 9536 H 894.919 5.38233 1.97428 0
M  V30 9537 H 893.316 5.85032 1.33634 0
M  V30 9538 H 894.386 4.83624 0.351575 0
M  V30 9539 N 895.729 -0.261212 1.5542 0
M  V30 9540 C 896.957 -1.00916 1.8062 0
M  V30 9541 C 897.372 -1.79494 0.585444 0
M  V30 9542 O 896.729 -1.76974 -0.445702 0
M  V30 9543 C 896.78 -1.95841 3.03856 0
M  V30 9544 O 896.501 -1.20445 4.21218 0
M  V30 9545 C 898.002 -2.82352 3.41749 0
M  V30 9546 H 895.222 -0.297596 0.601397 0
M  V30 9547 H 897.766 -0.288427 2.02456 0
M  V30 9548 H 895.921 -2.63361 2.84112 0
M  V30 9549 H 896.335 -1.84528 4.90968 0
M  V30 9550 H 897.809 -3.44733 4.31118 0
M  V30 9551 H 898.286 -3.5273 2.61683 0
M  V30 9552 H 898.892 -2.20306 3.63793 0
M  V30 9553 N 897.207 -1.48554 -0.526253 0
M  V30 9554 C 898.432 -1.60686 -1.31129 0
M  V30 9555 C 898.857 -0.268701 -1.86171 0
M  V30 9556 O 898.215 0.760167 -1.64594 0
M  V30 9557 C 898.263 -2.65938 -2.43536 0
M  V30 9558 O 897.367 -2.23356 -3.46678 0
M  V30 9559 H 896.708 -0.538691 -0.388211 0
M  V30 9560 H 899.238 -1.94567 -0.632826 0
M  V30 9561 H 899.248 -2.87327 -2.89668 0
M  V30 9562 H 897.923 -3.63085 -2.02835 0
M  V30 9563 H 896.5 -2.12196 -3.06639 0
M  V30 9564 N 898.685 0.775411 -1.37205 0
M  V30 9565 C 899.618 1.8957 -1.27037 0
M  V30 9566 C 900.596 1.61891 -0.151643 0
M  V30 9567 O 901.78 1.85673 -0.325218 0
M  V30 9568 C 898.907 3.24712 -0.963316 0
M  V30 9569 C 897.953 3.71306 -2.09842 0
M  V30 9570 S 898.786 3.8541 -3.71778 0
M  V30 9571 C 899.942 5.23406 -3.43216 0
M  V30 9572 H 900.175 1.97905 -2.21857 0
M  V30 9573 H 897.708 0.936127 -1.22784 0
M  V30 9574 H 899.666 4.02768 -0.792983 0
M  V30 9575 H 898.327 3.14083 -0.0326561 0
M  V30 9576 H 897.52 4.69271 -1.83849 0
M  V30 9577 H 897.122 3.00341 -2.2287 0
M  V30 9578 H 899.414 6.08454 -2.97977 0
M  V30 9579 H 900.357 5.54409 -4.40495 0
M  V30 9580 H 900.765 4.9117 -2.78231 0
M  V30 9581 N 900.163 1.21714 1.00117 0
M  V30 9582 C 901.388 1.06357 1.78054 0
M  V30 9583 C 901.813 -0.382075 1.84179 0
M  V30 9584 O 901.171 -1.27575 1.28819 0
M  V30 9585 C 901.219 1.66982 3.19608 0
M  V30 9586 O 900.323 0.917892 4.02055 0
M  V30 9587 H 899.664 0.374074 0.548602 0
M  V30 9588 H 902.194 1.61338 1.25822 0
M  V30 9589 H 902.204 1.71363 3.70268 0
M  V30 9590 H 900.879 2.72185 3.14465 0
M  V30 9591 H 899.456 0.949473 3.6061 0
M  V30 9592 N 901.641 -1.19671 1.02551 0
M  V30 9593 C 902.89 -1.88591 0.715272 0
M  V30 9594 C 903.203 -1.80274 -0.758982 0
M  V30 9595 O 904.409 -2.44413 -1.18213 0
M  V30 9596 C 902.865 -3.38264 1.22905 0
M  V30 9597 C 902.473 -3.55146 2.73084 0
M  V30 9598 C 904.217 -4.12683 0.994649 0
M  V30 9599 C 902.124 -4.98693 3.17897 0
M  V30 9600 H 901.054 -0.706326 0.263857 0
M  V30 9601 H 903.705 -1.35322 1.23936 0
M  V30 9602 H 902.087 -3.9091 0.632892 0
M  V30 9603 H 903.261 -3.12845 3.38326 0
M  V30 9604 H 901.576 -2.94112 2.94766 0
M  V30 9605 H 904.173 -5.18536 1.30478 0
M  V30 9606 H 904.516 -4.16243 -0.0686466 0
M  V30 9607 H 905.049 -3.66164 1.55464 0
M  V30 9608 H 901.788 -5.00293 4.23542 0
M  V30 9609 H 901.308 -5.4177 2.57381 0
M  V30 9610 H 902.987 -5.67327 3.11045 0
M  V30 9611 N 903.119 -0.802921 -1.35613 0
M  V30 9612 C 904.535 -0.486214 -1.52014 0
M  V30 9613 C 904.735 0.993219 -1.75321 0
M  V30 9614 O 903.791 1.77835 -1.79251 0
M  V30 9615 C 905.104 -1.32839 -2.69767 0
M  V30 9616 C 906.652 -1.32346 -2.83643 0
M  V30 9617 C 907.127 -2.14967 -4.04417 0
M  V30 9618 N 908.618 -2.12484 -4.11588 0
M  V30 9619 C 909.353 -2.73173 -5.04147 0
M  V30 9620 N 908.849 -3.42774 -6.02061 0
M  V30 9621 N 910.642 -2.62834 -4.96865 0
M  V30 9622 H 902.793 -1.76109 -1.18741 0
M  V30 9623 H 905.056 -0.74936 -0.580658 0
M  V30 9624 H 904.762 -2.37813 -2.5911 0
M  V30 9625 H 904.636 -0.979058 -3.64272 0
M  V30 9626 H 907.023 -0.281586 -2.93753 0
M  V30 9627 H 907.104 -1.71264 -1.90006 0
M  V30 9628 H 906.748 -3.19193 -3.95068 0
M  V30 9629 H 906.678 -1.73411 -4.97228 0
M  V30 9630 H 909.169 -1.61839 -3.41492 0
M  V30 9631 H 909.482 -3.86378 -6.69277 0
M  V30 9632 H 907.827 -3.46878 -6.02246 0
M  V30 9633 H 911.018 -2.08049 -4.19325 0
M  V30 9634 H 911.191 -3.10421 -5.68808 0
M  V30 9635 N 904.597 1.47463 -0.556102 0
M  V30 9636 C 905.845 2.02075 -0.0315712 0
M  V30 9637 C 906.166 1.43292 1.32259 0
M  V30 9638 O 905.436 0.60771 1.86236 0
M  V30 9639 H 904.016 0.74695 -0.0086816 0
M  V30 9640 H 906.678 1.80879 -0.725859 0
M  V30 9641 H 905.774 3.12047 0.0573538 0
M  V30 9642 N 906.075 0.2925 1.54862 0
M  V30 9643 C 907.008 -0.629155 2.19356 0
M  V30 9644 C 907.986 -1.13927 1.16014 0
M  V30 9645 O 909.17 -1.20904 1.44618 0
M  V30 9646 C 906.297 -1.8599 2.83064 0
M  V30 9647 C 905.343 -1.48376 3.99859 0
M  V30 9648 S 906.176 -0.546976 5.32699 0
M  V30 9649 C 907.332 -1.7857 5.99886 0
M  V30 9650 H 907.565 -0.0812166 2.97189 0
M  V30 9651 H 905.098 0.0766721 1.5421 0
M  V30 9652 H 907.056 -2.56623 3.20398 0
M  V30 9653 H 905.717 -2.37899 2.05092 0
M  V30 9654 H 904.91 -2.40002 4.43187 0
M  V30 9655 H 904.512 -0.857447 3.64038 0
M  V30 9656 H 906.804 -2.7274 6.20177 0
M  V30 9657 H 907.747 -1.39513 6.9422 0
M  V30 9658 H 908.155 -1.95856 5.29434 0
M  V30 9659 N 907.553 -1.57587 0.0200696 0
M  V30 9660 C 908.516 -2.08595 -0.949767 0
M  V30 9661 C 909.516 -0.999215 -1.25985 0
M  V30 9662 O 910.706 -1.26115 -1.2017 0
M  V30 9663 C 907.838 -2.54424 -2.26895 0
M  V30 9664 H 909.031 -2.95563 -0.508161 0
M  V30 9665 H 906.584 -1.54631 -0.227798 0
M  V30 9666 H 907.319 -1.70758 -2.75703 0
M  V30 9667 H 907.104 -3.3381 -2.05702 0
M  V30 9668 H 908.594 -2.94144 -2.96427 0
M  V30 9669 N 909.032 0.252966 -1.55557 0
M  V30 9670 C 910.309 1.00432 -1.67847 0
M  V30 9671 C 910.689 2.03587 -0.55816 0
M  V30 9672 O 910.037 2.24239 0.439197 0
M  V30 9673 C 910.247 1.64313 -3.079 0
M  V30 9674 C 911.595 2.14726 -3.66303 0
M  V30 9675 O 912.619 1.74264 -3.10661 0
M  V30 9676 O 911.478 2.89 -4.63833 0
M  V30 9677 H 908.572 0.467102 -0.682455 0
M  V30 9678 H 911.118 0.247233 -1.67889 0
M  V30 9679 H 909.89 0.896681 -3.80888 0
M  V30 9680 H 909.513 2.46657 -3.11843 0
M  V30 9681 N 910.51 1.48831 0.518367 0
M  V30 9682 C 911.442 1.60317 1.63802 0
M  V30 9683 C 912.455 0.486771 1.55352 0
M  V30 9684 O 913.644 0.758111 1.61601 0
M  V30 9685 C 910.744 1.52771 3.02513 0
M  V30 9686 C 909.917 2.79649 3.36326 0
M  V30 9687 C 908.976 2.65396 4.54369 0
M  V30 9688 O 908.002 3.39304 4.57013 0
M  V30 9689 N 909.204 1.75784 5.53245 0
M  V30 9690 H 911.969 2.56878 1.54383 0
M  V30 9691 H 909.53 1.45701 0.705889 0
M  V30 9692 H 911.522 1.40914 3.79375 0
M  V30 9693 H 910.092 0.641381 3.05949 0
M  V30 9694 H 909.312 3.05985 2.48529 0
M  V30 9695 H 910.6 3.63799 3.55707 0
M  V30 9696 H 909.998 1.14961 5.53896 0
M  V30 9697 H 908.555 1.69859 6.29278 0
M  V30 9698 N 911.988 -0.768124 1.37614 0
M  V30 9699 C 913.265 -1.51637 1.23554 0
M  V30 9700 C 913.645 -2.1042 -0.169331 0
M  V30 9701 O 912.993 -1.95834 -1.17735 0
M  V30 9702 C 913.203 -2.59436 2.33439 0
M  V30 9703 C 914.551 -3.2674 2.71157 0
M  V30 9704 O 915.575 -2.69733 2.32642 0
M  V30 9705 O 914.434 -4.29814 3.37524 0
M  V30 9706 H 911.528 -0.671778 0.482332 0
M  V30 9707 H 914.074 -0.804779 1.49403 0
M  V30 9708 H 912.846 -2.14146 3.27502 0
M  V30 9709 H 912.469 -3.38192 2.09073 0
M  V30 9710 N 913.466 -1.22244 -0.994698 0
M  V30 9711 C 914.714 -1.04384 -1.73056 0
M  V30 9712 C 915.035 0.422204 -1.90374 0
M  V30 9713 O 914.305 1.30383 -1.46209 0
M  V30 9714 H 912.885 -0.383263 -0.641185 0
M  V30 9715 H 915.547 -1.53725 -1.1981 0
M  V30 9716 H 914.643 -1.52021 -2.72573 0
M  V30 9717 N 914.944 1.19125 -1.03184 0
M  V30 9718 C 915.874 2.24675 -0.635889 0
M  V30 9719 C 916.855 1.66321 0.356565 0
M  V30 9720 O 918.04 1.92728 0.238625 0
M  V30 9721 C 915.17 3.47298 0.011069 0
M  V30 9722 C 914.124 4.18345 -0.903979 0
M  V30 9723 C 913.45 5.34561 -0.12197 0
M  V30 9724 C 914.75 4.72816 -2.21907 0
M  V30 9725 H 916.444 2.5805 -1.51825 0
M  V30 9726 H 913.99 1.24039 -0.73146 0
M  V30 9727 H 915.943 4.20333 0.299729 0
M  V30 9728 H 914.667 3.13131 0.928245 0
M  V30 9729 H 913.326 3.47196 -1.17688 0
M  V30 9730 H 912.974 4.9664 0.797334 0
M  V30 9731 H 912.674 5.83029 -0.731498 0
M  V30 9732 H 914.198 6.10391 0.159881 0
M  V30 9733 H 915.612 5.3759 -1.99173 0
M  V30 9734 H 914.009 5.31782 -2.78078 0
M  V30 9735 H 915.079 3.9072 -2.87168 0
M  V30 9736 N 916.422 0.810101 1.35185 0
M  V30 9737 C 917.369 0.220927 2.2974 0
M  V30 9738 C 918.339 -0.647024 1.5298 0
M  V30 9739 O 919.524 -0.591367 1.81404 0
M  V30 9740 C 916.664 -0.62167 3.39454 0
M  V30 9741 C 915.777 0.267104 4.31173 0
M  V30 9742 C 914.912 -0.583833 5.27982 0
M  V30 9743 C 913.951 0.305123 6.11339 0
M  V30 9744 N 913.088 -0.505992 7.00274 0
M  V30 9745 H 917.928 1.03266 2.79536 0
M  V30 9746 H 915.465 0.520768 1.37573 0
M  V30 9747 H 917.423 -1.12539 4.01735 0
M  V30 9748 H 916.053 -1.39863 2.90926 0
M  V30 9749 H 915.105 0.88895 3.69867 0
M  V30 9750 H 916.417 0.951182 4.89647 0
M  V30 9751 H 915.571 -1.15254 5.95652 0
M  V30 9752 H 914.31 -1.30146 4.70014 0
M  V30 9753 H 913.315 0.886075 5.42613 0
M  V30 9754 H 914.54 1.02067 6.71386 0
M  V30 9755 H 912.486 -1.20753 6.4479 0
M  V30 9756 H 912.403 0.119966 7.55905 0
M  V30 9757 H 913.671 -1.05787 7.72288 0
M  V30 9758 N 917.9 -1.47166 0.563914 0
M  V30 9759 C 919.311 -1.86231 0.132307 0
M  V30 9760 C 919.662 -1.46976 -1.29971 0
M  V30 9761 O 918.787 -0.875911 -1.97881 0
M  V30 9762 C 919.382 -3.37996 0.233335 0
M  V30 9763 C 917.941 -3.76127 -0.143278 0
M  V30 9764 C 917.088 -2.71212 0.577857 0
M  V30 9765 H 920.039 -1.38588 0.773249 0
M  V30 9766 H 920.06 -3.76558 -0.546309 0
M  V30 9767 H 919.572 -3.66535 1.27568 0
M  V30 9768 H 917.673 -3.53205 -1.18648 0
M  V30 9769 H 917.786 -4.78595 0.219952 0
M  V30 9770 H 916.15 -2.54692 0.020186 0
M  V30 9771 H 916.933 -3.02593 1.62149 0
M  V30 9772 N 919.378 -0.300708 -1.54705 0
M  V30 9773 C 920.606 0.31127 -2.04545 0
M  V30 9774 C 921.021 1.47542 -1.178 0
M  V30 9775 O 920.378 1.81361 -0.203571 0
M  V30 9776 C 920.429 0.767783 -3.53253 0
M  V30 9777 O 920.15 -0.350027 -4.36699 0
M  V30 9778 C 921.651 1.44494 -4.1909 0
M  V30 9779 H 918.871 0.067668 -0.667579 0
M  V30 9780 H 921.415 -0.440254 -1.99705 0
M  V30 9781 H 919.57 1.46933 -3.58454 0
M  V30 9782 H 919.984 0.00534038 -5.245 0
M  V30 9783 H 921.458 1.71553 -5.24665 0
M  V30 9784 H 921.935 2.3849 -3.68808 0
M  V30 9785 H 922.541 0.786581 -4.17963 0
M  V30 9786 N 920.856 1.57574 -0.0284266 0
M  V30 9787 C 922.105 1.9095 0.649704 0
M  V30 9788 C 922.418 0.906421 1.7333 0
M  V30 9789 O 923.624 1.1314 2.46803 0
M  V30 9790 C 922.08 3.39061 1.20687 0
M  V30 9791 C 921.688 4.47726 0.156597 0
M  V30 9792 C 923.432 3.81505 1.86156 0
M  V30 9793 C 921.339 5.86935 0.725365 0
M  V30 9794 H 920.269 0.712589 0.24644 0
M  V30 9795 H 922.92 1.83261 -0.0936143 0
M  V30 9796 H 921.302 3.41679 2.00178 0
M  V30 9797 H 922.476 4.56667 -0.6158 0
M  V30 9798 H 920.791 4.14481 -0.399288 0
M  V30 9799 H 923.388 4.82865 2.29665 0
M  V30 9800 H 923.731 3.16529 2.70398 0
M  V30 9801 H 924.264 3.81307 1.13356 0
M  V30 9802 H 921.003 6.55453 -0.0789081 0
M  V30 9803 H 920.523 5.81602 1.46627 0
M  V30 9804 H 922.202 6.35483 1.21532 0
M  V30 9805 N 922.334 -0.244713 1.55689 0
M  V30 9806 C 923.611 -0.995407 1.68378 0
M  V30 9807 C 923.991 -2.03288 0.568949 0
M  V30 9808 O 923.339 -2.24469 -0.427299 0
M  V30 9809 C 923.549 -1.62678 3.08767 0
M  V30 9810 C 924.897 -2.1278 3.67437 0
M  V30 9811 O 925.921 -1.72614 3.11581 0
M  V30 9812 O 924.78 -2.86536 4.65359 0
M  V30 9813 H 921.874 -0.463476 0.684923 0
M  V30 9814 H 924.42 -0.238326 1.68018 0
M  V30 9815 H 923.192 -0.876469 3.81358 0
M  V30 9816 H 922.815 -2.45 3.13146 0
M  V30 9817 N 923.813 -1.49104 -0.510467 0
M  V30 9818 C 924.76 -1.65074 -1.61305 0
M  V30 9819 C 925.73 -0.492362 -1.58635 0
M  V30 9820 O 926.915 -0.718241 -1.76765 0
M  V30 9821 C 924.055 -1.71457 -2.99493 0
M  V30 9822 C 923.168 -2.98536 -3.12251 0
M  V30 9823 C 922.303 -2.95957 -4.41116 0
M  V30 9824 C 921.342 -4.17655 -4.47471 0
M  V30 9825 N 920.479 -4.13041 -5.67751 0
M  V30 9826 H 925.319 -2.59222 -1.46996 0
M  V30 9827 H 922.856 -1.28535 -0.715346 0
M  V30 9828 H 924.814 -1.7314 -3.79577 0
M  V30 9829 H 923.444 -0.807834 -3.12528 0
M  V30 9830 H 922.496 -3.06509 -2.25292 0
M  V30 9831 H 923.808 -3.88527 -3.12807 0
M  V30 9832 H 922.962 -2.96149 -5.2951 0
M  V30 9833 H 921.701 -2.03728 -4.4311 0
M  V30 9834 H 920.706 -4.17717 -3.57481 0
M  V30 9835 H 921.931 -5.11066 -4.472 0
M  V30 9836 H 919.877 -3.23643 -5.70606 0
M  V30 9837 H 919.794 -4.96757 -5.69884 0
M  V30 9838 H 921.062 -4.17322 -6.58379 0
M  V30 9839 N 925.291 0.760815 -1.38019 0
M  V30 9840 C 926.702 1.33773 -1.30237 0
M  V30 9841 C 927.053 1.96148 0.0451153 0
M  V30 9842 O 926.178 1.94574 0.9471 0
M  V30 9843 C 926.773 2.43227 -2.35851 0
M  V30 9844 C 925.332 2.96659 -2.31669 0
M  V30 9845 C 924.479 1.69972 -2.191 0
M  V30 9846 H 927.43 0.560237 -1.48482 0
M  V30 9847 H 927.451 3.22985 -2.01149 0
M  V30 9848 H 926.963 1.978 -3.33911 0
M  V30 9849 H 925.064 3.46433 -1.37167 0
M  V30 9850 H 925.177 3.51529 -3.25521 0
M  V30 9851 H 923.541 1.9332 -1.65829 0
M  V30 9852 H 924.324 1.26633 -3.19091 0
M  V30 9853 N 926.769 1.22769 0.988202 0
M  V30 9854 C 927.994 1.08239 1.76915 0
M  V30 9855 C 928.419 -0.362519 1.84574 0
M  V30 9856 O 927.777 -1.26202 1.30165 0
M  V30 9857 C 927.825 1.70363 3.17819 0
M  V30 9858 O 926.929 0.960484 4.01059 0
M  V30 9859 H 926.27 0.379872 0.544604 0
M  V30 9860 H 928.8 1.62663 1.24104 0
M  V30 9861 H 928.81 1.7528 3.6843 0
M  V30 9862 H 927.485 2.75505 3.1156 0
M  V30 9863 H 926.062 0.987667 3.59582 0
M  V30 9864 N 928.247 -1.18576 1.03814 0
M  V30 9865 C 929.157 -2.25778 0.637311 0
M  V30 9866 C 930.173 -1.7074 -0.335248 0
M  V30 9867 O 931.349 -2.00494 -0.19081 0
M  V30 9868 C 928.414 -3.467 0.00386953 0
M  V30 9869 C 927.475 -4.16881 1.02511 0
M  V30 9870 C 926.708 -5.32031 0.421802 0
M  V30 9871 O 926.931 -5.65142 -0.772699 0
M  V30 9872 O 925.865 -5.90826 1.14925 0
M  V30 9873 H 929.691 -2.62323 1.53037 0
M  V30 9874 H 927.276 -1.25609 0.80887 0
M  V30 9875 H 929.158 -4.19953 -0.348873 0
M  V30 9876 H 927.833 -3.11983 -0.863047 0
M  V30 9877 H 926.74 -3.45707 1.4296 0
M  V30 9878 H 928.073 -4.55592 1.86271 0
M  V30 9879 N 929.725 -0.817259 -1.34754 0
M  V30 9880 C 931.002 -0.325468 -1.92873 0
M  V30 9881 C 931.382 1.18643 -1.74606 0
M  V30 9882 O 930.73 1.9909 -1.1214 0
M  V30 9883 C 930.94 -0.74858 -3.40877 0
M  V30 9884 C 932.288 -0.744165 -4.18028 0
M  V30 9885 O 933.312 -0.690799 -3.49437 0
M  V30 9886 O 932.171 -0.812207 -5.40431 0
M  V30 9887 H 929.265 -0.0876397 -0.822343 0
M  V30 9888 H 931.811 -0.901671 -1.43764 0
M  V30 9889 H 930.583 -1.79017 -3.47949 0
M  V30 9890 H 930.206 -0.147764 -3.97325 0
M  V30 9891 N 931.203 1.46865 -0.571711 0
M  V30 9892 C 932.428 2.07323 -0.0564655 0
M  V30 9893 C 932.853 1.41938 1.23431 0
M  V30 9894 O 932.211 0.499334 1.74288 0
M  V30 9895 C 932.259 3.6044 0.107339 0
M  V30 9896 O 931.363 3.95558 1.1665 0
M  V30 9897 H 930.704 0.661475 -0.0578465 0
M  V30 9898 H 933.234 1.88669 -0.791524 0
M  V30 9899 H 933.244 4.06767 0.316987 0
M  V30 9900 H 931.919 4.07425 -0.835348 0
M  V30 9901 H 930.496 3.60957 0.936189 0
M  V30 9902 N 932.681 0.308908 1.54543 0
M  V30 9903 C 934.092 -0.182144 1.85809 0
M  V30 9904 C 934.443 -1.52796 1.23076 0
M  V30 9905 O 933.568 -2.09775 0.531358 0
M  V30 9906 C 934.163 -0.337275 3.37117 0
M  V30 9907 C 932.722 -0.772545 3.68387 0
M  V30 9908 C 931.869 0.114451 2.77064 0
M  V30 9909 H 934.82 0.529671 1.496 0
M  V30 9910 H 934.841 -1.17058 3.62046 0
M  V30 9911 H 934.353 0.642382 3.82747 0
M  V30 9912 H 932.454 -1.76247 3.2828 0
M  V30 9913 H 932.567 -0.586453 4.75497 0
M  V30 9914 H 930.931 -0.407581 2.51418 0
M  V30 9915 H 931.714 1.09061 3.25516 0
M  V30 9916 N 934.159 -1.57557 0.0367827 0
M  V30 9917 C 935.57 -1.79853 -0.500971 0
M  V30 9918 C 935.921 -0.947749 -1.71791 0
M  V30 9919 O 935.046 -0.160287 -2.15806 0
M  V30 9920 C 935.641 -3.26193 -0.915626 0
M  V30 9921 C 934.2 -3.49457 -1.39845 0
M  V30 9922 C 933.347 -2.74864 -0.366784 0
M  V30 9923 H 936.298 -1.56509 0.262768 0
M  V30 9924 H 936.319 -3.36324 -1.7795 0
M  V30 9925 H 935.831 -3.88089 -0.0297227 0
M  V30 9926 H 933.932 -2.92823 -2.30402 0
M  V30 9927 H 934.045 -4.58172 -1.40054 0
M  V30 9928 H 932.409 -2.4057 -0.836554 0
M  V30 9929 H 933.192 -3.39479 0.510785 0
M  V30 9930 N 935.637 0.236453 -1.55816 0
M  V30 9931 C 936.567 1.29639 -1.94206 0
M  V30 9932 C 937.548 1.49667 -0.808319 0
M  V30 9933 O 938.733 1.621 -1.06945 0
M  V30 9934 C 935.863 2.64914 -2.24584 0
M  V30 9935 C 934.817 2.59565 -3.40308 0
M  V30 9936 C 934.143 3.98732 -3.56254 0
M  V30 9937 C 935.443 2.15642 -4.75706 0
M  V30 9938 H 937.137 0.977552 -2.82992 0
M  V30 9939 H 934.683 0.468804 -1.36155 0
M  V30 9940 H 936.636 3.39209 -2.50031 0
M  V30 9941 H 935.36 2.98455 -1.32636 0
M  V30 9942 H 934.019 1.87728 -3.14887 0
M  V30 9943 H 933.667 4.29556 -2.61707 0
M  V30 9944 H 933.367 3.96039 -4.34082 0
M  V30 9945 H 934.891 4.74711 -3.84033 0
M  V30 9946 H 936.305 2.79673 -5.00456 0
M  V30 9947 H 934.702 2.24039 -5.56711 0
M  V30 9948 H 935.772 1.10831 -4.72064 0
M  V30 9949 N 937.115 1.49373 0.502552 0
M  V30 9950 C 938.025 1.68659 1.63068 0
M  V30 9951 C 939.041 0.569182 1.64427 0
M  V30 9952 O 940.217 0.843695 1.82876 0
M  V30 9953 C 937.282 1.74745 2.99441 0
M  V30 9954 C 936.343 2.98311 3.08721 0
M  V30 9955 C 935.576 3.04097 4.38589 0
M  V30 9956 O 935.799 2.17519 5.27297 0
M  V30 9957 O 934.733 3.96544 4.52809 0
M  V30 9958 H 938.559 2.64226 1.49727 0
M  V30 9959 H 936.144 1.33096 0.67867 0
M  V30 9960 H 938.026 1.8111 3.80496 0
M  V30 9961 H 936.701 0.823565 3.13048 0
M  V30 9962 H 935.608 2.97465 2.2686 0
M  V30 9963 H 936.941 3.90174 3.00041 0
M  V30 9964 N 938.594 -0.753485 1.38421 0
M  V30 9965 C 939.527 -1.87525 1.30037 0
M  V30 9966 C 940.505 -1.6163 0.177379 0
M  V30 9967 O 941.689 -1.85132 0.354716 0
M  V30 9968 C 938.816 -3.23138 1.01485 0
M  V30 9969 C 937.862 -3.67921 2.15723 0
M  V30 9970 S 938.695 -3.79447 3.77863 0
M  V30 9971 C 939.851 -5.17879 3.51499 0
M  V30 9972 H 940.084 -1.94351 2.24978 0
M  V30 9973 H 937.617 -0.916475 1.24258 0
M  V30 9974 H 939.575 -4.01455 0.856959 0
M  V30 9975 H 938.236 -3.13991 0.0826199 0
M  V30 9976 H 937.429 -4.66287 1.91292 0
M  V30 9977 H 937.031 -2.96758 2.2762 0
M  V30 9978 H 939.323 -6.03636 3.0762 0
M  V30 9979 H 940.266 -5.47331 4.49259 0
M  V30 9980 H 940.674 -4.86681 2.8601 0
M  V30 9981 N 940.072 -1.23292 -0.981677 0
M  V30 9982 C 941.002 -1.03738 -2.09191 0
M  V30 9983 C 941.983 0.0453041 -1.7004 0
M  V30 9984 O 943.168 -0.119092 -1.93834 0
M  V30 9985 C 940.298 -0.626426 -3.41604 0
M  V30 9986 C 939.252 -1.65631 -3.94652 0
M  V30 9987 C 938.578 -1.10084 -5.23245 0
M  V30 9988 C 939.878 -3.04903 -4.24066 0
M  V30 9989 H 941.572 -1.966 -2.25807 0
M  V30 9990 H 939.118 -0.946656 -1.0851 0
M  V30 9991 H 941.071 -0.476689 -4.18695 0
M  V30 9992 H 939.795 0.337873 -3.24848 0
M  V30 9993 H 938.454 -1.79402 -3.19704 0
M  V30 9994 H 938.102 -0.127562 -5.02838 0
M  V30 9995 H 937.802 -1.78896 -5.59705 0
M  V30 9996 H 939.326 -0.962928 -6.02959 0
M  V30 9997 H 940.74 -2.94441 -4.91912 0
M  V30 9998 H 939.137 -3.70941 -4.71724 0
M  V30 9999 H 940.207 -3.53991 -3.31389 0
M  V30 10000 N 941.55 1.18024 -1.04442 0
M  V30 10001 C 942.798 1.87727 -0.74854 0
M  V30 10002 C 943.119 1.80975 0.726156 0
M  V30 10003 O 942.389 1.23061 1.52423 0
M  V30 10004 H 940.969 0.694974 -0.273897 0
M  V30 10005 H 943.631 1.43213 -1.32197 0
M  V30 10006 H 942.727 2.93665 -1.05674 0
M  V30 10007 N 943.028 0.824394 1.34319 0
M  V30 10008 C 944.439 0.471802 1.8064 0
M  V30 10009 C 944.79 -1.00793 1.6833 0
M  V30 10010 O 943.915 -1.78447 1.22416 0
M  V30 10011 C 944.51 0.849609 3.27974 0
M  V30 10012 C 943.069 0.549365 3.72369 0
M  V30 10013 C 942.216 1.06573 2.56003 0
M  V30 10014 H 945.167 1.01443 1.22045 0
M  V30 10015 H 945.188 0.153968 3.80188 0
M  V30 10016 H 944.7 1.92663 3.36902 0
M  V30 10017 H 942.801 -0.518182 3.68979 0
M  V30 10018 H 942.914 1.09446 4.66432 0
M  V30 10019 H 941.278 0.487214 2.49997 0
M  V30 10020 H 942.061 2.14923 2.677 0
M  V30 10021 N 944.506 -1.46559 0.579492 0
M  V30 10022 C 945.922 -1.57771 0.240921 0
M  V30 10023 C 946.122 -1.57505 -1.25676 0
M  V30 10024 O 945.178 -1.4903 -2.03829 0
M  V30 10025 C 946.491 -2.87311 0.887285 0
M  V30 10026 C 948.039 -3.00937 0.860576 0
M  V30 10027 C 948.514 -4.33208 1.48642 0
M  V30 10028 N 950.005 -4.39899 1.45062 0
M  V30 10029 C 950.74 -5.40856 1.90428 0
M  V30 10030 N 950.236 -6.48503 2.43752 0
M  V30 10031 N 952.029 -5.32037 1.81364 0
M  V30 10032 H 944.18 -1.44976 1.55228 0
M  V30 10033 H 946.443 -0.691354 0.648639 0
M  V30 10034 H 946.149 -2.93307 1.94071 0
M  V30 10035 H 946.023 -3.75141 0.393577 0
M  V30 10036 H 948.41 -2.94524 -0.184223 0
M  V30 10037 H 948.491 -2.14591 1.39227 0
M  V30 10038 H 948.135 -4.40378 2.5304 0
M  V30 10039 H 948.065 -5.18323 0.92998 0
M  V30 10040 H 950.556 -3.62706 1.0608 0
M  V30 10041 H 950.869 -7.21744 2.76234 0
M  V30 10042 H 949.214 -6.49332 2.47776 0
M  V30 10043 H 952.405 -4.46841 1.39465 0
M  V30 10044 H 952.578 -6.10573 2.17035 0
M  V30 10045 N 945.984 -0.3171 -1.54377 0
M  V30 10046 C 947.4 0.035766 -1.5956 0
M  V30 10047 C 947.6 1.51038 -1.33378 0
M  V30 10048 O 946.656 2.26546 -1.11505 0
M  V30 10049 C 947.969 -0.376652 -2.98332 0
M  V30 10050 C 949.517 -0.326765 -3.1129 0
M  V30 10051 C 949.992 -0.714247 -4.52396 0
M  V30 10052 N 951.483 -0.667402 -4.58367 0
M  V30 10053 C 952.218 -0.939494 -5.65651 0
M  V30 10054 N 951.714 -1.27839 -6.80903 0
M  V30 10055 N 953.507 -0.865484 -5.55397 0
M  V30 10056 H 945.658 -1.27794 -1.69654 0
M  V30 10057 H 947.921 -0.5192 -0.79318 0
M  V30 10058 H 947.627 -1.40381 -3.22469 0
M  V30 10059 H 947.501 0.261611 -3.76292 0
M  V30 10060 H 949.888 0.69117 -2.86892 0
M  V30 10061 H 949.969 -0.999873 -2.35449 0
M  V30 10062 H 949.613 -1.73007 -4.77526 0
M  V30 10063 H 949.543 -0.0188962 -5.26597 0
M  V30 10064 H 952.034 -0.417062 -3.75592 0
M  V30 10065 H 952.347 -1.47155 -7.5866 0
M  V30 10066 H 950.692 -1.31658 -6.82416 0
M  V30 10067 H 953.883 -0.600265 -4.64235 0
M  V30 10068 H 954.056 -1.0809 -6.38921 0
M  V30 10069 N 947.462 1.57535 -0.0451378 0
M  V30 10070 C 948.69 1.96761 0.639742 0
M  V30 10071 C 949.105 0.922405 1.64734 0
M  V30 10072 O 948.462 -0.0940535 1.82257 0
M  V30 10073 C 948.513 3.36066 1.33199 0
M  V30 10074 O 948.234 4.36579 0.364757 0
M  V30 10075 C 949.735 3.90015 2.1072 0
M  V30 10076 H 946.955 0.64769 0.175324 0
M  V30 10077 H 949.499 2.04206 -0.109651 0
M  V30 10078 H 947.654 3.2979 2.03266 0
M  V30 10079 H 948.068 5.17432 0.858168 0
M  V30 10080 H 949.542 4.89785 2.54586 0
M  V30 10081 H 950.019 3.25117 2.95288 0
M  V30 10082 H 950.625 3.99609 1.45577 0
M  V30 10083 N 948.94 -0.228186 1.55939 0
M  V30 10084 C 950.187 -0.953552 1.78644 0
M  V30 10085 C 950.515 -1.84596 0.61275 0
M  V30 10086 O 949.77 -1.91502 -0.403175 0
M  V30 10087 C 950.069 -1.82924 3.0704 0
M  V30 10088 C 949.735 -1.09062 4.37511 0
M  V30 10089 C 948.397 -0.886565 4.72962 0
M  V30 10090 C 950.749 -0.568533 5.1809 0
M  V30 10091 C 948.077 -0.148413 5.86512 0
M  V30 10092 C 950.429 0.156243 6.32407 0
M  V30 10093 C 949.093 0.371612 6.66465 0
M  V30 10094 H 948.363 -0.348929 0.653704 0
M  V30 10095 H 951.01 -0.222211 1.90206 0
M  V30 10096 H 949.315 -2.62823 2.90571 0
M  V30 10097 H 951.012 -2.3925 3.21808 0
M  V30 10098 H 947.602 -1.25963 4.09672 0
M  V30 10099 H 951.786 -0.713673 4.91142 0
M  V30 10100 H 947.042 0.0287418 6.11393 0
M  V30 10101 H 951.216 0.568333 6.94077 0
M  V30 10102 H 948.843 0.945522 7.54297 0
M  V30 10103 N 950.418 -1.49637 -0.494624 0
M  V30 10104 C 951.664 -1.59681 -1.25019 0
M  V30 10105 C 951.997 -0.285511 -1.9209 0
M  V30 10106 O 951.272 0.711398 -1.81023 0
M  V30 10107 C 951.555 -2.76058 -2.31222 0
M  V30 10108 C 951.408 -4.17002 -1.68611 0
M  V30 10109 C 952.727 -2.88056 -3.32734 0
M  V30 10110 H 949.846 -0.581209 -0.453172 0
M  V30 10111 H 952.488 -1.81944 -0.547391 0
M  V30 10112 H 950.638 -2.57207 -2.91164 0
M  V30 10113 H 952.31 -4.47385 -1.12447 0
M  V30 10114 H 950.553 -4.22352 -0.989991 0
M  V30 10115 H 951.224 -4.94316 -2.45674 0
M  V30 10116 H 953.7 -3.05237 -2.82789 0
M  V30 10117 H 952.576 -3.71151 -4.04399 0
M  V30 10118 H 952.837 -1.97676 -3.95445 0
M  V30 10119 N 951.896 0.746133 -1.38819 0
M  V30 10120 C 952.826 1.87344 -1.39372 0
M  V30 10121 C 953.807 1.68123 -0.258583 0
M  V30 10122 O 954.992 1.88606 -0.462769 0
M  V30 10123 C 952.122 3.24962 -1.22543 0
M  V30 10124 C 951.076 3.58799 -2.33339 0
M  V30 10125 C 950.402 4.95235 -2.01609 0
M  V30 10126 C 951.702 3.62911 -3.75624 0
M  V30 10127 H 953.396 1.87138 -2.33709 0
M  V30 10128 H 950.942 0.898937 -1.12495 0
M  V30 10129 H 952.895 4.03488 -1.21554 0
M  V30 10130 H 951.619 3.25667 -0.246707 0
M  V30 10131 H 950.278 2.82596 -2.33527 0
M  V30 10132 H 949.926 4.92508 -1.02202 0
M  V30 10133 H 949.626 5.18843 -2.75819 0
M  V30 10134 H 951.15 5.76131 -2.02251 0
M  V30 10135 H 952.564 4.31535 -3.77426 0
M  V30 10136 H 950.961 3.98031 -4.491 0
M  V30 10137 H 952.031 2.62967 -4.07402 0
M  V30 10138 N 953.375 1.23811 0.975125 0
M  V30 10139 C 954.6 1.10109 1.75757 0
M  V30 10140 C 955.025 -0.342922 1.84948 0
M  V30 10141 O 954.383 -1.24814 1.31496 0
M  V30 10142 C 954.431 1.73724 3.15994 0
M  V30 10143 O 953.535 1.00297 4.00018 0
M  V30 10144 H 952.876 0.385627 0.540544 0
M  V30 10145 H 955.406 1.63971 1.22372 0
M  V30 10146 H 955.416 1.79178 3.6655 0
M  V30 10147 H 954.091 2.78794 3.0862 0
M  V30 10148 H 952.668 1.02575 3.58515 0
M  V30 10149 N 954.853 -1.17469 1.05066 0
M  V30 10150 C 955.816 -2.19648 0.654793 0
M  V30 10151 C 956.816 -1.58107 -0.293063 0
M  V30 10152 O 958.006 -1.74029 -0.077106 0
M  V30 10153 C 955.138 -3.40878 -0.0384437 0
M  V30 10154 H 956.331 -2.56184 1.55915 0
M  V30 10155 H 953.884 -1.31528 0.844396 0
M  V30 10156 H 954.619 -3.09885 -0.956133 0
M  V30 10157 H 954.404 -3.86792 0.642961 0
M  V30 10158 H 955.894 -4.1651 -0.301568 0
M  V30 10159 N 956.331 -0.831506 -1.3388 0
M  V30 10160 C 957.261 -0.274378 -2.31882 0
M  V30 10161 C 958.242 0.613872 -1.58637 0
M  V30 10162 O 959.427 0.538961 -1.86571 0
M  V30 10163 C 956.557 0.557498 -3.42796 0
M  V30 10164 C 955.511 -0.234337 -4.27358 0
M  V30 10165 C 954.837 0.720825 -5.29819 0
M  V30 10166 C 956.137 -1.44732 -5.01847 0
M  V30 10167 H 957.831 -1.09322 -2.78728 0
M  V30 10168 H 955.377 -0.527136 -1.34005 0
M  V30 10169 H 957.33 0.957501 -4.10378 0
M  V30 10170 H 956.054 1.40947 -2.94621 0
M  V30 10171 H 954.713 -0.61581 -3.61391 0
M  V30 10172 H 954.361 1.569 -4.77903 0
M  V30 10173 H 954.061 0.195171 -5.87276 0
M  V30 10174 H 955.585 1.1185 -6.00268 0
M  V30 10175 H 956.999 -1.12087 -5.62236 0
M  V30 10176 H 955.396 -1.90923 -5.68919 0
M  V30 10177 H 956.466 -2.22099 -4.31045 0
M  V30 10178 N 957.809 1.4625 -0.587256 0
M  V30 10179 C 958.741 2.28482 0.181256 0
M  V30 10180 C 959.754 1.38777 0.851163 0
M  V30 10181 O 960.943 1.63336 0.719963 0
M  V30 10182 C 958.043 3.13944 1.27643 0
M  V30 10183 C 957.216 4.31802 0.697569 0
M  V30 10184 C 956.275 4.98626 1.68102 0
M  V30 10185 O 955.301 5.56075 1.21529 0
M  V30 10186 N 956.503 4.96051 3.0152 0
M  V30 10187 H 959.268 2.95079 -0.524267 0
M  V30 10188 H 956.829 1.56213 -0.425336 0
M  V30 10189 H 958.821 3.55513 1.93371 0
M  V30 10190 H 957.391 2.49391 1.88475 0
M  V30 10191 H 956.611 3.93961 -0.137293 0
M  V30 10192 H 957.899 5.07969 0.290696 0
M  V30 10193 H 957.297 4.5063 3.41978 0
M  V30 10194 H 955.854 5.41547 3.62725 0
M  V30 10195 N 959.287 0.325282 1.54207 0
M  V30 10196 C 960.698 -0.162426 1.85992 0
M  V30 10197 C 961.049 -1.51482 1.2469 0
M  V30 10198 O 960.174 -2.092 0.553578 0
M  V30 10199 C 960.769 -0.3015 3.37456 0
M  V30 10200 C 959.328 -0.73343 3.69185 0
M  V30 10201 C 958.475 0.143831 2.76927 0
M  V30 10202 H 961.426 0.545508 1.4903 0
M  V30 10203 H 961.447 -1.13212 3.63268 0
M  V30 10204 H 960.959 0.682942 3.82044 0
M  V30 10205 H 959.06 -1.72755 3.30131 0
M  V30 10206 H 959.173 -0.535987 4.76092 0
M  V30 10207 H 957.537 -0.380892 2.51836 0
M  V30 10208 H 958.32 1.12507 3.24341 0
M  V30 10209 N 960.765 -1.57509 0.0534917 0
M  V30 10210 C 961.99 -1.97511 -0.632794 0
M  V30 10211 C 962.415 -0.930947 -1.63447 0
M  V30 10212 O 961.773 0.105558 -1.80992 0
M  V30 10213 C 961.821 -3.3658 -1.29407 0
M  V30 10214 O 960.925 -3.3467 -2.40977 0
M  V30 10215 H 960.266 -0.643349 -0.16431 0
M  V30 10216 H 962.796 -2.04232 0.12258 0
M  V30 10217 H 962.806 -3.73359 -1.64521 0
M  V30 10218 H 961.481 -4.12113 -0.559976 0
M  V30 10219 H 960.058 -3.09639 -2.07793 0
M  V30 10220 N 962.243 0.219913 -1.56058 0
M  V30 10221 C 963.654 0.786766 -1.69313 0
M  V30 10222 C 964.005 1.84916 -0.655782 0
M  V30 10223 O 963.13 2.1554 0.192772 0
M  V30 10224 C 963.725 1.43387 -3.06962 0
M  V30 10225 C 962.284 1.94809 -3.22066 0
M  V30 10226 C 961.431 0.808863 -2.65241 0
M  V30 10227 H 964.382 -0.00476777 -1.58699 0
M  V30 10228 H 964.403 2.30272 -3.02911 0
M  V30 10229 H 963.915 0.660405 -3.8244 0
M  V30 10230 H 962.016 2.74952 -2.5146 0
M  V30 10231 H 962.129 2.12694 -4.293 0
M  V30 10232 H 960.493 1.21661 -2.23765 0
M  V30 10233 H 961.276 0.0480458 -3.43266 0
M  V30 10234 N 963.721 1.49897 0.486681 0
M  V30 10235 C 964.949 1.63837 1.26353 0
M  V30 10236 C 965.364 0.315428 1.86146 0
M  V30 10237 O 964.721 -0.700831 1.68507 0
M  V30 10238 C 964.772 2.71792 2.38351 0
M  V30 10239 O 964.493 3.98956 1.81013 0
M  V30 10240 C 965.994 2.96566 3.2949 0
M  V30 10241 H 963.214 0.551158 0.382709 0
M  V30 10242 H 965.758 1.96023 0.582694 0
M  V30 10243 H 963.913 2.42344 3.02238 0
M  V30 10244 H 964.327 4.58536 2.54647 0
M  V30 10245 H 965.801 3.75803 4.04322 0
M  V30 10246 H 966.278 2.07031 3.87343 0
M  V30 10247 H 966.884 3.27485 2.71355 0
M  V30 10248 N 965.199 -0.738761 1.39212 0
M  V30 10249 C 966.149 -1.84376 1.34125 0
M  V30 10250 C 967.133 -1.5935 0.222793 0
M  V30 10251 O 968.325 -1.70918 0.460014 0
M  V30 10252 C 965.454 -3.22261 1.18334 0
M  V30 10253 C 964.54 -3.53129 2.34864 0
M  V30 10254 N 964.931 -3.54957 3.60332 0
M  V30 10255 C 963.229 -3.83472 2.27739 0
M  V30 10256 C 963.93 -3.83513 4.3737 0
M  V30 10257 N 962.906 -4.01097 3.66909 0
M  V30 10258 H 966.708 -1.84089 2.29104 0
M  V30 10259 H 964.222 -0.936826 1.32655 0
M  V30 10260 H 966.219 -4.01358 1.12772 0
M  V30 10261 H 964.879 -3.23789 0.243016 0
M  V30 10262 H 965.89 -3.36359 3.93806 0
M  V30 10263 H 962.567 -3.92628 1.41949 0
M  V30 10264 H 963.957 -3.91427 5.46109 0
M  V30 10265 N 966.677 -1.24326 -0.968545 0
M  V30 10266 C 967.902 -1.1104 -1.75171 0
M  V30 10267 C 968.327 0.333109 -1.85127 0
M  V30 10268 O 967.685 1.24115 -1.32156 0
M  V30 10269 C 967.733 -1.75397 -3.15068 0
M  V30 10270 O 966.837 -1.02417 -3.9948 0
M  V30 10271 H 966.178 -0.388488 -0.538491 0
M  V30 10272 H 968.708 -1.64617 -1.215 0
M  V30 10273 H 968.718 -1.8112 -3.65595 0
M  V30 10274 H 967.393 -2.80427 -3.07138 0
M  V30 10275 H 965.97 -1.04475 -3.57966 0
M  V30 10276 N 968.156 1.1691 -1.05688 0
M  V30 10277 C 969.381 1.91745 -0.790478 0
M  V30 10278 C 969.806 1.76568 0.648478 0
M  V30 10279 O 969.164 1.08682 1.45114 0
M  V30 10280 C 969.212 3.4067 -1.18222 0
M  V30 10281 O 968.316 4.11177 -0.317341 0
M  V30 10282 H 967.657 0.5976 -0.28943 0
M  V30 10283 H 970.187 1.48157 -1.41105 0
M  V30 10284 H 970.197 3.91424 -1.15114 0
M  V30 10285 H 968.872 3.51036 -2.2304 0
M  V30 10286 H 967.449 3.70645 -0.409459 0
M  V30 10287 N 969.634 0.838594 1.33437 0
M  V30 10288 C 970.859 0.446701 2.02532 0
M  V30 10289 C 971.284 -0.944275 1.62681 0
M  V30 10290 O 970.642 -1.61733 0.81927 0
M  V30 10291 C 970.69 0.574794 3.55989 0
M  V30 10292 O 969.794 -0.399063 4.10465 0
M  V30 10293 H 969.135 0.181637 0.638674 0
M  V30 10294 H 971.665 1.13335 1.70342 0
M  V30 10295 H 971.675 0.456339 4.0544 0
M  V30 10296 H 970.35 1.58921 3.8434 0
M  V30 10297 H 968.927 -0.238187 3.72139 0
M  V30 10298 N 971.112 -1.45937 0.595003 0
M  V30 10299 C 972.06 -2.32155 -0.143798 0
M  V30 10300 C 973.054 -1.45221 -0.872198 0
M  V30 10301 O 974.26 -1.61777 -0.789191 0
M  V30 10302 H 970.635 -0.749165 -0.0652377 0
M  V30 10303 H 972.606 -2.92264 0.602005 0
M  V30 10304 C 971.355 -3.28615 -1.13611 0
M  V30 10305 H 970.678 -3.95496 -0.585044 0
M  V30 10306 H 972.118 -3.91699 -1.62321 0
M  V30 10307 C 970.577 -2.54863 -2.20333 0
M  V30 10308 O 971.107 -2.32071 -3.27881 0
M  V30 10309 N 969.313 -2.15213 -1.95274 0
M  V30 10310 H 968.86 -2.33949 -1.07822 0
M  V30 10311 H 968.818 -1.66188 -2.66888 0
M  V30 10312 N 972.59 -0.333456 -1.54032 0
M  V30 10313 C 973.818 0.267813 -2.05159 0
M  V30 10314 C 974.233 1.4501 -1.20903 0
M  V30 10315 O 973.59 1.80888 -0.241994 0
M  V30 10316 C 973.641 0.69268 -3.54802 0
M  V30 10317 O 973.362 -0.442579 -4.35859 0
M  V30 10318 C 974.863 1.35572 -4.2206 0
M  V30 10319 H 972.083 0.0534924 -0.668864 0
M  V30 10320 H 974.627 -0.482515 -1.98726 0
M  V30 10321 H 972.782 1.39297 -3.6149 0
M  V30 10322 H 973.196 -0.105915 -5.24393 0
M  V30 10323 H 974.67 1.60385 -5.28186 0
M  V30 10324 H 975.147 2.30614 -3.73783 0
M  V30 10325 H 975.753 0.697748 -4.19537 0
M  V30 10326 N 974.068 1.57479 -0.061844 0
M  V30 10327 C 975 2.09116 0.938245 0
M  V30 10328 C 976.013 1.0212 1.26788 0
M  V30 10329 O 977.202 1.2966 1.22681 0
M  V30 10330 C 974.302 2.52822 2.25686 0
M  V30 10331 C 973.475 3.83277 2.10755 0
M  V30 10332 C 972.534 4.13182 3.25833 0
M  V30 10333 O 971.56 4.82937 3.01265 0
M  V30 10334 N 972.762 3.65938 4.50633 0
M  V30 10335 H 975.527 2.95543 0.497433 0
M  V30 10336 H 973.088 1.61423 0.124134 0
M  V30 10337 H 975.08 2.69896 3.01559 0
M  V30 10338 H 973.65 1.71586 2.61299 0
M  V30 10339 H 972.87 3.7568 1.19409 0
M  V30 10340 H 974.158 4.68686 1.98018 0
M  V30 10341 H 973.556 3.09566 4.73482 0
M  V30 10342 H 972.113 3.8823 5.23565 0
M  V30 10343 N 975.546 -0.211634 1.56173 0
M  V30 10344 C 976.962 -0.56177 1.49386 0
M  V30 10345 C 977.162 -1.86666 0.758813 0
M  V30 10346 O 976.218 -2.50681 0.302534 0
M  V30 10347 C 977.531 -0.631815 2.93987 0
M  V30 10348 C 979.079 -0.721773 3.04564 0
M  V30 10349 C 979.554 -0.823075 4.50544 0
M  V30 10350 N 981.045 -0.887038 4.54627 0
M  V30 10351 C 981.78 -0.985304 5.64871 0
M  V30 10352 N 981.276 -1.0469 6.84844 0
M  V30 10353 N 983.069 -1.02121 5.52746 0
M  V30 10354 H 975.22 0.64452 2.02385 0
M  V30 10355 H 977.483 0.227466 0.920306 0
M  V30 10356 H 977.189 0.257592 3.50755 0
M  V30 10357 H 977.063 -1.4921 3.46433 0
M  V30 10358 H 979.45 -1.60162 2.47855 0
M  V30 10359 H 979.531 0.164385 2.55271 0
M  V30 10360 H 979.175 0.0523511 5.07873 0
M  V30 10361 H 979.105 -1.72479 4.97552 0
M  V30 10362 H 981.596 -0.849352 3.68231 0
M  V30 10363 H 981.909 -1.12193 7.64613 0
M  V30 10364 H 980.254 -1.01586 6.87536 0
M  V30 10365 H 983.445 -0.969814 4.57943 0
M  V30 10366 H 983.618 -1.09434 6.38693 0
M  V30 10367 N 977.024 -1.50153 -0.478725 0
M  V30 10368 C 977.954 -1.71384 -1.58587 0
M  V30 10369 C 978.935 -0.562705 -1.60523 0
M  V30 10370 O 980.12 -0.80101 -1.76911 0
M  V30 10371 C 977.25 -1.80094 -2.96957 0
M  V30 10372 C 976.204 -2.95218 -3.09888 0
M  V30 10373 C 975.53 -2.89063 -4.49829 0
M  V30 10374 C 976.83 -4.35841 -2.8782 0
M  V30 10375 H 978.524 -2.64081 -1.41073 0
M  V30 10376 H 976.07 -1.27081 -0.677239 0
M  V30 10377 H 978.023 -1.93531 -3.74331 0
M  V30 10378 H 976.747 -0.840131 -3.1561 0
M  V30 10379 H 975.406 -2.81419 -2.34944 0
M  V30 10380 H 975.054 -1.90844 -4.6539 0
M  V30 10381 H 974.754 -3.66345 -4.59418 0
M  V30 10382 H 976.278 -3.04539 -5.29234 0
M  V30 10383 H 977.692 -4.50205 -3.54948 0
M  V30 10384 H 976.089 -5.14515 -3.0886 0
M  V30 10385 H 977.159 -4.48739 -1.83742 0
M  V30 10386 N 978.502 0.731368 -1.39602 0
M  V30 10387 C 979.913 1.30981 -1.33045 0
M  V30 10388 C 980.264 1.962 0.00349918 0
M  V30 10389 O 979.389 1.96539 0.905615 0
M  V30 10390 C 979.984 2.3817 -2.40958 0
M  V30 10391 C 978.543 2.91678 -2.3791 0
M  V30 10392 C 977.69 1.65286 -2.22656 0
M  V30 10393 H 980.641 0.528615 -1.49637 0
M  V30 10394 H 980.662 3.18645 -2.07955 0
M  V30 10395 H 980.174 1.90673 -3.38032 0
M  V30 10396 H 978.275 3.43446 -1.44485 0
M  V30 10397 H 978.388 3.44545 -3.32904 0
M  V30 10398 H 976.752 1.89759 -1.69893 0
M  V30 10399 H 977.535 1.19836 -3.21705 0
M  V30 10400 N 979.98 1.24838 0.961938 0
M  V30 10401 C 981.257 0.99939 1.68141 0
M  V30 10402 C 981.637 -0.476588 2.0565 0
M  V30 10403 O 980.985 -1.45224 1.76415 0
M  V30 10404 C 981.195 1.92797 2.90913 0
M  V30 10405 C 982.543 2.20219 3.63027 0
M  V30 10406 O 983.567 1.90496 3.00981 0
M  V30 10407 O 982.426 2.70725 4.74731 0
M  V30 10408 H 979.52 0.37842 0.735342 0
M  V30 10409 H 982.066 1.35961 1.01551 0
M  V30 10410 H 980.838 2.92492 2.59931 0
M  V30 10411 H 980.461 1.57127 3.65235 0
M  V30 10412 N 981.458 -1.16348 1.06306 0
M  V30 10413 C 982.874 -1.38873 0.786543 0
M  V30 10414 C 983.074 -1.91915 -0.614061 0
M  V30 10415 O 982.13 -2.11804 -1.3746 0
M  V30 10416 C 983.443 -2.36936 1.85154 0
M  V30 10417 C 984.991 -2.5062 1.87506 0
M  V30 10418 C 985.466 -3.51965 2.9306 0
M  V30 10419 N 986.957 -3.59492 2.92095 0
M  V30 10420 C 987.692 -4.37699 3.70415 0
M  V30 10421 N 987.188 -5.19327 4.58553 0
M  V30 10422 N 988.981 -4.32683 3.58806 0
M  V30 10423 H 981.132 -0.802542 1.96655 0
M  V30 10424 H 983.395 -0.415304 0.852189 0
M  V30 10425 H 983.101 -2.05056 2.85736 0
M  V30 10426 H 982.975 -3.36585 1.70267 0
M  V30 10427 H 985.362 -2.81804 0.875827 0
M  V30 10428 H 985.443 -1.51006 2.06472 0
M  V30 10429 H 985.087 -3.21518 3.93177 0
M  V30 10430 H 985.017 -4.51309 2.71344 0
M  V30 10431 H 987.508 -3.01222 2.28197 0
M  V30 10432 H 987.821 -5.76216 5.1497 0
M  V30 10433 H 986.166 -5.1867 4.62608 0
M  V30 10434 H 989.357 -3.67971 2.89335 0
M  V30 10435 H 989.53 -4.93386 4.20088 0
M  V30 10436 N 982.937 -0.845659 -1.3299 0
M  V30 10437 C 984.183 -0.445311 -1.9785 0
M  V30 10438 C 984.516 0.994476 -1.66805 0
M  V30 10439 O 983.791 1.69636 -0.95151 0
M  V30 10440 C 984.074 -0.674371 -3.53729 0
M  V30 10441 C 983.927 -2.16192 -3.94437 0
M  V30 10442 C 985.246 -0.124908 -4.39923 0
M  V30 10443 H 982.365 -0.163269 -0.718688 0
M  V30 10444 H 985.007 -1.06242 -1.5752 0
M  V30 10445 H 983.157 -0.149091 -3.88214 0
M  V30 10446 H 984.829 -2.75259 -3.70176 0
M  V30 10447 H 983.072 -2.64386 -3.43922 0
M  V30 10448 H 983.743 -2.27292 -5.03033 0
M  V30 10449 H 986.219 -0.573986 -4.12122 0
M  V30 10450 H 985.095 -0.314816 -5.47996 0
M  V30 10451 H 985.356 0.971758 -4.31288 0
M  V30 10452 N 984.415 1.45619 -0.602734 0
M  V30 10453 C 985.643 2.06647 -0.102253 0
M  V30 10454 C 986.058 1.4482 1.21131 0
M  V30 10455 O 985.415 0.560621 1.73676 0
M  V30 10456 C 985.466 3.61467 0.0490113 0
M  V30 10457 O 985.187 4.20985 -1.21257 0
M  V30 10458 C 986.688 4.39469 0.581517 0
M  V30 10459 H 983.908 0.667685 -0.0666155 0
M  V30 10460 H 986.452 1.86939 -0.829091 0
M  V30 10461 H 984.607 3.80534 0.726153 0
M  V30 10462 H 985.021 5.14103 -1.03915 0
M  V30 10463 H 986.495 5.48318 0.636462 0
M  V30 10464 H 986.972 4.0891 1.60277 0
M  V30 10465 H 987.578 4.25256 -0.061419 0
M  V30 10466 N 985.893 0.34162 1.53853 0
M  V30 10467 C 987.141 -0.254979 2.00485 0
M  V30 10468 C 987.462 -1.51222 1.23114 0
M  V30 10469 O 986.732 -1.92966 0.337787 0
M  V30 10470 H 985.312 -0.0972084 0.740648 0
M  V30 10471 H 987.974 0.462332 1.89337 0
M  V30 10472 H 987.07 -0.498778 3.08089 0
M  V30 10473 N 987.371 -1.57444 0.0701946 0
M  V30 10474 C 988.617 -1.93716 -0.600178 0
M  V30 10475 C 988.95 -0.950329 -1.69359 0
M  V30 10476 O 988.225 0.0207123 -1.94489 0
M  V30 10477 C 988.508 -3.40266 -1.17861 0
M  V30 10478 C 988.361 -4.49706 -0.0919575 0
M  V30 10479 C 989.68 -3.87599 -2.08459 0
M  V30 10480 H 986.799 -0.704421 -0.216704 0
M  V30 10481 H 989.441 -1.89514 0.135838 0
M  V30 10482 H 987.591 -3.43977 -1.80587 0
M  V30 10483 H 989.263 -4.58116 0.541031 0
M  V30 10484 H 987.506 -4.29937 0.577639 0
M  V30 10485 H 988.177 -5.49381 -0.537048 0
M  V30 10486 H 990.653 -3.85883 -1.5567 0
M  V30 10487 H 989.529 -4.90755 -2.45867 0
M  V30 10488 H 989.79 -3.25448 -2.99226 0
M  V30 10489 N 988.849 0.203349 -1.56283 0
M  V30 10490 C 990.126 0.950415 -1.70958 0
M  V30 10491 C 990.506 2.01708 -0.622647 0
M  V30 10492 O 989.854 2.25523 0.367635 0
M  V30 10493 C 990.064 1.54434 -3.12971 0
M  V30 10494 C 991.412 2.02964 -3.72949 0
M  V30 10495 O 992.436 1.64293 -3.16048 0
M  V30 10496 O 991.295 2.74097 -4.72793 0
M  V30 10497 H 988.389 0.445154 -0.69697 0
M  V30 10498 H 990.935 0.193695 -1.68591 0
M  V30 10499 H 989.707 0.77505 -3.83547 0
M  V30 10500 H 989.33 2.36611 -3.19532 0
M  V30 10501 N 990.327 1.50405 0.470755 0
M  V30 10502 C 991.555 1.65168 1.24608 0
M  V30 10503 C 991.97 0.335153 1.85801 0
M  V30 10504 O 991.327 -0.682919 1.69241 0
M  V30 10505 C 991.378 2.74305 2.35455 0
M  V30 10506 O 991.099 4.00854 1.76771 0
M  V30 10507 C 992.6 3.00044 3.26326 0
M  V30 10508 H 989.82 0.555186 0.376842 0
M  V30 10509 H 992.364 1.9663 0.56187 0
M  V30 10510 H 990.519 2.45536 2.99651 0
M  V30 10511 H 990.933 4.61211 2.49769 0
M  V30 10512 H 992.407 3.8007 4.00313 0
M  V30 10513 H 992.884 2.11128 3.85126 0
M  V30 10514 H 993.49 3.30345 2.67866 0
M  V30 10515 N 991.805 -0.723954 1.39988 0
M  V30 10516 C 993.082 -1.4763 1.28316 0
M  V30 10517 C 993.462 -2.10852 -0.102302 0
M  V30 10518 O 992.81 -1.9948 -1.11445 0
M  V30 10519 C 993.02 -2.51878 2.41574 0
M  V30 10520 C 994.368 -3.17948 2.81415 0
M  V30 10521 O 995.392 -2.62195 2.41106 0
M  V30 10522 O 994.251 -4.18858 3.51027 0
M  V30 10523 H 991.345 -0.656092 0.50346 0
M  V30 10524 H 993.891 -0.75684 1.51888 0
M  V30 10525 H 992.663 -2.03618 3.34149 0
M  V30 10526 H 992.286 -3.3137 2.19727 0
M  V30 10527 N 993.283 -1.25346 -0.955304 0
M  V30 10528 C 994.694 -1.09173 -1.51453 0
M  V30 10529 C 995.045 0.332755 -1.93358 0
M  V30 10530 O 994.17 1.22264 -1.78551 0
M  V30 10531 C 994.765 -1.97564 -2.75234 0
M  V30 10532 C 993.324 -1.85579 -3.27471 0
M  V30 10533 C 992.471 -1.91755 -2.00313 0
M  V30 10534 H 995.422 -1.38642 -0.772271 0
M  V30 10535 H 995.443 -1.51523 -3.49029 0
M  V30 10536 H 994.955 -3.01233 -2.44704 0
M  V30 10537 H 993.056 -0.847906 -3.62824 0
M  V30 10538 H 993.169 -2.70353 -3.95533 0
M  V30 10539 H 991.533 -1.35633 -2.15582 0
M  V30 10540 H 992.316 -2.97028 -1.72132 0
M  V30 10541 N 994.761 1.15782 -1.06922 0
M  V30 10542 C 995.711 2.18373 -0.655537 0
M  V30 10543 C 996.695 1.57745 0.317084 0
M  V30 10544 O 997.887 1.76511 0.131509 0
M  V30 10545 C 995.016 3.43263 -0.0502314 0
M  V30 10546 C 994.102 4.10954 -1.04773 0
M  V30 10547 N 994.493 4.542 -2.22567 0
M  V30 10548 C 992.791 4.3723 -0.880087 0
M  V30 10549 C 993.492 5.06641 -2.85815 0
M  V30 10550 N 992.468 4.99917 -2.13505 0
M  V30 10551 H 996.27 2.49533 -1.55276 0
M  V30 10552 H 993.784 1.32303 -0.941793 0
M  V30 10553 H 995.781 4.16063 0.264003 0
M  V30 10554 H 994.441 3.13588 0.842167 0
M  V30 10555 H 995.452 4.47727 -2.60309 0
M  V30 10556 H 992.129 4.17481 -0.0402148 0
M  V30 10557 H 993.519 5.50092 -3.85808 0
M  V30 10558 N 996.239 0.8527 1.3254 0
M  V30 10559 C 997.486 0.455123 1.97319 0
M  V30 10560 C 997.814 -0.988814 1.67489 0
M  V30 10561 O 997.069 -1.70845 0.954483 0
M  V30 10562 C 997.368 0.638757 3.51646 0
M  V30 10563 C 997.034 2.05287 4.01458 0
M  V30 10564 C 995.696 2.43963 4.14771 0
M  V30 10565 C 998.048 2.9759 4.27889 0
M  V30 10566 C 995.376 3.7422 4.51859 0
M  V30 10567 C 997.728 4.27343 4.66434 0
M  V30 10568 C 996.392 4.65957 4.77954 0
M  V30 10569 H 995.662 0.166541 0.722042 0
M  V30 10570 H 998.309 1.08238 1.57977 0
M  V30 10571 H 996.614 -0.0717394 3.91734 0
M  V30 10572 H 998.311 0.311219 3.9979 0
M  V30 10573 H 994.901 1.74253 3.91579 0
M  V30 10574 H 999.085 2.68942 4.17114 0
M  V30 10575 H 994.341 4.03923 4.58973 0
M  V30 10576 H 998.515 4.9893 4.85841 0
M  V30 10577 H 996.142 5.66934 5.06449 0
M  V30 10578 N 997.718 -1.45297 0.610449 0
M  V30 10579 C 998.967 -2.0143 0.104323 0
M  V30 10580 C 999.28 -1.48431 -1.27388 0
M  V30 10581 O 1000.49 -1.96558 -1.87289 0
M  V30 10582 C 998.942 -3.59644 0.135812 0
M  V30 10583 C 998.55 -4.2164 1.51405 0
M  V30 10584 C 1000.29 -4.2333 -0.314922 0
M  V30 10585 C 998.201 -5.72015 1.50176 0
M  V30 10586 H 997.131 -0.753176 0.035233 0
M  V30 10587 H 999.782 -1.66738 0.7662 0
M  V30 10588 H 998.164 -3.91538 -0.592773 0
M  V30 10589 H 999.338 -4.01315 2.26457 0
M  V30 10590 H 997.653 -3.70159 1.90712 0
M  V30 10591 H 1000.25 -5.33597 -0.343335 0
M  V30 10592 H 1000.59 -3.94206 -1.33817 0
M  V30 10593 H 1001.13 -3.96163 0.360489 0
M  V30 10594 H 997.865 -6.05842 2.50271 0
M  V30 10595 H 997.385 -5.94523 0.793869 0
M  V30 10596 H 999.064 -6.35266 1.22665 0
M  V30 10597 N 999.196 -0.349774 -1.5367 0
M  V30 10598 C 1000.44 0.245862 -2.00196 0
M  V30 10599 C 1000.76 1.51154 -1.24144 0
M  V30 10600 O 1001.96 2.18481 -1.61178 0
M  V30 10601 C 1000.42 0.488665 -3.56567 0
M  V30 10602 C 1000.03 -0.761475 -4.41481 0
M  V30 10603 C 1001.77 1.04282 -4.11492 0
M  V30 10604 C 999.679 -0.489128 -5.89374 0
M  V30 10605 H 998.609 0.0956493 -0.747909 0
M  V30 10606 H 1001.26 -0.466068 -1.77483 0
M  V30 10607 H 999.642 1.26145 -3.75371 0
M  V30 10608 H 1000.82 -1.53585 -4.34452 0
M  V30 10609 H 999.131 -1.23771 -3.9758 0
M  V30 10610 H 1001.73 1.26164 -5.19603 0
M  V30 10611 H 1002.07 2.00023 -3.65098 0
M  V30 10612 H 1002.6 0.330582 -3.96424 0
M  V30 10613 H 999.343 -1.41643 -6.40014 0
M  V30 10614 H 998.863 0.247039 -5.99291 0
M  V30 10615 H 1000.54 -0.1087 -6.46909 0
M  V30 10616 N 1000.67 1.57404 -0.0785433 0
M  V30 10617 C 1001.62 2.09632 0.896565 0
M  V30 10618 C 1002.61 1.00754 1.25449 0
M  V30 10619 O 1003.8 1.27053 1.23234 0
M  V30 10620 C 1000.93 2.66694 2.16169 0
M  V30 10621 C 1000.01 3.82588 1.82994 0
M  V30 10622 N 1000.41 4.91286 1.203 0
M  V30 10623 C 998.704 3.92011 2.12704 0
M  V30 10624 C 999.405 5.72077 1.05367 0
M  V30 10625 N 998.381 5.20567 1.56559 0
M  V30 10626 H 1002.18 2.9106 0.407621 0
M  V30 10627 H 999.697 1.61917 0.125155 0
M  V30 10628 H 1001.69 3.0243 2.86952 0
M  V30 10629 H 1000.35 1.86716 2.65645 0
M  V30 10630 H 1001.36 5.10509 0.871817 0
M  V30 10631 H 998.042 3.23018 2.6451 0
M  V30 10632 H 999.432 6.69523 0.564685 0
M  V30 10633 N 1002.15 -0.195058 1.56388 0
M  V30 10634 C 1003.4 -0.9168 1.80894 0
M  V30 10635 C 1003.73 -1.82907 0.652592 0
M  V30 10636 O 1003.01 -1.91382 -0.346853 0
M  V30 10637 C 1003.29 -1.733 3.15657 0
M  V30 10638 C 1003.14 -0.845449 4.41783 0
M  V30 10639 C 1004.46 -2.70557 3.47112 0
M  V30 10640 H 1001.58 -0.331861 0.658056 0
M  V30 10641 H 1004.22 -0.184174 1.89105 0
M  V30 10642 H 1002.37 -2.3576 3.08787 0
M  V30 10643 H 1004.04 -0.235557 4.60698 0
M  V30 10644 H 1002.29 -0.152172 4.33533 0
M  V30 10645 H 1002.96 -1.45152 5.32574 0
M  V30 10646 H 1005.43 -2.1823 3.54281 0
M  V30 10647 H 1004.31 -3.24749 4.42526 0
M  V30 10648 H 1004.57 -3.49605 2.70608 0
M  V30 10649 N 1003.63 -1.50653 -0.462772 0
M  V30 10650 C 1005.04 -1.54821 -1.04342 0
M  V30 10651 C 1005.39 -0.356595 -1.92932 0
M  V30 10652 O 1004.52 0.529579 -2.0982 0
M  V30 10653 C 1005.11 -2.80571 -1.89909 0
M  V30 10654 C 1003.67 -2.87394 -2.43067 0
M  V30 10655 C 1002.82 -2.49206 -1.21621 0
M  V30 10656 H 1005.77 -1.56797 -0.245048 0
M  V30 10657 H 1005.79 -2.62897 -2.75074 0
M  V30 10658 H 1005.3 -3.67281 -1.25405 0
M  V30 10659 H 1003.4 -2.05055 -3.111 0
M  V30 10660 H 1003.52 -3.90477 -2.77605 0
M  V30 10661 H 1001.88 -2.01829 -1.55361 0
M  V30 10662 H 1002.66 -3.38233 -0.587669 0
M  V30 10663 N 1005.11 0.71652 -1.4037 0
M  V30 10664 C 1006.04 1.84138 -1.36477 0
M  V30 10665 C 1007.05 1.6054 -0.27033 0
M  V30 10666 O 1008.24 1.70431 -0.530612 0
M  V30 10667 C 1005.34 3.20523 -1.10082 0
M  V30 10668 C 1004.52 3.71326 -2.31162 0
M  V30 10669 C 1003.57 4.86322 -2.00942 0
M  V30 10670 O 1002.6 4.99022 -2.73799 0
M  V30 10671 N 1003.8 5.72051 -0.986812 0
M  V30 10672 H 1006.57 1.87977 -2.3342 0
M  V30 10673 H 1004.13 0.89802 -1.34712 0
M  V30 10674 H 1006.12 3.95049 -0.878526 0
M  V30 10675 H 1004.69 3.11838 -0.21809 0
M  V30 10676 H 1003.91 2.87941 -2.69227 0
M  V30 10677 H 1005.2 4.02003 -3.11883 0
M  V30 10678 H 1004.6 5.64399 -0.383381 0
M  V30 10679 H 1003.15 6.46565 -0.824419 0
M  V30 10680 N 1006.59 1.25851 0.948643 0
M  V30 10681 C 1007.53 1.06759 2.04625 0
M  V30 10682 C 1008.5 -0.0251144 1.66081 0
M  V30 10683 O 1009.69 0.133221 1.90334 0
M  V30 10684 C 1006.83 0.698724 3.37952 0
M  V30 10685 C 1005.94 1.8669 3.89578 0
M  V30 10686 C 1005.08 1.44184 5.11258 0
M  V30 10687 C 1004.12 2.57878 5.55126 0
M  V30 10688 N 1003.25 2.16106 6.68014 0
M  V30 10689 H 1008.09 2.00691 2.20289 0
M  V30 10690 H 1005.63 0.999327 1.07944 0
M  V30 10691 H 1007.59 0.465788 4.14592 0
M  V30 10692 H 1006.22 -0.203618 3.22157 0
M  V30 10693 H 1005.27 2.21298 3.09405 0
M  V30 10694 H 1006.58 2.72051 4.18079 0
M  V30 10695 H 1005.74 1.16891 5.95333 0
M  V30 10696 H 1004.47 0.559035 4.84485 0
M  V30 10697 H 1003.48 2.85909 4.69612 0
M  V30 10698 H 1004.7 3.46747 5.83904 0
M  V30 10699 H 1002.65 1.3025 6.42939 0
M  V30 10700 H 1002.57 2.95012 6.96063 0
M  V30 10701 H 1003.84 1.92005 7.55483 0
M  V30 10702 N 1008.06 -1.15214 1.07534 0
M  V30 10703 C 1008.97 -2.23636 0.708818 0
M  V30 10704 C 1009.99 -1.7172 -0.280759 0
M  V30 10705 O 1011.17 -2.01 -0.126927 0
M  V30 10706 C 1008.23 -3.46512 0.114167 0
M  V30 10707 C 1007.29 -4.13409 1.15722 0
M  V30 10708 C 1006.53 -5.30419 0.59085 0
M  V30 10709 O 1006.75 -5.67314 -0.592512 0
M  V30 10710 O 1005.68 -5.86871 1.33663 0
M  V30 10711 H 1009.51 -2.57322 1.61305 0
M  V30 10712 H 1007.09 -1.22972 0.848422 0
M  V30 10713 H 1008.98 -4.20851 -0.215091 0
M  V30 10714 H 1007.65 -3.1457 -0.763356 0
M  V30 10715 H 1006.56 -3.40984 1.53886 0
M  V30 10716 H 1007.89 -4.49435 2.00671 0
M  V30 10717 N 1009.54 -0.859717 -1.32086 0
M  V30 10718 C 1010.82 -0.386665 -1.9174 0
M  V30 10719 C 1011.2 1.13028 -1.78292 0
M  V30 10720 O 1010.55 1.95422 -1.18417 0
M  V30 10721 C 1010.76 -0.856648 -3.38323 0
M  V30 10722 C 1012.11 -0.87678 -4.15449 0
M  V30 10723 O 1013.13 -0.80162 -3.47063 0
M  V30 10724 O 1011.99 -0.98373 -5.37573 0
M  V30 10725 H 1009.08 -0.113758 -0.819139 0
M  V30 10726 H 1011.63 -0.946952 -1.40822 0
M  V30 10727 H 1010.4 -1.89996 -3.42078 0
M  V30 10728 H 1010.02 -0.274095 -3.96654 0
M  V30 10729 N 1011.02 1.44971 -0.618145 0
M  V30 10730 C 1012.25 2.06527 -0.124165 0
M  V30 10731 C 1012.66 1.46097 1.19588 0
M  V30 10732 O 1012.02 0.57901 1.73071 0
M  V30 10733 C 1012.07 3.61498 0.0106701 0
M  V30 10734 O 1011.79 4.19675 -1.25716 0
M  V30 10735 C 1013.29 4.40061 0.534872 0
M  V30 10736 H 1010.51 0.666941 -0.0736935 0
M  V30 10737 H 1013.06 1.8605 -0.848871 0
M  V30 10738 H 1011.21 3.81282 0.685752 0
M  V30 10739 H 1011.63 5.12972 -1.09362 0
M  V30 10740 H 1013.1 5.48963 0.57827 0
M  V30 10741 H 1013.58 4.10587 1.55931 0
M  V30 10742 H 1014.18 4.25167 -0.10652 0
M  V30 10743 N 1012.5 0.357919 1.53482 0
M  V30 10744 C 1013.43 -0.484231 2.28424 0
M  V30 10745 C 1014.41 -1.09046 1.30548 0
M  V30 10746 O 1015.59 -1.10916 1.59409 0
M  V30 10747 C 1012.72 -1.62803 3.06778 0
M  V30 10748 C 1011.68 -1.14943 4.12277 0
M  V30 10749 C 1011 -2.38287 4.78669 0
M  V30 10750 C 1012.3 -0.239627 5.2175 0
M  V30 10751 H 1014 0.140979 2.99068 0
M  V30 10752 H 1011.54 0.069244 1.43833 0
M  V30 10753 H 1013.5 -2.22374 3.57949 0
M  V30 10754 H 1012.22 -2.28036 2.3381 0
M  V30 10755 H 1010.88 -0.576442 3.6204 0
M  V30 10756 H 1010.53 -3.01959 4.02281 0
M  V30 10757 H 1010.23 -2.06939 5.49955 0
M  V30 10758 H 1011.75 -2.98558 5.32631 0
M  V30 10759 H 1013.17 -0.742597 5.6847 0
M  V30 10760 H 1011.56 -0.0173747 6.00097 0
M  V30 10761 H 1012.63 0.720333 4.7952 0
M  V30 10762 N 1013.98 -1.5736 0.0868897 0
M  V30 10763 C 1015.22 -1.95933 -0.582212 0
M  V30 10764 C 1015.58 -0.967238 -1.65857 0
M  V30 10765 O 1016.78 -1.24116 -2.3843 0
M  V30 10766 C 1015.05 -3.39049 -1.1305 0
M  V30 10767 S 1016.61 -3.99612 -1.81262 0
M  V30 10768 H 1013.43 -0.685082 -0.190221 0
M  V30 10769 H 1016.03 -1.94808 0.164341 0
M  V30 10770 H 1014.74 -4.09026 -0.335492 0
M  V30 10771 H 1014.27 -3.43752 -1.91307 0
M  V30 10772 H 1016.28 -3.87747 -3.09624 0
M  V30 10773 N 1015.45 0.186762 -1.56489 0
M  V30 10774 C 1016.7 0.905852 -1.81109 0
M  V30 10775 C 1017.03 1.82906 -0.661477 0
M  V30 10776 O 1016.28 1.92504 0.35226 0
M  V30 10777 C 1016.58 1.74719 -3.11782 0
M  V30 10778 C 1016.25 0.974238 -4.40249 0
M  V30 10779 C 1014.91 0.760856 -4.75147 0
M  V30 10780 C 1017.26 0.430971 -5.19415 0
M  V30 10781 C 1014.59 -0.00714216 -5.867 0
M  V30 10782 C 1016.94 -0.323859 -6.3177 0
M  V30 10783 C 1015.61 -0.548183 -6.65245 0
M  V30 10784 H 1014.88 0.331475 -0.662726 0
M  V30 10785 H 1017.52 0.171703 -1.90729 0
M  V30 10786 H 1015.83 2.55027 -2.97437 0
M  V30 10787 H 1017.53 2.30634 -3.28038 0
M  V30 10788 H 1014.12 1.15057 -4.12868 0
M  V30 10789 H 1018.3 0.583205 -4.92861 0
M  V30 10790 H 1013.56 -0.190832 -6.11102 0
M  V30 10791 H 1017.73 -0.752155 -6.92326 0
M  V30 10792 H 1015.36 -1.14518 -7.51525 0
M  V30 10793 N 1016.93 1.50896 0.454776 0
M  V30 10794 C 1017.88 1.71497 1.57136 0
M  V30 10795 C 1018.87 0.58098 1.59126 0
M  V30 10796 O 1020.08 0.761916 1.63079 0
M  V30 10797 H 1016.46 0.54158 0.521724 0
M  V30 10798 H 1018.43 2.65129 1.36928 0
M  V30 10799 C 1017.18 1.84125 2.94947 0
M  V30 10800 H 1016.5 2.7078 2.9414 0
M  V30 10801 H 1017.94 2.02558 3.72487 0
M  V30 10802 C 1016.4 0.596752 3.31573 0
M  V30 10803 O 1016.93 -0.256632 4.00879 0
M  V30 10804 N 1015.13 0.445958 2.87158 0
M  V30 10805 H 1014.68 1.14146 2.30929 0
M  V30 10806 H 1014.64 -0.385519 3.12027 0
M  V30 10807 N 1018.41 -0.709066 1.40748 0
M  V30 10808 C 1019.66 -1.4646 1.38681 0
M  V30 10809 C 1019.97 -1.95599 -0.0056209 0
M  V30 10810 O 1021.18 -2.71091 -0.148907 0
M  V30 10811 C 1019.63 -2.64771 2.43771 0
M  V30 10812 C 1019.24 -2.22474 3.88856 0
M  V30 10813 C 1020.99 -3.42475 2.50821 0
M  V30 10814 C 1018.89 -3.37663 4.85528 0
M  V30 10815 H 1017.82 -0.550084 0.515678 0
M  V30 10816 H 1020.47 -0.771074 1.66513 0
M  V30 10817 H 1018.86 -3.36325 2.09048 0
M  V30 10818 H 1020.03 -1.58297 4.32757 0
M  V30 10819 H 1018.35 -1.57798 3.85342 0
M  V30 10820 H 1020.94 -4.28201 3.20232 0
M  V30 10821 H 1021.29 -3.86738 1.54076 0
M  V30 10822 H 1021.82 -2.77969 2.84567 0
M  V30 10823 H 1018.56 -2.98426 5.83628 0
M  V30 10824 H 1018.08 -4.00734 4.46287 0
M  V30 10825 H 1019.76 -4.03636 5.05655 0
M  V30 10826 N 1019.89 -1.26353 -0.941956 0
M  V30 10827 C 1020.84 -1.07654 -2.06188 0
M  V30 10828 C 1021.83 -0.00369741 -1.694 0
M  V30 10829 O 1023.04 -0.160316 -1.79285 0
M  V30 10830 H 1019.41 -0.331274 -0.675101 0
M  V30 10831 H 1021.38 -2.02566 -2.19111 0
M  V30 10832 C 1020.13 -0.725436 -3.40048 0
M  V30 10833 H 1019.46 -1.54283 -3.68832 0
M  V30 10834 H 1020.9 -0.634383 -4.19227 0
M  V30 10835 C 1019.35 0.569369 -3.32054 0
M  V30 10836 O 1019.88 1.60791 -3.68116 0
M  V30 10837 N 1018.09 0.559714 -2.85159 0
M  V30 10838 H 1017.64 -0.285817 -2.56009 0
M  V30 10839 H 1017.6 1.42617 -2.80193 0
M  V30 10840 N 1021.37 1.14642 -1.08144 0
M  V30 10841 C 1022.28 2.23257 -0.720668 0
M  V30 10842 C 1023.29 1.71866 0.271648 0
M  V30 10843 O 1024.47 2.01064 0.116266 0
M  V30 10844 C 1021.53 3.46447 -0.132542 0
M  V30 10845 C 1020.6 4.12789 -1.17913 0
M  V30 10846 C 1019.83 5.30099 -0.618971 0
M  V30 10847 O 1020.05 5.6762 0.562418 0
M  V30 10848 O 1018.99 5.86154 -1.36774 0
M  V30 10849 H 1022.81 2.56463 -1.62667 0
M  V30 10850 H 1020.4 1.22521 -0.854932 0
M  V30 10851 H 1022.28 4.20959 0.19277 0
M  V30 10852 H 1020.95 3.14971 0.746662 0
M  V30 10853 H 1019.86 3.40163 -1.55693 0
M  V30 10854 H 1021.19 4.48365 -2.03051 0
M  V30 10855 N 1022.85 0.866709 1.31628 0
M  V30 10856 C 1023.76 0.323408 2.3236 0
M  V30 10857 C 1024.77 -0.564995 1.64572 0
M  V30 10858 O 1025.95 -0.462489 1.96018 0
M  V30 10859 C 1023.01 -0.469045 3.43513 0
M  V30 10860 C 1022.07 0.446928 4.26967 0
M  V30 10861 C 1021.31 -0.307799 5.32812 0
M  V30 10862 O 1021.53 -1.5363 5.49321 0
M  V30 10863 O 1020.46 0.332653 6.0098 0
M  V30 10864 H 1024.29 1.15827 2.80745 0
M  V30 10865 H 1021.87 0.629987 1.35468 0
M  V30 10866 H 1023.76 -0.918405 4.1127 0
M  V30 10867 H 1022.43 -1.28051 2.97296 0
M  V30 10868 H 1021.34 0.944719 3.61975 0
M  V30 10869 H 1022.67 1.2239 4.76741 0
M  V30 10870 N 1024.32 -1.44642 0.625825 0
M  V30 10871 C 1025.73 -1.85502 0.211175 0
M  V30 10872 C 1026.09 -1.52356 -1.2362 0
M  V30 10873 O 1025.21 -0.959051 -1.93988 0
M  V30 10874 C 1025.81 -3.36702 0.37648 0
M  V30 10875 C 1024.36 -3.76396 0.0163795 0
M  V30 10876 C 1023.51 -2.68517 0.692368 0
M  V30 10877 H 1026.46 -1.35183 0.831333 0
M  V30 10878 H 1026.48 -3.78536 -0.386106 0
M  V30 10879 H 1026 -3.60795 1.42999 0
M  V30 10880 H 1024.1 -3.57919 -1.0356 0
M  V30 10881 H 1024.21 -4.77231 0.422742 0
M  V30 10882 H 1022.57 -2.54377 0.128191 0
M  V30 10883 H 1023.36 -2.95444 1.74837 0
M  V30 10884 N 1025.8 -0.366053 -1.5329 0
M  V30 10885 C 1027.05 0.223051 -2.00865 0
M  V30 10886 C 1027.37 1.49244 -1.25504 0
M  V30 10887 O 1026.64 1.92404 -0.368444 0
M  V30 10888 H 1025.22 0.085413 -0.742101 0
M  V30 10889 H 1027.88 -0.492396 -1.88578 0
M  V30 10890 H 1026.98 0.449701 -3.08843 0
M  V30 10891 N 1027.28 1.57312 -0.0952337 0
M  V30 10892 C 1028.53 1.94646 0.569284 0
M  V30 10893 C 1028.86 0.977152 1.67825 0
M  V30 10894 O 1028.13 0.0102318 1.94497 0
M  V30 10895 C 1028.42 3.42098 1.12433 0
M  V30 10896 C 1028.27 4.49795 0.0204016 0
M  V30 10897 C 1029.59 3.90866 2.02266 0
M  V30 10898 H 1026.71 0.707779 0.205469 0
M  V30 10899 H 1029.35 1.89274 -0.16597 0
M  V30 10900 H 1027.5 3.46807 1.75092 0
M  V30 10901 H 1029.17 4.57198 -0.613845 0
M  V30 10902 H 1027.41 4.28964 -0.645965 0
M  V30 10903 H 1028.09 5.50166 0.449579 0
M  V30 10904 H 1030.56 3.88311 1.49512 0
M  V30 10905 H 1029.44 4.94604 2.38029 0
M  V30 10906 H 1029.7 3.30167 2.9401 0
M  V30 10907 N 1028.76 -0.17846 1.56586 0
M  V30 10908 C 1030.01 -0.894502 1.8078 0
M  V30 10909 C 1030.32 -1.8372 0.67129 0
M  V30 10910 O 1031.53 -2.59509 0.797971 0
M  V30 10911 C 1029.98 -1.64109 3.20306 0
M  V30 10912 C 1029.59 -0.742387 4.41806 0
M  V30 10913 C 1031.33 -2.34578 3.53798 0
M  V30 10914 C 1029.24 -1.4888 5.72354 0
M  V30 10915 H 1028.17 -0.33776 0.674117 0
M  V30 10916 H 1030.82 -0.14752 1.82906 0
M  V30 10917 H 1029.2 -2.43257 3.12477 0
M  V30 10918 H 1030.38 0.011615 4.60799 0
M  V30 10919 H 1028.69 -0.147705 4.16138 0
M  V30 10920 H 1031.29 -2.91004 4.48577 0
M  V30 10921 H 1031.63 -3.09572 2.78336 0
M  V30 10922 H 1032.17 -1.62381 3.63149 0
M  V30 10923 H 1028.9 -0.781325 6.50827 0
M  V30 10924 H 1028.42 -2.21631 5.57351 0
M  V30 10925 H 1030.1 -2.03819 6.14058 0
M  V30 10926 N 1030.24 -1.51135 -0.446768 0
M  V30 10927 C 1031.17 -1.74709 -1.54916 0
M  V30 10928 C 1032.15 -0.596628 -1.59293 0
M  V30 10929 O 1033.33 -0.838356 -1.75172 0
M  V30 10930 C 1030.46 -1.86353 -2.9307 0
M  V30 10931 C 1029.42 -3.01725 -3.03556 0
M  V30 10932 C 1028.74 -2.9854 -4.43597 0
M  V30 10933 C 1030.04 -4.41848 -2.7851 0
M  V30 10934 H 1031.74 -2.67014 -1.3544 0
M  V30 10935 H 1029.28 -1.28489 -0.650131 0
M  V30 10936 H 1031.23 -2.01428 -3.70141 0
M  V30 10937 H 1029.96 -0.906887 -3.13756 0
M  V30 10938 H 1028.62 -2.86339 -2.28922 0
M  V30 10939 H 1028.27 -2.00673 -4.61237 0
M  V30 10940 H 1027.97 -3.76008 -4.51544 0
M  V30 10941 H 1029.49 -3.15696 -5.22655 0
M  V30 10942 H 1030.9 -4.57633 -3.45319 0
M  V30 10943 H 1029.3 -5.2095 -2.97877 0
M  V30 10944 H 1030.37 -4.52536 -1.74182 0
M  V30 10945 N 1031.71 0.701592 -1.41122 0
M  V30 10946 C 1032.94 1.49553 -1.43696 0
M  V30 10947 C 1033.36 1.88053 -0.0421865 0
M  V30 10948 O 1032.72 1.54223 0.953144 0
M  V30 10949 C 1032.77 2.73834 -2.34622 0
M  V30 10950 O 1031.87 3.71088 -1.7991 0
M  V30 10951 H 1031.21 0.450352 -0.487933 0
M  V30 10952 H 1033.74 0.862886 -1.85514 0
M  V30 10953 H 1033.75 3.22209 -2.5029 0
M  V30 10954 H 1032.43 2.45149 -3.35969 0
M  V30 10955 H 1031.01 3.29994 -1.73661 0
M  V30 10956 N 1033.19 1.2685 0.935242 0
M  V30 10957 C 1034.12 1.1143 2.05196 0
M  V30 10958 C 1035.1 0.0178362 1.70091 0
M  V30 10959 O 1036.29 0.190951 1.93259 0
M  V30 10960 C 1033.42 0.752779 3.39044 0
M  V30 10961 C 1032.37 1.80164 3.88233 0
M  V30 10962 C 1031.7 1.29428 5.18799 0
M  V30 10963 C 1033 3.20431 4.12457 0
M  V30 10964 H 1034.69 2.04845 2.18355 0
M  V30 10965 H 1032.24 0.986276 1.04922 0
M  V30 10966 H 1034.19 0.631757 4.16637 0
M  V30 10967 H 1032.91 -0.217075 3.25878 0
M  V30 10968 H 1031.57 1.91144 3.12825 0
M  V30 10969 H 1031.22 0.3141 5.02018 0
M  V30 10970 H 1030.92 1.99546 5.5268 0
M  V30 10971 H 1032.45 1.18605 5.9897 0
M  V30 10972 H 1033.86 3.12495 4.80645 0
M  V30 10973 H 1032.26 3.88193 4.57631 0
M  V30 10974 H 1033.33 3.66046 3.18023 0
M  V30 10975 N 1034.67 -1.14067 1.0875 0
M  V30 10976 C 1035.92 -1.85459 0.82053 0
M  V30 10977 C 1036.25 -1.82923 -0.65213 0
M  V30 10978 O 1035.52 -1.26241 -1.47965 0
M  V30 10979 C 1035.81 -3.33937 1.34752 0
M  V30 10980 C 1035.66 -3.45026 2.88578 0
M  V30 10981 C 1036.98 -4.2915 0.975636 0
M  V30 10982 H 1034.1 -0.673384 0.299538 0
M  V30 10983 H 1036.74 -1.33927 1.34772 0
M  V30 10984 H 1034.89 -3.77953 0.899086 0
M  V30 10985 H 1036.56 -3.09771 3.41818 0
M  V30 10986 H 1034.81 -2.86124 3.26061 0
M  V30 10987 H 1035.48 -4.49408 3.20526 0
M  V30 10988 H 1037.95 -3.93168 1.36228 0
M  V30 10989 H 1036.83 -5.31489 1.37152 0
M  V30 10990 H 1037.09 -4.41945 -0.116956 0
M  V30 10991 N 1036.15 -0.873678 -1.31166 0
M  V30 10992 C 1037.08 -0.289389 -2.27366 0
M  V30 10993 C 1038.09 0.549667 -1.5324 0
M  V30 10994 O 1039.28 0.371056 -1.74601 0
M  V30 10995 C 1036.38 0.60807 -3.334 0
M  V30 10996 C 1035.56 -0.199379 -4.36945 0
M  V30 10997 C 1034.61 0.626798 -5.22454 0
M  V30 10998 O 1033.64 0.0535121 -5.69175 0
M  V30 10999 N 1034.84 1.93809 -5.47191 0
M  V30 11000 H 1037.61 -1.1161 -2.78143 0
M  V30 11001 H 1035.17 -0.735529 -1.44228 0
M  V30 11002 H 1037.16 1.16656 -3.87522 0
M  V30 11003 H 1035.73 1.33545 -2.82638 0
M  V30 11004 H 1034.95 -0.939316 -3.82845 0
M  V30 11005 H 1036.24 -0.75329 -5.03193 0
M  V30 11006 H 1035.64 2.42693 -5.10995 0
M  V30 11007 H 1034.19 2.44428 -6.04234 0
M  V30 11008 N 1037.63 1.44308 -0.633487 0
M  V30 11009 C 1038.9 1.95476 -0.0697262 0
M  V30 11010 C 1039.28 1.57539 1.40516 0
M  V30 11011 O 1038.63 0.850632 2.12077 0
M  V30 11012 C 1038.84 3.4775 -0.295093 0
M  V30 11013 C 1040.19 4.24177 -0.189542 0
M  V30 11014 O 1041.21 3.55479 -0.226586 0
M  V30 11015 O 1040.07 5.46415 -0.096479 0
M  V30 11016 H 1037.17 0.826734 0.0209582 0
M  V30 11017 H 1039.71 1.54347 -0.705354 0
M  V30 11018 H 1038.48 3.6842 -1.31841 0
M  V30 11019 H 1038.11 3.95832 0.37456 0
M  V30 11020 N 1039.1 0.374177 1.53094 0
M  V30 11021 C 1040.52 -0.103172 1.86415 0
M  V30 11022 C 1040.87 -1.47439 1.29446 0
M  V30 11023 O 1039.99 -2.07333 0.619853 0
M  V30 11024 C 1040.59 -0.193988 3.38244 0
M  V30 11025 C 1039.15 -0.615605 3.71332 0
M  V30 11026 C 1038.29 0.23186 2.76329 0
M  V30 11027 H 1041.24 0.592644 1.47219 0
M  V30 11028 H 1041.26 -1.01597 3.66686 0
M  V30 11029 H 1040.78 0.80414 3.79678 0
M  V30 11030 H 1038.88 -1.62165 3.3546 0
M  V30 11031 H 1038.99 -0.38425 4.77557 0
M  V30 11032 H 1037.35 -0.300579 2.5292 0
M  V30 11033 H 1038.14 1.22769 3.20597 0
M  V30 11034 N 1040.58 -1.57259 0.103575 0
M  V30 11035 C 1041.53 -2.15727 -0.869739 0
M  V30 11036 C 1042.52 -1.10236 -1.28625 0
M  V30 11037 O 1043.73 -1.28567 -1.25979 0
M  V30 11038 H 1040.11 -0.690204 -0.298535 0
M  V30 11039 H 1042.08 -2.96317 -0.351984 0
M  V30 11040 C 1040.83 -2.75905 -2.11593 0
M  V30 11041 H 1040.15 -3.56768 -1.80434 0
M  V30 11042 H 1041.59 -3.20373 -2.77736 0
M  V30 11043 C 1040.05 -1.72218 -2.89556 0
M  V30 11044 O 1040.58 -1.16623 -3.84398 0
M  V30 11045 N 1038.78 -1.42514 -2.53255 0
M  V30 11046 H 1038.33 -1.87914 -1.76198 0
M  V30 11047 H 1038.29 -0.733782 -3.05717 0
M  V30 11048 N 1042.06 0.170153 -1.56679 0
M  V30 11049 C 1043.29 0.902134 -1.86197 0
M  V30 11050 C 1043.7 1.75775 -0.689098 0
M  V30 11051 O 1043.06 1.79271 0.341763 0
M  V30 11052 C 1043.11 1.77792 -3.14757 0
M  V30 11053 O 1042.83 0.956817 -4.27524 0
M  V30 11054 C 1044.33 2.61947 -3.57629 0
M  V30 11055 H 1041.55 0.262026 -0.617724 0
M  V30 11056 H 1044.1 0.169899 -2.03793 0
M  V30 11057 H 1042.25 2.46348 -2.98984 0
M  V30 11058 H 1042.67 1.5559 -5.00891 0
M  V30 11059 H 1044.14 3.19011 -4.50484 0
M  V30 11060 H 1044.62 3.36873 -2.81803 0
M  V30 11061 H 1045.22 1.98721 -3.76019 0
M  V30 11062 N 1043.54 1.5137 0.438746 0
M  V30 11063 C 1044.79 1.63645 1.18595 0
M  V30 11064 C 1045.11 0.354241 1.91755 0
M  V30 11065 O 1044.38 -0.629838 1.85499 0
M  V30 11066 H 1042.96 0.603103 0.440767 0
M  V30 11067 H 1045.62 1.88293 0.503159 0
M  V30 11068 H 1044.72 2.46342 1.9163 0
M  V30 11069 N 1045.02 -0.694098 1.41492 0
M  V30 11070 C 1046.26 -1.45415 1.40929 0
M  V30 11071 C 1046.59 -1.94491 0.0189301 0
M  V30 11072 O 1045.85 -1.7 -0.96945 0
M  V30 11073 C 1046.15 -2.6805 2.36398 0
M  V30 11074 C 1045.81 -2.37623 3.83205 0
M  V30 11075 C 1044.47 -2.29035 4.23198 0
M  V30 11076 C 1046.83 -2.12555 4.75888 0
M  V30 11077 C 1044.15 -1.93478 5.5388 0
M  V30 11078 C 1046.51 -1.78506 6.06892 0
M  V30 11079 C 1045.17 -1.68415 6.45905 0
M  V30 11080 H 1044.44 -0.53211 0.515694 0
M  V30 11081 H 1047.09 -0.793193 1.74301 0
M  V30 11082 H 1045.39 -3.39086 1.96285 0
M  V30 11083 H 1047.09 -3.26194 2.33234 0
M  V30 11084 H 1043.68 -2.45202 3.51531 0
M  V30 11085 H 1047.86 -2.18133 4.45793 0
M  V30 11086 H 1043.12 -1.84219 5.82986 0
M  V30 11087 H 1047.29 -1.58128 6.7821 0
M  V30 11088 H 1044.92 -1.40631 7.47079 0
M  V30 11089 N 1046.49 -1.27344 -0.928501 0
M  V30 11090 C 1047.72 -1.16557 -1.7155 0
M  V30 11091 C 1048.14 0.274044 -1.86093 0
M  V30 11092 O 1047.5 1.19847 -1.36038 0
M  V30 11093 C 1047.55 -1.85332 -3.09329 0
M  V30 11094 O 1046.65 -1.15074 -3.9602 0
M  V30 11095 H 1046 -0.405423 -0.525859 0
M  V30 11096 H 1048.53 -1.68399 -1.16202 0
M  V30 11097 H 1048.54 -1.92659 -3.59648 0
M  V30 11098 H 1047.21 -2.90056 -2.98061 0
M  V30 11099 H 1045.79 -1.1581 -3.54461 0
M  V30 11100 N 1047.97 1.13488 -1.09353 0
M  V30 11101 C 1049.22 1.85022 -0.830354 0
M  V30 11102 C 1049.55 1.83266 0.64242 0
M  V30 11103 O 1048.83 1.27024 1.47293 0
M  V30 11104 C 1049.11 3.33218 -1.36521 0
M  V30 11105 C 1048.96 3.43491 -2.90404 0
M  V30 11106 C 1050.28 4.28626 -0.998381 0
M  V30 11107 H 1047.4 0.671786 -0.303105 0
M  V30 11108 H 1050.04 1.33211 -1.3548 0
M  V30 11109 H 1048.19 3.77471 -0.919117 0
M  V30 11110 H 1049.86 3.07954 -3.43456 0
M  V30 11111 H 1048.11 2.84391 -3.27573 0
M  V30 11112 H 1048.78 4.47702 -3.22905 0
M  V30 11113 H 1051.25 3.9244 -1.38311 0
M  V30 11114 H 1050.13 5.30754 -1.39968 0
M  V30 11115 H 1050.39 4.42001 0.093517 0
M  V30 11116 N 1049.45 0.880621 1.30701 0
M  V30 11117 C 1050.4 0.333562 2.30196 0
M  V30 11118 C 1051.39 -0.557092 1.59978 0
M  V30 11119 O 1052.6 -0.442009 1.74489 0
M  V30 11120 H 1048.97 0.0892036 0.746691 0
M  V30 11121 H 1050.95 1.18644 2.73799 0
M  V30 11122 C 1049.69 -0.440731 3.44895 0
M  V30 11123 H 1049.02 0.235353 3.99107 0
M  V30 11124 H 1050.46 -0.788676 4.166 0
M  V30 11125 C 1048.92 -1.63613 2.94504 0
M  V30 11126 O 1049.45 -2.73549 2.94166 0
M  V30 11127 N 1047.65 -1.47183 2.5057 0
M  V30 11128 H 1047.2 -0.577479 2.51044 0
M  V30 11129 H 1047.16 -2.27303 2.17211 0
M  V30 11130 N 1050.93 -1.4397 0.641131 0
M  V30 11131 C 1052.18 -2.01548 0.149333 0
M  V30 11132 C 1052.5 -1.50759 -1.23679 0
M  V30 11133 O 1051.77 -0.715257 -1.82376 0
M  V30 11134 H 1050.35 -0.745173 0.0522161 0
M  V30 11135 H 1053.01 -1.7634 0.830082 0
M  V30 11136 H 1052.11 -3.11851 0.124676 0
M  V30 11137 N 1052.41 -0.382291 -1.52893 0
M  V30 11138 C 1053.34 0.491199 -2.23875 0
M  V30 11139 C 1054.35 1.03249 -1.25871 0
M  V30 11140 O 1055.54 0.936016 -1.5199 0
M  V30 11141 C 1052.64 1.6927 -2.936 0
M  V30 11142 C 1051.81 1.28 -4.18252 0
M  V30 11143 C 1050.87 2.34541 -4.71038 0
M  V30 11144 O 1049.9 1.96239 -5.34302 0
M  V30 11145 N 1051.1 3.6636 -4.50289 0
M  V30 11146 H 1053.87 -0.116897 -2.99472 0
M  V30 11147 H 1051.43 -0.208296 -1.60554 0
M  V30 11148 H 1053.42 2.40054 -3.25816 0
M  V30 11149 H 1051.99 2.20729 -2.21354 0
M  V30 11150 H 1051.21 0.40133 -3.92152 0
M  V30 11151 H 1052.5 0.98082 -4.99257 0
M  V30 11152 H 1051.9 4.00245 -3.99775 0
M  V30 11153 H 1050.45 4.332 -4.87013 0
M  V30 11154 N 1053.89 1.57202 -0.111913 0
M  V30 11155 C 1054.82 2.17957 0.837683 0
M  V30 11156 C 1055.8 1.1176 1.28233 0
M  V30 11157 O 1056.98 1.39967 1.34621 0
M  V30 11158 C 1054.11 2.77333 2.09054 0
M  V30 11159 C 1053.07 3.8905 1.78393 0
M  V30 11160 C 1052.39 4.35203 3.10649 0
M  V30 11161 C 1053.69 5.11477 1.05775 0
M  V30 11162 H 1055.39 2.9756 0.331441 0
M  V30 11163 H 1052.93 1.43131 0.157979 0
M  V30 11164 H 1054.88 3.18492 2.75936 0
M  V30 11165 H 1053.61 1.95009 2.6199 0
M  V30 11166 H 1052.27 3.48456 1.13903 0
M  V30 11167 H 1051.92 3.49747 3.61506 0
M  V30 11168 H 1051.62 5.10534 2.9091 0
M  V30 11169 H 1053.14 4.79007 3.78661 0
M  V30 11170 H 1054.55 5.497 1.62798 0
M  V30 11171 H 1052.95 5.92346 0.961573 0
M  V30 11172 H 1054.02 4.84881 0.043297 0
M  V30 11173 N 1055.36 -0.161842 1.56767 0
M  V30 11174 C 1056.61 -0.875278 1.81719 0
M  V30 11175 C 1056.93 -1.82998 0.690739 0
M  V30 11176 O 1058.13 -2.58648 0.82545 0
M  V30 11177 C 1056.59 -1.60703 3.22029 0
M  V30 11178 C 1056.2 -0.695486 4.42569 0
M  V30 11179 C 1057.94 -2.30813 3.56266 0
M  V30 11180 C 1055.85 -1.42801 5.73901 0
M  V30 11181 H 1054.78 -0.330591 0.677662 0
M  V30 11182 H 1057.43 -0.128112 1.83052 0
M  V30 11183 H 1055.81 -2.39929 3.1504 0
M  V30 11184 H 1056.98 0.0604882 4.6076 0
M  V30 11185 H 1055.3 -0.10356 4.16271 0
M  V30 11186 H 1057.9 -2.86229 4.51638 0
M  V30 11187 H 1058.24 -3.06603 2.81604 0
M  V30 11188 H 1058.77 -1.5852 3.64851 0
M  V30 11189 H 1055.51 -0.712253 6.51619 0
M  V30 11190 H 1055.03 -2.15707 5.5967 0
M  V30 11191 H 1056.71 -1.97295 6.16185 0
M  V30 11192 N 1056.84 -1.516 -0.430713 0
M  V30 11193 C 1058.09 -1.64271 -1.17726 0
M  V30 11194 C 1058.41 -0.364406 -1.91565 0
M  V30 11195 O 1057.68 0.619991 -1.8583 0
M  V30 11196 H 1056.26 -0.605432 -0.437562 0
M  V30 11197 H 1058.92 -1.88557 -0.493166 0
M  V30 11198 H 1058.02 -2.47355 -1.90321 0
M  V30 11199 N 1058.32 0.686584 -1.41858 0
M  V30 11200 C 1059.27 1.82167 -1.4463 0
M  V30 11201 C 1060.26 1.66286 -0.323313 0
M  V30 11202 O 1061.47 1.73038 -0.495773 0
M  V30 11203 H 1057.84 0.600454 -0.452724 0
M  V30 11204 H 1059.81 1.76947 -2.40276 0
M  V30 11205 C 1058.56 3.20248 -1.35412 0
M  V30 11206 H 1057.89 3.33089 -2.21115 0
M  V30 11207 H 1059.33 3.99723 -1.41413 0
M  V30 11208 C 1057.78 3.36832 -0.0674972 0
M  V30 11209 O 1058.31 3.91845 0.884325 0
M  V30 11210 N 1056.52 2.90598 0.011519 0
M  V30 11211 H 1056.07 2.46016 -0.76381 0
M  V30 11212 H 1056.03 3.02072 0.871774 0
M  V30 11213 N 1059.8 1.27835 0.921735 0
M  V30 11214 C 1060.74 1.11075 2.02314 0
M  V30 11215 C 1061.71 0.0101195 1.66097 0
M  V30 11216 O 1062.9 0.173564 1.90009 0
M  V30 11217 C 1060.04 0.770251 3.36394 0
M  V30 11218 C 1059.15 1.94912 3.8553 0
M  V30 11219 C 1058.29 1.54996 5.08084 0
M  V30 11220 C 1057.33 2.69595 5.49531 0
M  V30 11221 N 1056.46 2.30227 6.6328 0
M  V30 11222 H 1061.3 2.05319 2.15982 0
M  V30 11223 H 1058.84 1.022 1.058 0
M  V30 11224 H 1060.8 0.553624 4.1351 0
M  V30 11225 H 1059.43 -0.135238 3.22517 0
M  V30 11226 H 1058.48 2.27811 3.04641 0
M  V30 11227 H 1059.79 2.80858 4.12214 0
M  V30 11228 H 1058.95 1.29493 5.9272 0
M  V30 11229 H 1057.69 0.661676 4.83191 0
M  V30 11230 H 1056.69 2.95806 4.63442 0
M  V30 11231 H 1057.92 3.59054 5.76417 0
M  V30 11232 H 1055.86 1.43858 6.40032 0
M  V30 11233 H 1055.78 3.09711 6.89649 0
M  V30 11234 H 1057.05 2.07987 7.5124 0
M  V30 11235 N 1061.28 -1.12907 1.09954 0
M  V30 11236 C 1062.24 -2.16673 0.747364 0
M  V30 11237 C 1063.24 -1.59208 -0.225741 0
M  V30 11238 O 1064.43 -1.742 -0.00322482 0
M  V30 11239 C 1061.56 -3.40735 0.106169 0
M  V30 11240 H 1062.75 -2.49341 1.6664 0
M  V30 11241 H 1060.31 -1.27828 0.899421 0
M  V30 11242 H 1061.04 -3.13661 -0.82384 0
M  V30 11243 H 1060.83 -3.83717 0.806434 0
M  V30 11244 H 1062.32 -4.17414 -0.12464 0
M  V30 11245 N 1062.75 -0.88754 -1.30232 0
M  V30 11246 C 1064.17 -0.581904 -1.48614 0
M  V30 11247 C 1064.37 0.879711 -1.81282 0
M  V30 11248 O 1063.43 1.66076 -1.90198 0
M  V30 11249 C 1064.74 -1.49726 -2.60773 0
M  V30 11250 C 1066.29 -1.50117 -2.74653 0
M  V30 11251 C 1066.76 -2.40251 -3.89927 0
M  V30 11252 N 1068.25 -2.38229 -3.97242 0
M  V30 11253 C 1068.99 -3.04682 -4.85754 0
M  V30 11254 N 1068.48 -3.80369 -5.79043 0
M  V30 11255 N 1070.28 -2.93901 -4.79144 0
M  V30 11256 H 1062.43 -1.83304 -1.073 0
M  V30 11257 H 1064.69 -0.78477 -0.531826 0
M  V30 11258 H 1064.4 -2.5381 -2.43462 0
M  V30 11259 H 1064.27 -1.20874 -3.57308 0
M  V30 11260 H 1066.66 -0.467832 -2.91368 0
M  V30 11261 H 1066.74 -1.83001 -1.7873 0
M  V30 11262 H 1066.38 -3.43671 -3.73969 0
M  V30 11263 H 1066.31 -2.04682 -4.85194 0
M  V30 11264 H 1068.8 -1.83229 -3.30508 0
M  V30 11265 H 1069.12 -4.28159 -6.4335 0
M  V30 11266 H 1067.46 -3.84477 -5.78967 0
M  V30 11267 H 1070.65 -2.34296 -4.05245 0
M  V30 11268 H 1070.83 -3.45967 -5.47915 0
M  V30 11269 N 1064.23 1.43628 -0.648757 0
M  V30 11270 C 1065.46 2.06732 -0.166284 0
M  V30 11271 C 1065.88 1.48281 1.15734 0
M  V30 11272 O 1065.24 0.591018 1.71396 0
M  V30 11273 C 1065.29 3.60502 -0.0838732 0
M  V30 11274 O 1064.39 4.01186 0.955185 0
M  V30 11275 H 1063.73 0.657479 -0.0928285 0
M  V30 11276 H 1066.26 1.84208 -0.890421 0
M  V30 11277 H 1066.27 4.07875 0.100923 0
M  V30 11278 H 1064.95 4.02424 -1.05014 0
M  V30 11279 H 1063.53 3.65412 0.743537 0
M  V30 11280 N 1065.71 0.390394 1.52688 0
M  V30 11281 C 1067.12 -0.083394 1.86514 0
M  V30 11282 C 1067.47 -1.46057 1.31003 0
M  V30 11283 O 1066.6 -2.06663 0.641809 0
M  V30 11284 C 1067.19 -0.158102 3.38431 0
M  V30 11285 C 1065.75 -0.576186 3.71964 0
M  V30 11286 C 1064.9 0.261156 2.76068 0
M  V30 11287 H 1067.85 0.608226 1.46582 0
M  V30 11288 H 1067.87 -0.977023 3.67742 0
M  V30 11289 H 1067.38 0.844365 3.78803 0
M  V30 11290 H 1065.48 -1.58598 3.37161 0
M  V30 11291 H 1065.6 -0.333577 4.77937 0
M  V30 11292 H 1063.96 -0.273737 2.53225 0
M  V30 11293 H 1064.74 1.26162 3.19277 0
M  V30 11294 N 1067.19 -1.57141 0.120249 0
M  V30 11295 C 1068.44 -1.94852 -0.536387 0
M  V30 11296 C 1068.76 -1.00452 -1.67136 0
M  V30 11297 O 1068.03 -0.061053 -1.95805 0
M  V30 11298 H 1066.61 -0.719411 -0.201138 0
M  V30 11299 H 1069.27 -1.93977 0.189482 0
M  V30 11300 H 1068.37 -2.97917 -0.930145 0
M  V30 11301 N 1068.67 0.153526 -1.5685 0
M  V30 11302 C 1069.6 1.2147 -1.94365 0
M  V30 11303 C 1070.61 1.39532 -0.838726 0
M  V30 11304 O 1071.8 1.39219 -1.11715 0
M  V30 11305 C 1068.9 2.5806 -2.19677 0
M  V30 11306 C 1068.07 2.61062 -3.50949 0
M  V30 11307 C 1067.13 3.79144 -3.64878 0
M  V30 11308 O 1066.16 3.64319 -4.37333 0
M  V30 11309 N 1067.36 4.96333 -3.01054 0
M  V30 11310 H 1070.13 0.895889 -2.85996 0
M  V30 11311 H 1067.69 0.343147 -1.58222 0
M  V30 11312 H 1069.68 3.35553 -2.26243 0
M  V30 11313 H 1068.25 2.8226 -1.34343 0
M  V30 11314 H 1067.47 1.69533 -3.55882 0
M  V30 11315 H 1068.76 2.60094 -4.37297 0
M  V30 11316 H 1068.15 5.1128 -2.42093 0
M  V30 11317 H 1066.71 5.71625 -3.13191 0
M  V30 11318 N 1070.14 1.51827 0.422667 0
M  V30 11319 C 1071.09 1.7058 1.51282 0
M  V30 11320 C 1072.08 0.5597 1.50851 0
M  V30 11321 O 1073.27 0.816223 1.57057 0
M  V30 11322 C 1070.4 1.84759 2.89342 0
M  V30 11323 C 1069.49 3.05199 2.94473 0
M  V30 11324 N 1069.88 4.28135 2.69322 0
M  V30 11325 C 1068.17 3.04755 3.25638 0
M  V30 11326 C 1068.88 5.09507 2.80674 0
M  V30 11327 N 1067.85 4.44464 3.12974 0
M  V30 11328 H 1071.65 2.63283 1.30611 0
M  V30 11329 H 1069.17 1.49674 0.630191 0
M  V30 11330 H 1071.16 1.96308 3.67789 0
M  V30 11331 H 1069.82 0.932478 3.11022 0
M  V30 11332 H 1070.84 4.56835 2.43972 0
M  V30 11333 H 1067.51 2.2293 3.52999 0
M  V30 11334 H 1068.9 6.17409 2.65058 0
M  V30 11335 N 1071.62 -0.679052 1.4222 0
M  V30 11336 C 1072.9 -1.43473 1.32947 0
M  V30 11337 C 1073.28 -2.11071 -0.0351689 0
M  V30 11338 O 1072.63 -2.02925 -1.05042 0
M  V30 11339 C 1072.84 -2.44065 2.49466 0
M  V30 11340 C 1074.19 -3.08834 2.91387 0
M  V30 11341 O 1075.21 -2.54392 2.49325 0
M  V30 11342 O 1074.07 -4.07478 3.64175 0
M  V30 11343 H 1071.16 -0.639743 0.524078 0
M  V30 11344 H 1073.71 -0.708134 1.54219 0
M  V30 11345 H 1072.48 -1.92884 3.40457 0
M  V30 11346 H 1072.1 -3.24212 2.30158 0
M  V30 11347 N 1073.1 -1.28322 -0.914942 0
M  V30 11348 C 1074.35 -1.15179 -1.66067 0
M  V30 11349 C 1074.67 0.300279 -1.92674 0
M  V30 11350 O 1073.94 1.20821 -1.54205 0
M  V30 11351 H 1072.52 -0.423264 -0.615513 0
M  V30 11352 H 1075.18 -1.61034 -1.09791 0
M  V30 11353 H 1074.28 -1.69048 -2.62353 0
M  V30 11354 N 1074.58 1.12322 -1.10551 0
M  V30 11355 C 1075.81 1.87679 -0.87087 0
M  V30 11356 C 1076.22 1.79711 0.578733 0
M  V30 11357 O 1075.58 1.17185 1.39907 0
M  V30 11358 C 1075.63 3.36846 -1.31213 0
M  V30 11359 O 1075.35 3.44626 -2.70489 0
M  V30 11360 C 1076.85 4.29138 -1.11156 0
M  V30 11361 H 1074.07 0.593788 -0.3125 0
M  V30 11362 H 1076.62 1.42116 -1.47048 0
M  V30 11363 H 1074.77 3.79948 -0.756169 0
M  V30 11364 H 1075.18 4.37441 -2.89389 0
M  V30 11365 H 1076.66 5.32082 -1.46944 0
M  V30 11366 H 1077.14 4.39171 -0.0502963 0
M  V30 11367 H 1077.74 3.91818 -1.65405 0
M  V30 11368 N 1076.06 0.894434 1.2976 0
M  V30 11369 C 1077.29 0.532143 1.99629 0
M  V30 11370 C 1077.69 -0.886234 1.6716 0
M  V30 11371 O 1077.04 -1.59573 0.910065 0
M  V30 11372 C 1077.1 0.638335 3.53787 0
M  V30 11373 C 1076.76 2.02273 4.09798 0
M  V30 11374 C 1077.76 2.99327 4.25087 0
M  V30 11375 C 1075.45 2.33069 4.44954 0
M  V30 11376 C 1077.44 4.25304 4.74758 0
M  V30 11377 C 1075.13 3.59289 4.94322 0
M  V30 11378 C 1076.12 4.55222 5.09178 0
M  V30 11379 O 1075.81 5.79202 5.57477 0
M  V30 11380 H 1075.54 0.203326 0.644697 0
M  V30 11381 H 1078.1 1.2043 1.6639 0
M  V30 11382 H 1076.33 -0.0908338 3.86593 0
M  V30 11383 H 1078.02 0.285956 4.04891 0
M  V30 11384 H 1078.78 2.76849 3.9822 0
M  V30 11385 H 1074.66 1.59162 4.32653 0
M  V30 11386 H 1078.21 5.00189 4.86269 0
M  V30 11387 H 1074.1 3.816 5.20626 0
M  V30 11388 H 1074.87 5.81717 5.75802 0
M  V30 11389 N 1077.53 -1.43282 0.656365 0
M  V30 11390 C 1078.78 -2.01776 0.171039 0
M  V30 11391 C 1079.11 -1.51795 -1.21609 0
M  V30 11392 O 1078.36 -0.702864 -1.82643 0
M  V30 11393 C 1078.66 -3.57148 0.134225 0
M  V30 11394 C 1078.33 -4.26488 1.46352 0
M  V30 11395 C 1076.99 -4.45146 1.82753 0
M  V30 11396 C 1079.34 -4.65728 2.33981 0
M  V30 11397 C 1076.67 -5.0031 3.06443 0
M  V30 11398 C 1079.02 -5.22263 3.56966 0
M  V30 11399 C 1077.69 -5.39136 3.93559 0
M  V30 11400 H 1076.96 -0.738352 0.0625878 0
M  V30 11401 H 1079.6 -1.71716 0.847697 0
M  V30 11402 H 1077.91 -3.86768 -0.625892 0
M  V30 11403 H 1079.61 -4.00168 -0.258207 0
M  V30 11404 H 1076.2 -4.12313 1.1703 0
M  V30 11405 H 1080.38 -4.51003 2.07148 0
M  V30 11406 H 1075.64 -5.11559 3.34839 0
M  V30 11407 H 1079.81 -5.51614 4.25082 0
M  V30 11408 H 1077.44 -5.81646 4.89481 0
M  V30 11409 N 1079.01 -0.398486 -1.52479 0
M  V30 11410 C 1080.26 0.180394 -2.01293 0
M  V30 11411 C 1080.58 1.46548 -1.28641 0
M  V30 11412 O 1079.85 1.91579 -0.409173 0
M  V30 11413 H 1078.43 0.0696528 -0.743746 0
M  V30 11414 H 1081.09 -0.532285 -1.87491 0
M  V30 11415 H 1080.19 0.38409 -3.09728 0
M  V30 11416 N 1080.49 1.57075 -0.12858 0
M  V30 11417 C 1081.91 1.57964 0.227961 0
M  V30 11418 C 1082.11 1.14186 1.66023 0
M  V30 11419 O 1081.16 0.833655 2.38341 0
M  V30 11420 C 1082.48 3.00697 -0.0140648 0
M  V30 11421 C 1084.02 3.12958 0.0510876 0
M  V30 11422 C 1084.5 4.57709 -0.163368 0
M  V30 11423 N 1085.99 4.6307 -0.109663 0
M  V30 11424 C 1086.73 5.72853 -0.250366 0
M  V30 11425 N 1086.22 6.91351 -0.447772 0
M  V30 11426 N 1088.01 5.61781 -0.189265 0
M  V30 11427 H 1080.17 1.83829 -1.06398 0
M  V30 11428 H 1082.43 0.850014 -0.419739 0
M  V30 11429 H 1082.13 3.37047 -1.00461 0
M  V30 11430 H 1082.01 3.70389 0.713571 0
M  V30 11431 H 1084.4 2.7646 1.03216 0
M  V30 11432 H 1084.48 2.4579 -0.708583 0
M  V30 11433 H 1084.12 4.94907 -1.14146 0
M  V30 11434 H 1084.05 5.2298 0.616405 0
M  V30 11435 H 1086.54 3.7788 0.0390086 0
M  V30 11436 H 1086.85 7.70871 -0.54574 0
M  V30 11437 H 1085.2 6.93314 -0.483866 0
M  V30 11438 H 1088.39 4.68086 -0.0359374 0
M  V30 11439 H 1088.56 6.47294 -0.302359 0
M  V30 11440 N 1081.97 -0.145205 1.5693 0
M  V30 11441 C 1082.9 -1.18096 2.01434 0
M  V30 11442 C 1083.88 -1.447 0.894204 0
M  V30 11443 O 1085.07 -1.55589 1.16214 0
M  V30 11444 C 1082.2 -2.51369 2.39647 0
M  V30 11445 C 1081.15 -2.39283 3.54863 0
M  V30 11446 C 1080.48 -3.77283 3.78895 0
M  V30 11447 C 1081.78 -1.8754 4.87469 0
M  V30 11448 H 1083.47 -0.810897 2.8821 0
M  V30 11449 H 1081.02 -0.388624 1.38657 0
M  V30 11450 H 1082.97 -3.24054 2.69382 0
M  V30 11451 H 1081.69 -2.90214 1.49811 0
M  V30 11452 H 1080.35 -1.6905 3.25296 0
M  V30 11453 H 1080 -4.13567 2.86307 0
M  V30 11454 H 1079.7 -3.70057 4.56433 0
M  V30 11455 H 1081.22 -4.51514 4.11057 0
M  V30 11456 H 1082.64 -2.50019 5.1591 0
M  V30 11457 H 1081.03 -1.912 5.68826 0
M  V30 11458 H 1082.1 -0.831194 4.77723 0
M  V30 11459 N 1083.45 -1.52049 -0.414609 0
M  V30 11460 C 1084.7 -1.65511 -1.15977 0
M  V30 11461 C 1085.02 -0.384703 -1.91168 0
M  V30 11462 O 1084.29 0.600247 -1.86477 0
M  V30 11463 H 1082.87 -0.610039 -0.431116 0
M  V30 11464 H 1085.53 -1.8907 -0.473139 0
M  V30 11465 H 1084.62 -2.4936 -1.87686 0
M  V30 11466 N 1084.93 0.6715 -1.42579 0
M  V30 11467 C 1086.17 1.42731 -1.42516 0
M  V30 11468 C 1086.49 1.95545 -0.0462407 0
M  V30 11469 O 1087.69 2.71391 0.0769798 0
M  V30 11470 C 1086.15 2.58215 -2.50705 0
M  V30 11471 C 1085.76 2.12086 -3.94618 0
M  V30 11472 C 1087.5 3.35705 -2.59813 0
M  V30 11473 C 1085.41 3.24672 -4.9431 0
M  V30 11474 H 1084.34 0.536218 -0.530081 0
M  V30 11475 H 1086.99 0.726655 -1.68499 0
M  V30 11476 H 1085.37 3.30665 -2.17892 0
M  V30 11477 H 1086.55 1.46768 -4.36802 0
M  V30 11478 H 1084.86 1.47526 -3.89391 0
M  V30 11479 H 1087.46 4.1956 -3.31472 0
M  V30 11480 H 1087.8 3.82517 -1.64276 0
M  V30 11481 H 1088.33 2.70326 -2.91836 0
M  V30 11482 H 1085.07 2.82848 -5.91335 0
M  V30 11483 H 1084.59 3.88761 -4.56755 0
M  V30 11484 H 1086.27 3.90088 -5.16179 0
M  V30 11485 N 1086.4 1.28806 0.908124 0
M  V30 11486 C 1087.37 1.13228 1.99279 0
M  V30 11487 C 1088.37 0.0702456 1.60646 0
M  V30 11488 O 1089.56 0.316494 1.71301 0
M  V30 11489 C 1086.69 0.729629 3.33 0
M  V30 11490 H 1087.88 2.09566 2.14528 0
M  V30 11491 H 1085.43 1.11872 1.09153 0
M  V30 11492 H 1086.17 -0.234268 3.23453 0
M  V30 11493 H 1085.95 1.49688 3.62403 0
M  V30 11494 H 1087.44 0.643449 4.12613 0
M  V30 11495 N 1087.88 -1.11734 1.11145 0
M  V30 11496 C 1088.83 -2.19765 0.761982 0
M  V30 11497 C 1089.82 -1.67616 -0.24518 0
M  V30 11498 O 1091.03 -1.79695 -0.104781 0
M  V30 11499 H 1087.4 -0.71644 0.228513 0
M  V30 11500 H 1089.38 -2.4649 1.68183 0
M  V30 11501 C 1088.12 -3.47016 0.218057 0
M  V30 11502 H 1087.45 -3.87494 0.984299 0
M  V30 11503 H 1088.89 -4.23998 0.0116825 0
M  V30 11504 C 1087.35 -3.20088 -1.05096 0
M  V30 11505 O 1087.88 -3.40503 -2.1312 0
M  V30 11506 N 1086.08 -2.73844 -0.972523 0
M  V30 11507 H 1085.63 -2.57431 -0.0933459 0
M  V30 11508 H 1085.59 -2.56204 -1.82228 0
M  V30 11509 N 1089.36 -0.901303 -1.29284 0
M  V30 11510 C 1090.77 -0.576317 -1.77582 0
M  V30 11511 C 1091.12 0.908078 -1.73921 0
M  V30 11512 O 1090.25 1.71006 -1.32611 0
M  V30 11513 C 1090.84 -1.03938 -3.22463 0
M  V30 11514 C 1089.4 -0.765533 -3.68533 0
M  V30 11515 C 1088.55 -1.21318 -2.49354 0
M  V30 11516 H 1091.5 -1.08386 -1.15923 0
M  V30 11517 H 1091.52 -0.375367 -3.78644 0
M  V30 11518 H 1091.03 -2.11977 -3.25096 0
M  V30 11519 H 1089.13 0.302176 -3.71373 0
M  V30 11520 H 1089.25 -1.36454 -4.59257 0
M  V30 11521 H 1087.61 -0.632141 -2.46731 0
M  V30 11522 H 1088.39 -2.30165 -2.54714 0
M  V30 11523 N 1090.84 1.42931 -0.663954 0
M  V30 11524 C 1091.8 2.29197 0.0117626 0
M  V30 11525 C 1092.8 1.42767 0.739875 0
M  V30 11526 O 1093.99 1.64278 0.579509 0
M  V30 11527 C 1091.12 3.2505 1.02738 0
M  V30 11528 H 1092.32 2.90438 -0.747391 0
M  V30 11529 H 1089.87 1.5039 -0.425733 0
M  V30 11530 H 1090.6 2.68726 1.8154 0
M  V30 11531 H 1090.39 3.88785 0.508809 0
M  V30 11532 H 1091.88 3.89771 1.49893 0
M  V30 11533 N 1092.32 0.406567 1.52266 0
M  V30 11534 C 1093.54 -0.169624 2.06204 0
M  V30 11535 C 1093.96 -1.39076 1.27684 0
M  V30 11536 O 1093.32 -1.79528 0.328023 0
M  V30 11537 C 1093.37 -0.522611 3.57702 0
M  V30 11538 O 1093.09 0.650028 4.33251 0
M  V30 11539 C 1094.59 -1.15281 4.28048 0
M  V30 11540 H 1091.81 -0.0215191 0.670655 0
M  V30 11541 H 1094.35 0.576781 1.96198 0
M  V30 11542 H 1092.51 -1.21891 3.67725 0
M  V30 11543 H 1092.92 0.355989 5.23291 0
M  V30 11544 H 1094.4 -1.35002 5.35237 0
M  V30 11545 H 1094.87 -2.12517 3.84361 0
M  V30 11546 H 1095.48 -0.496786 4.22389 0
M  V30 11547 N 1093.79 -1.57004 0.136909 0
M  V30 11548 C 1095.07 -1.87375 -0.561233 0
M  V30 11549 C 1095.45 -1.04117 -1.83638 0
M  V30 11550 O 1094.8 -0.125103 -2.28157 0
M  V30 11551 C 1095.01 -3.38829 -0.836426 0
M  V30 11552 C 1096.36 -4.07826 -1.18164 0
M  V30 11553 O 1097.38 -3.4395 -0.92611 0
M  V30 11554 O 1096.24 -5.20614 -1.66204 0
M  V30 11555 H 1093.33 -0.776287 -0.285145 0
M  V30 11556 H 1095.88 -1.68818 0.172761 0
M  V30 11557 H 1094.65 -3.91244 0.066442 0
M  V30 11558 H 1094.28 -3.62879 -1.62496 0
M  V30 11559 N 1095.27 0.136881 -1.57004 0
M  V30 11560 C 1096.52 0.847775 -1.83899 0
M  V30 11561 C 1096.85 1.80709 -0.719332 0
M  V30 11562 O 1096.1 1.93527 0.290838 0
M  V30 11563 C 1096.4 1.64711 -3.17183 0
M  V30 11564 C 1096.07 0.833683 -4.43126 0
M  V30 11565 C 1094.73 0.609306 -4.77327 0
M  V30 11566 C 1097.08 0.265504 -5.20523 0
M  V30 11567 C 1094.41 -0.193793 -5.8638 0
M  V30 11568 C 1096.76 -0.524688 -6.3042 0
M  V30 11569 C 1095.43 -0.759548 -6.63164 0
M  V30 11570 H 1094.7 0.310223 -0.672936 0
M  V30 11571 H 1097.34 0.110937 -1.91178 0
M  V30 11572 H 1095.65 2.45435 -3.054 0
M  V30 11573 H 1097.34 2.20081 -3.3521 0
M  V30 11574 H 1093.93 1.01864 -4.16319 0
M  V30 11575 H 1098.12 0.426109 -4.94467 0
M  V30 11576 H 1093.37 -0.385153 -6.10186 0
M  V30 11577 H 1097.55 -0.972033 -6.89583 0
M  V30 11578 H 1095.18 -1.38369 -7.47501 0
M  V30 11579 N 1096.75 1.52266 0.40654 0
M  V30 11580 C 1097.68 1.72025 1.51459 0
M  V30 11581 C 1098.7 0.600667 1.51314 0
M  V30 11582 O 1099.88 0.875894 1.55532 0
M  V30 11583 C 1096.98 1.7479 2.90348 0
M  V30 11584 C 1096.16 3.03826 3.14656 0
M  V30 11585 C 1095.22 2.98369 4.33431 0
M  V30 11586 O 1094.24 3.7227 4.30586 0
M  V30 11587 N 1095.44 2.16338 5.38682 0
M  V30 11588 H 1098.21 2.67622 1.34903 0
M  V30 11589 H 1095.77 1.50536 0.595867 0
M  V30 11590 H 1097.76 1.68667 3.67877 0
M  V30 11591 H 1096.33 0.86656 3.00349 0
M  V30 11592 H 1095.55 3.23577 2.25148 0
M  V30 11593 H 1096.84 3.89182 3.27742 0
M  V30 11594 H 1096.24 1.55731 5.43842 0
M  V30 11595 H 1094.8 2.1607 6.14945 0
M  V30 11596 N 1098.23 -0.663929 1.42933 0
M  V30 11597 C 1099.16 -1.78899 1.50058 0
M  V30 11598 C 1100.14 -1.66329 0.356164 0
M  V30 11599 O 1101.32 -1.85587 0.571944 0
M  V30 11600 C 1098.45 -3.17265 1.41281 0
M  V30 11601 C 1097.41 -3.44584 2.53861 0
M  V30 11602 C 1096.73 -4.82638 2.3014 0
M  V30 11603 C 1098.03 -3.40394 3.96143 0
M  V30 11604 H 1099.73 -1.73194 2.44222 0
M  V30 11605 H 1097.27 -0.83182 1.17545 0
M  V30 11606 H 1099.23 -3.95715 1.44872 0
M  V30 11607 H 1097.95 -3.23675 0.43616 0
M  V30 11608 H 1096.61 -2.685 2.49606 0
M  V30 11609 H 1096.26 -4.85711 1.30743 0
M  V30 11610 H 1095.96 -5.01879 3.056 0
M  V30 11611 H 1097.48 -5.63359 2.35497 0
M  V30 11612 H 1098.9 -4.08796 4.01943 0
M  V30 11613 H 1097.29 -3.7117 4.71543 0
M  V30 11614 H 1098.36 -2.38767 4.22041 0
M  V30 11615 N 1099.71 -1.29285 -0.901281 0
M  V30 11616 C 1100.62 -1.16161 -2.03823 0
M  V30 11617 C 1101.63 -0.0852298 -1.73791 0
M  V30 11618 O 1102.81 -0.29699 -1.99198 0
M  V30 11619 C 1099.87 -0.837586 -3.3643 0
M  V30 11620 C 1098.93 -1.99764 -3.7999 0
M  V30 11621 C 1098.17 -1.68898 -5.0627 0
M  V30 11622 O 1098.39 -0.609177 -5.67138 0
M  V30 11623 O 1097.32 -2.53648 -5.45845 0
M  V30 11624 H 1101.15 -2.11635 -2.17817 0
M  V30 11625 H 1098.74 -1.08722 -1.02468 0
M  V30 11626 H 1100.62 -0.671376 -4.16017 0
M  V30 11627 H 1099.29 0.0873811 -3.23582 0
M  V30 11628 H 1098.2 -2.21908 -3.01177 0
M  V30 11629 H 1099.53 -2.90376 -3.9742 0
M  V30 11630 N 1101.18 1.11143 -1.11736 0
M  V30 11631 C 1102.43 1.83219 -0.869413 0
M  V30 11632 C 1102.76 1.84588 0.603402 0
M  V30 11633 O 1102.04 1.30119 1.44566 0
M  V30 11634 C 1102.32 3.30247 -1.43559 0
M  V30 11635 C 1102.17 3.37253 -2.97624 0
M  V30 11636 C 1103.49 4.26412 -1.08907 0
M  V30 11637 H 1100.61 0.665205 -0.317286 0
M  V30 11638 H 1103.25 1.30307 -1.38275 0
M  V30 11639 H 1101.4 3.75437 -0.998978 0
M  V30 11640 H 1103.08 3.00599 -3.49911 0
M  V30 11641 H 1101.32 2.77378 -3.33532 0
M  V30 11642 H 1101.99 4.40752 -3.32328 0
M  V30 11643 H 1104.47 3.89418 -1.46604 0
M  V30 11644 H 1103.34 5.27666 -1.51195 0
M  V30 11645 H 1103.6 4.421 -0.000259009 0
M  V30 11646 N 1102.66 0.908147 1.28804 0
M  V30 11647 C 1103.89 0.55409 1.99343 0
M  V30 11648 C 1104.31 -0.863262 1.67908 0
M  V30 11649 O 1103.66 -1.571 0.92875 0
M  V30 11650 C 1103.71 0.746916 3.537 0
M  V30 11651 O 1103.43 2.10849 3.84024 0
M  V30 11652 C 1104.94 0.398939 4.41501 0
M  V30 11653 H 1102.16 0.211784 0.636701 0
M  V30 11654 H 1104.7 1.21981 1.64137 0
M  V30 11655 H 1102.85 0.128264 3.87188 0
M  V30 11656 H 1103.27 2.14404 4.78676 0
M  V30 11657 H 1104.74 0.584656 5.48895 0
M  V30 11658 H 1105.22 -0.664517 4.34144 0
M  V30 11659 H 1105.83 0.994892 4.135 0
M  V30 11660 N 1104.14 -1.42577 0.671525 0
M  V30 11661 C 1105.55 -1.84736 0.270084 0
M  V30 11662 C 1105.9 -1.56212 -1.18711 0
M  V30 11663 O 1105.03 -1.02028 -1.90838 0
M  V30 11664 C 1105.62 -3.35334 0.483409 0
M  V30 11665 C 1104.18 -3.76154 0.136119 0
M  V30 11666 C 1103.33 -2.66179 0.777444 0
M  V30 11667 H 1106.28 -1.3247 0.873919 0
M  V30 11668 H 1106.3 -3.79573 -0.265483 0
M  V30 11669 H 1105.81 -3.56063 1.54405 0
M  V30 11670 H 1103.91 -3.61033 -0.921209 0
M  V30 11671 H 1104.03 -4.75645 0.574356 0
M  V30 11672 H 1102.39 -2.53841 0.209055 0
M  V30 11673 H 1103.17 -2.89732 1.84148 0
M  V30 11674 N 1105.62 -0.414636 -1.52048 0
M  V30 11675 C 1106.55 0.443601 -2.24866 0
M  V30 11676 C 1107.56 1.00556 -1.28032 0
M  V30 11677 O 1108.75 0.903566 -1.53941 0
M  V30 11678 C 1105.85 1.63004 -2.97124 0
M  V30 11679 C 1105.03 1.191 -4.20873 0
M  V30 11680 C 1104.08 2.24497 -4.75907 0
M  V30 11681 O 1103.11 1.84861 -5.38345 0
M  V30 11682 N 1104.31 3.56727 -4.57959 0
M  V30 11683 H 1107.08 -0.180393 -2.99157 0
M  V30 11684 H 1104.64 -0.242305 -1.60077 0
M  V30 11685 H 1106.63 2.33089 -3.30835 0
M  V30 11686 H 1105.2 2.15984 -2.25986 0
M  V30 11687 H 1104.42 0.318059 -3.92915 0
M  V30 11688 H 1105.71 0.874699 -5.01225 0
M  V30 11689 H 1105.11 3.91675 -4.08175 0
M  V30 11690 H 1103.66 4.22772 -4.96092 0
M  V30 11691 N 1107.1 1.56929 -0.145233 0
M  V30 11692 C 1108.04 2.17958 0.812237 0
M  V30 11693 C 1109.04 1.13608 1.25657 0
M  V30 11694 O 1110.24 1.31861 1.22526 0
M  V30 11695 H 1106.62 0.697876 0.28013 0
M  V30 11696 H 1108.59 2.97146 0.273297 0
M  V30 11697 C 1107.34 2.81418 2.04203 0
M  V30 11698 H 1106.66 3.61427 1.70911 0
M  V30 11699 H 1108.1 3.27624 2.69144 0
M  V30 11700 C 1106.56 1.79835 2.84888 0
M  V30 11701 O 1107.09 1.26773 3.81171 0
M  V30 11702 N 1105.3 1.49179 2.49387 0
M  V30 11703 H 1104.84 1.9252 1.71154 0
M  V30 11704 H 1104.8 0.81458 3.03664 0
M  V30 11705 N 1108.58 -0.128553 1.57075 0
M  V30 11706 C 1109.82 -0.836536 1.83535 0
M  V30 11707 C 1110.14 -1.81491 0.7294 0
M  V30 11708 O 1111.34 -2.56838 0.880128 0
M  V30 11709 C 1109.8 -1.53836 3.25365 0
M  V30 11710 C 1109.41 -0.601454 4.43944 0
M  V30 11711 C 1111.15 -2.23204 3.61082 0
M  V30 11712 C 1109.06 -1.30596 5.768 0
M  V30 11713 H 1107.99 -0.316142 0.684522 0
M  V30 11714 H 1110.64 -0.0892555 1.83283 0
M  V30 11715 H 1109.02 -2.33192 3.20058 0
M  V30 11716 H 1110.2 0.158209 4.60528 0
M  V30 11717 H 1108.51 -0.0152393 4.16397 0
M  V30 11718 H 1111.11 -2.76585 4.57608 0
M  V30 11719 H 1111.45 -3.0056 2.88044 0
M  V30 11720 H 1111.98 -1.50746 3.68131 0
M  V30 11721 H 1108.72 -0.573874 6.52983 0
M  V30 11722 H 1108.24 -2.03787 5.6412 0
M  V30 11723 H 1109.92 -1.8418 6.20231 0
M  V30 11724 N 1110.05 -1.5248 -0.398459 0
M  V30 11725 C 1111.28 -1.70925 -1.16586 0
M  V30 11726 C 1111.7 -0.42342 -1.83991 0
M  V30 11727 O 1111.05 0.601395 -1.72306 0
M  V30 11728 C 1111.1 -2.85226 -2.22099 0
M  V30 11729 O 1110.83 -4.08831 -1.57444 0
M  V30 11730 C 1112.33 -3.15272 -3.11639 0
M  V30 11731 H 1109.55 -0.572533 -0.349924 0
M  V30 11732 H 1112.09 -1.99087 -0.467416 0
M  V30 11733 H 1110.25 -2.59553 -2.87595 0
M  V30 11734 H 1110.66 -4.72603 -2.2748 0
M  V30 11735 H 1112.13 -3.98737 -3.81724 0
M  V30 11736 H 1112.61 -2.29262 -3.74614 0
M  V30 11737 H 1113.22 -3.42749 -2.518 0
M  V30 11738 N 1111.53 0.65634 -1.43283 0
M  V30 11739 C 1112.46 1.78101 -1.51004 0
M  V30 11740 C 1113.44 1.66138 -0.36498 0
M  V30 11741 O 1114.63 1.85281 -0.581778 0
M  V30 11742 C 1111.76 3.16511 -1.42961 0
M  V30 11743 C 1110.71 3.43233 -2.55685 0
M  V30 11744 C 1110.04 4.81411 -2.32696 0
M  V30 11745 C 1111.34 3.38288 -3.97943 0
M  V30 11746 H 1113.03 1.71896 -2.45137 0
M  V30 11747 H 1110.58 0.825575 -1.17984 0
M  V30 11748 H 1112.53 3.94941 -1.46968 0
M  V30 11749 H 1111.25 3.23439 -0.45332 0
M  V30 11750 H 1109.91 2.67173 -2.51026 0
M  V30 11751 H 1109.56 4.85011 -1.33317 0
M  V30 11752 H 1109.26 5.00251 -3.08257 0
M  V30 11753 H 1110.79 5.62102 -2.38481 0
M  V30 11754 H 1112.2 4.06659 -4.04106 0
M  V30 11755 H 1110.6 3.68664 -4.73505 0
M  V30 11756 H 1111.67 2.36525 -4.23301 0
M  V30 11757 N 1113.01 1.29761 0.894412 0
M  V30 11758 C 1113.96 1.15232 2.0205 0
M  V30 11759 C 1114.95 0.0665664 1.69269 0
M  V30 11760 O 1116.16 0.226746 1.78566 0
M  V30 11761 H 1112.53 0.356102 0.662341 0
M  V30 11762 H 1114.5 2.10559 2.11442 0
M  V30 11763 C 1113.25 0.851143 3.37121 0
M  V30 11764 H 1112.58 1.67865 3.62852 0
M  V30 11765 H 1114.02 0.78954 4.16584 0
M  V30 11766 C 1112.47 -0.445737 3.33938 0
M  V30 11767 O 1113 -1.47017 3.7383 0
M  V30 11768 N 1111.21 -0.453493 2.8704 0
M  V30 11769 H 1110.76 0.380636 2.54772 0
M  V30 11770 H 1110.72 -1.32119 2.85293 0
M  V30 11771 N 1114.49 -1.10549 1.12324 0
M  V30 11772 C 1115.9 -1.63991 0.892402 0
M  V30 11773 C 1116.25 -1.87631 -0.573506 0
M  V30 11774 O 1115.37 -1.6174 -1.43768 0
M  V30 11775 C 1115.97 -2.97914 1.61347 0
M  V30 11776 C 1114.53 -3.48227 1.42881 0
M  V30 11777 C 1113.68 -2.22857 1.65015 0
M  V30 11778 H 1116.63 -0.94065 1.27818 0
M  V30 11779 H 1116.65 -3.65326 1.06382 0
M  V30 11780 H 1116.16 -2.80677 2.68034 0
M  V30 11781 H 1114.26 -3.70611 0.384441 0
M  V30 11782 H 1114.37 -4.26419 2.18413 0
M  V30 11783 H 1112.74 -2.30941 1.07417 0
M  V30 11784 H 1113.52 -2.08152 2.72997 0
M  V30 11785 N 1115.97 -0.914965 -1.28321 0
M  V30 11786 C 1117.21 -0.547665 -1.94538 0
M  V30 11787 C 1117.53 0.911834 -1.72368 0
M  V30 11788 O 1116.8 1.64481 -1.06408 0
M  V30 11789 H 1115.38 -0.199549 -0.719853 0
M  V30 11790 H 1118.05 -1.16459 -1.5628 0
M  V30 11791 H 1117.14 -0.743138 -3.03124 0
M  V30 11792 N 1117.44 1.42219 -0.679077 0
M  V30 11793 C 1118.69 2.01479 -0.203119 0
M  V30 11794 C 1119.02 1.5371 1.19178 0
M  V30 11795 O 1118.27 0.731832 1.81501 0
M  V30 11796 C 1118.57 3.56889 -0.191027 0
M  V30 11797 C 1118.24 4.24106 -1.53118 0
M  V30 11798 C 1116.9 4.42182 -1.89812 0
M  V30 11799 C 1119.25 4.61946 -2.41361 0
M  V30 11800 C 1116.58 4.95371 -3.14364 0
M  V30 11801 C 1118.93 5.16518 -3.65229 0
M  V30 11802 C 1117.6 5.32807 -4.02086 0
M  V30 11803 H 1116.87 0.737263 -0.0743264 0
M  V30 11804 H 1119.51 1.70346 -0.874908 0
M  V30 11805 H 1117.82 3.87715 0.564282 0
M  V30 11806 H 1119.52 4.00528 0.194511 0
M  V30 11807 H 1116.11 4.10399 -1.23575 0
M  V30 11808 H 1120.29 4.4765 -2.14297 0
M  V30 11809 H 1115.55 5.06167 -3.42935 0
M  V30 11810 H 1119.72 5.44782 -4.33804 0
M  V30 11811 H 1117.35 5.73785 -4.98673 0
M  V30 11812 N 1118.92 0.422693 1.51826 0
M  V30 11813 C 1120.17 -0.148348 2.01555 0
M  V30 11814 C 1120.49 -1.44483 1.30956 0
M  V30 11815 O 1119.76 -1.90904 0.439599 0
M  V30 11816 H 1118.34 -0.0578116 0.74476 0
M  V30 11817 H 1121 0.562046 1.8662 0
M  V30 11818 H 1120.1 -0.334766 3.10299 0
M  V30 11819 N 1120.4 -1.5685 0.153553 0
M  V30 11820 C 1121.65 -1.95946 -0.494936 0
M  V30 11821 C 1121.97 -1.03975 -1.64967 0
M  V30 11822 O 1121.24 -0.102572 -1.95631 0
M  V30 11823 H 1119.82 -0.723516 -0.185833 0
M  V30 11824 H 1122.48 -1.93531 0.230585 0
M  V30 11825 H 1121.58 -2.99823 -0.866743 0
M  V30 11826 N 1121.88 0.120221 -1.57141 0
M  V30 11827 C 1123.29 0.677497 -1.73974 0
M  V30 11828 C 1123.64 1.80371 -0.772055 0
M  V30 11829 O 1122.76 2.16329 0.0553062 0
M  V30 11830 C 1123.36 1.23575 -3.1546 0
M  V30 11831 C 1121.92 1.73933 -3.33803 0
M  V30 11832 C 1121.07 0.638542 -2.69848 0
M  V30 11833 H 1124.02 -0.105685 -1.58348 0
M  V30 11834 H 1124.04 2.10542 -3.16942 0
M  V30 11835 H 1123.55 0.415851 -3.85866 0
M  V30 11836 H 1121.65 2.58404 -2.68437 0
M  V30 11837 H 1121.76 1.84961 -4.41957 0
M  V30 11838 H 1120.13 1.07185 -2.31049 0
M  V30 11839 H 1120.91 -0.170356 -3.42877 0
M  V30 11840 N 1123.36 1.52689 0.390367 0
M  V30 11841 C 1124.6 1.67914 1.13722 0
M  V30 11842 C 1124.94 0.417159 1.89667 0
M  V30 11843 O 1124.21 -0.585005 1.85494 0
M  V30 11844 C 1124.49 2.91331 2.11656 0
M  V30 11845 C 1124.35 4.27626 1.39484 0
M  V30 11846 C 1125.67 3.10293 3.12099 0
M  V30 11847 H 1122.78 0.611047 0.412057 0
M  V30 11848 H 1125.43 1.85283 0.420753 0
M  V30 11849 H 1123.58 2.76654 2.72754 0
M  V30 11850 H 1125.25 4.54068 0.813607 0
M  V30 11851 H 1123.49 4.28169 0.69669 0
M  V30 11852 H 1124.16 5.10066 2.11038 0
M  V30 11853 H 1126.64 3.23992 2.6109 0
M  V30 11854 H 1125.51 3.98127 3.7787 0
M  V30 11855 H 1125.78 2.24448 3.80888 0
M  V30 11856 N 1124.83 -0.648732 1.43629 0
M  V30 11857 C 1126.08 -1.40857 1.45483 0
M  V30 11858 C 1126.41 -1.94332 0.0807963 0
M  V30 11859 O 1125.66 -1.72999 -0.914875 0
M  V30 11860 C 1125.96 -2.60394 2.44806 0
M  V30 11861 C 1125.63 -2.25311 3.90571 0
M  V30 11862 C 1124.29 -2.15456 4.3027 0
M  V30 11863 C 1126.64 -1.97307 4.8241 0
M  V30 11864 C 1123.97 -1.75759 5.59755 0
M  V30 11865 C 1126.32 -1.59108 6.12264 0
M  V30 11866 C 1124.99 -1.47781 6.50936 0
M  V30 11867 H 1124.26 -0.515434 0.532362 0
M  V30 11868 H 1126.9 -0.737339 1.76736 0
M  V30 11869 H 1125.21 -3.3267 2.06973 0
M  V30 11870 H 1126.91 -3.18609 2.43494 0
M  V30 11871 H 1123.5 -2.33894 3.59154 0
M  V30 11872 H 1127.68 -2.0384 4.52507 0
M  V30 11873 H 1122.94 -1.65579 5.88552 0
M  V30 11874 H 1127.11 -1.36472 6.82897 0
M  V30 11875 H 1124.74 -1.16792 7.51175 0
M  V30 11876 N 1126.31 -1.30234 -0.887518 0
M  V30 11877 C 1127.54 -1.21955 -1.67755 0
M  V30 11878 C 1127.96 0.214701 -1.86871 0
M  V30 11879 O 1127.32 1.15459 -1.39782 0
M  V30 11880 C 1127.37 -1.95079 -3.03276 0
M  V30 11881 O 1126.47 -1.27615 -3.92158 0
M  V30 11882 H 1125.81 -0.421948 -0.512695 0
M  V30 11883 H 1128.34 -1.72011 -1.10785 0
M  V30 11884 H 1128.35 -2.04004 -3.53336 0
M  V30 11885 H 1127.03 -2.99392 -2.88682 0
M  V30 11886 H 1125.61 -1.27029 -3.50597 0
M  V30 11887 N 1127.79 1.09952 -1.12909 0
M  V30 11888 C 1129.04 1.82467 -0.898733 0
M  V30 11889 C 1129.39 1.83788 0.569196 0
M  V30 11890 O 1128.68 1.29117 1.4156 0
M  V30 11891 C 1128.88 3.28252 -1.41369 0
M  V30 11892 C 1128.71 3.41133 -2.93015 0
M  V30 11893 C 1127.48 3.53253 -3.61304 0
M  V30 11894 C 1129.68 3.34118 -3.90986 0
M  V30 11895 N 1127.66 3.54762 -5.01016 0
M  V30 11896 C 1129.03 3.42431 -5.16857 0
M  V30 11897 C 1131.08 3.1775 -3.83327 0
M  V30 11898 C 1129.79 3.36063 -6.35967 0
M  V30 11899 C 1131.81 3.12705 -5.01966 0
M  V30 11900 C 1131.17 3.21605 -6.26697 0
M  V30 11901 H 1127.27 0.682232 -0.382208 0
M  V30 11902 H 1129.86 1.31446 -1.43631 0
M  V30 11903 H 1128.03 3.77755 -0.903097 0
M  V30 11904 H 1129.76 3.88752 -1.12489 0
M  V30 11905 H 1126.52 3.56472 -3.11809 0
M  V30 11906 H 1126.94 3.59115 -5.73904 0
M  V30 11907 H 1131.58 3.09742 -2.87784 0
M  V30 11908 H 1129.3 3.42835 -7.31772 0
M  V30 11909 H 1132.89 3.01183 -4.97775 0
M  V30 11910 H 1131.77 3.1771 -7.16959 0
M  V30 11911 N 1129.27 0.921757 1.27833 0
M  V30 11912 C 1130.68 0.621102 1.47019 0
M  V30 11913 C 1130.88 -0.831338 1.83551 0
M  V30 11914 O 1129.94 -1.60974 1.94534 0
M  V30 11915 C 1131.25 1.56588 2.56712 0
M  V30 11916 C 1132.8 1.57346 2.70576 0
M  V30 11917 C 1133.28 2.50505 3.8342 0
M  V30 11918 N 1134.77 2.48678 3.90786 0
M  V30 11919 C 1135.5 3.17454 4.77505 0
M  V30 11920 N 1135 3.95588 5.68755 0
M  V30 11921 N 1136.79 3.06501 4.71183 0
M  V30 11922 H 1128.94 1.86085 1.02403 0
M  V30 11923 H 1131.21 0.798595 0.510833 0
M  V30 11924 H 1130.91 2.60175 2.36647 0
M  V30 11925 H 1130.79 1.30305 3.53978 0
M  V30 11926 H 1133.17 0.544919 2.90025 0
M  V30 11927 H 1133.25 1.87675 1.73815 0
M  V30 11928 H 1132.9 3.53466 3.64725 0
M  V30 11929 H 1132.83 2.17474 4.79596 0
M  V30 11930 H 1135.32 1.91928 3.25534 0
M  V30 11931 H 1135.63 4.45066 6.31772 0
M  V30 11932 H 1133.98 3.99692 5.6857 0
M  V30 11933 H 1137.17 2.44958 3.9889 0
M  V30 11934 H 1137.34 3.60372 5.3855 0
M  V30 11935 N 1130.75 -1.41857 0.686609 0
M  V30 11936 C 1132.02 -1.95082 0.142228 0
M  V30 11937 C 1132.4 -1.62646 -1.34572 0
M  V30 11938 O 1131.75 -0.928757 -2.08773 0
M  V30 11939 C 1131.96 -3.46415 0.423955 0
M  V30 11940 C 1133.31 -4.23181 0.346842 0
M  V30 11941 O 1134.33 -3.54393 0.358363 0
M  V30 11942 O 1133.19 -5.4568 0.299211 0
M  V30 11943 H 1130.29 -0.826943 0.00974 0
M  V30 11944 H 1132.83 -1.51622 0.762153 0
M  V30 11945 H 1131.6 -3.63273 1.45424 0
M  V30 11946 H 1131.23 -3.96949 -0.227391 0
M  V30 11947 N 1132.22 -0.430739 -1.51599 0
M  V30 11948 C 1133.16 0.419726 -2.25324 0
M  V30 11949 C 1134.17 0.991925 -1.29092 0
M  V30 11950 O 1135.36 0.887188 -1.54891 0
M  V30 11951 C 1132.46 1.59844 -2.98836 0
M  V30 11952 C 1131.63 1.14629 -4.22112 0
M  V30 11953 C 1130.69 2.19437 -4.78261 0
M  V30 11954 O 1129.72 1.79141 -5.40275 0
M  V30 11955 N 1130.92 3.51849 -4.61717 0
M  V30 11956 H 1133.68 -0.212112 -2.98948 0
M  V30 11957 H 1131.24 -0.259269 -1.59811 0
M  V30 11958 H 1133.24 2.29567 -3.33288 0
M  V30 11959 H 1131.81 2.13575 -2.28264 0
M  V30 11960 H 1131.03 0.276367 -3.9323 0
M  V30 11961 H 1132.31 0.821488 -5.02124 0
M  V30 11962 H 1131.71 3.87324 -4.12306 0
M  V30 11963 H 1130.27 4.17486 -5.00548 0
M  V30 11964 N 1133.7 1.56767 -0.161869 0
M  V30 11965 C 1134.67 2.16299 0.758104 0
M  V30 11966 C 1135.67 1.10859 1.16478 0
M  V30 11967 O 1136.86 1.36422 1.08327 0
M  V30 11968 C 1133.99 2.73819 2.03067 0
M  V30 11969 H 1135.18 2.98938 0.239992 0
M  V30 11970 H 1132.73 1.56054 0.0876532 0
M  V30 11971 H 1133.47 1.94887 2.59209 0
M  V30 11972 H 1133.25 3.50974 1.74813 0
M  V30 11973 H 1134.74 3.19638 2.68741 0
M  V30 11974 N 1135.18 -0.111886 1.57202 0
M  V30 11975 C 1136.43 -0.819623 1.85499 0
M  V30 11976 C 1136.76 -1.7919 0.748629 0
M  V30 11977 O 1136.03 -1.92952 -0.244918 0
M  V30 11978 C 1136.32 -1.56324 3.24399 0
M  V30 11979 C 1136.17 -0.610081 4.45643 0
M  V30 11980 C 1137.49 -2.51777 3.60966 0
M  V30 11981 H 1134.61 -0.296512 0.674722 0
M  V30 11982 H 1137.25 -0.0836741 1.89816 0
M  V30 11983 H 1135.4 -2.1906 3.2085 0
M  V30 11984 H 1137.07 0.00898038 4.61299 0
M  V30 11985 H 1135.32 0.0778488 4.3373 0
M  V30 11986 H 1135.99 -1.16718 5.39519 0
M  V30 11987 H 1138.46 -1.99143 3.65351 0
M  V30 11988 H 1137.34 -3.00835 4.59118 0
M  V30 11989 H 1137.6 -3.34769 2.8876 0
M  V30 11990 N 1136.66 -1.52894 -0.382264 0
M  V30 11991 C 1137.59 -1.81122 -1.47367 0
M  V30 11992 C 1138.57 -0.663653 -1.56619 0
M  V30 11993 O 1139.75 -0.911898 -1.71459 0
M  V30 11994 C 1136.88 -1.98615 -2.84902 0
M  V30 11995 C 1135.84 -3.14328 -2.90485 0
M  V30 11996 C 1135.16 -3.17086 -4.30535 0
M  V30 11997 C 1136.46 -4.53263 -2.59519 0
M  V30 11998 H 1138.16 -2.72518 -1.23993 0
M  V30 11999 H 1135.7 -1.3113 -0.595049 0
M  V30 12000 H 1137.66 -2.16946 -3.61265 0
M  V30 12001 H 1136.38 -1.03915 -3.09628 0
M  V30 12002 H 1135.04 -2.95791 -2.16572 0
M  V30 12003 H 1134.69 -2.20055 -4.52311 0
M  V30 12004 H 1134.39 -3.94821 -4.3519 0
M  V30 12005 H 1135.91 -3.3758 -5.08795 0
M  V30 12006 H 1137.33 -4.71867 -3.25598 0
M  V30 12007 H 1135.72 -5.33115 -2.75514 0
M  V30 12008 H 1136.79 -4.59516 -1.54831 0
M  V30 12009 N 1138.14 0.641106 -1.43971 0
M  V30 12010 C 1139.55 0.958161 -1.27638 0
M  V30 12011 C 1139.75 2.00456 -0.204885 0
M  V30 12012 O 1138.81 2.49106 0.412606 0
M  V30 12013 C 1140.12 1.43091 -2.64472 0
M  V30 12014 C 1141.67 1.54692 -2.72102 0
M  V30 12015 C 1142.15 2.05353 -4.09382 0
M  V30 12016 N 1143.64 2.12638 -4.11509 0
M  V30 12017 C 1144.37 2.52987 -5.14573 0
M  V30 12018 N 1143.87 2.92544 -6.28005 0
M  V30 12019 N 1145.66 2.53033 -5.01927 0
M  V30 12020 H 1137.81 -0.0510973 -2.12339 0
M  V30 12021 H 1140.07 0.039748 -0.947166 0
M  V30 12022 H 1139.78 0.736389 -3.43904 0
M  V30 12023 H 1139.65 2.40375 -2.90688 0
M  V30 12024 H 1142.04 2.23242 -1.92994 0
M  V30 12025 H 1142.12 0.558083 -2.49638 0
M  V30 12026 H 1141.77 1.37401 -4.88962 0
M  V30 12027 H 1141.7 3.0509 -4.29218 0
M  V30 12028 H 1144.19 1.84792 -3.29636 0
M  V30 12029 H 1144.5 3.22116 -7.02468 0
M  V30 12030 H 1142.85 2.90319 -6.31458 0
M  V30 12031 H 1146.04 2.21514 -4.1237 0
M  V30 12032 H 1146.21 2.84155 -5.82375 0
M  V30 12033 N 1139.62 1.30703 0.880598 0
M  V30 12034 C 1140.55 1.1327 1.99255 0
M  V30 12035 C 1141.56 0.0747186 1.62628 0
M  V30 12036 O 1142.75 0.321169 1.75587 0
M  V30 12037 C 1139.85 0.706179 3.31461 0
M  V30 12038 C 1139.02 1.84687 3.96497 0
M  V30 12039 C 1138.08 1.40817 5.07008 0
M  V30 12040 O 1137.11 2.1161 5.28403 0
M  V30 12041 N 1138.31 0.289619 5.79777 0
M  V30 12042 H 1141.07 2.09043 2.14759 0
M  V30 12043 H 1138.64 1.22896 1.05395 0
M  V30 12044 H 1140.63 0.395617 4.02762 0
M  V30 12045 H 1139.2 -0.159631 3.12192 0
M  V30 12046 H 1138.42 2.32531 3.18312 0
M  V30 12047 H 1139.71 2.61117 4.36687 0
M  V30 12048 H 1139.1 -0.300177 5.64903 0
M  V30 12049 H 1137.66 0.0385346 6.51789 0
M  V30 12050 N 1141.09 -1.09351 1.1349 0
M  V30 12051 C 1142.37 -1.78121 0.808225 0
M  V30 12052 C 1142.75 -1.99154 -0.700072 0
M  V30 12053 O 1142.1 -1.59356 -1.63762 0
M  V30 12054 C 1142.31 -3.10368 1.59601 0
M  V30 12055 C 1143.66 -3.85063 1.78919 0
M  V30 12056 O 1144.68 -3.20122 1.56206 0
M  V30 12057 O 1143.54 -5.01648 2.16821 0
M  V30 12058 H 1140.63 -0.77253 0.295173 0
M  V30 12059 H 1143.18 -1.15901 1.23956 0
M  V30 12060 H 1141.95 -2.90549 2.62101 0
M  V30 12061 H 1141.57 -3.80312 1.15967 0
M  V30 12062 N 1142.57 -0.928524 -1.27343 0
M  V30 12063 C 1143.82 -0.568267 -1.93946 0
M  V30 12064 C 1144.14 0.893501 -1.73325 0
M  V30 12065 O 1143.41 1.63344 -1.08147 0
M  V30 12066 H 1141.99 -0.207173 -0.717696 0
M  V30 12067 H 1144.65 -1.1811 -1.55036 0
M  V30 12068 H 1143.75 -0.775246 -3.02318 0
M  V30 12069 N 1144.05 1.41491 -0.694123 0
M  V30 12070 C 1145.3 2.0155 -0.224809 0
M  V30 12071 C 1145.63 1.54844 1.17205 0
M  V30 12072 O 1144.9 0.75899 1.7908 0
M  V30 12073 C 1145.19 3.59003 -0.280884 0
M  V30 12074 C 1145.04 4.15839 -1.71458 0
M  V30 12075 C 1146.36 4.38624 0.360122 0
M  V30 12076 H 1143.48 0.732293 -0.0831632 0
M  V30 12077 H 1146.12 1.68258 -0.882569 0
M  V30 12078 H 1144.27 3.87496 0.279164 0
M  V30 12079 H 1145.94 3.98227 -2.32837 0
M  V30 12080 H 1144.18 3.70936 -2.2492 0
M  V30 12081 H 1144.86 5.24997 -1.70536 0
M  V30 12082 H 1147.33 4.15936 -0.11683 0
M  V30 12083 H 1146.21 5.48132 0.290337 0
M  V30 12084 H 1146.47 4.1797 1.44062 0
M  V30 12085 N 1145.53 0.438773 1.51369 0
M  V30 12086 C 1146.77 -0.127401 2.02399 0
M  V30 12087 C 1147.11 -1.42235 1.32223 0
M  V30 12088 O 1146.38 -1.89513 0.437607 0
M  V30 12089 C 1146.66 -0.344673 3.58447 0
M  V30 12090 C 1146.52 0.969027 4.39238 0
M  V30 12091 C 1147.84 -1.11381 4.25773 0
M  V30 12092 H 1144.96 -0.0448281 0.735635 0
M  V30 12093 H 1147.6 0.57805 1.80993 0
M  V30 12094 H 1145.75 -0.945582 3.76817 0
M  V30 12095 H 1147.42 1.60403 4.32514 0
M  V30 12096 H 1145.66 1.57329 4.04265 0
M  V30 12097 H 1146.33 0.771029 5.46589 0
M  V30 12098 H 1148.81 -0.604785 4.11681 0
M  V30 12099 H 1147.69 -1.23459 5.34835 0
M  V30 12100 H 1147.95 -2.14225 3.8673 0
M  V30 12101 N 1147.01 -1.56678 0.170181 0
M  V30 12102 C 1148.25 -1.9714 -0.475767 0
M  V30 12103 C 1148.58 -1.05611 -1.62972 0
M  V30 12104 O 1147.86 -0.103017 -1.94227 0
M  V30 12105 C 1148.14 -3.47072 -0.959828 0
M  V30 12106 C 1148 -4.4938 0.194225 0
M  V30 12107 C 1149.31 -4.00071 -1.83387 0
M  V30 12108 H 1146.43 -0.716776 -0.171466 0
M  V30 12109 H 1149.08 -1.88266 0.256086 0
M  V30 12110 H 1147.23 -3.54766 -1.58346 0
M  V30 12111 H 1148.9 -4.53748 0.83128 0
M  V30 12112 H 1147.14 -4.25393 0.849893 0
M  V30 12113 H 1147.81 -5.51685 -0.186575 0
M  V30 12114 H 1150.29 -3.95002 -1.30815 0
M  V30 12115 H 1149.16 -5.05398 -2.14159 0
M  V30 12116 H 1149.42 -3.43819 -2.77923 0
M  V30 12117 N 1148.48 0.103547 -1.57259 0
M  V30 12118 C 1149.71 0.82235 -1.89855 0
M  V30 12119 C 1150.13 1.72694 -0.76303 0
M  V30 12120 O 1149.48 1.8056 0.265421 0
M  V30 12121 C 1149.53 1.64282 -3.22015 0
M  V30 12122 O 1149.26 0.774628 -4.31197 0
M  V30 12123 C 1150.76 2.46543 -3.68418 0
M  V30 12124 H 1147.98 0.235591 -0.628282 0
M  V30 12125 H 1150.52 0.0833106 -2.0433 0
M  V30 12126 H 1148.68 2.33446 -3.09163 0
M  V30 12127 H 1149.09 1.34205 -5.0704 0
M  V30 12128 H 1150.56 2.99618 -4.63609 0
M  V30 12129 H 1151.04 3.24618 -2.95838 0
M  V30 12130 H 1151.65 1.82594 -3.84109 0
M  V30 12131 N 1149.96 1.53094 0.37415 0
M  V30 12132 C 1151.21 1.68082 1.11495 0
M  V30 12133 C 1151.52 0.434685 1.90709 0
M  V30 12134 O 1152.73 0.464956 2.67489 0
M  V30 12135 C 1151.19 2.97101 2.03124 0
M  V30 12136 C 1150.79 4.28947 1.29262 0
M  V30 12137 C 1152.54 3.21456 2.77248 0
M  V30 12138 C 1150.44 5.4906 2.19743 0
M  V30 12139 H 1149.37 0.626238 0.419931 0
M  V30 12140 H 1152.03 1.79594 0.376588 0
M  V30 12141 H 1150.41 2.79371 2.80656 0
M  V30 12142 H 1151.58 4.57279 0.568528 0
M  V30 12143 H 1149.9 4.10968 0.670362 0
M  V30 12144 H 1152.49 4.08377 3.45155 0
M  V30 12145 H 1152.84 2.37153 3.42146 0
M  V30 12146 H 1153.37 3.3982 2.06803 0
M  V30 12147 H 1150.11 6.35815 1.59437 0
M  V30 12148 H 1149.63 5.25019 2.90027 0
M  V30 12149 H 1151.31 5.83517 2.79495 0
M  V30 12150 N 1151.44 -0.633461 1.44309 0
M  V30 12151 C 1152.39 -1.76674 1.51292 0
M  V30 12152 C 1153.38 -1.64972 0.384807 0
M  V30 12153 O 1154.59 -1.71079 0.559653 0
M  V30 12154 H 1150.96 -0.583238 0.474697 0
M  V30 12155 H 1152.93 -1.67907 2.46678 0
M  V30 12156 C 1151.68 -3.15002 1.47205 0
M  V30 12157 H 1151.01 -3.24653 2.33325 0
M  V30 12158 H 1152.45 -3.94199 1.56151 0
M  V30 12159 C 1150.9 -3.3635 0.192464 0
M  V30 12160 O 1151.43 -3.94857 -0.738285 0
M  V30 12161 N 1149.64 -2.9044 0.0963424 0
M  V30 12162 H 1149.19 -2.43011 0.85459 0
M  V30 12163 H 1149.15 -3.05099 -0.759061 0
M  V30 12164 N 1152.92 -1.31168 -0.873655 0
M  V30 12165 C 1153.87 -1.18507 -1.98052 0
M  V30 12166 C 1154.84 -0.0717583 -1.65945 0
M  V30 12167 O 1156.02 -0.243965 -1.89234 0
M  V30 12168 C 1153.16 -0.894571 -3.33304 0
M  V30 12169 C 1152.27 -2.09086 -3.7803 0
M  V30 12170 C 1151.41 -1.73747 -5.01982 0
M  V30 12171 C 1150.45 -2.89805 -5.39147 0
M  V30 12172 N 1149.58 -2.54686 -6.54278 0
M  V30 12173 H 1154.42 -2.13193 -2.08213 0
M  V30 12174 H 1151.96 -1.06056 -1.01934 0
M  V30 12175 H 1153.92 -0.706714 -4.11171 0
M  V30 12176 H 1152.55 0.0154449 -3.22796 0
M  V30 12177 H 1151.6 -2.38961 -2.95976 0
M  V30 12178 H 1152.91 -2.95963 -4.01506 0
M  V30 12179 H 1152.07 -1.51402 -5.87505 0
M  V30 12180 H 1150.81 -0.840553 -4.80402 0
M  V30 12181 H 1149.81 -3.12803 -4.52144 0
M  V30 12182 H 1151.04 -3.802 -5.62694 0
M  V30 12183 H 1148.98 -1.67513 -6.34252 0
M  V30 12184 H 1148.9 -3.35093 -6.77679 0
M  V30 12185 H 1150.17 -2.35725 -7.43003 0
M  V30 12186 N 1154.4 1.08748 -1.14068 0
M  V30 12187 C 1155.34 2.15573 -0.824425 0
M  V30 12188 C 1156.31 1.64683 0.216522 0
M  V30 12189 O 1157.5 1.90601 0.0872193 0
M  V30 12190 C 1154.64 3.43756 -0.30423 0
M  V30 12191 C 1153.75 4.08512 -1.40506 0
M  V30 12192 C 1152.89 5.24477 -0.842479 0
M  V30 12193 C 1151.93 5.81167 -1.92123 0
M  V30 12194 N 1151.06 6.88483 -1.37608 0
M  V30 12195 H 1155.9 2.41968 -1.73941 0
M  V30 12196 H 1153.44 1.18751 -0.868143 0
M  V30 12197 H 1155.4 4.17197 0.0155546 0
M  V30 12198 H 1154.03 3.17658 0.573868 0
M  V30 12199 H 1153.08 3.32866 -1.84131 0
M  V30 12200 H 1154.39 4.46669 -2.2201 0
M  V30 12201 H 1153.55 6.04842 -0.474389 0
M  V30 12202 H 1152.28 4.877 0.00355212 0
M  V30 12203 H 1151.29 4.99458 -2.29831 0
M  V30 12204 H 1152.51 6.20003 -2.77079 0
M  V30 12205 H 1150.46 6.53672 -0.552168 0
M  V30 12206 H 1150.38 7.25446 -2.12752 0
M  V30 12207 H 1151.65 7.72588 -1.03578 0
M  V30 12208 N 1155.87 0.935264 1.26849 0
M  V30 12209 C 1157.29 0.636661 1.46352 0
M  V30 12210 C 1157.49 -0.811823 1.84423 0
M  V30 12211 O 1156.55 -1.58902 1.9623 0
M  V30 12212 C 1157.86 1.59301 2.55036 0
M  V30 12213 C 1159.41 1.60207 2.68892 0
M  V30 12214 C 1159.88 2.54558 3.80742 0
M  V30 12215 N 1161.37 2.52809 3.88126 0
M  V30 12216 C 1162.11 3.225 4.74111 0
M  V30 12217 N 1161.6 4.01598 5.64527 0
M  V30 12218 N 1163.4 3.11481 4.67906 0
M  V30 12219 H 1155.55 1.8716 1.00423 0
M  V30 12220 H 1157.81 0.803968 0.502334 0
M  V30 12221 H 1157.52 2.62671 2.33874 0
M  V30 12222 H 1157.39 1.34052 3.52576 0
M  V30 12223 H 1159.78 0.575649 2.89431 0
M  V30 12224 H 1159.86 1.89508 1.71815 0
M  V30 12225 H 1159.5 3.57314 3.60956 0
M  V30 12226 H 1159.43 2.22549 4.77263 0
M  V30 12227 H 1161.92 1.9537 3.2348 0
M  V30 12228 H 1162.24 4.51742 6.27016 0
M  V30 12229 H 1160.58 4.057 5.64298 0
M  V30 12230 H 1163.77 2.49175 3.9627 0
M  V30 12231 H 1163.95 3.66064 5.34697 0
M  V30 12232 N 1157.35 -1.41121 0.701616 0
M  V30 12233 C 1158.3 -2.32582 0.0288052 0
M  V30 12234 C 1159.29 -1.5129 -0.762074 0
M  V30 12235 O 1160.5 -1.67185 -0.667014 0
M  V30 12236 H 1156.88 -0.75194 -0.00948675 0
M  V30 12237 H 1158.85 -2.86994 0.817141 0
M  V30 12238 C 1157.6 -3.36137 -0.889217 0
M  V30 12239 H 1156.92 -3.98746 -0.290062 0
M  V30 12240 H 1158.36 -4.0266 -1.32819 0
M  V30 12241 C 1156.82 -2.70504 -2.00821 0
M  V30 12242 O 1157.35 -2.55753 -3.09763 0
M  V30 12243 N 1155.55 -2.29105 -1.78772 0
M  V30 12244 H 1155.1 -2.41303 -0.901708 0
M  V30 12245 H 1155.06 -1.85527 -2.53825 0
M  V30 12246 N 1158.83 -0.446794 -1.51134 0
M  V30 12247 C 1159.76 0.350229 -2.30858 0
M  V30 12248 C 1160.74 1.0125 -1.36684 0
M  V30 12249 O 1161.93 1.01433 -1.65605 0
M  V30 12250 C 1159.06 1.4464 -3.15748 0
M  V30 12251 C 1158.01 0.907102 -4.18277 0
M  V30 12252 C 1157.34 2.09974 -4.91747 0
M  V30 12253 C 1158.64 -0.0649758 -5.2226 0
M  V30 12254 H 1160.33 -0.315105 -2.97737 0
M  V30 12255 H 1157.88 -0.152985 -1.43185 0
M  V30 12256 H 1159.83 2.01127 -3.70305 0
M  V30 12257 H 1158.55 2.14016 -2.46708 0
M  V30 12258 H 1157.21 0.364382 -3.64785 0
M  V30 12259 H 1156.86 2.77991 -4.19202 0
M  V30 12260 H 1156.56 1.74523 -5.61084 0
M  V30 12261 H 1158.08 2.66996 -5.49131 0
M  V30 12262 H 1159.5 0.4099 -5.71833 0
M  V30 12263 H 1157.9 -0.332529 -5.99178 0
M  V30 12264 H 1158.97 -0.998681 -4.74504 0
M  V30 12265 N 1160.31 1.56586 -0.178487 0
M  V30 12266 C 1161.55 1.9739 0.465306 0
M  V30 12267 C 1161.89 1.06474 1.6241 0
M  V30 12268 O 1161.16 0.113316 1.9417 0
M  V30 12269 C 1161.45 3.47577 0.941408 0
M  V30 12270 C 1161.3 4.49271 -0.218054 0
M  V30 12271 C 1162.62 4.01038 1.81263 0
M  V30 12272 H 1159.74 0.717676 0.167663 0
M  V30 12273 H 1162.38 1.88128 -0.266067 0
M  V30 12274 H 1160.53 3.556 1.56463 0
M  V30 12275 H 1162.2 4.53301 -0.855332 0
M  V30 12276 H 1160.44 4.24936 -0.872441 0
M  V30 12277 H 1161.11 5.51776 0.157315 0
M  V30 12278 H 1163.59 3.9569 1.28718 0
M  V30 12279 H 1162.47 5.06526 2.11476 0
M  V30 12280 H 1162.73 3.45288 2.76096 0
M  V30 12281 N 1161.79 -0.095206 1.57312 0
M  V30 12282 C 1163.03 -0.799903 1.86358 0
M  V30 12283 C 1163.37 -1.78386 0.767593 0
M  V30 12284 O 1162.64 -1.93201 -0.224439 0
M  V30 12285 C 1162.92 -1.52875 3.26039 0
M  V30 12286 C 1162.78 -0.562781 4.46265 0
M  V30 12287 C 1164.1 -2.47935 3.63616 0
M  V30 12288 H 1161.21 -0.289339 0.677829 0
M  V30 12289 H 1163.86 -0.0635369 1.89894 0
M  V30 12290 H 1162.01 -2.15645 3.23156 0
M  V30 12291 H 1163.68 0.0579068 4.61264 0
M  V30 12292 H 1161.92 0.123847 4.33623 0
M  V30 12293 H 1162.59 -1.10989 5.40727 0
M  V30 12294 H 1165.07 -1.95257 3.67442 0
M  V30 12295 H 1163.94 -2.95948 4.62283 0
M  V30 12296 H 1164.21 -3.31687 2.92294 0
M  V30 12297 N 1163.26 -1.53291 -0.366026 0
M  V30 12298 C 1164.49 -1.73665 -1.13381 0
M  V30 12299 C 1164.91 -0.464284 -1.8228 0
M  V30 12300 O 1164.27 0.581645 -1.71717 0
M  V30 12301 C 1164.32 -2.90225 -2.14013 0
M  V30 12302 O 1163.42 -2.58803 -3.21084 0
M  V30 12303 H 1162.77 -0.576762 -0.329 0
M  V30 12304 H 1165.3 -2.00174 -0.423287 0
M  V30 12305 H 1165.31 -3.16378 -2.57622 0
M  V30 12306 H 1163.98 -3.82518 -1.63257 0
M  V30 12307 H 1162.56 -2.43466 -2.82451 0
M  V30 12308 N 1164.74 0.6258 -1.44643 0
M  V30 12309 C 1165.99 1.3873 -1.47925 0
M  V30 12310 C 1166.32 1.93868 -0.113469 0
M  V30 12311 O 1165.6 1.73976 0.869639 0
M  V30 12312 C 1165.88 2.54867 -2.54391 0
M  V30 12313 C 1165.73 2.05044 -4.00346 0
M  V30 12314 C 1167.05 3.57043 -2.57309 0
M  V30 12315 H 1164.17 0.503087 -0.538584 0
M  V30 12316 H 1166.81 0.707102 -1.76352 0
M  V30 12317 H 1164.96 3.12894 -2.30281 0
M  V30 12318 H 1166.63 1.51807 -4.35606 0
M  V30 12319 H 1164.88 1.36185 -4.11869 0
M  V30 12320 H 1165.55 2.88681 -4.70497 0
M  V30 12321 H 1168.02 3.08826 -2.78865 0
M  V30 12322 H 1166.9 4.35818 -3.33698 0
M  V30 12323 H 1167.16 4.11464 -1.61708 0
M  V30 12324 N 1166.22 1.31629 0.866686 0
M  V30 12325 C 1167.5 1.12136 1.60265 0
M  V30 12326 C 1167.88 -0.322729 2.08618 0
M  V30 12327 O 1167.23 -1.31738 1.86701 0
M  V30 12328 C 1167.44 2.13845 2.7581 0
M  V30 12329 C 1168.78 2.46541 3.45692 0
M  V30 12330 O 1169.81 2.12298 2.86021 0
M  V30 12331 O 1168.67 3.05194 4.53342 0
M  V30 12332 H 1165.76 0.431923 0.705246 0
M  V30 12333 H 1168.31 1.43119 0.911863 0
M  V30 12334 H 1167.08 3.10967 2.37518 0
M  V30 12335 H 1166.7 1.83786 3.52574 0
M  V30 12336 N 1167.7 -1.08142 1.14644 0
M  V30 12337 C 1168.98 -1.77254 0.827071 0
M  V30 12338 C 1169.36 -1.99885 -0.67891 0
M  V30 12339 O 1168.7 -1.61084 -1.62062 0
M  V30 12340 C 1168.91 -3.08658 1.62884 0
M  V30 12341 C 1170.26 -3.83143 1.82993 0
M  V30 12342 O 1171.29 -3.18447 1.59593 0
M  V30 12343 O 1170.15 -4.9932 2.2213 0
M  V30 12344 H 1167.24 -0.769356 0.30335 0
M  V30 12345 H 1169.79 -1.1458 1.25178 0
M  V30 12346 H 1168.56 -2.87753 2.65168 0
M  V30 12347 H 1168.18 -3.79061 1.19994 0
M  V30 12348 N 1169.18 -0.941978 -1.26351 0
M  V30 12349 C 1170.43 -0.588806 -1.93333 0
M  V30 12350 C 1170.75 0.875067 -1.74263 0
M  V30 12351 O 1170.02 1.62187 -1.09873 0
M  V30 12352 H 1168.6 -0.214774 -0.715459 0
M  V30 12353 H 1171.26 -1.19747 -1.53774 0
M  V30 12354 H 1170.35 -0.807267 -3.01479 0
M  V30 12355 N 1170.66 1.40747 -0.709091 0
M  V30 12356 C 1171.9 2.00606 -0.245324 0
M  V30 12357 C 1172.22 1.56489 1.16346 0
M  V30 12358 O 1171.49 0.801456 1.78755 0
M  V30 12359 H 1170.07 0.741833 -0.0877098 0
M  V30 12360 H 1172.74 1.72178 -0.913271 0
M  V30 12361 H 1171.83 3.10901 -0.273322 0
M  V30 12362 N 1172.13 0.454803 1.50895 0
M  V30 12363 C 1173.36 -0.103936 2.06639 0
M  V30 12364 C 1173.78 -1.34943 1.32044 0
M  V30 12365 O 1173.13 -1.78393 0.384972 0
M  V30 12366 C 1173.18 -0.408546 3.59184 0
M  V30 12367 O 1172.91 0.787535 4.30963 0
M  V30 12368 C 1174.41 -1.01605 4.31499 0
M  V30 12369 H 1171.63 -0.000171839 0.671 0
M  V30 12370 H 1174.17 0.638907 1.94263 0
M  V30 12371 H 1172.33 -1.1013 3.71416 0
M  V30 12372 H 1172.74 0.52229 5.21893 0
M  V30 12373 H 1174.21 -1.17906 5.39261 0
M  V30 12374 H 1174.69 -2.00182 3.90927 0
M  V30 12375 H 1175.3 -0.362155 4.23755 0
M  V30 12376 N 1173.61 -1.56489 0.186789 0
M  V30 12377 C 1174.86 -1.97341 -0.454158 0
M  V30 12378 C 1175.19 -1.07337 -1.622 0
M  V30 12379 O 1174.44 -0.1107 -1.95387 0
M  V30 12380 C 1174.74 -3.44145 -0.964315 0
M  V30 12381 C 1174.41 -4.50812 0.0892734 0
M  V30 12382 C 1173.07 -4.79707 0.378794 0
M  V30 12383 C 1175.42 -5.14968 0.8036 0
M  V30 12384 C 1172.75 -5.70051 1.38776 0
M  V30 12385 C 1175.1 -6.06402 1.80166 0
M  V30 12386 C 1173.76 -6.33657 2.09847 0
M  V30 12387 H 1173.03 -0.722124 -0.166188 0
M  V30 12388 H 1175.68 -1.89412 0.282008 0
M  V30 12389 H 1173.99 -3.49103 -1.7786 0
M  V30 12390 H 1175.68 -3.73104 -1.4695 0
M  V30 12391 H 1172.27 -4.28349 -0.146552 0
M  V30 12392 H 1176.46 -4.92743 0.593147 0
M  V30 12393 H 1171.71 -5.89445 1.62373 0
M  V30 12394 H 1175.89 -6.55176 2.36045 0
M  V30 12395 H 1173.51 -7.03462 2.88175 0
M  V30 12396 N 1175.09 0.086862 -1.5736 0
M  V30 12397 C 1176 1.12297 -2.05977 0
M  V30 12398 C 1177.02 1.43347 -0.986284 0
M  V30 12399 O 1178.19 1.53825 -1.3 0
M  V30 12400 C 1175.26 2.42131 -2.4814 0
M  V30 12401 C 1174.32 2.18189 -3.69719 0
M  V30 12402 C 1173.55 3.41833 -4.09861 0
M  V30 12403 O 1173.77 4.50383 -3.50016 0
M  V30 12404 O 1172.71 3.30934 -5.02759 0
M  V30 12405 H 1176.53 0.740012 -2.94546 0
M  V30 12406 H 1174.12 0.29995 -1.46358 0
M  V30 12407 H 1176 3.18568 -2.75848 0
M  V30 12408 H 1174.68 2.79837 -1.62705 0
M  V30 12409 H 1173.58 1.39506 -3.47115 0
M  V30 12410 H 1174.92 1.85372 -4.55959 0
M  V30 12411 N 1176.57 1.53483 0.357892 0
M  V30 12412 C 1177.81 1.70289 1.10134 0
M  V30 12413 C 1178.15 0.457296 1.88739 0
M  V30 12414 O 1177.42 -0.545527 1.86693 0
M  V30 12415 C 1177.7 2.95755 2.05429 0
M  V30 12416 C 1177.56 4.30489 1.30382 0
M  V30 12417 C 1178.88 3.16844 3.05447 0
M  V30 12418 H 1176 0.61965 0.399003 0
M  V30 12419 H 1178.64 1.86133 0.381357 0
M  V30 12420 H 1176.79 2.82377 2.66825 0
M  V30 12421 H 1178.46 4.55692 0.71711 0
M  V30 12422 H 1176.7 4.2955 0.605712 0
M  V30 12423 H 1177.37 5.14427 2.00171 0
M  V30 12424 H 1179.85 3.29458 2.54159 0
M  V30 12425 H 1178.73 4.06053 3.69341 0
M  V30 12426 H 1178.99 2.32476 3.76041 0
M  V30 12427 N 1178.05 -0.61812 1.44973 0
M  V30 12428 C 1179.29 -1.37944 1.48658 0
M  V30 12429 C 1179.62 -1.93805 0.123749 0
M  V30 12430 O 1178.9 -1.74434 -0.860401 0
M  V30 12431 C 1179.18 -2.53515 2.55739 0
M  V30 12432 C 1179.04 -2.02918 4.01428 0
M  V30 12433 C 1180.35 -3.55674 2.59199 0
M  V30 12434 H 1177.47 -0.500223 0.541244 0
M  V30 12435 H 1180.12 -0.69774 1.76725 0
M  V30 12436 H 1178.27 -3.11669 2.31937 0
M  V30 12437 H 1179.94 -1.49494 4.36405 0
M  V30 12438 H 1178.18 -1.33999 4.12586 0
M  V30 12439 H 1178.85 -2.86181 4.72021 0
M  V30 12440 H 1181.33 -3.07343 2.80499 0
M  V30 12441 H 1180.2 -4.34042 3.36004 0
M  V30 12442 H 1180.46 -4.10601 1.63888 0
M  V30 12443 N 1179.52 -1.32087 -0.859693 0
M  V30 12444 C 1180.45 -1.23204 -1.98351 0
M  V30 12445 C 1181.43 -0.116974 -1.69697 0
M  V30 12446 O 1182.62 -0.303301 -1.91817 0
M  V30 12447 C 1179.75 -0.949171 -3.34078 0
M  V30 12448 C 1178.7 -2.02493 -3.77069 0
M  V30 12449 C 1178.03 -1.59455 -5.1037 0
M  V30 12450 C 1179.33 -3.43934 -3.93074 0
M  V30 12451 H 1181.02 -2.17227 -2.0604 0
M  V30 12452 H 1178.57 -1.04577 -0.989931 0
M  V30 12453 H 1180.52 -0.873594 -4.12245 0
M  V30 12454 H 1179.25 0.0267095 -3.26589 0
M  V30 12455 H 1177.91 -2.09057 -3.01149 0
M  V30 12456 H 1177.55 -0.606256 -4.99333 0
M  V30 12457 H 1177.25 -2.31429 -5.40106 0
M  V30 12458 H 1178.78 -1.53325 -5.91036 0
M  V30 12459 H 1180.19 -3.39986 -4.61608 0
M  V30 12460 H 1178.59 -4.14214 -4.3422 0
M  V30 12461 H 1179.66 -3.83965 -2.9614 0
M  V30 12462 N 1181 1.07532 -1.15215 0
M  V30 12463 C 1181.95 2.12909 -0.815714 0
M  V30 12464 C 1182.94 1.59662 0.1992 0
M  V30 12465 O 1184.13 1.77 0.000215597 0
M  V30 12466 C 1181.26 3.41945 -0.304717 0
M  V30 12467 C 1180.34 4.0205 -1.34968 0
M  V30 12468 N 1180.73 4.36439 -2.55646 0
M  V30 12469 C 1179.03 4.29498 -1.20199 0
M  V30 12470 C 1179.73 4.84044 -3.22609 0
M  V30 12471 N 1178.71 4.82702 -2.5 0
M  V30 12472 H 1182.51 2.37327 -1.73358 0
M  V30 12473 H 1180.02 1.24952 -1.03734 0
M  V30 12474 H 1182.02 4.16875 -0.0453503 0
M  V30 12475 H 1180.68 3.18971 0.607235 0
M  V30 12476 H 1181.69 4.27184 -2.92804 0
M  V30 12477 H 1178.37 4.16032 -0.349781 0
M  V30 12478 H 1179.76 5.19959 -4.2555 0
M  V30 12479 N 1182.48 0.948665 1.2585 0
M  V30 12480 C 1183.9 0.652147 1.45668 0
M  V30 12481 C 1184.1 -0.792217 1.85273 0
M  V30 12482 O 1183.15 -1.56812 1.97905 0
M  V30 12483 C 1184.47 1.61998 2.53332 0
M  V30 12484 C 1186.01 1.6305 2.67178 0
M  V30 12485 C 1186.49 2.58582 3.78021 0
M  V30 12486 N 1187.98 2.56911 3.85423 0
M  V30 12487 C 1188.71 3.27511 4.70664 0
M  V30 12488 N 1188.21 4.07563 5.60236 0
M  V30 12489 N 1190 3.16427 4.64576 0
M  V30 12490 H 1182.15 1.88215 0.984325 0
M  V30 12491 H 1184.42 0.809251 0.493778 0
M  V30 12492 H 1184.12 2.65137 2.31075 0
M  V30 12493 H 1184 1.37784 3.51134 0
M  V30 12494 H 1186.38 0.606315 2.88804 0
M  V30 12495 H 1186.47 1.9132 1.69795 0
M  V30 12496 H 1186.11 3.61122 3.57146 0
M  V30 12497 H 1186.04 2.27598 4.74875 0
M  V30 12498 H 1188.53 1.9879 3.21389 0
M  V30 12499 H 1188.84 4.58367 6.22189 0
M  V30 12500 H 1187.19 4.11662 5.59964 0
M  V30 12501 H 1190.38 2.53364 3.93604 0
M  V30 12502 H 1190.55 3.71714 5.30785 0
M  V30 12503 N 1183.96 -1.40369 0.716545 0
M  V30 12504 C 1185.2 -2.01167 0.256846 0
M  V30 12505 C 1185.54 -1.56689 -1.14727 0
M  V30 12506 O 1184.81 -0.787384 -1.7785 0
M  V30 12507 C 1185.1 -3.58511 0.337963 0
M  V30 12508 C 1184.95 -4.13059 1.78052 0
M  V30 12509 C 1186.27 -4.39142 -0.290295 0
M  V30 12510 H 1183.39 -0.730877 0.0948028 0
M  V30 12511 H 1186.03 -1.66833 0.909225 0
M  V30 12512 H 1184.18 -3.87891 -0.217482 0
M  V30 12513 H 1185.85 -3.94472 2.39143 0
M  V30 12514 H 1184.09 -3.67311 2.30793 0
M  V30 12515 H 1184.76 -5.22217 1.78867 0
M  V30 12516 H 1187.24 -4.15697 0.182987 0
M  V30 12517 H 1186.12 -5.48524 -0.203097 0
M  V30 12518 H 1186.38 -4.20209 -1.37394 0
M  V30 12519 N 1185.44 -0.462799 -1.50652 0
M  V30 12520 C 1186.68 0.0873392 -2.03212 0
M  V30 12521 C 1187.04 1.38147 -1.33915 0
M  V30 12522 O 1186.33 1.86161 -0.453286 0
M  V30 12523 C 1186.52 0.335294 -3.55824 0
M  V30 12524 C 1186.35 -0.933253 -4.3991 0
M  V30 12525 C 1185.12 -1.47417 -4.83318 0
M  V30 12526 C 1187.32 -1.8264 -4.80777 0
M  V30 12527 N 1185.3 -2.6926 -5.51699 0
M  V30 12528 C 1186.67 -2.89075 -5.48485 0
M  V30 12529 C 1188.73 -1.83778 -4.62742 0
M  V30 12530 C 1187.43 -3.96625 -6.00067 0
M  V30 12531 C 1189.46 -2.90279 -5.15259 0
M  V30 12532 C 1188.82 -3.95433 -5.82934 0
M  V30 12533 H 1184.92 -0.00785676 -0.781961 0
M  V30 12534 H 1187.5 -0.629156 -1.84254 0
M  V30 12535 H 1185.67 1.02083 -3.74745 0
M  V30 12536 H 1187.41 0.879039 -3.95038 0
M  V30 12537 H 1184.16 -1.02451 -4.62386 0
M  V30 12538 H 1184.59 -3.31115 -5.90502 0
M  V30 12539 H 1189.23 -1.03802 -4.0986 0
M  V30 12540 H 1186.95 -4.77424 -6.51991 0
M  V30 12541 H 1190.53 -2.92133 -5.0314 0
M  V30 12542 H 1189.41 -4.76487 -6.2284 0
M  V30 12543 N 1186.91 1.56388 -0.195085 0
M  V30 12544 C 1187.86 2.19091 0.725793 0
M  V30 12545 C 1188.83 1.13814 1.20977 0
M  V30 12546 O 1190.02 1.42065 1.27366 0
M  V30 12547 C 1187.16 2.85427 1.93973 0
M  V30 12548 C 1186.27 4.05229 1.49712 0
M  V30 12549 C 1185.4 4.59421 2.66656 0
M  V30 12550 C 1184.44 5.71581 2.19001 0
M  V30 12551 N 1183.58 6.2018 3.29123 0
M  V30 12552 H 1188.42 2.97429 0.184334 0
M  V30 12553 H 1185.96 1.46886 0.0792434 0
M  V30 12554 H 1187.92 3.22057 2.65208 0
M  V30 12555 H 1186.55 2.09652 2.4545 0
M  V30 12556 H 1185.6 3.74261 0.680641 0
M  V30 12557 H 1186.91 4.8635 1.10749 0
M  V30 12558 H 1186.06 4.98357 3.46014 0
M  V30 12559 H 1184.8 3.77407 3.08893 0
M  V30 12560 H 1183.81 5.32174 1.38097 0
M  V30 12561 H 1185.03 6.55413 1.77795 0
M  V30 12562 H 1182.98 5.41088 3.70891 0
M  V30 12563 H 1182.9 6.96353 2.94328 0
M  V30 12564 H 1184.16 6.63769 4.08694 0
M  V30 12565 N 1188.39 -0.0785156 1.57404 0
M  V30 12566 C 1189.64 -0.777399 1.8655 0
M  V30 12567 C 1189.96 -1.78451 0.786142 0
M  V30 12568 O 1189.23 -1.95016 -0.185911 0
M  V30 12569 H 1187.81 -0.290097 0.688369 0
M  V30 12570 H 1190.47 -0.0562017 1.94819 0
M  V30 12571 H 1189.57 -1.29776 2.83839 0
M  V30 12572 N 1189.87 -1.5367 -0.349747 0
M  V30 12573 C 1191.1 -1.74858 -1.11532 0
M  V30 12574 C 1191.52 -0.483591 -1.81777 0
M  V30 12575 O 1190.88 0.563399 -1.72324 0
M  V30 12576 C 1190.93 -2.92479 -2.10923 0
M  V30 12577 O 1190.03 -2.62194 -3.18321 0
M  V30 12578 H 1189.37 -0.580219 -0.322865 0
M  V30 12579 H 1191.9 -2.00611 -0.402033 0
M  V30 12580 H 1191.91 -3.19093 -2.54252 0
M  V30 12581 H 1190.59 -3.84228 -1.59191 0
M  V30 12582 H 1189.16 -2.46448 -2.79853 0
M  V30 12583 N 1191.35 0.610423 -1.45298 0
M  V30 12584 C 1192.57 1.40112 -1.52917 0
M  V30 12585 C 1193 1.87404 -0.161696 0
M  V30 12586 O 1192.36 1.59973 0.853135 0
M  V30 12587 C 1192.4 2.58359 -2.51561 0
M  V30 12588 O 1191.51 3.58895 -2.03146 0
M  V30 12589 H 1190.85 0.41841 -0.515586 0
M  V30 12590 H 1193.38 0.743159 -1.90626 0
M  V30 12591 H 1193.39 3.0564 -2.70275 0
M  V30 12592 H 1192.06 2.23286 -3.50879 0
M  V30 12593 H 1190.64 3.18282 -1.94296 0
M  V30 12594 N 1192.83 1.32541 0.852676 0
M  V30 12595 C 1194.07 1.23397 1.60938 0
M  V30 12596 C 1194.41 -0.203294 1.93133 0
M  V30 12597 O 1193.68 -1.14097 1.57519 0
M  V30 12598 C 1193.96 2.0956 2.92842 0
M  V30 12599 C 1193.82 3.61675 2.67416 0
M  V30 12600 C 1195.14 1.95825 3.94133 0
M  V30 12601 H 1192.25 0.449608 0.583971 0
M  V30 12602 H 1194.9 1.62507 0.98446 0
M  V30 12603 H 1193.05 1.76336 3.46176 0
M  V30 12604 H 1194.72 4.05122 2.20621 0
M  V30 12605 H 1192.96 3.84242 2.01347 0
M  V30 12606 H 1193.63 4.17292 3.61347 0
M  V30 12607 H 1196.11 2.24935 3.50062 0
M  V30 12608 H 1194.98 2.58387 4.8428 0
M  V30 12609 H 1195.25 0.926466 4.32284 0
M  V30 12610 N 1194.3 -1.0692 1.15784 0
M  V30 12611 C 1195.25 -2.12473 0.826994 0
M  V30 12612 C 1196.24 -1.59766 -0.19073 0
M  V30 12613 O 1197.43 -1.76998 0.00917115 0
M  V30 12614 C 1194.56 -3.41779 0.322847 0
M  V30 12615 C 1193.65 -4.01329 1.37098 0
M  V30 12616 N 1194.04 -4.35077 2.57957 0
M  V30 12617 C 1192.33 -4.28854 1.22475 0
M  V30 12618 C 1193.04 -4.82326 3.25171 0
M  V30 12619 N 1192.01 -4.81369 2.52556 0
M  V30 12620 H 1195.81 -2.36404 1.74614 0
M  V30 12621 H 1193.33 -1.244 1.04395 0
M  V30 12622 H 1195.32 -4.16845 0.0674576 0
M  V30 12623 H 1193.98 -3.19289 -0.590311 0
M  V30 12624 H 1195 -4.25626 2.95065 0
M  V30 12625 H 1191.67 -4.15841 0.371839 0
M  V30 12626 H 1193.06 -5.17695 4.28301 0
M  V30 12627 N 1195.78 -0.955326 -1.25345 0
M  V30 12628 C 1196.71 -0.4334 -2.25065 0
M  V30 12629 C 1197.73 0.451099 -1.56425 0
M  V30 12630 O 1198.92 0.259265 -1.76607 0
M  V30 12631 C 1196.02 0.394809 -3.36592 0
M  V30 12632 C 1195.19 -0.476856 -4.34793 0
M  V30 12633 C 1194.25 0.293269 -5.25382 0
M  V30 12634 O 1193.27 -0.30857 -5.68363 0
M  V30 12635 N 1194.48 1.58617 -5.58409 0
M  V30 12636 H 1197.24 -1.29073 -2.70482 0
M  V30 12637 H 1194.8 -0.825764 -1.39258 0
M  V30 12638 H 1196.79 0.917747 -3.94157 0
M  V30 12639 H 1195.36 1.153 -2.90559 0
M  V30 12640 H 1194.58 -1.18089 -3.76097 0
M  V30 12641 H 1195.87 -1.07178 -4.97384 0
M  V30 12642 H 1195.27 2.09705 -5.25395 0
M  V30 12643 H 1193.83 2.05506 -6.18555 0
M  V30 12644 N 1197.26 1.39987 -0.723979 0
M  V30 12645 C 1198.54 1.94637 -0.1939 0
M  V30 12646 C 1198.92 1.66156 1.30212 0
M  V30 12647 O 1198.27 0.983783 2.06238 0
M  V30 12648 C 1198.48 3.4517 -0.515652 0
M  V30 12649 C 1199.82 4.22113 -0.458919 0
M  V30 12650 O 1200.85 3.53318 -0.452198 0
M  V30 12651 O 1199.71 5.44695 -0.443783 0
M  V30 12652 H 1196.8 0.826394 -0.0316615 0
M  V30 12653 H 1199.35 1.49548 -0.802085 0
M  V30 12654 H 1198.12 3.5929 -1.55004 0
M  V30 12655 H 1197.74 3.97413 0.122067 0
M  V30 12656 N 1198.74 0.470782 1.50404 0
M  V30 12657 C 1199.99 -0.084316 2.02324 0
M  V30 12658 C 1200.31 -1.39749 1.35279 0
M  V30 12659 O 1199.57 -1.90037 0.467364 0
M  V30 12660 C 1199.87 -0.316419 3.55997 0
M  V30 12661 C 1199.53 0.915017 4.41518 0
M  V30 12662 C 1198.2 1.25265 4.6461 0
M  V30 12663 C 1200.55 1.73494 4.91477 0
M  V30 12664 C 1197.88 2.41027 5.34905 0
M  V30 12665 C 1200.23 2.88384 5.63043 0
M  V30 12666 C 1198.89 3.22562 5.84389 0
M  V30 12667 H 1198.16 -0.0308534 0.740357 0
M  V30 12668 H 1200.81 0.624799 1.81021 0
M  V30 12669 H 1199.11 -1.10778 3.75813 0
M  V30 12670 H 1200.81 -0.759882 3.93734 0
M  V30 12671 H 1197.4 0.641977 4.23765 0
M  V30 12672 H 1201.59 1.48728 4.73491 0
M  V30 12673 H 1196.84 2.67781 5.49639 0
M  V30 12674 H 1201.02 3.52264 6.00735 0
M  V30 12675 H 1198.64 4.1237 6.38635 0
M  V30 12676 N 1200.22 -1.56282 0.203376 0
M  V30 12677 C 1201.15 -2.2247 -0.709183 0
M  V30 12678 C 1202.13 -1.19046 -1.21499 0
M  V30 12679 O 1203.31 -1.47578 -1.26231 0
M  V30 12680 C 1200.44 -2.8905 -1.92529 0
M  V30 12681 C 1199.4 -3.98789 -1.55407 0
M  V30 12682 C 1198.72 -4.52574 -2.84747 0
M  V30 12683 C 1200.02 -5.16774 -0.75775 0
M  V30 12684 H 1201.72 -2.98986 -0.157392 0
M  V30 12685 H 1199.26 -1.43808 -0.0742613 0
M  V30 12686 H 1201.22 -3.34038 -2.56898 0
M  V30 12687 H 1199.94 -2.09952 -2.50175 0
M  V30 12688 H 1198.6 -3.54504 -0.933928 0
M  V30 12689 H 1198.25 -3.70229 -3.40499 0
M  V30 12690 H 1197.95 -5.26627 -2.6065 0
M  V30 12691 H 1199.47 -5.00269 -3.5009 0
M  V30 12692 H 1200.89 -5.58256 -1.30472 0
M  V30 12693 H 1199.28 -5.96945 -0.614583 0
M  V30 12694 H 1200.35 -4.84308 0.239476 0
M  V30 12695 N 1201.7 0.070167 -1.57444 0
M  V30 12696 C 1202.94 0.767495 -1.8696 0
M  V30 12697 C 1203.26 1.78032 -0.795595 0
M  V30 12698 O 1202.53 1.95112 0.175566 0
M  V30 12699 H 1201.11 0.286443 -0.689898 0
M  V30 12700 H 1203.78 0.0458692 -1.94846 0
M  V30 12701 H 1202.87 1.28269 -2.84523 0
M  V30 12702 N 1203.17 1.53854 0.341593 0
M  V30 12703 C 1204.42 1.71194 1.08162 0
M  V30 12704 C 1204.75 0.47614 1.88582 0
M  V30 12705 O 1204 -0.542115 1.88041 0
M  V30 12706 C 1204.3 2.92844 2.04884 0
M  V30 12707 C 1203.97 4.28366 1.40759 0
M  V30 12708 C 1202.63 4.65214 1.23 0
M  V30 12709 C 1204.98 5.12546 0.945819 0
M  V30 12710 C 1202.31 5.83857 0.576852 0
M  V30 12711 C 1204.66 6.31857 0.306568 0
M  V30 12712 C 1203.33 6.67398 0.116677 0
M  V30 12713 H 1202.6 0.626442 0.395792 0
M  V30 12714 H 1205.24 1.88073 0.360688 0
M  V30 12715 H 1203.55 2.70576 2.83365 0
M  V30 12716 H 1205.25 3.03454 2.62139 0
M  V30 12717 H 1201.84 3.99366 1.5558 0
M  V30 12718 H 1206.02 4.84609 1.07087 0
M  V30 12719 H 1201.28 6.09967 0.418363 0
M  V30 12720 H 1205.45 6.96375 -0.0593285 0
M  V30 12721 H 1203.08 7.59191 -0.391477 0
M  V30 12722 N 1204.65 -0.602709 1.4562 0
M  V30 12723 C 1205.88 -1.38608 1.53203 0
M  V30 12724 C 1206.29 -1.88478 0.165098 0
M  V30 12725 O 1205.63 -1.63142 -0.844421 0
M  V30 12726 C 1205.69 -2.62214 2.45935 0
M  V30 12727 C 1205.36 -2.3395 3.92577 0
M  V30 12728 C 1206.36 -1.94011 4.82344 0
M  V30 12729 C 1204.04 -2.46711 4.37537 0
M  V30 12730 C 1206.03 -1.67202 6.15079 0
M  V30 12731 C 1203.72 -2.19515 5.70313 0
M  V30 12732 C 1204.72 -1.79823 6.58903 0
M  V30 12733 O 1204.41 -1.52948 7.89216 0
M  V30 12734 H 1204.14 -0.43052 0.52118 0
M  V30 12735 H 1206.69 -0.741655 1.91543 0
M  V30 12736 H 1204.92 -3.29394 2.02575 0
M  V30 12737 H 1206.61 -3.24264 2.44147 0
M  V30 12738 H 1207.38 -1.83684 4.48871 0
M  V30 12739 H 1203.26 -2.76572 3.68821 0
M  V30 12740 H 1206.8 -1.36146 6.84186 0
M  V30 12741 H 1202.7 -2.2946 6.03339 0
M  V30 12742 H 1203.47 -1.6696 8.01291 0
M  V30 12743 N 1206.13 -1.32992 -0.845635 0
M  V30 12744 C 1207.38 -1.24249 -1.60281 0
M  V30 12745 C 1207.71 0.193049 -1.93238 0
M  V30 12746 O 1206.98 1.1326 -1.58122 0
M  V30 12747 C 1207.27 -2.1111 -2.91727 0
M  V30 12748 C 1207.12 -3.63088 -2.65494 0
M  V30 12749 C 1208.44 -1.97913 -3.93089 0
M  V30 12750 H 1205.56 -0.452698 -0.581578 0
M  V30 12751 H 1208.2 -1.63026 -0.975828 0
M  V30 12752 H 1206.35 -1.78169 -3.45236 0
M  V30 12753 H 1208.02 -4.06287 -2.18469 0
M  V30 12754 H 1206.26 -3.85304 -1.99306 0
M  V30 12755 H 1206.94 -4.19202 -3.59129 0
M  V30 12756 H 1209.41 -2.26788 -3.48864 0
M  V30 12757 H 1208.29 -2.60952 -4.82903 0
M  V30 12758 H 1208.55 -0.949378 -4.31786 0
M  V30 12759 N 1207.61 1.06304 -1.1635 0
M  V30 12760 C 1208.54 2.15745 -0.893103 0
M  V30 12761 C 1209.52 1.69341 0.160531 0
M  V30 12762 O 1210.7 1.94196 0.0126526 0
M  V30 12763 C 1207.83 3.45066 -0.393287 0
M  V30 12764 C 1206.79 4.04978 -1.38482 0
M  V30 12765 C 1206.11 5.29507 -0.743409 0
M  V30 12766 C 1207.41 4.4377 -2.75438 0
M  V30 12767 H 1209.11 2.38622 -1.80831 0
M  V30 12768 H 1206.65 1.14681 -0.870878 0
M  V30 12769 H 1208.61 4.20964 -0.191607 0
M  V30 12770 H 1207.33 3.21808 0.557426 0
M  V30 12771 H 1205.99 3.31136 -1.57304 0
M  V30 12772 H 1205.64 5.02545 0.213787 0
M  V30 12773 H 1205.34 5.7055 -1.40521 0
M  V30 12774 H 1206.86 6.08102 -0.551746 0
M  V30 12775 H 1208.28 5.1075 -2.60398 0
M  V30 12776 H 1206.67 4.95797 -3.38091 0
M  V30 12777 H 1207.74 3.54636 -3.30699 0
M  V30 12778 N 1209.09 0.96196 1.24836 0
M  V30 12779 C 1210.36 0.537809 1.88061 0
M  V30 12780 C 1210.74 -0.985023 1.8671 0
M  V30 12781 O 1210.09 -1.85394 1.33572 0
M  V30 12782 C 1210.3 1.12279 3.30446 0
M  V30 12783 C 1211.65 1.20414 4.07168 0
M  V30 12784 O 1212.67 1.07488 3.39595 0
M  V30 12785 O 1211.53 1.4078 5.28056 0
M  V30 12786 H 1208.63 0.178491 0.807509 0
M  V30 12787 H 1211.17 1.05586 1.32852 0
M  V30 12788 H 1209.94 2.16578 3.25898 0
M  V30 12789 H 1209.57 0.58843 3.93222 0
M  V30 12790 N 1210.56 -1.39601 0.731392 0
M  V30 12791 C 1211.79 -2.05411 0.286532 0
M  V30 12792 C 1212.21 -1.54777 -1.06892 0
M  V30 12793 O 1211.57 -0.689942 -1.67659 0
M  V30 12794 C 1211.62 -3.594 0.293914 0
M  V30 12795 O 1210.72 -4.06072 -0.719657 0
M  V30 12796 H 1210.06 -0.650949 0.131004 0
M  V30 12797 H 1212.59 -1.78703 0.996305 0
M  V30 12798 H 1212.6 -4.0777 0.137052 0
M  V30 12799 H 1211.28 -3.95617 1.28298 0
M  V30 12800 H 1209.86 -3.69125 -0.529226 0
M  V30 12801 N 1212.04 -0.478751 -1.50152 0
M  V30 12802 C 1212.99 0.330224 -2.25596 0
M  V30 12803 C 1213.98 0.954871 -1.29503 0
M  V30 12804 O 1215.17 0.866153 -1.54359 0
M  V30 12805 C 1212.3 1.40719 -3.13134 0
M  V30 12806 C 1211.38 0.789896 -4.16679 0
M  V30 12807 N 1211.77 -0.094345 -5.05712 0
M  V30 12808 C 1210.07 1.05299 -4.33391 0
M  V30 12809 C 1210.77 -0.445458 -5.79992 0
M  V30 12810 N 1209.75 0.181237 -5.43298 0
M  V30 12811 H 1213.55 -0.350824 -2.91799 0
M  V30 12812 H 1211.07 -0.293386 -1.59728 0
M  V30 12813 H 1213.06 1.99999 -3.65795 0
M  V30 12814 H 1211.72 2.09015 -2.48481 0
M  V30 12815 H 1212.73 -0.463695 -5.1582 0
M  V30 12816 H 1209.41 1.73036 -3.79954 0
M  V30 12817 H 1210.8 -1.16754 -6.61678 0
M  V30 12818 N 1213.52 1.56172 -0.211661 0
M  V30 12819 C 1214.94 1.5895 0.143907 0
M  V30 12820 C 1215.14 1.22826 1.59737 0
M  V30 12821 O 1214.19 0.958823 2.33587 0
M  V30 12822 C 1215.51 3.00199 -0.173438 0
M  V30 12823 C 1217.05 3.12789 -0.114877 0
M  V30 12824 C 1217.53 4.56199 -0.405759 0
M  V30 12825 N 1219.02 4.61838 -0.354973 0
M  V30 12826 C 1219.75 5.70721 -0.553671 0
M  V30 12827 N 1219.25 6.88006 -0.813613 0
M  V30 12828 N 1221.04 5.59988 -0.486787 0
M  V30 12829 H 1213.19 1.77931 -1.15993 0
M  V30 12830 H 1215.46 0.826569 -0.464206 0
M  V30 12831 H 1215.16 3.31248 -1.18186 0
M  V30 12832 H 1215.04 3.73651 0.516232 0
M  V30 12833 H 1217.42 2.81543 0.884166 0
M  V30 12834 H 1217.51 2.41688 -0.837875 0
M  V30 12835 H 1217.15 4.88161 -1.40219 0
M  V30 12836 H 1217.08 5.25512 0.338318 0
M  V30 12837 H 1219.57 3.77555 -0.161352 0
M  V30 12838 H 1219.88 7.66894 -0.953594 0
M  V30 12839 H 1218.23 6.89774 -0.850696 0
M  V30 12840 H 1221.42 4.67238 -0.284009 0
M  V30 12841 H 1221.59 6.44781 -0.645051 0
M  V30 12842 N 1215 -0.0618163 1.57479 0
M  V30 12843 C 1215.93 -1.10452 1.99689 0
M  V30 12844 C 1216.91 -1.37019 0.875473 0
M  V30 12845 O 1218.09 -1.50226 1.13862 0
M  V30 12846 C 1215.22 -2.44669 2.34211 0
M  V30 12847 C 1214.27 -2.34172 3.56463 0
M  V30 12848 S 1215.1 -1.7263 5.06911 0
M  V30 12849 C 1216.26 -3.08405 5.44644 0
M  V30 12850 H 1216.49 -0.744843 2.87818 0
M  V30 12851 H 1214.02 -0.270698 1.52008 0
M  V30 12852 H 1215.98 -3.2187 2.54774 0
M  V30 12853 H 1214.64 -2.77794 1.46592 0
M  V30 12854 H 1213.83 -3.33175 3.78167 0
M  V30 12855 H 1213.44 -1.65109 3.35582 0
M  V30 12856 H 1215.73 -4.04727 5.43325 0
M  V30 12857 H 1216.67 -2.9147 6.4533 0
M  V30 12858 H 1217.08 -3.0947 4.72111 0
M  V30 12859 N 1216.48 -1.54033 -0.333429 0
M  V30 12860 C 1217.7 -1.76031 -1.09672 0
M  V30 12861 C 1218.13 -0.502844 -1.81254 0
M  V30 12862 O 1217.48 0.54509 -1.72912 0
M  V30 12863 C 1217.53 -2.947 -2.07809 0
M  V30 12864 O 1216.64 -2.65555 -3.15522 0
M  V30 12865 H 1215.98 -0.583611 -0.316692 0
M  V30 12866 H 1218.51 -2.01026 -0.380732 0
M  V30 12867 H 1218.52 -3.21771 -2.50853 0
M  V30 12868 H 1217.19 -3.85895 -1.55106 0
M  V30 12869 H 1215.77 -2.49403 -2.77223 0
M  V30 12870 N 1217.95 0.594978 -1.45938 0
M  V30 12871 C 1218.92 1.68688 -1.55168 0
M  V30 12872 C 1219.92 1.54945 -0.429951 0
M  V30 12873 O 1221.11 1.59785 -0.693859 0
M  V30 12874 C 1218.24 3.0804 -1.46027 0
M  V30 12875 H 1219.43 1.61866 -2.52467 0
M  V30 12876 H 1216.99 0.811785 -1.33565 0
M  V30 12877 H 1217.72 3.20428 -0.499614 0
M  V30 12878 H 1217.51 3.19423 -2.27401 0
M  V30 12879 H 1219 3.8755 -1.55546 0
M  V30 12880 N 1219.43 1.33438 0.838571 0
M  V30 12881 C 1220.85 1.12779 1.12929 0
M  V30 12882 C 1221.05 -0.0811188 2.01337 0
M  V30 12883 O 1220.1 -0.761294 2.4075 0
M  V30 12884 C 1221.42 2.41537 1.7911 0
M  V30 12885 C 1222.97 2.47447 1.91674 0
M  V30 12886 C 1223.44 3.76167 2.6127 0
M  V30 12887 N 1224.93 3.7724 2.68783 0
M  V30 12888 C 1225.67 4.7355 3.23323 0
M  V30 12889 N 1225.16 5.80235 3.78549 0
M  V30 12890 N 1226.96 4.61025 3.21578 0
M  V30 12891 H 1219.11 2.10921 0.250187 0
M  V30 12892 H 1221.37 0.931986 0.17351 0
M  V30 12893 H 1221.08 3.30006 1.21609 0
M  V30 12894 H 1220.95 2.53709 2.79127 0
M  V30 12895 H 1223.34 1.59427 2.48328 0
M  V30 12896 H 1223.42 2.39216 0.906058 0
M  V30 12897 H 1223.06 4.64569 2.05275 0
M  V30 12898 H 1222.99 3.81675 3.62811 0
M  V30 12899 H 1225.48 3.00138 2.29621 0
M  V30 12900 H 1225.8 6.49759 4.1837 0
M  V30 12901 H 1224.14 5.83969 3.76836 0
M  V30 12902 H 1227.33 3.76836 2.77691 0
M  V30 12903 H 1227.5 5.36253 3.63781 0
M  V30 12904 N 1220.91 -1.05686 1.16912 0
M  V30 12905 C 1222.14 -1.82282 0.978811 0
M  V30 12906 C 1222.55 -1.8278 -0.472972 0
M  V30 12907 O 1221.91 -1.25143 -1.32836 0
M  V30 12908 C 1221.96 -3.28623 1.50629 0
M  V30 12909 O 1221.68 -3.28269 2.90122 0
M  V30 12910 C 1223.18 -4.21927 1.35987 0
M  V30 12911 H 1220.4 -0.574558 0.346588 0
M  V30 12912 H 1222.95 -1.33301 1.55084 0
M  V30 12913 H 1221.1 -3.74893 0.976404 0
M  V30 12914 H 1221.52 -4.19824 3.14401 0
M  V30 12915 H 1222.99 -5.2261 1.77716 0
M  V30 12916 H 1223.47 -4.38131 0.30626 0
M  V30 12917 H 1224.07 -3.81508 1.87968 0
M  V30 12918 N 1222.39 -0.968567 -1.24324 0
M  V30 12919 C 1223.34 -0.470481 -2.23093 0
M  V30 12920 C 1224.32 0.447989 -1.54538 0
M  V30 12921 O 1225.51 0.27877 -1.74791 0
M  V30 12922 C 1222.64 0.237222 -3.42479 0
M  V30 12923 C 1221.73 -0.700126 -4.18281 0
M  V30 12924 N 1222.12 -1.83775 -4.71233 0
M  V30 12925 C 1220.42 -0.51108 -4.43062 0
M  V30 12926 C 1221.12 -2.42411 -5.28783 0
M  V30 12927 N 1220.1 -1.70918 -5.16031 0
M  V30 12928 H 1223.9 -1.33848 -2.61652 0
M  V30 12929 H 1221.41 -0.827764 -1.39721 0
M  V30 12930 H 1223.41 0.61128 -4.12394 0
M  V30 12931 H 1222.07 1.10166 -3.0544 0
M  V30 12932 H 1223.08 -2.21926 -4.67942 0
M  V30 12933 H 1219.76 0.309316 -4.16353 0
M  V30 12934 H 1221.15 -3.38417 -5.80451 0
M  V30 12935 N 1223.87 1.39211 -0.738786 0
M  V30 12936 C 1225.11 2.0004 -0.28782 0
M  V30 12937 C 1225.44 1.58921 1.13 0
M  V30 12938 O 1224.71 0.839193 1.77015 0
M  V30 12939 H 1223.29 0.739805 -0.103425 0
M  V30 12940 H 1225.95 1.70202 -0.949587 0
M  V30 12941 H 1225.04 3.10251 -0.339208 0
M  V30 12942 N 1225.34 0.486708 1.49896 0
M  V30 12943 C 1226.27 -0.288898 2.31706 0
M  V30 12944 C 1227.26 -0.975901 1.3932 0
M  V30 12945 O 1228.44 -0.970065 1.68236 0
M  V30 12946 C 1225.57 -1.36218 3.19471 0
M  V30 12947 C 1224.52 -0.795884 4.20535 0
M  V30 12948 C 1223.85 -1.96862 4.97141 0
M  V30 12949 C 1225.15 0.203421 5.21904 0
M  V30 12950 H 1226.84 0.393934 2.96797 0
M  V30 12951 H 1224.39 0.190894 1.42729 0
M  V30 12952 H 1226.34 -1.91238 3.75508 0
M  V30 12953 H 1225.07 -2.074 2.52295 0
M  V30 12954 H 1223.73 -0.267538 3.65622 0
M  V30 12955 H 1223.37 -2.66779 4.26425 0
M  V30 12956 H 1223.07 -1.59585 5.65514 0
M  V30 12957 H 1224.6 -2.52343 5.56017 0
M  V30 12958 H 1226.01 -0.258144 5.72719 0
M  V30 12959 H 1224.41 0.491273 5.98086 0
M  V30 12960 H 1225.48 1.12414 4.7169 0
M  V30 12961 N 1226.82 -1.56058 0.219941 0
M  V30 12962 C 1227.75 -2.2321 -0.685547 0
M  V30 12963 C 1228.73 -1.20328 -1.20229 0
M  V30 12964 O 1229.92 -1.48909 -1.24659 0
M  V30 12965 C 1227.05 -2.91076 -1.89452 0
M  V30 12966 C 1226 -4.00415 -1.51169 0
M  V30 12967 C 1225.33 -4.55569 -2.79931 0
M  V30 12968 C 1226.63 -5.17549 -0.702896 0
M  V30 12969 H 1228.32 -2.99136 -0.125671 0
M  V30 12970 H 1225.87 -1.43879 -0.0590043 0
M  V30 12971 H 1227.82 -3.36744 -2.53341 0
M  V30 12972 H 1226.55 -2.12594 -2.47934 0
M  V30 12973 H 1225.21 -3.55475 -0.896275 0
M  V30 12974 H 1224.85 -3.73819 -3.36553 0
M  V30 12975 H 1224.55 -5.29361 -2.55049 0
M  V30 12976 H 1226.08 -5.03955 -3.44764 0
M  V30 12977 H 1227.49 -5.59608 -1.24544 0
M  V30 12978 H 1225.89 -5.97563 -0.551234 0
M  V30 12979 H 1226.96 -4.84027 0.29083 0
M  V30 12980 N 1228.3 0.053464 -1.57509 0
M  V30 12981 C 1229.55 0.747622 -1.87763 0
M  V30 12982 C 1229.87 1.77178 -0.814433 0
M  V30 12983 O 1229.14 1.95287 0.154862 0
M  V30 12984 H 1227.72 0.279109 -0.692898 0
M  V30 12985 H 1230.38 0.0252006 -1.94884 0
M  V30 12986 H 1229.48 1.25244 -2.85868 0
M  V30 12987 N 1229.78 1.54207 0.325255 0
M  V30 12988 C 1230.71 1.79812 1.42128 0
M  V30 12989 C 1231.72 0.68003 1.47917 0
M  V30 12990 O 1232.91 0.957107 1.50671 0
M  V30 12991 C 1230.01 1.89935 2.80674 0
M  V30 12992 C 1229.19 3.20078 2.98108 0
M  V30 12993 C 1228.25 3.20924 4.17006 0
M  V30 12994 O 1227.27 3.94571 4.10247 0
M  V30 12995 N 1228.47 2.44588 5.26457 0
M  V30 12996 H 1231.24 2.74396 1.20527 0
M  V30 12997 H 1228.8 1.53483 0.515233 0
M  V30 12998 H 1230.79 1.8793 3.58419 0
M  V30 12999 H 1229.36 1.02455 2.95333 0
M  V30 13000 H 1228.58 3.35057 2.07679 0
M  V30 13001 H 1229.87 4.06008 3.06651 0
M  V30 13002 H 1229.27 1.8434 5.34823 0
M  V30 13003 H 1227.82 2.48363 6.02627 0
M  V30 13004 N 1231.26 -0.58723 1.46251 0
M  V30 13005 C 1232.5 -1.3456 1.51327 0
M  V30 13006 C 1232.83 -1.93815 0.163146 0
M  V30 13007 O 1232.09 -1.76723 -0.840677 0
M  V30 13008 C 1232.39 -2.49776 2.5563 0
M  V30 13009 C 1232.05 -2.08543 3.99776 0
M  V30 13010 C 1230.71 -1.97013 4.39021 0
M  V30 13011 C 1233.07 -1.76669 4.90344 0
M  V30 13012 C 1230.39 -1.5186 5.66706 0
M  V30 13013 C 1232.75 -1.32996 6.18462 0
M  V30 13014 C 1231.41 -1.20039 6.56618 0
M  V30 13015 H 1230.68 -0.492391 0.553744 0
M  V30 13016 H 1233.33 -0.661715 1.79704 0
M  V30 13017 H 1231.63 -3.23592 2.20897 0
M  V30 13018 H 1233.33 -3.07995 2.56788 0
M  V30 13019 H 1229.92 -2.18451 3.68751 0
M  V30 13020 H 1234.1 -1.84465 4.60746 0
M  V30 13021 H 1229.36 -1.40467 5.95045 0
M  V30 13022 H 1233.53 -1.07385 6.88071 0
M  V30 13023 H 1231.16 -0.848268 7.55452 0
M  V30 13024 N 1232.74 -1.33881 -0.831482 0
M  V30 13025 C 1233.98 -1.25755 -1.58719 0
M  V30 13026 C 1234.31 0.174746 -1.93713 0
M  V30 13027 O 1233.57 1.13384 -1.59507 0
M  V30 13028 C 1233.86 -2.08544 -2.90249 0
M  V30 13029 C 1233.53 -3.57651 -2.74585 0
M  V30 13030 C 1232.19 -3.983 -2.7002 0
M  V30 13031 C 1234.54 -4.52369 -2.58866 0
M  V30 13032 C 1231.87 -5.31872 -2.47647 0
M  V30 13033 C 1234.22 -5.86112 -2.38025 0
M  V30 13034 C 1232.89 -6.25934 -2.31867 0
M  V30 13035 H 1232.16 -0.460171 -0.580796 0
M  V30 13036 H 1234.81 -1.6554 -0.96274 0
M  V30 13037 H 1233.11 -1.6156 -3.56939 0
M  V30 13038 H 1234.81 -1.99609 -3.47789 0
M  V30 13039 H 1231.4 -3.2538 -2.78973 0
M  V30 13040 H 1235.58 -4.21868 -2.61421 0
M  V30 13041 H 1230.84 -5.61756 -2.41331 0
M  V30 13042 H 1235.01 -6.59103 -2.24847 0
M  V30 13043 H 1232.64 -7.29372 -2.14291 0
M  V30 13044 N 1234.21 1.05064 -1.1747 0
M  V30 13045 C 1235.16 2.11131 -0.860692 0
M  V30 13046 C 1236.15 1.60049 0.165288 0
M  V30 13047 O 1237.34 1.76961 -0.0373288 0
M  V30 13048 C 1234.47 3.41222 -0.37718 0
M  V30 13049 C 1233.55 3.99097 -1.43466 0
M  V30 13050 N 1233.95 4.30918 -2.64846 0
M  V30 13051 C 1232.24 4.26851 -1.29282 0
M  V30 13052 C 1232.94 4.77092 -3.32804 0
M  V30 13053 N 1231.92 4.77291 -2.60182 0
M  V30 13054 H 1235.72 2.33597 -1.78353 0
M  V30 13055 H 1233.24 1.22724 -1.06361 0
M  V30 13056 H 1235.23 4.16685 -0.133766 0
M  V30 13057 H 1233.89 3.20188 0.53944 0
M  V30 13058 H 1234.9 4.20877 -3.01799 0
M  V30 13059 H 1231.58 4.15197 -0.437949 0
M  V30 13060 H 1232.97 5.10815 -4.36483 0
M  V30 13061 N 1235.69 0.975146 1.23809 0
M  V30 13062 C 1237.1 0.678873 1.7392 0
M  V30 13063 C 1237.45 -0.805133 1.78919 0
M  V30 13064 O 1236.58 -1.62984 1.42356 0
M  V30 13065 C 1237.17 1.22562 3.15854 0
M  V30 13066 C 1235.73 0.979096 3.63443 0
M  V30 13067 C 1234.88 1.35649 2.41857 0
M  V30 13068 H 1237.83 1.14961 1.09406 0
M  V30 13069 H 1237.85 0.595489 3.75811 0
M  V30 13070 H 1237.36 2.30571 3.12184 0
M  V30 13071 H 1235.46 -0.0851407 3.72503 0
M  V30 13072 H 1235.58 1.62998 4.5052 0
M  V30 13073 H 1233.94 0.774916 2.42626 0
M  V30 13074 H 1234.72 2.44624 2.40861 0
M  V30 13075 N 1237.17 -1.38817 0.746158 0
M  V30 13076 C 1238.42 -1.99519 0.295839 0
M  V30 13077 C 1238.73 -1.59897 -1.12661 0
M  V30 13078 O 1239.94 -2.13514 -1.67702 0
M  V30 13079 C 1238.39 -3.56712 0.477984 0
M  V30 13080 C 1238 -4.0529 1.90904 0
M  V30 13081 C 1239.75 -4.24405 0.0900039 0
M  V30 13082 C 1237.65 -5.55097 2.04014 0
M  V30 13083 H 1236.58 -0.746389 0.106861 0
M  V30 13084 H 1239.23 -1.58676 0.921637 0
M  V30 13085 H 1237.62 -3.95406 -0.216884 0
M  V30 13086 H 1238.79 -3.77904 2.63677 0
M  V30 13087 H 1237.1 -3.50297 2.25125 0
M  V30 13088 H 1239.7 -5.3444 0.16682 0
M  V30 13089 H 1240.04 -4.05166 -0.956349 0
M  V30 13090 H 1240.58 -3.90924 0.736446 0
M  V30 13091 H 1237.32 -5.7923 3.06877 0
M  V30 13092 H 1236.84 -5.8425 1.35692 0
M  V30 13093 H 1238.52 -6.20682 1.82656 0
M  V30 13094 N 1238.65 -0.49465 -1.49636 0
M  V30 13095 C 1239.9 0.0520143 -2.02033 0
M  V30 13096 C 1240.22 1.38071 -1.37701 0
M  V30 13097 O 1239.49 1.88589 -0.530181 0
M  V30 13098 H 1238.07 0.0222123 -0.74667 0
M  V30 13099 H 1240.73 -0.650445 -1.83726 0
M  V30 13100 H 1239.82 0.186337 -3.11543 0
M  V30 13101 N 1240.13 1.55939 -0.228214 0
M  V30 13102 C 1241.37 1.98476 0.401677 0
M  V30 13103 C 1241.7 1.116 1.59297 0
M  V30 13104 O 1240.96 0.162465 1.95024 0
M  V30 13105 C 1241.25 3.46581 0.872732 0
M  V30 13106 C 1240.92 4.50416 -0.208767 0
M  V30 13107 C 1239.58 4.78534 -0.505847 0
M  V30 13108 C 1241.93 5.12656 -0.939852 0
M  V30 13109 C 1239.26 5.66171 -1.53841 0
M  V30 13110 C 1241.61 6.01412 -1.9618 0
M  V30 13111 C 1240.28 6.2787 -2.26573 0
M  V30 13112 H 1239.55 0.726276 0.146984 0
M  V30 13113 H 1242.2 1.88598 -0.332128 0
M  V30 13114 H 1240.5 3.53696 1.68541 0
M  V30 13115 H 1242.2 3.76869 1.37006 0
M  V30 13116 H 1238.79 4.28587 0.0329308 0
M  V30 13117 H 1242.97 4.90997 -0.723581 0
M  V30 13118 H 1238.23 5.84933 -1.77944 0
M  V30 13119 H 1242.4 6.48688 -2.53332 0
M  V30 13120 H 1240.03 6.95574 -3.06725 0
M  V30 13121 N 1241.6 -0.0451101 1.57535 0
M  V30 13122 C 1242.51 -1.06796 2.08882 0
M  V30 13123 C 1243.53 -1.40682 1.02394 0
M  V30 13124 O 1244.71 -1.50324 1.34033 0
M  V30 13125 C 1241.77 -2.35467 2.54472 0
M  V30 13126 C 1240.83 -2.0831 3.75374 0
M  V30 13127 C 1240.07 -3.30846 4.1878 0
M  V30 13128 O 1240.29 -4.40945 3.61834 0
M  V30 13129 O 1239.22 -3.17488 5.11356 0
M  V30 13130 H 1243.05 -0.661658 2.96405 0
M  V30 13131 H 1240.63 -0.26104 1.47102 0
M  V30 13132 H 1242.52 -3.11143 2.84198 0
M  V30 13133 H 1241.19 -2.75425 1.70068 0
M  V30 13134 H 1240.1 -1.30254 3.50692 0
M  V30 13135 H 1241.43 -1.73218 4.60713 0
M  V30 13136 N 1243.08 -1.54377 -0.317073 0
M  V30 13137 C 1244.33 -1.73149 -1.05581 0
M  V30 13138 C 1244.66 -0.507176 -1.8746 0
M  V30 13139 O 1243.94 0.495837 -1.88074 0
M  V30 13140 C 1244.22 -3.01098 -1.97515 0
M  V30 13141 C 1244.07 -4.33794 -1.18922 0
M  V30 13142 C 1245.39 -3.24831 -2.9694 0
M  V30 13143 H 1242.51 -0.630011 -0.382434 0
M  V30 13144 H 1245.15 -1.87079 -0.331873 0
M  V30 13145 H 1243.3 -2.89352 -2.59244 0
M  V30 13146 H 1244.97 -4.57433 -0.596039 0
M  V30 13147 H 1243.22 -4.31005 -0.491612 0
M  V30 13148 H 1243.89 -5.19554 -1.86462 0
M  V30 13149 H 1246.36 -3.3608 -2.45335 0
M  V30 13150 H 1245.24 -4.15702 -3.58445 0
M  V30 13151 H 1245.5 -2.42365 -3.69745 0
M  V30 13152 N 1244.56 0.579466 -1.4656 0
M  V30 13153 C 1245.79 1.36837 -1.55854 0
M  V30 13154 C 1246.21 1.87019 -0.20141 0
M  V30 13155 O 1245.57 1.61746 0.81901 0
M  V30 13156 C 1245.62 2.52965 -2.56985 0
M  V30 13157 O 1244.72 3.54505 -2.10713 0
M  V30 13158 H 1244.06 0.407379 -0.524345 0
M  V30 13159 H 1246.59 0.702558 -1.9216 0
M  V30 13160 H 1246.6 2.99838 -2.76697 0
M  V30 13161 H 1245.28 2.15793 -3.55536 0
M  V30 13162 H 1243.85 3.14089 -2.01003 0
M  V30 13163 N 1246.04 1.3432 0.824371 0
M  V30 13164 C 1247.32 1.17178 1.56616 0
M  V30 13165 C 1247.7 -0.256195 2.0954 0
M  V30 13166 O 1247.04 -1.25732 1.90798 0
M  V30 13167 C 1247.25 2.22511 2.68867 0
M  V30 13168 C 1248.6 2.57414 3.37673 0
M  V30 13169 O 1249.63 2.2129 2.79122 0
M  V30 13170 O 1248.48 3.19462 4.43403 0
M  V30 13171 H 1245.58 0.454141 0.691147 0
M  V30 13172 H 1248.12 1.45948 0.865869 0
M  V30 13173 H 1246.9 3.18366 2.27505 0
M  V30 13174 H 1246.52 1.9491 3.46548 0
M  V30 13175 N 1247.52 -1.0444 1.18026 0
M  V30 13176 C 1248.77 -1.7697 0.9677 0
M  V30 13177 C 1249.08 -1.88995 -0.503994 0
M  V30 13178 O 1250.28 -2.58342 -0.834968 0
M  V30 13179 C 1248.74 -3.1816 1.68232 0
M  V30 13180 C 1248.35 -3.14241 3.19307 0
M  V30 13181 C 1250.09 -3.95095 1.55244 0
M  V30 13182 C 1248 -4.50266 3.83425 0
M  V30 13183 H 1246.93 -0.663355 0.358436 0
M  V30 13184 H 1249.58 -1.17003 1.4136 0
M  V30 13185 H 1247.96 -3.78501 1.16418 0
M  V30 13186 H 1249.14 -2.63373 3.78115 0
M  V30 13187 H 1247.45 -2.50805 3.32394 0
M  V30 13188 H 1250.05 -4.95681 2.00511 0
M  V30 13189 H 1250.39 -4.13236 0.504125 0
M  V30 13190 H 1250.92 -3.4132 2.04317 0
M  V30 13191 H 1247.66 -4.37329 4.88286 0
M  V30 13192 H 1247.18 -5.01251 3.29404 0
M  V30 13193 H 1248.86 -5.1919 3.86071 0
M  V30 13194 N 1248.99 -0.981699 -1.2329 0
M  V30 13195 C 1249.94 -0.494116 -2.22581 0
M  V30 13196 C 1250.93 0.431573 -1.55004 0
M  V30 13197 O 1252.12 0.260215 -1.75077 0
M  V30 13198 C 1249.25 0.200884 -3.42712 0
M  V30 13199 C 1248.34 -0.744451 -4.17515 0
M  V30 13200 N 1248.73 -1.88762 -4.69257 0
M  V30 13201 C 1247.02 -0.558044 -4.42495 0
M  V30 13202 C 1247.73 -2.48006 -5.26182 0
M  V30 13203 N 1246.7 -1.76382 -5.14189 0
M  V30 13204 H 1250.5 -1.36616 -2.60218 0
M  V30 13205 H 1248.02 -0.842537 -1.38835 0
M  V30 13206 H 1250.01 0.567506 -4.13019 0
M  V30 13207 H 1248.67 1.0692 -3.06591 0
M  V30 13208 H 1249.69 -2.26877 -4.65561 0
M  V30 13209 H 1246.36 0.265139 -4.16657 0
M  V30 13210 H 1247.75 -3.44555 -5.76829 0
M  V30 13211 N 1250.47 1.3842 -0.753509 0
M  V30 13212 C 1251.88 1.82847 -0.377331 0
M  V30 13213 C 1252.23 1.62867 1.09401 0
M  V30 13214 O 1251.36 1.12981 1.84565 0
M  V30 13215 C 1251.95 3.31945 -0.678095 0
M  V30 13216 C 1250.51 3.7472 -0.355196 0
M  V30 13217 C 1249.66 2.61193 -0.931311 0
M  V30 13218 H 1252.61 1.2715 -0.949667 0
M  V30 13219 H 1252.63 3.80475 0.0437292 0
M  V30 13220 H 1252.14 3.46455 -1.74902 0
M  V30 13221 H 1250.25 3.65789 0.70915 0
M  V30 13222 H 1250.36 4.71487 -0.850693 0
M  V30 13223 H 1248.72 2.5219 -0.356695 0
M  V30 13224 H 1249.51 2.78503 -2.00727 0
M  V30 13225 N 1251.95 0.502579 1.49372 0
M  V30 13226 C 1253.2 -0.0412993 2.02058 0
M  V30 13227 C 1253.52 -1.37338 1.38431 0
M  V30 13228 O 1252.79 -1.88305 0.540175 0
M  V30 13229 H 1251.37 -0.0182522 0.746777 0
M  V30 13230 H 1254.03 0.660179 1.83378 0
M  V30 13231 H 1253.13 -0.169812 3.11638 0
M  V30 13232 N 1253.43 -1.55816 0.23648 0
M  V30 13233 C 1254.65 -2.03534 -0.398575 0
M  V30 13234 C 1255.08 -1.11488 -1.51499 0
M  V30 13235 O 1254.44 -0.105848 -1.80991 0
M  V30 13236 C 1254.48 -3.49356 -0.893467 0
M  V30 13237 O 1253.59 -3.60446 -2.00381 0
M  V30 13238 H 1252.93 -0.658102 -0.0883021 0
M  V30 13239 H 1255.46 -2.01417 0.359488 0
M  V30 13240 H 1255.47 -3.89972 -1.19941 0
M  V30 13241 H 1254.14 -4.1583 -0.0764388 0
M  V30 13242 H 1252.72 -3.31723 -1.70336 0
M  V30 13243 N 1254.91 0.036755 -1.57557 0
M  V30 13244 C 1256.18 0.764087 -1.80059 0
M  V30 13245 C 1256.56 1.93983 -0.83269 0
M  V30 13246 O 1255.91 2.28148 0.126815 0
M  V30 13247 C 1256.12 1.20433 -3.27562 0
M  V30 13248 C 1257.47 1.6234 -3.9234 0
M  V30 13249 O 1258.49 1.29911 -3.31665 0
M  V30 13250 O 1257.35 2.22504 -4.99154 0
M  V30 13251 H 1254.45 0.368866 -0.74018 0
M  V30 13252 H 1256.99 0.0141254 -1.69694 0
M  V30 13253 H 1255.76 0.364646 -3.89597 0
M  V30 13254 H 1255.39 2.01454 -3.42786 0
M  V30 13255 N 1256.39 1.54543 0.308881 0
M  V30 13256 C 1257.8 1.64532 0.882392 0
M  V30 13257 C 1258.15 0.54886 1.88367 0
M  V30 13258 O 1257.27 -0.315832 2.14083 0
M  V30 13259 C 1257.87 2.98251 1.60722 0
M  V30 13260 C 1256.43 3.10387 2.12925 0
M  V30 13261 C 1255.57 2.60176 0.959362 0
M  V30 13262 H 1258.52 1.58466 0.0860803 0
M  V30 13263 H 1258.55 2.89233 2.47233 0
M  V30 13264 H 1258.06 3.78033 0.878233 0
M  V30 13265 H 1256.16 2.35309 2.88895 0
M  V30 13266 H 1256.27 4.16421 2.36918 0
M  V30 13267 H 1254.64 2.16434 1.3427 0
M  V30 13268 H 1255.42 3.42429 0.244454 0
M  V30 13269 N 1257.86 -0.571685 1.46866 0
M  V30 13270 C 1259.09 -1.35524 1.56336 0
M  V30 13271 C 1259.51 -1.87647 0.208359 0
M  V30 13272 O 1258.86 -1.64219 -0.796136 0
M  V30 13273 C 1258.91 -2.53518 2.57703 0
M  V30 13274 O 1258.64 -2.03552 3.87941 0
M  V30 13275 C 1260.14 -3.45925 2.77219 0
M  V30 13276 H 1257.36 -0.41363 0.528348 0
M  V30 13277 H 1259.9 -0.693943 1.92366 0
M  V30 13278 H 1258.06 -3.15615 2.24647 0
M  V30 13279 H 1258.47 -2.80476 4.43208 0
M  V30 13280 H 1259.94 -4.2517 3.52043 0
M  V30 13281 H 1260.42 -3.98559 1.8452 0
M  V30 13282 H 1261.03 -2.89655 3.11416 0
M  V30 13283 N 1259.34 -1.34755 -0.817236 0
M  V30 13284 C 1260.29 -1.26801 -1.92848 0
M  V30 13285 C 1261.26 -0.142077 -1.65491 0
M  V30 13286 O 1262.44 -0.324006 -1.88029 0
M  V30 13287 C 1259.58 -1.03513 -3.2921 0
M  V30 13288 C 1258.7 -2.24932 -3.68822 0
M  V30 13289 C 1257.83 -1.94881 -4.94161 0
M  V30 13290 C 1256.87 -3.12411 -5.2637 0
M  V30 13291 N 1256.01 -2.82207 -6.42887 0
M  V30 13292 H 1260.85 -2.21832 -1.98983 0
M  V30 13293 H 1258.38 -1.10284 -0.973439 0
M  V30 13294 H 1260.34 -0.88047 -4.07803 0
M  V30 13295 H 1258.97 -0.121478 -3.22571 0
M  V30 13296 H 1258.02 -2.51299 -2.85575 0
M  V30 13297 H 1259.34 -3.12726 -3.88592 0
M  V30 13298 H 1258.49 -1.76184 -5.80555 0
M  V30 13299 H 1257.23 -1.04355 -4.76405 0
M  V30 13300 H 1256.23 -3.31698 -4.3847 0
M  V30 13301 H 1257.46 -4.03724 -5.46062 0
M  V30 13302 H 1255.41 -1.94263 -6.26576 0
M  V30 13303 H 1255.32 -3.63534 -6.62857 0
M  V30 13304 H 1256.59 -2.67026 -7.32337 0
M  V30 13305 N 1260.82 1.03812 -1.18578 0
M  V30 13306 C 1262.23 1.58509 -0.986496 0
M  V30 13307 C 1262.58 1.90655 0.463136 0
M  V30 13308 O 1261.71 1.69847 1.34093 0
M  V30 13309 C 1262.3 2.88 -1.78441 0
M  V30 13310 C 1260.86 3.39304 -1.6294 0
M  V30 13311 C 1260.01 2.12857 -1.77727 0
M  V30 13312 H 1262.96 0.864528 -1.33085 0
M  V30 13313 H 1262.98 3.58502 -1.27501 0
M  V30 13314 H 1262.49 2.64572 -2.83942 0
M  V30 13315 H 1260.59 3.6774 -0.599864 0
M  V30 13316 H 1260.71 4.12959 -2.42902 0
M  V30 13317 H 1259.07 2.24285 -1.20699 0
M  V30 13318 H 1259.85 1.91882 -2.84669 0
M  V30 13319 N 1262.3 0.988223 1.22768 0
M  V30 13320 C 1263.57 0.577578 1.86878 0
M  V30 13321 C 1263.95 -0.945197 1.88757 0
M  V30 13322 O 1263.3 -1.82519 1.37474 0
M  V30 13323 C 1263.51 1.19263 3.2799 0
M  V30 13324 C 1264.86 1.29024 4.04522 0
M  V30 13325 O 1265.88 1.14667 3.37239 0
M  V30 13326 O 1264.74 1.51949 5.24951 0
M  V30 13327 H 1261.84 0.195579 0.803541 0
M  V30 13328 H 1264.38 1.0838 1.30582 0
M  V30 13329 H 1263.16 2.23442 3.21231 0
M  V30 13330 H 1262.78 0.671706 3.91885 0
M  V30 13331 N 1263.78 -1.38018 0.760839 0
M  V30 13332 C 1264.74 -2.28734 0.146154 0
M  V30 13333 C 1265.74 -1.47525 -0.639768 0
M  V30 13334 O 1266.93 -1.6788 -0.464964 0
M  V30 13335 C 1264.06 -3.31356 -0.801019 0
M  V30 13336 H 1265.25 -2.84599 0.945692 0
M  V30 13337 H 1262.81 -1.471 0.528323 0
M  V30 13338 H 1263.54 -2.80594 -1.62597 0
M  V30 13339 H 1263.33 -3.91366 -0.239775 0
M  V30 13340 H 1264.82 -3.99171 -1.22687 0
M  V30 13341 N 1265.25 -0.510493 -1.49103 0
M  V30 13342 C 1266.48 0.0271718 -2.06882 0
M  V30 13343 C 1266.9 1.2995 -1.36962 0
M  V30 13344 O 1266.25 1.76842 -0.450916 0
M  V30 13345 C 1266.3 0.274956 -3.60453 0
M  V30 13346 O 1266.03 -0.946941 -4.27744 0
M  V30 13347 C 1267.53 0.855197 -4.34973 0
M  V30 13348 H 1264.75 -0.024732 -0.670544 0
M  V30 13349 H 1267.29 -0.710567 -1.91758 0
M  V30 13350 H 1265.45 0.962696 -3.75248 0
M  V30 13351 H 1265.86 -0.715627 -5.19595 0
M  V30 13352 H 1267.33 0.978103 -5.43265 0
M  V30 13353 H 1267.81 1.85535 -3.98087 0
M  V30 13354 H 1268.42 0.204632 -4.24807 0
M  V30 13355 N 1266.73 1.55688 -0.24474 0
M  V30 13356 C 1267.66 2.17317 0.696311 0
M  V30 13357 C 1268.64 1.12456 1.17441 0
M  V30 13358 O 1269.83 1.40832 1.25294 0
M  V30 13359 C 1266.95 2.77211 1.94606 0
M  V30 13360 C 1266 3.95107 1.60602 0
M  V30 13361 S 1266.83 5.30765 0.710525 0
M  V30 13362 C 1267.99 5.94111 1.96933 0
M  V30 13363 H 1268.22 2.96799 0.172566 0
M  V30 13364 H 1265.75 1.54372 -0.0292155 0
M  V30 13365 H 1267.71 3.12355 2.66354 0
M  V30 13366 H 1266.37 1.9768 2.44093 0
M  V30 13367 H 1265.57 4.35598 2.53517 0
M  V30 13368 H 1265.17 3.61229 0.968986 0
M  V30 13369 H 1267.46 6.11496 2.91682 0
M  V30 13370 H 1268.4 6.89602 1.60794 0
M  V30 13371 H 1268.81 5.23161 2.12043 0
M  V30 13372 N 1268.21 -0.0283989 1.57574 0
M  V30 13373 C 1269.46 -0.720142 1.89583 0
M  V30 13374 C 1269.79 -1.7497 0.842562 0
M  V30 13375 O 1269.06 -1.93979 -0.142294 0
M  V30 13376 C 1269.35 -1.38909 3.32229 0
M  V30 13377 C 1269.2 -0.372998 4.48251 0
M  V30 13378 C 1270.52 -2.32289 3.73804 0
M  V30 13379 H 1267.64 -0.26033 0.689491 0
M  V30 13380 H 1270.28 0.0170607 1.89992 0
M  V30 13381 H 1268.43 -2.01744 3.32011 0
M  V30 13382 H 1270.1 0.253492 4.60603 0
M  V30 13383 H 1268.34 0.30765 4.32708 0
M  V30 13384 H 1269.02 -0.879549 5.44948 0
M  V30 13385 H 1271.49 -1.79497 3.75393 0
M  V30 13386 H 1270.37 -2.76075 4.74419 0
M  V30 13387 H 1270.63 -3.18992 3.06099 0
M  V30 13388 N 1269.69 -1.54705 -0.300681 0
M  V30 13389 C 1270.93 -1.74259 -1.03738 0
M  V30 13390 C 1271.27 -0.52703 -1.86912 0
M  V30 13391 O 1270.54 0.475862 -1.88589 0
M  V30 13392 C 1270.82 -3.03175 -1.94311 0
M  V30 13393 C 1270.68 -4.35031 -1.14315 0
M  V30 13394 C 1272 -3.27962 -2.93478 0
M  V30 13395 H 1269.12 -0.634031 -0.37573 0
M  V30 13396 H 1271.76 -1.87421 -0.312012 0
M  V30 13397 H 1269.91 -2.92086 -2.5616 0
M  V30 13398 H 1271.58 -4.5804 -0.547489 0
M  V30 13399 H 1269.82 -4.31503 -0.44587 0
M  V30 13400 H 1270.49 -5.21502 -1.80941 0
M  V30 13401 H 1272.97 -3.38663 -2.41757 0
M  V30 13402 H 1271.85 -4.19481 -3.54016 0
M  V30 13403 H 1272.11 -2.46273 -3.67154 0
M  V30 13404 N 1271.17 0.563888 -1.47167 0
M  V30 13405 C 1272.58 0.889156 -1.32537 0
M  V30 13406 C 1272.78 1.99088 -0.310854 0
M  V30 13407 O 1271.84 2.50943 0.27998 0
M  V30 13408 C 1273.15 1.28871 -2.71685 0
M  V30 13409 C 1274.7 1.40051 -2.79919 0
M  V30 13410 C 1275.17 1.83364 -4.19692 0
M  V30 13411 N 1276.67 1.90526 -4.22201 0
M  V30 13412 C 1277.4 2.25355 -5.2726 0
M  V30 13413 N 1276.9 2.58844 -6.42629 0
M  V30 13414 N 1278.69 2.26071 -5.14634 0
M  V30 13415 H 1270.84 -0.163581 -2.11769 0
M  V30 13416 H 1273.1 -0.0105151 -0.947942 0
M  V30 13417 H 1272.81 0.553057 -3.47324 0
M  V30 13418 H 1272.68 2.24629 -3.03021 0
M  V30 13419 H 1275.07 2.12698 -2.04557 0
M  V30 13420 H 1275.15 0.424971 -2.52245 0
M  V30 13421 H 1274.8 1.11289 -4.95557 0
M  V30 13422 H 1274.73 2.81909 -4.44786 0
M  V30 13423 H 1277.22 1.67059 -3.38968 0
M  V30 13424 H 1277.53 2.84427 -7.18555 0
M  V30 13425 H 1275.87 2.56439 -6.4596 0
M  V30 13426 H 1279.07 1.99343 -4.23533 0
M  V30 13427 H 1279.24 2.52885 -5.96618 0
M  V30 13428 N 1272.64 1.35187 0.810078 0
M  V30 13429 C 1273.59 1.27848 1.94313 0
M  V30 13430 C 1274.59 0.174081 1.68503 0
M  V30 13431 O 1275.79 0.339848 1.76763 0
M  V30 13432 H 1272.17 0.397504 0.638353 0
M  V30 13433 H 1274.14 2.23579 1.97623 0
M  V30 13434 C 1272.89 1.06382 3.31026 0
M  V30 13435 H 1272.21 1.90601 3.51441 0
M  V30 13436 H 1273.65 1.05287 4.1072 0
M  V30 13437 C 1272.11 -0.232462 3.36097 0
M  V30 13438 O 1272.64 -1.22946 3.82423 0
M  V30 13439 N 1270.85 -0.270028 2.89343 0
M  V30 13440 H 1270.39 0.541891 2.51836 0
M  V30 13441 H 1270.35 -1.13708 2.93117 0
M  V30 13442 N 1274.12 -1.03182 1.19127 0
M  V30 13443 C 1275.54 -1.28773 0.942854 0
M  V30 13444 C 1275.74 -1.97759 -0.386483 0
M  V30 13445 O 1274.79 -2.26365 -1.1187 0
M  V30 13446 C 1276.11 -2.13771 2.11476 0
M  V30 13447 C 1277.66 -2.27089 2.15406 0
M  V30 13448 C 1278.13 -3.15458 3.32039 0
M  V30 13449 N 1279.62 -3.23046 3.31957 0
M  V30 13450 C 1280.36 -3.91604 4.18848 0
M  V30 13451 N 1279.85 -4.62418 5.15889 0
M  V30 13452 N 1281.65 -3.87974 4.06734 0
M  V30 13453 H 1273.8 -0.568165 2.0466 0
M  V30 13454 H 1276.06 -0.31328 0.89474 0
M  V30 13455 H 1275.77 -1.704 3.07663 0
M  V30 13456 H 1275.64 -3.14476 2.0829 0
M  V30 13457 H 1278.03 -2.69693 1.19791 0
M  V30 13458 H 1278.11 -1.25945 2.22647 0
M  V30 13459 H 1277.75 -2.73564 4.27931 0
M  V30 13460 H 1277.68 -4.16654 3.22035 0
M  V30 13461 H 1280.17 -2.7261 2.6171 0
M  V30 13462 H 1280.49 -5.12353 5.78545 0
M  V30 13463 H 1278.83 -4.61293 5.1984 0
M  V30 13464 H 1282.02 -3.31789 3.30202 0
M  V30 13465 H 1282.19 -4.4113 4.74666 0
M  V30 13466 N 1275.6 -0.99472 -1.22242 0
M  V30 13467 C 1277.02 -0.705762 -1.43147 0
M  V30 13468 C 1277.22 0.722908 -1.88086 0
M  V30 13469 O 1276.27 1.49359 -2.03588 0
M  V30 13470 C 1277.59 -1.71288 -2.47145 0
M  V30 13471 C 1279.13 -1.72853 -2.60942 0
M  V30 13472 C 1279.61 -2.72433 -3.68163 0
M  V30 13473 N 1281.1 -2.71039 -3.75623 0
M  V30 13474 C 1281.83 -3.44753 -4.58184 0
M  V30 13475 N 1281.33 -4.28075 -5.44724 0
M  V30 13476 N 1283.12 -3.33451 -4.52512 0
M  V30 13477 H 1275.27 -1.91738 -0.913792 0
M  V30 13478 H 1277.54 -0.82702 -0.463403 0
M  V30 13479 H 1277.24 -2.7353 -2.21075 0
M  V30 13480 H 1277.12 -1.50721 -3.45779 0
M  V30 13481 H 1279.5 -0.713085 -2.86355 0
M  V30 13482 H 1279.59 -1.9749 -1.62577 0
M  V30 13483 H 1279.23 -3.74129 -3.43497 0
M  V30 13484 H 1279.16 -2.45066 -4.66101 0
M  V30 13485 H 1281.65 -2.10581 -3.1379 0
M  V30 13486 H 1281.96 -4.81143 -6.04749 0
M  V30 13487 H 1280.31 -4.32161 -5.44299 0
M  V30 13488 H 1283.5 -2.67797 -3.8393 0
M  V30 13489 H 1283.67 -3.91158 -5.16623 0
M  V30 13490 N 1277.08 1.37613 -0.768148 0
M  V30 13491 C 1278.01 2.3291 -0.165911 0
M  V30 13492 C 1278.99 1.556 0.687205 0
M  V30 13493 O 1280.17 1.83854 0.625407 0
M  V30 13494 C 1277.3 3.39822 0.7168 0
M  V30 13495 C 1276.26 4.27986 -0.0347264 0
M  V30 13496 C 1275.58 5.2588 0.967192 0
M  V30 13497 C 1276.88 5.08052 -1.21164 0
M  V30 13498 H 1278.58 2.83524 -0.962006 0
M  V30 13499 H 1276.12 1.36318 -0.464051 0
M  V30 13500 H 1278.08 4.05464 1.14789 0
M  V30 13501 H 1276.8 2.87725 1.54538 0
M  V30 13502 H 1275.46 3.6387 -0.446557 0
M  V30 13503 H 1275.11 4.70064 1.79022 0
M  V30 13504 H 1274.81 5.85726 0.468913 0
M  V30 13505 H 1276.33 5.94397 1.3973 0
M  V30 13506 H 1277.75 5.66853 -0.857373 0
M  V30 13507 H 1276.14 5.77206 -1.64176 0
M  V30 13508 H 1277.21 4.40936 -2.0175 0
M  V30 13509 N 1278.56 0.518393 1.4883 0
M  V30 13510 C 1279.78 -0.0162 2.06894 0
M  V30 13511 C 1280.2 -1.29222 1.37649 0
M  V30 13512 O 1279.56 -1.766 0.460288 0
M  V30 13513 C 1279.61 -0.255836 3.60594 0
M  V30 13514 O 1279.33 0.969612 4.27235 0
M  V30 13515 C 1280.83 -0.832117 4.3542 0
M  V30 13516 H 1278.05 0.0282877 0.670403 0
M  V30 13517 H 1280.59 0.720726 1.91379 0
M  V30 13518 H 1278.75 -0.942782 3.75753 0
M  V30 13519 H 1279.16 0.743172 5.19208 0
M  V30 13520 H 1280.64 -0.949279 5.43776 0
M  V30 13521 H 1281.11 -1.83421 3.99066 0
M  V30 13522 H 1281.72 -0.1821 4.2491 0
M  V30 13523 N 1280.03 -1.55556 0.252993 0
M  V30 13524 C 1281.28 -1.99385 -0.370599 0
M  V30 13525 C 1281.61 -1.14101 -1.57145 0
M  V30 13526 O 1280.89 -0.205828 -1.93408 0
M  V30 13527 C 1281.17 -3.51672 -0.774503 0
M  V30 13528 C 1281.02 -4.47719 0.432159 0
M  V30 13529 C 1282.34 -4.0923 -1.61923 0
M  V30 13530 H 1279.46 -0.724858 -0.133231 0
M  V30 13531 H 1282.1 -1.86644 0.355522 0
M  V30 13532 H 1280.25 -3.62661 -1.39318 0
M  V30 13533 H 1281.93 -4.48704 1.07063 0
M  V30 13534 H 1280.17 -4.2029 1.07419 0
M  V30 13535 H 1280.84 -5.51898 0.106123 0
M  V30 13536 H 1283.32 -4.01381 -1.09693 0
M  V30 13537 H 1282.19 -5.16039 -1.87068 0
M  V30 13538 H 1282.45 -3.58067 -2.59307 0
M  V30 13539 N 1281.51 0.0200419 -1.57587 0
M  V30 13540 C 1282.74 0.720556 -1.93947 0
M  V30 13541 C 1283.16 1.68407 -0.853499 0
M  V30 13542 O 1282.51 1.81713 0.169337 0
M  V30 13543 C 1282.56 1.46982 -3.3027 0
M  V30 13544 O 1282.28 0.544971 -4.34697 0
M  V30 13545 C 1283.79 2.26667 -3.80968 0
M  V30 13546 H 1281.01 0.201956 -0.639887 0
M  V30 13547 H 1283.55 -0.0251175 -2.04485 0
M  V30 13548 H 1281.7 2.16729 -3.21103 0
M  V30 13549 H 1282.12 1.07139 -5.13441 0
M  V30 13550 H 1283.59 2.74621 -4.78839 0
M  V30 13551 H 1284.07 3.0848 -3.12629 0
M  V30 13552 H 1284.68 1.61976 -3.93248 0
M  V30 13553 N 1282.99 1.54862 0.292472 0
M  V30 13554 C 1284.41 1.46267 0.638611 0
M  V30 13555 C 1284.61 0.660824 1.90356 0
M  V30 13556 O 1283.66 0.171909 2.51914 0
M  V30 13557 C 1284.98 2.90309 0.783675 0
M  V30 13558 C 1286.52 3.00404 0.879004 0
M  V30 13559 C 1287 4.4566 1.056 0
M  V30 13560 N 1288.49 4.49406 1.122 0
M  V30 13561 C 1289.22 5.5899 1.2774 0
M  V30 13562 N 1288.72 6.78482 1.40123 0
M  V30 13563 N 1290.51 5.46695 1.30696 0
M  V30 13564 H 1282.66 2.0546 -0.538521 0
M  V30 13565 H 1284.93 0.930879 -0.179354 0
M  V30 13566 H 1284.63 3.5162 -0.0750437 0
M  V30 13567 H 1284.51 3.38215 1.67004 0
M  V30 13568 H 1286.89 2.39201 1.7282 0
M  V30 13569 H 1286.98 2.55781 -0.0315624 0
M  V30 13570 H 1286.62 5.07459 0.211535 0
M  V30 13571 H 1286.55 4.87921 1.98092 0
M  V30 13572 H 1289.04 3.63322 1.03948 0
M  V30 13573 H 1289.35 7.57752 1.5176 0
M  V30 13574 H 1287.7 6.81331 1.37163 0
M  V30 13575 H 1290.89 4.52288 1.20638 0
M  V30 13576 H 1291.06 6.32146 1.42463 0
M  V30 13577 N 1284.47 -0.556076 1.47464 0
M  V30 13578 C 1285.72 -1.31061 1.53842 0
M  V30 13579 C 1286.04 -1.93943 0.202806 0
M  V30 13580 O 1285.31 -1.7999 -0.773338 0
M  V30 13581 H 1283.89 -0.486696 0.566689 0
M  V30 13582 H 1286.55 -0.64924 1.83769 0
M  V30 13583 H 1285.65 -2.10354 2.30559 0
M  V30 13584 N 1285.95 -1.35615 -0.802897 0
M  V30 13585 C 1286.88 -1.31506 -1.92947 0
M  V30 13586 C 1287.86 -0.188843 -1.69048 0
M  V30 13587 O 1289.04 -0.384384 -1.90358 0
M  V30 13588 C 1286.17 -1.09001 -3.29752 0
M  V30 13589 C 1285.13 -2.18303 -3.68141 0
M  V30 13590 C 1284.45 -1.80959 -5.03148 0
M  V30 13591 C 1285.75 -3.60296 -3.78132 0
M  V30 13592 H 1287.45 -2.25771 -1.96642 0
M  V30 13593 H 1284.99 -1.08682 -0.944685 0
M  V30 13594 H 1286.95 -1.04766 -4.08169 0
M  V30 13595 H 1285.67 -0.111832 -3.26408 0
M  V30 13596 H 1284.33 -2.21642 -2.92011 0
M  V30 13597 H 1283.98 -0.817495 -4.96312 0
M  V30 13598 H 1283.68 -2.54129 -5.29804 0
M  V30 13599 H 1285.2 -1.78255 -5.84001 0
M  V30 13600 H 1286.62 -3.59259 -4.46773 0
M  V30 13601 H 1285.01 -4.32258 -4.16261 0
M  V30 13602 H 1286.08 -3.9618 -2.79588 0
M  V30 13603 N 1287.43 1.02549 -1.19673 0
M  V30 13604 C 1288.36 2.10991 -0.8953 0
M  V30 13605 C 1289.37 1.62405 0.113373 0
M  V30 13606 O 1290.56 1.7812 -0.116485 0
M  V30 13607 C 1287.66 3.37394 -0.319124 0
M  V30 13608 C 1286.83 4.15154 -1.37718 0
M  V30 13609 C 1285.89 5.19867 -0.81393 0
M  V30 13610 O 1284.92 5.49285 -1.49246 0
M  V30 13611 N 1286.12 5.79248 0.381089 0
M  V30 13612 H 1288.88 2.37438 -1.82875 0
M  V30 13613 H 1286.45 1.18867 -1.09919 0
M  V30 13614 H 1288.44 4.04637 0.0716106 0
M  V30 13615 H 1287.01 3.08267 0.518681 0
M  V30 13616 H 1286.23 3.4301 -1.94262 0
M  V30 13617 H 1287.52 4.63892 -2.09003 0
M  V30 13618 H 1286.91 5.5767 0.949791 0
M  V30 13619 H 1285.47 6.47882 0.713563 0
M  V30 13620 N 1288.9 1.00119 1.21713 0
M  V30 13621 C 1289.85 0.558388 2.23943 0
M  V30 13622 C 1290.82 -0.413576 1.60869 0
M  V30 13623 O 1292.01 -0.316478 1.88157 0
M  V30 13624 C 1289.15 -0.112618 3.44916 0
M  V30 13625 C 1288.26 0.902071 4.22477 0
M  V30 13626 C 1287.39 0.203722 5.30809 0
M  V30 13627 C 1286.43 1.20622 6.00097 0
M  V30 13628 N 1285.57 0.535607 7.00054 0
M  V30 13629 H 1290.41 1.43486 2.61182 0
M  V30 13630 H 1287.95 0.718572 1.28355 0
M  V30 13631 H 1289.9 -0.51865 4.13964 0
M  V30 13632 H 1288.53 -0.952827 3.08417 0
M  V30 13633 H 1287.59 1.42637 3.52645 0
M  V30 13634 H 1288.9 1.66513 4.70186 0
M  V30 13635 H 1288.05 -0.258614 6.06149 0
M  V30 13636 H 1286.79 -0.591773 4.84096 0
M  V30 13637 H 1285.8 1.6791 5.23532 0
M  V30 13638 H 1287.02 2.00273 6.48897 0
M  V30 13639 H 1284.97 -0.2403 6.5556 0
M  V30 13640 H 1284.88 1.23698 7.45812 0
M  V30 13641 H 1286.15 0.0963489 7.7944 0
M  V30 13642 N 1290.38 -1.37203 0.775435 0
M  V30 13643 C 1291.66 -1.93783 0.266005 0
M  V30 13644 C 1292.04 -1.70875 -1.23956 0
M  V30 13645 O 1291.39 -1.05965 -2.02444 0
M  V30 13646 C 1291.6 -3.43018 0.643404 0
M  V30 13647 C 1292.94 -4.20119 0.615267 0
M  V30 13648 O 1293.97 -3.51396 0.583018 0
M  V30 13649 O 1292.83 -5.42673 0.645637 0
M  V30 13650 H 1289.92 -0.824649 0.0623107 0
M  V30 13651 H 1292.47 -1.46468 0.857036 0
M  V30 13652 H 1291.24 -3.5329 1.68232 0
M  V30 13653 H 1290.86 -3.97592 0.0255138 0
M  V30 13654 N 1291.86 -0.526279 -1.48553 0
M  V30 13655 C 1293.09 0.00522012 -2.06599 0
M  V30 13656 C 1293.5 1.29039 -1.38368 0
M  V30 13657 O 1292.84 1.77747 -0.463854 0
M  V30 13658 C 1292.9 0.303512 -3.58216 0
M  V30 13659 C 1292.57 -0.887635 -4.48297 0
M  V30 13660 C 1293.56 -1.78504 -4.88295 0
M  V30 13661 C 1291.25 -1.09359 -4.90251 0
M  V30 13662 C 1293.24 -2.87233 -5.69013 0
M  V30 13663 C 1290.93 -2.18402 -5.7074 0
M  V30 13664 C 1291.93 -3.07172 -6.10028 0
M  V30 13665 O 1291.62 -4.14329 -6.88902 0
M  V30 13666 H 1291.35 -0.0287033 -0.67539 0
M  V30 13667 H 1293.9 -0.730244 -1.91981 0
M  V30 13668 H 1292.13 1.0929 -3.70935 0
M  V30 13669 H 1293.82 0.776647 -3.98401 0
M  V30 13670 H 1294.59 -1.63785 -4.56508 0
M  V30 13671 H 1290.47 -0.411922 -4.59156 0
M  V30 13672 H 1294.01 -3.56549 -5.99599 0
M  V30 13673 H 1289.91 -2.33106 -6.0194 0
M  V30 13674 H 1290.67 -4.11993 -7.07251 0
M  V30 13675 N 1293.34 1.5542 -0.261239 0
M  V30 13676 C 1294.56 2.04142 0.366144 0
M  V30 13677 C 1294.99 1.13884 1.49706 0
M  V30 13678 O 1294.35 0.134629 1.80799 0
M  V30 13679 C 1294.39 3.50733 0.837774 0
M  V30 13680 O 1293.5 3.63588 1.94621 0
M  V30 13681 H 1292.84 0.659424 0.077821 0
M  V30 13682 H 1295.37 2.0082 -0.391487 0
M  V30 13683 H 1295.38 3.91831 1.13721 0
M  V30 13684 H 1294.05 4.15899 0.0102742 0
M  V30 13685 H 1292.63 3.34391 1.65037 0
M  V30 13686 N 1294.82 -0.0116844 1.57596 0
M  V30 13687 C 1295.76 -1.00684 2.07681 0
M  V30 13688 C 1296.73 -1.34858 0.969666 0
M  V30 13689 O 1297.92 -1.44896 1.24136 0
M  V30 13690 C 1295.06 -2.29729 2.57524 0
M  V30 13691 C 1294.17 -2.0156 3.82096 0
M  V30 13692 C 1293.31 -3.24601 4.20485 0
M  V30 13693 C 1292.34 -2.92066 5.37925 0
M  V30 13694 N 1291.48 -4.0761 5.71663 0
M  V30 13695 H 1296.32 -0.572787 2.92443 0
M  V30 13696 H 1293.86 -0.271184 1.44579 0
M  V30 13697 H 1295.82 -3.05152 2.84496 0
M  V30 13698 H 1294.45 -2.70824 1.75653 0
M  V30 13699 H 1293.5 -1.16556 3.62103 0
M  V30 13700 H 1294.81 -1.73572 4.67626 0
M  V30 13701 H 1293.96 -4.08379 4.48677 0
M  V30 13702 H 1292.7 -3.55718 3.3364 0
M  V30 13703 H 1291.71 -2.06693 5.09468 0
M  V30 13704 H 1292.93 -2.62209 6.26437 0
M  V30 13705 H 1290.88 -4.38645 4.87777 0
M  V30 13706 H 1290.8 -3.83105 6.51741 0
M  V30 13707 H 1292.06 -4.92211 6.04441 0
M  V30 13708 N 1296.29 -1.55015 -0.284256 0
M  V30 13709 C 1297.57 -1.6579 -1.03794 0
M  V30 13710 C 1297.95 -0.517029 -2.04671 0
M  V30 13711 O 1297.3 0.484287 -2.23309 0
M  V30 13712 C 1297.51 -3.04527 -1.70483 0
M  V30 13713 C 1298.86 -3.61903 -2.22062 0
M  V30 13714 O 1299.88 -3.07087 -1.80488 0
M  V30 13715 O 1298.74 -4.57917 -2.98286 0
M  V30 13716 H 1295.83 -0.672906 -0.480757 0
M  V30 13717 H 1298.38 -1.67357 -0.281009 0
M  V30 13718 H 1297.15 -3.79004 -0.973238 0
M  V30 13719 H 1296.77 -3.0681 -2.5289 0
M  V30 13720 N 1297.77 0.548248 -1.47757 0
M  V30 13721 C 1299.18 1.13033 -1.48595 0
M  V30 13722 C 1299.53 1.94657 -0.245575 0
M  V30 13723 O 1298.66 2.06445 0.648813 0
M  V30 13724 C 1299.25 2.05657 -2.69241 0
M  V30 13725 C 1297.81 2.59119 -2.73009 0
M  V30 13726 C 1296.96 1.35686 -2.41836 0
M  V30 13727 H 1299.91 0.334397 -1.55137 0
M  V30 13728 H 1299.93 2.89671 -2.4672 0
M  V30 13729 H 1299.44 1.46222 -3.595 0
M  V30 13730 H 1297.54 3.22327 -1.86912 0
M  V30 13731 H 1297.66 2.99501 -3.73946 0
M  V30 13732 H 1296.02 1.66659 -1.92606 0
M  V30 13733 H 1296.8 0.780311 -3.34314 0
M  V30 13734 N 1299.25 1.36039 0.795694 0
M  V30 13735 C 1300.5 1.3112 1.55497 0
M  V30 13736 C 1300.85 -0.110471 1.92083 0
M  V30 13737 O 1300.14 -1.06352 1.59373 0
M  V30 13738 C 1300.34 2.16166 2.84617 0
M  V30 13739 C 1300.17 3.66459 2.60649 0
M  V30 13740 C 1298.94 4.35658 2.55989 0
M  V30 13741 C 1301.13 4.59866 2.30277 0
M  V30 13742 N 1299.12 5.71632 2.23852 0
M  V30 13743 C 1300.49 5.84042 2.08074 0
M  V30 13744 C 1302.54 4.48496 2.16231 0
M  V30 13745 C 1301.25 6.98125 1.73246 0
M  V30 13746 C 1303.27 5.62439 1.82801 0
M  V30 13747 C 1302.63 6.8565 1.61441 0
M  V30 13748 H 1298.73 0.53507 0.570284 0
M  V30 13749 H 1301.32 1.71029 0.930441 0
M  V30 13750 H 1299.49 1.78511 3.44947 0
M  V30 13751 H 1301.22 2.02684 3.50288 0
M  V30 13752 H 1297.97 3.8839 2.71017 0
M  V30 13753 H 1298.4 6.43428 2.10547 0
M  V30 13754 H 1303.04 3.53831 2.31437 0
M  V30 13755 H 1300.76 7.92746 1.56777 0
M  V30 13756 H 1304.34 5.556 1.72626 0
M  V30 13757 H 1303.22 7.72325 1.35953 0
M  V30 13758 N 1300.73 -1.01913 1.20215 0
M  V30 13759 C 1301.68 -2.08774 0.916367 0
M  V30 13760 C 1302.66 -1.60431 -0.122796 0
M  V30 13761 O 1303.85 -1.76799 0.0842336 0
M  V30 13762 C 1300.98 -3.40102 0.467517 0
M  V30 13763 C 1300.07 -3.95153 1.53997 0
M  V30 13764 N 1300.46 -4.23745 2.76178 0
M  V30 13765 C 1298.76 -4.23274 1.40554 0
M  V30 13766 C 1299.46 -4.681 3.45336 0
M  V30 13767 N 1298.44 -4.70224 2.72745 0
M  V30 13768 H 1302.24 -2.28786 1.84484 0
M  V30 13769 H 1299.75 -1.19861 1.09577 0
M  V30 13770 H 1301.75 -4.16184 0.244195 0
M  V30 13771 H 1300.41 -3.21505 -0.454358 0
M  V30 13772 H 1301.42 -4.12728 3.12852 0
M  V30 13773 H 1298.1 -4.1389 0.547877 0
M  V30 13774 H 1299.49 -4.99063 4.49873 0
M  V30 13775 N 1302.21 -1.00763 -1.2118 0
M  V30 13776 C 1303.45 -0.690459 -1.8994 0
M  V30 13777 C 1303.78 0.781464 -1.78656 0
M  V30 13778 O 1303.05 1.56135 -1.18316 0
M  V30 13779 H 1301.63 -0.252397 -0.703068 0
M  V30 13780 H 1304.29 -1.2773 -1.47211 0
M  V30 13781 H 1303.38 -0.96594 -2.96776 0
M  V30 13782 N 1303.68 1.3679 -0.7827 0
M  V30 13783 C 1304.65 2.28472 -0.182525 0
M  V30 13784 C 1305.65 1.48524 0.616217 0
M  V30 13785 O 1306.84 1.68599 0.438197 0
M  V30 13786 C 1303.97 3.32588 0.748202 0
M  V30 13787 H 1305.16 2.83059 -0.99085 0
M  V30 13788 H 1302.72 1.46241 -0.551658 0
M  V30 13789 H 1303.45 2.83145 1.58112 0
M  V30 13790 H 1303.24 3.91698 0.177481 0
M  V30 13791 H 1304.73 4.01073 1.16321 0
M  V30 13792 N 1305.16 0.53415 1.48272 0
M  V30 13793 C 1306.07 -0.230062 2.33469 0
M  V30 13794 C 1307.09 -0.934889 1.46751 0
M  V30 13795 O 1308.26 -0.908921 1.79724 0
M  V30 13796 C 1305.33 -1.2609 3.22958 0
M  V30 13797 C 1304.39 -0.565983 4.25553 0
M  V30 13798 C 1303.62 -1.54771 5.10766 0
M  V30 13799 O 1303.85 -2.7807 4.9803 0
M  V30 13800 O 1302.78 -1.08482 5.92043 0
M  V30 13801 H 1306.61 0.468182 3.0007 0
M  V30 13802 H 1304.19 0.29502 1.46458 0
M  V30 13803 H 1306.07 -1.85652 3.783 0
M  V30 13804 H 1304.75 -1.94148 2.59014 0
M  V30 13805 H 1303.66 0.0702391 3.74034 0
M  V30 13806 H 1304.99 0.0727277 4.92146 0
M  V30 13807 N 1306.64 -1.55279 0.269478 0
M  V30 13808 C 1307.89 -1.99767 -0.34943 0
M  V30 13809 C 1308.22 -1.15762 -1.55926 0
M  V30 13810 O 1307.49 -0.22633 -1.93179 0
M  V30 13811 C 1307.78 -3.52474 -0.73716 0
M  V30 13812 C 1307.63 -4.47236 0.479621 0
M  V30 13813 C 1308.95 -4.10924 -1.57573 0
M  V30 13814 H 1306.07 -0.72623 -0.125535 0
M  V30 13815 H 1308.71 -1.86257 0.375298 0
M  V30 13816 H 1306.86 -3.64118 -1.35464 0
M  V30 13817 H 1308.53 -4.47543 1.11816 0
M  V30 13818 H 1306.78 -4.19127 1.11871 0
M  V30 13819 H 1307.45 -5.51754 0.164653 0
M  V30 13820 H 1309.92 -4.02522 -1.05429 0
M  V30 13821 H 1308.8 -5.17995 -1.81584 0
M  V30 13822 H 1309.06 -3.60798 -2.55495 0
M  V30 13823 N 1308.12 0.00332656 -1.576 0
M  V30 13824 C 1309.34 0.703587 -1.95101 0
M  V30 13825 C 1309.77 1.66697 -0.871418 0
M  V30 13826 O 1309.13 1.80494 0.170739 0
M  V30 13827 C 1309.17 1.41457 -3.31696 0
M  V30 13828 O 1308.28 2.52885 -3.25765 0
M  V30 13829 H 1307.62 0.187396 -0.637008 0
M  V30 13830 H 1310.15 -0.0488727 -2.04542 0
M  V30 13831 H 1310.16 1.77874 -3.67185 0
M  V30 13832 H 1308.83 0.708182 -4.09826 0
M  V30 13833 H 1307.41 2.18821 -3.01947 0
M  V30 13834 N 1309.6 1.55164 0.276031 0
M  V30 13835 C 1310.84 1.77377 1.01572 0
M  V30 13836 C 1311.2 0.56142 1.83608 0
M  V30 13837 O 1312.4 0.661745 2.60527 0
M  V30 13838 C 1310.67 3.0412 1.87738 0
M  V30 13839 S 1312.23 3.4744 2.68013 0
M  V30 13840 H 1309.05 0.62326 0.342153 0
M  V30 13841 H 1311.65 1.9339 0.286456 0
M  V30 13842 H 1310.36 3.90453 1.26389 0
M  V30 13843 H 1309.89 2.90764 2.6499 0
M  V30 13844 H 1311.9 3.06474 3.90241 0
M  V30 13845 N 1311.07 -0.540404 1.48045 0
M  V30 13846 C 1312.32 -1.29628 1.56742 0
M  V30 13847 C 1312.68 -1.90975 0.233761 0
M  V30 13848 O 1311.97 -1.75781 -0.762333 0
M  V30 13849 C 1312.16 -2.41517 2.63447 0
M  V30 13850 C 1311.99 -1.91137 4.07059 0
M  V30 13851 C 1310.76 -1.74214 4.74318 0
M  V30 13852 C 1312.96 -1.44598 4.93554 0
M  V30 13853 N 1310.94 -1.1835 6.02384 0
M  V30 13854 C 1312.31 -1.00612 6.11782 0
M  V30 13855 C 1314.37 -1.32805 4.79862 0
M  V30 13856 C 1313.07 -0.460024 7.17827 0
M  V30 13857 C 1315.1 -0.795956 5.86019 0
M  V30 13858 C 1314.46 -0.36611 7.03448 0
M  V30 13859 H 1310.56 -0.46575 0.628173 0
M  V30 13860 H 1313.14 -0.610609 1.84877 0
M  V30 13861 H 1311.31 -3.07594 2.37151 0
M  V30 13862 H 1313.04 -3.08539 2.61889 0
M  V30 13863 H 1309.8 -1.97429 4.30487 0
M  V30 13864 H 1310.22 -0.924579 6.70657 0
M  V30 13865 H 1314.87 -1.64645 3.89425 0
M  V30 13866 H 1312.58 -0.129275 8.07997 0
M  V30 13867 H 1316.17 -0.708026 5.77476 0
M  V30 13868 H 1315.05 0.0392247 7.8419 0
M  V30 13869 N 1312.55 -1.36459 -0.788468 0
M  V30 13870 C 1313.8 -1.30741 -1.54638 0
M  V30 13871 C 1314.13 0.113029 -1.94171 0
M  V30 13872 O 1313.38 1.08252 -1.63034 0
M  V30 13873 C 1313.68 -2.17672 -2.83467 0
M  V30 13874 C 1313.35 -3.66205 -2.63067 0
M  V30 13875 C 1312.01 -4.06688 -2.57212 0
M  V30 13876 C 1314.36 -4.60376 -2.44343 0
M  V30 13877 C 1311.69 -5.39482 -2.306 0
M  V30 13878 C 1314.04 -5.93388 -2.19258 0
M  V30 13879 C 1312.71 -6.32994 -2.11836 0
M  V30 13880 H 1311.98 -0.478416 -0.565862 0
M  V30 13881 H 1314.62 -1.68519 -0.909588 0
M  V30 13882 H 1312.93 -1.72834 -3.51619 0
M  V30 13883 H 1314.62 -2.10573 -3.41263 0
M  V30 13884 H 1311.21 -3.3409 -2.6848 0
M  V30 13885 H 1315.4 -4.29971 -2.47868 0
M  V30 13886 H 1310.65 -5.69149 -2.23337 0
M  V30 13887 H 1314.83 -6.65923 -2.03765 0
M  V30 13888 H 1312.46 -7.3582 -1.90978 0
M  V30 13889 N 1314.03 1.01274 -1.20754 0
M  V30 13890 C 1315.28 1.74342 -1.01428 0
M  V30 13891 C 1315.59 1.90265 0.453708 0
M  V30 13892 O 1316.8 2.60465 0.76618 0
M  V30 13893 C 1315.25 3.13588 -1.76609 0
M  V30 13894 C 1314.86 3.05664 -3.27526 0
M  V30 13895 C 1316.61 3.9084 -1.65664 0
M  V30 13896 C 1314.51 4.39942 -3.95228 0
M  V30 13897 H 1313.44 0.653619 -0.375897 0
M  V30 13898 H 1316.09 1.13214 -1.44412 0
M  V30 13899 H 1314.48 3.75281 -1.26413 0
M  V30 13900 H 1315.65 2.53256 -3.84965 0
M  V30 13901 H 1313.97 2.41904 -3.38927 0
M  V30 13902 H 1316.56 4.9019 -2.13583 0
M  V30 13903 H 1316.91 4.11754 -0.61351 0
M  V30 13904 H 1317.44 3.35783 -2.13294 0
M  V30 13905 H 1314.18 4.24229 -4.9971 0
M  V30 13906 H 1313.7 4.92342 -3.42578 0
M  V30 13907 H 1315.38 5.08771 -3.99701 0
M  V30 13908 N 1315.51 1.01404 1.20644 0
M  V30 13909 C 1316.46 0.552956 2.21193 0
M  V30 13910 C 1317.44 -0.390324 1.56094 0
M  V30 13911 O 1318.64 -0.213705 1.75705 0
M  V30 13912 C 1315.76 -0.10995 3.43124 0
M  V30 13913 C 1314.85 0.854886 4.15394 0
M  V30 13914 N 1315.24 2.01137 4.64088 0
M  V30 13915 C 1313.54 0.675168 4.4086 0
M  V30 13916 C 1314.24 2.6187 5.19422 0
M  V30 13917 N 1313.22 1.89952 5.09332 0
M  V30 13918 H 1317.02 1.43467 2.56504 0
M  V30 13919 H 1314.53 0.87905 1.36552 0
M  V30 13920 H 1316.53 -0.457802 4.14379 0
M  V30 13921 H 1315.19 -0.987534 3.09318 0
M  V30 13922 H 1316.2 2.3914 4.59383 0
M  V30 13923 H 1312.88 -0.154577 4.17214 0
M  V30 13924 H 1314.27 3.59727 5.67491 0
M  V30 13925 N 1316.99 -1.36373 0.789944 0
M  V30 13926 C 1317.94 -2.31928 0.17666 0
M  V30 13927 C 1318.93 -1.55831 -0.664316 0
M  V30 13928 O 1320.14 -1.71089 -0.559341 0
M  V30 13929 H 1316.51 -0.751021 0.038353 0
M  V30 13930 H 1318.48 -2.81216 0.998004 0
M  V30 13931 C 1317.23 -3.41112 -0.673646 0
M  V30 13932 H 1316.55 -3.99784 -0.0358875 0
M  V30 13933 H 1317.99 -4.10292 -1.06942 0
M  V30 13934 C 1316.45 -2.82728 -1.83211 0
M  V30 13935 O 1316.98 -2.74935 -2.92871 0
M  V30 13936 N 1315.19 -2.4001 -1.6384 0
M  V30 13937 H 1314.74 -2.46549 -0.746423 0
M  V30 13938 H 1314.69 -2.01294 -2.41512 0
M  V30 13939 N 1318.47 -0.542005 -1.47987 0
M  V30 13940 C 1319.41 0.227398 -2.31486 0
M  V30 13941 C 1320.41 0.923984 -1.41982 0
M  V30 13942 O 1321.61 0.847 -1.58827 0
M  V30 13943 H 1317.99 0.0922034 -0.746326 0
M  V30 13944 H 1319.96 -0.49625 -2.94245 0
M  V30 13945 C 1318.71 1.25384 -3.24306 0
M  V30 13946 H 1318.03 0.727243 -3.9313 0
M  V30 13947 H 1319.47 1.76337 -3.85592 0
M  V30 13948 C 1317.93 2.29378 -2.46754 0
M  V30 13949 O 1318.46 3.36034 -2.201 0
M  V30 13950 N 1316.67 2.02905 -2.08033 0
M  V30 13951 H 1316.21 1.16186 -2.2991 0
M  V30 13952 H 1316.17 2.72705 -1.56458 0
M  V30 13953 N 1319.94 1.55134 -0.277709 0
M  V30 13954 C 1321.19 1.99259 0.337662 0
M  V30 13955 C 1321.51 1.16755 1.56183 0
M  V30 13956 O 1320.78 0.257707 1.94198 0
M  V30 13957 H 1319.36 0.735995 0.127751 0
M  V30 13958 H 1322.02 1.91087 -0.383646 0
M  V30 13959 H 1321.12 3.05763 0.625747 0
M  V30 13960 N 1321.42 0.00503138 1.57599 0
M  V30 13961 C 1322.38 -0.969628 2.0768 0
M  V30 13962 C 1323.38 -1.26933 0.987148 0
M  V30 13963 O 1324.57 -1.21368 1.24962 0
M  V30 13964 C 1321.71 -2.29312 2.52247 0
M  V30 13965 H 1322.9 -0.536342 2.95065 0
M  V30 13966 H 1320.45 -0.242543 1.54407 0
M  V30 13967 H 1321.19 -2.7732 1.6812 0
M  V30 13968 H 1320.97 -2.08878 3.31832 0
M  V30 13969 H 1322.46 -2.99221 2.91302 0
M  V30 13970 N 1322.9 -1.55308 -0.267798 0
M  V30 13971 C 1324.15 -1.75811 -0.996734 0
M  V30 13972 C 1324.47 -0.565161 -1.8663 0
M  V30 13973 O 1323.74 0.419775 -1.9135 0
M  V30 13974 H 1322.32 -0.648353 -0.371008 0
M  V30 13975 H 1324.98 -1.92719 -0.290775 0
M  V30 13976 H 1324.08 -2.66113 -1.63064 0
M  V30 13977 N 1324.38 0.532545 -1.4833 0
M  V30 13978 C 1325.31 1.64662 -1.65555 0
M  V30 13979 C 1326.29 1.62447 -0.50447 0
M  V30 13980 O 1327.47 1.79684 -0.736712 0
M  V30 13981 C 1324.6 3.03256 -1.69272 0
M  V30 13982 C 1323.56 3.20329 -2.83854 0
M  V30 13983 C 1322.88 4.59958 -2.72659 0
M  V30 13984 C 1324.18 3.03345 -4.25181 0
M  V30 13985 H 1325.88 1.50502 -2.58823 0
M  V30 13986 H 1323.42 0.722612 -1.24556 0
M  V30 13987 H 1325.38 3.81064 -1.79911 0
M  V30 13988 H 1324.1 3.18433 -0.725805 0
M  V30 13989 H 1322.76 2.44937 -2.72766 0
M  V30 13990 H 1322.41 4.71967 -1.73942 0
M  V30 13991 H 1322.11 4.72327 -3.49544 0
M  V30 13992 H 1323.63 5.39869 -2.85262 0
M  V30 13993 H 1325.05 3.70948 -4.37116 0
M  V30 13994 H 1323.44 3.27208 -5.03045 0
M  V30 13995 H 1324.51 1.998 -4.41824 0
M  V30 13996 N 1325.86 1.36875 0.78122 0
M  V30 13997 C 1327.1 1.30886 1.53466 0
M  V30 13998 C 1327.42 -0.107218 1.95306 0
M  V30 13999 O 1328.62 -0.289525 2.69952 0
M  V30 14000 C 1327.08 2.29688 2.77076 0
M  V30 14001 C 1326.69 3.76775 2.42373 0
M  V30 14002 C 1328.43 2.32692 3.55042 0
M  V30 14003 C 1326.34 4.67332 3.62428 0
M  V30 14004 H 1325.27 0.486408 0.576128 0
M  V30 14005 H 1327.92 1.62283 0.856529 0
M  V30 14006 H 1326.3 1.91296 3.4673 0
M  V30 14007 H 1327.48 4.2395 1.80563 0
M  V30 14008 H 1325.79 3.76625 1.77602 0
M  V30 14009 H 1328.39 2.97556 4.44257 0
M  V30 14010 H 1328.73 1.33779 3.94219 0
M  V30 14011 H 1329.26 2.69743 2.92375 0
M  V30 14012 H 1326 5.67339 3.2834 0
M  V30 14013 H 1325.52 4.24868 4.23376 0
M  V30 14014 H 1327.2 4.84005 4.29358 0
M  V30 14015 N 1327.33 -1.00632 1.21289 0
M  V30 14016 C 1328.61 -1.71635 0.938124 0
M  V30 14017 C 1328.99 -2.03798 -0.550416 0
M  V30 14018 O 1328.34 -1.71065 -1.5149 0
M  V30 14019 C 1328.55 -2.97674 1.82184 0
M  V30 14020 C 1329.9 -3.7073 2.06989 0
M  V30 14021 O 1330.92 -3.07653 1.79522 0
M  V30 14022 O 1329.78 -4.84183 2.53435 0
M  V30 14023 H 1326.87 -0.748506 0.351664 0
M  V30 14024 H 1329.42 -1.06387 1.32212 0
M  V30 14025 H 1328.19 -2.70306 2.82931 0
M  V30 14026 H 1327.81 -3.70663 1.43858 0
M  V30 14027 N 1328.81 -1.02043 -1.20104 0
M  V30 14028 C 1330.06 -0.710566 -1.89197 0
M  V30 14029 C 1330.38 0.762471 -1.79475 0
M  V30 14030 O 1329.65 1.54871 -1.19965 0
M  V30 14031 H 1328.23 -0.259839 -0.700352 0
M  V30 14032 H 1330.89 -1.29285 -1.45848 0
M  V30 14033 H 1329.99 -0.997363 -2.95735 0
M  V30 14034 N 1330.29 1.35952 -0.797165 0
M  V30 14035 C 1331.25 2.28266 -0.206748 0
M  V30 14036 C 1332.25 1.49169 0.60043 0
M  V30 14037 O 1333.44 1.69054 0.42029 0
M  V30 14038 C 1330.58 3.33363 0.712884 0
M  V30 14039 H 1331.77 2.81992 -1.02082 0
M  V30 14040 H 1329.32 1.45648 -0.567138 0
M  V30 14041 H 1330.06 2.84806 1.551 0
M  V30 14042 H 1329.84 3.91864 0.135926 0
M  V30 14043 H 1331.33 4.02284 1.1206 0
M  V30 14044 N 1331.77 0.549846 1.47697 0
M  V30 14045 C 1333 0.0276487 2.06581 0
M  V30 14046 C 1333.41 -1.26821 1.40403 0
M  V30 14047 O 1332.75 -1.76987 0.492073 0
M  V30 14048 C 1332.81 -0.246484 3.58654 0
M  V30 14049 C 1332.48 0.958843 4.46828 0
M  V30 14050 C 1333.47 1.86249 4.85394 0
M  V30 14051 C 1331.16 1.17144 4.88449 0
M  V30 14052 C 1333.15 2.96249 5.64372 0
M  V30 14053 C 1330.84 2.27454 5.67193 0
M  V30 14054 C 1331.84 3.16838 6.05064 0
M  V30 14055 O 1331.52 4.25237 6.82224 0
M  V30 14056 H 1331.26 0.0394446 0.674848 0
M  V30 14057 H 1333.81 0.760694 1.90795 0
M  V30 14058 H 1332.04 -1.03375 3.72627 0
M  V30 14059 H 1333.73 -0.713167 3.99586 0
M  V30 14060 H 1334.5 1.71027 4.53844 0
M  V30 14061 H 1330.37 0.484917 4.58443 0
M  V30 14062 H 1333.92 3.66043 5.9385 0
M  V30 14063 H 1329.82 2.42653 5.98155 0
M  V30 14064 H 1330.58 4.23193 7.00607 0
M  V30 14065 N 1333.25 -1.54984 0.285932 0
M  V30 14066 C 1334.47 -2.04239 -0.330774 0
M  V30 14067 C 1334.89 -1.16387 -1.48659 0
M  V30 14068 O 1334.25 -0.186255 -1.81547 0
M  V30 14069 C 1334.3 -3.52504 -0.801456 0
M  V30 14070 O 1334.02 -4.37014 0.30834 0
M  V30 14071 C 1335.52 -4.17692 -1.48487 0
M  V30 14072 H 1332.74 -0.666903 -0.0740351 0
M  V30 14073 H 1335.28 -2.00116 0.421178 0
M  V30 14074 H 1333.44 -3.57036 -1.50347 0
M  V30 14075 H 1333.85 -5.24471 -0.0553891 0
M  V30 14076 H 1335.33 -5.23004 -1.76552 0
M  V30 14077 H 1335.8 -3.66515 -2.41999 0
M  V30 14078 H 1336.41 -4.17193 -0.826428 0
M  V30 14079 N 1334.72 -0.0133892 -1.57594 0
M  V30 14080 C 1336 0.706416 -1.82398 0
M  V30 14081 C 1336.38 1.91236 -0.893983 0
M  V30 14082 O 1335.73 2.28436 0.0541675 0
M  V30 14083 C 1335.94 1.09951 -3.31228 0
M  V30 14084 C 1337.29 1.49776 -3.97306 0
M  V30 14085 O 1338.31 1.19293 -3.3563 0
M  V30 14086 O 1337.17 2.06511 -5.0598 0
M  V30 14087 H 1334.26 0.345131 -0.751541 0
M  V30 14088 H 1336.81 -0.0398687 -1.69653 0
M  V30 14089 H 1335.58 0.240514 -3.9056 0
M  V30 14090 H 1335.21 1.90447 -3.49021 0
M  V30 14091 N 1336.2 1.55448 0.259558 0
M  V30 14092 C 1337.43 1.80465 1.00577 0
M  V30 14093 C 1337.84 0.585001 1.79929 0
M  V30 14094 O 1337.18 -0.455641 1.7796 0
M  V30 14095 C 1337.25 2.98634 2.00146 0
M  V30 14096 C 1336.91 4.35154 1.39607 0
M  V30 14097 C 1337.91 5.13631 0.804923 0
M  V30 14098 C 1335.59 4.81833 1.41923 0
M  V30 14099 C 1337.59 6.36929 0.245007 0
M  V30 14100 C 1335.27 6.05083 0.855458 0
M  V30 14101 C 1336.27 6.82469 0.269359 0
M  V30 14102 O 1335.96 8.03392 -0.285743 0
M  V30 14103 H 1335.69 0.604693 0.302196 0
M  V30 14104 H 1338.24 2.0332 0.291599 0
M  V30 14105 H 1336.47 2.71504 2.75359 0
M  V30 14106 H 1338.16 3.10855 2.61006 0
M  V30 14107 H 1338.93 4.78693 0.779625 0
M  V30 14108 H 1334.81 4.21599 1.86481 0
M  V30 14109 H 1338.35 6.97274 -0.213098 0
M  V30 14110 H 1334.25 6.395 0.878041 0
M  V30 14111 H 1335.02 8.1831 -0.17639 0
M  V30 14112 N 1337.68 -0.524672 1.4861 0
M  V30 14113 C 1338.93 -1.27671 1.5615 0
M  V30 14114 C 1339.24 -1.94088 0.242709 0
M  V30 14115 O 1340.45 -2.70789 0.196407 0
M  V30 14116 C 1338.9 -2.31686 2.75408 0
M  V30 14117 C 1338.51 -1.71315 4.13951 0
M  V30 14118 C 1340.26 -3.07867 2.92264 0
M  V30 14119 C 1338.16 -2.73302 5.24462 0
M  V30 14120 H 1337.09 -0.480177 0.581332 0
M  V30 14121 H 1339.74 -0.553473 1.74954 0
M  V30 14122 H 1338.13 -3.07069 2.50049 0
M  V30 14123 H 1339.3 -1.02085 4.4935 0
M  V30 14124 H 1337.62 -1.07608 4.02255 0
M  V30 14125 H 1340.21 -3.84088 3.71995 0
M  V30 14126 H 1340.56 -3.64052 2.01921 0
M  V30 14127 H 1341.09 -2.39599 3.17549 0
M  V30 14128 H 1337.83 -2.21929 6.16788 0
M  V30 14129 H 1337.35 -3.40843 4.93544 0
M  V30 14130 H 1339.03 -3.36186 5.528 0
M  V30 14131 N 1339.16 -1.37287 -0.77395 0
M  V30 14132 C 1340.4 -1.3257 -1.5347 0
M  V30 14133 C 1340.74 0.090346 -1.9399 0
M  V30 14134 O 1340.01 1.04719 -1.63903 0
M  V30 14135 C 1340.3 -2.26277 -2.80126 0
M  V30 14136 C 1340.15 -3.76651 -2.45874 0
M  V30 14137 C 1341.47 -2.18471 -3.82045 0
M  V30 14138 H 1338.59 -0.48289 -0.556764 0
M  V30 14139 H 1341.23 -1.6797 -0.888039 0
M  V30 14140 H 1339.38 -1.96219 -3.35306 0
M  V30 14141 H 1341.05 -4.17296 -1.96626 0
M  V30 14142 H 1339.29 -3.95327 -1.78602 0
M  V30 14143 H 1339.96 -4.3765 -3.36403 0
M  V30 14144 H 1342.44 -2.44962 -3.36352 0
M  V30 14145 H 1341.32 -2.86183 -4.68392 0
M  V30 14146 H 1341.58 -1.17692 -4.26147 0
M  V30 14147 N 1340.64 0.999871 -1.21821 0
M  V30 14148 C 1342.05 1.5529 -1.03642 0
M  V30 14149 C 1342.4 1.92032 0.402246 0
M  V30 14150 O 1341.52 1.74027 1.28622 0
M  V30 14151 C 1342.12 2.82177 -1.87514 0
M  V30 14152 C 1340.68 3.33949 -1.73653 0
M  V30 14153 C 1339.82 2.07095 -1.84409 0
M  V30 14154 H 1342.78 0.821751 -1.35768 0
M  V30 14155 H 1342.8 3.54264 -1.38842 0
M  V30 14156 H 1342.31 2.55405 -2.92216 0
M  V30 14157 H 1340.41 3.65645 -0.716554 0
M  V30 14158 H 1340.52 4.05022 -2.55918 0
M  V30 14159 H 1338.89 2.20332 -1.27773 0
M  V30 14160 H 1339.67 1.82728 -2.90629 0
M  V30 14161 N 1342.11 1.02678 1.19562 0
M  V30 14162 C 1343.39 0.63674 1.84946 0
M  V30 14163 C 1343.77 -0.884667 1.91669 0
M  V30 14164 O 1343.12 -1.78053 1.43211 0
M  V30 14165 C 1343.33 1.29637 3.2403 0
M  V30 14166 C 1344.68 1.41828 4.00212 0
M  V30 14167 O 1345.7 1.25338 3.3342 0
M  V30 14168 O 1344.56 1.68573 5.19851 0
M  V30 14169 H 1341.65 0.221044 0.796912 0
M  V30 14170 H 1344.2 1.1248 1.27068 0
M  V30 14171 H 1342.97 2.33549 3.1396 0
M  V30 14172 H 1342.6 0.796041 3.8955 0
M  V30 14173 N 1343.59 -1.35528 0.804364 0
M  V30 14174 C 1344.84 -1.98084 0.380196 0
M  V30 14175 C 1345.15 -1.64531 -1.05778 0
M  V30 14176 O 1346.36 -2.20435 -1.58495 0
M  V30 14177 C 1344.82 -3.54364 0.628848 0
M  V30 14178 C 1344.42 -3.96828 2.07921 0
M  V30 14179 C 1346.17 -4.23641 0.269927 0
M  V30 14180 C 1344.08 -5.45944 2.27374 0
M  V30 14181 H 1343.01 -0.741185 0.138422 0
M  V30 14182 H 1345.66 -1.54624 0.988107 0
M  V30 14183 H 1344.04 -3.9597 -0.0489837 0
M  V30 14184 H 1345.21 -3.6638 2.79467 0
M  V30 14185 H 1343.53 -3.40433 2.39779 0
M  V30 14186 H 1346.12 -5.33251 0.393344 0
M  V30 14187 H 1346.47 -4.08858 -0.783644 0
M  V30 14188 H 1347 -3.87448 0.901588 0
M  V30 14189 H 1343.74 -5.65693 3.31168 0
M  V30 14190 H 1343.26 -5.77969 1.6035 0
M  V30 14191 H 1344.94 -6.12376 2.08817 0
M  V30 14192 N 1345.07 -0.557671 -1.47404 0
M  V30 14193 C 1346.32 -0.0337884 -2.02472 0
M  V30 14194 C 1346.65 1.31624 -1.43197 0
M  V30 14195 O 1345.9 1.86989 -0.577366 0
M  V30 14196 C 1346.2 0.108324 -3.57236 0
M  V30 14197 C 1345.87 -1.17088 -4.35432 0
M  V30 14198 C 1344.53 -1.5214 -4.56516 0
M  V30 14199 C 1346.88 -2.01854 -4.80525 0
M  V30 14200 C 1344.21 -2.71803 -5.19942 0
M  V30 14201 C 1346.56 -3.2072 -5.45272 0
M  V30 14202 C 1345.22 -3.56085 -5.64588 0
M  V30 14203 H 1344.49 -0.012364 -0.740897 0
M  V30 14204 H 1347.14 -0.729276 -1.7707 0
M  V30 14205 H 1345.45 0.886781 -3.81633 0
M  V30 14206 H 1347.14 0.529031 -3.97495 0
M  V30 14207 H 1343.73 -0.887952 -4.19301 0
M  V30 14208 H 1347.92 -1.76081 -4.64014 0
M  V30 14209 H 1343.17 -2.99371 -5.33092 0
M  V30 14210 H 1347.35 -3.86689 -5.79176 0
M  V30 14211 H 1344.97 -4.48903 -6.13506 0
M  V30 14212 O 1346.59 1.55498 -0.436189 0
M  V30 14213 H 1347.28 1.93453 0.0978104 0
M  V30 END ATOM
M  V30 BEGIN BOND
M  V30 END BOND
M  V30 END CTAB
M  END
$$$$
