drugbank_target|P19992 3-alpha-(or 20-beta)-hydroxysteroid dehydrogenase (DB02329)
 OpenBabel12092119563D

  0  0  0     0  0            999 V3000
M  V30 BEGIN CTAB
M  V30 COUNTS 3708 3733 0 0 0
M  V30 BEGIN ATOM
M  V30 1 H -0.908 1.98254 -0.117106 0
M  V30 2 N 0 1.576 0 0
M  V30 3 C 0.933 2.03868 1.02534 0
M  V30 4 C 1.911 0.928543 1.3348 0
M  V30 5 O 3.095 1.19667 1.45644 0
M  V30 6 C 0.222 2.43627 2.35294 0
M  V30 7 C -0.732 3.65373 2.2001 0
M  V30 8 S 0.101 5.13292 1.52614 0
M  V30 9 C 1.257 5.56322 2.86805 0
M  V30 10 H 1.49 2.90518 0.631377 0
M  V30 11 H -0.977 1.52953 0.210867 0
M  V30 12 H 0.981 2.67203 3.11629 0
M  V30 13 H -0.358 1.57376 2.7183 0
M  V30 14 H -1.165 3.90944 3.18086 0
M  V30 15 H -1.563 3.418 1.51819 0
M  V30 16 H 0.729 5.58782 3.83104 0
M  V30 17 H 1.672 6.56266 2.65933 0
M  V30 18 H 2.08 4.83886 2.90714 0
M  V30 19 N 1.4781 -0.272755 1.55222 0
M  V30 20 C 2.4261 -1.35705 1.88909 0
M  V30 21 C 3.4201 -1.5112 0.765456 0
M  V30 22 O 4.6261 -1.52901 0.949802 0
M  V30 23 H 1.0011 -0.453868 0.59959 0
M  V30 24 H 2.9721 -1.04544 2.79487 0
M  V30 25 C 1.7211 -2.71049 2.17779 0
M  V30 26 H 1.0441 -2.59979 3.03728 0
M  V30 27 H 2.4841 -3.45858 2.45272 0
M  V30 28 C 0.9431 -3.22165 0.985473 0
M  V30 29 O 1.4731 -4.01096 0.220233 0
M  V30 30 N -0.3209 -2.7985 0.783108 0
M  V30 31 H -0.7739 -2.15775 1.40708 0
M  V30 32 H -0.8159 -3.14397 -0.0130392 0
M  V30 33 N 2.9562 -1.48159 -0.537278 0
M  V30 34 C 4.2332 -1.46291 -1.29839 0
M  V30 35 C 4.6132 -0.170613 -2.10409 0
M  V30 36 O 3.9612 0.847746 -2.12192 0
M  V30 37 C 4.1712 -2.72055 -2.18603 0
M  V30 38 C 5.5192 -3.20087 -2.7898 0
M  V30 39 O 6.5432 -2.72921 -2.28894 0
M  V30 40 O 5.4022 -4.02138 -3.70064 0
M  V30 41 H 2.4962 -0.583906 -0.585647 0
M  V30 42 H 5.0422 -1.60384 -0.554534 0
M  V30 43 H 3.8142 -3.57628 -1.58801 0
M  V30 44 H 3.4372 -2.60646 -3.00249 0
M  V30 45 N 4.4343 0.785586 -1.36625 0
M  V30 46 C 5.3643 1.91259 -1.33949 0
M  V30 47 C 6.3453 1.68795 -0.210325 0
M  V30 48 O 7.5303 1.89854 -0.408561 0
M  V30 49 C 4.6603 3.28339 -1.13186 0
M  V30 50 C 3.6143 3.65335 -2.22967 0
M  V30 51 C 2.9403 5.00806 -1.87342 0
M  V30 52 C 4.2403 3.7352 -3.65075 0
M  V30 53 H 5.9343 1.93755 -2.28253 0
M  V30 54 H 3.4803 0.930788 -1.09874 0
M  V30 55 H 5.4333 4.06804 -1.09948 0
M  V30 56 H 4.1573 3.2624 -0.153332 0
M  V30 57 H 2.8163 2.89169 -2.25337 0
M  V30 58 H 2.4643 4.95233 -0.880545 0
M  V30 59 H 2.1643 5.26529 -2.60846 0
M  V30 60 H 3.6883 5.81687 -1.85667 0
M  V30 61 H 5.1023 4.42168 -3.64911 0
M  V30 62 H 3.4993 4.10731 -4.37516 0
M  V30 63 H 4.5693 2.74527 -3.99703 0
M  V30 64 N 5.9124 1.20967 1.01018 0
M  V30 65 C 7.1374 1.0503 1.78839 0
M  V30 66 C 7.5624 -0.395752 1.8389 0
M  V30 67 O 6.9204 -1.28529 1.27867 0
M  V30 68 C 6.9684 1.64602 3.2084 0
M  V30 69 O 6.0724 0.887988 4.02726 0
M  V30 70 H 5.4134 0.369987 0.551367 0
M  V30 71 H 7.9434 1.60399 1.27018 0
M  V30 72 H 7.9534 1.68607 3.71532 0
M  V30 73 H 6.6284 2.69841 3.16479 0
M  V30 74 H 5.2054 0.922648 3.61305 0
M  V30 75 N 7.3905 -1.2043 1.01659 0
M  V30 76 C 8.6385 -1.89423 0.704522 0
M  V30 77 C 8.9595 -1.79231 -0.768197 0
M  V30 78 O 8.2295 -1.1947 -1.55254 0
M  V30 79 H 6.8095 -0.701178 0.257602 0
M  V30 80 H 9.4715 -1.4626 1.28818 0
M  V30 81 H 8.5675 -2.96052 0.987916 0
M  V30 82 N 8.8686 -0.792821 -1.36206 0
M  V30 83 C 9.8156 -0.191653 -2.30003 0
M  V30 84 C 10.7856 0.666453 -1.52143 0
M  V30 85 O 11.9706 0.61442 -1.80636 0
M  V30 86 C 9.1106 0.664848 -3.38635 0
M  V30 87 C 8.2236 -0.212175 -4.31479 0
M  V30 88 C 7.3586 0.651022 -5.27196 0
M  V30 89 C 6.3976 -0.227247 -6.11678 0
M  V30 90 N 5.5346 0.595127 -6.99573 0
M  V30 91 H 10.3746 -0.996978 -2.80828 0
M  V30 92 H 7.9116 -0.503206 -1.38225 0
M  V30 93 H 9.8696 1.17645 -4.00269 0
M  V30 94 H 8.4996 1.43557 -2.89122 0
M  V30 95 H 7.5516 -0.841777 -3.70969 0
M  V30 96 H 8.8636 -0.888751 -4.90818 0
M  V30 97 H 8.0176 1.2283 -5.94136 0
M  V30 98 H 6.7566 1.36121 -4.68319 0
M  V30 99 H 5.7616 -0.816904 -5.43697 0
M  V30 100 H 6.9866 -0.93509 -6.72631 0
M  V30 101 H 4.9326 1.28955 -6.432 0
M  V30 102 H 4.8496 -0.0236952 -7.55996 0
M  V30 103 H 6.1176 1.15613 -7.70879 0
M  V30 104 N 10.3467 1.47872 -0.545128 0
M  V30 105 C 11.5747 2.06889 -0.021084 0
M  V30 106 C 11.9897 1.39955 1.2672 0
M  V30 107 O 11.3467 0.492036 1.75742 0
M  V30 108 C 11.3977 3.60996 0.190817 0
M  V30 109 O 11.1187 4.25419 -1.04644 0
M  V30 110 C 12.6197 4.36849 0.753521 0
M  V30 111 H 9.8397 0.669785 -0.0403635 0
M  V30 112 H 12.3837 1.90049 -0.755095 0
M  V30 113 H 10.5387 3.77391 0.87492 0
M  V30 114 H 10.9527 5.17785 -0.836611 0
M  V30 115 H 12.4267 5.45399 0.851139 0
M  V30 116 H 12.9037 4.02306 1.762 0
M  V30 117 H 13.5097 4.25169 0.105503 0
M  V30 118 N 11.8248 0.280983 1.55075 0
M  V30 119 C 13.0708 -0.33461 2.00021 0
M  V30 120 C 13.4038 -1.55063 1.16915 0
M  V30 121 O 12.6788 -1.93006 0.240646 0
M  V30 122 C 12.9618 -0.711007 3.53011 0
M  V30 123 C 12.8148 0.512766 4.46868 0
M  V30 124 C 14.1338 -1.54522 4.12081 0
M  V30 125 H 11.2528 -0.120147 0.727141 0
M  V30 126 H 13.8948 0.389097 1.85973 0
M  V30 127 H 12.0448 -1.32761 3.65112 0
M  V30 128 H 13.7168 1.15131 4.46702 0
M  V30 129 H 11.9598 1.14975 4.18286 0
M  V30 130 H 12.6308 0.205556 5.51617 0
M  V30 131 H 15.1068 -1.02442 4.03293 0
M  V30 132 H 13.9828 -1.77739 5.19327 0
M  V30 133 H 14.2438 -2.52813 3.62682 0
M  V30 134 N 13.3029 -1.57598 0.00835791 0
M  V30 135 C 14.5519 -1.90107 -0.673968 0
M  V30 136 C 14.8649 -0.884275 -1.7447 0
M  V30 137 O 16.0709 -1.09987 -2.48224 0
M  V30 138 C 14.5269 -3.37497 -1.24995 0
M  V30 139 C 14.1349 -4.47491 -0.2136 0
M  V30 140 C 15.8789 -3.79104 -1.90999 0
M  V30 141 C 13.7859 -5.85963 -0.80005 0
M  V30 142 H 12.7159 -0.709393 -0.255495 0
M  V30 143 H 15.3669 -1.83365 0.0702693 0
M  V30 144 H 13.7489 -3.39102 -2.04513 0
M  V30 145 H 14.9229 -4.57414 0.557596 0
M  V30 146 H 13.2379 -4.14956 0.346474 0
M  V30 147 H 15.8349 -4.79901 -2.35795 0
M  V30 148 H 16.1779 -3.1306 -2.74407 0
M  V30 149 H 16.7109 -3.79833 -1.18203 0
M  V30 150 H 13.4499 -6.555 -0.00456708 0
M  V30 151 H 12.9699 -5.79687 -1.54021 0
M  V30 152 H 14.6489 -6.33884 -1.29615 0
M  V30 153 N 14.781 0.264519 -1.55364 0
M  V30 154 C 16.03 0.992812 -1.75574 0
M  V30 155 C 16.343 1.87142 -0.568979 0
M  V30 156 O 17.549 2.63513 -0.653682 0
M  V30 157 C 16.005 1.81519 -3.10771 0
M  V30 158 C 15.613 0.984839 -4.37041 0
M  V30 159 C 17.357 2.53727 -3.40327 0
M  V30 160 C 15.264 1.80209 -5.63275 0
M  V30 161 H 14.194 0.374412 -0.65447 0
M  V30 162 H 16.845 0.248138 -1.81815 0
M  V30 163 H 15.227 2.60115 -2.98591 0
M  V30 164 H 16.401 0.242455 -4.60162 0
M  V30 165 H 14.716 0.37691 -4.14691 0
M  V30 166 H 17.313 3.15292 -4.3185 0
M  V30 167 H 17.656 3.24447 -2.60845 0
M  V30 168 H 18.189 1.82156 -3.53644 0
M  V30 169 H 14.928 1.13896 -6.45529 0
M  V30 170 H 14.448 2.52022 -5.44284 0
M  V30 171 H 16.127 2.37364 -6.01887 0
M  V30 172 N 16.2591 1.48442 0.529413 0
M  V30 173 C 17.4871 1.60151 1.30994 0
M  V30 174 C 17.9021 0.261985 1.86973 0
M  V30 175 O 17.2591 -0.748805 1.66431 0
M  V30 176 C 17.3101 2.64854 2.46038 0
M  V30 177 O 17.0311 3.93608 1.92365 0
M  V30 178 C 18.5321 2.87007 3.37849 0
M  V30 179 H 15.7521 0.539971 0.398338 0
M  V30 180 H 18.2961 1.94273 0.638597 0
M  V30 181 H 16.4511 2.33589 3.09055 0
M  V30 182 H 16.8651 4.51055 2.67675 0
M  V30 183 H 18.3391 3.64068 4.14919 0
M  V30 184 H 18.8161 1.95852 3.93114 0
M  V30 185 H 19.4221 3.19579 2.80623 0
M  V30 186 N 17.7372 -0.778329 1.37039 0
M  V30 187 C 18.9852 -1.53361 1.31623 0
M  V30 188 C 19.3062 -1.94739 -0.100831 0
M  V30 189 O 18.5762 -1.65797 -1.04347 0
M  V30 190 H 17.1562 -0.568794 0.484234 0
M  V30 191 H 19.8182 -0.926742 1.71457 0
M  V30 192 H 18.9142 -2.43606 1.95096 0
M  V30 193 N 19.2153 -1.21501 -1.00376 0
M  V30 194 C 20.4633 -1.03095 -1.73827 0
M  V30 195 C 20.7843 0.436341 -1.90055 0
M  V30 196 O 20.0543 1.31466 -1.45236 0
M  V30 197 H 18.6343 -0.378487 -0.644016 0
M  V30 198 H 21.2963 -1.52831 -1.20949 0
M  V30 199 H 20.3923 -1.49991 -2.73695 0
M  V30 200 N 20.6934 1.19889 -1.02296 0
M  V30 201 C 21.6564 2.21116 -0.603351 0
M  V30 202 C 22.6564 1.5738 0.329884 0
M  V30 203 O 23.8464 1.73802 0.117702 0
M  V30 204 C 20.9784 3.40696 0.117992 0
M  V30 205 H 22.1714 2.59754 -1.49893 0
M  V30 206 H 19.7244 1.33463 -0.813468 0
M  V30 207 H 20.4594 3.07569 1.0282 0
M  V30 208 H 20.2444 3.88188 -0.552511 0
M  V30 209 H 21.7344 4.15692 0.398696 0
M  V30 210 N 22.1715 0.800033 1.35784 0
M  V30 211 C 23.5875 0.482977 1.52117 0
M  V30 212 C 23.7875 -0.996948 1.75109 0
M  V30 213 O 22.8435 -1.78216 1.78872 0
M  V30 214 C 24.1565 1.32264 2.70049 0
M  V30 215 C 25.7045 1.31742 2.83924 0
M  V30 216 C 26.1795 2.14106 4.04874 0
M  V30 217 N 27.6705 2.11607 4.12039 0
M  V30 218 C 28.4055 2.72099 5.04727 0
M  V30 219 N 27.9015 3.41492 6.02789 0
M  V30 220 N 29.6945 2.61776 4.97423 0
M  V30 221 H 21.8455 1.75856 1.19115 0
M  V30 222 H 24.1085 0.748122 0.582252 0
M  V30 223 H 23.8145 2.37261 2.59616 0
M  V30 224 H 23.6885 0.971303 3.6448 0
M  V30 225 H 26.0755 0.275333 2.93813 0
M  V30 226 H 26.1565 1.70859 1.9037 0
M  V30 227 H 25.8005 3.18351 3.95746 0
M  V30 228 H 25.7305 1.72353 4.97596 0
M  V30 229 H 28.2215 1.61112 3.41835 0
M  V30 230 H 28.5345 3.84953 6.70098 0
M  V30 231 H 26.8795 3.45596 6.02983 0
M  V30 232 H 30.0705 2.07157 4.19766 0
M  V30 233 H 30.2435 3.0921 5.69468 0
M  V30 234 N 23.6496 -1.47581 0.552962 0
M  V30 235 C 24.8976 -2.02082 0.0272703 0
M  V30 236 C 25.2186 -1.4301 -1.32563 0
M  V30 237 O 24.4886 -0.603745 -1.86365 0
M  V30 238 H 23.0686 -0.746966 0.00709182 0
M  V30 239 H 25.7306 -1.81033 0.722008 0
M  V30 240 H 24.8266 -3.12034 -0.0639951 0
M  V30 241 N 25.1277 -0.289203 -1.54924 0
M  V30 242 C 26.0577 0.58549 -2.2604 0
M  V30 243 C 27.0387 1.14753 -1.25562 0
M  V30 244 O 28.2237 1.17906 -1.54311 0
M  V30 245 C 25.3537 1.76305 -2.99222 0
M  V30 246 C 24.3077 1.33191 -4.06748 0
M  V30 247 C 23.6337 2.5937 -4.6758 0
M  V30 248 C 24.9337 0.471775 -5.20165 0
M  V30 249 H 26.6277 -0.00763532 -2.99399 0
M  V30 250 H 24.1737 -0.00511229 -1.43999 0
M  V30 251 H 26.1267 2.38097 -3.47689 0
M  V30 252 H 24.8507 2.38223 -2.23422 0
M  V30 253 H 23.5097 0.737121 -3.59113 0
M  V30 254 H 23.1577 3.19576 -3.88433 0
M  V30 255 H 22.8577 2.31228 -5.40192 0
M  V30 256 H 24.3817 3.21985 -5.18804 0
M  V30 257 H 25.7957 0.995056 -5.64599 0
M  V30 258 H 24.1927 0.284639 -5.99425 0
M  V30 259 H 25.2627 -0.506041 -4.82252 0
M  V30 260 N 26.6058 1.57591 -0.0167156 0
M  V30 261 C 27.8538 1.90906 0.663285 0
M  V30 262 C 28.1748 0.892509 1.73376 0
M  V30 263 O 27.4448 -0.0677623 1.95783 0
M  V30 264 H 26.0248 0.704637 0.247983 0
M  V30 265 H 28.6868 1.94803 -0.0615909 0
M  V30 266 H 27.7828 2.9116 1.12393 0
M  V30 267 N 28.0839 -0.256276 1.55502 0
M  V30 268 C 29.0469 -1.30047 1.88734 0
M  V30 269 C 30.0469 -1.4154 0.763086 0
M  V30 270 O 31.2369 -1.40403 1.03115 0
M  V30 271 C 28.3689 -2.67953 2.10747 0
M  V30 272 H 29.5619 -1.01802 2.82093 0
M  V30 273 H 27.1149 -0.495134 1.4825 0
M  V30 274 H 27.8499 -3.01351 1.19825 0
M  V30 275 H 27.6349 -2.60993 2.92617 0
M  V30 276 H 29.1249 -3.43368 2.37673 0
M  V30 277 N 29.562 -1.4872 -0.521534 0
M  V30 278 C 30.472 -1.66569 -1.65203 0
M  V30 279 C 31.488 -0.548197 -1.65139 0
M  V30 280 O 32.664 -0.820339 -1.83936 0
M  V30 281 C 29.729 -1.70917 -3.01642 0
M  V30 282 C 28.79 -2.94356 -3.12495 0
M  V30 283 C 28.023 -2.98487 -4.42426 0
M  V30 284 O 28.246 -2.10786 -5.30024 0
M  V30 285 O 27.18 -3.90746 -4.57822 0
M  V30 286 H 31.006 -2.62298 -1.5308 0
M  V30 287 H 28.591 -1.3222 -0.695565 0
M  V30 288 H 30.473 -1.7625 -3.82771 0
M  V30 289 H 29.148 -0.783633 -3.14071 0
M  V30 290 H 28.055 -2.94552 -2.3063 0
M  V30 291 H 29.388 -3.86322 -3.04986 0
M  V30 292 N 31.0401 0.771051 -1.3745 0
M  V30 293 C 32.0031 1.86598 -1.33093 0
M  V30 294 C 33.0031 1.59076 -0.234845 0
M  V30 295 O 34.1931 1.67145 -0.490732 0
M  V30 296 C 31.3251 3.23747 -1.06773 0
M  V30 297 H 32.5181 1.91873 -2.30488 0
M  V30 298 H 30.0711 0.970876 -1.2249 0
M  V30 299 H 30.8061 3.24148 -0.099129 0
M  V30 300 H 30.5911 3.45115 -1.86112 0
M  V30 301 H 32.0811 4.03824 -1.06377 0
M  V30 302 N 32.5182 1.22032 0.997298 0
M  V30 303 C 33.4812 0.987909 2.06816 0
M  V30 304 C 34.4812 -0.0440084 1.6074 0
M  V30 305 O 35.6712 0.194053 1.73116 0
M  V30 306 C 32.8032 0.49132 3.37341 0
M  V30 307 H 33.9962 1.93803 2.28868 0
M  V30 308 H 31.5492 1.03838 1.16822 0
M  V30 309 H 32.2842 -0.463364 3.20973 0
M  V30 310 H 32.0692 1.23575 3.72118 0
M  V30 311 H 33.5592 0.348824 4.16141 0
M  V30 312 N 33.9963 -1.19345 1.0293 0
M  V30 313 C 35.4123 -1.41069 0.746446 0
M  V30 314 C 35.6123 -1.90078 -0.668776 0
M  V30 315 O 34.6683 -2.0778 -1.4347 0
M  V30 316 C 35.9813 -2.42141 1.78292 0
M  V30 317 C 37.5293 -2.55887 1.80252 0
M  V30 318 C 38.0043 -3.60214 2.8286 0
M  V30 319 N 39.4953 -3.67711 2.81679 0
M  V30 320 C 40.2303 -4.48128 3.57727 0
M  V30 321 N 39.7263 -5.32248 4.43491 0
M  V30 322 N 41.5193 -4.42782 3.46267 0
M  V30 323 H 33.6703 -0.858536 1.94275 0
M  V30 324 H 35.9333 -0.439541 0.839945 0
M  V30 325 H 35.6393 -2.13155 2.79746 0
M  V30 326 H 35.5133 -3.41323 1.60557 0
M  V30 327 H 37.9003 -2.84196 0.794757 0
M  V30 328 H 37.9813 -1.56858 2.02062 0
M  V30 329 H 37.6253 -3.32647 3.83807 0
M  V30 330 H 37.5553 -4.58895 2.58307 0
M  V30 331 H 40.0463 -3.07634 2.19476 0
M  V30 332 H 40.3593 -5.90729 4.98256 0
M  V30 333 H 38.7043 -5.31707 4.47564 0
M  V30 334 H 41.8953 -3.76107 2.78677 0
M  V30 335 H 42.0683 -5.05215 4.05785 0
M  V30 336 N 35.4744 -0.807222 -1.35358 0
M  V30 337 C 36.4064 -0.175717 -2.28525 0
M  V30 338 C 37.4194 0.625354 -1.5031 0
M  V30 339 O 38.6084 0.457611 -1.72535 0
M  V30 340 C 35.7084 0.773471 -3.29956 0
M  V30 341 C 34.8814 0.0186296 -4.37396 0
M  V30 342 C 33.9404 0.886395 -5.18681 0
M  V30 343 O 32.9664 0.337106 -5.68201 0
M  V30 344 N 34.1684 2.20839 -5.36852 0
M  V30 345 H 36.9334 -0.976091 -2.83359 0
M  V30 346 H 34.4944 -0.662737 -1.47714 0
M  V30 347 H 36.4864 1.35824 -3.81227 0
M  V30 348 H 35.0564 1.47465 -2.75632 0
M  V30 349 H 34.2764 -0.747349 -3.87051 0
M  V30 350 H 35.5644 -0.501577 -5.06322 0
M  V30 351 H 34.9624 2.67858 -4.98265 0
M  V30 352 H 33.5194 2.74237 -5.91301 0
M  V30 353 N 36.9525 1.47285 -0.560781 0
M  V30 354 C 37.9155 2.28535 0.174488 0
M  V30 355 C 38.9155 1.37153 0.839388 0
M  V30 356 O 40.1055 1.59748 0.694702 0
M  V30 357 C 37.2375 3.16934 1.25561 0
M  V30 358 H 38.4305 2.95012 -0.539262 0
M  V30 359 H 35.9835 1.53034 -0.317865 0
M  V30 360 H 36.7185 2.55157 2.00164 0
M  V30 361 H 36.5035 3.8419 0.783604 0
M  V30 362 H 37.9935 3.78143 1.77193 0
M  V30 363 N 38.4306 0.297415 1.54768 0
M  V30 364 C 39.6766 -0.313376 2.00364 0
M  V30 365 C 40.0096 -1.53815 1.18553 0
M  V30 366 O 39.2846 -1.92739 0.261103 0
M  V30 367 C 39.5676 -0.673525 3.53745 0
M  V30 368 C 39.4206 0.560133 4.46299 0
M  V30 369 C 40.7396 -1.50143 4.13697 0
M  V30 370 H 37.8586 -0.112428 0.728374 0
M  V30 371 H 40.5006 0.4088 1.8555 0
M  V30 372 H 38.6506 -1.28881 3.665 0
M  V30 373 H 40.3226 1.19863 4.45455 0
M  V30 374 H 38.5656 1.19405 4.17043 0
M  V30 375 H 39.2366 0.26405 5.51368 0
M  V30 376 H 41.7126 -0.981588 4.04356 0
M  V30 377 H 40.5886 -1.72221 5.21182 0
M  V30 378 H 40.8496 -2.48952 3.65343 0
M  V30 379 N 39.9087 -1.5758 0.0250728 0
M  V30 380 C 40.8717 -2.08896 -0.943139 0
M  V30 381 C 41.8717 -1.00321 -1.25668 0
M  V30 382 O 43.0617 -1.26495 -1.19769 0
M  V30 383 C 40.1937 -2.55143 -2.26086 0
M  V30 384 H 41.3867 -2.95723 -0.498775 0
M  V30 385 H 38.9397 -1.54703 -0.222888 0
M  V30 386 H 39.6747 -1.71633 -2.75159 0
M  V30 387 H 39.4597 -3.34461 -2.04641 0
M  V30 388 H 40.9497 -2.95083 -2.95492 0
M  V30 389 N 41.3868 0.248026 -1.55636 0
M  V30 390 C 42.3498 1.29044 -1.89421 0
M  V30 391 C 43.3498 1.41134 -0.770581 0
M  V30 392 O 44.5398 1.39854 -1.03858 0
M  V30 393 C 41.6718 2.66831 -2.12165 0
M  V30 394 H 42.8648 1.00305 -2.82629 0
M  V30 395 H 40.4178 0.487265 -1.48511 0
M  V30 396 H 41.1528 3.00711 -1.21422 0
M  V30 397 H 40.9378 2.59438 -2.93997 0
M  V30 398 H 42.4278 3.42103 -2.3949 0
M  V30 399 N 42.8649 1.48995 0.513639 0
M  V30 400 C 44.1129 1.57531 1.26604 0
M  V30 401 C 44.4339 0.258236 1.93283 0
M  V30 402 O 43.7039 -0.721502 1.8213 0
M  V30 403 H 42.2839 0.580387 0.470276 0
M  V30 404 H 44.9459 1.85552 0.596373 0
M  V30 405 H 44.0419 2.36486 2.03669 0
M  V30 406 N 44.343 -0.763751 1.37857 0
M  V30 407 C 45.306 -1.85889 1.34081 0
M  V30 408 C 46.306 -1.58949 0.243277 0
M  V30 409 O 47.496 -1.66882 0.499589 0
M  V30 410 C 44.628 -3.23176 1.08489 0
M  V30 411 H 45.821 -1.90648 2.31502 0
M  V30 412 H 43.374 -0.964367 1.23003 0
M  V30 413 H 44.109 -3.24091 0.116318 0
M  V30 414 H 43.894 -3.44124 1.8794 0
M  V30 415 H 45.384 -4.03254 1.08517 0
M  V30 416 N 45.8211 -1.22559 -0.990812 0
M  V30 417 C 47.2371 -0.985996 -1.255 0
M  V30 418 C 47.4371 0.319173 -1.98956 0
M  V30 419 O 46.4931 1.04127 -2.3003 0
M  V30 420 C 47.8061 -2.18607 -2.06474 0
M  V30 421 C 49.3541 -2.22985 -2.19651 0
M  V30 422 C 49.8291 -3.4255 -3.04012 0
M  V30 423 N 51.3201 -3.42725 -3.11599 0
M  V30 424 C 52.0551 -4.31892 -3.7717 0
M  V30 425 N 51.5511 -5.31279 -4.44651 0
M  V30 426 N 53.3441 -4.19662 -3.73952 0
M  V30 427 H 45.4951 -2.06469 -0.49841 0
M  V30 428 H 47.7581 -0.904853 -0.282747 0
M  V30 429 H 47.4641 -3.13267 -1.59865 0
M  V30 430 H 47.3381 -2.18838 -3.07229 0
M  V30 431 H 49.7251 -1.28871 -2.65474 0
M  V30 432 H 49.8061 -2.26791 -1.18319 0
M  V30 433 H 49.4501 -4.36965 -2.58889 0
M  V30 434 H 49.3801 -3.35984 -4.0549 0
M  V30 435 H 51.8711 -2.70807 -2.63575 0
M  V30 436 H 52.1841 -5.95593 -4.92431 0
M  V30 437 H 50.5291 -5.3519 -4.43392 0
M  V30 438 H 53.7201 -3.41268 -3.20396 0
M  V30 439 H 53.8931 -4.89358 -4.24774 0
M  V30 440 N 47.2992 1.18797 -1.03562 0
M  V30 441 C 48.5452 1.8893 -0.737113 0
M  V30 442 C 48.8782 1.79837 0.732956 0
M  V30 443 O 48.1532 1.19525 1.5344 0
M  V30 444 C 48.4362 3.39607 -1.19745 0
M  V30 445 C 48.2892 3.57537 -2.72924 0
M  V30 446 C 49.6082 4.33069 -0.783526 0
M  V30 447 H 46.7272 0.686057 -0.269249 0
M  V30 448 H 49.3692 1.39797 -1.28673 0
M  V30 449 H 47.5192 3.81583 -0.729855 0
M  V30 450 H 49.1912 3.24688 -3.27682 0
M  V30 451 H 47.4342 3.00363 -3.12993 0
M  V30 452 H 48.1052 4.63238 -3.00191 0
M  V30 453 H 50.5812 3.98846 -1.18581 0
M  V30 454 H 49.4572 5.3707 -1.13343 0
M  V30 455 H 49.7182 4.40986 0.313681 0
M  V30 456 N 48.7773 0.814389 1.34928 0
M  V30 457 C 50.0233 0.399013 1.98836 0
M  V30 458 C 50.3563 -1.03314 1.64438 0
M  V30 459 O 49.6313 -1.71811 0.911659 0
M  V30 460 C 49.9143 0.591629 3.55207 0
M  V30 461 C 49.7673 2.06928 3.99376 0
M  V30 462 C 51.0863 0.022199 4.40094 0
M  V30 463 H 48.2053 0.146451 0.722303 0
M  V30 464 H 50.8473 1.02537 1.59957 0
M  V30 465 H 48.9973 0.0584441 3.88456 0
M  V30 466 H 50.6693 2.66544 3.76499 0
M  V30 467 H 48.9123 2.56287 3.49999 0
M  V30 468 H 49.5833 2.1549 5.08201 0
M  V30 469 H 52.0593 0.477643 4.13349 0
M  V30 470 H 50.9353 0.186832 5.48582 0
M  V30 471 H 51.1963 -1.07215 4.28902 0
M  V30 472 N 50.2554 -1.46986 0.568584 0
M  V30 473 C 51.1854 -2.32946 -0.160753 0
M  V30 474 C 52.1664 -1.44487 -0.897631 0
M  V30 475 O 53.3514 -1.73327 -0.875867 0
M  V30 476 C 50.4814 -3.26494 -1.18403 0
M  V30 477 C 49.4354 -4.24282 -0.562895 0
M  V30 478 C 48.7614 -5.07236 -1.69163 0
M  V30 479 C 50.0614 -5.19989 0.490761 0
M  V30 480 H 51.7554 -2.94175 0.556916 0
M  V30 481 H 49.3014 -1.4146 0.26927 0
M  V30 482 H 51.2544 -3.85477 -1.70251 0
M  V30 483 H 49.9784 -2.63343 -1.93179 0
M  V30 484 H 48.6374 -3.66541 -0.0656164 0
M  V30 485 H 48.2854 -4.4048 -2.42871 0
M  V30 486 H 47.9854 -5.7345 -1.28174 0
M  V30 487 H 49.5094 -5.6908 -2.21314 0
M  V30 488 H 50.9234 -5.73271 0.0579047 0
M  V30 489 H 49.3204 -5.94469 0.820165 0
M  V30 490 H 50.3904 -4.64777 1.3824 0
M  V30 491 N 51.7335 -0.305618 -1.54608 0
M  V30 492 C 52.6965 0.555591 -2.22364 0
M  V30 493 C 53.6965 1.05768 -1.21119 0
M  V30 494 O 54.8865 0.952972 -1.45822 0
M  V30 495 C 52.0185 1.76974 -2.91364 0
M  V30 496 H 53.2115 -0.0364572 -2.99878 0
M  V30 497 H 50.7645 -0.0565007 -1.56198 0
M  V30 498 H 51.4995 2.40151 -2.17941 0
M  V30 499 H 51.2845 1.41732 -3.65588 0
M  V30 500 H 52.7745 2.38148 -3.43038 0
M  V30 501 N 53.2116 1.57565 -0.0334293 0
M  V30 502 C 54.4886 1.83282 0.683163 0
M  V30 503 C 54.8686 0.91823 1.90084 0
M  V30 504 O 54.2166 -0.025113 2.28486 0
M  V30 505 C 54.4266 3.32599 1.0573 0
M  V30 506 C 55.7746 3.99179 1.44711 0
M  V30 507 O 56.7986 3.3712 1.15015 0
M  V30 508 O 55.6576 5.08565 2.0006 0
M  V30 509 H 52.7516 0.755869 0.335546 0
M  V30 510 H 55.2976 1.69589 -0.0614402 0
M  V30 511 H 54.0696 3.90834 0.190828 0
M  V30 512 H 53.6926 3.51415 1.85993 0
M  V30 513 N 54.6897 -0.239769 1.55765 0
M  V30 514 C 55.9357 -0.968234 1.78194 0
M  V30 515 C 56.2687 -1.84701 0.599938 0
M  V30 516 O 55.5437 -1.9031 -0.401524 0
M  V30 517 C 55.8267 -1.8227 3.10564 0
M  V30 518 C 55.6797 -0.971633 4.3918 0
M  V30 519 C 56.9987 -2.80388 3.39221 0
M  V30 520 H 54.1177 -0.350572 0.648281 0
M  V30 521 H 56.7597 -0.238259 1.885 0
M  V30 522 H 54.9097 -2.44507 3.01908 0
M  V30 523 H 56.5817 -0.367408 4.59835 0
M  V30 524 H 54.8247 -0.276276 4.32919 0
M  V30 525 H 55.4957 -1.60346 5.28198 0
M  V30 526 H 57.9717 -2.28287 3.47885 0
M  V30 527 H 56.8477 -3.3729 4.33044 0
M  V30 528 H 57.1087 -3.57212 2.60484 0
M  V30 529 N 56.1678 -1.49265 -0.50573 0
M  V30 530 C 57.0978 -1.68495 -1.61653 0
M  V30 531 C 58.0788 -0.53366 -1.61512 0
M  V30 532 O 59.2638 -0.76897 -1.78327 0
M  V30 533 C 56.3938 -1.74709 -3.00157 0
M  V30 534 C 55.3478 -2.89581 -3.15162 0
M  V30 535 C 54.6738 -2.80903 -4.5497 0
M  V30 536 C 55.9738 -4.30578 -2.95634 0
M  V30 537 H 57.6678 -2.61493 -1.45814 0
M  V30 538 H 55.2138 -1.25838 -0.70005 0
M  V30 539 H 57.1668 -1.86748 -3.77761 0
M  V30 540 H 55.8908 -0.783067 -3.17074 0
M  V30 541 H 54.5498 -2.77136 -2.39982 0
M  V30 542 H 54.1978 -1.82419 -4.68756 0
M  V30 543 H 53.8978 -3.57999 -4.65951 0
M  V30 544 H 55.4218 -2.94944 -5.34641 0
M  V30 545 H 56.8358 -4.4373 -3.63011 0
M  V30 546 H 55.2328 -5.0886 -3.18091 0
M  V30 547 H 56.3028 -4.45352 -1.91806 0
M  V30 548 N 57.6459 0.756429 -1.3826 0
M  V30 549 C 58.9229 1.50584 -1.24835 0
M  V30 550 C 59.3029 2.10556 0.151485 0
M  V30 551 O 58.6509 1.96825 1.1607 0
M  V30 552 C 58.8609 2.57448 -2.3563 0
M  V30 553 C 60.2089 3.24429 -2.73917 0
M  V30 554 O 61.2329 2.67751 -2.34921 0
M  V30 555 O 60.0919 4.26937 -3.41156 0
M  V30 556 H 57.1859 0.667664 -0.48801 0
M  V30 557 H 59.7319 0.792083 -1.5008 0
M  V30 558 H 58.5039 2.11362 -3.29305 0
M  V30 559 H 58.1269 3.36408 -2.11933 0
M  V30 560 N 59.124 1.23083 0.984299 0
M  V30 561 C 60.034 1.02515 2.11016 0
M  V30 562 C 61.05 -0.0291702 1.73976 0
M  V30 563 O 62.226 0.165434 2.00719 0
M  V30 564 C 59.291 0.614673 3.41208 0
M  V30 565 C 58.352 1.74359 3.92297 0
M  V30 566 C 57.585 1.35261 5.16275 0
M  V30 567 O 57.808 0.235136 5.69915 0
M  V30 568 O 56.742 2.17227 5.61334 0
M  V30 569 H 60.568 1.96862 2.31255 0
M  V30 570 H 58.153 1.01753 1.09392 0
M  V30 571 H 60.035 0.396518 4.1953 0
M  V30 572 H 58.71 -0.299851 3.22308 0
M  V30 573 H 57.617 2.01635 3.1511 0
M  V30 574 H 58.95 2.63629 4.15645 0
M  V30 575 N 60.6021 -1.18246 1.0419 0
M  V30 576 C 61.5121 -2.25574 0.644476 0
M  V30 577 C 62.5281 -1.70845 -0.329826 0
M  V30 578 O 63.7041 -2.00554 -0.184443 0
M  V30 579 C 60.7691 -3.46697 0.014877 0
M  V30 580 C 59.8301 -4.16554 1.03834 0
M  V30 581 C 59.0631 -5.31894 0.438692 0
M  V30 582 O 59.2861 -5.65385 -0.754752 0
M  V30 583 O 58.2201 -5.90459 1.168 0
M  V30 584 H 62.0461 -2.61836 1.53869 0
M  V30 585 H 59.6311 -1.25352 0.812854 0
M  V30 586 H 61.5131 -4.20062 -0.335538 0
M  V30 587 H 60.1881 -3.12255 -0.853138 0
M  V30 588 H 59.0951 -3.45251 1.44057 0
M  V30 589 H 60.4281 -4.54998 1.87716 0
M  V30 590 N 62.0802 -0.821533 -1.34494 0
M  V30 591 C 63.3282 -0.408139 -1.97936 0
M  V30 592 C 63.6492 1.03193 -1.65457 0
M  V30 593 O 62.9192 1.71622 -0.944595 0
M  V30 594 H 61.4992 -0.147928 -0.732206 0
M  V30 595 H 64.1612 -1.05067 -1.64155 0
M  V30 596 H 63.2572 -0.52601 -3.07635 0
M  V30 597 N 63.5583 1.46682 -0.576371 0
M  V30 598 C 64.5213 2.28707 0.150239 0
M  V30 599 C 65.5213 1.38035 0.824794 0
M  V30 600 O 66.7113 1.60476 0.677719 0
M  V30 601 C 63.8433 3.18248 1.22192 0
M  V30 602 H 65.0363 2.94423 -0.570521 0
M  V30 603 H 62.5893 1.52688 -0.334078 0
M  V30 604 H 63.3243 2.57265 1.97447 0
M  V30 605 H 63.1093 3.85 0.742812 0
M  V30 606 H 64.5993 3.80001 1.73172 0
M  V30 607 N 65.0364 0.313813 1.54444 0
M  V30 608 C 65.9994 -0.54379 2.22656 0
M  V30 609 C 66.9994 -1.05124 1.21678 0
M  V30 610 O 68.1894 -0.945225 1.46325 0
M  V30 611 C 65.3214 -1.75427 2.92298 0
M  V30 612 H 66.5144 0.0523599 2.99854 0
M  V30 613 H 64.0674 0.0647834 1.56166 0
M  V30 614 H 64.8024 -2.38991 2.19211 0
M  V30 615 H 64.5874 -1.39791 3.66334 0
M  V30 616 H 66.0774 -2.36325 3.44297 0
M  V30 617 N 66.5145 -1.57545 0.0417849 0
M  V30 618 C 67.7425 -1.96624 -0.643928 0
M  V30 619 C 68.1575 -0.918897 -1.64929 0
M  V30 620 O 67.5145 0.0979323 -1.82237 0
M  V30 621 C 67.5655 -3.35781 -1.33914 0
M  V30 622 O 67.2865 -4.365 -0.374048 0
M  V30 623 C 68.7875 -3.89566 -2.1155 0
M  V30 624 H 66.0075 -0.647316 -0.176702 0
M  V30 625 H 68.5515 -2.04229 0.105304 0
M  V30 626 H 66.7065 -3.29357 -2.03968 0
M  V30 627 H 67.1205 -5.17248 -0.869179 0
M  V30 628 H 68.5945 -4.89242 -2.55628 0
M  V30 629 H 69.0715 -3.24488 -2.9598 0
M  V30 630 H 69.6775 -3.99298 -1.46427 0
M  V30 631 N 67.9926 0.231505 -1.5589 0
M  V30 632 C 68.9556 1.27028 -1.90779 0
M  V30 633 C 69.9556 1.40308 -0.785507 0
M  V30 634 O 71.1456 1.38744 -1.05336 0
M  V30 635 C 68.2776 2.64566 -2.14983 0
M  V30 636 H 69.4706 0.973017 -2.83677 0
M  V30 637 H 67.0236 0.471486 -1.49019 0
M  V30 638 H 67.7586 2.99406 -1.24604 0
M  V30 639 H 67.5436 2.56305 -2.96732 0
M  V30 640 H 69.0336 3.39543 -2.43105 0
M  V30 641 N 69.4707 1.49531 0.497807 0
M  V30 642 C 70.8867 1.36365 0.829266 0
M  V30 643 C 71.0867 0.399184 1.97506 0
M  V30 644 O 70.1427 -0.167977 2.51941 0
M  V30 645 C 71.4557 2.77153 1.16647 0
M  V30 646 C 73.0037 2.85877 1.27449 0
M  V30 647 C 73.4787 4.2744 1.64497 0
M  V30 648 N 74.9697 4.30265 1.7154 0
M  V30 649 C 75.7047 5.3677 2.01656 0
M  V30 650 N 75.2007 6.53516 2.29976 0
M  V30 651 N 76.9937 5.24189 2.02934 0
M  V30 652 H 69.1447 2.10831 -0.257703 0
M  V30 653 H 71.4077 0.946534 -0.0527091 0
M  V30 654 H 71.1137 3.49442 0.397872 0
M  V30 655 H 70.9877 3.12722 2.10915 0
M  V30 656 H 73.3747 2.13824 2.0338 0
M  V30 657 H 73.4557 2.53887 0.312244 0
M  V30 658 H 73.0997 5.00021 0.891151 0
M  V30 659 H 73.0297 4.56896 2.61827 0
M  V30 660 H 75.5207 3.4607 1.51802 0
M  V30 661 H 75.8337 7.30506 2.52153 0
M  V30 662 H 74.1787 6.56737 2.27425 0
M  V30 663 H 77.3697 4.31988 1.80289 0
M  V30 664 H 77.5427 6.07286 2.26071 0
M  V30 665 N 70.9488 -0.749086 1.3866 0
M  V30 666 C 71.8588 -1.89358 1.38494 0
M  V30 667 C 72.8748 -1.71708 0.281476 0
M  V30 668 O 74.0508 -1.94554 0.520643 0
M  V30 669 C 71.1158 -3.24782 1.21316 0
M  V30 670 C 70.1768 -3.54926 2.41508 0
M  V30 671 C 69.4098 -4.83888 2.2514 0
M  V30 672 O 69.6328 -5.56592 1.24746 0
M  V30 673 O 68.5668 -5.13612 3.13826 0
M  V30 674 H 72.3928 -1.92452 2.34938 0
M  V30 675 H 69.9778 -0.894981 1.19626 0
M  V30 676 H 71.8598 -4.05739 1.13814 0
M  V30 677 H 70.5348 -3.2249 0.279592 0
M  V30 678 H 69.4418 -2.74112 2.54585 0
M  V30 679 H 70.7748 -3.61983 3.3351 0
M  V30 680 N 72.4269 -1.23603 -0.977757 0
M  V30 681 C 73.3569 -1.04401 -2.0886 0
M  V30 682 C 74.3379 0.0399052 -1.70053 0
M  V30 683 O 75.5229 -0.125246 -1.93796 0
M  V30 684 C 72.6529 -0.637269 -3.41403 0
M  V30 685 C 71.6069 -1.66883 -3.94124 0
M  V30 686 C 70.9329 -1.11745 -5.22893 0
M  V30 687 C 72.2329 -3.06247 -4.23096 0
M  V30 688 H 73.9269 -1.97316 -2.25182 0
M  V30 689 H 71.4729 -0.950096 -1.08209 0
M  V30 690 H 73.4259 -0.48998 -4.18542 0
M  V30 691 H 72.1499 0.327557 -3.24953 0
M  V30 692 H 70.8089 -1.80416 -3.19133 0
M  V30 693 H 70.4569 -0.143527 -5.02795 0
M  V30 694 H 70.1569 -1.80672 -5.59134 0
M  V30 695 H 71.6809 -0.982067 -6.02651 0
M  V30 696 H 73.0949 -2.96001 -4.90975 0
M  V30 697 H 71.4919 -3.72436 -4.70544 0
M  V30 698 H 72.5619 -3.55041 -3.30263 0
M  V30 699 N 73.905 1.17692 -1.04816 0
M  V30 700 C 75.153 1.87488 -0.754497 0
M  V30 701 C 75.474 1.81205 0.720407 0
M  V30 702 O 74.744 1.23544 1.52032 0
M  V30 703 H 73.324 0.694101 -0.276102 0
M  V30 704 H 75.986 1.42793 -1.32651 0
M  V30 705 H 75.082 2.93328 -1.06606 0
M  V30 706 N 75.3831 0.828654 1.34056 0
M  V30 707 C 76.6601 0.341809 1.9259 0
M  V30 708 C 77.0401 -1.17158 1.75605 0
M  V30 709 O 76.3881 -1.98132 1.13824 0
M  V30 710 C 76.5981 0.777453 3.4023 0
M  V30 711 C 77.9461 0.779579 4.17382 0
M  V30 712 O 78.9701 0.7204 3.48839 0
M  V30 713 O 77.8291 0.857996 5.39723 0
M  V30 714 H 74.9231 0.0946085 0.821571 0
M  V30 715 H 77.4691 0.913827 1.42994 0
M  V30 716 H 76.2411 1.8196 3.46419 0
M  V30 717 H 75.8641 0.181444 3.97186 0
M  V30 718 N 76.8612 -1.46375 0.584142 0
M  V30 719 C 77.8242 -2.28784 -0.138108 0
M  V30 720 C 78.8242 -1.38471 -0.817462 0
M  V30 721 O 80.0142 -1.60833 -0.669199 0
M  V30 722 C 77.1462 -3.18892 -1.20503 0
M  V30 723 H 78.3392 -2.94117 0.586127 0
M  V30 724 H 75.8922 -1.52509 0.342171 0
M  V30 725 H 76.6272 -2.58309 -1.96079 0
M  V30 726 H 76.4122 -3.85388 -0.722384 0
M  V30 727 H 77.9022 -3.80914 -1.71155 0
M  V30 728 N 78.3393 -0.321999 -1.54275 0
M  V30 729 C 79.3023 0.531975 -2.22941 0
M  V30 730 C 80.3023 1.04478 -1.22234 0
M  V30 731 O 81.4923 0.937452 -1.46825 0
M  V30 732 C 78.6243 1.73874 -2.93224 0
M  V30 733 H 79.8173 -0.0682612 -2.99822 0
M  V30 734 H 77.3703 -0.0730644 -1.56129 0
M  V30 735 H 78.1053 2.37825 -2.20476 0
M  V30 736 H 77.8903 1.37847 -3.6707 0
M  V30 737 H 79.3803 2.34496 -3.45545 0
M  V30 738 N 79.8174 1.5752 -0.0501392 0
M  V30 739 C 81.2334 1.56631 0.306402 0
M  V30 740 C 81.4334 1.0577 1.71508 0
M  V30 741 O 80.4894 0.713837 2.422 0
M  V30 742 C 81.8024 3.00393 0.135811 0
M  V30 743 C 83.3504 3.12315 0.206993 0
M  V30 744 C 83.8254 4.57954 0.064944 0
M  V30 745 N 85.3164 4.63041 0.121254 0
M  V30 746 C 86.0514 5.73389 0.0354381 0
M  V30 747 N 85.5474 6.92724 -0.102666 0
M  V30 748 N 87.3404 5.62026 0.090946 0
M  V30 749 H 79.4914 1.88903 -0.971046 0
M  V30 750 H 81.7544 0.869876 -0.376855 0
M  V30 751 H 81.4604 3.41635 -0.835384 0
M  V30 752 H 81.3344 3.66373 0.897275 0
M  V30 753 H 83.7214 2.70973 1.16866 0
M  V30 754 H 83.8024 2.49016 -0.585208 0
M  V30 755 H 83.4464 4.99981 -0.893394 0
M  V30 756 H 83.3764 5.19258 0.876277 0
M  V30 757 H 85.8674 3.77216 0.227284 0
M  V30 758 H 86.1804 7.72633 -0.160882 0
M  V30 759 H 84.5254 6.94864 -0.137737 0
M  V30 760 H 87.7164 4.67684 0.197388 0
M  V30 761 H 87.8894 6.47997 0.0206089 0
M  V30 762 N 81.2955 -0.223234 1.56011 0
M  V30 763 C 82.5255 -0.963413 1.82762 0
M  V30 764 C 82.9335 -1.78516 0.626804 0
M  V30 765 O 82.2765 -1.78974 -0.414014 0
M  V30 766 C 82.3385 -1.93126 3.0322 0
M  V30 767 C 82.0025 -1.2942 4.38291 0
M  V30 768 C 82.9995 -0.684916 5.15369 0
M  V30 769 C 80.6845 -1.30647 4.85012 0
M  V30 770 C 82.6785 -0.0963971 6.37327 0
M  V30 771 C 80.3655 -0.71411 6.06913 0
M  V30 772 C 81.3635 -0.110123 6.82911 0
M  V30 773 O 81.0515 0.47303 8.02507 0
M  V30 774 H 80.7835 -0.288011 0.611576 0
M  V30 775 H 83.3375 -0.244103 2.03944 0
M  V30 776 H 81.5675 -2.68952 2.77852 0
M  V30 777 H 83.2565 -2.53685 3.16857 0
M  V30 778 H 84.0225 -0.667774 4.80381 0
M  V30 779 H 79.9015 -1.76598 4.25833 0
M  V30 780 H 83.4455 0.375657 6.96588 0
M  V30 781 H 79.3425 -0.728659 6.41374 0
M  V30 782 H 80.1105 0.367186 8.17676 0
M  V30 783 N 82.7736 -1.49793 -0.48987 0
M  V30 784 C 83.7056 -1.63413 -1.60713 0
M  V30 785 C 84.7186 -0.516329 -1.54395 0
M  V30 786 O 85.9076 -0.788812 -1.60125 0
M  V30 787 C 83.0076 -1.58516 -2.99543 0
M  V30 788 C 82.1806 -2.86016 -3.30928 0
M  V30 789 C 81.2396 -2.74018 -4.49222 0
M  V30 790 O 80.2656 -3.47964 -4.50455 0
M  V30 791 N 81.4676 -1.86309 -5.4979 0
M  V30 792 H 84.2326 -2.59777 -1.49452 0
M  V30 793 H 81.7936 -1.47022 -0.677955 0
M  V30 794 H 83.7856 -1.48128 -3.76617 0
M  V30 795 H 82.3556 -0.69965 -3.0467 0
M  V30 796 H 81.5756 -3.10672 -2.42645 0
M  V30 797 H 82.8636 -3.70521 -3.487 0
M  V30 798 H 82.2616 -1.2551 -5.51601 0
M  V30 799 H 80.8186 -1.81837 -6.25922 0
M  V30 800 N 84.2517 0.741722 -1.39055 0
M  V30 801 C 85.2017 1.84661 -1.33732 0
M  V30 802 C 86.1857 1.59397 -0.219401 0
M  V30 803 O 87.3777 1.71015 -0.456375 0
M  V30 804 C 84.5067 3.22512 -1.17647 0
M  V30 805 C 83.5927 3.53628 -2.34112 0
M  V30 806 N 83.9837 3.55723 -3.59576 0
M  V30 807 C 82.2817 3.83956 -2.26923 0
M  V30 808 C 82.9827 3.84443 -4.36553 0
M  V30 809 N 81.9587 4.01877 -3.66055 0
M  V30 810 H 85.7607 1.84576 -2.28711 0
M  V30 811 H 83.2747 0.939647 -1.32455 0
M  V30 812 H 85.2717 4.01597 -1.11917 0
M  V30 813 H 83.9317 3.2384 -0.236124 0
M  V30 814 H 84.9427 3.37196 -3.93089 0
M  V30 815 H 81.6197 3.92929 -1.41113 0
M  V30 816 H 83.0097 3.92588 -5.45274 0
M  V30 817 N 85.7298 1.2412 0.971189 0
M  V30 818 C 86.6598 1.05508 2.08304 0
M  V30 819 C 87.6408 -0.0308864 1.70072 0
M  V30 820 O 88.8258 0.135521 1.93727 0
M  V30 821 C 85.9558 0.655365 3.4106 0
M  V30 822 C 84.9098 1.68971 3.93234 0
M  V30 823 C 84.2358 1.14516 5.22293 0
M  V30 824 C 85.5358 3.08487 4.21465 0
M  V30 825 H 87.2298 1.98507 2.24132 0
M  V30 826 H 84.7758 0.955821 1.07704 0
M  V30 827 H 86.7288 0.51217 4.18276 0
M  V30 828 H 85.4528 -0.31032 3.25122 0
M  V30 829 H 84.1118 1.82106 3.18171 0
M  V30 830 H 83.7598 0.170189 5.02712 0
M  V30 831 H 83.4598 1.83635 5.58168 0
M  V30 832 H 84.9838 1.01401 6.02121 0
M  V30 833 H 86.3978 2.98601 4.89398 0
M  V30 834 H 84.7948 3.74926 4.68562 0
M  V30 835 H 85.8648 3.56787 3.28376 0
M  V30 836 N 87.2079 -1.17134 1.05439 0
M  V30 837 C 88.4849 -1.83411 0.679699 0
M  V30 838 C 88.8649 -1.9368 -0.839726 0
M  V30 839 O 88.2129 -1.47325 -1.74664 0
M  V30 840 C 88.4229 -3.20918 1.37159 0
M  V30 841 C 89.7709 -3.96796 1.51123 0
M  V30 842 O 90.7949 -3.30406 1.3308 0
M  V30 843 O 89.6539 -5.15778 1.80651 0
M  V30 844 H 86.7479 -0.79154 0.239569 0
M  V30 845 H 89.2939 -1.24411 1.15413 0
M  V30 846 H 88.0659 -3.08428 2.40807 0
M  V30 847 H 87.6889 -3.87587 0.886674 0
M  V30 848 N 88.686 -0.835752 -1.33615 0
M  V30 849 C 89.932 -0.430596 -1.98176 0
M  V30 850 C 90.265 1.00684 -1.66061 0
M  V30 851 O 89.54 1.70339 -0.938877 0
M  V30 852 C 89.823 -0.648065 -3.5422 0
M  V30 853 C 89.676 -2.13255 -3.96033 0
M  V30 854 C 90.995 -0.0922113 -4.40003 0
M  V30 855 H 88.114 -0.157924 -0.719881 0
M  V30 856 H 90.756 -1.05069 -1.58305 0
M  V30 857 H 88.906 -0.120237 -3.88314 0
M  V30 858 H 90.578 -2.725 -3.72211 0
M  V30 859 H 88.821 -2.61823 -3.45878 0
M  V30 860 H 89.492 -2.23547 -5.04708 0
M  V30 861 H 91.968 -0.543343 -4.12537 0
M  V30 862 H 90.844 -0.274083 -5.48215 0
M  V30 863 H 91.105 1.00378 -4.30554 0
M  V30 864 N 90.1641 1.46063 -0.591896 0
M  V30 865 C 91.3921 2.06717 -0.0868936 0
M  V30 866 C 91.8071 1.43916 1.22203 0
M  V30 867 O 91.1641 0.547698 1.74088 0
M  V30 868 C 91.2151 3.6142 0.0758725 0
M  V30 869 O 90.9361 4.21874 -1.18126 0
M  V30 870 C 92.4371 4.39025 0.61416 0
M  V30 871 H 89.6571 0.668162 -0.0616518 0
M  V30 872 H 92.2011 1.8755 -0.815175 0
M  V30 873 H 90.3561 3.79983 0.754413 0
M  V30 874 H 90.7701 5.14861 -1.00092 0
M  V30 875 H 92.2441 5.4783 0.677193 0
M  V30 876 H 92.7211 4.07708 1.63312 0
M  V30 877 H 93.3271 4.2529 -0.0298142 0
M  V30 878 N 91.6422 0.330177 1.54103 0
M  V30 879 C 92.8912 -0.271336 1.99867 0
M  V30 880 C 93.2042 -1.52723 1.22209 0
M  V30 881 O 94.4102 -2.20515 1.58383 0
M  V30 882 C 92.8662 -0.534032 3.55916 0
M  V30 883 C 92.4742 0.705193 4.42415 0
M  V30 884 C 94.2182 -1.09514 4.1013 0
M  V30 885 C 92.1252 0.414035 5.89949 0
M  V30 886 H 91.0552 -0.105166 0.74663 0
M  V30 887 H 93.7062 0.443429 1.78062 0
M  V30 888 H 92.0882 -1.30915 3.73734 0
M  V30 889 H 93.2622 1.4804 4.36372 0
M  V30 890 H 91.5772 1.18698 3.99124 0
M  V30 891 H 94.1742 -1.3277 5.17954 0
M  V30 892 H 94.5172 -2.04656 3.62521 0
M  V30 893 H 95.0502 -0.381038 3.95971 0
M  V30 894 H 91.7892 1.33481 6.41766 0
M  V30 895 H 91.3092 -0.323336 5.98928 0
M  V30 896 H 92.9882 0.0263105 6.46995 0
M  V30 897 N 93.1203 -1.57491 0.0584922 0
M  V30 898 C 94.0303 -2.15448 -0.928414 0
M  V30 899 C 95.0463 -1.11416 -1.3365 0
M  V30 900 O 96.2223 -1.4362 -1.41193 0
M  V30 901 C 93.2873 -2.69393 -2.18239 0
M  V30 902 C 92.3483 -3.88249 -1.83196 0
M  V30 903 C 91.5813 -4.39613 -3.02616 0
M  V30 904 O 91.8043 -3.90023 -4.16219 0
M  V30 905 O 90.7383 -5.31111 -2.83204 0
M  V30 906 H 94.5643 -3.00112 -0.465483 0
M  V30 907 H 92.1493 -1.48499 -0.163826 0
M  V30 908 H 94.0313 -3.04026 -2.91798 0
M  V30 909 H 92.7063 -1.87796 -2.63656 0
M  V30 910 H 91.6133 -3.58492 -1.06931 0
M  V30 911 H 92.9463 -4.71098 -1.42573 0
M  V30 912 N 94.5984 0.214957 -1.56127 0
M  V30 913 C 95.5084 1.28727 -1.96129 0
M  V30 914 C 96.5244 1.50916 -0.866044 0
M  V30 915 O 97.7004 1.63918 -1.17016 0
M  V30 916 C 94.7654 2.61569 -2.27558 0
M  V30 917 C 93.8264 2.47625 -3.50685 0
M  V30 918 C 93.0594 3.74132 -3.80606 0
M  V30 919 O 93.2824 4.77438 -3.12104 0
M  V30 920 O 92.2164 3.70849 -4.74083 0
M  V30 921 H 96.0424 0.977855 -2.87527 0
M  V30 922 H 93.6274 0.418358 -1.43423 0
M  V30 923 H 95.5094 3.40012 -2.48938 0
M  V30 924 H 94.1844 2.92178 -1.39332 0
M  V30 925 H 93.0914 1.67361 -3.34576 0
M  V30 926 H 94.4244 2.21954 -4.39315 0
M  V30 927 N 96.0765 1.50051 0.48192 0
M  V30 928 C 97.3535 1.51009 1.2432 0
M  V30 929 C 97.7335 0.248587 2.09631 0
M  V30 930 O 97.0815 -0.768409 2.15192 0
M  V30 931 C 97.2915 2.79981 2.08355 0
M  V30 932 C 98.6395 3.3022 2.66908 0
M  V30 933 O 99.6635 2.81228 2.18607 0
M  V30 934 O 98.5225 4.15595 3.54884 0
M  V30 935 H 95.6165 0.605239 0.563573 0
M  V30 936 H 98.1625 1.62332 0.494627 0
M  V30 937 H 96.9345 3.63275 1.45419 0
M  V30 938 H 96.5575 2.7161 2.90368 0
M  V30 939 N 97.5546 -0.734337 1.39446 0
M  V30 940 C 98.8006 -1.49505 1.37913 0
M  V30 941 C 99.1556 -1.92384 -0.0248416 0
M  V30 942 O 98.4486 -1.6395 -0.991506 0
M  V30 943 C 98.6426 -2.74711 2.28623 0
M  V30 944 C 98.4716 -2.44075 3.777 0
M  V30 945 C 97.2416 -2.36338 4.46623 0
M  V30 946 C 99.4396 -2.09574 4.69663 0
M  V30 947 N 97.4216 -1.9818 5.81032 0
M  V30 948 C 98.7926 -1.81865 5.92727 0
M  V30 949 C 100.848 -1.96048 4.57678 0
M  V30 950 C 99.5506 -1.41992 7.05146 0
M  V30 951 C 101.577 -1.57579 5.7002 0
M  V30 952 C 100.939 -1.30754 6.92158 0
M  V30 953 H 97.0376 -0.545896 0.55993 0
M  V30 954 H 99.6216 -0.853373 1.75002 0
M  V30 955 H 97.7926 -3.36657 1.93692 0
M  V30 956 H 99.5246 -3.40916 2.18078 0
M  V30 957 H 96.2796 -2.53456 4.00071 0
M  V30 958 H 96.7036 -1.81691 6.52163 0
M  V30 959 H 101.346 -2.15455 3.63784 0
M  V30 960 H 99.0636 -1.21327 7.9894 0
M  V30 961 H 102.65 -1.47718 5.62735 0
M  V30 962 H 101.53 -1.01432 7.77612 0
M  V30 963 N 99.0327 -1.24633 -0.964593 0
M  V30 964 C 99.9647 -0.999302 -2.06268 0
M  V30 965 C 100.978 0.0323226 -1.62768 0
M  V30 966 O 102.167 -0.205079 -1.77318 0
M  V30 967 C 99.2667 -0.486816 -3.35385 0
M  V30 968 C 98.4397 -1.5823 -4.07777 0
M  V30 969 C 97.4987 -1.07191 -5.15166 0
M  V30 970 O 96.5247 -1.76426 -5.41168 0
M  V30 971 N 97.7267 0.0920373 -5.80427 0
M  V30 972 H 100.492 -1.94477 -2.28033 0
M  V30 973 H 98.0527 -1.15704 -1.13244 0
M  V30 974 H 100.045 -0.130066 -4.04491 0
M  V30 975 H 98.6147 0.364459 -3.10468 0
M  V30 976 H 97.8347 -2.11109 -3.32906 0
M  V30 977 H 99.1227 -2.31854 -4.52903 0
M  V30 978 H 98.5207 0.670784 -5.61709 0
M  V30 979 H 97.0777 0.389905 -6.50633 0
M  V30 980 N 100.511 1.16574 -1.06058 0
M  V30 981 C 101.927 1.3904 -0.783585 0
M  V30 982 C 102.127 1.91784 0.618145 0
M  V30 983 O 101.183 2.11511 1.37911 0
M  V30 984 C 102.496 2.37329 -1.84649 0
M  V30 985 C 104.044 2.51018 -1.86973 0
M  V30 986 C 104.519 3.52588 -2.92311 0
M  V30 987 N 106.01 3.60113 -2.91329 0
M  V30 988 C 106.745 4.38486 -3.69482 0
M  V30 989 N 106.241 5.20302 -4.57447 0
M  V30 990 N 108.034 4.33446 -3.57885 0
M  V30 991 H 100.185 0.806725 -1.96483 0
M  V30 992 H 102.448 0.417117 -0.851303 0
M  V30 993 H 102.154 2.05663 -2.85299 0
M  V30 994 H 102.028 3.36946 -1.6955 0
M  V30 995 H 104.415 2.81989 -0.869827 0
M  V30 996 H 104.496 1.51445 -2.0615 0
M  V30 997 H 104.14 3.22354 -3.92492 0
M  V30 998 H 104.07 4.51886 -2.70383 0
M  V30 999 H 106.561 3.01707 -2.27555 0
M  V30 1000 H 106.874 5.77311 -5.13743 0
M  V30 1001 H 105.219 5.19653 -4.61503 0
M  V30 1002 H 108.41 3.68586 -2.88551 0
M  V30 1003 H 108.583 4.94279 -4.19037 0
M  V30 1004 N 101.989 0.842826 1.3317 0
M  V30 1005 C 103.235 0.441099 1.97945 0
M  V30 1006 C 103.568 -0.998024 1.66593 0
M  V30 1007 O 102.843 -1.69839 0.947898 0
M  V30 1008 C 103.126 0.666841 3.53872 0
M  V30 1009 C 102.979 2.15352 3.94897 0
M  V30 1010 C 104.298 0.115544 4.39948 0
M  V30 1011 H 101.417 0.161739 0.719034 0
M  V30 1012 H 104.059 1.05907 1.57746 0
M  V30 1013 H 102.209 0.140828 3.88245 0
M  V30 1014 H 103.881 2.7447 3.70761 0
M  V30 1015 H 102.124 2.63653 3.44484 0
M  V30 1016 H 102.795 2.26221 5.03516 0
M  V30 1017 H 105.271 0.565213 4.12243 0
M  V30 1018 H 104.147 0.303152 5.48062 0
M  V30 1019 H 104.408 -0.980935 4.3108 0
M  V30 1020 N 103.467 -1.45747 0.599634 0
M  V30 1021 C 104.713 -2.02592 0.0918643 0
M  V30 1022 C 105.046 -1.46806 -1.27128 0
M  V30 1023 O 104.321 -0.639658 -1.83681 0
M  V30 1024 C 104.604 -3.60073 0.0443398 0
M  V30 1025 C 104.457 -4.26208 1.43759 0
M  V30 1026 C 105.776 -4.35309 -0.647608 0
M  V30 1027 H 102.895 -0.736175 0.034857 0
M  V30 1028 H 105.537 -1.73694 0.770081 0
M  V30 1029 H 103.687 -3.84823 -0.533224 0
M  V30 1030 H 105.359 -4.12668 2.06162 0
M  V30 1031 H 103.602 -3.84916 2.00056 0
M  V30 1032 H 104.273 -5.35069 1.35665 0
M  V30 1033 H 106.749 -4.15805 -0.156776 0
M  V30 1034 H 105.625 -5.45038 -0.649942 0
M  V30 1035 H 105.886 -4.07598 -1.71219 0
M  V30 1036 N 104.945 -0.338344 -1.53925 0
M  V30 1037 C 105.908 0.508299 -2.23493 0
M  V30 1038 C 106.908 1.03175 -1.23335 0
M  V30 1039 O 108.098 0.921826 -1.47811 0
M  V30 1040 C 105.23 1.70754 -2.95052 0
M  V30 1041 H 106.423 -0.100058 -2.99733 0
M  V30 1042 H 103.976 -0.0896198 -1.56043 0
M  V30 1043 H 104.711 2.35474 -2.22986 0
M  V30 1044 H 104.496 1.33946 -3.68512 0
M  V30 1045 H 105.986 2.30818 -3.48013 0
M  V30 1046 N 106.423 1.57458 -0.0668435 0
M  V30 1047 C 107.653 1.97337 0.611677 0
M  V30 1048 C 108.061 0.943744 1.63982 0
M  V30 1049 O 107.404 -0.0785584 1.83532 0
M  V30 1050 C 107.466 3.33511 1.34205 0
M  V30 1051 C 107.13 4.54598 0.467941 0
M  V30 1052 C 108.127 5.19186 -0.272439 0
M  V30 1053 C 105.812 5.0075 0.39427 0
M  V30 1054 C 107.806 6.28274 -1.07476 0
M  V30 1055 C 105.493 6.09711 -0.411729 0
M  V30 1056 C 106.491 6.73335 -1.14492 0
M  V30 1057 O 106.179 7.80199 -1.93763 0
M  V30 1058 H 105.911 0.654042 0.170893 0
M  V30 1059 H 108.465 2.04961 -0.134289 0
M  V30 1060 H 106.695 3.22487 2.13398 0
M  V30 1061 H 108.384 3.58029 1.91233 0
M  V30 1062 H 109.15 4.84477 -0.225086 0
M  V30 1063 H 105.029 4.51009 0.954569 0
M  V30 1064 H 108.573 6.77866 -1.64755 0
M  V30 1065 H 104.47 6.43854 -0.460664 0
M  V30 1066 H 105.238 7.97053 -1.86142 0
M  V30 1067 N 107.901 -0.206675 1.56239 0
M  V30 1068 C 108.864 -1.23976 1.92776 0
M  V30 1069 C 109.864 -1.39041 0.807729 0
M  V30 1070 O 111.054 -1.37051 1.0753 0
M  V30 1071 C 108.186 -2.61112 2.19165 0
M  V30 1072 H 109.379 -0.927764 2.85189 0
M  V30 1073 H 106.932 -0.447718 1.4975 0
M  V30 1074 H 107.667 -2.97386 1.29352 0
M  V30 1075 H 107.452 -2.51552 3.00772 0
M  V30 1076 H 108.942 -3.35633 2.48476 0
M  V30 1077 N 109.379 -1.50304 -0.473955 0
M  V30 1078 C 110.795 -1.37667 -0.807466 0
M  V30 1079 C 110.995 -0.430555 -1.96846 0
M  V30 1080 O 110.051 0.127874 -2.52176 0
M  V30 1081 C 111.364 -2.78974 -1.12223 0
M  V30 1082 C 112.912 -2.87868 -1.22885 0
M  V30 1083 C 113.387 -4.30003 -1.57676 0
M  V30 1084 N 114.878 -4.3294 -1.64673 0
M  V30 1085 C 115.613 -5.3991 -1.93091 0
M  V30 1086 N 115.109 -6.57092 -2.1955 0
M  V30 1087 N 116.902 -5.27351 -1.94569 0
M  V30 1088 H 109.053 -2.10394 0.291212 0
M  V30 1089 H 111.316 -0.945575 0.0677609 0
M  V30 1090 H 111.022 -3.50031 -0.342229 0
M  V30 1091 H 110.896 -3.16038 -2.05913 0
M  V30 1092 H 113.283 -2.17032 -1.99953 0
M  V30 1093 H 113.364 -2.54352 -0.271814 0
M  V30 1094 H 113.008 -5.01375 -0.81149 0
M  V30 1095 H 112.938 -4.61004 -2.54525 0
M  V30 1096 H 115.429 -3.48441 -1.46277 0
M  V30 1097 H 115.742 -7.34425 -2.405 0
M  V30 1098 H 114.087 -6.60272 -2.16948 0
M  V30 1099 H 117.278 -4.34801 -1.73394 0
M  V30 1100 H 117.451 -6.10805 -2.16381 0
M  V30 1101 N 110.857 0.726932 -1.39834 0
M  V30 1102 C 111.767 1.87131 -1.41489 0
M  V30 1103 C 112.783 1.71239 -0.308757 0
M  V30 1104 O 113.959 1.93701 -0.551529 0
M  V30 1105 C 111.024 3.22811 -1.26468 0
M  V30 1106 C 110.085 3.51039 -2.47124 0
M  V30 1107 C 109.318 4.80245 -2.3281 0
M  V30 1108 O 109.541 5.54537 -1.33585 0
M  V30 1109 O 108.475 5.08554 -3.21957 0
M  V30 1110 H 112.301 1.8869 -2.3797 0
M  V30 1111 H 109.886 0.875837 -1.21035 0
M  V30 1112 H 111.768 4.03877 -1.20255 0
M  V30 1113 H 110.443 3.22005 -0.330862 0
M  V30 1114 H 109.35 2.70027 -2.58914 0
M  V30 1115 H 110.683 3.56632 -3.39227 0
M  V30 1116 N 112.336 1.25143 0.95797 0
M  V30 1117 C 113.246 1.06968 2.08794 0
M  V30 1118 C 114.262 0.00773911 1.73998 0
M  V30 1119 O 115.438 0.207972 2.00323 0
M  V30 1120 C 112.503 0.68691 3.39827 0
M  V30 1121 C 111.564 1.82641 3.88511 0
M  V30 1122 C 110.797 1.46181 5.1329 0
M  V30 1123 O 111.02 0.355971 5.69288 0
M  V30 1124 O 109.954 2.29085 5.566 0
M  V30 1125 H 113.78 2.01723 2.27027 0
M  V30 1126 H 111.365 1.04051 1.07209 0
M  V30 1127 H 113.247 0.485417 4.18595 0
M  V30 1128 H 111.922 -0.231417 3.22872 0
M  V30 1129 H 110.829 2.08274 3.10762 0
M  V30 1130 H 112.162 2.72386 4.09959 0
M  V30 1131 N 113.814 -1.1601 1.06675 0
M  V30 1132 C 115.061 -1.86633 0.785781 0
M  V30 1133 C 115.389 -1.81929 -0.687896 0
M  V30 1134 O 114.644 -1.23253 -1.52011 0
M  V30 1135 C 114.943 -3.35547 1.23057 0
M  V30 1136 C 114.609 -3.60448 2.70902 0
M  V30 1137 C 113.271 -3.66954 3.11285 0
M  V30 1138 C 115.623 -3.7071 3.66365 0
M  V30 1139 C 112.951 -3.81225 4.45965 0
M  V30 1140 C 115.303 -3.86503 5.00797 0
M  V30 1141 C 113.967 -3.91252 5.40813 0
M  V30 1142 H 113.237 -0.682937 0.287538 0
M  V30 1143 H 115.884 -1.37146 1.33654 0
M  V30 1144 H 114.189 -3.87193 0.59907 0
M  V30 1145 H 115.886 -3.88583 0.990163 0
M  V30 1146 H 112.476 -3.56021 2.38636 0
M  V30 1147 H 116.66 -3.64991 3.36296 0
M  V30 1148 H 111.916 -3.83155 4.76447 0
M  V30 1149 H 116.09 -3.93385 5.74649 0
M  V30 1150 H 113.717 -4.02062 6.45174 0
M  V30 1151 N 115.292 -0.849877 -1.32721 0
M  V30 1152 C 116.54 -0.450032 -1.97026 0
M  V30 1153 C 116.861 0.996604 -1.67609 0
M  V30 1154 O 116.131 1.6958 -0.980786 0
M  V30 1155 H 114.711 -0.163426 -0.728904 0
M  V30 1156 H 117.373 -1.08526 -1.6189 0
M  V30 1157 H 116.469 -0.591146 -3.0645 0
M  V30 1158 N 116.77 1.45427 -0.607355 0
M  V30 1159 C 117.995 2.07124 -0.107006 0
M  V30 1160 C 118.42 1.44906 1.19933 0
M  V30 1161 O 117.778 0.541687 1.73019 0
M  V30 1162 C 117.826 3.60595 0.0194119 0
M  V30 1163 O 116.93 3.98285 1.0697 0
M  V30 1164 H 116.271 0.659868 -0.0739597 0
M  V30 1165 H 118.801 1.86683 -0.837297 0
M  V30 1166 H 118.811 4.07419 0.2177 0
M  V30 1167 H 117.486 4.05266 -0.934453 0
M  V30 1168 H 116.063 3.63133 0.847889 0
M  V30 1169 N 118.248 0.346503 1.53744 0
M  V30 1170 C 119.494 -0.249473 2.0126 0
M  V30 1171 C 119.827 -1.49965 1.23386 0
M  V30 1172 O 119.102 -1.91811 0.32229 0
M  V30 1173 C 119.385 -0.560643 3.55709 0
M  V30 1174 C 119.238 0.701836 4.44291 0
M  V30 1175 C 120.557 -1.36905 4.18264 0
M  V30 1176 H 117.676 -0.0891987 0.731582 0
M  V30 1177 H 120.318 0.467624 1.84156 0
M  V30 1178 H 118.468 -1.17156 3.70414 0
M  V30 1179 H 120.14 1.33974 4.41417 0
M  V30 1180 H 118.383 1.32612 4.13033 0
M  V30 1181 H 119.054 0.43933 5.50249 0
M  V30 1182 H 121.53 -0.852448 4.07275 0
M  V30 1183 H 120.406 -1.55553 5.26398 0
M  V30 1184 H 120.667 -2.37203 3.73078 0
M  V30 1185 N 119.726 -1.57421 0.075193 0
M  V30 1186 C 121.003 -1.85029 -0.634329 0
M  V30 1187 C 121.383 -0.968305 -1.87582 0
M  V30 1188 O 120.731 -0.0354749 -2.28472 0
M  V30 1189 C 120.941 -3.35286 -0.968742 0
M  V30 1190 C 122.289 -4.02875 -1.34077 0
M  V30 1191 O 123.313 -3.40051 -1.06037 0
M  V30 1192 O 122.172 -5.13691 -1.86506 0
M  V30 1193 H 119.266 -0.7645 -0.315387 0
M  V30 1194 H 121.812 -1.69366 0.106382 0
M  V30 1195 H 120.584 -3.91203 -0.0871376 0
M  V30 1196 H 120.207 -3.56223 -1.7661 0
M  V30 1197 N 121.204 0.198386 -1.56346 0
M  V30 1198 C 122.452 0.91747 -1.80075 0
M  V30 1199 C 122.773 1.83929 -0.647692 0
M  V30 1200 O 122.043 1.93029 0.334166 0
M  V30 1201 H 120.623 0.341774 -0.664228 0
M  V30 1202 H 123.285 0.204684 -1.93822 0
M  V30 1203 H 122.381 1.51055 -2.7311 0
M  V30 1204 N 122.682 1.50554 0.465978 0
M  V30 1205 C 123.612 1.72722 1.57128 0
M  V30 1206 C 124.593 0.576294 1.6004 0
M  V30 1207 O 125.778 0.81598 1.76225 0
M  V30 1208 C 122.908 1.82605 2.95419 0
M  V30 1209 C 121.862 2.97835 3.07373 0
M  V30 1210 C 121.188 2.92867 4.47363 0
M  V30 1211 C 122.488 4.38265 2.84114 0
M  V30 1212 H 124.182 2.65267 1.38829 0
M  V30 1213 H 121.728 1.2765 0.666441 0
M  V30 1214 H 123.681 1.96698 3.72677 0
M  V30 1215 H 122.405 0.866858 3.14886 0
M  V30 1216 H 121.064 2.83401 2.3255 0
M  V30 1217 H 120.712 1.94783 4.63755 0
M  V30 1218 H 120.412 3.70227 4.56296 0
M  V30 1219 H 121.936 3.09015 5.26633 0
M  V30 1220 H 123.35 4.53198 3.51118 0
M  V30 1221 H 121.747 5.17115 3.04487 0
M  V30 1222 H 122.817 4.50281 1.7993 0
M  V30 1223 N 124.16 -0.719506 1.40217 0
M  V30 1224 C 125.406 -1.48152 1.38488 0
M  V30 1225 C 125.739 -1.94195 -0.0141867 0
M  V30 1226 O 125.014 -1.67884 -0.982096 0
M  V30 1227 C 125.297 -2.71035 2.37091 0
M  V30 1228 C 125.15 -2.30912 3.86005 0
M  V30 1229 C 126.469 -3.73182 2.33288 0
M  V30 1230 H 123.588 -0.537395 0.504357 0
M  V30 1231 H 126.23 -0.821472 1.71324 0
M  V30 1232 H 124.38 -3.27352 2.0922 0
M  V30 1233 H 126.052 -1.80107 4.24687 0
M  V30 1234 H 124.295 -1.62958 4.02029 0
M  V30 1235 H 124.966 -3.18978 4.50508 0
M  V30 1236 H 127.442 -3.26485 2.57966 0
M  V30 1237 H 126.318 -4.56806 3.04334 0
M  V30 1238 H 126.579 -4.21202 1.34317 0
M  V30 1239 N 125.638 -1.25649 -0.95132 0
M  V30 1240 C 126.586 -1.06118 -2.06982 0
M  V30 1241 C 127.58 0.00889169 -1.69398 0
M  V30 1242 O 128.786 -0.146988 -1.79399 0
M  V30 1243 H 125.161 -0.326248 -0.677544 0
M  V30 1244 H 127.132 -2.00932 -2.2061 0
M  V30 1245 C 125.881 -0.700145 -3.40578 0
M  V30 1246 H 125.204 -1.51537 -3.69968 0
M  V30 1247 H 126.644 -0.603211 -4.19687 0
M  V30 1248 C 125.103 0.59403 -3.31622 0
M  V30 1249 O 125.633 1.63522 -3.66911 0
M  V30 1250 N 123.839 0.58089 -2.84735 0
M  V30 1251 H 123.386 -0.266783 -2.56215 0
M  V30 1252 H 123.344 1.44695 -2.79125 0
M  V30 1253 N 127.117 1.15442 -1.07289 0
M  V30 1254 C 128.065 2.22225 -0.686952 0
M  V30 1255 C 129.059 1.66688 0.30193 0
M  V30 1256 O 130.265 1.79236 0.165712 0
M  V30 1257 H 126.64 0.723783 -0.204064 0
M  V30 1258 H 128.611 2.52056 -1.5972 0
M  V30 1259 C 127.36 3.47556 -0.100149 0
M  V30 1260 H 126.683 3.90612 -0.852211 0
M  V30 1261 H 128.123 4.23794 0.132235 0
M  V30 1262 C 126.582 3.16337 1.159 0
M  V30 1263 O 127.112 3.33074 2.24555 0
M  V30 1264 N 125.318 2.70385 1.06491 0
M  V30 1265 H 124.865 2.56966 0.180668 0
M  V30 1266 H 124.823 2.49871 1.90819 0
M  V30 1267 N 128.595 0.856903 1.32268 0
M  V30 1268 C 129.558 0.308171 2.27119 0
M  V30 1269 C 130.558 -0.533421 1.51695 0
M  V30 1270 O 131.748 -0.344607 1.70757 0
M  V30 1271 C 128.88 -0.563757 3.36206 0
M  V30 1272 H 130.073 1.14535 2.77167 0
M  V30 1273 H 127.626 0.631421 1.42978 0
M  V30 1274 H 128.361 -1.42266 2.91429 0
M  V30 1275 H 128.146 0.0386749 3.92081 0
M  V30 1276 H 129.636 -0.940386 4.06874 0
M  V30 1277 N 130.073 -1.45103 0.615059 0
M  V30 1278 C 131.321 -2.01784 0.112955 0
M  V30 1279 C 131.642 -1.48504 -1.26378 0
M  V30 1280 O 130.912 -0.682245 -1.83636 0
M  V30 1281 H 129.492 -0.745993 0.0387668 0
M  V30 1282 H 132.154 -1.77808 0.798141 0
M  V30 1283 H 131.25 -3.12025 0.0684069 0
M  V30 1284 N 131.551 -0.354651 -1.53558 0
M  V30 1285 C 132.8 0.239504 -2.00273 0
M  V30 1286 C 133.113 1.50759 -1.24623 0
M  V30 1287 O 134.319 2.17968 -1.61871 0
M  V30 1288 C 132.775 0.477341 -3.5672 0
M  V30 1289 C 132.383 -0.775488 -4.41237 0
M  V30 1290 C 134.127 1.02975 -4.11821 0
M  V30 1291 C 132.034 -0.507838 -5.89216 0
M  V30 1292 H 130.964 0.0932743 -0.748208 0
M  V30 1293 H 133.615 -0.471701 -1.77334 0
M  V30 1294 H 131.997 1.24953 -3.7577 0
M  V30 1295 H 133.171 -1.54963 -4.33962 0
M  V30 1296 H 131.486 -1.25033 -3.97185 0
M  V30 1297 H 134.083 1.24513 -5.2 0
M  V30 1298 H 134.426 1.98862 -3.65731 0
M  V30 1299 H 134.959 0.317994 -3.96527 0
M  V30 1300 H 131.698 -1.43674 -6.39561 0
M  V30 1301 H 131.218 0.228011 -5.99366 0
M  V30 1302 H 132.897 -0.129238 -6.46871 0
M  V30 1303 N 133.029 1.57378 -0.0835403 0
M  V30 1304 C 134.254 1.98682 0.594987 0
M  V30 1305 C 134.679 0.961969 1.61641 0
M  V30 1306 O 134.037 -0.0709989 1.81161 0
M  V30 1307 C 134.085 3.38988 1.2296 0
M  V30 1308 O 133.189 3.39208 2.34546 0
M  V30 1309 H 132.53 0.646368 0.152002 0
M  V30 1310 H 135.06 2.03961 -0.161533 0
M  V30 1311 H 135.07 3.76431 1.57366 0
M  V30 1312 H 133.745 4.13107 0.481228 0
M  V30 1313 H 132.322 3.13548 2.01846 0
M  V30 1314 N 134.507 -0.190092 1.56449 0
M  V30 1315 C 135.735 -0.925772 1.85033 0
M  V30 1316 C 136.15 -1.76638 0.666658 0
M  V30 1317 O 135.507 -1.78822 -0.364565 0
M  V30 1318 C 135.558 -1.81786 3.12468 0
M  V30 1319 O 135.279 -1.01118 4.26271 0
M  V30 1320 C 136.78 -2.6648 3.54265 0
M  V30 1321 H 134 -0.269872 0.614337 0
M  V30 1322 H 136.544 -0.195837 2.0356 0
M  V30 1323 H 134.699 -2.50136 2.95822 0
M  V30 1324 H 135.113 -1.61956 4.98869 0
M  V30 1325 H 136.587 -3.24722 4.46385 0
M  V30 1326 H 137.064 -3.40434 2.77491 0
M  V30 1327 H 137.67 -2.03493 3.73458 0
M  V30 1328 N 135.985 -1.50799 -0.457987 0
M  V30 1329 C 137.233 -1.62121 -1.2067 0
M  V30 1330 C 137.554 -0.329793 -1.92191 0
M  V30 1331 O 136.824 0.653409 -1.84682 0
M  V30 1332 H 135.404 -0.597441 -0.448411 0
M  V30 1333 H 138.066 -1.87637 -0.527096 0
M  V30 1334 H 137.162 -2.43882 -1.94751 0
M  V30 1335 N 137.463 0.71206 -1.40597 0
M  V30 1336 C 138.396 1.83582 -1.35546 0
M  V30 1337 C 139.374 1.61032 -0.225284 0
M  V30 1338 O 140.558 1.83998 -0.409519 0
M  V30 1339 C 137.685 3.19983 -1.11034 0
M  V30 1340 C 136.731 3.61355 -2.2655 0
M  V30 1341 S 137.564 3.68062 -3.88961 0
M  V30 1342 C 138.72 5.07216 -3.66719 0
M  V30 1343 H 138.953 1.87586 -2.30648 0
M  V30 1344 H 136.486 0.879182 -1.26924 0
M  V30 1345 H 138.444 3.98734 -0.975761 0
M  V30 1346 H 137.105 3.13608 -0.175798 0
M  V30 1347 H 136.298 4.60403 -2.0505 0
M  V30 1348 H 135.9 2.8987 -2.36329 0
M  V30 1349 H 138.192 5.94238 -3.25404 0
M  V30 1350 H 139.135 5.33753 -4.6531 0
M  V30 1351 H 139.543 4.77976 -3.00332 0
M  V30 1352 N 138.941 1.26152 0.944643 0
M  V30 1353 C 140.188 1.11492 1.69044 0
M  V30 1354 C 140.516 -0.342366 1.91463 0
M  V30 1355 O 139.771 -1.26812 1.49054 0
M  V30 1356 C 140.07 1.82541 3.07268 0
M  V30 1357 C 139.736 3.32445 3.04616 0
M  V30 1358 C 138.398 3.73337 3.036 0
M  V30 1359 C 140.75 4.28171 2.97185 0
M  V30 1360 C 138.078 5.08348 2.92915 0
M  V30 1361 C 140.43 5.63218 2.88041 0
M  V30 1362 C 139.094 6.03426 2.85366 0
M  V30 1363 H 138.364 0.407977 0.618576 0
M  V30 1364 H 141.011 1.56551 1.10291 0
M  V30 1365 H 139.316 1.29941 3.69625 0
M  V30 1366 H 141.013 1.68642 3.63815 0
M  V30 1367 H 137.603 2.99915 3.06185 0
M  V30 1368 H 141.787 3.97563 2.97081 0
M  V30 1369 H 137.043 5.38667 2.89219 0
M  V30 1370 H 141.217 6.37078 2.81254 0
M  V30 1371 H 138.844 7.07999 2.76842 0
M  V30 1372 N 140.419 -1.14872 1.07899 0
M  V30 1373 C 141.349 -2.2193 0.725887 0
M  V30 1374 C 142.33 -1.67622 -0.28927 0
M  V30 1375 O 143.515 -1.93533 -0.160787 0
M  V30 1376 C 140.645 -3.47061 0.128856 0
M  V30 1377 C 139.599 -4.14363 1.07178 0
M  V30 1378 C 138.925 -5.33636 0.337229 0
M  V30 1379 C 140.225 -4.63492 2.40775 0
M  V30 1380 H 141.919 -2.51724 1.62097 0
M  V30 1381 H 139.465 -1.20991 0.780838 0
M  V30 1382 H 141.418 -4.21199 -0.130147 0
M  V30 1383 H 140.142 -3.16617 -0.80134 0
M  V30 1384 H 138.801 -3.42173 1.3158 0
M  V30 1385 H 138.449 -4.99449 -0.596606 0
M  V30 1386 H 138.149 -5.79609 0.965788 0
M  V30 1387 H 139.673 -6.10539 0.0861567 0
M  V30 1388 H 141.087 -5.2913 2.20669 0
M  V30 1389 H 139.484 -5.20148 2.99276 0
M  V30 1390 H 140.554 -3.78834 3.02676 0
M  V30 1391 N 141.898 -0.863906 -1.31812 0
M  V30 1392 C 142.808 -0.318461 -2.32428 0
M  V30 1393 C 143.824 0.568496 -1.64451 0
M  V30 1394 O 145 0.46666 -1.95919 0
M  V30 1395 C 142.065 0.476355 -3.43412 0
M  V30 1396 C 141.126 -0.43784 -4.27061 0
M  V30 1397 C 140.359 0.319138 -5.32745 0
M  V30 1398 O 140.582 1.54799 -5.48993 0
M  V30 1399 O 139.516 -0.319861 -6.01049 0
M  V30 1400 H 143.342 -1.15229 -2.80991 0
M  V30 1401 H 140.927 -0.627103 -1.35602 0
M  V30 1402 H 142.809 0.927156 -4.11074 0
M  V30 1403 H 141.484 1.28683 -2.97022 0
M  V30 1404 H 140.391 -0.937013 -3.62175 0
M  V30 1405 H 141.724 -1.21375 -4.77 0
M  V30 1406 N 143.376 1.44774 -0.622745 0
M  V30 1407 C 144.604 2.06487 -0.130722 0
M  V30 1408 C 145.019 1.46476 1.19123 0
M  V30 1409 O 144.376 0.584502 1.72887 0
M  V30 1410 C 144.427 3.615 -0.000807207 0
M  V30 1411 O 144.148 4.19274 -1.27048 0
M  V30 1412 C 145.649 4.40229 0.520898 0
M  V30 1413 H 142.869 0.666704 -0.0758106 0
M  V30 1414 H 145.413 1.85779 -0.854774 0
M  V30 1415 H 143.568 3.81498 0.673643 0
M  V30 1416 H 143.982 5.12622 -1.1099 0
M  V30 1417 H 145.456 5.49144 0.560838 0
M  V30 1418 H 145.933 4.1108 1.54627 0
M  V30 1419 H 146.539 4.25131 -0.120018 0
M  V30 1420 N 144.854 0.36279 1.53368 0
M  V30 1421 C 145.764 -0.492994 2.29362 0
M  V30 1422 C 146.78 -1.09507 1.35219 0
M  V30 1423 O 147.956 -1.10662 1.68273 0
M  V30 1424 C 145.021 -1.61855 3.066 0
M  V30 1425 C 144.082 -1.04429 4.16405 0
M  V30 1426 C 143.315 -2.11621 4.89951 0
M  V30 1427 O 143.538 -3.32684 4.63333 0
M  V30 1428 O 142.472 -1.74835 5.75948 0
M  V30 1429 H 146.298 0.125331 3.03441 0
M  V30 1430 H 143.883 0.127253 1.48857 0
M  V30 1431 H 145.765 -2.27302 3.54841 0
M  V30 1432 H 144.44 -2.22233 2.3536 0
M  V30 1433 H 143.347 -0.353819 3.72423 0
M  V30 1434 H 144.68 -0.485113 4.89804 0
M  V30 1435 N 146.332 -1.57332 0.0918853 0
M  V30 1436 C 147.557 -1.98995 -0.584442 0
M  V30 1437 C 147.982 -0.970528 -1.61128 0
M  V30 1438 O 147.34 0.0613904 -1.81196 0
M  V30 1439 C 147.388 -3.39636 -1.21161 0
M  V30 1440 O 146.492 -3.40447 -2.32744 0
M  V30 1441 H 145.833 -0.647165 -0.148572 0
M  V30 1442 H 148.363 -2.03873 0.172347 0
M  V30 1443 H 148.373 -3.7726 -1.55367 0
M  V30 1444 H 147.048 -4.13356 -0.459313 0
M  V30 1445 H 145.625 -3.14614 -2.0018 0
M  V30 1446 N 147.81 0.181792 -1.56548 0
M  V30 1447 C 149.056 0.901431 -1.81665 0
M  V30 1448 C 149.389 1.82347 -0.668075 0
M  V30 1449 O 148.664 1.91669 0.330615 0
M  V30 1450 C 148.947 1.70618 -3.17115 0
M  V30 1451 C 148.8 0.807964 -4.42484 0
M  V30 1452 C 150.119 2.67605 -3.49393 0
M  V30 1453 H 147.238 0.32627 -0.660846 0
M  V30 1454 H 149.88 0.168134 -1.89255 0
M  V30 1455 H 148.03 2.33133 -3.10775 0
M  V30 1456 H 149.702 0.19649 -4.60881 0
M  V30 1457 H 147.945 0.115411 -4.33646 0
M  V30 1458 H 148.616 1.40632 -5.33785 0
M  V30 1459 H 151.092 2.15218 -3.56118 0
M  V30 1460 H 149.968 3.20985 -4.45264 0
M  V30 1461 H 150.229 3.47298 -2.73563 0
M  V30 1462 N 149.288 1.51039 0.449983 0
M  V30 1463 C 150.198 1.74261 1.57067 0
M  V30 1464 C 151.214 0.626363 1.62335 0
M  V30 1465 O 152.39 0.907162 1.79812 0
M  V30 1466 C 149.455 1.85114 2.93144 0
M  V30 1467 C 148.516 3.0893 2.98095 0
M  V30 1468 C 147.749 3.19256 4.27681 0
M  V30 1469 O 147.972 2.35835 5.19363 0
M  V30 1470 O 146.906 4.12144 4.38658 0
M  V30 1471 H 150.732 2.69303 1.40391 0
M  V30 1472 H 148.317 1.35389 0.631688 0
M  V30 1473 H 150.199 1.94311 3.73926 0
M  V30 1474 H 148.874 0.932588 3.09975 0
M  V30 1475 H 147.781 3.0522 2.16314 0
M  V30 1476 H 149.114 4.00433 2.86206 0
M  V30 1477 N 150.766 -0.704594 1.40972 0
M  V30 1478 C 152.182 -1.01406 1.23244 0
M  V30 1479 C 152.382 -2.01169 0.115399 0
M  V30 1480 O 151.438 -2.47021 -0.523147 0
M  V30 1481 C 152.751 -1.54728 2.57836 0
M  V30 1482 C 154.299 -1.66658 2.64942 0
M  V30 1483 C 154.774 -2.23383 3.9983 0
M  V30 1484 N 156.265 -2.30756 4.01629 0
M  V30 1485 C 157 -2.75655 5.02794 0
M  V30 1486 N 156.496 -3.20225 6.14352 0
M  V30 1487 N 158.289 -2.75138 4.90159 0
M  V30 1488 H 150.44 -0.0435285 2.12355 0
M  V30 1489 H 152.703 -0.0818951 0.944456 0
M  V30 1490 H 152.409 -0.888832 3.40283 0
M  V30 1491 H 152.283 -2.53084 2.79693 0
M  V30 1492 H 154.67 -2.31617 1.8286 0
M  V30 1493 H 154.751 -0.668717 2.46904 0
M  V30 1494 H 154.395 -1.59043 4.82357 0
M  V30 1495 H 154.325 -3.23904 4.15203 0
M  V30 1496 H 156.816 -1.99291 3.21079 0
M  V30 1497 H 157.129 -3.53084 6.87424 0
M  V30 1498 H 155.474 -3.18156 6.17901 0
M  V30 1499 H 158.665 -2.39661 4.02095 0
M  V30 1500 H 158.838 -3.09812 5.6914 0
M  V30 1501 N 152.244 -1.26651 -0.937939 0
M  V30 1502 C 153.491 -1.12387 -1.6845 0
M  V30 1503 C 153.819 0.332208 -1.91642 0
M  V30 1504 O 153.074 1.2602 -1.49725 0
M  V30 1505 C 153.373 -1.84168 -3.06295 0
M  V30 1506 C 153.039 -3.34056 -3.02849 0
M  V30 1507 C 151.701 -3.74942 -3.01616 0
M  V30 1508 C 154.053 -4.29741 -2.9491 0
M  V30 1509 C 151.381 -5.09894 -2.90215 0
M  V30 1510 C 153.733 -5.64738 -2.8505 0
M  V30 1511 C 152.397 -6.0493 -2.82162 0
M  V30 1512 H 151.667 -0.411252 -0.616403 0
M  V30 1513 H 154.314 -1.57134 -1.09459 0
M  V30 1514 H 152.619 -1.319 -3.6893 0
M  V30 1515 H 154.316 -1.70569 -3.62915 0
M  V30 1516 H 150.906 -3.01534 -3.0459 0
M  V30 1517 H 155.09 -3.99133 -2.94969 0
M  V30 1518 H 150.346 -5.40194 -2.86358 0
M  V30 1519 H 154.52 -6.38561 -2.77872 0
M  V30 1520 H 152.147 -7.09457 -2.73084 0
M  V30 1521 N 153.722 1.14298 -1.08507 0
M  V30 1522 C 155.138 1.37347 -0.812901 0
M  V30 1523 C 155.338 1.93052 0.577325 0
M  V30 1524 O 154.394 2.14389 1.33393 0
M  V30 1525 C 155.707 2.33359 -1.89642 0
M  V30 1526 C 157.255 2.46996 -1.92255 0
M  V30 1527 C 157.73 3.46309 -2.99724 0
M  V30 1528 N 159.221 3.53853 -2.98902 0
M  V30 1529 C 159.956 4.3055 -3.787 0
M  V30 1530 N 159.452 5.10482 -4.6838 0
M  V30 1531 N 161.245 4.25757 -3.66998 0
M  V30 1532 H 153.396 0.764867 -1.9815 0
M  V30 1533 H 155.659 0.398966 -0.859959 0
M  V30 1534 H 155.365 1.99565 -2.89597 0
M  V30 1535 H 155.239 3.33274 -1.76659 0
M  V30 1536 H 157.626 2.80081 -0.929445 0
M  V30 1537 H 157.707 1.47039 -2.09316 0
M  V30 1538 H 157.351 3.13957 -3.99241 0
M  V30 1539 H 157.281 4.46049 -2.79907 0
M  V30 1540 H 159.772 2.96812 -2.33904 0
M  V30 1541 H 160.085 5.66284 -5.25873 0
M  V30 1542 H 158.43 5.09747 -4.72422 0
M  V30 1543 H 161.621 3.62383 -2.96304 0
M  V30 1544 H 161.794 4.85279 -4.29427 0
M  V30 1545 N 155.201 0.870884 1.31352 0
M  V30 1546 C 156.148 0.325425 2.28494 0
M  V30 1547 C 157.118 -0.576615 1.5577 0
M  V30 1548 O 158.303 -0.508059 1.83911 0
M  V30 1549 C 155.443 -0.466283 3.41935 0
M  V30 1550 C 154.556 0.463378 4.29508 0
M  V30 1551 C 153.691 -0.342544 5.30094 0
M  V30 1552 C 152.73 0.583486 6.09313 0
M  V30 1553 N 151.867 -0.186244 7.01853 0
M  V30 1554 H 156.707 1.15901 2.74538 0
M  V30 1555 H 154.244 0.58294 1.35056 0
M  V30 1556 H 156.202 -0.941085 4.06447 0
M  V30 1557 H 154.832 -1.26456 2.97 0
M  V30 1558 H 153.884 1.05663 3.65431 0
M  V30 1559 H 155.196 1.1734 4.84802 0
M  V30 1560 H 154.35 -0.879816 6.00287 0
M  V30 1561 H 153.089 -1.08585 4.75458 0
M  V30 1562 H 152.094 1.13251 5.3801 0
M  V30 1563 H 153.319 1.32566 6.66035 0
M  V30 1564 H 151.265 -0.912348 6.49625 0
M  V30 1565 H 151.182 0.464422 7.54572 0
M  V30 1566 H 152.45 -0.704716 7.76308 0
M  V30 1567 N 156.679 -1.44442 0.630414 0
M  V30 1568 C 157.925 -2.02351 0.134816 0
M  V30 1569 C 158.258 -1.4947 -1.23986 0
M  V30 1570 O 157.533 -0.678475 -1.82283 0
M  V30 1571 C 157.816 -3.59898 0.120707 0
M  V30 1572 C 157.669 -4.23063 1.52767 0
M  V30 1573 C 158.988 -4.36585 -0.555127 0
M  V30 1574 H 156.107 -0.73527 0.0504646 0
M  V30 1575 H 158.749 -1.72022 0.806751 0
M  V30 1576 H 156.899 -3.85868 -0.451477 0
M  V30 1577 H 158.571 -4.08202 2.14869 0
M  V30 1578 H 156.814 -3.80586 2.08175 0
M  V30 1579 H 157.485 -5.32071 1.46984 0
M  V30 1580 H 159.961 -4.16044 -0.0685429 0
M  V30 1581 H 158.837 -5.46294 -0.534185 0
M  V30 1582 H 159.098 -4.11138 -1.62535 0
M  V30 1583 N 158.157 -0.370918 -1.53173 0
M  V30 1584 C 159.403 0.217423 -2.01631 0
M  V30 1585 C 159.736 1.47983 -1.25756 0
M  V30 1586 O 159.011 1.91274 -0.352764 0
M  V30 1587 C 159.294 0.503982 -3.56556 0
M  V30 1588 C 159.147 -0.77243 -4.43118 0
M  V30 1589 C 160.466 1.30234 -4.20389 0
M  V30 1590 H 157.585 0.0775486 -0.732909 0
M  V30 1591 H 160.227 -0.496863 -1.83388 0
M  V30 1592 H 158.377 1.11248 -3.72231 0
M  V30 1593 H 160.049 -1.4098 -4.39229 0
M  V30 1594 H 158.292 -1.39167 -4.10871 0
M  V30 1595 H 158.963 -0.526815 -5.4948 0
M  V30 1596 H 161.439 0.787546 -4.08579 0
M  V30 1597 H 160.315 1.47158 -5.28806 0
M  V30 1598 H 160.576 2.31237 -3.76805 0
M  V30 1599 N 159.635 1.57281 -0.100228 0
M  V30 1600 C 160.912 1.86014 0.604812 0
M  V30 1601 C 161.292 0.998025 1.86018 0
M  V30 1602 O 160.64 0.0718184 2.28387 0
M  V30 1603 C 160.85 3.36784 0.915278 0
M  V30 1604 C 162.198 4.04957 1.27651 0
M  V30 1605 O 163.222 3.41695 1.00613 0
M  V30 1606 O 162.081 5.16593 1.7831 0
M  V30 1607 H 159.175 0.76942 0.303185 0
M  V30 1608 H 161.721 1.69176 -0.133313 0
M  V30 1609 H 160.493 3.91292 0.0248896 0
M  V30 1610 H 160.116 3.58987 1.70921 0
M  V30 1611 N 161.113 -0.173488 1.56642 0
M  V30 1612 C 162.362 -0.888758 1.81063 0
M  V30 1613 C 162.675 -1.83506 0.67712 0
M  V30 1614 O 163.881 -2.59254 0.806206 0
M  V30 1615 C 162.337 -1.63091 3.20826 0
M  V30 1616 C 161.945 -0.728357 4.4204 0
M  V30 1617 C 163.689 -2.33454 3.54541 0
M  V30 1618 C 161.596 -1.47062 5.72823 0
M  V30 1619 H 160.526 -0.335618 0.675186 0
M  V30 1620 H 163.177 -0.141712 1.82952 0
M  V30 1621 H 161.559 -2.42263 3.13248 0
M  V30 1622 H 162.733 0.0262449 4.60793 0
M  V30 1623 H 161.048 -0.134492 4.16183 0
M  V30 1624 H 163.645 -2.89578 4.49498 0
M  V30 1625 H 163.988 -3.08687 2.79317 0
M  V30 1626 H 164.521 -1.61227 3.63663 0
M  V30 1627 H 161.26 -0.760658 6.51072 0
M  V30 1628 H 160.78 -2.1986 5.58052 0
M  V30 1629 H 162.459 -2.01868 6.14702 0
M  V30 1630 N 162.591 -1.51276 -0.441967 0
M  V30 1631 C 163.539 -1.72823 -1.55676 0
M  V30 1632 C 164.533 -0.59445 -1.58627 0
M  V30 1633 O 165.739 -0.775715 -1.62427 0
M  V30 1634 H 162.114 -0.545983 -0.517113 0
M  V30 1635 H 164.085 -2.6628 -1.34675 0
M  V30 1636 C 162.834 -1.86619 -2.93375 0
M  V30 1637 H 162.157 -2.73264 -2.91834 0
M  V30 1638 H 163.597 -2.05709 -3.70756 0
M  V30 1639 C 162.056 -0.624842 -3.31055 0
M  V30 1640 O 162.586 0.222636 -4.01083 0
M  V30 1641 N 160.792 -0.470288 -2.86769 0
M  V30 1642 H 160.339 -1.161 -2.29953 0
M  V30 1643 H 160.297 0.359051 -3.12343 0
M  V30 1644 N 164.069 0.697108 -1.41344 0
M  V30 1645 C 164.999 1.82353 -1.45841 0
M  V30 1646 C 165.98 1.67115 -0.317247 0
M  V30 1647 O 167.165 1.86871 -0.528474 0
M  V30 1648 C 164.295 3.20476 -1.33838 0
M  V30 1649 C 163.249 3.50415 -2.4575 0
M  V30 1650 C 162.575 4.87878 -2.18813 0
M  V30 1651 C 163.875 3.49546 -3.88091 0
M  V30 1652 H 165.569 1.78846 -2.40113 0
M  V30 1653 H 163.115 0.859028 -1.15571 0
M  V30 1654 H 165.068 3.98988 -1.35596 0
M  V30 1655 H 163.792 3.24604 -0.360498 0
M  V30 1656 H 162.451 2.74253 -2.43271 0
M  V30 1657 H 162.099 4.8863 -1.19371 0
M  V30 1658 H 161.799 5.08875 -2.93803 0
M  V30 1659 H 163.323 5.68702 -2.22284 0
M  V30 1660 H 164.737 4.18066 -3.92293 0
M  V30 1661 H 163.134 3.82075 -4.62751 0
M  V30 1662 H 164.204 2.48552 -4.16353 0
M  V30 1663 N 165.547 1.27147 0.931209 0
M  V30 1664 C 166.775 1.16082 1.71267 0
M  V30 1665 C 167.19 -0.282772 1.8667 0
M  V30 1666 O 166.547 -1.19283 1.38122 0
M  V30 1667 C 166.598 1.8358 3.11417 0
M  V30 1668 O 166.319 3.22299 2.96741 0
M  V30 1669 C 167.82 1.78597 4.05732 0
M  V30 1670 H 165.04 0.403758 0.535929 0
M  V30 1671 H 167.584 1.67953 1.16671 0
M  V30 1672 H 165.739 1.35623 3.62885 0
M  V30 1673 H 166.153 3.55851 3.85319 0
M  V30 1674 H 167.627 2.30444 5.01597 0
M  V30 1675 H 168.104 0.754564 4.3267 0
M  V30 1676 H 168.71 2.26152 3.60188 0
M  V30 1677 N 167.025 -1.13721 1.09112 0
M  V30 1678 C 168.273 -1.84559 0.823562 0
M  V30 1679 C 168.594 -1.83754 -0.652658 0
M  V30 1680 O 167.864 -1.29102 -1.47342 0
M  V30 1681 H 166.444 -0.683376 0.301673 0
M  V30 1682 H 169.106 -1.37771 1.37859 0
M  V30 1683 H 168.202 -2.8917 1.17419 0
M  V30 1684 N 168.503 -0.877838 -1.30888 0
M  V30 1685 C 169.749 -0.493426 -1.96706 0
M  V30 1686 C 170.082 0.953504 -1.6918 0
M  V30 1687 O 169.357 1.67266 -0.992594 0
M  V30 1688 C 169.64 -0.760429 -3.51979 0
M  V30 1689 C 169.493 -2.25747 -3.89048 0
M  V30 1690 C 170.812 -0.232148 -4.39487 0
M  V30 1691 H 167.931 -0.180746 -0.714493 0
M  V30 1692 H 170.573 -1.10052 -1.54882 0
M  V30 1693 H 168.723 -0.243715 -3.87735 0
M  V30 1694 H 170.395 -2.84204 -3.63354 0
M  V30 1695 H 168.638 -2.72694 -3.37373 0
M  V30 1696 H 169.309 -2.39491 -4.97341 0
M  V30 1697 H 171.785 -0.674314 -4.106 0
M  V30 1698 H 170.661 -0.448355 -5.47066 0
M  V30 1699 H 170.922 0.866297 -4.33529 0
M  V30 1700 N 169.982 1.44106 -0.638065 0
M  V30 1701 C 171.229 2.01978 -0.14533 0
M  V30 1702 C 171.557 1.50234 1.23532 0
M  V30 1703 O 170.812 0.679548 1.83523 0
M  V30 1704 C 171.111 3.5729 -0.0887327 0
M  V30 1705 C 170.777 4.28317 -1.40909 0
M  V30 1706 C 169.439 4.47437 -1.77069 0
M  V30 1707 C 171.791 4.6867 -2.28031 0
M  V30 1708 C 169.119 5.04171 -3.00047 0
M  V30 1709 C 171.471 5.26766 -3.50286 0
M  V30 1710 C 170.135 5.44104 -3.86661 0
M  V30 1711 H 169.405 0.739089 -0.0531801 0
M  V30 1712 H 172.052 1.72781 -0.825761 0
M  V30 1713 H 170.357 3.8594 0.675095 0
M  V30 1714 H 172.054 3.99807 0.309145 0
M  V30 1715 H 168.644 4.1377 -1.1177 0
M  V30 1716 H 172.828 4.53604 -2.01388 0
M  V30 1717 H 168.084 5.15782 -3.28298 0
M  V30 1718 H 172.258 5.56983 -4.18023 0
M  V30 1719 H 169.885 5.87832 -4.82034 0
M  V30 1720 N 171.46 0.379036 1.52974 0
M  V30 1721 C 172.709 -0.207612 2.00629 0
M  V30 1722 C 173.022 -1.48758 1.27006 0
M  V30 1723 O 174.228 -2.15365 1.65318 0
M  V30 1724 C 172.684 -0.42053 3.57435 0
M  V30 1725 C 172.292 0.845587 4.39948 0
M  V30 1726 C 174.036 -0.964102 4.13407 0
M  V30 1727 C 171.943 0.601513 5.88333 0
M  V30 1728 H 170.873 -0.0813591 0.749598 0
M  V30 1729 H 173.524 0.499853 1.76561 0
M  V30 1730 H 171.906 -1.18959 3.7771 0
M  V30 1731 H 173.08 1.61848 4.31442 0
M  V30 1732 H 171.395 1.31336 3.95145 0
M  V30 1733 H 173.992 -1.16225 5.21916 0
M  V30 1734 H 174.335 -1.93019 3.68849 0
M  V30 1735 H 174.868 -0.25487 3.96983 0
M  V30 1736 H 171.607 1.53831 6.37194 0
M  V30 1737 H 171.127 -0.132628 5.99653 0
M  V30 1738 H 172.806 0.232134 6.46583 0
M  V30 1739 N 172.938 -1.57226 0.108567 0
M  V30 1740 C 174.186 -1.94448 -0.550853 0
M  V30 1741 C 174.507 -0.992074 -1.67878 0
M  V30 1742 O 173.777 -0.0465 -1.95845 0
M  V30 1743 H 172.357 -0.717897 -0.206479 0
M  V30 1744 H 175.019 -1.94112 0.175062 0
M  V30 1745 H 174.115 -2.97218 -0.952259 0
M  V30 1746 N 174.416 0.165178 -1.56732 0
M  V30 1747 C 175.349 1.23336 -1.91998 0
M  V30 1748 C 176.327 1.42476 -0.783531 0
M  V30 1749 O 177.511 1.57384 -1.03743 0
M  V30 1750 C 174.638 2.59533 -2.17625 0
M  V30 1751 C 173.684 2.57093 -3.40302 0
M  V30 1752 S 174.517 2.05571 -4.9447 0
M  V30 1753 C 175.673 3.43532 -5.23198 0
M  V30 1754 H 175.906 0.932387 -2.82301 0
M  V30 1755 H 173.439 0.370013 -1.49901 0
M  V30 1756 H 175.397 3.37918 -2.3307 0
M  V30 1757 H 174.058 2.86827 -1.28019 0
M  V30 1758 H 173.251 3.57308 -3.55453 0
M  V30 1759 H 172.853 1.86806 -3.24005 0
M  V30 1760 H 175.145 4.39559 -5.15552 0
M  V30 1761 H 176.088 3.33251 -6.2478 0
M  V30 1762 H 176.496 3.39828 -4.50752 0
M  V30 1763 N 175.894 1.51508 0.433938 0
M  V30 1764 C 176.841 1.73068 1.52696 0
M  V30 1765 C 177.811 0.572441 1.55924 0
M  V30 1766 O 178.996 0.807253 1.72882 0
M  V30 1767 C 176.136 1.86474 2.90381 0
M  V30 1768 C 175.249 3.14037 2.96656 0
M  V30 1769 C 174.384 3.18019 4.25485 0
M  V30 1770 C 173.423 4.39882 4.2564 0
M  V30 1771 N 172.56 4.41394 5.45999 0
M  V30 1772 H 177.4 2.66366 1.33615 0
M  V30 1773 H 174.937 1.32008 0.649018 0
M  V30 1774 H 176.895 1.92229 3.70275 0
M  V30 1775 H 175.525 0.965809 3.08013 0
M  V30 1776 H 174.577 3.17575 2.09404 0
M  V30 1777 H 175.889 4.0394 2.92633 0
M  V30 1778 H 175.043 3.22708 5.13755 0
M  V30 1779 H 173.782 2.2601 4.3217 0
M  V30 1780 H 172.787 4.35366 3.35763 0
M  V30 1781 H 174.012 5.33159 4.20617 0
M  V30 1782 H 171.958 3.52258 5.53399 0
M  V30 1783 H 171.875 5.25111 5.4387 0
M  V30 1784 H 173.143 4.50281 6.36292 0
M  V30 1785 N 177.372 -0.689602 1.41712 0
M  V30 1786 C 178.6 -1.47827 1.44758 0
M  V30 1787 C 179.015 -1.88721 0.0545703 0
M  V30 1788 O 178.372 -1.57176 -0.927463 0
M  V30 1789 C 178.423 -2.73698 2.3616 0
M  V30 1790 O 178.144 -2.34524 3.7004 0
M  V30 1791 C 179.645 -3.67389 2.48072 0
M  V30 1792 H 176.865 -0.455357 0.49284 0
M  V30 1793 H 179.409 -0.848574 1.86063 0
M  V30 1794 H 177.564 -3.32891 1.98148 0
M  V30 1795 H 177.978 -3.15701 4.18847 0
M  V30 1796 H 179.452 -4.52475 3.16181 0
M  V30 1797 H 179.929 -4.12284 1.51388 0
M  V30 1798 H 180.535 -3.14097 2.86746 0
M  V30 1799 N 178.85 -1.27639 -0.924453 0
M  V30 1800 C 180.096 -1.14336 -1.67497 0
M  V30 1801 C 180.429 0.309465 -1.91718 0
M  V30 1802 O 179.704 1.22608 -1.50989 0
M  V30 1803 C 179.987 -1.93096 -3.0395 0
M  V30 1804 C 179.84 -3.46381 -2.8695 0
M  V30 1805 C 181.159 -1.73798 -4.0433 0
M  V30 1806 H 178.278 -0.416728 -0.607871 0
M  V30 1807 H 180.92 -1.56832 -1.07256 0
M  V30 1808 H 179.07 -1.56982 -3.55372 0
M  V30 1809 H 180.742 -3.92343 -2.42621 0
M  V30 1810 H 178.985 -3.72557 -2.22225 0
M  V30 1811 H 179.656 -3.96735 -3.83804 0
M  V30 1812 H 182.132 -2.05293 -3.61931 0
M  V30 1813 H 181.008 -2.31294 -4.97789 0
M  V30 1814 H 181.269 -0.686725 -4.36734 0
M  V30 1815 N 180.328 1.1314 -1.09713 0
M  V30 1816 C 181.577 1.83838 -0.829851 0
M  V30 1817 C 181.89 1.84599 0.646728 0
M  V30 1818 O 183.096 2.51218 1.02965 0
M  V30 1819 C 181.552 3.30069 -1.43466 0
M  V30 1820 C 181.16 3.37688 -2.94399 0
M  V30 1821 C 182.904 4.05788 -1.24645 0
M  V30 1822 C 180.811 4.78209 -3.47952 0
M  V30 1823 H 179.741 0.68877 -0.306777 0
M  V30 1824 H 182.392 1.27448 -1.3202 0
M  V30 1825 H 180.774 3.8628 -0.871996 0
M  V30 1826 H 181.948 2.91456 -3.56918 0
M  V30 1827 H 180.263 2.75436 -3.12289 0
M  V30 1828 H 182.86 5.09535 -1.62107 0
M  V30 1829 H 183.203 4.15878 -0.187357 0
M  V30 1830 H 183.736 3.55915 -1.77678 0
M  V30 1831 H 180.475 4.73311 -4.53495 0
M  V30 1832 H 179.995 5.24924 -2.90198 0
M  V30 1833 H 181.674 5.47133 -3.45332 0
M  V30 1834 N 181.806 0.884767 1.30421 0
M  V30 1835 C 183.217 0.553656 1.78302 0
M  V30 1836 C 183.568 -0.930153 1.7275 0
M  V30 1837 O 182.693 -1.72681 1.30423 0
M  V30 1838 C 183.288 0.998234 3.2376 0
M  V30 1839 C 181.847 0.71854 3.69478 0
M  V30 1840 C 180.994 1.18132 2.50879 0
M  V30 1841 H 183.945 1.06901 1.17294 0
M  V30 1842 H 183.966 0.327118 3.79091 0
M  V30 1843 H 183.478 2.0782 3.27769 0
M  V30 1844 H 181.579 -0.349444 3.70958 0
M  V30 1845 H 181.692 1.30595 4.60958 0
M  V30 1846 H 180.056 0.600669 2.47516 0
M  V30 1847 H 180.839 2.26902 2.57624 0
M  V30 1848 N 183.284 -1.43765 0.645699 0
M  V30 1849 C 184.247 -2.29163 -0.0409488 0
M  V30 1850 C 185.247 -1.41813 -0.757996 0
M  V30 1851 O 186.437 -1.63527 -0.600382 0
M  V30 1852 C 183.569 -3.23716 -1.06869 0
M  V30 1853 H 184.762 -2.91366 0.710345 0
M  V30 1854 H 182.315 -1.5092 0.406547 0
M  V30 1855 H 183.05 -2.66393 -1.84947 0
M  V30 1856 H 182.835 -3.88105 -0.558277 0
M  V30 1857 H 184.325 -3.87831 -1.54845 0
M  V30 1858 N 184.763 -0.387143 -1.52771 0
M  V30 1859 C 185.696 0.493123 -2.22808 0
M  V30 1860 C 186.674 1.0658 -1.22798 0
M  V30 1861 O 187.858 1.11785 -1.51777 0
M  V30 1862 C 184.985 1.68238 -2.93962 0
M  V30 1863 C 184.031 1.23515 -4.08223 0
M  V30 1864 S 184.864 0.21848 -5.35054 0
M  V30 1865 C 186.02 1.41357 -6.09729 0
M  V30 1866 H 186.253 -0.101625 -2.97126 0
M  V30 1867 H 183.786 -0.171323 -1.53447 0
M  V30 1868 H 185.744 2.36443 -3.35567 0
M  V30 1869 H 184.405 2.24842 -2.19328 0
M  V30 1870 H 183.598 2.12304 -4.57103 0
M  V30 1871 H 183.2 0.632044 -3.68621 0
M  V30 1872 H 185.492 2.34101 -6.3577 0
M  V30 1873 H 186.435 0.965736 -7.01484 0
M  V30 1874 H 186.843 1.6294 -5.40473 0
M  V30 1875 N 186.241 1.57166 -0.116904 0
M  V30 1876 C 187.188 2.15202 0.83408 0
M  V30 1877 C 188.158 1.07644 1.26499 0
M  V30 1878 O 189.343 1.35541 1.34288 0
M  V30 1879 C 186.483 2.75405 2.07957 0
M  V30 1880 C 185.596 3.97264 1.69721 0
M  V30 1881 C 184.731 4.45561 2.89221 0
M  V30 1882 C 183.77 5.59956 2.47215 0
M  V30 1883 N 182.907 6.03006 3.59622 0
M  V30 1884 H 187.747 2.96141 0.332335 0
M  V30 1885 H 185.284 1.46309 0.152349 0
M  V30 1886 H 187.242 3.08439 2.80929 0
M  V30 1887 H 185.872 1.97159 2.55594 0
M  V30 1888 H 184.924 3.70404 0.866316 0
M  V30 1889 H 186.236 4.80226 1.34849 0
M  V30 1890 H 185.39 4.80493 3.7042 0
M  V30 1891 H 184.129 3.61544 3.27318 0
M  V30 1892 H 183.134 5.2463 1.64448 0
M  V30 1893 H 184.359 6.45738 2.10238 0
M  V30 1894 H 182.305 5.21931 3.97396 0
M  V30 1895 H 182.222 6.80819 3.28667 0
M  V30 1896 H 183.49 6.42576 4.41267 0
M  V30 1897 N 187.719 -0.156864 1.56817 0
M  V30 1898 C 188.996 -0.899244 1.73704 0
M  V30 1899 C 189.376 -1.99771 0.682254 0
M  V30 1900 O 188.724 -2.26515 -0.300522 0
M  V30 1901 C 188.934 -1.45075 3.17418 0
M  V30 1902 C 190.282 -1.91802 3.7881 0
M  V30 1903 O 191.306 -1.54838 3.20786 0
M  V30 1904 O 190.165 -2.5994 4.80722 0
M  V30 1905 H 187.259 -0.424267 0.709878 0
M  V30 1906 H 189.805 -0.143561 1.69092 0
M  V30 1907 H 188.577 -0.660846 3.85679 0
M  V30 1908 H 188.2 -2.27021 3.26416 0
M  V30 1909 N 189.197 -1.51736 -0.425897 0
M  V30 1910 C 190.16 -1.73271 -1.50032 0
M  V30 1911 C 191.16 -0.602639 -1.4908 0
M  V30 1912 O 192.35 -0.87033 -1.509 0
M  V30 1913 C 189.482 -1.79969 -2.89523 0
M  V30 1914 H 190.675 -2.69172 -1.32237 0
M  V30 1915 H 188.228 -1.41899 -0.65532 0
M  V30 1916 H 188.963 -0.859241 -3.1271 0
M  V30 1917 H 188.748 -2.62109 -2.91619 0
M  V30 1918 H 190.238 -1.9843 -3.67444 0
M  V30 1919 N 190.675 0.682077 -1.42076 0
M  V30 1920 C 191.923 1.4393 -1.41876 0
M  V30 1921 C 192.244 1.94971 -0.0335599 0
M  V30 1922 O 191.514 1.72591 0.926773 0
M  V30 1923 H 190.094 0.534085 -0.522267 0
M  V30 1924 H 192.756 0.806427 -1.77434 0
M  V30 1925 H 191.852 2.29588 -2.11414 0
M  V30 1926 N 192.153 1.28127 0.917671 0
M  V30 1927 C 193.401 1.14825 1.66312 0
M  V30 1928 C 193.722 -0.304379 1.9261 0
M  V30 1929 O 192.992 -1.21149 1.53947 0
M  V30 1930 H 191.572 0.421953 0.616413 0
M  V30 1931 H 194.234 1.608 1.10134 0
M  V30 1932 H 193.33 1.68489 2.62712 0
M  V30 1933 N 193.631 -1.12557 1.10312 0
M  V30 1934 C 194.879 -1.83675 0.843091 0
M  V30 1935 C 195.2 -1.84435 -0.633131 0
M  V30 1936 O 194.47 -1.30657 -1.45964 0
M  V30 1937 H 193.05 -0.680138 0.308904 0
M  V30 1938 H 195.712 -1.36301 1.39313 0
M  V30 1939 H 194.808 -2.87908 1.2048 0
M  V30 1940 N 195.109 -0.891671 -1.2995 0
M  V30 1941 C 196.334 -0.527932 -2.00568 0
M  V30 1942 C 196.759 0.877969 -1.66353 0
M  V30 1943 O 196.117 1.58301 -0.883762 0
M  V30 1944 C 196.165 -0.717745 -3.53385 0
M  V30 1945 O 195.269 0.233376 -4.11739 0
M  V30 1946 H 194.61 -0.20722 -0.630837 0
M  V30 1947 H 197.14 -1.20105 -1.65638 0
M  V30 1948 H 197.15 -0.619307 -4.03272 0
M  V30 1949 H 195.825 -1.74276 -3.77625 0
M  V30 1950 H 194.402 0.0880706 -3.72796 0
M  V30 1951 N 196.587 1.43421 -0.653314 0
M  V30 1952 C 197.836 2.01032 -0.164076 0
M  V30 1953 C 198.149 1.52147 1.22926 0
M  V30 1954 O 199.355 2.02031 1.81371 0
M  V30 1955 C 197.811 3.59082 -0.24252 0
M  V30 1956 C 197.419 4.1696 -1.63855 0
M  V30 1957 C 199.163 4.24079 0.18911 0
M  V30 1958 C 197.07 5.67304 -1.67092 0
M  V30 1959 H 196 0.751798 -0.0575769 0
M  V30 1960 H 198.651 1.6439 -0.815362 0
M  V30 1961 H 197.033 3.93125 0.476276 0
M  V30 1962 H 198.207 3.94416 -2.38271 0
M  V30 1963 H 196.522 3.64335 -2.01616 0
M  V30 1964 H 199.119 5.34381 0.184775 0
M  V30 1965 H 199.462 3.98005 1.22056 0
M  V30 1966 H 199.995 3.94918 -0.477938 0
M  V30 1967 H 196.734 5.98145 -2.68146 0
M  V30 1968 H 196.254 5.91904 -0.970014 0
M  V30 1969 H 197.933 6.31344 -1.4147 0
M  V30 1970 N 198.065 0.39524 1.52563 0
M  V30 1971 C 199.311 -0.185318 2.01952 0
M  V30 1972 C 199.644 -1.45964 1.28095 0
M  V30 1973 O 198.919 -1.90689 0.38315 0
M  V30 1974 C 199.202 -0.447193 3.57312 0
M  V30 1975 C 199.055 0.842828 4.41833 0
M  V30 1976 C 200.374 -1.23529 4.22408 0
M  V30 1977 H 197.493 -0.0658788 0.73405 0
M  V30 1978 H 200.135 0.525975 1.82575 0
M  V30 1979 H 198.285 -1.05312 3.73954 0
M  V30 1980 H 199.957 1.4795 4.36931 0
M  V30 1981 H 198.2 1.45686 4.08605 0
M  V30 1982 H 198.871 0.614165 5.48573 0
M  V30 1983 H 201.347 -0.722445 4.0978 0
M  V30 1984 H 200.223 -1.38727 5.3108 0
M  V30 1985 H 200.484 -2.25213 3.80436 0
M  V30 1986 N 199.544 -1.57102 0.125237 0
M  V30 1987 C 200.492 -2.16905 -0.839927 0
M  V30 1988 C 201.486 -1.11998 -1.27094 0
M  V30 1989 O 202.692 -1.3029 -1.24195 0
M  V30 1990 H 199.067 -0.694252 -0.288995 0
M  V30 1991 H 201.038 -2.96774 -0.311115 0
M  V30 1992 C 199.787 -2.78795 -2.07771 0
M  V30 1993 H 199.11 -3.59221 -1.755 0
M  V30 1994 H 200.55 -3.2417 -2.73295 0
M  V30 1995 C 199.009 -1.76193 -2.87155 0
M  V30 1996 O 199.539 -1.21909 -3.82755 0
M  V30 1997 N 197.745 -1.45991 -2.51267 0
M  V30 1998 H 197.292 -1.90325 -1.73592 0
M  V30 1999 H 197.25 -0.775844 -3.04677 0
M  V30 2000 N 201.022 0.148545 -1.56898 0
M  V30 2001 C 202.271 0.85984 -1.82454 0
M  V30 2002 C 202.584 1.82406 -0.706229 0
M  V30 2003 O 203.79 2.57938 -0.847349 0
M  V30 2004 C 202.246 1.57967 -3.2338 0
M  V30 2005 C 201.854 0.65794 -4.43142 0
M  V30 2006 C 203.598 2.27784 -3.58211 0
M  V30 2007 C 201.505 1.3793 -5.75091 0
M  V30 2008 H 200.435 0.324834 -0.68044 0
M  V30 2009 H 203.086 0.112588 -1.83154 0
M  V30 2010 H 201.468 2.37249 -3.17063 0
M  V30 2011 H 202.642 -0.0995497 -4.60692 0
M  V30 2012 H 200.957 0.0682643 -4.16344 0
M  V30 2013 H 203.554 2.8239 -4.54048 0
M  V30 2014 H 203.897 3.04204 -2.84193 0
M  V30 2015 H 204.43 1.55421 -3.66182 0
M  V30 2016 H 201.169 0.656982 -6.52199 0
M  V30 2017 H 200.689 2.10954 -5.61479 0
M  V30 2018 H 202.368 1.92063 -6.17835 0
M  V30 2019 N 202.5 1.5196 0.417844 0
M  V30 2020 C 203.725 1.69717 1.1921 0
M  V30 2021 C 204.15 0.402148 1.83751 0
M  V30 2022 O 203.508 -0.639593 1.69643 0
M  V30 2023 C 203.556 2.82794 2.2374 0
M  V30 2024 O 202.66 2.47756 3.29683 0
M  V30 2025 H 202.001 0.565263 0.348387 0
M  V30 2026 H 204.531 1.98621 0.490985 0
M  V30 2027 H 204.541 3.07452 2.68212 0
M  V30 2028 H 203.216 3.76756 1.76146 0
M  V30 2029 H 201.793 2.33739 2.90552 0
M  V30 2030 N 203.978 -0.674533 1.42435 0
M  V30 2031 C 205.203 -1.46784 1.46524 0
M  V30 2032 C 205.628 -1.87938 0.078066 0
M  V30 2033 O 204.986 -1.56014 -0.92354 0
M  V30 2034 C 205.034 -2.69307 2.39805 0
M  V30 2035 O 204.138 -3.67587 1.86959 0
M  V30 2036 H 203.479 -0.440959 0.496439 0
M  V30 2037 H 206.009 -0.827326 1.87127 0
M  V30 2038 H 206.019 -3.17374 2.56393 0
M  V30 2039 H 204.694 -2.38692 3.40586 0
M  V30 2040 H 203.271 -3.2662 1.79927 0
M  V30 2041 N 205.456 -1.28612 -0.910864 0
M  V30 2042 C 206.419 -1.12803 -1.9952 0
M  V30 2043 C 207.419 -0.0668264 -1.60661 0
M  V30 2044 O 208.609 -0.312847 -1.71368 0
M  V30 2045 C 205.741 -0.72254 -3.33155 0
M  V30 2046 H 206.934 -2.09109 -2.14973 0
M  V30 2047 H 204.487 -1.11639 -1.09391 0
M  V30 2048 H 205.222 0.241152 -3.23402 0
M  V30 2049 H 205.007 -1.48916 -3.62721 0
M  V30 2050 H 206.497 -0.634666 -4.12749 0
M  V30 2051 N 206.934 1.1197 -1.10907 0
M  V30 2052 C 207.897 2.16031 -0.765707 0
M  V30 2053 C 208.897 1.59393 0.212235 0
M  V30 2054 O 210.087 1.74196 -0.0115441 0
M  V30 2055 C 207.219 3.40632 -0.135053 0
M  V30 2056 H 208.412 2.47919 -1.68748 0
M  V30 2057 H 205.965 1.27061 -0.910226 0
M  V30 2058 H 206.7 3.14348 0.797218 0
M  V30 2059 H 206.485 3.8302 -0.838937 0
M  V30 2060 H 207.975 4.17505 0.0892469 0
M  V30 2061 N 208.412 0.89855 1.29475 0
M  V30 2062 C 209.66 0.522847 1.9522 0
M  V30 2063 C 209.981 -0.93371 1.71192 0
M  V30 2064 O 209.251 -1.65823 1.04305 0
M  V30 2065 H 207.831 0.190366 0.722336 0
M  V30 2066 H 210.493 1.14459 1.5775 0
M  V30 2067 H 209.589 0.704476 3.04045 0
M  V30 2068 N 209.89 -1.43072 0.660911 0
M  V30 2069 C 210.82 -2.33497 -0.0122829 0
M  V30 2070 C 211.801 -1.49903 -0.803925 0
M  V30 2071 O 212.986 -1.78546 -0.763864 0
M  V30 2072 C 210.116 -3.33363 -0.973994 0
M  V30 2073 C 209.07 -4.27003 -0.291928 0
M  V30 2074 C 208.396 -5.16967 -1.36562 0
M  V30 2075 C 209.696 -5.15816 0.820462 0
M  V30 2076 H 211.39 -2.90038 0.742873 0
M  V30 2077 H 208.936 -1.39461 0.358688 0
M  V30 2078 H 210.889 -3.95524 -1.45392 0
M  V30 2079 H 209.613 -2.75095 -1.7604 0
M  V30 2080 H 208.272 -3.66217 0.167623 0
M  V30 2081 H 207.92 -4.55034 -2.14366 0
M  V30 2082 H 207.62 -5.80441 -0.914454 0
M  V30 2083 H 209.144 -5.82003 -1.84675 0
M  V30 2084 H 210.558 -5.71742 0.422366 0
M  V30 2085 H 208.955 -5.8805 1.19656 0
M  V30 2086 H 210.025 -4.55045 1.67518 0
M  V30 2087 N 211.368 -0.403325 -1.52352 0
M  V30 2088 C 212.301 0.469463 -2.23319 0
M  V30 2089 C 213.279 1.05272 -1.23922 0
M  V30 2090 O 214.463 1.10169 -1.52954 0
M  V30 2091 C 211.59 1.6511 -2.9573 0
M  V30 2092 C 210.636 1.19178 -4.0951 0
M  V30 2093 S 211.469 0.161718 -5.35256 0
M  V30 2094 C 212.625 1.34882 -6.11194 0
M  V30 2095 H 212.858 -0.133134 -2.97002 0
M  V30 2096 H 210.391 -0.187588 -1.53256 0
M  V30 2097 H 212.349 2.3287 -3.38056 0
M  V30 2098 H 211.01 2.22503 -2.21701 0
M  V30 2099 H 210.203 2.07444 -4.59329 0
M  V30 2100 H 209.805 0.592911 -3.6927 0
M  V30 2101 H 212.097 2.27345 -6.38217 0
M  V30 2102 H 213.04 0.89128 -7.02468 0
M  V30 2103 H 213.448 1.57198 -5.42171 0
M  V30 2104 N 212.846 1.57033 -0.133567 0
M  V30 2105 C 214.094 1.953 0.519848 0
M  V30 2106 C 214.415 1.01866 1.66278 0
M  V30 2107 O 213.685 0.0776513 1.95746 0
M  V30 2108 H 212.265 0.721091 0.195032 0
M  V30 2109 H 214.927 1.93809 -0.205921 0
M  V30 2110 H 214.023 2.98695 0.904854 0
M  V30 2111 N 214.325 -0.140222 1.56975 0
M  V30 2112 C 215.255 -1.17456 2.01808 0
M  V30 2113 C 216.236 -1.44415 0.898794 0
M  V30 2114 O 217.421 -1.5522 1.16707 0
M  V30 2115 C 214.551 -2.50607 2.40444 0
M  V30 2116 C 213.505 -2.38155 3.55621 0
M  V30 2117 C 212.831 -3.76078 3.80091 0
M  V30 2118 C 214.131 -1.85991 4.88062 0
M  V30 2119 H 215.825 -0.801743 2.88466 0
M  V30 2120 H 213.371 -0.38422 1.38779 0
M  V30 2121 H 215.324 -3.23197 2.7041 0
M  V30 2122 H 214.048 -2.89737 1.50732 0
M  V30 2123 H 212.707 -1.68016 3.25832 0
M  V30 2124 H 212.355 -4.12656 2.87618 0
M  V30 2125 H 212.055 -3.68606 4.57606 0
M  V30 2126 H 213.579 -4.50206 4.12488 0
M  V30 2127 H 214.993 -2.4838 5.16701 0
M  V30 2128 H 213.39 -1.89393 5.6943 0
M  V30 2129 H 214.46 -0.816023 4.77984 0
M  V30 2130 N 215.803 -1.52179 -0.40978 0
M  V30 2131 C 216.766 -1.74853 -1.48186 0
M  V30 2132 C 217.766 -0.618417 -1.48433 0
M  V30 2133 O 218.956 -0.886286 -1.49969 0
M  V30 2134 C 216.088 -1.8303 -2.87598 0
M  V30 2135 H 217.281 -2.70559 -1.29374 0
M  V30 2136 H 214.834 -1.42586 -0.640233 0
M  V30 2137 H 215.569 -0.89236 -3.11781 0
M  V30 2138 H 215.354 -2.65187 -2.88822 0
M  V30 2139 H 216.844 -2.02316 -3.65319 0
M  V30 2140 N 217.281 0.66697 -1.42791 0
M  V30 2141 C 218.211 1.79218 -1.49677 0
M  V30 2142 C 219.192 1.66405 -0.352623 0
M  V30 2143 O 220.377 1.85708 -0.567993 0
M  V30 2144 C 217.507 3.17565 -1.40605 0
M  V30 2145 C 216.461 3.45124 -2.53127 0
M  V30 2146 C 215.787 4.83127 -2.29112 0
M  V30 2147 C 217.087 3.41236 -3.95418 0
M  V30 2148 H 218.781 1.73713 -2.43853 0
M  V30 2149 H 216.327 0.83432 -1.17367 0
M  V30 2150 H 218.28 3.96022 -1.44029 0
M  V30 2151 H 217.004 3.23767 -0.429271 0
M  V30 2152 H 215.663 2.69031 -2.49034 0
M  V30 2153 H 215.311 4.85988 -1.29709 0
M  V30 2154 H 215.011 5.02528 -3.04531 0
M  V30 2155 H 216.535 5.63859 -2.34297 0
M  V30 2156 H 217.949 4.09651 -4.01073 0
M  V30 2157 H 216.346 3.72173 -4.70752 0
M  V30 2158 H 217.416 2.39665 -4.21532 0
M  V30 2159 N 218.759 1.29093 0.90403 0
M  V30 2160 C 219.987 1.19689 1.68766 0
M  V30 2161 C 220.402 -0.243113 1.87228 0
M  V30 2162 O 219.759 -1.16326 1.40621 0
M  V30 2163 C 219.81 1.90144 3.07453 0
M  V30 2164 O 219.531 3.2852 2.89838 0
M  V30 2165 C 221.032 1.87162 4.01852 0
M  V30 2166 H 218.252 0.415035 0.527244 0
M  V30 2167 H 220.796 1.7039 1.13082 0
M  V30 2168 H 218.951 1.43289 3.59926 0
M  V30 2169 H 219.365 3.63944 3.77684 0
M  V30 2170 H 220.839 2.41032 4.96596 0
M  V30 2171 H 221.316 0.84617 4.30972 0
M  V30 2172 H 221.922 2.33741 3.5531 0
M  V30 2173 N 220.237 -1.11381 1.11499 0
M  V30 2174 C 221.462 -1.87475 0.887019 0
M  V30 2175 C 221.887 -1.79639 -0.557796 0
M  V30 2176 O 221.245 -1.15924 -1.39396 0
M  V30 2177 C 221.293 -3.34213 1.35403 0
M  V30 2178 O 220.397 -4.0903 0.526146 0
M  V30 2179 H 219.738 -0.582099 0.319463 0
M  V30 2180 H 222.268 -1.40785 1.48461 0
M  V30 2181 H 222.278 -3.8506 1.34881 0
M  V30 2182 H 220.953 -3.39232 2.40612 0
M  V30 2183 H 219.53 -3.68082 0.597522 0
M  V30 2184 N 221.715 -0.905404 -1.28997 0
M  V30 2185 C 222.94 -0.549175 -1.99997 0
M  V30 2186 C 223.365 0.860276 -1.67275 0
M  V30 2187 O 222.723 1.57355 -0.900502 0
M  V30 2188 C 222.771 -0.755185 -3.52604 0
M  V30 2189 O 221.875 0.189692 -4.11964 0
M  V30 2190 H 221.216 -0.213899 -0.628604 0
M  V30 2191 H 223.746 -1.21856 -1.64354 0
M  V30 2192 H 223.756 -0.662045 -4.02593 0
M  V30 2193 H 222.431 -1.78271 -3.75755 0
M  V30 2194 H 221.008 0.0485257 -3.72868 0
M  V30 2195 N 223.193 1.4272 -0.668489 0
M  V30 2196 C 224.423 2.05668 -0.196063 0
M  V30 2197 C 224.831 1.5028 1.14946 0
M  V30 2198 O 224.174 0.6348 1.72383 0
M  V30 2199 C 224.236 3.59469 -0.0468879 0
M  V30 2200 C 223.9 4.37518 -1.32012 0
M  V30 2201 C 224.897 4.68584 -2.25222 0
M  V30 2202 C 222.582 4.77266 -1.56596 0
M  V30 2203 C 224.576 5.38326 -3.41297 0
M  V30 2204 C 222.263 5.4675 -2.72962 0
M  V30 2205 C 223.261 5.77204 -3.65137 0
M  V30 2206 O 222.949 6.45264 -4.79468 0
M  V30 2207 H 222.681 0.669382 -0.0943599 0
M  V30 2208 H 225.235 1.83954 -0.913788 0
M  V30 2209 H 223.465 3.79817 0.726357 0
M  V30 2210 H 225.154 4.04071 0.384852 0
M  V30 2211 H 225.92 4.38382 -2.07477 0
M  V30 2212 H 221.799 4.52959 -0.857249 0
M  V30 2213 H 225.343 5.62014 -4.13263 0
M  V30 2214 H 221.24 5.76369 -2.90635 0
M  V30 2215 H 222.008 6.63753 -4.78931 0
M  V30 2216 N 224.671 0.411399 1.52136 0
M  V30 2217 C 225.919 -0.163322 2.01439 0
M  V30 2218 C 226.24 -1.45453 1.29879 0
M  V30 2219 O 225.51 -1.91225 0.4254 0
M  V30 2220 H 224.09 -0.0633447 0.744309 0
M  V30 2221 H 226.752 0.548161 1.87033 0
M  V30 2222 H 225.848 -0.357817 3.10042 0
M  V30 2223 N 226.149 -1.5696 0.141893 0
M  V30 2224 C 227.112 -2.15316 -0.785587 0
M  V30 2225 C 228.112 -1.09366 -1.1788 0
M  V30 2226 O 229.302 -1.35031 -1.10056 0
M  V30 2227 C 226.434 -2.71211 -2.06537 0
M  V30 2228 H 227.627 -2.98608 -0.278041 0
M  V30 2229 H 225.18 -1.5593 -0.107519 0
M  V30 2230 H 225.915 -1.91571 -2.6167 0
M  V30 2231 H 225.7 -3.4872 -1.79268 0
M  V30 2232 H 227.19 -3.16189 -2.72789 0
M  V30 2233 N 227.627 0.131896 -1.57047 0
M  V30 2234 C 228.852 0.860418 -1.8871 0
M  V30 2235 C 229.277 1.73251 -0.73251 0
M  V30 2236 O 228.635 1.785 0.317429 0
M  V30 2237 C 228.683 1.68047 -3.19049 0
M  V30 2238 O 227.787 2.7862 -3.04047 0
M  V30 2239 H 227.128 0.238743 -0.619595 0
M  V30 2240 H 229.658 0.118169 -2.04258 0
M  V30 2241 H 229.668 2.07238 -3.51449 0
M  V30 2242 H 228.343 1.04018 -4.02682 0
M  V30 2243 H 226.92 2.42726 -2.83088 0
M  V30 2244 N 229.106 1.52395 0.401703 0
M  V30 2245 C 230.053 1.76268 1.48991 0
M  V30 2246 C 231.023 0.605386 1.54675 0
M  V30 2247 O 232.208 0.843742 1.7113 0
M  V30 2248 C 229.348 1.92592 2.86361 0
M  V30 2249 C 228.461 3.20259 2.89928 0
M  V30 2250 C 227.596 3.26972 4.18644 0
M  V30 2251 C 226.635 4.48812 4.16214 0
M  V30 2252 N 225.772 4.52877 5.36514 0
M  V30 2253 H 230.612 2.6914 1.27935 0
M  V30 2254 H 228.149 1.33355 0.620871 0
M  V30 2255 H 230.107 2.0004 3.66115 0
M  V30 2256 H 228.737 1.03093 3.05895 0
M  V30 2257 H 227.789 3.21945 2.02621 0
M  V30 2258 H 229.101 4.10056 2.83999 0
M  V30 2259 H 228.255 3.33533 5.06794 0
M  V30 2260 H 226.994 2.35126 4.27278 0
M  V30 2261 H 225.999 4.4239 3.26453 0
M  V30 2262 H 227.224 5.41961 4.09213 0
M  V30 2263 H 225.17 3.63917 5.45802 0
M  V30 2264 H 225.087 5.36529 5.32609 0
M  V30 2265 H 226.355 4.63676 6.26597 0
M  V30 2266 N 230.584 -0.659388 1.43143 0
M  V30 2267 C 231.83 -1.41984 1.45644 0
M  V30 2268 C 232.185 -1.92245 0.0771718 0
M  V30 2269 O 231.478 -1.68976 -0.903205 0
M  V30 2270 C 231.672 -2.62206 2.42864 0
M  V30 2271 C 231.501 -2.23711 3.90107 0
M  V30 2272 C 230.271 -2.12332 4.58523 0
M  V30 2273 C 232.469 -1.84384 4.80112 0
M  V30 2274 N 230.451 -1.67102 5.9072 0
M  V30 2275 C 231.822 -1.5019 6.01534 0
M  V30 2276 C 233.877 -1.71512 4.67427 0
M  V30 2277 C 232.58 -1.04414 7.11681 0
M  V30 2278 C 234.606 -1.27142 5.77572 0
M  V30 2279 C 233.968 -0.938808 6.98116 0
M  V30 2280 H 230.067 -0.515448 0.588079 0
M  V30 2281 H 232.651 -0.759409 1.79279 0
M  V30 2282 H 230.822 -3.25917 2.11265 0
M  V30 2283 H 232.554 -3.28877 2.35843 0
M  V30 2284 H 229.309 -2.31893 4.12944 0
M  V30 2285 H 229.733 -1.46866 6.60878 0
M  V30 2286 H 234.375 -1.95868 3.74694 0
M  V30 2287 H 232.093 -0.788061 8.04248 0
M  V30 2288 H 235.679 -1.17681 5.69774 0
M  V30 2289 H 234.559 -0.6007 7.81896 0
M  V30 2290 N 232.062 -1.29571 -0.897171 0
M  V30 2291 C 233.31 -1.17456 -1.64464 0
M  V30 2292 C 233.631 0.273698 -1.9307 0
M  V30 2293 O 232.901 1.18684 -1.55855 0
M  V30 2294 H 231.481 -0.431706 -0.609622 0
M  V30 2295 H 234.143 -1.62531 -1.07562 0
M  V30 2296 H 233.239 -1.72648 -2.59998 0
M  V30 2297 N 233.54 1.10788 -1.12088 0
M  V30 2298 C 234.786 1.82942 -0.875226 0
M  V30 2299 C 235.119 1.84779 0.597538 0
M  V30 2300 O 234.394 1.30578 1.44152 0
M  V30 2301 C 234.677 3.29789 -1.44606 0
M  V30 2302 C 234.53 3.36307 -2.98693 0
M  V30 2303 C 235.849 4.26064 -1.10261 0
M  V30 2304 H 232.968 0.664195 -0.319397 0
M  V30 2305 H 235.61 1.29867 -1.38689 0
M  V30 2306 H 233.76 3.75118 -1.01089 0
M  V30 2307 H 235.432 2.99487 -3.50864 0
M  V30 2308 H 233.675 2.76318 -3.34411 0
M  V30 2309 H 234.346 4.39694 -3.33726 0
M  V30 2310 H 236.822 3.88951 -1.4784 0
M  V30 2311 H 235.698 5.27183 -1.52869 0
M  V30 2312 H 235.959 4.42098 -0.0142953 0
M  V30 2313 N 235.018 0.912232 1.28515 0
M  V30 2314 C 236.434 0.610159 1.47476 0
M  V30 2315 C 236.634 -0.844955 1.82928 0
M  V30 2316 O 235.69 -1.62416 1.93332 0
M  V30 2317 C 237.003 1.54675 2.57868 0
M  V30 2318 C 238.551 1.55331 2.71738 0
M  V30 2319 C 239.026 2.47649 3.85272 0
M  V30 2320 N 240.517 2.45767 3.92623 0
M  V30 2321 C 241.252 3.13896 4.79851 0
M  V30 2322 N 240.748 3.9135 5.71679 0
M  V30 2323 N 242.541 3.02991 4.73448 0
M  V30 2324 H 234.692 1.85318 1.03783 0
M  V30 2325 H 236.955 0.794777 0.516753 0
M  V30 2326 H 236.661 2.5841 2.38574 0
M  V30 2327 H 236.535 1.27671 3.54937 0
M  V30 2328 H 238.922 0.52335 2.90422 0
M  V30 2329 H 239.003 1.86378 1.75205 0
M  V30 2330 H 238.647 3.50745 3.67342 0
M  V30 2331 H 238.577 2.13904 4.81199 0
M  V30 2332 H 241.068 1.89503 3.26951 0
M  V30 2333 H 241.381 4.40359 6.35062 0
M  V30 2334 H 239.726 3.95455 5.71524 0
M  V30 2335 H 242.917 2.41987 4.007 0
M  V30 2336 H 243.09 3.5636 5.41213 0
M  V30 2337 N 236.496 -1.42363 0.676048 0
M  V30 2338 C 237.744 -2.01123 0.198437 0
M  V30 2339 C 238.065 -1.53731 -1.19966 0
M  V30 2340 O 237.335 -0.759518 -1.80577 0
M  V30 2341 H 235.915 -0.743678 0.0703721 0
M  V30 2342 H 238.577 -1.74263 0.872837 0
M  V30 2343 H 237.673 -3.11454 0.200686 0
M  V30 2344 N 237.974 -0.419461 -1.51915 0
M  V30 2345 C 238.904 0.391813 -2.30189 0
M  V30 2346 C 239.885 1.03699 -1.34836 0
M  V30 2347 O 241.07 1.04403 -1.63748 0
M  V30 2348 C 238.2 1.50312 -3.13087 0
M  V30 2349 C 237.154 0.9824 -4.16573 0
M  V30 2350 C 236.48 2.18809 -4.8788 0
M  V30 2351 C 237.78 0.0292356 -5.22292 0
M  V30 2352 H 239.474 -0.26135 -2.98257 0
M  V30 2353 H 237.02 -0.127134 -1.43438 0
M  V30 2354 H 238.973 2.07773 -3.66617 0
M  V30 2355 H 237.697 2.18431 -2.42807 0
M  V30 2356 H 236.356 0.430119 -3.64068 0
M  V30 2357 H 236.004 2.85507 -4.14119 0
M  V30 2358 H 235.704 1.84615 -5.57845 0
M  V30 2359 H 237.228 2.76858 -5.44226 0
M  V30 2360 H 238.642 0.512976 -5.71 0
M  V30 2361 H 237.039 -0.2244 -5.9968 0
M  V30 2362 H 238.109 -0.912931 -4.76228 0
M  V30 2363 N 239.452 1.56882 -0.150215 0
M  V30 2364 C 240.677 2.01027 0.510184 0
M  V30 2365 C 241.102 1.02966 1.57415 0
M  V30 2366 O 240.46 0.00590158 1.81299 0
M  V30 2367 C 240.508 3.43899 1.08472 0
M  V30 2368 O 239.612 3.4885 2.19948 0
M  V30 2369 H 238.953 0.652233 0.124451 0
M  V30 2370 H 241.483 2.03093 -0.247894 0
M  V30 2371 H 241.493 3.82766 1.41259 0
M  V30 2372 H 240.168 4.14776 0.305582 0
M  V30 2373 H 238.745 3.21827 1.88366 0
M  V30 2374 N 240.93 -0.123565 1.57115 0
M  V30 2375 C 241.877 -1.15177 2.00007 0
M  V30 2376 C 242.847 -1.41403 0.871454 0
M  V30 2377 O 244.032 -1.53346 1.13533 0
M  V30 2378 C 241.172 -2.47436 2.40561 0
M  V30 2379 C 240.285 -2.28184 3.66819 0
M  V30 2380 C 239.42 -3.53641 3.96373 0
M  V30 2381 C 238.459 -3.29528 5.15827 0
M  V30 2382 N 237.596 -4.47175 5.41275 0
M  V30 2383 H 242.436 -0.779008 2.87638 0
M  V30 2384 H 239.973 -0.373166 1.42288 0
M  V30 2385 H 241.931 -3.24584 2.62109 0
M  V30 2386 H 240.561 -2.82614 1.55978 0
M  V30 2387 H 239.613 -1.41976 3.52912 0
M  V30 2388 H 240.925 -2.0634 4.5412 0
M  V30 2389 H 240.079 -4.39209 4.18545 0
M  V30 2390 H 238.818 -3.78512 3.07538 0
M  V30 2391 H 237.823 -2.42349 4.93505 0
M  V30 2392 H 239.048 -3.06031 6.06236 0
M  V30 2393 H 236.994 -4.72175 4.55397 0
M  V30 2394 H 236.911 -4.28419 6.22891 0
M  V30 2395 H 238.179 -5.3389 5.67963 0
M  V30 2396 N 242.408 -1.52605 -0.393616 0
M  V30 2397 C 243.338 -1.80022 -1.48709 0
M  V30 2398 C 244.319 -0.651995 -1.57108 0
M  V30 2399 O 245.504 -0.89913 -1.72132 0
M  V30 2400 C 242.634 -1.96492 -2.86371 0
M  V30 2401 C 241.588 -3.12161 -2.92813 0
M  V30 2402 C 240.914 -3.13877 -4.3288 0
M  V30 2403 C 242.214 -4.51322 -2.6288 0
M  V30 2404 H 243.908 -2.71589 -1.26015 0
M  V30 2405 H 241.454 -1.30684 -0.604778 0
M  V30 2406 H 243.407 -2.14255 -3.62867 0
M  V30 2407 H 242.131 -1.01611 -3.10391 0
M  V30 2408 H 240.79 -2.94173 -2.18764 0
M  V30 2409 H 240.438 -2.16687 -4.53933 0
M  V30 2410 H 240.138 -3.91576 -4.38112 0
M  V30 2411 H 241.662 -3.33789 -5.1129 0
M  V30 2412 H 243.076 -4.69435 -3.29096 0
M  V30 2413 H 241.473 -5.31053 -2.79468 0
M  V30 2414 H 242.543 -4.58353 -1.58242 0
M  V30 2415 N 243.887 0.651787 -1.4349 0
M  V30 2416 C 244.85 1.74647 -1.48429 0
M  V30 2417 C 245.85 1.56513 -0.368817 0
M  V30 2418 O 247.04 1.62385 -0.630623 0
M  V30 2419 C 244.172 3.13533 -1.33827 0
M  V30 2420 H 245.365 1.71649 -2.4592 0
M  V30 2421 H 242.918 0.863573 -1.30277 0
M  V30 2422 H 243.653 3.22142 -0.37349 0
M  V30 2423 H 243.438 3.28101 -2.14691 0
M  V30 2424 H 244.928 3.93356 -1.40218 0
M  V30 2425 N 245.365 1.30045 0.890287 0
M  V30 2426 C 246.328 1.15963 1.977 0
M  V30 2427 C 247.328 0.0923777 1.60534 0
M  V30 2428 O 248.518 0.340071 1.70848 0
M  V30 2429 C 245.65 0.775451 3.31963 0
M  V30 2430 H 246.843 2.12502 2.11619 0
M  V30 2431 H 244.396 1.13366 1.07601 0
M  V30 2432 H 245.131 -0.189671 3.23745 0
M  V30 2433 H 244.916 1.54668 3.60306 0
M  V30 2434 H 246.406 0.700251 4.11687 0
M  V30 2435 N 246.843 -1.10192 1.12674 0
M  V30 2436 C 248.089 -1.82475 0.884915 0
M  V30 2437 C 248.422 -1.85093 -0.58773 0
M  V30 2438 O 247.697 -1.3134 -1.43457 0
M  V30 2439 C 247.98 -3.29018 1.46353 0
M  V30 2440 C 247.833 -3.34718 3.00473 0
M  V30 2441 C 249.152 -4.25473 1.12519 0
M  V30 2442 H 246.271 -0.662492 0.322915 0
M  V30 2443 H 248.913 -1.2913 1.39375 0
M  V30 2444 H 247.063 -3.74576 1.03077 0
M  V30 2445 H 248.735 -2.97622 3.52447 0
M  V30 2446 H 246.978 -2.74541 3.35872 0
M  V30 2447 H 247.649 -4.37918 3.36053 0
M  V30 2448 H 250.125 -3.88161 1.499 0
M  V30 2449 H 249.001 -5.26365 1.55663 0
M  V30 2450 H 249.262 -4.42084 0.0377407 0
M  V30 2451 N 248.321 -0.919034 -1.28029 0
M  V30 2452 C 249.231 -0.416756 -2.30869 0
M  V30 2453 C 250.247 0.498235 -1.66714 0
M  V30 2454 O 251.423 0.383144 -1.97722 0
M  V30 2455 C 248.488 0.330274 -3.45123 0
M  V30 2456 C 247.549 -0.618578 -4.2482 0
M  V30 2457 C 246.782 0.0928959 -5.33619 0
M  V30 2458 O 247.005 1.31375 -5.55065 0
M  V30 2459 O 245.939 -0.574499 -5.99152 0
M  V30 2460 H 249.765 -1.27043 -2.75851 0
M  V30 2461 H 247.35 -0.684052 -1.3282 0
M  V30 2462 H 249.232 0.751972 -4.14636 0
M  V30 2463 H 247.907 1.1597 -3.02213 0
M  V30 2464 H 246.814 -1.08978 -3.57875 0
M  V30 2465 H 248.147 -1.41497 -4.71423 0
M  V30 2466 N 249.799 1.42003 -0.683588 0
M  V30 2467 C 250.729 2.33487 -0.024866 0
M  V30 2468 C 251.71 1.51163 0.779975 0
M  V30 2469 O 252.895 1.79739 0.735362 0
M  V30 2470 C 250.025 3.3487 0.920836 0
M  V30 2471 C 248.979 4.27414 0.223958 0
M  V30 2472 C 248.305 5.19074 1.2832 0
M  V30 2473 C 249.605 5.14445 -0.90242 0
M  V30 2474 H 251.299 2.88819 -0.788921 0
M  V30 2475 H 248.845 1.38873 -0.38083 0
M  V30 2476 H 250.798 3.97787 1.39081 0
M  V30 2477 H 249.522 2.77861 1.71642 0
M  V30 2478 H 248.181 3.65904 -0.225864 0
M  V30 2479 H 247.829 4.58387 2.071 0
M  V30 2480 H 247.529 5.81822 0.821995 0
M  V30 2481 H 249.053 5.84867 1.75392 0
M  V30 2482 H 250.467 5.70998 -0.513272 0
M  V30 2483 H 248.864 5.86072 -1.28997 0
M  V30 2484 H 249.934 4.52322 -1.74737 0
M  V30 2485 N 251.277 0.427512 1.51691 0
M  V30 2486 C 252.525 -0.141948 2.01601 0
M  V30 2487 C 252.846 -1.44067 1.31414 0
M  V30 2488 O 252.116 -1.90763 0.445658 0
M  V30 2489 H 250.696 -0.0554468 0.744939 0
M  V30 2490 H 253.358 0.567968 1.86441 0
M  V30 2491 H 252.454 -0.324913 3.10404 0
M  V30 2492 N 252.755 -1.56801 0.158532 0
M  V30 2493 C 253.983 -2.00859 -0.496303 0
M  V30 2494 C 254.398 -1.03871 -1.57659 0
M  V30 2495 O 253.755 -0.0375165 -1.82461 0
M  V30 2496 C 253.806 -3.4479 -1.08638 0
M  V30 2497 O 253.527 -4.38072 -0.0492322 0
M  V30 2498 C 255.028 -4.04185 -1.8207 0
M  V30 2499 H 252.248 -0.65864 -0.128199 0
M  V30 2500 H 254.792 -2.02885 0.256506 0
M  V30 2501 H 252.947 -3.43579 -1.78975 0
M  V30 2502 H 253.361 -5.2227 -0.483102 0
M  V30 2503 H 254.835 -5.06857 -2.18633 0
M  V30 2504 H 255.312 -3.45549 -2.71095 0
M  V30 2505 H 255.918 -4.0906 -1.16405 0
M  V30 2506 N 254.233 0.115231 -1.57178 0
M  V30 2507 C 255.51 0.852873 -1.76027 0
M  V30 2508 C 255.89 1.97892 -0.73498 0
M  V30 2509 O 255.238 2.27232 0.24036 0
M  V30 2510 C 255.448 1.36608 -3.21153 0
M  V30 2511 C 256.796 1.81692 -3.83762 0
M  V30 2512 O 257.82 1.46278 -3.24779 0
M  V30 2513 O 256.679 2.47104 -4.87444 0
M  V30 2514 H 253.773 0.405296 -0.720877 0
M  V30 2515 H 256.319 0.0986785 -1.69413 0
M  V30 2516 H 255.091 0.558357 -3.87296 0
M  V30 2517 H 254.714 2.18287 -3.3232 0
M  V30 2518 N 255.711 1.52812 0.385517 0
M  V30 2519 C 257.127 1.4214 0.725829 0
M  V30 2520 C 257.327 0.544589 1.94001 0
M  V30 2521 O 256.383 0.0193693 2.52493 0
M  V30 2522 C 257.696 2.85042 0.957668 0
M  V30 2523 C 259.244 2.94543 1.05892 0
M  V30 2524 C 259.719 4.38464 1.32337 0
M  V30 2525 N 261.21 4.41804 1.39151 0
M  V30 2526 C 261.945 5.5025 1.61285 0
M  V30 2527 N 261.441 6.68775 1.80866 0
M  V30 2528 N 263.234 5.37798 1.63492 0
M  V30 2529 H 255.385 2.08338 -0.413383 0
M  V30 2530 H 257.648 0.940016 -0.122775 0
M  V30 2531 H 257.354 3.51431 0.137568 0
M  V30 2532 H 257.228 3.27505 1.87137 0
M  V30 2533 H 259.615 2.28321 1.86959 0
M  V30 2534 H 259.696 2.55504 0.123057 0
M  V30 2535 H 259.34 5.05254 0.517793 0
M  V30 2536 H 259.27 4.75059 2.27214 0
M  V30 2537 H 261.761 3.56377 1.25713 0
M  V30 2538 H 262.074 7.47197 1.97271 0
M  V30 2539 H 260.419 6.71797 1.78083 0
M  V30 2540 H 263.61 4.44171 1.47749 0
M  V30 2541 H 263.783 6.22382 1.80402 0
M  V30 2542 N 257.189 -0.644168 1.43834 0
M  V30 2543 C 258.438 -1.39985 1.45214 0
M  V30 2544 C 258.751 -1.95421 0.0835494 0
M  V30 2545 O 259.957 -2.71488 -0.0251748 0
M  V30 2546 C 258.413 -2.53384 2.55587 0
M  V30 2547 C 258.021 -2.04517 3.98594 0
M  V30 2548 C 259.765 -3.30685 2.66172 0
M  V30 2549 C 257.672 -3.1518 5.00416 0
M  V30 2550 H 256.602 -0.526005 0.540218 0
M  V30 2551 H 259.253 -0.694367 1.69855 0
M  V30 2552 H 257.635 -3.26446 2.24163 0
M  V30 2553 H 258.809 -1.38405 4.39523 0
M  V30 2554 H 257.124 -1.40068 3.92135 0
M  V30 2555 H 259.721 -4.13158 3.39418 0
M  V30 2556 H 260.064 -3.79312 1.71546 0
M  V30 2557 H 260.597 -2.64708 2.96942 0
M  V30 2558 H 257.336 -2.71511 5.96625 0
M  V30 2559 H 256.856 -3.79974 4.64091 0
M  V30 2560 H 258.535 -3.80166 5.23529 0
M  V30 2561 N 258.668 -1.30515 -0.883378 0
M  V30 2562 C 260.084 -1.08881 -1.16692 0
M  V30 2563 C 260.284 0.149409 -2.00945 0
M  V30 2564 O 259.34 0.84257 -2.38027 0
M  V30 2565 C 260.653 -2.35319 -1.87204 0
M  V30 2566 C 262.201 -2.40799 -1.99962 0
M  V30 2567 C 262.676 -3.67083 -2.73887 0
M  V30 2568 N 264.167 -3.679 -2.81432 0
M  V30 2569 C 264.902 -4.62303 -3.3921 0
M  V30 2570 N 264.398 -5.67052 -3.98025 0
M  V30 2571 N 266.191 -4.49845 -3.3704 0
M  V30 2572 H 258.342 -2.09951 -0.321633 0
M  V30 2573 H 260.605 -0.92556 -0.205043 0
M  V30 2574 H 260.311 -3.25689 -1.3274 0
M  V30 2575 H 260.185 -2.44089 -2.87577 0
M  V30 2576 H 262.572 -1.50907 -2.53597 0
M  V30 2577 H 262.653 -2.36003 -0.98673 0
M  V30 2578 H 262.297 -4.57334 -2.20925 0
M  V30 2579 H 262.227 -3.69141 -3.75556 0
M  V30 2580 H 264.718 -2.92171 -2.39676 0
M  V30 2581 H 265.031 -6.35184 -4.40183 0
M  V30 2582 H 263.376 -5.70842 -3.96439 0
M  V30 2583 H 266.567 -3.67194 -2.90321 0
M  V30 2584 H 266.74 -5.23597 -3.81772 0
M  V30 2585 N 260.146 1.09593 -1.13257 0
M  V30 2586 C 261.392 1.82003 -0.89458 0
M  V30 2587 C 261.725 1.85402 0.577906 0
M  V30 2588 O 261 1.32099 1.42759 0
M  V30 2589 C 261.283 3.28237 -1.48096 0
M  V30 2590 C 261.136 3.3312 -3.02244 0
M  V30 2591 C 262.455 4.24871 -1.14774 0
M  V30 2592 H 259.574 0.66077 -0.326424 0
M  V30 2593 H 262.216 1.28389 -1.40058 0
M  V30 2594 H 260.366 3.74024 -1.05062 0
M  V30 2595 H 262.038 2.95748 -3.54021 0
M  V30 2596 H 260.281 2.72756 -3.37323 0
M  V30 2597 H 260.952 4.3613 -3.38371 0
M  V30 2598 H 263.428 3.87361 -1.51957 0
M  V30 2599 H 262.304 5.25532 -1.58452 0
M  V30 2600 H 262.565 4.42058 -0.0611849 0
M  V30 2601 N 261.624 0.925811 1.2754 0
M  V30 2602 C 262.572 0.413897 2.28888 0
M  V30 2603 C 263.566 -0.500779 1.61829 0
M  V30 2604 O 264.772 -0.38069 1.75928 0
M  V30 2605 H 261.147 0.115274 0.743112 0
M  V30 2606 H 263.118 1.28151 2.69481 0
M  V30 2607 C 261.867 -0.319792 3.46226 0
M  V30 2608 H 261.19 0.374846 3.98039 0
M  V30 2609 H 262.63 -0.642435 4.19105 0
M  V30 2610 C 261.089 -1.53209 3.00048 0
M  V30 2611 O 261.619 -2.6309 3.03557 0
M  V30 2612 N 259.825 -1.38326 2.55566 0
M  V30 2613 H 259.372 -0.489292 2.5291 0
M  V30 2614 H 259.33 -2.19564 2.25031 0
M  V30 2615 N 263.102 -1.41638 0.69111 0
M  V30 2616 C 264.327 -2.06148 0.227583 0
M  V30 2617 C 264.752 -1.51652 -1.11281 0
M  V30 2618 O 264.11 -0.64164 -1.69566 0
M  V30 2619 C 264.158 -3.60095 0.190858 0
M  V30 2620 O 263.262 -4.03845 -0.835664 0
M  V30 2621 H 262.603 -0.654434 0.112306 0
M  V30 2622 H 265.133 -1.81484 0.944714 0
M  V30 2623 H 265.143 -4.07995 0.020207 0
M  V30 2624 H 263.818 -3.99129 1.16915 0
M  V30 2625 H 262.395 -3.67458 -0.63473 0
M  V30 2626 N 264.58 -0.43555 -1.51462 0
M  V30 2627 C 265.826 0.131709 -2.02372 0
M  V30 2628 C 266.159 1.42516 -1.3192 0
M  V30 2629 O 265.434 1.89606 -0.433573 0
M  V30 2630 C 265.717 0.352301 -3.58373 0
M  V30 2631 C 265.57 -0.959676 -4.39443 0
M  V30 2632 C 266.889 1.12286 -4.25535 0
M  V30 2633 H 264.008 0.0463936 -0.735538 0
M  V30 2634 H 266.65 -0.574197 -1.81116 0
M  V30 2635 H 264.8 0.9536 -3.76615 0
M  V30 2636 H 266.472 -1.59482 -4.32855 0
M  V30 2637 H 264.715 -1.56468 -4.04599 0
M  V30 2638 H 265.386 -0.759394 -5.46752 0
M  V30 2639 H 267.862 0.613545 -4.11552 0
M  V30 2640 H 266.738 1.24598 -5.34571 0
M  V30 2641 H 266.999 2.15048 -3.86273 0
M  V30 2642 N 266.058 1.56714 -0.166846 0
M  V30 2643 C 267.008 2.14338 0.777382 0
M  V30 2644 C 267.992 1.07642 1.19591 0
M  V30 2645 O 269.184 1.33775 1.15902 0
M  V30 2646 C 266.313 2.78417 2.00846 0
M  V30 2647 C 265.399 3.92264 1.61212 0
M  V30 2648 N 265.79 4.97268 0.925104 0
M  V30 2649 C 264.088 4.03342 1.90346 0
M  V30 2650 C 264.789 5.77093 0.730627 0
M  V30 2651 N 263.765 5.2854 1.27067 0
M  V30 2652 H 267.567 2.9289 0.243466 0
M  V30 2653 H 265.081 1.62364 0.0339954 0
M  V30 2654 H 267.078 3.18073 2.69509 0
M  V30 2655 H 265.738 2.01344 2.54736 0
M  V30 2656 H 266.749 5.14601 0.583646 0
M  V30 2657 H 263.426 3.37368 2.45946 0
M  V30 2658 H 264.816 6.71638 0.187668 0
M  V30 2659 N 267.536 -0.106894 1.57237 0
M  V30 2660 C 268.947 -0.662723 1.74542 0
M  V30 2661 C 269.298 -1.7971 0.787319 0
M  V30 2662 O 268.423 -2.16368 -0.0369636 0
M  V30 2663 C 269.018 -1.20896 3.16496 0
M  V30 2664 C 267.577 -1.71096 3.35266 0
M  V30 2665 C 266.724 -0.615642 2.7038 0
M  V30 2666 H 269.675 0.119106 1.58252 0
M  V30 2667 H 269.696 -2.07847 3.18716 0
M  V30 2668 H 269.208 -0.383122 3.86204 0
M  V30 2669 H 267.309 -2.56119 2.70618 0
M  V30 2670 H 267.422 -1.81208 4.43509 0
M  V30 2671 H 265.786 -1.05222 2.31949 0
M  V30 2672 H 266.569 0.199419 3.4272 0
M  V30 2673 N 269.014 -1.53014 -0.377408 0
M  V30 2674 C 270.262 -1.6829 -1.11906 0
M  V30 2675 C 270.583 -0.431206 -1.90173 0
M  V30 2676 O 269.853 0.554595 -1.87886 0
M  V30 2677 H 268.433 -0.620371 -0.416112 0
M  V30 2678 H 271.095 -1.90167 -0.426893 0
M  V30 2679 H 270.191 -2.53862 -1.8155 0
M  V30 2680 N 270.492 0.636531 -1.44174 0
M  V30 2681 C 271.425 1.76139 -1.45087 0
M  V30 2682 C 272.403 1.59611 -0.310326 0
M  V30 2683 O 273.587 1.81568 -0.506477 0
M  V30 2684 C 270.714 3.13648 -1.27839 0
M  V30 2685 C 269.76 3.48838 -2.45386 0
M  V30 2686 S 270.593 3.46927 -4.07924 0
M  V30 2687 C 271.749 4.87064 -3.9309 0
M  V30 2688 H 271.982 1.75096 -2.40268 0
M  V30 2689 H 269.515 0.810666 -1.31406 0
M  V30 2690 H 271.473 3.93002 -1.18575 0
M  V30 2691 H 270.134 3.12235 -0.341787 0
M  V30 2692 H 269.327 4.48886 -2.29167 0
M  V30 2693 H 268.929 2.76935 -2.51362 0
M  V30 2694 H 271.221 5.76153 -3.56446 0
M  V30 2695 H 272.164 5.08337 -4.92949 0
M  V30 2696 H 272.572 4.61384 -3.25246 0
M  V30 2697 N 271.97 1.30982 0.876444 0
M  V30 2698 C 273.198 1.23242 1.6619 0
M  V30 2699 C 273.613 -0.203345 1.87702 0
M  V30 2700 O 272.97 -1.13317 1.43057 0
M  V30 2701 C 273.021 1.96623 3.03351 0
M  V30 2702 O 272.742 3.34594 2.82804 0
M  V30 2703 C 274.243 1.95644 3.97792 0
M  V30 2704 H 271.463 0.426126 0.518322 0
M  V30 2705 H 274.007 1.7275 1.09442 0
M  V30 2706 H 272.162 1.50892 3.56806 0
M  V30 2707 H 272.576 3.71873 3.69879 0
M  V30 2708 H 274.05 2.51511 4.91372 0
M  V30 2709 H 274.527 0.937395 4.2908 0
M  V30 2710 H 275.133 2.41225 3.50272 0
M  V30 2711 N 273.449 -1.08991 1.13837 0
M  V30 2712 C 274.679 -1.84743 0.924859 0
M  V30 2713 C 275.087 -1.81629 -0.529874 0
M  V30 2714 O 274.43 -1.21397 -1.37872 0
M  V30 2715 C 274.492 -3.33568 1.34061 0
M  V30 2716 C 274.156 -3.60425 2.80968 0
M  V30 2717 C 275.153 -3.55771 3.79108 0
M  V30 2718 C 272.838 -3.88627 3.18236 0
M  V30 2719 C 274.832 -3.78939 5.12527 0
M  V30 2720 C 272.519 -4.11449 4.51833 0
M  V30 2721 C 273.517 -4.06598 5.48787 0
M  V30 2722 O 273.205 -4.28826 6.79973 0
M  V30 2723 H 272.937 -0.590258 0.329502 0
M  V30 2724 H 275.491 -1.38598 1.51591 0
M  V30 2725 H 273.721 -3.80442 0.692853 0
M  V30 2726 H 275.41 -3.90743 1.09886 0
M  V30 2727 H 276.176 -3.34005 3.51661 0
M  V30 2728 H 272.055 -3.91526 2.43369 0
M  V30 2729 H 275.599 -3.75068 5.88192 0
M  V30 2730 H 271.496 -4.32698 4.79002 0
M  V30 2731 H 272.264 -4.46264 6.86142 0
M  V30 2732 N 274.927 -0.932562 -1.27047 0
M  V30 2733 C 276.155 -0.592031 -1.98249 0
M  V30 2734 C 276.57 0.831062 -1.69525 0
M  V30 2735 O 275.927 1.55299 -0.958561 0
M  V30 2736 C 275.978 -0.814279 -3.5221 0
M  V30 2737 O 275.699 -2.18139 -3.7993 0
M  V30 2738 C 277.2 -0.483121 -4.4066 0
M  V30 2739 H 274.42 -0.223896 -0.632544 0
M  V30 2740 H 276.964 -1.25091 -1.61779 0
M  V30 2741 H 275.119 -0.20213 -3.86872 0
M  V30 2742 H 275.533 -2.235 -4.74498 0
M  V30 2743 H 277.007 -0.689298 -5.47679 0
M  V30 2744 H 277.484 0.581546 -4.35333 0
M  V30 2745 H 278.09 -1.07362 -4.11526 0
M  V30 2746 N 276.405 1.4127 -0.698611 0
M  V30 2747 C 277.816 1.84187 -0.305289 0
M  V30 2748 C 278.167 1.58449 1.15708 0
M  V30 2749 O 277.292 1.05651 1.88856 0
M  V30 2750 C 277.887 3.3435 -0.547314 0
M  V30 2751 C 276.446 3.75826 -0.207878 0
M  V30 2752 C 275.593 2.64647 -0.828099 0
M  V30 2753 H 278.544 1.30778 -0.89904 0
M  V30 2754 H 278.565 3.8001 0.192998 0
M  V30 2755 H 278.077 3.53051 -1.61172 0
M  V30 2756 H 276.178 3.62725 0.852143 0
M  V30 2757 H 276.291 4.74462 -0.665021 0
M  V30 2758 H 274.655 2.53395 -0.257458 0
M  V30 2759 H 275.438 2.86165 -1.89643 0
M  V30 2760 N 277.883 0.443576 1.51229 0
M  V30 2761 C 278.816 -0.410089 2.24485 0
M  V30 2762 C 279.794 -1.01949 1.26669 0
M  V30 2763 O 280.978 -1.06075 1.55821 0
M  V30 2764 C 278.105 -1.57211 3.00004 0
M  V30 2765 C 277.151 -1.08279 4.12526 0
M  V30 2766 S 277.984 -0.0197476 5.35496 0
M  V30 2767 C 279.14 -1.18629 6.14555 0
M  V30 2768 H 279.373 0.211832 2.96544 0
M  V30 2769 H 276.906 0.228156 1.52705 0
M  V30 2770 H 278.864 -2.23825 3.44111 0
M  V30 2771 H 277.525 -2.16547 2.27522 0
M  V30 2772 H 276.718 -1.95193 4.64667 0
M  V30 2773 H 276.32 -0.494797 3.70713 0
M  V30 2774 H 278.612 -2.10344 6.4402 0
M  V30 2775 H 279.555 -0.70472 7.04584 0
M  V30 2776 H 279.963 -1.42768 5.46148 0
M  V30 2777 N 279.361 -1.56624 0.175154 0
M  V30 2778 C 280.589 -2.01374 -0.474971 0
M  V30 2779 C 281.004 -1.05537 -1.56548 0
M  V30 2780 O 280.361 -0.0568668 -1.82411 0
M  V30 2781 C 280.412 -3.45923 -1.04975 0
M  V30 2782 O 280.133 -4.381 -0.00276605 0
M  V30 2783 C 281.634 -4.06093 -1.77773 0
M  V30 2784 H 278.854 -0.659962 -0.121206 0
M  V30 2785 H 281.398 -2.02601 0.27801 0
M  V30 2786 H 279.553 -3.45458 -1.75321 0
M  V30 2787 H 279.967 -5.22753 -0.427681 0
M  V30 2788 H 281.441 -5.09147 -2.13245 0
M  V30 2789 H 281.918 -3.48405 -2.67414 0
M  V30 2790 H 282.524 -4.10272 -1.12059 0
M  V30 2791 N 280.839 0.0985539 -1.57292 0
M  V30 2792 C 281.802 1.10402 -2.00858 0
M  V30 2793 C 282.802 1.33146 -0.901593 0
M  V30 2794 O 283.992 1.29318 -1.16716 0
M  V30 2795 C 281.124 2.45394 -2.36632 0
M  V30 2796 H 282.317 0.729099 -2.90902 0
M  V30 2797 H 279.87 0.343495 -1.52479 0
M  V30 2798 H 280.605 2.87769 -1.49531 0
M  V30 2799 H 280.39 2.30235 -3.17387 0
M  V30 2800 H 281.88 3.17718 -2.71007 0
M  V30 2801 N 282.317 1.53212 0.369288 0
M  V30 2802 C 283.227 1.82342 1.47609 0
M  V30 2803 C 284.243 0.711532 1.58787 0
M  V30 2804 O 285.419 1.0012 1.74751 0
M  V30 2805 C 282.484 2.00393 2.8292 0
M  V30 2806 C 281.545 3.24297 2.81301 0
M  V30 2807 C 280.778 3.41478 4.10157 0
M  V30 2808 O 281.001 2.63033 5.06132 0
M  V30 2809 O 279.935 4.34817 4.16194 0
M  V30 2810 H 283.761 2.76366 1.25918 0
M  V30 2811 H 281.346 1.38547 0.559034 0
M  V30 2812 H 283.228 2.13859 3.63101 0
M  V30 2813 H 281.903 1.09559 3.04596 0
M  V30 2814 H 280.81 3.16257 1.99831 0
M  V30 2815 H 282.143 4.15041 2.64578 0
M  V30 2816 N 283.795 -0.628877 1.44509 0
M  V30 2817 C 285.023 -1.41554 1.50897 0
M  V30 2818 C 285.438 -1.8832 0.134564 0
M  V30 2819 O 284.795 -1.60969 -0.859965 0
M  V30 2820 C 284.846 -2.63435 2.47556 0
M  V30 2821 O 284.567 -2.18619 3.79654 0
M  V30 2822 C 286.068 -3.56537 2.63431 0
M  V30 2823 H 283.288 -0.434044 0.511709 0
M  V30 2824 H 285.832 -0.768895 1.89495 0
M  V30 2825 H 283.987 -3.24187 2.12089 0
M  V30 2826 H 284.401 -2.97652 4.31861 0
M  V30 2827 H 285.875 -4.38657 3.35088 0
M  V30 2828 H 286.352 -4.05493 1.68738 0
M  V30 2829 H 286.958 -3.01653 2.9981 0
M  V30 2830 N 285.273 -1.31445 -0.869486 0
M  V30 2831 C 286.521 -1.20918 -1.61936 0
M  V30 2832 C 286.842 0.232683 -1.93607 0
M  V30 2833 O 286.112 1.15352 -1.58338 0
M  V30 2834 H 284.692 -0.44454 -0.600328 0
M  V30 2835 H 287.354 -1.64776 -1.0409 0
M  V30 2836 H 286.45 -1.78124 -2.56278 0
M  V30 2837 N 286.751 1.08385 -1.14413 0
M  V30 2838 C 288 1.80153 -0.907076 0
M  V30 2839 C 288.313 1.87176 0.567851 0
M  V30 2840 O 289.519 2.55359 0.922172 0
M  V30 2841 C 287.975 3.23687 -1.57336 0
M  V30 2842 C 287.583 3.24897 -3.08457 0
M  V30 2843 C 289.327 4.00136 -1.41744 0
M  V30 2844 C 287.234 4.6302 -3.67921 0
M  V30 2845 H 286.164 0.675139 -0.335714 0
M  V30 2846 H 288.815 1.21733 -1.37307 0
M  V30 2847 H 287.197 3.82234 -1.03505 0
M  V30 2848 H 288.371 2.76055 -3.68958 0
M  V30 2849 H 286.686 2.61943 -3.2369 0
M  V30 2850 H 289.283 5.02201 -1.83572 0
M  V30 2851 H 289.626 4.14709 -0.363576 0
M  V30 2852 H 290.159 3.48058 -1.92614 0
M  V30 2853 H 286.898 4.5365 -4.73161 0
M  V30 2854 H 286.418 5.12143 -3.12201 0
M  V30 2855 H 288.097 5.31994 -3.68227 0
M  V30 2856 N 288.23 0.939286 1.26551 0
M  V30 2857 C 289.646 0.641304 1.46149 0
M  V30 2858 C 289.846 -0.805964 1.84679 0
M  V30 2859 O 288.902 -1.58278 1.96734 0
M  V30 2860 C 290.215 1.6011 2.54529 0
M  V30 2861 C 291.763 1.6106 2.68382 0
M  V30 2862 C 292.238 2.55765 3.79932 0
M  V30 2863 N 293.729 2.5404 3.87322 0
M  V30 2864 C 294.464 3.24004 4.73085 0
M  V30 2865 N 293.96 4.03388 5.63249 0
M  V30 2866 N 295.753 3.12965 4.66914 0
M  V30 2867 H 287.904 1.87478 0.998285 0
M  V30 2868 H 290.167 0.805559 0.499779 0
M  V30 2869 H 289.873 2.63412 2.33039 0
M  V30 2870 H 289.747 1.35171 3.52149 0
M  V30 2871 H 292.134 0.584835 2.89247 0
M  V30 2872 H 292.215 1.90053 1.71212 0
M  V30 2873 H 291.859 3.58458 3.5982 0
M  V30 2874 H 291.789 2.24063 4.76554 0
M  V30 2875 H 294.28 1.96396 3.22858 0
M  V30 2876 H 294.593 4.5373 6.25579 0
M  V30 2877 H 292.938 4.07489 5.63008 0
M  V30 2878 H 296.129 2.50432 3.95476 0
M  V30 2879 H 296.302 3.67759 5.33533 0
M  V30 2880 N 289.708 -1.40897 0.706093 0
M  V30 2881 C 290.64 -2.29199 0.00815776 0
M  V30 2882 C 291.653 -1.45336 -0.733582 0
M  V30 2883 O 292.842 -1.68727 -0.582537 0
M  V30 2884 C 289.942 -3.23417 -1.01265 0
M  V30 2885 C 289.115 -4.36089 -0.338387 0
M  V30 2886 C 288.174 -5.10811 -1.26326 0
M  V30 2887 O 287.2 -5.64215 -0.751651 0
M  V30 2888 N 288.402 -5.19269 -2.595 0
M  V30 2889 H 291.167 -2.89738 0.766297 0
M  V30 2890 H 288.728 -1.52164 0.55296 0
M  V30 2891 H 290.72 -3.70276 -1.63334 0
M  V30 2892 H 289.29 -2.64112 -1.67223 0
M  V30 2893 H 288.51 -3.91479 0.462352 0
M  V30 2894 H 289.798 -5.08634 0.130031 0
M  V30 2895 H 289.196 -4.77347 -3.03573 0
M  V30 2896 H 287.753 -5.69667 -3.16737 0
M  V30 2897 N 291.186 -0.45159 -1.50991 0
M  V30 2898 C 292.434 0.109857 -2.01801 0
M  V30 2899 C 292.755 1.41958 -1.3369 0
M  V30 2900 O 292.025 1.9003 -0.475951 0
M  V30 2901 H 290.605 0.0435884 -0.745727 0
M  V30 2902 H 293.267 -0.597557 -1.85514 0
M  V30 2903 H 292.363 0.275489 -3.10882 0
M  V30 2904 N 292.664 1.56529 -0.183458 0
M  V30 2905 C 293.574 2.22144 0.754272 0
M  V30 2906 C 294.59 1.21684 1.24374 0
M  V30 2907 O 295.766 1.54385 1.29333 0
M  V30 2908 C 292.831 2.85884 1.96141 0
M  V30 2909 C 291.892 4.01579 1.51765 0
M  V30 2910 C 291.125 4.6227 2.66725 0
M  V30 2911 O 291.348 4.21865 3.83909 0
M  V30 2912 O 290.282 5.51936 2.40104 0
M  V30 2913 H 294.108 3.02861 0.225527 0
M  V30 2914 H 291.693 1.49331 0.0453032 0
M  V30 2915 H 293.575 3.26253 2.66715 0
M  V30 2916 H 292.25 2.08154 2.47899 0
M  V30 2917 H 291.157 3.65856 0.781049 0
M  V30 2918 H 292.49 4.80938 1.04686 0
M  V30 2919 N 294.142 -0.090211 1.57342 0
M  V30 2920 C 295.39 -0.791241 1.85967 0
M  V30 2921 C 295.711 -1.7903 0.772859 0
M  V30 2922 O 294.981 -1.94872 -0.200398 0
M  V30 2923 H 293.561 -0.295205 0.686195 0
M  V30 2924 H 296.223 -0.0706782 1.94772 0
M  V30 2925 H 295.319 -1.31882 2.82867 0
M  V30 2926 N 295.62 -1.53406 -0.361157 0
M  V30 2927 C 296.568 -1.80832 -1.46296 0
M  V30 2928 C 297.562 -0.677699 -1.55253 0
M  V30 2929 O 298.768 -0.860723 -1.58087 0
M  V30 2930 H 295.143 -0.572627 -0.487445 0
M  V30 2931 H 297.114 -2.73045 -1.20371 0
M  V30 2932 C 295.863 -2.01907 -2.8307 0
M  V30 2933 H 295.186 -2.88349 -2.76938 0
M  V30 2934 H 296.626 -2.25072 -3.59331 0
M  V30 2935 C 295.085 -0.799449 -3.27277 0
M  V30 2936 O 295.615 0.00971761 -4.01699 0
M  V30 2937 N 293.821 -0.621637 -2.83873 0
M  V30 2938 H 293.368 -1.28126 -2.23476 0
M  V30 2939 H 293.326 0.19298 -3.13807 0
M  V30 2940 N 297.098 0.621204 -1.44841 0
M  V30 2941 C 298.328 1.40548 -1.51426 0
M  V30 2942 C 298.736 1.88673 -0.141083 0
M  V30 2943 O 298.079 1.62053 0.865128 0
M  V30 2944 C 298.141 2.65325 -2.42576 0
M  V30 2945 C 297.805 2.3893 -3.89566 0
M  V30 2946 C 298.802 2.00138 -4.79834 0
M  V30 2947 C 296.487 2.52263 -4.3436 0
M  V30 2948 C 298.481 1.75021 -6.129 0
M  V30 2949 C 296.168 2.2676 -5.67471 0
M  V30 2950 C 297.166 1.88199 -6.56559 0
M  V30 2951 O 296.854 1.62986 -7.87204 0
M  V30 2952 H 296.586 0.437122 -0.515655 0
M  V30 2953 H 299.14 0.765987 -1.90583 0
M  V30 2954 H 297.37 3.31947 -1.98364 0
M  V30 2955 H 299.059 3.27347 -2.39998 0
M  V30 2956 H 299.825 1.89386 -4.46495 0
M  V30 2957 H 295.704 2.81246 -3.65269 0
M  V30 2958 H 299.248 1.44848 -6.82396 0
M  V30 2959 H 295.145 2.37125 -6.00368 0
M  V30 2960 H 295.913 1.7715 -7.991 0
M  V30 2961 N 298.576 1.31904 0.862503 0
M  V30 2962 C 299.987 1.19803 1.43193 0
M  V30 2963 C 300.338 -0.192567 1.95253 0
M  V30 2964 O 299.463 -1.09081 1.86896 0
M  V30 2965 C 300.058 2.16883 2.60283 0
M  V30 2966 C 298.617 2.08692 3.13248 0
M  V30 2967 C 297.764 2.05691 1.85975 0
M  V30 2968 H 300.715 1.43846 0.670365 0
M  V30 2969 H 300.736 1.76278 3.37204 0
M  V30 2970 H 300.248 3.18083 2.22363 0
M  V30 2971 H 298.349 1.10713 3.55771 0
M  V30 2972 H 298.462 2.9815 3.75025 0
M  V30 2973 H 296.826 1.50814 2.05249 0
M  V30 2974 H 297.609 3.08659 1.50282 0
M  V30 2975 N 300.054 -1.07777 1.14986 0
M  V30 2976 C 301.002 -2.16964 0.838406 0
M  V30 2977 C 301.996 -1.68372 -0.186386 0
M  V30 2978 O 303.202 -1.79951 -0.0418465 0
M  V30 2979 H 299.577 -0.708006 0.253439 0
M  V30 2980 H 301.548 -2.40454 1.76704 0
M  V30 2981 C 300.297 -3.4604 0.339335 0
M  V30 2982 H 299.62 -3.83813 1.11927 0
M  V30 2983 H 301.06 -4.23698 0.160021 0
M  V30 2984 C 299.519 -3.23569 -0.938325 0
M  V30 2985 O 300.049 -3.47752 -2.01077 0
M  V30 2986 N 298.255 -2.77079 -0.876117 0
M  V30 2987 H 297.802 -2.576 -0.00322037 0
M  V30 2988 H 297.76 -2.62422 -1.73153 0
M  V30 2989 N 301.532 -0.945985 -1.26051 0
M  V30 2990 C 302.76 -0.613025 -1.9761 0
M  V30 2991 C 303.175 0.813035 -1.70397 0
M  V30 2992 O 302.532 1.54274 -0.974979 0
M  V30 2993 C 302.583 -0.85159 -3.51326 0
M  V30 2994 O 302.304 -2.22157 -3.77595 0
M  V30 2995 C 303.805 -0.529831 -4.40122 0
M  V30 2996 H 301.025 -0.230593 -0.630133 0
M  V30 2997 H 303.569 -1.268 -1.60443 0
M  V30 2998 H 301.724 -0.243151 -3.86636 0
M  V30 2999 H 302.138 -2.2852 -4.721 0
M  V30 3000 H 303.612 -0.747348 -5.46917 0
M  V30 3001 H 304.089 0.535341 -4.35925 0
M  V30 3002 H 304.695 -1.11721 -4.10364 0
M  V30 3003 N 303.011 1.40521 -0.713556 0
M  V30 3004 C 304.422 1.83853 -0.324807 0
M  V30 3005 C 304.773 1.59667 1.14021 0
M  V30 3006 O 303.898 1.07649 1.87725 0
M  V30 3007 C 304.493 3.33751 -0.582746 0
M  V30 3008 C 303.052 3.75584 -0.247727 0
M  V30 3009 C 302.199 2.63753 -0.856121 0
M  V30 3010 H 305.15 1.29817 -0.91286 0
M  V30 3011 H 305.171 3.80194 0.152682 0
M  V30 3012 H 304.683 3.51322 -1.64908 0
M  V30 3013 H 302.784 3.63608 0.813624 0
M  V30 3014 H 302.897 4.7373 -0.715307 0
M  V30 3015 H 301.261 2.53108 -0.28432 0
M  V30 3016 H 302.044 2.84137 -1.92668 0
M  V30 3017 N 304.489 0.459591 1.5075 0
M  V30 3018 C 305.422 -0.386257 2.24907 0
M  V30 3019 C 306.4 -1.006 1.27744 0
M  V30 3020 O 307.584 -1.04416 1.56938 0
M  V30 3021 C 304.711 -1.54021 3.01654 0
M  V30 3022 C 303.757 -1.03898 4.13651 0
M  V30 3023 S 304.59 0.0370501 5.35487 0
M  V30 3024 C 305.746 -1.12105 6.15779 0
M  V30 3025 H 305.979 0.243272 2.96303 0
M  V30 3026 H 303.512 0.244339 1.52454 0
M  V30 3027 H 305.47 -2.20163 3.46466 0
M  V30 3028 H 304.131 -2.14121 2.29806 0
M  V30 3029 H 303.324 -1.90254 4.66711 0
M  V30 3030 H 302.926 -0.45545 3.71216 0
M  V30 3031 H 305.218 -2.03501 6.46215 0
M  V30 3032 H 306.161 -0.62995 7.05292 0
M  V30 3033 H 306.569 -1.36967 5.47631 0
M  V30 3034 N 305.967 -1.56429 0.191757 0
M  V30 3035 C 307.215 -1.97095 -0.447006 0
M  V30 3036 C 307.536 -1.07967 -1.62383 0
M  V30 3037 O 306.806 -0.150248 -1.95323 0
M  V30 3038 H 305.386 -0.727832 -0.168135 0
M  V30 3039 H 308.048 -1.92911 0.27771 0
M  V30 3040 H 307.144 -3.01848 -0.793371 0
M  V30 3041 N 307.445 0.0818655 -1.57387 0
M  V30 3042 C 308.861 0.436412 -1.53517 0
M  V30 3043 C 309.061 1.79758 -0.910459 0
M  V30 3044 O 308.117 2.47324 -0.508636 0
M  V30 3045 C 309.43 0.386734 -2.98203 0
M  V30 3046 C 310.978 0.467644 -3.09487 0
M  V30 3047 C 311.453 0.447978 -4.55804 0
M  V30 3048 N 312.944 0.508348 -4.60402 0
M  V30 3049 C 313.679 0.515184 -5.71081 0
M  V30 3050 N 313.175 0.477435 -6.91153 0
M  V30 3051 N 314.968 0.560988 -5.59294 0
M  V30 3052 H 307.119 -0.809546 -1.96367 0
M  V30 3053 H 309.382 -0.302733 -0.898363 0
M  V30 3054 H 309.088 -0.546539 -3.47427 0
M  V30 3055 H 308.962 1.20075 -3.57578 0
M  V30 3056 H 311.349 1.39134 -2.60242 0
M  V30 3057 H 311.43 -0.374753 -2.5304 0
M  V30 3058 H 311.074 -0.471826 -5.05704 0
M  V30 3059 H 311.004 1.30777 -5.10103 0
M  V30 3060 H 313.495 0.54218 -3.7399 0
M  V30 3061 H 313.808 0.486299 -7.71268 0
M  V30 3062 H 312.153 0.444278 -6.93579 0
M  V30 3063 H 315.344 0.5881 -4.64391 0
M  V30 3064 H 315.517 0.562846 -6.45551 0
M  V30 3065 N 308.923 1.53595 0.353017 0
M  V30 3066 C 310.169 1.70638 1.09593 0
M  V30 3067 C 310.502 0.463286 1.88593 0
M  V30 3068 O 309.777 -0.539597 1.86865 0
M  V30 3069 C 310.06 2.96406 2.04489 0
M  V30 3070 C 309.913 4.30901 1.29014 0
M  V30 3071 C 311.232 3.17812 3.0444 0
M  V30 3072 H 308.351 0.620913 0.397034 0
M  V30 3073 H 310.993 1.86254 0.375446 0
M  V30 3074 H 309.143 2.83223 2.65927 0
M  V30 3075 H 310.815 4.55917 0.702638 0
M  V30 3076 H 309.058 4.29741 0.592071 0
M  V30 3077 H 309.729 5.1506 1.98537 0
M  V30 3078 H 312.205 3.30263 2.53112 0
M  V30 3079 H 311.081 4.07223 3.6805 0
M  V30 3080 H 311.342 2.33669 3.75301 0
M  V30 3081 N 310.401 -0.613514 1.45168 0
M  V30 3082 C 311.649 -1.36997 1.48581 0
M  V30 3083 C 311.97 -1.94589 0.126545 0
M  V30 3084 O 311.24 -1.76816 -0.843372 0
M  V30 3085 H 309.82 -0.508558 0.547154 0
M  V30 3086 H 312.482 -0.720853 1.81079 0
M  V30 3087 H 311.578 -2.1924 2.22127 0
M  V30 3088 N 311.879 -1.3236 -0.855495 0
M  V30 3089 C 312.827 -1.2118 -1.9854 0
M  V30 3090 C 313.821 -0.116788 -1.68997 0
M  V30 3091 O 315.027 -0.279657 -1.77814 0
M  V30 3092 H 311.402 -0.375608 -0.651477 0
M  V30 3093 H 313.373 -2.16743 -2.05098 0
M  V30 3094 C 312.122 -0.950849 -3.34446 0
M  V30 3095 H 311.445 -1.78563 -3.57708 0
M  V30 3096 H 312.885 -0.912863 -4.14057 0
M  V30 3097 C 311.344 0.346404 -3.35114 0
M  V30 3098 O 311.874 1.35855 -3.7803 0
M  V30 3099 N 310.08 0.36808 -2.88259 0
M  V30 3100 H 309.627 -0.456102 -2.5353 0
M  V30 3101 H 309.585 1.23591 -2.89089 0
M  V30 3102 N 313.357 1.07166 -1.15556 0
M  V30 3103 C 314.267 2.17947 -0.868116 0
M  V30 3104 C 315.283 1.73297 0.156297 0
M  V30 3105 O 316.459 2.01392 -0.0182327 0
M  V30 3106 C 313.524 3.44789 -0.36355 0
M  V30 3107 C 312.585 4.03996 -1.45209 0
M  V30 3108 C 311.818 5.24783 -0.971508 0
M  V30 3109 O 312.041 5.70109 0.182194 0
M  V30 3110 O 310.975 5.75715 -1.75603 0
M  V30 3111 H 314.801 2.4503 -1.79427 0
M  V30 3112 H 312.386 1.16539 -0.934824 0
M  V30 3113 H 314.268 4.21307 -0.0887113 0
M  V30 3114 H 312.943 3.19253 0.534708 0
M  V30 3115 H 311.85 3.29009 -1.78056 0
M  V30 3116 H 313.183 4.33808 -2.32533 0
M  V30 3117 N 314.835 0.952656 1.25548 0
M  V30 3118 C 316.246 0.647392 1.75116 0
M  V30 3119 C 316.597 -0.837274 1.77438 0
M  V30 3120 O 315.722 -1.65525 1.39393 0
M  V30 3121 C 316.317 1.16845 3.18014 0
M  V30 3122 C 314.876 0.913382 3.6515 0
M  V30 3123 C 314.023 1.31265 2.44264 0
M  V30 3124 H 316.974 1.12968 1.11462 0
M  V30 3125 H 316.995 0.527606 3.76824 0
M  V30 3126 H 316.507 2.24902 3.16292 0
M  V30 3127 H 314.608 -0.152316 3.72289 0
M  V30 3128 H 314.721 1.54845 4.53387 0
M  V30 3129 H 313.085 0.731028 2.43984 0
M  V30 3130 H 313.868 2.40239 2.45234 0
M  V30 3131 N 316.313 -1.40141 0.720998 0
M  V30 3132 C 317.561 -2.0039 0.262323 0
M  V30 3133 C 317.882 -1.57469 -1.15015 0
M  V30 3134 O 317.152 -0.816582 -1.78069 0
M  V30 3135 H 315.732 -0.741063 0.093996 0
M  V30 3136 H 318.394 -1.71398 0.927835 0
M  V30 3137 H 317.49 -3.10658 0.299671 0
M  V30 3138 N 317.792 -0.46758 -1.50504 0
M  V30 3139 C 318.702 0.33382 -2.32213 0
M  V30 3140 C 319.718 0.999323 -1.42441 0
M  V30 3141 O 320.894 0.988068 -1.75497 0
M  V30 3142 C 317.959 1.4035 -3.17022 0
M  V30 3143 C 317.02 0.754961 -4.2261 0
M  V30 3144 C 316.253 1.77367 -5.03365 0
M  V30 3145 O 316.476 2.99976 -4.8515 0
M  V30 3146 O 315.41 1.34744 -5.86624 0
M  V30 3147 H 319.236 -0.334067 -3.01857 0
M  V30 3148 H 316.821 -0.229496 -1.47627 0
M  V30 3149 H 318.703 2.02318 -3.69656 0
M  V30 3150 H 317.378 2.05492 -2.5011 0
M  V30 3151 H 316.285 0.0964244 -3.73976 0
M  V30 3152 H 317.618 0.146545 -4.91982 0
M  V30 3153 N 319.27 1.56325 -0.20005 0
M  V30 3154 C 320.519 1.96895 0.437652 0
M  V30 3155 C 320.832 1.08999 1.62415 0
M  V30 3156 O 322.038 1.39372 2.32997 0
M  V30 3157 C 320.494 3.50198 0.830025 0
M  V30 3158 C 320.102 4.46765 -0.332461 0
M  V30 3159 C 321.846 3.99526 1.43453 0
M  V30 3160 C 319.753 5.91344 0.0811468 0
M  V30 3161 H 318.683 0.735209 0.167282 0
M  V30 3162 H 321.334 1.81148 -0.292853 0
M  V30 3163 H 319.716 3.61467 1.61734 0
M  V30 3164 H 320.89 4.47231 -1.11 0
M  V30 3165 H 319.205 4.07657 -0.848789 0
M  V30 3166 H 321.802 5.05025 1.75652 0
M  V30 3167 H 322.145 3.44122 2.34277 0
M  V30 3168 H 322.678 3.91393 0.71109 0
M  V30 3169 H 319.417 6.50685 -0.793033 0
M  V30 3170 H 318.937 5.94121 0.823445 0
M  V30 3171 H 320.616 6.44945 0.515252 0
M  V30 3172 N 320.748 -0.0735177 1.57428 0
M  V30 3173 C 321.711 -1.07192 2.02589 0
M  V30 3174 C 322.711 -1.31695 0.922661 0
M  V30 3175 O 323.901 -1.27445 1.18758 0
M  V30 3176 C 321.033 -2.41599 2.40506 0
M  V30 3177 H 322.226 -0.682727 2.92025 0
M  V30 3178 H 319.779 -0.319193 1.53006 0
M  V30 3179 H 320.514 -2.85354 1.5409 0
M  V30 3180 H 320.299 -2.25156 3.21009 0
M  V30 3181 H 321.789 -3.13367 2.76027 0
M  V30 3182 N 322.226 -1.5378 -0.344866 0
M  V30 3183 C 323.474 -1.70625 -1.08311 0
M  V30 3184 C 323.795 -0.471447 -1.89215 0
M  V30 3185 O 323.065 0.514616 -1.8902 0
M  V30 3186 H 321.645 -0.629058 -0.402859 0
M  V30 3187 H 324.307 -1.9103 -0.386459 0
M  V30 3188 H 323.403 -2.57656 -1.76124 0
M  V30 3189 N 323.704 0.605807 -1.45491 0
M  V30 3190 C 324.667 1.69836 -1.5391 0
M  V30 3191 C 325.667 1.55261 -0.418424 0
M  V30 3192 O 326.857 1.60296 -0.681965 0
M  V30 3193 C 323.989 3.09117 -1.43734 0
M  V30 3194 H 325.182 1.63738 -2.51257 0
M  V30 3195 H 322.735 0.821689 -1.32959 0
M  V30 3196 H 323.47 3.20791 -0.475788 0
M  V30 3197 H 323.255 3.21104 -2.25021 0
M  V30 3198 H 324.745 3.88696 -1.52661 0
M  V30 3199 N 325.182 1.32811 0.848464 0
M  V30 3200 C 326.428 1.23907 1.60546 0
M  V30 3201 C 326.761 -0.197161 1.93197 0
M  V30 3202 O 326.036 -1.13596 1.5788 0
M  V30 3203 C 326.319 2.10489 2.92175 0
M  V30 3204 C 326.172 3.62522 2.66266 0
M  V30 3205 C 327.491 1.97075 3.93509 0
M  V30 3206 H 324.61 0.451459 0.58254 0
M  V30 3207 H 327.252 1.62818 0.979296 0
M  V30 3208 H 325.402 1.77434 3.45614 0
M  V30 3209 H 327.074 4.05821 2.19334 0
M  V30 3210 H 325.317 3.84879 2.00126 0
M  V30 3211 H 325.988 4.18437 3.6002 0
M  V30 3212 H 328.464 2.26045 3.49346 0
M  V30 3213 H 327.34 2.59923 4.83457 0
M  V30 3214 H 327.601 0.940186 4.31987 0
M  V30 3215 N 326.66 -1.06551 1.16123 0
M  V30 3216 C 327.906 -1.79567 0.94252 0
M  V30 3217 C 328.239 -1.86869 -0.528547 0
M  V30 3218 O 327.514 -1.35838 -1.39206 0
M  V30 3219 C 327.797 -3.24195 1.56747 0
M  V30 3220 C 327.65 -3.24989 3.10969 0
M  V30 3221 C 328.969 -4.21678 1.25998 0
M  V30 3222 H 326.088 -0.651883 0.343828 0
M  V30 3223 H 328.73 -1.2463 1.43413 0
M  V30 3224 H 326.88 -3.71107 1.14942 0
M  V30 3225 H 328.552 -2.86258 3.61737 0
M  V30 3226 H 326.795 -2.63716 3.44436 0
M  V30 3227 H 327.466 -4.27005 3.49815 0
M  V30 3228 H 329.942 -3.83196 1.62174 0
M  V30 3229 H 328.818 -5.21146 1.7233 0
M  V30 3230 H 329.079 -4.4174 0.178367 0
M  V30 3231 N 328.138 -0.959301 -1.25041 0
M  V30 3232 C 329.085 -0.482057 -2.2571 0
M  V30 3233 C 330.055 0.467939 -1.59372 0
M  V30 3234 O 331.24 0.380159 -1.86974 0
M  V30 3235 C 328.38 0.229623 -3.44335 0
M  V30 3236 C 327.493 -0.758156 -4.25295 0
M  V30 3237 C 326.628 -0.0234403 -5.31195 0
M  V30 3238 C 325.667 -1.00184 -6.03846 0
M  V30 3239 N 324.804 -0.29769 -7.01469 0
M  V30 3240 H 329.644 -1.34538 -2.65901 0
M  V30 3241 H 327.181 -0.674592 -1.3072 0
M  V30 3242 H 329.139 0.658856 -4.11965 0
M  V30 3243 H 327.769 1.05696 -3.05005 0
M  V30 3244 H 326.821 -1.30586 -3.57284 0
M  V30 3245 H 328.133 -1.50458 -4.75567 0
M  V30 3246 H 327.287 0.464201 -6.04922 0
M  V30 3247 H 326.026 0.755741 -4.81809 0
M  V30 3248 H 325.031 -1.50044 -5.2893 0
M  V30 3249 H 326.256 -1.78133 -6.55321 0
M  V30 3250 H 324.202 0.462668 -6.54366 0
M  V30 3251 H 324.119 -0.983128 -7.4958 0
M  V30 3252 H 325.387 0.16826 -7.79318 0
M  V30 3253 N 329.616 1.39756 -0.72842 0
M  V30 3254 C 330.546 2.33289 -0.0991354 0
M  V30 3255 C 331.527 1.53568 0.731489 0
M  V30 3256 O 332.712 1.81987 0.677807 0
M  V30 3257 C 329.842 3.3763 0.813834 0
M  V30 3258 C 328.796 4.2791 0.0878663 0
M  V30 3259 C 328.122 5.22894 1.11741 0
M  V30 3260 C 329.422 5.11314 -1.06563 0
M  V30 3261 H 331.116 2.86163 -0.880408 0
M  V30 3262 H 328.662 1.37591 -0.424819 0
M  V30 3263 H 330.615 4.0201 1.26355 0
M  V30 3264 H 329.339 2.83181 1.62715 0
M  V30 3265 H 327.998 3.65 -0.342159 0
M  V30 3266 H 327.646 4.64744 1.92412 0
M  V30 3267 H 327.346 5.84143 0.636477 0
M  V30 3268 H 328.87 5.90151 1.56697 0
M  V30 3269 H 330.284 5.69076 -0.694671 0
M  V30 3270 H 328.681 5.81671 -1.47577 0
M  V30 3271 H 329.751 4.46534 -1.89038 0
M  V30 3272 N 331.094 0.475555 1.50254 0
M  V30 3273 C 332.024 -0.30611 2.31485 0
M  V30 3274 C 333.005 -0.986228 1.38591 0
M  V30 3275 O 334.19 -0.982541 1.67511 0
M  V30 3276 C 331.32 -1.38588 3.1845 0
M  V30 3277 C 330.274 -0.827115 4.19932 0
M  V30 3278 C 329.6 -2.00551 4.95665 0
M  V30 3279 C 330.9 0.16463 5.2204 0
M  V30 3280 H 332.594 0.371866 2.97082 0
M  V30 3281 H 330.14 0.180282 1.42867 0
M  V30 3282 H 332.093 -1.94023 3.74076 0
M  V30 3283 H 330.817 -2.09269 2.50747 0
M  V30 3284 H 329.476 -0.294702 3.65414 0
M  V30 3285 H 329.124 -2.6994 4.2443 0
M  V30 3286 H 328.824 -1.63784 5.64313 0
M  V30 3287 H 330.348 -2.56468 5.54127 0
M  V30 3288 H 331.762 -0.300699 5.72511 0
M  V30 3289 H 330.159 0.446813 5.98434 0
M  V30 3290 H 331.229 1.08905 4.72512 0
M  V30 3291 N 332.573 -1.56217 0.208337 0
M  V30 3292 C 333.798 -2.02782 -0.435222 0
M  V30 3293 C 334.223 -1.08738 -1.53485 0
M  V30 3294 O 333.581 -0.0731855 -1.81152 0
M  V30 3295 C 333.629 -3.47687 -0.956335 0
M  V30 3296 O 332.733 -3.56773 -2.06849 0
M  V30 3297 H 332.074 -0.656403 -0.100158 0
M  V30 3298 H 334.604 -2.02033 0.3231 0
M  V30 3299 H 334.614 -3.87745 -1.26955 0
M  V30 3300 H 333.289 -4.15624 -0.15143 0
M  V30 3301 H 331.866 -3.28597 -1.76292 0
M  V30 3302 N 334.051 0.0651679 -1.57465 0
M  V30 3303 C 335.328 0.79644 -1.78651 0
M  V30 3304 C 335.708 1.95454 -0.797566 0
M  V30 3305 O 335.056 2.27882 0.167946 0
M  V30 3306 C 335.266 1.26322 -3.25337 0
M  V30 3307 C 336.614 1.6939 -3.89348 0
M  V30 3308 O 337.638 1.35872 -3.29268 0
M  V30 3309 O 336.497 2.31471 -4.95059 0
M  V30 3310 H 333.591 0.382157 -0.733407 0
M  V30 3311 H 336.137 0.0447311 -1.69641 0
M  V30 3312 H 334.909 0.434859 -3.88876 0
M  V30 3313 H 334.532 2.07604 -3.39096 0
M  V30 3314 N 335.529 1.53961 0.336706 0
M  V30 3315 C 336.757 1.75483 1.09605 0
M  V30 3316 C 337.172 0.4972 1.82136 0
M  V30 3317 O 336.529 -0.53149 1.74589 0
M  V30 3318 C 336.58 2.93943 2.10428 0
M  V30 3319 O 336.301 4.14842 1.40846 0
M  V30 3320 C 337.802 3.27571 2.98684 0
M  V30 3321 H 335.022 0.586166 0.326574 0
M  V30 3322 H 337.566 2.00808 0.38683 0
M  V30 3323 H 335.721 2.70929 2.76905 0
M  V30 3324 H 336.135 4.81383 2.08255 0
M  V30 3325 H 337.609 4.13791 3.6535 0
M  V30 3326 H 338.086 2.44168 3.65074 0
M  V30 3327 H 338.692 3.52615 2.37787 0
M  V30 3328 N 337.007 -0.598083 1.45811 0
M  V30 3329 C 338.232 -1.3881 1.54099 0
M  V30 3330 C 338.657 -1.8726 0.177578 0
M  V30 3331 O 338.015 -1.6069 -0.839541 0
M  V30 3332 C 338.063 -2.56217 2.53743 0
M  V30 3333 O 337.167 -3.5716 2.06182 0
M  V30 3334 H 336.508 -0.414024 0.519115 0
M  V30 3335 H 339.038 -0.726971 1.91249 0
M  V30 3336 H 339.048 -3.03337 2.72856 0
M  V30 3337 H 337.723 -2.20303 3.5276 0
M  V30 3338 H 336.3 -3.16624 1.96987 0
M  V30 3339 N 338.485 -1.33259 -0.841409 0
M  V30 3340 C 339.71 -1.2775 -1.63385 0
M  V30 3341 C 340.135 0.149188 -1.87507 0
M  V30 3342 O 339.493 1.10498 -1.43736 0
M  V30 3343 C 339.541 -2.05571 -2.96265 0
M  V30 3344 O 338.645 -1.41257 -3.87453 0
M  V30 3345 H 337.986 -0.439627 -0.497618 0
M  V30 3346 H 340.516 -1.75782 -1.04699 0
M  V30 3347 H 340.526 -2.16241 -3.45982 0
M  V30 3348 H 339.201 -3.09309 -2.7803 0
M  V30 3349 H 337.778 -1.39217 -3.45938 0
M  V30 3350 N 339.963 1.05934 -1.16686 0
M  V30 3351 C 341.193 1.82226 -0.973515 0
M  V30 3352 C 341.601 1.8297 0.481532 0
M  V30 3353 O 340.944 1.25009 1.34604 0
M  V30 3354 C 341.006 3.29897 -1.42858 0
M  V30 3355 C 340.67 3.52849 -2.90425 0
M  V30 3356 C 341.667 3.45595 -3.88407 0
M  V30 3357 C 339.352 3.80053 -3.28428 0
M  V30 3358 C 341.346 3.65217 -5.22394 0
M  V30 3359 C 339.033 3.99325 -4.62583 0
M  V30 3360 C 340.031 3.91905 -5.59374 0
M  V30 3361 O 339.719 4.10647 -6.91104 0
M  V30 3362 H 339.451 0.581314 -0.345036 0
M  V30 3363 H 342.005 1.3453 -1.55212 0
M  V30 3364 H 340.235 3.78472 -0.793477 0
M  V30 3365 H 341.924 3.87692 -1.20207 0
M  V30 3366 H 342.69 3.24564 -3.60393 0
M  V30 3367 H 338.569 3.84936 -2.53664 0
M  V30 3368 H 342.113 3.59341 -5.9793 0
M  V30 3369 H 338.01 4.19846 -4.90306 0
M  V30 3370 H 338.778 4.27915 -6.97733 0
M  V30 3371 N 341.441 0.965919 1.2453 0
M  V30 3372 C 342.687 0.62776 1.92839 0
M  V30 3373 C 343.02 -0.834694 1.75347 0
M  V30 3374 O 342.295 -1.60031 1.10546 0
M  V30 3375 C 342.578 1.00109 3.45905 0
M  V30 3376 C 342.431 2.52011 3.72573 0
M  V30 3377 C 343.75 0.53435 4.36844 0
M  V30 3378 H 340.869 0.229537 0.700344 0
M  V30 3379 H 343.511 1.2046 1.46933 0
M  V30 3380 H 341.661 0.510238 3.85135 0
M  V30 3381 H 343.333 3.08559 3.42912 0
M  V30 3382 H 341.576 2.95287 3.17786 0
M  V30 3383 H 342.247 2.73183 4.79661 0
M  V30 3384 H 344.723 0.955565 4.04979 0
M  V30 3385 H 343.599 0.824152 5.42678 0
M  V30 3386 H 343.86 -0.565589 4.38467 0
M  V30 3387 N 342.919 -1.39368 0.735821 0
M  V30 3388 C 344.147 -2.04795 0.294393 0
M  V30 3389 C 344.562 -1.55478 -1.07107 0
M  V30 3390 O 343.919 -0.720038 -1.67695 0
M  V30 3391 C 343.97 -3.6035 0.288071 0
M  V30 3392 O 343.691 -4.07852 1.59963 0
M  V30 3393 C 345.192 -4.42976 -0.169422 0
M  V30 3394 H 342.412 -0.658571 0.128551 0
M  V30 3395 H 344.956 -1.78399 0.999701 0
M  V30 3396 H 343.111 -3.85645 -0.368355 0
M  V30 3397 H 343.525 -5.02181 1.51375 0
M  V30 3398 H 344.999 -5.51864 -0.122687 0
M  V30 3399 H 345.476 -4.22068 -1.21472 0
M  V30 3400 H 346.082 -4.22832 0.457469 0
M  V30 3401 N 344.397 -0.483516 -1.5 0
M  V30 3402 C 345.645 0.067027 -2.01989 0
M  V30 3403 C 345.966 1.3909 -1.36671 0
M  V30 3404 O 345.236 1.88978 -0.516152 0
M  V30 3405 H 343.816 0.0277606 -0.746484 0
M  V30 3406 H 346.478 -0.636773 -1.84204 0
M  V30 3407 H 345.574 0.209484 -3.11396 0
M  V30 3408 N 345.875 1.56104 -0.216619 0
M  V30 3409 C 346.838 2.18819 0.681962 0
M  V30 3410 C 347.838 1.14866 1.12528 0
M  V30 3411 O 349.028 1.40128 1.03488 0
M  V30 3412 C 346.16 2.80756 1.93362 0
M  V30 3413 H 347.353 2.99595 0.135254 0
M  V30 3414 H 344.906 1.56265 0.0330003 0
M  V30 3415 H 345.641 2.03837 2.52232 0
M  V30 3416 H 345.426 3.56876 1.62426 0
M  V30 3417 H 346.916 3.28844 2.57393 0
M  V30 3418 N 347.353 -0.0568162 1.57498 0
M  V30 3419 C 348.263 -1.08346 2.08083 0
M  V30 3420 C 349.279 -1.41439 1.01346 0
M  V30 3421 O 350.455 -1.51316 1.32912 0
M  V30 3422 C 347.52 -2.37352 2.52715 0
M  V30 3423 C 346.581 -2.11093 3.73816 0
M  V30 3424 C 345.814 -3.33949 4.1631 0
M  V30 3425 O 346.037 -4.43622 3.58547 0
M  V30 3426 O 344.971 -3.21279 5.08983 0
M  V30 3427 H 348.797 -0.683667 2.95905 0
M  V30 3428 H 346.382 -0.271965 1.46904 0
M  V30 3429 H 348.264 -3.13246 2.81877 0
M  V30 3430 H 346.939 -2.76681 1.68016 0
M  V30 3431 H 345.846 -1.32856 3.49714 0
M  V30 3432 H 347.179 -1.76637 4.59413 0
M  V30 3433 N 348.832 -1.54138 -0.328536 0
M  V30 3434 C 349.762 -1.86167 -1.40939 0
M  V30 3435 C 350.743 -0.718044 -1.54202 0
M  V30 3436 O 351.928 -0.971328 -1.68163 0
M  V30 3437 C 349.058 -2.08461 -2.77779 0
M  V30 3438 C 348.012 -3.24299 -2.7931 0
M  V30 3439 C 347.338 -3.31955 -4.19178 0
M  V30 3440 C 348.638 -4.62065 -2.43502 0
M  V30 3441 H 350.332 -2.76689 -1.14383 0
M  V30 3442 H 347.878 -1.33132 -0.548806 0
M  V30 3443 H 349.831 -2.29453 -3.53454 0
M  V30 3444 H 348.555 -1.14684 -3.05802 0
M  V30 3445 H 347.214 -3.03187 -2.0609 0
M  V30 3446 H 346.862 -2.35745 -4.44335 0
M  V30 3447 H 346.562 -4.09805 -4.2111 0
M  V30 3448 H 348.086 -3.55175 -4.96672 0
M  V30 3449 H 349.5 -4.8297 -3.08889 0
M  V30 3450 H 347.897 -5.42429 -2.56693 0
M  V30 3451 H 348.967 -4.64652 -1.38659 0
M  V30 3452 N 350.31 0.590341 -1.46126 0
M  V30 3453 C 351.273 1.68194 -1.55703 0
M  V30 3454 C 352.273 1.54808 -0.434868 0
M  V30 3455 O 353.463 1.59564 -0.698928 0
M  V30 3456 C 350.595 3.07575 -1.47005 0
M  V30 3457 H 351.788 1.61064 -2.52979 0
M  V30 3458 H 349.341 0.807541 -1.33823 0
M  V30 3459 H 350.076 3.20268 -0.509785 0
M  V30 3460 H 349.861 3.187 -2.28414 0
M  V30 3461 H 351.351 3.87055 -1.56776 0
M  V30 3462 N 351.788 1.33704 0.83433 0
M  V30 3463 C 353.034 1.25603 1.59222 0
M  V30 3464 C 353.367 -0.176659 1.93395 0
M  V30 3465 O 352.642 -1.11915 1.59076 0
M  V30 3466 C 352.925 2.13576 2.89926 0
M  V30 3467 C 352.778 3.65326 2.62406 0
M  V30 3468 C 354.097 2.01238 3.91397 0
M  V30 3469 H 351.216 0.457613 0.577719 0
M  V30 3470 H 353.858 1.63848 0.961972 0
M  V30 3471 H 352.008 1.8109 3.43713 0
M  V30 3472 H 353.68 4.08124 2.15017 0
M  V30 3473 H 351.923 3.8698 1.96033 0
M  V30 3474 H 352.594 4.22232 3.55562 0
M  V30 3475 H 355.07 2.29738 3.46929 0
M  V30 3476 H 353.946 2.65036 4.80673 0
M  V30 3477 H 354.207 0.985951 4.30966 0
M  V30 3478 N 353.266 -1.05314 1.17247 0
M  V30 3479 C 354.543 -1.75184 0.87005 0
M  V30 3480 C 354.923 -2.01481 -0.629965 0
M  V30 3481 O 354.271 -1.64988 -1.58086 0
M  V30 3482 C 354.481 -3.04594 1.70363 0
M  V30 3483 C 355.829 -3.78567 1.92281 0
M  V30 3484 O 356.853 -3.14461 1.67311 0
M  V30 3485 O 355.712 -4.93755 2.3424 0
M  V30 3486 H 352.806 -0.761729 0.322021 0
M  V30 3487 H 355.352 -1.11493 1.27935 0
M  V30 3488 H 354.124 -2.81201 2.72106 0
M  V30 3489 H 353.747 -3.76022 1.29202 0
M  V30 3490 N 354.744 -0.972509 -1.24016 0
M  V30 3491 C 355.992 -0.635776 -1.91839 0
M  V30 3492 C 356.313 0.832312 -1.76345 0
M  V30 3493 O 355.583 1.5946 -1.13795 0
M  V30 3494 H 354.163 -0.232157 -0.710009 0
M  V30 3495 H 356.825 -1.23462 -1.50809 0
M  V30 3496 H 355.921 -0.880545 -2.99421 0
M  V30 3497 N 356.222 1.38976 -0.743202 0
M  V30 3498 C 357.47 1.99948 -0.29417 0
M  V30 3499 C 357.791 1.59279 1.12495 0
M  V30 3500 O 357.061 0.844808 1.76748 0
M  V30 3501 H 355.641 0.739473 -0.105774 0
M  V30 3502 H 358.303 1.699 -0.954986 0
M  V30 3503 H 357.399 3.10142 -0.349056 0
M  V30 3504 N 357.7 0.491464 1.49741 0
M  V30 3505 C 358.946 -0.0485431 2.03342 0
M  V30 3506 C 359.301 -1.35566 1.36527 0
M  V30 3507 O 358.594 -1.85262 0.488729 0
M  V30 3508 C 358.788 -0.267329 3.56399 0
M  V30 3509 C 358.617 1.01703 4.38049 0
M  V30 3510 C 357.387 1.56614 4.80417 0
M  V30 3511 C 359.585 1.91782 4.77204 0
M  V30 3512 N 357.567 2.7974 5.4646 0
M  V30 3513 C 358.938 2.99489 5.42868 0
M  V30 3514 C 360.993 1.92575 4.5915 0
M  V30 3515 C 359.696 4.08005 5.92389 0
M  V30 3516 C 361.722 3.0006 5.09626 0
M  V30 3517 C 361.084 4.06485 5.75282 0
M  V30 3518 H 357.183 0.0227779 0.781668 0
M  V30 3519 H 359.767 0.664204 1.8302 0
M  V30 3520 H 357.938 -0.949126 3.76625 0
M  V30 3521 H 359.67 -0.803492 3.96644 0
M  V30 3522 H 356.425 1.11256 4.60347 0
M  V30 3523 H 356.849 3.42323 5.84075 0
M  V30 3524 H 361.491 1.11605 4.07804 0
M  V30 3525 H 359.209 4.89779 6.42761 0
M  V30 3526 H 362.795 3.01681 4.97473 0
M  V30 3527 H 361.675 4.88287 6.13633 0
M  V30 3528 N 359.178 -1.55987 0.224894 0
M  V30 3529 C 360.406 -2.02784 -0.410665 0
M  V30 3530 C 360.821 -1.10464 -1.53112 0
M  V30 3531 O 360.178 -0.114871 -1.82138 0
M  V30 3532 C 360.229 -3.49087 -0.939165 0
M  V30 3533 O 359.95 -4.37887 0.136614 0
M  V30 3534 C 361.451 -4.11543 -1.64763 0
M  V30 3535 H 358.671 -0.663484 -0.100148 0
M  V30 3536 H 361.215 -2.01614 0.342326 0
M  V30 3537 H 359.37 -3.50861 -1.64242 0
M  V30 3538 H 359.784 -5.23849 -0.261155 0
M  V30 3539 H 361.258 -5.15673 -1.96939 0
M  V30 3540 H 361.735 -3.56736 -2.56195 0
M  V30 3541 H 362.341 -4.13629 -0.989503 0
M  V30 3542 N 360.656 0.0484629 -1.57525 0
M  V30 3543 C 361.884 0.755421 -1.92616 0
M  V30 3544 C 362.299 1.69919 -0.822984 0
M  V30 3545 O 361.656 1.81378 0.202085 0
M  V30 3546 C 361.707 1.52915 -3.27566 0
M  V30 3547 O 361.428 0.62329 -4.33644 0
M  V30 3548 C 362.929 2.33502 -3.76818 0
M  V30 3549 H 360.149 0.213465 -0.63614 0
M  V30 3550 H 362.693 0.0117698 -2.04497 0
M  V30 3551 H 360.848 2.22486 -3.17142 0
M  V30 3552 H 361.262 1.16383 -5.11425 0
M  V30 3553 H 362.736 2.83214 -4.73808 0
M  V30 3554 H 363.213 3.14068 -3.07014 0
M  V30 3555 H 363.819 1.69043 -3.90262 0
M  V30 3556 N 362.134 1.5431 0.320358 0
M  V30 3557 C 363.382 1.72327 1.05583 0
M  V30 3558 C 363.703 0.50149 1.88441 0
M  V30 3559 O 362.973 -0.48448 1.89815 0
M  V30 3560 H 361.553 0.635387 0.3928 0
M  V30 3561 H 364.215 1.91621 0.356019 0
M  V30 3562 H 363.311 2.60426 1.72003 0
M  V30 3563 N 363.613 -0.582584 1.46437 0
M  V30 3564 C 365.024 -1.1647 1.45916 0
M  V30 3565 C 365.375 -1.95177 0.200077 0
M  V30 3566 O 364.5 -2.04874 -0.696819 0
M  V30 3567 C 365.095 -2.11885 2.64367 0
M  V30 3568 C 363.654 -2.65421 2.66887 0
M  V30 3569 C 362.801 -1.41294 2.38603 0
M  V30 3570 H 365.752 -0.370514 1.54314 0
M  V30 3571 H 365.773 -2.9535 2.39892 0
M  V30 3572 H 365.285 -1.54573 3.5599 0
M  V30 3573 H 363.386 -3.26602 1.79338 0
M  V30 3574 H 363.499 -3.08147 3.66854 0
M  V30 3575 H 361.863 -1.71109 1.88663 0
M  V30 3576 H 362.646 -0.858125 3.32402 0
M  V30 3577 N 365.091 -1.34144 -0.827227 0
M  V30 3578 C 366.319 -1.29325 -1.61501 0
M  V30 3579 C 366.734 0.13354 -1.88327 0
M  V30 3580 O 366.091 1.0793 -1.47164 0
M  V30 3581 C 366.142 -2.07746 -2.95844 0
M  V30 3582 O 365.863 -3.4486 -2.70191 0
M  V30 3583 C 367.364 -2.10273 -3.90256 0
M  V30 3584 H 364.584 -0.445069 -0.50215 0
M  V30 3585 H 367.128 -1.76693 -1.02955 0
M  V30 3586 H 365.283 -1.6403 -3.5096 0
M  V30 3587 H 365.697 -3.85345 -3.55822 0
M  V30 3588 H 367.171 -2.69575 -4.81698 0
M  V30 3589 H 367.648 -1.096 -4.25305 0
M  V30 3590 H 368.254 -2.54059 -3.41078 0
M  V30 3591 N 366.569 1.04691 -1.17803 0
M  V30 3592 C 367.815 1.78045 -0.970969 0
M  V30 3593 C 368.148 1.87686 0.498751 0
M  V30 3594 O 367.423 1.38035 1.37027 0
M  V30 3595 C 367.706 3.2166 -1.61884 0
M  V30 3596 C 367.559 3.20001 -3.161 0
M  V30 3597 C 368.878 4.1962 -1.3269 0
M  V30 3598 H 365.997 0.64633 -0.354155 0
M  V30 3599 H 368.639 1.22333 -1.45378 0
M  V30 3600 H 366.789 3.69232 -1.20831 0
M  V30 3601 H 368.461 2.80467 -3.66246 0
M  V30 3602 H 366.704 2.58203 -3.48588 0
M  V30 3603 H 367.375 4.21386 -3.56564 0
M  V30 3604 H 369.851 3.80567 -1.68249 0
M  V30 3605 H 368.727 5.18339 -1.80599 0
M  V30 3606 H 368.988 4.414 -0.248622 0
M  V30 3607 N 368.047 0.979072 1.23499 0
M  V30 3608 C 368.994 0.517904 2.24914 0
M  V30 3609 C 369.964 -0.442525 1.60097 0
M  V30 3610 O 371.149 -0.350365 1.87556 0
M  V30 3611 C 368.289 -0.174813 3.44657 0
M  V30 3612 C 367.402 0.825721 4.24035 0
M  V30 3613 C 366.537 0.107946 5.3109 0
M  V30 3614 C 365.576 1.09778 6.02175 0
M  V30 3615 N 364.713 0.40925 7.00906 0
M  V30 3616 H 369.553 1.38751 2.63727 0
M  V30 3617 H 367.09 0.695303 1.2963 0
M  V30 3618 H 369.048 -0.593233 4.12961 0
M  V30 3619 H 367.678 -1.0083 3.06648 0
M  V30 3620 H 366.73 1.36253 3.55161 0
M  V30 3621 H 368.042 1.58005 4.73113 0
M  V30 3622 H 367.196 -0.367904 6.05583 0
M  V30 3623 H 365.935 -0.678994 4.8295 0
M  V30 3624 H 364.94 1.5844 5.26476 0
M  V30 3625 H 366.165 1.88536 6.52404 0
M  V30 3626 H 364.111 -0.358506 6.5502 0
M  V30 3627 H 364.028 1.10226 7.47921 0
M  V30 3628 H 365.296 -0.0442557 7.79487 0
M  V30 3629 N 369.525 -1.3858 0.750561 0
M  V30 3630 C 370.755 -2.04175 0.31564 0
M  V30 3631 C 371.163 -1.56726 -1.05989 0
M  V30 3632 O 370.506 -0.734225 -1.68389 0
M  V30 3633 C 370.568 -3.58585 0.256389 0
M  V30 3634 C 370.232 -4.29077 1.57296 0
M  V30 3635 C 371.229 -4.54656 2.52159 0
M  V30 3636 C 368.914 -4.67324 1.84156 0
M  V30 3637 C 370.908 -5.17512 3.72103 0
M  V30 3638 C 368.595 -5.29905 3.04374 0
M  V30 3639 C 369.593 -5.54933 3.98168 0
M  V30 3640 O 369.281 -6.16212 5.16273 0
M  V30 3641 H 369.013 -0.662742 0.133226 0
M  V30 3642 H 371.567 -1.78313 1.01948 0
M  V30 3643 H 369.797 -3.83406 -0.503677 0
M  V30 3644 H 371.486 -4.05628 -0.148612 0
M  V30 3645 H 372.252 -4.25539 2.32683 0
M  V30 3646 H 368.131 -4.47191 1.11988 0
M  V30 3647 H 371.675 -5.36963 4.45327 0
M  V30 3648 H 367.572 -5.58444 3.23745 0
M  V30 3649 H 368.34 -6.34701 5.16815 0
M  V30 3650 N 371.003 -0.499398 -1.49478 0
M  V30 3651 C 372.249 0.0457576 -2.02748 0
M  V30 3652 C 372.582 1.36793 -1.37846 0
M  V30 3653 O 371.857 1.87596 -0.513601 0
M  V30 3654 C 372.14 0.199986 -3.59544 0
M  V30 3655 C 371.993 -1.1452 -4.34977 0
M  V30 3656 C 373.312 0.94137 -4.29914 0
M  V30 3657 H 370.431 0.0151552 -0.736844 0
M  V30 3658 H 373.073 -0.650498 -1.78518 0
M  V30 3659 H 371.223 0.793007 -3.8032 0
M  V30 3660 H 372.895 -1.77697 -4.25701 0
M  V30 3661 H 371.138 -1.73488 -3.97598 0
M  V30 3662 H 371.809 -0.990607 -5.43039 0
M  V30 3663 H 374.285 0.43844 -4.13784 0
M  V30 3664 H 373.161 1.01812 -5.39375 0
M  V30 3665 H 373.422 1.98471 -3.95046 0
M  V30 3666 N 372.481 1.55866 -0.233164 0
M  V30 3667 C 373.414 2.16794 0.712442 0
M  V30 3668 C 374.392 1.1158 1.18273 0
M  V30 3669 O 375.576 1.39897 1.26337 0
M  V30 3670 C 372.703 2.75757 1.96661 0
M  V30 3671 C 371.749 3.93902 1.63533 0
M  V30 3672 S 372.582 5.30223 0.74995 0
M  V30 3673 C 373.738 5.92631 2.01343 0
M  V30 3674 H 373.971 2.96662 0.194617 0
M  V30 3675 H 371.504 1.5439 -0.0177425 0
M  V30 3676 H 373.462 3.10367 2.68668 0
M  V30 3677 H 372.123 1.9586 2.45556 0
M  V30 3678 H 371.316 4.33702 2.56747 0
M  V30 3679 H 370.918 3.60499 0.995804 0
M  V30 3680 H 373.21 6.09312 2.96219 0
M  V30 3681 H 374.153 6.88388 1.65915 0
M  V30 3682 H 374.561 5.21571 2.15925 0
M  V30 3683 N 373.959 -0.0401083 1.57549 0
M  V30 3684 C 375.207 -0.731677 1.8839 0
M  V30 3685 C 375.528 -1.76481 0.829425 0
M  V30 3686 O 374.798 -1.95411 -0.1383 0
M  V30 3687 H 373.378 -0.273225 0.695239 0
M  V30 3688 H 376.04 -0.00867725 1.94898 0
M  V30 3689 H 375.136 -1.22816 2.86919 0
M  V30 3690 N 375.437 -1.54477 -0.31217 0
M  V30 3691 C 376.369 -1.81011 -1.40598 0
M  V30 3692 C 377.382 -0.692546 -1.47335 0
M  V30 3693 O 378.571 -0.969847 -1.49854 0
M  V30 3694 C 375.671 -1.92307 -2.79054 0
M  V30 3695 C 374.844 -3.22594 -2.95384 0
M  V30 3696 C 373.903 -3.24448 -4.1427 0
M  V30 3697 O 372.929 -3.98035 -4.06887 0
M  V30 3698 N 374.131 -2.49042 -5.24365 0
M  V30 3699 H 376.896 -2.75408 -1.18196 0
M  V30 3700 H 374.457 -1.53914 -0.502202 0
M  V30 3701 H 376.449 -1.90962 -3.56813 0
M  V30 3702 H 375.019 -1.04955 -2.94454 0
M  V30 3703 H 374.239 -3.36806 -2.04831 0
M  V30 3704 H 375.527 -4.08593 -3.03198 0
M  V30 3705 H 374.925 -1.88867 -5.33241 0
M  V30 3706 H 373.482 -2.53463 -6.005 0
M  V30 3707 O 376.954 0.458097 -1.54867 0
M  V30 3708 H 377.645 1.11218 -1.58588 0
M  V30 END ATOM
M  V30 BEGIN BOND
M  V30 END BOND
M  V30 END CTAB
M  END
$$$$
