drugbank_target|P19909 Immunoglobulin G-binding protein G (DB04464)
 OpenBabel12092120463D

  0  0  0     0  0            999 V3000
M  V30 BEGIN CTAB
M  V30 COUNTS 8910 8971 0 0 0
M  V30 BEGIN ATOM
M  V30 1 H -0.908 1.98254 -0.117106 0
M  V30 2 N 0 1.576 0 0
M  V30 3 C 0.933 2.03868 1.02534 0
M  V30 4 C 1.911 0.928543 1.3348 0
M  V30 5 O 3.095 1.19667 1.45644 0
M  V30 6 C 0.222 2.43627 2.35294 0
M  V30 7 C -0.732 3.65373 2.2001 0
M  V30 8 S 0.101 5.13292 1.52614 0
M  V30 9 C 1.257 5.56322 2.86805 0
M  V30 10 H 1.49 2.90518 0.631377 0
M  V30 11 H -0.977 1.52953 0.210867 0
M  V30 12 H 0.981 2.67203 3.11629 0
M  V30 13 H -0.358 1.57376 2.7183 0
M  V30 14 H -1.165 3.90944 3.18086 0
M  V30 15 H -1.563 3.418 1.51819 0
M  V30 16 H 0.729 5.58782 3.83104 0
M  V30 17 H 1.672 6.56266 2.65933 0
M  V30 18 H 2.08 4.83886 2.90714 0
M  V30 19 N 1.4781 -0.272755 1.55222 0
M  V30 20 C 2.3881 -1.35918 1.91216 0
M  V30 21 C 3.4041 -1.54026 0.809436 0
M  V30 22 O 4.5801 -1.68148 1.10852 0
M  V30 23 C 1.6451 -2.69834 2.17693 0
M  V30 24 C 0.7061 -2.6047 3.41253 0
M  V30 25 C -0.0609 -3.88 3.66458 0
M  V30 26 O 0.1621 -4.88693 2.94169 0
M  V30 27 O -0.9039 -3.88189 4.59992 0
M  V30 28 H 2.9221 -1.0839 2.83699 0
M  V30 29 H 0.5071 -0.471301 1.41771 0
M  V30 30 H 2.3891 -3.49017 2.36147 0
M  V30 31 H 1.0641 -2.97148 1.28392 0
M  V30 32 H -0.0289 -1.79663 3.28134 0
M  V30 33 H 1.3041 -2.38106 4.30774 0
M  V30 34 N 2.9562 -1.48159 -0.537278 0
M  V30 35 C 3.9032 -1.62138 -1.64256 0
M  V30 36 C 4.8732 -0.463668 -1.59497 0
M  V30 37 O 6.0582 -0.686241 -1.78032 0
M  V30 38 C 3.1982 -1.66028 -3.02537 0
M  V30 39 C 2.3112 -2.92855 -3.17585 0
M  V30 40 C 1.4462 -2.87952 -4.46382 0
M  V30 41 C 0.4852 -4.09516 -4.54932 0
M  V30 42 N -0.3778 -4.02733 -5.75109 0
M  V30 43 H 4.4622 -2.56529 -1.51647 0
M  V30 44 H 1.9992 -1.27224 -0.738414 0
M  V30 45 H 3.9572 -1.66265 -3.82638 0
M  V30 46 H 2.5872 -0.751331 -3.13934 0
M  V30 47 H 1.6392 -3.02395 -2.30784 0
M  V30 48 H 2.9512 -3.82822 -3.19764 0
M  V30 49 H 2.1052 -2.8655 -5.34765 0
M  V30 50 H 0.8442 -1.95702 -4.46712 0
M  V30 51 H -0.1508 -4.11201 -3.64957 0
M  V30 52 H 1.0742 -5.02917 -4.56346 0
M  V30 53 H -0.9798 -3.13299 -5.76351 0
M  V30 54 H -1.0628 -4.86397 -5.78752 0
M  V30 55 H 0.2052 -4.05379 -6.65799 0
M  V30 56 N 4.4343 0.785586 -1.36625 0
M  V30 57 C 5.3443 1.92964 -1.33425 0
M  V30 58 C 6.3603 1.72394 -0.235851 0
M  V30 59 O 7.5363 1.95866 -0.468878 0
M  V30 60 C 4.6013 3.27884 -1.12662 0
M  V30 61 C 3.6623 3.61204 -2.32013 0
M  V30 62 C 2.8953 4.89687 -2.12231 0
M  V30 63 O 3.1183 5.59704 -1.09945 0
M  V30 64 O 2.0523 5.21752 -3.00098 0
M  V30 65 H 5.8783 1.98613 -2.29753 0
M  V30 66 H 3.4633 0.926384 -1.17211 0
M  V30 67 H 5.3453 4.08614 -1.03016 0
M  V30 68 H 4.0203 3.23118 -0.193991 0
M  V30 69 H 2.9273 2.80765 -2.47228 0
M  V30 70 H 4.2603 3.70698 -3.23796 0
M  V30 71 N 5.9124 1.20967 1.01018 0
M  V30 72 C 6.8594 0.964281 2.09691 0
M  V30 73 C 7.8294 -0.107853 1.65749 0
M  V30 74 O 9.0144 0.0381987 1.90762 0
M  V30 75 C 6.1544 0.52943 3.41015 0
M  V30 76 C 5.2674 1.67043 3.98398 0
M  V30 77 C 4.4024 1.18525 5.17808 0
M  V30 78 C 3.4414 2.29892 5.67288 0
M  V30 79 N 2.5784 1.82546 6.77954 0
M  V30 80 H 7.4184 1.89463 2.30017 0
M  V30 81 H 4.9554 0.944289 1.1279 0
M  V30 82 H 6.9134 0.258588 4.16398 0
M  V30 83 H 5.5434 -0.363919 3.20742 0
M  V30 84 H 4.5954 2.05603 3.20049 0
M  V30 85 H 5.9074 2.50877 4.31117 0
M  V30 86 H 5.0614 0.870762 6.00419 0
M  V30 87 H 3.8004 0.316887 4.86669 0
M  V30 88 H 2.8054 2.6215 4.83278 0
M  V30 89 H 4.0304 3.17216 6.00459 0
M  V30 90 H 1.9764 0.980454 6.48632 0
M  V30 91 H 1.8934 2.59956 7.09901 0
M  V30 92 H 3.1614 1.54115 7.64113 0
M  V30 93 N 7.3905 -1.2043 1.01659 0
M  V30 94 C 8.3375 -2.23215 0.586822 0
M  V30 95 C 9.3075 -1.61382 -0.393085 0
M  V30 96 O 10.4925 -1.88544 -0.292525 0
M  V30 97 C 7.6325 -3.45032 -0.0687464 0
M  V30 98 C 6.7455 -4.21296 0.955724 0
M  V30 99 C 5.8805 -5.30507 0.271208 0
M  V30 100 C 4.9195 -5.98515 1.28244 0
M  V30 101 N 4.0565 -6.99316 0.62459 0
M  V30 102 H 8.8965 -2.59336 1.46796 0
M  V30 103 H 6.4335 -1.27431 0.734836 0
M  V30 104 H 8.3915 -4.1459 -0.465965 0
M  V30 105 H 7.0215 -3.09604 -0.913529 0
M  V30 106 H 6.0735 -3.50803 1.4711 0
M  V30 107 H 7.3855 -4.6803 1.72479 0
M  V30 108 H 6.5395 -6.06428 -0.18151 0
M  V30 109 H 5.2785 -4.8481 -0.530163 0
M  V30 110 H 4.2835 -5.21355 1.74554 0
M  V30 111 H 5.5085 -6.46298 2.08509 0
M  V30 112 H 3.4545 -6.55812 -0.156914 0
M  V30 113 H 3.3715 -7.44178 1.33172 0
M  V30 114 H 4.6395 -7.79255 0.195462 0
M  V30 115 N 8.8686 -0.792821 -1.36206 0
M  V30 116 C 10.1146 -0.36733 -1.99446 0
M  V30 117 C 10.4476 1.05917 -1.62774 0
M  V30 118 O 9.7226 1.7324 -0.88421 0
M  V30 119 C 10.0056 -0.535044 -3.56103 0
M  V30 120 C 9.8586 -2.00548 -4.02617 0
M  V30 121 C 11.1776 0.0478191 -4.40074 0
M  V30 122 H 8.2966 -0.134941 -0.724541 0
M  V30 123 H 10.9386 -0.999794 -1.61568 0
M  V30 124 H 9.0886 0.00336329 -3.885 0
M  V30 125 H 10.7606 -2.60521 -3.80692 0
M  V30 126 H 9.0036 -2.50686 -3.54032 0
M  V30 127 H 9.6746 -2.07377 -5.11565 0
M  V30 128 H 12.1506 -0.411822 -4.14057 0
M  V30 129 H 11.0266 -0.0995336 -5.4881 0
M  V30 130 H 11.2876 1.14025 -4.27142 0
M  V30 131 N 10.3467 1.47872 -0.545128 0
M  V30 132 C 11.2937 2.29849 0.2093 0
M  V30 133 C 12.2637 1.38313 0.919707 0
M  V30 134 O 13.4487 1.67277 0.917772 0
M  V30 135 C 10.5887 3.22019 1.24088 0
M  V30 136 C 9.7017 4.2864 0.537778 0
M  V30 137 C 8.8367 5.07973 1.5536 0
M  V30 138 C 7.8757 6.06381 0.8348 0
M  V30 139 N 7.0127 6.78717 1.79688 0
M  V30 140 H 11.8527 2.93845 -0.49591 0
M  V30 141 H 9.3897 1.44848 -0.256389 0
M  V30 142 H 11.3477 3.73868 1.85144 0
M  V30 143 H 9.9777 2.59914 1.91428 0
M  V30 144 H 9.0297 3.7994 -0.187046 0
M  V30 145 H 10.3417 4.98793 -0.0258907 0
M  V30 146 H 9.4957 5.63912 2.23803 0
M  V30 147 H 8.2347 4.37693 2.15118 0
M  V30 148 H 7.2397 5.49631 0.136388 0
M  V30 149 H 8.4647 6.78665 0.24313 0
M  V30 150 H 6.4107 6.11177 2.38326 0
M  V30 151 H 6.3277 7.44998 1.28505 0
M  V30 152 H 7.5957 7.39237 2.47282 0
M  V30 153 N 11.8248 0.280983 1.55075 0
M  V30 154 C 13.0548 -0.336804 2.03836 0
M  V30 155 C 13.4628 -1.49577 1.15859 0
M  V30 156 O 12.8058 -1.82888 0.172503 0
M  V30 157 C 12.8678 -0.874616 3.48699 0
M  V30 158 C 12.5318 0.156478 4.56732 0
M  V30 159 C 13.5288 0.978032 5.10618 0
M  V30 160 C 11.2138 0.292409 5.01448 0
M  V30 161 C 13.2078 1.92165 6.07743 0
M  V30 162 C 10.8948 1.23949 5.98398 0
M  V30 163 C 11.8928 2.05261 6.51427 0
M  V30 164 O 11.5808 2.98367 7.4648 0
M  V30 165 H 11.3128 -0.0800885 0.671239 0
M  V30 166 H 13.8668 0.412589 2.01213 0
M  V30 167 H 12.0968 -1.67418 3.4858 0
M  V30 168 H 13.7858 -1.40612 3.80766 0
M  V30 169 H 14.5518 0.883782 4.7688 0
M  V30 170 H 10.4308 -0.330498 4.59814 0
M  V30 171 H 13.9748 2.55672 6.49059 0
M  V30 172 H 9.8718 1.33454 6.31554 0
M  V30 173 H 10.6398 2.93116 7.64215 0
M  V30 174 N 13.3029 -1.57598 0.00835791 0
M  V30 175 C 14.5499 -1.90928 -0.674732 0
M  V30 176 C 14.8779 -0.88277 -1.73313 0
M  V30 177 O 14.1329 0.111294 -1.95383 0
M  V30 178 C 14.4319 -3.3101 -1.34787 0
M  V30 179 C 14.0979 -4.48922 -0.421861 0
M  V30 180 C 12.7599 -4.8091 -0.166927 0
M  V30 181 C 15.1119 -5.20755 0.215211 0
M  V30 182 C 12.4399 -5.821 0.733232 0
M  V30 183 C 14.7919 -6.22905 1.1033 0
M  V30 184 C 13.4559 -6.53346 1.36733 0
M  V30 185 H 12.7259 -0.698656 -0.246902 0
M  V30 186 H 15.3729 -1.91387 0.0656779 0
M  V30 187 H 13.6779 -3.26714 -2.16253 0
M  V30 188 H 15.3749 -3.54061 -1.8826 0
M  V30 189 H 11.9649 -4.23934 -0.630729 0
M  V30 190 H 16.1489 -4.9629 0.0312829 0
M  V30 191 H 11.4049 -6.04042 0.945712 0
M  V30 192 H 15.5789 -6.77694 1.60325 0
M  V30 193 H 13.2059 -7.31573 2.06652 0
M  V30 194 N 14.781 0.264519 -1.55364 0
M  V30 195 C 15.711 1.33121 -1.91836 0
M  V30 196 C 16.692 1.51101 -0.781192 0
M  V30 197 O 17.877 1.64003 -1.04003 0
M  V30 198 C 15.007 2.68921 -2.19769 0
M  V30 199 C 13.961 2.65661 -3.35571 0
M  V30 200 C 13.287 4.05093 -3.49004 0
M  V30 201 C 14.587 2.24187 -4.71739 0
M  V30 202 H 16.281 1.02844 -2.81182 0
M  V30 203 H 13.827 0.493286 -1.35287 0
M  V30 204 H 15.78 3.43663 -2.43872 0
M  V30 205 H 14.504 3.00799 -1.27231 0
M  V30 206 H 13.163 1.93377 -3.1145 0
M  V30 207 H 12.811 4.34206 -2.53917 0
M  V30 208 H 12.511 4.03804 -4.26868 0
M  V30 209 H 14.035 4.81561 -3.75408 0
M  V30 210 H 15.449 2.88654 -4.9533 0
M  V30 211 H 13.846 2.34044 -5.52579 0
M  V30 212 H 14.916 1.19327 -4.69988 0
M  V30 213 N 16.2591 1.48442 0.529413 0
M  V30 214 C 17.6751 1.34575 0.858004 0
M  V30 215 C 17.8751 0.3572 1.98309 0
M  V30 216 O 16.9311 -0.221379 2.51528 0
M  V30 217 C 18.2441 2.74617 1.22499 0
M  V30 218 C 19.7921 2.83109 1.33484 0
M  V30 219 C 20.2671 4.23854 1.73526 0
M  V30 220 N 21.7581 4.2653 1.80628 0
M  V30 221 C 22.4931 5.32372 2.12997 0
M  V30 222 N 21.9891 6.48491 2.43786 0
M  V30 223 N 23.7821 5.19766 2.14008 0
M  V30 224 H 15.9331 2.1133 -0.212925 0
M  V30 225 H 18.1961 0.947439 -0.0326199 0
M  V30 226 H 17.9021 3.4852 0.471905 0
M  V30 227 H 17.7761 3.08177 2.17501 0
M  V30 228 H 20.1631 2.09462 2.0787 0
M  V30 229 H 20.2441 2.53168 0.366027 0
M  V30 230 H 19.8881 4.98018 0.997013 0
M  V30 231 H 19.8181 4.5124 2.71459 0
M  V30 232 H 22.3091 3.42772 1.59108 0
M  V30 233 H 22.6221 7.24993 2.67592 0
M  V30 234 H 20.9671 6.51765 2.41304 0
M  V30 235 H 24.1581 4.28066 1.89412 0
M  V30 236 H 24.3311 6.02354 2.38902 0
M  V30 237 N 17.7372 -0.778329 1.37039 0
M  V30 238 C 18.6842 -1.89139 1.32269 0
M  V30 239 C 19.6542 -1.65017 0.189387 0
M  V30 240 O 20.8392 -1.87024 0.377693 0
M  V30 241 C 17.9792 -3.26112 1.12894 0
M  V30 242 C 17.0922 -3.62233 2.35396 0
M  V30 243 C 16.2272 -4.8838 2.08946 0
M  V30 244 C 15.2662 -5.17212 3.2735 0
M  V30 245 N 14.4032 -6.34546 3.00492 0
M  V30 246 H 19.2432 -1.92552 2.27437 0
M  V30 247 H 16.7802 -0.941473 1.13025 0
M  V30 248 H 18.7382 -4.05116 0.996835 0
M  V30 249 H 17.3682 -3.22091 0.213758 0
M  V30 250 H 16.4202 -2.78265 2.5937 0
M  V30 251 H 17.7322 -3.79481 3.23721 0
M  V30 252 H 16.8862 -5.75274 1.92729 0
M  V30 253 H 15.6252 -4.73222 1.17949 0
M  V30 254 H 14.6302 -4.28796 3.44113 0
M  V30 255 H 15.8552 -5.34283 4.19188 0
M  V30 256 H 13.8012 -6.20759 2.12118 0
M  V30 257 H 13.7182 -6.52179 3.82358 0
M  V30 258 H 14.9862 -7.24394 2.87879 0
M  V30 259 N 19.2153 -1.21501 -1.00376 0
M  V30 260 C 20.4403 -1.05977 -1.78279 0
M  V30 261 C 20.8653 0.385994 -1.84097 0
M  V30 262 O 20.2233 1.27849 -1.28547 0
M  V30 263 C 20.2713 -1.66302 -3.19963 0
M  V30 264 O 19.3753 -0.909333 -4.0225 0
M  V30 265 H 18.7163 -0.372906 -0.549397 0
M  V30 266 H 21.2463 -1.6107 -1.26165 0
M  V30 267 H 21.2563 -1.70574 -3.70632 0
M  V30 268 H 19.9313 -2.71515 -3.15043 0
M  V30 269 H 18.5083 -0.941795 -3.60811 0
M  V30 270 N 20.6934 1.19889 -1.02296 0
M  V30 271 C 21.6564 2.21116 -0.603351 0
M  V30 272 C 22.6564 1.5738 0.329884 0
M  V30 273 O 23.8464 1.73802 0.117702 0
M  V30 274 C 20.9784 3.40696 0.117992 0
M  V30 275 H 22.1714 2.59754 -1.49893 0
M  V30 276 H 19.7244 1.33463 -0.813468 0
M  V30 277 H 20.4594 3.07569 1.0282 0
M  V30 278 H 20.2444 3.88188 -0.552511 0
M  V30 279 H 21.7344 4.15692 0.398696 0
M  V30 280 N 22.1715 0.800033 1.35784 0
M  V30 281 C 23.4185 0.377342 1.98953 0
M  V30 282 C 23.7465 -1.05378 1.6348 0
M  V30 283 O 23.0015 -1.74459 0.886707 0
M  V30 284 C 23.3005 0.500276 3.53881 0
M  V30 285 C 22.9665 1.89375 4.09204 0
M  V30 286 C 21.6285 2.27499 4.24025 0
M  V30 287 C 23.9805 2.8057 4.39238 0
M  V30 288 C 21.3085 3.562 4.66195 0
M  V30 289 C 23.6605 4.0871 4.82844 0
M  V30 290 C 22.3245 4.46843 4.95871 0
M  V30 291 H 21.5945 0.138079 0.728021 0
M  V30 292 H 24.2415 1.01955 1.62103 0
M  V30 293 H 22.5465 -0.225405 3.91151 0
M  V30 294 H 24.2435 0.154097 4.00704 0
M  V30 295 H 20.8335 1.58753 3.98115 0
M  V30 296 H 25.0175 2.52367 4.27346 0
M  V30 297 H 20.2735 3.85602 4.74469 0
M  V30 298 H 24.4475 4.79481 5.05046 0
M  V30 299 H 22.0745 5.46623 5.28306 0
M  V30 300 N 23.6496 -1.47581 0.552962 0
M  V30 301 C 24.8976 -2.02082 0.0272703 0
M  V30 302 C 25.2186 -1.4301 -1.32563 0
M  V30 303 O 24.4886 -0.603745 -1.86365 0
M  V30 304 H 23.0686 -0.746966 0.00709182 0
M  V30 305 H 25.7306 -1.81033 0.722008 0
M  V30 306 H 24.8266 -3.12034 -0.0639951 0
M  V30 307 N 25.1277 -0.289203 -1.54924 0
M  V30 308 C 26.0577 0.58549 -2.2604 0
M  V30 309 C 27.0387 1.14753 -1.25562 0
M  V30 310 O 28.2237 1.17906 -1.54311 0
M  V30 311 C 25.3537 1.76305 -2.99222 0
M  V30 312 C 24.3077 1.33191 -4.06748 0
M  V30 313 C 23.6337 2.5937 -4.6758 0
M  V30 314 C 24.9337 0.471775 -5.20165 0
M  V30 315 H 26.6277 -0.00763532 -2.99399 0
M  V30 316 H 24.1737 -0.00511229 -1.43999 0
M  V30 317 H 26.1267 2.38097 -3.47689 0
M  V30 318 H 24.8507 2.38223 -2.23422 0
M  V30 319 H 23.5097 0.737121 -3.59113 0
M  V30 320 H 23.1577 3.19576 -3.88433 0
M  V30 321 H 22.8577 2.31228 -5.40192 0
M  V30 322 H 24.3817 3.21985 -5.18804 0
M  V30 323 H 25.7957 0.995056 -5.64599 0
M  V30 324 H 24.1927 0.284639 -5.99425 0
M  V30 325 H 25.2627 -0.506041 -4.82252 0
M  V30 326 N 26.6058 1.57591 -0.0167156 0
M  V30 327 C 27.5688 2.08393 0.954204 0
M  V30 328 C 28.5688 0.996531 1.26198 0
M  V30 329 O 29.7588 1.25858 1.20438 0
M  V30 330 C 26.8908 2.5394 2.27436 0
M  V30 331 H 28.0838 2.95455 0.514451 0
M  V30 332 H 25.6368 1.54582 0.231089 0
M  V30 333 H 26.3718 1.70171 2.76066 0
M  V30 334 H 26.1568 3.33371 2.06412 0
M  V30 335 H 27.6468 2.93512 2.97053 0
M  V30 336 N 28.0839 -0.256276 1.55502 0
M  V30 337 C 29.3089 -1.00766 1.81276 0
M  V30 338 C 29.7339 -1.78524 0.59252 0
M  V30 339 O 29.0919 -1.75413 -0.45827 0
M  V30 340 C 29.1399 -1.92869 3.04687 0
M  V30 341 O 28.2439 -3.019 2.80945 0
M  V30 342 H 27.5849 -0.287224 0.598664 0
M  V30 343 H 30.1149 -0.280109 2.02674 0
M  V30 344 H 30.1249 -2.34511 3.33869 0
M  V30 345 H 28.7999 -1.35689 3.93143 0
M  V30 346 H 27.3769 -2.64454 2.62904 0
M  V30 347 N 29.562 -1.4872 -0.521534 0
M  V30 348 C 30.808 -1.574 -1.27879 0
M  V30 349 C 31.141 -0.250817 -1.92573 0
M  V30 350 O 30.416 0.743934 -1.79711 0
M  V30 351 C 30.699 -2.71843 -2.36164 0
M  V30 352 C 30.552 -4.13893 -1.76105 0
M  V30 353 C 31.871 -2.82008 -3.37875 0
M  V30 354 H 28.99 -0.572941 -0.463581 0
M  V30 355 H 31.632 -1.80927 -0.580119 0
M  V30 356 H 29.782 -2.51914 -2.95756 0
M  V30 357 H 31.454 -4.45284 -1.20499 0
M  V30 358 H 29.697 -4.20498 -1.06601 0
M  V30 359 H 30.368 -4.89804 -2.5455 0
M  V30 360 H 32.844 -3.00086 -2.88249 0
M  V30 361 H 31.72 -3.63796 -4.11028 0
M  V30 362 H 31.981 -1.90511 -3.98946 0
M  V30 363 N 31.0401 0.771051 -1.3745 0
M  V30 364 C 32.2651 1.56529 -1.36065 0
M  V30 365 C 32.6901 1.88029 0.0515859 0
M  V30 366 O 32.0481 1.49282 1.02882 0
M  V30 367 C 32.0961 2.85187 -2.20683 0
M  V30 368 O 31.2001 3.79593 -1.61193 0
M  V30 369 H 30.5411 0.47411 -0.464883 0
M  V30 370 H 33.0711 0.954269 -1.80983 0
M  V30 371 H 33.0811 3.34283 -2.33921 0
M  V30 372 H 31.7561 2.61588 -3.23334 0
M  V30 373 H 30.3331 3.38239 -1.56999 0
M  V30 374 N 32.5182 1.22032 0.997298 0
M  V30 375 C 33.4812 0.987909 2.06816 0
M  V30 376 C 34.4812 -0.0440084 1.6074 0
M  V30 377 O 35.6712 0.194053 1.73116 0
M  V30 378 C 32.8032 0.49132 3.37341 0
M  V30 379 H 33.9962 1.93803 2.28868 0
M  V30 380 H 31.5492 1.03838 1.16822 0
M  V30 381 H 32.2842 -0.463364 3.20973 0
M  V30 382 H 32.0692 1.23575 3.72118 0
M  V30 383 H 33.5592 0.348824 4.16141 0
M  V30 384 N 33.9963 -1.19345 1.0293 0
M  V30 385 C 34.9593 -2.20793 0.615069 0
M  V30 386 C 35.9593 -1.57553 -0.321533 0
M  V30 387 O 37.1493 -1.73862 -0.108483 0
M  V30 388 C 34.2813 -3.40754 -0.0999222 0
M  V30 389 H 35.4743 -2.58955 1.51269 0
M  V30 390 H 33.0273 -1.3303 0.820534 0
M  V30 391 H 33.7623 -3.0811 -1.01187 0
M  V30 392 H 33.5473 -3.87889 0.57309 0
M  V30 393 H 35.0373 -4.15898 -0.376645 0
M  V30 394 N 35.4744 -0.807222 -1.35358 0
M  V30 395 C 36.7214 -0.387888 -1.9875 0
M  V30 396 C 37.0494 1.04509 -1.64037 0
M  V30 397 O 36.3044 1.73986 -0.895946 0
M  V30 398 C 36.6034 -0.519036 -3.53611 0
M  V30 399 C 36.2694 -1.91542 -4.08194 0
M  V30 400 C 34.9314 -2.29745 -4.22813 0
M  V30 401 C 37.2834 -2.82896 -4.37744 0
M  V30 402 C 34.6114 -3.58668 -4.643 0
M  V30 403 C 36.9634 -4.11265 -4.8067 0
M  V30 404 C 35.6274 -4.49466 -4.93494 0
M  V30 405 H 34.8974 -0.141938 -0.727279 0
M  V30 406 H 37.5444 -1.02814 -1.6156 0
M  V30 407 H 35.8494 0.204658 -3.91265 0
M  V30 408 H 37.5464 -0.175345 -4.00616 0
M  V30 409 H 34.1364 -1.60862 -3.97268 0
M  V30 410 H 38.3204 -2.54629 -4.26002 0
M  V30 411 H 33.5764 -3.88113 -4.72418 0
M  V30 412 H 37.7504 -4.82153 -5.02496 0
M  V30 413 H 35.3774 -5.49418 -5.25399 0
M  V30 414 N 36.9525 1.47285 -0.560781 0
M  V30 415 C 37.8825 2.32857 0.173105 0
M  V30 416 C 38.8635 1.44009 0.905281 0
M  V30 417 O 40.0485 1.7286 0.885046 0
M  V30 418 C 37.1785 3.25861 1.20133 0
M  V30 419 C 36.1325 4.23978 0.585388 0
M  V30 420 C 35.4585 5.06332 1.7185 0
M  V30 421 C 36.7585 5.20242 -0.463178 0
M  V30 422 H 38.4525 2.94466 -0.541307 0
M  V30 423 H 35.9985 1.41601 -0.261764 0
M  V30 424 H 37.9515 3.84569 1.72293 0
M  V30 425 H 36.6755 2.62315 1.94573 0
M  V30 426 H 35.3345 3.66501 0.085054 0
M  V30 427 H 34.9825 4.39186 2.45203 0
M  V30 428 H 34.6825 5.72762 1.31213 0
M  V30 429 H 36.2065 5.67899 2.24329 0
M  V30 430 H 37.6205 5.73293 -0.027502 0
M  V30 431 H 36.0175 5.94896 -0.788627 0
M  V30 432 H 37.0875 4.65504 -1.35773 0
M  V30 433 N 38.4306 0.297415 1.54768 0
M  V30 434 C 39.6766 -0.313376 2.00364 0
M  V30 435 C 40.0096 -1.53815 1.18553 0
M  V30 436 O 39.2846 -1.92739 0.261103 0
M  V30 437 C 39.5676 -0.673525 3.53745 0
M  V30 438 C 39.4206 0.560133 4.46299 0
M  V30 439 C 40.7396 -1.50143 4.13697 0
M  V30 440 H 37.8586 -0.112428 0.728374 0
M  V30 441 H 40.5006 0.4088 1.8555 0
M  V30 442 H 38.6506 -1.28881 3.665 0
M  V30 443 H 40.3226 1.19863 4.45455 0
M  V30 444 H 38.5656 1.19405 4.17043 0
M  V30 445 H 39.2366 0.26405 5.51368 0
M  V30 446 H 41.7126 -0.981588 4.04356 0
M  V30 447 H 40.5886 -1.72221 5.21182 0
M  V30 448 H 40.8496 -2.48952 3.65343 0
M  V30 449 N 39.9087 -1.5758 0.0250728 0
M  V30 450 C 41.1567 -1.91255 -0.653151 0
M  V30 451 C 41.4777 -0.901691 -1.729 0
M  V30 452 O 40.7477 0.0573785 -1.95816 0
M  V30 453 H 39.3277 -0.705942 -0.244243 0
M  V30 454 H 41.9897 -1.94767 0.0719209 0
M  V30 455 H 41.0857 -2.91752 -1.10847 0
M  V30 456 N 41.3868 0.248026 -1.55636 0
M  V30 457 C 42.6118 0.998028 -1.81808 0
M  V30 458 C 43.0368 1.78207 -0.601979 0
M  V30 459 O 42.3948 1.75653 0.448961 0
M  V30 460 C 42.4428 1.9125 -3.05705 0
M  V30 461 O 41.5468 3.00406 -2.82542 0
M  V30 462 H 40.8878 0.284045 -0.600179 0
M  V30 463 H 43.4178 0.269357 -2.02819 0
M  V30 464 H 43.4278 2.32737 -3.35108 0
M  V30 465 H 42.1028 1.33602 -3.93857 0
M  V30 466 H 40.6798 2.63056 -2.64303 0
M  V30 467 N 42.8649 1.48995 0.513639 0
M  V30 468 C 44.0929 1.61531 1.29288 0
M  V30 469 C 44.5079 0.281801 1.86685 0
M  V30 470 O 43.8649 -0.731111 1.67215 0
M  V30 471 C 43.9159 2.67449 2.43215 0
M  V30 472 O 43.6369 3.95626 1.88179 0
M  V30 473 C 45.1379 2.90575 3.34785 0
M  V30 474 H 42.3579 0.544165 0.392588 0
M  V30 475 H 44.9019 1.9494 0.617956 0
M  V30 476 H 43.0569 2.36853 3.0656 0
M  V30 477 H 43.4709 4.53868 2.62876 0
M  V30 478 H 44.9449 3.68449 4.11035 0
M  V30 479 H 45.4219 2.00011 3.91015 0
M  V30 480 H 46.0279 3.22538 2.77218 0
M  V30 481 N 44.343 -0.763751 1.37857 0
M  V30 482 C 45.589 -1.52483 1.33704 0
M  V30 483 C 45.922 -1.94051 -0.0759612 0
M  V30 484 O 45.197 -1.64675 -1.03501 0
M  V30 485 C 45.48 -2.78441 2.28348 0
M  V30 486 C 45.333 -2.43075 3.78463 0
M  V30 487 C 46.652 -3.80415 2.21298 0
M  V30 488 H 43.771 -0.553169 0.487005 0
M  V30 489 H 46.413 -0.875562 1.68624 0
M  V30 490 H 44.563 -3.33842 1.987 0
M  V30 491 H 46.235 -1.93527 4.18742 0
M  V30 492 H 44.478 -1.75666 3.96641 0
M  V30 493 H 45.149 -3.33149 4.40132 0
M  V30 494 H 47.625 -3.34527 2.47449 0
M  V30 495 H 46.501 -4.66257 2.89647 0
M  V30 496 H 46.762 -4.25262 1.20849 0
M  V30 497 N 45.8211 -1.22559 -0.990812 0
M  V30 498 C 47.0681 -1.05141 -1.73065 0
M  V30 499 C 47.3961 0.413191 -1.9006 0
M  V30 500 O 46.6511 1.32257 -1.44245 0
M  V30 501 C 46.9501 -1.71011 -3.13831 0
M  V30 502 C 46.6161 -3.20911 -3.16745 0
M  V30 503 C 45.2781 -3.61812 -3.17247 0
M  V30 504 C 47.6301 -4.16846 -3.12872 0
M  V30 505 C 44.9581 -4.97127 -3.1158 0
M  V30 506 C 47.3101 -5.5214 -3.08746 0
M  V30 507 C 45.9741 -5.92419 -3.07565 0
M  V30 508 H 45.2441 -0.384738 -0.633291 0
M  V30 509 H 47.8911 -1.5235 -1.16025 0
M  V30 510 H 46.1961 -1.16133 -3.74193 0
M  V30 511 H 47.8931 -1.55023 -3.69823 0
M  V30 512 H 44.4831 -2.88344 -3.17105 0
M  V30 513 H 48.6671 -3.86263 -3.11632 0
M  V30 514 H 43.9231 -5.27562 -3.09012 0
M  V30 515 H 48.0971 -6.26201 -3.04705 0
M  V30 516 H 45.7241 -6.97236 -3.02929 0
M  V30 517 N 47.2992 1.18797 -1.03562 0
M  V30 518 C 48.2622 2.20464 -0.626769 0
M  V30 519 C 49.2622 1.57721 0.313173 0
M  V30 520 O 50.4522 1.73917 0.0992615 0
M  V30 521 C 47.5842 3.40802 0.0818498 0
M  V30 522 H 48.7772 2.58149 -1.5264 0
M  V30 523 H 46.3302 1.32593 -0.827578 0
M  V30 524 H 47.0652 3.08642 0.995518 0
M  V30 525 H 46.8502 3.8758 -0.593652 0
M  V30 526 H 48.3402 4.16092 0.354584 0
M  V30 527 N 48.7773 0.814389 1.34928 0
M  V30 528 C 50.0233 0.399013 1.98836 0
M  V30 529 C 50.3563 -1.03314 1.64438 0
M  V30 530 O 49.6313 -1.71811 0.911659 0
M  V30 531 C 49.9143 0.591629 3.55207 0
M  V30 532 C 49.7673 2.06928 3.99376 0
M  V30 533 C 51.0863 0.022199 4.40094 0
M  V30 534 H 48.2053 0.146451 0.722303 0
M  V30 535 H 50.8473 1.02537 1.59957 0
M  V30 536 H 48.9973 0.0584441 3.88456 0
M  V30 537 H 50.6693 2.66544 3.76499 0
M  V30 538 H 48.9123 2.56287 3.49999 0
M  V30 539 H 49.5833 2.1549 5.08201 0
M  V30 540 H 52.0593 0.477643 4.13349 0
M  V30 541 H 50.9353 0.186832 5.48582 0
M  V30 542 H 51.1963 -1.07215 4.28902 0
M  V30 543 N 50.2554 -1.46986 0.568584 0
M  V30 544 C 51.5324 -1.95592 -0.0174074 0
M  V30 545 C 51.9124 -1.51124 -1.47393 0
M  V30 546 O 51.2604 -0.755329 -2.15655 0
M  V30 547 C 51.4704 -3.48719 0.139913 0
M  V30 548 C 52.8184 -4.246 0.000426376 0
M  V30 549 O 53.8424 -3.56135 0.0680316 0
M  V30 550 O 52.7014 -5.46302 -0.146988 0
M  V30 551 H 49.7954 -0.82498 -0.0577599 0
M  V30 552 H 52.3414 -1.57335 0.635909 0
M  V30 553 H 51.1134 -3.73927 1.15301 0
M  V30 554 H 50.7364 -3.93771 -0.550491 0
M  V30 555 N 51.7335 -0.305618 -1.54608 0
M  V30 556 C 52.9585 0.307562 -2.05107 0
M  V30 557 C 53.3835 1.46385 -1.18123 0
M  V30 558 O 52.7415 1.8034 -0.186324 0
M  V30 559 C 52.7895 0.73704 -3.52987 0
M  V30 560 O 51.8935 1.84134 -3.6901 0
M  V30 561 H 51.2345 0.0589143 -0.661381 0
M  V30 562 H 53.7645 -0.448807 -1.99617 0
M  V30 563 H 53.7745 1.02459 -3.94925 0
M  V30 564 H 52.4495 -0.108773 -4.15758 0
M  V30 565 H 51.0265 1.55398 -3.38978 0
M  V30 566 N 53.2116 1.57565 -0.0334293 0
M  V30 567 C 54.6226 1.79746 0.504798 0
M  V30 568 C 54.9736 0.944091 1.71992 0
M  V30 569 O 54.0986 0.155694 2.15839 0
M  V30 570 C 54.6936 3.25997 0.922567 0
M  V30 571 C 53.2526 3.49159 1.40588 0
M  V30 572 C 52.3996 2.74785 0.372633 0
M  V30 573 H 55.3506 1.56565 -0.259436 0
M  V30 574 H 55.3716 3.35945 1.78666 0
M  V30 575 H 54.8836 3.88081 0.0379825 0
M  V30 576 H 52.9846 2.92332 2.31025 0
M  V30 577 H 53.0976 4.57873 1.41028 0
M  V30 578 H 51.4616 2.40391 0.841672 0
M  V30 579 H 52.2446 3.39587 -0.503559 0
M  V30 580 N 54.6897 -0.239769 1.55765 0
M  V30 581 C 55.9387 -0.964754 1.77131 0
M  V30 582 C 56.2517 -1.86213 0.59868 0
M  V30 583 O 57.4577 -2.6244 0.695522 0
M  V30 584 C 55.9137 -1.76552 3.1362 0
M  V30 585 C 55.5217 -0.915185 4.38553 0
M  V30 586 C 57.2657 -2.48281 3.44321 0
M  V30 587 C 55.1727 -1.71225 5.66071 0
M  V30 588 H 54.1027 -0.363953 0.660344 0
M  V30 589 H 56.7537 -0.219181 1.82186 0
M  V30 590 H 55.1357 -2.55331 3.02691 0
M  V30 591 H 56.3097 -0.169217 4.60489 0
M  V30 592 H 54.6247 -0.310889 4.15238 0
M  V30 593 H 57.2217 -3.08382 4.36812 0
M  V30 594 H 57.5647 -3.20256 2.65973 0
M  V30 595 H 58.0977 -1.76507 3.56497 0
M  V30 596 H 54.8367 -1.03612 6.4726 0
M  V30 597 H 54.3567 -2.43331 5.48224 0
M  V30 598 H 56.0357 -2.27758 6.05587 0
M  V30 599 N 56.1678 -1.49265 -0.50573 0
M  V30 600 C 57.0778 -1.68312 -1.63427 0
M  V30 601 C 58.0938 -0.565682 -1.64548 0
M  V30 602 O 59.2698 -0.839801 -1.83055 0
M  V30 603 C 56.3348 -1.74107 -2.99813 0
M  V30 604 C 55.3958 -2.97653 -3.09356 0
M  V30 605 C 54.6288 -3.03163 -4.39236 0
M  V30 606 O 54.8518 -2.16396 -5.27758 0
M  V30 607 O 53.7858 -3.9558 -4.53652 0
M  V30 608 H 57.6118 -2.63907 -1.50289 0
M  V30 609 H 55.1968 -1.32951 -0.681502 0
M  V30 610 H 57.0788 -1.803 -3.80881 0
M  V30 611 H 55.7538 -0.816901 -3.13223 0
M  V30 612 H 54.6608 -2.96981 -2.27493 0
M  V30 613 H 55.9938 -3.89535 -3.00871 0
M  V30 614 N 57.6459 0.756429 -1.3826 0
M  V30 615 C 58.9229 1.50584 -1.24835 0
M  V30 616 C 59.3029 2.10556 0.151485 0
M  V30 617 O 58.6509 1.96825 1.1607 0
M  V30 618 C 58.8609 2.57448 -2.3563 0
M  V30 619 C 60.2089 3.24429 -2.73917 0
M  V30 620 O 61.2329 2.67751 -2.34921 0
M  V30 621 O 60.0919 4.26937 -3.41156 0
M  V30 622 H 57.1859 0.667664 -0.48801 0
M  V30 623 H 59.7319 0.792083 -1.5008 0
M  V30 624 H 58.5039 2.11362 -3.29305 0
M  V30 625 H 58.1269 3.36408 -2.11933 0
M  V30 626 N 59.124 1.23083 0.984299 0
M  V30 627 C 60.352 1.08714 1.76037 0
M  V30 628 C 60.767 -0.361691 1.85303 0
M  V30 629 O 60.124 -1.25034 1.32939 0
M  V30 630 C 60.175 1.70206 3.18923 0
M  V30 631 O 59.896 3.09423 3.10144 0
M  V30 632 C 61.397 1.61227 4.12941 0
M  V30 633 H 58.617 0.380664 0.552572 0
M  V30 634 H 61.161 1.62853 1.23689 0
M  V30 635 H 59.316 1.20109 3.6831 0
M  V30 636 H 59.73 3.39188 4.00065 0
M  V30 637 H 61.204 2.08962 5.10919 0
M  V30 638 H 61.681 0.570375 4.35481 0
M  V30 639 H 62.287 2.10671 3.69456 0
M  V30 640 N 60.6021 -1.18246 1.0419 0
M  V30 641 C 62.0131 -1.69914 0.773698 0
M  V30 642 C 62.3641 -1.83085 -0.705297 0
M  V30 643 O 61.4891 -1.51123 -1.5489 0
M  V30 644 C 62.0841 -3.08619 1.39784 0
M  V30 645 C 60.6431 -3.57494 1.17792 0
M  V30 646 C 59.7901 -2.34013 1.48773 0
M  V30 647 H 62.7411 -1.02904 1.20816 0
M  V30 648 H 62.7621 -3.71958 0.801714 0
M  V30 649 H 62.2741 -2.99001 2.47426 0
M  V30 650 H 60.3751 -3.72406 0.120295 0
M  V30 651 H 60.4881 -4.40852 1.87581 0
M  V30 652 H 58.8521 -2.37986 0.907463 0
M  V30 653 H 59.6351 -2.27013 2.57527 0
M  V30 654 N 62.0802 -0.821533 -1.34494 0
M  V30 655 C 63.3292 -0.405355 -1.97585 0
M  V30 656 C 63.6422 1.03677 -1.65863 0
M  V30 657 O 64.8482 1.55679 -2.22433 0
M  V30 658 C 63.3042 -0.673861 -3.53535 0
M  V30 659 C 62.9122 -2.12951 -3.94152 0
M  V30 660 C 64.6562 -0.32378 -4.23263 0
M  V30 661 C 62.5632 -2.34298 -5.43009 0
M  V30 662 H 61.4932 -0.147836 -0.739365 0
M  V30 663 H 64.1442 -1.00769 -1.53355 0
M  V30 664 H 62.5262 -0.00137554 -3.96 0
M  V30 665 H 63.7002 -2.84104 -3.62797 0
M  V30 666 H 62.0152 -2.44089 -3.37356 0
M  V30 667 H 64.6122 -0.461126 -5.32708 0
M  V30 668 H 64.9552 0.731586 -4.09821 0
M  V30 669 H 65.4882 -0.950786 -3.8627 0
M  V30 670 H 62.2272 -3.38335 -5.61435 0
M  V30 671 H 61.7472 -1.67687 -5.75883 0
M  V30 672 H 63.4262 -2.16588 -6.09671 0
M  V30 673 N 63.5583 1.46682 -0.576371 0
M  V30 674 C 64.8073 2.01619 -0.0572825 0
M  V30 675 C 65.1203 1.45417 1.30818 0
M  V30 676 O 66.3263 1.92133 1.91825 0
M  V30 677 C 64.7823 3.59863 -0.0518371 0
M  V30 678 C 64.3903 4.25059 -1.41523 0
M  V30 679 C 66.1343 4.2248 0.413639 0
M  V30 680 C 64.0413 5.75364 -1.36785 0
M  V30 681 H 62.9713 0.753794 -0.0176448 0
M  V30 682 H 65.6223 1.68481 -0.727076 0
M  V30 683 H 64.0043 3.90048 0.683994 0
M  V30 684 H 65.1783 4.06491 -2.17029 0
M  V30 685 H 63.4933 3.7451 -1.8202 0
M  V30 686 H 66.0903 5.3265 0.467779 0
M  V30 687 H 66.4333 3.90976 1.42982 0
M  V30 688 H 66.9663 3.96897 -0.267929 0
M  V30 689 H 63.7053 6.11518 -2.36063 0
M  V30 690 H 63.2253 5.96214 -0.654895 0
M  V30 691 H 64.9043 6.37955 -1.07805 0
M  V30 692 N 65.0364 0.313813 1.54444 0
M  V30 693 C 66.4524 -0.0391619 1.59552 0
M  V30 694 C 66.6524 -1.51322 1.33056 0
M  V30 695 O 65.7084 -2.26782 1.11022 0
M  V30 696 C 67.0214 0.370302 2.98411 0
M  V30 697 C 68.5694 0.320139 3.11358 0
M  V30 698 C 69.0444 0.704617 4.52547 0
M  V30 699 N 70.5354 0.657645 4.58508 0
M  V30 700 C 71.2704 0.927453 5.6585 0
M  V30 701 N 70.7664 1.26389 6.81174 0
M  V30 702 N 72.5594 0.853662 5.5558 0
M  V30 703 H 64.7104 1.27433 1.69925 0
M  V30 704 H 66.9734 0.517511 0.794284 0
M  V30 705 H 66.6794 1.39694 3.22767 0
M  V30 706 H 66.5534 -0.269619 3.76235 0
M  V30 707 H 68.9404 -0.697275 2.86744 0
M  V30 708 H 69.0214 0.99486 2.35661 0
M  V30 709 H 68.6654 1.7199 4.77893 0
M  V30 710 H 68.5954 0.00768843 5.26599 0
M  V30 711 H 71.0864 0.409067 3.75679 0
M  V30 712 H 71.3994 1.4554 7.58972 0
M  V30 713 H 69.7444 1.30206 6.82694 0
M  V30 714 H 72.9354 0.590383 4.64362 0
M  V30 715 H 73.1084 1.0673 6.3915 0
M  V30 716 N 66.5145 -1.57545 0.0417849 0
M  V30 717 C 67.4625 -2.12148 -0.953723 0
M  V30 718 C 68.4565 -1.05104 -1.32852 0
M  V30 719 O 69.6625 -1.23524 -1.30927 0
M  V30 720 H 66.0375 -0.677957 -0.325389 0
M  V30 721 H 68.0085 -2.94707 -0.467991 0
M  V30 722 C 66.7575 -2.6739 -2.22257 0
M  V30 723 H 66.0805 -3.49413 -1.94295 0
M  V30 724 H 67.5205 -3.09227 -2.90094 0
M  V30 725 C 65.9795 -1.60723 -2.96091 0
M  V30 726 O 66.5095 -1.01449 -3.88679 0
M  V30 727 N 64.7155 -1.32466 -2.58652 0
M  V30 728 H 64.2625 -1.80856 -1.83437 0
M  V30 729 H 64.2205 -0.61325 -3.08361 0
M  V30 730 N 67.9926 0.231505 -1.5589 0
M  V30 731 C 69.2406 0.955461 -1.78088 0
M  V30 732 C 69.5616 1.85262 -0.608533 0
M  V30 733 O 68.8316 1.92277 0.375035 0
M  V30 734 H 67.4116 0.355787 -0.656829 0
M  V30 735 H 70.0736 0.245751 -1.93344 0
M  V30 736 H 69.1696 1.56814 -2.69844 0
M  V30 737 N 69.4707 1.49531 0.497807 0
M  V30 738 C 70.7187 1.58865 1.24926 0
M  V30 739 C 71.0397 0.278721 1.92998 0
M  V30 740 O 70.3097 -0.702144 1.82885 0
M  V30 741 H 68.8897 0.585343 0.464094 0
M  V30 742 H 71.5517 1.86174 0.57666 0
M  V30 743 H 70.6477 2.38633 2.01149 0
M  V30 744 N 70.9488 -0.749086 1.3866 0
M  V30 745 C 71.8588 -1.89358 1.38494 0
M  V30 746 C 72.8748 -1.71708 0.281476 0
M  V30 747 O 74.0508 -1.94554 0.520643 0
M  V30 748 C 71.1158 -3.24782 1.21316 0
M  V30 749 C 70.1768 -3.54926 2.41508 0
M  V30 750 C 69.4098 -4.83888 2.2514 0
M  V30 751 O 69.6328 -5.56592 1.24746 0
M  V30 752 O 68.5668 -5.13612 3.13826 0
M  V30 753 H 72.3928 -1.92452 2.34938 0
M  V30 754 H 69.9778 -0.894981 1.19626 0
M  V30 755 H 71.8598 -4.05739 1.13814 0
M  V30 756 H 70.5348 -3.2249 0.279592 0
M  V30 757 H 69.4418 -2.74112 2.54585 0
M  V30 758 H 70.7748 -3.61983 3.3351 0
M  V30 759 N 72.4269 -1.23603 -0.977757 0
M  V30 760 C 73.3569 -1.04401 -2.0886 0
M  V30 761 C 74.3379 0.0399052 -1.70053 0
M  V30 762 O 75.5229 -0.125246 -1.93796 0
M  V30 763 C 72.6529 -0.637269 -3.41403 0
M  V30 764 C 71.6069 -1.66883 -3.94124 0
M  V30 765 C 70.9329 -1.11745 -5.22893 0
M  V30 766 C 72.2329 -3.06247 -4.23096 0
M  V30 767 H 73.9269 -1.97316 -2.25182 0
M  V30 768 H 71.4729 -0.950096 -1.08209 0
M  V30 769 H 73.4259 -0.48998 -4.18542 0
M  V30 770 H 72.1499 0.327557 -3.24953 0
M  V30 771 H 70.8089 -1.80416 -3.19133 0
M  V30 772 H 70.4569 -0.143527 -5.02795 0
M  V30 773 H 70.1569 -1.80672 -5.59134 0
M  V30 774 H 71.6809 -0.982067 -6.02651 0
M  V30 775 H 73.0949 -2.96001 -4.90975 0
M  V30 776 H 71.4919 -3.72436 -4.70544 0
M  V30 777 H 72.5619 -3.55041 -3.30263 0
M  V30 778 N 73.905 1.17692 -1.04816 0
M  V30 779 C 75.133 1.91786 -0.776254 0
M  V30 780 C 75.548 1.76604 0.667577 0
M  V30 781 O 74.905 1.10067 1.45573 0
M  V30 782 C 74.956 3.42967 -1.14263 0
M  V30 783 O 74.677 3.57678 -2.52978 0
M  V30 784 C 76.178 4.34144 -0.896311 0
M  V30 785 H 73.398 0.608624 -0.282519 0
M  V30 786 H 75.942 1.49268 -1.39783 0
M  V30 787 H 74.097 3.83245 -0.565874 0
M  V30 788 H 74.511 4.51319 -2.67229 0
M  V30 789 H 75.985 5.38744 -1.20244 0
M  V30 790 H 76.462 4.38876 0.168636 0
M  V30 791 H 77.068 3.99574 -1.45672 0
M  V30 792 N 75.3831 0.828654 1.34056 0
M  V30 793 C 76.3311 0.242973 2.31327 0
M  V30 794 C 77.3251 -0.61944 1.57668 0
M  V30 795 O 78.5311 -0.51014 1.7262 0
M  V30 796 H 74.9061 0.059834 0.749616 0
M  V30 797 H 76.8771 1.07809 2.78244 0
M  V30 798 C 75.6261 -0.575733 3.429 0
M  V30 799 H 74.9491 0.0785582 3.99723 0
M  V30 800 H 76.3891 -0.951547 4.13185 0
M  V30 801 C 74.8481 -1.75044 2.87856 0
M  V30 802 O 75.3781 -2.84882 2.83205 0
M  V30 803 N 73.5841 -1.56903 2.44602 0
M  V30 804 H 73.1311 -0.675547 2.48584 0
M  V30 805 H 73.0891 -2.35652 2.08124 0
M  V30 806 N 76.8612 -1.46375 0.584142 0
M  V30 807 C 77.7912 -2.33103 -0.136037 0
M  V30 808 C 78.7722 -1.45431 -0.882255 0
M  V30 809 O 79.9572 -1.74246 -0.857434 0
M  V30 810 C 77.0872 -3.27731 -1.14933 0
M  V30 811 C 76.0412 -4.24855 -0.517862 0
M  V30 812 C 75.3672 -5.09001 -1.63773 0
M  V30 813 C 76.6672 -5.19439 0.545886 0
M  V30 814 H 78.3612 -2.93568 0.588086 0
M  V30 815 H 75.9072 -1.41166 0.284259 0
M  V30 816 H 77.8602 -3.87261 -1.66153 0
M  V30 817 H 76.5842 -2.65377 -1.90375 0
M  V30 818 H 75.2432 -3.6659 -0.0267361 0
M  V30 819 H 74.8912 -4.43031 -2.38185 0
M  V30 820 H 74.5912 -5.74777 -1.22085 0
M  V30 821 H 76.1152 -5.71396 -2.15266 0
M  V30 822 H 77.5292 -5.73177 0.118704 0
M  V30 823 H 75.9262 -5.93566 0.88317 0
M  V30 824 H 76.9962 -4.63285 1.43162 0
M  V30 825 N 78.3393 -0.321999 -1.54275 0
M  V30 826 C 79.2693 0.537411 -2.27231 0
M  V30 827 C 80.2503 1.12064 -1.27968 0
M  V30 828 O 81.4353 1.14606 -1.56777 0
M  V30 829 C 78.5653 1.69919 -3.02894 0
M  V30 830 C 77.5193 1.24534 -4.09482 0
M  V30 831 C 76.8453 2.49394 -4.72977 0
M  V30 832 C 78.1453 0.361335 -5.21049 0
M  V30 833 H 79.8393 -0.0711406 -2.99315 0
M  V30 834 H 77.3853 -0.0356555 -1.43956 0
M  V30 835 H 79.3383 2.30668 -3.52662 0
M  V30 836 H 78.0623 2.33431 -2.28424 0
M  V30 837 H 76.7213 0.660782 -3.60596 0
M  V30 838 H 76.3693 3.11265 -3.95124 0
M  V30 839 H 76.0693 2.19718 -5.44975 0
M  V30 840 H 77.5933 3.10908 -5.25517 0
M  V30 841 H 79.0073 0.875072 -5.66582 0
M  V30 842 H 77.4043 0.157428 -5.99893 0
M  V30 843 H 78.4743 -0.60822 -4.8107 0
M  V30 844 N 79.8174 1.5752 -0.0501392 0
M  V30 845 C 81.0654 1.9227 0.622642 0
M  V30 846 C 81.3864 0.929083 1.71444 0
M  V30 847 O 80.6564 -0.0262186 1.95882 0
M  V30 848 H 79.2364 0.709739 0.232981 0
M  V30 849 H 81.8984 1.94628 -0.102898 0
M  V30 850 H 80.9944 2.93479 1.06191 0
M  V30 851 N 81.2955 -0.223234 1.56011 0
M  V30 852 C 82.2435 -1.29627 1.93131 0
M  V30 853 C 83.2375 -1.48608 0.813146 0
M  V30 854 O 84.4435 -1.49802 0.997966 0
M  V30 855 H 80.8185 -0.434563 0.613726 0
M  V30 856 H 82.7895 -0.955995 2.82672 0
M  V30 857 C 81.5385 -2.63983 2.26292 0
M  V30 858 H 80.8615 -2.50185 3.11846 0
M  V30 859 H 82.3015 -3.3788 2.56151 0
M  V30 860 C 80.7605 -3.18866 1.08747 0
M  V30 861 O 81.2905 -4.00192 0.347727 0
M  V30 862 N 79.4965 -2.77217 0.871743 0
M  V30 863 H 79.0435 -2.1119 1.47501 0
M  V30 864 H 79.0015 -3.1428 0.0869905 0
M  V30 865 N 82.7736 -1.49793 -0.48987 0
M  V30 866 C 83.9986 -1.63836 -1.27172 0
M  V30 867 C 84.4236 -0.31402 -1.8546 0
M  V30 868 O 83.7816 0.719803 -1.66399 0
M  V30 869 C 83.8296 -2.71797 -2.36978 0
M  V30 870 O 82.9336 -2.31744 -3.41128 0
M  V30 871 H 82.2746 -0.547997 -0.37496 0
M  V30 872 H 84.8046 -1.96053 -0.585191 0
M  V30 873 H 84.8146 -2.94305 -2.82575 0
M  V30 874 H 83.4896 -3.67923 -1.93921 0
M  V30 875 H 82.0666 -2.1961 -3.01373 0
M  V30 876 N 84.2517 0.741722 -1.39055 0
M  V30 877 C 85.1617 1.88621 -1.39496 0
M  V30 878 C 86.1777 1.71557 -0.290578 0
M  V30 879 O 87.3537 1.94275 -0.530954 0
M  V30 880 C 84.4187 3.24134 -1.23037 0
M  V30 881 C 83.4797 3.5364 -2.43387 0
M  V30 882 C 82.7127 4.82687 -2.27703 0
M  V30 883 O 82.9357 5.55922 -1.27696 0
M  V30 884 O 81.8697 5.1194 -3.16545 0
M  V30 885 H 85.6957 1.91203 -2.35956 0
M  V30 886 H 83.2807 0.888625 -1.20099 0
M  V30 887 H 85.1627 4.0513 -1.15964 0
M  V30 888 H 83.8377 3.22337 -0.296691 0
M  V30 889 H 82.7447 2.72758 -2.56035 0
M  V30 890 H 84.0777 3.60209 -3.35425 0
M  V30 891 N 85.7298 1.2412 0.971189 0
M  V30 892 C 86.9578 1.10575 1.74874 0
M  V30 893 C 87.3728 -0.342017 1.85676 0
M  V30 894 O 86.7298 -1.23617 1.34258 0
M  V30 895 C 86.7808 1.73579 3.171 0
M  V30 896 O 86.5018 3.12695 3.06844 0
M  V30 897 C 88.0028 1.65598 4.11208 0
M  V30 898 H 85.2228 0.386504 0.548503 0
M  V30 899 H 87.7668 1.64156 1.21955 0
M  V30 900 H 85.9218 1.24009 3.67016 0
M  V30 901 H 86.3358 3.43412 3.96445 0
M  V30 902 H 87.8098 2.1437 5.08674 0
M  V30 903 H 88.2868 0.616532 4.34851 0
M  V30 904 H 88.8928 2.14578 3.67201 0
M  V30 905 N 87.2079 -1.17134 1.05439 0
M  V30 906 C 88.4359 -1.91372 0.786414 0
M  V30 907 C 88.8509 -1.76955 -0.658202 0
M  V30 908 O 88.2079 -1.10838 -1.44987 0
M  V30 909 C 88.2589 -3.42356 1.1608 0
M  V30 910 O 87.9799 -3.56332 2.54871 0
M  V30 911 C 89.4809 -4.33663 0.919322 0
M  V30 912 H 86.7009 -0.607118 0.285743 0
M  V30 913 H 89.2449 -1.48525 1.40572 0
M  V30 914 H 87.3999 -3.82939 0.586191 0
M  V30 915 H 87.8139 -4.49896 2.69618 0
M  V30 916 H 89.2879 -5.38099 1.231 0
M  V30 917 H 89.7649 -4.38959 -0.145359 0
M  V30 918 H 90.3709 -3.98796 1.47789 0
M  V30 919 N 88.686 -0.835752 -1.33615 0
M  V30 920 C 89.616 -0.281739 -2.31794 0
M  V30 921 C 90.597 0.608833 -1.58831 0
M  V30 922 O 91.782 0.533035 -1.86741 0
M  V30 923 C 88.912 0.546612 -3.42971 0
M  V30 924 C 87.866 -0.247904 -4.27281 0
M  V30 925 C 87.192 0.704001 -5.30045 0
M  V30 926 C 88.492 -1.46324 -5.01385 0
M  V30 927 H 90.186 -1.10206 -2.78379 0
M  V30 928 H 87.732 -0.531388 -1.33837 0
M  V30 929 H 89.685 0.944467 -4.1068 0
M  V30 930 H 88.409 1.40011 -2.95067 0
M  V30 931 H 87.068 -0.627281 -3.61194 0
M  V30 932 H 86.716 1.55381 -4.78399 0
M  V30 933 H 86.416 0.176524 -5.87335 0
M  V30 934 H 87.94 1.09944 -6.0062 0
M  V30 935 H 89.354 -1.13871 -5.61877 0
M  V30 936 H 87.751 -1.92728 -5.6831 0
M  V30 937 H 88.821 -2.23467 -4.30338 0
M  V30 938 N 90.1641 1.46063 -0.591896 0
M  V30 939 C 91.1271 2.28854 0.125973 0
M  V30 940 C 92.1271 1.38903 0.810107 0
M  V30 941 O 93.3171 1.61186 0.66066 0
M  V30 942 C 90.4491 3.19526 1.1881 0
M  V30 943 H 91.6421 2.93802 -0.601717 0
M  V30 944 H 89.1951 1.52325 -0.350254 0
M  V30 945 H 89.9301 2.59345 1.94707 0
M  V30 946 H 89.7151 3.85766 0.701936 0
M  V30 947 H 91.2051 3.81817 1.69132 0
M  V30 948 N 91.6422 0.330177 1.54103 0
M  V30 949 C 92.5722 -0.525353 2.27513 0
M  V30 950 C 93.5532 -1.11383 1.2856 0
M  V30 951 O 94.7382 -1.13773 1.57383 0
M  V30 952 C 91.8682 -1.6831 3.03791 0
M  V30 953 C 90.8222 -1.2236 4.10137 0
M  V30 954 C 90.1482 -2.46882 4.74293 0
M  V30 955 C 91.4482 -0.333697 5.21233 0
M  V30 956 H 93.1422 0.087013 2.99274 0
M  V30 957 H 90.6882 0.0432893 1.43935 0
M  V30 958 H 92.6412 -2.28795 3.5388 0
M  V30 959 H 91.3652 -2.32216 2.29659 0
M  V30 960 H 90.0242 -0.64165 3.60941 0
M  V30 961 H 89.6722 -3.09165 3.96769 0
M  V30 962 H 89.3722 -2.16825 5.46133 0
M  V30 963 H 90.8962 -3.08117 5.27159 0
M  V30 964 H 92.3102 -0.845013 5.67038 0
M  V30 965 H 90.7072 -0.125612 5.99969 0
M  V30 966 H 91.7772 0.633724 4.80741 0
M  V30 967 N 93.1203 -1.57491 0.0584922 0
M  V30 968 C 94.5363 -1.56792 -0.298091 0
M  V30 969 C 94.7363 -1.06679 -1.70944 0
M  V30 970 O 93.7923 -0.726672 -2.41818 0
M  V30 971 C 95.1053 -3.00461 -0.119879 0
M  V30 972 C 96.6533 -3.1242 -0.190428 0
M  V30 973 C 97.1283 -4.57982 -0.0406567 0
M  V30 974 N 98.6193 -4.63099 -0.0966958 0
M  V30 975 C 99.3543 -5.734 -0.00502943 0
M  V30 976 N 98.8503 -6.9266 0.139402 0
M  V30 977 N 100.643 -5.62067 -0.0611391 0
M  V30 978 H 92.7943 -1.88386 0.98105 0
M  V30 979 H 95.0573 -0.867865 0.381463 0
M  V30 980 H 94.7633 -3.41187 0.85349 0
M  V30 981 H 94.6373 -3.66843 -0.877833 0
M  V30 982 H 97.0243 -2.71589 -1.15427 0
M  V30 983 H 97.1053 -2.48702 0.598405 0
M  V30 984 H 96.7493 -4.995 0.919897 0
M  V30 985 H 96.6793 -5.19715 -0.848727 0
M  V30 986 H 99.1703 -3.77331 -0.207277 0
M  V30 987 H 99.4833 -7.72536 0.201855 0
M  V30 988 H 97.8283 -6.94781 0.174586 0
M  V30 989 H 101.019 -4.67782 -0.172583 0
M  V30 990 H 101.192 -6.47999 0.0137562 0
M  V30 991 N 94.5984 0.214957 -1.56127 0
M  V30 992 C 95.5464 1.28601 -1.93816 0
M  V30 993 C 96.5404 1.48175 -0.821016 0
M  V30 994 O 97.7464 1.49271 -1.0059 0
M  V30 995 H 94.1214 0.431302 -0.616022 0
M  V30 996 H 96.0924 0.940991 -2.83175 0
M  V30 997 C 94.8414 2.62779 -2.27689 0
M  V30 998 H 94.1644 2.48527 -3.13168 0
M  V30 999 H 95.6044 3.36517 -2.57939 0
M  V30 1000 C 94.0634 3.18285 -1.10436 0
M  V30 1001 O 94.5934 4.00002 -0.368945 0
M  V30 1002 N 92.7994 2.7675 -0.886433 0
M  V30 1003 H 92.3464 2.10404 -1.48619 0
M  V30 1004 H 92.3044 3.14229 -0.103656 0
M  V30 1005 N 96.0765 1.50051 0.48192 0
M  V30 1006 C 96.9865 1.7089 1.60728 0
M  V30 1007 C 98.0025 0.591788 1.63627 0
M  V30 1008 O 99.1785 0.868817 1.81696 0
M  V30 1009 C 96.2435 1.78855 2.97005 0
M  V30 1010 C 95.3045 3.02537 3.04581 0
M  V30 1011 C 94.5375 3.10112 4.34357 0
M  V30 1012 O 94.7605 2.24765 5.24249 0
M  V30 1013 O 93.6945 4.02747 4.47301 0
M  V30 1014 H 97.5205 2.66264 1.46072 0
M  V30 1015 H 95.1055 1.34018 0.660264 0
M  V30 1016 H 96.9875 1.86336 3.77964 0
M  V30 1017 H 95.6625 0.866628 3.11883 0
M  V30 1018 H 94.5695 3.00563 2.22739 0
M  V30 1019 H 95.9025 3.94272 2.94636 0
M  V30 1020 N 97.5546 -0.734337 1.39446 0
M  V30 1021 C 98.4646 -1.87879 1.40495 0
M  V30 1022 C 99.4806 -1.714 0.299672 0
M  V30 1023 O 100.657 -1.93991 0.541249 0
M  V30 1024 C 97.7216 -3.23477 1.24754 0
M  V30 1025 C 96.7826 -3.52344 2.45259 0
M  V30 1026 C 96.0156 -4.81473 2.30259 0
M  V30 1027 O 96.2386 -5.55237 1.30643 0
M  V30 1028 O 95.1726 -5.10254 3.19256 0
M  V30 1029 H 98.9986 -1.89949 2.36966 0
M  V30 1030 H 96.5836 -0.882243 1.20569 0
M  V30 1031 H 98.4656 -4.04509 1.18111 0
M  V30 1032 H 97.1406 -3.22176 0.313781 0
M  V30 1033 H 96.0476 -2.71396 2.57478 0
M  V30 1034 H 97.3806 -3.58426 3.37331 0
M  V30 1035 N 99.0327 -1.24633 -0.964593 0
M  V30 1036 C 100.258 -1.11596 -1.74818 0
M  V30 1037 C 100.683 0.32723 -1.85232 0
M  V30 1038 O 100.041 1.23695 -1.32549 0
M  V30 1039 C 100.089 -1.76397 -3.1451 0
M  V30 1040 O 99.1927 -1.03685 -3.99153 0
M  V30 1041 H 98.5337 -0.390196 -0.537255 0
M  V30 1042 H 101.064 -1.65002 -1.20977 0
M  V30 1043 H 101.074 -1.8228 -3.65018 0
M  V30 1044 H 99.7487 -2.81401 -3.06246 0
M  V30 1045 H 98.3257 -1.05611 -3.57632 0
M  V30 1046 N 100.511 1.16574 -1.06058 0
M  V30 1047 C 101.474 2.19085 -0.673392 0
M  V30 1048 C 102.474 1.5835 0.279648 0
M  V30 1049 O 103.664 1.74088 0.0623488 0
M  V30 1050 C 100.796 3.40899 0.00954234 0
M  V30 1051 H 101.989 2.54853 -1.58081 0
M  V30 1052 H 99.5418 1.30808 -0.855516 0
M  V30 1053 H 100.277 3.10684 0.929826 0
M  V30 1054 H 100.062 3.86233 -0.67573 0
M  V30 1055 H 101.552 4.1675 0.266245 0
M  V30 1056 N 101.989 0.842826 1.3317 0
M  V30 1057 C 103.217 0.454055 2.01856 0
M  V30 1058 C 103.632 -0.94587 1.63397 0
M  V30 1059 O 102.989 -1.61534 0.849302 0
M  V30 1060 C 103.04 0.569715 3.56982 0
M  V30 1061 O 102.761 1.91448 3.94055 0
M  V30 1062 C 104.262 0.178412 4.42941 0
M  V30 1063 H 101.482 0.17979 0.646465 0
M  V30 1064 H 104.026 1.1365 1.70012 0
M  V30 1065 H 102.181 -0.0648587 3.87346 0
M  V30 1066 H 102.595 1.90282 4.88767 0
M  V30 1067 H 104.069 0.310376 5.51127 0
M  V30 1068 H 104.546 -0.880056 4.30293 0
M  V30 1069 H 105.152 0.787579 4.17944 0
M  V30 1070 N 103.467 -1.45747 0.599634 0
M  V30 1071 C 104.43 -2.28917 -0.113835 0
M  V30 1072 C 105.43 -1.3933 -0.802729 0
M  V30 1073 O 106.62 -1.61534 -0.652103 0
M  V30 1074 C 103.752 -3.20152 -1.17114 0
M  V30 1075 H 104.945 -2.93478 0.617289 0
M  V30 1076 H 102.498 -1.52137 0.358327 0
M  V30 1077 H 103.233 -2.60374 -1.93329 0
M  V30 1078 H 103.018 -3.86133 -0.681468 0
M  V30 1079 H 104.508 -3.82708 -1.67105 0
M  V30 1080 N 104.945 -0.338344 -1.53925 0
M  V30 1081 C 106.222 0.314774 -1.93051 0
M  V30 1082 C 106.602 1.68669 -1.26941 0
M  V30 1083 O 105.95 2.24636 -0.418445 0
M  V30 1084 C 106.16 0.392249 -3.46789 0
M  V30 1085 C 107.508 0.645554 -4.19664 0
M  V30 1086 O 108.532 0.474575 -3.53024 0
M  V30 1087 O 107.391 0.976408 -5.37707 0
M  V30 1088 H 104.485 0.182598 -0.80659 0
M  V30 1089 H 107.031 -0.389141 -1.65178 0
M  V30 1090 H 105.803 -0.570702 -3.87116 0
M  V30 1091 H 105.426 1.14316 -3.80812 0
M  V30 1092 N 106.423 1.57458 -0.0668435 0
M  V30 1093 C 107.353 2.15468 0.899764 0
M  V30 1094 C 108.334 1.08042 1.31381 0
M  V30 1095 O 109.519 1.36054 1.38574 0
M  V30 1096 C 106.649 2.71232 2.16911 0
M  V30 1097 C 105.603 3.83781 1.89463 0
M  V30 1098 C 104.929 4.26127 3.22986 0
M  V30 1099 C 106.229 5.08238 1.20381 0
M  V30 1100 H 107.923 2.96488 0.416529 0
M  V30 1101 H 105.469 1.4262 0.198908 0
M  V30 1102 H 107.422 3.10458 2.84945 0
M  V30 1103 H 106.146 1.87426 2.67468 0
M  V30 1104 H 104.805 3.45051 1.23836 0
M  V30 1105 H 104.453 3.39249 3.71374 0
M  V30 1106 H 104.153 5.01993 3.05413 0
M  V30 1107 H 105.677 4.67966 3.92225 0
M  V30 1108 H 107.091 5.44811 1.78475 0
M  V30 1109 H 105.488 5.89349 1.13083 0
M  V30 1110 H 106.558 4.84558 0.182153 0
M  V30 1111 N 107.901 -0.206675 1.56239 0
M  V30 1112 C 109.129 -0.945345 1.8404 0
M  V30 1113 C 109.544 -1.77336 0.647885 0
M  V30 1114 O 108.901 -1.78425 -0.383511 0
M  V30 1115 C 108.952 -1.8509 3.10522 0
M  V30 1116 O 108.673 -1.05634 4.25174 0
M  V30 1117 C 110.174 -2.70222 3.51418 0
M  V30 1118 H 107.394 -0.276372 0.61144 0
M  V30 1119 H 109.938 -0.217417 2.03341 0
M  V30 1120 H 108.093 -2.53259 2.93153 0
M  V30 1121 H 108.507 -1.67238 4.97124 0
M  V30 1122 H 109.981 -3.29438 4.42916 0
M  V30 1123 H 110.458 -3.43358 2.73864 0
M  V30 1124 H 111.064 -2.07443 3.71278 0
M  V30 1125 N 109.379 -1.50304 -0.473955 0
M  V30 1126 C 110.342 -1.6841 -1.55469 0
M  V30 1127 C 111.342 -0.554905 -1.50922 0
M  V30 1128 O 112.532 -0.821882 -1.53593 0
M  V30 1129 C 109.664 -1.70667 -2.95102 0
M  V30 1130 H 110.857 -2.64828 -1.40733 0
M  V30 1131 H 108.41 -1.39742 -0.700132 0
M  V30 1132 H 109.145 -0.75932 -3.15285 0
M  V30 1133 H 108.93 -2.52698 -2.9981 0
M  V30 1134 H 110.42 -1.8664 -3.73571 0
M  V30 1135 N 110.857 0.726932 -1.39834 0
M  V30 1136 C 111.82 1.82269 -1.38962 0
M  V30 1137 C 112.82 1.58248 -0.285334 0
M  V30 1138 O 114.01 1.65499 -0.54366 0
M  V30 1139 C 111.142 3.20186 -1.17019 0
M  V30 1140 H 112.335 1.84443 -2.36476 0
M  V30 1141 H 109.888 0.931416 -1.25516 0
M  V30 1142 H 110.623 3.23669 -0.202204 0
M  V30 1143 H 110.408 3.3902 -1.96998 0
M  V30 1144 H 111.898 4.00235 -1.1917 0
M  V30 1145 N 112.336 1.25143 0.95797 0
M  V30 1146 C 113.299 1.05321 2.03569 0
M  V30 1147 C 114.299 0.007152 1.60798 0
M  V30 1148 O 115.489 0.24903 1.72411 0
M  V30 1149 C 112.621 0.598394 3.35607 0
M  V30 1150 H 113.814 2.00986 2.22586 0
M  V30 1151 H 111.367 1.07502 1.13459 0
M  V30 1152 H 112.102 -0.361014 3.22284 0
M  V30 1153 H 111.887 1.35351 3.67998 0
M  V30 1154 H 113.377 0.48104 4.1482 0
M  V30 1155 N 113.814 -1.1601 1.06675 0
M  V30 1156 C 115.06 -1.86909 0.786945 0
M  V30 1157 C 115.393 -1.81717 -0.685018 0
M  V30 1158 O 114.668 -1.23551 -1.50218 0
M  V30 1159 C 114.951 -3.36313 1.28707 0
M  V30 1160 C 114.804 -3.50175 2.82308 0
M  V30 1161 C 116.123 -4.3084 0.898071 0
M  V30 1162 H 113.242 -0.678677 0.287343 0
M  V30 1163 H 115.884 -1.36336 1.32334 0
M  V30 1164 H 114.034 -3.79513 0.830768 0
M  V30 1165 H 115.706 -3.15886 3.36175 0
M  V30 1166 H 113.949 -2.91959 3.20847 0
M  V30 1167 H 114.62 -4.55116 3.12368 0
M  V30 1168 H 117.096 -3.95561 1.29114 0
M  V30 1169 H 115.972 -5.33876 1.27543 0
M  V30 1170 H 116.233 -4.41662 -0.196651 0
M  V30 1171 N 115.292 -0.849877 -1.32721 0
M  V30 1172 C 116.255 -0.296122 -2.27279 0
M  V30 1173 C 117.255 0.541458 -1.5141 0
M  V30 1174 O 118.445 0.353658 -1.70572 0
M  V30 1175 C 115.577 0.581579 -3.35902 0
M  V30 1176 H 116.77 -1.13064 -2.77771 0
M  V30 1177 H 114.323 -0.62383 -1.43311 0
M  V30 1178 H 115.058 1.43809 -2.9067 0
M  V30 1179 H 114.843 -0.0178814 -3.92096 0
M  V30 1180 H 116.333 0.961951 -4.0637 0
M  V30 1181 N 116.77 1.45427 -0.607355 0
M  V30 1182 C 118.047 1.9557 -0.0344566 0
M  V30 1183 C 118.427 1.54979 1.43334 0
M  V30 1184 O 117.775 0.812241 2.13576 0
M  V30 1185 C 117.985 3.48226 -0.232321 0
M  V30 1186 C 119.333 4.2445 -0.113001 0
M  V30 1187 O 120.357 3.55829 -0.162431 0
M  V30 1188 O 119.216 5.465 0.00209442 0
M  V30 1189 H 116.31 0.826222 0.0358667 0
M  V30 1190 H 118.856 1.55594 -0.6774 0
M  V30 1191 H 117.628 3.70739 -1.25174 0
M  V30 1192 H 117.251 3.95092 0.445896 0
M  V30 1193 N 118.248 0.346503 1.53744 0
M  V30 1194 C 119.476 -0.25041 2.05379 0
M  V30 1195 C 119.891 -1.43979 1.22129 0
M  V30 1196 O 119.248 -1.80677 0.257321 0
M  V30 1197 C 119.299 -0.662575 3.55376 0
M  V30 1198 O 119.02 0.479515 4.35468 0
M  V30 1199 C 120.521 -1.31989 4.23195 0
M  V30 1200 H 117.741 -0.0478198 0.669294 0
M  V30 1201 H 120.285 0.499346 1.9831 0
M  V30 1202 H 118.44 -1.36227 3.62658 0
M  V30 1203 H 118.854 0.15037 5.24284 0
M  V30 1204 H 120.328 -1.55902 5.29527 0
M  V30 1205 H 120.805 -2.27436 3.75725 0
M  V30 1206 H 121.411 -0.662154 4.20114 0
M  V30 1207 N 119.726 -1.57421 0.075193 0
M  V30 1208 C 120.972 -1.93905 -0.594025 0
M  V30 1209 C 121.305 -0.955701 -1.69056 0
M  V30 1210 O 120.58 0.0145373 -1.94495 0
M  V30 1211 C 120.863 -3.40638 -1.1678 0
M  V30 1212 C 120.716 -4.49733 -0.0776792 0
M  V30 1213 C 122.035 -3.88259 -2.07228 0
M  V30 1214 H 119.154 -0.705105 -0.214466 0
M  V30 1215 H 121.796 -1.8947 0.141854 0
M  V30 1216 H 119.946 -3.44549 -1.79494 0
M  V30 1217 H 121.618 -4.57942 0.555573 0
M  V30 1218 H 119.861 -4.29751 0.591286 0
M  V30 1219 H 120.532 -5.49549 -0.519603 0
M  V30 1220 H 123.008 -3.86376 -1.54445 0
M  V30 1221 H 121.884 -4.91533 -2.44308 0
M  V30 1222 H 122.145 -3.26396 -2.98191 0
M  V30 1223 N 121.204 0.198386 -1.56346 0
M  V30 1224 C 122.167 1.22952 -1.93431 0
M  V30 1225 C 123.167 1.38611 -0.815092 0
M  V30 1226 O 124.357 1.36479 -1.08255 0
M  V30 1227 C 121.489 2.59946 -2.20546 0
M  V30 1228 H 122.682 0.912626 -2.85677 0
M  V30 1229 H 120.235 0.43977 -1.49986 0
M  V30 1230 H 120.97 2.96696 -1.30927 0
M  V30 1231 H 120.755 2.49953 -3.02102 0
M  V30 1232 H 122.245 3.3431 -2.50253 0
M  V30 1233 N 122.682 1.50554 0.465978 0
M  V30 1234 C 123.645 1.69233 1.54574 0
M  V30 1235 C 124.645 0.562901 1.50626 0
M  V30 1236 O 125.835 0.830016 1.53155 0
M  V30 1237 C 122.967 1.7223 2.94193 0
M  V30 1238 H 124.16 2.65571 1.39327 0
M  V30 1239 H 121.713 1.40111 0.692711 0
M  V30 1240 H 122.448 0.77603 3.14878 0
M  V30 1241 H 122.233 2.54285 2.98466 0
M  V30 1242 H 123.723 1.88618 3.72576 0
M  V30 1243 N 124.16 -0.719506 1.40217 0
M  V30 1244 C 125.123 -1.8153 1.39927 0
M  V30 1245 C 126.123 -1.58095 0.293723 0
M  V30 1246 O 127.313 -1.65209 0.552429 0
M  V30 1247 C 124.445 -3.19561 1.18716 0
M  V30 1248 H 125.638 -1.83186 2.37451 0
M  V30 1249 H 123.191 -0.924746 1.26008 0
M  V30 1250 H 123.926 -3.23557 0.219366 0
M  V30 1251 H 123.711 -3.3797 1.98793 0
M  V30 1252 H 125.201 -3.99598 1.21291 0
M  V30 1253 N 125.638 -1.25649 -0.95132 0
M  V30 1254 C 126.601 -1.06399 -2.03007 0
M  V30 1255 C 127.601 -0.0156794 -1.60792 0
M  V30 1256 O 128.791 -0.25817 -1.72276 0
M  V30 1257 C 125.923 -0.616184 -3.35285 0
M  V30 1258 H 127.116 -2.02164 -2.21517 0
M  V30 1259 H 124.669 -1.08103 -1.12887 0
M  V30 1260 H 125.404 0.343917 -3.22471 0
M  V30 1261 H 125.189 -1.37301 -3.67275 0
M  V30 1262 H 126.679 -0.503032 -4.14559 0
M  V30 1263 N 127.117 1.15442 -1.07289 0
M  V30 1264 C 128.08 2.18358 -0.696591 0
M  V30 1265 C 129.08 1.58637 0.262837 0
M  V30 1266 O 130.27 1.74145 0.0438809 0
M  V30 1267 C 127.402 3.4089 -0.0266151 0
M  V30 1268 H 128.595 2.53162 -1.60776 0
M  V30 1269 H 126.148 1.29893 -0.869342 0
M  V30 1270 H 126.883 3.11653 0.896822 0
M  V30 1271 H 126.668 3.85495 -0.716657 0
M  V30 1272 H 128.158 4.17009 0.222028 0
M  V30 1273 N 128.595 0.856903 1.32268 0
M  V30 1274 C 129.505 0.306131 2.32594 0
M  V30 1275 C 130.521 -0.577209 1.64147 0
M  V30 1276 O 131.697 -0.477043 1.95669 0
M  V30 1277 C 128.762 -0.494561 3.43154 0
M  V30 1278 C 127.823 0.415186 4.27288 0
M  V30 1279 C 127.056 -0.347387 5.32568 0
M  V30 1280 O 127.279 -1.57708 5.48165 0
M  V30 1281 O 126.213 0.287982 6.01211 0
M  V30 1282 H 130.039 1.13737 2.81598 0
M  V30 1283 H 127.624 0.619902 1.35932 0
M  V30 1284 H 129.506 -0.948944 4.10576 0
M  V30 1285 H 128.181 -1.30257 2.96336 0
M  V30 1286 H 127.088 0.917793 3.62667 0
M  V30 1287 H 128.421 1.18844 4.77637 0
M  V30 1288 N 130.073 -1.45103 0.615059 0
M  V30 1289 C 131.021 -2.32331 -0.111791 0
M  V30 1290 C 132.015 -1.46409 -0.852102 0
M  V30 1291 O 133.221 -1.62849 -0.766821 0
M  V30 1292 H 129.596 -0.749993 -0.0549072 0
M  V30 1293 H 131.567 -2.91407 0.642225 0
M  V30 1294 C 130.316 -3.3015 -1.09071 0
M  V30 1295 H 129.639 -3.96265 -0.530485 0
M  V30 1296 H 131.079 -3.93898 -1.56908 0
M  V30 1297 C 129.538 -2.57875 -2.168 0
M  V30 1298 O 130.068 -2.36567 -3.24652 0
M  V30 1299 N 128.274 -2.17884 -1.92289 0
M  V30 1300 H 127.821 -2.35413 -1.04587 0
M  V30 1301 H 127.779 -1.6985 -2.64572 0
M  V30 1302 N 131.551 -0.354651 -1.53558 0
M  V30 1303 C 132.514 0.484566 -2.24019 0
M  V30 1304 C 133.514 1.01861 -1.24422 0
M  V30 1305 O 134.704 0.906097 -1.4878 0
M  V30 1306 C 131.836 1.67615 -2.96847 0
M  V30 1307 H 133.029 -0.131843 -2.9961 0
M  V30 1308 H 130.582 -0.106165 -1.55939 0
M  V30 1309 H 131.317 2.33095 -2.25471 0
M  V30 1310 H 131.102 1.30029 -3.69912 0
M  V30 1311 H 132.592 2.27114 -3.50441 0
M  V30 1312 N 133.029 1.57378 -0.0835403 0
M  V30 1313 C 134.277 1.93547 0.581718 0
M  V30 1314 C 134.598 0.96524 1.69435 0
M  V30 1315 O 133.868 0.0153369 1.95894 0
M  V30 1316 H 132.448 0.714521 0.217874 0
M  V30 1317 H 135.11 1.94366 -0.144158 0
M  V30 1318 H 134.206 2.95665 0.999423 0
M  V30 1319 N 134.507 -0.190092 1.56449 0
M  V30 1320 C 135.47 -1.21925 1.9408 0
M  V30 1321 C 136.47 -1.38176 0.822431 0
M  V30 1322 O 137.66 -1.35903 1.08977 0
M  V30 1323 C 134.792 -2.58773 2.21922 0
M  V30 1324 H 135.985 -0.897464 2.86157 0
M  V30 1325 H 133.538 -0.43181 1.50217 0
M  V30 1326 H 134.273 -2.95998 1.32499 0
M  V30 1327 H 134.058 -2.48348 3.03424 0
M  V30 1328 H 135.548 -3.32978 2.52022 0
M  V30 1329 N 135.985 -1.50799 -0.457987 0
M  V30 1330 C 136.948 -1.7005 -1.53674 0
M  V30 1331 C 137.948 -0.570881 -1.50325 0
M  V30 1332 O 139.138 -0.838126 -1.52712 0
M  V30 1333 C 136.27 -1.73788 -2.93276 0
M  V30 1334 H 137.463 -2.66306 -1.37917 0
M  V30 1335 H 135.016 -1.40477 -0.685271 0
M  V30 1336 H 135.751 -0.792717 -3.14462 0
M  V30 1337 H 135.536 -2.55864 -2.97113 0
M  V30 1338 H 137.026 -1.90591 -3.71571 0
M  V30 1339 N 137.463 0.71206 -1.40597 0
M  V30 1340 C 138.426 1.80785 -1.40888 0
M  V30 1341 C 139.426 1.57937 -0.302103 0
M  V30 1342 O 140.616 1.64913 -0.561182 0
M  V30 1343 C 137.748 3.18927 -1.20409 0
M  V30 1344 H 138.941 1.81924 -2.38419 0
M  V30 1345 H 136.494 0.91805 -1.26497 0
M  V30 1346 H 137.229 3.23436 -0.236522 0
M  V30 1347 H 137.014 3.36911 -2.00582 0
M  V30 1348 H 138.504 3.98949 -1.23408 0
M  V30 1349 N 138.941 1.26152 0.944643 0
M  V30 1350 C 140.187 1.12665 1.69346 0
M  V30 1351 C 140.542 -0.3273 1.89596 0
M  V30 1352 O 139.835 -1.23717 1.46303 0
M  V30 1353 C 140.029 1.82541 3.07268 0
M  V30 1354 C 139.858 3.34582 3.00475 0
M  V30 1355 C 138.628 4.03863 3.03681 0
M  V30 1356 C 140.826 4.30828 2.80877 0
M  V30 1357 N 138.808 5.42603 2.87151 0
M  V30 1358 C 140.179 5.5672 2.7288 0
M  V30 1359 C 142.234 4.21122 2.65633 0
M  V30 1360 C 140.937 6.74013 2.51196 0
M  V30 1361 C 142.963 5.38118 2.45323 0
M  V30 1362 C 142.325 6.62955 2.38055 0
M  V30 1363 H 138.424 0.467041 0.627214 0
M  V30 1364 H 141.008 1.59391 1.11815 0
M  V30 1365 H 139.179 1.38296 3.62945 0
M  V30 1366 H 140.911 1.61708 3.70989 0
M  V30 1367 H 137.666 3.55198 3.1326 0
M  V30 1368 H 138.09 6.15443 2.82063 0
M  V30 1369 H 142.732 3.25344 2.70021 0
M  V30 1370 H 140.45 7.6989 2.4555 0
M  V30 1371 H 144.036 5.32475 2.34439 0
M  V30 1372 H 142.916 7.51959 2.22546 0
M  V30 1373 N 140.419 -1.14872 1.07899 0
M  V30 1374 C 141.329 -2.2341 0.715915 0
M  V30 1375 C 142.345 -1.71808 -0.275306 0
M  V30 1376 O 143.521 -2.01039 -0.120545 0
M  V30 1377 C 140.586 -3.46474 0.125168 0
M  V30 1378 C 139.647 -4.13039 1.17034 0
M  V30 1379 C 138.88 -5.30229 0.607688 0
M  V30 1380 O 139.103 -5.675 -0.574497 0
M  V30 1381 O 138.037 -5.86444 1.35526 0
M  V30 1382 H 141.863 -2.56808 1.62121 0
M  V30 1383 H 139.448 -1.22702 0.852322 0
M  V30 1384 H 141.33 -4.20917 -0.201729 0
M  V30 1385 H 140.005 -3.14811 -0.753364 0
M  V30 1386 H 138.912 -3.40493 1.54968 0
M  V30 1387 H 140.245 -4.48796 2.02097 0
M  V30 1388 N 141.898 -0.863906 -1.31812 0
M  V30 1389 C 142.861 -0.320212 -2.26952 0
M  V30 1390 C 143.861 0.525369 -1.51975 0
M  V30 1391 O 145.051 0.335547 -1.70938 0
M  V30 1392 C 142.183 0.545919 -3.365 0
M  V30 1393 H 143.376 -1.16004 -2.76556 0
M  V30 1394 H 140.929 -0.638995 -1.42641 0
M  V30 1395 H 141.664 1.40718 -2.92179 0
M  V30 1396 H 141.449 -0.0594674 -3.92055 0
M  V30 1397 H 142.939 0.918796 -4.07367 0
M  V30 1398 N 143.376 1.44774 -0.622745 0
M  V30 1399 C 144.339 2.29069 0.0774015 0
M  V30 1400 C 145.339 1.4059 0.780461 0
M  V30 1401 O 146.529 1.62551 0.626322 0
M  V30 1402 C 143.661 3.21974 1.12006 0
M  V30 1403 H 144.854 2.92459 -0.663901 0
M  V30 1404 H 142.407 1.51548 -0.382486 0
M  V30 1405 H 143.142 2.63417 1.89162 0
M  V30 1406 H 142.927 3.87168 0.619951 0
M  V30 1407 H 144.417 3.85318 1.60995 0
M  V30 1408 N 144.854 0.36279 1.53368 0
M  V30 1409 C 145.817 -0.472679 2.24273 0
M  V30 1410 C 146.817 -1.012 1.24961 0
M  V30 1411 O 148.007 -0.898194 1.49259 0
M  V30 1412 C 145.139 -1.66039 2.97731 0
M  V30 1413 H 146.332 0.14773 2.99536 0
M  V30 1414 H 143.885 0.114434 1.55881 0
M  V30 1415 H 144.62 -2.31896 2.26704 0
M  V30 1416 H 144.405 -1.28066 3.70596 0
M  V30 1417 H 145.895 -2.25252 3.51641 0
M  V30 1418 N 146.332 -1.57332 0.0918853 0
M  V30 1419 C 147.295 -2.12708 -0.85369 0
M  V30 1420 C 148.295 -1.05561 -1.213 0
M  V30 1421 O 149.485 -1.31461 -1.14296 0
M  V30 1422 C 146.617 -2.64503 -2.15061 0
M  V30 1423 H 147.81 -2.97573 -0.3729 0
M  V30 1424 H 145.363 -1.55509 -0.157072 0
M  V30 1425 H 146.098 -1.83149 -2.67632 0
M  V30 1426 H 145.883 -3.4284 -1.90272 0
M  V30 1427 H 147.373 -3.07351 -2.82711 0
M  V30 1428 N 147.81 0.181792 -1.56548 0
M  V30 1429 C 148.773 1.20894 -1.94724 0
M  V30 1430 C 149.773 1.37738 -0.829747 0
M  V30 1431 O 150.963 1.35323 -1.09697 0
M  V30 1432 C 148.095 2.57593 -2.23291 0
M  V30 1433 H 149.288 0.882275 -2.86629 0
M  V30 1434 H 146.841 0.423838 -1.50444 0
M  V30 1435 H 147.576 2.95291 -1.34067 0
M  V30 1436 H 147.361 2.46735 -3.04736 0
M  V30 1437 H 148.851 3.31637 -2.53785 0
M  V30 1438 N 149.288 1.51039 0.449983 0
M  V30 1439 C 150.565 1.53612 1.21089 0
M  V30 1440 C 150.945 0.292997 2.09057 0
M  V30 1441 O 150.293 -0.72259 2.16774 0
M  V30 1442 C 150.503 2.84337 2.0237 0
M  V30 1443 C 151.851 3.35807 2.59843 0
M  V30 1444 O 152.875 2.85802 2.12593 0
M  V30 1445 O 151.734 4.23029 3.45989 0
M  V30 1446 H 148.828 0.617057 0.550608 0
M  V30 1447 H 151.374 1.63344 0.460082 0
M  V30 1448 H 150.146 3.66278 1.37681 0
M  V30 1449 H 149.769 2.77708 2.84542 0
M  V30 1450 N 150.766 -0.704594 1.40972 0
M  V30 1451 C 151.729 -1.80035 1.41845 0
M  V30 1452 C 152.729 -1.57774 0.310474 0
M  V30 1453 O 153.919 -1.64613 0.56992 0
M  V30 1454 C 151.051 -3.18284 1.22098 0
M  V30 1455 H 152.244 -1.80658 2.3938 0
M  V30 1456 H 149.797 -0.911329 1.26982 0
M  V30 1457 H 150.532 -3.23306 0.253672 0
M  V30 1458 H 150.317 -3.35843 2.02366 0
M  V30 1459 H 151.807 -3.98289 1.25522 0
M  V30 1460 N 152.244 -1.26651 -0.937939 0
M  V30 1461 C 153.174 -1.10993 -2.05433 0
M  V30 1462 C 154.155 -0.0142161 -1.70094 0
M  V30 1463 O 155.34 -0.186837 -1.93299 0
M  V30 1464 C 152.47 -0.745561 -3.39203 0
M  V30 1465 C 151.424 -1.79337 -3.88616 0
M  V30 1466 C 150.75 -1.28324 -5.19073 0
M  V30 1467 C 152.05 -3.19553 -4.13138 0
M  V30 1468 H 153.744 -2.0438 -2.1879 0
M  V30 1469 H 151.29 -0.984041 -1.05131 0
M  V30 1470 H 153.243 -0.622888 -4.16771 0
M  V30 1471 H 151.967 0.22401 -3.25831 0
M  V30 1472 H 150.626 -1.90477 -3.13231 0
M  V30 1473 H 150.274 -0.303414 -5.02084 0
M  V30 1474 H 149.974 -1.98369 -5.53103 0
M  V30 1475 H 151.498 -1.1733 -5.99221 0
M  V30 1476 H 152.912 -3.11471 -4.81309 0
M  V30 1477 H 151.309 -3.87218 -4.58457 0
M  V30 1478 H 152.379 -3.65368 -3.18801 0
M  V30 1479 N 153.722 1.14298 -1.08507 0
M  V30 1480 C 154.685 2.17607 -0.719711 0
M  V30 1481 C 155.685 1.58907 0.245997 0
M  V30 1482 O 156.875 1.74181 0.0254081 0
M  V30 1483 C 154.007 3.40842 -0.0627695 0
M  V30 1484 H 155.2 2.51443 -1.63452 0
M  V30 1485 H 152.753 1.28963 -0.88307 0
M  V30 1486 H 153.488 3.12587 0.863716 0
M  V30 1487 H 153.273 3.84713 -0.757504 0
M  V30 1488 H 154.763 4.17221 0.177786 0
M  V30 1489 N 155.201 0.870884 1.31352 0
M  V30 1490 C 156.148 0.325425 2.28494 0
M  V30 1491 C 157.118 -0.576615 1.5577 0
M  V30 1492 O 158.303 -0.508059 1.83911 0
M  V30 1493 C 155.443 -0.466283 3.41935 0
M  V30 1494 C 154.556 0.463378 4.29508 0
M  V30 1495 C 153.691 -0.342544 5.30094 0
M  V30 1496 C 152.73 0.583486 6.09313 0
M  V30 1497 N 151.867 -0.186244 7.01853 0
M  V30 1498 H 156.707 1.15901 2.74538 0
M  V30 1499 H 154.244 0.58294 1.35056 0
M  V30 1500 H 156.202 -0.941085 4.06447 0
M  V30 1501 H 154.832 -1.26456 2.97 0
M  V30 1502 H 153.884 1.05663 3.65431 0
M  V30 1503 H 155.196 1.1734 4.84802 0
M  V30 1504 H 154.35 -0.879816 6.00287 0
M  V30 1505 H 153.089 -1.08585 4.75458 0
M  V30 1506 H 152.094 1.13251 5.3801 0
M  V30 1507 H 153.319 1.32566 6.66035 0
M  V30 1508 H 151.265 -0.912348 6.49625 0
M  V30 1509 H 151.182 0.464422 7.54572 0
M  V30 1510 H 152.45 -0.704716 7.76308 0
M  V30 1511 N 156.679 -1.44442 0.630414 0
M  V30 1512 C 157.642 -2.29107 -0.0652523 0
M  V30 1513 C 158.642 -1.41002 -0.772995 0
M  V30 1514 O 159.832 -1.62881 -0.617692 0
M  V30 1515 C 156.964 -3.22564 -1.10296 0
M  V30 1516 H 158.157 -2.92103 0.679401 0
M  V30 1517 H 155.71 -1.51343 0.390517 0
M  V30 1518 H 156.445 -2.64416 -1.87762 0
M  V30 1519 H 156.23 -3.87491 -0.59941 0
M  V30 1520 H 157.72 -3.86167 -1.5895 0
M  V30 1521 N 158.157 -0.370918 -1.53173 0
M  V30 1522 C 159.104 0.473035 -2.259 0
M  V30 1523 C 160.074 1.07311 -1.26781 0
M  V30 1524 O 161.259 1.1046 -1.55574 0
M  V30 1525 C 158.399 1.60405 -3.05556 0
M  V30 1526 C 157.512 1.02863 -4.19575 0
M  V30 1527 C 156.647 2.12918 -4.86661 0
M  V30 1528 C 155.686 1.52869 -5.92704 0
M  V30 1529 N 154.823 2.56779 -6.53459 0
M  V30 1530 H 159.663 -0.153649 -2.97604 0
M  V30 1531 H 157.2 -0.0875946 -1.46839 0
M  V30 1532 H 159.158 2.27034 -3.50016 0
M  V30 1533 H 157.788 2.20131 -2.36097 0
M  V30 1534 H 156.84 0.252465 -3.79561 0
M  V30 1535 H 158.152 0.549642 -4.95762 0
M  V30 1536 H 157.306 2.87356 -5.34333 0
M  V30 1537 H 156.045 2.6417 -4.09958 0
M  V30 1538 H 155.05 0.769479 -5.44389 0
M  V30 1539 H 156.275 1.02435 -6.7133 0
M  V30 1540 H 154.221 3.07235 -5.79606 0
M  V30 1541 H 154.138 2.13583 -7.25202 0
M  V30 1542 H 155.406 3.30903 -7.05779 0
M  V30 1543 N 159.635 1.57281 -0.100228 0
M  V30 1544 C 160.598 2.13158 0.842398 0
M  V30 1545 C 161.598 1.06202 1.20738 0
M  V30 1546 O 162.788 1.32066 1.13597 0
M  V30 1547 C 159.92 2.65639 2.13655 0
M  V30 1548 H 161.113 2.97766 0.357114 0
M  V30 1549 H 158.666 1.5559 0.148823 0
M  V30 1550 H 159.401 1.84566 2.66657 0
M  V30 1551 H 159.186 3.43844 1.88451 0
M  V30 1552 H 160.676 3.08846 2.81077 0
M  V30 1553 N 161.113 -0.173488 1.56642 0
M  V30 1554 C 162.39 -0.917617 1.7274 0
M  V30 1555 C 162.77 -2.00484 0.661027 0
M  V30 1556 O 162.118 -2.26184 -0.32453 0
M  V30 1557 C 162.328 -1.48433 3.15862 0
M  V30 1558 C 163.676 -1.95809 3.76754 0
M  V30 1559 O 164.7 -1.58231 3.19126 0
M  V30 1560 O 163.559 -2.65024 4.77938 0
M  V30 1561 H 160.653 -0.431772 0.705338 0
M  V30 1562 H 163.199 -0.161487 1.6893 0
M  V30 1563 H 161.971 -0.701715 3.84957 0
M  V30 1564 H 161.594 -2.30471 3.23989 0
M  V30 1565 N 162.591 -1.51276 -0.441967 0
M  V30 1566 C 163.554 -1.7167 -1.51862 0
M  V30 1567 C 164.554 -0.586793 -1.49711 0
M  V30 1568 O 165.744 -0.854276 -1.51815 0
M  V30 1569 C 162.876 -1.76889 -2.91416 0
M  V30 1570 H 164.069 -2.67754 -1.35084 0
M  V30 1571 H 161.622 -1.41196 -0.670333 0
M  V30 1572 H 162.357 -0.826026 -3.13604 0
M  V30 1573 H 162.142 -2.59001 -2.94382 0
M  V30 1574 H 163.632 -1.94522 -3.69528 0
M  V30 1575 N 164.069 0.697108 -1.41344 0
M  V30 1576 C 164.999 1.82353 -1.45841 0
M  V30 1577 C 165.98 1.67115 -0.317247 0
M  V30 1578 O 167.165 1.86871 -0.528474 0
M  V30 1579 C 164.295 3.20476 -1.33838 0
M  V30 1580 C 163.249 3.50415 -2.4575 0
M  V30 1581 C 162.575 4.87878 -2.18813 0
M  V30 1582 C 163.875 3.49546 -3.88091 0
M  V30 1583 H 165.569 1.78846 -2.40113 0
M  V30 1584 H 163.115 0.859028 -1.15571 0
M  V30 1585 H 165.068 3.98988 -1.35596 0
M  V30 1586 H 163.792 3.24604 -0.360498 0
M  V30 1587 H 162.451 2.74253 -2.43271 0
M  V30 1588 H 162.099 4.8863 -1.19371 0
M  V30 1589 H 161.799 5.08875 -2.93803 0
M  V30 1590 H 163.323 5.68702 -2.22284 0
M  V30 1591 H 164.737 4.18066 -3.92293 0
M  V30 1592 H 163.134 3.82075 -4.62751 0
M  V30 1593 H 164.204 2.48552 -4.16353 0
M  V30 1594 N 165.547 1.27147 0.931209 0
M  V30 1595 C 166.494 1.09568 2.03134 0
M  V30 1596 C 167.464 -0.00222433 1.661 0
M  V30 1597 O 168.649 0.159439 1.90133 0
M  V30 1598 C 165.789 0.745231 3.36957 0
M  V30 1599 C 164.902 1.92041 3.86968 0
M  V30 1600 C 164.037 1.51216 5.09222 0
M  V30 1601 C 163.076 2.65504 5.5152 0
M  V30 1602 N 162.213 2.25291 6.64972 0
M  V30 1603 H 167.053 2.03708 2.17502 0
M  V30 1604 H 164.59 1.01411 1.06556 0
M  V30 1605 H 166.548 0.522878 4.1391 0
M  V30 1606 H 165.178 -0.159202 3.22407 0
M  V30 1607 H 164.23 2.25541 3.06326 0
M  V30 1608 H 165.542 2.77787 4.1429 0
M  V30 1609 H 164.696 1.25084 5.93666 0
M  V30 1610 H 163.435 0.625749 4.83669 0
M  V30 1611 H 162.44 2.92354 4.65628 0
M  V30 1612 H 163.665 3.54761 5.7907 0
M  V30 1613 H 161.611 1.39098 6.41083 0
M  V30 1614 H 161.528 3.04577 6.91931 0
M  V30 1615 H 162.796 2.02398 7.52765 0
M  V30 1616 N 167.025 -1.13721 1.09112 0
M  V30 1617 C 167.935 -2.22638 0.73957 0
M  V30 1618 C 168.951 -1.72091 -0.257068 0
M  V30 1619 O 170.127 -2.01155 -0.0992154 0
M  V30 1620 C 167.192 -3.46322 0.16191 0
M  V30 1621 C 166.253 -4.11775 1.21408 0
M  V30 1622 C 165.486 -5.29555 0.663891 0
M  V30 1623 O 165.709 -5.68077 -0.514274 0
M  V30 1624 O 164.643 -5.84973 1.41738 0
M  V30 1625 H 168.469 -2.55074 1.64836 0
M  V30 1626 H 166.054 -1.21791 0.865289 0
M  V30 1627 H 167.936 -4.21107 -0.157073 0
M  V30 1628 H 166.611 -3.15593 -0.719932 0
M  V30 1629 H 165.518 -3.3883 1.58571 0
M  V30 1630 H 166.851 -4.46627 2.06845 0
M  V30 1631 N 168.503 -0.877838 -1.30888 0
M  V30 1632 C 169.75 -0.492696 -1.96415 0
M  V30 1633 C 170.078 0.956671 -1.69346 0
M  V30 1634 O 169.333 1.68993 -0.986913 0
M  V30 1635 C 169.632 -0.705748 -3.50363 0
M  V30 1636 C 169.298 -2.1291 -3.97467 0
M  V30 1637 C 167.96 -2.51834 -4.1004 0
M  V30 1638 C 170.312 -3.05702 -4.22132 0
M  V30 1639 C 167.64 -3.82775 -4.44635 0
M  V30 1640 C 169.992 -4.36166 -4.58194 0
M  V30 1641 C 168.656 -4.74993 -4.68975 0
M  V30 1642 H 167.926 -0.18029 -0.718733 0
M  V30 1643 H 170.573 -1.11233 -1.55883 0
M  V30 1644 H 168.878 -0.00303058 -3.918 0
M  V30 1645 H 170.575 -0.387456 -3.99124 0
M  V30 1646 H 167.165 -1.81694 -3.88182 0
M  V30 1647 H 171.349 -2.76853 -4.11906 0
M  V30 1648 H 166.605 -4.12609 -4.51181 0
M  V30 1649 H 170.779 -5.08111 -4.76231 0
M  V30 1650 H 168.406 -5.76495 -4.95537 0
M  V30 1651 N 169.982 1.44106 -0.638065 0
M  V30 1652 C 170.93 2.3248 0.0748149 0
M  V30 1653 C 171.924 1.47746 0.828702 0
M  V30 1654 O 173.13 1.64049 0.740816 0
M  V30 1655 H 169.505 0.750771 0.0429686 0
M  V30 1656 H 171.476 2.90348 -0.688504 0
M  V30 1657 C 170.225 3.31843 1.03805 0
M  V30 1658 H 169.548 3.97059 0.467375 0
M  V30 1659 H 170.988 3.96345 1.50622 0
M  V30 1660 C 169.447 2.61291 2.1267 0
M  V30 1661 O 169.977 2.41702 3.20847 0
M  V30 1662 N 168.183 2.20915 1.88798 0
M  V30 1663 H 167.73 2.37047 1.00829 0
M  V30 1664 H 167.688 1.74038 2.61836 0
M  V30 1665 N 171.46 0.379036 1.52974 0
M  V30 1666 C 172.407 -0.461048 2.26148 0
M  V30 1667 C 173.377 -1.06637 1.27349 0
M  V30 1668 O 174.562 -1.09633 1.56157 0
M  V30 1669 C 171.702 -1.58782 3.06402 0
M  V30 1670 C 170.815 -1.00636 4.20115 0
M  V30 1671 C 169.95 -2.10334 4.87784 0
M  V30 1672 C 168.989 -1.49724 5.93506 0
M  V30 1673 N 168.126 -2.5331 6.54812 0
M  V30 1674 H 172.966 0.169429 2.97518 0
M  V30 1675 H 170.503 0.0953806 1.4679 0
M  V30 1676 H 172.461 -2.25174 3.51215 0
M  V30 1677 H 171.091 -2.18876 2.37261 0
M  V30 1678 H 170.143 -0.232332 3.7969 0
M  V30 1679 H 171.455 -0.523343 4.96047 0
M  V30 1680 H 170.609 -2.84519 5.35849 0
M  V30 1681 H 169.348 -2.61992 4.11353 0
M  V30 1682 H 168.353 -0.740598 5.44789 0
M  V30 1683 H 169.578 -0.988732 6.71864 0
M  V30 1684 H 167.524 -3.04156 5.81227 0
M  V30 1685 H 167.441 -2.09734 7.26325 0
M  V30 1686 H 168.709 -3.27155 7.07524 0
M  V30 1687 N 172.938 -1.57226 0.108567 0
M  V30 1688 C 174.168 -1.9889 -0.559142 0
M  V30 1689 C 174.576 -0.986889 -1.61422 0
M  V30 1690 O 173.919 0.0298705 -1.83676 0
M  V30 1691 C 173.981 -3.36952 -1.25315 0
M  V30 1692 C 173.645 -4.55679 -0.347248 0
M  V30 1693 C 174.642 -5.18281 0.409996 0
M  V30 1694 C 172.327 -5.0162 -0.261367 0
M  V30 1695 C 174.321 -6.25203 1.24096 0
M  V30 1696 C 172.008 -6.08405 0.573238 0
M  V30 1697 C 173.006 -6.70063 1.32304 0
M  V30 1698 O 172.694 -7.74788 2.14381 0
M  V30 1699 H 172.426 -0.658343 -0.153492 0
M  V30 1700 H 174.98 -2.04532 0.188584 0
M  V30 1701 H 173.21 -3.28032 -2.04773 0
M  V30 1702 H 174.899 -3.62974 -1.81673 0
M  V30 1703 H 175.665 -4.8371 0.353457 0
M  V30 1704 H 171.544 -4.53381 -0.834656 0
M  V30 1705 H 175.088 -6.73259 1.82669 0
M  V30 1706 H 170.985 -6.42406 0.631208 0
M  V30 1707 H 171.753 -7.91837 2.07209 0
M  V30 1708 N 174.416 0.165178 -1.56732 0
M  V30 1709 C 175.664 0.879068 -1.8198 0
M  V30 1710 C 175.985 1.82514 -0.686561 0
M  V30 1711 O 175.255 1.93694 0.293146 0
M  V30 1712 H 173.835 0.327608 -0.671329 0
M  V30 1713 H 176.497 0.163526 -1.94213 0
M  V30 1714 H 175.593 1.45228 -2.76252 0
M  V30 1715 N 175.894 1.51508 0.433938 0
M  V30 1716 C 177.14 1.64588 1.18484 0
M  V30 1717 C 177.473 0.362666 1.90784 0
M  V30 1718 O 176.748 -0.637892 1.83742 0
M  V30 1719 C 177.031 2.85149 2.19913 0
M  V30 1720 C 176.884 4.23456 1.51674 0
M  V30 1721 C 178.203 3.01227 3.20858 0
M  V30 1722 H 175.322 0.598994 0.429389 0
M  V30 1723 H 177.964 1.84002 0.473647 0
M  V30 1724 H 176.114 2.68729 2.80566 0
M  V30 1725 H 177.786 4.51552 0.943322 0
M  V30 1726 H 176.029 4.25998 0.819035 0
M  V30 1727 H 176.7 5.03812 2.2556 0
M  V30 1728 H 179.176 3.16382 2.70263 0
M  V30 1729 H 178.052 3.87141 3.89118 0
M  V30 1730 H 178.313 2.13447 3.8716 0
M  V30 1731 N 177.372 -0.689602 1.41712 0
M  V30 1732 C 178.597 -1.48329 1.44959 0
M  V30 1733 C 179.022 -1.8801 0.0581283 0
M  V30 1734 O 178.38 -1.55026 -0.940035 0
M  V30 1735 C 178.428 -2.71835 2.36935 0
M  V30 1736 O 177.532 -3.69549 1.8305 0
M  V30 1737 H 176.873 -0.446199 0.491734 0
M  V30 1738 H 179.403 -0.847127 1.86239 0
M  V30 1739 H 179.413 -3.20076 2.53013 0
M  V30 1740 H 178.088 -2.42291 3.38035 0
M  V30 1741 H 176.665 -3.2851 1.76452 0
M  V30 1742 N 178.85 -1.27639 -0.924453 0
M  V30 1743 C 180.127 -1.04887 -1.651 0
M  V30 1744 C 180.507 0.415327 -2.06974 0
M  V30 1745 O 179.855 1.39923 -1.80648 0
M  V30 1746 C 180.065 -2.01348 -2.85061 0
M  V30 1747 C 181.413 -2.30899 -3.56329 0
M  V30 1748 O 182.437 -1.99348 -2.95193 0
M  V30 1749 O 181.296 -2.84699 -4.66485 0
M  V30 1750 H 178.39 -0.400083 -0.723784 0
M  V30 1751 H 180.936 -1.38916 -0.974703 0
M  V30 1752 H 179.708 -3.0008 -2.51133 0
M  V30 1753 H 179.331 -1.679 -3.6041 0
M  V30 1754 N 180.328 1.1314 -1.09713 0
M  V30 1755 C 181.558 1.88048 -0.855656 0
M  V30 1756 C 181.966 1.79537 0.596919 0
M  V30 1757 O 181.309 1.16196 1.42282 0
M  V30 1758 C 181.371 3.38314 -1.21589 0
M  V30 1759 C 181.035 3.70605 -2.67397 0
M  V30 1760 C 182.032 3.69596 -3.65643 0
M  V30 1761 C 179.717 4.0017 -3.03593 0
M  V30 1762 C 181.711 3.977 -4.9811 0
M  V30 1763 C 179.398 4.27935 -4.36251 0
M  V30 1764 C 180.396 4.26685 -5.33318 0
M  V30 1765 O 180.084 4.53767 -6.63589 0
M  V30 1766 H 179.816 0.60208 -0.307368 0
M  V30 1767 H 182.37 1.44128 -1.46343 0
M  V30 1768 H 180.6 3.82752 -0.551177 0
M  V30 1769 H 182.289 3.94552 -0.953083 0
M  V30 1770 H 183.055 3.46826 -3.39023 0
M  V30 1771 H 178.934 4.00289 -2.2867 0
M  V30 1772 H 182.478 3.9664 -5.73866 0
M  V30 1773 H 178.375 4.50178 -4.62613 0
M  V30 1774 H 179.143 4.71422 -6.69107 0
M  V30 1775 N 181.806 0.884767 1.30421 0
M  V30 1776 C 183.036 0.517293 2.00019 0
M  V30 1777 C 183.444 -0.898632 1.66497 0
M  V30 1778 O 182.787 -1.60245 0.898181 0
M  V30 1779 C 182.849 0.612025 3.54252 0
M  V30 1780 C 182.513 1.99222 4.1129 0
M  V30 1781 C 183.51 2.9616 4.273 0
M  V30 1782 C 181.195 2.29755 4.46674 0
M  V30 1783 C 183.189 4.21764 4.77906 0
M  V30 1784 C 180.876 3.55606 4.96979 0
M  V30 1785 C 181.874 4.51425 5.12547 0
M  V30 1786 O 181.562 5.75043 5.61766 0
M  V30 1787 H 181.294 0.198529 0.64619 0
M  V30 1788 H 183.848 1.1919 1.67281 0
M  V30 1789 H 182.078 -0.119561 3.86515 0
M  V30 1790 H 183.767 0.255859 4.05093 0
M  V30 1791 H 184.533 2.73882 4.00267 0
M  V30 1792 H 180.412 1.55942 4.33824 0
M  V30 1793 H 183.956 4.96561 4.89972 0
M  V30 1794 H 179.853 3.7772 5.23448 0
M  V30 1795 H 180.621 5.77422 5.80109 0
M  V30 1796 N 183.284 -1.43765 0.645699 0
M  V30 1797 C 184.231 -2.30745 -0.0504648 0
M  V30 1798 C 185.201 -1.4432 -0.822241 0
M  V30 1799 O 186.386 -1.73202 -0.800358 0
M  V30 1800 C 183.526 -3.29802 -1.0161 0
M  V30 1801 C 182.639 -4.31326 -0.241219 0
M  V30 1802 C 181.774 -5.17469 -1.19998 0
M  V30 1803 C 180.813 -6.10691 -0.415094 0
M  V30 1804 N 179.95 -6.89483 -1.32506 0
M  V30 1805 H 184.79 -2.8973 0.697155 0
M  V30 1806 H 182.327 -1.42738 0.355563 0
M  V30 1807 H 184.285 -3.85734 -1.58949 0
M  V30 1808 H 182.915 -2.72483 -1.73069 0
M  V30 1809 H 181.967 -3.77749 0.448334 0
M  V30 1810 H 183.279 -4.9743 0.369437 0
M  V30 1811 H 182.433 -5.7799 -1.84424 0
M  V30 1812 H 181.172 -4.51473 -1.84455 0
M  V30 1813 H 180.177 -5.49265 0.242565 0
M  V30 1814 H 181.402 -6.78727 0.224966 0
M  V30 1815 H 179.348 -6.26142 -1.95657 0
M  V30 1816 H 179.265 -7.52081 -0.768783 0
M  V30 1817 H 180.533 -7.54516 -1.9577 0
M  V30 1818 N 184.763 -0.387143 -1.52771 0
M  V30 1819 C 185.711 0.463953 -2.27926 0
M  V30 1820 C 186.705 1.06493 -1.31741 0
M  V30 1821 O 187.911 1.00565 -1.49287 0
M  V30 1822 H 184.286 0.16837 -0.732909 0
M  V30 1823 H 186.257 -0.19141 -2.97785 0
M  V30 1824 C 185.006 1.5803 -3.09713 0
M  V30 1825 H 184.329 1.12718 -3.83581 0
M  V30 1826 H 185.769 2.15008 -3.65442 0
M  V30 1827 C 184.228 2.53509 -2.2189 0
M  V30 1828 O 184.758 3.56863 -1.84422 0
M  V30 1829 N 182.964 2.23199 -1.86093 0
M  V30 1830 H 182.511 1.39185 -2.16761 0
M  V30 1831 H 182.469 2.87333 -1.27621 0
M  V30 1832 N 186.241 1.57166 -0.116904 0
M  V30 1833 C 187.171 2.18222 0.830759 0
M  V30 1834 C 188.152 1.12167 1.27877 0
M  V30 1835 O 189.337 1.40394 1.34176 0
M  V30 1836 C 186.467 2.77996 2.08172 0
M  V30 1837 C 185.421 3.89614 1.77157 0
M  V30 1838 C 184.747 4.36187 3.09265 0
M  V30 1839 C 186.047 5.1181 1.04151 0
M  V30 1840 H 187.741 2.97664 0.321992 0
M  V30 1841 H 185.287 1.4318 0.153434 0
M  V30 1842 H 187.24 3.19366 2.74924 0
M  V30 1843 H 185.964 1.9584 2.6137 0
M  V30 1844 H 184.623 3.48816 1.12796 0
M  V30 1845 H 184.271 3.50893 3.60393 0
M  V30 1846 H 183.971 5.11455 2.89288 0
M  V30 1847 H 185.495 4.80207 3.77139 0
M  V30 1848 H 186.909 5.50214 1.61052 0
M  V30 1849 H 185.306 5.92648 0.942762 0
M  V30 1850 H 186.376 4.84892 0.0279022 0
M  V30 1851 N 187.719 -0.156864 1.56817 0
M  V30 1852 C 188.968 -0.869504 1.81996 0
M  V30 1853 C 189.281 -1.82777 0.696545 0
M  V30 1854 O 190.487 -2.58384 0.833658 0
M  V30 1855 C 188.943 -1.59679 3.22538 0
M  V30 1856 C 188.551 -0.681431 4.42787 0
M  V30 1857 C 190.295 -2.2968 3.56997 0
M  V30 1858 C 188.202 -1.40978 5.74351 0
M  V30 1859 H 187.132 -0.328438 0.678708 0
M  V30 1860 H 189.783 -0.1223 1.83092 0
M  V30 1861 H 188.165 -2.38927 3.158 0
M  V30 1862 H 189.339 0.0751166 4.60739 0
M  V30 1863 H 187.654 -0.0903431 4.16302 0
M  V30 1864 H 190.251 -2.84794 4.52544 0
M  V30 1865 H 190.594 -3.05707 2.82576 0
M  V30 1866 H 191.127 -1.57361 3.65352 0
M  V30 1867 H 187.866 -0.691561 6.51842 0
M  V30 1868 H 187.386 -2.13929 5.60352 0
M  V30 1869 H 189.065 -1.95337 6.16808 0
M  V30 1870 N 189.197 -1.51736 -0.425897 0
M  V30 1871 C 190.145 -1.74464 -1.53834 0
M  V30 1872 C 191.139 -0.611241 -1.57988 0
M  V30 1873 O 192.345 -0.792899 -1.61596 0
M  V30 1874 H 188.72 -0.551437 -0.511293 0
M  V30 1875 H 190.691 -2.67694 -1.31843 0
M  V30 1876 C 189.44 -1.8972 -2.91379 0
M  V30 1877 H 188.763 -2.76344 -2.88919 0
M  V30 1878 H 190.203 -2.09629 -3.68553 0
M  V30 1879 C 188.662 -0.65992 -3.30374 0
M  V30 1880 O 189.192 0.180083 -4.01296 0
M  V30 1881 N 187.398 -0.500677 -2.86254 0
M  V30 1882 H 186.945 -1.18532 -2.28709 0
M  V30 1883 H 186.903 0.325903 -3.12706 0
M  V30 1884 N 190.675 0.682077 -1.42076 0
M  V30 1885 C 191.623 1.81707 -1.45208 0
M  V30 1886 C 192.617 1.66183 -0.328591 0
M  V30 1887 O 193.823 1.7288 -0.501264 0
M  V30 1888 H 190.198 0.599014 -0.454628 0
M  V30 1889 H 192.169 1.76183 -2.40836 0
M  V30 1890 C 190.918 3.19816 -1.36428 0
M  V30 1891 H 190.241 3.32385 -2.22171 0
M  V30 1892 H 191.681 3.99272 -1.42681 0
M  V30 1893 C 190.14 3.36809 -0.078191 0
M  V30 1894 O 190.67 3.92124 0.87188 0
M  V30 1895 N 188.876 2.906 0.00229266 0
M  V30 1896 H 188.423 2.45772 -0.771616 0
M  V30 1897 H 188.381 3.02347 0.862179 0
M  V30 1898 N 192.153 1.28127 0.917671 0
M  V30 1899 C 193.116 1.11744 2.00115 0
M  V30 1900 C 194.116 0.0583052 1.60694 0
M  V30 1901 O 195.306 0.303755 1.71531 0
M  V30 1902 C 192.438 0.704862 3.33533 0
M  V30 1903 H 193.631 2.07966 2.16079 0
M  V30 1904 H 191.184 1.11058 1.09981 0
M  V30 1905 H 191.919 -0.258299 3.2327 0
M  V30 1906 H 191.704 1.4699 3.63505 0
M  V30 1907 H 193.194 0.612768 4.1308 0
M  V30 1908 N 193.631 -1.12557 1.10312 0
M  V30 1909 C 194.578 -2.18247 0.750781 0
M  V30 1910 C 195.548 -1.63853 -0.272293 0
M  V30 1911 O 196.733 -1.90195 -0.151862 0
M  V30 1912 C 193.873 -3.44591 0.187379 0
M  V30 1913 C 192.986 -4.13046 1.2656 0
M  V30 1914 C 192.121 -5.27034 0.663978 0
M  V30 1915 C 191.16 -5.87353 1.72287 0
M  V30 1916 N 190.297 -6.92757 1.1416 0
M  V30 1917 H 195.137 -2.47732 1.65628 0
M  V30 1918 H 192.674 -1.21629 0.827337 0
M  V30 1919 H 194.632 -4.16904 -0.157148 0
M  V30 1920 H 193.262 -3.15527 -0.681355 0
M  V30 1921 H 192.314 -3.38924 1.72727 0
M  V30 1922 H 193.626 -4.53947 2.06721 0
M  V30 1923 H 192.78 -6.06104 0.268824 0
M  V30 1924 H 191.519 -4.87407 -0.169082 0
M  V30 1925 H 190.524 -5.06971 2.12746 0
M  V30 1926 H 191.749 -6.29051 2.55875 0
M  V30 1927 H 189.695 -6.5517 0.329984 0
M  V30 1928 H 189.612 -7.3225 1.88007 0
M  V30 1929 H 190.88 -7.75658 0.772956 0
M  V30 1930 N 195.109 -0.891671 -1.2995 0
M  V30 1931 C 196.337 -0.52866 -2.00032 0
M  V30 1932 C 196.752 0.884574 -1.66795 0
M  V30 1933 O 196.109 1.5827 -0.908669 0
M  V30 1934 C 196.16 -0.701814 -3.54622 0
M  V30 1935 O 195.881 -2.05942 -3.86678 0
M  V30 1936 C 197.382 -0.342683 -4.41973 0
M  V30 1937 H 194.602 -0.203659 -0.639347 0
M  V30 1938 H 197.146 -1.19881 -1.65677 0
M  V30 1939 H 195.301 -0.0789468 -3.8732 0
M  V30 1940 H 195.715 -2.08291 -4.81368 0
M  V30 1941 H 197.189 -0.514709 -5.49595 0
M  V30 1942 H 197.666 0.71975 -4.33262 0
M  V30 1943 H 198.272 -0.942154 -4.14733 0
M  V30 1944 N 196.587 1.43421 -0.653314 0
M  V30 1945 C 197.833 2.02111 -0.166992 0
M  V30 1946 C 198.166 1.51423 1.21592 0
M  V30 1947 O 197.441 0.707389 1.8118 0
M  V30 1948 C 197.724 3.5966 -0.177948 0
M  V30 1949 C 197.577 4.20579 -1.59478 0
M  V30 1950 C 198.896 4.37413 0.4856 0
M  V30 1951 H 196.015 0.734374 -0.0621557 0
M  V30 1952 H 198.657 1.70717 -0.834016 0
M  V30 1953 H 196.807 3.86537 0.390032 0
M  V30 1954 H 198.479 4.04732 -2.21336 0
M  V30 1955 H 196.722 3.77226 -2.14204 0
M  V30 1956 H 197.393 5.29665 -1.5543 0
M  V30 1957 H 199.869 4.161 0.00234528 0
M  V30 1958 H 198.745 5.47075 0.447207 0
M  V30 1959 H 199.006 4.13672 1.55974 0
M  V30 1960 N 198.065 0.39524 1.52563 0
M  V30 1961 C 198.975 -0.444232 2.30356 0
M  V30 1962 C 199.991 -1.06615 1.37511 0
M  V30 1963 O 201.167 -1.07067 1.70583 0
M  V30 1964 C 198.232 -1.55315 3.09964 0
M  V30 1965 C 197.293 -0.955734 4.18526 0
M  V30 1966 C 196.526 -2.01181 4.9433 0
M  V30 1967 O 196.749 -3.22781 4.70285 0
M  V30 1968 O 195.683 -1.62579 5.79527 0
M  V30 1969 H 199.509 0.189667 3.03107 0
M  V30 1970 H 197.094 0.1588 1.48554 0
M  V30 1971 H 198.976 -2.19724 3.59582 0
M  V30 1972 H 197.651 -2.17191 2.4002 0
M  V30 1973 H 196.558 -0.274743 3.7309 0
M  V30 1974 H 197.891 -0.381109 4.90722 0
M  V30 1975 N 199.544 -1.57102 0.125237 0
M  V30 1976 C 200.792 -1.95021 -0.530198 0
M  V30 1977 C 201.113 -1.00982 -1.66816 0
M  V30 1978 O 200.383 -0.0672693 -1.95784 0
M  V30 1979 H 198.963 -0.720046 -0.198853 0
M  V30 1980 H 201.625 -1.93916 0.19564 0
M  V30 1981 H 200.721 -2.98211 -0.920681 0
M  V30 1982 N 201.022 0.148545 -1.56898 0
M  V30 1983 C 202.268 0.862694 -1.83536 0
M  V30 1984 C 202.601 1.80889 -0.706604 0
M  V30 1985 O 201.876 1.92328 0.289885 0
M  V30 1986 C 202.159 1.63853 -3.20662 0
M  V30 1987 C 202.012 0.713925 -4.44098 0
M  V30 1988 C 203.331 2.60133 -3.54991 0
M  V30 1989 H 200.45 0.312179 -0.667618 0
M  V30 1990 H 203.092 0.127953 -1.89569 0
M  V30 1991 H 201.242 2.26489 -3.1565 0
M  V30 1992 H 202.914 0.098686 -4.61194 0
M  V30 1993 H 201.157 0.0234019 -4.33794 0
M  V30 1994 H 201.828 1.29278 -5.36648 0
M  V30 1995 H 204.304 2.07616 -3.60603 0
M  V30 1996 H 203.18 3.11468 -4.51972 0
M  V30 1997 H 203.441 3.41417 -2.80868 0
M  V30 1998 N 202.5 1.5196 0.417844 0
M  V30 1999 C 203.447 1.74678 1.50852 0
M  V30 2000 C 204.417 0.588947 1.55308 0
M  V30 2001 O 205.602 0.825544 1.72016 0
M  V30 2002 C 202.742 1.89544 2.88387 0
M  V30 2003 C 201.855 3.17166 2.93309 0
M  V30 2004 C 200.99 3.22513 4.22088 0
M  V30 2005 C 200.029 4.44372 4.20951 0
M  V30 2006 N 199.166 4.47161 5.41287 0
M  V30 2007 H 204.006 2.67768 1.30783 0
M  V30 2008 H 201.543 1.32689 0.63498 0
M  V30 2009 H 203.501 1.96146 3.68216 0
M  V30 2010 H 202.131 0.998424 3.06971 0
M  V30 2011 H 201.183 3.19778 2.06024 0
M  V30 2012 H 202.495 4.07021 2.88332 0
M  V30 2013 H 201.649 3.28139 5.10303 0
M  V30 2014 H 200.388 2.30581 4.29748 0
M  V30 2015 H 199.393 4.38902 3.31127 0
M  V30 2016 H 200.618 5.3759 4.14938 0
M  V30 2017 H 198.564 3.58108 5.49632 0
M  V30 2018 H 198.481 5.3085 5.3827 0
M  V30 2019 H 199.749 4.57005 6.3148 0
M  V30 2020 N 203.978 -0.674533 1.42435 0
M  V30 2021 C 205.255 -1.4305 1.33402 0
M  V30 2022 C 205.635 -2.11081 -0.0284674 0
M  V30 2023 O 204.983 -2.03257 -1.04397 0
M  V30 2024 C 205.193 -2.43272 2.50239 0
M  V30 2025 C 206.541 -3.07907 2.92367 0
M  V30 2026 O 207.565 -2.53599 2.50132 0
M  V30 2027 O 206.424 -4.0632 3.65467 0
M  V30 2028 H 203.518 -0.638076 0.526106 0
M  V30 2029 H 206.064 -0.703235 1.54443 0
M  V30 2030 H 204.836 -1.91803 3.41068 0
M  V30 2031 H 204.459 -3.23479 2.31186 0
M  V30 2032 N 205.456 -1.28612 -0.910864 0
M  V30 2033 C 206.386 -1.15326 -2.03032 0
M  V30 2034 C 207.367 -0.0502924 -1.70026 0
M  V30 2035 O 208.552 -0.227797 -1.92859 0
M  V30 2036 C 205.682 -0.817343 -3.37545 0
M  V30 2037 C 204.636 -1.8754 -3.84724 0
M  V30 2038 C 203.962 -1.39305 -5.16235 0
M  V30 2039 C 205.262 -3.28244 -4.06267 0
M  V30 2040 H 206.956 -2.08975 -2.14406 0
M  V30 2041 H 204.502 -1.00612 -1.03021 0
M  V30 2042 H 206.455 -0.711151 -4.15356 0
M  V30 2043 H 205.179 0.154846 -3.26233 0
M  V30 2044 H 203.838 -1.97079 -3.09121 0
M  V30 2045 H 203.486 -0.409846 -5.01328 0
M  V30 2046 H 203.186 -2.10057 -5.48771 0
M  V30 2047 H 204.71 -1.30014 -5.96598 0
M  V30 2048 H 206.124 -3.21611 -4.74594 0
M  V30 2049 H 204.521 -3.96855 -4.5014 0
M  V30 2050 H 205.591 -3.72048 -3.10979 0
M  V30 2051 N 206.934 1.1197 -1.10907 0
M  V30 2052 C 207.866 2.17592 -0.720175 0
M  V30 2053 C 208.879 1.60938 0.245495 0
M  V30 2054 O 210.068 1.78476 0.0292245 0
M  V30 2055 C 207.168 3.38873 -0.0427917 0
M  V30 2056 C 206.341 4.25006 -1.03388 0
M  V30 2057 C 205.4 5.24774 -0.387075 0
M  V30 2058 O 204.426 5.59631 -1.03934 0
M  V30 2059 N 205.628 5.74208 0.852407 0
M  V30 2060 H 208.393 2.51567 -1.62893 0
M  V30 2061 H 205.954 1.27439 -0.998543 0
M  V30 2062 H 207.946 4.02703 0.401501 0
M  V30 2063 H 206.516 3.03007 0.768456 0
M  V30 2064 H 205.736 3.57716 -1.65629 0
M  V30 2065 H 207.024 4.79397 -1.70458 0
M  V30 2066 H 206.422 5.48062 1.40161 0
M  V30 2067 H 204.979 6.39901 1.23977 0
M  V30 2068 N 208.412 0.89855 1.29475 0
M  V30 2069 C 209.375 0.380272 2.26023 0
M  V30 2070 C 210.375 -0.484891 1.53315 0
M  V30 2071 O 211.565 -0.290108 1.71767 0
M  V30 2072 C 208.697 -0.45651 3.3783 0
M  V30 2073 H 209.89 1.23295 2.73383 0
M  V30 2074 H 207.443 0.676589 1.40897 0
M  V30 2075 H 208.178 -1.32922 2.95808 0
M  V30 2076 H 207.963 0.163393 3.91759 0
M  V30 2077 H 209.453 -0.810466 4.0966 0
M  V30 2078 N 209.89 -1.43072 0.660911 0
M  V30 2079 C 210.822 -2.29108 -0.0647641 0
M  V30 2080 C 211.835 -1.42928 -0.779448 0
M  V30 2081 O 213.024 -1.66788 -0.635921 0
M  V30 2082 C 210.124 -3.20032 -1.11503 0
M  V30 2083 C 209.297 -4.34792 -0.476955 0
M  V30 2084 C 208.356 -5.06534 -1.42513 0
M  V30 2085 O 207.382 -5.61538 -0.930771 0
M  V30 2086 N 208.584 -5.1075 -2.75889 0
M  V30 2087 H 211.349 -2.92029 0.673731 0
M  V30 2088 H 208.91 -1.53846 0.50427 0
M  V30 2089 H 210.902 -3.64892 -1.75032 0
M  V30 2090 H 209.472 -2.58658 -1.75541 0
M  V30 2091 H 208.692 -3.92752 0.337572 0
M  V30 2092 H 209.98 -5.0879 -0.0318525 0
M  V30 2093 H 209.378 -4.67447 -3.18606 0
M  V30 2094 H 207.935 -5.59302 -3.347 0
M  V30 2095 N 211.368 -0.403325 -1.52352 0
M  V30 2096 C 212.614 0.174605 -2.02047 0
M  V30 2097 C 212.947 1.45282 -1.28867 0
M  V30 2098 O 212.222 1.90483 -0.393257 0
M  V30 2099 C 212.505 0.428238 -3.57545 0
M  V30 2100 C 212.358 -0.866248 -4.4138 0
M  V30 2101 C 213.677 1.21287 -4.23057 0
M  V30 2102 H 210.796 0.0619851 -0.734389 0
M  V30 2103 H 213.438 -0.53565 -1.82293 0
M  V30 2104 H 211.588 1.03327 -3.74507 0
M  V30 2105 H 213.26 -1.50265 -4.3614 0
M  V30 2106 H 211.503 -1.47851 -4.07827 0
M  V30 2107 H 212.174 -0.643249 -5.48239 0
M  V30 2108 H 214.65 0.700703 -4.10158 0
M  V30 2109 H 213.526 1.35909 -5.31808 0
M  V30 2110 H 213.787 2.23193 -3.81625 0
M  V30 2111 N 212.846 1.57033 -0.133567 0
M  V30 2112 C 214.092 1.95976 0.521649 0
M  V30 2113 C 214.425 1.01779 1.65393 0
M  V30 2114 O 213.7 0.0576581 1.94415 0
M  V30 2115 C 213.983 3.44738 1.04057 0
M  V30 2116 C 213.836 4.49711 -0.0892897 0
M  V30 2117 C 215.155 3.95682 1.92675 0
M  V30 2118 H 212.274 0.712579 0.188149 0
M  V30 2119 H 214.916 1.88813 -0.212076 0
M  V30 2120 H 213.066 3.50973 1.66583 0
M  V30 2121 H 214.738 4.55565 -0.725152 0
M  V30 2122 H 212.981 4.27261 -0.750378 0
M  V30 2123 H 213.652 5.51099 0.315284 0
M  V30 2124 H 216.128 3.91841 1.39998 0
M  V30 2125 H 215.004 5.00262 2.25897 0
M  V30 2126 H 215.265 3.37239 2.85872 0
M  V30 2127 N 214.325 -0.140222 1.56975 0
M  V30 2128 C 215.235 -1.19223 2.02047 0
M  V30 2129 C 216.251 -1.46612 0.937062 0
M  V30 2130 O 217.427 -1.58148 1.24704 0
M  V30 2131 C 214.492 -2.50414 2.39778 0
M  V30 2132 C 213.553 -2.30612 3.621 0
M  V30 2133 C 212.786 -3.55547 3.98023 0
M  V30 2134 O 213.009 -4.62004 3.34528 0
M  V30 2135 O 211.943 -3.47808 4.91237 0
M  V30 2136 H 215.769 -0.839559 2.91865 0
M  V30 2137 H 213.354 -0.349453 1.45256 0
M  V30 2138 H 215.236 -3.27747 2.64877 0
M  V30 2139 H 213.911 -2.85198 1.53114 0
M  V30 2140 H 212.818 -1.51207 3.4218 0
M  V30 2141 H 214.151 -2.00741 4.49404 0
M  V30 2142 N 215.803 -1.52179 -0.40978 0
M  V30 2143 C 217.028 -1.70347 -1.18308 0
M  V30 2144 C 217.453 -0.411887 -1.83535 0
M  V30 2145 O 216.811 0.630587 -1.6998 0
M  V30 2146 C 216.859 -2.83977 -2.22238 0
M  V30 2147 O 215.963 -2.495 -3.28365 0
M  V30 2148 H 215.304 -0.567103 -0.345384 0
M  V30 2149 H 217.834 -1.98879 -0.480445 0
M  V30 2150 H 217.844 -3.0887 -2.66577 0
M  V30 2151 H 216.519 -3.77685 -1.74146 0
M  V30 2152 H 215.096 -2.35277 -2.89308 0
M  V30 2153 N 217.281 0.66697 -1.42791 0
M  V30 2154 C 218.244 1.76211 -1.46568 0
M  V30 2155 C 219.244 1.56896 -0.352196 0
M  V30 2156 O 220.434 1.63044 -0.613364 0
M  V30 2157 C 217.566 3.14935 -1.30494 0
M  V30 2158 H 218.759 1.74247 -2.44086 0
M  V30 2159 H 216.312 0.877342 -1.29354 0
M  V30 2160 H 217.047 3.2252 -0.339301 0
M  V30 2161 H 216.832 3.30359 -2.11199 0
M  V30 2162 H 218.322 3.94821 -1.36038 0
M  V30 2163 N 218.759 1.29093 0.90403 0
M  V30 2164 C 219.706 1.13853 2.00764 0
M  V30 2165 C 220.676 0.0330084 1.66067 0
M  V30 2166 O 221.861 0.199733 1.89752 0
M  V30 2167 C 219.001 0.816537 3.35301 0
M  V30 2168 C 218.114 2.00206 3.82807 0
M  V30 2169 C 217.249 1.61983 5.059 0
M  V30 2170 C 216.288 2.77143 5.45764 0
M  V30 2171 N 215.425 2.39346 6.60044 0
M  V30 2172 H 220.265 2.08276 2.13132 0
M  V30 2173 H 217.802 1.03648 1.04381 0
M  V30 2174 H 219.76 0.610557 4.12708 0
M  V30 2175 H 218.39 -0.090779 3.22672 0
M  V30 2176 H 217.442 2.31988 3.01473 0
M  V30 2177 H 218.754 2.86512 4.08304 0
M  V30 2178 H 217.908 1.37649 5.90879 0
M  V30 2179 H 216.647 0.728202 4.82233 0
M  V30 2180 H 215.652 3.02165 4.59322 0
M  V30 2181 H 216.877 3.66964 5.71414 0
M  V30 2182 H 214.823 1.52665 6.37989 0
M  V30 2183 H 214.74 3.19185 6.85315 0
M  V30 2184 H 216.008 2.1832 7.48303 0
M  V30 2185 N 220.237 -1.11381 1.11499 0
M  V30 2186 C 221.184 -2.17439 0.773887 0
M  V30 2187 C 222.154 -1.64132 -0.254899 0
M  V30 2188 O 223.339 -1.90345 -0.13168 0
M  V30 2189 C 220.479 -3.44373 0.223917 0
M  V30 2190 C 219.592 -4.1168 1.30934 0
M  V30 2191 C 218.727 -5.263 0.71984 0
M  V30 2192 C 217.766 -5.85493 1.78507 0
M  V30 2193 N 216.903 -6.91507 1.21502 0
M  V30 2194 H 221.743 -2.45962 1.68246 0
M  V30 2195 H 219.28 -1.20744 0.840191 0
M  V30 2196 H 221.238 -4.17047 -0.112921 0
M  V30 2197 H 219.868 -3.16232 -0.647851 0
M  V30 2198 H 218.92 -3.37073 1.76312 0
M  V30 2199 H 220.232 -4.51729 2.11524 0
M  V30 2200 H 219.386 -6.05785 0.333094 0
M  V30 2201 H 218.125 -4.87559 -0.117377 0
M  V30 2202 H 217.13 -5.04686 2.18111 0
M  V30 2203 H 218.355 -6.26301 2.62533 0
M  V30 2204 H 216.301 -6.54783 0.399455 0
M  V30 2205 H 216.218 -7.30214 1.95763 0
M  V30 2206 H 217.486 -7.74795 0.855181 0
M  V30 2207 N 221.715 -0.905404 -1.28997 0
M  V30 2208 C 222.678 -0.392253 -2.25819 0
M  V30 2209 C 223.678 0.476753 -1.5357 0
M  V30 2210 O 224.868 0.280994 -1.71919 0
M  V30 2211 C 222 0.438588 -3.38067 0
M  V30 2212 H 223.193 -1.24743 -2.72725 0
M  V30 2213 H 220.746 -0.684051 -1.40536 0
M  V30 2214 H 221.481 1.31352 -2.96508 0
M  V30 2215 H 221.266 -0.184167 -3.91667 0
M  V30 2216 H 222.756 0.78873 -4.10084 0
M  V30 2217 N 223.193 1.4272 -0.668489 0
M  V30 2218 C 224.609 1.55992 -0.33745 0
M  V30 2219 C 224.809 1.64933 1.15756 0
M  V30 2220 O 223.865 1.61278 1.94282 0
M  V30 2221 C 225.178 2.81314 -1.06222 0
M  V30 2222 C 226.726 2.95078 -1.04394 0
M  V30 2223 C 227.201 4.23252 -1.74991 0
M  V30 2224 N 228.692 4.3015 -1.71829 0
M  V30 2225 C 229.427 5.28127 -2.23315 0
M  V30 2226 N 228.923 6.32293 -2.83156 0
M  V30 2227 N 230.716 5.19882 -2.13726 0
M  V30 2228 H 222.867 1.3516 -1.63846 0
M  V30 2229 H 225.13 0.650174 -0.689912 0
M  V30 2230 H 224.836 2.80823 -2.11734 0
M  V30 2231 H 224.71 3.72012 -0.62344 0
M  V30 2232 H 227.097 2.951 0.0028244 0
M  V30 2233 H 227.178 2.05627 -1.52155 0
M  V30 2234 H 226.822 4.2399 -2.79633 0
M  V30 2235 H 226.752 5.11626 -1.24685 0
M  V30 2236 H 229.243 3.55499 -1.28175 0
M  V30 2237 H 229.556 7.03398 -3.20079 0
M  V30 2238 H 227.901 6.32873 -2.87223 0
M  V30 2239 H 231.092 4.37423 -1.66669 0
M  V30 2240 H 231.265 5.96077 -2.54158 0
M  V30 2241 N 224.671 0.411399 1.52136 0
M  V30 2242 C 225.92 -0.165009 2.01024 0
M  V30 2243 C 226.233 -1.4603 1.30133 0
M  V30 2244 O 227.439 -2.1181 1.69849 0
M  V30 2245 C 225.895 -0.344618 3.58246 0
M  V30 2246 C 225.503 0.938716 4.38055 0
M  V30 2247 C 227.247 -0.876195 4.15359 0
M  V30 2248 C 225.154 0.726172 5.86925 0
M  V30 2249 H 224.084 -0.0654407 0.751155 0
M  V30 2250 H 226.735 0.537192 1.75461 0
M  V30 2251 H 225.117 -1.10921 3.80148 0
M  V30 2252 H 226.291 1.70963 4.27912 0
M  V30 2253 H 224.606 1.39688 3.92271 0
M  V30 2254 H 227.203 -1.05128 5.24263 0
M  V30 2255 H 227.546 -1.85152 3.7286 0
M  V30 2256 H 228.079 -0.170607 3.97434 0
M  V30 2257 H 224.818 1.67312 6.33788 0
M  V30 2258 H 224.338 -0.00540283 5.998 0
M  V30 2259 H 226.017 0.369231 6.45946 0
M  V30 2260 N 226.149 -1.5696 0.141893 0
M  V30 2261 C 227.374 -2.00754 -0.520838 0
M  V30 2262 C 227.799 -1.0213 -1.57959 0
M  V30 2263 O 227.157 0.00371324 -1.813 0
M  V30 2264 C 227.205 -3.43318 -1.10294 0
M  V30 2265 O 226.309 -3.47679 -2.21795 0
M  V30 2266 H 225.65 -0.651564 -0.127908 0
M  V30 2267 H 228.18 -2.03221 0.23712 0
M  V30 2268 H 228.19 -3.82012 -1.43287 0
M  V30 2269 H 226.865 -4.14608 -0.327574 0
M  V30 2270 H 225.442 -3.20824 -1.9007 0
M  V30 2271 N 227.627 0.131896 -1.57047 0
M  V30 2272 C 228.537 1.1815 -2.02676 0
M  V30 2273 C 229.553 1.46113 -0.944824 0
M  V30 2274 O 230.729 1.57485 -1.25541 0
M  V30 2275 C 227.794 2.49139 -2.41103 0
M  V30 2276 C 226.855 2.28688 -3.63318 0
M  V30 2277 C 226.088 3.53431 -3.99903 0
M  V30 2278 O 226.311 4.60223 -3.36973 0
M  V30 2279 O 225.245 3.45198 -4.93074 0
M  V30 2280 H 229.071 0.824069 -2.92306 0
M  V30 2281 H 226.656 0.341745 -1.45439 0
M  V30 2282 H 228.538 3.26338 -2.66611 0
M  V30 2283 H 227.213 2.84382 -1.54624 0
M  V30 2284 H 226.12 1.4939 -3.42977 0
M  V30 2285 H 227.453 1.98355 -4.50462 0
M  V30 2286 N 229.106 1.52395 0.401703 0
M  V30 2287 C 230.069 1.75636 1.47257 0
M  V30 2288 C 231.069 0.62628 1.48103 0
M  V30 2289 O 232.259 0.894227 1.49497 0
M  V30 2290 C 229.391 1.84553 2.86624 0
M  V30 2291 H 230.584 2.71241 1.27938 0
M  V30 2292 H 228.137 1.42923 0.632662 0
M  V30 2293 H 228.872 0.908882 3.11303 0
M  V30 2294 H 228.657 2.66715 2.87412 0
M  V30 2295 H 230.147 2.04251 3.64241 0
M  V30 2296 N 230.584 -0.659388 1.43143 0
M  V30 2297 C 231.812 -1.44723 1.47861 0
M  V30 2298 C 232.227 -1.88563 0.0945886 0
M  V30 2299 O 231.584 -1.59108 -0.893915 0
M  V30 2300 C 231.635 -2.68627 2.41913 0
M  V30 2301 O 231.356 -2.26623 3.74932 0
M  V30 2302 C 232.857 -3.62045 2.55809 0
M  V30 2303 H 230.077 -0.444801 0.502387 0
M  V30 2304 H 232.621 -0.808916 1.87821 0
M  V30 2305 H 230.776 -3.28613 2.05164 0
M  V30 2306 H 231.19 -3.06745 4.2545 0
M  V30 2307 H 232.664 -4.45666 3.25708 0
M  V30 2308 H 233.141 -4.08981 1.60099 0
M  V30 2309 H 233.747 -3.07944 2.93344 0
M  V30 2310 N 232.062 -1.29571 -0.897171 0
M  V30 2311 C 233.339 -1.08365 -1.62839 0
M  V30 2312 C 233.719 0.371331 -2.07808 0
M  V30 2313 O 233.067 1.3606 -1.83576 0
M  V30 2314 C 233.277 -2.0735 -2.80726 0
M  V30 2315 C 234.625 -2.38406 -3.51351 0
M  V30 2316 O 235.649 -2.05564 -2.90898 0
M  V30 2317 O 234.508 -2.9453 -4.60341 0
M  V30 2318 H 231.602 -0.415345 -0.715134 0
M  V30 2319 H 234.148 -1.40952 -0.945018 0
M  V30 2320 H 232.92 -3.05339 -2.44711 0
M  V30 2321 H 232.543 -1.75507 -3.56767 0
M  V30 2322 N 233.54 1.10788 -1.12088 0
M  V30 2323 C 234.788 1.8231 -0.872205 0
M  V30 2324 C 235.109 1.85419 0.603709 0
M  V30 2325 O 234.379 1.32963 1.43867 0
M  V30 2326 H 232.959 0.675137 -0.319686 0
M  V30 2327 H 235.621 1.34068 -1.41463 0
M  V30 2328 H 234.717 2.85955 -1.25045 0
M  V30 2329 N 235.018 0.912232 1.28515 0
M  V30 2330 C 235.948 0.416403 2.29757 0
M  V30 2331 C 236.929 -0.515194 1.6211 0
M  V30 2332 O 238.114 -0.423253 1.89532 0
M  V30 2333 C 235.244 -0.34572 3.45575 0
M  V30 2334 C 234.198 0.496599 4.25109 0
M  V30 2335 C 233.524 -0.393771 5.33248 0
M  V30 2336 C 234.824 1.75307 4.92001 0
M  V30 2337 H 236.518 1.26249 2.7148 0
M  V30 2338 H 234.064 0.608515 1.30511 0
M  V30 2339 H 236.017 -0.703422 4.15488 0
M  V30 2340 H 234.741 -1.2257 3.02728 0
M  V30 2341 H 233.4 0.8368 3.56922 0
M  V30 2342 H 233.048 -1.27225 4.86644 0
M  V30 2343 H 232.748 0.166209 5.87365 0
M  V30 2344 H 234.272 -0.747389 6.06009 0
M  V30 2345 H 235.686 1.46437 5.54283 0
M  V30 2346 H 234.083 2.25534 5.56106 0
M  V30 2347 H 235.153 2.48176 4.16577 0
M  V30 2348 N 236.496 -1.42363 0.676048 0
M  V30 2349 C 237.721 -2.06377 0.205705 0
M  V30 2350 C 238.146 -1.50463 -1.12883 0
M  V30 2351 O 237.504 -0.623619 -1.70237 0
M  V30 2352 C 237.552 -3.60277 0.152655 0
M  V30 2353 O 236.656 -4.02935 -0.87845 0
M  V30 2354 H 235.997 -0.655588 0.105359 0
M  V30 2355 H 238.527 -1.82475 0.925412 0
M  V30 2356 H 238.537 -4.07993 -0.0230675 0
M  V30 2357 H 237.212 -4.00346 1.12675 0
M  V30 2358 H 235.789 -3.66764 -0.673668 0
M  V30 2359 N 237.974 -0.419461 -1.51915 0
M  V30 2360 C 239.251 0.211999 -1.94448 0
M  V30 2361 C 239.631 1.61703 -1.35703 0
M  V30 2362 O 238.979 2.22102 -0.536931 0
M  V30 2363 C 239.189 0.207872 -3.4838 0
M  V30 2364 C 240.537 0.422192 -4.22496 0
M  V30 2365 O 241.561 0.286778 -3.55044 0
M  V30 2366 O 240.42 0.690009 -5.42126 0
M  V30 2367 H 237.514 0.139586 -0.815135 0
M  V30 2368 H 240.06 -0.476151 -1.62883 0
M  V30 2369 H 238.832 -0.775102 -3.83546 0
M  V30 2370 H 238.455 0.939688 -3.86336 0
M  V30 2371 N 239.452 1.56882 -0.150215 0
M  V30 2372 C 240.699 1.96228 0.500093 0
M  V30 2373 C 241.027 1.03522 1.64661 0
M  V30 2374 O 240.282 0.0650683 1.95592 0
M  V30 2375 C 240.581 3.41801 1.04437 0
M  V30 2376 C 240.247 4.50897 0.0159671 0
M  V30 2377 C 238.909 4.8046 -0.266731 0
M  V30 2378 C 241.261 5.16703 -0.683192 0
M  V30 2379 C 238.589 5.73135 -1.25434 0
M  V30 2380 C 240.941 6.10441 -1.65964 0
M  V30 2381 C 239.605 6.38382 -1.95 0
M  V30 2382 H 238.875 0.718048 0.182997 0
M  V30 2383 H 241.522 1.90019 -0.237724 0
M  V30 2384 H 239.827 3.44857 1.85959 0
M  V30 2385 H 241.524 3.69573 1.55618 0
M  V30 2386 H 238.114 4.27891 0.246485 0
M  V30 2387 H 242.298 4.93993 -0.477983 0
M  V30 2388 H 237.554 5.93074 -1.48571 0
M  V30 2389 H 241.728 6.60507 -2.20689 0
M  V30 2390 H 239.355 7.09996 -2.71679 0
M  V30 2391 N 240.93 -0.123565 1.57115 0
M  V30 2392 C 241.86 -1.15309 2.03042 0
M  V30 2393 C 242.841 -1.43454 0.914061 0
M  V30 2394 O 244.026 -1.53973 1.18347 0
M  V30 2395 C 241.156 -2.48043 2.43089 0
M  V30 2396 C 240.11 -2.3437 3.58127 0
M  V30 2397 C 239.436 -3.72026 3.84059 0
M  V30 2398 C 240.736 -1.80804 4.90007 0
M  V30 2399 H 242.43 -0.771102 2.893 0
M  V30 2400 H 239.976 -0.369479 1.39179 0
M  V30 2401 H 241.929 -3.20311 2.73823 0
M  V30 2402 H 240.653 -2.88122 1.53796 0
M  V30 2403 H 239.312 -1.64551 3.27595 0
M  V30 2404 H 238.96 -4.09582 2.91979 0
M  V30 2405 H 238.66 -3.63732 4.6149 0
M  V30 2406 H 240.184 -4.45806 4.1724 0
M  V30 2407 H 241.598 -2.42886 5.19307 0
M  V30 2408 H 239.995 -1.83343 5.71407 0
M  V30 2409 H 241.065 -0.76528 4.78823 0
M  V30 2410 N 242.408 -1.52605 -0.393616 0
M  V30 2411 C 243.355 -1.77055 -1.48054 0
M  V30 2412 C 244.325 -0.61358 -1.54352 0
M  V30 2413 O 245.51 -0.852806 -1.70681 0
M  V30 2414 C 242.65 -1.94108 -2.85335 0
M  V30 2415 C 241.763 -3.21792 -2.88226 0
M  V30 2416 C 240.898 -3.29188 -4.16904 0
M  V30 2417 C 239.937 -4.51013 -4.13828 0
M  V30 2418 N 239.074 -4.55716 -5.34105 0
M  V30 2419 H 243.914 -2.69815 -1.26506 0
M  V30 2420 H 241.451 -1.33683 -0.61379 0
M  V30 2421 H 243.409 -2.01979 -3.65049 0
M  V30 2422 H 242.039 -1.04713 -3.05344 0
M  V30 2423 H 241.091 -3.23015 -2.00911 0
M  V30 2424 H 242.403 -4.11557 -2.8182 0
M  V30 2425 H 241.557 -3.36216 -5.05018 0
M  V30 2426 H 240.296 -2.37389 -4.26026 0
M  V30 2427 H 239.301 -4.44115 -3.24102 0
M  V30 2428 H 240.526 -5.44123 -4.06333 0
M  V30 2429 H 238.472 -3.66807 -5.43865 0
M  V30 2430 H 238.389 -5.39346 -5.29756 0
M  V30 2431 H 239.657 -4.66993 -6.2413 0
M  V30 2432 N 243.887 0.651787 -1.4349 0
M  V30 2433 C 245.112 1.44434 -1.48841 0
M  V30 2434 C 245.537 1.8779 -0.107955 0
M  V30 2435 O 244.895 1.57464 0.898602 0
M  V30 2436 C 244.943 2.65458 -2.44059 0
M  V30 2437 O 244.047 3.64566 -1.92784 0
M  V30 2438 H 243.388 0.433005 -0.503391 0
M  V30 2439 H 245.918 0.797451 -1.88419 0
M  V30 2440 H 245.928 3.13255 -2.6141 0
M  V30 2441 H 244.603 2.33244 -3.4434 0
M  V30 2442 H 243.18 3.23716 -1.851 0
M  V30 2443 N 245.365 1.30045 0.890287 0
M  V30 2444 C 246.297 1.11786 2.00091 0
M  V30 2445 C 247.31 0.0626307 1.62679 0
M  V30 2446 O 248.499 0.308112 1.75821 0
M  V30 2447 C 245.599 0.681527 3.31977 0
M  V30 2448 C 244.772 1.81735 3.97858 0
M  V30 2449 C 243.831 1.37045 5.08041 0
M  V30 2450 O 242.857 2.07677 5.29961 0
M  V30 2451 N 244.059 0.246525 5.79976 0
M  V30 2452 H 246.824 2.07441 2.16306 0
M  V30 2453 H 244.385 1.2211 1.06305 0
M  V30 2454 H 246.377 0.365675 4.03045 0
M  V30 2455 H 244.947 -0.182828 3.12065 0
M  V30 2456 H 244.167 2.30159 3.20032 0
M  V30 2457 H 245.455 2.57865 4.38615 0
M  V30 2458 H 244.853 -0.34215 5.64664 0
M  V30 2459 H 243.41 -0.00990438 6.51799 0
M  V30 2460 N 246.843 -1.10192 1.12674 0
M  V30 2461 C 248.071 -1.85983 0.906527 0
M  V30 2462 C 248.486 -1.80783 -0.544333 0
M  V30 2463 O 247.843 -1.19834 -1.37645 0
M  V30 2464 C 247.894 -3.34281 1.37618 0
M  V30 2465 O 247.615 -3.39401 2.77017 0
M  V30 2466 C 249.116 -4.26938 1.19325 0
M  V30 2467 H 246.336 -0.587716 0.323775 0
M  V30 2468 H 248.88 -1.39284 1.49734 0
M  V30 2469 H 247.035 -3.78436 0.828539 0
M  V30 2470 H 247.449 -4.31838 2.97684 0
M  V30 2471 H 248.923 -5.29181 1.57071 0
M  V30 2472 H 249.4 -4.38995 0.134097 0
M  V30 2473 H 250.006 -3.8859 1.72852 0
M  V30 2474 N 248.321 -0.919034 -1.28029 0
M  V30 2475 C 249.732 -0.600735 -1.76771 0
M  V30 2476 C 250.083 0.884024 -1.75156 0
M  V30 2477 O 249.208 1.69163 -1.34956 0
M  V30 2478 C 249.803 -1.08372 -3.21 0
M  V30 2479 C 248.362 -0.816248 -3.67443 0
M  V30 2480 C 247.509 -1.24742 -2.47658 0
M  V30 2481 H 250.46 -1.09974 -1.14418 0
M  V30 2482 H 250.481 -0.427512 -3.78091 0
M  V30 2483 H 249.993 -2.16437 -3.22144 0
M  V30 2484 H 248.094 0.250968 -3.71754 0
M  V30 2485 H 248.207 -1.4277 -4.57333 0
M  V30 2486 H 246.571 -0.666083 -2.45836 0
M  V30 2487 H 247.354 -2.33653 -2.51518 0
M  V30 2488 N 249.799 1.42003 -0.683588 0
M  V30 2489 C 250.762 2.29191 -0.0198243 0
M  V30 2490 C 251.762 1.43773 0.72013 0
M  V30 2491 O 252.952 1.65061 0.556815 0
M  V30 2492 C 250.084 3.26435 0.982487 0
M  V30 2493 H 251.277 2.8938 -0.787345 0
M  V30 2494 H 248.83 1.49789 -0.446418 0
M  V30 2495 H 249.565 2.71203 1.77819 0
M  V30 2496 H 249.35 3.89449 0.455182 0
M  V30 2497 H 250.84 3.918 1.44508 0
M  V30 2498 N 251.277 0.427512 1.51691 0
M  V30 2499 C 252.187 -0.39527 2.31246 0
M  V30 2500 C 253.203 -1.03674 1.39742 0
M  V30 2501 O 254.379 -1.03425 1.72816 0
M  V30 2502 C 251.444 -1.48706 3.13189 0
M  V30 2503 C 250.505 -0.866743 4.20459 0
M  V30 2504 C 249.738 -1.90651 4.98486 0
M  V30 2505 O 249.961 -3.12733 4.77026 0
M  V30 2506 O 248.895 -1.5025 5.82845 0
M  V30 2507 H 252.721 0.253918 3.02637 0
M  V30 2508 H 250.306 0.190274 1.48183 0
M  V30 2509 H 252.188 -2.12047 3.64162 0
M  V30 2510 H 250.863 -2.12051 2.44573 0
M  V30 2511 H 249.77 -0.195544 3.73589 0
M  V30 2512 H 251.103 -0.276934 4.9142 0
M  V30 2513 N 252.755 -1.56801 0.158532 0
M  V30 2514 C 254.032 -1.88131 -0.535357 0
M  V30 2515 C 254.412 -1.06638 -1.82186 0
M  V30 2516 O 253.76 -0.156533 -2.27963 0
M  V30 2517 C 253.97 -3.39949 -0.789653 0
M  V30 2518 C 255.318 -4.09416 -1.12533 0
M  V30 2519 O 256.342 -3.45194 -0.878622 0
M  V30 2520 O 255.201 -5.22855 -1.59014 0
M  V30 2521 H 252.295 -0.780143 -0.27442 0
M  V30 2522 H 254.841 -1.68564 0.19601 0
M  V30 2523 H 253.613 -3.91115 0.120353 0
M  V30 2524 H 253.236 -3.65084 -1.57479 0
M  V30 2525 N 254.233 0.115231 -1.57178 0
M  V30 2526 C 255.461 0.836437 -1.89239 0
M  V30 2527 C 255.876 1.73256 -0.750175 0
M  V30 2528 O 255.233 1.80357 0.278832 0
M  V30 2529 C 255.284 1.66671 -3.20785 0
M  V30 2530 O 255.005 0.806652 -4.3061 0
M  V30 2531 C 256.506 2.49274 -3.66575 0
M  V30 2532 H 253.726 0.240253 -0.626514 0
M  V30 2533 H 256.27 0.0984932 -2.04263 0
M  V30 2534 H 254.425 2.35737 -3.0742 0
M  V30 2535 H 254.839 1.37969 -5.06028 0
M  V30 2536 H 256.313 3.03055 -4.6137 0
M  V30 2537 H 256.79 3.26807 -2.93417 0
M  V30 2538 H 257.396 1.85443 -3.82741 0
M  V30 2539 N 255.711 1.52812 0.385517 0
M  V30 2540 C 256.957 1.68275 1.13188 0
M  V30 2541 C 257.29 0.423179 1.89533 0
M  V30 2542 O 256.565 -0.579113 1.85679 0
M  V30 2543 C 256.848 2.92001 2.1073 0
M  V30 2544 C 256.701 4.28067 1.38125 0
M  V30 2545 C 258.02 3.11283 3.11113 0
M  V30 2546 H 255.139 0.612352 0.410115 0
M  V30 2547 H 257.781 1.85415 0.414869 0
M  V30 2548 H 255.931 2.77519 2.71874 0
M  V30 2549 H 257.603 4.54324 0.799187 0
M  V30 2550 H 255.846 4.28388 0.683092 0
M  V30 2551 H 256.517 5.10733 2.09417 0
M  V30 2552 H 258.993 3.2482 2.6006 0
M  V30 2553 H 257.869 3.99325 3.76605 0
M  V30 2554 H 258.13 2.25656 3.80173 0
M  V30 2555 N 257.189 -0.644168 1.43834 0
M  V30 2556 C 258.136 -1.75671 1.49694 0
M  V30 2557 C 259.106 -1.6246 0.345809 0
M  V30 2558 O 260.291 -1.82573 0.554234 0
M  V30 2559 C 257.431 -3.13867 1.43463 0
M  V30 2560 C 256.544 -3.38147 2.6885 0
M  V30 2561 C 255.679 -4.66241 2.54544 0
M  V30 2562 C 254.718 -4.83657 3.75157 0
M  V30 2563 N 253.855 -6.03016 3.59605 0
M  V30 2564 H 258.695 -1.69998 2.44754 0
M  V30 2565 H 256.232 -0.829458 1.21484 0
M  V30 2566 H 258.19 -3.9377 1.37843 0
M  V30 2567 H 256.82 -3.18588 0.519783 0
M  V30 2568 H 255.872 -2.52276 2.84712 0
M  V30 2569 H 257.184 -3.46899 3.58417 0
M  V30 2570 H 256.338 -5.54285 2.46683 0
M  V30 2571 H 255.077 -4.59826 1.62516 0
M  V30 2572 H 254.082 -3.94046 3.83416 0
M  V30 2573 H 255.307 -4.91896 4.68204 0
M  V30 2574 H 253.253 -5.97715 2.7032 0
M  V30 2575 H 253.17 -6.12766 4.42779 0
M  V30 2576 H 254.438 -6.93657 3.55613 0
M  V30 2577 N 258.668 -1.30515 -0.883378 0
M  V30 2578 C 259.893 -1.22487 -1.67367 0
M  V30 2579 C 260.318 0.208767 -1.86938 0
M  V30 2580 O 259.676 1.15015 -1.40148 0
M  V30 2581 C 259.724 -1.96041 -3.02655 0
M  V30 2582 O 258.828 -1.28859 -3.91751 0
M  V30 2583 H 258.169 -0.423573 -0.511353 0
M  V30 2584 H 260.699 -1.72362 -1.10239 0
M  V30 2585 H 260.709 -2.05124 -3.52687 0
M  V30 2586 H 259.384 -3.00307 -2.8773 0
M  V30 2587 H 257.961 -1.28141 -3.50192 0
M  V30 2588 N 260.146 1.09593 -1.13257 0
M  V30 2589 C 261.395 1.81105 -0.887917 0
M  V30 2590 C 261.708 1.86563 0.587672 0
M  V30 2591 O 262.914 2.54367 0.949204 0
M  V30 2592 C 261.37 3.25338 -1.53895 0
M  V30 2593 C 260.978 3.28151 -3.04994 0
M  V30 2594 C 262.722 4.01617 -1.37492 0
M  V30 2595 C 260.629 4.66897 -3.6299 0
M  V30 2596 H 259.559 0.678661 -0.328534 0
M  V30 2597 H 262.21 1.23183 -1.36008 0
M  V30 2598 H 260.592 3.8331 -0.994446 0
M  V30 2599 H 261.766 2.79953 -3.66009 0
M  V30 2600 H 260.081 2.65361 -3.20893 0
M  V30 2601 H 262.678 5.04119 -1.78235 0
M  V30 2602 H 263.021 4.15072 -0.31957 0
M  V30 2603 H 263.554 3.50082 -1.88912 0
M  V30 2604 H 260.293 4.58643 -4.68323 0
M  V30 2605 H 259.813 5.15426 -3.06752 0
M  V30 2606 H 261.492 5.3587 -3.62563 0
M  V30 2607 N 261.624 0.925811 1.2754 0
M  V30 2608 C 262.534 0.428993 2.30644 0
M  V30 2609 C 263.55 -0.489387 1.66976 0
M  V30 2610 O 264.726 -0.372653 1.97922 0
M  V30 2611 C 261.791 -0.311967 3.45294 0
M  V30 2612 C 260.852 0.641098 4.24486 0
M  V30 2613 C 260.085 -0.0645955 5.33661 0
M  V30 2614 O 260.308 -1.28429 5.55754 0
M  V30 2615 O 259.242 0.606265 5.98839 0
M  V30 2616 H 263.068 1.28504 2.75173 0
M  V30 2617 H 260.653 0.691086 1.32455 0
M  V30 2618 H 262.535 -0.729972 4.15029 0
M  V30 2619 H 261.21 -1.14365 3.02824 0
M  V30 2620 H 260.117 1.10874 3.57292 0
M  V30 2621 H 261.45 1.43995 4.70666 0
M  V30 2622 N 263.102 -1.41638 0.69111 0
M  V30 2623 C 264.032 -2.3347 0.037248 0
M  V30 2624 C 265.013 -1.51575 -0.771947 0
M  V30 2625 O 266.198 -1.80126 -0.72582 0
M  V30 2626 C 263.328 -3.35354 -0.903064 0
M  V30 2627 C 262.282 -4.27526 -0.201288 0
M  V30 2628 C 261.608 -5.19747 -1.25565 0
M  V30 2629 C 262.908 -5.13959 0.929689 0
M  V30 2630 H 264.602 -2.88397 0.804227 0
M  V30 2631 H 262.148 -1.38669 0.388189 0
M  V30 2632 H 264.101 -3.98519 -1.36969 0
M  V30 2633 H 262.825 -2.78767 -1.70166 0
M  V30 2634 H 261.484 -3.65779 0.245265 0
M  V30 2635 H 261.132 -4.59479 -2.04666 0
M  V30 2636 H 260.832 -5.8225 -0.791128 0
M  V30 2637 H 262.356 -5.85789 -1.72288 0
M  V30 2638 H 263.77 -5.70718 0.543546 0
M  V30 2639 H 262.167 -5.85379 1.32103 0
M  V30 2640 H 263.237 -4.51389 1.77133 0
M  V30 2641 N 264.58 -0.43555 -1.51462 0
M  V30 2642 C 265.543 0.365137 -2.26273 0
M  V30 2643 C 266.543 0.951227 -1.29647 0
M  V30 2644 O 267.733 0.825958 -1.53374 0
M  V30 2645 C 264.865 1.51645 -3.05314 0
M  V30 2646 H 266.058 -0.290474 -2.9849 0
M  V30 2647 H 263.611 -0.188676 -1.55157 0
M  V30 2648 H 264.346 2.20816 -2.3751 0
M  V30 2649 H 264.131 1.10238 -3.76284 0
M  V30 2650 H 265.621 2.08218 -3.61987 0
M  V30 2651 N 266.058 1.56714 -0.166846 0
M  V30 2652 C 266.968 2.21331 0.777791 0
M  V30 2653 C 267.984 1.20358 1.25658 0
M  V30 2654 O 269.16 1.53005 1.30964 0
M  V30 2655 C 266.225 2.83787 1.99163 0
M  V30 2656 C 265.286 3.99947 1.56016 0
M  V30 2657 C 264.519 4.59415 2.71613 0
M  V30 2658 O 264.742 4.17769 3.88362 0
M  V30 2659 O 263.676 5.49359 2.45945 0
M  V30 2660 H 267.502 3.02605 0.257636 0
M  V30 2661 H 265.087 1.49275 0.0611393 0
M  V30 2662 H 266.969 3.23405 2.70161 0
M  V30 2663 H 265.644 2.05513 2.50092 0
M  V30 2664 H 264.551 3.65007 0.819809 0
M  V30 2665 H 265.884 4.79801 1.09782 0
M  V30 2666 N 267.536 -0.106894 1.57237 0
M  V30 2667 C 268.499 -1.11466 2.0027 0
M  V30 2668 C 269.499 -1.33623 0.894519 0
M  V30 2669 O 270.689 -1.29935 1.16028 0
M  V30 2670 C 267.821 -2.46646 2.35327 0
M  V30 2671 H 269.014 -0.744516 2.90512 0
M  V30 2672 H 266.567 -0.351576 1.52295 0
M  V30 2673 H 267.302 -2.88558 1.48003 0
M  V30 2674 H 267.087 -2.31915 3.16161 0
M  V30 2675 H 268.577 -3.19151 2.69318 0
M  V30 2676 N 269.014 -1.53014 -0.377408 0
M  V30 2677 C 269.961 -1.78616 -1.46168 0
M  V30 2678 C 270.931 -0.629917 -1.53692 0
M  V30 2679 O 272.116 -0.870861 -1.69766 0
M  V30 2680 C 269.256 -1.97123 -2.8326 0
M  V30 2681 C 268.369 -3.24831 -2.84796 0
M  V30 2682 C 267.504 -3.33591 -4.13389 0
M  V30 2683 C 266.543 -4.55377 -4.09021 0
M  V30 2684 N 265.68 -4.61355 -5.29241 0
M  V30 2685 H 270.52 -2.71142 -1.23637 0
M  V30 2686 H 268.057 -1.34326 -0.599577 0
M  V30 2687 H 270.015 -2.05839 -3.62886 0
M  V30 2688 H 268.645 -1.07946 -3.04216 0
M  V30 2689 H 267.697 -3.25128 -1.97474 0
M  V30 2690 H 269.009 -4.14523 -2.77439 0
M  V30 2691 H 268.163 -3.41554 -5.01424 0
M  V30 2692 H 266.902 -2.41894 -4.23484 0
M  V30 2693 H 265.907 -4.47527 -3.19373 0
M  V30 2694 H 267.132 -5.48402 -4.00539 0
M  V30 2695 H 265.078 -3.72554 -5.39944 0
M  V30 2696 H 264.995 -5.44935 -5.24006 0
M  V30 2697 H 266.263 -4.73586 -6.19141 0
M  V30 2698 N 270.492 0.636531 -1.44174 0
M  V30 2699 C 271.738 1.39826 -1.4689 0
M  V30 2700 C 272.071 1.93947 -0.0990585 0
M  V30 2701 O 271.346 1.73325 0.882544 0
M  V30 2702 C 271.629 2.56751 -2.5249 0
M  V30 2703 C 271.482 2.08014 -3.98811 0
M  V30 2704 C 272.801 3.58946 -2.54649 0
M  V30 2705 H 269.92 0.507075 -0.53483 0
M  V30 2706 H 272.562 0.720188 -1.75822 0
M  V30 2707 H 270.712 3.14597 -2.2795 0
M  V30 2708 H 272.384 1.5504 -4.34466 0
M  V30 2709 H 270.627 1.39242 -4.10846 0
M  V30 2710 H 271.298 2.92169 -4.68339 0
M  V30 2711 H 273.774 3.1089 -2.76563 0
M  V30 2712 H 272.65 4.38286 -3.3045 0
M  V30 2713 H 272.911 4.12655 -1.58646 0
M  V30 2714 N 271.97 1.30982 0.876444 0
M  V30 2715 C 272.9 1.20668 1.99903 0
M  V30 2716 C 273.881 0.095354 1.69833 0
M  V30 2717 O 275.066 0.27885 1.92188 0
M  V30 2718 C 272.196 0.90655 3.3526 0
M  V30 2719 C 271.15 1.97675 3.79617 0
M  V30 2720 C 270.476 1.52943 5.1236 0
M  V30 2721 C 271.776 3.389 3.97422 0
M  V30 2722 H 273.47 2.14586 2.0879 0
M  V30 2723 H 271.016 1.03308 1.00317 0
M  V30 2724 H 272.969 0.821025 4.13324 0
M  V30 2725 H 271.693 -0.0682969 3.26529 0
M  V30 2726 H 270.352 2.05205 3.03787 0
M  V30 2727 H 270 0.54262 5.00065 0
M  V30 2728 H 269.7 2.24532 5.43009 0
M  V30 2729 H 271.224 1.45786 5.92941 0
M  V30 2730 H 272.638 3.34081 4.659 0
M  V30 2731 H 271.035 4.0865 4.3946 0
M  V30 2732 H 272.105 3.80163 3.01006 0
M  V30 2733 N 273.449 -1.08991 1.13837 0
M  V30 2734 C 274.412 -2.13925 0.822715 0
M  V30 2735 C 275.412 -1.599 -0.1699 0
M  V30 2736 O 276.602 -1.74104 0.0577251 0
M  V30 2737 C 273.734 -3.40155 0.225318 0
M  V30 2738 H 274.927 -2.43358 1.75262 0
M  V30 2739 H 272.48 -1.24603 0.943594 0
M  V30 2740 H 273.215 -3.16352 -0.713594 0
M  V30 2741 H 273 -3.80661 0.940193 0
M  V30 2742 H 274.49 -4.17594 0.0214784 0
M  V30 2743 N 274.927 -0.932562 -1.27047 0
M  V30 2744 C 275.875 -0.42603 -2.28665 0
M  V30 2745 C 276.869 0.49219 -1.62092 0
M  V30 2746 O 278.075 0.371355 -1.76128 0
M  V30 2747 H 274.45 -0.119213 -0.742491 0
M  V30 2748 H 276.421 -1.29579 -2.68797 0
M  V30 2749 C 275.17 0.301426 -3.46391 0
M  V30 2750 H 274.493 -0.39595 -3.97834 0
M  V30 2751 H 275.933 0.6202 -4.1944 0
M  V30 2752 C 274.392 1.51616 -3.00856 0
M  V30 2753 O 274.922 2.61476 -3.04948 0
M  V30 2754 N 273.128 1.36969 -2.56296 0
M  V30 2755 H 272.675 0.475873 -2.53166 0
M  V30 2756 H 272.633 2.18368 -2.26192 0
M  V30 2757 N 276.405 1.4127 -0.698611 0
M  V30 2758 C 277.821 1.55241 -0.370462 0
M  V30 2759 C 278.021 1.67351 1.12231 0
M  V30 2760 O 277.077 1.65363 1.90818 0
M  V30 2761 C 278.39 2.78997 -1.12165 0
M  V30 2762 C 279.938 2.92797 -1.1063 0
M  V30 2763 C 280.413 4.19445 -1.8393 0
M  V30 2764 N 281.904 4.26409 -1.80914 0
M  V30 2765 C 282.639 5.23271 -2.34467 0
M  V30 2766 N 282.135 6.26145 -2.96504 0
M  V30 2767 N 283.928 5.15232 -2.24706 0
M  V30 2768 H 276.079 1.31654 -1.66676 0
M  V30 2769 H 278.342 0.635393 -0.703548 0
M  V30 2770 H 278.048 2.76268 -2.17644 0
M  V30 2771 H 277.922 3.70606 -0.702209 0
M  V30 2772 H 280.309 2.95039 -0.0597713 0
M  V30 2773 H 280.39 2.02353 -1.56483 0
M  V30 2774 H 280.034 4.17964 -2.88563 0
M  V30 2775 H 279.964 5.08866 -1.35509 0
M  V30 2776 H 282.455 3.527 -1.35687 0
M  V30 2777 H 282.768 6.96451 -3.34927 0
M  V30 2778 H 281.113 6.26638 -3.00583 0
M  V30 2779 H 284.304 4.33789 -1.7591 0
M  V30 2780 H 284.477 5.90552 -2.66745 0
M  V30 2781 N 277.883 0.443576 1.51229 0
M  V30 2782 C 278.793 -0.370721 2.31652 0
M  V30 2783 C 279.809 -1.02186 1.40833 0
M  V30 2784 O 280.985 -1.01586 1.73903 0
M  V30 2785 C 278.05 -1.45376 3.14749 0
M  V30 2786 C 277.111 -0.822099 4.21355 0
M  V30 2787 C 276.344 -1.85353 5.0048 0
M  V30 2788 O 276.567 -3.07656 4.80316 0
M  V30 2789 O 275.501 -1.4406 5.84406 0
M  V30 2790 H 279.327 0.286002 3.0235 0
M  V30 2791 H 276.912 0.20598 1.47973 0
M  V30 2792 H 278.794 -2.08173 3.66391 0
M  V30 2793 H 277.469 -2.09445 2.46809 0
M  V30 2794 H 276.376 -0.155909 3.73775 0
M  V30 2795 H 277.709 -0.224797 4.91686 0
M  V30 2796 N 279.361 -1.56624 0.175154 0
M  V30 2797 C 280.291 -2.21155 -0.749195 0
M  V30 2798 C 281.272 -1.16836 -1.23626 0
M  V30 2799 O 282.457 -1.45277 -1.28873 0
M  V30 2800 C 279.587 -2.8553 -1.97711 0
M  V30 2801 C 278.541 -3.95921 -1.62575 0
M  V30 2802 C 277.867 -4.47365 -2.92864 0
M  V30 2803 C 279.167 -5.15323 -0.850838 0
M  V30 2804 H 280.861 -2.98653 -0.211295 0
M  V30 2805 H 278.407 -1.43651 -0.100188 0
M  V30 2806 H 280.36 -3.2935 -2.62881 0
M  V30 2807 H 279.084 -2.05406 -2.53921 0
M  V30 2808 H 277.743 -3.52762 -0.997719 0
M  V30 2809 H 277.391 -3.64027 -3.47122 0
M  V30 2810 H 277.091 -5.21839 -2.70106 0
M  V30 2811 H 278.615 -4.93873 -3.59056 0
M  V30 2812 H 280.029 -5.55812 -1.40521 0
M  V30 2813 H 278.426 -5.95739 -0.722154 0
M  V30 2814 H 279.496 -4.84661 0.152082 0
M  V30 2815 N 280.839 0.0985539 -1.57292 0
M  V30 2816 C 282.116 0.834155 -1.76921 0
M  V30 2817 C 282.496 1.97101 -0.755928 0
M  V30 2818 O 281.844 2.27474 0.216245 0
M  V30 2819 C 282.054 1.33194 -3.22584 0
M  V30 2820 C 283.402 1.77611 -3.85668 0
M  V30 2821 O 284.426 1.42825 -3.26312 0
M  V30 2822 O 283.285 2.4192 -4.90038 0
M  V30 2823 H 280.379 0.397628 -0.725135 0
M  V30 2824 H 282.925 0.0807044 -1.69508 0
M  V30 2825 H 281.697 0.517248 -3.87866 0
M  V30 2826 H 281.32 2.1475 -3.34616 0
M  V30 2827 N 282.317 1.53212 0.369288 0
M  V30 2828 C 283.264 1.79388 1.45219 0
M  V30 2829 C 284.234 0.638059 1.53356 0
M  V30 2830 O 285.419 0.879852 1.69302 0
M  V30 2831 C 282.559 1.98623 2.82211 0
M  V30 2832 C 281.672 3.26337 2.8307 0
M  V30 2833 C 280.807 3.35779 4.11614 0
M  V30 2834 C 279.846 4.5754 4.06601 0
M  V30 2835 N 278.983 4.64155 5.26787 0
M  V30 2836 H 283.823 2.71794 1.22198 0
M  V30 2837 H 281.36 1.34642 0.592444 0
M  V30 2838 H 283.318 2.07761 3.61789 0
M  V30 2839 H 281.948 1.09558 3.03639 0
M  V30 2840 H 281 3.26171 1.95747 0
M  V30 2841 H 282.312 4.15988 2.75237 0
M  V30 2842 H 281.466 3.44208 4.99606 0
M  V30 2843 H 280.205 2.44137 4.22195 0
M  V30 2844 H 279.21 4.49215 3.16996 0
M  V30 2845 H 280.435 5.50519 3.97625 0
M  V30 2846 H 278.381 3.75413 5.3796 0
M  V30 2847 H 278.298 5.47706 5.21109 0
M  V30 2848 H 279.566 4.76863 6.16621 0
M  V30 2849 N 283.795 -0.628877 1.44509 0
M  V30 2850 C 285.025 -1.41349 1.50678 0
M  V30 2851 C 285.433 -1.88745 0.131075 0
M  V30 2852 O 284.776 -1.61592 -0.87371 0
M  V30 2853 C 284.838 -2.66608 2.41165 0
M  V30 2854 C 284.502 -2.40993 3.88293 0
M  V30 2855 C 285.499 -2.0268 4.78766 0
M  V30 2856 C 283.184 -2.54563 4.33016 0
M  V30 2857 C 285.178 -1.78269 6.11963 0
M  V30 2858 C 282.865 -2.29766 5.6626 0
M  V30 2859 C 283.863 -1.91678 6.55552 0
M  V30 2860 O 283.551 -1.67158 7.86329 0
M  V30 2861 H 283.283 -0.439851 0.51333 0
M  V30 2862 H 285.837 -0.776084 1.90174 0
M  V30 2863 H 284.067 -3.32994 1.96601 0
M  V30 2864 H 285.756 -3.28615 2.38259 0
M  V30 2865 H 286.522 -1.91751 4.45485 0
M  V30 2866 H 282.401 -2.83179 3.63773 0
M  V30 2867 H 285.945 -1.48465 6.81619 0
M  V30 2868 H 281.842 -2.40306 5.99102 0
M  V30 2869 H 282.61 -1.81386 7.98149 0
M  V30 2870 N 285.273 -1.31445 -0.869486 0
M  V30 2871 C 286.521 -1.20918 -1.61936 0
M  V30 2872 C 286.842 0.232683 -1.93607 0
M  V30 2873 O 286.112 1.15352 -1.58338 0
M  V30 2874 H 284.692 -0.44454 -0.600328 0
M  V30 2875 H 287.354 -1.64776 -1.0409 0
M  V30 2876 H 286.45 -1.78124 -2.56278 0
M  V30 2877 N 286.751 1.08385 -1.14413 0
M  V30 2878 C 287.997 1.81044 -0.913834 0
M  V30 2879 C 288.33 1.86004 0.558209 0
M  V30 2880 O 287.605 1.33606 1.4135 0
M  V30 2881 C 287.888 3.26648 -1.51569 0
M  V30 2882 C 287.741 3.29895 -3.0576 0
M  V30 2883 C 289.06 4.23629 -1.19273 0
M  V30 2884 H 286.179 0.65727 -0.333414 0
M  V30 2885 H 288.821 1.26896 -1.41412 0
M  V30 2886 H 286.971 3.72889 -1.09023 0
M  V30 2887 H 288.643 2.91977 -3.57137 0
M  V30 2888 H 286.886 2.69163 -3.40197 0
M  V30 2889 H 287.557 4.32516 -3.42977 0
M  V30 2890 H 290.033 3.85727 -1.56057 0
M  V30 2891 H 288.909 5.23822 -1.64017 0
M  V30 2892 H 289.17 4.41968 -0.108068 0
M  V30 2893 N 288.23 0.939286 1.26551 0
M  V30 2894 C 289.455 0.602008 1.98471 0
M  V30 2895 C 289.88 -0.815624 1.69497 0
M  V30 2896 O 289.238 -1.54912 0.941905 0
M  V30 2897 C 289.286 0.848407 3.50477 0
M  V30 2898 O 288.39 -0.0804009 4.12322 0
M  V30 2899 H 287.731 0.23049 0.622712 0
M  V30 2900 H 290.261 1.2617 1.61066 0
M  V30 2901 H 290.271 0.768553 4.00696 0
M  V30 2902 H 288.946 1.88171 3.70897 0
M  V30 2903 H 287.523 0.0503508 3.72866 0
M  V30 2904 N 289.708 -1.40897 0.706093 0
M  V30 2905 C 290.985 -1.94868 0.169099 0
M  V30 2906 C 291.365 -1.64485 -1.32318 0
M  V30 2907 O 290.713 -0.95744 -2.07474 0
M  V30 2908 C 290.923 -3.45798 0.471654 0
M  V30 2909 C 292.271 -4.22663 0.405127 0
M  V30 2910 O 293.295 -3.53865 0.407168 0
M  V30 2911 O 292.154 -5.45216 0.374383 0
M  V30 2912 H 289.248 -0.82673 0.0211352 0
M  V30 2913 H 291.794 -1.50558 0.782976 0
M  V30 2914 H 290.566 -3.61235 1.50416 0
M  V30 2915 H 290.189 -3.97225 -0.172666 0
M  V30 2916 N 291.186 -0.45159 -1.50991 0
M  V30 2917 C 292.416 0.108177 -2.06317 0
M  V30 2918 C 292.824 1.35774 -1.31765 0
M  V30 2919 O 292.167 1.79838 -0.374694 0
M  V30 2920 C 292.229 0.481659 -3.56259 0
M  V30 2921 C 291.893 -0.663114 -4.52163 0
M  V30 2922 C 292.89 -1.53947 -4.96585 0
M  V30 2923 C 290.575 -0.8479 -4.95092 0
M  V30 2924 C 292.569 -2.58518 -5.82621 0
M  V30 2925 C 290.256 -1.89686 -5.80915 0
M  V30 2926 C 291.254 -2.76388 -6.24579 0
M  V30 2927 O 290.942 -3.79482 -7.08695 0
M  V30 2928 H 290.674 0.00499183 -0.675982 0
M  V30 2929 H 293.228 -0.633659 -1.95381 0
M  V30 2930 H 291.458 1.27641 -3.65027 0
M  V30 2931 H 293.147 0.974233 -3.94035 0
M  V30 2932 H 293.913 -1.4083 -4.64103 0
M  V30 2933 H 289.792 -0.18258 -4.60638 0
M  V30 2934 H 293.336 -3.26224 -6.16623 0
M  V30 2935 H 289.233 -2.02817 -6.12809 0
M  V30 2936 H 290.001 -3.76234 -7.26905 0
M  V30 2937 N 292.664 1.56529 -0.183458 0
M  V30 2938 C 293.614 2.1515 0.754605 0
M  V30 2939 C 294.598 1.08904 1.18443 0
M  V30 2940 O 295.79 1.34997 1.14476 0
M  V30 2941 C 292.919 2.80531 1.97881 0
M  V30 2942 C 292.005 3.93952 1.57043 0
M  V30 2943 N 292.396 4.98221 0.87231 0
M  V30 2944 C 290.694 4.05338 1.86057 0
M  V30 2945 C 291.395 5.77836 0.669377 0
M  V30 2946 N 290.371 5.29858 1.21454 0
M  V30 2947 H 294.173 2.93132 0.212387 0
M  V30 2948 H 291.687 1.62391 0.0167725 0
M  V30 2949 H 293.684 3.20914 2.6612 0
M  V30 2950 H 292.344 2.04035 2.52586 0
M  V30 2951 H 293.355 5.15191 0.529033 0
M  V30 2952 H 290.032 3.39957 2.42354 0
M  V30 2953 H 291.422 6.71799 0.116422 0
M  V30 2954 N 294.142 -0.090211 1.57342 0
M  V30 2955 C 295.089 -1.10909 2.02405 0
M  V30 2956 C 296.059 -1.39523 0.901252 0
M  V30 2957 O 297.244 -1.50903 1.1676 0
M  V30 2958 C 294.384 -2.42277 2.45755 0
M  V30 2959 C 293.497 -2.20352 3.71576 0
M  V30 2960 C 292.632 -3.45154 4.03785 0
M  V30 2961 C 291.671 -3.18512 5.22701 0
M  V30 2962 N 290.808 -4.35593 5.50639 0
M  V30 2963 H 295.648 -0.71782 2.89225 0
M  V30 2964 H 293.185 -0.342901 1.43048 0
M  V30 2965 H 295.143 -3.18951 2.68935 0
M  V30 2966 H 293.773 -2.79242 1.61938 0
M  V30 2967 H 292.825 -1.34458 3.55844 0
M  V30 2968 H 294.137 -1.96661 4.58395 0
M  V30 2969 H 293.291 -4.30233 4.27767 0
M  V30 2970 H 292.03 -3.71904 3.15498 0
M  V30 2971 H 291.035 -2.31827 4.98534 0
M  V30 2972 H 292.26 -2.93103 6.12591 0
M  V30 2973 H 290.206 -4.6241 4.6531 0
M  V30 2974 H 290.123 -4.1511 6.31838 0
M  V30 2975 H 291.391 -5.21723 5.7916 0
M  V30 2976 N 295.62 -1.53406 -0.361157 0
M  V30 2977 C 296.568 -1.80832 -1.46296 0
M  V30 2978 C 297.562 -0.677699 -1.55253 0
M  V30 2979 O 298.768 -0.860723 -1.58087 0
M  V30 2980 H 295.143 -0.572627 -0.487445 0
M  V30 2981 H 297.114 -2.73045 -1.20371 0
M  V30 2982 C 295.863 -2.01907 -2.8307 0
M  V30 2983 H 295.186 -2.88349 -2.76938 0
M  V30 2984 H 296.626 -2.25072 -3.59331 0
M  V30 2985 C 295.085 -0.799449 -3.27277 0
M  V30 2986 O 295.615 0.00971761 -4.01699 0
M  V30 2987 N 293.821 -0.621637 -2.83873 0
M  V30 2988 H 293.368 -1.28126 -2.23476 0
M  V30 2989 H 293.326 0.19298 -3.13807 0
M  V30 2990 N 297.098 0.621204 -1.44841 0
M  V30 2991 C 298.028 1.74366 -1.55303 0
M  V30 2992 C 299.009 1.65199 -0.405385 0
M  V30 2993 O 300.194 1.83807 -0.626787 0
M  V30 2994 C 297.324 3.12931 -1.50637 0
M  V30 2995 C 296.278 3.36896 -2.63979 0
M  V30 2996 C 295.604 4.75594 -2.44366 0
M  V30 2997 C 296.904 3.28483 -4.06074 0
M  V30 2998 H 298.598 1.65867 -2.49256 0
M  V30 2999 H 296.144 0.796558 -1.19962 0
M  V30 3000 H 298.097 3.9124 -1.56555 0
M  V30 3001 H 296.821 3.22237 -0.532057 0
M  V30 3002 H 295.48 2.60972 -2.57467 0
M  V30 3003 H 295.128 4.81616 -1.45105 0
M  V30 3004 H 294.828 4.92586 -3.20364 0
M  V30 3005 H 296.352 5.5612 -2.52117 0
M  V30 3006 H 297.766 3.96684 -4.13902 0
M  V30 3007 H 296.163 3.57008 -4.82354 0
M  V30 3008 H 297.233 2.26133 -4.28943 0
M  V30 3009 N 298.576 1.31904 0.862503 0
M  V30 3010 C 299.825 1.21373 1.61094 0
M  V30 3011 C 300.138 -0.22504 1.94301 0
M  V30 3012 O 301.344 -0.452121 2.67709 0
M  V30 3013 C 299.8 2.12525 2.9045 0
M  V30 3014 C 299.408 3.61441 2.64697 0
M  V30 3015 C 301.152 2.10813 3.68454 0
M  V30 3016 C 299.059 4.44578 3.90006 0
M  V30 3017 H 297.989 0.450705 0.604468 0
M  V30 3018 H 300.64 1.56811 0.953027 0
M  V30 3019 H 299.022 1.69994 3.57656 0
M  V30 3020 H 300.196 4.12264 2.05851 0
M  V30 3021 H 298.511 3.65205 2.00036 0
M  V30 3022 H 301.108 2.70167 4.61426 0
M  V30 3023 H 301.451 1.09713 4.01583 0
M  V30 3024 H 301.984 2.51583 3.08141 0
M  V30 3025 H 298.723 5.46461 3.62023 0
M  V30 3026 H 298.243 3.98508 4.48276 0
M  V30 3027 H 299.922 4.57176 4.5782 0
M  V30 3028 N 300.054 -1.07777 1.14986 0
M  V30 3029 C 301.002 -2.16964 0.838406 0
M  V30 3030 C 301.996 -1.68372 -0.186386 0
M  V30 3031 O 303.202 -1.79951 -0.0418465 0
M  V30 3032 H 299.577 -0.708006 0.253439 0
M  V30 3033 H 301.548 -2.40454 1.76704 0
M  V30 3034 C 300.297 -3.4604 0.339335 0
M  V30 3035 H 299.62 -3.83813 1.11927 0
M  V30 3036 H 301.06 -4.23698 0.160021 0
M  V30 3037 C 299.519 -3.23569 -0.938325 0
M  V30 3038 O 300.049 -3.47752 -2.01077 0
M  V30 3039 N 298.255 -2.77079 -0.876117 0
M  V30 3040 H 297.802 -2.576 -0.00322037 0
M  V30 3041 H 297.76 -2.62422 -1.73153 0
M  V30 3042 N 301.532 -0.945985 -1.26051 0
M  V30 3043 C 302.48 -0.450259 -2.282 0
M  V30 3044 C 303.474 0.47497 -1.62605 0
M  V30 3045 O 304.68 0.352653 -1.76512 0
M  V30 3046 H 301.055 -0.127081 -0.741184 0
M  V30 3047 H 303.026 -1.32422 -2.67408 0
M  V30 3048 C 301.775 0.26467 -3.46691 0
M  V30 3049 H 301.098 -0.438123 -3.97392 0
M  V30 3050 H 302.538 0.575678 -4.20074 0
M  V30 3051 C 300.997 1.48416 -3.02447 0
M  V30 3052 O 301.527 2.58227 -3.07704 0
M  V30 3053 N 299.733 1.34243 -2.57735 0
M  V30 3054 H 299.28 0.448994 -2.53657 0
M  V30 3055 H 299.238 2.15957 -2.28495 0
M  V30 3056 N 303.011 1.40521 -0.713556 0
M  V30 3057 C 303.974 2.29098 -0.0684347 0
M  V30 3058 C 304.974 1.45268 0.689472 0
M  V30 3059 O 306.164 1.66205 0.521677 0
M  V30 3060 C 303.296 3.28446 0.913024 0
M  V30 3061 H 304.489 2.87645 -0.84855 0
M  V30 3062 H 302.042 1.48809 -0.47809 0
M  V30 3063 H 302.777 2.74913 1.72027 0
M  V30 3064 H 302.562 3.90327 0.372472 0
M  V30 3065 H 304.052 3.94777 1.36165 0
M  V30 3066 N 304.489 0.459591 1.5075 0
M  V30 3067 C 305.436 -0.340524 2.28274 0
M  V30 3068 C 306.406 -0.997371 1.32822 0
M  V30 3069 O 307.591 -1.01202 1.61749 0
M  V30 3070 C 304.731 -1.42317 3.14388 0
M  V30 3071 C 303.844 -0.782251 4.24859 0
M  V30 3072 C 302.979 -1.84182 4.98247 0
M  V30 3073 C 302.018 -1.18053 6.00608 0
M  V30 3074 N 301.155 -2.18244 6.67319 0
M  V30 3075 H 305.995 0.326899 2.96202 0
M  V30 3076 H 303.532 0.173057 1.46078 0
M  V30 3077 H 305.49 -2.06241 3.62658 0
M  V30 3078 H 304.12 -2.05992 2.4853 0
M  V30 3079 H 303.172 -0.0307404 3.80388 0
M  V30 3080 H 304.484 -0.259663 4.98124 0
M  V30 3081 H 303.638 -2.55714 5.50177 0
M  V30 3082 H 302.377 -2.39819 4.24662 0
M  V30 3083 H 301.382 -0.450776 5.47949 0
M  V30 3084 H 302.607 -0.631202 6.7616 0
M  V30 3085 H 300.553 -2.72919 5.96533 0
M  V30 3086 H 300.47 -1.70938 7.36421 0
M  V30 3087 H 301.738 -2.89191 7.23871 0
M  V30 3088 N 305.967 -1.56429 0.191757 0
M  V30 3089 C 307.195 -2.01867 -0.453586 0
M  V30 3090 C 307.61 -1.07191 -1.5542 0
M  V30 3091 O 306.967 -0.0762108 -1.82341 0
M  V30 3092 C 307.018 -3.47017 -1.013 0
M  V30 3093 O 306.739 -4.38078 0.0437005 0
M  V30 3094 C 308.24 -4.07956 -1.73456 0
M  V30 3095 H 305.46 -0.661211 -0.114199 0
M  V30 3096 H 308.004 -2.02295 0.299483 0
M  V30 3097 H 306.159 -3.47298 -1.71647 0
M  V30 3098 H 306.573 -5.23178 -0.372212 0
M  V30 3099 H 308.047 -5.1138 -2.07833 0
M  V30 3100 H 308.524 -3.51222 -2.63704 0
M  V30 3101 H 309.13 -4.11437 -1.07702 0
M  V30 3102 N 307.445 0.0818655 -1.57387 0
M  V30 3103 C 308.691 0.784074 -1.8703 0
M  V30 3104 C 309.024 1.77729 -0.782689 0
M  V30 3105 O 308.299 1.93384 0.208051 0
M  V30 3106 C 308.582 1.50105 -3.27323 0
M  V30 3107 C 308.435 0.524925 -4.46727 0
M  V30 3108 C 309.754 2.44843 -3.65705 0
M  V30 3109 H 306.873 0.283582 -0.680257 0
M  V30 3110 H 309.515 0.0474352 -1.89941 0
M  V30 3111 H 307.665 2.12897 -3.24972 0
M  V30 3112 H 309.337 -0.0970111 -4.61198 0
M  V30 3113 H 307.58 -0.160606 -4.33503 0
M  V30 3114 H 308.251 1.064 -5.41648 0
M  V30 3115 H 310.727 1.92135 -3.69085 0
M  V30 3116 H 309.603 2.92018 -4.64776 0
M  V30 3117 H 309.864 3.29197 -2.95096 0
M  V30 3118 N 308.923 1.53595 0.353017 0
M  V30 3119 C 309.833 1.83897 1.45667 0
M  V30 3120 C 310.849 0.728334 1.58023 0
M  V30 3121 O 312.025 1.01968 1.73679 0
M  V30 3122 C 309.09 2.03383 2.80778 0
M  V30 3123 C 308.151 3.27262 2.77845 0
M  V30 3124 C 307.384 3.45809 4.06512 0
M  V30 3125 O 307.607 2.68387 5.03314 0
M  V30 3126 O 306.541 4.39207 4.11559 0
M  V30 3127 H 310.367 2.77686 1.2298 0
M  V30 3128 H 307.952 1.39132 0.544308 0
M  V30 3129 H 309.834 2.17698 3.60812 0
M  V30 3130 H 308.509 1.12783 3.03417 0
M  V30 3131 H 307.416 3.18359 1.96465 0
M  V30 3132 H 308.749 4.17824 2.60161 0
M  V30 3133 N 310.401 -0.613514 1.45168 0
M  V30 3134 C 311.649 -1.36997 1.48581 0
M  V30 3135 C 311.97 -1.94589 0.126545 0
M  V30 3136 O 311.24 -1.76816 -0.843372 0
M  V30 3137 H 309.82 -0.508558 0.547154 0
M  V30 3138 H 312.482 -0.720853 1.81079 0
M  V30 3139 H 311.578 -2.1924 2.22127 0
M  V30 3140 N 311.879 -1.3236 -0.855495 0
M  V30 3141 C 313.125 -1.23054 -1.612 0
M  V30 3142 C 313.458 0.207404 -1.93089 0
M  V30 3143 O 312.733 1.14432 -1.57275 0
M  V30 3144 C 313.016 -2.08937 -2.93287 0
M  V30 3145 C 312.869 -3.61105 -2.68185 0
M  V30 3146 C 314.188 -1.94986 -3.94549 0
M  V30 3147 H 311.307 -0.448364 -0.584926 0
M  V30 3148 H 313.949 -1.62297 -0.987917 0
M  V30 3149 H 312.099 -1.75599 -3.46551 0
M  V30 3150 H 313.771 -4.04652 -2.21483 0
M  V30 3151 H 312.014 -3.83813 -2.02164 0
M  V30 3152 H 312.685 -4.16522 -3.62234 0
M  V30 3153 H 315.161 -2.24189 -3.5054 0
M  V30 3154 H 314.037 -2.57356 -4.84829 0
M  V30 3155 H 314.298 -0.917263 -4.3248 0
M  V30 3156 N 313.357 1.07166 -1.15556 0
M  V30 3157 C 314.304 2.14417 -0.854055 0
M  V30 3158 C 315.274 1.64965 0.193806 0
M  V30 3159 O 316.459 1.90703 0.0609443 0
M  V30 3160 C 313.599 3.43304 -0.351574 0
M  V30 3161 C 312.712 4.06537 -1.46123 0
M  V30 3162 C 311.847 5.23266 -0.914677 0
M  V30 3163 C 310.886 5.78464 -2.00114 0
M  V30 3164 N 310.023 6.86521 -1.47083 0
M  V30 3165 H 314.863 2.39548 -1.77259 0
M  V30 3166 H 312.4 1.17543 -0.884425 0
M  V30 3167 H 314.358 4.17179 -0.0419409 0
M  V30 3168 H 312.988 3.18419 0.530037 0
M  V30 3169 H 312.04 3.30297 -1.88701 0
M  V30 3170 H 313.352 4.43567 -2.28144 0
M  V30 3171 H 312.506 6.04131 -0.557698 0
M  V30 3172 H 311.245 4.87658 -0.0636583 0
M  V30 3173 H 310.25 4.96243 -2.36692 0
M  V30 3174 H 311.475 6.16126 -2.85597 0
M  V30 3175 H 309.421 6.52849 -0.642198 0
M  V30 3176 H 309.338 7.22446 -2.22729 0
M  V30 3177 H 310.606 7.71087 -1.14215 0
M  V30 3178 N 314.835 0.952656 1.25548 0
M  V30 3179 C 316.112 0.523818 1.88456 0
M  V30 3180 C 316.492 -0.998871 1.85973 0
M  V30 3181 O 315.84 -1.86381 1.3219 0
M  V30 3182 C 316.05 1.0982 3.31271 0
M  V30 3183 C 317.398 1.17385 4.08051 0
M  V30 3184 O 318.422 1.04961 3.40384 0
M  V30 3185 O 317.281 1.36852 5.29088 0
M  V30 3186 H 314.375 0.172485 0.808813 0
M  V30 3187 H 316.921 1.04596 1.33633 0
M  V30 3188 H 315.693 2.1415 3.27499 0
M  V30 3189 H 315.316 0.559191 3.93648 0
M  V30 3190 N 316.313 -1.40141 0.720998 0
M  V30 3191 C 317.243 -2.33339 0.0867621 0
M  V30 3192 C 318.224 -1.53178 -0.739622 0
M  V30 3193 O 319.409 -1.81625 -0.687449 0
M  V30 3194 C 316.539 -3.37194 -0.831728 0
M  V30 3195 C 315.493 -4.27857 -0.110558 0
M  V30 3196 C 314.819 -5.22294 -1.14513 0
M  V30 3197 C 316.119 -5.11872 1.0385 0
M  V30 3198 H 317.813 -2.86626 0.865219 0
M  V30 3199 H 315.359 -1.37814 0.417516 0
M  V30 3200 H 317.312 -4.01335 -1.28485 0
M  V30 3201 H 316.036 -2.82314 -1.64214 0
M  V30 3202 H 314.695 -3.65176 0.322797 0
M  V30 3203 H 314.343 -4.63717 -1.94874 0
M  V30 3204 H 314.043 -5.83797 -0.667446 0
M  V30 3205 H 315.567 -5.89312 -1.59824 0
M  V30 3206 H 316.981 -5.69436 0.664482 0
M  V30 3207 H 315.378 -5.82445 1.4449 0
M  V30 3208 H 316.448 -4.4753 1.86668 0
M  V30 3209 N 317.792 -0.46758 -1.50504 0
M  V30 3210 C 318.724 0.364655 -2.26281 0
M  V30 3211 C 319.737 0.960151 -1.31472 0
M  V30 3212 O 320.926 0.849153 -1.57008 0
M  V30 3213 C 318.026 1.52509 -3.02645 0
M  V30 3214 C 317.199 1.04302 -4.24782 0
M  V30 3215 C 316.258 2.07709 -4.8347 0
M  V30 3216 O 315.284 1.65913 -5.44483 0
M  V30 3217 N 316.486 3.40485 -4.70159 0
M  V30 3218 H 319.251 -0.28495 -2.98342 0
M  V30 3219 H 316.812 -0.298163 -1.59131 0
M  V30 3220 H 318.804 2.21371 -3.38787 0
M  V30 3221 H 317.374 2.07945 -2.33404 0
M  V30 3222 H 316.594 0.180393 -3.93787 0
M  V30 3223 H 317.882 0.698798 -5.03978 0
M  V30 3224 H 317.28 3.77155 -4.21629 0
M  V30 3225 H 315.837 4.05156 -5.1058 0
M  V30 3226 N 319.27 1.56325 -0.20005 0
M  V30 3227 C 320.233 2.18084 0.705132 0
M  V30 3228 C 321.233 1.13666 1.1374 0
M  V30 3229 O 322.423 1.39023 1.04968 0
M  V30 3230 C 319.555 2.78689 1.96329 0
M  V30 3231 H 320.748 2.99435 0.167023 0
M  V30 3232 H 318.301 1.56221 0.0495725 0
M  V30 3233 H 319.036 2.0115 2.5438 0
M  V30 3234 H 318.821 3.55133 1.66202 0
M  V30 3235 H 320.311 3.26096 2.60866 0
M  V30 3236 N 320.748 -0.0735177 1.57428 0
M  V30 3237 C 321.68 -1.11423 2.00294 0
M  V30 3238 C 322.693 -1.35084 0.908637 0
M  V30 3239 O 323.882 -1.33355 1.18654 0
M  V30 3240 C 320.982 -2.46548 2.32523 0
M  V30 3241 C 320.155 -2.42867 3.63778 0
M  V30 3242 C 319.214 -3.60087 3.83697 0
M  V30 3243 O 318.24 -3.41595 4.55304 0
M  V30 3244 N 319.442 -4.80372 3.25919 0
M  V30 3245 H 322.207 -0.749206 2.90184 0
M  V30 3246 H 319.768 -0.262195 1.59763 0
M  V30 3247 H 321.76 -3.23607 2.43024 0
M  V30 3248 H 320.33 -2.75059 1.48531 0
M  V30 3249 H 319.55 -1.51206 3.64047 0
M  V30 3250 H 320.838 -2.37506 4.49965 0
M  V30 3251 H 320.236 -4.983 2.67795 0
M  V30 3252 H 318.793 -5.54948 3.41871 0
M  V30 3253 N 322.226 -1.5378 -0.344866 0
M  V30 3254 C 323.472 -1.71216 -1.08687 0
M  V30 3255 C 323.805 -0.473281 -1.88345 0
M  V30 3256 O 323.08 0.52968 -1.87149 0
M  V30 3257 C 323.363 -2.97486 -2.02914 0
M  V30 3258 C 323.216 -4.31579 -1.26727 0
M  V30 3259 C 324.535 -3.19422 -3.0275 0
M  V30 3260 H 321.654 -0.62301 -0.393735 0
M  V30 3261 H 324.296 -1.8645 -0.365563 0
M  V30 3262 H 322.446 -2.84629 -2.64421 0
M  V30 3263 H 324.118 -4.56284 -0.67845 0
M  V30 3264 H 322.361 -4.30049 -0.569273 0
M  V30 3265 H 323.032 -5.16106 -1.95803 0
M  V30 3266 H 325.508 -3.316 -2.51357 0
M  V30 3267 H 324.384 -4.09169 -3.65885 0
M  V30 3268 H 324.645 -2.35656 -3.74057 0
M  V30 3269 N 323.704 0.605807 -1.45491 0
M  V30 3270 C 324.95 1.36679 -1.49823 0
M  V30 3271 C 325.283 1.93693 -0.140175 0
M  V30 3272 O 324.558 1.75158 0.845581 0
M  V30 3273 C 324.841 2.51337 -2.57879 0
M  V30 3274 C 324.694 1.99508 -4.03134 0
M  V30 3275 C 326.013 3.53463 -2.62205 0
M  V30 3276 H 323.132 0.495617 -0.545466 0
M  V30 3277 H 325.774 0.682732 -1.7731 0
M  V30 3278 H 323.924 3.09691 -2.34571 0
M  V30 3279 H 325.596 1.45789 -4.37656 0
M  V30 3280 H 323.839 1.30496 -4.13707 0
M  V30 3281 H 324.51 2.82169 -4.74431 0
M  V30 3282 H 326.986 3.04953 -2.83095 0
M  V30 3283 H 325.862 4.31178 -3.39672 0
M  V30 3284 H 326.123 4.09197 -1.67363 0
M  V30 3285 N 325.182 1.32811 0.848464 0
M  V30 3286 C 326.092 1.24278 1.98978 0
M  V30 3287 C 327.108 0.155176 1.73307 0
M  V30 3288 O 328.284 0.376999 1.9784 0
M  V30 3289 C 325.349 0.972444 3.32783 0
M  V30 3290 C 324.41 2.14911 3.71634 0
M  V30 3291 C 323.643 1.89157 4.99054 0
M  V30 3292 O 323.866 0.837165 5.64223 0
M  V30 3293 O 322.8 2.75433 5.35183 0
M  V30 3294 H 326.626 2.20238 2.09115 0
M  V30 3295 H 324.211 1.12762 0.980052 0
M  V30 3296 H 326.093 0.838432 4.12975 0
M  V30 3297 H 324.768 0.043051 3.23671 0
M  V30 3298 H 323.675 2.33862 2.91992 0
M  V30 3299 H 325.008 3.06151 3.85399 0
M  V30 3300 N 326.66 -1.06551 1.16123 0
M  V30 3301 C 327.885 -1.83544 0.965735 0
M  V30 3302 C 328.31 -1.81843 -0.481102 0
M  V30 3303 O 327.668 -1.21732 -1.34354 0
M  V30 3304 C 327.716 -3.28169 1.49457 0
M  V30 3305 O 326.82 -4.0643 0.699157 0
M  V30 3306 H 326.161 -0.568026 0.343864 0
M  V30 3307 H 328.691 -1.34362 1.54299 0
M  V30 3308 H 328.701 -3.78992 1.51092 0
M  V30 3309 H 327.376 -3.28722 2.54784 0
M  V30 3310 H 325.953 -3.65216 0.7531 0
M  V30 3311 N 328.138 -0.959301 -1.25041 0
M  V30 3312 C 329.101 -0.487677 -2.23952 0
M  V30 3313 C 330.101 0.41119 -1.55454 0
M  V30 3314 O 331.291 0.207825 -1.72956 0
M  V30 3315 C 328.423 0.294807 -3.39623 0
M  V30 3316 H 329.616 -1.36198 -2.67189 0
M  V30 3317 H 327.169 -0.743042 -1.37508 0
M  V30 3318 H 327.904 1.18658 -3.01813 0
M  V30 3319 H 327.689 -0.35012 -3.90534 0
M  V30 3320 H 329.179 0.614089 -4.1306 0
M  V30 3321 N 329.616 1.39756 -0.72842 0
M  V30 3322 C 330.563 2.30647 -0.0841519 0
M  V30 3323 C 331.533 1.48869 0.7367 0
M  V30 3324 O 332.718 1.77574 0.698015 0
M  V30 3325 C 329.858 3.35165 0.822091 0
M  V30 3326 C 328.971 4.31999 -0.0106663 0
M  V30 3327 C 328.106 5.23585 0.896241 0
M  V30 3328 C 327.145 6.12072 0.0583381 0
M  V30 3329 N 326.282 6.96035 0.920818 0
M  V30 3330 H 331.122 2.85173 -0.864891 0
M  V30 3331 H 328.659 1.40422 -0.438179 0
M  V30 3332 H 330.617 3.94345 1.36189 0
M  V30 3333 H 329.247 2.8211 1.56888 0
M  V30 3334 H 328.299 3.74492 -0.66781 0
M  V30 3335 H 329.611 4.9443 -0.658825 0
M  V30 3336 H 328.765 5.87759 1.50412 0
M  V30 3337 H 327.504 4.61459 1.57819 0
M  V30 3338 H 326.509 5.46916 -0.562389 0
M  V30 3339 H 327.734 6.76261 -0.6203 0
M  V30 3340 H 325.68 6.36485 1.58818 0
M  V30 3341 H 325.597 7.55284 0.32899 0
M  V30 3342 H 326.865 7.64646 1.51447 0
M  V30 3343 N 331.094 0.475555 1.50254 0
M  V30 3344 C 332.041 -0.316293 2.28622 0
M  V30 3345 C 333.011 -0.983227 1.33873 0
M  V30 3346 O 334.196 -0.994805 1.62814 0
M  V30 3347 C 331.336 -1.38975 3.1588 0
M  V30 3348 C 330.449 -0.737146 4.25664 0
M  V30 3349 C 329.584 -1.78887 5.00173 0
M  V30 3350 C 328.623 -1.11676 6.01826 0
M  V30 3351 N 327.76 -2.11154 6.69596 0
M  V30 3352 H 332.6 0.358297 2.95838 0
M  V30 3353 H 330.137 0.188541 1.45887 0
M  V30 3354 H 332.095 -2.02383 3.64825 0
M  V30 3355 H 330.725 -2.03344 2.50701 0
M  V30 3356 H 329.777 0.0096065 3.80399 0
M  V30 3357 H 331.089 -0.206816 4.98371 0
M  V30 3358 H 330.243 -2.49865 5.52859 0
M  V30 3359 H 328.982 -2.35302 4.27182 0
M  V30 3360 H 327.987 -0.392633 5.48396 0
M  V30 3361 H 329.212 -0.55945 6.76792 0
M  V30 3362 H 327.158 -2.66577 5.99394 0
M  V30 3363 H 327.075 -1.63118 7.38193 0
M  V30 3364 H 328.343 -2.81497 7.26897 0
M  V30 3365 N 332.573 -1.56217 0.208337 0
M  V30 3366 C 333.536 -2.18455 -0.693557 0
M  V30 3367 C 334.536 -1.14268 -1.13135 0
M  V30 3368 O 335.726 -1.39577 -1.0423 0
M  V30 3369 C 332.858 -2.79727 -1.94848 0
M  V30 3370 H 334.051 -2.99519 -0.15114 0
M  V30 3371 H 331.604 -1.56245 -0.041287 0
M  V30 3372 H 332.339 -2.02497 -2.53309 0
M  V30 3373 H 332.124 -3.56009 -1.64316 0
M  V30 3374 H 333.614 -3.27475 -2.59133 0
M  V30 3375 N 334.051 0.0651679 -1.57465 0
M  V30 3376 C 335.467 0.420105 -1.53972 0
M  V30 3377 C 335.667 1.78782 -0.929474 0
M  V30 3378 O 334.723 2.46771 -0.534839 0
M  V30 3379 C 336.036 0.355084 -2.98596 0
M  V30 3380 C 337.584 0.434792 -3.09965 0
M  V30 3381 C 338.059 0.399609 -4.56253 0
M  V30 3382 N 339.55 0.459488 -4.60915 0
M  V30 3383 C 340.285 0.454584 -5.71595 0
M  V30 3384 N 339.781 0.404102 -6.9162 0
M  V30 3385 N 341.574 0.501635 -5.59857 0
M  V30 3386 H 333.725 -0.830328 -1.95498 0
M  V30 3387 H 335.988 -0.312244 -0.895102 0
M  V30 3388 H 335.694 -0.583357 -3.46828 0
M  V30 3389 H 335.568 1.16275 -3.58831 0
M  V30 3390 H 337.955 1.36366 -2.61703 0
M  V30 3391 H 338.036 -0.40157 -2.52628 0
M  V30 3392 H 337.68 -0.525436 -5.05175 0
M  V30 3393 H 337.61 1.25359 -5.11461 0
M  V30 3394 H 340.101 0.502482 -3.74544 0
M  V30 3395 H 340.414 0.404468 -7.71741 0
M  V30 3396 H 338.759 0.37069 -6.94011 0
M  V30 3397 H 341.95 0.538812 -4.64989 0
M  V30 3398 H 342.123 0.494345 -6.46112 0
M  V30 3399 N 335.529 1.53961 0.336706 0
M  V30 3400 C 336.778 1.70751 1.07363 0
M  V30 3401 C 337.091 0.481061 1.89592 0
M  V30 3402 O 338.297 0.530046 2.66276 0
M  V30 3403 C 336.753 3.01965 1.95818 0
M  V30 3404 C 336.361 4.31971 1.18764 0
M  V30 3405 C 338.105 3.28121 2.69327 0
M  V30 3406 C 336.012 5.54255 2.06289 0
M  V30 3407 H 334.942 0.636292 0.404535 0
M  V30 3408 H 337.593 1.80459 0.332681 0
M  V30 3409 H 335.975 2.86132 2.7376 0
M  V30 3410 H 337.149 4.5853 0.456849 0
M  V30 3411 H 335.464 4.12481 0.569946 0
M  V30 3412 H 338.061 4.16673 3.35094 0
M  V30 3413 H 338.404 2.45426 3.36261 0
M  V30 3414 H 338.937 3.44762 1.98454 0
M  V30 3415 H 335.676 6.39513 1.43885 0
M  V30 3416 H 335.196 5.31935 2.77138 0
M  V30 3417 H 336.875 5.90159 2.65182 0
M  V30 3418 N 337.007 -0.598083 1.45811 0
M  V30 3419 C 338.232 -1.3881 1.54099 0
M  V30 3420 C 338.657 -1.8726 0.177578 0
M  V30 3421 O 338.015 -1.6069 -0.839541 0
M  V30 3422 C 338.063 -2.56217 2.53743 0
M  V30 3423 O 337.167 -3.5716 2.06182 0
M  V30 3424 H 336.508 -0.414024 0.519115 0
M  V30 3425 H 339.038 -0.726971 1.91249 0
M  V30 3426 H 339.048 -3.03337 2.72856 0
M  V30 3427 H 337.723 -2.20303 3.5276 0
M  V30 3428 H 336.3 -3.16624 1.96987 0
M  V30 3429 N 338.485 -1.33259 -0.841409 0
M  V30 3430 C 339.395 -1.25332 -1.98316 0
M  V30 3431 C 340.411 -0.164364 -1.73222 0
M  V30 3432 O 341.587 -0.387486 -1.97637 0
M  V30 3433 C 338.652 -0.990078 -3.32262 0
M  V30 3434 C 337.713 -2.16879 -3.70489 0
M  V30 3435 C 336.946 -1.91801 -4.98044 0
M  V30 3436 O 337.169 -0.867075 -5.63771 0
M  V30 3437 O 336.103 -2.78267 -5.33714 0
M  V30 3438 H 339.929 -2.21344 -2.07944 0
M  V30 3439 H 337.514 -1.1328 -0.974058 0
M  V30 3440 H 339.396 -0.860321 -4.12524 0
M  V30 3441 H 338.071 -0.0602155 -3.23644 0
M  V30 3442 H 336.978 -2.35407 -2.90748 0
M  V30 3443 H 338.311 -3.0819 -3.8377 0
M  V30 3444 N 339.963 1.05934 -1.16686 0
M  V30 3445 C 340.926 2.11669 -0.879144 0
M  V30 3446 C 341.926 1.60294 0.127445 0
M  V30 3447 O 343.116 1.7389 -0.103865 0
M  V30 3448 C 340.248 3.39438 -0.315425 0
M  V30 3449 H 341.441 2.38626 -1.81653 0
M  V30 3450 H 338.994 1.22058 -0.976299 0
M  V30 3451 H 339.729 3.18132 0.629468 0
M  V30 3452 H 339.514 3.78034 -1.04079 0
M  V30 3453 H 341.004 4.17391 -0.132189 0
M  V30 3454 N 341.441 0.965919 1.2453 0
M  V30 3455 C 342.669 0.644385 1.96609 0
M  V30 3456 C 343.084 -0.785823 1.71669 0
M  V30 3457 O 342.441 -1.52703 0.999399 0
M  V30 3458 C 342.492 0.907375 3.49927 0
M  V30 3459 O 342.213 2.28136 3.74013 0
M  V30 3460 C 343.714 0.599784 4.39224 0
M  V30 3461 H 340.934 0.240588 0.626385 0
M  V30 3462 H 343.478 1.29337 1.58405 0
M  V30 3463 H 341.633 0.304631 3.862 0
M  V30 3464 H 342.047 2.36002 4.68405 0
M  V30 3465 H 343.521 0.834263 5.45659 0
M  V30 3466 H 343.998 -0.465921 4.36722 0
M  V30 3467 H 344.604 1.18235 4.08535 0
M  V30 3468 N 342.919 -1.39368 0.735821 0
M  V30 3469 C 344.196 -1.94465 0.210395 0
M  V30 3470 C 344.576 -1.67254 -1.28799 0
M  V30 3471 O 343.924 -1.00123 -2.05396 0
M  V30 3472 C 344.134 -3.4472 0.544897 0
M  V30 3473 C 345.482 -4.21708 0.494689 0
M  V30 3474 O 346.506 -3.52922 0.482136 0
M  V30 3475 O 345.365 -5.44299 0.489947 0
M  V30 3476 H 342.459 -0.826096 0.0386666 0
M  V30 3477 H 345.005 -1.48863 0.814735 0
M  V30 3478 H 343.777 -3.57963 1.58045 0
M  V30 3479 H 343.4 -3.97502 -0.08837 0
M  V30 3480 N 344.397 -0.483516 -1.5 0
M  V30 3481 C 345.645 0.067027 -2.01989 0
M  V30 3482 C 345.966 1.3909 -1.36671 0
M  V30 3483 O 345.236 1.88978 -0.516152 0
M  V30 3484 H 343.816 0.0277606 -0.746484 0
M  V30 3485 H 346.478 -0.636773 -1.84204 0
M  V30 3486 H 345.574 0.209484 -3.11396 0
M  V30 3487 N 345.875 1.56104 -0.216619 0
M  V30 3488 C 346.805 2.23063 0.690296 0
M  V30 3489 C 347.786 1.20072 1.20485 0
M  V30 3490 O 348.971 1.48643 1.24976 0
M  V30 3491 C 346.101 2.90672 1.90072 0
M  V30 3492 C 345.055 4.00092 1.5202 0
M  V30 3493 C 344.381 4.54972 2.80899 0
M  V30 3494 C 345.681 5.17398 0.71391 0
M  V30 3495 H 347.375 2.99109 0.132038 0
M  V30 3496 H 344.921 1.43866 0.0620664 0
M  V30 3497 H 346.874 3.36204 2.54057 0
M  V30 3498 H 345.598 2.12066 2.48386 0
M  V30 3499 H 344.257 3.55283 0.903839 0
M  V30 3500 H 343.905 3.73102 3.37348 0
M  V30 3501 H 343.605 5.28817 2.56176 0
M  V30 3502 H 345.129 5.0322 3.45836 0
M  V30 3503 H 346.543 5.59342 1.25735 0
M  V30 3504 H 344.94 5.97444 0.563951 0
M  V30 3505 H 346.01 4.84088 -0.280527 0
M  V30 3506 N 347.353 -0.0568162 1.57498 0
M  V30 3507 C 348.578 -0.769402 1.92601 0
M  V30 3508 C 349.003 -1.69559 0.814336 0
M  V30 3509 O 348.361 -1.79811 -0.231903 0
M  V30 3510 C 348.409 -1.52634 3.26704 0
M  V30 3511 O 347.513 -2.63797 3.16994 0
M  V30 3512 H 346.854 -0.208909 0.63028 0
M  V30 3513 H 349.384 -0.0205798 2.0459 0
M  V30 3514 H 349.394 -1.90234 3.60936 0
M  V30 3515 H 348.069 -0.846875 4.07186 0
M  V30 3516 H 346.646 -2.28943 2.94346 0
M  V30 3517 N 348.832 -1.54138 -0.328536 0
M  V30 3518 C 350.109 -1.62749 -1.08499 0
M  V30 3519 C 350.489 -0.458198 -2.06067 0
M  V30 3520 O 349.837 0.548046 -2.2183 0
M  V30 3521 C 350.047 -2.99519 -1.79135 0
M  V30 3522 C 351.395 -3.55394 -2.32337 0
M  V30 3523 O 352.419 -3.01792 -1.89209 0
M  V30 3524 O 351.278 -4.49186 -3.11279 0
M  V30 3525 H 348.372 -0.65886 -0.499832 0
M  V30 3526 H 350.918 -1.66484 -0.328826 0
M  V30 3527 H 349.69 -3.76061 -1.08139 0
M  V30 3528 H 349.313 -2.99441 -2.61574 0
M  V30 3529 N 350.31 0.590341 -1.46126 0
M  V30 3530 C 351.557 1.34882 -1.5104 0
M  V30 3531 C 351.885 1.93849 -0.159021 0
M  V30 3532 O 351.14 1.76544 0.844436 0
M  V30 3533 C 351.439 2.5032 -2.55097 0
M  V30 3534 C 351.105 2.09394 -3.99331 0
M  V30 3535 C 349.767 1.97947 -4.38601 0
M  V30 3536 C 352.119 1.77712 -4.89967 0
M  V30 3537 C 349.447 1.53065 -5.66381 0
M  V30 3538 C 351.799 1.34312 -6.18177 0
M  V30 3539 C 350.463 1.21436 -6.56361 0
M  V30 3540 H 349.733 0.493568 -0.552695 0
M  V30 3541 H 352.38 0.665539 -1.79563 0
M  V30 3542 H 350.685 3.24062 -2.20207 0
M  V30 3543 H 352.382 3.08541 -2.56132 0
M  V30 3544 H 348.972 2.19235 -3.68285 0
M  V30 3545 H 353.156 1.85445 -4.60352 0
M  V30 3546 H 348.412 1.41733 -5.94745 0
M  V30 3547 H 352.586 1.08849 -6.87841 0
M  V30 3548 H 350.213 0.864345 -7.5527 0
M  V30 3549 N 351.788 1.33704 0.83433 0
M  V30 3550 C 352.718 1.26967 1.95963 0
M  V30 3551 C 353.699 0.149337 1.69443 0
M  V30 3552 O 354.884 0.339852 1.91203 0
M  V30 3553 C 352.014 1.01275 3.32206 0
M  V30 3554 C 350.968 2.09652 3.73136 0
M  V30 3555 C 350.294 1.69166 5.07235 0
M  V30 3556 C 351.594 3.51372 3.86439 0
M  V30 3557 H 353.288 2.2112 2.01857 0
M  V30 3558 H 350.834 1.06447 0.969793 0
M  V30 3559 H 352.787 0.952106 4.10503 0
M  V30 3560 H 351.511 0.0356203 3.26581 0
M  V30 3561 H 350.17 2.14766 2.97104 0
M  V30 3562 H 349.818 0.701437 4.98085 0
M  V30 3563 H 349.518 2.41694 5.35591 0
M  V30 3564 H 351.042 1.64576 5.88003 0
M  V30 3565 H 352.456 3.48734 4.55036 0
M  V30 3566 H 350.853 4.22425 4.26236 0
M  V30 3567 H 351.923 3.89546 2.88759 0
M  V30 3568 N 353.266 -1.05314 1.17247 0
M  V30 3569 C 354.213 -2.13031 0.888058 0
M  V30 3570 C 355.183 -1.65253 -0.167537 0
M  V30 3571 O 356.368 -1.90775 -0.0305974 0
M  V30 3572 C 353.508 -3.42702 0.406147 0
M  V30 3573 C 352.621 -4.04161 1.52572 0
M  V30 3574 C 351.756 -5.21744 0.997808 0
M  V30 3575 C 350.795 -5.75207 2.09291 0
M  V30 3576 N 349.932 -6.84094 1.57986 0
M  V30 3577 H 354.772 -2.36698 1.81048 0
M  V30 3578 H 352.309 -1.16121 0.903013 0
M  V30 3579 H 354.267 -4.17059 0.108305 0
M  V30 3580 H 352.897 -3.19222 -0.479313 0
M  V30 3581 H 351.949 -3.27253 1.93931 0
M  V30 3582 H 353.261 -4.39881 2.35172 0
M  V30 3583 H 352.415 -6.03168 0.653739 0
M  V30 3584 H 351.154 -4.87495 0.141232 0
M  V30 3585 H 350.159 -4.92414 2.44557 0
M  V30 3586 H 351.384 -6.11505 2.95362 0
M  V30 3587 H 349.33 -6.51745 0.74598 0
M  V30 3588 H 349.247 -7.18811 2.34195 0
M  V30 3589 H 350.515 -7.69172 1.26468 0
M  V30 3590 N 354.744 -0.972509 -1.24016 0
M  V30 3591 C 355.969 -0.654417 -1.96805 0
M  V30 3592 C 356.394 0.770398 -1.716 0
M  V30 3593 O 355.752 1.52361 -0.982647 0
M  V30 3594 C 355.8 -0.941031 -3.48105 0
M  V30 3595 O 354.904 -0.0289472 -4.1239 0
M  V30 3596 H 354.245 -0.24692 -0.616382 0
M  V30 3597 H 356.775 -1.30396 -1.57664 0
M  V30 3598 H 356.785 -0.87452 -3.98517 0
M  V30 3599 H 355.46 -1.97939 -3.65777 0
M  V30 3600 H 354.037 -0.149192 -3.72601 0
M  V30 3601 N 356.222 1.38976 -0.743202 0
M  V30 3602 C 357.154 2.29096 -0.0689228 0
M  V30 3603 C 358.167 1.47229 0.694791 0
M  V30 3604 O 359.356 1.70212 0.537597 0
M  V30 3605 C 356.456 3.25988 0.926548 0
M  V30 3606 C 355.629 4.36833 0.222647 0
M  V30 3607 C 354.688 5.13981 1.12739 0
M  V30 3608 O 353.714 5.6601 0.601795 0
M  V30 3609 N 354.916 5.25966 2.45641 0
M  V30 3610 H 357.681 2.87604 -0.842846 0
M  V30 3611 H 355.242 1.50645 -0.593109 0
M  V30 3612 H 357.234 3.74476 1.5346 0
M  V30 3613 H 355.804 2.68453 1.60162 0
M  V30 3614 H 355.024 3.90116 -0.565983 0
M  V30 3615 H 356.312 5.0811 -0.264841 0
M  V30 3616 H 355.71 4.85228 2.9081 0
M  V30 3617 H 354.267 5.77865 3.01522 0
M  V30 3618 N 357.7 0.491464 1.49741 0
M  V30 3619 C 358.928 -0.0535151 2.06831 0
M  V30 3620 C 359.343 -1.31683 1.35296 0
M  V30 3621 O 358.7 -1.77402 0.42836 0
M  V30 3622 C 358.751 -0.320835 3.60073 0
M  V30 3623 O 358.472 0.892394 4.28915 0
M  V30 3624 C 359.973 -0.910519 4.33848 0
M  V30 3625 H 357.193 0.0161909 0.670805 0
M  V30 3626 H 359.737 0.68609 1.92647 0
M  V30 3627 H 357.892 -1.0104 3.73991 0
M  V30 3628 H 358.306 0.649401 5.20464 0
M  V30 3629 H 359.78 -1.04721 5.41976 0
M  V30 3630 H 360.257 -1.90589 3.95692 0
M  V30 3631 H 360.863 -0.258712 4.24512 0
M  V30 3632 N 359.178 -1.55987 0.224894 0
M  V30 3633 C 360.589 -1.84553 -0.282345 0
M  V30 3634 C 360.94 -1.14634 -1.59227 0
M  V30 3635 O 360.065 -0.417155 -2.12341 0
M  V30 3636 C 360.66 -3.348 -0.519062 0
M  V30 3637 C 359.219 -3.63671 -0.970604 0
M  V30 3638 C 358.366 -2.77277 -0.0355261 0
M  V30 3639 H 361.317 -1.52245 0.448006 0
M  V30 3640 H 361.338 -3.55187 -1.36463 0
M  V30 3641 H 360.85 -3.8566 0.43449 0
M  V30 3642 H 358.951 -3.1827 -1.9374 0
M  V30 3643 H 359.064 -4.71631 -0.842698 0
M  V30 3644 H 357.428 -2.48846 -0.542927 0
M  V30 3645 H 358.211 -3.30937 0.913003 0
M  V30 3646 N 360.656 0.0484629 -1.57525 0
M  V30 3647 C 361.619 1.03956 -2.04269 0
M  V30 3648 C 362.619 1.30211 -0.943496 0
M  V30 3649 O 363.809 1.25539 -1.20771 0
M  V30 3650 C 360.941 2.37742 -2.44319 0
M  V30 3651 H 362.134 0.636182 -2.93075 0
M  V30 3652 H 359.687 0.294811 -1.53494 0
M  V30 3653 H 360.422 2.82866 -1.5861 0
M  V30 3654 H 360.207 2.20021 -3.24551 0
M  V30 3655 H 361.697 3.08936 -2.80978 0
M  V30 3656 N 362.134 1.5431 0.320358 0
M  V30 3657 C 363.044 1.86946 1.41734 0
M  V30 3658 C 364.06 0.761689 1.56443 0
M  V30 3659 O 365.236 1.05629 1.71477 0
M  V30 3660 C 362.301 2.09293 2.76401 0
M  V30 3661 C 361.362 3.33082 2.70841 0
M  V30 3662 C 360.595 3.54353 3.99086 0
M  V30 3663 O 360.818 2.79002 4.97508 0
M  V30 3664 O 359.752 4.47838 4.0215 0
M  V30 3665 H 363.578 2.80232 1.17062 0
M  V30 3666 H 361.163 1.40255 0.514673 0
M  V30 3667 H 363.045 2.25303 3.56113 0
M  V30 3668 H 361.72 1.19194 3.00956 0
M  V30 3669 H 360.627 3.22454 1.89668 0
M  V30 3670 H 361.96 4.23249 2.5124 0
M  V30 3671 N 363.613 -0.582584 1.46437 0
M  V30 3672 C 364.89 -1.34276 1.4223 0
M  V30 3673 C 365.27 -2.10835 0.10583 0
M  V30 3674 O 364.618 -2.09485 -0.912596 0
M  V30 3675 C 364.828 -2.26865 2.65204 0
M  V30 3676 C 366.176 -2.88691 3.11356 0
M  V30 3677 O 367.2 -2.37178 2.65753 0
M  V30 3678 O 366.059 -3.82255 3.90568 0
M  V30 3679 H 363.153 -0.603326 0.565621 0
M  V30 3680 H 365.699 -0.603591 1.58603 0
M  V30 3681 H 364.471 -1.69724 3.52576 0
M  V30 3682 H 364.094 -3.08122 2.5129 0
M  V30 3683 N 365.091 -1.34144 -0.827227 0
M  V30 3684 C 366.319 -1.29325 -1.61501 0
M  V30 3685 C 366.734 0.13354 -1.88327 0
M  V30 3686 O 366.091 1.0793 -1.47164 0
M  V30 3687 C 366.142 -2.07746 -2.95844 0
M  V30 3688 O 365.863 -3.4486 -2.70191 0
M  V30 3689 C 367.364 -2.10273 -3.90256 0
M  V30 3690 H 364.584 -0.445069 -0.50215 0
M  V30 3691 H 367.128 -1.76693 -1.02955 0
M  V30 3692 H 365.283 -1.6403 -3.5096 0
M  V30 3693 H 365.697 -3.85345 -3.55822 0
M  V30 3694 H 367.171 -2.69575 -4.81698 0
M  V30 3695 H 367.648 -1.096 -4.25305 0
M  V30 3696 H 368.254 -2.54059 -3.41078 0
M  V30 3697 N 366.569 1.04691 -1.17803 0
M  V30 3698 C 367.815 1.78045 -0.970969 0
M  V30 3699 C 368.148 1.87686 0.498751 0
M  V30 3700 O 367.423 1.38035 1.37027 0
M  V30 3701 C 367.706 3.2166 -1.61884 0
M  V30 3702 C 367.559 3.20001 -3.161 0
M  V30 3703 C 368.878 4.1962 -1.3269 0
M  V30 3704 H 365.997 0.64633 -0.354155 0
M  V30 3705 H 368.639 1.22333 -1.45378 0
M  V30 3706 H 366.789 3.69232 -1.20831 0
M  V30 3707 H 368.461 2.80467 -3.66246 0
M  V30 3708 H 366.704 2.58203 -3.48588 0
M  V30 3709 H 367.375 4.21386 -3.56564 0
M  V30 3710 H 369.851 3.80567 -1.68249 0
M  V30 3711 H 368.727 5.18339 -1.80599 0
M  V30 3712 H 368.988 4.414 -0.248622 0
M  V30 3713 N 368.047 0.979072 1.23499 0
M  V30 3714 C 368.994 0.517904 2.24914 0
M  V30 3715 C 369.964 -0.442525 1.60097 0
M  V30 3716 O 371.149 -0.350365 1.87556 0
M  V30 3717 C 368.289 -0.174813 3.44657 0
M  V30 3718 C 367.402 0.825721 4.24035 0
M  V30 3719 C 366.537 0.107946 5.3109 0
M  V30 3720 C 365.576 1.09778 6.02175 0
M  V30 3721 N 364.713 0.40925 7.00906 0
M  V30 3722 H 369.553 1.38751 2.63727 0
M  V30 3723 H 367.09 0.695303 1.2963 0
M  V30 3724 H 369.048 -0.593233 4.12961 0
M  V30 3725 H 367.678 -1.0083 3.06648 0
M  V30 3726 H 366.73 1.36253 3.55161 0
M  V30 3727 H 368.042 1.58005 4.73113 0
M  V30 3728 H 367.196 -0.367904 6.05583 0
M  V30 3729 H 365.935 -0.678994 4.8295 0
M  V30 3730 H 364.94 1.5844 5.26476 0
M  V30 3731 H 366.165 1.88536 6.52404 0
M  V30 3732 H 364.111 -0.358506 6.5502 0
M  V30 3733 H 364.028 1.10226 7.47921 0
M  V30 3734 H 365.296 -0.0442557 7.79487 0
M  V30 3735 N 369.525 -1.3858 0.750561 0
M  V30 3736 C 370.75 -2.04997 0.314812 0
M  V30 3737 C 371.175 -1.56235 -1.04749 0
M  V30 3738 O 370.533 -0.712981 -1.66692 0
M  V30 3739 C 370.581 -3.58961 0.343415 0
M  V30 3740 O 369.685 -4.07025 -0.663628 0
M  V30 3741 H 369.026 -0.649081 0.139962 0
M  V30 3742 H 371.556 -1.77313 1.02084 0
M  V30 3743 H 371.566 -4.07542 0.193233 0
M  V30 3744 H 370.241 -3.93811 1.33738 0
M  V30 3745 H 368.818 -3.6982 -0.478307 0
M  V30 3746 N 371.003 -0.499398 -1.49478 0
M  V30 3747 C 372.252 0.0475259 -2.01644 0
M  V30 3748 C 372.565 1.38195 -1.38425 0
M  V30 3749 O 373.771 2.01547 -1.8191 0
M  V30 3750 C 372.227 0.135164 -3.59646 0
M  V30 3751 C 371.835 -1.19252 -4.31837 0
M  V30 3752 C 373.579 0.632538 -4.19761 0
M  V30 3753 C 371.486 -1.06713 -5.81693 0
M  V30 3754 H 370.416 0.0215349 -0.753692 0
M  V30 3755 H 373.067 -0.638577 -1.7203 0
M  V30 3756 H 371.449 0.885681 -3.85969 0
M  V30 3757 H 372.623 -1.9562 -4.17216 0
M  V30 3758 H 370.938 -1.62321 -3.83459 0
M  V30 3759 H 373.535 0.743833 -5.29501 0
M  V30 3760 H 373.878 1.63098 -3.83021 0
M  V30 3761 H 374.411 -0.0613987 -3.97753 0
M  V30 3762 H 371.15 -2.03979 -6.22955 0
M  V30 3763 H 370.67 -0.344307 -5.98811 0
M  V30 3764 H 372.349 -0.745208 -6.42694 0
M  V30 3765 N 372.481 1.55866 -0.233164 0
M  V30 3766 C 373.391 2.24431 0.683217 0
M  V30 3767 C 374.407 1.2558 1.2044 0
M  V30 3768 O 375.583 1.58422 1.24356 0
M  V30 3769 C 372.648 2.91979 1.86947 0
M  V30 3770 C 371.709 4.06204 1.38912 0
M  V30 3771 C 370.942 4.70522 2.51883 0
M  V30 3772 O 371.165 4.33865 3.70293 0
M  V30 3773 O 370.099 5.59296 2.22423 0
M  V30 3774 H 373.925 3.03426 0.129059 0
M  V30 3775 H 371.51 1.494 -0.0022283 0
M  V30 3776 H 373.392 3.34573 2.56201 0
M  V30 3777 H 372.067 2.15935 2.41151 0
M  V30 3778 H 370.974 3.68155 0.664259 0
M  V30 3779 H 372.307 4.84025 0.893328 0
M  V30 3780 N 373.959 -0.0401083 1.57549 0
M  V30 3781 C 374.889 -1.04384 2.08869 0
M  V30 3782 C 375.87 -1.38407 0.988817 0
M  V30 3783 O 377.055 -1.47483 1.26342 0
M  V30 3784 C 374.185 -2.34808 2.55895 0
M  V30 3785 C 373.139 -2.15057 3.70047 0
M  V30 3786 C 372.465 -3.51145 4.03239 0
M  V30 3787 C 373.765 -1.54576 4.98902 0
M  V30 3788 H 375.459 -0.616666 2.92981 0
M  V30 3789 H 373.005 -0.295184 1.40942 0
M  V30 3790 H 374.958 -3.05346 2.90417 0
M  V30 3791 H 373.682 -2.79565 1.68853 0
M  V30 3792 H 372.341 -1.46954 3.35857 0
M  V30 3793 H 371.989 -3.93529 3.13279 0
M  V30 3794 H 371.689 -3.38758 4.80122 0
M  V30 3795 H 373.213 -4.23062 4.40285 0
M  V30 3796 H 374.627 -2.15017 5.31451 0
M  V30 3797 H 373.024 -1.52796 5.80322 0
M  V30 3798 H 374.094 -0.51039 4.82206 0
M  V30 3799 N 375.437 -1.54477 -0.31217 0
M  V30 3800 C 376.4 -1.83923 -1.36766 0
M  V30 3801 C 377.4 -0.711563 -1.44199 0
M  V30 3802 O 378.59 -0.979866 -1.44029 0
M  V30 3803 C 375.722 -2.0095 -2.75376 0
M  V30 3804 H 376.915 -2.78239 -1.11906 0
M  V30 3805 H 374.468 -1.46369 -0.548257 0
M  V30 3806 H 375.203 -1.08883 -3.05475 0
M  V30 3807 H 374.988 -2.83018 -2.71373 0
M  V30 3808 H 376.478 -2.2514 -3.51713 0
M  V30 3809 N 376.915 0.57481 -1.46744 0
M  V30 3810 C 377.825 1.711 -1.60505 0
M  V30 3811 C 378.841 1.67008 -0.488307 0
M  V30 3812 O 380.017 1.86774 -0.753495 0
M  V30 3813 C 377.082 3.07608 -1.59932 0
M  V30 3814 C 376.143 3.22904 -2.82898 0
M  V30 3815 C 375.376 4.529 -2.82343 0
M  V30 3816 O 375.599 5.37278 -1.91542 0
M  V30 3817 O 374.533 4.71611 -3.73987 0
M  V30 3818 H 378.359 1.62436 -2.56609 0
M  V30 3819 H 375.944 0.742779 -1.29627 0
M  V30 3820 H 377.826 3.88877 -1.62336 0
M  V30 3821 H 376.501 3.16692 -0.669898 0
M  V30 3822 H 375.408 2.41099 -2.86046 0
M  V30 3823 H 376.741 3.18715 -3.75076 0
M  V30 3824 N 378.394 1.34581 0.820102 0
M  V30 3825 C 379.357 1.2628 1.91275 0
M  V30 3826 C 380.357 0.177344 1.59819 0
M  V30 3827 O 381.547 0.430156 1.68806 0
M  V30 3828 C 378.679 0.950327 3.27386 0
M  V30 3829 H 379.872 2.23421 2.00057 0
M  V30 3830 H 377.425 1.1891 1.0144 0
M  V30 3831 H 378.16 -0.0177938 3.24295 0
M  V30 3832 H 377.945 1.73549 3.51601 0
M  V30 3833 H 379.435 0.917492 4.07396 0
M  V30 3834 N 379.872 -1.04064 1.18357 0
M  V30 3835 C 380.819 -2.12077 0.910603 0
M  V30 3836 C 381.789 -1.65421 -0.15 0
M  V30 3837 O 382.974 -1.90797 -0.0103614 0
M  V30 3838 C 380.114 -3.42252 0.442472 0
M  V30 3839 C 379.227 -4.0252 1.5685 0
M  V30 3840 C 378.362 -5.20657 1.05309 0
M  V30 3841 C 377.401 -5.72955 2.1538 0
M  V30 3842 N 376.538 -6.8238 1.65233 0
M  V30 3843 H 381.378 -2.34764 1.83548 0
M  V30 3844 H 378.915 -1.15157 0.915279 0
M  V30 3845 H 380.873 -4.16921 0.152534 0
M  V30 3846 H 379.503 -3.19712 -0.445428 0
M  V30 3847 H 378.555 -3.25178 1.97391 0
M  V30 3848 H 379.867 -4.37362 2.39824 0
M  V30 3849 H 379.021 -6.0244 0.717677 0
M  V30 3850 H 377.76 -4.87318 0.19293 0
M  V30 3851 H 376.765 -4.89793 2.49766 0
M  V30 3852 H 377.99 -6.08337 3.01832 0
M  V30 3853 H 375.936 -6.50917 0.815064 0
M  V30 3854 H 375.853 -7.16286 2.41805 0
M  V30 3855 H 377.121 -7.67788 1.34619 0
M  V30 3856 N 381.35 -0.985608 -1.22978 0
M  V30 3857 C 382.596 -0.65836 -1.91816 0
M  V30 3858 C 382.929 0.806692 -1.76653 0
M  V30 3859 O 382.204 1.58252 -1.13078 0
M  V30 3860 C 382.487 -1.056 -3.44268 0
M  V30 3861 C 382.34 -2.57906 -3.68516 0
M  V30 3862 C 383.659 -0.603781 -4.35939 0
M  V30 3863 H 380.778 -0.24065 -0.696604 0
M  V30 3864 H 383.42 -1.22783 -1.44998 0
M  V30 3865 H 381.57 -0.571445 -3.84274 0
M  V30 3866 H 383.242 -3.13976 -3.3796 0
M  V30 3867 H 381.485 -3.00305 -3.13048 0
M  V30 3868 H 382.156 -2.80779 -4.75255 0
M  V30 3869 H 384.632 -1.01987 -4.03408 0
M  V30 3870 H 383.508 -0.910383 -5.41298 0
M  V30 3871 H 383.769 0.495761 -4.39312 0
M  V30 3872 N 382.828 1.3818 -0.7579 0
M  V30 3873 C 383.758 2.33027 -0.148597 0
M  V30 3874 C 384.739 1.55085 0.69875 0
M  V30 3875 O 385.924 1.83384 0.639053 0
M  V30 3876 C 383.054 3.3928 0.742034 0
M  V30 3877 C 382.008 4.28 -0.00291946 0
M  V30 3878 C 381.334 5.25146 1.00625 0
M  V30 3879 C 382.634 5.08938 -1.17385 0
M  V30 3880 H 384.328 2.84231 -0.940909 0
M  V30 3881 H 381.874 1.36659 -0.453908 0
M  V30 3882 H 383.827 4.046 1.17799 0
M  V30 3883 H 382.551 2.86569 1.56671 0
M  V30 3884 H 381.21 3.64192 -0.419504 0
M  V30 3885 H 380.858 4.68721 1.8251 0
M  V30 3886 H 380.558 5.85361 0.512428 0
M  V30 3887 H 382.082 5.93342 1.44143 0
M  V30 3888 H 383.496 5.67474 -0.815224 0
M  V30 3889 H 381.893 5.7841 -1.59882 0
M  V30 3890 H 382.963 4.42424 -1.98468 0
M  V30 3891 N 384.306 0.507319 1.49211 0
M  V30 3892 C 385.269 -0.256763 2.27757 0
M  V30 3893 C 386.269 -0.888287 1.34038 0
M  V30 3894 O 387.459 -0.751841 1.5714 0
M  V30 3895 C 384.591 -1.36905 3.12202 0
M  V30 3896 H 385.784 0.432557 2.96764 0
M  V30 3897 H 383.337 0.262488 1.5408 0
M  V30 3898 H 384.072 -2.09233 2.47775 0
M  V30 3899 H 383.857 -0.921599 3.81115 0
M  V30 3900 H 385.347 -1.9071 3.7151 0
M  V30 3901 N 385.784 -1.5574 0.241426 0
M  V30 3902 C 386.732 -2.22538 -0.676718 0
M  V30 3903 C 387.726 -1.21117 -1.18436 0
M  V30 3904 O 388.932 -1.39144 -1.14188 0
M  V30 3905 H 385.307 -0.713776 -0.236701 0
M  V30 3906 H 387.278 -2.98264 -0.0901187 0
M  V30 3907 C 386.027 -2.93439 -1.86518 0
M  V30 3908 H 385.35 -3.7125 -1.4837 0
M  V30 3909 H 386.79 -3.43549 -2.48495 0
M  V30 3910 C 385.249 -1.97008 -2.73294 0
M  V30 3911 O 385.779 -1.49965 -3.72657 0
M  V30 3912 N 383.985 -1.64227 -2.39745 0
M  V30 3913 H 383.532 -2.02677 -1.58996 0
M  V30 3914 H 383.49 -0.999708 -2.98083 0
M  V30 3915 N 387.262 0.0317525 -1.57568 0
M  V30 3916 C 388.678 0.38735 -1.54828 0
M  V30 3917 C 388.878 1.7677 -0.967187 0
M  V30 3918 O 387.934 2.45581 -0.587063 0
M  V30 3919 C 389.247 0.291667 -2.99282 0
M  V30 3920 C 390.795 0.368946 -3.10818 0
M  V30 3921 C 391.27 0.302741 -4.56998 0
M  V30 3922 N 392.761 0.361617 -4.61786 0
M  V30 3923 C 393.496 0.333238 -5.72431 0
M  V30 3924 N 392.992 0.257308 -6.92322 0
M  V30 3925 N 394.785 0.382769 -5.60795 0
M  V30 3926 H 386.936 -0.871609 -1.93692 0
M  V30 3927 H 389.199 -0.331161 -0.888277 0
M  V30 3928 H 388.905 -0.656794 -3.45513 0
M  V30 3929 H 388.779 1.08638 -3.61217 0
M  V30 3930 H 391.166 1.30784 -2.64536 0
M  V30 3931 H 391.247 -0.455066 -2.5172 0
M  V30 3932 H 390.891 -0.632473 -5.03947 0
M  V30 3933 H 390.821 1.14482 -5.14005 0
M  V30 3934 H 393.312 0.422923 -3.75526 0
M  V30 3935 H 393.625 0.24068 -7.72425 0
M  V30 3936 H 391.97 0.223396 -6.94641 0
M  V30 3937 H 395.161 0.44006 -4.66027 0
M  V30 3938 H 395.334 0.357184 -6.47015 0
M  V30 3939 N 388.74 1.54641 0.303973 0
M  V30 3940 C 389.65 1.88439 1.39743 0
M  V30 3941 C 390.666 0.778239 1.55626 0
M  V30 3942 O 391.842 1.07442 1.70347 0
M  V30 3943 C 388.907 2.12212 2.74166 0
M  V30 3944 C 387.968 3.35936 2.67293 0
M  V30 3945 C 387.201 3.58566 3.95305 0
M  V30 3946 O 387.424 2.84263 4.9452 0
M  V30 3947 O 386.358 4.52078 3.97378 0
M  V30 3948 H 390.184 2.81458 1.14083 0
M  V30 3949 H 387.769 1.40793 0.499768 0
M  V30 3950 H 389.651 2.29067 3.53704 0
M  V30 3951 H 388.326 1.22379 2.99675 0
M  V30 3952 H 387.233 3.24448 1.86237 0
M  V30 3953 H 388.566 4.2589 2.46736 0
M  V30 3954 N 390.218 -0.567019 1.47046 0
M  V30 3955 C 391.148 -1.68482 1.61667 0
M  V30 3956 C 392.129 -1.6358 0.466418 0
M  V30 3957 O 393.314 -1.81354 0.694574 0
M  V30 3958 C 390.444 -3.07124 1.62148 0
M  V30 3959 C 389.398 -3.26867 2.76301 0
M  V30 3960 C 388.724 -4.66196 2.61849 0
M  V30 3961 C 390.024 -3.13186 4.17986 0
M  V30 3962 H 391.718 -1.56502 2.5524 0
M  V30 3963 H 389.264 -0.751486 1.22836 0
M  V30 3964 H 391.217 -3.8516 1.70968 0
M  V30 3965 H 389.941 -3.2004 0.651287 0
M  V30 3966 H 388.6 -2.51237 2.66975 0
M  V30 3967 H 388.248 -4.75898 1.62879 0
M  V30 3968 H 387.948 -4.80356 3.38425 0
M  V30 3969 H 389.472 -5.46379 2.72584 0
M  V30 3970 H 390.886 -3.81049 4.2834 0
M  V30 3971 H 389.283 -3.3886 4.95272 0
M  V30 3972 H 390.353 -2.10057 4.3704 0
M  V30 3973 N 391.696 -1.35014 -0.812953 0
M  V30 3974 C 392.973 -1.18502 -1.55617 0
M  V30 3975 C 393.353 0.238421 -2.09749 0
M  V30 3976 O 392.701 1.2411 -1.91857 0
M  V30 3977 C 392.911 -2.24783 -2.66971 0
M  V30 3978 C 394.259 -2.60268 -3.35478 0
M  V30 3979 O 395.283 -2.23648 -2.77236 0
M  V30 3980 O 394.142 -3.2321 -4.40678 0
M  V30 3981 H 391.236 -0.459984 -0.687272 0
M  V30 3982 H 393.782 -1.46677 -0.853464 0
M  V30 3983 H 392.554 -3.20284 -2.24798 0
M  V30 3984 H 392.177 -1.97841 -3.44884 0
M  V30 3985 N 393.175 1.03435 -1.18907 0
M  V30 3986 C 394.122 2.11591 -0.921837 0
M  V30 3987 C 395.092 1.65499 0.141226 0
M  V30 3988 O 396.277 1.908 0.000242829 0
M  V30 3989 C 393.417 3.42012 -0.460616 0
M  V30 3990 C 392.53 4.01682 -1.58982 0
M  V30 3991 C 391.665 5.20091 -1.08069 0
M  V30 3992 C 390.704 5.71805 -2.18416 0
M  V30 3993 N 389.841 6.81494 -1.68849 0
M  V30 3994 H 394.681 2.33787 -1.8479 0
M  V30 3995 H 392.218 1.1467 -0.921373 0
M  V30 3996 H 394.176 4.16834 -0.174642 0
M  V30 3997 H 392.806 3.19944 0.428467 0
M  V30 3998 H 391.858 3.24127 -1.99113 0
M  V30 3999 H 393.17 4.36084 -2.4214 0
M  V30 4000 H 392.324 6.02051 -0.749615 0
M  V30 4001 H 391.063 4.87209 -0.218771 0
M  V30 4002 H 390.068 4.88461 -2.5236 0
M  V30 4003 H 391.293 6.06728 -3.05054 0
M  V30 4004 H 389.239 6.50475 -0.849572 0
M  V30 4005 H 389.156 7.14994 -2.45601 0
M  V30 4006 H 390.424 7.67063 -1.38689 0
M  V30 4007 N 394.653 0.992116 1.22453 0
M  V30 4008 C 395.883 0.684949 1.94915 0
M  V30 4009 C 396.291 -0.754292 1.73514 0
M  V30 4010 O 395.634 -1.52056 1.03076 0
M  V30 4011 C 395.696 0.910054 3.47791 0
M  V30 4012 C 395.36 2.33363 3.92926 0
M  V30 4013 C 396.357 3.31308 4.00663 0
M  V30 4014 C 394.042 2.66785 4.25595 0
M  V30 4015 C 396.036 4.6075 4.40441 0
M  V30 4016 C 393.723 3.96446 4.65053 0
M  V30 4017 C 394.721 4.9324 4.72444 0
M  V30 4018 O 394.409 6.20584 5.1101 0
M  V30 4019 H 394.141 0.25258 0.62704 0
M  V30 4020 H 396.695 1.32939 1.56577 0
M  V30 4021 H 394.925 0.208443 3.86138 0
M  V30 4022 H 396.614 0.598257 4.01467 0
M  V30 4023 H 397.38 3.0682 3.75615 0
M  V30 4024 H 393.259 1.92148 4.19047 0
M  V30 4025 H 396.803 5.363 4.46126 0
M  V30 4026 H 392.7 4.20724 4.89552 0
M  V30 4027 H 393.468 6.24509 5.29085 0
M  V30 4028 N 396.131 -1.37776 0.765217 0
M  V30 4029 C 397.379 -1.99454 0.325943 0
M  V30 4030 C 397.7 -1.61049 -1.09947 0
M  V30 4031 O 396.97 -0.872821 -1.75381 0
M  V30 4032 H 395.55 -0.737697 0.117525 0
M  V30 4033 H 398.212 -1.68359 0.981895 0
M  V30 4034 H 397.308 -3.09547 0.398353 0
M  V30 4035 N 397.609 -0.515225 -1.4894 0
M  V30 4036 C 398.855 0.0242508 -2.02785 0
M  V30 4037 C 399.188 1.35323 -1.39289 0
M  V30 4038 O 398.463 1.87041 -0.533469 0
M  V30 4039 C 398.746 0.16184 -3.59736 0
M  V30 4040 C 398.599 -1.19127 -4.33738 0
M  V30 4041 C 399.918 0.895719 -4.30888 0
M  V30 4042 H 397.037 0.00733914 -0.736963 0
M  V30 4043 H 399.679 -0.669395 -1.77818 0
M  V30 4044 H 397.829 0.752624 -3.8114 0
M  V30 4045 H 399.501 -1.82202 -4.23792 0
M  V30 4046 H 397.744 -1.77695 -3.95736 0
M  V30 4047 H 398.415 -1.04815 -5.41957 0
M  V30 4048 H 400.891 0.394528 -4.14225 0
M  V30 4049 H 399.767 0.960859 -5.40425 0
M  V30 4050 H 400.028 1.9427 -3.97129 0
M  V30 4051 N 399.087 1.5561 -0.249682 0
M  V30 4052 C 400.312 2.03865 0.381305 0
M  V30 4053 C 400.737 1.12769 1.50548 0
M  V30 4054 O 400.095 0.121189 1.80895 0
M  V30 4055 C 400.143 3.50101 0.863816 0
M  V30 4056 O 399.247 3.62132 1.97318 0
M  V30 4057 H 398.588 0.658827 0.0827194 0
M  V30 4058 H 401.118 2.01105 -0.376552 0
M  V30 4059 H 401.128 3.90975 1.1663 0
M  V30 4060 H 399.803 4.1588 0.0411816 0
M  V30 4061 H 398.38 3.33155 1.67517 0
M  V30 4062 N 400.565 -0.0233959 1.57583 0
M  V30 4063 C 401.842 -0.748794 1.807 0
M  V30 4064 C 402.222 -1.9327 0.849106 0
M  V30 4065 O 401.57 -2.28247 -0.107468 0
M  V30 4066 C 401.78 -1.17651 3.28571 0
M  V30 4067 C 403.128 -1.59008 3.93702 0
M  V30 4068 O 404.152 -1.27094 3.32755 0
M  V30 4069 O 403.011 -2.18264 5.01022 0
M  V30 4070 H 400.105 -0.362578 0.743281 0
M  V30 4071 H 402.651 0.000261958 1.697 0
M  V30 4072 H 401.423 -0.331603 3.89892 0
M  V30 4073 H 401.046 -1.98541 3.44481 0
M  V30 4074 N 402.043 -1.548 -0.295768 0
M  V30 4075 C 403.273 -1.78069 -1.04762 0
M  V30 4076 C 403.681 -0.542847 -1.81245 0
M  V30 4077 O 403.024 0.497051 -1.76848 0
M  V30 4078 C 403.086 -2.93881 -2.07061 0
M  V30 4079 C 402.75 -4.31777 -1.49725 0
M  V30 4080 C 403.747 -5.11613 -0.924581 0
M  V30 4081 C 401.432 -4.78389 -1.5313 0
M  V30 4082 C 403.426 -6.36184 -0.393594 0
M  V30 4083 C 401.113 -6.02921 -0.996447 0
M  V30 4084 C 402.111 -6.81654 -0.428569 0
M  V30 4085 O 401.799 -8.0384 0.0981593 0
M  V30 4086 H 401.531 -0.597475 -0.316226 0
M  V30 4087 H 404.085 -2.02584 -0.338973 0
M  V30 4088 H 402.315 -2.65003 -2.81621 0
M  V30 4089 H 404.004 -3.04679 -2.6819 0
M  V30 4090 H 404.77 -4.76743 -0.891136 0
M  V30 4091 H 400.649 -4.17132 -1.9627 0
M  V30 4092 H 404.193 -6.97582 0.0503014 0
M  V30 4093 H 400.09 -6.37277 -1.02706 0
M  V30 4094 H 400.858 -8.18499 -0.0146455 0
M  V30 4095 N 403.521 0.559213 -1.47345 0
M  V30 4096 C 404.751 1.33999 -1.57251 0
M  V30 4097 C 405.159 1.87905 -0.220978 0
M  V30 4098 O 404.502 1.65577 0.795617 0
M  V30 4099 C 404.564 2.54798 -2.53611 0
M  V30 4100 C 404.228 2.22192 -3.99349 0
M  V30 4101 C 405.225 1.79607 -4.87891 0
M  V30 4102 C 402.91 2.33613 -4.44669 0
M  V30 4103 C 404.904 1.48868 -6.19772 0
M  V30 4104 C 402.591 2.02487 -5.76578 0
M  V30 4105 C 403.589 1.60183 -6.63951 0
M  V30 4106 O 403.277 1.29451 -7.93409 0
M  V30 4107 H 403.009 0.414858 -0.533731 0
M  V30 4108 H 405.563 0.684465 -1.9366 0
M  V30 4109 H 403.793 3.23235 -2.12265 0
M  V30 4110 H 405.482 3.16873 -2.53666 0
M  V30 4111 H 406.248 1.70278 -4.54126 0
M  V30 4112 H 402.127 2.65501 -3.76869 0
M  V30 4113 H 405.671 1.15775 -6.87926 0
M  V30 4114 H 401.568 2.11448 -6.09885 0
M  V30 4115 H 402.336 1.43098 -8.05894 0
M  V30 4116 N 404.999 1.35443 0.805782 0
M  V30 4117 C 405.946 1.28431 1.91766 0
M  V30 4118 C 406.916 0.156102 1.65365 0
M  V30 4119 O 408.101 0.339936 1.87747 0
M  V30 4120 C 405.241 1.06301 3.2832 0
M  V30 4121 C 404.354 2.2805 3.66902 0
M  V30 4122 C 403.489 1.99064 4.92491 0
M  V30 4123 C 402.528 3.16863 5.23703 0
M  V30 4124 N 401.665 2.87647 6.40471 0
M  V30 4125 H 406.505 2.23511 1.97096 0
M  V30 4126 H 404.042 1.11105 0.964054 0
M  V30 4127 H 406 0.915012 4.07042 0
M  V30 4128 H 404.63 0.148822 3.22457 0
M  V30 4129 H 403.682 2.53711 2.83434 0
M  V30 4130 H 404.994 3.1601 3.85927 0
M  V30 4131 H 404.148 1.81099 5.7904 0
M  V30 4132 H 402.887 1.0839 4.75503 0
M  V30 4133 H 401.892 3.35404 4.35642 0
M  V30 4134 H 403.117 4.08339 5.4262 0
M  V30 4135 H 401.063 1.99568 6.24907 0
M  V30 4136 H 400.98 3.69141 6.59751 0
M  V30 4137 H 402.248 2.73226 7.30047 0
M  V30 4138 N 406.477 -1.02803 1.19454 0
M  V30 4139 C 407.425 -2.13213 0.929673 0
M  V30 4140 C 408.419 -1.69011 -0.114806 0
M  V30 4141 O 409.625 -1.79967 0.0345147 0
M  V30 4142 H 406 -0.69662 0.28324 0
M  V30 4143 H 407.971 -2.32744 1.86743 0
M  V30 4144 C 406.72 -3.4429 0.485797 0
M  V30 4145 H 406.043 -3.7872 1.28105 0
M  V30 4146 H 407.483 -4.22638 0.339582 0
M  V30 4147 C 405.942 -3.27258 -0.800244 0
M  V30 4148 O 406.472 -3.55967 -1.86146 0
M  V30 4149 N 404.678 -2.80545 -0.75781 0
M  V30 4150 H 404.225 -2.57382 0.106039 0
M  V30 4151 H 404.183 -2.6953 -1.61867 0
M  V30 4152 N 407.956 -0.998596 -1.21925 0
M  V30 4153 C 408.886 -0.573688 -2.26343 0
M  V30 4154 C 409.867 0.402296 -1.65274 0
M  V30 4155 O 411.052 0.291683 -1.91997 0
M  V30 4156 C 408.182 0.106839 -3.47136 0
M  V30 4157 C 407.136 -0.788269 -4.20678 0
M  V30 4158 C 406.462 0.0254927 -5.34694 0
M  V30 4159 C 407.762 -2.08784 -4.78755 0
M  V30 4160 H 409.456 -1.44651 -2.62138 0
M  V30 4161 H 407.002 -0.696975 -1.26009 0
M  V30 4162 H 408.955 0.415531 -4.19346 0
M  V30 4163 H 407.679 1.01424 -3.10452 0
M  V30 4164 H 406.338 -1.08069 -3.50309 0
M  V30 4165 H 405.986 0.933989 -4.94253 0
M  V30 4166 H 405.686 -0.570437 -5.84825 0
M  V30 4167 H 407.21 0.328147 -6.09718 0
M  V30 4168 H 408.624 -1.84272 -5.42878 0
M  V30 4169 H 407.021 -2.63307 -5.39249 0
M  V30 4170 H 408.091 -2.76284 -3.98491 0
M  V30 4171 N 409.434 1.37368 -0.772513 0
M  V30 4172 C 410.683 1.98918 -0.333861 0
M  V30 4173 C 410.996 1.62017 1.09589 0
M  V30 4174 O 412.202 2.16676 1.63596 0
M  V30 4175 C 410.658 3.55735 -0.545971 0
M  V30 4176 C 410.266 4.01573 -1.98603 0
M  V30 4177 C 412.01 4.24156 -0.170979 0
M  V30 4178 C 409.917 5.51102 -2.1457 0
M  V30 4179 H 408.847 0.744214 -0.121085 0
M  V30 4180 H 411.498 1.56888 -0.95175 0
M  V30 4181 H 409.88 3.95748 0.141387 0
M  V30 4182 H 411.054 3.72803 -2.7084 0
M  V30 4183 H 409.369 3.45937 -2.31769 0
M  V30 4184 H 411.966 5.34024 -0.26878 0
M  V30 4185 H 412.309 4.06917 0.878855 0
M  V30 4186 H 412.842 3.89447 -0.810914 0
M  V30 4187 H 409.581 5.73268 -3.17875 0
M  V30 4188 H 409.101 5.81554 -1.46817 0
M  V30 4189 H 410.78 6.17083 -1.94468 0
M  V30 4190 N 410.912 0.523116 1.48665 0
M  V30 4191 C 411.86 -0.256859 2.31177 0
M  V30 4192 C 412.854 -0.94199 1.40794 0
M  V30 4193 O 414.06 -0.867157 1.57735 0
M  V30 4194 H 410.435 -0.1017 0.745091 0
M  V30 4195 H 412.406 0.458739 2.94853 0
M  V30 4196 C 411.155 -1.29503 3.22683 0
M  V30 4197 H 410.478 -0.777248 3.92172 0
M  V30 4198 H 411.918 -1.81233 3.83315 0
M  V30 4199 C 410.377 -2.32501 2.43813 0
M  V30 4200 O 410.907 -3.3881 2.15803 0
M  V30 4201 N 409.113 -2.05538 2.05432 0
M  V30 4202 H 408.66 -1.19104 2.28412 0
M  V30 4203 H 408.618 -2.74676 1.52973 0
M  V30 4204 N 412.39 -1.55475 0.257931 0
M  V30 4205 C 413.338 -2.23244 -0.653076 0
M  V30 4206 C 414.332 -1.22366 -1.17144 0
M  V30 4207 O 415.538 -1.40347 -1.12706 0
M  V30 4208 H 411.913 -0.716247 -0.229117 0
M  V30 4209 H 413.884 -2.98343 -0.0584788 0
M  V30 4210 C 412.633 -2.95401 -1.83395 0
M  V30 4211 H 411.956 -3.72802 -1.44424 0
M  V30 4212 H 413.396 -3.46165 -2.44838 0
M  V30 4213 C 411.855 -1.99895 -2.71189 0
M  V30 4214 O 412.385 -1.53909 -3.71046 0
M  V30 4215 N 410.591 -1.6676 -2.3799 0
M  V30 4216 H 410.138 -2.04352 -1.56837 0
M  V30 4217 H 410.096 -1.03127 -2.97005 0
M  V30 4218 N 413.868 0.0150385 -1.57593 0
M  V30 4219 C 414.831 0.995996 -2.06428 0
M  V30 4220 C 415.831 1.2818 -0.970903 0
M  V30 4221 O 417.021 1.22949 -1.23406 0
M  V30 4222 C 414.153 2.32506 -2.49307 0
M  V30 4223 H 415.346 0.573873 -2.94358 0
M  V30 4224 H 412.899 0.262186 -1.54085 0
M  V30 4225 H 413.634 2.79438 -1.64575 0
M  V30 4226 H 413.419 2.13087 -3.29145 0
M  V30 4227 H 414.909 3.02906 -2.87468 0
M  V30 4228 N 415.346 1.54954 0.287554 0
M  V30 4229 C 416.293 1.86834 1.35505 0
M  V30 4230 C 417.263 0.718452 1.49758 0
M  V30 4231 O 418.448 0.968358 1.644 0
M  V30 4232 C 415.588 2.13303 2.71286 0
M  V30 4233 C 414.701 3.40883 2.65373 0
M  V30 4234 C 413.836 3.57125 3.93236 0
M  V30 4235 C 412.875 4.78449 3.81776 0
M  V30 4236 N 412.012 4.91426 5.01443 0
M  V30 4237 H 416.852 2.77889 1.07619 0
M  V30 4238 H 414.389 1.37593 0.520241 0
M  V30 4239 H 416.347 2.26646 3.50267 0
M  V30 4240 H 414.977 1.25499 2.97405 0
M  V30 4241 H 414.029 3.36088 1.78182 0
M  V30 4242 H 415.341 4.29993 2.52799 0
M  V30 4243 H 414.495 3.70207 4.80658 0
M  V30 4244 H 413.234 2.66173 4.0866 0
M  V30 4245 H 412.239 4.65386 2.92738 0
M  V30 4246 H 413.464 5.70822 3.67884 0
M  V30 4247 H 411.41 4.03401 5.17304 0
M  V30 4248 H 411.327 5.74559 4.91343 0
M  V30 4249 H 412.595 5.08879 5.90477 0
M  V30 4250 N 416.824 -0.551391 1.4764 0
M  V30 4251 C 418.052 -1.33357 1.58189 0
M  V30 4252 C 418.467 -1.87342 0.234199 0
M  V30 4253 O 417.824 -1.65301 -0.77343 0
M  V30 4254 C 417.875 -2.49942 2.61173 0
M  V30 4255 O 417.596 -1.98187 3.90709 0
M  V30 4256 C 419.097 -3.42072 2.8196 0
M  V30 4257 H 416.317 -0.40631 0.533998 0
M  V30 4258 H 418.861 -0.667367 1.93304 0
M  V30 4259 H 417.016 -3.12489 2.28975 0
M  V30 4260 H 417.43 -2.74342 4.47031 0
M  V30 4261 H 418.904 -4.20278 3.57869 0
M  V30 4262 H 419.381 -3.95978 1.89995 0
M  V30 4263 H 419.987 -2.85336 3.15378 0
M  V30 4264 N 418.302 -1.35869 -0.798587 0
M  V30 4265 C 419.548 -1.2978 -1.55836 0
M  V30 4266 C 419.881 0.125322 -1.93795 0
M  V30 4267 O 419.156 1.07658 -1.61987 0
M  V30 4268 C 419.439 -2.21188 -2.84162 0
M  V30 4269 C 419.292 -3.72155 -2.52628 0
M  V30 4270 C 420.611 -2.11545 -3.85923 0
M  V30 4271 H 417.73 -0.472769 -0.565383 0
M  V30 4272 H 420.372 -1.66341 -0.918192 0
M  V30 4273 H 418.522 -1.90139 -3.38791 0
M  V30 4274 H 420.194 -4.13682 -2.04121 0
M  V30 4275 H 418.437 -3.92042 -1.85704 0
M  V30 4276 H 419.108 -4.31511 -3.44242 0
M  V30 4277 H 421.584 -2.38855 -3.40716 0
M  V30 4278 H 420.46 -2.77688 -4.73477 0
M  V30 4279 H 420.721 -1.09987 -4.282 0
M  V30 4280 N 419.78 1.02168 -1.19998 0
M  V30 4281 C 420.69 2.14069 -0.959774 0
M  V30 4282 C 421.706 1.73804 0.082655 0
M  V30 4283 O 422.882 2.01133 -0.103633 0
M  V30 4284 C 419.947 3.42936 -0.509459 0
M  V30 4285 C 419.008 3.97474 -1.62213 0
M  V30 4286 C 418.241 5.2019 -1.19321 0
M  V30 4287 O 418.464 5.70369 -0.0597726 0
M  V30 4288 O 417.398 5.67749 -1.99863 0
M  V30 4289 H 421.224 2.37199 -1.89658 0
M  V30 4290 H 418.809 1.12469 -0.983411 0
M  V30 4291 H 420.691 4.20551 -0.267322 0
M  V30 4292 H 419.366 3.21234 0.398821 0
M  V30 4293 H 418.273 3.21161 -1.9185 0
M  V30 4294 H 419.606 4.23555 -2.50723 0
M  V30 4295 N 421.258 1.00505 1.21394 0
M  V30 4296 C 422.506 0.686415 1.90086 0
M  V30 4297 C 422.827 -0.785264 1.7849 0
M  V30 4298 O 422.097 -1.56387 1.17983 0
M  V30 4299 H 420.677 0.2509 0.703604 0
M  V30 4300 H 423.339 1.27417 1.47482 0
M  V30 4301 H 422.435 0.959621 2.96981 0
M  V30 4302 N 422.737 -1.36956 0.779787 0
M  V30 4303 C 423.983 -1.99787 0.348281 0
M  V30 4304 C 424.316 -1.61756 -1.07465 0
M  V30 4305 O 423.591 -0.867639 -1.74075 0
M  V30 4306 C 423.874 -3.56597 0.50104 0
M  V30 4307 C 423.727 -4.04513 1.96697 0
M  V30 4308 C 425.046 -4.40008 -0.0898097 0
M  V30 4309 H 422.165 -0.725796 0.128022 0
M  V30 4310 H 424.807 -1.62514 0.984331 0
M  V30 4311 H 422.957 -3.88479 -0.0404347 0
M  V30 4312 H 424.629 -3.83161 2.56876 0
M  V30 4313 H 422.872 -3.56408 2.47297 0
M  V30 4314 H 423.543 -5.1352 2.02486 0
M  V30 4315 H 426.019 -4.14431 0.372293 0
M  V30 4316 H 424.895 -5.4888 0.0471605 0
M  V30 4317 H 425.156 -4.26035 -1.18096 0
M  V30 4318 N 424.215 -0.530993 -1.48385 0
M  V30 4319 C 425.162 0.231223 -2.29639 0
M  V30 4320 C 426.132 0.932864 -1.37429 0
M  V30 4321 O 427.317 0.933692 -1.66394 0
M  V30 4322 C 424.457 1.27155 -3.2082 0
M  V30 4323 C 423.57 0.578655 -4.28107 0
M  V30 4324 C 422.705 1.602 -5.06467 0
M  V30 4325 C 421.744 0.892625 -6.05556 0
M  V30 4326 N 420.881 1.86157 -6.76971 0
M  V30 4327 H 425.721 -0.467848 -2.94305 0
M  V30 4328 H 423.258 -0.242556 -1.45086 0
M  V30 4329 H 425.216 1.88703 -3.72085 0
M  V30 4330 H 423.846 1.939 -2.58075 0
M  V30 4331 H 422.898 -0.150782 -3.80101 0
M  V30 4332 H 424.21 0.0217065 -4.98795 0
M  V30 4333 H 423.364 2.29173 -5.61751 0
M  V30 4334 H 422.103 2.19285 -4.35621 0
M  V30 4335 H 421.108 0.188829 -5.49476 0
M  V30 4336 H 422.333 0.307878 -6.78402 0
M  V30 4337 H 420.279 2.44147 -6.08875 0
M  V30 4338 H 420.196 1.35608 -7.43738 0
M  V30 4339 H 421.464 2.54325 -7.36844 0
M  V30 4340 N 425.693 1.55336 -0.266172 0
M  V30 4341 C 426.656 2.20878 0.612001 0
M  V30 4342 C 427.656 1.18388 1.08816 0
M  V30 4343 O 428.846 1.4335 0.989774 0
M  V30 4344 C 425.978 2.86765 1.84332 0
M  V30 4345 H 427.171 2.99873 0.0398718 0
M  V30 4346 H 424.724 1.56291 -0.0167309 0
M  V30 4347 H 425.459 2.11759 2.45619 0
M  V30 4348 H 425.244 3.61862 1.5099 0
M  V30 4349 H 426.734 3.36867 2.46801 0
M  V30 4350 N 427.171 -0.0066808 1.57599 0
M  V30 4351 C 428.101 -0.999296 2.11036 0
M  V30 4352 C 429.082 -1.36278 1.01795 0
M  V30 4353 O 430.267 -1.4477 1.29442 0
M  V30 4354 C 427.397 -2.29328 2.60818 0
M  V30 4355 C 426.351 -2.07159 3.74525 0
M  V30 4356 C 425.677 -3.42512 4.10596 0
M  V30 4357 C 426.977 -1.43959 5.02069 0
M  V30 4358 H 428.671 -0.554382 2.94223 0
M  V30 4359 H 426.217 -0.265221 1.41536 0
M  V30 4360 H 428.17 -2.99117 2.96828 0
M  V30 4361 H 426.894 -2.7592 1.74745 0
M  V30 4362 H 425.553 -1.39797 3.38899 0
M  V30 4363 H 425.201 -3.86795 3.21556 0
M  V30 4364 H 424.901 -3.28498 4.87199 0
M  V30 4365 H 426.425 -4.13628 4.4916 0
M  V30 4366 H 427.839 -2.03696 5.35893 0
M  V30 4367 H 426.236 -1.40452 5.83432 0
M  V30 4368 H 427.306 -0.407992 4.83181 0
M  V30 4369 N 428.649 -1.55105 -0.279332 0
M  V30 4370 C 429.898 -1.74618 -1.00952 0
M  V30 4371 C 430.211 -0.551096 -1.87676 0
M  V30 4372 O 431.417 -0.628507 -2.64125 0
M  V30 4373 C 429.873 -3.09025 -1.84476 0
M  V30 4374 C 429.481 -4.36081 -1.0265 0
M  V30 4375 C 431.225 -3.37891 -2.56963 0
M  V30 4376 C 429.132 -5.6153 -1.85576 0
M  V30 4377 H 428.062 -0.650868 -0.38064 0
M  V30 4378 H 430.713 -1.81569 -0.265475 0
M  V30 4379 H 429.095 -2.96095 -2.62952 0
M  V30 4380 H 430.269 -4.59909 -0.286354 0
M  V30 4381 H 428.584 -4.14312 -0.416464 0
M  V30 4382 H 431.181 -4.28822 -3.19399 0
M  V30 4383 H 431.524 -2.57737 -3.26921 0
M  V30 4384 H 432.057 -3.5189 -1.85522 0
M  V30 4385 H 428.796 -6.44413 -1.2005 0
M  V30 4386 H 428.316 -5.41854 -2.57204 0
M  V30 4387 H 429.995 -5.99594 -2.43096 0
M  V30 4388 N 430.127 0.543554 -1.4793 0
M  V30 4389 C 431.404 1.30458 -1.4574 0
M  V30 4390 C 431.784 2.1048 -0.161692 0
M  V30 4391 O 431.132 2.11831 0.856734 0
M  V30 4392 C 431.342 2.19754 -2.71126 0
M  V30 4393 C 432.69 2.80334 -3.18901 0
M  V30 4394 O 433.714 2.30049 -2.71948 0
M  V30 4395 O 432.573 3.71766 -4.00565 0
M  V30 4396 H 429.667 0.588117 -0.581418 0
M  V30 4397 H 432.213 0.561328 -1.60147 0
M  V30 4398 H 430.985 1.60316 -3.56952 0
M  V30 4399 H 430.608 3.01351 -2.59371 0
M  V30 4400 N 431.605 1.3629 0.791371 0
M  V30 4401 C 432.515 1.32606 1.93527 0
M  V30 4402 C 433.531 0.228541 1.72493 0
M  V30 4403 O 434.707 0.460571 1.96063 0
M  V30 4404 C 431.772 1.11271 3.28359 0
M  V30 4405 C 430.833 2.3048 3.62185 0
M  V30 4406 C 430.066 2.10154 4.90583 0
M  V30 4407 O 430.289 1.07572 5.60165 0
M  V30 4408 O 429.223 2.97884 5.23019 0
M  V30 4409 H 433.049 2.28909 1.99585 0
M  V30 4410 H 430.634 1.16818 0.931344 0
M  V30 4411 H 432.516 1.01283 4.09047 0
M  V30 4412 H 431.191 0.180292 3.23198 0
M  V30 4413 H 430.098 2.46036 2.81811 0
M  V30 4414 H 431.431 3.22221 3.72068 0
M  V30 4415 N 433.083 -1.0153 1.20538 0
M  V30 4416 C 434.332 -1.74558 1.01057 0
M  V30 4417 C 434.645 -1.90168 -0.457756 0
M  V30 4418 O 435.851 -2.60301 -0.771722 0
M  V30 4419 C 434.307 -3.13963 1.75941 0
M  V30 4420 C 433.915 -3.06361 3.26875 0
M  V30 4421 C 435.659 -3.91191 1.64832 0
M  V30 4422 C 433.566 -4.40782 3.94291 0
M  V30 4423 H 432.496 -0.654417 0.374505 0
M  V30 4424 H 435.147 -1.13521 1.44171 0
M  V30 4425 H 433.529 -3.75549 1.25614 0
M  V30 4426 H 434.703 -2.54074 3.84425 0
M  V30 4427 H 433.018 -2.42625 3.38411 0
M  V30 4428 H 435.615 -4.90644 2.12539 0
M  V30 4429 H 435.958 -4.11884 0.604745 0
M  V30 4430 H 436.491 -3.36236 2.12579 0
M  V30 4431 H 433.23 -4.25292 4.98805 0
M  V30 4432 H 432.75 -4.9307 3.41529 0
M  V30 4433 H 434.429 -5.09621 3.98617 0
M  V30 4434 N 434.561 -1.01147 -1.20859 0
M  V30 4435 C 435.491 -0.597663 -2.25722 0
M  V30 4436 C 436.472 0.384744 -1.65692 0
M  V30 4437 O 437.657 0.271303 -1.92296 0
M  V30 4438 C 434.787 0.0700149 -3.47229 0
M  V30 4439 C 433.741 -0.832843 -4.19819 0
M  V30 4440 C 433.067 -0.0312202 -5.34691 0
M  V30 4441 C 434.367 -2.1385 -4.76514 0
M  V30 4442 H 436.061 -1.47423 -2.60589 0
M  V30 4443 H 433.607 -0.710301 -1.25263 0
M  V30 4444 H 435.56 0.37103 -4.19763 0
M  V30 4445 H 434.284 0.981259 -3.11511 0
M  V30 4446 H 432.943 -1.11778 -3.49144 0
M  V30 4447 H 432.591 0.881515 -4.95215 0
M  V30 4448 H 432.291 -0.632434 -5.84187 0
M  V30 4449 H 433.815 0.26346 -6.10031 0
M  V30 4450 H 435.229 -1.9002 -5.40893 0
M  V30 4451 H 433.626 -2.69012 -5.36426 0
M  V30 4452 H 434.696 -2.80495 -3.95538 0
M  V30 4453 N 436.039 1.36541 -0.78704 0
M  V30 4454 C 437.002 2.28413 -0.189778 0
M  V30 4455 C 438.002 1.48719 0.611499 0
M  V30 4456 O 439.192 1.68737 0.432842 0
M  V30 4457 C 436.324 3.32824 0.737638 0
M  V30 4458 H 437.517 2.82743 -0.999831 0
M  V30 4459 H 435.07 1.46065 -0.556298 0
M  V30 4460 H 435.805 2.83646 1.57212 0
M  V30 4461 H 435.59 3.91752 0.165044 0
M  V30 4462 H 437.08 4.0144 1.15047 0
M  V30 4463 N 437.518 0.538854 1.48102 0
M  V30 4464 C 438.481 -0.208395 2.28251 0
M  V30 4465 C 439.481 -0.859656 1.35892 0
M  V30 4466 O 440.671 -0.71834 1.58699 0
M  V30 4467 C 437.803 -1.30252 3.15035 0
M  V30 4468 H 438.996 0.495407 2.9578 0
M  V30 4469 H 436.549 0.295112 1.53489 0
M  V30 4470 H 437.284 -2.0393 2.52157 0
M  V30 4471 H 437.069 -0.840551 3.82985 0
M  V30 4472 H 438.559 -1.82787 3.75471 0
M  V30 4473 N 438.996 -1.55193 0.274407 0
M  V30 4474 C 439.926 -2.25471 -0.607032 0
M  V30 4475 C 440.907 -1.24461 -1.15946 0
M  V30 4476 O 442.092 -1.53179 -1.19373 0
M  V30 4477 C 439.222 -2.97526 -1.79153 0
M  V30 4478 C 438.176 -4.05459 -1.37067 0
M  V30 4479 C 437.502 -4.65084 -2.6382 0
M  V30 4480 C 438.802 -5.19691 -0.521389 0
M  V30 4481 H 440.496 -2.99393 -0.0209343 0
M  V30 4482 H 438.042 -1.43997 -0.00862866 0
M  V30 4483 H 439.995 -3.45402 -2.41404 0
M  V30 4484 H 438.719 -2.21138 -2.40344 0
M  V30 4485 H 437.378 -3.58393 -0.771355 0
M  V30 4486 H 437.026 -3.85365 -3.23268 0
M  V30 4487 H 436.726 -5.37961 -2.36372 0
M  V30 4488 H 438.25 -5.15708 -3.26921 0
M  V30 4489 H 439.664 -5.63623 -1.04889 0
M  V30 4490 H 438.061 -5.99126 -0.341825 0
M  V30 4491 H 439.131 -4.82713 0.46 0
M  V30 4492 N 440.474 -0.00167713 -1.576 0
M  V30 4493 C 441.885 0.54091 -1.78693 0
M  V30 4494 C 442.236 1.7386 -0.909247 0
M  V30 4495 O 441.361 2.16109 -0.112176 0
M  V30 4496 C 441.956 0.98806 -3.24072 0
M  V30 4497 C 440.515 1.47594 -3.46256 0
M  V30 4498 C 439.662 0.42792 -2.73978 0
M  V30 4499 H 442.613 -0.22784 -1.57056 0
M  V30 4500 H 442.634 1.85398 -3.32277 0
M  V30 4501 H 442.146 0.116164 -3.87926 0
M  V30 4502 H 440.247 2.36868 -2.87618 0
M  V30 4503 H 440.36 1.50225 -4.54939 0
M  V30 4504 H 438.724 0.889934 -2.38647 0
M  V30 4505 H 439.507 -0.435038 -3.40532 0
M  V30 4506 N 441.952 1.55251 0.271103 0
M  V30 4507 C 442.899 1.88261 1.33516 0
M  V30 4508 C 443.869 0.734296 1.48988 0
M  V30 4509 O 445.054 0.985741 1.63364 0
M  V30 4510 C 442.194 2.16168 2.69008 0
M  V30 4511 C 441.307 3.43678 2.61743 0
M  V30 4512 C 440.442 3.61276 3.89427 0
M  V30 4513 C 439.481 4.82472 3.7668 0
M  V30 4514 N 438.618 4.96717 4.96202 0
M  V30 4515 H 443.458 2.79015 1.04665 0
M  V30 4516 H 440.995 1.38137 0.505618 0
M  V30 4517 H 442.953 2.30349 3.47844 0
M  V30 4518 H 441.583 1.28646 2.96057 0
M  V30 4519 H 440.635 3.37959 1.74607 0
M  V30 4520 H 441.947 4.3265 2.48224 0
M  V30 4521 H 441.101 3.75284 4.76704 0
M  V30 4522 H 439.84 2.70492 4.05814 0
M  V30 4523 H 438.845 4.68465 2.87786 0
M  V30 4524 H 440.07 5.74692 3.61809 0
M  V30 4525 H 438.016 4.08865 5.12997 0
M  V30 4526 H 437.933 5.79738 4.85222 0
M  V30 4527 H 439.201 5.15113 5.85046 0
M  V30 4528 N 443.43 -0.535701 1.48216 0
M  V30 4529 C 444.658 -1.31671 1.59594 0
M  V30 4530 C 445.073 -1.87083 0.254056 0
M  V30 4531 O 444.43 -1.66112 -0.755854 0
M  V30 4532 C 444.481 -2.47158 2.63809 0
M  V30 4533 O 444.202 -1.94032 3.92789 0
M  V30 4534 C 445.703 -3.39062 2.85573 0
M  V30 4535 H 442.923 -0.400623 0.538277 0
M  V30 4536 H 445.467 -0.646827 1.94001 0
M  V30 4537 H 443.622 -3.10043 2.32276 0
M  V30 4538 H 444.036 -2.69585 4.49916 0
M  V30 4539 H 445.51 -4.16459 3.62306 0
M  V30 4540 H 445.987 -3.93941 1.94184 0
M  V30 4541 H 446.593 -2.81975 3.18387 0
M  V30 4542 N 444.908 -1.36708 -0.784132 0
M  V30 4543 C 446.185 -1.21776 -1.53069 0
M  V30 4544 C 446.565 0.193876 -2.10208 0
M  V30 4545 O 445.913 1.20012 -1.94446 0
M  V30 4546 C 446.123 -2.30395 -2.62143 0
M  V30 4547 C 447.471 -2.67325 -3.29882 0
M  V30 4548 O 448.495 -2.29478 -2.7243 0
M  V30 4549 O 447.354 -3.32485 -4.33724 0
M  V30 4550 H 444.448 -0.474459 -0.677361 0
M  V30 4551 H 446.994 -1.48454 -0.82216 0
M  V30 4552 H 445.766 -3.2498 -2.17953 0
M  V30 4553 H 445.389 -2.05112 -3.40609 0
M  V30 4554 N 446.386 1.0089 -1.21074 0
M  V30 4555 C 447.614 1.78191 -1.05145 0
M  V30 4556 C 448.029 1.84537 0.398952 0
M  V30 4557 O 447.386 1.30393 1.27687 0
M  V30 4558 C 447.437 3.22288 -1.63746 0
M  V30 4559 O 447.158 3.16315 -3.03111 0
M  V30 4560 C 448.659 4.16106 -1.52875 0
M  V30 4561 H 445.879 0.560129 -0.369454 0
M  V30 4562 H 448.423 1.26945 -1.60328 0
M  V30 4563 H 446.578 3.70655 -1.12664 0
M  V30 4564 H 446.992 4.06817 -3.31059 0
M  V30 4565 H 448.466 5.15026 -1.98626 0
M  V30 4566 H 448.943 4.36541 -0.482521 0
M  V30 4567 H 449.549 3.73625 -2.03185 0
M  V30 4568 N 447.864 1.01787 1.20321 0
M  V30 4569 C 449.094 0.72614 1.93419 0
M  V30 4570 C 449.502 -0.717317 1.75075 0
M  V30 4571 O 448.845 -1.49836 1.06278 0
M  V30 4572 C 448.907 0.983621 3.45782 0
M  V30 4573 C 448.571 2.41645 3.87888 0
M  V30 4574 C 449.568 3.39732 3.93545 0
M  V30 4575 C 447.253 2.75752 4.19841 0
M  V30 4576 C 449.247 4.69988 4.30569 0
M  V30 4577 C 446.934 4.06221 4.56539 0
M  V30 4578 C 447.932 5.0315 4.61876 0
M  V30 4579 O 447.62 6.31284 4.97731 0
M  V30 4580 H 447.352 0.265824 0.621541 0
M  V30 4581 H 449.906 1.3623 1.53722 0
M  V30 4582 H 448.136 0.290301 3.85609 0
M  V30 4583 H 449.825 0.683279 4.00108 0
M  V30 4584 H 450.591 3.14718 3.69022 0
M  V30 4585 H 446.47 2.00993 4.14877 0
M  V30 4586 H 450.014 5.45642 4.3465 0
M  V30 4587 H 445.911 4.31013 4.80518 0
M  V30 4588 H 446.679 6.35591 5.15719 0
M  V30 4589 N 449.342 -1.36122 0.79427 0
M  V30 4590 C 450.289 -2.29982 0.194101 0
M  V30 4591 C 451.259 -1.52214 -0.664833 0
M  V30 4592 O 452.444 -1.80702 -0.612498 0
M  V30 4593 C 449.584 -3.38706 -0.661244 0
M  V30 4594 C 448.697 -4.31456 0.216766 0
M  V30 4595 C 447.832 -5.27265 -0.645411 0
M  V30 4596 C 446.871 -6.11653 0.233756 0
M  V30 4597 N 446.008 -6.99636 -0.587682 0
M  V30 4598 H 450.848 -2.80722 0.999965 0
M  V30 4599 H 448.385 -1.38172 0.504677 0
M  V30 4600 H 450.343 -4.00394 -1.17219 0
M  V30 4601 H 448.973 -2.89274 -1.43249 0
M  V30 4602 H 448.025 -3.7088 0.845724 0
M  V30 4603 H 449.337 -4.90724 0.893973 0
M  V30 4604 H 448.491 -5.94266 -1.22198 0
M  V30 4605 H 447.23 -4.68463 -1.35623 0
M  V30 4606 H 446.235 -5.4361 0.82269 0
M  V30 4607 H 447.46 -6.72531 0.942247 0
M  V30 4608 H 445.406 -6.43337 -1.2827 0
M  V30 4609 H 445.323 -7.55993 0.0317402 0
M  V30 4610 H 446.591 -7.71001 -1.14792 0
M  V30 4611 N 450.82 -0.546701 -1.47814 0
M  V30 4612 C 451.75 0.195317 -2.32682 0
M  V30 4613 C 452.731 0.918981 -1.43139 0
M  V30 4614 O 453.916 0.901501 -1.72008 0
M  V30 4615 C 451.046 1.23237 -3.247 0
M  V30 4616 C 450 0.625818 -4.234 0
M  V30 4617 C 449.326 1.76674 -5.04669 0
M  V30 4618 C 450.626 -0.413515 -5.2066 0
M  V30 4619 H 452.32 -0.513184 -2.94969 0
M  V30 4620 H 449.866 -0.248241 -1.41844 0
M  V30 4621 H 451.819 1.75955 -3.82907 0
M  V30 4622 H 450.543 1.97067 -2.60446 0
M  V30 4623 H 449.202 0.120023 -3.66403 0
M  V30 4624 H 448.85 2.49383 -4.36826 0
M  V30 4625 H 448.55 1.36673 -5.71484 0
M  V30 4626 H 450.074 2.29738 -5.65732 0
M  V30 4627 H 451.488 0.0272042 -5.73294 0
M  V30 4628 H 449.885 -0.731825 -5.95621 0
M  V30 4629 H 450.955 -1.31325 -4.66778 0
M  V30 4630 N 452.299 1.55045 -0.282633 0
M  V30 4631 C 453.548 1.98938 0.332667 0
M  V30 4632 C 453.861 1.17455 1.56409 0
M  V30 4633 O 455.067 1.51527 2.25282 0
M  V30 4634 C 453.523 3.54105 0.643226 0
M  V30 4635 C 453.131 4.44374 -0.568814 0
M  V30 4636 C 454.875 4.06569 1.22074 0
M  V30 4637 C 452.782 5.90943 -0.232426 0
M  V30 4638 H 451.712 0.743043 0.128075 0
M  V30 4639 H 454.363 1.79341 -0.388464 0
M  V30 4640 H 452.745 3.69532 1.42346 0
M  V30 4641 H 453.919 4.40718 -1.34551 0
M  V30 4642 H 452.234 4.02585 -1.06369 0
M  V30 4643 H 454.831 5.13626 1.48635 0
M  V30 4644 H 455.174 3.56057 2.15707 0
M  V30 4645 H 455.707 3.94612 0.502621 0
M  V30 4646 H 452.446 6.45567 -1.13683 0
M  V30 4647 H 451.966 5.9765 0.507357 0
M  V30 4648 H 453.645 6.4677 0.172657 0
M  V30 4649 N 453.777 0.010035 1.57597 0
M  V30 4650 C 454.707 -0.976857 2.12084 0
M  V30 4651 C 455.688 -1.35191 1.03235 0
M  V30 4652 O 456.873 -1.43389 1.3097 0
M  V30 4653 C 454.003 -2.26548 2.63236 0
M  V30 4654 C 452.957 -2.03175 3.76701 0
M  V30 4655 C 452.283 -3.38138 4.14206 0
M  V30 4656 C 453.583 -1.38625 5.03568 0
M  V30 4657 H 455.277 -0.523145 2.94794 0
M  V30 4658 H 452.823 -0.250195 1.4181 0
M  V30 4659 H 454.776 -2.95952 2.99984 0
M  V30 4660 H 453.5 -2.74051 1.77661 0
M  V30 4661 H 452.159 -1.36195 3.40362 0
M  V30 4662 H 451.807 -3.83363 3.25641 0
M  V30 4663 H 451.507 -3.23312 4.90656 0
M  V30 4664 H 453.031 -4.08841 4.53521 0
M  V30 4665 H 454.445 -1.98 5.38023 0
M  V30 4666 H 452.842 -1.34256 5.84889 0
M  V30 4667 H 453.912 -0.356722 4.83586 0
M  V30 4668 N 455.255 -1.55392 -0.262866 0
M  V30 4669 C 456.203 -1.8977 -1.345 0
M  V30 4670 C 457.197 -0.775063 -1.50629 0
M  V30 4671 O 458.403 -0.959519 -1.52293 0
M  V30 4672 H 454.778 -0.602467 -0.450041 0
M  V30 4673 H 456.749 -2.80147 -1.02762 0
M  V30 4674 C 455.498 -2.19501 -2.69657 0
M  V30 4675 H 454.821 -3.05378 -2.5804 0
M  V30 4676 H 456.261 -2.47469 -3.44289 0
M  V30 4677 C 454.72 -1.00597 -3.21531 0
M  V30 4678 O 455.25 -0.245768 -4.00947 0
M  V30 4679 N 453.456 -0.800911 -2.79345 0
M  V30 4680 H 453.003 -1.42079 -2.14875 0
M  V30 4681 H 452.961 -0.00697996 -3.14399 0
M  V30 4682 N 456.733 0.527833 -1.48498 0
M  V30 4683 C 457.981 1.28101 -1.56316 0
M  V30 4684 C 458.302 1.9352 -0.239781 0
M  V30 4685 O 457.572 1.81433 0.738849 0
M  V30 4686 H 456.152 0.475793 -0.575873 0
M  V30 4687 H 458.814 0.614052 -1.84974 0
M  V30 4688 H 457.91 2.05916 -2.34532 0
M  V30 4689 N 458.211 1.37122 0.776871 0
M  V30 4690 C 459.158 1.3247 1.88998 0
M  V30 4691 C 460.128 0.191143 1.64997 0
M  V30 4692 O 461.313 0.379683 1.86984 0
M  V30 4693 C 458.453 1.13241 3.25992 0
M  V30 4694 C 457.566 2.35782 3.61982 0
M  V30 4695 C 456.701 2.09465 4.88158 0
M  V30 4696 C 455.74 3.279 5.16864 0
M  V30 4697 N 454.877 3.01167 6.34226 0
M  V30 4698 H 459.717 2.27642 1.9231 0
M  V30 4699 H 457.254 1.13125 0.94027 0
M  V30 4700 H 459.212 1.00115 4.0501 0
M  V30 4701 H 457.842 0.217186 3.22069 0
M  V30 4702 H 456.894 2.59666 2.77989 0
M  V30 4703 H 458.206 3.24125 3.79137 0
M  V30 4704 H 457.36 1.93341 5.75069 0
M  V30 4705 H 456.099 1.18452 4.73097 0
M  V30 4706 H 455.104 3.44569 4.2843 0
M  V30 4707 H 456.329 4.19757 5.33836 0
M  V30 4708 H 454.275 2.12779 6.20533 0
M  V30 4709 H 454.192 3.83052 6.51772 0
M  V30 4710 H 455.46 2.88649 7.24087 0
M  V30 4711 N 459.689 -1.00246 1.21608 0
M  V30 4712 C 460.917 -1.77631 1.06089 0
M  V30 4713 C 461.332 -1.84746 -0.38916 0
M  V30 4714 O 460.689 -1.31068 -1.26994 0
M  V30 4715 C 460.74 -3.21415 1.65453 0
M  V30 4716 O 460.461 -3.14703 3.04785 0
M  V30 4717 C 461.962 -4.15289 1.55079 0
M  V30 4718 H 459.182 -0.558162 0.37242 0
M  V30 4719 H 461.726 -1.26093 1.60999 0
M  V30 4720 H 459.881 -3.70053 1.14629 0
M  V30 4721 H 460.295 -4.05056 3.33212 0
M  V30 4722 H 461.769 -5.13965 2.01355 0
M  V30 4723 H 462.246 -4.36279 0.505665 0
M  V30 4724 H 462.852 -3.72543 2.05163 0
M  V30 4725 N 461.167 -1.02423 -1.1978 0
M  V30 4726 C 462.097 -0.62157 -2.25075 0
M  V30 4727 C 463.078 0.367148 -1.6609 0
M  V30 4728 O 464.263 0.250892 -1.92573 0
M  V30 4729 C 461.393 0.0331826 -3.47284 0
M  V30 4730 C 460.347 -0.877323 -4.18912 0
M  V30 4731 C 459.673 -0.0879296 -5.34628 0
M  V30 4732 C 460.973 -2.18892 -4.74219 0
M  V30 4733 H 462.667 -1.50179 -2.59011 0
M  V30 4734 H 460.213 -0.723547 -1.24502 0
M  V30 4735 H 462.166 0.326488 -4.20133 0
M  V30 4736 H 460.89 0.948164 -3.12534 0
M  V30 4737 H 459.549 -1.15475 -3.47938 0
M  V30 4738 H 459.197 0.828941 -4.96123 0
M  V30 4739 H 458.897 -0.694359 -5.83483 0
M  V30 4740 H 460.421 0.198743 -6.10276 0
M  V30 4741 H 461.835 -1.95746 -5.38847 0
M  V30 4742 H 460.232 -2.74686 -5.33542 0
M  V30 4743 H 461.302 -2.84674 -3.92541 0
M  V30 4744 N 462.645 1.35699 -0.801477 0
M  V30 4745 C 463.592 2.29876 -0.206294 0
M  V30 4746 C 464.562 1.52565 0.656752 0
M  V30 4747 O 465.747 1.81024 0.602906 0
M  V30 4748 C 462.887 3.39052 0.643272 0
M  V30 4749 C 462 4.31335 -0.239644 0
M  V30 4750 C 461.135 5.27599 0.61744 0
M  V30 4751 C 460.174 6.11521 -0.26619 0
M  V30 4752 N 459.311 6.99938 0.550571 0
M  V30 4753 H 464.151 2.80187 -1.01484 0
M  V30 4754 H 461.688 1.37902 -0.511997 0
M  V30 4755 H 463.646 4.0101 1.15094 0
M  V30 4756 H 462.276 2.9003 1.41713 0
M  V30 4757 H 461.328 3.70426 -0.865381 0
M  V30 4758 H 462.64 4.90243 -0.919985 0
M  V30 4759 H 461.794 5.94906 1.19045 0
M  V30 4760 H 460.533 4.69176 1.33137 0
M  V30 4761 H 459.538 5.43166 -0.851507 0
M  V30 4762 H 460.763 6.72022 -0.9779 0
M  V30 4763 H 458.709 6.44008 1.24856 0
M  V30 4764 H 458.626 7.55966 -0.071832 0
M  V30 4765 H 459.894 7.71599 1.10702 0
M  V30 4766 N 464.123 0.554532 1.47522 0
M  V30 4767 C 465.371 0.0294208 2.02079 0
M  V30 4768 C 465.692 -1.32411 1.43151 0
M  V30 4769 O 464.962 -1.863 0.605728 0
M  V30 4770 H 463.542 0.00788672 0.746958 0
M  V30 4771 H 466.204 0.723934 1.80956 0
M  V30 4772 H 465.3 -0.0606745 3.12041 0
M  V30 4773 N 465.601 -1.54893 0.290851 0
M  V30 4774 C 466.511 -2.26812 -0.59945 0
M  V30 4775 C 467.527 -1.29963 -1.15696 0
M  V30 4776 O 468.703 -1.62928 -1.18391 0
M  V30 4777 C 465.768 -2.98716 -1.75982 0
M  V30 4778 C 464.829 -4.1108 -1.2374 0
M  V30 4779 C 464.062 -4.79546 -2.34246 0
M  V30 4780 O 464.285 -4.47309 -3.53936 0
M  V30 4781 O 463.219 -5.67165 -2.01512 0
M  V30 4782 H 467.045 -3.03696 -0.0163561 0
M  V30 4783 H 464.63 -1.49289 0.0576755 0
M  V30 4784 H 466.512 -3.43851 -2.43607 0
M  V30 4785 H 465.187 -2.24737 -2.3297 0
M  V30 4786 H 464.094 -3.70367 -0.527163 0
M  V30 4787 H 465.427 -4.87007 -0.71307 0
M  V30 4788 N 467.08 -0.0183926 -1.57589 0
M  V30 4789 C 468.308 0.673046 -1.95647 0
M  V30 4790 C 468.723 1.66275 -0.894312 0
M  V30 4791 O 468.08 1.82072 0.124975 0
M  V30 4792 C 468.131 1.38884 -3.33756 0
M  V30 4793 O 467.852 0.438806 -4.35897 0
M  V30 4794 C 469.353 2.1731 -3.86383 0
M  V30 4795 H 466.573 0.186292 -0.644621 0
M  V30 4796 H 469.117 -0.0749748 -2.04363 0
M  V30 4797 H 467.272 2.08835 -3.26293 0
M  V30 4798 H 467.686 0.945869 -5.15901 0
M  V30 4799 H 469.16 2.62863 -4.85394 0
M  V30 4800 H 469.637 3.00764 -3.20059 0
M  V30 4801 H 470.243 1.52339 -3.97081 0
M  V30 4802 N 468.558 1.5553 0.254621 0
M  V30 4803 C 469.786 1.81046 1.00149 0
M  V30 4804 C 470.201 0.593047 1.79244 0
M  V30 4805 O 469.558 -0.438196 1.77161 0
M  V30 4806 C 469.609 3.04684 1.94551 0
M  V30 4807 O 469.33 4.21725 1.18658 0
M  V30 4808 C 470.831 3.42943 2.80901 0
M  V30 4809 H 468.051 0.602653 0.295044 0
M  V30 4810 H 470.595 2.02576 0.279842 0
M  V30 4811 H 468.75 2.85226 2.62154 0
M  V30 4812 H 469.164 4.91746 1.82445 0
M  V30 4813 H 470.638 4.32576 3.42902 0
M  V30 4814 H 471.115 2.63176 3.51617 0
M  V30 4815 H 471.721 3.64724 2.18762 0
M  V30 4816 N 470.036 -0.519951 1.48776 0
M  V30 4817 C 471.264 -1.29971 1.60982 0
M  V30 4818 C 471.679 -1.86803 0.273885 0
M  V30 4819 O 471.036 -1.66904 -0.738193 0
M  V30 4820 C 471.087 -2.44346 2.66415 0
M  V30 4821 O 470.808 -1.89855 3.94825 0
M  V30 4822 C 472.309 -3.36014 2.89153 0
M  V30 4823 H 469.529 -0.394891 0.542496 0
M  V30 4824 H 472.073 -0.626214 1.94676 0
M  V30 4825 H 470.228 -3.07562 2.35552 0
M  V30 4826 H 470.642 -2.64798 4.5275 0
M  V30 4827 H 472.116 -4.12593 3.66703 0
M  V30 4828 H 472.593 -3.91859 1.98351 0
M  V30 4829 H 473.199 -2.78582 3.21359 0
M  V30 4830 N 471.514 -1.37532 -0.769588 0
M  V30 4831 C 472.424 -1.35668 -1.91393 0
M  V30 4832 C 473.44 -0.255954 -1.72107 0
M  V30 4833 O 474.616 -0.491704 -1.95305 0
M  V30 4834 C 471.681 -1.16481 -3.26547 0
M  V30 4835 C 470.742 -2.36212 -3.58472 0
M  V30 4836 C 469.975 -2.17932 -4.87177 0
M  V30 4837 O 470.198 -1.1647 -5.58382 0
M  V30 4838 O 469.132 -3.06167 -5.18214 0
M  V30 4839 H 472.958 -2.32055 -1.95918 0
M  V30 4840 H 470.543 -1.18284 -0.912641 0
M  V30 4841 H 472.425 -1.07778 -4.07384 0
M  V30 4842 H 471.1 -0.231687 -3.2287 0
M  V30 4843 H 470.007 -2.50488 -2.77861 0
M  V30 4844 H 471.34 -3.281 -3.66894 0
M  V30 4845 N 472.992 0.995999 -1.22138 0
M  V30 4846 C 473.955 2.06711 -0.990109 0
M  V30 4847 C 474.955 1.60744 0.0422978 0
M  V30 4848 O 476.145 1.73095 -0.195895 0
M  V30 4849 C 473.277 3.37288 -0.49491 0
M  V30 4850 H 474.47 2.28661 -1.94047 0
M  V30 4851 H 472.023 1.16711 -1.03963 0
M  V30 4852 H 472.758 3.21022 0.459948 0
M  V30 4853 H 472.543 3.71986 -1.23971 0
M  V30 4854 H 474.033 4.16103 -0.353253 0
M  V30 4855 N 474.47 1.03057 1.19235 0
M  V30 4856 C 475.716 0.729098 1.89241 0
M  V30 4857 C 476.049 -0.740573 1.79525 0
M  V30 4858 O 475.324 -1.53946 1.18874 0
M  V30 4859 C 475.607 1.18304 3.40112 0
M  V30 4860 C 475.46 2.71406 3.5869 0
M  V30 4861 C 476.779 0.765161 4.33397 0
M  V30 4862 H 473.898 0.266338 0.687192 0
M  V30 4863 H 476.54 1.28079 1.40341 0
M  V30 4864 H 474.69 0.713672 3.81889 0
M  V30 4865 H 476.362 3.26303 3.26074 0
M  V30 4866 H 474.605 3.11717 3.01687 0
M  V30 4867 H 475.276 2.98225 4.64506 0
M  V30 4868 H 477.752 1.16889 3.99345 0
M  V30 4869 H 476.628 1.11065 5.37546 0
M  V30 4870 H 476.889 -0.332372 4.40849 0
M  V30 4871 N 475.948 -1.35272 0.808662 0
M  V30 4872 C 477.225 -1.93077 0.313181 0
M  V30 4873 C 477.605 -1.73847 -1.19752 0
M  V30 4874 O 476.953 -1.1087 -1.998 0
M  V30 4875 C 477.163 -3.41347 0.726859 0
M  V30 4876 C 478.511 -4.18493 0.717532 0
M  V30 4877 O 479.535 -3.4987 0.668535 0
M  V30 4878 O 478.394 -5.40937 0.777779 0
M  V30 4879 H 475.488 -0.822885 0.0824018 0
M  V30 4880 H 478.034 -1.44335 0.892499 0
M  V30 4881 H 476.806 -3.49082 1.76797 0
M  V30 4882 H 476.429 -3.97411 0.122461 0
M  V30 4883 N 477.426 -0.562348 -1.47226 0
M  V30 4884 C 478.389 0.172056 -2.28553 0
M  V30 4885 C 479.389 0.837928 -1.37242 0
M  V30 4886 O 480.579 0.693001 -1.59822 0
M  V30 4887 C 477.711 1.25223 -3.17068 0
M  V30 4888 H 478.904 -0.542401 -2.94954 0
M  V30 4889 H 476.457 -0.319493 -1.53 0
M  V30 4890 H 477.192 1.99892 -2.55369 0
M  V30 4891 H 476.977 0.779515 -3.84273 0
M  V30 4892 H 478.467 1.76791 -3.78332 0
M  V30 4893 N 478.904 1.54736 -0.299062 0
M  V30 4894 C 479.867 2.22127 0.565012 0
M  V30 4895 C 480.867 1.20669 1.06281 0
M  V30 4896 O 482.057 1.45417 0.959145 0
M  V30 4897 C 479.189 2.90611 1.78208 0
M  V30 4898 H 480.382 2.99891 -0.0237448 0
M  V30 4899 H 477.935 1.5622 -0.0498788 0
M  V30 4900 H 478.67 2.16921 2.41072 0
M  V30 4901 H 478.455 3.64984 1.43281 0
M  V30 4902 H 479.945 3.42026 2.396 0
M  V30 4903 N 480.382 0.0267497 1.57577 0
M  V30 4904 C 481.61 -0.662661 1.96001 0
M  V30 4905 C 482.025 -1.65799 0.903117 0
M  V30 4906 O 481.382 -1.82135 -0.115317 0
M  V30 4907 C 481.433 -1.37112 3.34488 0
M  V30 4908 O 481.154 -0.415683 4.36123 0
M  V30 4909 C 482.655 -2.15257 3.8753 0
M  V30 4910 H 479.875 -0.18287 0.6456 0
M  V30 4911 H 482.419 0.0858116 2.0432 0
M  V30 4912 H 480.574 -2.07101 3.27395 0
M  V30 4913 H 480.988 -0.918496 5.16395 0
M  V30 4914 H 482.462 -2.60285 4.86781 0
M  V30 4915 H 482.939 -2.99063 3.21649 0
M  V30 4916 H 483.545 -1.50231 3.97883 0
M  V30 4917 N 481.861 -1.55662 -0.24637 0
M  V30 4918 C 482.824 -1.89558 -1.28842 0
M  V30 4919 C 483.824 -0.772082 -1.41052 0
M  V30 4920 O 485.014 -1.04007 -1.39743 0
M  V30 4921 C 482.146 -2.12449 -2.66605 0
M  V30 4922 H 483.339 -2.82735 -1.00004 0
M  V30 4923 H 480.892 -1.48562 -0.485684 0
M  V30 4924 H 481.627 -1.21742 -3.00582 0
M  V30 4925 H 481.412 -2.94273 -2.59125 0
M  V30 4926 H 482.902 -2.39854 -3.41847 0
M  V30 4927 N 483.339 0.512053 -1.4905 0
M  V30 4928 C 484.249 1.64139 -1.67617 0
M  V30 4929 C 485.265 1.64786 -0.558701 0
M  V30 4930 O 486.441 1.8341 -0.832034 0
M  V30 4931 C 483.506 3.00548 -1.72835 0
M  V30 4932 C 482.567 3.10615 -2.96339 0
M  V30 4933 C 481.8 4.40517 -3.01298 0
M  V30 4934 O 482.023 5.28671 -2.14157 0
M  V30 4935 O 480.957 4.55325 -3.93653 0
M  V30 4936 H 484.783 1.51407 -2.63267 0
M  V30 4937 H 482.368 0.687131 -1.32661 0
M  V30 4938 H 484.25 3.81641 -1.78683 0
M  V30 4939 H 482.925 3.13566 -0.803616 0
M  V30 4940 H 481.832 2.2875 -2.96014 0
M  V30 4941 H 483.165 3.0252 -3.88256 0
M  V30 4942 N 484.817 1.37938 0.762283 0
M  V30 4943 C 485.764 1.34467 1.87583 0
M  V30 4944 C 486.734 0.208633 1.64785 0
M  V30 4945 O 487.919 0.399494 1.86571 0
M  V30 4946 C 485.059 1.16692 3.24772 0
M  V30 4947 C 484.172 2.39608 3.59461 0
M  V30 4948 C 483.307 2.14631 4.85908 0
M  V30 4949 C 482.346 3.33364 5.13357 0
M  V30 4950 N 481.483 3.07877 6.30996 0
M  V30 4951 H 486.323 2.29669 1.89885 0
M  V30 4952 H 483.86 1.14116 0.928219 0
M  V30 4953 H 485.818 1.04405 4.03925 0
M  V30 4954 H 484.448 0.251333 3.2182 0
M  V30 4955 H 483.5 2.626 2.75219 0
M  V30 4956 H 484.812 3.28128 3.75678 0
M  V30 4957 H 483.966 1.99429 5.72986 0
M  V30 4958 H 482.705 1.23463 4.71814 0
M  V30 4959 H 481.71 3.49094 4.24751 0
M  V30 4960 H 482.935 4.25395 5.29354 0
M  V30 4961 H 480.881 2.19348 6.18241 0
M  V30 4962 H 480.798 3.89944 6.47673 0
M  V30 4963 H 482.066 2.96313 7.20985 0
M  V30 4964 N 486.295 -0.989507 1.22664 0
M  V30 4965 C 487.541 -1.7321 1.05481 0
M  V30 4966 C 487.874 -1.89852 -0.408635 0
M  V30 4967 O 487.149 -1.44416 -1.30285 0
M  V30 4968 C 487.432 -3.1357 1.77047 0
M  V30 4969 C 487.285 -3.04555 3.31008 0
M  V30 4970 C 488.604 -4.12812 1.5256 0
M  V30 4971 H 485.723 -0.628697 0.384589 0
M  V30 4972 H 488.365 -1.15258 1.51049 0
M  V30 4973 H 486.515 -3.63046 1.3831 0
M  V30 4974 H 488.187 -2.62674 3.7921 0
M  V30 4975 H 486.43 -2.41278 3.6051 0
M  V30 4976 H 487.101 -4.03894 3.76263 0
M  V30 4977 H 489.577 -3.72106 1.86215 0
M  V30 4978 H 488.453 -5.09132 2.05124 0
M  V30 4979 H 488.714 -4.39711 0.458936 0
M  V30 4980 N 487.773 -1.03688 -1.18687 0
M  V30 4981 C 489.02 -0.73803 -1.88572 0
M  V30 4982 C 489.348 0.733973 -1.8012 0
M  V30 4983 O 488.603 1.55098 -1.19344 0
M  V30 4984 C 488.902 -1.14477 -3.3857 0
M  V30 4985 C 488.568 -2.61641 -3.67226 0
M  V30 4986 C 487.23 -3.01846 -3.74757 0
M  V30 4987 C 489.582 -3.56812 -3.79914 0
M  V30 4988 C 486.91 -4.36118 -3.92451 0
M  V30 4989 C 489.262 -4.90799 -3.99123 0
M  V30 4990 C 487.926 -5.3068 -4.04888 0
M  V30 4991 H 487.196 -0.270064 -0.690034 0
M  V30 4992 H 489.843 -1.3012 -1.40503 0
M  V30 4993 H 488.148 -0.500337 -3.88592 0
M  V30 4994 H 489.845 -0.89095 -3.90977 0
M  V30 4995 H 486.435 -2.29498 -3.61979 0
M  V30 4996 H 490.619 -3.26899 -3.73431 0
M  V30 4997 H 485.875 -4.66542 -3.95157 0
M  V30 4998 H 490.049 -5.64451 -4.07882 0
M  V30 4999 H 487.676 -6.34733 -4.18351 0
M  V30 5000 N 489.251 1.34841 -0.815825 0
M  V30 5001 C 490.198 2.29644 -0.230664 0
M  V30 5002 C 491.168 1.53253 0.640533 0
M  V30 5003 O 492.353 1.81653 0.583672 0
M  V30 5004 C 489.493 3.39715 0.607275 0
M  V30 5005 C 488.606 4.31056 -0.28538 0
M  V30 5006 C 487.741 5.28225 0.561446 0
M  V30 5007 C 486.78 6.11204 -0.331035 0
M  V30 5008 N 485.917 7.00483 0.476302 0
M  V30 5009 H 490.757 2.79095 -1.0445 0
M  V30 5010 H 488.294 1.37351 -0.526595 0
M  V30 5011 H 490.252 4.02208 1.10835 0
M  V30 5012 H 488.882 2.91517 1.38629 0
M  V30 5013 H 487.934 3.69487 -0.904621 0
M  V30 5014 H 489.246 4.89239 -0.97193 0
M  V30 5015 H 488.4 5.96135 1.12728 0
M  V30 5016 H 487.139 4.70562 1.28153 0
M  V30 5017 H 486.144 5.42232 -0.909069 0
M  V30 5018 H 487.369 6.70947 -1.04912 0
M  V30 5019 H 485.315 6.45296 1.18019 0
M  V30 5020 H 485.232 7.55847 -0.152008 0
M  V30 5021 H 486.5 7.7273 1.02512 0
M  V30 5022 N 490.729 0.570148 1.46925 0
M  V30 5023 C 491.661 -0.207909 2.28255 0
M  V30 5024 C 492.674 -0.867301 1.37774 0
M  V30 5025 O 493.863 -0.738976 1.62485 0
M  V30 5026 C 490.963 -1.31298 3.12433 0
M  V30 5027 C 490.136 -0.747915 4.30958 0
M  V30 5028 C 489.195 -1.7391 4.9663 0
M  V30 5029 O 488.221 -1.2801 5.54619 0
M  V30 5030 N 489.423 -3.07288 4.92498 0
M  V30 5031 H 492.188 0.489794 2.95671 0
M  V30 5032 H 489.749 0.407076 1.56699 0
M  V30 5033 H 491.741 -1.97507 3.53232 0
M  V30 5034 H 490.311 -1.91373 2.47175 0
M  V30 5035 H 489.531 0.0913066 3.94094 0
M  V30 5036 H 490.819 -0.349958 5.07595 0
M  V30 5037 H 490.217 -3.47213 4.46609 0
M  V30 5038 H 488.774 -3.69021 5.37277 0
M  V30 5039 N 492.207 -1.54576 0.307264 0
M  V30 5040 C 493.437 -2.04378 -0.302158 0
M  V30 5041 C 493.845 -1.18381 -1.47589 0
M  V30 5042 O 493.188 -0.20352 -1.82569 0
M  V30 5043 C 493.25 -3.50133 -0.815305 0
M  V30 5044 C 492.914 -4.56401 0.233977 0
M  V30 5045 C 493.911 -5.08884 1.06456 0
M  V30 5046 C 491.596 -5.0088 0.377478 0
M  V30 5047 C 493.59 -6.04394 2.02452 0
M  V30 5048 C 491.277 -5.96208 1.34088 0
M  V30 5049 C 492.275 -6.47849 2.16288 0
M  V30 5050 O 491.963 -7.41308 3.10994 0
M  V30 5051 H 491.695 -0.672502 -0.0686839 0
M  V30 5052 H 494.249 -2.00484 0.446682 0
M  V30 5053 H 492.479 -3.51371 -1.61478 0
M  V30 5054 H 494.168 -3.83098 -1.34129 0
M  V30 5055 H 494.934 -4.75311 0.964596 0
M  V30 5056 H 490.813 -4.60309 -0.252405 0
M  V30 5057 H 494.357 -6.44626 2.66652 0
M  V30 5058 H 490.254 -6.29198 1.44154 0
M  V30 5059 H 491.022 -7.5913 3.06045 0
M  V30 5060 N 493.685 -0.035106 -1.57561 0
M  V30 5061 C 494.648 0.929819 -2.09492 0
M  V30 5062 C 495.648 1.25026 -1.01119 0
M  V30 5063 O 496.838 1.18961 -1.27255 0
M  V30 5064 C 493.97 2.24457 -2.56577 0
M  V30 5065 H 495.163 0.479935 -2.96035 0
M  V30 5066 H 492.716 0.213033 -1.54841 0
M  V30 5067 H 493.451 2.74061 -1.73382 0
M  V30 5068 H 493.236 2.02508 -3.35757 0
M  V30 5069 H 494.726 2.93607 -2.96959 0
M  V30 5070 N 495.163 1.55791 0.238111 0
M  V30 5071 C 496.111 1.91885 1.31464 0
M  V30 5072 C 497.105 0.798929 1.49377 0
M  V30 5073 O 498.311 0.983626 1.50747 0
M  V30 5074 H 494.686 0.609551 0.440399 0
M  V30 5075 H 496.657 2.81747 0.982925 0
M  V30 5076 C 495.406 2.23763 2.6613 0
M  V30 5077 H 494.729 3.09444 2.53149 0
M  V30 5078 H 496.169 2.52915 3.40309 0
M  V30 5079 C 494.628 1.05699 3.1989 0
M  V30 5080 O 495.158 0.309524 4.00506 0
M  V30 5081 N 493.364 0.845251 2.78036 0
M  V30 5082 H 492.911 1.4548 2.12588 0
M  V30 5083 H 492.869 0.0569973 3.14348 0
M  V30 5084 N 496.642 -0.504142 1.49319 0
M  V30 5085 C 497.919 -1.26548 1.49147 0
M  V30 5086 C 498.299 -2.09977 0.21744 0
M  V30 5087 O 497.647 -2.14028 -0.800269 0
M  V30 5088 C 497.857 -2.12489 2.76857 0
M  V30 5089 C 499.205 -2.7178 3.26222 0
M  V30 5090 O 500.229 -2.22758 2.77952 0
M  V30 5091 O 499.088 -3.61015 4.10281 0
M  V30 5092 H 496.182 -0.572495 0.596806 0
M  V30 5093 H 498.728 -0.51867 1.61579 0
M  V30 5094 H 497.5 -1.50796 3.61077 0
M  V30 5095 H 497.123 -2.94368 2.6727 0
M  V30 5096 N 498.12 -1.38341 -0.754957 0
M  V30 5097 C 499.068 -1.35573 -1.89005 0
M  V30 5098 C 500.062 -0.241824 -1.67665 0
M  V30 5099 O 501.268 -0.410785 -1.7525 0
M  V30 5100 H 497.643 -0.422898 -0.621821 0
M  V30 5101 H 499.614 -2.31359 -1.88455 0
M  V30 5102 C 498.363 -1.19631 -3.26471 0
M  V30 5103 H 497.686 -2.04605 -3.43477 0
M  V30 5104 H 499.126 -1.21748 -4.06144 0
M  V30 5105 C 497.585 0.0968705 -3.36761 0
M  V30 5106 O 498.115 1.07439 -3.87066 0
M  V30 5107 N 496.321 0.153242 -2.90196 0
M  V30 5108 H 495.868 -0.642908 -2.49448 0
M  V30 5109 H 495.826 1.01807 -2.9746 0
M  V30 5110 N 499.598 0.982988 -1.23187 0
M  V30 5111 C 500.846 1.72052 -1.06031 0
M  V30 5112 C 501.167 1.90769 0.404019 0
M  V30 5113 O 500.437 1.47446 1.28982 0
M  V30 5114 H 499.017 0.637499 -0.389363 0
M  V30 5115 H 501.679 1.18338 -1.54862 0
M  V30 5116 H 500.775 2.7111 -1.54615 0
M  V30 5117 N 501.076 1.04316 1.18135 0
M  V30 5118 C 502.322 0.749128 1.88457 0
M  V30 5119 C 502.655 -0.72149 1.803 0
M  V30 5120 O 501.93 -1.52676 1.205 0
M  V30 5121 C 502.213 1.21905 3.38838 0
M  V30 5122 C 502.066 2.75195 3.55792 0
M  V30 5123 C 503.385 0.811085 4.32561 0
M  V30 5124 H 500.504 0.273611 0.684329 0
M  V30 5125 H 503.146 1.29561 1.38975 0
M  V30 5126 H 501.296 0.754137 3.8111 0
M  V30 5127 H 502.968 3.29743 3.22595 0
M  V30 5128 H 501.211 3.14899 2.98364 0
M  V30 5129 H 501.882 3.03135 4.61317 0
M  V30 5130 H 504.358 1.21118 3.98082 0
M  V30 5131 H 503.234 1.16761 5.36338 0
M  V30 5132 H 503.495 -0.285596 4.41177 0
M  V30 5133 N 502.554 -1.34406 0.822964 0
M  V30 5134 C 503.831 -1.92733 0.333641 0
M  V30 5135 C 504.211 -1.75107 -1.17901 0
M  V30 5136 O 503.559 -1.12983 -1.98613 0
M  V30 5137 C 503.769 -3.40557 0.763023 0
M  V30 5138 C 505.117 -4.17709 0.761879 0
M  V30 5139 O 506.141 -3.49141 0.705606 0
M  V30 5140 O 505 -5.40082 0.835109 0
M  V30 5141 H 502.094 -0.821964 0.0911249 0
M  V30 5142 H 504.64 -1.4338 0.907757 0
M  V30 5143 H 503.412 -3.47187 1.8049 0
M  V30 5144 H 503.035 -3.97259 0.164605 0
M  V30 5145 N 504.032 -0.577932 -1.46621 0
M  V30 5146 C 505.28 -0.061566 -2.02006 0
M  V30 5147 C 505.601 1.30117 -1.4524 0
M  V30 5148 O 504.871 1.85313 -0.63529 0
M  V30 5149 H 503.451 -0.0197692 -0.746738 0
M  V30 5150 H 506.113 -0.752631 -1.79782 0
M  V30 5151 H 505.209 0.0110238 -3.12098 0
M  V30 5152 N 505.51 1.54411 -0.315457 0
M  V30 5153 C 506.42 2.27737 0.56329 0
M  V30 5154 C 507.436 1.31787 1.13614 0
M  V30 5155 O 508.612 1.64791 1.15784 0
M  V30 5156 C 505.677 3.01478 1.71207 0
M  V30 5157 C 504.738 4.12997 1.17185 0
M  V30 5158 C 503.971 4.83212 2.26588 0
M  V30 5159 O 504.194 4.52884 3.46775 0
M  V30 5160 O 503.128 5.70299 1.92463 0
M  V30 5161 H 506.954 3.03683 -0.0319614 0
M  V30 5162 H 504.539 1.49178 -0.0814188 0
M  V30 5163 H 506.421 3.47683 2.38106 0
M  V30 5164 H 505.096 2.28414 2.29366 0
M  V30 5165 H 504.003 3.71159 0.468174 0
M  V30 5166 H 505.336 4.8808 0.635501 0
M  V30 5167 N 506.988 0.0434614 1.5754 0
M  V30 5168 C 508.234 -0.627109 1.93491 0
M  V30 5169 C 508.589 -1.68904 0.921362 0
M  V30 5170 O 507.882 -1.91504 -0.0605799 0
M  V30 5171 C 508.076 -1.2738 3.3393 0
M  V30 5172 C 507.905 -0.27603 4.48852 0
M  V30 5173 C 506.675 0.129244 5.05135 0
M  V30 5174 C 508.873 0.475462 5.12098 0
M  V30 5175 N 506.855 1.12068 6.03584 0
M  V30 5176 C 508.226 1.32021 6.05781 0
M  V30 5177 C 510.281 0.534611 4.95022 0
M  V30 5178 C 508.984 2.2188 6.84223 0
M  V30 5179 C 511.01 1.42059 5.74085 0
M  V30 5180 C 510.372 2.25309 6.67394 0
M  V30 5181 H 506.471 -0.201354 0.755633 0
M  V30 5182 H 509.055 0.113991 1.94366 0
M  V30 5183 H 507.226 -1.98496 3.33847 0
M  V30 5184 H 508.958 -1.90255 3.57191 0
M  V30 5185 H 505.713 -0.248145 4.72949 0
M  V30 5186 H 506.137 1.61306 6.57502 0
M  V30 5187 H 510.779 -0.0947817 4.22694 0
M  V30 5188 H 508.497 2.85868 7.55847 0
M  V30 5189 H 512.083 1.47083 5.62901 0
M  V30 5190 H 510.963 2.92754 7.27506 0
M  V30 5191 N 508.466 -1.55915 -0.229846 0
M  V30 5192 C 509.694 -1.82617 -0.972562 0
M  V30 5193 C 510.109 -0.621488 -1.78278 0
M  V30 5194 O 509.466 0.409956 -1.77836 0
M  V30 5195 C 509.517 -3.0774 -1.89679 0
M  V30 5196 O 509.238 -4.23559 -1.11934 0
M  V30 5197 C 510.739 -3.47368 -2.75409 0
M  V30 5198 H 507.959 -0.60727 -0.285419 0
M  V30 5199 H 510.503 -2.02996 -0.247579 0
M  V30 5200 H 508.658 -2.89361 -2.57583 0
M  V30 5201 H 509.072 -4.94586 -1.74599 0
M  V30 5202 H 510.546 -4.37977 -3.35977 0
M  V30 5203 H 511.023 -2.68737 -3.47386 0
M  V30 5204 H 511.629 -3.68158 -2.12931 0
M  V30 5205 N 509.944 0.496216 -1.49584 0
M  V30 5206 C 511.174 1.27209 -1.62793 0
M  V30 5207 C 511.582 1.86799 -0.300476 0
M  V30 5208 O 510.925 1.68802 0.724674 0
M  V30 5209 C 510.987 2.43812 -2.64189 0
M  V30 5210 C 510.651 2.05055 -4.08414 0
M  V30 5211 C 511.648 1.58752 -4.9507 0
M  V30 5212 C 509.333 2.14543 -4.54177 0
M  V30 5213 C 511.327 1.22448 -6.25528 0
M  V30 5214 C 509.014 1.77851 -5.84647 0
M  V30 5215 C 510.012 1.31878 -6.70147 0
M  V30 5216 O 509.7 0.956834 -7.98185 0
M  V30 5217 H 509.432 0.391848 -0.550846 0
M  V30 5218 H 511.986 0.601712 -1.96389 0
M  V30 5219 H 510.216 3.13941 -2.25783 0
M  V30 5220 H 511.905 3.05829 -2.66877 0
M  V30 5221 H 512.671 1.50863 -4.60939 0
M  V30 5222 H 508.55 2.49277 -3.87791 0
M  V30 5223 H 512.094 0.864933 -6.92217 0
M  V30 5224 H 507.991 1.8539 -6.18305 0
M  V30 5225 H 508.759 1.08789 -8.11238 0
M  V30 5226 N 511.423 1.38739 0.74761 0
M  V30 5227 C 512.7 1.25791 1.49786 0
M  V30 5228 C 513.08 -0.138075 2.10648 0
M  V30 5229 O 512.428 -1.14815 1.9756 0
M  V30 5230 C 512.638 2.37265 2.55942 0
M  V30 5231 C 513.986 2.75978 3.22679 0
M  V30 5232 O 515.01 2.36621 2.6625 0
M  V30 5233 O 513.869 3.43867 4.24756 0
M  V30 5234 H 510.963 0.492251 0.664543 0
M  V30 5235 H 513.509 1.50582 0.782511 0
M  V30 5236 H 512.281 3.30644 2.0926 0
M  V30 5237 H 511.904 2.14071 3.35051 0
M  V30 5238 N 512.901 -0.976442 1.23707 0
M  V30 5239 C 514.178 -1.69296 0.979699 0
M  V30 5240 C 514.558 -2.0508 -0.500555 0
M  V30 5241 O 513.906 -1.74708 -1.47273 0
M  V30 5242 C 514.116 -2.93143 1.89389 0
M  V30 5243 C 515.464 -3.65572 2.15968 0
M  V30 5244 O 516.488 -3.03184 1.86971 0
M  V30 5245 O 515.347 -4.77859 2.65167 0
M  V30 5246 H 512.441 -0.739708 0.369812 0
M  V30 5247 H 514.987 -1.03131 1.34767 0
M  V30 5248 H 513.759 -2.63327 2.89439 0
M  V30 5249 H 513.382 -3.67044 1.52854 0
M  V30 5250 N 514.379 -1.04941 -1.1758 0
M  V30 5251 C 515.342 -0.652456 -2.19717 0
M  V30 5252 C 516.342 0.294745 -1.58076 0
M  V30 5253 O 517.532 0.0789579 -1.74021 0
M  V30 5254 C 514.664 0.0420712 -3.40874 0
M  V30 5255 H 515.857 -1.55642 -2.5635 0
M  V30 5256 H 513.41 -0.842995 -1.31618 0
M  V30 5257 H 514.145 0.95943 -3.09783 0
M  V30 5258 H 513.93 -0.638844 -3.86861 0
M  V30 5259 H 515.42 0.306 -4.16477 0
M  V30 5260 N 515.857 1.33968 -0.830081 0
M  V30 5261 C 517.085 2.0228 -0.434773 0
M  V30 5262 C 517.5 1.62487 0.961419 0
M  V30 5263 O 516.857 0.833849 1.62337 0
M  V30 5264 C 516.908 3.5751 -0.535625 0
M  V30 5265 O 516.629 3.95864 -1.87679 0
M  V30 5266 C 518.13 4.43091 -0.136137 0
M  V30 5267 H 515.35 0.648151 -0.173613 0
M  V30 5268 H 517.894 1.71089 -1.12022 0
M  V30 5269 H 516.049 3.87266 0.101817 0
M  V30 5270 H 516.463 4.9056 -1.85609 0
M  V30 5271 H 517.937 5.51398 -0.257772 0
M  V30 5272 H 518.414 4.29433 0.921076 0
M  V30 5273 H 519.02 4.18677 -0.747662 0
M  V30 5274 N 517.335 0.585699 1.46312 0
M  V30 5275 C 518.282 -0.145835 2.30339 0
M  V30 5276 C 519.252 -0.881215 1.40797 0
M  V30 5277 O 520.437 -0.871293 1.69744 0
M  V30 5278 C 517.577 -1.15161 3.25318 0
M  V30 5279 C 516.69 -0.419367 4.2996 0
M  V30 5280 C 515.825 -1.41293 5.12064 0
M  V30 5281 C 514.864 -0.667261 6.08452 0
M  V30 5282 N 514.001 -1.60903 6.83414 0
M  V30 5283 H 518.841 0.576755 2.92365 0
M  V30 5284 H 516.378 0.296237 1.44086 0
M  V30 5285 H 518.336 -1.74763 3.78832 0
M  V30 5286 H 516.966 -1.84188 2.65094 0
M  V30 5287 H 516.018 0.291751 3.7928 0
M  V30 5288 H 517.33 0.163433 4.98532 0
M  V30 5289 H 516.484 -2.08167 5.6987 0
M  V30 5290 H 515.223 -2.02966 4.43459 0
M  V30 5291 H 514.228 0.0152356 5.49798 0
M  V30 5292 H 515.453 -0.0558817 6.79077 0
M  V30 5293 H 513.399 -2.21381 6.17516 0
M  V30 5294 H 513.316 -1.07911 7.48259 0
M  V30 5295 H 514.584 -2.26802 7.45775 0
M  V30 5296 N 518.813 -1.54241 0.323641 0
M  V30 5297 C 520.041 -2.04985 -0.280871 0
M  V30 5298 C 520.456 -1.19978 -1.45777 0
M  V30 5299 O 519.813 -0.230471 -1.81039 0
M  V30 5300 C 519.864 -3.54353 -0.715258 0
M  V30 5301 O 519.585 -4.36132 0.414817 0
M  V30 5302 C 521.086 -4.21189 -1.38257 0
M  V30 5303 H 518.306 -0.66851 -0.0577502 0
M  V30 5304 H 520.85 -1.99029 0.469852 0
M  V30 5305 H 519.005 -3.60596 -1.41596 0
M  V30 5306 H 519.419 -5.2445 0.0725227 0
M  V30 5307 H 520.893 -5.27154 -1.63745 0
M  V30 5308 H 521.37 -3.72307 -2.32989 0
M  V30 5309 H 521.976 -4.19085 -0.724447 0
M  V30 5310 N 520.291 -0.0518155 -1.57515 0
M  V30 5311 C 521.538 0.621823 -1.92716 0
M  V30 5312 C 521.866 1.70813 -0.930229 0
M  V30 5313 O 521.121 1.95616 0.0573708 0
M  V30 5314 C 521.42 1.25607 -3.34601 0
M  V30 5315 C 521.086 0.297901 -4.49915 0
M  V30 5316 C 519.748 0.034243 -4.81188 0
M  V30 5317 C 522.1 -0.358738 -5.19964 0
M  V30 5318 C 519.428 -0.893479 -5.79857 0
M  V30 5319 C 521.78 -1.27466 -6.19625 0
M  V30 5320 C 520.444 -1.54698 -6.49326 0
M  V30 5321 H 519.714 0.227541 -0.705199 0
M  V30 5322 H 522.361 -0.118432 -1.91133 0
M  V30 5323 H 520.666 2.07161 -3.32553 0
M  V30 5324 H 522.363 1.78424 -3.59118 0
M  V30 5325 H 518.953 0.513581 -4.25512 0
M  V30 5326 H 523.137 -0.168133 -4.96015 0
M  V30 5327 H 518.393 -1.11193 -6.01204 0
M  V30 5328 H 522.567 -1.78953 -6.73015 0
M  V30 5329 H 520.194 -2.26748 -7.25596 0
M  V30 5330 N 521.769 1.56035 0.221574 0
M  V30 5331 C 522.997 1.8313 0.962864 0
M  V30 5332 C 523.412 0.630934 1.77946 0
M  V30 5333 O 522.769 -0.400519 1.78051 0
M  V30 5334 C 522.82 3.08742 1.88045 0
M  V30 5335 O 522.541 4.24147 1.09686 0
M  V30 5336 C 524.042 3.48824 2.73563 0
M  V30 5337 H 521.262 0.608775 0.282194 0
M  V30 5338 H 523.806 2.03124 0.23681 0
M  V30 5339 H 521.961 2.90723 2.56045 0
M  V30 5340 H 522.375 4.95505 1.71974 0
M  V30 5341 H 523.849 4.39752 3.3365 0
M  V30 5342 H 524.326 2.70575 3.45956 0
M  V30 5343 H 524.932 3.69282 2.10976 0
M  V30 5344 N 523.247 -0.488276 1.49845 0
M  V30 5345 C 524.493 -1.24341 1.6021 0
M  V30 5346 C 524.826 -1.91967 0.293651 0
M  V30 5347 O 524.101 -1.81323 -0.703718 0
M  V30 5348 C 524.384 -2.3005 2.77036 0
M  V30 5349 C 524.237 -1.66842 4.17713 0
M  V30 5350 C 525.556 -3.31509 2.89464 0
M  V30 5351 H 522.675 -0.450704 0.583125 0
M  V30 5352 H 525.317 -0.539673 1.82174 0
M  V30 5353 H 523.467 -2.90071 2.58439 0
M  V30 5354 H 525.139 -1.1055 4.47858 0
M  V30 5355 H 523.382 -0.972079 4.22768 0
M  V30 5356 H 524.053 -2.43576 4.95353 0
M  V30 5357 H 526.529 -2.81493 3.06433 0
M  V30 5358 H 525.405 -4.02822 3.72861 0
M  V30 5359 H 525.666 -3.94603 1.99351 0
M  V30 5360 N 524.725 -1.39134 -0.740242 0
M  V30 5361 C 525.953 -1.39334 -1.5295 0
M  V30 5362 C 526.368 0.0135008 -1.88795 0
M  V30 5363 O 525.725 0.983524 -1.5373 0
M  V30 5364 C 525.776 -2.2614 -2.82034 0
M  V30 5365 O 525.497 -3.61345 -2.47712 0
M  V30 5366 C 526.998 -2.34666 -3.76094 0
M  V30 5367 H 524.218 -0.476103 -0.472828 0
M  V30 5368 H 526.762 -1.82883 -0.9151 0
M  V30 5369 H 524.917 -1.86018 -3.39818 0
M  V30 5370 H 525.331 -4.07194 -3.30595 0
M  V30 5371 H 526.805 -2.99663 -4.63579 0
M  V30 5372 H 527.282 -1.36426 -4.17474 0
M  V30 5373 H 527.888 -2.75236 -3.2423 0
M  V30 5374 N 526.204 0.969867 -1.24223 0
M  V30 5375 C 527.114 2.09806 -1.0497 0
M  V30 5376 C 528.13 1.73998 0.00886455 0
M  V30 5377 O 529.306 2.00513 -0.188848 0
M  V30 5378 C 526.371 3.40467 -0.654452 0
M  V30 5379 C 525.432 3.90236 -1.78926 0
M  V30 5380 C 524.665 5.14662 -1.41277 0
M  V30 5381 O 524.888 5.69602 -0.301632 0
M  V30 5382 O 523.822 5.58761 -2.23763 0
M  V30 5383 H 527.648 2.28942 -1.99548 0
M  V30 5384 H 525.233 1.08197 -1.03023 0
M  V30 5385 H 527.115 4.19039 -0.445452 0
M  V30 5386 H 525.79 3.22636 0.262216 0
M  V30 5387 H 524.697 3.12735 -2.05299 0
M  V30 5388 H 526.03 4.1254 -2.68462 0
M  V30 5389 N 527.682 1.05563 1.17022 0
M  V30 5390 C 528.629 0.659893 2.21165 0
M  V30 5391 C 529.599 -0.339813 1.62587 0
M  V30 5392 O 530.784 -0.230378 1.89404 0
M  V30 5393 C 527.924 0.0447297 3.45071 0
M  V30 5394 C 527.037 1.09372 4.17926 0
M  V30 5395 C 526.172 0.445481 5.29329 0
M  V30 5396 C 525.211 1.47852 5.93975 0
M  V30 5397 N 524.348 0.854172 6.96885 0
M  V30 5398 H 529.188 1.55243 2.54369 0
M  V30 5399 H 526.725 0.776336 1.24946 0
M  V30 5400 H 528.683 -0.329404 4.15898 0
M  V30 5401 H 527.313 -0.811244 3.1244 0
M  V30 5402 H 526.365 1.58564 3.45777 0
M  V30 5403 H 527.677 1.87773 4.62107 0
M  V30 5404 H 526.831 0.0179688 6.06697 0
M  V30 5405 H 525.57 -0.370481 4.86291 0
M  V30 5406 H 524.575 1.91601 5.15334 0
M  V30 5407 H 525.8 2.29645 6.39093 0
M  V30 5408 H 523.746 0.0587882 6.55974 0
M  V30 5409 H 523.663 1.57567 7.39397 0
M  V30 5410 H 524.931 0.451559 7.78191 0
M  V30 5411 N 529.16 -1.33526 0.837174 0
M  V30 5412 C 530.571 -1.80182 0.489017 0
M  V30 5413 C 530.922 -1.69285 -0.991826 0
M  V30 5414 O 530.047 -1.24113 -1.77271 0
M  V30 5415 C 530.642 -3.27149 0.880866 0
M  V30 5416 C 529.201 -3.71828 0.584872 0
M  V30 5417 C 528.348 -2.54974 1.09011 0
M  V30 5418 H 531.299 -1.21071 1.02603 0
M  V30 5419 H 531.32 -3.80024 0.190239 0
M  V30 5420 H 530.832 -3.35048 1.95869 0
M  V30 5421 H 528.933 -3.69457 -0.48295 0
M  V30 5422 H 529.046 -4.65366 1.13892 0
M  V30 5423 H 527.41 -2.4952 0.511047 0
M  V30 5424 H 528.193 -2.65637 2.17467 0
M  V30 5425 N 530.638 -0.59345 -1.46 0
M  V30 5426 C 531.548 0.135817 -2.34207 0
M  V30 5427 C 532.564 0.875008 -1.50398 0
M  V30 5428 O 533.74 0.835778 -1.83239 0
M  V30 5429 C 530.805 1.12977 -3.27776 0
M  V30 5430 C 529.866 0.394081 -4.27487 0
M  V30 5431 C 529.099 1.34068 -5.16586 0
M  V30 5432 O 529.322 2.5778 -5.08828 0
M  V30 5433 O 528.256 0.845426 -5.95933 0
M  V30 5434 H 532.082 -0.588691 -2.9794 0
M  V30 5435 H 529.667 -0.353784 -1.45151 0
M  V30 5436 H 531.549 1.70261 -3.85473 0
M  V30 5437 H 530.224 1.83556 -2.66625 0
M  V30 5438 H 529.131 -0.220869 -3.73447 0
M  V30 5439 H 530.464 -0.270939 -4.91454 0
M  V30 5440 N 532.116 1.54067 -0.331816 0
M  V30 5441 C 533.362 2.01012 0.268667 0
M  V30 5442 C 533.695 1.2195 1.51136 0
M  V30 5443 O 532.97 0.303972 1.9211 0
M  V30 5444 C 533.253 3.55158 0.59456 0
M  V30 5445 C 533.106 4.4494 -0.659409 0
M  V30 5446 C 534.425 4.16939 1.4089 0
M  V30 5447 H 531.544 0.730698 0.0961756 0
M  V30 5448 H 534.186 1.84593 -0.450031 0
M  V30 5449 H 532.336 3.6928 1.20685 0
M  V30 5450 H 534.008 4.42675 -1.29756 0
M  V30 5451 H 532.251 4.1428 -1.28665 0
M  V30 5452 H 532.922 5.50643 -0.386804 0
M  V30 5453 H 535.398 4.06443 0.891272 0
M  V30 5454 H 534.274 5.24889 1.60569 0
M  V30 5455 H 534.535 3.70798 2.40752 0
M  V30 5456 N 533.594 0.0601682 1.57485 0
M  V30 5457 C 534.843 -0.611101 1.9222 0
M  V30 5458 C 535.156 -1.71469 0.941159 0
M  V30 5459 O 536.362 -2.44473 1.18089 0
M  V30 5460 C 534.818 -1.13832 3.41424 0
M  V30 5461 C 534.426 -0.0663596 4.47951 0
M  V30 5462 C 536.17 -1.78432 3.85178 0
M  V30 5463 C 534.077 -0.606965 5.88277 0
M  V30 5464 H 533.007 -0.232033 0.71741 0
M  V30 5465 H 535.658 0.130518 1.83035 0
M  V30 5466 H 534.04 -1.93254 3.45643 0
M  V30 5467 H 535.214 0.707682 4.55333 0
M  V30 5468 H 533.529 0.482715 4.13593 0
M  V30 5469 H 536.126 -2.1989 4.87394 0
M  V30 5470 H 536.469 -2.63966 3.21913 0
M  V30 5471 H 537.002 -1.05651 3.83514 0
M  V30 5472 H 533.741 0.21095 6.5516 0
M  V30 5473 H 533.261 -1.34879 5.84438 0
M  V30 5474 H 534.94 -1.08704 6.37803 0
M  V30 5475 N 535.072 -1.5615 -0.213296 0
M  V30 5476 C 536.349 -1.70349 -0.961281 0
M  V30 5477 C 536.729 -0.609791 -2.02101 0
M  V30 5478 O 536.077 0.381987 -2.25285 0
M  V30 5479 C 536.287 -3.11982 -1.56424 0
M  V30 5480 C 537.635 -3.71649 -2.05334 0
M  V30 5481 O 538.659 -3.14995 -1.66302 0
M  V30 5482 O 537.518 -4.71038 -2.77102 0
M  V30 5483 H 534.612 -0.694121 -0.449582 0
M  V30 5484 H 537.158 -1.68464 -0.204426 0
M  V30 5485 H 535.93 -3.83046 -0.799457 0
M  V30 5486 H 535.553 -3.18019 -2.38641 0
M  V30 5487 N 536.55 0.480323 -1.50102 0
M  V30 5488 C 537.513 1.56181 -1.6775 0
M  V30 5489 C 538.513 1.51156 -0.548503 0
M  V30 5490 O 539.703 1.5394 -0.815363 0
M  V30 5491 C 536.835 2.95823 -1.69415 0
M  V30 5492 H 538.028 1.41855 -2.6423 0
M  V30 5493 H 535.581 0.70605 -1.39444 0
M  V30 5494 H 536.316 3.15604 -0.745948 0
M  V30 5495 H 536.101 3.00878 -2.51425 0
M  V30 5496 H 537.591 3.74359 -1.85054 0
M  V30 5497 N 538.028 1.39524 0.732853 0
M  V30 5498 C 539.253 1.40329 1.52717 0
M  V30 5499 C 539.678 0.000286574 1.881 0
M  V30 5500 O 539.036 -0.987262 1.52062 0
M  V30 5501 C 539.084 2.28464 2.78992 0
M  V30 5502 O 538.188 1.716 3.75003 0
M  V30 5503 H 537.529 0.47778 0.461109 0
M  V30 5504 H 540.059 1.83546 0.903996 0
M  V30 5505 H 540.069 2.43051 3.27705 0
M  V30 5506 H 538.744 3.30425 2.52572 0
M  V30 5507 H 537.321 1.66267 3.33781 0
M  V30 5508 N 539.506 -0.963266 1.24736 0
M  V30 5509 C 540.416 -2.09246 1.06082 0
M  V30 5510 C 541.432 -1.74 0.000363101 0
M  V30 5511 O 542.608 -2.0041 0.199479 0
M  V30 5512 C 539.673 -3.40115 0.672498 0
M  V30 5513 C 538.734 -3.89282 1.80993 0
M  V30 5514 C 537.967 -5.13905 1.44004 0
M  V30 5515 O 538.19 -5.69434 0.331835 0
M  V30 5516 O 537.124 -5.57566 2.26723 0
M  V30 5517 H 540.95 -2.27881 2.00759 0
M  V30 5518 H 538.535 -1.07649 1.03595 0
M  V30 5519 H 540.417 -4.18797 0.467668 0
M  V30 5520 H 539.092 -3.22771 -0.245102 0
M  V30 5521 H 537.999 -3.11642 2.06955 0
M  V30 5522 H 539.332 -4.1111 2.70646 0
M  V30 5523 N 540.985 -1.06182 -1.16461 0
M  V30 5524 C 541.915 -0.692861 -2.22984 0
M  V30 5525 C 542.896 0.314122 -1.67174 0
M  V30 5526 O 544.081 0.189499 -1.93273 0
M  V30 5527 C 541.211 -0.07732 -3.47214 0
M  V30 5528 C 540.165 -1.01015 -4.15909 0
M  V30 5529 C 539.491 -0.257973 -5.34077 0
M  V30 5530 C 540.791 -2.33868 -4.67015 0
M  V30 5531 H 542.485 -1.58343 -2.54102 0
M  V30 5532 H 540.031 -0.76279 -1.22137 0
M  V30 5533 H 541.984 0.19266 -4.20959 0
M  V30 5534 H 540.708 0.848254 -3.15392 0
M  V30 5535 H 539.367 -1.26486 -3.44088 0
M  V30 5536 H 539.015 0.670684 -4.98509 0
M  V30 5537 H 538.715 -0.879638 -5.80979 0
M  V30 5538 H 540.239 0.00448788 -6.106 0
M  V30 5539 H 541.653 -2.1279 -5.32347 0
M  V30 5540 H 540.05 -2.91522 -5.24533 0
M  V30 5541 H 541.12 -2.97019 -3.83286 0
M  V30 5542 N 542.463 1.3308 -0.844243 0
M  V30 5543 C 543.691 2.01808 -0.456203 0
M  V30 5544 C 544.106 1.63498 0.944131 0
M  V30 5545 O 543.463 0.85102 1.61443 0
M  V30 5546 C 543.514 3.56922 -0.573513 0
M  V30 5547 O 543.235 3.93851 -1.91868 0
M  V30 5548 C 544.736 4.42922 -0.183125 0
M  V30 5549 H 541.956 0.646273 -0.180477 0
M  V30 5550 H 544.5 1.69891 -1.1383 0
M  V30 5551 H 542.655 3.87352 0.0607367 0
M  V30 5552 H 543.069 4.88564 -1.90802 0
M  V30 5553 H 544.543 5.51093 -0.316241 0
M  V30 5554 H 545.02 4.30386 0.875477 0
M  V30 5555 H 545.626 4.1786 -0.792027 0
M  V30 5556 N 543.941 0.601185 1.45683 0
M  V30 5557 C 545.352 0.179659 1.85834 0
M  V30 5558 C 545.703 -1.26189 1.50236 0
M  V30 5559 O 544.828 -1.95587 0.925987 0
M  V30 5560 C 545.423 0.319277 3.37292 0
M  V30 5561 C 543.982 -0.0475092 3.7637 0
M  V30 5562 C 543.129 0.646692 2.69654 0
M  V30 5563 H 546.08 0.808268 1.36575 0
M  V30 5564 H 546.101 -0.4503 3.77826 0
M  V30 5565 H 545.613 1.36855 3.6317 0
M  V30 5566 H 543.714 -1.0962 3.5611 0
M  V30 5567 H 543.827 0.34168 4.7788 0
M  V30 5568 H 542.191 0.0849971 2.54558 0
M  V30 5569 H 542.974 1.69797 2.98369 0
M  V30 5570 N 545.419 -1.53889 0.339982 0
M  V30 5571 C 546.382 -2.23547 -0.50592 0
M  V30 5572 C 547.382 -1.23445 -1.03044 0
M  V30 5573 O 548.572 -1.47909 -0.920253 0
M  V30 5574 C 545.704 -2.95234 -1.7044 0
M  V30 5575 H 546.897 -2.99722 0.103247 0
M  V30 5576 H 544.45 -1.56033 0.0912804 0
M  V30 5577 H 545.185 -2.23236 -2.35236 0
M  V30 5578 H 544.97 -3.68654 -1.33553 0
M  V30 5579 H 546.46 -3.48258 -2.30447 0
M  V30 5580 N 546.897 -0.0685191 -1.57451 0
M  V30 5581 C 548.143 0.602239 -1.93652 0
M  V30 5582 C 548.476 1.6946 -0.948526 0
M  V30 5583 O 547.751 1.94487 0.022782 0
M  V30 5584 C 548.034 1.18223 -3.4014 0
M  V30 5585 C 547.887 0.0967431 -4.49696 0
M  V30 5586 C 549.206 2.08872 -3.87377 0
M  V30 5587 H 546.325 0.217453 -0.70419 0
M  V30 5588 H 548.967 -0.133821 -1.89528 0
M  V30 5589 H 547.117 1.80953 -3.43785 0
M  V30 5590 H 548.789 -0.536155 -4.58174 0
M  V30 5591 H 547.032 -0.573063 -4.29998 0
M  V30 5592 H 547.703 0.542894 -5.49324 0
M  V30 5593 H 550.179 1.56081 -3.85717 0
M  V30 5594 H 549.055 2.46389 -4.90493 0
M  V30 5595 H 549.316 2.99572 -3.25129 0
M  V30 5596 N 548.375 1.56261 0.205012 0
M  V30 5597 C 549.603 1.84141 0.943386 0
M  V30 5598 C 550.018 0.649772 1.77266 0
M  V30 5599 O 549.375 -0.381612 1.78466 0
M  V30 5600 C 549.426 3.10719 1.84759 0
M  V30 5601 O 549.147 4.25286 1.05181 0
M  V30 5602 C 550.648 3.51706 2.69848 0
M  V30 5603 H 547.868 0.611734 0.275721 0
M  V30 5604 H 550.412 2.03364 0.215253 0
M  V30 5605 H 548.567 2.93422 2.52947 0
M  V30 5606 H 548.981 4.97301 1.66709 0
M  V30 5607 H 550.455 4.43266 3.28967 0
M  V30 5608 H 550.932 2.7423 3.43067 0
M  V30 5609 H 551.538 3.71499 2.07047 0
M  V30 5610 N 549.853 -0.472356 1.50355 0
M  V30 5611 C 551.081 -1.24784 1.65035 0
M  V30 5612 C 551.496 -1.85837 0.333176 0
M  V30 5613 O 550.853 -1.69168 -0.68472 0
M  V30 5614 C 550.904 -2.35747 2.74054 0
M  V30 5615 O 550.625 -1.77197 4.00665 0
M  V30 5616 C 552.126 -3.26645 2.99696 0
M  V30 5617 H 549.346 -0.377432 0.554785 0
M  V30 5618 H 551.89 -0.563962 1.9657 0
M  V30 5619 H 550.045 -2.99912 2.45217 0
M  V30 5620 H 550.459 -2.5026 4.60945 0
M  V30 5621 H 551.933 -4.00718 3.79644 0
M  V30 5622 H 552.41 -3.8535 2.10718 0
M  V30 5623 H 553.016 -2.68218 3.3006 0
M  V30 5624 N 551.331 -1.39911 -0.725443 0
M  V30 5625 C 552.561 -1.40744 -1.51244 0
M  V30 5626 C 552.969 -0.00275403 -1.892 0
M  V30 5627 O 552.312 0.981299 -1.55294 0
M  V30 5628 C 552.374 -2.22527 -2.82351 0
M  V30 5629 C 552.038 -3.71053 -2.66774 0
M  V30 5630 C 553.035 -4.63916 -2.34686 0
M  V30 5631 C 550.72 -4.14753 -2.83347 0
M  V30 5632 C 552.714 -5.98463 -2.19366 0
M  V30 5633 C 550.401 -5.49372 -2.67644 0
M  V30 5634 C 551.399 -6.41042 -2.357 0
M  V30 5635 O 551.087 -7.73181 -2.20107 0
M  V30 5636 H 550.819 -0.482314 -0.473655 0
M  V30 5637 H 553.373 -1.84472 -0.903284 0
M  V30 5638 H 551.603 -1.73563 -3.45562 0
M  V30 5639 H 553.292 -2.15421 -3.44018 0
M  V30 5640 H 554.058 -4.31453 -2.21525 0
M  V30 5641 H 549.937 -3.43728 -3.072 0
M  V30 5642 H 553.481 -6.69979 -1.94354 0
M  V30 5643 H 549.378 -5.81424 -2.80387 0
M  V30 5644 H 550.146 -7.84008 -2.35103 0
M  V30 5645 N 552.809 0.956637 -1.25245 0
M  V30 5646 C 553.756 2.053 -1.05454 0
M  V30 5647 C 554.726 1.66062 0.0356889 0
M  V30 5648 O 555.911 1.90415 -0.121099 0
M  V30 5649 C 553.051 3.38391 -0.677191 0
M  V30 5650 C 552.164 3.90758 -1.84206 0
M  V30 5651 C 551.299 5.12165 -1.40926 0
M  V30 5652 C 550.338 5.56757 -2.54338 0
M  V30 5653 N 549.475 6.69376 -2.11848 0
M  V30 5654 H 554.315 2.21562 -1.99284 0
M  V30 5655 H 551.852 1.08578 -0.992434 0
M  V30 5656 H 553.81 4.1488 -0.43938 0
M  V30 5657 H 552.44 3.22021 0.224127 0
M  V30 5658 H 551.492 3.10808 -2.19323 0
M  V30 5659 H 552.804 4.19802 -2.69383 0
M  V30 5660 H 551.958 5.96065 -1.13098 0
M  V30 5661 H 550.697 4.84832 -0.528175 0
M  V30 5662 H 549.702 4.71423 -2.82913 0
M  V30 5663 H 550.927 5.861 -3.43022 0
M  V30 5664 H 548.873 6.43756 -1.26153 0
M  V30 5665 H 548.79 6.97927 -2.90574 0
M  V30 5666 H 550.058 7.5669 -1.87191 0
M  V30 5667 N 554.287 1.06798 1.15896 0
M  V30 5668 C 555.217 0.704677 2.22613 0
M  V30 5669 C 556.198 -0.305252 1.67339 0
M  V30 5670 O 557.383 -0.179247 1.93371 0
M  V30 5671 C 554.513 0.0957325 3.47168 0
M  V30 5672 C 553.467 1.0322 4.15367 0
M  V30 5673 C 552.793 0.286293 5.33933 0
M  V30 5674 C 554.093 2.36341 4.65768 0
M  V30 5675 H 555.787 1.59688 2.53259 0
M  V30 5676 H 553.333 0.769257 1.21731 0
M  V30 5677 H 555.286 -0.170333 4.21056 0
M  V30 5678 H 554.01 -0.831516 3.15838 0
M  V30 5679 H 552.669 1.28309 3.43413 0
M  V30 5680 H 552.317 -0.644237 4.98857 0
M  V30 5681 H 552.017 0.910436 5.80504 0
M  V30 5682 H 553.541 0.0278938 6.10594 0
M  V30 5683 H 554.955 2.1561 5.31211 0
M  V30 5684 H 553.352 2.94299 5.2298 0
M  V30 5685 H 554.422 2.99047 3.81705 0
M  V30 5686 N 555.766 -1.3263 0.851289 0
M  V30 5687 C 557.012 -1.9766 0.453694 0
M  V30 5688 C 557.345 -1.67225 -0.987396 0
M  V30 5689 O 556.62 -0.958693 -1.69232 0
M  V30 5690 C 556.903 -3.5344 0.68936 0
M  V30 5691 C 556.756 -3.93517 2.17862 0
M  V30 5692 C 558.075 -4.39866 0.143555 0
M  V30 5693 H 555.194 -0.717989 0.166314 0
M  V30 5694 H 557.836 -1.57068 1.06909 0
M  V30 5695 H 555.986 -3.88147 0.165546 0
M  V30 5696 H 557.658 -3.69006 2.76826 0
M  V30 5697 H 555.901 -3.42798 2.65841 0
M  V30 5698 H 556.572 -5.02065 2.29422 0
M  V30 5699 H 559.048 -4.11875 0.591451 0
M  V30 5700 H 557.924 -5.47858 0.338043 0
M  V30 5701 H 558.185 -4.31696 -0.953466 0
M  V30 5702 N 557.244 -0.608902 -1.45362 0
M  V30 5703 C 558.493 -0.10218 -2.01441 0
M  V30 5704 C 558.806 1.27546 -1.48295 0
M  V30 5705 O 560.012 1.87498 -1.96359 0
M  V30 5706 C 558.468 -0.131985 -3.59658 0
M  V30 5707 C 558.076 -1.50956 -4.21801 0
M  V30 5708 C 559.82 0.319427 -4.23296 0
M  V30 5709 C 557.727 -1.49568 -5.72174 0
M  V30 5710 H 556.657 -0.0344314 -0.753213 0
M  V30 5711 H 559.308 -0.764426 -1.6682 0
M  V30 5712 H 557.69 0.596939 -3.91475 0
M  V30 5713 H 558.864 -2.26029 -4.01556 0
M  V30 5714 H 557.179 -1.90318 -3.70362 0
M  V30 5715 H 559.776 0.349013 -5.3356 0
M  V30 5716 H 560.119 1.34237 -3.94064 0
M  V30 5717 H 560.652 -0.356273 -3.96201 0
M  V30 5718 H 557.391 -2.49626 -6.06108 0
M  V30 5719 H 556.911 -0.787542 -5.94607 0
M  V30 5720 H 558.59 -1.21989 -6.35396 0
M  V30 5721 N 558.722 1.53707 -0.348139 0
M  V30 5722 C 559.67 2.26671 0.521808 0
M  V30 5723 C 560.664 1.28988 1.09811 0
M  V30 5724 O 561.87 1.4668 1.04332 0
M  V30 5725 H 558.245 0.728387 0.186968 0
M  V30 5726 H 560.216 2.98176 -0.115563 0
M  V30 5727 C 558.965 3.05591 1.6586 0
M  V30 5728 H 558.288 3.80589 1.22443 0
M  V30 5729 H 559.728 3.59851 2.24239 0
M  V30 5730 C 558.187 2.15366 2.59073 0
M  V30 5731 O 558.717 1.7528 3.61441 0
M  V30 5732 N 556.923 1.80352 2.27863 0
M  V30 5733 H 556.47 2.13149 1.44656 0
M  V30 5734 H 556.428 1.20268 2.90488 0
M  V30 5735 N 560.2 0.0768682 1.57412 0
M  V30 5736 C 561.448 -0.589918 1.93299 0
M  V30 5737 C 561.769 -1.69842 0.958049 0
M  V30 5738 O 561.039 -1.95899 0.00703261 0
M  V30 5739 H 559.619 -0.220901 0.713591 0
M  V30 5740 H 562.281 0.135917 1.94425 0
M  V30 5741 H 561.377 -1.01195 2.95239 0
M  V30 5742 N 561.678 -1.56367 -0.196722 0
M  V30 5743 C 562.625 -1.94417 -1.24382 0
M  V30 5744 C 563.595 -0.804543 -1.45315 0
M  V30 5745 O 564.78 -1.06256 -1.58475 0
M  V30 5746 C 561.92 -2.28757 -2.58388 0
M  V30 5747 C 561.033 -3.55775 -2.45047 0
M  V30 5748 C 560.168 -3.79445 -3.71746 0
M  V30 5749 C 559.207 -4.99894 -3.53231 0
M  V30 5750 N 558.344 -5.19826 -4.71938 0
M  V30 5751 H 563.184 -2.83691 -0.912338 0
M  V30 5752 H 560.721 -1.40392 -0.439135 0
M  V30 5753 H 562.679 -2.46682 -3.36457 0
M  V30 5754 H 561.309 -1.42625 -2.89582 0
M  V30 5755 H 560.361 -3.45905 -1.58284 0
M  V30 5756 H 561.673 -4.44 -2.27299 0
M  V30 5757 H 560.827 -3.97601 -4.58256 0
M  V30 5758 H 559.566 -2.89546 -3.92446 0
M  V30 5759 H 558.571 -4.81662 -2.65107 0
M  V30 5760 H 559.796 -5.913 -3.33978 0
M  V30 5761 H 557.742 -4.32875 -4.92905 0
M  V30 5762 H 557.659 -6.02228 -4.57009 0
M  V30 5763 H 558.927 -5.42439 -5.59803 0
M  V30 5764 N 563.156 0.464375 -1.50603 0
M  V30 5765 C 564.384 1.23907 -1.65695 0
M  V30 5766 C 564.799 1.85658 -0.343027 0
M  V30 5767 O 564.156 1.69529 0.675739 0
M  V30 5768 C 564.207 2.3429 -2.75301 0
M  V30 5769 O 563.928 1.7507 -4.01599 0
M  V30 5770 C 565.429 3.25051 -3.01424 0
M  V30 5771 H 562.649 0.374485 -0.556778 0
M  V30 5772 H 565.193 0.55353 -1.96866 0
M  V30 5773 H 563.348 2.98607 -2.46804 0
M  V30 5774 H 563.762 2.47812 -4.62266 0
M  V30 5775 H 565.236 3.98699 -3.81763 0
M  V30 5776 H 565.713 3.84227 -2.12758 0
M  V30 5777 H 566.319 2.66463 -3.31477 0
M  V30 5778 N 564.634 1.40294 0.718013 0
M  V30 5779 C 565.564 1.43118 1.84498 0
M  V30 5780 C 566.545 0.292403 1.67568 0
M  V30 5781 O 567.73 0.500675 1.87635 0
M  V30 5782 C 564.86 1.29065 3.22427 0
M  V30 5783 C 563.814 2.40521 3.54025 0
M  V30 5784 C 563.14 2.11546 4.91073 0
M  V30 5785 C 564.44 3.82859 3.55269 0
M  V30 5786 H 566.134 2.37432 1.82391 0
M  V30 5787 H 563.68 1.14283 0.87609 0
M  V30 5788 H 565.633 1.29658 4.00957 0
M  V30 5789 H 564.357 0.312271 3.25104 0
M  V30 5790 H 563.016 2.39173 2.77834 0
M  V30 5791 H 562.664 1.12104 4.90348 0
M  V30 5792 H 562.364 2.86216 5.1318 0
M  V30 5793 H 563.888 2.13817 5.71939 0
M  V30 5794 H 565.302 3.86044 4.23843 0
M  V30 5795 H 563.699 4.57029 3.88902 0
M  V30 5796 H 564.769 4.12617 2.54706 0
M  V30 5797 N 566.112 -0.949982 1.2575 0
M  V30 5798 C 567.059 -2.04738 1.06541 0
M  V30 5799 C 568.029 -1.66078 -0.0268818 0
M  V30 5800 O 569.214 -1.90348 0.131196 0
M  V30 5801 C 566.354 -3.38027 0.695127 0
M  V30 5802 C 565.467 -3.89776 1.86276 0
M  V30 5803 C 564.602 -5.11411 1.4364 0
M  V30 5804 C 563.641 -5.554 2.57287 0
M  V30 5805 N 562.778 -6.68244 2.15395 0
M  V30 5806 H 567.618 -2.20502 2.00457 0
M  V30 5807 H 565.155 -1.0805 0.998178 0
M  V30 5808 H 567.113 -4.14641 0.461375 0
M  V30 5809 H 565.743 -3.22135 -0.207046 0
M  V30 5810 H 564.795 -3.0964 2.20969 0
M  V30 5811 H 566.107 -4.18368 2.71606 0
M  V30 5812 H 565.261 -5.95457 1.16257 0
M  V30 5813 H 564 -4.84545 0.553879 0
M  V30 5814 H 563.005 -4.69916 2.85409 0
M  V30 5815 H 564.23 -5.84272 3.46125 0
M  V30 5816 H 562.176 -6.43078 1.29565 0
M  V30 5817 H 562.093 -6.96377 2.94272 0
M  V30 5818 H 563.361 -7.55687 1.91201 0
M  V30 5819 N 567.59 -1.07411 -1.15328 0
M  V30 5820 C 568.838 -0.796073 -1.85761 0
M  V30 5821 C 569.159 0.679864 -1.82764 0
M  V30 5822 O 568.429 1.49242 -1.269 0
M  V30 5823 H 567.009 -0.291495 -0.687779 0
M  V30 5824 H 569.671 -1.35799 -1.39802 0
M  V30 5825 H 568.767 -1.13114 -2.90881 0
M  V30 5826 N 569.068 1.32177 -0.85831 0
M  V30 5827 C 569.978 2.32561 -0.308606 0
M  V30 5828 C 570.994 1.64209 0.575462 0
M  V30 5829 O 572.17 1.95719 0.474961 0
M  V30 5830 C 569.235 3.43207 0.490909 0
M  V30 5831 C 568.296 4.27243 -0.419733 0
M  V30 5832 C 567.529 5.32605 0.341719 0
M  V30 5833 O 567.752 5.48332 1.57125 0
M  V30 5834 O 566.686 6.0118 -0.294379 0
M  V30 5835 H 570.512 2.81477 -1.14037 0
M  V30 5836 H 568.097 1.35866 -0.621349 0
M  V30 5837 H 569.979 4.10677 0.944574 0
M  V30 5838 H 568.654 2.96474 1.29941 0
M  V30 5839 H 567.561 3.62569 -0.921652 0
M  V30 5840 H 568.894 4.7751 -1.19352 0
M  V30 5841 N 570.547 0.616602 1.45037 0
M  V30 5842 C 571.775 0.121968 2.0654 0
M  V30 5843 C 572.19 -1.19743 1.45969 0
M  V30 5844 O 571.547 -1.73133 0.577168 0
M  V30 5845 C 571.598 -0.0145171 3.61497 0
M  V30 5846 O 571.319 1.25269 4.19809 0
M  V30 5847 C 572.82 -0.539555 4.40004 0
M  V30 5848 H 570.04 0.0729837 0.667019 0
M  V30 5849 H 572.584 0.846891 1.8614 0
M  V30 5850 H 570.739 -0.689809 3.81209 0
M  V30 5851 H 571.153 1.08816 5.13088 0
M  V30 5852 H 572.627 -0.584112 5.48901 0
M  V30 5853 H 573.104 -1.56368 4.10421 0
M  V30 5854 H 573.71 0.101995 4.25178 0
M  V30 5855 N 572.025 -1.5352 0.356285 0
M  V30 5856 C 573.253 -2.05534 -0.237328 0
M  V30 5857 C 573.668 -1.23043 -1.43199 0
M  V30 5858 O 573.025 -0.268821 -1.80509 0
M  V30 5859 C 573.076 -3.55791 -0.639933 0
M  V30 5860 O 572.797 -4.35154 0.507233 0
M  V30 5861 C 574.298 -4.24027 -1.29292 0
M  V30 5862 H 571.518 -0.669585 -0.0435572 0
M  V30 5863 H 574.062 -1.97988 0.511963 0
M  V30 5864 H 572.217 -3.63518 -1.33915 0
M  V30 5865 H 572.631 -5.24178 0.18375 0
M  V30 5866 H 574.105 -5.30509 -1.52527 0
M  V30 5867 H 574.582 -3.77166 -2.25039 0
M  V30 5868 H 575.188 -4.20527 -0.63539 0
M  V30 5869 N 573.503 -0.0852151 -1.57369 0
M  V30 5870 C 574.731 0.58946 -1.98325 0
M  V30 5871 C 575.146 1.62333 -0.96403 0
M  V30 5872 O 574.503 1.82438 0.0476395 0
M  V30 5873 C 574.554 1.24604 -3.39347 0
M  V30 5874 O 574.275 0.253532 -4.37366 0
M  V30 5875 C 575.776 2.00726 -3.95252 0
M  V30 5876 H 572.996 0.158783 -0.651942 0
M  V30 5877 H 575.54 -0.161584 -2.03861 0
M  V30 5878 H 573.695 1.94808 -3.34856 0
M  V30 5879 H 574.109 0.726207 -5.19448 0
M  V30 5880 H 575.583 2.42039 -4.96106 0
M  V30 5881 H 576.06 2.86919 -3.32527 0
M  V30 5882 H 576.666 1.3536 -4.03185 0
M  V30 5883 N 574.981 1.5647 0.188427 0
M  V30 5884 C 575.891 1.98285 1.2538 0
M  V30 5885 C 576.907 0.891535 1.49424 0
M  V30 5886 O 578.083 1.19782 1.61908 0
M  V30 5887 C 575.148 2.31965 2.57669 0
M  V30 5888 C 574.209 3.54838 2.41638 0
M  V30 5889 C 573.442 3.86901 3.67618 0
M  V30 5890 O 573.665 3.20163 4.72072 0
M  V30 5891 O 572.599 4.80309 3.62749 0
M  V30 5892 H 576.425 2.89145 0.928912 0
M  V30 5893 H 574.01 1.44112 0.393955 0
M  V30 5894 H 575.892 2.54673 3.35737 0
M  V30 5895 H 574.567 1.44271 2.89771 0
M  V30 5896 H 573.474 3.37369 1.61658 0
M  V30 5897 H 574.807 4.43019 2.14465 0
M  V30 5898 N 576.459 -0.456382 1.50847 0
M  V30 5899 C 577.422 -1.53493 1.70213 0
M  V30 5900 C 578.422 -1.50264 0.572481 0
M  V30 5901 O 579.612 -1.52623 0.839751 0
M  V30 5902 C 576.744 -2.93091 1.741 0
M  V30 5903 H 577.937 -1.37633 2.66453 0
M  V30 5904 H 575.49 -0.683776 1.4055 0
M  V30 5905 H 576.225 -3.14378 0.796063 0
M  V30 5906 H 576.01 -2.9684 2.5618 0
M  V30 5907 H 577.5 -3.71368 1.90987 0
M  V30 5908 N 577.937 -1.40673 -0.710563 0
M  V30 5909 C 579.183 -1.39428 -1.47267 0
M  V30 5910 C 579.516 0.00182129 -1.942 0
M  V30 5911 O 578.791 0.971387 -1.68506 0
M  V30 5912 C 579.074 -2.38812 -2.6952 0
M  V30 5913 C 578.927 -3.87467 -2.28449 0
M  V30 5914 C 580.246 -2.3566 -3.71689 0
M  V30 5915 H 577.365 -0.507768 -0.534173 0
M  V30 5916 H 580.007 -1.71843 -0.810547 0
M  V30 5917 H 578.157 -2.113 -3.26013 0
M  V30 5918 H 579.829 -4.25825 -1.77399 0
M  V30 5919 H 578.072 -4.03058 -1.60395 0
M  V30 5920 H 578.743 -4.5253 -3.16103 0
M  V30 5921 H 581.219 -2.6004 -3.24836 0
M  V30 5922 H 580.095 -3.07237 -4.54859 0
M  V30 5923 H 580.356 -1.36996 -4.20339 0
M  V30 5924 N 579.415 0.9433 -1.26252 0
M  V30 5925 C 580.692 1.66639 -1.02424 0
M  V30 5926 C 581.072 2.06335 0.446006 0
M  V30 5927 O 580.42 1.78551 1.42589 0
M  V30 5928 C 580.63 2.88019 -1.97094 0
M  V30 5929 C 581.978 3.59718 -2.25584 0
M  V30 5930 O 583.002 2.9812 -1.94943 0
M  V30 5931 O 581.861 4.7066 -2.77743 0
M  V30 5932 H 578.955 0.729643 -0.389294 0
M  V30 5933 H 581.501 0.995218 -1.37454 0
M  V30 5934 H 580.273 2.5556 -2.96319 0
M  V30 5935 H 579.896 3.62863 -1.62532 0
M  V30 5936 N 580.893 1.08022 1.14757 0
M  V30 5937 C 581.856 0.71048 2.1791 0
M  V30 5938 C 582.856 -0.252731 1.58801 0
M  V30 5939 O 584.046 -0.0327915 1.74169 0
M  V30 5940 C 581.178 0.0483203 3.40866 0
M  V30 5941 H 582.371 1.62384 2.52134 0
M  V30 5942 H 579.924 0.877595 1.29337 0
M  V30 5943 H 580.659 -0.876959 3.12218 0
M  V30 5944 H 580.444 0.741189 3.85031 0
M  V30 5945 H 581.934 -0.195471 4.17142 0
M  V30 5946 N 582.371 -1.3172 0.865308 0
M  V30 5947 C 583.334 -2.26918 0.322627 0
M  V30 5948 C 584.334 -1.52031 -0.523751 0
M  V30 5949 O 585.524 -1.70973 -0.333727 0
M  V30 5950 C 582.656 -3.36558 -0.542338 0
M  V30 5951 H 583.849 -2.76432 1.16298 0
M  V30 5952 H 581.402 -1.42573 0.640512 0
M  V30 5953 H 582.137 -2.92329 -1.40407 0
M  V30 5954 H 581.922 -3.92048 0.0636395 0
M  V30 5955 H 583.412 -4.07465 -0.91446 0
M  V30 5956 N 583.85 -0.624285 -1.44708 0
M  V30 5957 C 585.077 -0.132919 -2.06473 0
M  V30 5958 C 585.493 1.18967 -1.46602 0
M  V30 5959 O 584.85 1.72824 -0.586341 0
M  V30 5960 C 584.901 -0.00465418 -3.615 0
M  V30 5961 O 584.622 -1.27494 -4.19138 0
M  V30 5962 C 586.123 0.516213 -4.40284 0
M  V30 5963 H 583.343 -0.0765201 -0.666623 0
M  V30 5964 H 585.887 -0.856751 -1.85688 0
M  V30 5965 H 584.042 0.669583 -3.8157 0
M  V30 5966 H 584.456 -1.11536 -5.12504 0
M  V30 5967 H 585.93 0.554994 -5.49203 0
M  V30 5968 H 586.407 1.5419 -4.11245 0
M  V30 5969 H 587.013 -0.124542 -4.25118 0
M  V30 5970 N 585.328 1.53329 -0.364422 0
M  V30 5971 C 586.291 2.24323 0.470292 0
M  V30 5972 C 587.291 1.25068 1.01067 0
M  V30 5973 O 588.481 1.49354 0.896605 0
M  V30 5974 C 585.613 2.97908 1.65722 0
M  V30 5975 H 586.806 2.9952 -0.150917 0
M  V30 5976 H 584.359 1.55868 -0.116092 0
M  V30 5977 H 585.094 2.2695 2.31655 0
M  V30 5978 H 584.879 3.70732 1.27671 0
M  V30 5979 H 586.369 3.5188 2.24878 0
M  V30 5980 N 586.806 0.0935595 1.57322 0
M  V30 5981 C 587.716 -0.880192 2.17462 0
M  V30 5982 C 588.732 -1.31135 1.14366 0
M  V30 5983 O 589.908 -1.37958 1.46729 0
M  V30 5984 C 586.973 -2.12184 2.74188 0
M  V30 5985 C 586.034 -1.74503 3.92234 0
M  V30 5986 C 585.267 -2.92748 4.46245 0
M  V30 5987 O 585.49 -4.07427 3.99198 0
M  V30 5988 O 584.424 -2.71303 5.37288 0
M  V30 5989 H 588.25 -0.398516 3.01074 0
M  V30 5990 H 585.835 -0.130707 1.48827 0
M  V30 5991 H 587.717 -2.84953 3.10451 0
M  V30 5992 H 586.392 -2.59407 1.93623 0
M  V30 5993 H 585.299 -0.989186 3.60785 0
M  V30 5994 H 586.632 -1.32044 4.74157 0
M  V30 5995 N 588.284 -1.56567 -0.180126 0
M  V30 5996 C 589.231 -1.95725 -1.22313 0
M  V30 5997 C 590.201 -0.819911 -1.44453 0
M  V30 5998 O 591.386 -1.07931 -1.57339 0
M  V30 5999 C 588.526 -2.31484 -2.55947 0
M  V30 6000 C 587.639 -3.58354 -2.4126 0
M  V30 6001 C 586.774 -3.83366 -3.67701 0
M  V30 6002 C 585.813 -5.03612 -3.47909 0
M  V30 6003 N 584.95 -5.24802 -4.66398 0
M  V30 6004 H 589.79 -2.84642 -0.882198 0
M  V30 6005 H 587.327 -1.4085 -0.42422 0
M  V30 6006 H 589.285 -2.50237 -3.33822 0
M  V30 6007 H 587.915 -1.45689 -2.88053 0
M  V30 6008 H 586.967 -3.47565 -1.54606 0
M  V30 6009 H 588.279 -4.46386 -2.22577 0
M  V30 6010 H 587.433 -4.02439 -4.54013 0
M  V30 6011 H 586.172 -2.93692 -3.89353 0
M  V30 6012 H 585.177 -4.84447 -2.59983 0
M  V30 6013 H 586.402 -5.94809 -3.27688 0
M  V30 6014 H 584.348 -4.38079 -4.88286 0
M  V30 6015 H 584.265 -6.07041 -4.50596 0
M  V30 6016 H 585.533 -5.48346 -5.54019 0
M  V30 6017 N 589.762 0.448376 -1.51087 0
M  V30 6018 C 591.008 1.20049 -1.6345 0
M  V30 6019 C 591.341 1.91121 -0.344444 0
M  V30 6020 O 590.616 1.83125 0.655396 0
M  V30 6021 C 590.899 2.22624 -2.83038 0
M  V30 6022 C 590.752 1.55708 -4.21989 0
M  V30 6023 C 592.071 3.23718 -2.98152 0
M  V30 6024 H 589.19 0.435085 -0.59487 0
M  V30 6025 H 591.832 0.491183 -1.83541 0
M  V30 6026 H 589.982 2.83117 -2.66039 0
M  V30 6027 H 591.654 0.986367 -4.50631 0
M  V30 6028 H 589.897 0.859647 -4.25197 0
M  V30 6029 H 590.568 2.30357 -5.01637 0
M  V30 6030 H 593.044 2.73269 -3.13788 0
M  V30 6031 H 591.92 3.92795 -3.83411 0
M  V30 6032 H 592.181 3.89179 -2.09743 0
M  V30 6033 N 591.24 1.41047 0.703093 0
M  V30 6034 C 592.487 1.4 1.46309 0
M  V30 6035 C 592.815 0.00654574 1.94499 0
M  V30 6036 O 592.07 -0.980255 1.6938 0
M  V30 6037 C 592.369 2.34686 2.6955 0
M  V30 6038 C 592.035 3.81684 2.40058 0
M  V30 6039 C 590.697 4.21731 2.31725 0
M  V30 6040 C 593.049 4.74525 2.15581 0
M  V30 6041 C 590.377 5.52637 1.97001 0
M  V30 6042 C 592.729 6.05744 1.82366 0
M  V30 6043 C 591.393 6.44819 1.72524 0
M  V30 6044 H 590.663 0.512295 0.535382 0
M  V30 6045 H 593.31 1.73792 0.804275 0
M  V30 6046 H 591.615 1.94122 3.40329 0
M  V30 6047 H 593.312 2.31152 3.27673 0
M  V30 6048 H 589.902 3.49963 2.47435 0
M  V30 6049 H 594.086 4.44395 2.20968 0
M  V30 6050 H 589.342 5.81802 1.87928 0
M  V30 6051 H 593.516 6.77189 1.62444 0
M  V30 6052 H 591.143 7.46168 1.45385 0
M  V30 6053 N 592.718 -0.936591 1.26751 0
M  V30 6054 C 593.665 -2.03597 1.08706 0
M  V30 6055 C 594.635 -1.66097 -0.00926542 0
M  V30 6056 O 595.82 -1.90199 0.151377 0
M  V30 6057 C 592.96 -3.3727 0.73094 0
M  V30 6058 C 592.073 -3.87778 1.90399 0
M  V30 6059 C 591.208 -5.09859 1.49056 0
M  V30 6060 C 590.247 -5.5264 2.63164 0
M  V30 6061 N 589.384 -6.65921 2.22471 0
M  V30 6062 H 594.224 -2.18364 2.02784 0
M  V30 6063 H 591.761 -1.06985 1.00958 0
M  V30 6064 H 593.719 -4.14128 0.505328 0
M  V30 6065 H 592.349 -3.22337 -0.172868 0
M  V30 6066 H 591.401 -3.07279 2.2424 0
M  V30 6067 H 592.713 -4.15464 2.76028 0
M  V30 6068 H 591.867 -5.9419 1.22567 0
M  V30 6069 H 590.606 -4.8393 0.60524 0
M  V30 6070 H 589.611 -4.66863 2.90377 0
M  V30 6071 H 590.836 -5.80568 3.52303 0
M  V30 6072 H 588.782 -6.41667 1.36379 0
M  V30 6073 H 588.699 -6.93216 3.01641 0
M  V30 6074 H 589.967 -7.53616 1.99205 0
M  V30 6075 N 594.196 -1.08629 -1.14182 0
M  V30 6076 C 595.128 -0.676189 -2.18998 0
M  V30 6077 C 596.141 0.277871 -1.60411 0
M  V30 6078 O 597.33 0.0651771 -1.78381 0
M  V30 6079 C 594.43 0.0254916 -3.3889 0
M  V30 6080 C 593.603 -0.948039 -4.27002 0
M  V30 6081 C 592.662 -0.281268 -5.25448 0
M  V30 6082 O 591.688 -0.926378 -5.61611 0
M  V30 6083 N 592.89 0.967923 -5.72374 0
M  V30 6084 H 595.655 -1.57792 -2.54798 0
M  V30 6085 H 593.216 -0.972665 -1.29425 0
M  V30 6086 H 595.208 0.482554 -4.01813 0
M  V30 6087 H 593.778 0.829348 -3.01398 0
M  V30 6088 H 592.998 -1.58388 -3.6098 0
M  V30 6089 H 594.286 -1.60765 -4.82734 0
M  V30 6090 H 593.684 1.51175 -5.45126 0
M  V30 6091 H 592.241 1.36844 -6.37273 0
M  V30 6092 N 595.674 1.31259 -0.872281 0
M  V30 6093 C 596.904 2.00504 -0.498183 0
M  V30 6094 C 597.312 1.65632 0.914479 0
M  V30 6095 O 596.655 0.882849 1.61095 0
M  V30 6096 C 596.717 3.5482 -0.578194 0
M  V30 6097 C 596.381 4.13172 -1.95289 0
M  V30 6098 C 597.378 4.30107 -2.92069 0
M  V30 6099 C 595.063 4.48846 -2.25483 0
M  V30 6100 C 597.057 4.81908 -4.17185 0
M  V30 6101 C 594.744 5.00349 -3.50847 0
M  V30 6102 C 595.742 5.16831 -4.46514 0
M  V30 6103 O 595.43 5.67228 -5.69656 0
M  V30 6104 H 595.162 0.648055 -0.192354 0
M  V30 6105 H 597.716 1.6841 -1.17589 0
M  V30 6106 H 595.946 3.86383 0.156438 0
M  V30 6107 H 597.635 4.05318 -0.217192 0
M  V30 6108 H 598.401 4.02862 -2.7005 0
M  V30 6109 H 594.28 4.35292 -1.51795 0
M  V30 6110 H 597.824 4.94688 -4.91863 0
M  V30 6111 H 593.721 5.27028 -3.72708 0
M  V30 6112 H 594.489 5.85592 -5.7186 0
M  V30 6113 N 597.152 0.631951 1.44375 0
M  V30 6114 C 598.115 -0.0628142 2.29114 0
M  V30 6115 C 599.115 -0.771494 1.41084 0
M  V30 6116 O 600.305 -0.615959 1.62947 0
M  V30 6117 C 597.437 -1.09953 3.22681 0
M  V30 6118 H 598.63 0.682509 2.92031 0
M  V30 6119 H 596.183 0.392128 1.51301 0
M  V30 6120 H 596.918 -1.87481 2.64616 0
M  V30 6121 H 596.703 -0.595286 3.87555 0
M  V30 6122 H 598.193 -1.58538 3.86336 0
M  V30 6123 N 598.631 -1.53133 0.372548 0
M  V30 6124 C 599.579 -2.27473 -0.485681 0
M  V30 6125 C 600.573 -1.30719 -1.07745 0
M  V30 6126 O 601.779 -1.48321 -1.01985 0
M  V30 6127 H 598.154 -0.731269 -0.175356 0
M  V30 6128 H 600.125 -2.97955 0.162986 0
M  V30 6129 C 598.874 -3.08191 -1.60978 0
M  V30 6130 H 598.197 -3.82488 -1.16373 0
M  V30 6131 H 599.637 -3.63373 -2.18485 0
M  V30 6132 C 598.096 -2.19461 -2.55614 0
M  V30 6133 O 598.626 -1.81008 -3.58607 0
M  V30 6134 N 596.832 -1.83955 -2.24965 0
M  V30 6135 H 596.379 -2.15423 -1.41247 0
M  V30 6136 H 596.337 -1.24874 -2.88538 0
M  V30 6137 N 600.109 -0.101901 -1.5727 0
M  V30 6138 C 601.386 0.602832 -1.86079 0
M  V30 6139 C 601.766 1.85912 -1 0
M  V30 6140 O 601.114 2.28379 -0.0742488 0
M  V30 6141 C 601.324 0.911694 -3.36881 0
M  V30 6142 C 602.672 1.2722 -4.05093 0
M  V30 6143 O 603.696 1.0025 -3.41802 0
M  V30 6144 O 602.555 1.7776 -5.16782 0
M  V30 6145 H 599.649 0.302366 -0.769743 0
M  V30 6146 H 602.195 -0.135113 -1.69161 0
M  V30 6147 H 600.967 0.0207256 -3.91295 0
M  V30 6148 H 600.59 1.70538 -3.59169 0
M  V30 6149 N 601.587 1.56661 0.17182 0
M  V30 6150 C 602.535 1.97289 1.23207 0
M  V30 6151 C 603.529 0.861566 1.45854 0
M  V30 6152 O 604.735 1.04668 1.4644 0
M  V30 6153 H 601.11 0.627681 0.41415 0
M  V30 6154 H 603.081 2.85662 0.862542 0
M  V30 6155 C 601.83 2.34849 2.564 0
M  V30 6156 H 601.153 3.19903 2.39797 0
M  V30 6157 H 602.593 2.67121 3.29276 0
M  V30 6158 C 601.052 1.19172 3.15119 0
M  V30 6159 O 601.582 0.479113 3.98833 0
M  V30 6160 N 599.788 0.962415 2.74201 0
M  V30 6161 H 599.335 1.54365 2.06226 0
M  V30 6162 H 599.293 0.190272 3.13824 0
M  V30 6163 N 603.065 -0.440357 1.51323 0
M  V30 6164 C 604.313 -1.18769 1.63518 0
M  V30 6165 C 604.634 -1.91793 0.352201 0
M  V30 6166 O 603.904 -1.85432 -0.631811 0
M  V30 6167 H 602.484 -0.441408 0.602634 0
M  V30 6168 H 605.146 -0.505162 1.8824 0
M  V30 6169 H 604.242 -1.91892 2.46138 0
M  V30 6170 N 604.543 -1.41418 -0.695603 0
M  V30 6171 C 605.789 -1.40982 -1.4578 0
M  V30 6172 C 606.122 -0.0187763 -1.94191 0
M  V30 6173 O 605.397 0.95346 -1.69527 0
M  V30 6174 C 605.68 -2.41657 -2.66972 0
M  V30 6175 C 605.533 -3.89869 -2.24327 0
M  V30 6176 C 606.852 -2.39589 -3.69168 0
M  V30 6177 H 603.971 -0.513405 -0.528757 0
M  V30 6178 H 606.613 -1.72693 -0.792275 0
M  V30 6179 H 604.763 -2.14746 -3.23754 0
M  V30 6180 H 606.435 -4.27683 -1.72872 0
M  V30 6181 H 604.678 -4.04737 -1.56111 0
M  V30 6182 H 605.349 -4.55857 -3.11285 0
M  V30 6183 H 607.825 -2.63471 -3.2206 0
M  V30 6184 H 606.701 -3.12044 -4.51575 0
M  V30 6185 H 606.962 -1.41447 -4.18862 0
M  V30 6186 N 606.021 0.929856 -1.27246 0
M  V30 6187 C 607.298 1.65544 -1.04186 0
M  V30 6188 C 607.678 2.06796 0.424097 0
M  V30 6189 O 607.026 1.80053 1.40688 0
M  V30 6190 C 607.236 2.85912 -2.00138 0
M  V30 6191 C 608.584 3.57305 -2.29387 0
M  V30 6192 O 609.608 2.96036 -1.98094 0
M  V30 6193 O 608.467 4.67688 -2.82719 0
M  V30 6194 H 605.561 0.725473 -0.397011 0
M  V30 6195 H 608.107 0.980583 -1.38501 0
M  V30 6196 H 606.879 2.52403 -2.99013 0
M  V30 6197 H 606.502 3.61118 -1.66371 0
M  V30 6198 N 607.499 1.09233 1.13605 0
M  V30 6199 C 608.747 0.825525 1.84471 0
M  V30 6200 C 609.068 -0.650702 1.83823 0
M  V30 6201 O 608.338 -1.47204 1.29259 0
M  V30 6202 H 606.918 0.3024 0.683054 0
M  V30 6203 H 609.58 1.38006 1.37624 0
M  V30 6204 H 608.676 1.17727 2.89045 0
M  V30 6205 N 608.977 -1.30795 0.87923 0
M  V30 6206 C 609.887 -2.32041 0.345565 0
M  V30 6207 C 610.903 -1.65103 -0.549265 0
M  V30 6208 O 612.079 -1.9645 -0.443763 0
M  V30 6209 C 609.144 -3.43944 -0.436245 0
M  V30 6210 C 608.205 -4.26521 0.48765 0
M  V30 6211 C 607.438 -5.33081 -0.256943 0
M  V30 6212 O 607.661 -5.50762 -1.48381 0
M  V30 6213 O 606.595 -6.00635 0.389985 0
M  V30 6214 H 610.421 -2.79627 1.18501 0
M  V30 6215 H 608.006 -1.3486 0.642885 0
M  V30 6216 H 609.888 -4.12128 -0.879119 0
M  V30 6217 H 608.563 -2.98504 -1.25208 0
M  V30 6218 H 607.47 -3.61057 0.979216 0
M  V30 6219 H 608.803 -4.75551 1.26933 0
M  V30 6220 N 610.455 -0.639598 -1.44038 0
M  V30 6221 C 611.701 -0.156248 -2.02799 0
M  V30 6222 C 612.056 1.21145 -1.49471 0
M  V30 6223 O 611.349 1.79406 -0.672608 0
M  V30 6224 C 611.543 -0.0925348 -3.5728 0
M  V30 6225 C 611.372 -1.45252 -4.25596 0
M  V30 6226 C 610.142 -2.04145 -4.62226 0
M  V30 6227 C 612.34 -2.38812 -4.55492 0
M  V30 6228 N 610.322 -3.3329 -5.15549 0
M  V30 6229 C 611.693 -3.52578 -5.09989 0
M  V30 6230 C 613.748 -2.37785 -4.3745 0
M  V30 6231 C 612.451 -4.65525 -5.48342 0
M  V30 6232 C 614.477 -3.49802 -4.76857 0
M  V30 6233 C 613.839 -4.62292 -5.31475 0
M  V30 6234 H 609.938 -0.101292 -0.775412 0
M  V30 6235 H 612.522 -0.844938 -1.75411 0
M  V30 6236 H 610.693 0.565459 -3.84262 0
M  V30 6237 H 612.425 0.400426 -4.02714 0
M  V30 6238 H 609.18 -1.56999 -4.4682 0
M  V30 6239 H 609.604 -3.9934 -5.46678 0
M  V30 6240 H 614.246 -1.52061 -3.94509 0
M  V30 6241 H 611.964 -5.51951 -5.90233 0
M  V30 6242 H 615.55 -3.50193 -4.64603 0
M  V30 6243 H 614.43 -5.47536 -5.61403 0
M  V30 6244 N 611.933 1.52934 -0.380664 0
M  V30 6245 C 613.161 2.05886 0.204599 0
M  V30 6246 C 613.576 1.25305 1.41223 0
M  V30 6247 O 612.933 0.297504 1.80059 0
M  V30 6248 C 612.984 3.56764 0.583249 0
M  V30 6249 O 612.705 4.34292 -0.576398 0
M  V30 6250 C 614.206 4.2603 1.2253 0
M  V30 6251 H 611.426 0.670193 0.0328991 0
M  V30 6252 H 613.97 1.97148 -0.543397 0
M  V30 6253 H 612.125 3.65603 1.28115 0
M  V30 6254 H 612.539 5.23819 -0.267119 0
M  V30 6255 H 614.013 5.32868 1.44068 0
M  V30 6256 H 614.49 3.80698 2.19011 0
M  V30 6257 H 615.096 4.21485 0.568407 0
M  V30 6258 N 613.412 0.11024 1.57214 0
M  V30 6259 C 614.642 -0.557025 1.98949 0
M  V30 6260 C 615.05 -1.61317 0.988606 0
M  V30 6261 O 614.393 -1.83679 -0.0279159 0
M  V30 6262 C 614.455 -1.24956 3.37085 0
M  V30 6263 C 614.119 -0.342398 4.55716 0
M  V30 6264 C 615.116 0.415511 5.18237 0
M  V30 6265 C 612.801 -0.256029 5.01647 0
M  V30 6266 C 614.795 1.24761 6.25071 0
M  V30 6267 C 612.482 0.579713 6.08344 0
M  V30 6268 C 613.48 1.33017 6.69922 0
M  V30 6269 O 613.168 2.15205 7.74559 0
M  V30 6270 H 612.9 -0.152792 0.658506 0
M  V30 6271 H 615.454 0.19076 2.04512 0
M  V30 6272 H 613.684 -2.04424 3.2825 0
M  V30 6273 H 615.373 -1.81286 3.63167 0
M  V30 6274 H 616.139 0.358605 4.83672 0
M  V30 6275 H 612.018 -0.829831 4.5347 0
M  V30 6276 H 615.562 1.83386 6.73064 0
M  V30 6277 H 611.459 0.638044 6.42339 0
M  V30 6278 H 612.227 2.08052 7.91617 0
M  V30 6279 N 614.89 -1.56749 -0.16351 0
M  V30 6280 C 616.167 -1.73321 -0.906599 0
M  V30 6281 C 616.547 -0.673779 -2.00059 0
M  V30 6282 O 615.895 0.310121 -2.26386 0
M  V30 6283 C 616.105 -3.168 -1.46419 0
M  V30 6284 C 617.453 -3.77993 -1.93407 0
M  V30 6285 O 618.477 -3.20127 -1.56196 0
M  V30 6286 O 617.336 -4.79615 -2.61976 0
M  V30 6287 H 614.43 -0.708073 -0.427272 0
M  V30 6288 H 616.976 -1.69029 -0.150727 0
M  V30 6289 H 615.748 -3.85396 -0.677189 0
M  V30 6290 H 615.371 -3.2545 -2.28403 0
M  V30 6291 N 616.368 0.432326 -1.51554 0
M  V30 6292 C 617.645 1.19288 -1.55015 0
M  V30 6293 C 618.025 2.08701 -0.317375 0
M  V30 6294 O 617.373 2.17602 0.697243 0
M  V30 6295 C 617.583 1.99037 -2.86679 0
M  V30 6296 C 618.931 2.55907 -3.38817 0
M  V30 6297 O 619.955 2.09243 -2.88263 0
M  V30 6298 O 618.814 3.41029 -4.27038 0
M  V30 6299 H 615.908 0.543369 -0.623441 0
M  V30 6300 H 618.454 0.440988 -1.6387 0
M  V30 6301 H 617.226 1.33397 -3.6786 0
M  V30 6302 H 616.849 2.81281 -2.8101 0
M  V30 6303 N 617.846 1.41785 0.688094 0
M  V30 6304 C 618.809 1.43936 1.78368 0
M  V30 6305 C 619.809 0.328866 1.57401 0
M  V30 6306 O 620.999 0.589093 1.63937 0
M  V30 6307 C 618.131 1.25804 3.16838 0
M  V30 6308 H 619.324 2.41472 1.77852 0
M  V30 6309 H 616.877 1.28037 0.896448 0
M  V30 6310 H 617.612 0.291386 3.22988 0
M  V30 6311 H 617.397 2.06272 3.33458 0
M  V30 6312 H 618.887 1.30162 3.96797 0
M  V30 6313 N 619.324 -0.923095 1.27737 0
M  V30 6314 C 620.552 -1.70525 1.17171 0
M  V30 6315 C 620.967 -1.86847 -0.270881 0
M  V30 6316 O 620.324 -1.38879 -1.18401 0
M  V30 6317 C 620.375 -3.10242 1.85559 0
M  V30 6318 O 620.096 -2.94683 3.24182 0
M  V30 6319 C 621.597 -4.04586 1.81176 0
M  V30 6320 H 618.817 -0.533347 0.407163 0
M  V30 6321 H 621.361 -1.15599 1.68692 0
M  V30 6322 H 619.516 -3.62014 1.3793 0
M  V30 6323 H 619.93 -3.83045 3.58297 0
M  V30 6324 H 621.404 -5.00119 2.33633 0
M  V30 6325 H 621.881 -4.3218 0.782099 0
M  V30 6326 H 622.487 -3.58741 2.2844 0
M  V30 6327 N 620.802 -1.09834 -1.13024 0
M  V30 6328 C 621.749 -0.741522 -2.18564 0
M  V30 6329 C 622.719 0.279236 -1.63736 0
M  V30 6330 O 623.904 0.159923 -1.90129 0
M  V30 6331 C 621.044 -0.17277 -3.44667 0
M  V30 6332 C 620.157 -1.24808 -4.13578 0
M  V30 6333 C 619.292 -0.641631 -5.27311 0
M  V30 6334 C 618.331 -1.69795 -5.88078 0
M  V30 6335 N 617.468 -1.11223 -6.93234 0
M  V30 6336 H 622.308 -1.64576 -2.48432 0
M  V30 6337 H 619.845 -0.822174 -1.21978 0
M  V30 6338 H 621.803 0.17482 -4.16834 0
M  V30 6339 H 620.433 0.694725 -3.15235 0
M  V30 6340 H 619.485 -1.71288 -3.39653 0
M  V30 6341 H 620.797 -2.04795 -4.54819 0
M  V30 6342 H 619.951 -0.243128 -6.06213 0
M  V30 6343 H 618.69 0.189742 -4.87331 0
M  V30 6344 H 617.695 -2.10595 -5.07868 0
M  V30 6345 H 618.92 -2.53206 -6.3013 0
M  V30 6346 H 616.866 -0.302208 -6.55304 0
M  V30 6347 H 616.783 -1.84901 -7.3304 0
M  V30 6348 H 618.051 -0.740068 -7.75979 0
M  V30 6349 N 622.28 1.30327 -0.886154 0
M  V30 6350 C 623.508 2.00254 -0.520176 0
M  V30 6351 C 623.923 1.66419 0.891637 0
M  V30 6352 O 623.28 0.901951 1.58654 0
M  V30 6353 C 623.331 3.54916 -0.686775 0
M  V30 6354 O 623.052 3.87547 -2.04301 0
M  V30 6355 C 624.553 4.42115 -0.323945 0
M  V30 6356 H 621.773 0.640204 -0.200947 0
M  V30 6357 H 624.317 1.66183 -1.19178 0
M  V30 6358 H 622.472 3.8735 -0.0625273 0
M  V30 6359 H 622.886 4.82247 -2.06249 0
M  V30 6360 H 624.36 5.49808 -0.491407 0
M  V30 6361 H 624.837 4.32953 0.73811 0
M  V30 6362 H 625.443 4.15129 -0.924565 0
M  V30 6363 N 623.758 0.647228 1.43697 0
M  V30 6364 C 625.005 0.158188 2.01881 0
M  V30 6365 C 625.333 -1.22573 1.51017 0
M  V30 6366 O 624.588 -1.83086 0.69122 0
M  V30 6367 C 624.887 0.111481 3.57226 0
M  V30 6368 C 624.553 1.43633 4.27411 0
M  V30 6369 C 623.215 1.79915 4.463 0
M  V30 6370 C 625.567 2.31011 4.67208 0
M  V30 6371 C 622.895 3.03251 5.02251 0
M  V30 6372 C 625.247 3.53633 5.24525 0
M  V30 6373 C 623.911 3.90118 5.41631 0
M  V30 6374 H 623.181 0.0578851 0.738736 0
M  V30 6375 H 625.828 0.836746 1.72252 0
M  V30 6376 H 624.133 -0.650507 3.86362 0
M  V30 6377 H 625.83 -0.283682 3.99995 0
M  V30 6378 H 622.42 1.14403 4.1305 0
M  V30 6379 H 626.604 2.04272 4.52313 0
M  V30 6380 H 621.86 3.31575 5.13681 0
M  V30 6381 H 626.034 4.21561 5.5431 0
M  V30 6382 H 623.661 4.85768 5.84751 0
M  V30 6383 N 625.236 -1.5273 0.388769 0
M  V30 6384 C 626.464 -2.05992 -0.193677 0
M  V30 6385 C 626.879 -1.26053 -1.40557 0
M  V30 6386 O 626.236 -0.307049 -1.79898 0
M  V30 6387 C 626.287 -3.57068 -0.564321 0
M  V30 6388 O 626.008 -4.3398 0.599422 0
M  V30 6389 C 627.509 -4.26674 -1.20269 0
M  V30 6390 H 624.729 -0.670358 -0.0293445 0
M  V30 6391 H 627.273 -1.96857 0.553844 0
M  V30 6392 H 625.428 -3.66277 -1.26174 0
M  V30 6393 H 625.842 -5.2367 0.294895 0
M  V30 6394 H 627.316 -5.33625 -1.4124 0
M  V30 6395 H 627.793 -3.81854 -2.16989 0
M  V30 6396 H 628.399 -4.2178 -0.546047 0
M  V30 6397 N 626.714 -0.118576 -1.57153 0
M  V30 6398 C 627.96 0.540326 -1.95469 0
M  V30 6399 C 628.293 1.66356 -1.00196 0
M  V30 6400 O 627.568 1.94461 -0.039104 0
M  V30 6401 C 627.851 1.07342 -3.43729 0
M  V30 6402 C 627.704 -0.0463732 -4.49776 0
M  V30 6403 C 629.023 1.96442 -3.93826 0
M  V30 6404 H 626.142 0.19494 -0.710751 0
M  V30 6405 H 628.784 -0.19405 -1.89006 0
M  V30 6406 H 626.934 1.69925 -3.49368 0
M  V30 6407 H 628.606 -0.681648 -4.56236 0
M  V30 6408 H 626.849 -0.709574 -4.27957 0
M  V30 6409 H 627.52 0.367856 -5.50773 0
M  V30 6410 H 629.996 1.43731 -3.90488 0
M  V30 6411 H 628.872 2.3066 -4.98084 0
M  V30 6412 H 629.133 2.89077 -3.34495 0
M  V30 6413 N 628.193 1.56834 0.155195 0
M  V30 6414 C 629.421 1.87049 0.884326 0
M  V30 6415 C 629.836 0.705839 1.7511 0
M  V30 6416 O 629.193 -0.324641 1.79589 0
M  V30 6417 C 629.244 3.1644 1.74781 0
M  V30 6418 O 628.965 4.28417 0.915978 0
M  V30 6419 C 630.466 3.60113 2.58522 0
M  V30 6420 H 627.686 0.620196 0.25612 0
M  V30 6421 H 630.23 2.03946 0.150445 0
M  V30 6422 H 628.385 3.01321 2.43484 0
M  V30 6423 H 628.799 5.02353 1.50803 0
M  V30 6424 H 630.273 4.53508 3.14698 0
M  V30 6425 H 630.75 2.85005 3.34169 0
M  V30 6426 H 631.356 3.77898 1.95124 0
M  V30 6427 N 629.671 -0.424282 1.51781 0
M  V30 6428 C 630.581 -1.54087 1.76902 0
M  V30 6429 C 631.597 -1.61249 0.653826 0
M  V30 6430 O 632.773 -1.78247 0.937552 0
M  V30 6431 C 629.838 -2.8996 1.90063 0
M  V30 6432 C 628.899 -2.92809 3.13945 0
M  V30 6433 C 628.132 -4.22201 3.26469 0
M  V30 6434 O 628.355 -5.15286 2.44616 0
M  V30 6435 O 627.289 -4.31599 4.1953 0
M  V30 6436 H 631.115 -1.358 2.71647 0
M  V30 6437 H 628.7 -0.608618 1.36441 0
M  V30 6438 H 630.582 -3.70575 2.0063 0
M  V30 6439 H 629.257 -3.08347 0.985067 0
M  V30 6440 H 628.164 -2.11102 3.08847 0
M  V30 6441 H 629.497 -2.79369 4.05233 0
M  V30 6442 N 631.149 -1.42148 -0.680565 0
M  V30 6443 C 632.096 -1.45175 -1.79424 0
M  V30 6444 C 633.066 -0.304352 -1.63288 0
M  V30 6445 O 634.251 -0.507591 -1.83924 0
M  V30 6446 C 631.391 -1.35429 -3.17416 0
M  V30 6447 C 630.504 -2.60158 -3.4488 0
M  V30 6448 C 629.639 -2.42596 -4.72568 0
M  V30 6449 C 628.678 -3.62727 -4.93047 0
M  V30 6450 N 627.815 -3.44143 -6.11973 0
M  V30 6451 H 632.655 -2.40349 -1.76172 0
M  V30 6452 H 630.192 -1.19334 -0.860107 0
M  V30 6453 H 632.15 -1.27777 -3.97151 0
M  V30 6454 H 630.78 -0.438536 -3.19807 0
M  V30 6455 H 629.832 -2.78199 -2.5944 0
M  V30 6456 H 631.144 -3.49473 -3.55908 0
M  V30 6457 H 630.298 -2.32497 -5.60384 0
M  V30 6458 H 629.037 -1.50761 -4.63813 0
M  V30 6459 H 628.042 -3.73264 -4.03676 0
M  V30 6460 H 629.267 -4.55534 -5.03652 0
M  V30 6461 H 627.213 -2.5502 -6.04401 0
M  V30 6462 H 627.13 -4.27041 -6.23836 0
M  V30 6463 H 628.398 -3.37845 -7.02482 0
M  V30 6464 N 632.627 0.916307 -1.28225 0
M  V30 6465 C 634.038 1.48024 -1.13779 0
M  V30 6466 C 634.389 1.94289 0.273139 0
M  V30 6467 O 633.514 1.82226 1.16716 0
M  V30 6468 C 634.109 2.69029 -2.05935 0
M  V30 6469 C 632.668 3.2161 -1.95561 0
M  V30 6470 C 631.815 1.94321 -1.97825 0
M  V30 6471 H 634.766 0.729272 -1.40951 0
M  V30 6472 H 634.787 3.44204 -1.62184 0
M  V30 6473 H 634.299 2.35325 -3.08616 0
M  V30 6474 H 632.4 3.60045 -0.959076 0
M  V30 6475 H 632.513 3.87032 -2.82388 0
M  V30 6476 H 630.877 2.1131 -1.42198 0
M  V30 6477 H 631.66 1.62917 -3.0218 0
M  V30 6478 N 634.105 1.10431 1.1244 0
M  V30 6479 C 635.015 0.765502 2.21759 0
M  V30 6480 C 636.031 -0.236966 1.72379 0
M  V30 6481 O 637.207 -0.0757329 2.01258 0
M  V30 6482 C 634.272 0.202316 3.46109 0
M  V30 6483 C 633.333 1.26205 4.1033 0
M  V30 6484 C 632.566 0.725648 5.28744 0
M  V30 6485 O 632.789 -0.447942 5.68638 0
M  V30 6486 O 631.723 1.48555 5.83279 0
M  V30 6487 H 635.549 1.67801 2.53133 0
M  V30 6488 H 633.134 0.879443 1.20773 0
M  V30 6489 H 635.016 -0.107918 4.21262 0
M  V30 6490 H 633.691 -0.683052 3.16411 0
M  V30 6491 H 632.598 1.62514 3.36957 0
M  V30 6492 H 633.931 2.12044 4.44183 0
M  V30 6493 N 635.583 -1.29855 0.893053 0
M  V30 6494 C 636.829 -1.96116 0.516349 0
M  V30 6495 C 637.162 -1.70281 -0.933695 0
M  V30 6496 O 636.437 -1.01205 -1.66096 0
M  V30 6497 C 636.72 -3.51068 0.801455 0
M  V30 6498 C 636.573 -3.86387 2.30272 0
M  V30 6499 C 637.892 -4.39186 0.283423 0
M  V30 6500 H 635.011 -0.712335 0.189072 0
M  V30 6501 H 637.653 -1.53587 1.11852 0
M  V30 6502 H 635.803 -3.87424 0.288949 0
M  V30 6503 H 637.475 -3.60012 2.88425 0
M  V30 6504 H 635.718 -3.34167 2.76613 0
M  V30 6505 H 636.389 -4.94512 2.45279 0
M  V30 6506 H 638.865 -4.09785 0.722187 0
M  V30 6507 H 637.741 -5.46505 0.512169 0
M  V30 6508 H 638.002 -4.34511 -0.815643 0
M  V30 6509 N 637.061 -0.65484 -1.43351 0
M  V30 6510 C 638.31 -0.166215 -2.01014 0
M  V30 6511 C 638.623 1.22764 -1.52278 0
M  V30 6512 O 639.829 1.81156 -2.02224 0
M  V30 6513 C 638.285 -0.246341 -3.59056 0
M  V30 6514 C 637.893 -1.64299 -4.16785 0
M  V30 6515 C 639.637 0.184597 -4.24098 0
M  V30 6516 C 637.544 -1.67695 -5.67126 0
M  V30 6517 H 636.474 -0.0583769 -0.751737 0
M  V30 6518 H 639.125 -0.817111 -1.64303 0
M  V30 6519 H 637.507 0.472092 -3.93176 0
M  V30 6520 H 638.681 -2.3869 -3.94162 0
M  V30 6521 H 636.996 -2.02004 -3.6412 0
M  V30 6522 H 639.593 0.179088 -5.344 0
M  V30 6523 H 639.936 1.21632 -3.98135 0
M  V30 6524 H 640.469 -0.482141 -3.94867 0
M  V30 6525 H 637.208 -2.68783 -5.9786 0
M  V30 6526 H 636.728 -0.976313 -5.91801 0
M  V30 6527 H 638.407 -1.42142 -6.31193 0
M  V30 6528 N 638.539 1.52521 -0.396863 0
M  V30 6529 C 639.816 1.94112 0.240842 0
M  V30 6530 C 640.196 1.33288 1.637 0
M  V30 6531 O 639.544 0.503901 2.22875 0
M  V30 6532 C 639.754 3.48033 0.259567 0
M  V30 6533 C 641.102 4.21822 0.484866 0
M  V30 6534 O 642.126 3.54579 0.339453 0
M  V30 6535 O 640.985 5.41042 0.770412 0
M  V30 6536 H 638.079 0.812973 0.151671 0
M  V30 6537 H 640.625 1.63572 -0.451918 0
M  V30 6538 H 639.397 3.84655 -0.718078 0
M  V30 6539 H 639.02 3.84899 0.996937 0
M  V30 6540 N 640.017 0.126909 1.57088 0
M  V30 6541 C 640.98 -0.806097 2.14557 0
M  V30 6542 C 641.98 -1.18918 1.08236 0
M  V30 6543 O 643.17 -1.11339 1.33975 0
M  V30 6544 C 640.302 -2.09116 2.69227 0
M  V30 6545 H 641.495 -0.306522 2.98329 0
M  V30 6546 H 639.048 -0.122393 1.5582 0
M  V30 6547 H 639.783 -2.63486 1.89065 0
M  V30 6548 H 639.568 -1.82588 3.46993 0
M  V30 6549 H 641.058 -2.75794 3.13572 0
M  V30 6550 N 641.495 -1.56914 -0.146875 0
M  V30 6551 C 642.72 -1.87881 -0.878386 0
M  V30 6552 C 643.145 -0.715945 -1.73942 0
M  V30 6553 O 642.503 0.334447 -1.78189 0
M  V30 6554 C 642.551 -3.17431 -1.71084 0
M  V30 6555 O 641.655 -3.01374 -2.81509 0
M  V30 6556 H 640.996 -0.617289 -0.244644 0
M  V30 6557 H 643.526 -2.04136 -0.137654 0
M  V30 6558 H 643.536 -3.49455 -2.10582 0
M  V30 6559 H 642.211 -4.01671 -1.07856 0
M  V30 6560 H 640.788 -2.80758 -2.45416 0
M  V30 6561 N 642.974 0.416227 -1.52004 0
M  V30 6562 C 643.884 1.53147 -1.77717 0
M  V30 6563 C 644.9 1.609 -0.662368 0
M  V30 6564 O 646.076 1.77747 -0.946991 0
M  V30 6565 C 643.141 2.88948 -1.91598 0
M  V30 6566 C 642.202 2.9114 -3.15493 0
M  V30 6567 C 641.435 4.20464 -3.28703 0
M  V30 6568 O 641.658 5.13981 -2.47345 0
M  V30 6569 O 640.592 4.29368 -4.21813 0
M  V30 6570 H 644.418 1.34357 -2.72363 0
M  V30 6571 H 642.003 0.601373 -1.36762 0
M  V30 6572 H 643.885 3.69505 -2.02593 0
M  V30 6573 H 642.56 3.07821 -1.00141 0
M  V30 6574 H 641.467 2.09461 -3.09962 0
M  V30 6575 H 642.8 2.77216 -4.06709 0
M  V30 6576 N 644.452 1.42507 0.673017 0
M  V30 6577 C 645.382 1.48916 1.79851 0
M  V30 6578 C 646.363 0.345566 1.66553 0
M  V30 6579 O 647.548 0.560116 1.85947 0
M  V30 6580 C 644.678 1.39258 3.18158 0
M  V30 6581 C 643.632 2.51662 3.46194 0
M  V30 6582 C 642.958 2.27062 4.84094 0
M  V30 6583 C 644.258 3.93968 3.42909 0
M  V30 6584 H 645.952 2.43114 1.74745 0
M  V30 6585 H 643.498 1.17013 0.839288 0
M  V30 6586 H 645.451 1.42349 3.96629 0
M  V30 6587 H 644.175 0.415542 3.23946 0
M  V30 6588 H 642.834 2.47891 2.70084 0
M  V30 6589 H 642.482 1.27648 4.86534 0
M  V30 6590 H 642.182 3.02398 5.03815 0
M  V30 6591 H 643.706 2.31905 5.64847 0
M  V30 6592 H 645.12 3.99332 4.11347 0
M  V30 6593 H 643.517 4.6917 3.74165 0
M  V30 6594 H 644.587 4.20512 2.41449 0
M  V30 6595 N 645.93 -0.909495 1.28709 0
M  V30 6596 C 647.158 -1.69272 1.18973 0
M  V30 6597 C 647.573 -1.87123 -0.251048 0
M  V30 6598 O 646.93 -1.40127 -1.16922 0
M  V30 6599 C 646.981 -3.08257 1.88839 0
M  V30 6600 O 646.702 -2.91228 3.27289 0
M  V30 6601 C 648.203 -4.02642 1.85457 0
M  V30 6602 H 645.423 -0.528999 0.412797 0
M  V30 6603 H 647.967 -1.13803 1.69909 0
M  V30 6604 H 646.122 -3.6053 1.41762 0
M  V30 6605 H 646.536 -3.79223 3.6234 0
M  V30 6606 H 648.01 -4.97613 2.38925 0
M  V30 6607 H 648.487 -4.31327 0.827893 0
M  V30 6608 H 649.093 -3.56298 2.32233 0
M  V30 6609 N 647.408 -1.11026 -1.11852 0
M  V30 6610 C 648.819 -0.873203 -1.65021 0
M  V30 6611 C 649.17 0.595364 -1.86949 0
M  V30 6612 O 648.295 1.45645 -1.60051 0
M  V30 6613 C 648.89 -1.57859 -2.99777 0
M  V30 6614 C 647.449 -1.38807 -3.49871 0
M  V30 6615 C 646.596 -1.62403 -2.24768 0
M  V30 6616 H 649.547 -1.26712 -0.955503 0
M  V30 6617 H 649.568 -1.02111 -3.66543 0
M  V30 6618 H 649.08 -2.6474 -2.83786 0
M  V30 6619 H 647.181 -0.341163 -3.71035 0
M  V30 6620 H 647.294 -2.13421 -4.28938 0
M  V30 6621 H 645.658 -1.04714 -2.32179 0
M  V30 6622 H 646.441 -2.70549 -2.11324 0
M  V30 6623 N 648.886 1.2938 -0.899927 0
M  V30 6624 C 649.849 2.25983 -0.382677 0
M  V30 6625 C 650.849 1.53366 0.483259 0
M  V30 6626 O 652.039 1.71798 0.28828 0
M  V30 6627 C 649.171 3.37878 0.452915 0
M  V30 6628 H 650.364 2.73252 -1.23586 0
M  V30 6629 H 647.917 1.40825 -0.678088 0
M  V30 6630 H 648.652 2.95949 1.32608 0
M  V30 6631 H 648.437 3.91742 -0.167562 0
M  V30 6632 H 649.927 4.09746 0.806107 0
M  V30 6633 N 650.364 0.662433 1.43002 0
M  V30 6634 C 651.61 0.179857 2.02001 0
M  V30 6635 C 651.943 -1.20625 1.52195 0
M  V30 6636 O 651.218 -1.80726 0.718911 0
M  V30 6637 C 651.501 0.200845 3.59539 0
M  V30 6638 C 651.354 1.62153 4.19555 0
M  V30 6639 C 652.673 -0.457738 4.37713 0
M  V30 6640 H 649.792 0.0668305 0.733964 0
M  V30 6641 H 652.434 0.84487 1.70182 0
M  V30 6642 H 650.584 -0.365411 3.86778 0
M  V30 6643 H 652.256 2.23908 4.03315 0
M  V30 6644 H 650.499 2.16601 3.75854 0
M  V30 6645 H 651.17 1.58799 5.28665 0
M  V30 6646 H 653.646 0.0241495 4.16093 0
M  V30 6647 H 652.522 -0.412363 5.47349 0
M  V30 6648 H 652.783 -1.53336 4.14657 0
M  V30 6649 N 651.842 -1.52309 0.404946 0
M  V30 6650 C 653.07 -2.06185 -0.171818 0
M  V30 6651 C 653.485 -1.27536 -1.39212 0
M  V30 6652 O 652.842 -0.326112 -1.79563 0
M  V30 6653 C 652.893 -3.57647 -0.526417 0
M  V30 6654 O 652.614 -4.3332 0.645417 0
M  V30 6655 C 654.115 -4.27925 -1.15736 0
M  V30 6656 H 651.335 -0.670632 -0.0222328 0
M  V30 6657 H 653.879 -1.96259 0.574692 0
M  V30 6658 H 652.034 -3.67595 -1.22282 0
M  V30 6659 H 652.448 -5.23328 0.35042 0
M  V30 6660 H 653.922 -5.35093 -1.35572 0
M  V30 6661 H 654.399 -3.84134 -2.12926 0
M  V30 6662 H 655.005 -4.22335 -0.501281 0
M  V30 6663 N 653.32 -0.135238 -1.57019 0
M  V30 6664 C 654.548 0.526066 -2.001 0
M  V30 6665 C 654.963 1.59184 -1.01519 0
M  V30 6666 O 654.32 1.82497 -0.0104258 0
M  V30 6667 C 654.371 1.13744 -3.43139 0
M  V30 6668 O 654.092 0.114259 -4.37951 0
M  V30 6669 C 655.593 1.8805 -4.01438 0
M  V30 6670 H 652.813 0.137962 -0.656664 0
M  V30 6671 H 655.357 -0.226359 -2.03243 0
M  V30 6672 H 653.512 1.84056 -3.40885 0
M  V30 6673 H 653.926 0.56058 -5.21496 0
M  V30 6674 H 655.4 2.26133 -5.03555 0
M  V30 6675 H 655.877 2.76194 -3.41487 0
M  V30 6676 H 656.483 1.22464 -4.07287 0
M  V30 6677 N 654.798 1.5699 0.138552 0
M  V30 6678 C 656.028 1.87704 0.863184 0
M  V30 6679 C 656.436 0.722411 1.74865 0
M  V30 6680 O 655.779 -0.316636 1.80951 0
M  V30 6681 C 655.841 3.13219 1.76449 0
M  V30 6682 C 655.505 4.44648 1.05532 0
M  V30 6683 C 656.502 5.18318 0.405252 0
M  V30 6684 C 654.187 4.91367 1.04231 0
M  V30 6685 C 656.181 6.36916 -0.24835 0
M  V30 6686 C 653.868 6.09887 0.384904 0
M  V30 6687 C 654.866 6.82508 -0.259292 0
M  V30 6688 O 654.554 7.98775 -0.906258 0
M  V30 6689 H 654.286 0.626255 0.254521 0
M  V30 6690 H 656.84 2.04966 0.133472 0
M  V30 6691 H 655.07 2.91988 2.53535 0
M  V30 6692 H 656.759 3.30111 2.36181 0
M  V30 6693 H 657.525 4.83289 0.407053 0
M  V30 6694 H 653.404 4.34759 1.53315 0
M  V30 6695 H 656.948 6.93538 -0.751755 0
M  V30 6696 H 652.845 6.44376 0.380799 0
M  V30 6697 H 653.613 8.14494 -0.80877 0
M  V30 6698 N 656.276 -0.40816 1.52223 0
M  V30 6699 C 657.223 -1.49737 1.75635 0
M  V30 6700 C 658.193 -1.5493 0.598824 0
M  V30 6701 O 659.378 -1.71487 0.83648 0
M  V30 6702 C 656.518 -2.87174 1.91376 0
M  V30 6703 C 655.631 -2.91283 3.19027 0
M  V30 6704 C 654.766 -4.20026 3.25195 0
M  V30 6705 C 653.805 -4.18113 4.47044 0
M  V30 6706 N 652.942 -5.38429 4.50598 0
M  V30 6707 H 657.782 -1.29075 2.68596 0
M  V30 6708 H 655.319 -0.626518 1.33091 0
M  V30 6709 H 657.277 -3.66959 1.98486 0
M  V30 6710 H 655.907 -3.06329 1.01795 0
M  V30 6711 H 654.959 -2.03984 3.21084 0
M  V30 6712 H 656.271 -2.85734 4.08849 0
M  V30 6713 H 655.425 -5.08204 3.31382 0
M  V30 6714 H 654.164 -4.28271 2.33313 0
M  V30 6715 H 653.169 -3.28325 4.41002 0
M  V30 6716 H 654.394 -4.11507 5.40221 0
M  V30 6717 H 652.34 -5.4734 3.616 0
M  V30 6718 H 652.257 -5.34879 5.34266 0
M  V30 6719 H 653.525 -6.28557 4.61016 0
M  V30 6720 N 657.755 -1.42862 -0.66545 0
M  V30 6721 C 658.685 -1.49867 -1.79059 0
M  V30 6722 C 659.666 -0.354394 -1.66367 0
M  V30 6723 O 660.851 -0.569969 -1.85647 0
M  V30 6724 C 657.981 -1.40943 -3.17415 0
M  V30 6725 C 656.935 -2.53495 -3.44854 0
M  V30 6726 C 656.261 -2.29626 -4.82883 0
M  V30 6727 C 657.561 -3.95781 -3.40815 0
M  V30 6728 H 659.255 -2.44037 -1.73453 0
M  V30 6729 H 656.801 -1.17456 -0.833071 0
M  V30 6730 H 658.754 -1.4445 -3.95869 0
M  V30 6731 H 657.478 -0.432716 -3.23721 0
M  V30 6732 H 656.137 -2.4932 -2.68766 0
M  V30 6733 H 655.785 -1.30226 -4.8585 0
M  V30 6734 H 655.485 -3.05065 -5.02204 0
M  V30 6735 H 657.009 -2.34897 -5.63609 0
M  V30 6736 H 658.423 -4.01508 -4.09224 0
M  V30 6737 H 656.82 -4.71148 -3.71672 0
M  V30 6738 H 657.89 -4.21786 -2.39216 0
M  V30 6739 N 659.233 0.902656 -1.29189 0
M  V30 6740 C 660.479 1.65532 -1.17163 0
M  V30 6741 C 660.812 1.92216 0.276879 0
M  V30 6742 O 660.087 1.53048 1.20027 0
M  V30 6743 C 660.37 3.00629 -1.98228 0
M  V30 6744 C 660.223 2.81029 -3.51202 0
M  V30 6745 C 661.542 4.01321 -1.80635 0
M  V30 6746 H 658.661 0.60071 -0.426985 0
M  V30 6747 H 661.303 1.04578 -1.5863 0
M  V30 6748 H 659.453 3.52656 -1.62991 0
M  V30 6749 H 661.125 2.35927 -3.96404 0
M  V30 6750 H 659.368 2.1587 -3.76275 0
M  V30 6751 H 660.039 3.77014 -4.03192 0
M  V30 6752 H 662.515 3.58394 -2.11406 0
M  V30 6753 H 661.391 4.93792 -2.3971 0
M  V30 6754 H 661.652 4.35505 -0.760754 0
M  V30 6755 N 660.711 1.11618 1.11262 0
M  V30 6756 C 661.96 0.860934 1.82403 0
M  V30 6757 C 662.273 -0.615303 1.8567 0
M  V30 6758 O 663.479 -0.986861 2.52929 0
M  V30 6759 C 661.935 1.49048 3.27586 0
M  V30 6760 C 661.543 3.00089 3.32642 0
M  V30 6761 C 663.287 1.31515 4.03614 0
M  V30 6762 C 661.194 3.56019 4.72234 0
M  V30 6763 H 660.124 0.318423 0.683464 0
M  V30 6764 H 662.775 1.34165 1.25188 0
M  V30 6765 H 661.157 0.937434 3.84744 0
M  V30 6766 H 662.331 3.61813 2.85356 0
M  V30 6767 H 660.646 3.16919 2.70096 0
M  V30 6768 H 663.243 1.70732 5.0671 0
M  V30 6769 H 663.586 0.257917 4.155 0
M  V30 6770 H 664.119 1.83694 3.52848 0
M  V30 6771 H 660.858 4.61463 4.65545 0
M  V30 6772 H 660.378 2.99066 5.19923 0
M  V30 6773 H 662.057 3.54568 5.41193 0
M  V30 6774 N 662.189 -1.289 0.906776 0
M  V30 6775 C 663.137 -2.29477 0.379873 0
M  V30 6776 C 664.131 -1.61068 -0.524747 0
M  V30 6777 O 665.337 -1.75344 -0.406765 0
M  V30 6778 H 661.712 -0.744742 0.10423 0
M  V30 6779 H 663.683 -2.71353 1.24137 0
M  V30 6780 C 662.432 -3.45713 -0.371154 0
M  V30 6781 H 661.755 -3.98551 0.315716 0
M  V30 6782 H 663.195 -4.18105 -0.704581 0
M  V30 6783 C 661.654 -2.9774 -1.57646 0
M  V30 6784 O 662.184 -2.99618 -2.67567 0
M  V30 6785 N 660.39 -2.53485 -1.42105 0
M  V30 6786 H 659.937 -2.52156 -0.526783 0
M  V30 6787 H 659.895 -2.21747 -2.22881 0
M  V30 6788 N 663.667 -0.670007 -1.42649 0
M  V30 6789 C 664.915 -0.18991 -2.01206 0
M  V30 6790 C 665.236 1.20617 -1.53221 0
M  V30 6791 O 664.506 1.80898 -0.751856 0
M  V30 6792 H 663.086 -0.0672189 -0.743969 0
M  V30 6793 H 665.748 -0.865442 -1.74631 0
M  V30 6794 H 664.844 -0.187481 -3.11536 0
M  V30 6795 N 665.145 1.52092 -0.413018 0
M  V30 6796 C 666.092 2.27119 0.410558 0
M  V30 6797 C 667.062 1.29692 1.03774 0
M  V30 6798 O 668.247 1.58561 1.06128 0
M  V30 6799 C 665.387 3.09863 1.51918 0
M  V30 6800 C 664.5 4.22252 0.912528 0
M  V30 6801 C 663.635 4.92348 1.99417 0
M  V30 6802 C 662.674 5.96694 1.36466 0
M  V30 6803 N 661.811 6.60292 2.38661 0
M  V30 6804 H 666.651 2.97067 -0.235661 0
M  V30 6805 H 664.188 1.46542 -0.128055 0
M  V30 6806 H 666.146 3.56144 2.17295 0
M  V30 6807 H 664.776 2.42078 2.13537 0
M  V30 6808 H 663.828 3.80113 0.147697 0
M  V30 6809 H 665.14 4.9709 0.412717 0
M  V30 6810 H 664.294 5.42054 2.72512 0
M  V30 6811 H 663.033 4.17087 2.52764 0
M  V30 6812 H 662.038 5.46304 0.61906 0
M  V30 6813 H 663.263 6.73899 0.838827 0
M  V30 6814 H 661.209 5.87858 2.91134 0
M  V30 6815 H 661.126 7.30816 1.93503 0
M  V30 6816 H 662.394 7.14635 3.11314 0
M  V30 6817 N 666.623 0.143563 1.56945 0
M  V30 6818 C 667.851 -0.515447 2.00377 0
M  V30 6819 C 668.266 -1.58643 1.02361 0
M  V30 6820 O 667.623 -1.82489 0.0201039 0
M  V30 6821 C 667.674 -1.11923 3.43737 0
M  V30 6822 O 667.395 -0.0910318 4.38005 0
M  V30 6823 C 668.896 -1.85918 4.02429 0
M  V30 6824 H 666.116 -0.134478 0.657386 0
M  V30 6825 H 668.66 0.237135 2.0312 0
M  V30 6826 H 666.815 -1.82245 3.41856 0
M  V30 6827 H 667.229 -0.532916 5.21786 0
M  V30 6828 H 668.703 -2.2346 5.04747 0
M  V30 6829 H 669.18 -2.7438 3.42947 0
M  V30 6830 H 669.786 -1.20303 4.07931 0
M  V30 6831 N 668.101 -1.57061 -0.130224 0
M  V30 6832 C 669.031 -2.02552 -1.16168 0
M  V30 6833 C 670.012 -0.907971 -1.4384 0
M  V30 6834 O 671.197 -1.17693 -1.54473 0
M  V30 6835 C 668.327 -2.42035 -2.49071 0
M  V30 6836 C 667.281 -3.5713 -2.35886 0
M  V30 6837 C 666.607 -3.82478 -3.7365 0
M  V30 6838 C 667.907 -4.89236 -1.8288 0
M  V30 6839 H 669.601 -2.8897 -0.783359 0
M  V30 6840 H 667.147 -1.39021 -0.375376 0
M  V30 6841 H 669.1 -2.72462 -3.21469 0
M  V30 6842 H 667.824 -1.52573 -2.88771 0
M  V30 6843 H 666.483 -3.26895 -1.65938 0
M  V30 6844 H 666.131 -2.9024 -4.10816 0
M  V30 6845 H 665.831 -4.59944 -3.65685 0
M  V30 6846 H 667.355 -4.15347 -4.47571 0
M  V30 6847 H 668.769 -5.18272 -2.45085 0
M  V30 6848 H 667.166 -5.70624 -1.85763 0
M  V30 6849 H 668.236 -4.78494 -0.785571 0
M  V30 6850 N 669.579 0.400081 -1.52437 0
M  V30 6851 C 670.526 1.48803 -1.76426 0
M  V30 6852 C 671.496 1.5461 -0.607032 0
M  V30 6853 O 672.681 1.71041 -0.845563 0
M  V30 6854 C 669.821 2.86156 -1.92896 0
M  V30 6855 C 668.934 2.89587 -3.20567 0
M  V30 6856 C 668.069 4.18296 -3.27417 0
M  V30 6857 C 667.108 4.15736 -4.49255 0
M  V30 6858 N 666.245 5.36032 -4.53447 0
M  V30 6859 H 671.085 1.27649 -2.69276 0
M  V30 6860 H 668.622 0.619451 -1.33421 0
M  V30 6861 H 670.58 3.65901 -2.00429 0
M  V30 6862 H 669.21 3.05785 -1.03418 0
M  V30 6863 H 668.262 2.02278 -3.22161 0
M  V30 6864 H 669.574 2.83562 -4.10358 0
M  V30 6865 H 668.728 5.06439 -3.34072 0
M  V30 6866 H 667.467 4.27028 -2.35581 0
M  V30 6867 H 666.472 3.25982 -4.42737 0
M  V30 6868 H 667.697 4.08636 -5.42396 0
M  V30 6869 H 665.643 5.45415 -3.64498 0
M  V30 6870 H 665.56 5.32038 -5.37096 0
M  V30 6871 H 666.828 6.26104 -4.64343 0
M  V30 6872 N 671.057 1.43213 0.657864 0
M  V30 6873 C 672.305 1.44298 1.41501 0
M  V30 6874 C 672.626 0.0666478 1.94886 0
M  V30 6875 O 671.896 -0.897345 1.74139 0
M  V30 6876 H 670.476 0.531257 0.525143 0
M  V30 6877 H 673.138 1.78777 0.776195 0
M  V30 6878 H 672.234 2.1528 2.25966 0
M  V30 6879 N 672.536 -0.895792 1.29666 0
M  V30 6880 C 673.446 -2.03329 1.17024 0
M  V30 6881 C 674.462 -1.73753 0.0925962 0
M  V30 6882 O 675.638 -1.99071 0.305431 0
M  V30 6883 C 672.703 -3.36072 0.851841 0
M  V30 6884 C 671.764 -3.7914 2.01373 0
M  V30 6885 C 670.997 -5.05549 1.71043 0
M  V30 6886 O 671.22 -5.66874 0.633213 0
M  V30 6887 O 670.154 -5.44764 2.5596 0
M  V30 6888 H 673.98 -2.16918 2.12556 0
M  V30 6889 H 671.565 -1.02007 1.09156 0
M  V30 6890 H 673.447 -4.15729 0.689006 0
M  V30 6891 H 672.122 -3.23616 -0.0736634 0
M  V30 6892 H 671.029 -3.00233 2.23183 0
M  V30 6893 H 672.362 -3.96186 2.92058 0
M  V30 6894 N 674.014 -1.12206 -1.10668 0
M  V30 6895 C 675.242 -0.898635 -1.86366 0
M  V30 6896 C 675.657 0.551991 -1.80551 0
M  V30 6897 O 675.014 1.38152 -1.19249 0
M  V30 6898 C 675.065 -1.36199 -3.34861 0
M  V30 6899 O 674.786 -2.75576 -3.40573 0
M  V30 6900 C 676.287 -1.17515 -4.2744 0
M  V30 6901 H 673.507 -0.321281 -0.589084 0
M  V30 6902 H 676.051 -1.49142 -1.39918 0
M  V30 6903 H 674.206 -0.81249 -3.78784 0
M  V30 6904 H 674.62 -2.95851 -4.33096 0
M  V30 6905 H 676.094 -1.54827 -5.29842 0
M  V30 6906 H 676.571 -0.115486 -4.39048 0
M  V30 6907 H 677.177 -1.71203 -3.89319 0
M  V30 6908 N 675.492 1.28418 -0.913599 0
M  V30 6909 C 676.72 1.99106 -0.562536 0
M  V30 6910 C 677.135 1.68273 0.856137 0
M  V30 6911 O 676.492 0.935401 1.56705 0
M  V30 6912 C 676.543 3.5338 -0.761903 0
M  V30 6913 O 676.264 3.83127 -2.12475 0
M  V30 6914 C 677.765 4.41328 -0.417651 0
M  V30 6915 H 674.985 0.635798 -0.214481 0
M  V30 6916 H 677.529 1.63618 -1.22676 0
M  V30 6917 H 675.684 3.8713 -0.144676 0
M  V30 6918 H 676.098 4.77763 -2.16431 0
M  V30 6919 H 677.572 5.48642 -0.607919 0
M  V30 6920 H 678.049 4.34422 0.646108 0
M  V30 6921 H 678.655 4.13074 -1.01241 0
M  V30 6922 N 676.97 0.677563 1.42291 0
M  V30 6923 C 678.198 0.209459 2.05837 0
M  V30 6924 C 678.613 -1.13444 1.50917 0
M  V30 6925 O 677.97 -1.70529 0.65008 0
M  V30 6926 C 678.021 0.138819 3.61233 0
M  V30 6927 O 677.742 1.42962 4.14118 0
M  V30 6928 C 679.243 -0.352449 4.41897 0
M  V30 6929 H 676.463 0.101209 0.663323 0
M  V30 6930 H 679.007 0.925077 1.8238 0
M  V30 6931 H 677.162 -0.527505 3.83792 0
M  V30 6932 H 677.576 1.3048 5.08011 0
M  V30 6933 H 679.05 -0.350778 5.50884 0
M  V30 6934 H 679.527 -1.3882 4.16684 0
M  V30 6935 H 680.133 0.282236 4.24362 0
M  V30 6936 N 678.448 -1.51871 0.421078 0
M  V30 6937 C 679.395 -2.27334 -0.398508 0
M  V30 6938 C 680.365 -1.30241 -1.03085 0
M  V30 6939 O 681.55 -1.59121 -1.05285 0
M  V30 6940 C 678.69 -3.10664 -1.50272 0
M  V30 6941 C 677.803 -4.2273 -0.890122 0
M  V30 6942 C 676.938 -4.93399 -1.96803 0
M  V30 6943 C 675.977 -5.97409 -1.333 0
M  V30 6944 N 675.114 -6.61548 -2.35156 0
M  V30 6945 H 679.954 -2.96938 0.251411 0
M  V30 6946 H 677.491 -1.46472 0.135825 0
M  V30 6947 H 679.449 -3.57292 -2.15403 0
M  V30 6948 H 678.079 -2.43207 -2.1225 0
M  V30 6949 H 677.131 -3.80186 -0.127537 0
M  V30 6950 H 678.443 -4.97302 -0.386349 0
M  V30 6951 H 677.597 -5.43491 -2.69633 0
M  V30 6952 H 676.336 -4.18421 -2.50549 0
M  V30 6953 H 675.341 -5.46624 -0.59008 0
M  V30 6954 H 676.566 -6.74335 -0.803076 0
M  V30 6955 H 674.512 -5.89394 -2.88012 0
M  V30 6956 H 674.429 -7.31832 -1.89624 0
M  V30 6957 H 675.697 -7.16276 -3.0752 0
M  V30 6958 N 679.926 -0.151884 -1.56866 0
M  V30 6959 C 680.889 0.771861 -2.15812 0
M  V30 6960 C 681.889 1.17181 -1.10115 0
M  V30 6961 O 683.079 1.09194 -1.35729 0
M  V30 6962 C 680.211 2.04806 -2.7252 0
M  V30 6963 H 681.404 0.259021 -2.98779 0
M  V30 6964 H 678.957 0.097588 -1.55995 0
M  V30 6965 H 679.692 2.60445 -1.93233 0
M  V30 6966 H 679.477 1.77044 -3.49854 0
M  V30 6967 H 680.967 2.70771 -3.1792 0
M  V30 6968 N 681.404 1.57128 0.121893 0
M  V30 6969 C 682.65 1.84974 0.831418 0
M  V30 6970 C 682.983 0.737204 1.79663 0
M  V30 6971 O 682.258 -0.257199 1.92792 0
M  V30 6972 C 682.541 3.23397 1.58386 0
M  V30 6973 C 682.394 4.45246 0.638445 0
M  V30 6974 C 683.713 3.59355 2.54071 0
M  V30 6975 H 680.832 0.67282 0.300803 0
M  V30 6976 H 683.474 1.89759 0.0957587 0
M  V30 6977 H 681.624 3.19449 2.21098 0
M  V30 6978 H 683.296 4.61295 0.0203925 0
M  V30 6979 H 681.539 4.33771 -0.05023 0
M  V30 6980 H 682.21 5.38765 1.20151 0
M  V30 6981 H 684.686 3.64075 2.01465 0
M  V30 6982 H 683.562 4.57193 3.03752 0
M  V30 6983 H 683.823 2.86622 3.36601 0
M  V30 6984 N 682.882 -0.391992 1.52647 0
M  V30 6985 C 684.159 -1.15136 1.58123 0
M  V30 6986 C 684.539 -2.07786 0.372597 0
M  V30 6987 O 683.887 -2.19374 -0.639304 0
M  V30 6988 C 684.097 -1.91367 2.91856 0
M  V30 6989 C 685.445 -2.46833 3.45483 0
M  V30 6990 O 686.469 -2.01527 2.9371 0
M  V30 6991 O 685.328 -3.29587 4.3593 0
M  V30 6992 H 682.422 -0.526649 0.637629 0
M  V30 6993 H 684.968 -0.397386 1.64982 0
M  V30 6994 H 683.74 -1.23597 3.71268 0
M  V30 6995 H 683.363 -2.73732 2.88369 0
M  V30 6996 N 684.36 -1.4356 -0.65026 0
M  V30 6997 C 685.323 -1.48615 -1.74489 0
M  V30 6998 C 686.323 -0.370483 -1.56474 0
M  V30 6999 O 687.513 -0.632351 -1.62317 0
M  V30 7000 C 684.645 -1.34161 -3.13391 0
M  V30 7001 H 685.838 -2.46103 -1.71387 0
M  V30 7002 H 683.391 -1.30369 -0.862186 0
M  V30 7003 H 684.126 -0.376918 -3.22102 0
M  V30 7004 H 683.911 -2.1504 -3.27872 0
M  V30 7005 H 685.401 -1.40637 -3.93206 0
M  V30 7006 N 685.838 0.888903 -1.30139 0
M  V30 7007 C 686.748 2.02705 -1.18101 0
M  V30 7008 C 687.764 1.73702 -0.101809 0
M  V30 7009 O 688.94 1.98906 -0.315984 0
M  V30 7010 C 686.005 3.35616 -0.869651 0
M  V30 7011 C 685.066 3.78067 -2.03381 0
M  V30 7012 C 684.299 5.04635 -1.73721 0
M  V30 7013 O 684.522 5.66531 -0.663267 0
M  V30 7014 O 683.456 5.43399 -2.58845 0
M  V30 7015 H 687.282 2.15788 -2.13704 0
M  V30 7016 H 684.867 1.01426 -1.09695 0
M  V30 7017 H 686.749 4.15358 -0.711043 0
M  V30 7018 H 685.424 3.23651 0.0565002 0
M  V30 7019 H 684.331 2.99046 -2.24772 0
M  V30 7020 H 685.664 3.94631 -2.94155 0
M  V30 7021 N 687.317 1.12792 1.10072 0
M  V30 7022 C 688.545 0.908506 1.85886 0
M  V30 7023 C 688.96 -0.542408 1.80841 0
M  V30 7024 O 688.317 -1.37517 1.1998 0
M  V30 7025 C 688.368 1.37973 3.34134 0
M  V30 7026 O 688.089 2.77378 3.39106 0
M  V30 7027 C 689.59 1.1978 4.26811 0
M  V30 7028 H 686.81 0.3244 0.587372 0
M  V30 7029 H 689.354 1.49882 1.39125 0
M  V30 7030 H 687.509 0.832566 3.78348 0
M  V30 7031 H 687.923 2.98144 4.31521 0
M  V30 7032 H 689.397 1.57635 5.29014 0
M  V30 7033 H 689.874 0.138768 4.38981 0
M  V30 7034 H 690.48 1.73266 3.88406 0
M  V30 7035 N 688.795 -1.27931 0.920396 0
M  V30 7036 C 689.758 -2.25345 0.41858 0
M  V30 7037 C 690.758 -1.54116 -0.458798 0
M  V30 7038 O 691.948 -1.72235 -0.260912 0
M  V30 7039 C 689.08 -3.38556 -0.399104 0
M  V30 7040 H 690.273 -2.71251 1.27918 0
M  V30 7041 H 687.826 -1.39728 0.700406 0
M  V30 7042 H 688.561 -2.98021 -1.27882 0
M  V30 7043 H 688.346 -3.91426 0.229863 0
M  V30 7044 H 689.836 -4.10976 -0.740817 0
M  V30 7045 N 690.273 -0.685099 -1.4193 0
M  V30 7046 C 691.183 -0.013404 -2.34596 0
M  V30 7047 C 692.199 0.777589 -1.55658 0
M  V30 7048 O 693.375 0.717553 -1.88184 0
M  V30 7049 C 690.44 0.919031 -3.34297 0
M  V30 7050 C 689.501 0.121417 -4.29128 0
M  V30 7051 C 688.734 1.00944 -5.24067 0
M  V30 7052 O 688.957 2.24898 -5.24192 0
M  V30 7053 O 687.891 0.464724 -6.00103 0
M  V30 7054 H 691.717 -0.776978 -2.93593 0
M  V30 7055 H 689.302 -0.445379 -1.42607 0
M  V30 7056 H 691.184 1.45402 -3.9552 0
M  V30 7057 H 689.859 1.66228 -2.77759 0
M  V30 7058 H 688.766 -0.45792 -3.71287 0
M  V30 7059 H 690.099 -0.582937 -4.88736 0
M  V30 7060 N 691.751 1.51645 -0.429126 0
M  V30 7061 C 692.698 2.27542 0.386446 0
M  V30 7062 C 693.668 1.30786 1.02393 0
M  V30 7063 O 694.853 1.59678 1.0444 0
M  V30 7064 C 691.993 3.11457 1.48623 0
M  V30 7065 C 691.106 4.23196 0.867691 0
M  V30 7066 C 690.241 4.94435 1.94183 0
M  V30 7067 C 689.28 5.98108 1.30129 0
M  V30 7068 N 688.417 6.62786 2.31644 0
M  V30 7069 H 693.257 2.968 -0.267155 0
M  V30 7070 H 690.794 1.46397 -0.143591 0
M  V30 7071 H 692.752 3.58429 2.13506 0
M  V30 7072 H 691.382 2.44329 2.10957 0
M  V30 7073 H 690.434 3.80248 0.107373 0
M  V30 7074 H 691.746 4.97499 0.35997 0
M  V30 7075 H 690.9 5.44914 2.66747 0
M  V30 7076 H 689.639 4.19744 2.48326 0
M  V30 7077 H 688.644 5.4693 0.561082 0
M  V30 7078 H 689.869 6.74751 0.767303 0
M  V30 7079 H 687.815 5.90913 2.84883 0
M  V30 7080 H 687.732 7.32828 1.85741 0
M  V30 7081 H 689 7.17897 3.03717 0
M  V30 7082 N 693.229 0.160201 1.56784 0
M  V30 7083 C 694.192 -0.760405 2.16219 0
M  V30 7084 C 695.192 -1.16595 1.10735 0
M  V30 7085 O 696.382 -1.08472 1.36306 0
M  V30 7086 C 693.514 -2.03358 2.73603 0
M  V30 7087 H 694.707 -0.243173 2.98912 0
M  V30 7088 H 692.26 -0.0893139 1.56045 0
M  V30 7089 H 692.995 -2.59416 1.94612 0
M  V30 7090 H 692.78 -1.75186 3.50788 0
M  V30 7091 H 694.27 -2.69081 3.19351 0
M  V30 7092 N 694.707 -1.5719 -0.113559 0
M  V30 7093 C 695.954 -1.85138 -0.820382 0
M  V30 7094 C 696.282 -0.74608 -1.79622 0
M  V30 7095 O 695.537 0.262077 -1.93937 0
M  V30 7096 C 695.836 -3.19593 -1.59984 0
M  V30 7097 C 695.502 -4.44315 -0.767809 0
M  V30 7098 C 694.164 -4.78179 -0.538379 0
M  V30 7099 C 696.516 -5.2086 -0.188203 0
M  V30 7100 C 693.844 -5.86028 0.28082 0
M  V30 7101 C 696.196 -6.29572 0.618217 0
M  V30 7102 C 694.86 -6.61964 0.857912 0
M  V30 7103 H 694.13 -0.677467 -0.300199 0
M  V30 7104 H 696.777 -1.91322 -0.0825443 0
M  V30 7105 H 695.082 -3.0901 -2.40874 0
M  V30 7106 H 696.779 -3.3844 -2.1508 0
M  V30 7107 H 693.369 -4.17786 -0.956724 0
M  V30 7108 H 697.553 -4.95045 -0.352658 0
M  V30 7109 H 692.809 -6.09547 0.475693 0
M  V30 7110 H 696.983 -6.88064 1.0743 0
M  V30 7111 H 694.61 -7.45365 1.49451 0
M  V30 7112 N 696.185 0.383891 -1.52853 0
M  V30 7113 C 697.132 1.46924 -1.77995 0
M  V30 7114 C 698.102 1.53958 -0.623396 0
M  V30 7115 O 699.287 1.70134 -0.863657 0
M  V30 7116 C 696.427 2.84093 -1.95921 0
M  V30 7117 C 695.54 2.86171 -3.23621 0
M  V30 7118 C 694.675 4.14799 -3.31836 0
M  V30 7119 C 693.714 4.10948 -4.53639 0
M  V30 7120 N 692.851 5.31192 -4.59107 0
M  V30 7121 H 697.691 1.24786 -2.70615 0
M  V30 7122 H 695.228 0.605265 -1.34071 0
M  V30 7123 H 697.186 3.63755 -2.04299 0
M  V30 7124 H 695.816 3.04671 -1.06656 0
M  V30 7125 H 694.868 1.9885 -3.24288 0
M  V30 7126 H 696.18 2.79194 -4.13343 0
M  V30 7127 H 695.334 5.02867 -3.39425 0
M  V30 7128 H 694.073 4.24505 -2.40097 0
M  V30 7129 H 693.078 3.21268 -4.46169 0
M  V30 7130 H 694.303 4.0286 -5.467 0
M  V30 7131 H 692.249 5.41518 -3.70262 0
M  V30 7132 H 692.166 5.26311 -5.42708 0
M  V30 7133 H 693.434 6.21143 -4.70958 0
M  V30 7134 N 697.663 1.43903 0.642637 0
M  V30 7135 C 698.595 1.45857 1.768 0
M  V30 7136 C 699.608 0.353358 1.58919 0
M  V30 7137 O 700.797 0.618426 1.67445 0
M  V30 7138 C 697.897 1.26583 3.14372 0
M  V30 7139 C 697.07 2.50139 3.58817 0
M  V30 7140 C 696.129 2.25933 4.75227 0
M  V30 7141 O 695.155 2.99351 4.84125 0
M  V30 7142 N 696.357 1.28263 5.66153 0
M  V30 7143 H 699.122 2.42869 1.75598 0
M  V30 7144 H 696.683 1.39194 0.826832 0
M  V30 7145 H 698.675 1.08255 3.89953 0
M  V30 7146 H 697.245 0.37978 3.10284 0
M  V30 7147 H 696.465 2.83821 2.73568 0
M  V30 7148 H 697.753 3.32344 3.8526 0
M  V30 7149 H 697.151 0.676041 5.61646 0
M  V30 7150 H 695.708 1.15916 6.4141 0
M  V30 7151 N 699.141 -0.881989 1.30609 0
M  V30 7152 C 700.371 -1.66469 1.22359 0
M  V30 7153 C 700.779 -1.87969 -0.215507 0
M  V30 7154 O 700.122 -1.42938 -1.15388 0
M  V30 7155 C 700.184 -3.06135 1.88472 0
M  V30 7156 C 699.848 -3.07795 3.37804 0
M  V30 7157 C 700.845 -2.86633 4.33749 0
M  V30 7158 C 698.53 -3.29297 3.793 0
M  V30 7159 C 700.524 -2.86934 5.69164 0
M  V30 7160 C 698.211 -3.29228 5.14832 0
M  V30 7161 C 699.209 -3.08071 6.09574 0
M  V30 7162 O 698.897 -3.07824 7.4263 0
M  V30 7163 H 698.629 -0.526129 0.424458 0
M  V30 7164 H 701.183 -1.11004 1.72821 0
M  V30 7165 H 699.413 -3.63276 1.32543 0
M  V30 7166 H 701.102 -3.66571 1.74301 0
M  V30 7167 H 701.868 -2.69814 4.0302 0
M  V30 7168 H 697.747 -3.44799 3.05998 0
M  V30 7169 H 701.291 -2.70339 6.43088 0
M  V30 7170 H 697.188 -3.45583 5.452 0
M  V30 7171 H 697.956 -3.2397 7.51656 0
M  V30 7172 N 700.619 -1.13374 -1.09472 0
M  V30 7173 C 701.582 -0.813639 -2.14272 0
M  V30 7174 C 702.582 0.176677 -1.59826 0
M  V30 7175 O 703.772 -0.0503441 -1.74127 0
M  V30 7176 C 700.904 -0.210897 -3.40247 0
M  V30 7177 H 702.097 -1.74229 -2.44099 0
M  V30 7178 H 699.65 -0.938304 -1.25002 0
M  V30 7179 H 700.385 0.726998 -3.16046 0
M  V30 7180 H 700.17 -0.924048 -3.81056 0
M  V30 7181 H 701.66 -0.00377603 -4.176 0
M  V30 7182 N 702.098 1.27442 -0.927168 0
M  V30 7183 C 703.046 2.28844 -0.416333 0
M  V30 7184 C 704.04 1.61882 0.499057 0
M  V30 7185 O 705.246 1.75969 0.378817 0
M  V30 7186 H 701.621 0.742989 -0.116065 0
M  V30 7187 H 703.592 2.69344 -1.28438 0
M  V30 7188 C 702.341 3.4626 0.316107 0
M  V30 7189 H 701.664 3.97999 -0.379082 0
M  V30 7190 H 703.104 4.19173 0.637975 0
M  V30 7191 C 701.563 3.00211 1.5289 0
M  V30 7192 O 702.093 3.03837 2.62766 0
M  V30 7193 N 700.299 2.55713 1.38054 0
M  V30 7194 H 699.846 2.52962 0.4866 0
M  V30 7195 H 699.804 2.25264 2.19325 0
M  V30 7196 N 703.576 0.692616 1.41565 0
M  V30 7197 C 704.853 0.150496 1.9502 0
M  V30 7198 C 705.233 -1.33881 1.63215 0
M  V30 7199 O 704.581 -2.08378 0.937598 0
M  V30 7200 C 704.791 0.438636 3.46233 0
M  V30 7201 C 706.139 0.364777 4.2303 0
M  V30 7202 O 707.163 0.373383 3.54238 0
M  V30 7203 O 706.022 0.32234 5.45549 0
M  V30 7204 H 703.116 0.0132454 0.826894 0
M  V30 7205 H 705.662 0.768574 1.51298 0
M  V30 7206 H 704.434 1.46962 3.62654 0
M  V30 7207 H 704.057 -0.210562 3.97042 0
M  V30 7208 N 705.054 -1.51416 0.437162 0
M  V30 7209 C 706.002 -2.29328 -0.388765 0
M  V30 7210 C 706.996 -1.35171 -1.02104 0
M  V30 7211 O 708.202 -1.52513 -0.956024 0
M  V30 7212 H 704.577 -0.738048 -0.144183 0
M  V30 7213 H 706.548 -2.96995 0.289212 0
M  V30 7214 C 705.297 -3.14741 -1.47761 0
M  V30 7215 H 704.62 -3.8708 -1.00045 0
M  V30 7216 H 706.06 -3.72313 -2.02877 0
M  V30 7217 C 704.519 -2.30105 -2.46076 0
M  V30 7218 O 705.049 -1.96055 -3.50607 0
M  V30 7219 N 703.255 -1.93331 -2.1696 0
M  V30 7220 H 702.802 -2.2122 -1.31983 0
M  V30 7221 H 702.76 -1.36999 -2.82982 0
M  V30 7222 N 706.532 -0.168513 -1.56696 0
M  V30 7223 C 707.78 0.476216 -1.96409 0
M  V30 7224 C 708.101 1.63968 -1.05544 0
M  V30 7225 O 707.371 1.95525 -0.121235 0
M  V30 7226 H 705.951 0.178921 -0.725256 0
M  V30 7227 H 708.613 -0.249042 -1.93302 0
M  V30 7228 H 707.709 0.838094 -3.00637 0
M  V30 7229 N 708.01 1.57248 0.105221 0
M  V30 7230 C 709.256 1.85845 0.811753 0
M  V30 7231 C 709.589 0.756219 1.78871 0
M  V30 7232 O 708.864 -0.236736 1.93054 0
M  V30 7233 C 709.147 3.25059 1.54947 0
M  V30 7234 C 709 4.45898 0.591185 0
M  V30 7235 C 710.319 3.6203 2.50245 0
M  V30 7236 H 707.438 0.675973 0.293649 0
M  V30 7237 H 710.08 1.89849 0.0756269 0
M  V30 7238 H 708.23 3.21776 2.17698 0
M  V30 7239 H 709.902 4.61291 -0.0285352 0
M  V30 7240 H 708.145 4.33693 -0.0962343 0
M  V30 7241 H 708.816 5.40009 1.1443 0
M  V30 7242 H 711.292 3.66192 1.97593 0
M  V30 7243 H 710.168 4.60389 2.98886 0
M  V30 7244 H 710.429 2.90176 3.33542 0
M  V30 7245 N 709.488 -0.375779 1.53054 0
M  V30 7246 C 710.765 -1.13453 1.59336 0
M  V30 7247 C 711.145 -2.07379 0.394614 0
M  V30 7248 O 710.493 -2.2004 -0.616 0
M  V30 7249 C 710.703 -1.8826 2.93869 0
M  V30 7250 C 712.051 -2.43155 3.48081 0
M  V30 7251 O 713.075 -1.984 2.95831 0
M  V30 7252 O 711.934 -3.24944 4.39401 0
M  V30 7253 H 709.028 -0.519856 0.643179 0
M  V30 7254 H 711.574 -0.379865 1.65394 0
M  V30 7255 H 710.346 -1.19652 3.72558 0
M  V30 7256 H 709.969 -2.70658 2.91256 0
M  V30 7257 N 710.966 -1.44241 -0.634997 0
M  V30 7258 C 712.214 -1.46531 -1.39187 0
M  V30 7259 C 712.535 -0.0976441 -1.94755 0
M  V30 7260 O 711.805 0.869528 -1.75545 0
M  V30 7261 H 710.385 -0.539544 -0.516625 0
M  V30 7262 H 713.047 -1.79989 -0.747655 0
M  V30 7263 H 712.143 -2.18848 -2.22513 0
M  V30 7264 N 712.444 0.87505 -1.31075 0
M  V30 7265 C 713.69 1.63009 -1.20647 0
M  V30 7266 C 714.023 1.9276 0.236045 0
M  V30 7267 O 713.298 1.55559 1.16754 0
M  V30 7268 C 713.581 2.96357 -2.0456 0
M  V30 7269 C 713.434 2.73516 -3.57084 0
M  V30 7270 C 714.753 3.974 -1.89107 0
M  V30 7271 H 711.872 0.591518 -0.439631 0
M  V30 7272 H 714.514 1.0119 -1.60812 0
M  V30 7273 H 712.664 3.49119 -1.70435 0
M  V30 7274 H 714.336 2.27465 -4.01319 0
M  V30 7275 H 712.579 2.0784 -3.80769 0
M  V30 7276 H 713.25 3.68377 -4.11099 0
M  V30 7277 H 715.726 3.5383 -2.18961 0
M  V30 7278 H 714.602 4.88596 -2.5013 0
M  V30 7279 H 714.863 4.33794 -0.85296 0
M  V30 7280 N 713.922 1.13953 1.08869 0
M  V30 7281 C 715.168 0.916103 1.81602 0
M  V30 7282 C 715.523 -0.551633 1.84322 0
M  V30 7283 O 714.816 -1.40322 1.30462 0
M  V30 7284 C 715.01 1.44495 3.26888 0
M  V30 7285 C 714.839 2.96257 3.38322 0
M  V30 7286 C 713.609 3.64658 3.49789 0
M  V30 7287 C 715.807 3.94156 3.30372 0
M  V30 7288 N 713.789 5.04379 3.49965 0
M  V30 7289 C 715.16 5.20101 3.37484 0
M  V30 7290 C 717.215 3.86342 3.14077 0
M  V30 7291 C 715.918 6.39145 3.29979 0
M  V30 7292 C 717.944 5.04927 3.07901 0
M  V30 7293 C 717.306 6.29738 3.1561 0
M  V30 7294 H 713.405 0.388701 0.678554 0
M  V30 7295 H 715.989 1.44879 1.3007 0
M  V30 7296 H 714.16 0.939102 3.76876 0
M  V30 7297 H 715.892 1.16193 3.87661 0
M  V30 7298 H 712.647 3.15196 3.5348 0
M  V30 7299 H 713.071 5.77305 3.53622 0
M  V30 7300 H 717.713 2.90726 3.06982 0
M  V30 7301 H 715.431 7.3501 3.35836 0
M  V30 7302 H 719.017 5.00626 2.9642 0
M  V30 7303 H 717.897 7.19958 3.10854 0
M  V30 7304 N 715.4 -1.26948 0.933913 0
M  V30 7305 C 716.628 -1.98186 0.59414 0
M  V30 7306 C 717.043 -1.69614 -0.829257 0
M  V30 7307 O 716.4 -0.960213 -1.55197 0
M  V30 7308 C 716.451 -3.52123 0.818026 0
M  V30 7309 O 716.172 -3.79698 2.18543 0
M  V30 7310 C 717.673 -4.40608 0.48781 0
M  V30 7311 H 714.893 -0.632305 0.224569 0
M  V30 7312 H 717.437 -1.61646 1.25263 0
M  V30 7313 H 715.592 -3.86851 0.206246 0
M  V30 7314 H 716.006 -4.7426 2.24005 0
M  V30 7315 H 717.48 -5.47606 0.695126 0
M  V30 7316 H 717.957 -4.35394 -0.576913 0
M  V30 7317 H 718.563 -4.11411 1.078 0
M  V30 7318 N 716.879 -0.700114 -1.41195 0
M  V30 7319 C 718.109 -0.241828 -2.0518 0
M  V30 7320 C 718.517 1.1157 -1.52803 0
M  V30 7321 O 717.86 1.70926 -0.673042 0
M  V30 7322 C 717.922 -0.12695 -3.59276 0
M  V30 7323 C 717.586 -1.41725 -4.34469 0
M  V30 7324 C 718.583 -2.35604 -4.63451 0
M  V30 7325 C 716.268 -1.67189 -4.73659 0
M  V30 7326 C 718.262 -3.53204 -5.3059 0
M  V30 7327 C 715.949 -2.85073 -5.40534 0
M  V30 7328 C 716.947 -3.77904 -5.68927 0
M  V30 7329 O 716.635 -4.93723 -6.34424 0
M  V30 7330 H 716.367 -0.109247 -0.667114 0
M  V30 7331 H 718.921 -0.954538 -1.81873 0
M  V30 7332 H 717.151 0.641571 -3.81341 0
M  V30 7333 H 718.84 0.294748 -4.04828 0
M  V30 7334 H 719.606 -2.1719 -4.33651 0
M  V30 7335 H 715.485 -0.957935 -4.50937 0
M  V30 7336 H 719.029 -4.25679 -5.52669 0
M  V30 7337 H 714.926 -3.03402 -5.69752 0
M  V30 7338 H 715.694 -4.93597 -6.5292 0
M  V30 7339 N 718.357 1.51182 -0.445186 0
M  V30 7340 C 719.634 1.9478 0.178965 0
M  V30 7341 C 720.014 1.38428 1.59376 0
M  V30 7342 O 719.362 0.574552 2.21159 0
M  V30 7343 C 719.572 3.48683 0.148711 0
M  V30 7344 C 720.92 4.23152 0.35042 0
M  V30 7345 O 721.944 3.55479 0.226474 0
M  V30 7346 O 720.803 5.4322 0.597893 0
M  V30 7347 H 717.897 0.817387 0.12573 0
M  V30 7348 H 720.443 1.62051 -0.503729 0
M  V30 7349 H 719.215 3.82176 -0.84009 0
M  V30 7350 H 718.838 3.87875 0.873979 0
M  V30 7351 N 719.835 0.176821 1.56605 0
M  V30 7352 C 721.112 -0.513365 1.88743 0
M  V30 7353 C 721.492 -1.80929 1.08757 0
M  V30 7354 O 720.84 -2.27765 0.183127 0
M  V30 7355 C 721.05 -0.749925 3.40848 0
M  V30 7356 C 722.398 -1.07747 4.10701 0
M  V30 7357 O 723.422 -0.838277 3.46196 0
M  V30 7358 O 722.281 -1.52901 5.24675 0
M  V30 7359 H 719.375 -0.265296 0.783292 0
M  V30 7360 H 721.921 0.215669 1.68324 0
M  V30 7361 H 720.693 0.16599 3.90948 0
M  V30 7362 H 720.316 -1.53208 3.66897 0
M  V30 7363 N 721.313 -1.57302 -0.09688 0
M  V30 7364 C 722.276 -2.00976 -1.10188 0
M  V30 7365 C 723.276 -0.903009 -1.3305 0
M  V30 7366 O 724.466 -1.16853 -1.29194 0
M  V30 7367 C 721.598 -2.36893 -2.45142 0
M  V30 7368 H 722.791 -2.9098 -0.726003 0
M  V30 7369 H 720.344 -1.52515 -0.341872 0
M  V30 7370 H 721.079 -1.49837 -2.8761 0
M  V30 7371 H 720.864 -3.17632 -2.29897 0
M  V30 7372 H 722.354 -2.71345 -3.1743 0
M  V30 7373 N 722.791 0.367657 -1.53252 0
M  V30 7374 C 724.019 1.13119 -1.73239 0
M  V30 7375 C 724.434 1.831 -0.460404 0
M  V30 7376 O 723.791 1.73483 0.566557 0
M  V30 7377 C 723.842 2.16308 -2.89643 0
M  V30 7378 O 723.563 1.49175 -4.1192 0
M  V30 7379 C 725.064 3.05224 -3.21486 0
M  V30 7380 H 722.284 0.338318 -0.579467 0
M  V30 7381 H 724.828 0.42721 -1.99988 0
M  V30 7382 H 722.983 2.82307 -2.65295 0
M  V30 7383 H 723.397 2.17912 -4.7709 0
M  V30 7384 H 724.871 3.73613 -4.06346 0
M  V30 7385 H 725.348 3.69919 -2.36763 0
M  V30 7386 H 725.954 2.44843 -3.47753 0
M  V30 7387 N 724.269 1.44576 0.627338 0
M  V30 7388 C 725.216 1.51734 1.73912 0
M  V30 7389 C 726.186 0.364745 1.62046 0
M  V30 7390 O 727.371 0.575503 1.81914 0
M  V30 7391 C 724.511 1.47116 3.12171 0
M  V30 7392 C 723.624 2.72778 3.34986 0
M  V30 7393 C 722.759 2.59968 4.63239 0
M  V30 7394 C 721.798 3.80776 4.79245 0
M  V30 7395 N 720.935 3.66618 5.98778 0
M  V30 7396 H 725.775 2.46722 1.6713 0
M  V30 7397 H 723.312 1.22444 0.815224 0
M  V30 7398 H 725.27 1.42429 3.92135 0
M  V30 7399 H 723.9 0.556928 3.17959 0
M  V30 7400 H 722.952 2.87637 2.48936 0
M  V30 7401 H 724.264 3.62441 3.42692 0
M  V30 7402 H 723.418 2.53135 5.51369 0
M  V30 7403 H 722.157 1.67872 4.57898 0
M  V30 7404 H 721.162 3.87989 3.89544 0
M  V30 7405 H 722.387 4.73913 4.86398 0
M  V30 7406 H 720.333 2.77277 5.9452 0
M  V30 7407 H 720.25 4.499 6.07557 0
M  V30 7408 H 721.518 3.63684 6.89459 0
M  V30 7409 N 725.747 -0.868086 1.31537 0
M  V30 7410 C 726.975 -1.65402 1.24298 0
M  V30 7411 C 727.39 -1.87827 -0.191389 0
M  V30 7412 O 726.747 -1.43776 -1.12404 0
M  V30 7413 C 726.798 -3.02093 1.9855 0
M  V30 7414 O 726.519 -2.80668 3.36388 0
M  V30 7415 C 728.02 -3.96538 1.98173 0
M  V30 7416 H 725.24 -0.515598 0.429417 0
M  V30 7417 H 727.784 -1.0834 1.73444 0
M  V30 7418 H 725.939 -3.55838 1.53161 0
M  V30 7419 H 726.353 -3.67504 3.74221 0
M  V30 7420 H 727.827 -4.8976 2.54635 0
M  V30 7421 H 728.304 -4.28474 0.964697 0
M  V30 7422 H 728.91 -3.48729 2.4345 0
M  V30 7423 N 727.225 -1.14528 -1.08264 0
M  V30 7424 C 728.472 -0.914405 -1.80679 0
M  V30 7425 C 728.8 0.558952 -1.86295 0
M  V30 7426 O 728.055 1.43017 -1.33584 0
M  V30 7427 C 728.354 -1.46226 -3.26117 0
M  V30 7428 C 728.02 -2.95451 -3.40616 0
M  V30 7429 C 726.682 -3.36191 -3.4428 0
M  V30 7430 C 729.034 -3.91399 -3.44175 0
M  V30 7431 C 726.362 -4.71539 -3.49096 0
M  V30 7432 C 728.714 -5.26606 -3.50526 0
M  V30 7433 C 727.378 -5.66856 -3.52464 0
M  V30 7434 H 726.648 -0.334604 -0.661151 0
M  V30 7435 H 729.295 -1.4292 -1.27461 0
M  V30 7436 H 727.6 -0.868442 -3.82054 0
M  V30 7437 H 729.297 -1.25955 -3.80705 0
M  V30 7438 H 725.887 -2.62955 -3.38456 0
M  V30 7439 H 730.071 -3.61004 -3.40573 0
M  V30 7440 H 725.327 -5.02082 -3.4889 0
M  V30 7441 H 729.501 -6.00758 -3.52225 0
M  V30 7442 H 727.128 -6.71718 -3.55948 0
M  V30 7443 N 728.703 1.26451 -0.940633 0
M  V30 7444 C 729.931 1.97868 -0.604642 0
M  V30 7445 C 730.346 1.70051 0.820251 0
M  V30 7446 O 729.703 0.96843 1.54686 0
M  V30 7447 C 729.754 3.51684 -0.836689 0
M  V30 7448 O 729.475 3.78533 -2.20554 0
M  V30 7449 C 730.976 4.40343 -0.511169 0
M  V30 7450 H 728.196 0.631105 -0.227919 0
M  V30 7451 H 730.74 1.60979 -1.26119 0
M  V30 7452 H 728.895 3.86736 -0.226759 0
M  V30 7453 H 729.309 4.73065 -2.26517 0
M  V30 7454 H 730.783 5.47229 -0.724157 0
M  V30 7455 H 731.26 4.35694 0.553815 0
M  V30 7456 H 731.866 4.10834 -1.0998 0
M  V30 7457 N 730.181 0.707592 1.40822 0
M  V30 7458 C 731.427 0.244031 2.01326 0
M  V30 7459 C 731.76 -1.15722 1.55955 0
M  V30 7460 O 731.035 -1.78347 0.776044 0
M  V30 7461 C 731.318 0.315128 3.58718 0
M  V30 7462 C 731.171 1.75419 4.14184 0
M  V30 7463 C 732.49 -0.318251 4.38948 0
M  V30 7464 H 729.609 0.0901471 0.731466 0
M  V30 7465 H 732.251 0.898584 1.67408 0
M  V30 7466 H 730.401 -0.242176 3.87744 0
M  V30 7467 H 732.073 2.36626 3.95987 0
M  V30 7468 H 730.316 2.28449 3.68773 0
M  V30 7469 H 730.987 1.75538 5.23345 0
M  V30 7470 H 733.463 0.156514 4.15806 0
M  V30 7471 H 732.339 -0.238019 5.48384 0
M  V30 7472 H 732.6 -1.40067 4.19325 0
M  V30 7473 N 731.66 -1.50943 0.453197 0
M  V30 7474 C 732.888 -2.06628 -0.106135 0
M  V30 7475 C 733.303 -1.31901 -1.35084 0
M  V30 7476 O 732.66 -0.383074 -1.78434 0
M  V30 7477 C 732.711 -3.5914 -0.412368 0
M  V30 7478 O 732.432 -4.31047 0.782948 0
M  V30 7479 C 733.933 -4.31391 -1.02064 0
M  V30 7480 H 731.153 -0.670999 -0.000885896 0
M  V30 7481 H 733.697 -1.94331 0.63684 0
M  V30 7482 H 731.852 -3.71299 -1.10526 0
M  V30 7483 H 732.266 -5.21948 0.516736 0
M  V30 7484 H 733.74 -5.39135 -1.1848 0
M  V30 7485 H 734.217 -3.90714 -2.00598 0
M  V30 7486 H 734.823 -4.23716 -0.366664 0
M  V30 7487 N 733.138 -0.185124 -1.56509 0
M  V30 7488 C 734.048 0.751908 -2.22224 0
M  V30 7489 C 735.064 1.24244 -1.21817 0
M  V30 7490 O 736.24 1.29169 -1.54523 0
M  V30 7491 C 733.305 1.95837 -2.86092 0
M  V30 7492 C 732.366 1.51337 -4.01741 0
M  V30 7493 C 731.599 2.66233 -4.62554 0
M  V30 7494 O 731.822 3.8346 -4.22273 0
M  V30 7495 O 730.756 2.39517 -5.52191 0
M  V30 7496 H 734.582 0.222304 -3.02885 0
M  V30 7497 H 732.167 0.0437141 -1.49336 0
M  V30 7498 H 734.049 2.66368 -3.26536 0
M  V30 7499 H 732.724 2.47677 -2.08417 0
M  V30 7500 H 731.631 0.777155 -3.65939 0
M  V30 7501 H 732.964 1.04175 -4.81049 0
M  V30 7502 N 734.616 1.57351 0.0885366 0
M  V30 7503 C 735.549 1.97786 1.13825 0
M  V30 7504 C 736.527 0.852091 1.38485 0
M  V30 7505 O 737.711 1.11296 1.52137 0
M  V30 7506 C 734.838 2.30024 2.48609 0
M  V30 7507 C 733.884 3.52437 2.40189 0
M  V30 7508 S 734.717 5.03908 1.81209 0
M  V30 7509 C 735.873 5.39331 3.17605 0
M  V30 7510 H 736.106 2.86513 0.793587 0
M  V30 7511 H 733.639 1.51527 0.29646 0
M  V30 7512 H 735.597 2.49274 3.26148 0
M  V30 7513 H 734.258 1.41856 2.80242 0
M  V30 7514 H 733.451 3.72457 3.39546 0
M  V30 7515 H 733.053 3.32731 1.70781 0
M  V30 7516 H 735.345 5.36378 4.13891 0
M  V30 7517 H 736.288 6.4029 3.02381 0
M  V30 7518 H 736.696 4.6679 3.17438 0
M  V30 7519 N 736.094 -0.359525 1.53444 0
M  V30 7520 C 737.34 -1.10315 1.70172 0
M  V30 7521 C 737.673 -1.88788 0.455287 0
M  V30 7522 O 736.948 -1.86635 -0.547514 0
M  V30 7523 C 737.231 -2.05744 2.95536 0
M  V30 7524 C 737.084 -1.3084 4.3035 0
M  V30 7525 C 738.403 -3.05784 3.16518 0
M  V30 7526 H 735.522 -0.399662 0.619225 0
M  V30 7527 H 738.164 -0.383338 1.86093 0
M  V30 7528 H 736.314 -2.67125 2.82093 0
M  V30 7529 H 737.986 -0.721959 4.55615 0
M  V30 7530 H 736.229 -0.610283 4.29486 0
M  V30 7531 H 736.9 -2.00718 5.14214 0
M  V30 7532 H 739.376 -2.5451 3.29187 0
M  V30 7533 H 738.252 -3.69772 4.05659 0
M  V30 7534 H 738.513 -3.76289 2.32076 0
M  V30 7535 N 737.572 -1.44907 -0.619662 0
M  V30 7536 C 738.8 -1.51795 -1.40591 0
M  V30 7537 C 739.215 -0.146553 -1.8823 0
M  V30 7538 O 738.572 0.849698 -1.61513 0
M  V30 7539 C 738.623 -2.49229 -2.61853 0
M  V30 7540 O 738.344 -3.81039 -2.16197 0
M  V30 7541 C 739.845 -2.65696 -3.54853 0
M  V30 7542 H 737.065 -0.514463 -0.430777 0
M  V30 7543 H 739.609 -1.8998 -0.756813 0
M  V30 7544 H 737.764 -2.14149 -3.2283 0
M  V30 7545 H 738.178 -4.33747 -2.94896 0
M  V30 7546 H 739.652 -3.37874 -4.36515 0
M  V30 7547 H 740.129 -1.71316 -4.0441 0
M  V30 7548 H 740.735 -3.01724 -2.99737 0
M  V30 7549 N 739.05 0.861098 -1.31996 0
M  V30 7550 C 739.96 2.00154 -1.22374 0
M  V30 7551 C 740.976 1.73447 -0.138631 0
M  V30 7552 O 742.152 1.98191 -0.358104 0
M  V30 7553 C 739.217 3.33696 -0.940645 0
M  V30 7554 C 738.278 3.73668 -2.11355 0
M  V30 7555 C 737.511 5.00837 -1.84386 0
M  V30 7556 O 737.734 5.64996 -0.783287 0
M  V30 7557 O 736.668 5.37787 -2.70313 0
M  V30 7558 H 740.494 2.11207 -2.18233 0
M  V30 7559 H 738.079 0.990768 -1.11822 0
M  V30 7560 H 739.961 4.13756 -0.798987 0
M  V30 7561 H 738.636 3.23698 -0.0121636 0
M  V30 7562 H 737.543 2.94211 -2.31065 0
M  V30 7563 H 738.876 3.88303 -3.02459 0
M  V30 7564 N 740.528 1.15101 1.07655 0
M  V30 7565 C 741.774 0.925343 1.80458 0
M  V30 7566 C 742.107 -0.546354 1.86356 0
M  V30 7567 O 741.382 -1.40496 1.34503 0
M  V30 7568 C 741.665 1.53646 3.25676 0
M  V30 7569 C 741.518 3.07854 3.27942 0
M  V30 7570 C 742.837 1.21968 4.22861 0
M  V30 7571 H 739.956 0.337592 0.655134 0
M  V30 7572 H 742.598 1.42217 1.25993 0
M  V30 7573 H 740.748 1.11395 3.72187 0
M  V30 7574 H 742.42 3.58989 2.89697 0
M  V30 7575 H 740.663 3.41904 2.66991 0
M  V30 7576 H 741.334 3.45725 4.30324 0
M  V30 7577 H 743.81 1.5851 3.84726 0
M  V30 7578 H 742.686 1.67349 5.22767 0
M  V30 7579 H 742.947 0.136207 4.4189 0
M  V30 7580 N 742.006 -1.2595 0.947325 0
M  V30 7581 C 743.417 -1.75389 0.639963 0
M  V30 7582 C 743.768 -1.77081 -0.844788 0
M  V30 7583 O 742.893 -1.3869 -1.66114 0
M  V30 7584 C 743.488 -3.18506 1.15496 0
M  V30 7585 C 742.047 -3.65534 0.897894 0
M  V30 7586 C 741.194 -2.44818 1.30228 0
M  V30 7587 H 744.145 -1.1194 1.12495 0
M  V30 7588 H 744.166 -3.77045 0.511627 0
M  V30 7589 H 743.678 -3.17243 2.23559 0
M  V30 7590 H 741.779 -3.72221 -0.168096 0
M  V30 7591 H 741.892 -4.54039 1.52922 0
M  V30 7592 H 740.256 -2.44291 0.720678 0
M  V30 7593 H 741.039 -2.46251 2.39198 0
M  V30 7594 N 743.484 -0.715051 -1.40445 0
M  V30 7595 C 744.732 -0.253826 -2.005 0
M  V30 7596 C 745.053 1.15681 -1.5698 0
M  V30 7597 O 744.323 1.78414 -0.809027 0
M  V30 7598 H 742.903 -0.0908537 -0.741454 0
M  V30 7599 H 745.565 -0.920561 -1.7179 0
M  V30 7600 H 744.661 -0.286499 -3.10782 0
M  V30 7601 N 744.962 1.50701 -0.461195 0
M  V30 7602 C 746.239 1.94958 0.158296 0
M  V30 7603 C 746.619 1.40111 1.57899 0
M  V30 7604 O 745.967 0.597976 2.20537 0
M  V30 7605 C 746.177 3.48821 0.11172 0
M  V30 7606 C 747.525 4.23499 0.30552 0
M  V30 7607 O 748.549 3.557 0.188758 0
M  V30 7608 O 747.408 5.43823 0.540244 0
M  V30 7609 H 744.502 0.818674 0.117054 0
M  V30 7610 H 747.048 1.61508 -0.520888 0
M  V30 7611 H 745.82 3.81263 -0.880577 0
M  V30 7612 H 745.443 3.88781 0.832791 0
M  V30 7613 N 746.441 0.193421 1.56409 0
M  V30 7614 C 747.404 -0.714371 2.17783 0
M  V30 7615 C 748.404 -1.1422 1.13183 0
M  V30 7616 O 749.594 -1.05557 1.38576 0
M  V30 7617 C 746.726 -1.97509 2.77855 0
M  V30 7618 H 747.919 -0.179714 2.99361 0
M  V30 7619 H 745.472 -0.0561944 1.56199 0
M  V30 7620 H 746.207 -2.5523 2.0007 0
M  V30 7621 H 745.992 -1.67706 3.54425 0
M  V30 7622 H 747.482 -2.62246 3.24987 0
M  V30 7623 N 747.919 -1.57396 -0.0801906 0
M  V30 7624 C 749.33 -1.75642 -0.633002 0
M  V30 7625 C 749.681 -0.817708 -1.78348 0
M  V30 7626 O 748.806 0.000233743 -2.164 0
M  V30 7627 C 749.401 -3.18502 -1.15507 0
M  V30 7628 C 747.96 -3.38121 -1.65381 0
M  V30 7629 C 747.107 -2.71386 -0.569661 0
M  V30 7630 H 750.058 -1.58027 0.145949 0
M  V30 7631 H 750.079 -3.22198 -2.02408 0
M  V30 7632 H 749.591 -3.86799 -0.317515 0
M  V30 7633 H 747.692 -2.74926 -2.51488 0
M  V30 7634 H 747.805 -4.46521 -1.73654 0
M  V30 7635 H 746.169 -2.33702 -1.0127 0
M  V30 7636 H 746.952 -3.42332 0.257561 0
M  V30 7637 N 749.397 0.351382 -1.53633 0
M  V30 7638 C 750.625 1.11275 -1.74429 0
M  V30 7639 C 751.04 1.82602 -0.479798 0
M  V30 7640 O 750.397 1.74074 0.548125 0
M  V30 7641 C 750.448 2.13223 -2.91921 0
M  V30 7642 O 750.169 1.44798 -4.13479 0
M  V30 7643 C 751.67 3.01797 -3.24706 0
M  V30 7644 H 748.89 0.332153 -0.583023 0
M  V30 7645 H 751.434 0.405974 -2.0043 0
M  V30 7646 H 749.589 2.79477 -2.68274 0
M  V30 7647 H 750.003 2.12839 -4.79374 0
M  V30 7648 H 751.477 3.69282 -4.10286 0
M  V30 7649 H 751.954 3.67387 -2.40673 0
M  V30 7650 H 752.56 2.41141 -3.5033 0
M  V30 7651 N 750.875 1.45233 0.611969 0
M  V30 7652 C 751.785 1.56098 1.7513 0
M  V30 7653 C 752.801 0.445646 1.68196 0
M  V30 7654 O 753.977 0.705718 1.88631 0
M  V30 7655 C 751.042 1.52052 3.11579 0
M  V30 7656 C 750.103 2.74589 3.29999 0
M  V30 7657 C 749.336 2.70726 4.59938 0
M  V30 7658 O 749.559 1.77806 5.41979 0
M  V30 7659 O 748.493 3.61864 4.80976 0
M  V30 7660 H 752.319 2.52392 1.68914 0
M  V30 7661 H 749.904 1.27695 0.775528 0
M  V30 7662 H 751.786 1.52387 3.92882 0
M  V30 7663 H 750.461 0.589085 3.18295 0
M  V30 7664 H 749.368 2.79817 2.48301 0
M  V30 7665 H 750.701 3.66843 3.28157 0
M  V30 7666 N 752.353 -0.854086 1.3245 0
M  V30 7667 C 753.764 -1.42427 1.20712 0
M  V30 7668 C 754.115 -1.95371 -0.18013 0
M  V30 7669 O 753.24 -1.87587 -1.07889 0
M  V30 7670 C 753.835 -2.58897 2.18536 0
M  V30 7671 C 752.394 -3.11913 2.10683 0
M  V30 7672 C 751.541 -1.84661 2.06871 0
M  V30 7673 H 754.492 -0.661192 1.4427 0
M  V30 7674 H 754.513 -3.36074 1.78422 0
M  V30 7675 H 754.025 -2.20333 3.19492 0
M  V30 7676 H 752.126 -3.55059 1.12977 0
M  V30 7677 H 752.239 -3.73119 3.00532 0
M  V30 7678 H 750.603 -2.04285 1.52118 0
M  V30 7679 H 751.386 -1.48314 3.09609 0
M  V30 7680 N 753.831 -1.1567 -1.07043 0
M  V30 7681 C 754.741 -0.870435 -2.17855 0
M  V30 7682 C 755.757 0.154452 -1.73313 0
M  V30 7683 O 756.933 -0.0203759 -2.0139 0
M  V30 7684 C 753.998 -0.367219 -3.4475 0
M  V30 7685 C 753.059 -1.45639 -4.03841 0
M  V30 7686 C 752.292 -0.977092 -5.2468 0
M  V30 7687 O 752.515 0.176127 -5.70128 0
M  V30 7688 O 751.449 -1.76215 -5.75527 0
M  V30 7689 H 755.275 -1.79687 -2.44839 0
M  V30 7690 H 752.86 -0.936064 -1.1644 0
M  V30 7691 H 754.742 -0.0931947 -4.21297 0
M  V30 7692 H 753.417 0.53131 -3.1931 0
M  V30 7693 H 752.324 -1.78406 -3.28819 0
M  V30 7694 H 753.657 -2.32995 -4.3356 0
M  V30 7695 N 755.309 1.25446 -0.953992 0
M  V30 7696 C 756.256 2.25912 -0.472485 0
M  V30 7697 C 757.226 1.59173 0.47469 0
M  V30 7698 O 758.411 1.86812 0.388082 0
M  V30 7699 C 755.551 3.44235 0.244218 0
M  V30 7700 C 754.664 4.25613 -0.740121 0
M  V30 7701 C 753.799 5.312 -0.000922267 0
M  V30 7702 C 752.838 6.04265 -0.976236 0
M  V30 7703 N 751.975 7.01589 -0.267952 0
M  V30 7704 H 756.815 2.66469 -1.3341 0
M  V30 7705 H 754.352 1.31005 -0.669045 0
M  V30 7706 H 756.31 4.11682 0.676314 0
M  V30 7707 H 754.94 3.04554 1.06988 0
M  V30 7708 H 753.992 3.57834 -1.2907 0
M  V30 7709 H 755.304 4.762 -1.48441 0
M  V30 7710 H 754.458 6.04719 0.48984 0
M  V30 7711 H 753.197 4.81484 0.776159 0
M  V30 7712 H 752.202 5.29561 -1.478 0
M  V30 7713 H 753.427 6.5607 -1.75354 0
M  V30 7714 H 751.373 6.54164 0.490403 0
M  V30 7715 H 751.29 7.4999 -0.951344 0
M  V30 7716 H 752.558 7.7924 0.201294 0
M  V30 7717 N 756.787 0.722489 1.40064 0
M  V30 7718 C 758.198 0.336507 1.83642 0
M  V30 7719 C 758.549 -1.13002 1.6039 0
M  V30 7720 O 757.674 -1.87036 1.08842 0
M  V30 7721 C 758.269 0.603985 3.33373 0
M  V30 7722 C 756.828 0.271637 3.75419 0
M  V30 7723 C 755.975 0.872898 2.63203 0
M  V30 7724 H 758.926 0.921108 1.29233 0
M  V30 7725 H 758.947 -0.128471 3.80283 0
M  V30 7726 H 758.459 1.67141 3.50265 0
M  V30 7727 H 756.56 -0.790455 3.64119 0
M  V30 7728 H 756.673 0.745457 4.73265 0
M  V30 7729 H 755.037 0.300431 2.52922 0
M  V30 7730 H 755.82 1.94473 2.82905 0
M  V30 7731 N 758.265 -1.50454 0.469181 0
M  V30 7732 C 759.175 -2.32248 -0.331349 0
M  V30 7733 C 760.191 -1.42548 -0.997807 0
M  V30 7734 O 761.367 -1.75602 -0.9862 0
M  V30 7735 C 758.432 -3.17171 -1.40012 0
M  V30 7736 C 757.493 -4.2269 -0.750463 0
M  V30 7737 C 756.726 -5.03554 -1.76831 0
M  V30 7738 O 756.949 -4.85469 -2.99459 0
M  V30 7739 O 755.883 -5.86767 -1.3412 0
M  V30 7740 H 759.709 -3.01821 0.337279 0
M  V30 7741 H 757.294 -1.47602 0.231066 0
M  V30 7742 H 759.176 -3.69871 -2.01924 0
M  V30 7743 H 757.851 -2.50328 -2.05226 0
M  V30 7744 H 756.758 -3.73986 -0.0924446 0
M  V30 7745 H 758.091 -4.91997 -0.14131 0
M  V30 7746 N 759.743 -0.201713 -1.56304 0
M  V30 7747 C 760.706 0.702811 -2.18159 0
M  V30 7748 C 761.706 1.13619 -1.13787 0
M  V30 7749 O 762.896 1.0482 -1.39134 0
M  V30 7750 C 760.028 1.96032 -2.78898 0
M  V30 7751 H 761.221 0.163836 -2.99452 0
M  V30 7752 H 758.774 0.04791 -1.56227 0
M  V30 7753 H 759.509 2.54165 -2.01421 0
M  V30 7754 H 759.294 1.65824 -3.55309 0
M  V30 7755 H 760.784 2.60519 -3.26373 0
M  V30 7756 N 761.222 1.57436 0.0718424 0
M  V30 7757 C 762.447 1.91858 0.787745 0
M  V30 7758 C 762.872 0.798119 1.70328 0
M  V30 7759 O 762.23 -0.24905 1.79581 0
M  V30 7760 C 762.278 3.25232 1.55744 0
M  V30 7761 O 761.382 3.14462 2.6681 0
M  V30 7762 H 760.723 0.628258 0.214914 0
M  V30 7763 H 763.253 2.04561 0.0401012 0
M  V30 7764 H 763.263 3.59105 1.9367 0
M  V30 7765 H 761.938 4.0636 0.885691 0
M  V30 7766 H 760.515 2.92148 2.31741 0
M  V30 7767 N 762.7 -0.34323 1.53817 0
M  V30 7768 C 763.949 -1.08086 1.70295 0
M  V30 7769 C 764.262 -1.89794 0.47302 0
M  V30 7770 O 765.468 -2.66498 0.518754 0
M  V30 7771 C 763.924 -1.97097 3.01133 0
M  V30 7772 C 763.532 -1.20594 4.31464 0
M  V30 7773 C 765.276 -2.70715 3.26976 0
M  V30 7774 C 763.183 -2.08636 5.53376 0
M  V30 7775 H 762.113 -0.407228 0.634572 0
M  V30 7776 H 764.764 -0.340328 1.80316 0
M  V30 7777 H 763.146 -2.74971 2.84969 0
M  V30 7778 H 764.32 -0.476282 4.58332 0
M  V30 7779 H 762.635 -0.587426 4.12236 0
M  V30 7780 H 765.232 -3.36857 4.15248 0
M  V30 7781 H 765.575 -3.37299 2.43998 0
M  V30 7782 H 766.108 -1.99914 3.43917 0
M  V30 7783 H 762.847 -1.46594 6.38898 0
M  V30 7784 H 762.367 -2.7939 5.30755 0
M  V30 7785 H 764.046 -2.67682 5.89029 0
M  V30 7786 N 764.178 -1.45556 -0.604258 0
M  V30 7787 C 765.589 -1.44171 -1.18624 0
M  V30 7788 C 765.94 -0.171081 -1.95453 0
M  V30 7789 O 765.065 0.727156 -2.03817 0
M  V30 7790 C 765.66 -2.61193 -2.15786 0
M  V30 7791 C 764.219 -2.62918 -2.69353 0
M  V30 7792 C 763.366 -2.36479 -1.4482 0
M  V30 7793 H 766.317 -1.53747 -0.393381 0
M  V30 7794 H 766.338 -2.35481 -2.98879 0
M  V30 7795 H 765.85 -3.53656 -1.59841 0
M  V30 7796 H 763.951 -1.7447 -3.29228 0
M  V30 7797 H 764.064 -3.6224 -3.13559 0
M  V30 7798 H 762.428 -1.86103 -1.73891 0
M  V30 7799 H 763.211 -3.31091 -0.907376 0
M  V30 7800 N 765.656 0.84705 -1.32902 0
M  V30 7801 C 766.586 1.97166 -1.25091 0
M  V30 7802 C 767.567 1.69578 -0.133161 0
M  V30 7803 O 768.752 1.91519 -0.321591 0
M  V30 7804 C 765.882 3.33157 -0.981006 0
M  V30 7805 C 764.836 3.75119 -2.06082 0
M  V30 7806 C 764.162 5.08826 -1.64318 0
M  V30 7807 C 765.462 3.89774 -3.47669 0
M  V30 7808 H 767.156 2.03958 -2.19184 0
M  V30 7809 H 764.702 0.979907 -1.05517 0
M  V30 7810 H 766.655 4.11393 -0.912891 0
M  V30 7811 H 765.379 3.266 -0.00445559 0
M  V30 7812 H 764.038 2.9914 -2.11921 0
M  V30 7813 H 763.686 4.98732 -0.653876 0
M  V30 7814 H 763.386 5.37873 -2.36572 0
M  V30 7815 H 764.91 5.89546 -1.58958 0
M  V30 7816 H 766.324 4.58343 -3.44376 0
M  V30 7817 H 764.721 4.30248 -4.18338 0
M  V30 7818 H 765.791 2.92463 -3.86773 0
M  V30 7819 N 767.134 1.16236 1.06428 0
M  V30 7820 C 768.38 0.944431 1.79467 0
M  V30 7821 C 768.713 -0.526558 1.86925 0
M  V30 7822 O 767.988 -1.39061 1.35986 0
M  V30 7823 C 768.271 1.57092 3.24028 0
M  V30 7824 C 768.124 3.11315 3.24658 0
M  V30 7825 C 769.443 1.26447 4.21544 0
M  V30 7826 H 766.562 0.344521 0.651517 0
M  V30 7827 H 769.204 1.43545 1.24478 0
M  V30 7828 H 767.354 1.15337 3.70985 0
M  V30 7829 H 769.026 3.62042 2.85873 0
M  V30 7830 H 767.269 3.44716 2.6335 0
M  V30 7831 H 767.94 3.50269 4.26633 0
M  V30 7832 H 770.416 1.62581 3.83023 0
M  V30 7833 H 769.292 1.72885 5.20963 0
M  V30 7834 H 769.553 0.183068 4.41721 0
M  V30 7835 N 768.612 -1.24939 0.960631 0
M  V30 7836 C 770.023 -1.74701 0.658529 0
M  V30 7837 C 770.374 -1.77967 -0.825959 0
M  V30 7838 O 769.499 -1.40444 -1.64634 0
M  V30 7839 C 770.094 -3.17263 1.18867 0
M  V30 7840 C 768.653 -3.64561 0.936614 0
M  V30 7841 C 767.8 -2.43423 1.32817 0
M  V30 7842 H 770.751 -1.10741 1.13676 0
M  V30 7843 H 770.772 -3.76481 0.551589 0
M  V30 7844 H 770.284 -3.14854 2.26912 0
M  V30 7845 H 768.385 -3.72378 -0.128608 0
M  V30 7846 H 768.498 -4.52392 1.57729 0
M  V30 7847 H 766.862 -2.43513 0.746548 0
M  V30 7848 H 767.645 -2.437 2.41796 0
M  V30 7849 N 770.09 -0.729906 -1.39679 0
M  V30 7850 C 771.02 -0.101618 -2.33279 0
M  V30 7851 C 772.001 0.729854 -1.53646 0
M  V30 7852 O 773.186 0.67587 -1.82059 0
M  V30 7853 C 770.316 0.81024 -3.37716 0
M  V30 7854 C 769.27 0.0833126 -4.27919 0
M  V30 7855 C 768.596 1.11185 -5.23012 0
M  V30 7856 C 769.896 -1.07107 -5.112 0
M  V30 7857 H 771.59 -0.883452 -2.86069 0
M  V30 7858 H 769.136 -0.426283 -1.37546 0
M  V30 7859 H 771.089 1.25927 -4.02145 0
M  V30 7860 H 769.813 1.62413 -2.83354 0
M  V30 7861 H 768.472 -0.346043 -3.64963 0
M  V30 7862 H 768.12 1.91917 -4.64948 0
M  V30 7863 H 767.82 0.63026 -5.8421 0
M  V30 7864 H 769.344 1.56068 -5.90318 0
M  V30 7865 H 770.758 -0.700726 -5.69002 0
M  V30 7866 H 769.155 -1.48196 -5.81514 0
M  V30 7867 H 770.225 -1.89513 -4.46332 0
M  V30 7868 N 771.568 1.50203 -0.477153 0
M  V30 7869 C 772.796 2.0677 0.0732489 0
M  V30 7870 C 773.211 1.34033 1.32968 0
M  V30 7871 O 772.568 0.411412 1.77802 0
M  V30 7872 C 772.619 3.59751 0.35518 0
M  V30 7873 O 772.34 4.29747 -0.851425 0
M  V30 7874 C 773.841 4.3296 0.951877 0
M  V30 7875 H 771.061 0.670929 -0.00978923 0
M  V30 7876 H 773.605 1.93293 -0.667676 0
M  V30 7877 H 771.76 3.7301 1.04605 0
M  V30 7878 H 772.174 5.2106 -0.599708 0
M  V30 7879 H 773.648 5.40952 1.09888 0
M  V30 7880 H 774.125 3.93856 1.94356 0
M  V30 7881 H 774.731 4.24246 0.299208 0
M  V30 7882 N 773.046 0.209999 1.56195 0
M  V30 7883 C 774.457 -0.299943 1.84275 0
M  V30 7884 C 774.808 -1.60314 1.1311 0
M  V30 7885 O 773.933 -2.1273 0.396874 0
M  V30 7886 C 774.528 -0.550986 3.3429 0
M  V30 7887 C 773.087 -1.00526 3.62728 0
M  V30 7888 C 772.234 -0.0619828 2.77231 0
M  V30 7889 H 775.185 0.433458 1.52666 0
M  V30 7890 H 775.206 -1.39846 3.53869 0
M  V30 7891 H 774.718 0.397669 3.86057 0
M  V30 7892 H 772.819 -1.96768 3.16407 0
M  V30 7893 H 772.932 -0.887664 4.70805 0
M  V30 7894 H 771.296 -0.566648 2.48317 0
M  V30 7895 H 772.079 0.881383 3.31793 0
M  V30 7896 N 774.524 -1.57472 -0.0634922 0
M  V30 7897 C 775.487 -2.03268 -1.059 0
M  V30 7898 C 776.487 -0.931028 -1.31105 0
M  V30 7899 O 777.677 -1.19567 -1.26686 0
M  V30 7900 C 774.809 -2.42039 -2.40062 0
M  V30 7901 H 776.002 -2.92454 -0.664119 0
M  V30 7902 H 773.555 -1.53206 -0.309444 0
M  V30 7903 H 774.29 -1.55904 -2.84367 0
M  V30 7904 H 774.075 -3.22437 -2.23108 0
M  V30 7905 H 775.565 -2.78017 -3.11603 0
M  V30 7906 N 776.003 0.335068 -1.53997 0
M  V30 7907 C 777.231 1.09418 -1.756 0
M  V30 7908 C 777.646 1.82083 -0.499138 0
M  V30 7909 O 777.003 1.74646 0.529631 0
M  V30 7910 C 777.054 2.10115 -2.94166 0
M  V30 7911 O 776.775 1.40404 -4.14992 0
M  V30 7912 C 778.276 2.98336 -3.27888 0
M  V30 7913 H 775.496 0.32595 -0.586513 0
M  V30 7914 H 778.04 0.384693 -2.00849 0
M  V30 7915 H 776.195 2.76616 -2.71224 0
M  V30 7916 H 776.609 2.07743 -4.81605 0
M  V30 7917 H 778.083 3.6491 -4.1418 0
M  V30 7918 H 778.56 3.64814 -2.44556 0
M  V30 7919 H 779.166 2.37412 -3.52868 0
M  V30 7920 N 777.481 1.45874 0.596531 0
M  V30 7921 C 778.892 1.44798 1.17857 0
M  V30 7922 C 779.243 0.181443 1.95359 0
M  V30 7923 O 778.368 -0.716336 2.042 0
M  V30 7924 C 778.963 2.62333 2.14398 0
M  V30 7925 C 777.522 2.64342 2.67955 0
M  V30 7926 C 776.669 2.37244 1.43564 0
M  V30 7927 H 779.62 1.53954 0.385222 0
M  V30 7928 H 779.641 2.37063 2.97626 0
M  V30 7929 H 779.153 3.54499 1.57963 0
M  V30 7930 H 777.254 1.76213 3.28298 0
M  V30 7931 H 777.367 3.63897 3.11634 0
M  V30 7932 H 775.731 1.87022 1.72901 0
M  V30 7933 H 776.514 3.31568 0.889805 0
M  V30 7934 N 778.959 -0.83999 1.33349 0
M  V30 7935 C 780.208 -1.59011 1.2409 0
M  V30 7936 C 780.521 -1.94655 -0.192029 0
M  V30 7937 O 781.727 -2.68438 -0.406617 0
M  V30 7938 C 780.183 -2.86801 2.17425 0
M  V30 7939 C 779.791 -2.58525 3.65881 0
M  V30 7940 C 781.535 -3.64823 2.17036 0
M  V30 7941 C 779.442 -3.82404 4.51133 0
M  V30 7942 H 778.372 -0.596731 0.460899 0
M  V30 7943 H 781.023 -0.926274 1.58406 0
M  V30 7944 H 779.405 -3.54719 1.7604 0
M  V30 7945 H 780.579 -1.98824 4.15699 0
M  V30 7946 H 778.894 -1.93808 3.68548 0
M  V30 7947 H 781.491 -4.56774 2.7796 0
M  V30 7948 H 781.834 -3.99663 1.16513 0
M  V30 7949 H 782.367 -3.03826 2.56777 0
M  V30 7950 H 779.106 -3.52696 5.52527 0
M  V30 7951 H 778.626 -4.41447 4.0606 0
M  V30 7952 H 780.305 -4.49995 4.6488 0
M  V30 7953 N 780.437 -1.16799 -1.0581 0
M  V30 7954 C 781.4 -0.881396 -2.11575 0
M  V30 7955 C 782.4 0.12574 -1.60308 0
M  V30 7956 O 783.59 -0.105716 -1.73879 0
M  V30 7957 C 780.722 -0.319037 -3.39404 0
M  V30 7958 H 781.915 -1.81907 -2.38432 0
M  V30 7959 H 779.468 -0.977597 -1.21954 0
M  V30 7960 H 780.203 0.626082 -3.18199 0
M  V30 7961 H 779.988 -1.04481 -3.77923 0
M  V30 7962 H 781.478 -0.13663 -4.17376 0
M  V30 7963 N 781.915 1.24427 -0.967243 0
M  V30 7964 C 782.862 2.25398 -0.496419 0
M  V30 7965 C 783.832 1.59667 0.457781 0
M  V30 7966 O 785.017 1.87213 0.368246 0
M  V30 7967 C 782.157 3.44474 0.207693 0
M  V30 7968 C 781.27 4.24804 -0.785221 0
M  V30 7969 C 780.405 5.31169 -0.0572631 0
M  V30 7970 C 779.444 6.03195 -1.04027 0
M  V30 7971 N 778.581 7.01265 -0.34235 0
M  V30 7972 H 783.421 2.65039 -1.36229 0
M  V30 7973 H 780.958 1.30288 -0.682902 0
M  V30 7974 H 782.916 4.12376 0.632612 0
M  V30 7975 H 781.546 3.05672 1.03752 0
M  V30 7976 H 780.598 3.56445 -1.32858 0
M  V30 7977 H 781.91 4.74599 -1.53483 0
M  V30 7978 H 781.064 6.05205 0.425674 0
M  V30 7979 H 779.803 4.8228 0.725047 0
M  V30 7980 H 778.808 5.27964 -1.53409 0
M  V30 7981 H 780.033 6.54173 -1.82302 0
M  V30 7982 H 777.979 6.54648 0.420993 0
M  V30 7983 H 777.896 7.48939 -1.03084 0
M  V30 7984 H 779.164 7.7941 0.118634 0
M  V30 7985 N 783.393 0.737304 1.3929 0
M  V30 7986 C 784.67 0.212464 1.94443 0
M  V30 7987 C 785.05 -1.28621 1.67391 0
M  V30 7988 O 784.398 -2.0529 1.00342 0
M  V30 7989 C 784.608 0.548565 3.44662 0
M  V30 7990 C 785.956 0.499177 4.21656 0
M  V30 7991 O 786.98 0.485892 3.5287 0
M  V30 7992 O 785.839 0.495739 5.44247 0
M  V30 7993 H 782.933 0.0395457 0.826054 0
M  V30 7994 H 785.479 0.816319 1.48776 0
M  V30 7995 H 784.251 1.58426 3.57795 0
M  V30 7996 H 783.874 -0.0841399 3.97511 0
M  V30 7997 N 784.871 -1.49948 0.485112 0
M  V30 7998 C 786.148 -1.95186 -0.12726 0
M  V30 7999 C 786.528 -1.42605 -1.5565 0
M  V30 8000 O 785.876 -0.632986 -2.19558 0
M  V30 8001 C 786.086 -3.48955 -0.0562117 0
M  V30 8002 C 787.434 -4.23932 -0.238106 0
M  V30 8003 O 788.458 -3.55955 -0.132145 0
M  V30 8004 O 787.317 -5.44614 -0.453658 0
M  V30 8005 H 784.411 -0.820433 -0.104014 0
M  V30 8006 H 786.957 -1.60659 0.546517 0
M  V30 8007 H 785.729 -3.79814 0.941122 0
M  V30 8008 H 785.352 -3.90056 -0.770834 0
M  V30 8009 N 786.349 -0.21828 -1.56081 0
M  V30 8010 C 787.312 0.679633 -2.18892 0
M  V30 8011 C 788.312 1.12405 -1.14986 0
M  V30 8012 O 789.502 1.03339 -1.40238 0
M  V30 8013 C 786.634 1.93063 -2.80962 0
M  V30 8014 H 787.827 0.132066 -2.99609 0
M  V30 8015 H 785.38 0.0313374 -1.56269 0
M  V30 8016 H 786.115 2.52015 -2.04106 0
M  V30 8017 H 785.9 1.62046 -3.57048 0
M  V30 8018 H 787.39 2.57043 -3.29118 0
M  V30 8019 N 787.827 1.57504 0.0551401 0
M  V30 8020 C 788.774 2.04825 1.06373 0
M  V30 8021 C 789.744 0.932108 1.37481 0
M  V30 8022 O 790.929 1.20093 1.48265 0
M  V30 8023 C 788.069 2.51091 2.36743 0
M  V30 8024 C 787.182 3.76392 2.12021 0
M  V30 8025 C 786.317 4.11373 3.36074 0
M  V30 8026 C 785.356 5.29666 3.0679 0
M  V30 8027 N 784.493 5.60205 4.2322 0
M  V30 8028 H 789.333 2.90753 0.653216 0
M  V30 8029 H 786.87 1.43776 0.310951 0
M  V30 8030 H 788.828 2.75973 3.12881 0
M  V30 8031 H 787.458 1.68118 2.75565 0
M  V30 8032 H 786.51 3.58751 1.26498 0
M  V30 8033 H 787.822 4.62662 1.86401 0
M  V30 8034 H 786.976 4.37245 4.20597 0
M  V30 8035 H 785.715 3.23704 3.64784 0
M  V30 8036 H 784.72 5.03574 2.20664 0
M  V30 8037 H 785.945 6.18968 2.79385 0
M  V30 8038 H 783.891 4.75495 4.5193 0
M  V30 8039 H 783.808 6.40928 4.00933 0
M  V30 8040 H 785.076 5.90637 5.08692 0
M  V30 8041 N 789.305 -0.326896 1.54172 0
M  V30 8042 C 790.252 -1.40216 1.83325 0
M  V30 8043 C 791.222 -1.51538 0.680107 0
M  V30 8044 O 792.407 -1.66811 0.926206 0
M  V30 8045 C 789.547 -2.76626 2.0633 0
M  V30 8046 C 788.66 -2.73963 3.34019 0
M  V30 8047 C 787.795 -4.02198 3.47002 0
M  V30 8048 C 786.834 -3.93828 4.68578 0
M  V30 8049 N 785.971 -5.13787 4.78506 0
M  V30 8050 H 790.811 -1.14656 2.7506 0
M  V30 8051 H 788.348 -0.555089 1.36225 0
M  V30 8052 H 790.306 -3.55922 2.17659 0
M  V30 8053 H 788.936 -3.00503 1.1789 0
M  V30 8054 H 787.988 -1.86677 3.31445 0
M  V30 8055 H 789.3 -2.6366 4.2342 0
M  V30 8056 H 788.454 -4.89923 3.57855 0
M  V30 8057 H 787.193 -4.15302 2.55687 0
M  V30 8058 H 786.198 -3.04487 4.57786 0
M  V30 8059 H 787.423 -3.82292 5.61275 0
M  V30 8060 H 785.369 -5.27403 3.90105 0
M  V30 8061 H 785.286 -5.05807 5.61868 0
M  V30 8062 H 786.554 -6.03236 4.93686 0
M  V30 8063 N 790.784 -1.46188 -0.588786 0
M  V30 8064 C 792.061 -1.41659 -1.34878 0
M  V30 8065 C 792.441 -0.0968913 -2.10878 0
M  V30 8066 O 791.789 0.921468 -2.09096 0
M  V30 8067 C 791.999 -2.6424 -2.27988 0
M  V30 8068 C 793.347 -3.1013 -2.90008 0
M  V30 8069 O 794.371 -2.64745 -2.38303 0
M  V30 8070 O 793.23 -3.88944 -3.83908 0
M  V30 8071 H 790.324 -0.563058 -0.605718 0
M  V30 8072 H 792.87 -1.58346 -0.610309 0
M  V30 8073 H 791.642 -3.51853 -1.71217 0
M  V30 8074 H 791.265 -2.49982 -3.09184 0
M  V30 8075 N 792.262 0.832906 -1.33792 0
M  V30 8076 C 793.539 1.57359 -1.16178 0
M  V30 8077 C 793.919 2.09372 0.269532 0
M  V30 8078 O 793.267 1.89993 1.26944 0
M  V30 8079 C 793.477 2.70279 -2.20795 0
M  V30 8080 C 794.825 3.39305 -2.55259 0
M  V30 8081 O 795.849 2.80526 -2.19508 0
M  V30 8082 O 794.708 4.45428 -3.16632 0
M  V30 8083 H 791.802 0.694025 -0.449731 0
M  V30 8084 H 794.348 0.875144 -1.45394 0
M  V30 8085 H 793.12 2.29527 -3.16911 0
M  V30 8086 H 792.743 3.47782 -1.927 0
M  V30 8087 N 793.74 1.17359 1.05189 0
M  V30 8088 C 794.968 0.986529 1.81866 0
M  V30 8089 C 795.383 -0.46522 1.82979 0
M  V30 8090 O 794.74 -1.32305 1.25705 0
M  V30 8091 C 794.791 1.52021 3.27982 0
M  V30 8092 O 794.512 2.91511 3.27037 0
M  V30 8093 C 796.013 1.37774 4.21347 0
M  V30 8094 H 793.233 0.349021 0.573084 0
M  V30 8095 H 795.777 1.55648 1.32643 0
M  V30 8096 H 793.932 0.992287 3.74476 0
M  V30 8097 H 794.346 3.16178 4.18488 0
M  V30 8098 H 795.82 1.7993 5.21852 0
M  V30 8099 H 796.297 0.32483 4.37997 0
M  V30 8100 H 796.903 1.89583 3.80708 0
M  V30 8101 N 795.218 -1.23913 0.973828 0
M  V30 8102 C 796.165 -2.25132 0.508366 0
M  V30 8103 C 797.135 -1.59908 -0.449307 0
M  V30 8104 O 798.32 -1.87405 -0.358313 0
M  V30 8105 C 795.46 -3.4458 -0.189422 0
M  V30 8106 C 794.573 -4.24381 0.807738 0
M  V30 8107 C 793.708 -5.31131 0.0854315 0
M  V30 8108 C 792.747 -6.02635 1.07225 0
M  V30 8109 N 791.884 -7.01073 0.379535 0
M  V30 8110 H 796.724 -2.64313 1.37632 0
M  V30 8111 H 794.261 -1.29924 0.689802 0
M  V30 8112 H 796.219 -4.12706 -0.610733 0
M  V30 8113 H 794.849 -3.06218 -1.02129 0
M  V30 8114 H 793.901 -3.55735 1.34747 0
M  V30 8115 H 795.213 -4.73778 1.55998 0
M  V30 8116 H 794.367 -6.05422 -0.393572 0
M  V30 8117 H 793.106 -4.82658 -0.699461 0
M  V30 8118 H 792.111 -5.27143 1.56207 0
M  V30 8119 H 793.336 -6.53197 1.85769 0
M  V30 8120 H 791.282 -6.54862 -0.386269 0
M  V30 8121 H 791.199 -7.48382 1.07054 0
M  V30 8122 H 792.467 -7.79462 -0.0772984 0
M  V30 8123 N 796.696 -0.74468 -1.38897 0
M  V30 8124 C 797.643 -0.111064 -2.30533 0
M  V30 8125 C 798.613 0.719276 -1.49719 0
M  V30 8126 O 799.798 0.677244 -1.78376 0
M  V30 8127 C 796.938 0.78292 -3.36102 0
M  V30 8128 C 796.051 -0.0610817 -4.31957 0
M  V30 8129 C 795.186 0.835075 -5.24595 0
M  V30 8130 C 794.225 -0.0130974 -6.12099 0
M  V30 8131 N 793.362 0.839525 -6.97063 0
M  V30 8132 H 798.202 -0.898113 -2.84144 0
M  V30 8133 H 795.739 -0.454537 -1.39901 0
M  V30 8134 H 797.697 1.31578 -3.95908 0
M  V30 8135 H 796.327 1.53585 -2.83922 0
M  V30 8136 H 795.379 -0.711469 -3.73687 0
M  V30 8137 H 796.691 -0.716482 -4.93627 0
M  V30 8138 H 795.845 1.43542 -5.89475 0
M  V30 8139 H 794.584 1.52423 -4.63269 0
M  V30 8140 H 793.589 -0.626179 -5.46223 0
M  V30 8141 H 794.814 -0.699181 -6.75491 0
M  V30 8142 H 792.76 1.5138 -6.38295 0
M  V30 8143 H 792.677 0.240823 -7.55616 0
M  V30 8144 H 793.945 1.42513 -7.66362 0
M  V30 8145 N 798.174 1.49689 -0.493057 0
M  V30 8146 C 799.084 2.32746 0.294358 0
M  V30 8147 C 800.1 1.44117 0.975003 0
M  V30 8148 O 801.276 1.77149 0.958138 0
M  V30 8149 C 798.341 3.19358 1.34949 0
M  V30 8150 C 797.402 4.2383 0.683122 0
M  V30 8151 C 796.635 5.06303 1.68798 0
M  V30 8152 O 796.858 4.90172 2.91698 0
M  V30 8153 O 795.792 5.88826 1.24768 0
M  V30 8154 H 799.618 3.01247 -0.385254 0
M  V30 8155 H 797.203 1.47216 -0.254519 0
M  V30 8156 H 799.085 3.73037 1.96014 0
M  V30 8157 H 797.76 2.53561 2.01217 0
M  V30 8158 H 796.667 3.74086 0.0329351 0
M  V30 8159 H 798 4.9216 0.0630192 0
M  V30 8160 N 799.652 0.226554 1.55963 0
M  V30 8161 C 800.929 -0.453058 1.90281 0
M  V30 8162 C 801.309 -1.77377 1.14458 0
M  V30 8163 O 800.657 -2.27067 0.255496 0
M  V30 8164 C 800.867 -0.641108 3.43061 0
M  V30 8165 C 802.215 -0.946265 4.13921 0
M  V30 8166 O 803.239 -0.727713 3.48687 0
M  V30 8167 O 802.098 -1.36131 5.29274 0
M  V30 8168 H 799.192 -0.240242 0.791336 0
M  V30 8169 H 801.738 0.26911 1.67553 0
M  V30 8170 H 800.51 0.290283 3.90222 0
M  V30 8171 H 800.133 -1.41458 3.71585 0
M  V30 8172 N 801.13 -1.57531 -0.0467866 0
M  V30 8173 C 802.093 -2.04379 -1.03738 0
M  V30 8174 C 803.093 -0.944881 -1.3011 0
M  V30 8175 O 804.283 -1.20904 -1.25411 0
M  V30 8176 C 801.415 -2.44572 -2.37482 0
M  V30 8177 H 802.608 -2.93142 -0.633063 0
M  V30 8178 H 800.161 -1.53526 -0.293177 0
M  V30 8179 H 800.896 -1.58911 -2.82697 0
M  V30 8180 H 800.681 -3.24785 -2.19675 0
M  V30 8181 H 802.171 -2.81307 -3.08636 0
M  V30 8182 N 802.608 0.318715 -1.54344 0
M  V30 8183 C 803.555 1.39242 -1.84066 0
M  V30 8184 C 804.525 1.51175 -0.688134 0
M  V30 8185 O 805.71 1.66318 -0.935039 0
M  V30 8186 C 802.85 2.75528 -2.07794 0
M  V30 8187 C 801.963 2.72187 -3.35467 0
M  V30 8188 C 801.098 4.00352 -3.4913 0
M  V30 8189 C 800.137 3.91338 -4.7066 0
M  V30 8190 N 799.274 5.11242 -4.81224 0
M  V30 8191 H 804.114 1.13196 -2.75664 0
M  V30 8192 H 801.651 0.547857 -1.36517 0
M  V30 8193 H 803.609 3.54763 -2.19543 0
M  V30 8194 H 802.239 2.99873 -1.19482 0
M  V30 8195 H 801.291 1.84917 -3.3243 0
M  V30 8196 H 802.603 2.61411 -4.24812 0
M  V30 8197 H 801.757 4.88019 -3.60448 0
M  V30 8198 H 800.496 4.1394 -2.57886 0
M  V30 8199 H 799.501 3.02055 -4.59394 0
M  V30 8200 H 800.726 3.7931 -5.63294 0
M  V30 8201 H 798.672 5.25327 -3.92897 0
M  V30 8202 H 798.589 5.0282 -5.64543 0
M  V30 8203 H 799.857 6.0061 -4.96879 0
M  V30 8204 N 804.086 1.46499 0.581025 0
M  V30 8205 C 805.033 1.5719 1.68997 0
M  V30 8206 C 806.003 0.416114 1.60803 0
M  V30 8207 O 807.188 0.633086 1.79991 0
M  V30 8208 C 804.328 1.56973 3.07333 0
M  V30 8209 C 803.441 2.83298 3.26139 0
M  V30 8210 C 802.576 2.74574 4.54734 0
M  V30 8211 C 801.615 3.9583 4.66889 0
M  V30 8212 N 800.752 3.85482 5.86811 0
M  V30 8213 H 805.592 2.51914 1.59196 0
M  V30 8214 H 803.129 1.24975 0.775857 0
M  V30 8215 H 805.087 1.54832 3.87405 0
M  V30 8216 H 803.717 0.657803 3.16027 0
M  V30 8217 H 802.769 2.95411 2.3966 0
M  V30 8218 H 804.081 3.7316 3.30988 0
M  V30 8219 H 803.235 2.70548 5.43036 0
M  V30 8220 H 801.974 1.82354 4.52325 0
M  V30 8221 H 800.979 4.00186 3.77003 0
M  V30 8222 H 802.204 4.89148 4.71075 0
M  V30 8223 H 800.15 2.96051 5.85397 0
M  V30 8224 H 800.067 4.69002 5.92936 0
M  V30 8225 H 801.335 3.85434 6.7754 0
M  V30 8226 N 805.565 -0.825799 1.34232 0
M  V30 8227 C 806.976 -1.39835 1.23706 0
M  V30 8228 C 807.327 -1.95709 -0.138649 0
M  V30 8229 O 806.452 -1.89833 -1.03886 0
M  V30 8230 C 807.047 -2.54203 2.23978 0
M  V30 8231 C 805.606 -3.07374 2.17251 0
M  V30 8232 C 804.753 -1.80232 2.10741 0
M  V30 8233 H 807.704 -0.630442 1.4564 0
M  V30 8234 H 807.725 -3.32214 1.8551 0
M  V30 8235 H 807.237 -2.13506 3.24094 0
M  V30 8236 H 805.338 -3.52583 1.20483 0
M  V30 8237 H 805.451 -3.6666 3.08379 0
M  V30 8238 H 803.815 -2.01012 1.56417 0
M  V30 8239 H 804.598 -1.41713 3.12686 0
M  V30 8240 N 807.043 -1.17915 -1.04565 0
M  V30 8241 C 807.953 -0.916449 -2.15959 0
M  V30 8242 C 808.969 0.117655 -1.73602 0
M  V30 8243 O 810.145 -0.063089 -2.01301 0
M  V30 8244 C 807.21 -0.440262 -3.43893 0
M  V30 8245 C 806.271 -1.54172 -4.00661 0
M  V30 8246 C 805.504 -1.08816 -5.22489 0
M  V30 8247 O 805.727 0.0551547 -5.70373 0
M  V30 8248 O 804.661 -1.88383 -5.7166 0
M  V30 8249 H 808.487 -1.8484 -2.40972 0
M  V30 8250 H 806.072 -0.960552 -1.14428 0
M  V30 8251 H 807.954 -0.182537 -4.21004 0
M  V30 8252 H 806.629 0.46346 -3.20365 0
M  V30 8253 H 805.536 -1.85341 -3.24961 0
M  V30 8254 H 806.869 -2.42139 -4.2852 0
M  V30 8255 N 808.521 1.23394 -0.980386 0
M  V30 8256 C 809.484 2.23092 -0.525619 0
M  V30 8257 C 810.484 1.56129 0.384745 0
M  V30 8258 O 811.674 1.73284 0.178439 0
M  V30 8259 C 808.806 3.40074 0.23712 0
M  V30 8260 H 809.999 2.64839 -1.40714 0
M  V30 8261 H 807.552 1.36227 -0.766275 0
M  V30 8262 H 808.287 3.03783 1.13518 0
M  V30 8263 H 808.072 3.89883 -0.416356 0
M  V30 8264 H 809.562 4.14043 0.543892 0
M  V30 8265 N 809.999 0.752036 1.385 0
M  V30 8266 C 810.946 0.123288 2.3047 0
M  V30 8267 C 811.916 -0.711326 1.50098 0
M  V30 8268 O 813.101 -0.667775 1.78733 0
M  V30 8269 C 810.241 -0.765085 3.36512 0
M  V30 8270 C 809.354 0.0839885 4.31918 0
M  V30 8271 C 808.489 -0.807243 5.25031 0
M  V30 8272 C 807.528 0.0455583 6.12083 0
M  V30 8273 N 806.665 -0.802547 6.97498 0
M  V30 8274 H 811.505 0.913169 2.83664 0
M  V30 8275 H 809.042 0.46195 1.39658 0
M  V30 8276 H 811 -1.29476 3.966 0
M  V30 8277 H 809.63 -1.52077 2.84732 0
M  V30 8278 H 808.682 0.731276 3.73305 0
M  V30 8279 H 809.994 0.74265 4.9324 0
M  V30 8280 H 809.148 -1.40414 5.90228 0
M  V30 8281 H 807.887 -1.49964 4.64071 0
M  V30 8282 H 806.892 0.655137 5.45883 0
M  V30 8283 H 808.117 0.734994 6.75111 0
M  V30 8284 H 806.063 -1.47992 6.39089 0
M  V30 8285 H 805.98 -0.200747 7.55733 0
M  V30 8286 H 807.248 -1.38447 7.67107 0
M  V30 8287 N 811.477 -1.49425 0.500989 0
M  V30 8288 C 812.424 -2.29126 -0.277443 0
M  V30 8289 C 813.394 -1.35522 -0.960363 0
M  V30 8290 O 814.579 -1.64479 -0.967027 0
M  V30 8291 C 811.719 -3.18193 -1.33593 0
M  V30 8292 C 810.832 -4.26854 -0.664791 0
M  V30 8293 C 809.967 -5.03137 -1.70372 0
M  V30 8294 C 809.006 -6.03635 -1.01445 0
M  V30 8295 N 808.143 -6.73083 -1.99758 0
M  V30 8296 H 812.983 -2.95187 0.408458 0
M  V30 8297 H 810.52 -1.45546 0.213275 0
M  V30 8298 H 812.478 -3.68207 -1.96161 0
M  V30 8299 H 811.108 -2.54116 -1.9906 0
M  V30 8300 H 810.16 -3.80328 0.0741708 0
M  V30 8301 H 811.472 -4.9865 -0.122197 0
M  V30 8302 H 810.626 -5.5702 -2.40445 0
M  V30 8303 H 809.365 -4.31114 -2.28017 0
M  V30 8304 H 808.37 -5.48984 -0.299496 0
M  V30 8305 H 809.595 -6.77644 -0.444497 0
M  V30 8306 H 807.541 -6.03832 -2.56365 0
M  V30 8307 H 807.458 -7.40855 -1.50565 0
M  V30 8308 H 808.726 -7.3157 -2.69119 0
M  V30 8309 N 812.955 -0.234822 -1.55841 0
M  V30 8310 C 813.865 0.680828 -2.24504 0
M  V30 8311 C 814.881 1.20306 -1.25708 0
M  V30 8312 O 816.057 1.24188 -1.58554 0
M  V30 8313 C 813.122 1.86636 -2.92178 0
M  V30 8314 C 812.183 1.3848 -4.06352 0
M  V30 8315 C 811.416 2.51382 -4.70789 0
M  V30 8316 O 811.639 3.69831 -4.34259 0
M  V30 8317 O 810.573 2.21828 -5.59532 0
M  V30 8318 H 814.399 0.12583 -3.03439 0
M  V30 8319 H 811.984 -0.00381817 -1.494 0
M  V30 8320 H 813.866 2.55845 -3.34845 0
M  V30 8321 H 812.541 2.40921 -2.16192 0
M  V30 8322 H 811.448 0.660341 -3.68226 0
M  V30 8323 H 812.781 0.888177 -4.8412 0
M  V30 8324 N 814.433 1.57553 0.0384317 0
M  V30 8325 C 815.71 1.79977 0.766002 0
M  V30 8326 C 816.09 0.830625 1.94072 0
M  V30 8327 O 815.438 -0.129243 2.28134 0
M  V30 8328 C 815.648 3.27434 1.20781 0
M  V30 8329 C 816.996 3.92167 1.62758 0
M  V30 8330 O 818.02 3.31527 1.30263 0
M  V30 8331 O 816.879 4.98917 2.23035 0
M  V30 8332 H 813.973 0.739787 0.369654 0
M  V30 8333 H 816.519 1.69693 0.0159312 0
M  V30 8334 H 815.291 3.89558 0.368792 0
M  V30 8335 H 814.914 3.42571 2.01819 0
M  V30 8336 N 815.911 -0.310526 1.54511 0
M  V30 8337 C 816.874 -1.3657 1.84068 0
M  V30 8338 C 817.874 -1.44123 0.713097 0
M  V30 8339 O 819.064 -1.43924 0.981399 0
M  V30 8340 C 816.196 -2.75162 2.01243 0
M  V30 8341 H 817.389 -1.1161 2.78358 0
M  V30 8342 H 814.942 -0.546699 1.46427 0
M  V30 8343 H 815.677 -3.05359 1.09208 0
M  V30 8344 H 815.462 -2.71071 2.83307 0
M  V30 8345 H 816.952 -3.51473 2.25514 0
M  V30 8346 N 817.389 -1.46805 -0.573248 0
M  V30 8347 C 818.336 -1.58084 -1.68161 0
M  V30 8348 C 819.306 -0.424636 -1.6058 0
M  V30 8349 O 820.491 -0.642623 -1.79652 0
M  V30 8350 C 817.631 -1.58601 -3.06496 0
M  V30 8351 C 816.744 -2.85023 -3.24632 0
M  V30 8352 C 815.879 -2.76981 -4.53271 0
M  V30 8353 C 814.918 -3.983 -4.64783 0
M  V30 8354 N 814.055 -3.88589 -5.84759 0
M  V30 8355 H 818.895 -2.52755 -1.57858 0
M  V30 8356 H 816.432 -1.25385 -0.769218 0
M  V30 8357 H 818.39 -1.56885 -3.86579 0
M  V30 8358 H 817.02 -0.674553 -3.15673 0
M  V30 8359 H 816.072 -2.96678 -2.38089 0
M  V30 8360 H 817.384 -3.7491 -3.29004 0
M  V30 8361 H 816.538 -2.73424 -5.41594 0
M  V30 8362 H 815.277 -1.84751 -4.51352 0
M  V30 8363 H 814.282 -4.02179 -3.74876 0
M  V30 8364 H 815.507 -4.91639 -4.68474 0
M  V30 8365 H 813.453 -2.99151 -5.83819 0
M  V30 8366 H 813.37 -4.7214 -5.90441 0
M  V30 8367 H 814.638 -3.89022 -6.75486 0
M  V30 8368 N 818.867 0.818669 -1.34668 0
M  V30 8369 C 819.814 1.92983 -1.26595 0
M  V30 8370 C 820.784 1.65506 -0.140315 0
M  V30 8371 O 821.969 1.88063 -0.322005 0
M  V30 8372 C 819.109 3.2932 -1.03163 0
M  V30 8373 C 818.222 3.69061 -2.24539 0
M  V30 8374 C 817.357 4.94368 -1.94355 0
M  V30 8375 C 816.396 5.26702 -3.11851 0
M  V30 8376 N 815.533 6.43187 -2.81522 0
M  V30 8377 H 820.373 1.99219 -2.2162 0
M  V30 8378 H 817.91 0.974612 -1.1018 0
M  V30 8379 H 819.868 4.07897 -0.87613 0
M  V30 8380 H 818.498 3.22584 -0.118045 0
M  V30 8381 H 817.55 2.85842 -2.50995 0
M  V30 8382 H 818.862 3.88924 -3.12313 0
M  V30 8383 H 818.016 5.80742 -1.75566 0
M  V30 8384 H 816.755 4.76515 -1.03848 0
M  V30 8385 H 815.76 4.38823 -3.31231 0
M  V30 8386 H 816.985 5.46492 -4.03142 0
M  V30 8387 H 814.931 6.26783 -1.93596 0
M  V30 8388 H 814.848 6.63243 -3.62829 0
M  V30 8389 H 816.116 7.32621 -2.66247 0
M  V30 8390 N 820.346 1.18468 1.03938 0
M  V30 8391 C 821.309 0.914944 2.10146 0
M  V30 8392 C 822.309 -0.10022 1.60487 0
M  V30 8393 O 823.499 0.133365 1.73689 0
M  V30 8394 C 820.631 0.372993 3.38853 0
M  V30 8395 H 821.824 1.85677 2.35508 0
M  V30 8396 H 819.377 0.996876 1.20383 0
M  V30 8397 H 820.112 -0.57538 3.19155 0
M  V30 8398 H 819.897 1.1048 3.76213 0
M  V30 8399 H 821.387 0.203014 4.17106 0
M  V30 8400 N 821.824 -1.22873 0.986916 0
M  V30 8401 C 822.734 -2.28277 0.540978 0
M  V30 8402 C 823.75 -1.69164 -0.407363 0
M  V30 8403 O 824.926 -1.99504 -0.275674 0
M  V30 8404 C 821.991 -3.46404 -0.143181 0
M  V30 8405 C 821.052 -4.20854 0.847375 0
M  V30 8406 C 820.285 -5.33341 0.19577 0
M  V30 8407 O 820.508 -5.61356 -1.0117 0
M  V30 8408 O 819.442 -5.95169 0.897623 0
M  V30 8409 H 823.268 -2.68578 1.41773 0
M  V30 8410 H 820.853 -1.28927 0.754867 0
M  V30 8411 H 822.735 -4.18096 -0.526676 0
M  V30 8412 H 821.41 -3.08041 -0.994593 0
M  V30 8413 H 820.317 -3.51459 1.28169 0
M  V30 8414 H 821.65 -4.63082 1.6678 0
M  V30 8415 N 823.302 -0.75937 -1.38099 0
M  V30 8416 C 824.53 -0.329111 -2.04266 0
M  V30 8417 C 824.945 1.04453 -1.57274 0
M  V30 8418 O 824.302 1.66449 -0.748397 0
M  V30 8419 C 824.353 -0.349192 -3.5981 0
M  V30 8420 O 824.074 -1.66863 -4.05078 0
M  V30 8421 C 825.575 0.0942106 -4.432 0
M  V30 8422 H 822.795 -0.13971 -0.656294 0
M  V30 8423 H 825.339 -1.02984 -1.76677 0
M  V30 8424 H 823.494 0.302846 -3.86214 0
M  V30 8425 H 823.908 -1.59877 -4.9954 0
M  V30 8426 H 825.382 0.0290004 -5.51992 0
M  V30 8427 H 825.859 1.1429 -4.24069 0
M  V30 8428 H 826.465 -0.529171 -4.21995 0
M  V30 8429 N 824.78 1.49157 -0.508906 0
M  V30 8430 C 825.71 2.32109 0.254469 0
M  V30 8431 C 826.691 1.40754 0.955111 0
M  V30 8432 O 827.876 1.69658 0.944983 0
M  V30 8433 C 825.006 3.21458 1.3146 0
M  V30 8434 C 823.96 4.2167 0.733368 0
M  V30 8435 C 823.286 5.00009 1.8946 0
M  V30 8436 C 824.586 5.21544 -0.280875 0
M  V30 8437 H 826.28 2.9618 -0.43795 0
M  V30 8438 H 823.826 1.4243 -0.212062 0
M  V30 8439 H 825.779 3.78305 1.85643 0
M  V30 8440 H 824.503 2.55346 2.03632 0
M  V30 8441 H 823.162 3.65979 0.213231 0
M  V30 8442 H 822.81 4.30338 2.60419 0
M  V30 8443 H 822.51 5.67821 1.51173 0
M  V30 8444 H 824.034 5.59702 2.44061 0
M  V30 8445 H 825.448 5.73039 0.173095 0
M  V30 8446 H 823.845 5.97291 -0.580006 0
M  V30 8447 H 824.915 4.69969 -1.19404 0
M  V30 8448 N 826.258 0.243083 1.55714 0
M  V30 8449 C 827.669 -0.260788 1.8487 0
M  V30 8450 C 828.02 -1.57879 1.16485 0
M  V30 8451 O 827.145 -2.1184 0.441908 0
M  V30 8452 C 827.74 -0.479954 3.35383 0
M  V30 8453 C 826.299 -0.928096 3.64778 0
M  V30 8454 C 825.446 -0.00316416 2.773 0
M  V30 8455 H 828.397 0.465743 1.51712 0
M  V30 8456 H 828.418 -1.32308 3.56756 0
M  V30 8457 H 827.93 0.479468 3.85127 0
M  V30 8458 H 826.031 -1.90012 3.20509 0
M  V30 8459 H 826.144 -0.7876 4.72582 0
M  V30 8460 H 824.508 -0.513849 2.49463 0
M  V30 8461 H 825.291 0.951562 3.29849 0
M  V30 8462 N 827.736 -1.57571 -0.0300757 0
M  V30 8463 C 828.964 -1.93485 -0.732891 0
M  V30 8464 C 829.379 -0.842758 -1.68947 0
M  V30 8465 O 828.736 0.180904 -1.81601 0
M  V30 8466 C 828.787 -3.29328 -1.49082 0
M  V30 8467 O 828.508 -4.34341 -0.572639 0
M  V30 8468 C 830.009 -3.79517 -2.29088 0
M  V30 8469 H 827.229 -0.638588 -0.206026 0
M  V30 8470 H 829.773 -2.04496 0.0120966 0
M  V30 8471 H 827.928 -3.19716 -2.1877 0
M  V30 8472 H 828.342 -5.12748 -1.10406 0
M  V30 8473 H 829.816 -4.77081 -2.77665 0
M  V30 8474 H 830.293 -3.10659 -3.10464 0
M  V30 8475 H 830.899 -3.92208 -1.64477 0
M  V30 8476 N 829.214 0.302327 -1.54673 0
M  V30 8477 C 830.442 1.05669 -1.77881 0
M  V30 8478 C 830.857 1.80983 -0.537648 0
M  V30 8479 O 830.214 1.7573 0.492467 0
M  V30 8480 C 830.265 2.03828 -2.98557 0
M  V30 8481 O 829.986 1.3157 -4.17877 0
M  V30 8482 C 831.487 2.91314 -3.34143 0
M  V30 8483 H 828.707 0.313436 -0.593295 0
M  V30 8484 H 831.251 0.342003 -2.0162 0
M  V30 8485 H 829.406 2.70801 -2.7703 0
M  V30 8486 H 829.82 1.97481 -4.85903 0
M  V30 8487 H 831.294 3.56042 -4.21827 0
M  V30 8488 H 831.771 3.59544 -2.52239 0
M  V30 8489 H 832.377 2.29874 -3.57824 0
M  V30 8490 N 830.692 1.47107 0.565454 0
M  V30 8491 C 831.94 1.53005 1.32038 0
M  V30 8492 C 832.261 0.190453 1.94068 0
M  V30 8493 O 831.531 -0.784783 1.79494 0
M  V30 8494 H 830.111 0.563578 0.490294 0
M  V30 8495 H 832.773 1.83351 0.660928 0
M  V30 8496 H 831.869 2.29215 2.11818 0
M  V30 8497 N 832.17 -0.811516 1.35101 0
M  V30 8498 C 833.08 -1.95475 1.29718 0
M  V30 8499 C 834.096 -1.72813 0.202909 0
M  V30 8500 O 835.272 -1.96725 0.431414 0
M  V30 8501 C 832.337 -3.29975 1.06385 0
M  V30 8502 C 831.398 -3.65566 2.25077 0
M  V30 8503 C 830.631 -4.93648 2.02848 0
M  V30 8504 O 830.854 -5.617 0.992442 0
M  V30 8505 O 829.788 -5.27384 2.90087 0
M  V30 8506 H 833.614 -2.02961 2.25921 0
M  V30 8507 H 831.199 -0.948583 1.15422 0
M  V30 8508 H 833.081 -4.10506 0.951999 0
M  V30 8509 H 831.756 -3.2343 0.132294 0
M  V30 8510 H 830.663 -2.85432 2.41825 0
M  V30 8511 H 831.996 -3.7681 3.16662 0
M  V30 8512 N 833.648 -1.19017 -1.03309 0
M  V30 8513 C 834.896 -0.988258 -1.76289 0
M  V30 8514 C 835.217 0.482557 -1.88935 0
M  V30 8515 O 834.487 1.34969 -1.41987 0
M  V30 8516 H 833.067 -0.36267 -0.653054 0
M  V30 8517 H 835.729 -1.49836 -1.2464 0
M  V30 8518 H 834.825 -1.43273 -2.77271 0
M  V30 8519 N 835.127 1.22348 -0.993418 0
M  V30 8520 C 836.352 1.95666 -0.687727 0
M  V30 8521 C 836.777 1.72883 0.741161 0
M  V30 8522 O 836.135 1.00837 1.50671 0
M  V30 8523 C 836.183 3.46457 -0.99998 0
M  V30 8524 O 835.287 4.12281 -0.0989386 0
M  V30 8525 H 834.628 0.612102 -0.257346 0
M  V30 8526 H 837.158 1.55428 -1.33054 0
M  V30 8527 H 837.168 3.96976 -0.942035 0
M  V30 8528 H 835.843 3.62365 -2.04118 0
M  V30 8529 H 834.42 3.72295 -0.212413 0
M  V30 8530 N 836.605 0.766683 1.37694 0
M  V30 8531 C 837.553 0.137269 2.32195 0
M  V30 8532 C 838.547 -0.69067 1.54681 0
M  V30 8533 O 839.753 -0.588299 1.70115 0
M  V30 8534 H 836.128 0.0256003 0.751564 0
M  V30 8535 H 838.099 0.950129 2.82869 0
M  V30 8536 C 836.848 -0.731446 3.39919 0
M  V30 8537 H 836.171 -0.103738 3.99665 0
M  V30 8538 H 837.611 -1.13891 4.08417 0
M  V30 8539 C 836.07 -1.87984 2.79578 0
M  V30 8540 O 836.6 -2.97496 2.69924 0
M  V30 8541 N 834.806 -1.6789 2.37195 0
M  V30 8542 H 834.353 -0.788162 2.45246 0
M  V30 8543 H 834.311 -2.44894 1.97165 0
M  V30 8544 N 838.083 -1.48885 0.516809 0
M  V30 8545 C 839.494 -1.86557 0.0729921 0
M  V30 8546 C 839.845 -1.42767 -1.34581 0
M  V30 8547 O 838.97 -0.812514 -2.00567 0
M  V30 8548 C 839.565 -3.38567 0.125686 0
M  V30 8549 C 838.124 -3.75481 -0.262867 0
M  V30 8550 C 837.271 -2.72913 0.491281 0
M  V30 8551 H 840.222 -1.40978 0.728767 0
M  V30 8552 H 840.243 -3.74629 -0.665831 0
M  V30 8553 H 839.755 -3.70408 1.15842 0
M  V30 8554 H 837.856 -3.49251 -1.29824 0
M  V30 8555 H 837.969 -4.79052 0.067579 0
M  V30 8556 H 836.333 -2.54627 -0.0608525 0
M  V30 8557 H 837.116 -3.07599 1.5244 0
M  V30 8558 N 839.561 -0.251338 -1.55583 0
M  V30 8559 C 840.808 0.372169 -1.99051 0
M  V30 8560 C 841.136 1.57623 -1.13953 0
M  V30 8561 O 840.391 1.94762 -0.191398 0
M  V30 8562 C 840.69 0.821186 -3.47838 0
M  V30 8563 C 840.356 -0.275608 -4.50057 0
M  V30 8564 C 839.018 -0.57683 -4.7773 0
M  V30 8565 C 841.37 -1.01585 -5.11204 0
M  V30 8566 C 838.698 -1.62229 -5.63825 0
M  V30 8567 C 841.05 -2.05087 -5.98433 0
M  V30 8568 C 839.714 -2.35869 -6.24437 0
M  V30 8569 H 838.984 0.136186 -0.728378 0
M  V30 8570 H 841.631 -0.360089 -1.88084 0
M  V30 8571 H 839.936 1.63272 -3.56159 0
M  V30 8572 H 841.633 1.31396 -3.78861 0
M  V30 8573 H 838.223 -0.030697 -4.28589 0
M  V30 8574 H 842.407 -0.79639 -4.89869 0
M  V30 8575 H 837.663 -1.86607 -5.82226 0
M  V30 8576 H 841.837 -2.62934 -6.44855 0
M  V30 8577 H 839.464 -3.17017 -6.90944 0
M  V30 8578 N 841.039 1.57585 0.0217189 0
M  V30 8579 C 842.286 1.89606 0.711045 0
M  V30 8580 C 842.614 0.849535 1.74966 0
M  V30 8581 O 841.869 -0.14856 1.95135 0
M  V30 8582 C 842.168 3.28377 1.41079 0
M  V30 8583 C 841.834 4.48035 0.507454 0
M  V30 8584 C 840.496 4.80504 0.258672 0
M  V30 8585 C 842.848 5.21071 -0.115793 0
M  V30 8586 C 840.176 5.83393 -0.622013 0
M  V30 8587 C 842.528 6.24897 -0.984224 0
M  V30 8588 C 841.192 6.55836 -1.2424 0
M  V30 8589 H 840.462 0.693817 0.26019 0
M  V30 8590 H 843.109 1.91478 -0.0291424 0
M  V30 8591 H 841.414 3.22528 2.22448 0
M  V30 8592 H 843.111 3.50404 1.94982 0
M  V30 8593 H 839.701 4.22653 0.711516 0
M  V30 8594 H 843.885 4.96259 0.0634327 0
M  V30 8595 H 839.141 6.05736 -0.830267 0
M  V30 8596 H 843.315 6.8063 -1.47363 0
M  V30 8597 H 840.942 7.35383 -1.92653 0
M  V30 8598 N 842.517 -0.29412 1.54831 0
M  V30 8599 C 843.745 -1.04724 1.78439 0
M  V30 8600 C 844.16 -1.80695 0.547239 0
M  V30 8601 O 843.517 -1.75989 -0.483141 0
M  V30 8602 C 843.568 -2.02242 2.99634 0
M  V30 8603 O 843.289 -1.29352 4.18568 0
M  V30 8604 C 844.79 -2.89537 3.35683 0
M  V30 8605 H 842.01 -0.310285 0.594949 0
M  V30 8606 H 844.554 -0.331306 2.01798 0
M  V30 8607 H 842.709 -2.69328 2.78462 0
M  V30 8608 H 843.123 -1.94901 4.86943 0
M  V30 8609 H 844.597 -3.538 4.23709 0
M  V30 8610 H 845.074 -3.58201 2.54143 0
M  V30 8611 H 845.68 -2.27973 3.59038 0
M  V30 8612 N 843.995 -1.47404 -0.557645 0
M  V30 8613 C 844.958 -1.59411 -1.64684 0
M  V30 8614 C 845.958 -0.469244 -1.53801 0
M  V30 8615 O 847.148 -0.734298 -1.57967 0
M  V30 8616 C 844.28 -1.5382 -3.04224 0
M  V30 8617 H 845.473 -2.56504 -1.55389 0
M  V30 8618 H 843.026 -1.35588 -0.777531 0
M  V30 8619 H 843.761 -0.581 -3.19053 0
M  V30 8620 H 843.546 -2.35456 -3.13533 0
M  V30 8621 H 845.036 -1.65358 -3.83466 0
M  V30 8622 N 845.473 0.80434 -1.35529 0
M  V30 8623 C 846.436 1.89788 -1.28503 0
M  V30 8624 C 847.436 1.59601 -0.195983 0
M  V30 8625 O 848.626 1.68292 -0.449827 0
M  V30 8626 C 845.758 3.26255 -0.98847 0
M  V30 8627 H 846.951 1.97436 -2.25741 0
M  V30 8628 H 844.504 1.00046 -1.20086 0
M  V30 8629 H 845.239 3.24294 -0.0200541 0
M  V30 8630 H 845.024 3.49551 -1.77641 0
M  V30 8631 H 846.514 4.06298 -0.964975 0
M  V30 8632 N 846.951 1.19563 1.02676 0
M  V30 8633 C 847.914 0.937182 2.09164 0
M  V30 8634 C 848.914 -0.0831927 1.60585 0
M  V30 8635 O 850.104 0.15178 1.73538 0
M  V30 8636 C 847.236 0.408912 3.38439 0
M  V30 8637 H 848.429 1.88164 2.33526 0
M  V30 8638 H 845.982 1.00959 1.19319 0
M  V30 8639 H 846.717 -0.541497 3.19747 0
M  V30 8640 H 846.502 1.14464 3.7502 0
M  V30 8641 H 847.992 0.247242 4.16867 0
M  V30 8642 N 848.429 -1.21819 0.999893 0
M  V30 8643 C 849.359 -2.26282 0.576096 0
M  V30 8644 C 850.34 -1.65317 -0.400537 0
M  V30 8645 O 851.525 -1.92028 -0.28964 0
M  V30 8646 C 848.655 -3.47147 -0.103145 0
M  V30 8647 C 847.609 -4.20594 0.792745 0
M  V30 8648 C 846.935 -5.34696 -0.0198026 0
M  V30 8649 C 848.235 -4.78533 2.09293 0
M  V30 8650 H 849.929 -2.61984 1.4493 0
M  V30 8651 H 847.475 -1.25935 0.698316 0
M  V30 8652 H 849.428 -4.1939 -0.411068 0
M  V30 8653 H 848.152 -3.1056 -1.01094 0
M  V30 8654 H 846.811 -3.50194 1.08442 0
M  V30 8655 H 846.459 -4.94352 -0.928729 0
M  V30 8656 H 846.159 -5.84764 0.576661 0
M  V30 8657 H 847.683 -6.09752 -0.321659 0
M  V30 8658 H 849.097 -5.42682 1.8485 0
M  V30 8659 H 847.494 -5.38968 2.63881 0
M  V30 8660 H 848.564 -3.98197 2.76708 0
M  V30 8661 N 849.908 -0.773975 -1.37286 0
M  V30 8662 C 850.871 -0.167974 -2.28584 0
M  V30 8663 C 851.871 0.625662 -1.48129 0
M  V30 8664 O 853.061 0.448924 -1.68316 0
M  V30 8665 C 850.193 0.769364 -3.32105 0
M  V30 8666 H 851.386 -0.972806 -2.83684 0
M  V30 8667 H 848.939 -0.542335 -1.46589 0
M  V30 8668 H 849.674 1.59912 -2.82132 0
M  V30 8669 H 849.459 0.202419 -3.91577 0
M  V30 8670 H 850.949 1.18872 -4.00324 0
M  V30 8671 N 851.386 1.48609 -0.524698 0
M  V30 8672 C 852.632 2.02797 0.0113382 0
M  V30 8673 C 852.965 1.40147 1.34433 0
M  V30 8674 O 852.24 0.545368 1.86698 0
M  V30 8675 C 852.523 3.59832 0.138931 0
M  V30 8676 C 852.376 4.32971 -1.21886 0
M  V30 8677 C 853.695 4.3145 0.868265 0
M  V30 8678 H 850.814 0.736995 0.00264645 0
M  V30 8679 H 853.456 1.77388 -0.680704 0
M  V30 8680 H 851.606 3.81612 0.72834 0
M  V30 8681 H 853.278 4.22624 -1.84897 0
M  V30 8682 H 851.521 3.94597 -1.80211 0
M  V30 8683 H 852.192 5.41279 -1.08263 0
M  V30 8684 H 854.668 4.14468 0.368145 0
M  V30 8685 H 853.544 5.41025 0.926428 0
M  V30 8686 H 853.805 3.98358 1.91737 0
M  V30 8687 N 852.864 0.259585 1.55447 0
M  V30 8688 C 853.797 -0.675542 2.17972 0
M  V30 8689 C 854.775 -1.16362 1.13572 0
M  V30 8690 O 855.959 -1.23944 1.42021 0
M  V30 8691 C 853.086 -1.91952 2.79056 0
M  V30 8692 C 852.132 -1.56824 3.96621 0
M  V30 8693 S 852.965 -0.659846 5.31419 0
M  V30 8694 C 854.121 -1.91255 5.95963 0
M  V30 8695 H 854.354 -0.144236 2.9695 0
M  V30 8696 H 851.887 0.0439448 1.54337 0
M  V30 8697 H 853.845 -2.63362 3.14882 0
M  V30 8698 H 852.506 -2.42196 2 0
M  V30 8699 H 851.699 -2.49348 4.37997 0
M  V30 8700 H 851.301 -0.934472 3.62138 0
M  V30 8701 H 853.593 -2.85834 6.14252 0
M  V30 8702 H 854.536 -1.54207 6.91105 0
M  V30 8703 H 854.944 -2.07042 5.25161 0
M  V30 8704 N 854.342 -1.57594 -0.0133615 0
M  V30 8705 C 855.305 -2.06534 -0.993799 0
M  V30 8706 C 856.305 -0.972267 -1.28077 0
M  V30 8707 O 857.495 -1.23537 -1.22818 0
M  V30 8708 C 854.627 -2.49554 -2.3224 0
M  V30 8709 H 855.82 -2.94419 -0.570741 0
M  V30 8710 H 853.373 -1.54113 -0.260546 0
M  V30 8711 H 854.108 -1.64872 -2.79263 0
M  V30 8712 H 853.893 -3.29371 -2.12737 0
M  V30 8713 H 855.383 -2.8779 -3.026 0
M  V30 8714 N 855.82 0.285905 -1.54985 0
M  V30 8715 C 857.068 1.01718 -1.74636 0
M  V30 8716 C 857.389 1.87277 -0.543342 0
M  V30 8717 O 856.659 1.90847 0.442078 0
M  V30 8718 H 855.239 0.378549 -0.643979 0
M  V30 8719 H 857.901 0.313247 -1.92366 0
M  V30 8720 H 856.997 1.66159 -2.64192 0
M  V30 8721 N 857.298 1.47698 0.54982 0
M  V30 8722 C 858.261 1.60282 1.63837 0
M  V30 8723 C 859.261 0.477394 1.5355 0
M  V30 8724 O 860.451 0.742665 1.57576 0
M  V30 8725 C 857.583 1.55431 3.03404 0
M  V30 8726 H 858.776 2.57325 1.54026 0
M  V30 8727 H 856.329 1.35999 0.770329 0
M  V30 8728 H 857.064 0.597912 3.1874 0
M  V30 8729 H 856.849 2.37116 3.12279 0
M  V30 8730 H 858.339 1.6739 3.82584 0
M  V30 8731 N 858.776 -0.797141 1.35954 0
M  V30 8732 C 860.024 -1.55161 1.29497 0
M  V30 8733 C 860.345 -1.94582 -0.127659 0
M  V30 8734 O 859.615 -1.64343 -1.06622 0
M  V30 8735 H 858.195 -0.575413 0.47635 0
M  V30 8736 H 860.857 -0.950282 1.70164 0
M  V30 8737 H 859.953 -2.46272 1.9172 0
M  V30 8738 N 860.254 -1.20106 -1.0204 0
M  V30 8739 C 861.217 -0.948261 -2.08664 0
M  V30 8740 C 862.217 0.0746753 -1.60627 0
M  V30 8741 O 863.407 -0.160981 -1.73455 0
M  V30 8742 C 860.539 -0.426854 -3.38217 0
M  V30 8743 H 861.732 -1.894 -2.32524 0
M  V30 8744 H 859.285 -1.0159 -1.18782 0
M  V30 8745 H 860.02 0.524532 -3.2003 0
M  V30 8746 H 859.805 -1.16451 -3.74408 0
M  V30 8747 H 861.295 -0.269346 -4.1673 0
M  V30 8748 N 861.732 1.21287 -1.00634 0
M  V30 8749 C 862.662 2.25973 -0.588089 0
M  V30 8750 C 863.643 1.65527 0.391764 0
M  V30 8751 O 864.828 1.92179 0.279452 0
M  V30 8752 C 861.958 3.47197 0.0847336 0
M  V30 8753 C 860.912 4.20168 -0.815039 0
M  V30 8754 C 860.238 5.34699 -0.00855393 0
M  V30 8755 C 861.538 4.77416 -2.11828 0
M  V30 8756 H 863.232 2.61212 -1.46317 0
M  V30 8757 H 860.778 1.25563 -0.704985 0
M  V30 8758 H 862.731 4.19602 0.388821 0
M  V30 8759 H 861.455 3.11092 0.994456 0
M  V30 8760 H 860.114 3.49614 -1.10297 0
M  V30 8761 H 859.762 4.94837 0.902499 0
M  V30 8762 H 859.462 5.84449 -0.607664 0
M  V30 8763 H 860.986 6.09914 0.289317 0
M  V30 8764 H 862.4 5.41694 -1.87725 0
M  V30 8765 H 860.797 5.37561 -2.66736 0
M  V30 8766 H 861.867 3.96724 -2.78816 0
M  V30 8767 N 863.21 0.781244 1.36873 0
M  V30 8768 C 864.173 0.180094 2.28491 0
M  V30 8769 C 865.173 -0.617798 1.48458 0
M  V30 8770 O 866.363 -0.439991 1.68552 0
M  V30 8771 C 863.495 -0.751741 3.32508 0
M  V30 8772 H 864.688 0.987837 2.83164 0
M  V30 8773 H 862.241 0.550102 1.463 0
M  V30 8774 H 862.976 -1.58413 2.82977 0
M  V30 8775 H 862.761 -0.181649 3.91679 0
M  V30 8776 H 864.251 -1.16748 4.00949 0
M  V30 8777 N 864.689 -1.48329 0.532571 0
M  V30 8778 C 865.935 -2.028 -0.000583219 0
M  V30 8779 C 866.268 -1.40858 -1.33688 0
M  V30 8780 O 865.543 -0.555261 -1.86406 0
M  V30 8781 C 865.826 -3.59901 -0.119846 0
M  V30 8782 C 865.679 -4.32318 1.2418 0
M  V30 8783 C 866.998 -4.31904 -0.845372 0
M  V30 8784 H 864.117 -0.736999 0.00126205 0
M  V30 8785 H 866.759 -1.77024 0.690102 0
M  V30 8786 H 864.909 -3.81993 -0.708092 0
M  V30 8787 H 866.581 -4.21637 1.87136 0
M  V30 8788 H 864.824 -3.93635 1.82301 0
M  V30 8789 H 865.495 -5.40697 1.11132 0
M  V30 8790 H 867.971 -4.14658 -0.346159 0
M  V30 8791 H 866.847 -5.41509 -0.897723 0
M  V30 8792 H 867.108 -3.99369 -1.89622 0
M  V30 8793 N 866.167 -0.267825 -1.55308 0
M  V30 8794 C 867.13 0.60965 -2.20943 0
M  V30 8795 C 868.13 1.0869 -1.18504 0
M  V30 8796 O 869.32 0.988248 -1.43455 0
M  V30 8797 C 866.452 1.84027 -2.86961 0
M  V30 8798 H 867.645 0.0366806 -2.99878 0
M  V30 8799 H 865.198 -0.0183941 -1.56289 0
M  V30 8800 H 865.933 2.45394 -2.1202 0
M  V30 8801 H 865.718 1.50605 -3.62023 0
M  V30 8802 H 867.208 2.46442 -3.37129 0
M  V30 8803 N 867.645 1.57599 0.00500368 0
M  V30 8804 C 868.87 1.95026 0.705663 0
M  V30 8805 C 869.295 0.869643 1.6679 0
M  V30 8806 O 868.653 -0.172659 1.80476 0
M  V30 8807 C 868.701 3.31545 1.4181 0
M  V30 8808 O 867.805 3.25495 2.53232 0
M  V30 8809 H 867.146 0.636808 0.188074 0
M  V30 8810 H 869.676 2.04547 -0.046696 0
M  V30 8811 H 869.686 3.66996 1.78265 0
M  V30 8812 H 868.361 4.09751 0.712543 0
M  V30 8813 H 866.938 3.01714 2.19142 0
M  V30 8814 N 869.123 -0.277682 1.55134 0
M  V30 8815 C 870.07 -1.34313 1.87693 0
M  V30 8816 C 871.04 -1.49298 0.727973 0
M  V30 8817 O 872.225 -1.6378 0.978807 0
M  V30 8818 C 869.365 -2.69922 2.15026 0
M  V30 8819 C 868.478 -2.63197 3.42565 0
M  V30 8820 C 867.613 -3.90955 3.59622 0
M  V30 8821 C 866.652 -3.78722 4.8087 0
M  V30 8822 N 865.789 -4.98303 4.94609 0
M  V30 8823 H 870.629 -1.05847 2.78569 0
M  V30 8824 H 868.166 -0.511469 1.37922 0
M  V30 8825 H 870.124 -3.48817 2.28872 0
M  V30 8826 H 868.754 -2.966 1.2739 0
M  V30 8827 H 867.806 -1.76038 3.37216 0
M  V30 8828 H 869.118 -2.50056 4.31594 0
M  V30 8829 H 868.272 -4.78291 3.7326 0
M  V30 8830 H 867.011 -4.06957 2.6877 0
M  V30 8831 H 866.016 -2.89769 4.67241 0
M  V30 8832 H 867.241 -3.64242 5.73153 0
M  V30 8833 H 865.187 -5.14725 4.06687 0
M  V30 8834 H 865.104 -4.87675 5.77676 0
M  V30 8835 H 866.372 -5.87225 5.12628 0
M  V30 8836 N 870.601 -1.47988 -0.541979 0
M  V30 8837 C 872.017 -1.33843 -0.869383 0
M  V30 8838 C 872.217 -0.340374 -1.98604 0
M  V30 8839 O 871.273 0.242696 -2.51331 0
M  V30 8840 C 872.586 -2.73568 -1.24823 0
M  V30 8841 C 874.134 -2.81967 -1.3588 0
M  V30 8842 C 874.609 -4.22368 -1.77114 0
M  V30 8843 N 876.1 -4.24983 -1.84237 0
M  V30 8844 C 876.835 -5.30547 -2.17503 0
M  V30 8845 N 876.331 -6.46401 -2.49275 0
M  V30 8846 N 878.124 -5.17933 -2.18406 0
M  V30 8847 H 870.275 -2.11503 0.195001 0
M  V30 8848 H 872.538 -0.947681 0.0245862 0
M  V30 8849 H 872.244 -3.48107 -0.501435 0
M  V30 8850 H 872.118 -3.06322 -2.20106 0
M  V30 8851 H 874.505 -2.07692 -2.09638 0
M  V30 8852 H 874.586 -2.52848 -0.387478 0
M  V30 8853 H 874.23 -4.97155 -1.0392 0
M  V30 8854 H 874.16 -4.48922 -2.75275 0
M  V30 8855 H 876.651 -3.41411 -1.62009 0
M  V30 8856 H 876.964 -7.22698 -2.73729 0
M  V30 8857 H 875.309 -6.49696 -2.46821 0
M  V30 8858 H 878.5 -4.26445 -1.93034 0
M  V30 8859 H 878.673 -6.00307 -2.44 0
M  V30 8860 N 872.079 0.78992 -1.36375 0
M  V30 8861 C 873.026 1.90254 -1.3066 0
M  V30 8862 C 873.996 1.65171 -0.17539 0
M  V30 8863 O 875.181 1.87338 -0.361824 0
M  V30 8864 C 872.321 3.27057 -1.10125 0
M  V30 8865 C 871.434 3.64215 -2.32317 0
M  V30 8866 C 870.569 4.90134 -2.04798 0
M  V30 8867 C 869.608 5.19969 -3.22953 0
M  V30 8868 N 868.745 6.37071 -2.95102 0
M  V30 8869 H 873.585 1.94474 -2.25796 0
M  V30 8870 H 871.122 0.951022 -1.12223 0
M  V30 8871 H 873.08 4.05947 -0.962453 0
M  V30 8872 H 871.71 3.22261 -0.186444 0
M  V30 8873 H 870.762 2.80454 -2.57002 0
M  V30 8874 H 872.074 3.82212 -3.20492 0
M  V30 8875 H 871.228 5.76888 -1.87845 0
M  V30 8876 H 869.967 4.74205 -1.13932 0
M  V30 8877 H 868.972 4.31699 -3.40465 0
M  V30 8878 H 870.197 5.37817 -4.14644 0
M  V30 8879 H 868.143 6.22535 -2.06848 0
M  V30 8880 H 868.06 6.55398 -3.76815 0
M  V30 8881 H 869.328 7.26808 -2.81727 0
M  V30 8882 N 873.557 1.20646 1.01402 0
M  V30 8883 C 874.467 0.973385 2.13453 0
M  V30 8884 C 875.483 -0.0715865 1.73853 0
M  V30 8885 O 876.659 0.116438 2.01063 0
M  V30 8886 C 873.724 0.531285 3.42605 0
M  V30 8887 C 872.785 1.64741 3.96433 0
M  V30 8888 C 872.018 1.22631 5.1942 0
M  V30 8889 O 872.241 0.0960891 5.70319 0
M  V30 8890 O 871.175 2.03474 5.66465 0
M  V30 8891 H 875.001 1.91164 2.35987 0
M  V30 8892 H 872.586 0.990553 1.11841 0
M  V30 8893 H 874.468 0.294095 4.20373 0
M  V30 8894 H 873.143 -0.378358 3.21481 0
M  V30 8895 H 872.05 1.93891 3.19933 0
M  V30 8896 H 873.383 2.53415 4.2195 0
M  V30 8897 N 875.035 -1.20752 1.01276 0
M  V30 8898 C 876.312 -1.85676 0.615112 0
M  V30 8899 C 876.692 -1.90623 -0.906976 0
M  V30 8900 O 876.04 -1.41124 -1.79712 0
M  V30 8901 C 876.25 -3.2552 1.25847 0
M  V30 8902 C 877.598 -4.0184 1.37148 0
M  V30 8903 O 878.622 -3.3486 1.21438 0
M  V30 8904 O 877.481 -5.21783 1.62495 0
M  V30 8905 H 874.575 -0.799437 0.211729 0
M  V30 8906 H 877.121 -1.28372 1.10989 0
M  V30 8907 H 875.893 -3.16664 2.29869 0
M  V30 8908 H 875.516 -3.90452 0.750524 0
M  V30 8909 O 876.552 -0.924783 -1.32401 0
M  V30 8910 H 877.243 -0.545902 -1.85848 0
M  V30 END ATOM
M  V30 BEGIN BOND
M  V30 END BOND
M  V30 END CTAB
M  END
$$$$
