drugbank_target|P19938 D-alanine aminotransferase (DB02142)
 OpenBabel12092119553D

  0  0  0     0  0            999 V3000
M  V30 BEGIN CTAB
M  V30 COUNTS 4580 4627 0 0 0
M  V30 BEGIN ATOM
M  V30 1 H -0.908 1.98254 -0.117106 0
M  V30 2 N 0 1.576 0 0
M  V30 3 C 0.933 2.03868 1.02534 0
M  V30 4 C 1.911 0.928543 1.3348 0
M  V30 5 O 3.095 1.19667 1.45644 0
M  V30 6 C 0.222 2.43627 2.35294 0
M  V30 7 C -0.732 3.65373 2.2001 0
M  V30 8 S 0.101 5.13292 1.52614 0
M  V30 9 C 1.257 5.56322 2.86805 0
M  V30 10 H 1.49 2.90518 0.631377 0
M  V30 11 H -0.977 1.52953 0.210867 0
M  V30 12 H 0.981 2.67203 3.11629 0
M  V30 13 H -0.358 1.57376 2.7183 0
M  V30 14 H -1.165 3.90944 3.18086 0
M  V30 15 H -1.563 3.418 1.51819 0
M  V30 16 H 0.729 5.58782 3.83104 0
M  V30 17 H 1.672 6.56266 2.65933 0
M  V30 18 H 2.08 4.83886 2.90714 0
M  V30 19 N 1.4781 -0.272755 1.55222 0
M  V30 20 C 2.7261 -1.00234 1.75492 0
M  V30 21 C 3.0471 -1.8681 0.5592 0
M  V30 22 O 2.3171 -1.91215 -0.425882 0
M  V30 23 H 0.8971 -0.373076 0.647166 0
M  V30 24 H 3.5591 -0.296926 1.92625 0
M  V30 25 H 2.6551 -1.63913 2.65592 0
M  V30 26 N 2.9562 -1.48159 -0.537278 0
M  V30 27 C 4.1862 -1.59223 -1.3165 0
M  V30 28 C 4.5942 -0.248849 -1.87556 0
M  V30 29 O 3.9372 0.770949 -1.6674 0
M  V30 30 C 3.9992 -2.57365 -2.51005 0
M  V30 31 C 3.6632 -4.02603 -2.16239 0
M  V30 32 C 4.6602 -4.90503 -1.72344 0
M  V30 33 C 2.3452 -4.48088 -2.26986 0
M  V30 34 C 4.3392 -6.21913 -1.39651 0
M  V30 35 C 2.0262 -5.7952 -1.93906 0
M  V30 36 C 3.0242 -6.66255 -1.50309 0
M  V30 37 O 2.7122 -7.95243 -1.17659 0
M  V30 38 H 2.4442 -0.539831 -0.406889 0
M  V30 39 H 4.9982 -1.94655 -0.655641 0
M  V30 40 H 3.2282 -2.1704 -3.20048 0
M  V30 41 H 4.9172 -2.58342 -3.13072 0
M  V30 42 H 5.6832 -4.56604 -1.63517 0
M  V30 43 H 1.5622 -3.80769 -2.59877 0
M  V30 44 H 5.1062 -6.89569 -1.0555 0
M  V30 45 H 1.0032 -6.12957 -2.02371 0
M  V30 46 H 1.7712 -8.0793 -1.31119 0
M  V30 47 N 4.4343 0.785586 -1.36625 0
M  V30 48 C 5.6623 1.57448 -1.3423 0
M  V30 49 C 6.0773 1.88649 0.0755653 0
M  V30 50 O 5.4343 1.50414 1.03354 0
M  V30 51 C 5.4853 2.89316 -2.16745 0
M  V30 52 O 5.2063 2.59459 -3.53005 0
M  V30 53 C 6.7073 3.83606 -2.22174 0
M  V30 54 H 3.9273 0.488226 -0.4603 0
M  V30 55 H 6.4713 0.974733 -1.79775 0
M  V30 56 H 4.6263 3.4575 -1.74745 0
M  V30 57 H 5.0403 3.43804 -3.96105 0
M  V30 58 H 6.5143 4.73181 -2.8426 0
M  V30 59 H 6.9913 4.21734 -1.22627 0
M  V30 60 H 7.5973 3.33104 -2.64427 0
M  V30 61 N 5.9124 1.20967 1.01018 0
M  V30 62 C 6.8424 0.988272 2.11555 0
M  V30 63 C 7.8234 -0.0849778 1.69888 0
M  V30 64 O 9.0084 0.0738202 1.9406 0
M  V30 65 C 6.1384 0.546528 3.42973 0
M  V30 66 C 5.0924 1.56375 3.9841 0
M  V30 67 C 4.4184 0.97842 5.25672 0
M  V30 68 C 5.7184 2.94922 4.31066 0
M  V30 69 H 7.4124 1.91276 2.30334 0
M  V30 70 H 4.9584 0.921073 1.1069 0
M  V30 71 H 6.9114 0.378839 4.19694 0
M  V30 72 H 5.6354 -0.413598 3.23971 0
M  V30 73 H 4.2944 1.71891 3.23804 0
M  V30 74 H 3.9424 0.0101688 5.02999 0
M  V30 75 H 3.6424 1.65784 5.63728 0
M  V30 76 H 5.1664 0.821939 6.05043 0
M  V30 77 H 6.5804 2.8288 4.9865 0
M  V30 78 H 4.9774 3.5983 4.80253 0
M  V30 79 H 6.0474 3.4616 3.39561 0
M  V30 80 N 7.3905 -1.2043 1.01659 0
M  V30 81 C 8.6365 -1.90356 0.716674 0
M  V30 82 C 8.9915 -1.77367 -0.745557 0
M  V30 83 O 8.2845 -1.1471 -1.53467 0
M  V30 84 C 8.4785 -3.40464 1.08714 0
M  V30 85 C 8.3075 -3.6806 2.58384 0
M  V30 86 C 7.0775 -3.86775 3.25167 0
M  V30 87 C 9.2755 -3.70623 3.56572 0
M  V30 88 N 7.2575 -4.01889 4.64067 0
M  V30 89 C 8.6285 -3.91161 4.81034 0
M  V30 90 C 10.6835 -3.53586 3.50544 0
M  V30 91 C 9.3865 -3.96428 6.00198 0
M  V30 92 C 11.4125 -3.60125 4.6911 0
M  V30 93 C 10.7745 -3.81135 5.92381 0
M  V30 94 H 6.8735 -0.716226 0.313918 0
M  V30 95 H 9.4575 -1.44815 1.30141 0
M  V30 96 H 7.6285 -3.84757 0.530745 0
M  V30 97 H 9.3605 -3.97863 0.740763 0
M  V30 98 H 6.1155 -3.85156 2.75594 0
M  V30 99 H 6.5395 -4.13323 5.36184 0
M  V30 100 H 11.1815 -3.36308 2.56235 0
M  V30 101 H 8.8995 -4.12502 6.94887 0
M  V30 102 H 12.4855 -3.4825 4.66062 0
M  V30 103 H 11.3655 -3.86054 6.82592 0
M  V30 104 N 8.8686 -0.792821 -1.36206 0
M  V30 105 C 9.8166 -0.181555 -2.3189 0
M  V30 106 C 10.8106 0.661025 -1.55971 0
M  V30 107 O 12.0166 0.555728 -1.71206 0
M  V30 108 H 8.3916 -0.0399382 -0.750939 0
M  V30 109 H 10.3626 -1.00394 -2.81005 0
M  V30 110 C 9.1116 0.666444 -3.41253 0
M  V30 111 H 8.4346 0.0274489 -3.99791 0
M  V30 112 H 9.8746 1.06076 -4.10517 0
M  V30 113 C 8.3336 1.82614 -2.83114 0
M  V30 114 O 8.8636 2.9229 -2.75553 0
M  V30 115 N 7.0696 1.63333 -2.40356 0
M  V30 116 H 6.6166 0.741217 -2.46706 0
M  V30 117 H 6.5746 2.41087 -2.01803 0
M  V30 118 N 10.3467 1.47872 -0.545128 0
M  V30 119 C 11.6237 1.9554 0.0485222 0
M  V30 120 C 12.0037 1.4876 1.49779 0
M  V30 121 O 11.3517 0.720925 2.16829 0
M  V30 122 C 11.5617 3.48898 -0.084417 0
M  V30 123 C 12.9097 4.24547 0.0671239 0
M  V30 124 O 13.9337 3.56198 -0.0113649 0
M  V30 125 O 12.7927 5.45999 0.233882 0
M  V30 126 H 9.8867 0.823957 0.0708773 0
M  V30 127 H 12.4327 1.58327 -0.610798 0
M  V30 128 H 11.2047 3.75714 -1.09337 0
M  V30 129 H 10.8277 3.92845 0.613066 0
M  V30 130 N 11.8248 0.280983 1.55075 0
M  V30 131 C 12.7568 -0.637268 2.20163 0
M  V30 132 C 13.7698 -1.11298 1.18813 0
M  V30 133 O 14.9588 -1.03388 1.4551 0
M  V30 134 C 12.0588 -1.88199 2.81841 0
M  V30 135 C 11.2318 -1.55211 4.08936 0
M  V30 136 C 10.2908 -2.64991 4.54606 0
M  V30 137 O 9.3168 -2.30929 5.2025 0
M  V30 138 N 10.5188 -3.95161 4.25238 0
M  V30 139 H 13.2838 -0.0801694 2.99593 0
M  V30 140 H 10.8448 0.102329 1.61576 0
M  V30 141 H 12.8368 -2.60948 3.09335 0
M  V30 142 H 11.4068 -2.34799 2.06369 0
M  V30 143 H 10.6268 -0.658185 3.88666 0
M  V30 144 H 11.9148 -1.30681 4.91732 0
M  V30 145 H 11.3128 -4.25653 3.72607 0
M  V30 146 H 9.8698 -4.6427 4.5749 0
M  V30 147 N 13.3029 -1.57598 0.00835791 0
M  V30 148 C 14.5519 -1.90107 -0.673968 0
M  V30 149 C 14.8649 -0.884275 -1.7447 0
M  V30 150 O 16.0709 -1.09987 -2.48224 0
M  V30 151 C 14.5269 -3.37497 -1.24995 0
M  V30 152 C 14.1349 -4.47491 -0.2136 0
M  V30 153 C 15.8789 -3.79104 -1.90999 0
M  V30 154 C 13.7859 -5.85963 -0.80005 0
M  V30 155 H 12.7159 -0.709393 -0.255495 0
M  V30 156 H 15.3669 -1.83365 0.0702693 0
M  V30 157 H 13.7489 -3.39102 -2.04513 0
M  V30 158 H 14.9229 -4.57414 0.557596 0
M  V30 159 H 13.2379 -4.14956 0.346474 0
M  V30 160 H 15.8349 -4.79901 -2.35795 0
M  V30 161 H 16.1779 -3.1306 -2.74407 0
M  V30 162 H 16.7109 -3.79833 -1.18203 0
M  V30 163 H 13.4499 -6.555 -0.00456708 0
M  V30 164 H 12.9699 -5.79687 -1.54021 0
M  V30 165 H 14.6489 -6.33884 -1.29615 0
M  V30 166 N 14.781 0.264519 -1.55364 0
M  V30 167 C 16.027 0.99646 -1.76631 0
M  V30 168 C 16.36 1.85632 -0.570478 0
M  V30 169 O 15.635 1.89647 0.43175 0
M  V30 170 C 15.918 1.87187 -3.07625 0
M  V30 171 C 15.771 1.04138 -4.37579 0
M  V30 172 C 17.09 2.85749 -3.34717 0
M  V30 173 H 14.209 0.360841 -0.642622 0
M  V30 174 H 16.851 0.268218 -1.88097 0
M  V30 175 H 15.001 2.49279 -2.9798 0
M  V30 176 H 16.673 0.440517 -4.59192 0
M  V30 177 H 14.916 0.345115 -4.32425 0
M  V30 178 H 15.587 1.68729 -5.2558 0
M  V30 179 H 18.063 2.33793 -3.4421 0
M  V30 180 H 16.939 3.44136 -4.27623 0
M  V30 181 H 17.2 3.61311 -2.54768 0
M  V30 182 N 16.2591 1.48442 0.529413 0
M  V30 183 C 17.2061 1.63007 1.63394 0
M  V30 184 C 18.1761 0.47212 1.59249 0
M  V30 185 O 19.3611 0.695673 1.77666 0
M  V30 186 C 16.5011 1.6763 3.01653 0
M  V30 187 C 15.6141 2.94535 3.16027 0
M  V30 188 C 14.7491 2.90316 4.44849 0
M  V30 189 C 13.7881 4.11923 4.52754 0
M  V30 190 N 12.9251 4.05777 5.72965 0
M  V30 191 H 17.7651 2.5733 1.50285 0
M  V30 192 H 15.3021 1.27613 0.731656 0
M  V30 193 H 17.2601 1.68292 3.81751 0
M  V30 194 H 15.8901 0.76797 3.13532 0
M  V30 195 H 14.9421 3.03615 2.29177 0
M  V30 196 H 16.2541 3.84512 3.17729 0
M  V30 197 H 15.4081 2.89382 5.33238 0
M  V30 198 H 14.1471 1.98068 4.45668 0
M  V30 199 H 13.1521 4.13131 3.62771 0
M  V30 200 H 14.3771 5.0533 4.53672 0
M  V30 201 H 12.3231 3.16351 5.74681 0
M  V30 202 H 12.2401 4.8946 5.76164 0
M  V30 203 H 13.5081 4.08904 6.6364 0
M  V30 204 N 17.7372 -0.778329 1.37039 0
M  V30 205 C 19.0142 -1.52551 1.22424 0
M  V30 206 C 19.3942 -2.10288 -0.184964 0
M  V30 207 O 18.7422 -1.94953 -1.19187 0
M  V30 208 C 18.9522 -2.61164 2.31504 0
M  V30 209 C 20.3002 -3.28746 2.68721 0
M  V30 210 O 21.3242 -2.71455 2.30631 0
M  V30 211 O 20.1832 -4.3231 3.3432 0
M  V30 212 H 17.2772 -0.675343 0.477326 0
M  V30 213 H 19.8232 -0.815859 1.48801 0
M  V30 214 H 18.5952 -2.16574 3.25901 0
M  V30 215 H 18.2182 -3.39737 2.06554 0
M  V30 216 N 19.2153 -1.21501 -1.00376 0
M  V30 217 C 20.1253 -0.991447 -2.12621 0
M  V30 218 C 21.1413 0.0568446 -1.73907 0
M  V30 219 O 22.3173 -0.13348 -2.00957 0
M  V30 220 C 19.3823 -0.560312 -3.42142 0
M  V30 221 C 18.4433 -1.68096 -3.95022 0
M  V30 222 C 17.6763 -1.2703 -5.18362 0
M  V30 223 O 17.8993 -0.144438 -5.70217 0
M  V30 224 O 16.8333 -2.08269 -5.64719 0
M  V30 225 H 20.6593 -1.93158 -2.34358 0
M  V30 226 H 18.2443 -0.999999 -1.10997 0
M  V30 227 H 20.1263 -0.329724 -4.20108 0
M  V30 228 H 18.8013 0.351089 -3.2179 0
M  V30 229 H 17.7083 -1.96597 -3.18278 0
M  V30 230 H 19.0413 -2.56983 -4.19786 0
M  V30 231 N 20.6934 1.19889 -1.02296 0
M  V30 232 C 21.6034 2.26571 -0.608508 0
M  V30 233 C 22.6194 1.70299 0.356964 0
M  V30 234 O 23.7954 2.00235 0.216326 0
M  V30 235 C 20.8604 3.46677 0.0402814 0
M  V30 236 C 19.9214 4.18153 -0.97194 0
M  V30 237 C 19.1544 5.32525 -0.354016 0
M  V30 238 O 19.3774 5.64112 0.844604 0
M  V30 239 O 18.3114 5.92242 -1.07391 0
M  V30 240 H 22.1374 2.64251 -1.49684 0
M  V30 241 H 19.7224 1.26629 -0.792809 0
M  V30 242 H 21.6044 4.19475 0.402324 0
M  V30 243 H 20.2794 3.10858 0.902707 0
M  V30 244 H 19.1864 3.47499 -1.38546 0
M  V30 245 H 20.5194 4.57927 -1.80454 0
M  V30 246 N 22.1715 0.800033 1.35784 0
M  V30 247 C 23.4175 0.377901 1.99248 0
M  V30 248 C 23.7505 -1.05052 1.63333 0
M  V30 249 O 23.0255 -1.72768 0.893385 0
M  V30 250 C 23.3085 0.553922 3.55814 0
M  V30 251 C 23.1615 2.0268 4.01548 0
M  V30 252 C 24.4805 -0.0244802 4.40093 0
M  V30 253 H 21.5995 0.138782 0.723815 0
M  V30 254 H 24.2415 1.00835 1.61035 0
M  V30 255 H 22.3915 0.0172398 3.88496 0
M  V30 256 H 24.0635 2.62536 3.79305 0
M  V30 257 H 22.3065 2.5256 3.52698 0
M  V30 258 H 22.9775 2.10087 5.10458 0
M  V30 259 H 25.4535 0.433775 4.13833 0
M  V30 260 H 24.3295 0.128637 5.48749 0
M  V30 261 H 24.5905 -1.11758 4.27741 0
M  V30 262 N 23.6496 -1.47581 0.552962 0
M  V30 263 C 24.5966 -2.29957 -0.197108 0
M  V30 264 C 25.5666 -1.38799 -0.912359 0
M  V30 265 O 26.7516 -1.67761 -0.908888 0
M  V30 266 C 23.8916 -3.22672 -1.22379 0
M  V30 267 C 23.0046 -4.28919 -0.515038 0
M  V30 268 C 22.1396 -5.0879 -1.52664 0
M  V30 269 C 21.1786 -6.06815 -0.802631 0
M  V30 270 N 20.3156 -6.7966 -1.76086 0
M  V30 271 H 25.1556 -2.93578 0.511486 0
M  V30 272 H 22.6926 -1.4471 0.264067 0
M  V30 273 H 24.6506 -3.74845 -1.83159 0
M  V30 274 H 23.2806 -2.60925 -1.90047 0
M  V30 275 H 22.3326 -3.79835 0.207192 0
M  V30 276 H 23.6446 -4.98773 0.0523425 0
M  V30 277 H 22.7986 -5.65091 -2.20809 0
M  V30 278 H 21.5376 -4.38828 -2.12794 0
M  V30 279 H 20.5426 -5.49695 -0.107238 0
M  V30 280 H 21.7676 -6.78784 -0.207135 0
M  V30 281 H 19.7136 -6.12432 -2.35081 0
M  V30 282 H 19.6306 -7.45669 -1.24552 0
M  V30 283 H 20.8986 -7.40538 -2.43359 0
M  V30 284 N 25.1277 -0.289203 -1.54924 0
M  V30 285 C 26.3767 0.324231 -1.99077 0
M  V30 286 C 26.6897 1.5591 -1.18117 0
M  V30 287 O 27.8957 2.24637 -1.52481 0
M  V30 288 C 26.3517 0.628209 -3.54375 0
M  V30 289 C 25.9597 -0.587647 -4.44129 0
M  V30 290 C 27.7037 1.20349 -4.07083 0
M  V30 291 C 25.6107 -0.257475 -5.90839 0
M  V30 292 H 24.5407 0.124924 -0.743579 0
M  V30 293 H 27.1917 -0.396063 -1.79175 0
M  V30 294 H 25.5737 1.40778 -3.70132 0
M  V30 295 H 26.7477 -1.36418 -4.40144 0
M  V30 296 H 25.0627 -1.08074 -4.0213 0
M  V30 297 H 27.6597 1.46456 -5.14252 0
M  V30 298 H 28.0027 2.14195 -3.56968 0
M  V30 299 H 28.5357 0.485889 -3.94821 0
M  V30 300 H 25.2747 -1.16419 -6.45079 0
M  V30 301 H 24.7947 0.482018 -5.9786 0
M  V30 302 H 26.4737 0.145238 -6.46837 0
M  V30 303 N 26.6058 1.57591 -0.0167156 0
M  V30 304 C 27.8828 1.82547 0.702564 0
M  V30 305 C 28.2628 0.898018 1.91047 0
M  V30 306 O 27.6108 -0.0493456 2.28447 0
M  V30 307 C 27.8208 3.31459 1.09251 0
M  V30 308 C 29.1688 3.97622 1.48937 0
M  V30 309 O 30.1928 3.35881 1.18584 0
M  V30 310 O 29.0518 5.06415 2.05442 0
M  V30 311 H 26.1458 0.752268 0.343544 0
M  V30 312 H 28.6918 1.69644 -0.0434495 0
M  V30 313 H 27.4638 3.9061 0.23227 0
M  V30 314 H 27.0868 3.49422 1.89709 0
M  V30 315 N 28.0839 -0.256276 1.55502 0
M  V30 316 C 29.0309 -1.31714 1.89526 0
M  V30 317 C 30.0009 -1.4828 0.748479 0
M  V30 318 O 31.1859 -1.62416 1.00128 0
M  V30 319 C 28.3259 -2.66933 2.18725 0
M  V30 320 C 27.4389 -2.58452 3.4616 0
M  V30 321 C 26.5739 -3.85961 3.64976 0
M  V30 322 C 25.6129 -3.72059 4.86044 0
M  V30 323 N 24.7499 -4.9144 5.01429 0
M  V30 324 H 29.5899 -1.01998 2.80001 0
M  V30 325 H 27.1269 -0.492413 1.38613 0
M  V30 326 H 29.0849 -3.4563 2.33657 0
M  V30 327 H 27.7149 -2.94816 1.31466 0
M  V30 328 H 26.7669 -1.71374 3.3961 0
M  V30 329 H 28.0789 -2.44085 4.34999 0
M  V30 330 H 27.2329 -4.73101 3.79816 0
M  V30 331 H 25.9719 -4.03215 2.74353 0
M  V30 332 H 24.9769 -2.83302 4.7119 0
M  V30 333 H 26.2019 -3.56309 5.78118 0
M  V30 334 H 24.1479 -5.09072 4.13741 0
M  V30 335 H 24.0649 -4.79668 5.84341 0
M  V30 336 H 25.3329 -5.80104 5.20672 0
M  V30 337 N 29.562 -1.4872 -0.521534 0
M  V30 338 C 30.472 -1.66569 -1.65203 0
M  V30 339 C 31.488 -0.548197 -1.65139 0
M  V30 340 O 32.664 -0.820339 -1.83936 0
M  V30 341 C 29.729 -1.70917 -3.01642 0
M  V30 342 C 28.79 -2.94356 -3.12495 0
M  V30 343 C 28.023 -2.98487 -4.42426 0
M  V30 344 O 28.246 -2.10786 -5.30024 0
M  V30 345 O 27.18 -3.90746 -4.57822 0
M  V30 346 H 31.006 -2.62298 -1.5308 0
M  V30 347 H 28.591 -1.3222 -0.695565 0
M  V30 348 H 30.473 -1.7625 -3.82771 0
M  V30 349 H 29.148 -0.783633 -3.14071 0
M  V30 350 H 28.055 -2.94552 -2.3063 0
M  V30 351 H 29.388 -3.86322 -3.04986 0
M  V30 352 N 31.0401 0.771051 -1.3745 0
M  V30 353 C 32.3171 1.519 -1.23231 0
M  V30 354 C 32.6971 2.10383 0.173809 0
M  V30 355 O 32.0451 1.95583 1.18151 0
M  V30 356 C 32.2551 2.59933 -2.32886 0
M  V30 357 C 33.6031 3.27316 -2.70461 0
M  V30 358 O 34.6271 2.70228 -2.32068 0
M  V30 359 O 33.4861 4.30531 -3.36608 0
M  V30 360 H 30.5801 0.672803 -0.480901 0
M  V30 361 H 33.1261 0.807957 -1.49232 0
M  V30 362 H 31.8981 2.14842 -3.27045 0
M  V30 363 H 31.5211 3.38637 -2.08353 0
M  V30 364 N 32.5182 1.22032 0.997298 0
M  V30 365 C 33.9342 0.979326 1.26021 0
M  V30 366 C 34.1342 -0.32972 1.98784 0
M  V30 367 O 33.1902 -1.05345 2.29475 0
M  V30 368 C 34.5032 2.17509 2.07631 0
M  V30 369 C 36.0512 2.21817 2.2083 0
M  V30 370 C 36.5262 3.40933 3.05825 0
M  V30 371 N 38.0172 3.41067 3.13412 0
M  V30 372 C 38.7522 4.29885 3.79455 0
M  V30 373 N 38.2482 5.28914 4.47462 0
M  V30 374 N 40.0412 4.17673 3.76173 0
M  V30 375 H 32.1922 2.06202 0.509352 0
M  V30 376 H 34.4552 0.90334 0.287541 0
M  V30 377 H 34.1612 3.12415 1.61524 0
M  V30 378 H 34.0352 2.17206 3.08385 0
M  V30 379 H 36.4222 1.27462 2.66153 0
M  V30 380 H 36.5032 2.2616 1.1952 0
M  V30 381 H 36.1472 4.35586 2.61203 0
M  V30 382 H 36.0772 3.33829 4.07266 0
M  V30 383 H 38.5682 2.69406 2.65007 0
M  V30 384 H 38.8812 5.92973 4.95583 0
M  V30 385 H 37.2262 5.32831 4.46224 0
M  V30 386 H 40.4172 3.39564 3.22202 0
M  V30 387 H 40.5902 4.87098 4.27363 0
M  V30 388 N 33.9963 -1.19345 1.0293 0
M  V30 389 C 35.2443 -1.88665 0.724574 0
M  V30 390 C 35.5653 -1.80036 -0.749144 0
M  V30 391 O 34.8353 -1.2111 -1.53978 0
M  V30 392 H 33.4153 -0.698406 0.265025 0
M  V30 393 H 36.0773 -1.44885 1.30362 0
M  V30 394 H 35.1733 -2.94987 1.01926 0
M  V30 395 N 35.4744 -0.807222 -1.35358 0
M  V30 396 C 36.7044 -0.399796 -2.02695 0
M  V30 397 C 37.1124 0.994176 -1.60974 0
M  V30 398 O 36.4554 1.65209 -0.803226 0
M  V30 399 C 36.5174 -0.404445 -3.57218 0
M  V30 400 C 36.1814 -1.74904 -4.22206 0
M  V30 401 C 37.1784 -2.70743 -4.4384 0
M  V30 402 C 34.8634 -2.03322 -4.5931 0
M  V30 403 C 36.8574 -3.93183 -5.01683 0
M  V30 404 C 34.5444 -3.26026 -5.16866 0
M  V30 405 C 35.5424 -4.20774 -5.37994 0
M  V30 406 O 35.2304 -5.41312 -5.94337 0
M  V30 407 H 34.9624 -0.160517 -0.656666 0
M  V30 408 H 37.5164 -1.09235 -1.73945 0
M  V30 409 H 35.7464 0.344707 -3.85161 0
M  V30 410 H 37.4354 -0.0192429 -4.05895 0
M  V30 411 H 38.2014 -2.5008 -4.15554 0
M  V30 412 H 34.0804 -1.30384 -4.42178 0
M  V30 413 H 37.6244 -4.6715 -5.1809 0
M  V30 414 H 33.5214 -3.46559 -5.44579 0
M  V30 415 H 34.2894 -5.42618 -6.12787 0
M  V30 416 N 36.9525 1.47285 -0.560781 0
M  V30 417 C 37.8845 2.28118 0.222438 0
M  V30 418 C 38.8975 1.37219 0.876056 0
M  V30 419 O 40.0865 1.62011 0.749307 0
M  V30 420 C 37.1865 3.1159 1.33285 0
M  V30 421 C 36.3595 4.30473 0.77534 0
M  V30 422 C 35.4185 4.95513 1.77069 0
M  V30 423 O 34.4445 5.53792 1.31539 0
M  V30 424 N 35.6465 4.90531 3.10418 0
M  V30 425 H 38.4115 2.95976 -0.470958 0
M  V30 426 H 35.9725 1.56955 -0.39709 0
M  V30 427 H 37.9645 3.51967 1.99752 0
M  V30 428 H 36.5345 2.45951 1.92943 0
M  V30 429 H 35.7545 3.94144 -0.0662113 0
M  V30 430 H 37.0425 5.07362 0.382272 0
M  V30 431 H 36.4405 4.44389 3.5005 0
M  V30 432 H 34.9975 5.34917 3.72434 0
M  V30 433 N 38.4306 0.297415 1.54768 0
M  V30 434 C 39.6776 -0.312913 2.00068 0
M  V30 435 C 40.0056 -1.54171 1.18582 0
M  V30 436 O 39.2606 -1.94108 0.249133 0
M  V30 437 C 39.5596 -0.717561 3.50123 0
M  V30 438 C 39.2256 0.409095 4.4904 0
M  V30 439 C 37.8876 0.718399 4.75807 0
M  V30 440 C 40.2396 1.16717 5.07963 0
M  V30 441 C 37.5676 1.78896 5.5876 0
M  V30 442 C 39.9196 2.22762 5.92081 0
M  V30 443 C 38.5836 2.54303 6.1716 0
M  V30 444 H 37.8536 -0.114503 0.7321 0
M  V30 445 H 40.5006 0.415767 1.86932 0
M  V30 446 H 38.8056 -1.52627 3.60849 0
M  V30 447 H 40.5026 -1.20091 3.82595 0
M  V30 448 H 37.0926 0.157918 4.28309 0
M  V30 449 H 41.2766 0.941466 4.87289 0
M  V30 450 H 36.5326 2.0381 5.7643 0
M  V30 451 H 40.7066 2.81962 6.36765 0
M  V30 452 H 38.3336 3.3739 6.81229 0
M  V30 453 N 39.9087 -1.5758 0.0250728 0
M  V30 454 C 41.1567 -1.91255 -0.653151 0
M  V30 455 C 41.4777 -0.901691 -1.729 0
M  V30 456 O 40.7477 0.0573785 -1.95816 0
M  V30 457 H 39.3277 -0.705942 -0.244243 0
M  V30 458 H 41.9897 -1.94767 0.0719209 0
M  V30 459 H 41.0857 -2.91752 -1.10847 0
M  V30 460 N 41.3868 0.248026 -1.55636 0
M  V30 461 C 42.6638 0.998988 -1.68165 0
M  V30 462 C 43.0438 2.03409 -0.564621 0
M  V30 463 O 42.3918 2.24378 0.432076 0
M  V30 464 C 42.6018 1.63334 -3.0842 0
M  V30 465 C 43.9498 2.13562 -3.66983 0
M  V30 466 O 44.9738 1.73277 -3.11213 0
M  V30 467 O 43.8328 2.87526 -4.64749 0
M  V30 468 H 40.9268 0.464933 -0.683935 0
M  V30 469 H 43.4728 0.241902 -1.67967 0
M  V30 470 H 42.2448 0.884583 -3.8117 0
M  V30 471 H 41.8678 2.45666 -3.12624 0
M  V30 472 N 42.8649 1.48995 0.513639 0
M  V30 473 C 44.1129 1.57531 1.26604 0
M  V30 474 C 44.4339 0.258236 1.93283 0
M  V30 475 O 43.7039 -0.721502 1.8213 0
M  V30 476 H 42.2839 0.580387 0.470276 0
M  V30 477 H 44.9459 1.85552 0.596373 0
M  V30 478 H 44.0419 2.36486 2.03669 0
M  V30 479 N 44.343 -0.763751 1.37857 0
M  V30 480 C 45.589 -1.52483 1.33704 0
M  V30 481 C 45.922 -1.94051 -0.0759612 0
M  V30 482 O 45.197 -1.64675 -1.03501 0
M  V30 483 C 45.48 -2.78441 2.28348 0
M  V30 484 C 45.333 -2.43075 3.78463 0
M  V30 485 C 46.652 -3.80415 2.21298 0
M  V30 486 H 43.771 -0.553169 0.487005 0
M  V30 487 H 46.413 -0.875562 1.68624 0
M  V30 488 H 44.563 -3.33842 1.987 0
M  V30 489 H 46.235 -1.93527 4.18742 0
M  V30 490 H 44.478 -1.75666 3.96641 0
M  V30 491 H 45.149 -3.33149 4.40132 0
M  V30 492 H 47.625 -3.34527 2.47449 0
M  V30 493 H 46.501 -4.66257 2.89647 0
M  V30 494 H 46.762 -4.25262 1.20849 0
M  V30 495 N 45.8211 -1.22559 -0.990812 0
M  V30 496 C 47.0511 -1.07623 -1.76355 0
M  V30 497 C 47.4591 0.37601 -1.85426 0
M  V30 498 O 46.8021 1.27228 -1.32509 0
M  V30 499 C 46.8641 -1.61507 -3.21179 0
M  V30 500 C 46.5281 -3.10146 -3.35646 0
M  V30 501 C 47.5251 -4.07553 -3.22796 0
M  V30 502 C 45.2101 -3.49644 -3.60631 0
M  V30 503 C 47.2041 -5.42442 -3.34716 0
M  V30 504 C 44.8911 -4.84682 -3.72192 0
M  V30 505 C 45.8891 -5.8089 -3.59243 0
M  V30 506 O 45.5771 -7.13476 -3.70415 0
M  V30 507 H 45.3091 -0.377745 -0.560611 0
M  V30 508 H 47.8631 -1.62658 -1.25425 0
M  V30 509 H 46.0931 -1.00881 -3.73309 0
M  V30 510 H 47.7821 -1.42202 -3.80175 0
M  V30 511 H 48.5481 -3.78381 -3.03403 0
M  V30 512 H 44.4271 -2.75282 -3.69785 0
M  V30 513 H 47.9711 -6.17518 -3.24526 0
M  V30 514 H 43.8681 -5.13534 -3.91092 0
M  V30 515 H 44.6361 -7.21083 -3.87275 0
M  V30 516 N 47.2992 1.18797 -1.03562 0
M  V30 517 C 48.2092 2.25913 -0.632505 0
M  V30 518 C 49.2252 1.70668 0.338882 0
M  V30 519 O 50.4012 2.00453 0.195076 0
M  V30 520 C 47.4662 3.467 0.00350942 0
M  V30 521 C 46.5272 4.17098 -1.01624 0
M  V30 522 C 45.7602 5.32119 -0.410478 0
M  V30 523 O 45.9832 5.64976 0.784725 0
M  V30 524 O 44.9172 5.9107 -1.13667 0
M  V30 525 H 48.7432 2.62648 -1.52478 0
M  V30 526 H 46.3282 1.25781 -0.806195 0
M  V30 527 H 48.2102 4.19878 0.35781 0
M  V30 528 H 46.8852 3.11798 0.869686 0
M  V30 529 H 45.7922 3.4601 -1.42224 0
M  V30 530 H 47.1252 4.55987 -1.85301 0
M  V30 531 N 48.7773 0.814389 1.34928 0
M  V30 532 C 50.0233 0.399013 1.98836 0
M  V30 533 C 50.3563 -1.03314 1.64438 0
M  V30 534 O 49.6313 -1.71811 0.911659 0
M  V30 535 C 49.9143 0.591629 3.55207 0
M  V30 536 C 49.7673 2.06928 3.99376 0
M  V30 537 C 51.0863 0.022199 4.40094 0
M  V30 538 H 48.2053 0.146451 0.722303 0
M  V30 539 H 50.8473 1.02537 1.59957 0
M  V30 540 H 48.9973 0.0584441 3.88456 0
M  V30 541 H 50.6693 2.66544 3.76499 0
M  V30 542 H 48.9123 2.56287 3.49999 0
M  V30 543 H 49.5833 2.1549 5.08201 0
M  V30 544 H 52.0593 0.477643 4.13349 0
M  V30 545 H 50.9353 0.186832 5.48582 0
M  V30 546 H 51.1963 -1.07215 4.28902 0
M  V30 547 N 50.2554 -1.46986 0.568584 0
M  V30 548 C 51.5014 -2.02741 0.0488709 0
M  V30 549 C 51.8344 -1.44077 -1.30214 0
M  V30 550 O 51.1094 -0.600552 -1.84996 0
M  V30 551 C 51.3924 -3.60086 -0.032047 0
M  V30 552 C 51.2454 -4.29162 1.34686 0
M  V30 553 C 52.5644 -4.33838 -0.739798 0
M  V30 554 H 49.6834 -0.736749 0.0192338 0
M  V30 555 H 52.3254 -1.75289 0.733065 0
M  V30 556 H 50.4754 -3.83606 -0.61473 0
M  V30 557 H 52.1474 -4.16948 1.97362 0
M  V30 558 H 50.3904 -3.89073 1.91846 0
M  V30 559 H 51.0614 -5.37826 1.24285 0
M  V30 560 H 53.5374 -4.15378 -0.244939 0
M  V30 561 H 52.4134 -5.43537 -0.765406 0
M  V30 562 H 52.6744 -4.03875 -1.79827 0
M  V30 563 N 51.7335 -0.305618 -1.54608 0
M  V30 564 C 52.6805 0.568421 -2.23691 0
M  V30 565 C 53.6505 1.12592 -1.22116 0
M  V30 566 O 54.8355 1.16959 -1.50749 0
M  V30 567 C 51.9755 1.7322 -2.98477 0
M  V30 568 C 51.0885 1.20566 -4.14835 0
M  V30 569 C 50.2235 2.33368 -4.77193 0
M  V30 570 C 49.2625 1.7787 -5.85686 0
M  V30 571 N 48.3995 2.84263 -6.4198 0
M  V30 572 H 53.2395 -0.0272867 -2.97988 0
M  V30 573 H 50.7765 -0.0252363 -1.47078 0
M  V30 574 H 52.7345 2.41675 -3.40072 0
M  V30 575 H 51.3645 2.29947 -2.26548 0
M  V30 576 H 50.4165 0.413223 -3.78149 0
M  V30 577 H 51.7285 0.759417 -4.92985 0
M  V30 578 H 50.8825 3.09761 -5.21664 0
M  V30 579 H 49.6215 2.8132 -3.98385 0
M  V30 580 H 48.6265 0.99968 -5.40635 0
M  V30 581 H 49.8515 1.30816 -6.66381 0
M  V30 582 H 47.7975 3.31541 -5.66053 0
M  V30 583 H 47.7145 2.44149 -7.15491 0
M  V30 584 H 48.9825 3.6054 -6.91109 0
M  V30 585 N 53.2116 1.57565 -0.0334293 0
M  V30 586 C 54.4576 1.92262 0.645226 0
M  V30 587 C 54.7906 0.910543 1.71531 0
M  V30 588 O 54.0656 -0.066099 1.94388 0
M  V30 589 C 54.3486 3.37422 1.2577 0
M  V30 590 C 54.2016 4.49369 0.196891 0
M  V30 591 C 55.5206 3.82628 2.17449 0
M  V30 592 H 52.6396 0.699171 0.233085 0
M  V30 593 H 55.2816 1.89779 -0.0915694 0
M  V30 594 H 53.4316 3.39669 1.88566 0
M  V30 595 H 55.1036 4.59254 -0.433962 0
M  V30 596 H 53.3466 4.31168 -0.477137 0
M  V30 597 H 54.0176 5.47978 0.665124 0
M  V30 598 H 56.4936 3.82145 1.64634 0
M  V30 599 H 55.3696 4.84883 2.57254 0
M  V30 600 H 55.6306 3.18376 3.0674 0
M  V30 601 N 54.6897 -0.239769 1.55765 0
M  V30 602 C 55.9197 -0.982743 1.8173 0
M  V30 603 C 56.3277 -1.7917 0.607835 0
M  V30 604 O 55.6707 -1.78525 -0.432973 0
M  V30 605 C 55.7327 -1.96332 3.01155 0
M  V30 606 C 55.3967 -1.34062 4.36894 0
M  V30 607 C 56.3937 -0.739539 5.14613 0
M  V30 608 C 54.0787 -1.35784 4.83599 0
M  V30 609 C 56.0727 -0.163989 6.37189 0
M  V30 610 C 53.7597 -0.778441 6.06122 0
M  V30 611 C 54.7577 -0.182548 6.82756 0
M  V30 612 O 54.4457 0.387887 8.02964 0
M  V30 613 H 54.1777 -0.294481 0.608487 0
M  V30 614 H 56.7317 -0.26572 2.03674 0
M  V30 615 H 54.9617 -2.71884 2.74984 0
M  V30 616 H 56.6507 -2.57032 3.14149 0
M  V30 617 H 57.4167 -0.718687 4.79646 0
M  V30 618 H 53.2957 -1.81105 4.23936 0
M  V30 619 H 56.8397 0.301753 6.96947 0
M  V30 620 H 52.7367 -0.796645 6.40565 0
M  V30 621 H 53.5047 0.28044 8.18019 0
M  V30 622 N 56.1678 -1.49265 -0.50573 0
M  V30 623 C 57.1158 -1.66065 -1.62866 0
M  V30 624 C 58.1098 -0.526636 -1.61006 0
M  V30 625 O 59.3158 -0.706126 -1.65571 0
M  V30 626 H 55.6908 -0.52356 -0.539805 0
M  V30 627 H 57.6618 -2.60329 -1.45848 0
M  V30 628 C 56.4108 -1.74008 -3.01026 0
M  V30 629 H 55.7338 -2.6064 -3.03161 0
M  V30 630 H 57.1738 -1.89798 -3.79147 0
M  V30 631 C 55.6328 -0.483868 -3.33407 0
M  V30 632 O 56.1628 0.392548 -3.99777 0
M  V30 633 N 54.3688 -0.348236 -2.88506 0
M  V30 634 H 53.9158 -1.06242 -2.34671 0
M  V30 635 H 53.8738 0.491204 -3.10539 0
M  V30 636 N 57.6459 0.756429 -1.3826 0
M  V30 637 C 58.8939 1.51248 -1.34047 0
M  V30 638 C 59.2149 1.94875 0.0698372 0
M  V30 639 O 58.4849 1.67436 1.01696 0
M  V30 640 H 57.0649 0.561018 -0.493222 0
M  V30 641 H 59.7269 0.899347 -1.7291 0
M  V30 642 H 58.8229 2.40472 -1.98947 0
M  V30 643 N 59.124 1.23083 0.984299 0
M  V30 644 C 60.034 1.02515 2.11016 0
M  V30 645 C 61.05 -0.0291702 1.73976 0
M  V30 646 O 62.226 0.165434 2.00719 0
M  V30 647 C 59.291 0.614673 3.41208 0
M  V30 648 C 58.352 1.74359 3.92297 0
M  V30 649 C 57.585 1.35261 5.16275 0
M  V30 650 O 57.808 0.235136 5.69915 0
M  V30 651 O 56.742 2.17227 5.61334 0
M  V30 652 H 60.568 1.96862 2.31255 0
M  V30 653 H 58.153 1.01753 1.09392 0
M  V30 654 H 60.035 0.396518 4.1953 0
M  V30 655 H 58.71 -0.299851 3.22308 0
M  V30 656 H 57.617 2.01635 3.1511 0
M  V30 657 H 58.95 2.63629 4.15645 0
M  V30 658 N 60.6021 -1.18246 1.0419 0
M  V30 659 C 61.5351 -2.20746 0.578474 0
M  V30 660 C 62.5131 -1.57912 -0.387624 0
M  V30 661 O 63.6971 -1.86071 -0.301634 0
M  V30 662 C 60.8241 -3.38346 -0.154762 0
M  V30 663 C 59.8701 -4.19587 0.764782 0
M  V30 664 S 60.7031 -4.86014 2.24835 0
M  V30 665 C 61.8591 -6.07012 1.526 0
M  V30 666 H 62.0921 -2.59715 1.44691 0
M  V30 667 H 59.6251 -1.287 0.85297 0
M  V30 668 H 61.5831 -4.065 -0.571641 0
M  V30 669 H 60.2441 -2.97786 -0.999105 0
M  V30 670 H 59.4371 -5.03611 0.197976 0
M  V30 671 H 59.0391 -3.56818 1.12057 0
M  V30 672 H 61.3311 -6.72523 0.819733 0
M  V30 673 H 62.2741 -6.68202 2.34333 0
M  V30 674 H 62.6821 -5.55249 1.01779 0
M  V30 675 N 62.0802 -0.821533 -1.34494 0
M  V30 676 C 63.3272 -0.408946 -1.98328 0
M  V30 677 C 63.6552 1.02764 -1.65136 0
M  V30 678 O 62.9102 1.73026 -0.914349 0
M  V30 679 C 63.2092 -0.556512 -3.53041 0
M  V30 680 C 62.8752 -1.95861 -4.0614 0
M  V30 681 C 61.5372 -2.34217 -4.20352 0
M  V30 682 C 63.8892 -2.87523 -4.34718 0
M  V30 683 C 61.2172 -3.63572 -4.6047 0
M  V30 684 C 63.5692 -4.1634 -4.76281 0
M  V30 685 C 62.2332 -4.54675 -4.88699 0
M  V30 686 H 61.5032 -0.149644 -0.725732 0
M  V30 687 H 64.1502 -1.04521 -1.6046 0
M  V30 688 H 62.4552 0.163148 -3.9146 0
M  V30 689 H 64.1522 -0.217826 -4.00408 0
M  V30 690 H 60.7422 -1.65066 -3.95539 0
M  V30 691 H 64.9262 -2.59133 -4.23277 0
M  V30 692 H 60.1822 -3.93101 -4.68275 0
M  V30 693 H 64.3562 -4.87455 -4.97354 0
M  V30 694 H 61.9832 -5.54959 -5.19542 0
M  V30 695 N 63.5583 1.46682 -0.576371 0
M  V30 696 C 64.7863 2.06798 -0.0649635 0
M  V30 697 C 65.2013 1.42612 1.23723 0
M  V30 698 O 64.5583 0.529203 1.74659 0
M  V30 699 C 64.6093 3.6132 0.114202 0
M  V30 700 O 64.3303 4.23104 -1.13644 0
M  V30 701 C 65.8313 4.38349 0.66069 0
M  V30 702 H 63.0513 0.668778 -0.0545616 0
M  V30 703 H 65.5953 1.88404 -0.795237 0
M  V30 704 H 63.7503 3.79162 0.794673 0
M  V30 705 H 64.1643 5.15894 -0.946253 0
M  V30 706 H 65.6383 5.47081 0.73526 0
M  V30 707 H 66.1153 4.05953 1.67627 0
M  V30 708 H 66.7213 4.25297 0.0152951 0
M  V30 709 N 65.0364 0.313813 1.54444 0
M  V30 710 C 66.2824 -0.292108 2.00685 0
M  V30 711 C 66.6154 -1.52548 1.20177 0
M  V30 712 O 65.8904 -1.92452 0.281531 0
M  V30 713 C 66.1734 -0.635968 3.5444 0
M  V30 714 C 66.0264 0.607437 4.4568 0
M  V30 715 C 67.3454 -1.45747 4.15266 0
M  V30 716 H 64.4644 -0.104697 0.729526 0
M  V30 717 H 67.1064 0.428457 1.85106 0
M  V30 718 H 65.2564 -1.24986 3.67846 0
M  V30 719 H 66.9284 1.24581 4.44159 0
M  V30 720 H 65.1714 1.23822 4.15753 0
M  V30 721 H 65.8424 0.322515 5.51057 0
M  V30 722 H 68.3184 -0.938645 4.05375 0
M  V30 723 H 67.1944 -1.66683 5.2298 0
M  V30 724 H 67.4554 -2.45063 3.67963 0
M  V30 725 N 66.5145 -1.57545 0.0417849 0
M  V30 726 C 67.4625 -2.12148 -0.953723 0
M  V30 727 C 68.4565 -1.05104 -1.32852 0
M  V30 728 O 69.6625 -1.23524 -1.30927 0
M  V30 729 H 66.0375 -0.677957 -0.325389 0
M  V30 730 H 68.0085 -2.94707 -0.467991 0
M  V30 731 C 66.7575 -2.6739 -2.22257 0
M  V30 732 H 66.0805 -3.49413 -1.94295 0
M  V30 733 H 67.5205 -3.09227 -2.90094 0
M  V30 734 C 65.9795 -1.60723 -2.96091 0
M  V30 735 O 66.5095 -1.01449 -3.88679 0
M  V30 736 N 64.7155 -1.32466 -2.58652 0
M  V30 737 H 64.2625 -1.80856 -1.83437 0
M  V30 738 H 64.2205 -0.61325 -3.08361 0
M  V30 739 N 67.9926 0.231505 -1.5589 0
M  V30 740 C 68.9026 1.308 -1.94752 0
M  V30 741 C 69.9186 1.51826 -0.849989 0
M  V30 742 O 71.0946 1.6515 -1.15271 0
M  V30 743 C 68.1596 2.63968 -2.24771 0
M  V30 744 C 67.2206 2.51331 -3.48039 0
M  V30 745 C 66.4536 3.78148 -3.76616 0
M  V30 746 O 66.6766 4.80722 -3.07022 0
M  V30 747 O 65.6106 3.75857 -4.70123 0
M  V30 748 H 69.4366 1.0083 -2.86474 0
M  V30 749 H 67.0216 0.433547 -1.42971 0
M  V30 750 H 68.9036 3.42633 -2.45318 0
M  V30 751 H 67.5786 2.9364 -1.36225 0
M  V30 752 H 66.4856 1.709 -3.32782 0
M  V30 753 H 67.8186 2.26601 -4.36936 0
M  V30 754 N 69.4707 1.49531 0.497807 0
M  V30 755 C 70.4207 1.62829 1.59596 0
M  V30 756 C 71.4047 0.483824 1.53453 0
M  V30 757 O 72.5967 0.736937 1.60929 0
M  V30 758 C 69.7257 1.7011 2.98191 0
M  V30 759 C 68.8117 2.90144 3.09317 0
M  V30 760 N 69.2027 4.1418 2.90324 0
M  V30 761 C 67.5007 2.88148 3.40422 0
M  V30 762 C 68.2017 4.94886 3.05717 0
M  V30 763 N 67.1777 4.28314 3.34736 0
M  V30 764 H 70.9797 2.56446 1.4357 0
M  V30 765 H 68.4937 1.46347 0.704001 0
M  V30 766 H 70.4907 1.77735 3.77115 0
M  V30 767 H 69.1507 0.776315 3.15283 0
M  V30 768 H 70.1617 4.44109 2.66436 0
M  V30 769 H 66.8387 2.05061 3.63671 0
M  V30 770 H 68.2287 6.03432 2.95499 0
M  V30 771 N 70.9488 -0.749086 1.3866 0
M  V30 772 C 72.1978 -1.50371 1.3443 0
M  V30 773 C 72.5108 -1.95503 -0.0616397 0
M  V30 774 O 73.7168 -2.70554 -0.226489 0
M  V30 775 C 72.1728 -2.71644 2.36088 0
M  V30 776 C 71.7808 -2.3352 3.82325 0
M  V30 777 C 73.5248 -3.49518 2.40909 0
M  V30 778 C 71.4318 -3.51431 4.75658 0
M  V30 779 H 70.3618 -0.564628 0.499712 0
M  V30 780 H 73.0128 -0.818449 1.64237 0
M  V30 781 H 71.3948 -3.42175 1.9933 0
M  V30 782 H 72.5688 -1.70627 4.28046 0
M  V30 783 H 70.8838 -1.6877 3.80665 0
M  V30 784 H 73.4808 -4.37197 3.07836 0
M  V30 785 H 73.8238 -3.90992 1.42937 0
M  V30 786 H 74.3568 -2.86005 2.76489 0
M  V30 787 H 71.0958 -3.15019 5.74842 0
M  V30 788 H 70.6158 -4.13352 4.34627 0
M  V30 789 H 72.2948 -4.17953 4.93887 0
M  V30 790 N 72.4269 -1.23603 -0.977757 0
M  V30 791 C 73.7039 -0.977897 -1.69401 0
M  V30 792 C 74.0839 0.502738 -2.05026 0
M  V30 793 O 73.4319 1.47459 -1.74551 0
M  V30 794 C 73.6419 -1.89077 -2.93345 0
M  V30 795 C 74.9899 -2.15579 -3.65802 0
M  V30 796 O 76.0139 -1.86648 -3.03383 0
M  V30 797 O 74.8729 -2.64658 -4.78141 0
M  V30 798 H 71.9669 -0.369025 -0.740101 0
M  V30 799 H 74.5129 -1.34657 -1.03274 0
M  V30 800 H 73.2849 -2.89158 -2.63634 0
M  V30 801 H 72.9079 -1.52463 -3.67207 0
M  V30 802 N 73.905 1.17692 -1.04816 0
M  V30 803 C 75.321 1.39863 -0.768794 0
M  V30 804 C 75.521 1.91118 0.638451 0
M  V30 805 O 74.577 2.10036 1.40146 0
M  V30 806 C 75.89 2.39274 -1.82122 0
M  V30 807 C 77.438 2.52987 -1.843 0
M  V30 808 C 77.913 3.55669 -2.88555 0
M  V30 809 N 79.404 3.63183 -2.87493 0
M  V30 810 C 80.139 4.42381 -3.64811 0
M  V30 811 N 79.635 5.25125 -4.51903 0
M  V30 812 N 81.428 4.37217 -3.53267 0
M  V30 813 H 73.579 0.82752 -1.95617 0
M  V30 814 H 75.842 0.426123 -0.846831 0
M  V30 815 H 75.548 2.08678 -2.83102 0
M  V30 816 H 75.422 3.38725 -1.65967 0
M  V30 817 H 77.809 2.82896 -0.839869 0
M  V30 818 H 77.89 1.53623 -2.04532 0
M  V30 819 H 77.534 3.26499 -3.89051 0
M  V30 820 H 77.464 4.54728 -2.65575 0
M  V30 821 H 79.955 3.04103 -2.24343 0
M  V30 822 H 80.268 5.82728 -5.07591 0
M  V30 823 H 78.613 5.24519 -4.55966 0
M  V30 824 H 81.804 3.71626 -2.84625 0
M  V30 825 H 81.977 4.98696 -4.13771 0
M  V30 826 N 75.3831 0.828654 1.34056 0
M  V30 827 C 76.3131 0.269443 2.3194 0
M  V30 828 C 77.2941 -0.617247 1.58506 0
M  V30 829 O 78.4791 -0.542931 1.86456 0
M  V30 830 C 75.6091 -0.564793 3.42677 0
M  V30 831 C 74.5631 0.225241 4.27407 0
M  V30 832 C 73.8891 -0.7321 5.29664 0
M  V30 833 C 75.1891 1.43663 5.02154 0
M  V30 834 H 76.8831 1.08728 2.7896 0
M  V30 835 H 74.4291 0.524283 1.34117 0
M  V30 836 H 76.3821 -0.966233 4.10173 0
M  V30 837 H 75.1061 -1.41574 2.9432 0
M  V30 838 H 73.7651 0.608117 3.61521 0
M  V30 839 H 73.4131 -1.57916 4.77568 0
M  V30 840 H 73.1131 -0.20767 5.87233 0
M  V30 841 H 74.6371 -1.13128 6.00029 0
M  V30 842 H 76.0511 1.1089 5.62473 0
M  V30 843 H 74.4481 1.89711 5.69324 0
M  V30 844 H 75.5181 2.21181 4.31517 0
M  V30 845 N 76.8612 -1.46375 0.584142 0
M  V30 846 C 78.0912 -2.06461 0.0758195 0
M  V30 847 C 78.4992 -1.43322 -1.23512 0
M  V30 848 O 77.8422 -0.533216 -1.75791 0
M  V30 849 C 77.9042 -3.59131 -0.162773 0
M  V30 850 C 77.5682 -4.4447 1.06279 0
M  V30 851 C 78.5652 -4.80918 1.97519 0
M  V30 852 C 76.2502 -4.85584 1.28504 0
M  V30 853 C 78.2442 -5.57309 3.09331 0
M  V30 854 C 75.9312 -5.61734 2.4062 0
M  V30 855 C 76.9292 -5.9751 3.30863 0
M  V30 856 O 76.6172 -6.72121 4.41032 0
M  V30 857 H 76.3492 -0.673745 0.0551725 0
M  V30 858 H 78.9032 -1.88969 0.804984 0
M  V30 859 H 77.1332 -3.74936 -0.946565 0
M  V30 860 H 78.8222 -4.0114 -0.619782 0
M  V30 861 H 79.5882 -4.49732 1.81565 0
M  V30 862 H 75.4672 -4.57187 0.591702 0
M  V30 863 H 79.0112 -5.85152 3.79793 0
M  V30 864 H 74.9082 -5.92334 2.56537 0
M  V30 865 H 75.6762 -6.90547 4.39417 0
M  V30 866 N 78.3393 -0.321999 -1.54275 0
M  V30 867 C 79.3023 0.531975 -2.22941 0
M  V30 868 C 80.3023 1.04478 -1.22234 0
M  V30 869 O 81.4923 0.937452 -1.46825 0
M  V30 870 C 78.6243 1.73874 -2.93224 0
M  V30 871 H 79.8173 -0.0682612 -2.99822 0
M  V30 872 H 77.3703 -0.0730644 -1.56129 0
M  V30 873 H 78.1053 2.37825 -2.20476 0
M  V30 874 H 77.8903 1.37847 -3.6707 0
M  V30 875 H 79.3803 2.34496 -3.45545 0
M  V30 876 N 79.8174 1.5752 -0.0501392 0
M  V30 877 C 81.0424 1.97376 0.636997 0
M  V30 878 C 81.4674 0.927466 1.63645 0
M  V30 879 O 80.8254 -0.10941 1.8097 0
M  V30 880 C 80.8734 3.36304 1.30123 0
M  V30 881 O 79.9774 3.34156 2.41689 0
M  V30 882 H 79.3184 0.642998 0.165679 0
M  V30 883 H 81.8484 2.04258 -0.118233 0
M  V30 884 H 81.8584 3.73008 1.65315 0
M  V30 885 H 80.5334 4.11993 0.568746 0
M  V30 886 H 79.1104 3.09196 2.08451 0
M  V30 887 N 81.2955 -0.223234 1.56011 0
M  V30 888 C 82.2585 -1.26014 1.9145 0
M  V30 889 C 83.2585 -1.3989 0.792937 0
M  V30 890 O 84.4485 -1.38184 1.0607 0
M  V30 891 C 81.5805 -2.63422 2.16383 0
M  V30 892 H 82.7735 -0.95796 2.84189 0
M  V30 893 H 80.3265 -0.463576 1.49267 0
M  V30 894 H 81.0615 -2.98741 1.2619 0
M  V30 895 H 80.8465 -2.54728 2.98088 0
M  V30 896 H 82.3365 -3.38249 2.44903 0
M  V30 897 N 82.7736 -1.49793 -0.48987 0
M  V30 898 C 83.6836 -1.70036 -1.61632 0
M  V30 899 C 84.6996 -0.583102 -1.63939 0
M  V30 900 O 85.8756 -0.859169 -1.82154 0
M  V30 901 C 82.9406 -1.77277 -2.97949 0
M  V30 902 C 82.0016 -3.00918 -3.06181 0
M  V30 903 C 81.2346 -3.07804 -4.35996 0
M  V30 904 O 81.4576 -2.21982 -5.25433 0
M  V30 905 O 80.3916 -4.00369 -4.49431 0
M  V30 906 H 84.2176 -2.65486 -1.47482 0
M  V30 907 H 81.8026 -1.33666 -0.667362 0
M  V30 908 H 83.6846 -1.84329 -3.78947 0
M  V30 909 H 82.3596 -0.850076 -3.12339 0
M  V30 910 H 81.2666 -2.99377 -2.2433 0
M  V30 911 H 82.5996 -3.92704 -2.96723 0
M  V30 912 N 84.2517 0.741722 -1.39055 0
M  V30 913 C 85.1987 1.85566 -1.37237 0
M  V30 914 C 86.1687 1.64457 -0.233072 0
M  V30 915 O 87.3537 1.85957 -0.427147 0
M  V30 916 C 84.4937 3.23004 -1.215 0
M  V30 917 C 83.6067 3.55864 -2.44918 0
M  V30 918 C 82.7417 4.82669 -2.21821 0
M  V30 919 C 81.7807 5.08351 -3.40948 0
M  V30 920 N 80.9177 6.26356 -3.17211 0
M  V30 921 H 85.7577 1.86455 -2.32462 0
M  V30 922 H 83.2947 0.911176 -1.15482 0
M  V30 923 H 85.2527 4.02331 -1.10389 0
M  V30 924 H 83.8827 3.21411 -0.29908 0
M  V30 925 H 82.9347 2.7129 -2.66657 0
M  V30 926 H 84.2467 3.70765 -3.33668 0
M  V30 927 H 83.4007 5.69962 -2.07914 0
M  V30 928 H 82.1397 4.69929 -1.30454 0
M  V30 929 H 81.1447 4.19522 -3.55361 0
M  V30 930 H 82.3697 5.22981 -4.33207 0
M  V30 931 H 80.3157 6.14917 -2.28502 0
M  V30 932 H 80.2327 6.41813 -3.99515 0
M  V30 933 H 81.5007 7.16506 -3.06984 0
M  V30 934 N 85.7298 1.2412 0.971189 0
M  V30 935 C 86.9788 1.07284 1.70801 0
M  V30 936 C 87.2918 -0.388902 1.91695 0
M  V30 937 O 88.4978 -0.677379 2.62914 0
M  V30 938 C 86.9538 1.87145 3.07416 0
M  V30 939 C 86.5618 3.37707 2.94377 0
M  V30 940 C 88.3058 1.78828 3.84995 0
M  V30 941 C 86.2128 4.09925 4.26281 0
M  V30 942 H 85.1428 0.397854 0.64049 0
M  V30 943 H 87.7938 1.4817 1.0825 0
M  V30 944 H 86.1758 1.39071 3.70777 0
M  V30 945 H 87.3498 3.93335 2.4005 0
M  V30 946 H 85.6648 3.46938 2.30267 0
M  V30 947 H 88.2618 2.30089 4.82662 0
M  V30 948 H 88.6048 0.75284 4.09436 0
M  V30 949 H 89.1378 2.24563 3.28354 0
M  V30 950 H 85.8768 5.13813 4.07033 0
M  V30 951 H 85.3968 3.59083 4.80437 0
M  V30 952 H 87.0758 4.1673 4.94919 0
M  V30 953 N 87.2079 -1.17134 1.05439 0
M  V30 954 C 88.6239 -1.39454 0.776201 0
M  V30 955 C 88.8239 -1.91454 -0.628307 0
M  V30 956 O 87.8799 -2.10777 -1.39031 0
M  V30 957 C 89.1929 -2.38305 1.83388 0
M  V30 958 C 90.7409 -2.52006 1.85639 0
M  V30 959 C 91.2159 -3.54133 2.90437 0
M  V30 960 N 92.7069 -3.61653 2.89415 0
M  V30 961 C 93.4419 -4.4044 3.67152 0
M  V30 962 N 92.9379 -5.22721 4.54681 0
M  V30 963 N 94.7309 -4.35337 3.55581 0
M  V30 964 H 86.8819 -0.817134 1.96053 0
M  V30 965 H 89.1449 -0.421626 0.849079 0
M  V30 966 H 88.8509 -2.07173 2.84204 0
M  V30 967 H 88.7249 -3.37841 1.67761 0
M  V30 968 H 91.1119 -2.82447 0.85486 0
M  V30 969 H 91.1929 -1.52537 2.05344 0
M  V30 970 H 90.8369 -3.24431 3.90777 0
M  V30 971 H 90.7669 -4.53313 2.67983 0
M  V30 972 H 93.2579 -3.02909 2.25952 0
M  V30 973 H 93.5709 -5.80027 5.10674 0
M  V30 974 H 91.9159 -5.22093 4.58741 0
M  V30 975 H 95.1069 -3.70112 2.86592 0
M  V30 976 H 95.2799 -4.96494 4.1641 0
M  V30 977 N 88.686 -0.835752 -1.33615 0
M  V30 978 C 89.935 -0.426289 -1.97144 0
M  V30 979 C 90.248 1.01912 -1.66953 0
M  V30 980 O 91.454 1.53311 -2.24072 0
M  V30 981 C 89.91 -0.711321 -3.52801 0
M  V30 982 C 89.518 -2.1712 -3.91871 0
M  V30 983 C 91.262 -0.368654 -4.22896 0
M  V30 984 C 89.169 -2.40044 -5.40493 0
M  V30 985 H 88.099 -0.15567 -0.737755 0
M  V30 986 H 90.75 -1.0239 -1.52278 0
M  V30 987 H 89.132 -0.0433766 -3.95976 0
M  V30 988 H 90.306 -2.87936 -3.59763 0
M  V30 989 H 88.621 -2.47654 -3.34749 0
M  V30 990 H 91.218 -0.517601 -5.32189 0
M  V30 991 H 91.561 0.688078 -4.10574 0
M  V30 992 H 92.094 -0.991702 -3.8524 0
M  V30 993 H 88.833 -3.44271 -5.57815 0
M  V30 994 H 88.353 -1.73785 -5.74072 0
M  V30 995 H 90.032 -2.23042 -6.0734 0
M  V30 996 N 90.1641 1.46063 -0.591896 0
M  V30 997 C 91.3921 2.06717 -0.0868936 0
M  V30 998 C 91.8071 1.43916 1.22203 0
M  V30 999 O 91.1641 0.547698 1.74088 0
M  V30 1000 C 91.2151 3.6142 0.0758725 0
M  V30 1001 O 90.9361 4.21874 -1.18126 0
M  V30 1002 C 92.4371 4.39025 0.61416 0
M  V30 1003 H 89.6571 0.668162 -0.0616518 0
M  V30 1004 H 92.2011 1.8755 -0.815175 0
M  V30 1005 H 90.3561 3.79983 0.754413 0
M  V30 1006 H 90.7701 5.14861 -1.00092 0
M  V30 1007 H 92.2441 5.4783 0.677193 0
M  V30 1008 H 92.7211 4.07708 1.63312 0
M  V30 1009 H 93.3271 4.2529 -0.0298142 0
M  V30 1010 N 91.6422 0.330177 1.54103 0
M  V30 1011 C 92.8912 -0.271336 1.99867 0
M  V30 1012 C 93.2042 -1.52723 1.22209 0
M  V30 1013 O 94.4102 -2.20515 1.58383 0
M  V30 1014 C 92.8662 -0.534032 3.55916 0
M  V30 1015 C 92.4742 0.705193 4.42415 0
M  V30 1016 C 94.2182 -1.09514 4.1013 0
M  V30 1017 C 92.1252 0.414035 5.89949 0
M  V30 1018 H 91.0552 -0.105166 0.74663 0
M  V30 1019 H 93.7062 0.443429 1.78062 0
M  V30 1020 H 92.0882 -1.30915 3.73734 0
M  V30 1021 H 93.2622 1.4804 4.36372 0
M  V30 1022 H 91.5772 1.18698 3.99124 0
M  V30 1023 H 94.1742 -1.3277 5.17954 0
M  V30 1024 H 94.5172 -2.04656 3.62521 0
M  V30 1025 H 95.0502 -0.381038 3.95971 0
M  V30 1026 H 91.7892 1.33481 6.41766 0
M  V30 1027 H 91.3092 -0.323336 5.98928 0
M  V30 1028 H 92.9882 0.0263105 6.46995 0
M  V30 1029 N 93.1203 -1.57491 0.0584922 0
M  V30 1030 C 94.5313 -1.80526 -0.476138 0
M  V30 1031 C 94.8823 -0.971334 -1.70469 0
M  V30 1032 O 94.0073 -0.190012 -2.15564 0
M  V30 1033 C 94.6023 -3.27424 -0.870587 0
M  V30 1034 C 93.1613 -3.51351 -1.35015 0
M  V30 1035 C 92.3083 -2.75343 -0.32887 0
M  V30 1036 H 95.2593 -1.56133 0.284312 0
M  V30 1037 H 95.2803 -3.38745 -1.73299 0
M  V30 1038 H 94.7923 -3.88093 0.0237627 0
M  V30 1039 H 92.8933 -2.95971 -2.26345 0
M  V30 1040 H 93.0063 -4.60059 -1.33726 0
M  V30 1041 H 91.3703 -2.417 -0.803321 0
M  V30 1042 H 92.1533 -3.38743 0.557521 0
M  V30 1043 N 94.5984 0.214957 -1.56127 0
M  V30 1044 C 95.8284 0.953707 -1.8327 0
M  V30 1045 C 96.2364 1.78181 -0.636262 0
M  V30 1046 O 95.5794 1.79191 0.404516 0
M  V30 1047 C 95.6414 1.91516 -3.0424 0
M  V30 1048 C 95.3054 1.27094 -4.38972 0
M  V30 1049 C 96.3024 0.657575 -5.15725 0
M  V30 1050 C 93.9874 1.28073 -4.85698 0
M  V30 1051 C 95.9814 0.0625968 -6.37369 0
M  V30 1052 C 93.6684 0.681914 -6.07283 0
M  V30 1053 C 94.6664 0.0739046 -6.8296 0
M  V30 1054 O 94.3544 -0.515582 -8.02245 0
M  V30 1055 H 94.0864 0.284764 -0.613095 0
M  V30 1056 H 96.6404 0.233283 -2.04071 0
M  V30 1057 H 94.8704 2.67475 -2.79274 0
M  V30 1058 H 96.5594 2.52001 -3.18198 0
M  V30 1059 H 97.3254 0.642288 -4.80728 0
M  V30 1060 H 93.2044 1.74337 -4.26764 0
M  V30 1061 H 96.7484 -0.412593 -6.96379 0
M  V30 1062 H 92.6454 0.694636 -6.41752 0
M  V30 1063 H 93.4134 -0.410544 -8.1747 0
M  V30 1064 N 96.0765 1.50051 0.48192 0
M  V30 1065 C 97.3045 1.64237 1.25832 0
M  V30 1066 C 97.7195 0.321336 1.86045 0
M  V30 1067 O 97.0765 -0.695478 1.68729 0
M  V30 1068 C 97.1275 2.72548 2.37487 0
M  V30 1069 O 96.8485 3.99529 1.79745 0
M  V30 1070 C 98.3495 2.9761 3.28547 0
M  V30 1071 H 95.5695 0.55237 0.380957 0
M  V30 1072 H 98.1135 1.96207 0.576467 0
M  V30 1073 H 96.2685 2.43303 3.01467 0
M  V30 1074 H 96.6825 4.59342 2.5319 0
M  V30 1075 H 98.1565 3.77084 4.03127 0
M  V30 1076 H 98.6335 2.0826 3.86684 0
M  V30 1077 H 99.2395 3.28345 2.70314 0
M  V30 1078 N 97.5546 -0.734337 1.39446 0
M  V30 1079 C 98.5016 -1.84835 1.38219 0
M  V30 1080 C 99.4716 -1.64331 0.24179 0
M  V30 1081 O 100.657 -1.85728 0.437002 0
M  V30 1082 C 97.7966 -3.22355 1.23212 0
M  V30 1083 C 96.9096 -3.5456 2.46801 0
M  V30 1084 C 96.0446 -4.81485 2.24377 0
M  V30 1085 C 95.0836 -5.06536 3.43639 0
M  V30 1086 N 94.2206 -6.24665 3.20528 0
M  V30 1087 H 99.0606 -1.85219 2.33448 0
M  V30 1088 H 96.5976 -0.905039 1.15963 0
M  V30 1089 H 98.5556 -4.0174 1.12522 0
M  V30 1090 H 97.1856 -3.21248 0.316121 0
M  V30 1091 H 96.2376 -2.69872 2.68092 0
M  V30 1092 H 97.5496 -3.6899 3.3563 0
M  V30 1093 H 96.7036 -5.68852 2.10933 0
M  V30 1094 H 95.4426 -4.6923 1.32944 0
M  V30 1095 H 94.4476 -4.17632 3.5758 0
M  V30 1096 H 95.6726 -5.20676 4.35974 0
M  V30 1097 H 93.6186 -6.13696 2.3176 0
M  V30 1098 H 93.5356 -6.39685 4.02913 0
M  V30 1099 H 94.8036 -7.14868 3.10779 0
M  V30 1100 N 99.0327 -1.24633 -0.964593 0
M  V30 1101 C 100.31 -0.995809 -1.68354 0
M  V30 1102 C 100.69 0.480964 -2.05548 0
M  V30 1103 O 100.038 1.45599 -1.76105 0
M  V30 1104 C 100.248 -1.92177 -2.91323 0
M  V30 1105 C 101.596 -2.19446 -3.63495 0
M  V30 1106 O 102.62 -1.89855 -3.01386 0
M  V30 1107 O 101.479 -2.69714 -4.75307 0
M  V30 1108 H 98.5727 -0.376854 -0.736146 0
M  V30 1109 H 101.119 -1.35745 -1.0184 0
M  V30 1110 H 99.8907 -2.91938 -2.60553 0
M  V30 1111 H 99.5137 -1.56349 -3.65569 0
M  V30 1112 N 100.511 1.16574 -1.06058 0
M  V30 1113 C 101.458 2.20883 -0.669263 0
M  V30 1114 C 102.428 1.62729 0.332918 0
M  V30 1115 O 103.613 1.895 0.222346 0
M  V30 1116 C 100.753 3.45049 -0.0593572 0
M  V30 1117 C 99.8658 4.17458 -1.11143 0
M  V30 1118 C 99.0008 5.29135 -0.467916 0
M  V30 1119 C 98.0398 5.93343 -1.50369 0
M  V30 1120 N 97.1768 6.96516 -0.883706 0
M  V30 1121 H 102.017 2.53709 -1.5632 0
M  V30 1122 H 99.5538 1.24616 -0.781625 0
M  V30 1123 H 101.512 4.16033 0.311771 0
M  V30 1124 H 100.142 3.12781 0.797992 0
M  V30 1125 H 99.1938 3.45101 -1.60029 0
M  V30 1126 H 100.506 4.61307 -1.89731 0
M  V30 1127 H 99.6598 6.06684 -0.0436871 0
M  V30 1128 H 98.3988 4.86443 0.349864 0
M  V30 1129 H 97.4038 5.14517 -1.93784 0
M  V30 1130 H 98.6288 6.38114 -2.32352 0
M  V30 1131 H 96.5748 6.55943 -0.086595 0
M  V30 1132 H 96.4918 7.38723 -1.607 0
M  V30 1133 H 97.7598 7.77993 -0.484543 0
M  V30 1134 N 101.989 0.842826 1.3317 0
M  V30 1135 C 103.236 0.440447 1.97652 0
M  V30 1136 C 103.564 -1.00123 1.6675 0
M  V30 1137 O 102.819 -1.7155 0.941761 0
M  V30 1138 C 103.118 0.612607 3.52111 0
M  V30 1139 C 102.784 2.02297 4.02972 0
M  V30 1140 C 101.446 2.40874 4.16573 0
M  V30 1141 C 103.798 2.94402 4.30089 0
M  V30 1142 C 101.126 3.70852 4.54627 0
M  V30 1143 C 103.478 4.23865 4.69597 0
M  V30 1144 C 102.142 4.62392 4.81404 0
M  V30 1145 H 101.412 0.161171 0.72326 0
M  V30 1146 H 104.059 1.07061 1.58777 0
M  V30 1147 H 102.364 -0.100849 3.9167 0
M  V30 1148 H 104.061 0.2815 4.00011 0
M  V30 1149 H 100.651 1.71338 3.92863 0
M  V30 1150 H 104.835 2.65835 4.19101 0
M  V30 1151 H 100.091 4.00501 4.61962 0
M  V30 1152 H 104.265 4.95306 4.89536 0
M  V30 1153 H 101.892 5.63154 5.10648 0
M  V30 1154 N 103.467 -1.45747 0.599634 0
M  V30 1155 C 104.417 -2.27538 -0.145107 0
M  V30 1156 C 105.401 -1.3686 -0.846055 0
M  V30 1157 O 106.593 -1.6091 -0.737357 0
M  V30 1158 C 103.722 -3.23569 -1.14708 0
M  V30 1159 C 102.808 -4.21734 -0.447383 0
M  V30 1160 N 103.199 -5.03257 0.506535 0
M  V30 1161 C 101.497 -4.40536 -0.695966 0
M  V30 1162 C 102.198 -5.74426 0.917068 0
M  V30 1163 N 101.174 -5.42966 0.26253 0
M  V30 1164 H 104.976 -2.87965 0.587672 0
M  V30 1165 H 102.49 -1.56803 0.422697 0
M  V30 1166 H 104.487 -3.8089 -1.69495 0
M  V30 1167 H 103.147 -2.64702 -1.8805 0
M  V30 1168 H 104.158 -5.10319 0.882899 0
M  V30 1169 H 100.835 -3.92802 -1.41467 0
M  V30 1170 H 102.225 -6.4995 1.70338 0
M  V30 1171 N 104.945 -0.338344 -1.53925 0
M  V30 1172 C 105.877 0.555117 -2.22376 0
M  V30 1173 C 106.89 1.06812 -1.22862 0
M  V30 1174 O 108.079 0.979163 -1.49247 0
M  V30 1175 C 105.179 1.77609 -2.88631 0
M  V30 1176 C 104.352 1.39927 -4.14414 0
M  V30 1177 C 103.411 2.47936 -4.64127 0
M  V30 1178 O 102.437 2.11461 -5.28463 0
M  V30 1179 N 103.639 3.79107 -4.39612 0
M  V30 1180 H 106.404 -0.0310778 -2.99684 0
M  V30 1181 H 103.965 -0.162226 -1.61085 0
M  V30 1182 H 105.957 2.49287 -3.18807 0
M  V30 1183 H 104.527 2.26978 -2.14941 0
M  V30 1184 H 103.747 0.513481 -3.90841 0
M  V30 1185 H 105.035 1.12341 -4.96243 0
M  V30 1186 H 104.433 4.11531 -3.88148 0
M  V30 1187 H 102.99 4.4697 -4.74406 0
M  V30 1188 N 106.423 1.57458 -0.0668435 0
M  V30 1189 C 107.353 2.15468 0.899764 0
M  V30 1190 C 108.334 1.08042 1.31381 0
M  V30 1191 O 109.519 1.36054 1.38574 0
M  V30 1192 C 106.649 2.71232 2.16911 0
M  V30 1193 C 105.603 3.83781 1.89463 0
M  V30 1194 C 104.929 4.26127 3.22986 0
M  V30 1195 C 106.229 5.08238 1.20381 0
M  V30 1196 H 107.923 2.96488 0.416529 0
M  V30 1197 H 105.469 1.4262 0.198908 0
M  V30 1198 H 107.422 3.10458 2.84945 0
M  V30 1199 H 106.146 1.87426 2.67468 0
M  V30 1200 H 104.805 3.45051 1.23836 0
M  V30 1201 H 104.453 3.39249 3.71374 0
M  V30 1202 H 104.153 5.01993 3.05413 0
M  V30 1203 H 105.677 4.67966 3.92225 0
M  V30 1204 H 107.091 5.44811 1.78475 0
M  V30 1205 H 105.488 5.89349 1.13083 0
M  V30 1206 H 106.558 4.84558 0.182153 0
M  V30 1207 N 107.901 -0.206675 1.56239 0
M  V30 1208 C 108.831 -1.25909 1.96645 0
M  V30 1209 C 109.812 -1.48097 0.836734 0
M  V30 1210 O 110.997 -1.6003 1.10019 0
M  V30 1211 C 108.127 -2.6058 2.29599 0
M  V30 1212 C 107.081 -2.53024 3.452 0
M  V30 1213 C 106.407 -3.91861 3.63798 0
M  V30 1214 C 107.707 -2.06524 4.79734 0
M  V30 1215 H 109.401 -0.923369 2.84806 0
M  V30 1216 H 106.947 -0.442735 1.37025 0
M  V30 1217 H 108.9 -3.34375 2.56459 0
M  V30 1218 H 107.624 -2.95869 1.38307 0
M  V30 1219 H 106.283 -1.81684 3.18412 0
M  V30 1220 H 105.931 -4.24483 2.69857 0
M  V30 1221 H 105.631 -3.87683 4.4156 0
M  V30 1222 H 107.155 -4.67296 3.93022 0
M  V30 1223 H 108.569 -2.70072 5.05702 0
M  V30 1224 H 106.966 -2.13374 5.60885 0
M  V30 1225 H 108.036 -1.01802 4.74093 0
M  V30 1226 N 109.379 -1.50304 -0.473955 0
M  V30 1227 C 110.329 -1.65347 -1.56985 0
M  V30 1228 C 111.313 -0.508176 -1.52664 0
M  V30 1229 O 112.505 -0.762446 -1.59737 0
M  V30 1230 C 109.634 -1.74832 -2.95447 0
M  V30 1231 C 108.72 -2.95028 -3.04662 0
M  V30 1232 N 109.111 -4.18747 -2.83698 0
M  V30 1233 C 107.409 -2.93527 -3.35795 0
M  V30 1234 C 108.11 -4.99687 -2.97805 0
M  V30 1235 N 107.086 -4.33585 -3.2788 0
M  V30 1236 H 110.888 -2.58698 -1.39472 0
M  V30 1237 H 108.402 -1.47449 -0.680629 0
M  V30 1238 H 110.399 -1.83712 -3.7424 0
M  V30 1239 H 109.059 -0.826376 -3.14008 0
M  V30 1240 H 110.07 -4.48291 -2.59337 0
M  V30 1241 H 106.747 -2.10821 -3.60362 0
M  V30 1242 H 108.137 -6.08057 -2.85861 0
M  V30 1243 N 110.857 0.726932 -1.39834 0
M  V30 1244 C 111.767 1.87131 -1.41489 0
M  V30 1245 C 112.783 1.71239 -0.308757 0
M  V30 1246 O 113.959 1.93701 -0.551529 0
M  V30 1247 C 111.024 3.22811 -1.26468 0
M  V30 1248 C 110.085 3.51039 -2.47124 0
M  V30 1249 C 109.318 4.80245 -2.3281 0
M  V30 1250 O 109.541 5.54537 -1.33585 0
M  V30 1251 O 108.475 5.08554 -3.21957 0
M  V30 1252 H 112.301 1.8869 -2.3797 0
M  V30 1253 H 109.886 0.875837 -1.21035 0
M  V30 1254 H 111.768 4.03877 -1.20255 0
M  V30 1255 H 110.443 3.22005 -0.330862 0
M  V30 1256 H 109.35 2.70027 -2.58914 0
M  V30 1257 H 110.683 3.56632 -3.39227 0
M  V30 1258 N 112.336 1.25143 0.95797 0
M  V30 1259 C 113.266 1.07711 2.07173 0
M  V30 1260 C 114.247 -0.0128462 1.70095 0
M  V30 1261 O 115.432 0.156061 1.93572 0
M  V30 1262 C 112.562 0.691503 3.40346 0
M  V30 1263 C 111.516 1.73132 3.9142 0
M  V30 1264 C 110.842 1.20049 5.21049 0
M  V30 1265 C 112.142 3.1294 4.1817 0
M  V30 1266 H 113.836 2.00873 2.22014 0
M  V30 1267 H 111.382 0.967191 1.06684 0
M  V30 1268 H 113.335 0.556505 4.17709 0
M  V30 1269 H 112.059 -0.275819 3.25433 0
M  V30 1270 H 110.718 1.8547 3.16222 0
M  V30 1271 H 110.366 0.223499 5.02503 0
M  V30 1272 H 110.066 1.89545 5.56189 0
M  V30 1273 H 111.59 1.07782 6.01012 0
M  V30 1274 H 113.004 3.03775 4.86203 0
M  V30 1275 H 111.401 3.79875 4.64559 0
M  V30 1276 H 112.471 3.6025 3.24573 0
M  V30 1277 N 113.814 -1.1601 1.06675 0
M  V30 1278 C 115.06 -1.86909 0.786945 0
M  V30 1279 C 115.393 -1.81717 -0.685018 0
M  V30 1280 O 114.668 -1.23551 -1.50218 0
M  V30 1281 C 114.951 -3.36313 1.28707 0
M  V30 1282 C 114.804 -3.50175 2.82308 0
M  V30 1283 C 116.123 -4.3084 0.898071 0
M  V30 1284 H 113.242 -0.678677 0.287343 0
M  V30 1285 H 115.884 -1.36336 1.32334 0
M  V30 1286 H 114.034 -3.79513 0.830768 0
M  V30 1287 H 115.706 -3.15886 3.36175 0
M  V30 1288 H 113.949 -2.91959 3.20847 0
M  V30 1289 H 114.62 -4.55116 3.12368 0
M  V30 1290 H 117.096 -3.95561 1.29114 0
M  V30 1291 H 115.972 -5.33876 1.27543 0
M  V30 1292 H 116.233 -4.41662 -0.196651 0
M  V30 1293 N 115.292 -0.849877 -1.32721 0
M  V30 1294 C 116.202 -0.293791 -2.32753 0
M  V30 1295 C 117.218 0.585906 -1.63839 0
M  V30 1296 O 118.394 0.487413 -1.95413 0
M  V30 1297 C 115.459 0.512752 -3.42887 0
M  V30 1298 C 114.52 -0.39252 -4.27502 0
M  V30 1299 C 113.753 0.375625 -5.32377 0
M  V30 1300 O 113.976 1.60613 -5.4732 0
M  V30 1301 O 112.91 -0.256094 -6.01355 0
M  V30 1302 H 116.736 -1.12242 -2.82197 0
M  V30 1303 H 114.321 -0.612685 -1.36259 0
M  V30 1304 H 116.203 0.970704 -4.10067 0
M  V30 1305 H 114.878 1.31826 -2.95641 0
M  V30 1306 H 113.785 -0.898547 -3.63149 0
M  V30 1307 H 115.118 -1.16309 -4.7826 0
M  V30 1308 N 116.77 1.45427 -0.607355 0
M  V30 1309 C 117.717 2.3053 0.111625 0
M  V30 1310 C 118.687 1.4209 0.860216 0
M  V30 1311 O 119.872 1.71019 0.845998 0
M  V30 1312 C 117.012 3.26992 1.10319 0
M  V30 1313 C 116.125 4.30535 0.355493 0
M  V30 1314 C 115.26 5.14105 1.33676 0
M  V30 1315 C 114.299 6.09376 0.576862 0
M  V30 1316 N 113.436 6.85727 1.5074 0
M  V30 1317 H 118.276 2.91477 -0.620093 0
M  V30 1318 H 115.813 1.43631 -0.317594 0
M  V30 1319 H 117.771 3.81385 1.6912 0
M  V30 1320 H 116.401 2.67799 1.80232 0
M  V30 1321 H 115.453 3.78805 -0.348023 0
M  V30 1322 H 116.765 4.98235 -0.237423 0
M  V30 1323 H 115.919 5.72897 1.99684 0
M  V30 1324 H 114.658 4.46423 1.9636 0
M  V30 1325 H 113.663 5.49715 -0.0968519 0
M  V30 1326 H 114.888 6.79085 -0.0449341 0
M  V30 1327 H 112.834 6.20735 2.12189 0
M  V30 1328 H 112.751 7.49778 0.967913 0
M  V30 1329 H 114.019 7.4906 2.15706 0
M  V30 1330 N 118.248 0.346503 1.53744 0
M  V30 1331 C 119.196 -0.52422 2.26616 0
M  V30 1332 C 120.19 -1.09948 1.28871 0
M  V30 1333 O 121.396 -1.04488 1.46568 0
M  V30 1334 H 117.771 -0.187743 0.728187 0
M  V30 1335 H 119.742 0.11239 2.98188 0
M  V30 1336 C 118.491 -1.66186 3.05414 0
M  V30 1337 H 117.814 -1.22848 3.80458 0
M  V30 1338 H 119.254 -2.24622 3.59612 0
M  V30 1339 C 117.713 -2.59302 2.1509 0
M  V30 1340 O 118.243 -3.61628 1.74895 0
M  V30 1341 N 116.449 -2.28055 1.8011 0
M  V30 1342 H 115.996 -1.44883 2.12994 0
M  V30 1343 H 115.954 -2.90615 1.19958 0
M  V30 1344 N 119.726 -1.57421 0.075193 0
M  V30 1345 C 120.636 -2.1642 -0.905511 0
M  V30 1346 C 121.652 -1.12828 -1.32461 0
M  V30 1347 O 122.828 -1.45109 -1.39661 0
M  V30 1348 C 119.893 -2.71693 -2.15369 0
M  V30 1349 C 118.954 -3.90171 -1.79068 0
M  V30 1350 C 118.187 -4.42798 -2.97936 0
M  V30 1351 O 118.41 -3.94416 -4.12058 0
M  V30 1352 O 117.344 -5.34085 -2.77555 0
M  V30 1353 H 121.17 -3.00588 -0.433626 0
M  V30 1354 H 118.755 -1.48664 -0.148067 0
M  V30 1355 H 120.637 -3.07104 -2.88557 0
M  V30 1356 H 119.312 -1.90582 -2.61649 0
M  V30 1357 H 118.219 -3.59606 -1.03122 0
M  V30 1358 H 119.552 -4.72584 -1.37569 0
M  V30 1359 N 121.204 0.198386 -1.56346 0
M  V30 1360 C 122.134 1.24865 -1.9731 0
M  V30 1361 C 123.115 1.47651 -0.844576 0
M  V30 1362 O 124.3 1.59444 -1.10866 0
M  V30 1363 C 121.43 2.59358 -2.30977 0
M  V30 1364 C 120.384 2.5119 -3.46537 0
M  V30 1365 C 119.71 3.89926 -3.65871 0
M  V30 1366 C 121.01 2.03977 -4.80823 0
M  V30 1367 H 122.704 0.908252 -2.85291 0
M  V30 1368 H 120.25 0.435462 -1.37258 0
M  V30 1369 H 122.203 3.33011 -2.58228 0
M  V30 1370 H 120.927 2.95132 -1.39874 0
M  V30 1371 H 119.586 1.79993 -3.19371 0
M  V30 1372 H 119.234 4.23046 -2.72105 0
M  V30 1373 H 118.934 3.85336 -4.4361 0
M  V30 1374 H 120.458 4.65205 -3.95495 0
M  V30 1375 H 121.872 2.67386 -5.07127 0
M  V30 1376 H 120.269 2.10397 -5.62008 0
M  V30 1377 H 121.339 0.992861 -4.74626 0
M  V30 1378 N 122.682 1.50554 0.465978 0
M  V30 1379 C 123.63 1.70324 1.58406 0
M  V30 1380 C 124.624 0.569139 1.59553 0
M  V30 1381 O 125.83 0.749776 1.63641 0
M  V30 1382 H 122.205 0.537688 0.525734 0
M  V30 1383 H 124.176 2.64104 1.38894 0
M  V30 1384 C 122.925 1.81928 2.96307 0
M  V30 1385 H 122.248 2.68586 2.96144 0
M  V30 1386 H 123.688 1.99784 3.73982 0
M  V30 1387 C 122.147 0.572095 3.32007 0
M  V30 1388 O 122.677 -0.286416 4.00678 0
M  V30 1389 N 120.883 0.424606 2.87481 0
M  V30 1390 H 120.43 1.12427 2.31771 0
M  V30 1391 H 120.388 -0.408697 3.11732 0
M  V30 1392 N 124.16 -0.719506 1.40217 0
M  V30 1393 C 125.388 -1.50864 1.41589 0
M  V30 1394 C 125.803 -1.88794 0.0145275 0
M  V30 1395 O 125.16 -1.55174 -0.960594 0
M  V30 1396 C 125.211 -2.78646 2.30302 0
M  V30 1397 O 124.932 -2.42321 3.64983 0
M  V30 1398 C 126.433 -3.72569 2.40224 0
M  V30 1399 H 123.653 -0.465709 0.48307 0
M  V30 1400 H 126.197 -0.88785 1.84221 0
M  V30 1401 H 124.352 -3.37019 1.91042 0
M  V30 1402 H 124.766 -3.24514 4.12057 0
M  V30 1403 H 126.24 -4.5908 3.06512 0
M  V30 1404 H 126.717 -4.15403 1.42608 0
M  V30 1405 H 127.323 -3.20109 2.80019 0
M  V30 1406 N 125.638 -1.25649 -0.95132 0
M  V30 1407 C 126.886 -1.10375 -1.69298 0
M  V30 1408 C 127.207 0.355339 -1.91735 0
M  V30 1409 O 126.477 1.25188 -1.50681 0
M  V30 1410 H 125.057 -0.405461 -0.627384 0
M  V30 1411 H 127.719 -1.57823 -1.14358 0
M  V30 1412 H 126.815 -1.61465 -2.67087 0
M  V30 1413 N 127.117 1.15442 -1.07289 0
M  V30 1414 C 128.067 2.18164 -0.662467 0
M  V30 1415 C 129.051 1.57845 0.312074 0
M  V30 1416 O 130.243 1.76552 0.125905 0
M  V30 1417 C 127.372 3.43246 -0.0611295 0
M  V30 1418 C 126.458 4.1062 -1.06077 0
M  V30 1419 N 126.849 4.53491 -2.24008 0
M  V30 1420 C 125.147 4.36949 -0.893964 0
M  V30 1421 C 125.848 5.05731 -2.87422 0
M  V30 1422 N 124.824 4.99236 -2.15091 0
M  V30 1423 H 128.626 2.49038 -1.56068 0
M  V30 1424 H 126.14 1.32003 -0.945988 0
M  V30 1425 H 128.137 4.16145 0.250792 0
M  V30 1426 H 126.797 3.13854 0.832207 0
M  V30 1427 H 127.808 4.46898 -2.6173 0
M  V30 1428 H 124.485 4.17466 -0.0534693 0
M  V30 1429 H 125.875 5.48865 -3.87553 0
M  V30 1430 N 128.595 0.856903 1.32268 0
M  V30 1431 C 129.844 0.457599 1.96441 0
M  V30 1432 C 130.157 -0.992426 1.68553 0
M  V30 1433 O 131.363 -1.49727 2.26482 0
M  V30 1434 C 129.819 0.767358 3.51624 0
M  V30 1435 C 129.427 2.23326 3.88367 0
M  V30 1436 C 131.171 0.435887 4.22256 0
M  V30 1437 C 129.078 2.48613 5.36606 0
M  V30 1438 H 128.008 0.167387 0.735185 0
M  V30 1439 H 130.659 1.048 1.5063 0
M  V30 1440 H 129.041 0.106367 3.95857 0
M  V30 1441 H 130.215 2.93623 3.55137 0
M  V30 1442 H 128.53 2.52948 3.30766 0
M  V30 1443 H 131.127 0.602202 5.31298 0
M  V30 1444 H 131.47 -0.622672 4.11617 0
M  V30 1445 H 132.003 1.05286 3.83614 0
M  V30 1446 H 128.742 3.53101 5.52268 0
M  V30 1447 H 128.262 1.82896 5.71235 0
M  V30 1448 H 129.941 2.32676 6.03714 0
M  V30 1449 N 130.073 -1.45103 0.615059 0
M  V30 1450 C 131.303 -2.06254 0.119596 0
M  V30 1451 C 131.711 -1.4591 -1.20445 0
M  V30 1452 O 131.054 -0.570384 -1.7462 0
M  V30 1453 C 131.116 -3.59396 -0.0865591 0
M  V30 1454 C 130.78 -4.42116 1.15683 0
M  V30 1455 C 131.777 -4.7662 2.07676 0
M  V30 1456 C 129.462 -4.82749 1.38775 0
M  V30 1457 C 131.456 -5.50622 3.21082 0
M  V30 1458 C 129.143 -5.56504 2.52481 0
M  V30 1459 C 130.141 -5.90358 3.43463 0
M  V30 1460 O 129.829 -6.62615 4.55189 0
M  V30 1461 H 129.561 -0.672423 0.0694512 0
M  V30 1462 H 132.115 -1.87219 0.844885 0
M  V30 1463 H 130.345 -3.76859 -0.866823 0
M  V30 1464 H 132.034 -4.02365 -0.534555 0
M  V30 1465 H 132.8 -4.4578 1.91063 0
M  V30 1466 H 128.679 -4.55829 0.688545 0
M  V30 1467 H 132.223 -5.76965 3.92119 0
M  V30 1468 H 128.12 -5.86759 2.69043 0
M  V30 1469 H 128.888 -6.81071 4.53966 0
M  V30 1470 N 131.551 -0.354651 -1.53558 0
M  V30 1471 C 132.798 0.238443 -2.01091 0
M  V30 1472 C 133.126 1.49663 -1.24222 0
M  V30 1473 O 132.381 1.93049 -0.321003 0
M  V30 1474 C 132.68 0.587121 -3.52545 0
M  V30 1475 C 132.346 -0.575472 -4.47213 0
M  V30 1476 C 131.008 -0.894497 -4.72813 0
M  V30 1477 C 133.36 -1.35489 -5.03281 0
M  V30 1478 C 130.688 -1.99511 -5.51736 0
M  V30 1479 C 133.04 -2.44583 -5.83405 0
M  V30 1480 C 131.704 -2.77033 -6.07296 0
M  V30 1481 H 130.974 0.0872526 -0.735845 0
M  V30 1482 H 133.621 -0.484859 -1.8526 0
M  V30 1483 H 131.926 1.39129 -3.66265 0
M  V30 1484 H 133.623 1.05809 -3.86789 0
M  V30 1485 H 130.213 -0.316774 -4.27428 0
M  V30 1486 H 134.397 -1.12167 -4.83459 0
M  V30 1487 H 129.653 -2.25063 -5.68469 0
M  V30 1488 H 133.827 -3.05401 -6.25862 0
M  V30 1489 H 131.454 -3.6244 -6.68237 0
M  V30 1490 N 133.029 1.57378 -0.0835403 0
M  V30 1491 C 133.961 2.10389 0.909338 0
M  V30 1492 C 134.974 1.03858 1.25369 0
M  V30 1493 O 136.163 1.31338 1.20882 0
M  V30 1494 C 133.263 2.55908 2.2218 0
M  V30 1495 C 132.436 3.86145 2.05453 0
M  V30 1496 C 131.495 4.17633 3.20108 0
M  V30 1497 O 130.521 4.87043 2.94581 0
M  V30 1498 N 131.723 3.72113 4.45547 0
M  V30 1499 H 134.488 2.962 0.456657 0
M  V30 1500 H 132.049 1.61579 0.101877 0
M  V30 1501 H 134.041 2.74027 2.97811 0
M  V30 1502 H 132.611 1.75171 2.58909 0
M  V30 1503 H 131.831 3.7729 1.1422 0
M  V30 1504 H 133.119 4.7137 1.91541 0
M  V30 1505 H 132.517 3.16062 4.69171 0
M  V30 1506 H 131.074 3.95409 5.18165 0
M  V30 1507 N 134.507 -0.190092 1.56449 0
M  V30 1508 C 135.753 -0.911052 1.81184 0
M  V30 1509 C 136.086 -1.82699 0.658396 0
M  V30 1510 O 135.361 -1.91491 -0.340775 0
M  V30 1511 C 135.644 -1.72297 3.16205 0
M  V30 1512 C 135.497 -0.831419 4.42049 0
M  V30 1513 C 136.816 -2.69454 3.47969 0
M  V30 1514 H 133.935 -0.32977 0.659106 0
M  V30 1515 H 136.577 -0.178169 1.89163 0
M  V30 1516 H 134.727 -2.34778 3.09534 0
M  V30 1517 H 136.399 -0.220929 4.60771 0
M  V30 1518 H 134.642 -0.138406 4.33579 0
M  V30 1519 H 135.313 -1.43461 5.33032 0
M  V30 1520 H 137.789 -2.17104 3.54972 0
M  V30 1521 H 136.665 -3.23342 4.43555 0
M  V30 1522 H 136.926 -3.48744 2.71717 0
M  V30 1523 N 135.985 -1.50799 -0.457987 0
M  V30 1524 C 137.213 -1.66218 -1.23203 0
M  V30 1525 C 137.628 -0.350894 -1.85511 0
M  V30 1526 O 136.985 0.668546 -1.69814 0
M  V30 1527 C 137.036 -2.76291 -2.33121 0
M  V30 1528 O 136.757 -4.02338 -1.73366 0
M  V30 1529 C 138.258 -3.028 -3.2377 0
M  V30 1530 H 135.478 -0.558361 -0.372121 0
M  V30 1531 H 138.022 -1.97099 -0.545179 0
M  V30 1532 H 136.177 -2.48068 -2.97558 0
M  V30 1533 H 136.591 -4.63312 -2.4585 0
M  V30 1534 H 138.065 -3.8345 -3.97077 0
M  V30 1535 H 138.542 -2.14385 -3.83322 0
M  V30 1536 H 139.148 -3.32604 -2.65056 0
M  V30 1537 N 137.463 0.71206 -1.40597 0
M  V30 1538 C 138.879 1.02058 -1.22704 0
M  V30 1539 C 139.079 2.01228 -0.104729 0
M  V30 1540 O 138.135 2.4674 0.53624 0
M  V30 1541 C 139.448 1.56094 -2.57012 0
M  V30 1542 C 140.996 1.6806 -2.64054 0
M  V30 1543 C 141.471 2.25501 -3.9864 0
M  V30 1544 N 142.962 2.32882 -4.004 0
M  V30 1545 C 143.697 2.78317 -5.01325 0
M  V30 1546 N 143.193 3.23478 -6.12645 0
M  V30 1547 N 144.986 2.77733 -4.88693 0
M  V30 1548 H 137.137 0.0547896 -2.12329 0
M  V30 1549 H 139.4 0.0869027 -0.944008 0
M  V30 1550 H 139.106 0.906865 -3.39807 0
M  V30 1551 H 138.98 2.54564 -2.78347 0
M  V30 1552 H 141.367 2.32583 -1.81629 0
M  V30 1553 H 141.448 0.681802 -2.46546 0
M  V30 1554 H 141.092 1.61598 -4.81506 0
M  V30 1555 H 141.022 3.26102 -4.13479 0
M  V30 1556 H 143.513 2.00991 -3.20017 0
M  V30 1557 H 143.826 3.56725 -6.85542 0
M  V30 1558 H 142.171 3.21429 -6.16205 0
M  V30 1559 H 145.362 2.4179 -4.00818 0
M  V30 1560 H 145.535 3.12826 -5.67489 0
M  V30 1561 N 138.941 1.26152 0.944643 0
M  V30 1562 C 140.189 1.11271 1.6871 0
M  V30 1563 C 140.51 -0.345166 1.91921 0
M  V30 1564 O 139.78 -1.24387 1.51343 0
M  V30 1565 H 138.36 0.408783 0.625224 0
M  V30 1566 H 141.022 1.58427 1.1352 0
M  V30 1567 H 140.118 1.62879 2.66227 0
M  V30 1568 N 140.419 -1.14872 1.07899 0
M  V30 1569 C 141.647 -1.89661 0.82683 0
M  V30 1570 C 142.062 -1.78312 -0.620519 0
M  V30 1571 O 141.419 -1.13888 -1.42604 0
M  V30 1572 C 141.47 -3.39817 1.23316 0
M  V30 1573 O 141.191 -3.50845 2.62372 0
M  V30 1574 C 142.692 -4.31615 1.0111 0
M  V30 1575 H 139.912 -0.60092 0.298557 0
M  V30 1576 H 142.456 -1.4551 1.43691 0
M  V30 1577 H 140.611 -3.8161 0.667286 0
M  V30 1578 H 141.025 -4.44076 2.79101 0
M  V30 1579 H 142.499 -5.35367 1.34486 0
M  V30 1580 H 142.976 -4.39169 -0.0522168 0
M  V30 1581 H 143.582 -3.95572 1.56215 0
M  V30 1582 N 141.898 -0.863906 -1.31812 0
M  V30 1583 C 143.123 -0.48527 -2.01643 0
M  V30 1584 C 143.548 0.913058 -1.64453 0
M  V30 1585 O 142.906 1.6014 -0.849985 0
M  V30 1586 C 142.954 -0.642625 -3.54828 0
M  V30 1587 O 142.058 0.320659 -4.11151 0
M  V30 1588 H 141.399 -0.193793 -0.635091 0
M  V30 1589 H 143.929 -1.16565 -1.68148 0
M  V30 1590 H 143.939 -0.533628 -4.04495 0
M  V30 1591 H 142.614 -1.66227 -3.81237 0
M  V30 1592 H 141.191 0.167126 -3.72525 0
M  V30 1593 N 143.376 1.44774 -0.622745 0
M  V30 1594 C 144.787 1.85546 -0.207226 0
M  V30 1595 C 145.138 1.52093 1.23944 0
M  V30 1596 O 144.263 0.95492 1.94191 0
M  V30 1597 C 144.858 3.36781 -0.369313 0
M  V30 1598 C 143.417 3.76399 -0.00836847 0
M  V30 1599 C 142.564 2.68664 -0.686651 0
M  V30 1600 H 145.515 1.3536 -0.828454 0
M  V30 1601 H 145.536 3.78453 0.394162 0
M  V30 1602 H 145.048 3.61098 -1.42231 0
M  V30 1603 H 143.149 3.57698 1.04322 0
M  V30 1604 H 143.262 4.7732 -0.412584 0
M  V30 1605 H 141.626 2.54404 -0.122777 0
M  V30 1606 H 142.409 2.95815 -1.74208 0
M  V30 1607 N 144.854 0.36279 1.53368 0
M  V30 1608 C 146.27 0.0116182 1.59596 0
M  V30 1609 C 146.47 -1.47012 1.37803 0
M  V30 1610 O 145.526 -2.23136 1.18181 0
M  V30 1611 C 146.839 0.465052 2.97082 0
M  V30 1612 C 148.387 0.419033 3.10182 0
M  V30 1613 C 148.862 0.848235 4.50077 0
M  V30 1614 N 150.353 0.803183 4.56183 0
M  V30 1615 C 151.088 1.107 5.62613 0
M  V30 1616 N 150.584 1.47996 6.76808 0
M  V30 1617 N 152.377 1.02998 5.52583 0
M  V30 1618 H 144.528 1.32775 1.65785 0
M  V30 1619 H 146.791 0.542518 0.777417 0
M  V30 1620 H 146.497 1.49892 3.18159 0
M  V30 1621 H 146.371 -0.149786 3.76902 0
M  V30 1622 H 148.758 -0.605696 2.88817 0
M  V30 1623 H 148.839 1.06933 2.32377 0
M  V30 1624 H 148.483 1.87107 4.7218 0
M  V30 1625 H 148.413 0.175218 5.26308 0
M  V30 1626 H 150.904 0.52838 3.74188 0
M  V30 1627 H 151.217 1.69613 7.53957 0
M  V30 1628 H 149.562 1.51859 6.78206 0
M  V30 1629 H 152.753 0.737817 4.62249 0
M  V30 1630 H 152.926 1.2701 6.35431 0
M  V30 1631 N 146.332 -1.57332 0.0918853 0
M  V30 1632 C 147.295 -2.12708 -0.85369 0
M  V30 1633 C 148.295 -1.05561 -1.213 0
M  V30 1634 O 149.485 -1.31461 -1.14296 0
M  V30 1635 C 146.617 -2.64503 -2.15061 0
M  V30 1636 H 147.81 -2.97573 -0.3729 0
M  V30 1637 H 145.363 -1.55509 -0.157072 0
M  V30 1638 H 146.098 -1.83149 -2.67632 0
M  V30 1639 H 145.883 -3.4284 -1.90272 0
M  V30 1640 H 147.373 -3.07351 -2.82711 0
M  V30 1641 N 147.81 0.181792 -1.56548 0
M  V30 1642 C 148.76 1.22961 -1.92002 0
M  V30 1643 C 149.744 1.40331 -0.787146 0
M  V30 1644 O 150.936 1.42478 -1.05019 0
M  V30 1645 C 148.065 2.57144 -2.27446 0
M  V30 1646 C 147.151 2.43512 -3.47222 0
M  V30 1647 N 147.542 1.99577 -4.64761 0
M  V30 1648 C 145.84 2.74368 -3.51622 0
M  V30 1649 C 146.541 1.98156 -5.46909 0
M  V30 1650 N 145.517 2.40164 -4.8767 0
M  V30 1651 H 149.319 0.881462 -2.8037 0
M  V30 1652 H 146.833 0.390141 -1.57644 0
M  V30 1653 H 148.83 3.32847 -2.51035 0
M  V30 1654 H 147.49 2.92771 -1.40411 0
M  V30 1655 H 148.501 1.70078 -4.89177 0
M  V30 1656 H 145.178 3.14102 -2.75038 0
M  V30 1657 H 146.568 1.65975 -6.51077 0
M  V30 1658 N 149.288 1.51039 0.449983 0
M  V30 1659 C 150.22 1.67617 1.56324 0
M  V30 1660 C 151.233 0.557083 1.52972 0
M  V30 1661 O 152.422 0.830989 1.57977 0
M  V30 1662 C 149.522 1.66402 2.95235 0
M  V30 1663 C 148.695 2.9469 3.23229 0
M  V30 1664 C 147.754 2.85832 4.41799 0
M  V30 1665 O 146.78 3.59785 4.41071 0
M  V30 1666 N 147.982 2.00821 5.44657 0
M  V30 1667 H 150.747 2.63648 1.42512 0
M  V30 1668 H 148.308 1.48767 0.638737 0
M  V30 1669 H 150.3 1.58062 3.72557 0
M  V30 1670 H 148.87 0.780182 3.02708 0
M  V30 1671 H 148.09 3.16996 2.34323 0
M  V30 1672 H 149.378 3.79636 3.38754 0
M  V30 1673 H 148.776 1.40091 5.48079 0
M  V30 1674 H 147.333 1.98368 6.20881 0
M  V30 1675 N 150.766 -0.704594 1.40972 0
M  V30 1676 C 152.013 -1.46458 1.39844 0
M  V30 1677 C 152.341 -1.94499 0.00447594 0
M  V30 1678 O 151.596 -1.69275 -0.982057 0
M  V30 1679 C 151.895 -2.698 2.34399 0
M  V30 1680 C 151.561 -2.40464 3.81429 0
M  V30 1681 C 150.223 -2.32174 4.21484 0
M  V30 1682 C 152.575 -2.16086 4.74296 0
M  V30 1683 C 149.903 -1.97589 5.52427 0
M  V30 1684 C 152.255 -1.83011 6.05549 0
M  V30 1685 C 150.919 -1.7321 6.44635 0
M  V30 1686 H 150.189 -0.535927 0.511725 0
M  V30 1687 H 152.836 -0.806124 1.73706 0
M  V30 1688 H 151.141 -3.40536 1.93759 0
M  V30 1689 H 152.838 -3.27919 2.30804 0
M  V30 1690 H 149.428 -2.47808 3.49699 0
M  V30 1691 H 153.612 -2.2144 4.4416 0
M  V30 1692 H 148.868 -1.88547 5.81601 0
M  V30 1693 H 153.042 -1.63164 6.77016 0
M  V30 1694 H 150.669 -1.46179 7.46013 0
M  V30 1695 N 152.244 -1.26651 -0.937939 0
M  V30 1696 C 153.655 -1.1125 -1.49934 0
M  V30 1697 C 154.006 0.306077 -1.93798 0
M  V30 1698 O 153.131 1.19792 -1.80219 0
M  V30 1699 C 153.726 -2.01339 -2.72485 0
M  V30 1700 C 152.285 -1.90074 -3.24883 0
M  V30 1701 C 151.432 -1.94498 -1.97651 0
M  V30 1702 H 154.383 -1.39693 -0.753091 0
M  V30 1703 H 154.404 -1.56319 -3.46907 0
M  V30 1704 H 153.916 -3.04577 -2.40529 0
M  V30 1705 H 152.017 -0.897827 -3.61621 0
M  V30 1706 H 152.13 -2.75778 -3.9177 0
M  V30 1707 H 150.494 -1.38591 -2.13693 0
M  V30 1708 H 151.277 -2.99372 -1.68022 0
M  V30 1709 N 153.722 1.14298 -1.08507 0
M  V30 1710 C 154.632 2.23027 -0.727753 0
M  V30 1711 C 155.648 1.71952 0.26619 0
M  V30 1712 O 156.824 2.011 0.109882 0
M  V30 1713 C 153.889 3.46403 -0.143541 0
M  V30 1714 C 152.95 4.12413 -1.19223 0
M  V30 1715 C 152.183 5.29899 -0.635798 0
M  V30 1716 O 152.406 5.67796 0.544393 0
M  V30 1717 O 151.34 5.85717 -1.38634 0
M  V30 1718 H 155.166 2.55945 -1.63481 0
M  V30 1719 H 152.751 1.22248 -0.858817 0
M  V30 1720 H 154.633 4.21018 0.179404 0
M  V30 1721 H 153.308 3.15206 0.736659 0
M  V30 1722 H 152.215 3.39667 -1.56772 0
M  V30 1723 H 153.548 4.47718 -2.04474 0
M  V30 1724 N 155.201 0.870884 1.31352 0
M  V30 1725 C 156.149 0.316445 2.30437 0
M  V30 1726 C 157.143 -0.568965 1.59559 0
M  V30 1727 O 158.349 -0.454964 1.74155 0
M  V30 1728 H 154.724 0.0836521 0.747333 0
M  V30 1729 H 156.695 1.16606 2.74673 0
M  V30 1730 C 155.444 -0.46635 3.44558 0
M  V30 1731 H 154.767 0.205687 3.99271 0
M  V30 1732 H 156.207 -0.819614 4.16003 0
M  V30 1733 C 154.666 -1.65797 2.9328 0
M  V30 1734 O 155.196 -2.75728 2.92125 0
M  V30 1735 N 153.402 -1.49041 2.4947 0
M  V30 1736 H 152.949 -0.59612 2.50608 0
M  V30 1737 H 152.907 -2.28911 2.15516 0
M  V30 1738 N 156.679 -1.44442 0.630414 0
M  V30 1739 C 157.907 -2.06414 0.141671 0
M  V30 1740 C 158.322 -1.47105 -1.18345 0
M  V30 1741 O 157.679 -0.593662 -1.72574 0
M  V30 1742 C 157.73 -3.61494 0.0199784 0
M  V30 1743 O 157.451 -4.18594 1.29269 0
M  V30 1744 C 158.952 -4.40499 -0.497544 0
M  V30 1745 H 156.172 -0.666292 0.0793452 0
M  V30 1746 H 158.716 -1.85323 0.864614 0
M  V30 1747 H 156.871 -3.8185 -0.653402 0
M  V30 1748 H 157.285 -5.12026 1.13707 0
M  V30 1749 H 158.759 -5.49433 -0.531708 0
M  V30 1750 H 159.236 -4.11895 -1.52445 0
M  V30 1751 H 159.842 -4.25061 0.142562 0
M  V30 1752 N 158.157 -0.370918 -1.53173 0
M  V30 1753 C 159.403 0.217423 -2.01631 0
M  V30 1754 C 159.736 1.47983 -1.25756 0
M  V30 1755 O 159.011 1.91274 -0.352764 0
M  V30 1756 C 159.294 0.503982 -3.56556 0
M  V30 1757 C 159.147 -0.77243 -4.43118 0
M  V30 1758 C 160.466 1.30234 -4.20389 0
M  V30 1759 H 157.585 0.0775486 -0.732909 0
M  V30 1760 H 160.227 -0.496863 -1.83388 0
M  V30 1761 H 158.377 1.11248 -3.72231 0
M  V30 1762 H 160.049 -1.4098 -4.39229 0
M  V30 1763 H 158.292 -1.39167 -4.10871 0
M  V30 1764 H 158.963 -0.526815 -5.4948 0
M  V30 1765 H 161.439 0.787546 -4.08579 0
M  V30 1766 H 160.315 1.47158 -5.28806 0
M  V30 1767 H 160.576 2.31237 -3.76805 0
M  V30 1768 N 159.635 1.57281 -0.100228 0
M  V30 1769 C 160.582 2.14305 0.856858 0
M  V30 1770 C 161.552 1.06296 1.27634 0
M  V30 1771 O 162.737 1.34109 1.35718 0
M  V30 1772 C 159.877 2.73184 2.10866 0
M  V30 1773 C 158.99 3.95442 1.73925 0
M  V30 1774 C 158.125 4.42468 2.93931 0
M  V30 1775 C 157.164 5.57303 2.5314 0
M  V30 1776 N 156.301 5.99158 3.65997 0
M  V30 1777 H 161.141 2.95772 0.363726 0
M  V30 1778 H 158.678 1.46139 0.167858 0
M  V30 1779 H 160.636 3.05442 2.84185 0
M  V30 1780 H 159.266 1.94437 2.57671 0
M  V30 1781 H 158.318 3.69464 0.905554 0
M  V30 1782 H 159.63 4.78769 1.39935 0
M  V30 1783 H 158.784 4.76537 3.75496 0
M  V30 1784 H 157.523 3.58052 3.31134 0
M  V30 1785 H 156.528 5.22857 1.70003 0
M  V30 1786 H 157.753 6.43471 2.17075 0
M  V30 1787 H 155.699 5.17687 4.02909 0
M  V30 1788 H 155.616 6.77295 3.35869 0
M  V30 1789 H 156.884 6.3786 4.48057 0
M  V30 1790 N 161.113 -0.173488 1.56642 0
M  V30 1791 C 162.524 -0.736155 1.71574 0
M  V30 1792 C 162.875 -1.82888 0.710389 0
M  V30 1793 O 162 -2.16017 -0.1287 0
M  V30 1794 C 162.595 -1.34211 3.11083 0
M  V30 1795 C 161.154 -1.85162 3.27707 0
M  V30 1796 C 160.301 -0.729765 2.67525 0
M  V30 1797 H 163.252 0.0518786 1.58615 0
M  V30 1798 H 163.273 -2.21178 3.09613 0
M  V30 1799 H 162.785 -0.546579 3.84232 0
M  V30 1800 H 160.886 -2.67366 2.59512 0
M  V30 1801 H 160.999 -1.99855 4.35425 0
M  V30 1802 H 159.363 -1.14965 2.27278 0
M  V30 1803 H 160.146 0.0538806 3.43258 0
M  V30 1804 N 162.591 -1.51276 -0.441967 0
M  V30 1805 C 163.837 -1.63958 -1.19355 0
M  V30 1806 C 164.17 -0.352543 -1.90973 0
M  V30 1807 O 163.445 0.647627 -1.83401 0
M  V30 1808 C 163.728 -2.83979 -2.21422 0
M  V30 1809 C 163.581 -4.22646 -1.53918 0
M  V30 1810 C 164.9 -2.99521 -3.22451 0
M  V30 1811 H 162.019 -0.596709 -0.432559 0
M  V30 1812 H 164.661 -1.83748 -0.483398 0
M  V30 1813 H 162.811 -2.67237 -2.81987 0
M  V30 1814 H 164.483 -4.51045 -0.967256 0
M  V30 1815 H 162.726 -4.25558 -0.841615 0
M  V30 1816 H 163.397 -5.02609 -2.28229 0
M  V30 1817 H 165.873 -3.14944 -2.71937 0
M  V30 1818 H 164.749 -3.85072 -3.91166 0
M  V30 1819 H 165.01 -2.11391 -3.88287 0
M  V30 1820 N 164.069 0.697108 -1.41344 0
M  V30 1821 C 165.318 1.45279 -1.39918 0
M  V30 1822 C 165.631 1.95597 -0.0109624 0
M  V30 1823 O 166.837 2.71208 0.125919 0
M  V30 1824 C 165.293 2.62695 -2.46007 0
M  V30 1825 C 164.901 2.19169 -3.90729 0
M  V30 1826 C 166.645 3.40336 -2.53715 0
M  V30 1827 C 164.552 3.33535 -4.88373 0
M  V30 1828 H 163.482 0.545692 -0.520323 0
M  V30 1829 H 166.133 0.756929 -1.67161 0
M  V30 1830 H 164.515 3.34541 -2.11892 0
M  V30 1831 H 165.689 1.54623 -4.34083 0
M  V30 1832 H 164.004 1.54525 -3.86666 0
M  V30 1833 H 166.601 4.2547 -3.2385 0
M  V30 1834 H 166.944 3.85418 -1.5735 0
M  V30 1835 H 167.477 2.75546 -2.86913 0
M  V30 1836 H 164.216 2.93468 -5.86137 0
M  V30 1837 H 163.736 3.96936 -4.49668 0
M  V30 1838 H 165.415 3.99335 -5.09059 0
M  V30 1839 N 165.547 1.27147 0.931209 0
M  V30 1840 C 166.796 1.12664 1.67302 0
M  V30 1841 C 167.109 -0.327718 1.92835 0
M  V30 1842 O 168.315 -0.593392 2.64936 0
M  V30 1843 C 166.771 1.9683 3.01307 0
M  V30 1844 C 166.379 3.46901 2.83485 0
M  V30 1845 C 168.123 1.90985 3.79111 0
M  V30 1846 C 166.03 4.23279 4.13024 0
M  V30 1847 H 164.96 0.41803 0.627509 0
M  V30 1848 H 167.611 1.51539 1.03481 0
M  V30 1849 H 165.993 1.50797 3.66164 0
M  V30 1850 H 167.167 4.00773 2.27415 0
M  V30 1851 H 165.482 3.54088 2.19113 0
M  V30 1852 H 168.079 2.45328 4.75098 0
M  V30 1853 H 168.422 0.882718 4.06834 0
M  V30 1854 H 168.955 2.34895 3.21044 0
M  V30 1855 H 165.694 5.26503 3.90481 0
M  V30 1856 H 165.214 3.74186 4.6877 0
M  V30 1857 H 166.893 4.32265 4.81411 0
M  V30 1858 N 167.025 -1.13721 1.09112 0
M  V30 1859 C 168.273 -1.84559 0.823562 0
M  V30 1860 C 168.594 -1.83754 -0.652658 0
M  V30 1861 O 167.864 -1.29102 -1.47342 0
M  V30 1862 H 166.444 -0.683376 0.301673 0
M  V30 1863 H 169.106 -1.37771 1.37859 0
M  V30 1864 H 168.202 -2.8917 1.17419 0
M  V30 1865 N 168.503 -0.877838 -1.30888 0
M  V30 1866 C 169.733 -0.506678 -2.00291 0
M  V30 1867 C 170.141 0.907449 -1.66018 0
M  V30 1868 O 169.484 1.60719 -0.88967 0
M  V30 1869 C 169.546 -0.59323 -3.54572 0
M  V30 1870 C 169.21 -1.97038 -4.12341 0
M  V30 1871 C 170.207 -2.93889 -4.28865 0
M  V30 1872 C 167.892 -2.27383 -4.47886 0
M  V30 1873 C 169.886 -4.19224 -4.80136 0
M  V30 1874 C 167.573 -3.52965 -4.98857 0
M  V30 1875 C 168.571 -4.48701 -5.14934 0
M  V30 1876 O 168.259 -5.72056 -5.64808 0
M  V30 1877 H 167.991 -0.1951 -0.647234 0
M  V30 1878 H 170.545 -1.18301 -1.6791 0
M  V30 1879 H 168.775 0.140057 -3.86446 0
M  V30 1880 H 170.464 -0.234372 -4.05223 0
M  V30 1881 H 171.23 -2.71756 -4.01714 0
M  V30 1882 H 167.109 -1.53639 -4.34645 0
M  V30 1883 H 170.653 -4.93956 -4.92599 0
M  V30 1884 H 166.55 -3.74939 -5.25443 0
M  V30 1885 H 167.318 -5.74337 -5.83163 0
M  V30 1886 N 169.982 1.44106 -0.638065 0
M  V30 1887 C 171.21 2.06336 -0.152615 0
M  V30 1888 C 171.625 1.47731 1.17563 0
M  V30 1889 O 170.982 0.602806 1.72257 0
M  V30 1890 C 171.033 3.61479 -0.0391491 0
M  V30 1891 O 170.754 4.17903 -1.31487 0
M  V30 1892 C 172.255 4.40757 0.474176 0
M  V30 1893 H 169.475 0.665862 -0.0828776 0
M  V30 1894 H 172.019 1.84862 -0.87443 0
M  V30 1895 H 170.174 3.82191 0.633142 0
M  V30 1896 H 170.588 5.11416 -1.16421 0
M  V30 1897 H 172.062 5.49707 0.502562 0
M  V30 1898 H 172.539 4.12697 1.50258 0
M  V30 1899 H 173.145 4.24979 -0.165102 0
M  V30 1900 N 171.46 0.379036 1.52974 0
M  V30 1901 C 172.407 -0.461048 2.26148 0
M  V30 1902 C 173.377 -1.06637 1.27349 0
M  V30 1903 O 174.562 -1.09633 1.56157 0
M  V30 1904 C 171.702 -1.58782 3.06402 0
M  V30 1905 C 170.815 -1.00636 4.20115 0
M  V30 1906 C 169.95 -2.10334 4.87784 0
M  V30 1907 C 168.989 -1.49724 5.93506 0
M  V30 1908 N 168.126 -2.5331 6.54812 0
M  V30 1909 H 172.966 0.169429 2.97518 0
M  V30 1910 H 170.503 0.0953806 1.4679 0
M  V30 1911 H 172.461 -2.25174 3.51215 0
M  V30 1912 H 171.091 -2.18876 2.37261 0
M  V30 1913 H 170.143 -0.232332 3.7969 0
M  V30 1914 H 171.455 -0.523343 4.96047 0
M  V30 1915 H 170.609 -2.84519 5.35849 0
M  V30 1916 H 169.348 -2.61992 4.11353 0
M  V30 1917 H 168.353 -0.740598 5.44789 0
M  V30 1918 H 169.578 -0.988732 6.71864 0
M  V30 1919 H 167.524 -3.04156 5.81227 0
M  V30 1920 H 167.441 -2.09734 7.26325 0
M  V30 1921 H 168.709 -3.27155 7.07524 0
M  V30 1922 N 172.938 -1.57226 0.108567 0
M  V30 1923 C 173.848 -2.18292 -0.859401 0
M  V30 1924 C 174.864 -1.15612 -1.30038 0
M  V30 1925 O 176.04 -1.48039 -1.36552 0
M  V30 1926 C 173.105 -2.762 -2.09558 0
M  V30 1927 C 172.166 -3.93881 -1.70752 0
M  V30 1928 C 171.399 -4.49018 -2.88477 0
M  V30 1929 O 171.622 -4.03068 -4.036 0
M  V30 1930 O 170.556 -5.39852 -2.66164 0
M  V30 1931 H 174.382 -3.01441 -0.369769 0
M  V30 1932 H 171.967 -1.48945 -0.1165 0
M  V30 1933 H 173.849 -3.13156 -2.81978 0
M  V30 1934 H 172.524 -1.96089 -2.57548 0
M  V30 1935 H 171.431 -3.61713 -0.954714 0
M  V30 1936 H 172.764 -4.75396 -1.27513 0
M  V30 1937 N 174.416 0.165178 -1.56732 0
M  V30 1938 C 175.364 1.22369 -1.97809 0
M  V30 1939 C 176.358 1.45488 -0.867741 0
M  V30 1940 O 177.564 1.45995 -1.05288 0
M  V30 1941 H 173.939 0.411486 -0.629431 0
M  V30 1942 H 175.91 0.850425 -2.86025 0
M  V30 1943 C 174.659 2.55403 -2.35934 0
M  V30 1944 H 173.982 2.38438 -3.20916 0
M  V30 1945 H 175.422 3.2814 -2.68514 0
M  V30 1946 C 173.881 3.14611 -1.20506 0
M  V30 1947 O 174.411 3.98626 -0.496016 0
M  V30 1948 N 172.617 2.7379 -0.97403 0
M  V30 1949 H 172.164 2.0557 -1.55238 0
M  V30 1950 H 172.122 3.1374 -0.203573 0
M  V30 1951 N 175.894 1.51508 0.433938 0
M  V30 1952 C 177.305 1.56784 1.01369 0
M  V30 1953 C 177.656 0.393349 1.92217 0
M  V30 1954 O 176.781 -0.489441 2.10792 0
M  V30 1955 C 177.376 2.84144 1.8452 0
M  V30 1956 C 175.935 2.9198 2.37539 0
M  V30 1957 C 175.082 2.51482 1.16843 0
M  V30 1958 H 178.033 1.57236 0.215081 0
M  V30 1959 H 178.054 2.68098 2.70007 0
M  V30 1960 H 177.566 3.69607 1.18373 0
M  V30 1961 H 175.667 2.10955 3.0713 0
M  V30 1962 H 175.78 3.95704 2.70103 0
M  V30 1963 H 174.144 2.04758 1.51481 0
M  V30 1964 H 174.927 3.39293 0.523015 0
M  V30 1965 N 177.372 -0.689602 1.41712 0
M  V30 1966 C 178.788 -1.00093 1.24312 0
M  V30 1967 C 178.988 -2.01036 0.136729 0
M  V30 1968 O 178.044 -2.47562 -0.496918 0
M  V30 1969 C 179.357 -1.51985 2.59463 0
M  V30 1970 C 180.905 -1.63838 2.66695 0
M  V30 1971 C 181.38 -2.1913 4.02177 0
M  V30 1972 N 182.871 -2.26483 4.04054 0
M  V30 1973 C 183.606 -2.70306 5.0569 0
M  V30 1974 N 183.102 -3.13691 6.17713 0
M  V30 1975 N 184.895 -2.69923 4.9305 0
M  V30 1976 H 177.046 -0.0210029 2.1239 0
M  V30 1977 H 179.309 -0.0718733 0.945272 0
M  V30 1978 H 179.015 -0.85269 3.41207 0
M  V30 1979 H 178.889 -2.50103 2.82362 0
M  V30 1980 H 181.276 -2.29664 1.85306 0
M  V30 1981 H 181.357 -0.642492 2.476 0
M  V30 1982 H 181.001 -1.53918 4.84016 0
M  V30 1983 H 180.931 -3.19482 4.18615 0
M  V30 1984 H 183.422 -1.95874 3.23174 0
M  V30 1985 H 183.735 -3.45773 6.9113 0
M  V30 1986 H 182.08 -3.11585 6.21241 0
M  V30 1987 H 185.271 -2.35382 4.04614 0
M  V30 1988 H 185.444 -3.03758 5.72394 0
M  V30 1989 N 178.85 -1.27639 -0.924453 0
M  V30 1990 C 180.261 -1.12834 -1.48746 0
M  V30 1991 C 180.612 0.285505 -1.94112 0
M  V30 1992 O 179.737 1.17874 -1.81479 0
M  V30 1993 C 180.332 -2.04217 -2.70334 0
M  V30 1994 C 178.891 -1.93509 -3.22848 0
M  V30 1995 C 178.038 -1.96583 -1.95577 0
M  V30 1996 H 180.989 -1.40484 -0.738233 0
M  V30 1997 H 181.01 -1.59989 -3.4523 0
M  V30 1998 H 180.522 -3.07111 -2.37285 0
M  V30 1999 H 178.623 -0.936131 -3.60649 0
M  V30 2000 H 178.736 -2.79917 -3.88823 0
M  V30 2001 H 177.1 -1.4085 -2.12211 0
M  V30 2002 H 177.883 -3.01137 -1.64837 0
M  V30 2003 N 180.328 1.1314 -1.09713 0
M  V30 2004 C 181.258 2.20748 -0.761102 0
M  V30 2005 C 182.239 1.68061 0.262566 0
M  V30 2006 O 183.424 1.93765 0.129977 0
M  V30 2007 C 180.554 3.46812 -0.184054 0
M  V30 2008 C 179.508 4.12606 -1.13757 0
M  V30 2009 C 178.834 5.33031 -0.422083 0
M  V30 2010 C 180.134 4.59603 -2.48118 0
M  V30 2011 H 181.828 2.49113 -1.66082 0
M  V30 2012 H 179.374 1.19734 -0.799987 0
M  V30 2013 H 181.327 4.21353 0.0631215 0
M  V30 2014 H 180.051 3.17851 0.750868 0
M  V30 2015 H 178.71 3.40036 -1.37007 0
M  V30 2016 H 178.358 5.00335 0.517072 0
M  V30 2017 H 178.058 5.77999 -1.05788 0
M  V30 2018 H 179.582 6.10325 -0.183277 0
M  V30 2019 H 180.996 5.25552 -2.29059 0
M  V30 2020 H 179.393 5.15321 -3.07514 0
M  V30 2021 H 180.463 3.73971 -3.08665 0
M  V30 2022 N 181.806 0.884767 1.30421 0
M  V30 2023 C 182.716 0.355398 2.31892 0
M  V30 2024 C 183.732 -0.542261 1.65335 0
M  V30 2025 O 184.908 -0.435432 1.96637 0
M  V30 2026 C 181.973 -0.421661 3.44126 0
M  V30 2027 C 181.034 0.505727 4.26311 0
M  V30 2028 C 180.267 -0.234343 5.33185 0
M  V30 2029 O 180.49 -1.46045 5.51386 0
M  V30 2030 O 179.424 0.415443 6.00465 0
M  V30 2031 H 183.25 1.19685 2.79122 0
M  V30 2032 H 180.835 0.648596 1.34587 0
M  V30 2033 H 182.717 -0.861641 4.12497 0
M  V30 2034 H 181.392 -1.23942 2.99032 0
M  V30 2035 H 180.299 0.994513 3.60639 0
M  V30 2036 H 181.632 1.28948 4.75009 0
M  V30 2037 N 183.284 -1.43765 0.645699 0
M  V30 2038 C 184.232 -2.32516 -0.0624849 0
M  V30 2039 C 185.226 -1.48183 -0.820855 0
M  V30 2040 O 186.432 -1.64439 -0.732106 0
M  V30 2041 H 182.807 -0.750989 -0.0389864 0
M  V30 2042 H 184.778 -2.89979 0.703892 0
M  V30 2043 C 183.527 -3.32389 -1.02044 0
M  V30 2044 H 182.85 -3.97301 -0.446312 0
M  V30 2045 H 184.29 -3.97138 -1.48517 0
M  V30 2046 C 182.749 -2.62416 -2.11281 0
M  V30 2047 O 183.279 -2.434 -3.19561 0
M  V30 2048 N 181.485 -2.21913 -1.87624 0
M  V30 2049 H 181.032 -2.37578 -0.995703 0
M  V30 2050 H 180.99 -1.75424 -2.6091 0
M  V30 2051 N 184.763 -0.387143 -1.52771 0
M  V30 2052 C 185.693 0.440551 -2.29306 0
M  V30 2053 C 186.674 1.06535 -1.32606 0
M  V30 2054 O 187.859 1.07853 -1.61497 0
M  V30 2055 C 184.989 1.56919 -3.09829 0
M  V30 2056 C 183.943 1.07054 -4.14395 0
M  V30 2057 C 183.269 2.29109 -4.83129 0
M  V30 2058 C 184.569 0.140015 -5.22112 0
M  V30 2059 H 186.263 -0.198026 -2.98744 0
M  V30 2060 H 183.809 -0.09668 -1.43675 0
M  V30 2061 H 185.762 2.15503 -3.62128 0
M  V30 2062 H 184.486 2.23532 -2.3812 0
M  V30 2063 H 183.145 0.507247 -3.63074 0
M  V30 2064 H 182.793 2.94227 -4.0797 0
M  V30 2065 H 182.493 1.96406 -5.53804 0
M  V30 2066 H 184.017 2.88339 -5.38231 0
M  V30 2067 H 185.431 0.633978 -5.69784 0
M  V30 2068 H 183.828 -0.0971485 -6.00021 0
M  V30 2069 H 184.898 -0.811711 -4.78058 0
M  V30 2070 N 186.241 1.57166 -0.116904 0
M  V30 2071 C 187.151 2.18745 0.847812 0
M  V30 2072 C 188.167 1.163 1.29423 0
M  V30 2073 O 189.343 1.48761 1.35765 0
M  V30 2074 C 186.408 2.77307 2.0809 0
M  V30 2075 C 185.469 3.94781 1.68661 0
M  V30 2076 C 184.702 4.50541 2.86091 0
M  V30 2077 O 184.925 4.05202 4.01456 0
M  V30 2078 O 183.859 5.41256 2.63298 0
M  V30 2079 H 187.685 3.01632 0.353778 0
M  V30 2080 H 185.27 1.49005 0.108599 0
M  V30 2081 H 187.152 3.14647 2.80313 0
M  V30 2082 H 185.827 1.97452 2.56504 0
M  V30 2083 H 184.734 3.62214 0.935518 0
M  V30 2084 H 186.067 4.76065 1.24991 0
M  V30 2085 N 187.719 -0.156864 1.56817 0
M  V30 2086 C 188.666 -1.19394 1.97519 0
M  V30 2087 C 189.636 -1.4322 0.841265 0
M  V30 2088 O 190.821 -1.55719 1.10255 0
M  V30 2089 C 187.961 -2.52483 2.35258 0
M  V30 2090 C 187.074 -2.35914 3.61896 0
M  V30 2091 C 186.209 -3.61969 3.88782 0
M  V30 2092 C 185.248 -3.40395 5.08722 0
M  V30 2093 N 184.385 -4.58556 5.31668 0
M  V30 2094 H 189.225 -0.839845 2.85921 0
M  V30 2095 H 186.762 -0.403264 1.41464 0
M  V30 2096 H 188.72 -3.30071 2.55165 0
M  V30 2097 H 187.35 -2.85859 1.49949 0
M  V30 2098 H 186.402 -1.49429 3.49821 0
M  V30 2099 H 187.714 -2.15926 4.49641 0
M  V30 2100 H 186.868 -4.47989 4.09135 0
M  V30 2101 H 185.607 -3.84951 2.9944 0
M  V30 2102 H 184.612 -2.52763 4.88253 0
M  V30 2103 H 185.837 -3.18822 5.99608 0
M  V30 2104 H 183.783 -4.81729 4.45279 0
M  V30 2105 H 183.7 -4.41535 6.13664 0
M  V30 2106 H 184.968 -5.45817 5.5651 0
M  V30 2107 N 189.197 -1.51736 -0.425897 0
M  V30 2108 C 190.445 -1.64644 -1.17204 0
M  V30 2109 C 190.766 -0.370486 -1.91448 0
M  V30 2110 O 190.036 0.614088 -1.86026 0
M  V30 2111 H 188.616 -0.606819 -0.435638 0
M  V30 2112 H 191.278 -1.88713 -0.487177 0
M  V30 2113 H 190.374 -2.47958 -1.89534 0
M  V30 2114 N 190.675 0.682077 -1.42076 0
M  V30 2115 C 191.921 1.44428 -1.42367 0
M  V30 2116 C 192.254 1.94164 -0.0373056 0
M  V30 2117 O 191.529 1.70429 0.937239 0
M  V30 2118 C 191.812 2.64654 -2.44194 0
M  V30 2119 C 191.665 2.20596 -3.91991 0
M  V30 2120 C 192.984 3.66865 -2.431 0
M  V30 2121 H 190.103 0.523834 -0.518428 0
M  V30 2122 H 192.745 0.77576 -1.73442 0
M  V30 2123 H 190.895 3.2169 -2.17826 0
M  V30 2124 H 192.567 1.68783 -4.29313 0
M  V30 2125 H 190.81 1.52242 -4.06208 0
M  V30 2126 H 191.481 3.06921 -4.58807 0
M  V30 2127 H 193.957 3.19531 -2.66532 0
M  V30 2128 H 192.833 4.48577 -3.16339 0
M  V30 2129 H 193.094 4.17493 -1.45437 0
M  V30 2130 N 192.153 1.28127 0.917671 0
M  V30 2131 C 193.1 1.11717 2.0196 0
M  V30 2132 C 194.07 0.0153929 1.66093 0
M  V30 2133 O 195.255 0.179596 1.89953 0
M  V30 2134 C 192.395 0.780927 3.36148 0
M  V30 2135 C 191.508 1.96135 3.84909 0
M  V30 2136 C 190.643 1.56609 5.0759 0
M  V30 2137 C 189.682 2.71339 5.48673 0
M  V30 2138 N 188.819 2.32332 6.62545 0
M  V30 2139 H 193.659 2.06003 2.15329 0
M  V30 2140 H 191.196 1.02535 1.05475 0
M  V30 2141 H 193.154 0.56675 4.13333 0
M  V30 2142 H 191.784 -0.124998 3.22558 0
M  V30 2143 H 190.836 2.28777 3.03916 0
M  V30 2144 H 192.148 2.82165 4.1132 0
M  V30 2145 H 191.302 1.31374 5.92305 0
M  V30 2146 H 190.041 0.677014 4.82978 0
M  V30 2147 H 189.046 2.97276 4.62501 0
M  V30 2148 H 190.271 3.60882 5.75274 0
M  V30 2149 H 188.217 1.45889 6.39572 0
M  V30 2150 H 188.134 3.11899 6.88662 0
M  V30 2151 H 189.402 2.10371 7.50576 0
M  V30 2152 N 193.631 -1.12557 1.10312 0
M  V30 2153 C 194.594 -2.16434 0.75424 0
M  V30 2154 C 195.594 -1.59278 -0.220685 0
M  V30 2155 O 196.784 -1.742 0.00230591 0
M  V30 2156 C 193.916 -3.40699 0.116987 0
M  V30 2157 H 195.109 -2.48811 1.67431 0
M  V30 2158 H 192.662 -1.27542 0.903475 0
M  V30 2159 H 193.397 -3.13921 -0.813877 0
M  V30 2160 H 193.182 -3.83459 0.818613 0
M  V30 2161 H 194.672 -4.17451 -0.111387 0
M  V30 2162 N 195.109 -0.891671 -1.2995 0
M  V30 2163 C 196.337 -0.52866 -2.00032 0
M  V30 2164 C 196.752 0.884574 -1.66795 0
M  V30 2165 O 196.109 1.5827 -0.908669 0
M  V30 2166 C 196.16 -0.701814 -3.54622 0
M  V30 2167 O 195.881 -2.05942 -3.86678 0
M  V30 2168 C 197.382 -0.342683 -4.41973 0
M  V30 2169 H 194.602 -0.203659 -0.639347 0
M  V30 2170 H 197.146 -1.19881 -1.65677 0
M  V30 2171 H 195.301 -0.0789468 -3.8732 0
M  V30 2172 H 195.715 -2.08291 -4.81368 0
M  V30 2173 H 197.189 -0.514709 -5.49595 0
M  V30 2174 H 197.666 0.71975 -4.33262 0
M  V30 2175 H 198.272 -0.942154 -4.14733 0
M  V30 2176 N 196.587 1.43421 -0.653314 0
M  V30 2177 C 197.834 2.01812 -0.166745 0
M  V30 2178 C 198.162 1.51535 1.21931 0
M  V30 2179 O 197.417 0.698975 1.82792 0
M  V30 2180 C 197.716 3.57176 -0.126623 0
M  V30 2181 C 197.382 4.26798 -1.45444 0
M  V30 2182 C 196.044 4.45534 -1.81805 0
M  V30 2183 C 198.396 4.66225 -2.32989 0
M  V30 2184 C 195.724 5.00961 -3.05377 0
M  V30 2185 C 198.076 5.23021 -3.55853 0
M  V30 2186 C 196.74 5.39973 -3.9241 0
M  V30 2187 H 196.01 0.738484 -0.0610162 0
M  V30 2188 H 198.657 1.71896 -0.84404 0
M  V30 2189 H 196.962 3.86634 0.634123 0
M  V30 2190 H 198.659 4.00112 0.266723 0
M  V30 2191 H 195.249 4.12561 -1.16153 0
M  V30 2192 H 199.433 4.51443 -2.06187 0
M  V30 2193 H 194.689 5.12271 -3.3375 0
M  V30 2194 H 198.863 5.52518 -4.23907 0
M  V30 2195 H 196.49 5.82687 -4.88242 0
M  V30 2196 N 198.065 0.39524 1.52563 0
M  V30 2197 C 199.311 -0.185318 2.01952 0
M  V30 2198 C 199.644 -1.45964 1.28095 0
M  V30 2199 O 198.919 -1.90689 0.38315 0
M  V30 2200 C 199.202 -0.447193 3.57312 0
M  V30 2201 C 199.055 0.842828 4.41833 0
M  V30 2202 C 200.374 -1.23529 4.22408 0
M  V30 2203 H 197.493 -0.0658788 0.73405 0
M  V30 2204 H 200.135 0.525975 1.82575 0
M  V30 2205 H 198.285 -1.05312 3.73954 0
M  V30 2206 H 199.957 1.4795 4.36931 0
M  V30 2207 H 198.2 1.45686 4.08605 0
M  V30 2208 H 198.871 0.614165 5.48573 0
M  V30 2209 H 201.347 -0.722445 4.0978 0
M  V30 2210 H 200.223 -1.38727 5.3108 0
M  V30 2211 H 200.484 -2.25213 3.80436 0
M  V30 2212 N 199.544 -1.57102 0.125237 0
M  V30 2213 C 200.454 -2.19191 -0.8362 0
M  V30 2214 C 201.47 -1.16985 -1.28805 0
M  V30 2215 O 202.646 -1.49479 -1.34974 0
M  V30 2216 C 199.711 -2.78407 -2.06617 0
M  V30 2217 C 198.772 -3.9567 -1.66565 0
M  V30 2218 C 198.005 -4.52052 -2.83698 0
M  V30 2219 O 198.228 -4.07326 -3.99302 0
M  V30 2220 O 197.162 -5.42645 -2.60423 0
M  V30 2221 H 200.988 -3.01816 -0.337776 0
M  V30 2222 H 198.573 -1.4906 -0.100695 0
M  V30 2223 H 200.455 -3.16129 -2.7864 0
M  V30 2224 H 199.13 -1.9881 -2.55453 0
M  V30 2225 H 198.037 -3.62705 -0.916296 0
M  V30 2226 H 199.37 -4.76722 -1.22464 0
M  V30 2227 N 201.022 0.148545 -1.56898 0
M  V30 2228 C 202.299 0.890019 -1.74178 0
M  V30 2229 C 202.679 1.99407 -0.692839 0
M  V30 2230 O 202.027 2.26671 0.288505 0
M  V30 2231 C 202.237 1.43389 -3.18183 0
M  V30 2232 C 203.585 1.89791 -3.79822 0
M  V30 2233 O 204.609 1.53134 -3.21603 0
M  V30 2234 O 203.468 2.57387 -4.82093 0
M  V30 2235 H 200.562 0.420496 -0.712118 0
M  V30 2236 H 203.108 0.134591 -1.69165 0
M  V30 2237 H 201.88 0.640383 -3.86024 0
M  V30 2238 H 201.503 2.25287 -3.27615 0
M  V30 2239 N 202.5 1.5196 0.417844 0
M  V30 2240 C 203.749 1.6482 1.16264 0
M  V30 2241 C 204.062 0.379886 1.91876 0
M  V30 2242 O 205.268 0.388154 2.68711 0
M  V30 2243 C 203.724 2.91161 2.1155 0
M  V30 2244 C 203.332 4.25068 1.41495 0
M  V30 2245 C 205.076 3.13383 2.86341 0
M  V30 2246 C 202.983 5.42541 2.35379 0
M  V30 2247 H 201.913 0.613954 0.437694 0
M  V30 2248 H 204.564 1.78442 0.427871 0
M  V30 2249 H 202.946 2.71218 2.88543 0
M  V30 2250 H 204.12 4.55463 0.699263 0
M  V30 2251 H 202.435 4.0888 0.787792 0
M  V30 2252 H 205.032 3.98324 3.5671 0
M  V30 2253 H 205.375 2.27256 3.48798 0
M  V30 2254 H 205.908 3.33757 2.1645 0
M  V30 2255 H 202.647 6.30987 1.77582 0
M  V30 2256 H 202.167 5.16497 3.04945 0
M  V30 2257 H 203.846 5.75272 2.96093 0
M  V30 2258 N 203.978 -0.674533 1.42435 0
M  V30 2259 C 205.394 -0.98769 1.25367 0
M  V30 2260 C 205.594 -2.00879 0.158044 0
M  V30 2261 O 204.65 -2.48075 -0.470633 0
M  V30 2262 C 205.963 -1.49224 2.6106 0
M  V30 2263 C 207.511 -1.61 2.68417 0
M  V30 2264 C 207.986 -2.14852 4.04478 0
M  V30 2265 N 209.477 -2.22185 4.06434 0
M  V30 2266 C 210.212 -2.64928 5.08528 0
M  V30 2267 N 209.708 -3.07121 6.21006 0
M  V30 2268 N 211.501 -2.64679 4.95885 0
M  V30 2269 H 203.652 0.00152503 2.124 0
M  V30 2270 H 205.915 -0.0618434 0.945981 0
M  V30 2271 H 205.621 -0.816453 3.42092 0
M  V30 2272 H 205.495 -2.47094 2.84999 0
M  V30 2273 H 207.882 -2.27686 1.87732 0
M  V30 2274 H 207.963 -0.616195 2.48267 0
M  V30 2275 H 207.607 -1.48775 4.85622 0
M  V30 2276 H 207.537 -3.15024 4.2198 0
M  V30 2277 H 210.028 -1.92435 3.25234 0
M  V30 2278 H 210.341 -3.38423 6.94759 0
M  V30 2279 H 208.686 -3.04978 6.24511 0
M  V30 2280 H 211.877 -2.31078 4.07088 0
M  V30 2281 H 212.05 -2.9767 5.75584 0
M  V30 2282 N 205.456 -1.28612 -0.910864 0
M  V30 2283 C 206.702 -1.17116 -1.66299 0
M  V30 2284 C 207.057 0.276917 -1.90397 0
M  V30 2285 O 206.35 1.19795 -1.49532 0
M  V30 2286 C 206.544 -1.90624 -3.0232 0
M  V30 2287 C 206.373 -3.42431 -2.91498 0
M  V30 2288 C 205.143 -4.11773 -2.92867 0
M  V30 2289 C 207.341 -4.38124 -2.69355 0
M  V30 2290 N 205.323 -5.50025 -2.72664 0
M  V30 2291 C 206.694 -5.63759 -2.58023 0
M  V30 2292 C 208.749 -4.28016 -2.54375 0
M  V30 2293 C 207.452 -6.80436 -2.33238 0
M  V30 2294 C 209.478 -5.44433 -2.30969 0
M  V30 2295 C 208.84 -6.69034 -2.20394 0
M  V30 2296 H 204.939 -0.483506 -0.61461 0
M  V30 2297 H 207.523 -1.62299 -1.0755 0
M  V30 2298 H 205.694 -1.4787 -3.5915 0
M  V30 2299 H 207.426 -1.71488 -3.66571 0
M  V30 2300 H 204.181 -3.63378 -3.03732 0
M  V30 2301 H 204.605 -6.22705 -2.65646 0
M  V30 2302 H 209.247 -3.32388 -2.613 0
M  V30 2303 H 206.965 -7.7613 -2.25051 0
M  V30 2304 H 210.551 -5.38504 -2.20238 0
M  V30 2305 H 209.431 -7.57595 -2.02531 0
M  V30 2306 N 206.934 1.1197 -1.10907 0
M  V30 2307 C 207.864 2.19928 -0.784473 0
M  V30 2308 C 208.845 1.6833 0.244726 0
M  V30 2309 O 210.03 1.93892 0.109418 0
M  V30 2310 C 207.16 3.46597 -0.220827 0
M  V30 2311 C 206.114 4.11376 -1.18127 0
M  V30 2312 C 205.44 5.32554 -0.478594 0
M  V30 2313 C 206.74 4.56945 -2.52979 0
M  V30 2314 H 208.434 2.47337 -1.68715 0
M  V30 2315 H 205.98 1.18879 -0.812642 0
M  V30 2316 H 207.933 4.21396 0.0184278 0
M  V30 2317 H 206.657 3.1863 0.717113 0
M  V30 2318 H 205.316 3.38564 -1.40606 0
M  V30 2319 H 204.964 5.00856 0.463976 0
M  V30 2320 H 204.664 5.76844 -1.11912 0
M  V30 2321 H 206.188 6.10096 -0.248 0
M  V30 2322 H 207.602 5.23093 -2.3462 0
M  V30 2323 H 205.999 5.1203 -3.12962 0
M  V30 2324 H 207.069 3.70676 -3.12614 0
M  V30 2325 N 208.412 0.89855 1.29475 0
M  V30 2326 C 209.828 0.594483 1.48115 0
M  V30 2327 C 210.028 -0.86431 1.82022 0
M  V30 2328 O 209.084 -1.64457 1.91599 0
M  V30 2329 C 210.397 1.51932 2.59494 0
M  V30 2330 C 211.945 1.5244 2.7337 0
M  V30 2331 C 212.42 2.43548 3.87877 0
M  V30 2332 N 213.911 2.41589 3.95208 0
M  V30 2333 C 214.646 3.08789 4.83153 0
M  V30 2334 N 214.142 3.85265 5.75798 0
M  V30 2335 N 215.935 2.97952 4.76635 0
M  V30 2336 H 208.086 1.84207 1.05742 0
M  V30 2337 H 210.349 0.789251 0.525154 0
M  V30 2338 H 210.055 2.55865 2.41301 0
M  V30 2339 H 209.929 1.23899 3.56271 0
M  V30 2340 H 212.316 0.492518 2.90961 0
M  V30 2341 H 212.397 1.8451 1.77172 0
M  V30 2342 H 212.041 3.46829 3.71041 0
M  V30 2343 H 211.971 2.08788 4.83441 0
M  V30 2344 H 214.462 1.86025 3.28943 0
M  V30 2345 H 214.775 4.33598 6.39697 0
M  V30 2346 H 213.12 3.89371 5.75687 0
M  V30 2347 H 216.311 2.37723 4.03244 0
M  V30 2348 H 216.484 3.50599 5.44962 0
M  V30 2349 N 209.89 -1.43072 0.660911 0
M  V30 2350 C 211.13 -2.03596 0.181146 0
M  V30 2351 C 211.494 -1.51057 -1.18515 0
M  V30 2352 O 212.695 -2.03275 -1.75877 0
M  V30 2353 C 210.966 -3.56845 0.19911 0
M  V30 2354 S 212.525 -4.38289 -0.211684 0
M  V30 2355 H 209.343 -0.706954 0.0757479 0
M  V30 2356 H 211.945 -1.75027 0.870965 0
M  V30 2357 H 210.649 -3.92583 1.1961 0
M  V30 2358 H 210.18 -3.90067 -0.510996 0
M  V30 2359 H 212.195 -4.74583 -1.44863 0
M  V30 2360 N 211.368 -0.403325 -1.52352 0
M  V30 2361 C 212.645 0.232611 -1.94212 0
M  V30 2362 C 213.025 1.63133 -1.33981 0
M  V30 2363 O 212.373 2.22659 -0.513344 0
M  V30 2364 C 212.583 0.244811 -3.4814 0
M  V30 2365 C 213.931 0.46698 -4.22024 0
M  V30 2366 O 214.955 0.324419 -3.5472 0
M  V30 2367 O 213.814 0.74747 -5.41364 0
M  V30 2368 H 210.908 0.148223 -0.813609 0
M  V30 2369 H 213.454 -0.458848 -1.63379 0
M  V30 2370 H 212.226 -0.734378 -3.84347 0
M  V30 2371 H 211.849 0.980611 -3.85318 0
M  V30 2372 N 212.846 1.57033 -0.133567 0
M  V30 2373 C 214.095 1.94861 0.520768 0
M  V30 2374 C 214.408 1.02012 1.66892 0
M  V30 2375 O 215.614 1.29365 2.38699 0
M  V30 2376 C 214.07 3.46362 0.977809 0
M  V30 2377 C 213.678 4.47773 -0.142674 0
M  V30 2378 C 215.422 3.93083 1.60269 0
M  V30 2379 C 213.329 5.90468 0.331883 0
M  V30 2380 H 212.259 0.727453 0.198315 0
M  V30 2381 H 214.91 1.82227 -0.215759 0
M  V30 2382 H 213.292 3.54282 1.7692 0
M  V30 2383 H 214.466 4.51536 -0.919317 0
M  V30 2384 H 212.781 4.10891 -0.675124 0
M  V30 2385 H 215.378 4.97121 1.96914 0
M  V30 2386 H 215.721 3.33876 2.48662 0
M  V30 2387 H 216.254 3.88025 0.876453 0
M  V30 2388 H 212.993 6.53463 -0.516341 0
M  V30 2389 H 212.513 5.90094 1.07469 0
M  V30 2390 H 214.192 6.42179 0.788332 0
M  V30 2391 N 214.325 -0.140222 1.56975 0
M  V30 2392 C 215.272 -1.17292 1.98774 0
M  V30 2393 C 216.242 -1.4232 0.856408 0
M  V30 2394 O 217.427 -1.54541 1.119 0
M  V30 2395 C 214.567 -2.49973 2.37923 0
M  V30 2396 C 213.68 -2.32062 3.64378 0
M  V30 2397 C 212.815 -3.57825 3.926 0
M  V30 2398 C 211.854 -3.3498 5.12303 0
M  V30 2399 N 210.991 -4.52891 5.36502 0
M  V30 2400 H 215.831 -0.809472 2.86795 0
M  V30 2401 H 213.368 -0.388237 1.41884 0
M  V30 2402 H 215.326 -3.27346 2.58652 0
M  V30 2403 H 213.956 -2.84252 1.52972 0
M  V30 2404 H 213.008 -1.45711 3.51387 0
M  V30 2405 H 214.32 -2.11145 4.51906 0
M  V30 2406 H 213.474 -4.43624 4.13863 0
M  V30 2407 H 212.213 -3.81753 3.03506 0
M  V30 2408 H 211.218 -2.4757 4.90906 0
M  V30 2409 H 212.443 -3.12444 6.02956 0
M  V30 2410 H 210.389 -4.76979 4.50363 0
M  V30 2411 H 210.306 -4.35001 6.18312 0
M  V30 2412 H 211.574 -5.39884 5.62268 0
M  V30 2413 N 215.803 -1.52179 -0.40978 0
M  V30 2414 C 217.028 -1.70347 -1.18308 0
M  V30 2415 C 217.453 -0.411887 -1.83535 0
M  V30 2416 O 216.811 0.630587 -1.6998 0
M  V30 2417 C 216.859 -2.83977 -2.22238 0
M  V30 2418 O 215.963 -2.495 -3.28365 0
M  V30 2419 H 215.304 -0.567103 -0.345384 0
M  V30 2420 H 217.834 -1.98879 -0.480445 0
M  V30 2421 H 217.844 -3.0887 -2.66577 0
M  V30 2422 H 216.519 -3.77685 -1.74146 0
M  V30 2423 H 215.096 -2.35277 -2.89308 0
M  V30 2424 N 217.281 0.66697 -1.42791 0
M  V30 2425 C 218.211 1.79218 -1.49677 0
M  V30 2426 C 219.192 1.66405 -0.352623 0
M  V30 2427 O 220.377 1.85708 -0.567993 0
M  V30 2428 C 217.507 3.17565 -1.40605 0
M  V30 2429 C 216.461 3.45124 -2.53127 0
M  V30 2430 C 215.787 4.83127 -2.29112 0
M  V30 2431 C 217.087 3.41236 -3.95418 0
M  V30 2432 H 218.781 1.73713 -2.43853 0
M  V30 2433 H 216.327 0.83432 -1.17367 0
M  V30 2434 H 218.28 3.96022 -1.44029 0
M  V30 2435 H 217.004 3.23767 -0.429271 0
M  V30 2436 H 215.663 2.69031 -2.49034 0
M  V30 2437 H 215.311 4.85988 -1.29709 0
M  V30 2438 H 215.011 5.02528 -3.04531 0
M  V30 2439 H 216.535 5.63859 -2.34297 0
M  V30 2440 H 217.949 4.09651 -4.01073 0
M  V30 2441 H 216.346 3.72173 -4.70752 0
M  V30 2442 H 217.416 2.39665 -4.21532 0
M  V30 2443 N 218.759 1.29093 0.90403 0
M  V30 2444 C 219.707 1.13727 2.02901 0
M  V30 2445 C 220.701 0.0539853 1.69314 0
M  V30 2446 O 221.907 0.213469 1.7873 0
M  V30 2447 H 218.282 0.35117 0.664969 0
M  V30 2448 H 220.253 2.08982 2.13001 0
M  V30 2449 C 219.002 0.826066 3.37745 0
M  V30 2450 H 218.325 1.65164 3.64089 0
M  V30 2451 H 219.765 0.758559 4.17159 0
M  V30 2452 C 218.224 -0.470541 3.33598 0
M  V30 2453 O 218.754 -1.49792 3.72727 0
M  V30 2454 N 216.96 -0.474812 2.86695 0
M  V30 2455 H 216.507 0.361692 2.55048 0
M  V30 2456 H 216.465 -1.34236 2.84303 0
M  V30 2457 N 220.237 -1.11381 1.11499 0
M  V30 2458 C 221.167 -2.19509 0.796125 0
M  V30 2459 C 222.148 -1.68458 -0.235796 0
M  V30 2460 O 223.333 -1.93947 -0.0991344 0
M  V30 2461 C 220.463 -3.46475 0.239205 0
M  V30 2462 C 219.417 -4.10744 1.20307 0
M  V30 2463 C 218.743 -5.32293 0.50683 0
M  V30 2464 C 220.043 -4.55597 2.55399 0
M  V30 2465 H 221.737 -2.46439 1.70024 0
M  V30 2466 H 219.283 -1.18446 0.818935 0
M  V30 2467 H 221.236 -4.214 0.00392006 0
M  V30 2468 H 219.96 -3.19006 -0.700206 0
M  V30 2469 H 218.619 -3.37813 1.42399 0
M  V30 2470 H 218.267 -5.01095 -0.437408 0
M  V30 2471 H 217.967 -5.76243 1.1497 0
M  V30 2472 H 219.491 -6.09956 0.280351 0
M  V30 2473 H 220.905 -5.21841 2.37391 0
M  V30 2474 H 219.302 -5.10363 3.15673 0
M  V30 2475 H 220.372 -3.69013 3.14575 0
M  V30 2476 N 221.715 -0.905404 -1.28997 0
M  V30 2477 C 222.645 -0.404212 -2.29975 0
M  V30 2478 C 223.626 0.523784 -1.61835 0
M  V30 2479 O 224.811 0.433298 -1.89304 0
M  V30 2480 C 221.941 0.364042 -3.45387 0
M  V30 2481 C 220.895 -0.474048 -4.25367 0
M  V30 2482 C 220.221 0.422045 -5.33032 0
M  V30 2483 C 221.521 -1.72696 -4.92923 0
M  V30 2484 H 223.215 -1.24807 -2.72146 0
M  V30 2485 H 220.761 -0.601585 -1.30832 0
M  V30 2486 H 222.714 0.725447 -4.15109 0
M  V30 2487 H 221.438 1.24174 -3.02074 0
M  V30 2488 H 220.097 -0.81786 -3.57361 0
M  V30 2489 H 219.745 1.29804 -4.85963 0
M  V30 2490 H 219.445 -0.135057 -5.87445 0
M  V30 2491 H 220.969 0.779517 -6.05604 0
M  V30 2492 H 222.383 -1.43495 -5.55051 0
M  V30 2493 H 220.78 -2.22582 -5.57295 0
M  V30 2494 H 221.85 -2.45964 -4.17887 0
M  V30 2495 N 223.193 1.4272 -0.668489 0
M  V30 2496 C 224.441 2.01226 -0.187769 0
M  V30 2497 C 224.762 1.53092 1.2078 0
M  V30 2498 O 224.032 0.74993 1.80977 0
M  V30 2499 H 222.612 0.744041 -0.0664272 0
M  V30 2500 H 225.274 1.74723 -0.863583 0
M  V30 2501 H 224.37 3.11556 -0.184166 0
M  V30 2502 N 224.671 0.411399 1.52136 0
M  V30 2503 C 225.634 -0.401089 2.25663 0
M  V30 2504 C 226.634 -0.971732 1.28117 0
M  V30 2505 O 227.824 -0.850254 1.52041 0
M  V30 2506 C 224.956 -1.56483 3.02863 0
M  V30 2507 H 226.149 0.24295 2.98914 0
M  V30 2508 H 223.702 0.163968 1.55438 0
M  V30 2509 H 224.437 -2.24567 2.33967 0
M  V30 2510 H 224.222 -1.16211 3.74483 0
M  V30 2511 H 225.712 -2.13951 3.58629 0
M  V30 2512 N 226.149 -1.5696 0.141893 0
M  V30 2513 C 227.395 -1.9625 -0.511248 0
M  V30 2514 C 227.728 -1.02654 -1.64851 0
M  V30 2515 O 227.003 -0.0679676 -1.94381 0
M  V30 2516 C 227.286 -3.45285 -1.02227 0
M  V30 2517 C 227.139 -4.49658 0.113138 0
M  V30 2518 C 228.458 -3.96698 -1.90574 0
M  V30 2519 H 225.577 -0.713567 -0.184367 0
M  V30 2520 H 228.219 -1.88698 0.222087 0
M  V30 2521 H 226.369 -3.51852 -1.64719 0
M  V30 2522 H 228.041 -4.55174 0.749302 0
M  V30 2523 H 226.284 -4.26857 0.773026 0
M  V30 2524 H 226.955 -5.51258 -0.286053 0
M  V30 2525 H 229.431 -3.92578 -1.37918 0
M  V30 2526 H 228.307 -5.01453 -2.2324 0
M  V30 2527 H 228.568 -3.3875 -2.84079 0
M  V30 2528 N 227.627 0.131896 -1.57047 0
M  V30 2529 C 228.557 1.16384 -2.02428 0
M  V30 2530 C 229.538 1.43936 -0.90644 0
M  V30 2531 O 230.723 1.54599 -1.17528 0
M  V30 2532 C 227.853 2.49328 -2.4177 0
M  V30 2533 C 226.807 2.36266 -3.56879 0
M  V30 2534 C 226.133 3.74057 -3.8208 0
M  V30 2535 C 227.433 1.834 -4.89042 0
M  V30 2536 H 229.127 0.786433 -2.88887 0
M  V30 2537 H 226.673 0.376855 -1.38981 0
M  V30 2538 H 228.626 3.21759 -2.7212 0
M  V30 2539 H 227.35 2.88934 -1.52266 0
M  V30 2540 H 226.009 1.66286 -3.26718 0
M  V30 2541 H 225.657 4.11125 -2.89803 0
M  V30 2542 H 225.357 3.66174 -4.59554 0
M  V30 2543 H 226.881 4.48012 -4.1487 0
M  V30 2544 H 228.295 2.45636 -5.18011 0
M  V30 2545 H 226.692 1.8637 -5.70426 0
M  V30 2546 H 227.762 0.790662 -4.7841 0
M  V30 2547 N 229.106 1.52395 0.401703 0
M  V30 2548 C 230.069 1.75636 1.47257 0
M  V30 2549 C 231.069 0.62628 1.48103 0
M  V30 2550 O 232.259 0.894227 1.49497 0
M  V30 2551 C 229.391 1.84553 2.86624 0
M  V30 2552 H 230.584 2.71241 1.27938 0
M  V30 2553 H 228.137 1.42923 0.632662 0
M  V30 2554 H 228.872 0.908882 3.11303 0
M  V30 2555 H 228.657 2.66715 2.87412 0
M  V30 2556 H 230.147 2.04251 3.64241 0
M  V30 2557 N 230.584 -0.659388 1.43143 0
M  V30 2558 C 231.531 -1.77249 1.47822 0
M  V30 2559 C 232.501 -1.62818 0.328558 0
M  V30 2560 O 233.686 -1.83151 0.534838 0
M  V30 2561 C 230.826 -3.15371 1.40126 0
M  V30 2562 C 229.939 -3.4098 2.65249 0
M  V30 2563 C 229.074 -4.68915 2.49584 0
M  V30 2564 C 228.113 -4.87608 3.70006 0
M  V30 2565 N 227.25 -6.06796 3.53189 0
M  V30 2566 H 232.09 -1.72584 2.42938 0
M  V30 2567 H 229.627 -0.842297 1.20598 0
M  V30 2568 H 231.585 -3.9521 1.33659 0
M  V30 2569 H 230.215 -3.19121 0.485964 0
M  V30 2570 H 229.267 -2.55282 2.8202 0
M  V30 2571 H 230.579 -3.50681 3.54717 0
M  V30 2572 H 229.733 -5.56871 2.4079 0
M  V30 2573 H 228.472 -4.61524 1.5763 0
M  V30 2574 H 227.477 -3.9809 3.79215 0
M  V30 2575 H 228.702 -4.96834 4.62961 0
M  V30 2576 H 226.648 -6.00549 2.63965 0
M  V30 2577 H 226.565 -6.17428 4.36255 0
M  V30 2578 H 227.833 -6.9739 3.48236 0
M  V30 2579 N 232.062 -1.29571 -0.897171 0
M  V30 2580 C 232.994 -1.10724 -2.00681 0
M  V30 2581 C 234.007 -0.0540026 -1.6271 0
M  V30 2582 O 235.196 -0.298783 -1.75982 0
M  V30 2583 C 232.296 -0.663912 -3.32333 0
M  V30 2584 C 231.469 -1.79622 -3.98816 0
M  V30 2585 C 230.528 -1.34349 -5.0876 0
M  V30 2586 O 229.554 -2.04864 -5.31055 0
M  V30 2587 N 230.756 -0.215764 -5.80099 0
M  V30 2588 H 233.521 -2.06291 -2.17403 0
M  V30 2589 H 231.082 -1.21544 -1.06951 0
M  V30 2590 H 233.074 -0.344295 -4.03233 0
M  V30 2591 H 231.644 0.199375 -3.11964 0
M  V30 2592 H 230.864 -2.28459 -3.21248 0
M  V30 2593 H 232.152 -2.55535 -4.39976 0
M  V30 2594 H 231.55 0.372091 -5.64475 0
M  V30 2595 H 230.107 0.0444707 -6.51785 0
M  V30 2596 N 233.54 1.10788 -1.12088 0
M  V30 2597 C 234.45 2.20599 -0.798338 0
M  V30 2598 C 235.466 1.72712 0.21135 0
M  V30 2599 O 236.642 2.01348 0.0458477 0
M  V30 2600 C 233.707 3.45771 -0.253674 0
M  V30 2601 C 232.768 4.08411 -1.32283 0
M  V30 2602 C 232.001 5.27608 -0.80406 0
M  V30 2603 O 232.224 5.69241 0.363478 0
M  V30 2604 O 231.158 5.8101 -1.57198 0
M  V30 2605 H 234.984 2.50614 -1.7154 0
M  V30 2606 H 232.569 1.19454 -0.897275 0
M  V30 2607 H 234.451 4.21376 0.0453691 0
M  V30 2608 H 233.126 3.1739 0.636005 0
M  V30 2609 H 232.033 3.34507 -1.67499 0
M  V30 2610 H 233.366 4.40986 -2.18614 0
M  V30 2611 N 235.018 0.912232 1.28515 0
M  V30 2612 C 235.981 0.404223 2.25607 0
M  V30 2613 C 236.981 -0.468602 1.53821 0
M  V30 2614 O 238.171 -0.271873 1.72065 0
M  V30 2615 C 235.303 -0.420653 3.38295 0
M  V30 2616 H 236.496 1.26188 2.7206 0
M  V30 2617 H 234.049 0.691495 1.40171 0
M  V30 2618 H 234.784 -1.29777 2.97201 0
M  V30 2619 H 234.569 0.204935 3.91564 0
M  V30 2620 H 236.059 -0.766971 4.10496 0
M  V30 2621 N 236.496 -1.42363 0.676048 0
M  V30 2622 C 237.446 -2.27987 -0.0242903 0
M  V30 2623 C 238.43 -1.41153 -0.772319 0
M  V30 2624 O 239.622 -1.64592 -0.651025 0
M  V30 2625 C 236.751 -3.29195 -0.973953 0
M  V30 2626 C 235.837 -4.23512 -0.223202 0
M  V30 2627 N 236.228 -4.99865 0.772589 0
M  V30 2628 C 234.526 -4.43606 -0.461469 0
M  V30 2629 C 235.227 -5.68757 1.22027 0
M  V30 2630 N 234.203 -5.40811 0.549975 0
M  V30 2631 H 238.005 -2.84445 0.73949 0
M  V30 2632 H 235.519 -1.54341 0.50522 0
M  V30 2633 H 237.516 -3.89339 -1.49067 0
M  V30 2634 H 236.176 -2.74298 -1.73755 0
M  V30 2635 H 237.187 -5.04921 1.15217 0
M  V30 2636 H 233.864 -3.99749 -1.20446 0
M  V30 2637 H 235.254 -6.40007 2.0455 0
M  V30 2638 N 237.974 -0.419461 -1.51915 0
M  V30 2639 C 238.884 0.407528 -2.31033 0
M  V30 2640 C 239.9 1.04413 -1.3919 0
M  V30 2641 O 241.076 1.0434 -1.72265 0
M  V30 2642 C 238.141 1.50365 -3.12396 0
M  V30 2643 C 237.202 0.889029 -4.19994 0
M  V30 2644 C 236.435 1.93291 -4.97468 0
M  V30 2645 O 236.658 3.15259 -4.75361 0
M  V30 2646 O 235.592 1.53339 -5.8204 0
M  V30 2647 H 239.418 -0.237865 -3.02767 0
M  V30 2648 H 237.003 -0.182413 -1.48282 0
M  V30 2649 H 238.885 2.13975 -3.63032 0
M  V30 2650 H 237.56 2.13345 -2.43445 0
M  V30 2651 H 236.467 0.215353 -3.7348 0
M  V30 2652 H 237.8 0.302991 -4.91267 0
M  V30 2653 N 239.452 1.56882 -0.150215 0
M  V30 2654 C 240.399 2.16922 0.788244 0
M  V30 2655 C 241.369 1.10303 1.24187 0
M  V30 2656 O 242.554 1.38359 1.31383 0
M  V30 2657 C 239.694 2.79754 2.02068 0
M  V30 2658 C 238.807 4.00775 1.61257 0
M  V30 2659 C 237.942 4.51595 2.79705 0
M  V30 2660 C 236.981 5.65074 2.35282 0
M  V30 2661 N 236.118 6.10499 3.4675 0
M  V30 2662 H 240.958 2.96779 0.269444 0
M  V30 2663 H 238.495 1.46599 0.12128 0
M  V30 2664 H 240.453 3.14329 2.74323 0
M  V30 2665 H 239.083 2.02536 2.51354 0
M  V30 2666 H 238.135 3.72158 0.787553 0
M  V30 2667 H 239.447 4.82978 1.24633 0
M  V30 2668 H 238.601 4.88242 3.60145 0
M  V30 2669 H 237.34 3.68406 3.19576 0
M  V30 2670 H 236.345 5.28 1.53283 0
M  V30 2671 H 237.57 6.50052 1.96493 0
M  V30 2672 H 235.516 5.30243 3.86236 0
M  V30 2673 H 235.433 6.87637 3.14152 0
M  V30 2674 H 236.701 6.51791 4.27537 0
M  V30 2675 N 240.93 -0.123565 1.57115 0
M  V30 2676 C 242.178 -0.83051 1.84247 0
M  V30 2677 C 242.499 -1.80629 0.73471 0
M  V30 2678 O 241.769 -1.94403 -0.241688 0
M  V30 2679 H 240.349 -0.309694 0.679778 0
M  V30 2680 H 243.011 -0.111976 1.94578 0
M  V30 2681 H 242.107 -1.37852 2.80006 0
M  V30 2682 N 242.408 -1.52605 -0.393616 0
M  V30 2683 C 243.648 -1.6911 -1.1481 0
M  V30 2684 C 244.012 -0.41969 -1.87357 0
M  V30 2685 O 245.213 -0.461034 -2.64817 0
M  V30 2686 C 243.484 -2.88909 -2.10395 0
M  V30 2687 S 245.043 -3.25977 -2.93742 0
M  V30 2688 H 241.861 -0.595337 -0.38871 0
M  V30 2689 H 244.463 -1.90641 -0.433178 0
M  V30 2690 H 243.167 -3.79672 -1.55812 0
M  V30 2691 H 242.698 -2.69698 -2.86403 0
M  V30 2692 H 244.713 -2.75806 -4.12487 0
M  V30 2693 N 243.887 0.651787 -1.4349 0
M  V30 2694 C 245.117 1.43728 -1.48411 0
M  V30 2695 C 245.525 1.8893 -0.10103 0
M  V30 2696 O 244.868 1.60182 0.899307 0
M  V30 2697 C 244.93 2.70411 -2.36893 0
M  V30 2698 C 244.594 2.4714 -3.8441 0
M  V30 2699 C 245.591 2.10271 -4.75481 0
M  V30 2700 C 243.276 2.6142 -4.28912 0
M  V30 2701 C 245.27 1.87982 -6.0905 0
M  V30 2702 C 242.957 2.38746 -5.62533 0
M  V30 2703 C 243.955 2.02083 -6.5242 0
M  V30 2704 O 243.643 1.79647 -7.8357 0
M  V30 2705 H 243.375 0.447962 -0.506267 0
M  V30 2706 H 245.929 0.80624 -1.88915 0
M  V30 2707 H 244.159 3.36079 -1.91278 0
M  V30 2708 H 245.848 3.32364 -2.33 0
M  V30 2709 H 246.614 1.98814 -4.42378 0
M  V30 2710 H 242.493 2.88931 -3.59222 0
M  V30 2711 H 246.037 1.5929 -6.7917 0
M  V30 2712 H 241.934 2.49806 -5.95203 0
M  V30 2713 H 242.702 1.9406 -7.95162 0
M  V30 2714 N 245.365 1.30045 0.890287 0
M  V30 2715 C 246.275 1.17885 2.02831 0
M  V30 2716 C 247.291 0.0999609 1.73713 0
M  V30 2717 O 248.467 0.313867 1.98939 0
M  V30 2718 C 245.532 0.866079 3.35708 0
M  V30 2719 C 244.593 2.02979 3.78283 0
M  V30 2720 C 243.826 1.73184 5.0482 0
M  V30 2721 O 244.049 0.657237 5.66601 0
M  V30 2722 O 242.983 2.58267 5.43674 0
M  V30 2723 H 246.809 2.13474 2.16015 0
M  V30 2724 H 244.394 1.09587 1.01543 0
M  V30 2725 H 246.276 0.706623 4.15433 0
M  V30 2726 H 244.951 -0.0599443 3.23644 0
M  V30 2727 H 243.858 2.24454 2.99285 0
M  V30 2728 H 245.191 2.93734 3.94944 0
M  V30 2729 N 246.843 -1.10192 1.12674 0
M  V30 2730 C 247.806 -2.14786 0.799979 0
M  V30 2731 C 248.806 -1.59711 -0.18685 0
M  V30 2732 O 249.996 -1.74156 0.0392558 0
M  V30 2733 C 247.128 -3.40374 0.189228 0
M  V30 2734 H 248.321 -2.45203 1.72671 0
M  V30 2735 H 245.874 -1.25597 0.930326 0
M  V30 2736 H 246.609 -3.15577 -0.747107 0
M  V30 2737 H 246.394 -3.81637 0.899766 0
M  V30 2738 H 247.884 -4.17594 -0.0228143 0
M  V30 2739 N 248.321 -0.919034 -1.28029 0
M  V30 2740 C 249.57 -0.550802 -1.94034 0
M  V30 2741 C 249.883 0.910877 -1.73096 0
M  V30 2742 O 251.089 1.3875 -2.33368 0
M  V30 2743 C 249.545 -0.934249 -3.47563 0
M  V30 2744 C 249.153 -2.41602 -3.7727 0
M  V30 2745 C 250.897 -0.636854 -4.19696 0
M  V30 2746 C 248.804 -2.73932 -5.24133 0
M  V30 2747 H 247.734 -0.202273 -0.726362 0
M  V30 2748 H 250.385 -1.11867 -1.45458 0
M  V30 2749 H 248.767 -0.295115 -3.94899 0
M  V30 2750 H 249.941 -3.10233 -3.40723 0
M  V30 2751 H 248.256 -2.68441 -3.18321 0
M  V30 2752 H 250.853 -0.855005 -5.2782 0
M  V30 2753 H 251.196 0.425575 -4.14119 0
M  V30 2754 H 251.729 -1.23469 -3.78154 0
M  V30 2755 H 248.468 -3.79049 -5.34792 0
M  V30 2756 H 247.988 -2.09942 -5.61858 0
M  V30 2757 H 249.667 -2.61215 -5.91925 0
M  V30 2758 N 249.799 1.42003 -0.683588 0
M  V30 2759 C 250.729 2.33487 -0.024866 0
M  V30 2760 C 251.71 1.51163 0.779975 0
M  V30 2761 O 252.895 1.79739 0.735362 0
M  V30 2762 C 250.025 3.3487 0.920836 0
M  V30 2763 C 248.979 4.27414 0.223958 0
M  V30 2764 C 248.305 5.19074 1.2832 0
M  V30 2765 C 249.605 5.14445 -0.90242 0
M  V30 2766 H 251.299 2.88819 -0.788921 0
M  V30 2767 H 248.845 1.38873 -0.38083 0
M  V30 2768 H 250.798 3.97787 1.39081 0
M  V30 2769 H 249.522 2.77861 1.71642 0
M  V30 2770 H 248.181 3.65904 -0.225864 0
M  V30 2771 H 247.829 4.58387 2.071 0
M  V30 2772 H 247.529 5.81822 0.821995 0
M  V30 2773 H 249.053 5.84867 1.75392 0
M  V30 2774 H 250.467 5.70998 -0.513272 0
M  V30 2775 H 248.864 5.86072 -1.28997 0
M  V30 2776 H 249.934 4.52322 -1.74737 0
M  V30 2777 N 251.277 0.427512 1.51691 0
M  V30 2778 C 252.227 -0.406604 2.24345 0
M  V30 2779 C 253.211 -0.998276 1.26187 0
M  V30 2780 O 254.403 -0.918045 1.51331 0
M  V30 2781 C 251.532 -1.51266 3.08177 0
M  V30 2782 C 250.618 -0.930868 4.13758 0
M  V30 2783 N 251.009 -0.0773552 5.05741 0
M  V30 2784 C 249.307 -1.19948 4.29568 0
M  V30 2785 C 250.008 0.248344 5.8117 0
M  V30 2786 N 248.984 -0.365535 5.4237 0
M  V30 2787 H 252.786 0.251581 2.92821 0
M  V30 2788 H 250.3 0.239003 1.60632 0
M  V30 2789 H 252.297 -2.123 3.58796 0
M  V30 2790 H 250.957 -2.17328 2.41244 0
M  V30 2791 H 251.968 0.288351 5.17097 0
M  V30 2792 H 248.645 -1.85832 3.73862 0
M  V30 2793 H 250.035 0.942286 6.6526 0
M  V30 2794 N 252.755 -1.56801 0.158532 0
M  V30 2795 C 254.171 -1.5837 -0.197774 0
M  V30 2796 C 254.371 -1.17334 -1.63814 0
M  V30 2797 O 253.427 -0.878988 -2.36707 0
M  V30 2798 C 254.74 -3.00615 0.0714459 0
M  V30 2799 C 256.288 -3.12999 0.00864533 0
M  V30 2800 C 256.763 -4.57313 0.250685 0
M  V30 2801 N 258.254 -4.62777 0.198014 0
M  V30 2802 C 258.989 -5.72271 0.359642 0
M  V30 2803 N 258.485 -6.90371 0.579625 0
M  V30 2804 N 260.278 -5.61318 0.296438 0
M  V30 2805 H 252.429 -1.81765 1.09887 0
M  V30 2806 H 254.692 -0.841849 0.435884 0
M  V30 2807 H 254.398 -3.35068 1.06874 0
M  V30 2808 H 254.272 -3.71683 -0.642757 0
M  V30 2809 H 256.659 -2.7838 -0.979217 0
M  V30 2810 H 256.74 -2.44393 0.755359 0
M  V30 2811 H 256.384 -4.92639 1.2357 0
M  V30 2812 H 256.314 -5.24061 -0.516489 0
M  V30 2813 H 258.805 -3.77885 0.0331115 0
M  V30 2814 H 259.118 -7.69689 0.69275 0
M  V30 2815 H 257.463 -6.92264 0.616087 0
M  V30 2816 H 260.654 -4.67932 0.125258 0
M  V30 2817 H 260.827 -6.46599 0.425831 0
M  V30 2818 N 254.233 0.115231 -1.57178 0
M  V30 2819 C 255.181 1.16014 -2.01602 0
M  V30 2820 C 256.175 1.42653 -0.913587 0
M  V30 2821 O 257.381 1.42571 -1.09879 0
M  V30 2822 H 253.756 0.391252 -0.642204 0
M  V30 2823 H 255.727 0.758998 -2.88586 0
M  V30 2824 C 254.476 2.47767 -2.4394 0
M  V30 2825 H 253.799 2.28108 -3.28339 0
M  V30 2826 H 255.239 3.19432 -2.78818 0
M  V30 2827 C 253.698 3.10617 -1.30455 0
M  V30 2828 O 254.228 3.96846 -0.622585 0
M  V30 2829 N 252.434 2.70553 -1.06064 0
M  V30 2830 H 251.981 2.00527 -1.61699 0
M  V30 2831 H 251.939 3.12934 -0.303284 0
M  V30 2832 N 255.711 1.52812 0.385517 0
M  V30 2833 C 256.659 1.78482 1.49155 0
M  V30 2834 C 257.653 0.652914 1.56312 0
M  V30 2835 O 258.859 0.835464 1.59436 0
M  V30 2836 H 255.234 0.5648 0.496493 0
M  V30 2837 H 257.205 2.71095 1.24699 0
M  V30 2838 C 255.954 1.97378 2.86247 0
M  V30 2839 H 255.277 2.83907 2.81491 0
M  V30 2840 H 256.717 2.19327 3.62866 0
M  V30 2841 C 255.176 0.74728 3.28508 0
M  V30 2842 O 255.706 -0.0736232 4.01633 0
M  V30 2843 N 253.912 0.576396 2.84826 0
M  V30 2844 H 253.459 1.24555 2.25486 0
M  V30 2845 H 253.417 -0.24288 3.1346 0
M  V30 2846 N 257.189 -0.644168 1.43834 0
M  V30 2847 C 258.417 -1.43147 1.49387 0
M  V30 2848 C 258.832 -1.88452 0.114583 0
M  V30 2849 O 258.189 -1.60047 -0.876989 0
M  V30 2850 C 258.24 -2.66046 2.44748 0
M  V30 2851 O 257.961 -2.22633 3.77314 0
M  V30 2852 C 259.462 -3.59311 2.59635 0
M  V30 2853 H 256.682 -0.439447 0.507077 0
M  V30 2854 H 259.226 -0.78895 1.88669 0
M  V30 2855 H 257.381 -3.26418 2.08638 0
M  V30 2856 H 257.795 -3.02216 4.28679 0
M  V30 2857 H 259.269 -4.42187 3.30416 0
M  V30 2858 H 259.746 -4.07259 1.64427 0
M  V30 2859 H 260.352 -3.04816 2.96593 0
M  V30 2860 N 258.668 -1.30515 -0.883378 0
M  V30 2861 C 259.914 -1.19607 -1.63774 0
M  V30 2862 C 260.247 0.248314 -1.92606 0
M  V30 2863 O 259.522 1.17742 -1.54813 0
M  V30 2864 C 259.805 -2.02669 -2.97653 0
M  V30 2865 C 259.658 -3.55335 -2.75784 0
M  V30 2866 C 260.977 -1.86573 -3.98596 0
M  V30 2867 H 258.096 -0.435856 -0.594305 0
M  V30 2868 H 260.738 -1.60165 -1.02212 0
M  V30 2869 H 258.888 -1.68208 -3.50197 0
M  V30 2870 H 260.56 -3.99863 -2.30016 0
M  V30 2871 H 258.803 -3.79438 -2.1026 0
M  V30 2872 H 259.474 -4.08745 -3.70988 0
M  V30 2873 H 261.95 -2.16703 -3.55217 0
M  V30 2874 H 260.826 -2.47014 -4.90179 0
M  V30 2875 H 261.087 -0.825321 -4.34328 0
M  V30 2876 N 260.146 1.09593 -1.13257 0
M  V30 2877 C 261.374 1.855 -0.916378 0
M  V30 2878 C 261.789 1.81069 0.534738 0
M  V30 2879 O 261.146 1.20562 1.37007 0
M  V30 2880 C 261.197 3.33546 -1.39388 0
M  V30 2881 O 260.918 3.37927 -2.78813 0
M  V30 2882 C 262.419 4.26299 -1.21588 0
M  V30 2883 H 259.639 0.585991 -0.326887 0
M  V30 2884 H 262.183 1.38488 -1.5047 0
M  V30 2885 H 260.338 3.77992 -0.848597 0
M  V30 2886 H 260.752 4.30254 -2.9997 0
M  V30 2887 H 262.226 5.28341 -1.59876 0
M  V30 2888 H 262.703 4.38918 -0.157376 0
M  V30 2889 H 263.309 3.87668 -1.7491 0
M  V30 2890 N 261.624 0.925811 1.2754 0
M  V30 2891 C 262.534 0.428993 2.30644 0
M  V30 2892 C 263.55 -0.489387 1.66976 0
M  V30 2893 O 264.726 -0.372653 1.97922 0
M  V30 2894 C 261.791 -0.311967 3.45294 0
M  V30 2895 C 260.852 0.641098 4.24486 0
M  V30 2896 C 260.085 -0.0645955 5.33661 0
M  V30 2897 O 260.308 -1.28429 5.55754 0
M  V30 2898 O 259.242 0.606265 5.98839 0
M  V30 2899 H 263.068 1.28504 2.75173 0
M  V30 2900 H 260.653 0.691086 1.32455 0
M  V30 2901 H 262.535 -0.729972 4.15029 0
M  V30 2902 H 261.21 -1.14365 3.02824 0
M  V30 2903 H 260.117 1.10874 3.57292 0
M  V30 2904 H 261.45 1.43995 4.70666 0
M  V30 2905 N 263.102 -1.41638 0.69111 0
M  V30 2906 C 264.35 -2.00902 0.219758 0
M  V30 2907 C 264.671 -1.54994 -1.18329 0
M  V30 2908 O 263.941 -0.778628 -1.79762 0
M  V30 2909 H 262.521 -0.74289 0.0782558 0
M  V30 2910 H 265.183 -1.73327 0.891271 0
M  V30 2911 H 264.279 -3.11224 0.233708 0
M  V30 2912 N 264.58 -0.43555 -1.51462 0
M  V30 2913 C 265.805 0.132627 -2.06976 0
M  V30 2914 C 266.23 1.35848 -1.30104 0
M  V30 2915 O 265.588 1.78112 -0.338493 0
M  V30 2916 C 265.636 0.43523 -3.57964 0
M  V30 2917 O 264.74 1.52198 -3.83288 0
M  V30 2918 H 264.081 0.00265 -0.663995 0
M  V30 2919 H 266.611 -0.616369 -1.95095 0
M  V30 2920 H 266.621 0.686206 -4.02188 0
M  V30 2921 H 265.296 -0.460739 -4.1334 0
M  V30 2922 H 263.873 1.2611 -3.50928 0
M  V30 2923 N 266.058 1.56714 -0.166846 0
M  V30 2924 C 267.283 2.01557 0.488833 0
M  V30 2925 C 267.708 1.0463 1.56314 0
M  V30 2926 O 267.066 0.0251304 1.81283 0
M  V30 2927 C 267.114 3.4503 1.04818 0
M  V30 2928 O 266.218 3.51163 2.16236 0
M  V30 2929 H 265.559 0.653516 0.117526 0
M  V30 2930 H 268.089 2.02818 -0.269421 0
M  V30 2931 H 268.099 3.84243 1.37191 0
M  V30 2932 H 266.774 4.15077 0.261572 0
M  V30 2933 H 265.351 3.23807 1.84942 0
M  V30 2934 N 267.536 -0.106894 1.57237 0
M  V30 2935 C 268.761 -0.830287 1.90055 0
M  V30 2936 C 269.186 -1.72064 0.75998 0
M  V30 2937 O 268.544 -1.78982 -0.288991 0
M  V30 2938 C 268.592 -1.6295 3.21683 0
M  V30 2939 O 267.696 -2.73748 3.08441 0
M  V30 2940 H 267.037 -0.228855 0.623315 0
M  V30 2941 H 269.567 -0.085658 2.04421 0
M  V30 2942 H 269.577 -2.01621 3.54701 0
M  V30 2943 H 268.252 -0.975989 4.04286 0
M  V30 2944 H 266.829 -2.38192 2.86913 0
M  V30 2945 N 269.014 -1.53014 -0.377408 0
M  V30 2946 C 269.962 -1.7927 -1.48206 0
M  V30 2947 C 270.956 -0.661195 -1.55963 0
M  V30 2948 O 272.162 -0.843908 -1.58991 0
M  V30 2949 H 268.537 -0.567425 -0.493491 0
M  V30 2950 H 270.508 -2.71753 -1.2326 0
M  V30 2951 C 269.257 -1.98894 -2.85196 0
M  V30 2952 H 268.58 -2.85395 -2.79981 0
M  V30 2953 H 270.02 -2.21249 -3.61698 0
M  V30 2954 C 268.479 -0.764691 -3.28107 0
M  V30 2955 O 269.009 0.0523226 -4.01666 0
M  V30 2956 N 267.215 -0.591493 -2.84517 0
M  V30 2957 H 266.762 -1.25749 -2.24822 0
M  V30 2958 H 266.72 0.226253 -3.13585 0
M  V30 2959 N 270.492 0.636531 -1.44174 0
M  V30 2960 C 271.738 1.39826 -1.4689 0
M  V30 2961 C 272.071 1.93947 -0.0990585 0
M  V30 2962 O 271.346 1.73325 0.882544 0
M  V30 2963 C 271.629 2.56751 -2.5249 0
M  V30 2964 C 271.482 2.08014 -3.98811 0
M  V30 2965 C 272.801 3.58946 -2.54649 0
M  V30 2966 H 269.92 0.507075 -0.53483 0
M  V30 2967 H 272.562 0.720188 -1.75822 0
M  V30 2968 H 270.712 3.14597 -2.2795 0
M  V30 2969 H 272.384 1.5504 -4.34466 0
M  V30 2970 H 270.627 1.39242 -4.10846 0
M  V30 2971 H 271.298 2.92169 -4.68339 0
M  V30 2972 H 273.774 3.1089 -2.76563 0
M  V30 2973 H 272.65 4.38286 -3.3045 0
M  V30 2974 H 272.911 4.12655 -1.58646 0
M  V30 2975 N 271.97 1.30982 0.876444 0
M  V30 2976 C 273.217 1.20296 1.62896 0
M  V30 2977 C 273.545 -0.240395 1.93009 0
M  V30 2978 O 272.8 -1.18733 1.55567 0
M  V30 2979 C 273.099 1.98572 2.9716 0
M  V30 2980 C 272.765 3.48125 2.86566 0
M  V30 2981 C 271.427 3.88905 2.83383 0
M  V30 2982 C 273.779 4.43322 2.74071 0
M  V30 2983 C 271.107 5.2316 2.65556 0
M  V30 2984 C 273.459 5.77695 2.57781 0
M  V30 2985 C 272.123 6.17704 2.52979 0
M  V30 2986 H 271.393 0.440193 0.59608 0
M  V30 2987 H 274.04 1.62177 1.01837 0
M  V30 2988 H 272.345 1.49352 3.62217 0
M  V30 2989 H 274.042 1.8769 3.54364 0
M  V30 2990 H 270.632 3.15723 2.89856 0
M  V30 2991 H 274.816 4.12752 2.75589 0
M  V30 2992 H 270.072 5.53241 2.60259 0
M  V30 2993 H 274.246 6.51091 2.47089 0
M  V30 2994 H 271.873 7.21678 2.38924 0
M  V30 2995 N 273.449 -1.08991 1.13837 0
M  V30 2996 C 274.697 -1.80899 0.901098 0
M  V30 2997 C 275.018 -1.86356 -0.574134 0
M  V30 2998 O 274.288 -1.35235 -1.41733 0
M  V30 2999 H 272.868 -0.669966 0.330386 0
M  V30 3000 H 275.53 -1.318 1.43578 0
M  V30 3001 H 274.626 -2.83929 1.29578 0
M  V30 3002 N 274.927 -0.932562 -1.27047 0
M  V30 3003 C 276.176 -0.571351 -1.93439 0
M  V30 3004 C 276.489 0.892467 -1.74053 0
M  V30 3005 O 277.695 1.36267 -2.34826 0
M  V30 3006 C 276.151 -0.97106 -3.46552 0
M  V30 3007 C 275.759 -2.4559 -3.74686 0
M  V30 3008 C 277.503 -0.681333 -4.18997 0
M  V30 3009 C 275.41 -2.79475 -5.21198 0
M  V30 3010 H 274.34 -0.209966 -0.724176 0
M  V30 3011 H 276.991 -1.13403 -1.44263 0
M  V30 3012 H 275.373 -0.336983 -3.94564 0
M  V30 3013 H 276.547 -3.13829 -3.37414 0
M  V30 3014 H 274.862 -2.71802 -3.15456 0
M  V30 3015 H 277.459 -0.910939 -5.26883 0
M  V30 3016 H 277.802 0.381628 -4.14547 0
M  V30 3017 H 278.335 -1.27473 -3.76823 0
M  V30 3018 H 275.074 -3.847 -5.30741 0
M  V30 3019 H 274.594 -2.1589 -5.596 0
M  V30 3020 H 276.273 -2.67478 -5.89122 0
M  V30 3021 N 276.405 1.4127 -0.698611 0
M  V30 3022 C 277.352 2.30773 -0.0352094 0
M  V30 3023 C 278.322 1.47273 0.768111 0
M  V30 3024 O 279.507 1.76053 0.735524 0
M  V30 3025 C 276.647 3.33346 0.893 0
M  V30 3026 C 275.76 4.31924 0.0809695 0
M  V30 3027 C 274.895 5.21566 1.0071 0
M  V30 3028 C 273.934 6.11811 0.188155 0
M  V30 3029 N 273.071 6.93926 1.06825 0
M  V30 3030 H 277.911 2.86943 -0.804207 0
M  V30 3031 H 275.448 1.4132 -0.408294 0
M  V30 3032 H 277.406 3.91368 1.44523 0
M  V30 3033 H 276.036 2.78719 1.62836 0
M  V30 3034 H 275.088 3.75825 -0.588224 0
M  V30 3035 H 276.4 4.95716 -0.553801 0
M  V30 3036 H 275.554 5.84437 1.62845 0
M  V30 3037 H 274.293 4.58008 1.67572 0
M  V30 3038 H 273.298 5.47986 -0.446254 0
M  V30 3039 H 274.523 6.77425 -0.476716 0
M  V30 3040 H 272.469 6.32973 1.72283 0
M  V30 3041 H 272.386 7.54416 0.489123 0
M  V30 3042 H 273.654 7.61262 1.67632 0
M  V30 3043 N 277.883 0.443576 1.51229 0
M  V30 3044 C 279.16 -0.181038 1.9476 0
M  V30 3045 C 279.54 -1.59523 1.38259 0
M  V30 3046 O 278.888 -2.2122 0.572198 0
M  V30 3047 C 279.098 -0.152422 3.48667 0
M  V30 3048 C 280.446 -0.354923 4.23114 0
M  V30 3049 O 281.47 -0.230257 3.55455 0
M  V30 3050 O 280.329 -0.603674 5.43156 0
M  V30 3051 H 277.423 -0.1266 0.817252 0
M  V30 3052 H 279.969 0.502004 1.62105 0
M  V30 3053 H 278.741 0.836022 3.82265 0
M  V30 3054 H 278.364 -0.878107 3.87782 0
M  V30 3055 N 279.361 -1.56624 0.175154 0
M  V30 3056 C 280.609 -1.96609 -0.467885 0
M  V30 3057 C 280.93 -1.06238 -1.63519 0
M  V30 3058 O 280.2 -0.129523 -1.95471 0
M  V30 3059 H 278.78 -0.726008 -0.175845 0
M  V30 3060 H 281.442 -1.93195 0.257234 0
M  V30 3061 H 280.538 -3.00989 -0.825342 0
M  V30 3062 N 280.839 0.0985539 -1.57292 0
M  V30 3063 C 282.088 0.801358 -1.85098 0
M  V30 3064 C 282.401 1.80066 -0.763902 0
M  V30 3065 O 283.607 2.55112 -0.928981 0
M  V30 3066 C 282.063 1.47599 -3.28242 0
M  V30 3067 C 281.671 0.516624 -4.45011 0
M  V30 3068 C 283.415 2.16272 -3.65276 0
M  V30 3069 C 281.322 1.19564 -5.79188 0
M  V30 3070 H 280.252 0.303022 -0.69043 0
M  V30 3071 H 282.903 0.0542623 -1.8342 0
M  V30 3072 H 281.285 2.27042 -3.2445 0
M  V30 3073 H 282.459 -0.246065 -4.60143 0
M  V30 3074 H 280.774 -0.064227 -4.1635 0
M  V30 3075 H 283.371 2.67802 -4.62803 0
M  V30 3076 H 283.714 2.95009 -2.93727 0
M  V30 3077 H 284.247 1.43693 -3.70941 0
M  V30 3078 H 280.986 0.449157 -6.53959 0
M  V30 3079 H 280.506 1.92984 -5.67906 0
M  V30 3080 H 282.185 1.7231 -6.23633 0
M  V30 3081 N 282.317 1.53212 0.369288 0
M  V30 3082 C 283.247 1.82365 1.45826 0
M  V30 3083 C 284.228 0.676907 1.56051 0
M  V30 3084 O 285.413 0.926401 1.70679 0
M  V30 3085 C 282.543 2.01023 2.83208 0
M  V30 3086 C 281.497 3.1678 2.8781 0
M  V30 3087 C 280.823 3.20724 4.27832 0
M  V30 3088 C 282.123 4.55447 2.55667 0
M  V30 3089 H 283.817 2.73559 1.21678 0
M  V30 3090 H 281.363 1.3163 0.583911 0
M  V30 3091 H 283.316 2.20001 3.59413 0
M  V30 3092 H 282.04 1.06536 3.08736 0
M  V30 3093 H 280.699 2.97616 2.14056 0
M  V30 3094 H 280.347 2.23882 4.50429 0
M  V30 3095 H 280.047 3.98496 4.31827 0
M  V30 3096 H 281.571 3.41881 5.05915 0
M  V30 3097 H 282.985 4.74611 3.21586 0
M  V30 3098 H 281.382 5.35432 2.70984 0
M  V30 3099 H 282.452 4.60812 1.5093 0
M  V30 3100 N 283.795 -0.628877 1.44509 0
M  V30 3101 C 285.025 -1.41349 1.50678 0
M  V30 3102 C 285.433 -1.88745 0.131075 0
M  V30 3103 O 284.776 -1.61592 -0.87371 0
M  V30 3104 C 284.838 -2.66608 2.41165 0
M  V30 3105 C 284.502 -2.40993 3.88293 0
M  V30 3106 C 285.499 -2.0268 4.78766 0
M  V30 3107 C 283.184 -2.54563 4.33016 0
M  V30 3108 C 285.178 -1.78269 6.11963 0
M  V30 3109 C 282.865 -2.29766 5.6626 0
M  V30 3110 C 283.863 -1.91678 6.55552 0
M  V30 3111 O 283.551 -1.67158 7.86329 0
M  V30 3112 H 283.283 -0.439851 0.51333 0
M  V30 3113 H 285.837 -0.776084 1.90174 0
M  V30 3114 H 284.067 -3.32994 1.96601 0
M  V30 3115 H 285.756 -3.28615 2.38259 0
M  V30 3116 H 286.522 -1.91751 4.45485 0
M  V30 3117 H 282.401 -2.83179 3.63773 0
M  V30 3118 H 285.945 -1.48465 6.81619 0
M  V30 3119 H 281.842 -2.40306 5.99102 0
M  V30 3120 H 282.61 -1.81386 7.98149 0
M  V30 3121 N 285.273 -1.31445 -0.869486 0
M  V30 3122 C 286.501 -1.24122 -1.65534 0
M  V30 3123 C 286.916 0.193387 -1.87807 0
M  V30 3124 O 286.273 1.12557 -1.43656 0
M  V30 3125 C 286.324 -1.98229 -3.02304 0
M  V30 3126 O 286.045 -3.3609 -2.81026 0
M  V30 3127 C 287.546 -1.97751 -3.96749 0
M  V30 3128 H 284.766 -0.428868 -0.516055 0
M  V30 3129 H 287.31 -1.73328 -1.08525 0
M  V30 3130 H 285.465 -1.52782 -3.56001 0
M  V30 3131 H 285.879 -3.7383 -3.67902 0
M  V30 3132 H 287.353 -2.54114 -4.90031 0
M  V30 3133 H 287.83 -0.960137 -4.28577 0
M  V30 3134 H 288.436 -2.43079 -3.48988 0
M  V30 3135 N 286.751 1.08385 -1.14413 0
M  V30 3136 C 287.701 2.13509 -0.79987 0
M  V30 3137 C 288.685 1.5951 0.211059 0
M  V30 3138 O 289.877 1.76995 0.0133694 0
M  V30 3139 C 287.006 3.42162 -0.279297 0
M  V30 3140 C 286.092 4.03042 -1.31976 0
M  V30 3141 N 286.483 4.38327 -2.52395 0
M  V30 3142 C 284.781 4.30379 -1.17004 0
M  V30 3143 C 285.482 4.86428 -3.19003 0
M  V30 3144 N 284.458 4.84547 -2.46405 0
M  V30 3145 H 288.26 2.38609 -1.7159 0
M  V30 3146 H 285.774 1.2572 -1.02802 0
M  V30 3147 H 287.771 4.16898 -0.0143688 0
M  V30 3148 H 286.431 3.18511 0.630923 0
M  V30 3149 H 287.442 4.29349 -2.89621 0
M  V30 3150 H 284.119 4.16281 -0.318854 0
M  V30 3151 H 285.509 5.23107 -4.21674 0
M  V30 3152 N 288.23 0.939286 1.26551 0
M  V30 3153 C 289.641 0.628782 1.75793 0
M  V30 3154 C 289.992 -0.856046 1.7654 0
M  V30 3155 O 289.117 -1.66994 1.3763 0
M  V30 3156 C 289.712 1.13465 3.19235 0
M  V30 3157 C 288.271 0.874601 3.66098 0
M  V30 3158 C 287.418 1.28667 2.45642 0
M  V30 3159 H 290.369 1.1178 1.12654 0
M  V30 3160 H 290.39 0.487609 3.77363 0
M  V30 3161 H 289.902 2.21535 3.1866 0
M  V30 3162 H 288.003 -0.191793 3.72106 0
M  V30 3163 H 288.116 1.50028 4.55004 0
M  V30 3164 H 286.48 0.705109 2.44745 0
M  V30 3165 H 287.263 2.37625 2.47769 0
M  V30 3166 N 289.708 -1.40897 0.706093 0
M  V30 3167 C 290.671 -2.29131 0.0562841 0
M  V30 3168 C 291.671 -1.44901 -0.697166 0
M  V30 3169 O 292.861 -1.65926 -0.530484 0
M  V30 3170 C 289.993 -3.27957 -0.93043 0
M  V30 3171 H 291.186 -2.88091 0.833284 0
M  V30 3172 H 288.739 -1.4906 0.470192 0
M  V30 3173 H 289.474 -2.73997 -1.73482 0
M  V30 3174 H 289.259 -3.90124 -0.393166 0
M  V30 3175 H 290.749 -3.94049 -1.38256 0
M  V30 3176 N 291.186 -0.45159 -1.50991 0
M  V30 3177 C 292.134 0.366864 -2.29689 0
M  V30 3178 C 293.128 1.00809 -1.36139 0
M  V30 3179 O 294.334 0.941427 -1.53418 0
M  V30 3180 H 290.709 0.137133 -0.739391 0
M  V30 3181 H 292.68 -0.317538 -2.96706 0
M  V30 3182 C 291.429 1.44751 -3.16137 0
M  V30 3183 H 290.752 0.963473 -3.88017 0
M  V30 3184 H 292.192 1.99315 -3.74232 0
M  V30 3185 C 290.651 2.43869 -2.32442 0
M  V30 3186 O 291.181 3.4872 -1.99392 0
M  V30 3187 N 289.387 2.15105 -1.95392 0
M  V30 3188 H 288.934 1.29866 -2.22469 0
M  V30 3189 H 288.892 2.81661 -1.39693 0
M  V30 3190 N 292.664 1.56529 -0.183458 0
M  V30 3191 C 293.612 2.19873 0.758845 0
M  V30 3192 C 294.606 1.16638 1.22849 0
M  V30 3193 O 295.812 1.3481 1.19274 0
M  V30 3194 H 292.187 0.7045 0.263029 0
M  V30 3195 H 294.158 2.97724 0.200755 0
M  V30 3196 C 292.907 2.86314 1.9728 0
M  V30 3197 H 292.23 3.65487 1.62047 0
M  V30 3198 H 293.67 3.3409 2.61075 0
M  V30 3199 C 292.129 1.86729 2.80418 0
M  V30 3200 O 292.659 1.36031 3.77966 0
M  V30 3201 N 290.865 1.55216 2.45675 0
M  V30 3202 H 290.412 1.96636 1.66409 0
M  V30 3203 H 290.37 0.888388 3.01588 0
M  V30 3204 N 294.142 -0.090211 1.57342 0
M  V30 3205 C 295.075 -1.14035 1.97664 0
M  V30 3206 C 296.053 -1.38576 0.850616 0
M  V30 3207 O 297.237 -1.52255 1.11134 0
M  V30 3208 C 294.364 -2.48854 2.2976 0
M  V30 3209 C 293.41 -2.40564 3.52181 0
M  V30 3210 S 294.243 -1.81745 5.03715 0
M  V30 3211 C 295.399 -3.18178 5.38993 0
M  V30 3212 H 295.632 -0.796636 2.86428 0
M  V30 3213 H 293.165 -0.298072 1.51496 0
M  V30 3214 H 295.123 -3.26413 2.48927 0
M  V30 3215 H 293.784 -2.80393 1.41558 0
M  V30 3216 H 292.977 -3.39942 3.72096 0
M  V30 3217 H 292.579 -1.71135 3.32549 0
M  V30 3218 H 294.871 -4.14461 5.35937 0
M  V30 3219 H 295.814 -3.03062 6.39968 0
M  V30 3220 H 296.222 -3.17935 4.66452 0
M  V30 3221 N 295.62 -1.53406 -0.361157 0
M  V30 3222 C 296.869 -1.69022 -1.10066 0
M  V30 3223 C 297.182 -0.450838 -1.90333 0
M  V30 3224 O 298.388 -0.487617 -2.67085 0
M  V30 3225 C 296.844 -2.98812 -2.00598 0
M  V30 3226 C 296.452 -4.30027 -1.25621 0
M  V30 3227 C 298.196 -3.23795 -2.74513 0
M  V30 3228 C 296.103 -5.50903 -2.1508 0
M  V30 3229 H 295.033 -0.629776 -0.414606 0
M  V30 3230 H 297.684 -1.79907 -0.361348 0
M  V30 3231 H 296.066 -2.8174 -2.78278 0
M  V30 3232 H 297.24 -4.57745 -0.529739 0
M  V30 3233 H 295.555 -4.11522 -0.635496 0
M  V30 3234 H 298.152 -4.11289 -3.41681 0
M  V30 3235 H 298.495 -2.40045 -3.40123 0
M  V30 3236 H 299.028 -3.41561 -2.03914 0
M  V30 3237 H 295.767 -6.37143 -1.54041 0
M  V30 3238 H 295.287 -5.27459 -2.85565 0
M  V30 3239 H 296.966 -5.85865 -2.74538 0
M  V30 3240 N 297.098 0.621204 -1.44841 0
M  V30 3241 C 298.028 1.74366 -1.55303 0
M  V30 3242 C 299.009 1.65199 -0.405385 0
M  V30 3243 O 300.194 1.83807 -0.626787 0
M  V30 3244 C 297.324 3.12931 -1.50637 0
M  V30 3245 C 296.278 3.36896 -2.63979 0
M  V30 3246 C 295.604 4.75594 -2.44366 0
M  V30 3247 C 296.904 3.28483 -4.06074 0
M  V30 3248 H 298.598 1.65867 -2.49256 0
M  V30 3249 H 296.144 0.796558 -1.19962 0
M  V30 3250 H 298.097 3.9124 -1.56555 0
M  V30 3251 H 296.821 3.22237 -0.532057 0
M  V30 3252 H 295.48 2.60972 -2.57467 0
M  V30 3253 H 295.128 4.81616 -1.45105 0
M  V30 3254 H 294.828 4.92586 -3.20364 0
M  V30 3255 H 296.352 5.5612 -2.52117 0
M  V30 3256 H 297.766 3.96684 -4.13902 0
M  V30 3257 H 296.163 3.57008 -4.82354 0
M  V30 3258 H 297.233 2.26133 -4.28943 0
M  V30 3259 N 298.576 1.31904 0.862503 0
M  V30 3260 C 299.523 1.20182 1.9704 0
M  V30 3261 C 300.493 0.0858247 1.65878 0
M  V30 3262 O 301.678 0.26 1.8902 0
M  V30 3263 C 298.818 0.922797 3.32533 0
M  V30 3264 C 297.931 2.12284 3.76244 0
M  V30 3265 C 297.066 1.77996 5.00491 0
M  V30 3266 C 296.105 2.94366 5.36671 0
M  V30 3267 N 295.242 2.60223 6.52095 0
M  V30 3268 H 300.082 2.14951 2.06398 0
M  V30 3269 H 297.619 1.06917 1.01031 0
M  V30 3270 H 299.577 0.741548 4.10557 0
M  V30 3271 H 298.207 0.0119227 3.22798 0
M  V30 3272 H 297.259 2.41461 2.9394 0
M  V30 3273 H 298.571 2.99357 3.98982 0
M  V30 3274 H 297.725 1.56377 5.862 0
M  V30 3275 H 296.464 0.881252 4.79672 0
M  V30 3276 H 295.469 3.16625 4.49476 0
M  V30 3277 H 296.694 3.84957 5.59451 0
M  V30 3278 H 294.64 1.72884 6.32809 0
M  V30 3279 H 294.557 3.40827 6.74814 0
M  V30 3280 H 295.825 2.42016 7.40978 0
M  V30 3281 N 300.054 -1.07777 1.14986 0
M  V30 3282 C 301.302 -1.79934 0.920235 0
M  V30 3283 C 301.623 -1.86955 -0.554336 0
M  V30 3284 O 300.893 -1.36731 -1.40291 0
M  V30 3285 H 299.473 -0.666424 0.337473 0
M  V30 3286 H 302.135 -1.3027 1.44968 0
M  V30 3287 H 301.231 -2.82539 1.32583 0
M  V30 3288 N 301.532 -0.945985 -1.26051 0
M  V30 3289 C 302.781 -0.591836 -1.92822 0
M  V30 3290 C 303.094 0.873956 -1.7499 0
M  V30 3291 O 304.3 1.33769 -2.36259 0
M  V30 3292 C 302.756 -1.00776 -3.45503 0
M  V30 3293 C 302.364 -2.4955 -3.7206 0
M  V30 3294 C 304.108 -0.725735 -4.1825 0
M  V30 3295 C 302.015 -2.84988 -5.18205 0
M  V30 3296 H 300.945 -0.217635 -0.721908 0
M  V30 3297 H 303.596 -1.14927 -1.43052 0
M  V30 3298 H 301.978 -0.378812 -3.94184 0
M  V30 3299 H 303.152 -3.1739 -3.34066 0
M  V30 3300 H 301.467 -2.75133 -3.12555 0
M  V30 3301 H 304.064 -0.966771 -5.25887 0
M  V30 3302 H 304.407 0.337639 -4.14929 0
M  V30 3303 H 304.94 -1.31463 -3.7545 0
M  V30 3304 H 301.679 -3.90307 -5.26631 0
M  V30 3305 H 301.199 -2.21813 -5.57278 0
M  V30 3306 H 302.878 -2.73712 -5.86252 0
M  V30 3307 N 303.011 1.40521 -0.713556 0
M  V30 3308 C 304.239 2.05237 -0.261775 0
M  V30 3309 C 304.654 1.53755 1.09567 0
M  V30 3310 O 304.011 0.693268 1.6882 0
M  V30 3311 C 304.062 3.60763 -0.230706 0
M  V30 3312 O 303.783 4.10345 -1.53455 0
M  V30 3313 C 305.284 4.42651 0.239874 0
M  V30 3314 H 302.504 0.660533 -0.118057 0
M  V30 3315 H 305.048 1.79967 -0.971192 0
M  V30 3316 H 303.203 3.8501 0.429661 0
M  V30 3317 H 303.617 5.04526 -1.43366 0
M  V30 3318 H 305.091 5.51599 0.210468 0
M  V30 3319 H 305.568 4.20082 1.28171 0
M  V30 3320 H 306.174 4.23507 -0.390142 0
M  V30 3321 N 304.489 0.459591 1.5075 0
M  V30 3322 C 305.905 0.113092 1.59199 0
M  V30 3323 C 306.105 -1.37951 1.46874 0
M  V30 3324 O 305.161 -2.15168 1.32132 0
M  V30 3325 C 306.474 0.653043 2.93523 0
M  V30 3326 C 308.022 0.615449 3.0689 0
M  V30 3327 C 308.497 1.13275 4.43771 0
M  V30 3328 N 309.988 1.09167 4.50152 0
M  V30 3329 C 310.723 1.46256 5.54434 0
M  V30 3330 N 310.219 1.90739 6.66026 0
M  V30 3331 N 312.012 1.37932 5.44914 0
M  V30 3332 H 304.163 1.43049 1.57005 0
M  V30 3333 H 306.426 0.590861 0.741341 0
M  V30 3334 H 306.132 1.69822 3.07983 0
M  V30 3335 H 306.006 0.0902132 3.77092 0
M  V30 3336 H 308.393 -0.420793 2.92084 0
M  V30 3337 H 308.474 1.21495 2.25106 0
M  V30 3338 H 308.118 2.16757 4.59324 0
M  V30 3339 H 308.048 0.509576 5.24129 0
M  V30 3340 H 310.539 0.76528 3.7007 0
M  V30 3341 H 310.852 2.17218 7.41644 0
M  V30 3342 H 309.197 1.94683 6.67176 0
M  V30 3343 H 312.388 1.0303 4.56621 0
M  V30 3344 H 312.561 1.67164 6.26067 0
M  V30 3345 N 305.967 -1.56429 0.191757 0
M  V30 3346 C 307.244 -1.89224 -0.495332 0
M  V30 3347 C 307.624 -1.10478 -1.79883 0
M  V30 3348 O 306.972 -0.204852 -2.2758 0
M  V30 3349 C 307.182 -3.41548 -0.717367 0
M  V30 3350 C 308.53 -4.11711 -1.03823 0
M  V30 3351 O 309.554 -3.4698 -0.805204 0
M  V30 3352 O 308.413 -5.2611 -1.47887 0
M  V30 3353 H 305.507 -0.785788 -0.25781 0
M  V30 3354 H 308.053 -1.68111 0.231721 0
M  V30 3355 H 306.825 -3.90772 0.203287 0
M  V30 3356 H 306.448 -3.68342 -1.497 0
M  V30 3357 N 307.445 0.0818655 -1.57387 0
M  V30 3358 C 308.691 0.784074 -1.8703 0
M  V30 3359 C 309.024 1.77729 -0.782689 0
M  V30 3360 O 308.299 1.93384 0.208051 0
M  V30 3361 C 308.582 1.50105 -3.27323 0
M  V30 3362 C 308.435 0.524925 -4.46727 0
M  V30 3363 C 309.754 2.44843 -3.65705 0
M  V30 3364 H 306.873 0.283582 -0.680257 0
M  V30 3365 H 309.515 0.0474352 -1.89941 0
M  V30 3366 H 307.665 2.12897 -3.24972 0
M  V30 3367 H 309.337 -0.0970111 -4.61198 0
M  V30 3368 H 307.58 -0.160606 -4.33503 0
M  V30 3369 H 308.251 1.064 -5.41648 0
M  V30 3370 H 310.727 1.92135 -3.69085 0
M  V30 3371 H 309.603 2.92018 -4.64776 0
M  V30 3372 H 309.864 3.29197 -2.95096 0
M  V30 3373 N 308.923 1.53595 0.353017 0
M  V30 3374 C 310.169 1.70638 1.09593 0
M  V30 3375 C 310.502 0.463286 1.88593 0
M  V30 3376 O 309.777 -0.539597 1.86865 0
M  V30 3377 C 310.06 2.96406 2.04489 0
M  V30 3378 C 309.913 4.30901 1.29014 0
M  V30 3379 C 311.232 3.17812 3.0444 0
M  V30 3380 H 308.351 0.620913 0.397034 0
M  V30 3381 H 310.993 1.86254 0.375446 0
M  V30 3382 H 309.143 2.83223 2.65927 0
M  V30 3383 H 310.815 4.55917 0.702638 0
M  V30 3384 H 309.058 4.29741 0.592071 0
M  V30 3385 H 309.729 5.1506 1.98537 0
M  V30 3386 H 312.205 3.30263 2.53112 0
M  V30 3387 H 311.081 4.07223 3.6805 0
M  V30 3388 H 311.342 2.33669 3.75301 0
M  V30 3389 N 310.401 -0.613514 1.45168 0
M  V30 3390 C 311.65 -1.36874 1.4815 0
M  V30 3391 C 311.963 -1.952 0.124982 0
M  V30 3392 O 313.169 -2.71481 0.0324176 0
M  V30 3393 C 311.625 -2.47905 2.60904 0
M  V30 3394 C 311.233 -1.96016 4.02842 0
M  V30 3395 C 312.977 -3.24965 2.73126 0
M  V30 3396 C 310.884 -3.04494 5.06988 0
M  V30 3397 H 309.814 -0.514428 0.551253 0
M  V30 3398 H 312.465 -0.658182 1.7129 0
M  V30 3399 H 310.847 -3.21618 2.31037 0
M  V30 3400 H 312.021 -1.29051 4.4236 0
M  V30 3401 H 310.336 -1.31719 3.95018 0
M  V30 3402 H 312.933 -4.05865 3.48106 0
M  V30 3403 H 313.276 -3.75588 1.79553 0
M  V30 3404 H 313.809 -2.5835 3.0249 0
M  V30 3405 H 310.548 -2.58795 6.0225 0
M  V30 3406 H 310.068 -3.70044 4.72046 0
M  V30 3407 H 311.747 -3.68976 5.31475 0
M  V30 3408 N 311.879 -1.3236 -0.855495 0
M  V30 3409 C 312.842 -1.21164 -1.94556 0
M  V30 3410 C 313.842 -0.134908 -1.60233 0
M  V30 3411 O 315.032 -0.385249 -1.69887 0
M  V30 3412 C 312.164 -0.863192 -3.29791 0
M  V30 3413 H 313.357 -2.18038 -2.05911 0
M  V30 3414 H 310.91 -1.16179 -1.04557 0
M  V30 3415 H 311.645 0.103769 -3.24134 0
M  V30 3416 H 311.43 -1.64166 -3.56078 0
M  V30 3417 H 312.92 -0.809156 -4.09686 0
M  V30 3418 N 313.357 1.07166 -1.15556 0
M  V30 3419 C 314.597 1.81391 -0.94216 0
M  V30 3420 C 314.961 1.84788 0.521272 0
M  V30 3421 O 316.162 2.54904 0.85307 0
M  V30 3422 C 314.433 3.22431 -1.54185 0
M  V30 3423 S 315.992 4.13379 -1.47183 0
M  V30 3424 H 312.81 0.624963 -0.339031 0
M  V30 3425 H 315.412 1.28725 -1.4714 0
M  V30 3426 H 314.116 3.17548 -2.59984 0
M  V30 3427 H 313.647 3.80172 -1.01156 0
M  V30 3428 H 315.662 4.94007 -0.466004 0
M  V30 3429 N 314.835 0.952656 1.25548 0
M  V30 3430 C 315.798 0.475794 2.24207 0
M  V30 3431 C 316.798 -0.419428 1.55234 0
M  V30 3432 O 317.988 -0.216994 1.72843 0
M  V30 3433 C 315.12 -0.312814 3.39462 0
M  V30 3434 H 316.313 1.34779 2.67908 0
M  V30 3435 H 313.866 0.735739 1.37901 0
M  V30 3436 H 314.601 -1.20257 3.01179 0
M  V30 3437 H 314.386 0.329404 3.90714 0
M  V30 3438 H 315.876 -0.635986 4.12729 0
M  V30 3439 N 316.313 -1.40141 0.720998 0
M  V30 3440 C 317.261 -2.3252 0.0608547 0
M  V30 3441 C 318.255 -1.52326 -0.741152 0
M  V30 3442 O 319.461 -1.68089 -0.643911 0
M  V30 3443 H 315.836 -0.751999 0.000876664 0
M  V30 3444 H 317.807 -2.8584 0.856614 0
M  V30 3445 C 316.556 -3.37331 -0.842809 0
M  V30 3446 H 315.879 -3.99108 -0.235084 0
M  V30 3447 H 317.319 -4.04452 -1.27257 0
M  V30 3448 C 315.778 -2.73246 -1.97074 0
M  V30 3449 O 316.308 -2.59998 -3.06209 0
M  V30 3450 N 314.514 -2.31547 -1.75597 0
M  V30 3451 H 314.061 -2.42522 -0.868368 0
M  V30 3452 H 314.019 -1.89007 -2.51244 0
M  V30 3453 N 317.792 -0.46758 -1.50504 0
M  V30 3454 C 318.702 0.33382 -2.32213 0
M  V30 3455 C 319.718 0.999323 -1.42441 0
M  V30 3456 O 320.894 0.988068 -1.75497 0
M  V30 3457 C 317.959 1.4035 -3.17022 0
M  V30 3458 C 317.02 0.754961 -4.2261 0
M  V30 3459 C 316.253 1.77367 -5.03365 0
M  V30 3460 O 316.476 2.99976 -4.8515 0
M  V30 3461 O 315.41 1.34744 -5.86624 0
M  V30 3462 H 319.236 -0.334067 -3.01857 0
M  V30 3463 H 316.821 -0.229496 -1.47627 0
M  V30 3464 H 318.703 2.02318 -3.69656 0
M  V30 3465 H 317.378 2.05492 -2.5011 0
M  V30 3466 H 316.285 0.0964244 -3.73976 0
M  V30 3467 H 317.618 0.146545 -4.91982 0
M  V30 3468 N 319.27 1.56325 -0.20005 0
M  V30 3469 C 320.519 1.96895 0.437652 0
M  V30 3470 C 320.832 1.08999 1.62415 0
M  V30 3471 O 322.038 1.39372 2.32997 0
M  V30 3472 C 320.494 3.50198 0.830025 0
M  V30 3473 C 320.102 4.46765 -0.332461 0
M  V30 3474 C 321.846 3.99526 1.43453 0
M  V30 3475 C 319.753 5.91344 0.0811468 0
M  V30 3476 H 318.683 0.735209 0.167282 0
M  V30 3477 H 321.334 1.81148 -0.292853 0
M  V30 3478 H 319.716 3.61467 1.61734 0
M  V30 3479 H 320.89 4.47231 -1.11 0
M  V30 3480 H 319.205 4.07657 -0.848789 0
M  V30 3481 H 321.802 5.05025 1.75652 0
M  V30 3482 H 322.145 3.44122 2.34277 0
M  V30 3483 H 322.678 3.91393 0.71109 0
M  V30 3484 H 319.417 6.50685 -0.793033 0
M  V30 3485 H 318.937 5.94121 0.823445 0
M  V30 3486 H 320.616 6.44945 0.515252 0
M  V30 3487 N 320.748 -0.0735177 1.57428 0
M  V30 3488 C 321.696 -1.10628 2.04607 0
M  V30 3489 C 322.69 -1.40181 0.951088 0
M  V30 3490 O 323.896 -1.39608 1.1362 0
M  V30 3491 H 320.271 -0.374088 0.652351 0
M  V30 3492 H 322.242 -0.682218 2.90497 0
M  V30 3493 C 320.991 -2.41212 2.50423 0
M  V30 3494 H 320.314 -2.19322 3.34272 0
M  V30 3495 H 321.754 -3.11927 2.87189 0
M  V30 3496 C 320.213 -3.0705 1.38644 0
M  V30 3497 O 320.743 -3.95056 0.727582 0
M  V30 3498 N 318.949 -2.67645 1.132 0
M  V30 3499 H 318.496 -1.96169 1.66959 0
M  V30 3500 H 318.454 -3.1202 0.386147 0
M  V30 3501 N 322.226 -1.5378 -0.344866 0
M  V30 3502 C 323.159 -1.7649 -1.4466 0
M  V30 3503 C 324.137 -0.613954 -1.50563 0
M  V30 3504 O 325.321 -0.84896 -1.683 0
M  V30 3505 C 322.448 -1.86235 -2.82903 0
M  V30 3506 C 321.494 -3.08375 -2.94631 0
M  V30 3507 S 322.327 -4.67457 -2.61236 0
M  V30 3508 C 323.483 -4.80079 -4.0159 0
M  V30 3509 H 323.716 -2.69661 -1.2518 0
M  V30 3510 H 321.249 -1.44632 -0.540455 0
M  V30 3511 H 323.207 -1.92535 -3.62547 0
M  V30 3512 H 321.868 -0.940786 -2.9968 0
M  V30 3513 H 321.061 -3.11865 -3.95925 0
M  V30 3514 H 320.663 -3.00294 -2.22934 0
M  V30 3515 H 322.955 -4.61407 -4.96094 0
M  V30 3516 H 323.898 -5.82168 -4.03095 0
M  V30 3517 H 324.306 -4.08544 -3.89554 0
M  V30 3518 N 323.704 0.605807 -1.45491 0
M  V30 3519 C 325.115 1.18777 -1.44045 0
M  V30 3520 C 325.466 1.95471 -0.169001 0
M  V30 3521 O 324.591 2.0374 0.729324 0
M  V30 3522 C 325.186 2.16064 -2.60963 0
M  V30 3523 C 323.745 2.69633 -2.62631 0
M  V30 3524 C 322.892 1.45072 -2.36325 0
M  V30 3525 H 325.843 0.395017 -1.53705 0
M  V30 3526 H 325.864 2.9913 -2.35163 0
M  V30 3527 H 325.376 1.60217 -3.53486 0
M  V30 3528 H 323.477 3.29414 -1.74119 0
M  V30 3529 H 323.59 3.13944 -3.61906 0
M  V30 3530 H 321.954 1.74089 -1.85917 0
M  V30 3531 H 322.737 0.910899 -3.30995 0
M  V30 3532 N 325.182 1.32811 0.848464 0
M  V30 3533 C 326.428 1.23907 1.60546 0
M  V30 3534 C 326.761 -0.197161 1.93197 0
M  V30 3535 O 326.036 -1.13596 1.5788 0
M  V30 3536 C 326.319 2.10489 2.92175 0
M  V30 3537 C 326.172 3.62522 2.66266 0
M  V30 3538 C 327.491 1.97075 3.93509 0
M  V30 3539 H 324.61 0.451459 0.58254 0
M  V30 3540 H 327.252 1.62818 0.979296 0
M  V30 3541 H 325.402 1.77434 3.45614 0
M  V30 3542 H 327.074 4.05821 2.19334 0
M  V30 3543 H 325.317 3.84879 2.00126 0
M  V30 3544 H 325.988 4.18437 3.6002 0
M  V30 3545 H 328.464 2.26045 3.49346 0
M  V30 3546 H 327.34 2.59923 4.83457 0
M  V30 3547 H 327.601 0.940186 4.31987 0
M  V30 3548 N 326.66 -1.06551 1.16123 0
M  V30 3549 C 327.607 -2.13961 0.865414 0
M  V30 3550 C 328.577 -1.65066 -0.185055 0
M  V30 3551 O 329.762 -1.90732 -0.05083 0
M  V30 3552 C 326.902 -3.43113 0.369776 0
M  V30 3553 C 326.015 -4.05756 1.48276 0
M  V30 3554 C 325.15 -5.22773 0.942414 0
M  V30 3555 C 324.189 -5.77395 2.03179 0
M  V30 3556 N 323.326 -6.85731 1.50721 0
M  V30 3557 H 328.166 -2.38605 1.78527 0
M  V30 3558 H 325.703 -1.17072 0.890646 0
M  V30 3559 H 327.661 -4.17151 0.0640643 0
M  V30 3560 H 326.291 -3.18695 -0.513143 0
M  V30 3561 H 325.343 -3.29292 1.9045 0
M  V30 3562 H 326.655 -4.42351 2.30493 0
M  V30 3563 H 325.809 -6.03827 0.589729 0
M  V30 3564 H 324.548 -4.87618 0.0895191 0
M  V30 3565 H 323.553 -4.94981 2.3932 0
M  V30 3566 H 324.778 -6.14603 2.8886 0
M  V30 3567 H 322.724 -6.52499 0.676811 0
M  V30 3568 H 322.641 -7.21254 2.26557 0
M  V30 3569 H 323.909 -7.7047 1.18303 0
M  V30 3570 N 328.138 -0.959301 -1.25041 0
M  V30 3571 C 329.048 -0.489994 -2.29426 0
M  V30 3572 C 330.064 0.444944 -1.68215 0
M  V30 3573 O 331.24 0.320046 -1.98841 0
M  V30 3574 C 328.305 0.220309 -3.45999 0
M  V30 3575 C 327.366 -0.753418 -4.22637 0
M  V30 3576 C 326.599 -0.076918 -5.33645 0
M  V30 3577 O 326.822 1.13649 -5.58963 0
M  V30 3578 O 325.756 -0.764824 -5.97021 0
M  V30 3579 H 329.582 -1.35755 -2.71669 0
M  V30 3580 H 327.167 -0.725961 -1.30576 0
M  V30 3581 H 329.049 0.619677 -4.16819 0
M  V30 3582 H 327.724 1.06296 -3.0575 0
M  V30 3583 H 326.631 -1.20308 -3.54227 0
M  V30 3584 H 327.964 -1.56423 -4.66683 0
M  V30 3585 N 329.616 1.39756 -0.72842 0
M  V30 3586 C 330.865 1.99879 -0.270407 0
M  V30 3587 C 331.178 1.58449 1.14688 0
M  V30 3588 O 332.384 2.11362 1.70407 0
M  V30 3589 C 330.84 3.57292 -0.43252 0
M  V30 3590 C 330.448 4.07688 -1.85727 0
M  V30 3591 C 332.192 4.24485 -0.0359507 0
M  V30 3592 C 330.099 5.5765 -1.96928 0
M  V30 3593 H 329.029 0.747689 -0.0973472 0
M  V30 3594 H 331.68 1.59837 -0.901355 0
M  V30 3595 H 330.062 3.95097 0.267219 0
M  V30 3596 H 331.236 3.81231 -2.58843 0
M  V30 3597 H 329.551 3.53135 -2.20646 0
M  V30 3598 H 332.148 5.34609 -0.0987484 0
M  V30 3599 H 332.491 4.03915 1.00787 0
M  V30 3600 H 333.024 3.9183 -0.686604 0
M  V30 3601 H 329.763 5.8309 -2.99476 0
M  V30 3602 H 329.283 5.8593 -1.28241 0
M  V30 3603 H 330.962 6.22957 -1.74737 0
M  V30 3604 N 331.094 0.475555 1.50254 0
M  V30 3605 C 332.505 0.0215174 1.86688 0
M  V30 3606 C 332.856 -1.38467 1.39001 0
M  V30 3607 O 331.981 -2.02732 0.756894 0
M  V30 3608 C 332.576 0.0322715 3.38785 0
M  V30 3609 C 331.135 -0.366314 3.74613 0
M  V30 3610 C 330.282 0.415832 2.74164 0
M  V30 3611 H 333.233 0.689612 1.42934 0
M  V30 3612 H 333.254 -0.76889 3.7265 0
M  V30 3613 H 332.766 1.05584 3.73462 0
M  V30 3614 H 330.867 -1.39406 3.45538 0
M  V30 3615 H 330.98 -0.064555 4.79057 0
M  V30 3616 H 329.344 -0.131048 2.54363 0
M  V30 3617 H 330.127 1.43899 3.11686 0
M  V30 3618 N 332.573 -1.56217 0.208337 0
M  V30 3619 C 333.82 -1.97949 -0.42692 0
M  V30 3620 C 334.148 -1.09562 -1.60706 0
M  V30 3621 O 333.403 -0.137616 -1.95216 0
M  V30 3622 C 333.702 -3.45441 -0.916797 0
M  V30 3623 C 333.368 -4.50646 0.151391 0
M  V30 3624 C 332.03 -4.79139 0.444867 0
M  V30 3625 C 334.382 -5.13811 0.874492 0
M  V30 3626 C 331.71 -5.68084 1.46619 0
M  V30 3627 C 334.062 -6.03861 1.88506 0
M  V30 3628 C 332.726 -6.30704 2.18559 0
M  V30 3629 H 331.996 -0.724345 -0.156221 0
M  V30 3630 H 334.643 -1.89006 0.308084 0
M  V30 3631 H 332.948 -3.51521 -1.73032 0
M  V30 3632 H 334.645 -3.75094 -1.41794 0
M  V30 3633 H 331.235 -4.28511 -0.0875068 0
M  V30 3634 H 335.419 -4.91879 0.660996 0
M  V30 3635 H 330.675 -5.87151 1.7048 0
M  V30 3636 H 334.849 -6.51861 2.45051 0
M  V30 3637 H 332.476 -6.99424 2.97843 0
M  V30 3638 N 334.051 0.0651679 -1.57465 0
M  V30 3639 C 335.279 0.775808 -1.91804 0
M  V30 3640 C 335.694 1.70782 -0.804916 0
M  V30 3641 O 335.051 1.81153 0.221311 0
M  V30 3642 C 335.102 1.56381 -3.25925 0
M  V30 3643 O 334.823 0.669248 -4.32958 0
M  V30 3644 C 336.324 2.37485 -3.7432 0
M  V30 3645 H 333.544 0.2202 -0.63384 0
M  V30 3646 H 336.088 0.0334587 -2.04473 0
M  V30 3647 H 334.243 2.25837 -3.14764 0
M  V30 3648 H 334.657 1.21801 -5.10162 0
M  V30 3649 H 336.131 2.88223 -4.70778 0
M  V30 3650 H 336.608 3.17307 -3.03666 0
M  V30 3651 H 337.214 1.73173 -3.88447 0
M  V30 3652 N 335.529 1.53961 0.336706 0
M  V30 3653 C 336.757 1.75483 1.09605 0
M  V30 3654 C 337.172 0.4972 1.82136 0
M  V30 3655 O 336.529 -0.53149 1.74589 0
M  V30 3656 C 336.58 2.93943 2.10428 0
M  V30 3657 O 336.301 4.14842 1.40846 0
M  V30 3658 C 337.802 3.27571 2.98684 0
M  V30 3659 H 335.022 0.586166 0.326574 0
M  V30 3660 H 337.566 2.00808 0.38683 0
M  V30 3661 H 335.721 2.70929 2.76905 0
M  V30 3662 H 336.135 4.81383 2.08255 0
M  V30 3663 H 337.609 4.13791 3.6535 0
M  V30 3664 H 338.086 2.44168 3.65074 0
M  V30 3665 H 338.692 3.52615 2.37787 0
M  V30 3666 N 337.007 -0.598083 1.45811 0
M  V30 3667 C 337.957 -1.70272 1.51629 0
M  V30 3668 C 338.941 -1.56382 0.378629 0
M  V30 3669 O 340.133 -1.65557 0.626087 0
M  V30 3670 C 337.262 -3.09042 1.49493 0
M  V30 3671 C 336.348 -3.28284 2.68496 0
M  V30 3672 N 336.739 -3.17748 3.93535 0
M  V30 3673 C 335.037 -3.59182 2.64394 0
M  V30 3674 C 335.738 -3.38579 4.7301 0
M  V30 3675 N 334.714 -3.63016 4.04624 0
M  V30 3676 H 338.516 -1.60634 2.46118 0
M  V30 3677 H 336.03 -0.801642 1.41235 0
M  V30 3678 H 338.027 -3.88302 1.51747 0
M  V30 3679 H 336.687 -3.19823 0.560683 0
M  V30 3680 H 337.698 -2.95944 4.25014 0
M  V30 3681 H 334.375 -3.76742 1.79922 0
M  V30 3682 H 335.765 -3.35747 5.82 0
M  V30 3683 N 338.485 -1.33259 -0.841409 0
M  V30 3684 C 339.395 -1.25332 -1.98316 0
M  V30 3685 C 340.411 -0.164364 -1.73222 0
M  V30 3686 O 341.587 -0.387486 -1.97637 0
M  V30 3687 C 338.652 -0.990078 -3.32262 0
M  V30 3688 C 337.713 -2.16879 -3.70489 0
M  V30 3689 C 336.946 -1.91801 -4.98044 0
M  V30 3690 O 337.169 -0.867075 -5.63771 0
M  V30 3691 O 336.103 -2.78267 -5.33714 0
M  V30 3692 H 339.929 -2.21344 -2.07944 0
M  V30 3693 H 337.514 -1.1328 -0.974058 0
M  V30 3694 H 339.396 -0.860321 -4.12524 0
M  V30 3695 H 338.071 -0.0602155 -3.23644 0
M  V30 3696 H 336.978 -2.35407 -2.90748 0
M  V30 3697 H 338.311 -3.0819 -3.8377 0
M  V30 3698 N 339.963 1.05934 -1.16686 0
M  V30 3699 C 340.926 2.11669 -0.879144 0
M  V30 3700 C 341.926 1.60294 0.127445 0
M  V30 3701 O 343.116 1.7389 -0.103865 0
M  V30 3702 C 340.248 3.39438 -0.315425 0
M  V30 3703 H 341.441 2.38626 -1.81653 0
M  V30 3704 H 338.994 1.22058 -0.976299 0
M  V30 3705 H 339.729 3.18132 0.629468 0
M  V30 3706 H 339.514 3.78034 -1.04079 0
M  V30 3707 H 341.004 4.17391 -0.132189 0
M  V30 3708 N 341.441 0.965919 1.2453 0
M  V30 3709 C 342.371 0.513476 2.27784 0
M  V30 3710 C 343.352 -0.445974 1.6415 0
M  V30 3711 O 344.537 -0.342485 1.91156 0
M  V30 3712 C 341.667 -0.198839 3.4673 0
M  V30 3713 C 340.621 0.676456 4.2262 0
M  V30 3714 C 339.947 -0.167248 5.34438 0
M  V30 3715 C 341.247 1.96017 4.84123 0
M  V30 3716 H 342.941 1.3765 2.65881 0
M  V30 3717 H 340.487 0.663321 1.27813 0
M  V30 3718 H 342.44 -0.526567 4.18097 0
M  V30 3719 H 341.164 -1.0962 3.07654 0
M  V30 3720 H 339.823 0.98743 3.53052 0
M  V30 3721 H 339.471 -1.0647 4.91603 0
M  V30 3722 H 339.171 0.415181 5.86131 0
M  V30 3723 H 340.695 -0.489688 6.08633 0
M  V30 3724 H 342.109 1.69814 5.47573 0
M  V30 3725 H 340.506 2.48918 5.4604 0
M  V30 3726 H 341.576 2.65622 4.05676 0
M  V30 3727 N 342.919 -1.39368 0.735821 0
M  V30 3728 C 343.866 -2.30599 0.0963825 0
M  V30 3729 C 344.836 -1.49257 -0.728794 0
M  V30 3730 O 346.021 -1.77941 -0.688588 0
M  V30 3731 C 343.161 -3.35596 -0.804305 0
M  V30 3732 C 342.274 -4.31987 0.0335761 0
M  V30 3733 C 341.409 -5.24053 -0.868461 0
M  V30 3734 C 340.448 -6.12095 -0.0258776 0
M  V30 3735 N 339.585 -6.96514 -0.883893 0
M  V30 3736 H 344.425 -2.8471 0.880002 0
M  V30 3737 H 341.962 -1.40188 0.445619 0
M  V30 3738 H 343.92 -3.95062 -1.34096 0
M  V30 3739 H 342.55 -2.82938 -1.55389 0
M  V30 3740 H 341.602 -3.74133 0.68766 0
M  V30 3741 H 342.914 -4.94074 0.685036 0
M  V30 3742 H 342.068 -5.88549 -1.47293 0
M  V30 3743 H 340.807 -4.62289 -1.5537 0
M  V30 3744 H 339.812 -5.4661 0.591386 0
M  V30 3745 H 341.037 -6.75923 0.656156 0
M  V30 3746 H 338.983 -6.37318 -1.55441 0
M  V30 3747 H 338.9 -7.55448 -0.288931 0
M  V30 3748 H 340.168 -7.65439 -1.4739 0
M  V30 3749 N 344.397 -0.483516 -1.5 0
M  V30 3750 C 345.33 0.350427 -2.25493 0
M  V30 3751 C 346.308 0.985549 -1.29328 0
M  V30 3752 O 347.492 1.01906 -1.58579 0
M  V30 3753 C 344.619 1.49202 -3.04066 0
M  V30 3754 C 343.665 0.973036 -4.15252 0
M  V30 3755 S 344.498 -0.122237 -5.3536 0
M  V30 3756 C 345.654 1.02294 -6.17484 0
M  V30 3757 H 345.887 -0.290381 -2.95878 0
M  V30 3758 H 343.42 -0.268562 -1.52046 0
M  V30 3759 H 345.378 2.14623 -3.49925 0
M  V30 3760 H 344.039 2.10438 -2.33183 0
M  V30 3761 H 343.232 1.82804 -4.69679 0
M  V30 3762 H 342.834 0.396335 -3.71894 0
M  V30 3763 H 345.126 1.93195 -6.49371 0
M  V30 3764 H 346.069 0.517664 -7.06205 0
M  V30 3765 H 346.477 1.28238 -5.49741 0
M  V30 3766 N 345.875 1.56104 -0.216619 0
M  V30 3767 C 347.152 1.89988 0.465165 0
M  V30 3768 C 347.532 1.13326 1.78102 0
M  V30 3769 O 346.88 0.241033 2.27225 0
M  V30 3770 C 347.09 3.42646 0.662939 0
M  V30 3771 C 348.438 4.13311 0.972602 0
M  V30 3772 O 349.462 3.48217 0.749901 0
M  V30 3773 O 348.321 5.28396 1.39499 0
M  V30 3774 H 345.415 0.78979 0.245276 0
M  V30 3775 H 347.961 1.67721 -0.258436 0
M  V30 3776 H 346.733 3.90399 -0.26543 0
M  V30 3777 H 346.356 3.70677 1.43821 0
M  V30 3778 N 347.353 -0.0568162 1.57498 0
M  V30 3779 C 348.263 -1.08346 2.08083 0
M  V30 3780 C 349.279 -1.41439 1.01346 0
M  V30 3781 O 350.455 -1.51316 1.32912 0
M  V30 3782 C 347.52 -2.37352 2.52715 0
M  V30 3783 C 346.581 -2.11093 3.73816 0
M  V30 3784 C 345.814 -3.33949 4.1631 0
M  V30 3785 O 346.037 -4.43622 3.58547 0
M  V30 3786 O 344.971 -3.21279 5.08983 0
M  V30 3787 H 348.797 -0.683667 2.95905 0
M  V30 3788 H 346.382 -0.271965 1.46904 0
M  V30 3789 H 348.264 -3.13246 2.81877 0
M  V30 3790 H 346.939 -2.76681 1.68016 0
M  V30 3791 H 345.846 -1.32856 3.49714 0
M  V30 3792 H 347.179 -1.76637 4.59413 0
M  V30 3793 N 348.832 -1.54138 -0.328536 0
M  V30 3794 C 349.762 -1.86167 -1.40939 0
M  V30 3795 C 350.743 -0.718044 -1.54202 0
M  V30 3796 O 351.928 -0.971328 -1.68163 0
M  V30 3797 C 349.058 -2.08461 -2.77779 0
M  V30 3798 C 348.012 -3.24299 -2.7931 0
M  V30 3799 C 347.338 -3.31955 -4.19178 0
M  V30 3800 C 348.638 -4.62065 -2.43502 0
M  V30 3801 H 350.332 -2.76689 -1.14383 0
M  V30 3802 H 347.878 -1.33132 -0.548806 0
M  V30 3803 H 349.831 -2.29453 -3.53454 0
M  V30 3804 H 348.555 -1.14684 -3.05802 0
M  V30 3805 H 347.214 -3.03187 -2.0609 0
M  V30 3806 H 346.862 -2.35745 -4.44335 0
M  V30 3807 H 346.562 -4.09805 -4.2111 0
M  V30 3808 H 348.086 -3.55175 -4.96672 0
M  V30 3809 H 349.5 -4.8297 -3.08889 0
M  V30 3810 H 347.897 -5.42429 -2.56693 0
M  V30 3811 H 348.967 -4.64652 -1.38659 0
M  V30 3812 N 350.31 0.590341 -1.46126 0
M  V30 3813 C 351.557 1.34882 -1.5104 0
M  V30 3814 C 351.885 1.93849 -0.159021 0
M  V30 3815 O 351.14 1.76544 0.844436 0
M  V30 3816 C 351.439 2.5032 -2.55097 0
M  V30 3817 C 351.105 2.09394 -3.99331 0
M  V30 3818 C 349.767 1.97947 -4.38601 0
M  V30 3819 C 352.119 1.77712 -4.89967 0
M  V30 3820 C 349.447 1.53065 -5.66381 0
M  V30 3821 C 351.799 1.34312 -6.18177 0
M  V30 3822 C 350.463 1.21436 -6.56361 0
M  V30 3823 H 349.733 0.493568 -0.552695 0
M  V30 3824 H 352.38 0.665539 -1.79563 0
M  V30 3825 H 350.685 3.24062 -2.20207 0
M  V30 3826 H 352.382 3.08541 -2.56132 0
M  V30 3827 H 348.972 2.19235 -3.68285 0
M  V30 3828 H 353.156 1.85445 -4.60352 0
M  V30 3829 H 348.412 1.41733 -5.94745 0
M  V30 3830 H 352.586 1.08849 -6.87841 0
M  V30 3831 H 350.213 0.864345 -7.5527 0
M  V30 3832 N 351.788 1.33704 0.83433 0
M  V30 3833 C 353.034 1.25603 1.59222 0
M  V30 3834 C 353.367 -0.176659 1.93395 0
M  V30 3835 O 352.642 -1.11915 1.59076 0
M  V30 3836 C 352.925 2.13576 2.89926 0
M  V30 3837 C 352.778 3.65326 2.62406 0
M  V30 3838 C 354.097 2.01238 3.91397 0
M  V30 3839 H 351.216 0.457613 0.577719 0
M  V30 3840 H 353.858 1.63848 0.961972 0
M  V30 3841 H 352.008 1.8109 3.43713 0
M  V30 3842 H 353.68 4.08124 2.15017 0
M  V30 3843 H 351.923 3.8698 1.96033 0
M  V30 3844 H 352.594 4.22232 3.55562 0
M  V30 3845 H 355.07 2.29738 3.46929 0
M  V30 3846 H 353.946 2.65036 4.80673 0
M  V30 3847 H 354.207 0.985951 4.30966 0
M  V30 3848 N 353.266 -1.05314 1.17247 0
M  V30 3849 C 354.494 -1.81971 0.984593 0
M  V30 3850 C 354.909 -1.82929 -0.467166 0
M  V30 3851 O 354.266 -1.25564 -1.32438 0
M  V30 3852 C 354.317 -3.28143 1.51672 0
M  V30 3853 O 354.038 -3.27347 2.91163 0
M  V30 3854 C 355.539 -4.21493 1.37326 0
M  V30 3855 H 352.759 -0.573455 0.348411 0
M  V30 3856 H 355.303 -1.32808 1.55506 0
M  V30 3857 H 353.458 -3.74582 0.988302 0
M  V30 3858 H 353.872 -4.18824 3.15732 0
M  V30 3859 H 355.346 -5.22043 1.79375 0
M  V30 3860 H 355.823 -4.38031 0.320169 0
M  V30 3861 H 356.429 -3.80909 1.89178 0
M  V30 3862 N 354.744 -0.972509 -1.24016 0
M  V30 3863 C 355.969 -0.654417 -1.96805 0
M  V30 3864 C 356.394 0.770398 -1.716 0
M  V30 3865 O 355.752 1.52361 -0.982647 0
M  V30 3866 C 355.8 -0.941031 -3.48105 0
M  V30 3867 O 354.904 -0.0289472 -4.1239 0
M  V30 3868 H 354.245 -0.24692 -0.616382 0
M  V30 3869 H 356.775 -1.30396 -1.57664 0
M  V30 3870 H 356.785 -0.87452 -3.98517 0
M  V30 3871 H 355.46 -1.97939 -3.65777 0
M  V30 3872 H 354.037 -0.149192 -3.72601 0
M  V30 3873 N 356.222 1.38976 -0.743202 0
M  V30 3874 C 357.45 2.04636 -0.30525 0
M  V30 3875 C 357.865 1.56044 1.06281 0
M  V30 3876 O 357.222 0.728921 1.67311 0
M  V30 3877 C 357.273 3.60193 -0.307177 0
M  V30 3878 O 356.994 4.06998 -1.62124 0
M  V30 3879 C 358.495 4.4306 0.145928 0
M  V30 3880 H 355.715 0.65788 -0.132041 0
M  V30 3881 H 358.259 1.77866 -1.00915 0
M  V30 3882 H 356.414 3.85835 0.347898 0
M  V30 3883 H 356.828 5.01371 -1.54036 0
M  V30 3884 H 358.302 5.51921 0.0934183 0
M  V30 3885 H 358.779 4.22706 1.19231 0
M  V30 3886 H 359.385 4.22584 -0.479886 0
M  V30 3887 N 357.7 0.491464 1.49741 0
M  V30 3888 C 358.928 -0.0535151 2.06831 0
M  V30 3889 C 359.343 -1.31683 1.35296 0
M  V30 3890 O 358.7 -1.77402 0.42836 0
M  V30 3891 C 358.751 -0.320835 3.60073 0
M  V30 3892 O 358.472 0.892394 4.28915 0
M  V30 3893 C 359.973 -0.910519 4.33848 0
M  V30 3894 H 357.193 0.0161909 0.670805 0
M  V30 3895 H 359.737 0.68609 1.92647 0
M  V30 3896 H 357.892 -1.0104 3.73991 0
M  V30 3897 H 358.306 0.649401 5.20464 0
M  V30 3898 H 359.78 -1.04721 5.41976 0
M  V30 3899 H 360.257 -1.90589 3.95692 0
M  V30 3900 H 360.863 -0.258712 4.24512 0
M  V30 3901 N 359.178 -1.55987 0.224894 0
M  V30 3902 C 360.403 -2.03232 -0.41369 0
M  V30 3903 C 360.828 -1.10359 -1.52323 0
M  V30 3904 O 360.186 -0.092395 -1.81064 0
M  V30 3905 C 360.234 -3.48682 -0.919405 0
M  V30 3906 O 359.338 -3.58947 -2.03054 0
M  V30 3907 H 358.679 -0.657428 -0.0931903 0
M  V30 3908 H 361.209 -2.01679 0.34451 0
M  V30 3909 H 361.219 -3.8907 -1.22835 0
M  V30 3910 H 359.894 -4.15761 -0.107339 0
M  V30 3911 H 358.471 -3.30448 -1.72796 0
M  V30 3912 N 360.656 0.0484629 -1.57525 0
M  V30 3913 C 361.566 1.07241 -2.08654 0
M  V30 3914 C 362.582 1.409 -1.02095 0
M  V30 3915 O 363.758 1.50609 -1.33712 0
M  V30 3916 C 360.823 2.36008 -2.5397 0
M  V30 3917 C 359.884 2.09108 -3.7493 0
M  V30 3918 C 359.117 3.31736 -4.18075 0
M  V30 3919 O 359.34 4.41714 -3.60895 0
M  V30 3920 O 358.274 3.18576 -5.10679 0
M  V30 3921 H 362.1 0.667965 -2.96263 0
M  V30 3922 H 359.685 0.26417 -1.47046 0
M  V30 3923 H 361.567 3.11747 -2.83535 0
M  V30 3924 H 360.242 2.75786 -1.69481 0
M  V30 3925 H 359.149 1.31 -3.50414 0
M  V30 3926 H 360.482 1.74198 -4.60343 0
M  V30 3927 N 362.134 1.5431 0.320358 0
M  V30 3928 C 363.383 1.7188 1.05546 0
M  V30 3929 C 363.696 0.501143 1.89071 0
M  V30 3930 O 364.902 0.558258 2.65699 0
M  V30 3931 C 363.358 3.04025 1.92605 0
M  V30 3932 C 362.966 4.33207 1.14176 0
M  V30 3933 C 364.71 3.30959 2.65832 0
M  V30 3934 C 362.617 5.56412 2.00399 0
M  V30 3935 H 361.547 0.640547 0.397763 0
M  V30 3936 H 364.198 1.80802 0.313522 0
M  V30 3937 H 362.58 2.89019 2.7071 0
M  V30 3938 H 363.754 4.58989 0.40819 0
M  V30 3939 H 362.069 4.13062 0.526165 0
M  V30 3940 H 364.666 4.20203 3.30656 0
M  V30 3941 H 365.009 2.48979 3.33639 0
M  V30 3942 H 365.542 3.46847 1.94787 0
M  V30 3943 H 362.281 6.41004 1.37094 0
M  V30 3944 H 361.801 5.34844 2.7148 0
M  V30 3945 H 363.48 5.92938 2.58908 0
M  V30 3946 N 363.613 -0.582584 1.46437 0
M  V30 3947 C 364.841 -1.36682 1.55324 0
M  V30 3948 C 365.256 -1.87796 0.194409 0
M  V30 3949 O 364.613 -1.63623 -0.808318 0
M  V30 3950 C 364.664 -2.55426 2.55812 0
M  V30 3951 O 364.385 -2.0643 3.86417 0
M  V30 3952 C 365.886 -3.47976 2.74641 0
M  V30 3953 H 363.106 -0.417545 0.525259 0
M  V30 3954 H 365.65 -0.708219 1.91845 0
M  V30 3955 H 363.805 -3.17275 2.22295 0
M  V30 3956 H 364.219 -2.83762 4.41111 0
M  V30 3957 H 365.693 -4.27775 3.48874 0
M  V30 3958 H 366.17 -3.99919 1.81553 0
M  V30 3959 H 366.776 -2.91962 3.09255 0
M  V30 3960 N 365.091 -1.34144 -0.827227 0
M  V30 3961 C 366.502 -1.23557 -1.39966 0
M  V30 3962 C 366.853 0.140731 -1.95695 0
M  V30 3963 O 365.978 1.04087 -1.89723 0
M  V30 3964 C 366.573 -2.23708 -2.54441 0
M  V30 3965 C 365.132 -2.16924 -3.07605 0
M  V30 3966 C 364.279 -2.10549 -1.80456 0
M  V30 3967 H 367.23 -1.45573 -0.631991 0
M  V30 3968 H 367.251 -1.85157 -3.32411 0
M  V30 3969 H 366.763 -3.23866 -2.13851 0
M  V30 3970 H 364.864 -1.20107 -3.52711 0
M  V30 3971 H 364.977 -3.07988 -3.66988 0
M  V30 3972 H 363.341 -1.56203 -2.01178 0
M  V30 3973 H 364.124 -3.12535 -1.42046 0
M  V30 3974 N 366.569 1.04691 -1.17803 0
M  V30 3975 C 367.815 1.78045 -0.970969 0
M  V30 3976 C 368.148 1.87686 0.498751 0
M  V30 3977 O 367.423 1.38035 1.37027 0
M  V30 3978 C 367.706 3.2166 -1.61884 0
M  V30 3979 C 367.559 3.20001 -3.161 0
M  V30 3980 C 368.878 4.1962 -1.3269 0
M  V30 3981 H 365.997 0.64633 -0.354155 0
M  V30 3982 H 368.639 1.22333 -1.45378 0
M  V30 3983 H 366.789 3.69232 -1.20831 0
M  V30 3984 H 368.461 2.80467 -3.66246 0
M  V30 3985 H 366.704 2.58203 -3.48588 0
M  V30 3986 H 367.375 4.21386 -3.56564 0
M  V30 3987 H 369.851 3.80567 -1.68249 0
M  V30 3988 H 368.727 5.18339 -1.80599 0
M  V30 3989 H 368.988 4.414 -0.248622 0
M  V30 3990 N 368.047 0.979072 1.23499 0
M  V30 3991 C 369.296 0.642751 1.91185 0
M  V30 3992 C 369.609 -0.827253 1.77245 0
M  V30 3993 O 370.815 -1.27458 2.39722 0
M  V30 3994 C 369.271 1.09901 3.42709 0
M  V30 3995 C 368.879 2.59327 3.65313 0
M  V30 3996 C 370.623 0.836371 4.16179 0
M  V30 3997 C 368.53 2.98627 5.10467 0
M  V30 3998 H 367.46 0.236698 0.715884 0
M  V30 3999 H 370.111 1.1868 1.39955 0
M  V30 4000 H 368.493 0.48319 3.93041 0
M  V30 4001 H 369.667 3.26136 3.25533 0
M  V30 4002 H 367.982 2.83323 3.05151 0
M  V30 4003 H 370.579 1.10586 5.23139 0
M  V30 4004 H 370.922 -0.227509 4.15678 0
M  V30 4005 H 371.455 1.41371 3.71832 0
M  V30 4006 H 368.194 4.04133 5.16098 0
M  V30 4007 H 367.714 2.3651 5.51201 0
M  V30 4008 H 369.393 2.89159 5.78788 0
M  V30 4009 N 369.525 -1.3858 0.750561 0
M  V30 4010 C 370.435 -2.34278 0.122825 0
M  V30 4011 C 371.451 -1.59116 -0.704131 0
M  V30 4012 O 372.627 -1.91326 -0.628987 0
M  V30 4013 C 369.692 -3.38221 -0.762086 0
M  V30 4014 C 368.753 -4.29227 0.078896 0
M  V30 4015 C 367.986 -5.28205 -0.763874 0
M  V30 4016 O 368.209 -5.34112 -2.00201 0
M  V30 4017 O 367.143 -6.01618 -0.18428 0
M  V30 4018 H 370.969 -2.89649 0.913088 0
M  V30 4019 H 368.554 -1.40374 0.511417 0
M  V30 4020 H 370.436 -4.01872 -1.26793 0
M  V30 4021 H 369.111 -2.85211 -1.5309 0
M  V30 4022 H 368.018 -3.68747 0.630621 0
M  V30 4023 H 369.351 -4.85484 0.810289 0
M  V30 4024 N 371.003 -0.499398 -1.49478 0
M  V30 4025 C 372.252 0.0475259 -2.01644 0
M  V30 4026 C 372.565 1.38195 -1.38425 0
M  V30 4027 O 373.771 2.01547 -1.8191 0
M  V30 4028 C 372.227 0.135164 -3.59646 0
M  V30 4029 C 371.835 -1.19252 -4.31837 0
M  V30 4030 C 373.579 0.632538 -4.19761 0
M  V30 4031 C 371.486 -1.06713 -5.81693 0
M  V30 4032 H 370.416 0.0215349 -0.753692 0
M  V30 4033 H 373.067 -0.638577 -1.7203 0
M  V30 4034 H 371.449 0.885681 -3.85969 0
M  V30 4035 H 372.623 -1.9562 -4.17216 0
M  V30 4036 H 370.938 -1.62321 -3.83459 0
M  V30 4037 H 373.535 0.743833 -5.29501 0
M  V30 4038 H 373.878 1.63098 -3.83021 0
M  V30 4039 H 374.411 -0.0613987 -3.97753 0
M  V30 4040 H 371.15 -2.03979 -6.22955 0
M  V30 4041 H 370.67 -0.344307 -5.98811 0
M  V30 4042 H 372.349 -0.745208 -6.42694 0
M  V30 4043 N 372.481 1.55866 -0.233164 0
M  V30 4044 C 373.758 1.90471 0.444988 0
M  V30 4045 C 374.138 1.15209 1.7689 0
M  V30 4046 O 373.486 0.265119 2.26957 0
M  V30 4047 C 373.696 3.4333 0.626559 0
M  V30 4048 C 375.044 4.14319 0.92871 0
M  V30 4049 O 376.068 3.48993 0.712926 0
M  V30 4050 O 374.927 5.29846 1.33887 0
M  V30 4051 H 372.021 0.792347 0.236885 0
M  V30 4052 H 374.567 1.67437 -0.276211 0
M  V30 4053 H 373.339 3.90095 -0.306822 0
M  V30 4054 H 372.962 3.72181 1.39881 0
M  V30 4055 N 373.959 -0.0401083 1.57549 0
M  V30 4056 C 375.207 -0.731677 1.8839 0
M  V30 4057 C 375.528 -1.76481 0.829425 0
M  V30 4058 O 374.798 -1.95411 -0.1383 0
M  V30 4059 H 373.378 -0.273225 0.695239 0
M  V30 4060 H 376.04 -0.00867725 1.94898 0
M  V30 4061 H 375.136 -1.22816 2.86919 0
M  V30 4062 N 375.437 -1.54477 -0.31217 0
M  V30 4063 C 376.384 -1.84655 -1.38461 0
M  V30 4064 C 377.354 -0.694536 -1.50882 0
M  V30 4065 O 378.539 -0.942081 -1.6592 0
M  V30 4066 C 375.679 -2.0896 -2.74645 0
M  V30 4067 C 374.792 -3.36618 -2.70763 0
M  V30 4068 C 373.927 -3.50824 -3.98868 0
M  V30 4069 C 372.966 -4.72315 -3.89339 0
M  V30 4070 N 372.103 -4.83387 -5.09197 0
M  V30 4071 H 376.943 -2.76142 -1.12026 0
M  V30 4072 H 374.48 -1.36748 -0.542065 0
M  V30 4073 H 376.438 -2.21045 -3.53829 0
M  V30 4074 H 375.068 -1.20752 -2.99364 0
M  V30 4075 H 374.12 -3.33211 -1.83506 0
M  V30 4076 H 375.432 -4.25917 -2.59608 0
M  V30 4077 H 374.586 -3.62513 -4.86486 0
M  V30 4078 H 373.325 -2.59638 -4.12843 0
M  V30 4079 H 372.33 -4.6067 -3.00105 0
M  V30 4080 H 373.555 -5.64897 -3.76919 0
M  V30 4081 H 371.501 -3.9512 -5.23657 0
M  V30 4082 H 371.418 -5.66669 -5.00422 0
M  V30 4083 H 372.686 -4.9942 -5.98498 0
M  V30 4084 N 376.915 0.57481 -1.46744 0
M  V30 4085 C 377.845 1.69337 -1.60771 0
M  V30 4086 C 378.826 1.63825 -0.457736 0
M  V30 4087 O 380.011 1.8172 -0.684947 0
M  V30 4088 C 377.141 3.0798 -1.60517 0
M  V30 4089 C 376.095 3.28327 -2.74564 0
M  V30 4090 C 375.421 4.67578 -2.59373 0
M  V30 4091 C 376.721 3.15398 -4.16319 0
M  V30 4092 H 378.415 1.57853 -2.54407 0
M  V30 4093 H 375.961 0.75799 -1.22436 0
M  V30 4094 H 377.914 3.86061 -1.68923 0
M  V30 4095 H 376.638 3.20381 -0.634305 0
M  V30 4096 H 375.297 2.52649 -2.65639 0
M  V30 4097 H 374.945 4.76755 -1.60353 0
M  V30 4098 H 374.645 4.82144 -3.35873 0
M  V30 4099 H 376.169 5.47817 -2.69682 0
M  V30 4100 H 377.583 3.83315 -4.26313 0
M  V30 4101 H 375.98 3.41482 -4.93468 0
M  V30 4102 H 377.05 2.12372 -4.3592 0
M  V30 4103 N 378.394 1.34581 0.820102 0
M  V30 4104 C 379.643 1.26437 1.57151 0
M  V30 4105 C 379.956 -0.163111 1.94919 0
M  V30 4106 O 381.162 -0.366722 2.69012 0
M  V30 4107 C 379.618 2.21658 2.83541 0
M  V30 4108 C 379.226 3.69679 2.53065 0
M  V30 4109 C 380.97 2.22428 3.61561 0
M  V30 4110 C 378.877 4.56761 3.75664 0
M  V30 4111 H 377.807 0.469707 0.589823 0
M  V30 4112 H 380.458 1.59763 0.902656 0
M  V30 4113 H 378.84 1.81287 3.52067 0
M  V30 4114 H 380.014 4.18605 1.92631 0
M  V30 4115 H 378.329 3.71384 1.88316 0
M  V30 4116 H 380.926 2.8471 4.52597 0
M  V30 4117 H 381.269 1.22434 3.97889 0
M  V30 4118 H 381.802 2.61259 2.99981 0
M  V30 4119 H 378.541 5.57702 3.44454 0
M  V30 4120 H 378.061 4.12568 4.35371 0
M  V30 4121 H 379.74 4.71509 4.43044 0
M  V30 4122 N 379.872 -1.04064 1.18357 0
M  V30 4123 C 381.288 -1.2947 0.933258 0
M  V30 4124 C 381.488 -1.97466 -0.401169 0
M  V30 4125 O 380.544 -2.25528 -1.13549 0
M  V30 4126 C 381.857 -2.15337 2.09882 0
M  V30 4127 C 383.405 -2.28683 2.13712 0
M  V30 4128 C 383.88 -3.17917 3.29686 0
M  V30 4129 N 385.371 -3.25504 3.29547 0
M  V30 4130 C 386.106 -3.94706 4.15926 0
M  V30 4131 N 385.602 -4.66239 5.12439 0
M  V30 4132 N 387.395 -3.90986 4.0384 0
M  V30 4133 H 379.546 -0.583359 2.04232 0
M  V30 4134 H 381.809 -0.319921 0.892387 0
M  V30 4135 H 381.515 -1.72682 3.06389 0
M  V30 4136 H 381.389 -3.16015 2.05947 0
M  V30 4137 H 383.776 -2.70575 1.17784 0
M  V30 4138 H 383.857 -1.27596 2.21705 0
M  V30 4139 H 383.501 -2.76736 4.25887 0
M  V30 4140 H 383.431 -4.19036 3.1893 0
M  V30 4141 H 385.922 -2.74547 2.59677 0
M  V30 4142 H 386.235 -5.16638 5.74722 0
M  V30 4143 H 384.58 -4.65143 5.16398 0
M  V30 4144 H 387.771 -3.34234 3.27727 0
M  V30 4145 H 387.944 -4.44646 4.71375 0
M  V30 4146 N 381.35 -0.985608 -1.22978 0
M  V30 4147 C 382.627 -0.573599 -1.87001 0
M  V30 4148 C 383.007 0.949213 -1.88555 0
M  V30 4149 O 382.355 1.82811 -1.37086 0
M  V30 4150 C 382.565 -1.18564 -3.28243 0
M  V30 4151 C 383.913 -1.28163 -4.04796 0
M  V30 4152 O 384.937 -1.13949 -3.37482 0
M  V30 4153 O 383.796 -1.50832 -5.25273 0
M  V30 4154 H 380.89 -0.193868 -0.803955 0
M  V30 4155 H 383.436 -1.08102 -1.30813 0
M  V30 4156 H 382.208 -2.22758 -3.21706 0
M  V30 4157 H 381.831 -0.663363 -3.92027 0
M  V30 4158 N 382.828 1.3818 -0.7579 0
M  V30 4159 C 384.076 1.99624 -0.315361 0
M  V30 4160 C 384.397 1.60464 1.10799 0
M  V30 4161 O 383.667 0.863507 1.75842 0
M  V30 4162 H 382.247 0.73831 -0.113611 0
M  V30 4163 H 384.909 1.68878 -0.972952 0
M  V30 4164 H 384.005 3.09754 -0.381931 0
M  V30 4165 N 384.306 0.507319 1.49211 0
M  V30 4166 C 385.253 -0.267728 2.29242 0
M  V30 4167 C 386.223 -0.954609 1.35928 0
M  V30 4168 O 387.408 -0.960046 1.64887 0
M  V30 4169 C 384.548 -1.32243 3.18756 0
M  V30 4170 C 383.661 -0.64669 4.27132 0
M  V30 4171 C 382.796 -1.68238 5.03855 0
M  V30 4172 C 381.835 -0.98885 6.0406 0
M  V30 4173 N 380.972 -1.96903 6.73924 0
M  V30 4174 H 385.812 0.420968 2.95012 0
M  V30 4175 H 383.349 0.219443 1.45454 0
M  V30 4176 H 385.307 -1.94599 3.69036 0
M  V30 4177 H 383.937 -1.97981 2.54958 0
M  V30 4178 H 382.989 0.0902926 3.80293 0
M  V30 4179 H 384.301 -0.101058 4.98698 0
M  V30 4180 H 383.455 -2.38081 5.58034 0
M  V30 4181 H 382.194 -2.26187 4.32077 0
M  V30 4182 H 381.199 -0.276222 5.49106 0
M  V30 4183 H 382.424 -0.415767 6.77826 0
M  V30 4184 H 380.37 -2.53803 6.04913 0
M  V30 4185 H 380.287 -1.47423 7.41487 0
M  V30 4186 H 381.555 -2.66015 7.32705 0
M  V30 4187 N 385.784 -1.5574 0.241426 0
M  V30 4188 C 387.03 -1.99104 -0.385406 0
M  V30 4189 C 387.363 -1.1293 -1.57988 0
M  V30 4190 O 386.638 -0.191449 -1.93555 0
M  V30 4191 C 386.921 -3.51087 -0.800616 0
M  V30 4192 C 386.774 -4.48028 0.398874 0
M  V30 4193 C 388.093 -4.08015 -1.64959 0
M  V30 4194 H 385.212 -0.723848 -0.138614 0
M  V30 4195 H 387.854 -1.86903 0.341642 0
M  V30 4196 H 386.004 -3.61615 -1.4201 0
M  V30 4197 H 387.676 -4.49487 1.03726 0
M  V30 4198 H 385.919 -4.21077 1.04293 0
M  V30 4199 H 386.59 -5.51962 0.0651056 0
M  V30 4200 H 389.066 -4.00555 -1.12672 0
M  V30 4201 H 387.942 -5.14635 -1.90898 0
M  V30 4202 H 388.203 -3.56131 -2.61961 0
M  V30 4203 N 387.262 0.0317525 -1.57568 0
M  V30 4204 C 388.51 0.721676 -1.88776 0
M  V30 4205 C 388.831 1.76039 -0.838772 0
M  V30 4206 O 388.101 1.95482 0.127935 0
M  V30 4207 H 386.681 0.269534 -0.696678 0
M  V30 4208 H 389.343 -0.00165879 -1.949 0
M  V30 4209 H 388.439 1.21293 -2.87566 0
M  V30 4210 N 388.74 1.54641 0.303973 0
M  V30 4211 C 389.65 1.88439 1.39743 0
M  V30 4212 C 390.666 0.778239 1.55626 0
M  V30 4213 O 391.842 1.07442 1.70347 0
M  V30 4214 C 388.907 2.12212 2.74166 0
M  V30 4215 C 387.968 3.35936 2.67293 0
M  V30 4216 C 387.201 3.58566 3.95305 0
M  V30 4217 O 387.424 2.84263 4.9452 0
M  V30 4218 O 386.358 4.52078 3.97378 0
M  V30 4219 H 390.184 2.81458 1.14083 0
M  V30 4220 H 387.769 1.40793 0.499768 0
M  V30 4221 H 389.651 2.29067 3.53704 0
M  V30 4222 H 388.326 1.22379 2.99675 0
M  V30 4223 H 387.233 3.24448 1.86237 0
M  V30 4224 H 388.566 4.2589 2.46736 0
M  V30 4225 N 390.218 -0.567019 1.47046 0
M  V30 4226 C 391.464 -1.32434 1.54379 0
M  V30 4227 C 391.819 -1.91365 0.199276 0
M  V30 4228 O 391.112 -1.74378 -0.793915 0
M  V30 4229 C 391.306 -2.4623 2.59047 0
M  V30 4230 C 391.135 -1.98448 4.03545 0
M  V30 4231 C 389.905 -1.82741 4.71098 0
M  V30 4232 C 392.103 -1.53477 4.90866 0
M  V30 4233 N 390.085 -1.29196 6.00151 0
M  V30 4234 C 391.456 -1.1163 6.09868 0
M  V30 4235 C 393.511 -1.41438 4.77388 0
M  V30 4236 C 392.214 -0.589425 7.16881 0
M  V30 4237 C 394.24 -0.901528 5.84488 0
M  V30 4238 C 393.602 -0.492932 7.02673 0
M  V30 4239 H 389.701 -0.477005 0.61967 0
M  V30 4240 H 392.285 -0.643856 1.83746 0
M  V30 4241 H 390.456 -3.11821 2.31564 0
M  V30 4242 H 392.188 -3.13213 2.56281 0
M  V30 4243 H 388.943 -2.05162 4.26855 0
M  V30 4244 H 389.367 -1.0454 6.6888 0
M  V30 4245 H 394.009 -1.71643 3.86392 0
M  V30 4246 H 391.727 -0.274994 8.07632 0
M  V30 4247 H 395.313 -0.812071 5.76105 0
M  V30 4248 H 394.193 -0.102227 7.84133 0
M  V30 4249 N 391.696 -1.35014 -0.812953 0
M  V30 4250 C 392.924 -1.31031 -1.6012 0
M  V30 4251 C 393.339 0.113558 -1.88458 0
M  V30 4252 O 392.696 1.06363 -1.48301 0
M  V30 4253 C 392.747 -2.10872 -2.93624 0
M  V30 4254 O 392.468 -3.47706 -2.66518 0
M  V30 4255 C 393.969 -2.14401 -3.88004 0
M  V30 4256 H 391.189 -0.45037 -0.497401 0
M  V30 4257 H 393.733 -1.77775 -1.01076 0
M  V30 4258 H 391.888 -1.67744 -3.492 0
M  V30 4259 H 392.302 -3.89097 -3.51715 0
M  V30 4260 H 393.776 -2.74669 -4.78812 0
M  V30 4261 H 394.253 -1.14105 -4.24119 0
M  V30 4262 H 394.859 -2.57662 -3.38364 0
M  V30 4263 N 393.175 1.03435 -1.18907 0
M  V30 4264 C 394.591 1.28973 -0.940111 0
M  V30 4265 C 394.791 1.97676 0.390691 0
M  V30 4266 O 393.847 2.26127 1.12352 0
M  V30 4267 C 395.16 2.14221 -2.11021 0
M  V30 4268 C 396.708 2.27547 -2.14922 0
M  V30 4269 C 397.183 3.16164 -3.31367 0
M  V30 4270 N 398.674 3.23752 -3.31269 0
M  V30 4271 C 399.409 3.92495 -4.18014 0
M  V30 4272 N 398.905 4.63515 -5.14904 0
M  V30 4273 N 400.698 3.88838 -4.05908 0
M  V30 4274 H 392.849 0.57252 -2.04538 0
M  V30 4275 H 395.112 0.315184 -0.894071 0
M  V30 4276 H 394.818 1.71054 -3.073 0
M  V30 4277 H 394.692 3.14919 -2.0762 0
M  V30 4278 H 397.079 2.69947 -1.19217 0
M  V30 4279 H 397.16 1.26418 -2.22378 0
M  V30 4280 H 396.804 2.74474 -4.27348 0
M  V30 4281 H 396.734 4.17339 -3.21148 0
M  V30 4282 H 399.225 2.73167 -2.61129 0
M  V30 4283 H 399.538 5.13583 -5.77453 0
M  V30 4284 H 397.883 4.62398 -5.18857 0
M  V30 4285 H 401.074 3.32491 -3.29495 0
M  V30 4286 H 401.247 4.4214 -4.73726 0
M  V30 4287 N 394.653 0.992116 1.22453 0
M  V30 4288 C 395.6 0.541731 2.24352 0
M  V30 4289 C 396.57 -0.425519 1.60557 0
M  V30 4290 O 397.755 -0.330453 1.87917 0
M  V30 4291 C 394.895 -0.138248 3.44823 0
M  V30 4292 C 394.008 0.870649 4.23136 0
M  V30 4293 C 393.143 0.164269 5.30946 0
M  V30 4294 C 392.182 1.16159 6.00977 0
M  V30 4295 N 391.319 0.483568 7.00433 0
M  V30 4296 H 396.159 1.41541 2.62241 0
M  V30 4297 H 393.696 0.709013 1.28885 0
M  V30 4298 H 395.654 -0.5494 4.13567 0
M  V30 4299 H 394.284 -0.975721 3.077 0
M  V30 4300 H 393.336 1.40013 3.53696 0
M  V30 4301 H 394.648 1.63014 4.7141 0
M  V30 4302 H 393.802 -0.303653 6.0594 0
M  V30 4303 H 392.541 -0.627733 4.83643 0
M  V30 4304 H 391.546 1.64015 5.24766 0
M  V30 4305 H 392.771 1.95445 6.50368 0
M  V30 4306 H 390.717 -0.289012 6.55363 0
M  V30 4307 H 390.634 1.18152 7.4671 0
M  V30 4308 H 391.902 0.0384219 7.79491 0
M  V30 4309 N 396.131 -1.37776 0.765217 0
M  V30 4310 C 397.061 -2.32945 0.160953 0
M  V30 4311 C 398.042 -1.55454 -0.690516 0
M  V30 4312 O 399.227 -1.83721 -0.629318 0
M  V30 4313 C 396.357 -3.39669 -0.724031 0
M  V30 4314 C 395.311 -4.27992 0.0256173 0
M  V30 4315 C 394.637 -5.25673 -0.978383 0
M  V30 4316 C 395.937 -5.08309 1.20082 0
M  V30 4317 H 397.631 -2.83728 0.955969 0
M  V30 4318 H 395.177 -1.36416 0.461149 0
M  V30 4319 H 397.13 -4.05219 -1.15652 0
M  V30 4320 H 395.854 -2.87396 -1.5515 0
M  V30 4321 H 394.513 -3.63964 0.438812 0
M  V30 4322 H 394.161 -4.69682 -1.80022 0
M  V30 4323 H 393.861 -5.85625 -0.481378 0
M  V30 4324 H 395.385 -5.94098 -1.40995 0
M  V30 4325 H 396.799 -5.67034 0.845307 0
M  V30 4326 H 395.196 -5.77554 1.62947 0
M  V30 4327 H 396.266 -4.41365 2.00811 0
M  V30 4328 N 397.609 -0.515225 -1.4894 0
M  V30 4329 C 398.541 0.292481 -2.27326 0
M  V30 4330 C 399.554 0.917838 -1.3446 0
M  V30 4331 O 400.743 0.798772 -1.5963 0
M  V30 4332 C 397.843 1.42803 -3.07344 0
M  V30 4333 C 397.016 0.907347 -4.27885 0
M  V30 4334 C 396.075 1.92222 -4.89834 0
M  V30 4335 O 395.101 1.48506 -5.49486 0
M  V30 4336 N 396.303 3.25355 -4.80754 0
M  V30 4337 H 399.068 -0.379721 -2.97285 0
M  V30 4338 H 396.629 -0.348638 -1.58102 0
M  V30 4339 H 398.621 2.10481 -3.45658 0
M  V30 4340 H 397.191 2.00414 -2.39902 0
M  V30 4341 H 396.411 0.0550218 -3.94162 0
M  V30 4342 H 397.699 0.538108 -5.05946 0
M  V30 4343 H 397.097 3.6355 -4.33414 0
M  V30 4344 H 395.654 3.88707 -5.23211 0
M  V30 4345 N 399.087 1.5561 -0.249682 0
M  V30 4346 C 400.034 2.21496 0.648694 0
M  V30 4347 C 401.004 1.17977 1.16921 0
M  V30 4348 O 402.189 1.46434 1.22318 0
M  V30 4349 C 399.329 2.92039 1.83868 0
M  V30 4350 C 398.442 4.10219 1.35442 0
M  V30 4351 C 397.577 4.6847 2.50419 0
M  V30 4352 C 396.616 5.78893 1.98869 0
M  V30 4353 N 395.753 6.31315 3.07223 0
M  V30 4354 H 400.593 2.97892 0.0801582 0
M  V30 4355 H 398.13 1.47074 0.0278031 0
M  V30 4356 H 400.088 3.31138 2.53778 0
M  V30 4357 H 398.718 2.18111 2.37965 0
M  V30 4358 H 397.77 3.76413 0.54928 0
M  V30 4359 H 399.082 4.89927 0.936649 0
M  V30 4360 H 398.236 5.10158 3.28366 0
M  V30 4361 H 396.975 3.87984 2.95499 0
M  V30 4362 H 395.98 5.3668 1.19393 0
M  V30 4363 H 397.205 6.61232 1.54755 0
M  V30 4364 H 395.151 5.53733 3.51732 0
M  V30 4365 H 395.068 7.06224 2.69784 0
M  V30 4366 H 396.336 6.77662 3.8522 0
M  V30 4367 N 400.565 -0.0233959 1.57583 0
M  V30 4368 C 401.497 -1.04994 2.03737 0
M  V30 4369 C 402.51 -1.32125 0.951152 0
M  V30 4370 O 403.699 -1.29512 1.22837 0
M  V30 4371 C 400.799 -2.39026 2.40249 0
M  V30 4372 C 399.972 -2.31171 3.7132 0
M  V30 4373 C 399.031 -3.47698 3.94959 0
M  V30 4374 O 398.057 -3.26937 4.65941 0
M  V30 4375 N 399.259 -4.6976 3.41037 0
M  V30 4376 H 402.024 -0.656507 2.92421 0
M  V30 4377 H 399.585 -0.211235 1.60516 0
M  V30 4378 H 401.577 -3.15712 2.53196 0
M  V30 4379 H 400.147 -2.70194 1.57207 0
M  V30 4380 H 399.367 -1.39547 3.68674 0
M  V30 4381 H 400.655 -2.23071 4.57293 0
M  V30 4382 H 400.053 -4.89528 2.83512 0
M  V30 4383 H 398.61 -5.43791 3.59353 0
M  V30 4384 N 402.043 -1.548 -0.295768 0
M  V30 4385 C 403.29 -1.74329 -1.03032 0
M  V30 4386 C 403.618 -0.531915 -1.87085 0
M  V30 4387 O 402.873 0.486052 -1.89568 0
M  V30 4388 C 403.172 -2.98797 -1.961 0
M  V30 4389 C 402.838 -4.32356 -1.2798 0
M  V30 4390 C 401.5 -4.68661 -1.09135 0
M  V30 4391 C 403.852 -5.15128 -0.793243 0
M  V30 4392 C 401.18 -5.85312 -0.403269 0
M  V30 4393 C 403.532 -6.32488 -0.118854 0
M  V30 4394 C 402.196 -6.6745 0.0815043 0
M  V30 4395 H 401.466 -0.637916 -0.37702 0
M  V30 4396 H 404.113 -1.8906 -0.304696 0
M  V30 4397 H 402.418 -2.78869 -2.75207 0
M  V30 4398 H 404.115 -3.11102 -2.53015 0
M  V30 4399 H 400.705 -4.03808 -1.43655 0
M  V30 4400 H 404.889 -4.87575 -0.92653 0
M  V30 4401 H 400.145 -6.1094 -0.237098 0
M  V30 4402 H 404.319 -6.95892 0.266035 0
M  V30 4403 H 401.946 -7.57695 0.616685 0
M  V30 4404 N 403.521 0.559213 -1.47345 0
M  V30 4405 C 404.431 1.69388 -1.62311 0
M  V30 4406 C 405.447 1.6648 -0.505993 0
M  V30 4407 O 406.623 1.85964 -0.773262 0
M  V30 4408 C 403.688 3.05894 -1.63185 0
M  V30 4409 C 402.749 3.19885 -2.86307 0
M  V30 4410 C 401.982 4.49879 -2.87131 0
M  V30 4411 O 402.205 5.35217 -1.97229 0
M  V30 4412 O 401.139 4.67618 -3.78968 0
M  V30 4413 H 404.965 1.59706 -2.58317 0
M  V30 4414 H 402.55 0.728989 -1.30407 0
M  V30 4415 H 404.432 3.87133 -1.66451 0
M  V30 4416 H 403.107 3.15964 -0.70345 0
M  V30 4417 H 402.014 2.38052 -2.88587 0
M  V30 4418 H 403.347 3.14718 -3.78435 0
M  V30 4419 N 404.999 1.35443 0.805782 0
M  V30 4420 C 406.227 1.31878 1.59423 0
M  V30 4421 C 406.642 -0.103562 1.88516 0
M  V30 4422 O 405.999 -1.05575 1.48863 0
M  V30 4423 C 406.05 2.12426 2.92502 0
M  V30 4424 O 405.771 3.49115 2.6467 0
M  V30 4425 C 407.272 2.16455 3.86862 0
M  V30 4426 H 404.492 0.453002 0.495005 0
M  V30 4427 H 407.036 1.78309 1.00131 0
M  V30 4428 H 405.191 1.69593 3.48306 0
M  V30 4429 H 405.605 3.90957 3.49647 0
M  V30 4430 H 407.079 2.77204 4.77349 0
M  V30 4431 H 407.556 1.16352 4.23508 0
M  V30 4432 H 408.162 2.59453 3.36993 0
M  V30 4433 N 406.477 -1.02803 1.19454 0
M  V30 4434 C 407.424 -2.11099 0.933046 0
M  V30 4435 C 408.394 -1.65571 -0.132447 0
M  V30 4436 O 409.579 -1.90797 0.00987576 0
M  V30 4437 C 406.719 -3.41763 0.478747 0
M  V30 4438 C 405.832 -4.00833 1.6111 0
M  V30 4439 C 404.967 -5.19511 1.10825 0
M  V30 4440 C 404.006 -5.70639 2.21445 0
M  V30 4441 N 403.143 -6.80589 1.72461 0
M  V30 4442 H 407.983 -2.32804 1.86028 0
M  V30 4443 H 405.52 -1.14179 0.927441 0
M  V30 4444 H 407.478 -4.16736 0.196745 0
M  V30 4445 H 406.108 -3.20166 -0.411493 0
M  V30 4446 H 405.16 -3.23066 2.00829 0
M  V30 4447 H 406.472 -4.34794 2.4445 0
M  V30 4448 H 405.626 -6.01645 0.781533 0
M  V30 4449 H 404.365 -4.87086 0.244606 0
M  V30 4450 H 403.37 -4.87116 2.54947 0
M  V30 4451 H 404.595 -6.05102 3.08267 0
M  V30 4452 H 402.541 -6.50016 0.884056 0
M  V30 4453 H 402.458 -7.13681 2.49389 0
M  V30 4454 H 403.726 -7.66317 1.42755 0
M  V30 4455 N 407.956 -0.998596 -1.21925 0
M  V30 4456 C 409.205 -0.673085 -1.90138 0
M  V30 4457 C 409.518 0.79895 -1.78539 0
M  V30 4458 O 410.724 1.23628 -2.4172 0
M  V30 4459 C 409.18 -1.15339 -3.40918 0
M  V30 4460 C 408.788 -2.65106 -3.61141 0
M  V30 4461 C 410.532 -0.902476 -4.14796 0
M  V30 4462 C 408.439 -3.0671 -5.05651 0
M  V30 4463 H 407.369 -0.248057 -0.712028 0
M  V30 4464 H 410.02 -1.20891 -1.38049 0
M  V30 4465 H 408.402 -0.545658 -3.92223 0
M  V30 4466 H 409.576 -3.31274 -3.20304 0
M  V30 4467 H 407.891 -2.88142 -3.00605 0
M  V30 4468 H 410.488 -1.18895 -5.21314 0
M  V30 4469 H 410.831 0.161349 -4.15987 0
M  V30 4470 H 411.364 -1.47269 -3.69536 0
M  V30 4471 H 408.103 -4.12292 -5.09603 0
M  V30 4472 H 407.623 -2.45249 -5.47369 0
M  V30 4473 H 409.302 -2.9833 -5.74115 0
M  V30 4474 N 409.434 1.37368 -0.772513 0
M  V30 4475 C 410.845 1.8231 -0.402493 0
M  V30 4476 C 411.196 1.6436 1.07146 0
M  V30 4477 O 410.321 1.15514 1.82991 0
M  V30 4478 C 410.916 3.30979 -0.723776 0
M  V30 4479 C 409.475 3.74195 -0.406802 0
M  V30 4480 C 408.622 2.59885 -0.967218 0
M  V30 4481 H 411.573 1.25829 -0.967099 0
M  V30 4482 H 411.594 3.80499 -0.00870832 0
M  V30 4483 H 411.106 3.44011 -1.7966 0
M  V30 4484 H 409.207 3.66732 0.658673 0
M  V30 4485 H 409.32 4.7027 -0.915588 0
M  V30 4486 H 407.684 2.51674 -0.391416 0
M  V30 4487 H 408.467 2.7571 -2.04546 0
M  V30 4488 N 410.912 0.523116 1.48665 0
M  V30 4489 C 411.859 -0.243398 2.29513 0
M  V30 4490 C 412.829 -0.940139 1.36933 0
M  V30 4491 O 414.014 -0.942503 1.65896 0
M  V30 4492 C 411.154 -1.28855 3.20141 0
M  V30 4493 C 410.267 -0.60135 4.27794 0
M  V30 4494 C 409.402 -1.62884 5.05611 0
M  V30 4495 C 408.441 -0.924726 6.05075 0
M  V30 4496 N 407.578 -1.89744 6.75975 0
M  V30 4497 H 412.418 0.452234 2.94549 0
M  V30 4498 H 409.955 0.234858 1.45213 0
M  V30 4499 H 411.913 -1.90674 3.71079 0
M  V30 4500 H 410.543 -1.95266 2.57043 0
M  V30 4501 H 409.595 0.130623 3.80176 0
M  V30 4502 H 410.907 -0.0481585 4.98777 0
M  V30 4503 H 410.061 -2.32149 5.60528 0
M  V30 4504 H 408.8 -2.21592 4.34452 0
M  V30 4505 H 407.805 -0.217966 5.49368 0
M  V30 4506 H 409.03 -0.343851 6.78229 0
M  V30 4507 H 406.976 -2.47373 6.07571 0
M  V30 4508 H 406.893 -1.3955 7.43009 0
M  V30 4509 H 408.161 -2.58229 7.35485 0
M  V30 4510 N 412.39 -1.55475 0.257931 0
M  V30 4511 C 413.801 -1.8511 -0.243135 0
M  V30 4512 C 414.152 -1.17986 -1.5676 0
M  V30 4513 O 413.277 -0.462102 -2.11409 0
M  V30 4514 C 413.872 -3.35826 -0.447929 0
M  V30 4515 C 412.431 -3.65647 -0.893245 0
M  V30 4516 C 411.578 -2.7729 0.0232965 0
M  V30 4517 H 414.529 -1.51261 0.480199 0
M  V30 4518 H 414.55 -3.58002 -1.28898 0
M  V30 4519 H 414.062 -3.84652 0.516196 0
M  V30 4520 H 412.163 -3.22308 -1.86945 0
M  V30 4521 H 412.276 -4.73312 -0.742469 0
M  V30 4522 H 410.64 -2.49942 -0.490021 0
M  V30 4523 H 411.423 -3.28926 0.982994 0
M  V30 4524 N 413.868 0.0150385 -1.57593 0
M  V30 4525 C 414.798 1.01047 -2.10503 0
M  V30 4526 C 415.779 1.36816 -1.01071 0
M  V30 4527 O 416.964 1.45455 -1.28672 0
M  V30 4528 C 414.094 2.30708 -2.59598 0
M  V30 4529 C 413.048 2.09142 -3.73421 0
M  V30 4530 C 412.374 3.44685 -4.08774 0
M  V30 4531 C 413.674 1.46619 -5.01298 0
M  V30 4532 H 415.368 0.569978 -2.93925 0
M  V30 4533 H 412.914 0.272724 -1.41394 0
M  V30 4534 H 414.867 3.00687 -2.95238 0
M  V30 4535 H 413.591 2.76843 -1.73279 0
M  V30 4536 H 412.25 1.41592 -3.38153 0
M  V30 4537 H 411.898 3.88495 -3.195 0
M  V30 4538 H 411.598 3.31077 -4.8545 0
M  V30 4539 H 413.122 4.16004 -4.4696 0
M  V30 4540 H 414.536 2.06535 -5.34805 0
M  V30 4541 H 412.933 1.43544 -5.82679 0
M  V30 4542 H 414.003 0.433611 -4.82957 0
M  V30 4543 N 415.346 1.54954 0.287554 0
M  V30 4544 C 416.296 1.8322 1.357 0
M  V30 4545 C 417.28 0.690152 1.45347 0
M  V30 4546 O 418.472 0.951137 1.49273 0
M  V30 4547 C 415.601 2.09481 2.71979 0
M  V30 4548 C 414.687 3.29906 2.66502 0
M  V30 4549 N 415.078 4.50154 2.30641 0
M  V30 4550 C 413.376 3.32203 2.97585 0
M  V30 4551 C 414.077 5.32209 2.34794 0
M  V30 4552 N 413.053 4.70258 2.72688 0
M  V30 4553 H 416.855 2.73746 1.0696 0
M  V30 4554 H 414.369 1.54635 0.496167 0
M  V30 4555 H 416.366 2.27882 3.49107 0
M  V30 4556 H 415.026 1.2023 3.0162 0
M  V30 4557 H 416.037 4.76515 2.02865 0
M  V30 4558 H 412.714 2.53101 3.32034 0
M  V30 4559 H 414.104 6.38321 2.09753 0
M  V30 4560 N 416.824 -0.551391 1.4764 0
M  V30 4561 C 418.073 -1.30467 1.53822 0
M  V30 4562 C 418.386 -1.94495 0.207661 0
M  V30 4563 O 419.592 -2.71099 0.147533 0
M  V30 4564 C 418.048 -2.36616 2.71184 0
M  V30 4565 C 417.656 -1.78754 4.10793 0
M  V30 4566 C 419.4 -3.13088 2.86663 0
M  V30 4567 C 417.307 -2.82717 5.19447 0
M  V30 4568 H 416.237 -0.490584 0.572576 0
M  V30 4569 H 418.888 -0.58494 1.73927 0
M  V30 4570 H 417.27 -3.11529 2.4447 0
M  V30 4571 H 418.444 -1.10173 4.47435 0
M  V30 4572 H 416.759 -1.14846 4.00249 0
M  V30 4573 H 419.356 -3.90736 3.65007 0
M  V30 4574 H 419.699 -3.67635 1.95321 0
M  V30 4575 H 420.232 -2.45288 3.13175 0
M  V30 4576 H 416.971 -2.33018 6.12685 0
M  V30 4577 H 416.491 -3.4969 4.87316 0
M  V30 4578 H 418.17 -3.46102 5.46646 0
M  V30 4579 O 418.341 -1.45728 -0.696113 0
M  V30 4580 H 419.032 -1.39109 -1.3479 0
M  V30 END ATOM
M  V30 BEGIN BOND
M  V30 END BOND
M  V30 END CTAB
M  END
$$$$
