drugbank_target|P19926 Glucose-1-phosphatase (DB02843)
 OpenBabel12092119583D

  0  0  0     0  0            999 V3000
M  V30 BEGIN CTAB
M  V30 COUNTS 6380 6451 0 0 0
M  V30 BEGIN ATOM
M  V30 1 H -0.908 1.98254 -0.117106 0
M  V30 2 N 0 1.576 0 0
M  V30 3 C 0.933 2.03868 1.02534 0
M  V30 4 C 1.911 0.928543 1.3348 0
M  V30 5 O 3.095 1.19667 1.45644 0
M  V30 6 C 0.222 2.43627 2.35294 0
M  V30 7 C -0.732 3.65373 2.2001 0
M  V30 8 S 0.101 5.13292 1.52614 0
M  V30 9 C 1.257 5.56322 2.86805 0
M  V30 10 H 1.49 2.90518 0.631377 0
M  V30 11 H -0.977 1.52953 0.210867 0
M  V30 12 H 0.981 2.67203 3.11629 0
M  V30 13 H -0.358 1.57376 2.7183 0
M  V30 14 H -1.165 3.90944 3.18086 0
M  V30 15 H -1.563 3.418 1.51819 0
M  V30 16 H 0.729 5.58782 3.83104 0
M  V30 17 H 1.672 6.56266 2.65933 0
M  V30 18 H 2.08 4.83886 2.90714 0
M  V30 19 N 1.4781 -0.272755 1.55222 0
M  V30 20 C 2.4261 -1.35705 1.88909 0
M  V30 21 C 3.4201 -1.5112 0.765456 0
M  V30 22 O 4.6261 -1.52901 0.949802 0
M  V30 23 H 1.0011 -0.453868 0.59959 0
M  V30 24 H 2.9721 -1.04544 2.79487 0
M  V30 25 C 1.7211 -2.71049 2.17779 0
M  V30 26 H 1.0441 -2.59979 3.03728 0
M  V30 27 H 2.4841 -3.45858 2.45272 0
M  V30 28 C 0.9431 -3.22165 0.985473 0
M  V30 29 O 1.4731 -4.01096 0.220233 0
M  V30 30 N -0.3209 -2.7985 0.783108 0
M  V30 31 H -0.7739 -2.15775 1.40708 0
M  V30 32 H -0.8159 -3.14397 -0.0130392 0
M  V30 33 N 2.9562 -1.48159 -0.537278 0
M  V30 34 C 3.9032 -1.62138 -1.64256 0
M  V30 35 C 4.8732 -0.463668 -1.59497 0
M  V30 36 O 6.0582 -0.686241 -1.78032 0
M  V30 37 C 3.1982 -1.66028 -3.02537 0
M  V30 38 C 2.3112 -2.92855 -3.17585 0
M  V30 39 C 1.4462 -2.87952 -4.46382 0
M  V30 40 C 0.4852 -4.09516 -4.54932 0
M  V30 41 N -0.3778 -4.02733 -5.75109 0
M  V30 42 H 4.4622 -2.56529 -1.51647 0
M  V30 43 H 1.9992 -1.27224 -0.738414 0
M  V30 44 H 3.9572 -1.66265 -3.82638 0
M  V30 45 H 2.5872 -0.751331 -3.13934 0
M  V30 46 H 1.6392 -3.02395 -2.30784 0
M  V30 47 H 2.9512 -3.82822 -3.19764 0
M  V30 48 H 2.1052 -2.8655 -5.34765 0
M  V30 49 H 0.8442 -1.95702 -4.46712 0
M  V30 50 H -0.1508 -4.11201 -3.64957 0
M  V30 51 H 1.0742 -5.02917 -4.56346 0
M  V30 52 H -0.9798 -3.13299 -5.76351 0
M  V30 53 H -1.0628 -4.86397 -5.78752 0
M  V30 54 H 0.2052 -4.05379 -6.65799 0
M  V30 55 N 4.4343 0.785586 -1.36625 0
M  V30 56 C 5.6623 1.57448 -1.3423 0
M  V30 57 C 6.0773 1.88649 0.0755653 0
M  V30 58 O 5.4343 1.50414 1.03354 0
M  V30 59 C 5.4853 2.89316 -2.16745 0
M  V30 60 O 5.2063 2.59459 -3.53005 0
M  V30 61 C 6.7073 3.83606 -2.22174 0
M  V30 62 H 3.9273 0.488226 -0.4603 0
M  V30 63 H 6.4713 0.974733 -1.79775 0
M  V30 64 H 4.6263 3.4575 -1.74745 0
M  V30 65 H 5.0403 3.43804 -3.96105 0
M  V30 66 H 6.5143 4.73181 -2.8426 0
M  V30 67 H 6.9913 4.21734 -1.22627 0
M  V30 68 H 7.5973 3.33104 -2.64427 0
M  V30 69 N 5.9124 1.20967 1.01018 0
M  V30 70 C 6.8424 0.988272 2.11555 0
M  V30 71 C 7.8234 -0.0849778 1.69888 0
M  V30 72 O 9.0084 0.0738202 1.9406 0
M  V30 73 C 6.1384 0.546528 3.42973 0
M  V30 74 C 5.0924 1.56375 3.9841 0
M  V30 75 C 4.4184 0.97842 5.25672 0
M  V30 76 C 5.7184 2.94922 4.31066 0
M  V30 77 H 7.4124 1.91276 2.30334 0
M  V30 78 H 4.9584 0.921073 1.1069 0
M  V30 79 H 6.9114 0.378839 4.19694 0
M  V30 80 H 5.6354 -0.413598 3.23971 0
M  V30 81 H 4.2944 1.71891 3.23804 0
M  V30 82 H 3.9424 0.0101688 5.02999 0
M  V30 83 H 3.6424 1.65784 5.63728 0
M  V30 84 H 5.1664 0.821939 6.05043 0
M  V30 85 H 6.5804 2.8288 4.9865 0
M  V30 86 H 4.9774 3.5983 4.80253 0
M  V30 87 H 6.0474 3.4616 3.39561 0
M  V30 88 N 7.3905 -1.2043 1.01659 0
M  V30 89 C 8.6395 -1.89118 0.701237 0
M  V30 90 C 8.9525 -1.79705 -0.772358 0
M  V30 91 O 10.1585 -2.43528 -1.20026 0
M  V30 92 C 8.6145 -3.39168 1.20388 0
M  V30 93 C 8.2225 -3.57166 2.70438 0
M  V30 94 C 9.9665 -4.1341 0.963953 0
M  V30 95 C 7.8735 -5.01042 3.14183 0
M  V30 96 H 6.8035 -0.708267 0.2586 0
M  V30 97 H 9.4545 -1.36239 1.22927 0
M  V30 98 H 7.8365 -3.91369 0.603824 0
M  V30 99 H 9.0105 -3.15351 3.35992 0
M  V30 100 H 7.3255 -2.96294 2.92572 0
M  V30 101 H 9.9225 -5.19491 1.26621 0
M  V30 102 H 10.2655 -4.16181 -0.099578 0
M  V30 103 H 10.7985 -3.67309 1.52738 0
M  V30 104 H 7.5375 -5.03426 4.19812 0
M  V30 105 H 7.0575 -5.43668 2.53348 0
M  V30 106 H 8.7365 -5.69623 3.0682 0
M  V30 107 N 8.8686 -0.792821 -1.36206 0
M  V30 108 C 9.8316 -0.199459 -2.2833 0
M  V30 109 C 10.8316 0.605189 -1.48977 0
M  V30 110 O 12.0216 0.425685 -1.68919 0
M  V30 111 C 9.1536 0.723523 -3.33134 0
M  V30 112 H 10.3466 -1.01181 -2.82316 0
M  V30 113 H 7.8996 -0.562485 -1.45828 0
M  V30 114 H 8.6346 1.56008 -2.84309 0
M  V30 115 H 8.4196 0.148436 -3.91819 0
M  V30 116 H 9.9096 1.13344 -4.01924 0
M  V30 117 N 10.3467 1.47872 -0.545128 0
M  V30 118 C 11.3097 2.28337 0.198717 0
M  V30 119 C 12.3097 1.36255 0.853888 0
M  V30 120 O 13.4997 1.59003 0.711606 0
M  V30 121 C 10.6317 3.15585 1.28915 0
M  V30 122 H 11.8247 2.95567 -0.507941 0
M  V30 123 H 9.3777 1.53362 -0.301616 0
M  V30 124 H 10.1127 2.53019 2.02859 0
M  V30 125 H 9.8977 3.83337 0.824309 0
M  V30 126 H 11.3877 3.76243 1.81194 0
M  V30 127 N 11.8248 0.280983 1.55075 0
M  V30 128 C 12.7878 -0.590896 2.21452 0
M  V30 129 C 13.7878 -1.07682 1.19421 0
M  V30 130 O 14.9778 -0.97605 1.44288 0
M  V30 131 C 12.1098 -1.81587 2.88511 0
M  V30 132 H 13.3028 -0.0112554 2.99898 0
M  V30 133 H 10.8558 0.0316438 1.56268 0
M  V30 134 H 11.5908 -2.43587 2.14093 0
M  V30 135 H 11.3758 -1.4753 3.63287 0
M  V30 136 H 12.8658 -2.43575 3.39206 0
M  V30 137 N 13.3029 -1.57598 0.00835791 0
M  V30 138 C 14.5489 -1.91211 -0.675732 0
M  V30 139 C 14.8819 -0.883139 -1.72958 0
M  V30 140 O 14.1569 0.097016 -1.94258 0
M  V30 141 C 14.4399 -3.35379 -1.31123 0
M  V30 142 C 14.2929 -4.48999 -0.268356 0
M  V30 143 C 15.6119 -3.7912 -2.23508 0
M  V30 144 H 12.7309 -0.695374 -0.244179 0
M  V30 145 H 15.3729 -1.89901 0.0613655 0
M  V30 146 H 13.5229 -3.36626 -1.93946 0
M  V30 147 H 15.1949 -4.59887 0.360844 0
M  V30 148 H 13.4379 -4.31873 0.408482 0
M  V30 149 H 14.1089 -5.46851 -0.752218 0
M  V30 150 H 16.5849 -3.79477 -1.70693 0
M  V30 151 H 15.4609 -4.80729 -2.64936 0
M  V30 152 H 15.7219 -3.13455 -3.11766 0
M  V30 153 N 14.781 0.264519 -1.55364 0
M  V30 154 C 15.744 1.31046 -1.88042 0
M  V30 155 C 16.744 1.41943 -0.755569 0
M  V30 156 O 17.934 1.40947 -1.02369 0
M  V30 157 C 15.066 2.69067 -2.09323 0
M  V30 158 H 16.259 1.03297 -2.81549 0
M  V30 159 H 13.812 0.502989 -1.47986 0
M  V30 160 H 14.547 3.01982 -1.18226 0
M  V30 161 H 14.332 2.62542 -2.91229 0
M  V30 162 H 15.822 3.44623 -2.35848 0
M  V30 163 N 16.2591 1.48442 0.529413 0
M  V30 164 C 17.5071 1.56179 1.28267 0
M  V30 165 C 17.8281 0.237721 1.93546 0
M  V30 166 O 17.0981 -0.740779 1.81354 0
M  V30 167 H 15.6781 0.575367 0.476405 0
M  V30 168 H 18.3401 1.84909 0.61602 0
M  V30 169 H 17.4361 2.34312 2.06165 0
M  V30 170 N 17.7372 -0.778329 1.37039 0
M  V30 171 C 18.9862 -1.53189 1.3121 0
M  V30 172 C 19.2992 -1.95328 -0.103095 0
M  V30 173 O 20.5052 -2.70012 -0.283826 0
M  V30 174 C 18.9612 -2.76591 2.30272 0
M  V30 175 C 18.5692 -2.41577 3.77286 0
M  V30 176 C 20.3132 -3.5455 2.33441 0
M  V30 177 C 18.2202 -3.61441 4.68096 0
M  V30 178 H 17.1502 -0.5751 0.487622 0
M  V30 179 H 19.8012 -0.853101 1.62464 0
M  V30 180 H 18.1832 -3.46326 1.92027 0
M  V30 181 H 19.3572 -1.79668 4.2433 0
M  V30 182 H 17.6722 -1.76806 3.76999 0
M  V30 183 H 20.2692 -4.43628 2.98493 0
M  V30 184 H 20.6122 -3.93936 1.34611 0
M  V30 185 H 21.1452 -2.91805 2.7036 0
M  V30 186 H 17.8842 -3.27142 5.6803 0
M  V30 187 H 17.4042 -4.22478 4.25761 0
M  V30 188 H 19.0832 -4.28335 4.8491 0
M  V30 189 N 19.2153 -1.21501 -1.00376 0
M  V30 190 C 20.4613 -1.03452 -1.74429 0
M  V30 191 C 20.7943 0.430764 -1.89362 0
M  V30 192 O 20.0693 1.31962 -1.42886 0
M  V30 193 C 20.3523 -1.73375 -3.15615 0
M  V30 194 C 20.2053 -3.27431 -3.08397 0
M  V30 195 C 21.5243 -1.47732 -4.14564 0
M  V30 196 H 18.6433 -0.377226 -0.633143 0
M  V30 197 H 21.2853 -1.49693 -1.17013 0
M  V30 198 H 19.4353 -1.34064 -3.64636 0
M  V30 199 H 21.1073 -3.76119 -2.67081 0
M  V30 200 H 19.3503 -3.5767 -2.45468 0
M  V30 201 H 20.0213 -3.71524 -4.08258 0
M  V30 202 H 22.4973 -1.8186 -3.74254 0
M  V30 203 H 21.3733 -1.99169 -5.11491 0
M  V30 204 H 21.6343 -0.407589 -4.40217 0
M  V30 205 N 20.6934 1.19889 -1.02296 0
M  V30 206 C 21.6234 2.25141 -0.619174 0
M  V30 207 C 22.6044 1.66051 0.368915 0
M  V30 208 O 23.7894 1.92546 0.252941 0
M  V30 209 C 20.9194 3.4728 0.0368783 0
M  V30 210 C 19.8734 4.19005 -0.872865 0
M  V30 211 C 19.1994 5.34637 -0.0822402 0
M  V30 212 C 20.4994 4.74452 -2.18387 0
M  V30 213 H 22.1934 2.59171 -1.49903 0
M  V30 214 H 19.7394 1.24579 -0.722222 0
M  V30 215 H 21.6924 4.20098 0.330958 0
M  V30 216 H 20.4164 3.12433 0.95149 0
M  V30 217 H 19.0754 3.48061 -1.15105 0
M  V30 218 H 18.7234 4.96034 0.83422 0
M  V30 219 H 18.4234 5.83557 -0.688149 0
M  V30 220 H 19.9474 6.10255 0.205238 0
M  V30 221 H 21.3614 5.39055 -1.95172 0
M  V30 222 H 19.7584 5.33834 -2.74119 0
M  V30 223 H 20.8284 3.92844 -2.84257 0
M  V30 224 N 22.1715 0.800033 1.35784 0
M  V30 225 C 23.1015 0.220184 2.3246 0
M  V30 226 C 24.0825 -0.65073 1.57161 0
M  V30 227 O 25.2675 -0.582359 1.85263 0
M  V30 228 C 22.3975 -0.637353 3.41402 0
M  V30 229 C 21.3515 0.134531 4.27789 0
M  V30 230 C 20.6775 -0.844285 5.27992 0
M  V30 231 C 21.9775 1.32979 5.05088 0
M  V30 232 H 23.6715 1.02787 2.81203 0
M  V30 233 H 21.2175 0.495717 1.35199 0
M  V30 234 H 23.1705 -1.05302 4.08031 0
M  V30 235 H 21.8945 -1.47785 2.91251 0
M  V30 236 H 20.5535 0.531296 3.6273 0
M  V30 237 H 20.2015 -1.68011 4.74111 0
M  V30 238 H 19.9015 -0.332184 5.8666 0
M  V30 239 H 21.4255 -1.2583 5.97494 0
M  V30 240 H 22.8395 0.98934 5.64699 0
M  V30 241 H 21.2365 1.77593 5.7322 0
M  V30 242 H 22.3065 2.11978 4.36111 0
M  V30 243 N 23.6496 -1.47581 0.552962 0
M  V30 244 C 24.6126 -2.28439 -0.186605 0
M  V30 245 C 25.6126 -1.36706 -0.84665 0
M  V30 246 O 26.8026 -1.59378 -0.703164 0
M  V30 247 C 23.9346 -3.16264 -1.2724 0
M  V30 248 H 25.1276 -2.95294 0.523609 0
M  V30 249 H 22.6806 -1.532 0.309745 0
M  V30 250 H 23.4156 -2.54091 -2.01514 0
M  V30 251 H 23.2006 -3.83769 -0.803968 0
M  V30 252 H 24.6906 -3.77198 -1.79196 0
M  V30 253 N 25.1277 -0.289203 -1.54924 0
M  V30 254 C 26.3527 0.329299 -2.04769 0
M  V30 255 C 26.7777 1.4763 -1.16564 0
M  V30 256 O 26.1357 1.80527 -0.167186 0
M  V30 257 C 26.1837 0.774438 -3.52186 0
M  V30 258 O 25.2877 1.88038 -3.67036 0
M  V30 259 H 24.6287 0.0659259 -0.660719 0
M  V30 260 H 27.1587 -0.42761 -2.00082 0
M  V30 261 H 27.1687 1.06642 -3.93816 0
M  V30 262 H 25.8437 -0.0646707 -4.1585 0
M  V30 263 H 24.4207 1.58985 -3.3731 0
M  V30 264 N 26.6058 1.57591 -0.0167156 0
M  V30 265 C 27.5538 2.10604 0.987353 0
M  V30 266 C 28.5478 1.02977 1.34507 0
M  V30 267 O 29.7538 1.21425 1.32875 0
M  V30 268 H 26.1288 0.672695 0.336134 0
M  V30 269 H 28.0998 2.93925 0.514817 0
M  V30 270 C 26.8488 2.6382 2.26483 0
M  V30 271 H 26.1718 3.46278 1.99829 0
M  V30 272 H 27.6118 3.04573 2.94977 0
M  V30 273 C 26.0708 1.55992 2.9861 0
M  V30 274 O 26.6008 0.952521 3.90243 0
M  V30 275 N 24.8068 1.28335 2.60727 0
M  V30 276 H 24.3538 1.77914 1.86291 0
M  V30 277 H 24.3118 0.564115 3.09298 0
M  V30 278 N 28.0839 -0.256276 1.55502 0
M  V30 279 C 29.0469 -1.30047 1.88734 0
M  V30 280 C 30.0469 -1.4154 0.763086 0
M  V30 281 O 31.2369 -1.40403 1.03115 0
M  V30 282 C 28.3689 -2.67953 2.10747 0
M  V30 283 H 29.5619 -1.01802 2.82093 0
M  V30 284 H 27.1149 -0.495134 1.4825 0
M  V30 285 H 27.8499 -3.01351 1.19825 0
M  V30 286 H 27.6349 -2.60993 2.92617 0
M  V30 287 H 29.1249 -3.43368 2.37673 0
M  V30 288 N 29.562 -1.4872 -0.521534 0
M  V30 289 C 30.494 -1.59968 -1.64143 0
M  V30 290 C 31.507 -0.483463 -1.55456 0
M  V30 291 O 32.696 -0.75467 -1.61762 0
M  V30 292 C 29.796 -1.52127 -3.02838 0
M  V30 293 C 28.969 -2.78932 -3.36921 0
M  V30 294 C 28.028 -2.64428 -4.54933 0
M  V30 295 O 27.054 -3.38331 -4.57735 0
M  V30 296 N 28.256 -1.74606 -5.53618 0
M  V30 297 H 31.021 -2.56548 -1.54929 0
M  V30 298 H 28.582 -1.45551 -0.708988 0
M  V30 299 H 30.574 -1.40106 -3.79674 0
M  V30 300 H 29.144 -0.634868 -3.06085 0
M  V30 301 H 28.364 -3.05455 -2.4918 0
M  V30 302 H 29.652 -3.63041 -3.56481 0
M  V30 303 H 29.05 -1.13782 -5.54139 0
M  V30 304 H 27.607 -1.6852 -6.29638 0
M  V30 305 N 31.0401 0.771051 -1.3745 0
M  V30 306 C 32.0031 1.86598 -1.33093 0
M  V30 307 C 33.0031 1.59076 -0.234845 0
M  V30 308 O 34.1931 1.67145 -0.490732 0
M  V30 309 C 31.3251 3.23747 -1.06773 0
M  V30 310 H 32.5181 1.91873 -2.30488 0
M  V30 311 H 30.0711 0.970876 -1.2249 0
M  V30 312 H 30.8061 3.24148 -0.099129 0
M  V30 313 H 30.5911 3.45115 -1.86112 0
M  V30 314 H 32.0811 4.03824 -1.06377 0
M  V30 315 N 32.5182 1.22032 0.997298 0
M  V30 316 C 33.4502 0.944263 2.08845 0
M  V30 317 C 34.4632 -0.0754663 1.62625 0
M  V30 318 O 35.6522 0.157994 1.77799 0
M  V30 319 C 32.7522 0.397723 3.36558 0
M  V30 320 C 31.9252 1.47362 4.11829 0
M  V30 321 C 30.9842 0.934951 5.17827 0
M  V30 322 O 30.0102 1.62016 5.45655 0
M  V30 323 N 31.2122 -0.245895 5.79979 0
M  V30 324 H 33.9772 1.88363 2.33109 0
M  V30 325 H 31.5382 1.12661 1.16272 0
M  V30 326 H 33.5302 0.0227771 4.04694 0
M  V30 327 H 32.1002 -0.446646 3.09393 0
M  V30 328 H 31.3202 2.02208 3.38386 0
M  V30 329 H 32.6082 2.19764 4.58891 0
M  V30 330 H 32.0062 -0.819475 5.59733 0
M  V30 331 H 30.5632 -0.562272 6.4937 0
M  V30 332 N 33.9963 -1.19345 1.0293 0
M  V30 333 C 35.2243 -1.92997 0.745644 0
M  V30 334 C 35.6393 -1.75519 -0.695589 0
M  V30 335 O 34.9963 -1.07737 -1.47306 0
M  V30 336 C 35.0473 -3.44741 1.08792 0
M  V30 337 O 34.7683 -3.61658 2.47256 0
M  V30 338 C 36.2693 -4.35515 0.827129 0
M  V30 339 H 33.4893 -0.613042 0.272801 0
M  V30 340 H 36.0333 -1.51473 1.3739 0
M  V30 341 H 34.1883 -3.84097 0.504832 0
M  V30 342 H 34.6023 -4.55514 2.60015 0
M  V30 343 H 36.0763 -5.40589 1.11658 0
M  V30 344 H 36.5533 -4.38552 -0.238436 0
M  V30 345 H 37.1593 -4.01841 1.39297 0
M  V30 346 N 35.4744 -0.807222 -1.35358 0
M  V30 347 C 36.7204 -0.388463 -1.99045 0
M  V30 348 C 37.0534 1.04184 -1.63888 0
M  V30 349 O 36.3284 1.72292 -0.902535 0
M  V30 350 C 36.6114 -0.572783 -3.55515 0
M  V30 351 C 36.4644 -2.04807 -4.00468 0
M  V30 352 C 37.7834 0.00114064 -4.401 0
M  V30 353 H 34.9024 -0.142619 -0.723069 0
M  V30 354 H 37.5444 -1.01687 -1.60498 0
M  V30 355 H 35.6944 -0.0378425 -3.88482 0
M  V30 356 H 37.3664 -2.64544 -3.77908 0
M  V30 357 H 35.6094 -2.54427 -3.51353 0
M  V30 358 H 36.2804 -2.12792 -5.09337 0
M  V30 359 H 38.7564 -0.455716 -4.13597 0
M  V30 360 H 37.6324 -0.157737 -5.48673 0
M  V30 361 H 37.8934 1.09488 -4.28328 0
M  V30 362 N 36.9525 1.47285 -0.560781 0
M  V30 363 C 38.3635 1.86258 -0.128343 0
M  V30 364 C 38.7145 1.46699 1.30284 0
M  V30 365 O 37.8395 0.871698 1.98067 0
M  V30 366 C 38.4345 3.38044 -0.22614 0
M  V30 367 C 36.9935 3.76096 0.151283 0
M  V30 368 C 36.1405 2.71335 -0.572084 0
M  V30 369 H 39.0915 1.38752 -0.770297 0
M  V30 370 H 39.1125 3.76441 0.554322 0
M  V30 371 H 38.6245 3.66806 -1.26788 0
M  V30 372 H 36.7255 3.52951 1.19399 0
M  V30 373 H 36.8385 4.78641 -0.209765 0
M  V30 374 H 35.2025 2.54696 -0.0147653 0
M  V30 375 H 35.9855 3.02938 -1.61504 0
M  V30 376 N 38.4306 0.297415 1.54768 0
M  V30 377 C 39.3406 -0.58983 2.27064 0
M  V30 378 C 40.3566 -1.15144 1.30453 0
M  V30 379 O 41.5326 -1.17699 1.63428 0
M  V30 380 C 38.5976 -1.74714 2.9946 0
M  V30 381 C 37.6586 -1.21997 4.11601 0
M  V30 382 C 36.8916 -2.32212 4.80535 0
M  V30 383 O 37.1146 -3.52036 4.48806 0
M  V30 384 O 36.0486 -1.99106 5.68014 0
M  V30 385 H 39.8746 -0.00348199 3.037 0
M  V30 386 H 37.4596 0.0640035 1.49263 0
M  V30 387 H 39.3416 -2.42147 3.44881 0
M  V30 388 H 38.0166 -2.32016 2.25722 0
M  V30 389 H 36.9236 -0.511458 3.70587 0
M  V30 390 H 38.2566 -0.692419 4.87305 0
M  V30 391 N 39.9087 -1.5758 0.0250728 0
M  V30 392 C 41.1567 -1.91255 -0.653151 0
M  V30 393 C 41.4777 -0.901691 -1.729 0
M  V30 394 O 40.7477 0.0573785 -1.95816 0
M  V30 395 H 39.3277 -0.705942 -0.244243 0
M  V30 396 H 41.9897 -1.94767 0.0719209 0
M  V30 397 H 41.0857 -2.91752 -1.10847 0
M  V30 398 N 41.3868 0.248026 -1.55636 0
M  V30 399 C 42.6168 0.992367 -1.81206 0
M  V30 400 C 43.0248 1.7949 -0.598324 0
M  V30 401 O 42.3678 1.78292 0.442434 0
M  V30 402 C 42.4298 1.97926 -3.00109 0
M  V30 403 C 42.0938 1.36377 -4.36177 0
M  V30 404 C 43.0908 0.76682 -5.14214 0
M  V30 405 C 40.7758 1.38347 -4.82872 0
M  V30 406 C 42.7698 0.197778 -6.37093 0
M  V30 407 C 40.4568 0.810574 -6.057 0
M  V30 408 C 41.4548 0.218754 -6.8265 0
M  V30 409 O 41.1428 -0.345298 -8.03158 0
M  V30 410 H 40.8748 0.297704 -0.606917 0
M  V30 411 H 43.4288 0.276517 -2.0353 0
M  V30 412 H 41.6588 2.73339 -2.73538 0
M  V30 413 H 43.3478 2.58694 -3.12781 0
M  V30 414 H 44.1138 0.744114 -4.79258 0
M  V30 415 H 39.9928 1.8335 -4.2297 0
M  V30 416 H 43.5368 -0.264788 -6.97097 0
M  V30 417 H 39.4338 0.830604 -6.40134 0
M  V30 418 H 40.2018 -0.237055 -8.18157 0
M  V30 419 N 42.8649 1.48995 0.513639 0
M  V30 420 C 43.7969 1.60836 1.63293 0
M  V30 421 C 44.8099 0.491701 1.55197 0
M  V30 422 O 45.9989 0.763238 1.6136 0
M  V30 423 C 43.0989 1.53731 3.02027 0
M  V30 424 C 42.2719 2.80715 3.35437 0
M  V30 425 C 41.3309 2.66837 4.53525 0
M  V30 426 O 40.3569 3.40753 4.55934 0
M  V30 427 N 41.5589 1.77539 5.52684 0
M  V30 428 H 44.3239 2.57366 1.53566 0
M  V30 429 H 41.8849 1.45925 0.701259 0
M  V30 430 H 43.8769 1.42118 3.78926 0
M  V30 431 H 42.4469 0.651092 3.05744 0
M  V30 432 H 41.6669 3.06772 2.47557 0
M  V30 433 H 42.9549 3.64927 3.54551 0
M  V30 434 H 42.3529 1.16719 5.53528 0
M  V30 435 H 40.9099 1.71856 6.28736 0
M  V30 436 N 44.343 -0.763751 1.37857 0
M  V30 437 C 45.273 -1.89103 1.36975 0
M  V30 438 C 46.254 -1.68439 0.237152 0
M  V30 439 O 47.439 -1.8918 0.438713 0
M  V30 440 C 44.569 -3.26496 1.18395 0
M  V30 441 C 43.523 -3.61741 2.28751 0
M  V30 442 C 42.849 -4.97762 1.95286 0
M  V30 443 C 44.149 -3.67665 3.70972 0
M  V30 444 H 45.843 -1.90099 2.31307 0
M  V30 445 H 43.389 -0.91319 1.11341 0
M  V30 446 H 45.342 -4.05003 1.16406 0
M  V30 447 H 44.066 -3.25955 0.205215 0
M  V30 448 H 42.725 -2.85547 2.29909 0
M  V30 449 H 42.373 -4.93769 0.959221 0
M  V30 450 H 42.073 -5.22313 2.69189 0
M  V30 451 H 43.597 -5.7866 1.94898 0
M  V30 452 H 45.011 -4.36307 3.719 0
M  V30 453 H 43.408 -4.03718 4.43995 0
M  V30 454 H 44.478 -2.68134 4.0402 0
M  V30 455 N 45.8211 -1.22559 -0.990812 0
M  V30 456 C 46.7531 -0.955325 -2.08342 0
M  V30 457 C 47.7661 0.0668408 -1.62663 0
M  V30 458 O 48.9551 -0.167421 -1.77713 0
M  V30 459 C 46.0551 -0.415566 -3.36342 0
M  V30 460 C 45.2281 -1.49544 -4.11042 0
M  V30 461 C 44.2871 -0.962399 -5.17324 0
M  V30 462 O 43.3131 -1.64907 -5.44788 0
M  V30 463 N 44.5151 0.215134 -5.80101 0
M  V30 464 H 47.2801 -1.89596 -2.32106 0
M  V30 465 H 44.8411 -1.13276 -1.15673 0
M  V30 466 H 46.8331 -0.0442386 -4.04676 0
M  V30 467 H 45.4031 0.430232 -3.09625 0
M  V30 468 H 44.6231 -2.04 -3.37309 0
M  V30 469 H 45.9111 -2.22195 -4.57719 0
M  V30 470 H 45.3091 0.789779 -5.6016 0
M  V30 471 H 43.8661 0.527826 -6.49659 0
M  V30 472 N 47.2992 1.18797 -1.03562 0
M  V30 473 C 48.2312 2.21731 -0.580337 0
M  V30 474 C 49.2442 1.59051 0.347349 0
M  V30 475 O 50.4332 1.77929 0.142669 0
M  V30 476 C 47.5332 3.38459 0.172805 0
M  V30 477 C 46.7062 4.3072 -0.761496 0
M  V30 478 C 45.7652 5.26174 -0.0525547 0
M  V30 479 O 44.7912 5.65108 -0.681333 0
M  V30 480 N 45.9932 5.67624 1.21586 0
M  V30 481 H 48.7582 2.61417 -1.46565 0
M  V30 482 H 46.3192 1.33531 -0.915476 0
M  V30 483 H 48.3112 3.99335 0.656793 0
M  V30 484 H 46.8812 2.97507 0.959602 0
M  V30 485 H 46.1012 3.67525 -1.42544 0
M  V30 486 H 47.3892 4.89267 -1.39626 0
M  V30 487 H 46.7872 5.38038 1.74732 0
M  V30 488 H 45.3442 6.30721 1.64421 0
M  V30 489 N 48.7773 0.814389 1.34928 0
M  V30 490 C 50.0233 0.399013 1.98836 0
M  V30 491 C 50.3563 -1.03314 1.64438 0
M  V30 492 O 49.6313 -1.71811 0.911659 0
M  V30 493 C 49.9143 0.591629 3.55207 0
M  V30 494 C 49.7673 2.06928 3.99376 0
M  V30 495 C 51.0863 0.022199 4.40094 0
M  V30 496 H 48.2053 0.146451 0.722303 0
M  V30 497 H 50.8473 1.02537 1.59957 0
M  V30 498 H 48.9973 0.0584441 3.88456 0
M  V30 499 H 50.6693 2.66544 3.76499 0
M  V30 500 H 48.9123 2.56287 3.49999 0
M  V30 501 H 49.5833 2.1549 5.08201 0
M  V30 502 H 52.0593 0.477643 4.13349 0
M  V30 503 H 50.9353 0.186832 5.48582 0
M  V30 504 H 51.1963 -1.07215 4.28902 0
M  V30 505 N 50.2554 -1.46986 0.568584 0
M  V30 506 C 51.1854 -2.32946 -0.160753 0
M  V30 507 C 52.1664 -1.44487 -0.897631 0
M  V30 508 O 53.3514 -1.73327 -0.875867 0
M  V30 509 C 50.4814 -3.26494 -1.18403 0
M  V30 510 C 49.4354 -4.24282 -0.562895 0
M  V30 511 C 48.7614 -5.07236 -1.69163 0
M  V30 512 C 50.0614 -5.19989 0.490761 0
M  V30 513 H 51.7554 -2.94175 0.556916 0
M  V30 514 H 49.3014 -1.4146 0.26927 0
M  V30 515 H 51.2544 -3.85477 -1.70251 0
M  V30 516 H 49.9784 -2.63343 -1.93179 0
M  V30 517 H 48.6374 -3.66541 -0.0656164 0
M  V30 518 H 48.2854 -4.4048 -2.42871 0
M  V30 519 H 47.9854 -5.7345 -1.28174 0
M  V30 520 H 49.5094 -5.6908 -2.21314 0
M  V30 521 H 50.9234 -5.73271 0.0579047 0
M  V30 522 H 49.3204 -5.94469 0.820165 0
M  V30 523 H 50.3904 -4.64777 1.3824 0
M  V30 524 N 51.7335 -0.305618 -1.54608 0
M  V30 525 C 52.6665 0.610536 -2.19881 0
M  V30 526 C 53.6445 1.1294 -1.16976 0
M  V30 527 O 54.8285 1.19673 -1.45638 0
M  V30 528 C 51.9555 1.83583 -2.84631 0
M  V30 529 C 51.0015 1.4498 -4.01102 0
M  V30 530 S 51.8345 0.501793 -5.33144 0
M  V30 531 C 52.9905 1.73478 -6.01379 0
M  V30 532 H 53.2235 0.0560177 -2.97247 0
M  V30 533 H 50.7565 -0.0897434 -1.54139 0
M  V30 534 H 52.7145 2.53898 -3.22562 0
M  V30 535 H 51.3755 2.36152 -2.07102 0
M  V30 536 H 50.5685 2.36236 -4.45206 0
M  V30 537 H 50.1705 0.826553 -3.64752 0
M  V30 538 H 52.4625 2.67473 -6.22467 0
M  V30 539 H 53.4055 1.33622 -6.95378 0
M  V30 540 H 53.8135 1.9136 -5.31076 0
M  V30 541 N 53.2116 1.57565 -0.0334293 0
M  V30 542 C 54.1446 2.05997 0.981866 0
M  V30 543 C 55.1226 0.956647 1.3148 0
M  V30 544 O 56.3066 1.22729 1.43073 0
M  V30 545 C 53.4336 2.48564 2.30074 0
M  V30 546 C 52.4796 3.69958 2.12211 0
M  V30 547 S 53.3126 5.16414 1.41692 0
M  V30 548 C 54.4686 5.6228 2.7494 0
M  V30 549 H 54.7016 2.91792 0.569612 0
M  V30 550 H 52.2346 1.53366 0.178376 0
M  V30 551 H 54.1926 2.73753 3.05892 0
M  V30 552 H 52.8536 1.63106 2.68431 0
M  V30 553 H 52.0466 3.97603 3.09722 0
M  V30 554 H 51.6486 3.44943 1.44535 0
M  V30 555 H 53.9406 5.66783 3.71165 0
M  V30 556 H 54.8836 6.61759 2.51953 0
M  V30 557 H 55.2916 4.89944 2.80384 0
M  V30 558 N 54.6897 -0.239769 1.55765 0
M  V30 559 C 55.9147 -0.988373 1.82335 0
M  V30 560 C 56.3397 -1.77886 0.611421 0
M  V30 561 O 55.6977 -1.75889 -0.439639 0
M  V30 562 C 55.7457 -1.89627 3.06715 0
M  V30 563 O 54.8497 -2.98904 2.84131 0
M  V30 564 H 54.1907 -0.280858 0.601677 0
M  V30 565 H 56.7207 -0.258597 2.02959 0
M  V30 566 H 56.7307 -2.30957 3.36338 0
M  V30 567 H 55.4057 -1.31511 3.9456 0
M  V30 568 H 53.9827 -2.61651 2.65694 0
M  V30 569 N 56.1678 -1.49265 -0.50573 0
M  V30 570 C 57.5838 -1.35923 -0.836486 0
M  V30 571 C 57.7838 -0.388704 -1.97715 0
M  V30 572 O 56.8398 0.181336 -2.51848 0
M  V30 573 C 58.1528 -2.76531 -1.18115 0
M  V30 574 C 59.7008 -2.85197 -1.28964 0
M  V30 575 C 60.1758 -4.26561 -1.66761 0
M  V30 576 N 61.6668 -4.2935 -1.73819 0
M  V30 577 C 62.4018 -5.35693 -2.045 0
M  V30 578 N 61.8978 -6.52287 -2.33438 0
M  V30 579 N 63.6908 -5.23105 -2.05711 0
M  V30 580 H 55.8418 -2.10965 0.246519 0
M  V30 581 H 58.1048 -0.9468 0.0476887 0
M  V30 582 H 57.8108 -3.49226 -0.416398 0
M  V30 583 H 57.6848 -3.11599 -2.1257 0
M  V30 584 H 60.0718 -2.12742 -2.04511 0
M  V30 585 H 60.1528 -2.53718 -0.325704 0
M  V30 586 H 59.7968 -4.99541 -0.917656 0
M  V30 587 H 59.7268 -4.55502 -2.64246 0
M  V30 588 H 62.2178 -3.4526 -1.53635 0
M  V30 589 H 62.5308 -7.29158 -2.56024 0
M  V30 590 H 60.8758 -6.55521 -2.30905 0
M  V30 591 H 64.0668 -4.31026 -1.82577 0
M  V30 592 H 64.2398 -6.06078 -2.29289 0
M  V30 593 N 57.6459 0.756429 -1.3826 0
M  V30 594 C 58.5959 1.86069 -1.31766 0
M  V30 595 C 59.5799 1.59621 -0.202483 0
M  V30 596 O 60.7719 1.7149 -0.438211 0
M  V30 597 C 57.9009 3.23742 -1.1422 0
M  V30 598 C 56.9869 3.56091 -2.30348 0
M  V30 599 N 57.3779 3.59517 -3.55783 0
M  V30 600 C 55.6759 3.86341 -2.22838 0
M  V30 601 C 56.3769 3.89052 -4.32451 0
M  V30 602 N 55.3529 4.05736 -3.61772 0
M  V30 603 H 59.1549 1.86992 -2.26741 0
M  V30 604 H 56.6689 0.953643 -1.31451 0
M  V30 605 H 58.6659 4.02761 -1.07652 0
M  V30 606 H 57.3259 3.24073 -0.201763 0
M  V30 607 H 58.3369 3.41347 -3.89491 0
M  V30 608 H 55.0139 3.94404 -1.36937 0
M  V30 609 H 56.4039 3.98349 -5.4108 0
M  V30 610 N 59.124 1.23083 0.984299 0
M  V30 611 C 60.072 1.00593 2.09723 0
M  V30 612 C 61.066 -0.0538014 1.69315 0
M  V30 613 O 62.272 0.0993719 1.79725 0
M  V30 614 H 58.647 0.30817 0.685956 0
M  V30 615 H 60.618 1.95012 2.2586 0
M  V30 616 C 59.367 0.609601 3.42314 0
M  V30 617 H 58.69 1.41675 3.73856 0
M  V30 618 H 60.13 0.491726 4.21139 0
M  V30 619 C 58.589 -0.681745 3.2993 0
M  V30 620 O 59.119 -1.73192 3.62446 0
M  V30 621 N 57.325 -0.656178 2.83095 0
M  V30 622 H 56.872 0.198759 2.56832 0
M  V30 623 H 56.83 -1.52044 2.75191 0
M  V30 624 N 60.6021 -1.18246 1.0419 0
M  V30 625 C 61.5321 -2.24127 0.654914 0
M  V30 626 C 62.5131 -1.66617 -0.342451 0
M  V30 627 O 63.6981 -1.92924 -0.222277 0
M  V30 628 C 60.8281 -3.47295 0.0183757 0
M  V30 629 C 59.7821 -4.17563 0.939414 0
M  V30 630 C 59.1081 -5.34438 0.167286 0
M  V30 631 C 60.4081 -4.70917 2.25908 0
M  V30 632 H 62.1021 -2.56753 1.54007 0
M  V30 633 H 59.6481 -1.23414 0.74195 0
M  V30 634 H 61.6011 -4.20572 -0.264082 0
M  V30 635 H 60.3251 -3.13907 -0.901664 0
M  V30 636 H 58.9841 -3.46186 1.20628 0
M  V30 637 H 58.6321 -4.97298 -0.7552 0
M  V30 638 H 58.3321 -5.82388 0.780901 0
M  V30 639 H 59.8561 -6.10504 -0.108125 0
M  V30 640 H 61.2701 -5.35882 2.03724 0
M  V30 641 H 59.6671 -5.29406 2.82577 0
M  V30 642 H 60.7371 -3.88272 2.9047 0
M  V30 643 N 62.0802 -0.821533 -1.34494 0
M  V30 644 C 63.4962 -0.507117 -1.51329 0
M  V30 645 C 63.6962 0.968964 -1.76673 0
M  V30 646 O 62.7522 1.75348 -1.81685 0
M  V30 647 C 64.0652 -1.36544 -2.67911 0
M  V30 648 C 65.6132 -1.36242 -2.81793 0
M  V30 649 C 66.0882 -2.2052 -4.01416 0
M  V30 650 N 67.5792 -2.18136 -4.08621 0
M  V30 651 C 68.3142 -2.80095 -5.00334 0
M  V30 652 N 67.8102 -3.51039 -5.9728 0
M  V30 653 N 69.6032 -2.69656 -4.93196 0
M  V30 654 H 61.7542 -1.77729 -1.16302 0
M  V30 655 H 64.0172 -0.757291 -0.570276 0
M  V30 656 H 63.7232 -2.41361 -2.55808 0
M  V30 657 H 63.5972 -1.02917 -3.62888 0
M  V30 658 H 65.9842 -0.322041 -2.93338 0
M  V30 659 H 66.0652 -1.73866 -1.87628 0
M  V30 660 H 65.7092 -3.24607 -3.90631 0
M  V30 661 H 65.6392 -1.80247 -4.94791 0
M  V30 662 H 68.1302 -1.6653 -3.39229 0
M  V30 663 H 68.4432 -3.95565 -6.63889 0
M  V30 664 H 66.7882 -3.55145 -5.97409 0
M  V30 665 H 69.9792 -2.13808 -4.16418 0
M  V30 666 H 70.1522 -3.1823 -5.64476 0
M  V30 667 N 63.5583 1.46682 -0.576371 0
M  V30 668 C 64.5213 2.28707 0.150239 0
M  V30 669 C 65.5213 1.38035 0.824794 0
M  V30 670 O 66.7113 1.60476 0.677719 0
M  V30 671 C 63.8433 3.18248 1.22192 0
M  V30 672 H 65.0363 2.94423 -0.570521 0
M  V30 673 H 62.5893 1.52688 -0.334078 0
M  V30 674 H 63.3243 2.57265 1.97447 0
M  V30 675 H 63.1093 3.85 0.742812 0
M  V30 676 H 64.5993 3.80001 1.73172 0
M  V30 677 N 65.0364 0.313813 1.54444 0
M  V30 678 C 66.4474 -0.176243 1.85866 0
M  V30 679 C 66.7984 -1.52405 1.23561 0
M  V30 680 O 65.9234 -2.09605 0.538016 0
M  V30 681 C 66.5184 -0.32657 3.37222 0
M  V30 682 C 65.0774 -0.760846 3.6863 0
M  V30 683 C 64.2244 0.123247 2.77026 0
M  V30 684 H 67.1754 0.534418 1.49431 0
M  V30 685 H 67.1964 -1.15908 3.62416 0
M  V30 686 H 66.7084 0.654531 3.82541 0
M  V30 687 H 64.8094 -1.75204 3.28838 0
M  V30 688 H 64.9224 -0.571353 4.75681 0
M  V30 689 H 63.2864 -0.399597 2.51546 0
M  V30 690 H 64.0694 1.10094 3.25168 0
M  V30 691 N 66.5145 -1.57545 0.0417849 0
M  V30 692 C 67.4445 -2.14009 -0.933929 0
M  V30 693 C 68.4255 -1.05938 -1.33083 0
M  V30 694 O 69.6105 -1.33833 -1.40721 0
M  V30 695 C 66.7405 -2.67747 -2.21199 0
M  V30 696 C 65.6945 -3.80718 -1.95544 0
M  V30 697 C 65.0205 -4.20935 -3.29724 0
M  V30 698 C 66.3205 -5.06258 -1.28452 0
M  V30 699 H 68.0145 -2.95788 -0.463645 0
M  V30 700 H 65.5605 -1.42285 -0.221573 0
M  V30 701 H 67.5135 -3.05886 -2.89848 0
M  V30 702 H 66.2375 -1.83147 -2.70416 0
M  V30 703 H 64.8965 -3.43037 -1.2931 0
M  V30 704 H 64.5445 -3.33298 -3.76724 0
M  V30 705 H 64.2445 -4.9707 -3.13361 0
M  V30 706 H 65.7685 -4.61666 -3.9962 0
M  V30 707 H 67.1825 -5.41903 -1.8712 0
M  V30 708 H 65.5795 -5.87475 -1.22445 0
M  V30 709 H 66.6495 -4.84207 -0.259219 0
M  V30 710 N 67.9926 0.231505 -1.5589 0
M  V30 711 C 68.9556 1.27028 -1.90779 0
M  V30 712 C 69.9556 1.40308 -0.785507 0
M  V30 713 O 71.1456 1.38744 -1.05336 0
M  V30 714 C 68.2776 2.64566 -2.14983 0
M  V30 715 H 69.4706 0.973017 -2.83677 0
M  V30 716 H 67.0236 0.471486 -1.49019 0
M  V30 717 H 67.7586 2.99406 -1.24604 0
M  V30 718 H 67.5436 2.56305 -2.96732 0
M  V30 719 H 69.0336 3.39543 -2.43105 0
M  V30 720 N 69.4707 1.49531 0.497807 0
M  V30 721 C 70.4187 1.66926 1.61983 0
M  V30 722 C 71.4127 0.535167 1.60724 0
M  V30 723 O 72.6187 0.714896 1.65195 0
M  V30 724 H 68.9937 0.526415 0.537021 0
M  V30 725 H 70.9647 2.61098 1.44465 0
M  V30 726 C 69.7137 1.75602 3.00099 0
M  V30 727 H 69.0367 2.62244 3.01775 0
M  V30 728 H 70.4767 1.91807 3.78135 0
M  V30 729 C 68.9357 0.501543 3.33146 0
M  V30 730 O 69.4657 -0.371342 3.9998 0
M  V30 731 N 67.6717 0.363531 2.88317 0
M  V30 732 H 67.2187 1.07485 2.34104 0
M  V30 733 H 67.1767 -0.474728 3.10795 0
M  V30 734 N 70.9488 -0.749086 1.3866 0
M  V30 735 C 71.8968 -1.88428 1.36373 0
M  V30 736 C 72.8908 -1.67561 0.248929 0
M  V30 737 O 74.0968 -1.75074 0.41821 0
M  V30 738 H 70.4718 -0.620023 0.42553 0
M  V30 739 H 72.4428 -1.87473 2.32156 0
M  V30 740 C 71.1918 -3.25961 1.21014 0
M  V30 741 H 70.5148 -3.42607 2.06059 0
M  V30 742 H 71.9548 -4.05625 1.23469 0
M  V30 743 C 70.4138 -3.36799 -0.0825941 0
M  V30 744 O 70.9438 -3.87517 -1.05797 0
M  V30 745 N 69.1498 -2.90258 -0.140939 0
M  V30 746 H 68.6968 -2.49174 0.653477 0
M  V30 747 H 68.6548 -2.97889 -1.00545 0
M  V30 748 N 72.4269 -1.23603 -0.977757 0
M  V30 749 C 73.6749 -1.06759 -1.71601 0
M  V30 750 C 73.9959 0.395929 -1.90938 0
M  V30 751 O 73.2659 1.28356 -1.47992 0
M  V30 752 H 71.8459 -0.392062 -0.635843 0
M  V30 753 H 74.5079 -1.55362 -1.1768 0
M  V30 754 H 73.6039 -1.55763 -2.70452 0
M  V30 755 N 73.905 1.17692 -1.04816 0
M  V30 756 C 75.13 1.92327 -0.776207 0
M  V30 757 C 75.555 1.76082 0.661581 0
M  V30 758 O 74.913 1.076 1.45917 0
M  V30 759 C 74.961 3.41539 -1.15687 0
M  V30 760 O 74.065 4.11402 -0.286775 0
M  V30 761 H 73.406 0.599735 -0.284981 0
M  V30 762 H 75.936 1.49201 -1.4 0
M  V30 763 H 75.946 3.92269 -1.12202 0
M  V30 764 H 74.621 3.52684 -2.20425 0
M  V30 765 H 73.198 3.70939 -0.381903 0
M  V30 766 N 75.3831 0.828654 1.34056 0
M  V30 767 C 76.6291 0.42008 1.98402 0
M  V30 768 C 76.9621 -1.01564 1.65525 0
M  V30 769 O 76.2371 -1.70834 0.929831 0
M  V30 770 C 76.5201 0.62927 3.54559 0
M  V30 771 C 76.3731 2.11152 3.97159 0
M  V30 772 C 77.6921 0.0688756 4.40046 0
M  V30 773 H 74.8111 0.154104 0.720709 0
M  V30 774 H 77.4531 1.04228 1.5886 0
M  V30 775 H 75.6031 0.0996418 3.88372 0
M  V30 776 H 77.2751 2.70522 3.73651 0
M  V30 777 H 75.5181 2.59985 3.47261 0
M  V30 778 H 76.1891 2.20868 5.05887 0
M  V30 779 H 78.6651 0.521458 4.1282 0
M  V30 780 H 77.5411 0.245006 5.48353 0
M  V30 781 H 77.8021 -1.0266 4.30015 0
M  V30 782 N 76.8612 -1.46375 0.584142 0
M  V30 783 C 77.7912 -2.33103 -0.136037 0
M  V30 784 C 78.7722 -1.45431 -0.882255 0
M  V30 785 O 79.9572 -1.74246 -0.857434 0
M  V30 786 C 77.0872 -3.27731 -1.14933 0
M  V30 787 C 76.0412 -4.24855 -0.517862 0
M  V30 788 C 75.3672 -5.09001 -1.63773 0
M  V30 789 C 76.6672 -5.19439 0.545886 0
M  V30 790 H 78.3612 -2.93568 0.588086 0
M  V30 791 H 75.9072 -1.41166 0.284259 0
M  V30 792 H 77.8602 -3.87261 -1.66153 0
M  V30 793 H 76.5842 -2.65377 -1.90375 0
M  V30 794 H 75.2432 -3.6659 -0.0267361 0
M  V30 795 H 74.8912 -4.43031 -2.38185 0
M  V30 796 H 74.5912 -5.74777 -1.22085 0
M  V30 797 H 76.1152 -5.71396 -2.15266 0
M  V30 798 H 77.5292 -5.73177 0.118704 0
M  V30 799 H 75.9262 -5.93566 0.88317 0
M  V30 800 H 76.9962 -4.63285 1.43162 0
M  V30 801 N 78.3393 -0.321999 -1.54275 0
M  V30 802 C 79.2493 0.553631 -2.27974 0
M  V30 803 C 80.2653 1.13054 -1.32268 0
M  V30 804 O 81.4413 1.15084 -1.6528 0
M  V30 805 C 78.5063 1.69927 -3.02201 0
M  V30 806 C 77.5673 1.15433 -4.1349 0
M  V30 807 C 76.8003 2.24537 -4.84168 0
M  V30 808 O 77.0233 3.44852 -4.5435 0
M  V30 809 O 75.9573 1.90044 -5.7111 0
M  V30 810 H 79.7833 -0.0448345 -3.03667 0
M  V30 811 H 77.3683 -0.0877418 -1.49142 0
M  V30 812 H 79.2503 2.3663 -3.48689 0
M  V30 813 H 77.9253 2.28395 -2.29385 0
M  V30 814 H 76.8323 0.452436 -3.71354 0
M  V30 815 H 78.1653 0.614805 -4.88345 0
M  V30 816 N 79.8174 1.5752 -0.0501392 0
M  V30 817 C 80.7494 2.08413 0.95376 0
M  V30 818 C 81.7624 1.01175 1.27544 0
M  V30 819 O 82.9514 1.28744 1.23641 0
M  V30 820 C 80.0514 2.51138 2.27559 0
M  V30 821 C 79.2244 3.817 2.13598 0
M  V30 822 C 78.2834 4.10749 3.28895 0
M  V30 823 O 77.3094 4.80685 3.04845 0
M  V30 824 N 78.5114 3.62579 4.5334 0
M  V30 825 H 81.2764 2.95165 0.519383 0
M  V30 826 H 78.8374 1.61327 0.136127 0
M  V30 827 H 80.8294 2.67648 3.03557 0
M  V30 828 H 79.3994 1.6964 2.62567 0
M  V30 829 H 78.6194 3.74782 1.22197 0
M  V30 830 H 79.9074 4.67201 2.01496 0
M  V30 831 H 79.3054 3.06039 4.75769 0
M  V30 832 H 77.8624 3.84329 5.26436 0
M  V30 833 N 81.2955 -0.223234 1.56011 0
M  V30 834 C 82.5205 -0.968978 1.83373 0
M  V30 835 C 82.9455 -1.77227 0.630254 0
M  V30 836 O 82.3035 -1.76345 -0.420959 0
M  V30 837 C 82.3515 -1.86363 3.08709 0
M  V30 838 O 81.4555 -2.95873 2.87285 0
M  V30 839 H 80.7965 -0.274461 0.604622 0
M  V30 840 H 83.3265 -0.237056 2.03222 0
M  V30 841 H 83.3365 -2.27376 3.38768 0
M  V30 842 H 82.0115 -1.27319 3.95933 0
M  V30 843 H 80.5885 -2.58818 2.68454 0
M  V30 844 N 82.7736 -1.49793 -0.48987 0
M  V30 845 C 84.0016 -1.63568 -1.26701 0
M  V30 846 C 84.4166 -0.311465 -1.86213 0
M  V30 847 O 83.7736 0.704416 -1.68357 0
M  V30 848 C 83.8246 -2.71284 -2.38929 0
M  V30 849 O 83.5456 -3.9857 -1.81861 0
M  V30 850 C 85.0466 -2.95864 -3.3012 0
M  V30 851 H 82.2666 -0.550342 -0.383881 0
M  V30 852 H 84.8106 -1.95898 -0.586864 0
M  V30 853 H 82.9656 -2.417 -3.02753 0
M  V30 854 H 83.3796 -4.57993 -2.55622 0
M  V30 855 H 84.8536 -3.74941 -4.05121 0
M  V30 856 H 85.3306 -2.06206 -3.87783 0
M  V30 857 H 85.9366 -3.26907 -2.72051 0
M  V30 858 N 84.2517 0.741722 -1.39055 0
M  V30 859 C 85.6627 1.31966 -1.32068 0
M  V30 860 C 86.0137 1.96192 0.0180797 0
M  V30 861 O 85.1387 1.95861 0.920196 0
M  V30 862 C 85.7337 2.39954 -2.39181 0
M  V30 863 C 84.2927 2.93438 -2.35735 0
M  V30 864 C 83.4397 1.66936 -2.21422 0
M  V30 865 H 86.3907 0.539721 -1.4924 0
M  V30 866 H 86.4117 3.20182 -2.05581 0
M  V30 867 H 85.9237 1.9318 -3.36605 0
M  V30 868 H 84.0247 3.4451 -1.41929 0
M  V30 869 H 84.1377 3.4701 -3.30335 0
M  V30 870 H 82.5017 1.91016 -1.68478 0
M  V30 871 H 83.2847 1.22224 -3.20806 0
M  V30 872 N 85.7298 1.2412 0.971189 0
M  V30 873 C 86.6778 1.02812 2.08644 0
M  V30 874 C 87.6718 -0.0358403 1.69362 0
M  V30 875 O 88.8778 0.118429 1.7961 0
M  V30 876 H 85.2528 0.315428 0.682649 0
M  V30 877 H 87.2238 1.97397 2.23779 0
M  V30 878 C 85.9728 0.645874 3.41649 0
M  V30 879 H 85.2958 1.45632 3.72332 0
M  V30 880 H 86.7358 0.536366 4.20594 0
M  V30 881 C 85.1948 -0.646713 3.30635 0
M  V30 882 O 85.7248 -1.69338 3.64263 0
M  V30 883 N 83.9308 -0.626115 2.83775 0
M  V30 884 H 83.4778 0.225988 2.56607 0
M  V30 885 H 83.4358 -1.49117 2.76788 0
M  V30 886 N 87.2079 -1.17134 1.05439 0
M  V30 887 C 88.1549 -2.21235 0.657539 0
M  V30 888 C 89.1249 -1.62551 -0.341543 0
M  V30 889 O 90.3099 -1.89379 -0.232393 0
M  V30 890 C 87.4499 -3.45076 0.0410575 0
M  V30 891 C 86.5629 -4.18042 1.08927 0
M  V30 892 C 85.6979 -5.29376 0.439848 0
M  V30 893 C 84.7369 -5.94132 1.4722 0
M  V30 894 N 83.8739 -6.96975 0.846756 0
M  V30 895 H 88.7139 -2.54534 1.54972 0
M  V30 896 H 86.2509 -1.25028 0.775006 0
M  V30 897 H 88.2089 -4.15862 -0.33383 0
M  V30 898 H 86.8389 -3.12353 -0.814568 0
M  V30 899 H 85.8909 -3.45945 1.58196 0
M  V30 900 H 87.2029 -4.62306 1.87282 0
M  V30 901 H 86.3569 -6.06699 0.0115125 0
M  V30 902 H 85.0959 -4.86251 -0.375656 0
M  V30 903 H 84.1009 -5.15538 1.91052 0
M  V30 904 H 85.3259 -6.39337 2.28965 0
M  V30 905 H 83.2719 -6.5598 0.0518075 0
M  V30 906 H 83.1889 -7.39565 1.5678 0
M  V30 907 H 84.4569 -7.78239 0.443277 0
M  V30 908 N 88.686 -0.835752 -1.33615 0
M  V30 909 C 89.932 -0.439817 -1.98588 0
M  V30 910 C 90.287 0.989274 -1.65019 0
M  V30 911 O 89.58 1.68168 -0.918159 0
M  V30 912 C 89.774 -0.593925 -3.52431 0
M  V30 913 C 89.603 -2.03644 -4.00948 0
M  V30 914 C 88.373 -2.67103 -4.28934 0
M  V30 915 C 90.571 -3.00479 -4.17393 0
M  V30 916 N 88.553 -4.02462 -4.6357 0
M  V30 917 C 89.924 -4.20777 -4.55353 0
M  V30 918 C 91.979 -2.96926 -3.99674 0
M  V30 919 C 90.682 -5.37994 -4.77447 0
M  V30 920 C 92.708 -4.1337 -4.22941 0
M  V30 921 C 92.07 -5.32422 -4.61201 0
M  V30 922 H 88.169 -0.209303 -0.75347 0
M  V30 923 H 90.753 -1.08316 -1.61789 0
M  V30 924 H 88.924 0.019599 -3.88395 0
M  V30 925 H 90.656 -0.169738 -4.04344 0
M  V30 926 H 87.411 -2.18259 -4.20309 0
M  V30 927 H 87.835 -4.72232 -4.85104 0
M  V30 928 H 92.477 -2.06015 -3.69212 0
M  V30 929 H 90.195 -6.29451 -5.06771 0
M  V30 930 H 93.781 -4.12034 -4.10754 0
M  V30 931 H 92.661 -6.21027 -4.78848 0
M  V30 932 N 90.1641 1.46063 -0.591896 0
M  V30 933 C 91.5751 1.85944 -0.167822 0
M  V30 934 C 91.9261 1.49429 1.27143 0
M  V30 935 O 91.0511 0.913515 1.96173 0
M  V30 936 C 91.6461 3.37489 -0.297794 0
M  V30 937 C 90.2051 3.76332 0.0714732 0
M  V30 938 C 89.3521 2.7006 -0.629509 0
M  V30 939 H 92.3031 1.37087 -0.799555 0
M  V30 940 H 92.3241 3.77532 0.474349 0
M  V30 941 H 91.8361 3.64034 -1.3454 0
M  V30 942 H 89.9371 3.55405 1.11886 0
M  V30 943 H 90.0501 4.78088 -0.311245 0
M  V30 944 H 88.4141 2.54607 -0.0687867 0
M  V30 945 H 89.1971 2.99444 -1.67894 0
M  V30 946 N 91.6422 0.330177 1.54103 0
M  V30 947 C 92.5522 -0.541534 2.28264 0
M  V30 948 C 93.5682 -1.12351 1.32866 0
M  V30 949 O 94.7442 -1.14206 1.65888 0
M  V30 950 C 91.8092 -1.68322 3.03098 0
M  V30 951 C 90.8702 -1.13238 4.14096 0
M  V30 952 C 90.1032 -2.21966 4.85352 0
M  V30 953 O 90.3262 -3.42437 4.56172 0
M  V30 954 O 89.2602 -1.87013 5.7211 0
M  V30 955 H 93.0862 0.060938 3.03639 0
M  V30 956 H 90.6712 0.09565 1.49093 0
M  V30 957 H 92.5532 -2.34777 3.49939 0
M  V30 958 H 91.2282 -2.27176 2.30593 0
M  V30 959 H 90.1352 -0.432736 3.71589 0
M  V30 960 H 91.4682 -0.588898 4.88664 0
M  V30 961 N 93.1203 -1.57491 0.0584922 0
M  V30 962 C 94.3663 -1.94081 -0.608617 0
M  V30 963 C 94.7213 -0.937438 -1.68017 0
M  V30 964 O 94.0143 0.0423034 -1.91553 0
M  V30 965 C 94.2083 -3.3513 -1.24188 0
M  V30 966 C 94.0373 -4.49095 -0.233187 0
M  V30 967 C 92.8073 -5.04988 0.177439 0
M  V30 968 C 95.0053 -5.1162 0.524306 0
M  V30 969 N 92.9873 -6.02487 1.17823 0
M  V30 970 C 94.3583 -6.04493 1.37796 0
M  V30 971 C 96.4133 -4.94489 0.581822 0
M  V30 972 C 95.1163 -6.82075 2.28399 0
M  V30 973 C 97.1423 -5.72703 1.47531 0
M  V30 974 C 96.5043 -6.65214 2.31667 0
M  V30 975 H 92.6033 -0.75752 -0.194134 0
M  V30 976 H 95.1873 -1.94248 0.132533 0
M  V30 977 H 93.3583 -3.35726 -1.95302 0
M  V30 978 H 95.0903 -3.5899 -1.86838 0
M  V30 979 H 91.8453 -4.73165 -0.203004 0
M  V30 980 H 92.2693 -6.55933 1.67573 0
M  V30 981 H 96.9113 -4.22765 -0.054443 0
M  V30 982 H 94.6293 -7.53085 2.93067 0
M  V30 983 H 98.2153 -5.61472 1.52448 0
M  V30 984 H 97.0953 -7.24679 2.99683 0
M  V30 985 N 94.5984 0.214957 -1.56127 0
M  V30 986 C 95.8754 0.963093 -1.70247 0
M  V30 987 C 96.2554 2.02166 -0.60764 0
M  V30 988 O 95.6034 2.25244 0.384385 0
M  V30 989 C 95.8134 1.56756 -3.11815 0
M  V30 990 C 97.1614 2.0573 -3.7143 0
M  V30 991 O 98.1854 1.66637 -3.14818 0
M  V30 992 O 97.0444 2.77603 -4.70743 0
M  V30 993 H 94.1384 0.450321 -0.693643 0
M  V30 994 H 96.6844 0.206219 -1.68442 0
M  V30 995 H 95.4564 0.803533 -3.82961 0
M  V30 996 H 95.0794 2.3898 -3.17765 0
M  V30 997 N 96.0765 1.50051 0.48192 0
M  V30 998 C 97.3225 1.60736 1.2366 0
M  V30 999 C 97.6555 0.301786 1.91841 0
M  V30 1000 O 96.9305 -0.696025 1.8162 0
M  V30 1001 C 97.2135 2.78009 2.28874 0
M  V30 1002 C 97.0665 4.18416 1.65069 0
M  V30 1003 C 98.3855 2.90867 3.30279 0
M  V30 1004 H 95.5045 0.585031 0.448228 0
M  V30 1005 H 98.1465 1.82402 0.531946 0
M  V30 1006 H 96.2965 2.59667 2.88973 0
M  V30 1007 H 97.9685 4.48322 1.0865 0
M  V30 1008 H 96.2115 4.23177 0.954148 0
M  V30 1009 H 96.8825 4.96381 2.41474 0
M  V30 1010 H 99.3585 3.07623 2.80191 0
M  V30 1011 H 98.2345 3.74566 4.01238 0
M  V30 1012 H 98.4955 2.01021 3.93755 0
M  V30 1013 N 97.5546 -0.734337 1.39446 0
M  V30 1014 C 98.9656 -1.31264 1.32766 0
M  V30 1015 C 99.3166 -1.96198 -0.00767497 0
M  V30 1016 O 98.4416 -1.96346 -0.909796 0
M  V30 1017 C 99.0366 -2.38682 2.4045 0
M  V30 1018 C 97.5956 -2.92184 2.37288 0
M  V30 1019 C 96.7426 -1.6576 2.22304 0
M  V30 1020 H 99.6936 -0.531799 1.49525 0
M  V30 1021 H 99.7146 -3.19087 2.07276 0
M  V30 1022 H 99.2266 -1.91392 3.37625 0
M  V30 1023 H 97.3276 -3.43752 1.43754 0
M  V30 1024 H 97.4406 -3.45253 3.3217 0
M  V30 1025 H 95.8046 -1.9012 1.69489 0
M  V30 1026 H 96.5876 -1.20521 3.21449 0
M  V30 1027 N 99.0327 -1.24633 -0.964593 0
M  V30 1028 C 100.281 -1.08573 -1.70459 0
M  V30 1029 C 100.602 0.375655 -1.91347 0
M  V30 1030 O 99.8717 1.26779 -1.49345 0
M  V30 1031 H 98.4517 -0.398784 -0.631649 0
M  V30 1032 H 101.114 -1.56601 -1.16026 0
M  V30 1033 H 100.21 -1.58623 -2.68785 0
M  V30 1034 N 100.511 1.16574 -1.06058 0
M  V30 1035 C 101.759 1.86677 -0.77434 0
M  V30 1036 C 102.08 1.81959 0.701147 0
M  V30 1037 O 101.35 1.2515 1.50713 0
M  V30 1038 H 99.9298 0.691134 -0.283449 0
M  V30 1039 H 102.592 1.41378 -1.34158 0
M  V30 1040 H 101.688 2.92181 -1.09711 0
M  V30 1041 N 101.989 0.842826 1.3317 0
M  V30 1042 C 102.921 0.236245 2.27979 0
M  V30 1043 C 103.934 -0.585282 1.51915 0
M  V30 1044 O 105.123 -0.411705 1.73687 0
M  V30 1045 C 102.223 -0.685717 3.3189 0
M  V30 1046 C 101.396 0.0973448 4.37292 0
M  V30 1047 C 100.455 -0.748565 5.20848 0
M  V30 1048 O 99.4809 -0.186339 5.68895 0
M  V30 1049 N 100.683 -2.06527 5.42519 0
M  V30 1050 H 103.448 1.05088 2.80672 0
M  V30 1051 H 101.009 0.701667 1.45905 0
M  V30 1052 H 103.001 -1.25669 3.84694 0
M  V30 1053 H 101.571 -1.40105 2.79445 0
M  V30 1054 H 100.791 0.849706 3.84933 0
M  V30 1055 H 102.079 0.635643 5.04814 0
M  V30 1056 H 101.477 -2.54554 5.05192 0
M  V30 1057 H 100.034 -2.58464 5.98364 0
M  V30 1058 N 103.467 -1.45747 0.599634 0
M  V30 1059 C 104.397 -2.33235 -0.111306 0
M  V30 1060 C 105.378 -1.46359 -0.866781 0
M  V30 1061 O 106.563 -1.75146 -0.838904 0
M  V30 1062 C 103.693 -3.28932 -1.11451 0
M  V30 1063 C 102.647 -4.25381 -0.472772 0
M  V30 1064 C 101.973 -5.1071 -1.58365 0
M  V30 1065 C 103.273 -5.18831 0.600948 0
M  V30 1066 H 104.967 -2.92927 0.61919 0
M  V30 1067 H 102.513 -1.40857 0.299215 0
M  V30 1068 H 104.466 -3.89002 -1.62036 0
M  V30 1069 H 103.19 -2.67381 -1.8755 0
M  V30 1070 H 101.849 -3.66598 0.0121472 0
M  V30 1071 H 101.497 -4.45533 -2.33473 0
M  V30 1072 H 101.197 -5.7604 -1.15982 0
M  V30 1073 H 102.721 -5.73647 -2.09194 0
M  V30 1074 H 104.135 -5.73019 0.179491 0
M  V30 1075 H 102.532 -5.92595 0.946076 0
M  V30 1076 H 103.602 -4.6174 1.48068 0
M  V30 1077 N 104.945 -0.338344 -1.53925 0
M  V30 1078 C 106.173 0.261298 -2.05243 0
M  V30 1079 C 106.588 1.44625 -1.21363 0
M  V30 1080 O 105.945 1.80811 -0.247736 0
M  V30 1081 C 105.996 0.681412 -3.5502 0
M  V30 1082 O 105.717 -0.456414 -4.35716 0
M  V30 1083 C 107.218 1.34232 -4.22489 0
M  V30 1084 H 104.438 0.0513685 -0.669031 0
M  V30 1085 H 106.982 -0.488822 -1.98572 0
M  V30 1086 H 105.137 1.38148 -3.61931 0
M  V30 1087 H 105.551 -0.122564 -5.24357 0
M  V30 1088 H 107.025 1.58708 -5.28693 0
M  V30 1089 H 107.502 2.29426 -3.74514 0
M  V30 1090 H 108.108 0.684424 -4.19757 0
M  V30 1091 N 106.423 1.57458 -0.0668435 0
M  V30 1092 C 107.651 1.97624 0.612565 0
M  V30 1093 C 108.066 0.94502 1.63447 0
M  V30 1094 O 107.423 -0.0689276 1.8237 0
M  V30 1095 C 107.474 3.37869 1.28555 0
M  V30 1096 O 107.195 4.3704 0.304557 0
M  V30 1097 C 108.696 3.92882 2.05325 0
M  V30 1098 H 105.916 0.650045 0.166381 0
M  V30 1099 H 108.46 2.04035 -0.137782 0
M  V30 1100 H 106.615 3.3256 1.98702 0
M  V30 1101 H 107.029 5.18565 0.786779 0
M  V30 1102 H 108.503 4.93247 2.47812 0
M  V30 1103 H 108.98 3.29156 2.9078 0
M  V30 1104 H 109.586 4.01577 1.40056 0
M  V30 1105 N 107.901 -0.206675 1.56239 0
M  V30 1106 C 108.848 -1.25617 1.93621 0
M  V30 1107 C 109.818 -1.45824 0.795274 0
M  V30 1108 O 111.003 -1.59148 1.05245 0
M  V30 1109 C 108.143 -2.59839 2.27107 0
M  V30 1110 C 107.256 -2.47308 3.54207 0
M  V30 1111 C 106.391 -3.74155 3.7707 0
M  V30 1112 C 105.43 -3.56407 4.97635 0
M  V30 1113 N 104.567 -4.75238 5.1681 0
M  V30 1114 H 109.407 -0.930383 2.83104 0
M  V30 1115 H 106.944 -0.448065 1.4011 0
M  V30 1116 H 108.902 -3.38021 2.44535 0
M  V30 1117 H 107.532 -2.90485 1.40778 0
M  V30 1118 H 106.584 -1.60483 3.4489 0
M  V30 1119 H 107.896 -2.30122 4.42544 0
M  V30 1120 H 107.05 -4.60778 3.94675 0
M  V30 1121 H 105.789 -3.94282 2.87042 0
M  V30 1122 H 104.794 -2.68168 4.79964 0
M  V30 1123 H 106.019 -3.37736 5.89161 0
M  V30 1124 H 103.965 -4.95651 4.29728 0
M  V30 1125 H 103.882 -4.60835 5.99306 0
M  V30 1126 H 105.15 -5.63246 5.38864 0
M  V30 1127 N 109.379 -1.50304 -0.473955 0
M  V30 1128 C 110.627 -1.60832 -1.22382 0
M  V30 1129 C 110.948 -0.30939 -1.9253 0
M  V30 1130 O 110.218 0.67296 -1.83978 0
M  V30 1131 H 108.798 -0.592652 -0.454723 0
M  V30 1132 H 111.46 -1.87068 -0.546968 0
M  V30 1133 H 110.556 -2.41803 -1.97327 0
M  V30 1134 N 110.857 0.726932 -1.39834 0
M  V30 1135 C 112.105 1.4837 -1.37225 0
M  V30 1136 C 112.426 1.94979 0.0284857 0
M  V30 1137 O 111.696 1.69555 0.981213 0
M  V30 1138 H 110.276 0.55043 -0.505011 0
M  V30 1139 H 112.938 0.862468 -1.74778 0
M  V30 1140 H 112.034 2.36198 -2.04003 0
M  V30 1141 N 112.336 1.25143 0.95797 0
M  V30 1142 C 113.582 1.09855 1.70469 0
M  V30 1143 C 113.915 -0.360187 1.90831 0
M  V30 1144 O 113.19 -1.26568 1.47685 0
M  V30 1145 C 113.473 1.8497 3.08963 0
M  V30 1146 C 113.326 3.38652 2.96032 0
M  V30 1147 C 114.645 1.63016 4.08795 0
M  V30 1148 H 111.764 0.400465 0.618706 0
M  V30 1149 H 114.406 1.53933 1.11376 0
M  V30 1150 H 112.556 1.47505 3.59409 0
M  V30 1151 H 114.228 3.85772 2.52938 0
M  V30 1152 H 112.471 3.66534 2.32025 0
M  V30 1153 H 113.142 3.8642 3.94187 0
M  V30 1154 H 115.618 1.95625 3.67247 0
M  V30 1155 H 114.494 2.18015 5.03747 0
M  V30 1156 H 114.755 0.570692 4.38401 0
M  V30 1157 N 113.814 -1.1601 1.06675 0
M  V30 1158 C 114.744 -2.22688 0.702307 0
M  V30 1159 C 115.725 -1.67306 -0.307032 0
M  V30 1160 O 116.91 -1.93352 -0.181305 0
M  V30 1161 C 114.04 -3.47178 0.092038 0
M  V30 1162 C 112.994 -4.15477 1.02777 0
M  V30 1163 C 112.32 -5.33963 0.28061 0
M  V30 1164 C 113.62 -4.66019 2.35846 0
M  V30 1165 H 115.314 -2.53429 1.59419 0
M  V30 1166 H 112.86 -1.21813 0.767961 0
M  V30 1167 H 114.813 -4.21037 -0.174814 0
M  V30 1168 H 113.537 -3.15749 -0.834877 0
M  V30 1169 H 112.196 -3.43549 1.27944 0
M  V30 1170 H 111.844 -4.98788 -0.649545 0
M  V30 1171 H 111.544 -5.806 0.904258 0
M  V30 1172 H 113.068 -6.10596 0.021396 0
M  V30 1173 H 114.482 -5.3144 2.15045 0
M  V30 1174 H 112.879 -5.23293 2.93743 0
M  V30 1175 H 113.949 -3.82023 2.98641 0
M  V30 1176 N 115.292 -0.849877 -1.32721 0
M  V30 1177 C 116.202 -0.293791 -2.32753 0
M  V30 1178 C 117.218 0.585906 -1.63839 0
M  V30 1179 O 118.394 0.487413 -1.95413 0
M  V30 1180 C 115.459 0.512752 -3.42887 0
M  V30 1181 C 114.52 -0.39252 -4.27502 0
M  V30 1182 C 113.753 0.375625 -5.32377 0
M  V30 1183 O 113.976 1.60613 -5.4732 0
M  V30 1184 O 112.91 -0.256094 -6.01355 0
M  V30 1185 H 116.736 -1.12242 -2.82197 0
M  V30 1186 H 114.321 -0.612685 -1.36259 0
M  V30 1187 H 116.203 0.970704 -4.10067 0
M  V30 1188 H 114.878 1.31826 -2.95641 0
M  V30 1189 H 113.785 -0.898547 -3.63149 0
M  V30 1190 H 115.118 -1.16309 -4.7826 0
M  V30 1191 N 116.77 1.45427 -0.607355 0
M  V30 1192 C 118.016 2.0254 -0.102607 0
M  V30 1193 C 118.349 1.47478 1.26348 0
M  V30 1194 O 117.624 0.64939 1.83339 0
M  V30 1195 C 117.907 3.60044 -0.0634347 0
M  V30 1196 C 117.76 4.2544 -1.46017 0
M  V30 1197 C 119.079 4.35646 0.624514 0
M  V30 1198 H 116.198 0.73598 -0.0387607 0
M  V30 1199 H 118.84 1.73284 -0.779282 0
M  V30 1200 H 116.99 3.85101 0.512808 0
M  V30 1201 H 118.662 4.11569 -2.08347 0
M  V30 1202 H 116.905 3.83849 -2.02094 0
M  V30 1203 H 117.576 5.34342 -1.385 0
M  V30 1204 H 120.052 4.15882 0.134723 0
M  V30 1205 H 118.928 5.45376 0.621028 0
M  V30 1206 H 119.189 4.08501 1.69055 0
M  V30 1207 N 118.248 0.346503 1.53744 0
M  V30 1208 C 119.478 -0.250047 2.05081 0
M  V30 1209 C 119.886 -1.44529 1.22098 0
M  V30 1210 O 119.229 -1.81992 0.249917 0
M  V30 1211 C 119.291 -0.725934 3.52094 0
M  V30 1212 C 118.955 0.350053 4.55657 0
M  V30 1213 C 119.952 1.19372 5.0601 0
M  V30 1214 C 117.637 0.504827 4.99757 0
M  V30 1215 C 119.631 2.17768 5.99046 0
M  V30 1216 C 117.318 1.49218 5.92602 0
M  V30 1217 C 118.316 2.32706 6.42135 0
M  V30 1218 O 118.004 3.2976 7.33153 0
M  V30 1219 H 117.736 -0.0515469 0.674032 0
M  V30 1220 H 120.29 0.497559 1.99282 0
M  V30 1221 H 118.52 -1.52483 3.55367 0
M  V30 1222 H 120.209 -1.24336 3.86388 0
M  V30 1223 H 120.975 1.08525 4.72702 0
M  V30 1224 H 116.854 -0.135178 4.60802 0
M  V30 1225 H 120.398 2.82971 6.37631 0
M  V30 1226 H 116.295 1.6012 6.25325 0
M  V30 1227 H 117.063 3.25265 7.51096 0
M  V30 1228 N 119.726 -1.57421 0.075193 0
M  V30 1229 C 120.659 -2.08528 -0.926904 0
M  V30 1230 C 121.637 -0.991171 -1.28898 0
M  V30 1231 O 122.821 -1.26479 -1.39769 0
M  V30 1232 C 119.948 -2.54576 -2.23402 0
M  V30 1233 C 118.994 -3.75454 -2.02327 0
M  V30 1234 S 119.827 -5.19989 -1.27951 0
M  V30 1235 C 120.983 -5.69372 -2.59935 0
M  V30 1236 H 121.216 -2.932 -0.492048 0
M  V30 1237 H 118.749 -1.53785 -0.137651 0
M  V30 1238 H 120.707 -2.81767 -2.98526 0
M  V30 1239 H 119.368 -1.70166 -2.64012 0
M  V30 1240 H 118.561 -4.05675 -2.99071 0
M  V30 1241 H 118.163 -3.48654 -1.35339 0
M  V30 1242 H 120.455 -5.76424 -3.56008 0
M  V30 1243 H 121.398 -6.68207 -2.34319 0
M  V30 1244 H 121.806 -4.97205 -2.67296 0
M  V30 1245 N 121.204 0.198386 -1.56346 0
M  V30 1246 C 122.452 0.91747 -1.80075 0
M  V30 1247 C 122.773 1.83929 -0.647692 0
M  V30 1248 O 122.043 1.93029 0.334166 0
M  V30 1249 H 120.623 0.341774 -0.664228 0
M  V30 1250 H 123.285 0.204684 -1.93822 0
M  V30 1251 H 122.381 1.51055 -2.7311 0
M  V30 1252 N 122.682 1.50554 0.465978 0
M  V30 1253 C 123.632 1.66177 1.56106 0
M  V30 1254 C 124.616 0.516265 1.52393 0
M  V30 1255 O 125.808 0.770906 1.5933 0
M  V30 1256 C 122.937 1.76396 2.94515 0
M  V30 1257 C 122.023 2.9664 3.03093 0
M  V30 1258 N 122.414 4.20245 2.81474 0
M  V30 1259 C 120.712 2.95304 3.34233 0
M  V30 1260 C 121.413 5.01259 2.95151 0
M  V30 1261 N 120.389 4.35318 3.25576 0
M  V30 1262 H 124.191 2.59434 1.38099 0
M  V30 1263 H 121.705 1.47808 0.6728 0
M  V30 1264 H 123.702 1.85694 3.73261 0
M  V30 1265 H 122.362 0.843017 3.13565 0
M  V30 1266 H 123.373 4.4966 2.56956 0
M  V30 1267 H 120.05 2.12729 3.59239 0
M  V30 1268 H 121.44 6.09564 2.82632 0
M  V30 1269 N 124.16 -0.719506 1.40217 0
M  V30 1270 C 125.39 -1.50646 1.41384 0
M  V30 1271 C 125.798 -1.89197 0.0107743 0
M  V30 1272 O 125.141 -1.55709 -0.974708 0
M  V30 1273 C 125.203 -2.81405 2.23722 0
M  V30 1274 C 124.867 -2.65199 3.72181 0
M  V30 1275 C 125.864 -2.32717 4.64907 0
M  V30 1276 C 123.549 -2.81586 4.1595 0
M  V30 1277 C 125.543 -2.16827 5.99387 0
M  V30 1278 C 123.23 -2.65313 5.50502 0
M  V30 1279 C 124.228 -2.32981 6.42035 0
M  V30 1280 O 123.916 -2.16827 7.74107 0
M  V30 1281 H 123.648 -0.471606 0.484318 0
M  V30 1282 H 126.202 -0.895456 1.84853 0
M  V30 1283 H 124.432 -3.44823 1.75026 0
M  V30 1284 H 126.121 -3.43102 2.16878 0
M  V30 1285 H 126.887 -2.19694 4.32388 0
M  V30 1286 H 122.766 -3.0574 3.45027 0
M  V30 1287 H 126.31 -1.91513 6.70797 0
M  V30 1288 H 122.207 -2.7792 5.82607 0
M  V30 1289 H 122.975 -2.31778 7.84998 0
M  V30 1290 N 125.638 -1.25649 -0.95132 0
M  V30 1291 C 126.571 -1.00644 -2.04807 0
M  V30 1292 C 127.549 0.0654271 -1.62468 0
M  V30 1293 O 128.733 -0.074911 -1.88351 0
M  V30 1294 C 125.86 -0.522052 -3.34653 0
M  V30 1295 C 124.906 -1.58495 -3.95957 0
M  V30 1296 S 125.739 -3.17108 -4.31512 0
M  V30 1297 C 126.895 -2.70412 -5.64471 0
M  V30 1298 H 127.128 -1.93508 -2.25703 0
M  V30 1299 H 124.661 -1.09216 -1.09139 0
M  V30 1300 H 126.619 -0.24923 -4.09743 0
M  V30 1301 H 125.28 0.386146 -3.11717 0
M  V30 1302 H 124.473 -1.1968 -4.89584 0
M  V30 1303 H 124.075 -1.80862 -3.2736 0
M  V30 1304 H 126.367 -2.14245 -6.42733 0
M  V30 1305 H 127.31 -3.62693 -6.08161 0
M  V30 1306 H 127.718 -2.10302 -5.23864 0
M  V30 1307 N 127.117 1.15442 -1.07289 0
M  V30 1308 C 128.533 1.38201 -0.798288 0
M  V30 1309 C 128.733 1.92429 0.597769 0
M  V30 1310 O 127.789 2.12962 1.3566 0
M  V30 1311 C 129.102 2.35357 -1.87156 0
M  V30 1312 C 130.65 2.49021 -1.89624 0
M  V30 1313 C 131.125 3.49468 -2.96034 0
M  V30 1314 N 132.616 3.57003 -2.95132 0
M  V30 1315 C 133.351 4.34543 -3.74112 0
M  V30 1316 N 132.847 5.15421 -4.6294 0
M  V30 1317 N 134.64 4.29625 -3.62462 0
M  V30 1318 H 126.791 0.78584 -1.97328 0
M  V30 1319 H 129.054 0.408065 -0.855679 0
M  V30 1320 H 128.76 2.02626 -2.87464 0
M  V30 1321 H 128.634 3.35129 -1.73114 0
M  V30 1322 H 131.021 2.81051 -0.899687 0
M  V30 1323 H 131.102 1.4925 -2.07745 0
M  V30 1324 H 130.746 3.18173 -3.95889 0
M  V30 1325 H 130.676 4.48992 -2.75161 0
M  V30 1326 H 133.167 2.99276 -2.30743 0
M  V30 1327 H 133.48 5.7183 -5.19837 0
M  V30 1328 H 131.825 5.14729 -4.66989 0
M  V30 1329 H 135.016 3.65505 -2.92444 0
M  V30 1330 H 135.189 4.89807 -4.24256 0
M  V30 1331 N 128.595 0.856903 1.32268 0
M  V30 1332 C 129.505 0.306131 2.32594 0
M  V30 1333 C 130.521 -0.577209 1.64147 0
M  V30 1334 O 131.697 -0.477043 1.95669 0
M  V30 1335 C 128.762 -0.494561 3.43154 0
M  V30 1336 C 127.823 0.415186 4.27288 0
M  V30 1337 C 127.056 -0.347387 5.32568 0
M  V30 1338 O 127.279 -1.57708 5.48165 0
M  V30 1339 O 126.213 0.287982 6.01211 0
M  V30 1340 H 130.039 1.13737 2.81598 0
M  V30 1341 H 127.624 0.619902 1.35932 0
M  V30 1342 H 129.506 -0.948944 4.10576 0
M  V30 1343 H 128.181 -1.30257 2.96336 0
M  V30 1344 H 127.088 0.917793 3.62667 0
M  V30 1345 H 128.421 1.18844 4.77637 0
M  V30 1346 N 130.073 -1.45103 0.615059 0
M  V30 1347 C 131.319 -2.03035 0.121804 0
M  V30 1348 C 131.674 -1.47393 -1.23665 0
M  V30 1349 O 130.967 -0.642061 -1.80522 0
M  V30 1350 C 131.161 -3.57386 0.0318797 0
M  V30 1351 C 130.99 -4.28 1.38007 0
M  V30 1352 C 129.76 -4.65624 1.9627 0
M  V30 1353 C 131.958 -4.5948 2.31047 0
M  V30 1354 N 129.94 -5.21132 3.24492 0
M  V30 1355 C 131.311 -5.159 3.43872 0
M  V30 1356 C 133.366 -4.41423 2.30326 0
M  V30 1357 C 132.069 -5.56165 4.5615 0
M  V30 1358 C 134.095 -4.82726 3.41658 0
M  V30 1359 C 133.457 -5.39245 4.53205 0
M  V30 1360 H 129.556 -0.77702 0.0881159 0
M  V30 1361 H 132.14 -1.76819 0.815044 0
M  V30 1362 H 130.311 -3.83247 -0.630599 0
M  V30 1363 H 132.043 -4.01976 -0.468721 0
M  V30 1364 H 128.798 -4.49421 1.49392 0
M  V30 1365 H 129.222 -5.53377 3.90004 0
M  V30 1366 H 133.864 -3.97033 1.45343 0
M  V30 1367 H 131.582 -5.99517 5.41854 0
M  V30 1368 H 135.168 -4.7048 3.42257 0
M  V30 1369 H 134.048 -5.70616 5.37929 0
M  V30 1370 N 131.551 -0.354651 -1.53558 0
M  V30 1371 C 132.481 0.489091 -2.2832 0
M  V30 1372 C 133.462 1.09324 -1.30316 0
M  V30 1373 O 134.647 1.11255 -1.59173 0
M  V30 1374 C 131.777 1.63456 -3.0643 0
M  V30 1375 C 130.731 1.1582 -4.12031 0
M  V30 1376 C 130.057 2.39305 -4.7816 0
M  V30 1377 C 131.357 0.250731 -5.21698 0
M  V30 1378 H 133.051 -0.134614 -2.99097 0
M  V30 1379 H 130.597 -0.0661826 -1.43848 0
M  V30 1380 H 132.55 2.23136 -3.57475 0
M  V30 1381 H 131.274 2.28533 -2.33325 0
M  V30 1382 H 129.933 0.584146 -3.61916 0
M  V30 1383 H 129.581 3.02814 -4.01637 0
M  V30 1384 H 129.281 2.08109 -5.49513 0
M  V30 1385 H 130.805 2.99691 -5.31994 0
M  V30 1386 H 132.219 0.754695 -5.68311 0
M  V30 1387 H 130.616 0.0301468 -6.00092 0
M  V30 1388 H 131.686 -0.710125 -4.79672 0
M  V30 1389 N 133.029 1.57378 -0.0835403 0
M  V30 1390 C 133.992 2.12252 0.864959 0
M  V30 1391 C 134.992 1.04916 1.21858 0
M  V30 1392 O 136.182 1.30853 1.14991 0
M  V30 1393 C 133.314 2.63358 2.16461 0
M  V30 1394 H 134.507 2.97371 0.388676 0
M  V30 1395 H 132.06 1.55423 0.165317 0
M  V30 1396 H 132.795 1.81727 2.686 0
M  V30 1397 H 132.58 3.41826 1.92087 0
M  V30 1398 H 134.07 3.05847 2.84337 0
M  V30 1399 N 134.507 -0.190092 1.56449 0
M  V30 1400 C 135.417 -1.25591 1.98152 0
M  V30 1401 C 136.433 -1.49519 0.889944 0
M  V30 1402 O 137.609 -1.62036 1.19609 0
M  V30 1403 C 134.674 -2.57916 2.3169 0
M  V30 1404 C 133.735 -2.42015 3.5458 0
M  V30 1405 C 132.968 -3.6803 3.8651 0
M  V30 1406 O 133.191 -4.72413 3.1966 0
M  V30 1407 O 132.125 -3.6326 4.79923 0
M  V30 1408 H 135.951 -0.931988 2.89046 0
M  V30 1409 H 133.536 -0.395488 1.4407 0
M  V30 1410 H 135.418 -3.36008 2.54316 0
M  V30 1411 H 134.093 -2.89925 1.43963 0
M  V30 1412 H 133 -1.62017 3.37196 0
M  V30 1413 H 134.333 -2.14937 4.4279 0
M  V30 1414 N 135.985 -1.50799 -0.457987 0
M  V30 1415 C 136.917 -1.66786 -1.57211 0
M  V30 1416 C 137.93 -0.548962 -1.53265 0
M  V30 1417 O 139.119 -0.8226 -1.58416 0
M  V30 1418 C 136.219 -1.64834 -2.96113 0
M  V30 1419 C 135.392 -2.92971 -3.24787 0
M  V30 1420 C 134.451 -2.83485 -4.43309 0
M  V30 1421 O 133.477 -3.5744 -4.42973 0
M  V30 1422 N 134.679 -1.97929 -5.45714 0
M  V30 1423 H 137.444 -2.62889 -1.43909 0
M  V30 1424 H 135.005 -1.48427 -0.646617 0
M  V30 1425 H 136.997 -1.56084 -3.7339 0
M  V30 1426 H 135.567 -0.764118 -3.03117 0
M  V30 1427 H 134.787 -3.15749 -2.36 0
M  V30 1428 H 136.075 -3.77834 -3.40762 0
M  V30 1429 H 135.473 -1.37182 -5.48815 0
M  V30 1430 H 134.03 -1.95073 -6.21924 0
M  V30 1431 N 137.463 0.71206 -1.40597 0
M  V30 1432 C 138.711 1.46907 -1.38791 0
M  V30 1433 C 139.032 1.94998 0.00780391 0
M  V30 1434 O 138.302 1.70587 0.963174 0
M  V30 1435 H 136.882 0.545043 -0.51082 0
M  V30 1436 H 139.544 0.843882 -1.75683 0
M  V30 1437 H 138.64 2.34021 -2.06496 0
M  V30 1438 N 138.941 1.26152 0.944643 0
M  V30 1439 C 139.874 1.01729 2.04271 0
M  V30 1440 C 140.852 -0.0568101 1.62501 0
M  V30 1441 O 142.036 0.0848987 1.88309 0
M  V30 1442 C 139.163 0.539792 3.34371 0
M  V30 1443 C 138.209 1.60593 3.9511 0
M  V30 1444 S 139.042 3.19392 4.29825 0
M  V30 1445 C 140.198 2.73402 5.63029 0
M  V30 1446 H 140.431 1.94703 2.24673 0
M  V30 1447 H 137.964 1.09793 1.08558 0
M  V30 1448 H 139.922 0.270956 4.09605 0
M  V30 1449 H 138.583 -0.369609 3.11918 0
M  V30 1450 H 137.776 1.22275 4.88943 0
M  V30 1451 H 137.378 1.82596 3.26397 0
M  V30 1452 H 139.67 2.1765 6.41588 0
M  V30 1453 H 140.613 3.65913 6.06229 0
M  V30 1454 H 141.021 2.13077 5.22741 0
M  V30 1455 N 140.419 -1.14872 1.07899 0
M  V30 1456 C 141.665 -1.86064 0.806725 0
M  V30 1457 C 141.998 -1.82434 -0.665706 0
M  V30 1458 O 141.273 -1.25138 -1.48899 0
M  V30 1459 C 141.556 -3.34929 1.32267 0
M  V30 1460 C 141.409 -3.47161 2.86006 0
M  V30 1461 C 142.728 -4.29863 0.943717 0
M  V30 1462 H 139.847 -0.675591 0.294526 0
M  V30 1463 H 142.489 -1.34925 1.33773 0
M  V30 1464 H 140.639 -3.78611 0.870974 0
M  V30 1465 H 142.311 -3.12302 3.39507 0
M  V30 1466 H 140.554 -2.88539 3.23925 0
M  V30 1467 H 141.225 -4.51777 3.17177 0
M  V30 1468 H 143.701 -3.9417 1.33302 0
M  V30 1469 H 142.577 -5.32494 1.33198 0
M  V30 1470 H 142.838 -4.41846 -0.149796 0
M  V30 1471 N 141.898 -0.863906 -1.31812 0
M  V30 1472 C 142.845 -0.313303 -2.28664 0
M  V30 1473 C 143.815 0.584868 -1.55462 0
M  V30 1474 O 145 0.517805 -1.83639 0
M  V30 1475 C 142.14 0.48441 -3.41683 0
M  V30 1476 C 141.253 -0.440594 -4.29747 0
M  V30 1477 C 140.388 0.370652 -5.29905 0
M  V30 1478 C 139.427 -0.551164 -6.09613 0
M  V30 1479 N 138.564 0.223462 -7.01744 0
M  V30 1480 H 143.404 -1.14444 -2.75148 0
M  V30 1481 H 140.941 -0.575769 -1.35364 0
M  V30 1482 H 142.899 0.962627 -4.05943 0
M  V30 1483 H 141.529 1.28029 -2.96325 0
M  V30 1484 H 140.581 -1.03724 -3.65986 0
M  V30 1485 H 141.893 -1.14767 -4.85417 0
M  V30 1486 H 141.047 0.911638 -5.99812 0
M  V30 1487 H 139.786 1.11105 -4.74876 0
M  V30 1488 H 138.791 -1.10396 -5.38603 0
M  V30 1489 H 140.016 -1.29032 -6.66729 0
M  V30 1490 H 137.962 0.946787 -6.49132 0
M  V30 1491 H 137.879 -0.424399 -7.54808 0
M  V30 1492 H 139.147 0.745876 -7.75923 0
M  V30 1493 N 143.376 1.44774 -0.622745 0
M  V30 1494 C 144.601 2.06999 -0.128968 0
M  V30 1495 C 145.026 1.4617 1.1839 0
M  V30 1496 O 144.384 0.560007 1.72434 0
M  V30 1497 C 144.432 3.60595 -0.0188351 0
M  V30 1498 O 143.536 3.99398 1.02739 0
M  V30 1499 H 142.877 0.659047 -0.0809544 0
M  V30 1500 H 145.407 1.85784 -0.85705 0
M  V30 1501 H 145.417 4.07627 0.174476 0
M  V30 1502 H 144.092 4.04252 -0.977384 0
M  V30 1503 H 142.669 3.64011 0.809326 0
M  V30 1504 N 144.854 0.36279 1.53368 0
M  V30 1505 C 146.102 -0.227326 2.00817 0
M  V30 1506 C 146.423 -1.49511 1.25186 0
M  V30 1507 O 145.693 -1.92482 0.364348 0
M  V30 1508 H 144.273 -0.0869923 0.741917 0
M  V30 1509 H 146.935 0.488381 1.88682 0
M  V30 1510 H 146.031 -0.456273 3.08747 0
M  V30 1511 N 146.332 -1.57332 0.0918853 0
M  V30 1512 C 147.242 -2.17368 -0.882505 0
M  V30 1513 C 148.258 -1.14226 -1.31257 0
M  V30 1514 O 149.434 -1.46582 -1.38115 0
M  V30 1515 C 146.499 -2.73962 -2.12476 0
M  V30 1516 C 145.56 -3.92048 -1.7492 0
M  V30 1517 C 144.793 -4.45933 -2.93223 0
M  V30 1518 O 145.016 -3.98764 -4.07852 0
M  V30 1519 O 143.95 -5.36999 -2.71875 0
M  V30 1520 H 147.776 -3.01031 -0.40172 0
M  V30 1521 H 145.361 -1.48813 -0.132291 0
M  V30 1522 H 147.243 -3.10147 -2.85283 0
M  V30 1523 H 145.918 -1.93347 -2.59613 0
M  V30 1524 H 144.825 -3.6068 -0.993025 0
M  V30 1525 H 146.158 -4.74017 -1.32548 0
M  V30 1526 N 147.81 0.181792 -1.56548 0
M  V30 1527 C 149.05 0.906711 -1.83189 0
M  V30 1528 C 149.414 1.79882 -0.671312 0
M  V30 1529 O 150.615 2.56054 -0.81792 0
M  V30 1530 C 148.886 1.69023 -3.14906 0
M  V30 1531 S 150.445 2.46535 -3.62996 0
M  V30 1532 H 147.263 0.303877 -0.642791 0
M  V30 1533 H 149.865 0.169107 -1.94767 0
M  V30 1534 H 148.569 1.02571 -3.97376 0
M  V30 1535 H 148.1 2.46941 -3.06241 0
M  V30 1536 H 150.115 3.71014 -3.29489 0
M  V30 1537 N 149.288 1.51039 0.449983 0
M  V30 1538 C 150.699 1.557 1.03026 0
M  V30 1539 C 151.05 0.372939 1.92623 0
M  V30 1540 O 150.175 -0.511771 2.10261 0
M  V30 1541 C 150.77 2.82171 1.87523 0
M  V30 1542 C 149.329 2.89444 2.40622 0
M  V30 1543 C 148.476 2.50228 1.19504 0
M  V30 1544 H 151.427 1.56999 0.231745 0
M  V30 1545 H 151.448 2.65219 2.72835 0
M  V30 1546 H 150.96 3.68331 1.22286 0
M  V30 1547 H 149.061 2.07685 3.0935 0
M  V30 1548 H 149.174 3.92816 2.74285 0
M  V30 1549 H 147.538 2.03139 1.53644 0
M  V30 1550 H 148.321 3.38719 0.558972 0
M  V30 1551 N 150.766 -0.704594 1.40972 0
M  V30 1552 C 152.177 -1.28418 1.3552 0
M  V30 1553 C 152.528 -1.96171 0.0339434 0
M  V30 1554 O 151.653 -1.98231 -0.867944 0
M  V30 1555 C 152.248 -2.33528 2.45459 0
M  V30 1556 C 150.807 -2.87085 2.43433 0
M  V30 1557 C 149.954 -1.61007 2.2577 0
M  V30 1558 H 152.905 -0.499963 1.50619 0
M  V30 1559 H 152.926 -3.14619 2.13998 0
M  V30 1560 H 152.438 -1.84187 3.41609 0
M  V30 1561 H 150.539 -3.40626 1.51013 0
M  V30 1562 H 150.652 -3.3813 3.39419 0
M  V30 1563 H 149.016 -1.86482 1.73483 0
M  V30 1564 H 149.799 -1.13675 3.23933 0
M  V30 1565 N 152.244 -1.26651 -0.937939 0
M  V30 1566 C 153.655 -1.1125 -1.49934 0
M  V30 1567 C 154.006 0.306077 -1.93798 0
M  V30 1568 O 153.131 1.19792 -1.80219 0
M  V30 1569 C 153.726 -2.01339 -2.72485 0
M  V30 1570 C 152.285 -1.90074 -3.24883 0
M  V30 1571 C 151.432 -1.94498 -1.97651 0
M  V30 1572 H 154.383 -1.39693 -0.753091 0
M  V30 1573 H 154.404 -1.56319 -3.46907 0
M  V30 1574 H 153.916 -3.04577 -2.40529 0
M  V30 1575 H 152.017 -0.897827 -3.61621 0
M  V30 1576 H 152.13 -2.75778 -3.9177 0
M  V30 1577 H 150.494 -1.38591 -2.13693 0
M  V30 1578 H 151.277 -2.99372 -1.68022 0
M  V30 1579 N 153.722 1.14298 -1.08507 0
M  V30 1580 C 154.952 1.88945 -0.835663 0
M  V30 1581 C 155.36 1.78894 0.615928 0
M  V30 1582 O 154.703 1.1468 1.43506 0
M  V30 1583 C 154.765 3.39585 -1.17994 0
M  V30 1584 C 154.429 3.7342 -2.63451 0
M  V30 1585 C 155.426 3.73454 -3.61702 0
M  V30 1586 C 153.111 4.03368 -2.99332 0
M  V30 1587 C 155.105 4.02961 -4.93864 0
M  V30 1588 C 152.792 4.32538 -4.31687 0
M  V30 1589 C 153.79 4.32318 -5.28763 0
M  V30 1590 O 153.478 4.6078 -6.58739 0
M  V30 1591 H 153.21 0.605307 -0.300965 0
M  V30 1592 H 155.764 1.45673 -1.44806 0
M  V30 1593 H 153.994 3.83315 -0.51055 0
M  V30 1594 H 155.683 3.9554 -0.911182 0
M  V30 1595 H 156.449 3.50403 -3.35325 0
M  V30 1596 H 152.328 4.02692 -2.24411 0
M  V30 1597 H 155.872 4.02704 -5.69627 0
M  V30 1598 H 151.769 4.55059 -4.57812 0
M  V30 1599 H 152.537 4.78492 -6.64069 0
M  V30 1600 N 155.201 0.870884 1.31352 0
M  V30 1601 C 156.429 0.49677 2.00848 0
M  V30 1602 C 156.844 -0.910998 1.65367 0
M  V30 1603 O 156.201 -1.59696 0.883374 0
M  V30 1604 C 156.252 0.645308 3.55694 0
M  V30 1605 O 155.973 1.99764 3.89905 0
M  V30 1606 C 157.474 0.272326 4.42463 0
M  V30 1607 H 154.694 0.193462 0.642506 0
M  V30 1608 H 157.238 1.1723 1.67563 0
M  V30 1609 H 155.393 0.0173176 3.87396 0
M  V30 1610 H 155.807 2.00607 4.84621 0
M  V30 1611 H 157.281 0.427208 5.50344 0
M  V30 1612 H 157.758 -0.788587 4.32062 0
M  V30 1613 H 158.364 0.876054 4.1618 0
M  V30 1614 N 156.679 -1.44442 0.630414 0
M  V30 1615 C 157.925 -2.02351 0.134816 0
M  V30 1616 C 158.258 -1.4947 -1.23986 0
M  V30 1617 O 157.533 -0.678475 -1.82283 0
M  V30 1618 C 157.816 -3.59898 0.120707 0
M  V30 1619 C 157.669 -4.23063 1.52767 0
M  V30 1620 C 158.988 -4.36585 -0.555127 0
M  V30 1621 H 156.107 -0.73527 0.0504646 0
M  V30 1622 H 158.749 -1.72022 0.806751 0
M  V30 1623 H 156.899 -3.85868 -0.451477 0
M  V30 1624 H 158.571 -4.08202 2.14869 0
M  V30 1625 H 156.814 -3.80586 2.08175 0
M  V30 1626 H 157.485 -5.32071 1.46984 0
M  V30 1627 H 159.961 -4.16044 -0.0685429 0
M  V30 1628 H 158.837 -5.46294 -0.534185 0
M  V30 1629 H 159.098 -4.11138 -1.62535 0
M  V30 1630 N 158.157 -0.370918 -1.53173 0
M  V30 1631 C 159.387 0.217389 -2.05453 0
M  V30 1632 C 159.795 1.42568 -1.24382 0
M  V30 1633 O 159.138 1.81571 -0.278839 0
M  V30 1634 C 159.2 0.669827 -3.53205 0
M  V30 1635 C 158.864 -0.4225 -4.55043 0
M  V30 1636 C 159.861 -1.27407 -5.04047 0
M  V30 1637 C 157.546 -0.58427 -4.9889 0
M  V30 1638 C 159.54 -2.27271 -5.95505 0
M  V30 1639 C 157.227 -1.58627 -5.90153 0
M  V30 1640 C 158.225 -2.42892 -6.38351 0
M  V30 1641 O 157.913 -3.41382 -7.27814 0
M  V30 1642 H 157.645 0.0408171 -0.674767 0
M  V30 1643 H 160.199 -0.5292 -1.98466 0
M  V30 1644 H 158.429 1.4681 -3.57748 0
M  V30 1645 H 160.118 1.18173 -3.88317 0
M  V30 1646 H 160.884 -1.16031 -4.70916 0
M  V30 1647 H 156.763 0.061851 -4.60959 0
M  V30 1648 H 160.307 -2.93079 -6.33049 0
M  V30 1649 H 156.204 -1.70048 -6.22699 0
M  V30 1650 H 156.972 -3.37173 -7.45826 0
M  V30 1651 N 159.635 1.57281 -0.100228 0
M  V30 1652 C 160.598 2.13158 0.842398 0
M  V30 1653 C 161.598 1.06202 1.20738 0
M  V30 1654 O 162.788 1.32066 1.13597 0
M  V30 1655 C 159.92 2.65639 2.13655 0
M  V30 1656 H 161.113 2.97766 0.357114 0
M  V30 1657 H 158.666 1.5559 0.148823 0
M  V30 1658 H 159.401 1.84566 2.66657 0
M  V30 1659 H 159.186 3.43844 1.88451 0
M  V30 1660 H 160.676 3.08846 2.81077 0
M  V30 1661 N 161.113 -0.173488 1.56642 0
M  V30 1662 C 162.343 -0.904781 1.85734 0
M  V30 1663 C 162.751 -1.76431 0.68328 0
M  V30 1664 O 162.094 -1.802 -0.356865 0
M  V30 1665 C 162.156 -1.83382 3.09211 0
M  V30 1666 C 161.82 -1.15411 4.42187 0
M  V30 1667 C 162.817 -0.520609 5.17287 0
M  V30 1668 C 160.502 -1.15151 4.88923 0
M  V30 1669 C 162.496 0.106412 6.37311 0
M  V30 1670 C 160.183 -0.520664 6.08878 0
M  V30 1671 C 161.181 0.107196 6.82916 0
M  V30 1672 O 160.869 0.728102 8.00596 0
M  V30 1673 H 160.601 -0.268408 0.62043 0
M  V30 1674 H 163.155 -0.179096 2.04618 0
M  V30 1675 H 161.385 -2.59976 2.86268 0
M  V30 1676 H 163.074 -2.43476 3.24768 0
M  V30 1677 H 163.84 -0.514606 4.82262 0
M  V30 1678 H 159.719 -1.62961 4.31236 0
M  V30 1679 H 163.263 0.597081 6.9504 0
M  V30 1680 H 159.16 -0.524242 6.43368 0
M  V30 1681 H 159.928 0.627138 8.16094 0
M  V30 1682 N 162.591 -1.51276 -0.441967 0
M  V30 1683 C 163.554 -1.7167 -1.51862 0
M  V30 1684 C 164.554 -0.586793 -1.49711 0
M  V30 1685 O 165.744 -0.854276 -1.51815 0
M  V30 1686 C 162.876 -1.76889 -2.91416 0
M  V30 1687 H 164.069 -2.67754 -1.35084 0
M  V30 1688 H 161.622 -1.41196 -0.670333 0
M  V30 1689 H 162.357 -0.826026 -3.13604 0
M  V30 1690 H 162.142 -2.59001 -2.94382 0
M  V30 1691 H 163.632 -1.94522 -3.69528 0
M  V30 1692 N 164.069 0.697108 -1.41344 0
M  V30 1693 C 165.017 1.83237 -1.43272 0
M  V30 1694 C 166.011 1.66522 -0.310947 0
M  V30 1695 O 167.217 1.73402 -0.482899 0
M  V30 1696 H 163.592 0.603802 -0.448249 0
M  V30 1697 H 165.563 1.78727 -2.38954 0
M  V30 1698 C 164.312 3.21245 -1.33029 0
M  V30 1699 H 163.635 3.34723 -2.18633 0
M  V30 1700 H 165.075 4.00763 -1.38439 0
M  V30 1701 C 163.534 3.36873 -0.0424635 0
M  V30 1702 O 164.064 3.91177 0.913421 0
M  V30 1703 N 162.27 2.90581 0.0331145 0
M  V30 1704 H 161.817 2.46577 -0.745506 0
M  V30 1705 H 161.775 3.01416 0.894199 0
M  V30 1706 N 165.547 1.27147 0.931209 0
M  V30 1707 C 166.772 1.16191 1.71797 0
M  V30 1708 C 167.197 -0.278004 1.86034 0
M  V30 1709 O 166.555 -1.20137 1.35782 0
M  V30 1710 C 166.603 1.84673 3.09723 0
M  V30 1711 O 165.707 1.14231 3.96264 0
M  V30 1712 H 165.048 0.404303 0.526721 0
M  V30 1713 H 167.578 1.68152 1.1656 0
M  V30 1714 H 167.588 1.91893 3.60057 0
M  V30 1715 H 166.263 2.89421 2.98677 0
M  V30 1716 H 164.84 1.15056 3.54706 0
M  V30 1717 N 167.025 -1.13721 1.09112 0
M  V30 1718 C 167.955 -2.21148 0.749385 0
M  V30 1719 C 168.936 -1.6792 -0.271475 0
M  V30 1720 O 170.121 -1.93693 -0.140251 0
M  V30 1721 C 167.251 -3.46905 0.165659 0
M  V30 1722 C 166.205 -4.13203 1.11567 0
M  V30 1723 C 165.531 -5.33248 0.393809 0
M  V30 1724 C 166.831 -4.60912 2.45678 0
M  V30 1725 H 168.525 -2.4999 1.64758 0
M  V30 1726 H 166.071 -1.20156 0.793626 0
M  V30 1727 H 168.024 -4.21313 -0.085466 0
M  V30 1728 H 166.748 -3.17449 -0.767714 0
M  V30 1729 H 165.407 -3.40758 1.35202 0
M  V30 1730 H 165.055 -5.00054 -0.543599 0
M  V30 1731 H 164.755 -5.78552 1.02721 0
M  V30 1732 H 166.279 -6.10413 0.150908 0
M  V30 1733 H 167.693 -5.26759 2.26269 0
M  V30 1734 H 166.09 -5.16944 3.04776 0
M  V30 1735 H 167.16 -3.75603 3.06677 0
M  V30 1736 N 168.503 -0.877838 -1.30888 0
M  V30 1737 C 169.435 -0.296607 -2.27273 0
M  V30 1738 C 170.448 0.544799 -1.53414 0
M  V30 1739 O 171.637 0.365511 -1.74718 0
M  V30 1740 C 168.737 0.597481 -3.33592 0
M  V30 1741 C 167.91 -0.213251 -4.3688 0
M  V30 1742 C 166.969 0.610208 -5.2265 0
M  V30 1743 O 165.995 0.035441 -5.69189 0
M  V30 1744 N 167.197 1.92071 -5.47804 0
M  V30 1745 H 169.962 -1.12492 -2.77787 0
M  V30 1746 H 167.523 -0.740105 -1.43993 0
M  V30 1747 H 169.515 1.15425 -3.87891 0
M  V30 1748 H 168.085 1.32647 -2.83061 0
M  V30 1749 H 167.305 -0.951466 -3.82545 0
M  V30 1750 H 168.593 -0.769262 -5.02951 0
M  V30 1751 H 167.991 2.4107 -5.11763 0
M  V30 1752 H 166.548 2.42508 -6.05007 0
M  V30 1753 N 169.982 1.44106 -0.638065 0
M  V30 1754 C 171.398 1.56672 -0.304286 0
M  V30 1755 C 171.598 1.6244 1.19228 0
M  V30 1756 O 170.654 1.57121 1.9766 0
M  V30 1757 C 171.967 2.83503 -1.00231 0
M  V30 1758 C 173.515 2.97226 -0.981116 0
M  V30 1759 C 173.99 4.26868 -1.65974 0
M  V30 1760 N 175.481 4.33698 -1.62666 0
M  V30 1761 C 176.216 5.32745 -2.12063 0
M  V30 1762 N 175.712 6.38157 -2.6968 0
M  V30 1763 N 177.505 5.24299 -2.02651 0
M  V30 1764 H 169.656 1.38605 -1.60942 0
M  V30 1765 H 171.919 0.664661 -0.675965 0
M  V30 1766 H 171.625 2.85251 -2.0573 0
M  V30 1767 H 171.499 3.73251 -0.54439 0
M  V30 1768 H 173.886 2.95027 0.0654188 0
M  V30 1769 H 173.967 2.08808 -1.47759 0
M  V30 1770 H 173.611 4.29826 -2.70576 0
M  V30 1771 H 173.541 5.14156 -1.13804 0
M  V30 1772 H 176.032 3.58138 -1.20606 0
M  V30 1773 H 176.345 7.10029 -3.05087 0
M  V30 1774 H 174.69 6.38823 -2.73734 0
M  V30 1775 H 177.881 4.4086 -1.57353 0
M  V30 1776 H 178.054 6.01334 -2.41457 0
M  V30 1777 N 171.46 0.379036 1.52974 0
M  V30 1778 C 172.688 -0.20679 2.05864 0
M  V30 1779 C 173.103 -1.41356 1.25155 0
M  V30 1780 O 172.46 -1.8009 0.295588 0
M  V30 1781 C 172.511 -0.587045 3.56702 0
M  V30 1782 O 172.232 0.571776 4.34353 0
M  V30 1783 C 173.733 -1.22983 4.25899 0
M  V30 1784 H 170.953 -0.0336123 0.670158 0
M  V30 1785 H 173.497 0.541298 1.97206 0
M  V30 1786 H 171.652 -1.28504 3.65466 0
M  V30 1787 H 172.066 0.261544 5.23847 0
M  V30 1788 H 173.54 -1.44635 5.32715 0
M  V30 1789 H 174.017 -2.19416 3.80465 0
M  V30 1790 H 174.623 -0.572892 4.21424 0
M  V30 1791 N 172.938 -1.57226 0.108567 0
M  V30 1792 C 174.184 -1.95121 -0.552761 0
M  V30 1793 C 174.517 -0.991345 -1.66991 0
M  V30 1794 O 173.792 -0.0267211 -1.94482 0
M  V30 1795 C 174.075 -3.43039 -1.09528 0
M  V30 1796 C 173.928 -4.49797 0.0177332 0
M  V30 1797 C 175.247 -3.92567 -1.98945 0
M  V30 1798 H 172.366 -0.709496 -0.199461 0
M  V30 1799 H 175.008 -1.89126 0.182011 0
M  V30 1800 H 173.158 -3.48279 -1.72146 0
M  V30 1801 H 174.83 -4.56661 0.652584 0
M  V30 1802 H 173.073 -4.284 0.682309 0
M  V30 1803 H 173.744 -5.50528 -0.402919 0
M  V30 1804 H 176.22 -3.89565 -1.46214 0
M  V30 1805 H 175.096 -4.96605 -2.33827 0
M  V30 1806 H 175.357 -3.32648 -2.91201 0
M  V30 1807 N 174.416 0.165178 -1.56732 0
M  V30 1808 C 175.379 1.18822 -1.95995 0
M  V30 1809 C 176.379 1.3685 -0.84431 0
M  V30 1810 O 177.569 1.34152 -1.11126 0
M  V30 1811 C 174.701 2.5521 -2.26011 0
M  V30 1812 H 175.894 0.851825 -2.87548 0
M  V30 1813 H 173.447 0.407857 -1.50885 0
M  V30 1814 H 174.182 2.93852 -1.37191 0
M  V30 1815 H 173.967 2.43489 -3.07336 0
M  V30 1816 H 175.457 3.28927 -2.57288 0
M  V30 1817 N 175.894 1.51508 0.433938 0
M  V30 1818 C 177.122 1.68157 1.20543 0
M  V30 1819 C 177.537 0.380362 1.84929 0
M  V30 1820 O 176.894 -0.641446 1.70856 0
M  V30 1821 C 176.945 2.79965 2.28696 0
M  V30 1822 O 176.666 4.05045 1.66943 0
M  V30 1823 C 178.167 3.07912 3.18912 0
M  V30 1824 H 175.387 0.56421 0.363191 0
M  V30 1825 H 177.931 1.97941 0.513754 0
M  V30 1826 H 176.086 2.5277 2.93574 0
M  V30 1827 H 176.5 4.67165 2.38448 0
M  V30 1828 H 177.974 3.89719 3.90926 0
M  V30 1829 H 178.451 2.20456 3.79863 0
M  V30 1830 H 179.057 3.36779 2.59731 0
M  V30 1831 N 177.372 -0.689602 1.41712 0
M  V30 1832 C 178.335 -1.78521 1.43746 0
M  V30 1833 C 179.335 -1.57436 0.327191 0
M  V30 1834 O 180.525 -1.64 0.587348 0
M  V30 1835 C 177.657 -3.16971 1.25467 0
M  V30 1836 H 178.85 -1.78108 2.41283 0
M  V30 1837 H 176.403 -0.89781 1.27942 0
M  V30 1838 H 177.138 -3.23019 0.287948 0
M  V30 1839 H 176.923 -3.33678 2.05917 0
M  V30 1840 H 178.413 -3.96935 1.2974 0
M  V30 1841 N 178.85 -1.27639 -0.924453 0
M  V30 1842 C 179.782 -1.06442 -2.02985 0
M  V30 1843 C 180.795 -0.0194771 -1.62788 0
M  V30 1844 O 181.984 -0.261388 -1.76576 0
M  V30 1845 C 179.084 -0.59327 -3.33667 0
M  V30 1846 C 178.257 -1.71123 -4.02537 0
M  V30 1847 C 177.316 -1.23527 -5.11495 0
M  V30 1848 O 176.342 -1.93553 -5.35281 0
M  V30 1849 N 177.544 -0.0926678 -5.80426 0
M  V30 1850 H 180.309 -2.01633 -2.2173 0
M  V30 1851 H 177.87 -1.19248 -1.09505 0
M  V30 1852 H 179.862 -0.258686 -4.03872 0
M  V30 1853 H 178.432 0.265502 -3.1147 0
M  V30 1854 H 177.652 -2.21593 -3.26022 0
M  V30 1855 H 178.94 -2.46145 -4.45298 0
M  V30 1856 H 178.338 0.491741 -5.63559 0
M  V30 1857 H 176.895 0.182714 -6.51544 0
M  V30 1858 N 180.328 1.1314 -1.09713 0
M  V30 1859 C 181.575 1.84484 -0.834987 0
M  V30 1860 C 181.903 1.83689 0.639418 0
M  V30 1861 O 181.158 1.2724 1.4869 0
M  V30 1862 C 181.457 3.32167 -1.3191 0
M  V30 1863 C 181.123 3.53139 -2.80363 0
M  V30 1864 C 179.785 3.58571 -3.20905 0
M  V30 1865 C 182.137 3.60866 -3.76065 0
M  V30 1866 C 179.465 3.69267 -4.55916 0
M  V30 1867 C 181.817 3.73089 -5.10869 0
M  V30 1868 C 180.481 3.76775 -5.50996 0
M  V30 1869 H 179.751 0.675073 -0.305544 0
M  V30 1870 H 182.398 1.33554 -1.37243 0
M  V30 1871 H 180.703 3.85469 -0.701517 0
M  V30 1872 H 182.4 3.85821 -1.09284 0
M  V30 1873 H 178.99 3.49569 -2.47991 0
M  V30 1874 H 183.174 3.55946 -3.45855 0
M  V30 1875 H 178.43 3.70388 -4.86438 0
M  V30 1876 H 182.604 3.78011 -5.84877 0
M  V30 1877 H 180.231 3.84815 -6.55608 0
M  V30 1878 N 181.806 0.884767 1.30421 0
M  V30 1879 C 183.053 0.503105 1.96151 0
M  V30 1880 C 183.381 -0.947676 1.69851 0
M  V30 1881 O 182.636 -1.68467 0.995861 0
M  V30 1882 C 182.935 0.724318 3.49983 0
M  V30 1883 C 182.601 2.15015 3.96332 0
M  V30 1884 C 181.263 2.54005 4.08699 0
M  V30 1885 C 183.615 3.07936 4.20505 0
M  V30 1886 C 180.943 3.85128 4.42599 0
M  V30 1887 C 183.295 4.3859 4.55874 0
M  V30 1888 C 181.959 4.77474 4.66449 0
M  V30 1889 H 181.229 0.184099 0.717766 0
M  V30 1890 H 183.876 1.12058 1.55291 0
M  V30 1891 H 182.181 0.0238086 3.91793 0
M  V30 1892 H 183.878 0.408617 3.98913 0
M  V30 1893 H 180.468 1.8375 3.87213 0
M  V30 1894 H 184.652 2.79033 4.10431 0
M  V30 1895 H 179.908 4.14996 4.48986 0
M  V30 1896 H 184.082 5.10629 4.7353 0
M  V30 1897 H 181.709 5.79115 4.92473 0
M  V30 1898 N 183.284 -1.43765 0.645699 0
M  V30 1899 C 184.533 -2.01116 0.153412 0
M  V30 1900 C 184.846 -1.51493 -1.23731 0
M  V30 1901 O 186.052 -2.01067 -1.8244 0
M  V30 1902 C 184.508 -3.59206 0.223473 0
M  V30 1903 C 184.116 -4.17823 1.61642 0
M  V30 1904 C 185.86 -4.23972 -0.211597 0
M  V30 1905 C 183.767 -5.68183 1.64081 0
M  V30 1906 H 182.697 -0.752093 0.0535891 0
M  V30 1907 H 185.348 -1.6482 0.806633 0
M  V30 1908 H 183.73 -3.92867 -0.497118 0
M  V30 1909 H 184.904 -3.95674 2.36176 0
M  V30 1910 H 183.219 -3.65399 1.99681 0
M  V30 1911 H 185.816 -5.34275 -0.213112 0
M  V30 1912 H 186.159 -3.97352 -1.24165 0
M  V30 1913 H 186.692 -3.95166 0.456988 0
M  V30 1914 H 183.431 -5.99559 2.64971 0
M  V30 1915 H 182.951 -5.9241 0.938611 0
M  V30 1916 H 184.63 -6.32085 1.3812 0
M  V30 1917 N 184.763 -0.387143 -1.52771 0
M  V30 1918 C 185.991 0.195869 -2.05971 0
M  V30 1919 C 186.406 1.40691 -1.25903 0
M  V30 1920 O 185.763 1.79931 -0.305134 0
M  V30 1921 C 185.814 0.56812 -3.57008 0
M  V30 1922 O 185.535 -0.594803 -4.34043 0
M  V30 1923 C 187.036 1.20723 -4.26545 0
M  V30 1924 H 184.256 0.0300578 -0.670326 0
M  V30 1925 H 186.8 -0.551749 -1.96916 0
M  V30 1926 H 184.955 1.26564 -3.66143 0
M  V30 1927 H 185.369 -0.289322 -5.23701 0
M  V30 1928 H 186.843 1.41807 -5.33474 0
M  V30 1929 H 187.32 2.17395 -3.81623 0
M  V30 1930 H 187.926 0.550535 -4.21722 0
M  V30 1931 N 186.241 1.57166 -0.116904 0
M  V30 1932 C 187.489 1.94737 0.540533 0
M  V30 1933 C 187.81 1.00096 1.67349 0
M  V30 1934 O 187.08 0.0568854 1.95817 0
M  V30 1935 H 185.66 0.718981 0.202669 0
M  V30 1936 H 188.322 1.94017 -0.185353 0
M  V30 1937 H 187.418 2.97719 0.936483 0
M  V30 1938 N 187.719 -0.156864 1.56817 0
M  V30 1939 C 188.682 -1.17781 1.96622 0
M  V30 1940 C 189.682 -1.36401 0.851555 0
M  V30 1941 O 190.872 -1.33561 1.11836 0
M  V30 1942 C 188.004 -2.54008 2.27361 0
M  V30 1943 H 189.197 -0.836564 2.87996 0
M  V30 1944 H 186.75 -0.39985 1.51099 0
M  V30 1945 H 187.485 -2.9312 1.38748 0
M  V30 1946 H 187.27 -2.41856 3.08623 0
M  V30 1947 H 188.76 -3.27558 2.59029 0
M  V30 1948 N 189.197 -1.51736 -0.425897 0
M  V30 1949 C 190.444 -1.6497 -1.17436 0
M  V30 1950 C 190.772 -0.371445 -1.9092 0
M  V30 1951 O 190.027 0.644963 -1.84767 0
M  V30 1952 C 190.326 -2.81103 -2.20717 0
M  V30 1953 C 189.992 -4.19954 -1.64162 0
M  V30 1954 C 188.654 -4.57725 -1.48462 0
M  V30 1955 C 191.006 -5.06552 -1.22696 0
M  V30 1956 C 188.334 -5.79789 -0.897873 0
M  V30 1957 C 190.686 -6.29205 -0.654464 0
M  V30 1958 C 189.35 -6.6574 -0.484456 0
M  V30 1959 H 188.62 -0.603668 -0.429727 0
M  V30 1960 H 191.267 -1.85798 -0.463829 0
M  V30 1961 H 189.572 -2.54542 -2.97852 0
M  V30 1962 H 191.269 -2.8854 -2.78471 0
M  V30 1963 H 187.859 -3.90181 -1.77361 0
M  V30 1964 H 192.043 -4.77968 -1.33642 0
M  V30 1965 H 187.299 -6.06733 -0.75402 0
M  V30 1966 H 191.473 -6.95643 -0.324694 0
M  V30 1967 H 189.1 -7.60195 -0.0276833 0
M  V30 1968 N 190.675 0.682077 -1.42076 0
M  V30 1969 C 192.086 1.26246 -1.37546 0
M  V30 1970 C 192.437 1.96092 -0.0651481 0
M  V30 1971 O 191.562 1.99587 0.836297 0
M  V30 1972 C 192.157 2.29594 -2.49143 0
M  V30 1973 C 190.716 2.83175 -2.47969 0
M  V30 1974 C 189.863 1.57395 -2.28303 0
M  V30 1975 H 192.814 0.475937 -1.51395 0
M  V30 1976 H 192.835 3.11175 -2.18976 0
M  V30 1977 H 192.347 1.78729 -3.44496 0
M  V30 1978 H 190.448 3.3818 -1.56413 0
M  V30 1979 H 190.561 3.32687 -3.44755 0
M  V30 1980 H 188.925 1.83699 -1.76428 0
M  V30 1981 H 189.708 1.08507 -3.25701 0
M  V30 1982 N 192.153 1.28127 0.917671 0
M  V30 1983 C 193.401 1.14825 1.66312 0
M  V30 1984 C 193.722 -0.304379 1.9261 0
M  V30 1985 O 192.992 -1.21149 1.53947 0
M  V30 1986 H 191.572 0.421953 0.616413 0
M  V30 1987 H 194.234 1.608 1.10134 0
M  V30 1988 H 193.33 1.68489 2.62712 0
M  V30 1989 N 193.631 -1.12557 1.10312 0
M  V30 1990 C 194.871 -1.8568 0.854543 0
M  V30 1991 C 195.235 -1.82091 -0.608843 0
M  V30 1992 O 196.436 -2.50544 -0.973717 0
M  V30 1993 C 194.707 -3.2942 1.38626 0
M  V30 1994 S 196.266 -4.19931 1.27293 0
M  V30 1995 H 193.084 -0.640427 0.308827 0
M  V30 1996 H 195.686 -1.35599 1.40831 0
M  V30 1997 H 194.39 -3.2959 2.44537 0
M  V30 1998 H 193.921 -3.84566 0.82902 0
M  V30 1999 H 195.936 -4.95668 0.229776 0
M  V30 2000 N 195.109 -0.891671 -1.2995 0
M  V30 2001 C 196.386 -0.433307 -1.9074 0
M  V30 2002 C 196.766 1.08646 -1.80995 0
M  V30 2003 O 196.114 1.92476 -1.23147 0
M  V30 2004 C 196.324 -0.938895 -3.36134 0
M  V30 2005 C 197.672 -0.977829 -4.13187 0
M  V30 2006 O 198.696 -0.886015 -3.45005 0
M  V30 2007 O 197.555 -1.11453 -5.35015 0
M  V30 2008 H 194.649 -0.133699 -0.816121 0
M  V30 2009 H 197.195 -0.981011 -1.38471 0
M  V30 2010 H 195.967 -1.98281 -3.37343 0
M  V30 2011 H 195.59 -0.37074 -3.95868 0
M  V30 2012 N 196.587 1.43421 -0.653314 0
M  V30 2013 C 197.836 2.01032 -0.164076 0
M  V30 2014 C 198.149 1.52147 1.22926 0
M  V30 2015 O 199.355 2.02031 1.81371 0
M  V30 2016 C 197.811 3.59082 -0.24252 0
M  V30 2017 C 197.419 4.1696 -1.63855 0
M  V30 2018 C 199.163 4.24079 0.18911 0
M  V30 2019 C 197.07 5.67304 -1.67092 0
M  V30 2020 H 196 0.751798 -0.0575769 0
M  V30 2021 H 198.651 1.6439 -0.815362 0
M  V30 2022 H 197.033 3.93125 0.476276 0
M  V30 2023 H 198.207 3.94416 -2.38271 0
M  V30 2024 H 196.522 3.64335 -2.01616 0
M  V30 2025 H 199.119 5.34381 0.184775 0
M  V30 2026 H 199.462 3.98005 1.22056 0
M  V30 2027 H 199.995 3.94918 -0.477938 0
M  V30 2028 H 196.734 5.98145 -2.68146 0
M  V30 2029 H 196.254 5.91904 -0.970014 0
M  V30 2030 H 197.933 6.31344 -1.4147 0
M  V30 2031 N 198.065 0.39524 1.52563 0
M  V30 2032 C 199.476 -0.0774719 1.86539 0
M  V30 2033 C 199.827 -1.45641 1.31466 0
M  V30 2034 O 198.952 -2.06459 0.648367 0
M  V30 2035 C 199.547 -0.147356 3.38479 0
M  V30 2036 C 198.106 -0.564373 3.72145 0
M  V30 2037 C 197.253 0.269919 2.75983 0
M  V30 2038 H 200.204 0.612876 1.46388 0
M  V30 2039 H 200.225 -0.965343 3.68051 0
M  V30 2040 H 199.737 0.856387 3.78534 0
M  V30 2041 H 197.838 -1.57527 3.37663 0
M  V30 2042 H 197.951 -0.318402 4.78041 0
M  V30 2043 H 196.315 -0.265696 2.5331 0
M  V30 2044 H 197.098 1.27175 3.18875 0
M  V30 2045 N 199.544 -1.57102 0.125237 0
M  V30 2046 C 200.79 -1.95697 -0.532035 0
M  V30 2047 C 201.123 -1.009 -1.6593 0
M  V30 2048 O 200.398 -0.047347 -1.94442 0
M  V30 2049 C 200.681 -3.44181 -1.05884 0
M  V30 2050 C 200.534 -4.49752 0.0654392 0
M  V30 2051 C 201.853 -3.94655 -1.9477 0
M  V30 2052 H 198.972 -0.711571 -0.191925 0
M  V30 2053 H 201.614 -1.88923 0.20206 0
M  V30 2054 H 199.764 -3.50085 -1.68442 0
M  V30 2055 H 201.436 -4.55943 0.700982 0
M  V30 2056 H 199.679 -4.27653 0.727709 0
M  V30 2057 H 200.35 -5.50924 -0.344505 0
M  V30 2058 H 202.826 -3.91094 -1.42074 0
M  V30 2059 H 201.702 -4.99057 -2.28546 0
M  V30 2060 H 201.963 -3.35718 -2.87656 0
M  V30 2061 N 201.022 0.148545 -1.56898 0
M  V30 2062 C 201.972 1.1886 -1.94567 0
M  V30 2063 C 202.956 1.3863 -0.816735 0
M  V30 2064 O 204.148 1.40218 -1.08018 0
M  V30 2065 C 201.277 2.52262 -2.32849 0
M  V30 2066 C 200.363 2.36092 -3.52309 0
M  V30 2067 N 200.754 1.89674 -4.6889 0
M  V30 2068 C 199.052 2.66848 -3.57363 0
M  V30 2069 C 199.753 1.86511 -5.50989 0
M  V30 2070 N 198.729 2.29766 -4.92655 0
M  V30 2071 H 202.531 0.821793 -2.82177 0
M  V30 2072 H 200.045 0.356615 -1.58436 0
M  V30 2073 H 202.042 3.27447 -2.58039 0
M  V30 2074 H 200.702 2.89727 -1.46589 0
M  V30 2075 H 201.713 1.59663 -4.92674 0
M  V30 2076 H 198.39 3.08198 -2.81639 0
M  V30 2077 H 199.78 1.52128 -6.54452 0
M  V30 2078 N 202.5 1.5196 0.417844 0
M  V30 2079 C 203.45 1.7106 1.5074 0
M  V30 2080 C 204.434 0.564487 1.50673 0
M  V30 2081 O 205.626 0.821206 1.56797 0
M  V30 2082 C 202.755 1.85677 2.88754 0
M  V30 2083 C 201.841 3.06133 2.93502 0
M  V30 2084 N 202.232 4.28987 2.67962 0
M  V30 2085 C 200.53 3.05787 3.24669 0
M  V30 2086 C 201.231 5.10395 2.79055 0
M  V30 2087 N 200.207 4.45455 3.11561 0
M  V30 2088 H 204.009 2.63696 1.29775 0
M  V30 2089 H 201.523 1.49873 0.625436 0
M  V30 2090 H 203.52 1.97475 3.67164 0
M  V30 2091 H 202.18 0.942348 3.10725 0
M  V30 2092 H 203.191 4.57607 2.4252 0
M  V30 2093 H 199.868 2.2405 3.52289 0
M  V30 2094 H 201.258 6.18247 2.63097 0
M  V30 2095 N 203.978 -0.674533 1.42435 0
M  V30 2096 C 204.91 -1.80005 1.41883 0
M  V30 2097 C 205.923 -1.59667 0.31787 0
M  V30 2098 O 207.112 -1.68781 0.580973 0
M  V30 2099 C 204.212 -3.17114 1.19549 0
M  V30 2100 C 203.385 -3.64299 2.42084 0
M  V30 2101 C 202.444 -4.80142 2.15291 0
M  V30 2102 O 201.47 -4.90673 2.88493 0
M  V30 2103 N 202.672 -5.68869 1.1562 0
M  V30 2104 H 205.437 -1.80964 2.38898 0
M  V30 2105 H 202.998 -0.857633 1.37318 0
M  V30 2106 H 204.99 -3.92267 0.995417 0
M  V30 2107 H 203.56 -3.11053 0.310569 0
M  V30 2108 H 202.78 -2.79822 2.77657 0
M  V30 2109 H 204.068 -3.92567 3.23679 0
M  V30 2110 H 203.466 -5.63012 0.550765 0
M  V30 2111 H 202.023 -6.43833 1.016 0
M  V30 2112 N 205.456 -1.28612 -0.910864 0
M  V30 2113 C 206.366 -1.14643 -2.0468 0
M  V30 2114 C 207.382 -0.0723121 -1.7385 0
M  V30 2115 O 208.558 -0.282178 -1.99413 0
M  V30 2116 C 205.623 -0.812561 -3.37044 0
M  V30 2117 C 204.684 -1.96935 -3.81465 0
M  V30 2118 C 203.917 -1.65131 -5.07511 0
M  V30 2119 O 204.14 -0.567013 -5.67575 0
M  V30 2120 O 203.074 -2.49585 -5.47714 0
M  V30 2121 H 206.9 -2.1001 -2.19384 0
M  V30 2122 H 204.485 -1.07958 -1.03274 0
M  V30 2123 H 206.367 -0.640441 -4.16505 0
M  V30 2124 H 205.042 0.111426 -3.23508 0
M  V30 2125 H 203.949 -2.19664 -3.02818 0
M  V30 2126 H 205.282 -2.87414 -3.99567 0
M  V30 2127 N 206.934 1.1197 -1.10907 0
M  V30 2128 C 207.881 2.17846 -0.762345 0
M  V30 2129 C 208.851 1.63995 0.263599 0
M  V30 2130 O 210.036 1.90273 0.141773 0
M  V30 2131 C 207.176 3.44487 -0.205651 0
M  V30 2132 C 206.289 4.12369 -1.28748 0
M  V30 2133 C 205.424 5.26674 -0.691919 0
M  V30 2134 C 204.463 5.86431 -1.75399 0
M  V30 2135 N 203.6 6.92142 -1.17833 0
M  V30 2136 H 208.44 2.46851 -1.6694 0
M  V30 2137 H 205.977 1.21188 -0.833776 0
M  V30 2138 H 207.935 4.16981 0.135037 0
M  V30 2139 H 206.565 3.15884 0.664613 0
M  V30 2140 H 205.617 3.38003 -1.74522 0
M  V30 2141 H 206.929 4.52844 -2.09125 0
M  V30 2142 H 206.083 6.05953 -0.300963 0
M  V30 2143 H 204.822 4.8749 0.143232 0
M  V30 2144 H 203.827 5.05835 -2.15432 0
M  V30 2145 H 205.052 6.27685 -2.59208 0
M  V30 2146 H 202.998 6.54985 -0.364725 0
M  V30 2147 H 202.915 7.31242 -1.91887 0
M  V30 2148 H 204.183 7.75237 -0.81408 0
M  V30 2149 N 208.412 0.89855 1.29475 0
M  V30 2150 C 209.345 0.319981 2.25945 0
M  V30 2151 C 210.323 -0.567189 1.52387 0
M  V30 2152 O 211.507 -0.514254 1.8135 0
M  V30 2153 C 208.634 -0.544013 3.34303 0
M  V30 2154 C 207.68 0.275682 4.25608 0
M  V30 2155 S 208.513 1.67272 5.08704 0
M  V30 2156 C 209.669 0.815621 6.20563 0
M  V30 2157 H 209.902 1.13767 2.74671 0
M  V30 2158 H 207.435 0.69882 1.3768 0
M  V30 2159 H 209.393 -1.03673 3.97193 0
M  V30 2160 H 208.054 -1.33593 2.84274 0
M  V30 2161 H 207.247 -0.384263 5.02533 0
M  V30 2162 H 206.849 0.701496 3.67362 0
M  V30 2163 H 209.141 0.0385042 6.77489 0
M  V30 2164 H 210.084 1.55691 6.90772 0
M  V30 2165 H 210.492 0.370516 5.63283 0
M  V30 2166 N 209.89 -1.43072 0.660911 0
M  V30 2167 C 211.138 -2.01323 0.177094 0
M  V30 2168 C 211.459 -1.5245 -1.2159 0
M  V30 2169 O 210.729 -0.740322 -1.81373 0
M  V30 2170 H 209.309 -0.744382 0.0624804 0
M  V30 2171 H 211.971 -1.75179 0.854305 0
M  V30 2172 H 211.067 -3.11649 0.167641 0
M  V30 2173 N 211.368 -0.403325 -1.52352 0
M  V30 2174 C 212.596 0.174012 -2.06167 0
M  V30 2175 C 213.011 1.39347 -1.27388 0
M  V30 2176 O 212.368 1.79597 -0.324201 0
M  V30 2177 C 212.419 0.530223 -3.5759 0
M  V30 2178 O 212.14 -0.640806 -4.33388 0
M  V30 2179 C 213.641 1.16192 -4.27802 0
M  V30 2180 H 210.861 0.0229464 -0.670608 0
M  V30 2181 H 213.405 -0.572604 -1.9632 0
M  V30 2182 H 211.56 1.22673 -3.67464 0
M  V30 2183 H 211.974 -0.344851 -5.23365 0
M  V30 2184 H 213.448 1.36141 -5.34948 0
M  V30 2185 H 213.925 2.13335 -3.83907 0
M  V30 2186 H 214.531 0.505775 -4.22282 0
M  V30 2187 N 212.846 1.57033 -0.133567 0
M  V30 2188 C 213.779 2.11824 0.848872 0
M  V30 2189 C 214.757 1.03833 1.2513 0
M  V30 2190 O 215.941 1.31579 1.34978 0
M  V30 2191 C 213.068 2.62692 2.138 0
M  V30 2192 C 212.114 3.82705 1.88253 0
M  V30 2193 S 212.947 5.2438 1.08563 0
M  V30 2194 C 214.103 5.78627 2.38624 0
M  V30 2195 H 214.336 2.94824 0.38289 0
M  V30 2196 H 211.869 1.5419 0.0804796 0
M  V30 2197 H 213.827 2.92652 2.87863 0
M  V30 2198 H 212.488 1.79847 2.57515 0
M  V30 2199 H 211.681 4.16496 2.83809 0
M  V30 2200 H 211.283 3.53437 1.22305 0
M  V30 2201 H 213.575 5.8924 3.34369 0
M  V30 2202 H 214.518 6.76443 2.09358 0
M  V30 2203 H 214.926 5.06783 2.48658 0
M  V30 2204 N 214.325 -0.140222 1.56975 0
M  V30 2205 C 215.602 -0.880769 1.74648 0
M  V30 2206 C 215.982 -1.99036 0.703404 0
M  V30 2207 O 215.33 -2.26821 -0.27648 0
M  V30 2208 C 215.54 -1.417 3.18939 0
M  V30 2209 C 216.888 -1.87774 3.80823 0
M  V30 2210 O 217.912 -1.51427 3.2241 0
M  V30 2211 O 216.771 -2.54827 4.83452 0
M  V30 2212 H 213.865 -0.416713 0.714338 0
M  V30 2213 H 216.411 -0.125618 1.69234 0
M  V30 2214 H 215.183 -0.619902 3.86359 0
M  V30 2215 H 214.806 -2.23546 3.28805 0
M  V30 2216 N 215.803 -1.52179 -0.40978 0
M  V30 2217 C 217.214 -1.58377 -0.988615 0
M  V30 2218 C 217.565 -0.423879 -1.91566 0
M  V30 2219 O 216.69 0.455844 -2.11544 0
M  V30 2220 C 217.285 -2.87044 -1.79976 0
M  V30 2221 C 215.844 -2.95722 -2.32863 0
M  V30 2222 C 214.991 -2.53309 -1.12828 0
M  V30 2223 H 217.942 -1.57558 -0.190039 0
M  V30 2224 H 217.963 -2.7236 -2.65707 0
M  V30 2225 H 217.475 -3.71444 -1.12478 0
M  V30 2226 H 215.576 -2.15814 -3.03735 0
M  V30 2227 H 215.689 -3.99951 -2.63773 0
M  V30 2228 H 214.053 -2.07142 -1.48204 0
M  V30 2229 H 214.836 -3.40082 -0.46897 0
M  V30 2230 N 217.281 0.66697 -1.42791 0
M  V30 2231 C 218.509 1.45505 -1.47091 0
M  V30 2232 C 218.924 1.8861 -0.0845873 0
M  V30 2233 O 218.281 1.58632 0.90234 0
M  V30 2234 C 218.332 2.69906 -2.40485 0
M  V30 2235 O 218.053 2.28608 -3.73725 0
M  V30 2236 C 219.554 3.63396 -2.53886 0
M  V30 2237 H 216.774 0.447459 -0.500022 0
M  V30 2238 H 219.318 0.818866 -1.8739 0
M  V30 2239 H 217.473 3.29696 -2.03419 0
M  V30 2240 H 217.887 3.08997 -4.23817 0
M  V30 2241 H 219.361 4.47387 -3.2334 0
M  V30 2242 H 219.838 4.09824 -1.57927 0
M  V30 2243 H 220.444 3.09495 -2.91706 0
M  V30 2244 N 218.759 1.29093 0.90403 0
M  V30 2245 C 220.006 1.16813 1.65411 0
M  V30 2246 C 220.334 -0.28128 1.92455 0
M  V30 2247 O 219.589 -1.22006 1.53013 0
M  V30 2248 C 219.888 1.92224 3.01305 0
M  V30 2249 C 219.554 3.41968 2.93885 0
M  V30 2250 C 218.216 3.82807 2.91569 0
M  V30 2251 C 220.568 4.37409 2.83413 0
M  V30 2252 C 217.896 5.1741 2.76594 0
M  V30 2253 C 220.248 5.72097 2.69977 0
M  V30 2254 C 218.912 6.12199 2.66024 0
M  V30 2255 H 218.182 0.42745 0.605283 0
M  V30 2256 H 220.829 1.59981 1.05254 0
M  V30 2257 H 219.134 1.41635 3.65304 0
M  V30 2258 H 220.831 1.80131 3.58265 0
M  V30 2259 H 217.421 3.09504 2.96488 0
M  V30 2260 H 221.605 4.06813 2.84283 0
M  V30 2261 H 216.861 5.47596 2.71935 0
M  V30 2262 H 221.035 6.45704 2.60844 0
M  V30 2263 H 218.662 7.16448 2.54178 0
M  V30 2264 N 220.237 -1.11381 1.11499 0
M  V30 2265 C 221.185 -2.19522 0.768956 0
M  V30 2266 C 222.179 -1.67693 -0.239857 0
M  V30 2267 O 223.385 -1.79727 -0.0990755 0
M  V30 2268 H 219.76 -0.715711 0.230786 0
M  V30 2269 H 221.731 -2.45954 1.68964 0
M  V30 2270 C 220.48 -3.46945 0.229073 0
M  V30 2271 H 219.803 -3.8718 0.996596 0
M  V30 2272 H 221.243 -4.23993 0.0251441 0
M  V30 2273 C 219.702 -3.2042 -1.04079 0
M  V30 2274 O 220.232 -3.41178 -2.12038 0
M  V30 2275 N 218.438 -2.74151 -0.963823 0
M  V30 2276 H 217.985 -2.57459 -0.0851722 0
M  V30 2277 H 217.943 -2.56781 -1.81414 0
M  V30 2278 N 221.715 -0.905404 -1.28997 0
M  V30 2279 C 223.126 -0.581953 -1.77398 0
M  V30 2280 C 223.477 0.902552 -1.74208 0
M  V30 2281 O 222.602 1.70584 -1.33154 0
M  V30 2282 C 223.197 -1.04961 -3.22131 0
M  V30 2283 C 221.756 -0.777229 -3.68288 0
M  V30 2284 C 220.903 -1.22109 -2.48967 0
M  V30 2285 H 223.854 -1.08754 -1.15578 0
M  V30 2286 H 223.875 -0.387387 -3.78523 0
M  V30 2287 H 223.387 -2.13008 -3.24421 0
M  V30 2288 H 221.488 0.290383 -3.71467 0
M  V30 2289 H 221.601 -1.37911 -4.58822 0
M  V30 2290 H 219.965 -0.639971 -2.46529 0
M  V30 2291 H 220.748 -2.30972 -2.53982 0
M  V30 2292 N 223.193 1.4272 -0.668489 0
M  V30 2293 C 224.439 2.01923 -0.188419 0
M  V30 2294 C 224.772 1.52704 1.19979 0
M  V30 2295 O 224.047 0.726566 1.8042 0
M  V30 2296 C 224.33 3.59451 -0.216085 0
M  V30 2297 C 224.183 4.18864 -1.6393 0
M  V30 2298 C 225.502 4.37903 0.439179 0
M  V30 2299 H 222.621 0.733674 -0.0699412 0
M  V30 2300 H 225.263 1.69822 -0.852076 0
M  V30 2301 H 223.413 3.86929 0.349012 0
M  V30 2302 H 225.085 4.02362 -2.25616 0
M  V30 2303 H 223.328 3.74933 -2.18193 0
M  V30 2304 H 223.999 5.27987 -1.61039 0
M  V30 2305 H 226.475 4.16079 -0.0417878 0
M  V30 2306 H 225.351 5.47519 0.389157 0
M  V30 2307 H 225.612 4.15303 1.51577 0
M  V30 2308 N 224.671 0.411399 1.52136 0
M  V30 2309 C 225.92 -0.165009 2.01024 0
M  V30 2310 C 226.233 -1.4603 1.30133 0
M  V30 2311 O 227.439 -2.1181 1.69849 0
M  V30 2312 C 225.895 -0.344618 3.58246 0
M  V30 2313 C 225.503 0.938716 4.38055 0
M  V30 2314 C 227.247 -0.876195 4.15359 0
M  V30 2315 C 225.154 0.726172 5.86925 0
M  V30 2316 H 224.084 -0.0654407 0.751155 0
M  V30 2317 H 226.735 0.537192 1.75461 0
M  V30 2318 H 225.117 -1.10921 3.80148 0
M  V30 2319 H 226.291 1.70963 4.27912 0
M  V30 2320 H 224.606 1.39688 3.92271 0
M  V30 2321 H 227.203 -1.05128 5.24263 0
M  V30 2322 H 227.546 -1.85152 3.7286 0
M  V30 2323 H 228.079 -0.170607 3.97434 0
M  V30 2324 H 224.818 1.67312 6.33788 0
M  V30 2325 H 224.338 -0.00540283 5.998 0
M  V30 2326 H 226.017 0.369231 6.45946 0
M  V30 2327 N 226.149 -1.5696 0.141893 0
M  V30 2328 C 227.377 -2.00322 -0.517579 0
M  V30 2329 C 227.792 -1.02193 -1.58752 0
M  V30 2330 O 227.149 -0.0181619 -1.82491 0
M  V30 2331 C 227.2 -3.43618 -1.12289 0
M  V30 2332 O 226.921 -4.37995 -0.0956929 0
M  V30 2333 C 228.422 -4.02231 -1.86347 0
M  V30 2334 H 225.642 -0.657243 -0.135177 0
M  V30 2335 H 228.186 -2.03146 0.234973 0
M  V30 2336 H 226.341 -3.41662 -1.82609 0
M  V30 2337 H 226.755 -5.21729 -0.538469 0
M  V30 2338 H 228.229 -5.04509 -2.23997 0
M  V30 2339 H 228.706 -3.42655 -2.74744 0
M  V30 2340 H 229.312 -4.07802 -1.20737 0
M  V30 2341 N 227.627 0.131896 -1.57047 0
M  V30 2342 C 228.904 0.871495 -1.75112 0
M  V30 2343 C 229.284 1.9866 -0.713949 0
M  V30 2344 O 228.632 2.26965 0.264447 0
M  V30 2345 C 228.842 1.40007 -3.19686 0
M  V30 2346 C 230.19 1.85752 -3.81813 0
M  V30 2347 O 231.214 1.49715 -3.23209 0
M  V30 2348 O 230.073 2.5226 -4.84796 0
M  V30 2349 H 227.167 0.412919 -0.716538 0
M  V30 2350 H 229.713 0.116641 -1.69299 0
M  V30 2351 H 228.485 0.599404 -3.86682 0
M  V30 2352 H 228.108 2.218 -3.29986 0
M  V30 2353 N 229.106 1.52395 0.401703 0
M  V30 2354 C 230.383 1.57387 1.16141 0
M  V30 2355 C 230.763 0.359359 2.08019 0
M  V30 2356 O 230.111 -0.65326 2.18963 0
M  V30 2357 C 230.321 2.90631 1.93221 0
M  V30 2358 C 231.669 3.43904 2.49028 0
M  V30 2359 O 232.693 2.92421 2.03393 0
M  V30 2360 O 231.552 4.33823 3.32356 0
M  V30 2361 H 228.646 0.634262 0.530698 0
M  V30 2362 H 231.192 1.64725 0.407883 0
M  V30 2363 H 229.964 3.70473 1.25958 0
M  V30 2364 H 229.587 2.8662 2.75563 0
M  V30 2365 N 230.584 -0.659388 1.43143 0
M  V30 2366 C 231.809 -1.45221 1.48073 0
M  V30 2367 C 232.234 -1.87845 0.097995 0
M  V30 2368 O 231.592 -1.56985 -0.90694 0
M  V30 2369 C 231.64 -2.66748 2.42647 0
M  V30 2370 O 230.744 -3.65583 1.90848 0
M  V30 2371 H 230.085 -0.435669 0.501088 0
M  V30 2372 H 232.615 -0.807432 1.87994 0
M  V30 2373 H 232.625 -3.14637 2.59745 0
M  V30 2374 H 231.3 -2.35067 3.43098 0
M  V30 2375 H 229.877 -3.24693 1.83381 0
M  V30 2376 N 232.062 -1.29571 -0.897171 0
M  V30 2377 C 233.025 -1.14913 -1.98312 0
M  V30 2378 C 234.025 -0.0838629 -1.60581 0
M  V30 2379 O 235.215 -0.331006 -1.71026 0
M  V30 2380 C 232.347 -0.757835 -3.3237 0
M  V30 2381 H 233.54 -2.11377 -2.12743 0
M  V30 2382 H 231.093 -1.12793 -1.08201 0
M  V30 2383 H 231.828 0.206837 -3.2364 0
M  V30 2384 H 231.613 -1.52755 -3.61121 0
M  V30 2385 H 233.103 -0.678408 -4.12053 0
M  V30 2386 N 233.54 1.10788 -1.12088 0
M  V30 2387 C 234.503 2.15207 -0.788577 0
M  V30 2388 C 235.503 1.59609 0.195317 0
M  V30 2389 O 236.693 1.74174 -0.0300193 0
M  V30 2390 C 233.825 3.4047 -0.171174 0
M  V30 2391 H 235.018 2.46116 -1.71368 0
M  V30 2392 H 232.571 1.26089 -0.923652 0
M  V30 2393 H 233.306 3.15176 0.763832 0
M  V30 2394 H 233.091 3.82109 -0.879514 0
M  V30 2395 H 234.581 4.17576 0.04496 0
M  V30 2396 N 235.018 0.912232 1.28515 0
M  V30 2397 C 236.265 0.544599 1.95039 0
M  V30 2398 C 236.593 -0.911435 1.71823 0
M  V30 2399 O 235.848 -1.66317 1.03137 0
M  V30 2400 C 236.147 0.798392 3.48368 0
M  V30 2401 C 235.813 2.23374 3.91682 0
M  V30 2402 C 234.475 2.62617 4.03219 0
M  V30 2403 C 236.827 3.16786 4.13879 0
M  V30 2404 C 234.155 3.94429 4.3433 0
M  V30 2405 C 236.507 4.48161 4.46469 0
M  V30 2406 C 235.171 4.8726 4.56217 0
M  V30 2407 H 234.441 0.199283 0.7137 0
M  V30 2408 H 237.088 1.15327 1.52879 0
M  V30 2409 H 235.393 0.106908 3.91654 0
M  V30 2410 H 237.09 0.493141 3.97956 0
M  V30 2411 H 233.68 1.91922 3.83228 0
M  V30 2412 H 237.864 2.87677 4.0442 0
M  V30 2413 H 233.12 4.24426 4.40082 0
M  V30 2414 H 237.294 5.20559 4.62592 0
M  V30 2415 H 234.921 5.89431 4.80078 0
M  V30 2416 N 236.496 -1.42363 0.676048 0
M  V30 2417 C 237.721 -2.06377 0.205705 0
M  V30 2418 C 238.146 -1.50463 -1.12883 0
M  V30 2419 O 237.504 -0.623619 -1.70237 0
M  V30 2420 C 237.552 -3.60277 0.152655 0
M  V30 2421 O 236.656 -4.02935 -0.87845 0
M  V30 2422 H 235.997 -0.655588 0.105359 0
M  V30 2423 H 238.527 -1.82475 0.925412 0
M  V30 2424 H 238.537 -4.07993 -0.0230675 0
M  V30 2425 H 237.212 -4.00346 1.12675 0
M  V30 2426 H 235.789 -3.66764 -0.673668 0
M  V30 2427 N 237.974 -0.419461 -1.51915 0
M  V30 2428 C 238.884 0.407528 -2.31033 0
M  V30 2429 C 239.9 1.04413 -1.3919 0
M  V30 2430 O 241.076 1.0434 -1.72265 0
M  V30 2431 C 238.141 1.50365 -3.12396 0
M  V30 2432 C 237.202 0.889029 -4.19994 0
M  V30 2433 C 236.435 1.93291 -4.97468 0
M  V30 2434 O 236.658 3.15259 -4.75361 0
M  V30 2435 O 235.592 1.53339 -5.8204 0
M  V30 2436 H 239.418 -0.237865 -3.02767 0
M  V30 2437 H 237.003 -0.182413 -1.48282 0
M  V30 2438 H 238.885 2.13975 -3.63032 0
M  V30 2439 H 237.56 2.13345 -2.43445 0
M  V30 2440 H 236.467 0.215353 -3.7348 0
M  V30 2441 H 237.8 0.302991 -4.91267 0
M  V30 2442 N 239.452 1.56882 -0.150215 0
M  V30 2443 C 240.384 2.14057 0.819286 0
M  V30 2444 C 241.397 1.09082 1.20851 0
M  V30 2445 O 242.586 1.36347 1.15203 0
M  V30 2446 C 239.686 2.65102 2.11127 0
M  V30 2447 C 238.859 3.94511 1.88891 0
M  V30 2448 C 237.918 4.30834 3.02107 0
M  V30 2449 O 236.944 4.99099 2.73659 0
M  V30 2450 N 238.146 3.90676 4.29363 0
M  V30 2451 H 240.911 2.97871 0.330618 0
M  V30 2452 H 238.472 1.61866 0.0332538 0
M  V30 2453 H 240.464 2.86411 2.85921 0
M  V30 2454 H 239.034 1.85994 2.51247 0
M  V30 2455 H 238.254 3.81795 0.981152 0
M  V30 2456 H 239.542 4.7907 1.71376 0
M  V30 2457 H 238.94 3.35677 4.55343 0
M  V30 2458 H 237.497 4.1703 5.00928 0
M  V30 2459 N 240.93 -0.123565 1.57115 0
M  V30 2460 C 241.893 -1.13583 1.99076 0
M  V30 2461 C 242.893 -1.34564 0.880296 0
M  V30 2462 O 244.083 -1.31158 1.14644 0
M  V30 2463 C 241.215 -2.49128 2.32698 0
M  V30 2464 H 242.408 -0.775287 2.89706 0
M  V30 2465 H 239.961 -0.36771 1.51913 0
M  V30 2466 H 240.696 -2.90111 1.44934 0
M  V30 2467 H 240.481 -2.35255 3.13684 0
M  V30 2468 H 241.971 -3.2199 2.65918 0
M  V30 2469 N 242.408 -1.52605 -0.393616 0
M  V30 2470 C 243.654 -1.67672 -1.14079 0
M  V30 2471 C 243.987 -0.413121 -1.89755 0
M  V30 2472 O 243.262 0.588952 -1.85369 0
M  V30 2473 C 243.545 -2.9088 -2.12276 0
M  V30 2474 C 243.398 -4.27329 -1.40394 0
M  V30 2475 C 244.717 -3.09628 -3.12759 0
M  V30 2476 H 241.836 -0.610168 -0.413356 0
M  V30 2477 H 244.478 -1.85193 -0.424696 0
M  V30 2478 H 242.628 -2.76073 -2.73342 0
M  V30 2479 H 244.3 -4.53894 -0.82327 0
M  V30 2480 H 242.543 -4.2802 -0.705801 0
M  V30 2481 H 243.214 -5.09615 -2.12123 0
M  V30 2482 H 245.69 -3.23436 -2.61779 0
M  V30 2483 H 244.566 -3.97322 -3.78717 0
M  V30 2484 H 244.827 -2.23637 -3.81365 0
M  V30 2485 N 243.887 0.651787 -1.4349 0
M  V30 2486 C 244.85 1.74647 -1.48429 0
M  V30 2487 C 245.85 1.56513 -0.368817 0
M  V30 2488 O 247.04 1.62385 -0.630623 0
M  V30 2489 C 244.172 3.13533 -1.33827 0
M  V30 2490 H 245.365 1.71649 -2.4592 0
M  V30 2491 H 242.918 0.863573 -1.30277 0
M  V30 2492 H 243.653 3.22142 -0.37349 0
M  V30 2493 H 243.438 3.28101 -2.14691 0
M  V30 2494 H 244.928 3.93356 -1.40218 0
M  V30 2495 N 245.365 1.30045 0.890287 0
M  V30 2496 C 246.328 1.15963 1.977 0
M  V30 2497 C 247.328 0.0923777 1.60534 0
M  V30 2498 O 248.518 0.340071 1.70848 0
M  V30 2499 C 245.65 0.775451 3.31963 0
M  V30 2500 H 246.843 2.12502 2.11619 0
M  V30 2501 H 244.396 1.13366 1.07601 0
M  V30 2502 H 245.131 -0.189671 3.23745 0
M  V30 2503 H 244.916 1.54668 3.60306 0
M  V30 2504 H 246.406 0.700251 4.11687 0
M  V30 2505 N 246.843 -1.10192 1.12674 0
M  V30 2506 C 247.776 -2.15847 0.740625 0
M  V30 2507 C 248.754 -1.60352 -0.269421 0
M  V30 2508 O 249.938 -1.87796 -0.16278 0
M  V30 2509 C 247.065 -3.38562 0.096641 0
M  V30 2510 C 246.111 -4.12758 1.07391 0
M  V30 2511 S 246.944 -4.67997 2.60267 0
M  V30 2512 C 248.1 -5.94021 1.97206 0
M  V30 2513 H 248.333 -2.48266 1.63558 0
M  V30 2514 H 245.866 -1.22019 0.946087 0
M  V30 2515 H 247.824 -4.09621 -0.268535 0
M  V30 2516 H 246.485 -3.04377 -0.775462 0
M  V30 2517 H 245.678 -5.00755 0.570997 0
M  V30 2518 H 245.28 -3.47523 1.38216 0
M  V30 2519 H 247.572 -6.64589 1.31634 0
M  V30 2520 H 248.515 -6.48979 2.83253 0
M  V30 2521 H 248.923 -5.46169 1.42686 0
M  V30 2522 N 248.321 -0.919034 -1.28029 0
M  V30 2523 C 249.231 -0.416756 -2.30869 0
M  V30 2524 C 250.247 0.498235 -1.66714 0
M  V30 2525 O 251.423 0.383144 -1.97722 0
M  V30 2526 C 248.488 0.330274 -3.45123 0
M  V30 2527 C 247.549 -0.618578 -4.2482 0
M  V30 2528 C 246.782 0.0928959 -5.33619 0
M  V30 2529 O 247.005 1.31375 -5.55065 0
M  V30 2530 O 245.939 -0.574499 -5.99152 0
M  V30 2531 H 249.765 -1.27043 -2.75851 0
M  V30 2532 H 247.35 -0.684052 -1.3282 0
M  V30 2533 H 249.232 0.751972 -4.14636 0
M  V30 2534 H 247.907 1.1597 -3.02213 0
M  V30 2535 H 246.814 -1.08978 -3.57875 0
M  V30 2536 H 248.147 -1.41497 -4.71423 0
M  V30 2537 N 249.799 1.42003 -0.683588 0
M  V30 2538 C 250.746 2.30798 -0.0107309 0
M  V30 2539 C 251.716 1.4645 0.783688 0
M  V30 2540 O 252.901 1.75263 0.754156 0
M  V30 2541 C 250.041 3.3238 0.928306 0
M  V30 2542 C 249.154 4.31814 0.126776 0
M  V30 2543 C 248.289 5.20468 1.06236 0
M  V30 2544 C 247.328 6.11577 0.253035 0
M  V30 2545 N 246.465 6.92754 1.14179 0
M  V30 2546 H 251.305 2.8778 -0.773727 0
M  V30 2547 H 248.842 1.41745 -0.393283 0
M  V30 2548 H 250.8 3.89813 1.48666 0
M  V30 2549 H 249.43 2.76976 1.65783 0
M  V30 2550 H 248.482 3.76427 -0.54833 0
M  V30 2551 H 249.794 4.96276 -0.501192 0
M  V30 2552 H 248.948 5.82677 1.69035 0
M  V30 2553 H 247.687 4.56204 1.7242 0
M  V30 2554 H 246.692 5.48428 -0.388108 0
M  V30 2555 H 247.917 6.77892 -0.404839 0
M  V30 2556 H 245.863 6.3111 1.78987 0
M  V30 2557 H 245.78 7.53855 0.569111 0
M  V30 2558 H 247.048 7.59441 1.75697 0
M  V30 2559 N 251.277 0.427512 1.51691 0
M  V30 2560 C 252.187 -0.39527 2.31246 0
M  V30 2561 C 253.203 -1.03674 1.39742 0
M  V30 2562 O 254.379 -1.03425 1.72816 0
M  V30 2563 C 251.444 -1.48706 3.13189 0
M  V30 2564 C 250.505 -0.866743 4.20459 0
M  V30 2565 C 249.738 -1.90651 4.98486 0
M  V30 2566 O 249.961 -3.12733 4.77026 0
M  V30 2567 O 248.895 -1.5025 5.82845 0
M  V30 2568 H 252.721 0.253918 3.02637 0
M  V30 2569 H 250.306 0.190274 1.48183 0
M  V30 2570 H 252.188 -2.12047 3.64162 0
M  V30 2571 H 250.863 -2.12051 2.44573 0
M  V30 2572 H 249.77 -0.195544 3.73589 0
M  V30 2573 H 251.103 -0.276934 4.9142 0
M  V30 2574 N 252.755 -1.56801 0.158532 0
M  V30 2575 C 253.685 -2.20347 -0.772609 0
M  V30 2576 C 254.666 -1.15518 -1.24859 0
M  V30 2577 O 255.851 -1.43902 -1.30406 0
M  V30 2578 C 252.981 -2.83417 -2.00729 0
M  V30 2579 C 251.935 -3.94174 -1.66765 0
M  V30 2580 C 251.261 -4.44233 -2.97592 0
M  V30 2581 C 252.561 -5.14392 -0.905447 0
M  V30 2582 H 254.255 -2.98413 -0.242959 0
M  V30 2583 H 251.801 -1.43537 -0.115419 0
M  V30 2584 H 253.754 -3.26543 -2.6636 0
M  V30 2585 H 252.478 -2.02701 -2.56086 0
M  V30 2586 H 251.137 -3.51684 -1.03508 0
M  V30 2587 H 250.785 -3.60325 -3.50963 0
M  V30 2588 H 250.485 -5.18945 -2.75626 0
M  V30 2589 H 252.009 -4.90037 -3.64274 0
M  V30 2590 H 253.423 -5.5429 -1.46408 0
M  V30 2591 H 251.82 -5.9494 -0.7853 0
M  V30 2592 H 252.89 -4.84795 0.100668 0
M  V30 2593 N 254.233 0.115231 -1.57178 0
M  V30 2594 C 255.458 0.840354 -1.89612 0
M  V30 2595 C 255.883 1.72464 -0.750845 0
M  V30 2596 O 255.241 1.78826 0.298478 0
M  V30 2597 C 255.289 1.64654 -3.20814 0
M  V30 2598 O 254.393 2.7538 -3.06985 0
M  V30 2599 H 253.734 0.232158 -0.622092 0
M  V30 2600 H 256.264 0.0964977 -2.04372 0
M  V30 2601 H 256.274 2.03499 -3.53627 0
M  V30 2602 H 254.949 0.997416 -4.03763 0
M  V30 2603 H 253.526 2.3971 -2.85646 0
M  V30 2604 N 255.711 1.52812 0.385517 0
M  V30 2605 C 256.658 1.77838 1.47113 0
M  V30 2606 C 257.628 0.621757 1.54024 0
M  V30 2607 O 258.813 0.861846 1.70226 0
M  V30 2608 C 255.953 1.95618 2.84302 0
M  V30 2609 C 255.066 3.23316 2.86515 0
M  V30 2610 C 254.201 3.31394 4.15152 0
M  V30 2611 C 253.24 4.53201 4.1143 0
M  V30 2612 N 252.377 4.58542 5.3168 0
M  V30 2613 H 257.217 2.70482 1.25073 0
M  V30 2614 H 254.754 1.34006 0.606692 0
M  V30 2615 H 256.712 2.03912 3.63972 0
M  V30 2616 H 255.342 1.06331 3.04784 0
M  V30 2617 H 254.394 3.24076 1.99195 0
M  V30 2618 H 255.706 4.13045 2.79634 0
M  V30 2619 H 254.86 3.3889 5.03228 0
M  V30 2620 H 253.599 2.39645 4.24761 0
M  V30 2621 H 252.604 4.45827 3.21742 0
M  V30 2622 H 253.829 5.46271 4.03442 0
M  V30 2623 H 251.775 3.69686 5.41912 0
M  V30 2624 H 251.692 5.42148 5.26889 0
M  V30 2625 H 252.96 4.70296 6.21644 0
M  V30 2626 N 257.189 -0.644168 1.43834 0
M  V30 2627 C 258.119 -1.76814 1.52509 0
M  V30 2628 C 259.1 -1.65823 0.379052 0
M  V30 2629 O 260.285 -1.84781 0.597466 0
M  V30 2630 C 257.415 -3.15288 1.4564 0
M  V30 2631 C 256.369 -3.41053 2.58586 0
M  V30 2632 C 255.695 -4.79421 2.36769 0
M  V30 2633 C 256.995 -3.34902 4.00797 0
M  V30 2634 H 258.689 -1.69812 2.46586 0
M  V30 2635 H 256.235 -0.815542 1.1868 0
M  V30 2636 H 258.188 -3.93681 1.50311 0
M  V30 2637 H 256.912 -3.23043 0.480725 0
M  V30 2638 H 255.571 -2.65035 2.53282 0
M  V30 2639 H 255.219 -4.83863 1.37424 0
M  V30 2640 H 254.919 -4.9762 3.12487 0
M  V30 2641 H 256.443 -5.6006 2.43238 0
M  V30 2642 H 257.857 -4.03218 4.07539 0
M  V30 2643 H 256.254 -3.64637 4.76613 0
M  V30 2644 H 257.324 -2.32928 4.25291 0
M  V30 2645 N 258.668 -1.30515 -0.883378 0
M  V30 2646 C 259.6 -1.12846 -1.99496 0
M  V30 2647 C 260.613 -0.0712571 -1.62644 0
M  V30 2648 O 261.802 -0.317432 -1.75655 0
M  V30 2649 C 258.902 -0.699123 -3.3161 0
M  V30 2650 C 258.075 -1.83842 -3.96889 0
M  V30 2651 C 257.134 -1.39737 -5.07307 0
M  V30 2652 O 256.16 -2.10485 -5.28852 0
M  V30 2653 N 257.362 -0.277279 -5.79837 0
M  V30 2654 H 260.127 -2.08585 -2.15203 0
M  V30 2655 H 257.688 -1.22672 -1.05656 0
M  V30 2656 H 259.68 -0.387044 -4.02845 0
M  V30 2657 H 258.25 0.166276 -3.12157 0
M  V30 2658 H 257.47 -2.31853 -3.18807 0
M  V30 2659 H 258.758 -2.60187 -4.37241 0
M  V30 2660 H 258.156 0.3122 -5.64838 0
M  V30 2661 H 256.713 -0.0246623 -6.51795 0
M  V30 2662 N 260.146 1.09593 -1.13257 0
M  V30 2663 C 261.076 2.18214 -0.830946 0
M  V30 2664 C 262.057 1.68812 0.208966 0
M  V30 2665 O 263.242 1.9408 0.0682666 0
M  V30 2666 C 260.372 3.46051 -0.294296 0
M  V30 2667 C 259.326 4.08778 -1.26826 0
M  V30 2668 C 258.652 5.31419 -0.591449 0
M  V30 2669 C 259.952 4.51476 -2.62615 0
M  V30 2670 H 261.646 2.43703 -1.73923 0
M  V30 2671 H 259.192 1.17128 -0.837675 0
M  V30 2672 H 261.145 4.2134 -0.0709606 0
M  V30 2673 H 259.869 3.20079 0.649366 0
M  V30 2674 H 258.528 3.35505 -1.47756 0
M  V30 2675 H 258.176 5.01727 0.357633 0
M  V30 2676 H 257.876 5.74341 -1.24123 0
M  V30 2677 H 259.4 6.09433 -0.377355 0
M  V30 2678 H 260.814 5.17999 -2.45663 0
M  V30 2679 H 259.211 5.05277 -3.23752 0
M  V30 2680 H 260.281 3.63962 -3.20406 0
M  V30 2681 N 261.624 0.925811 1.2754 0
M  V30 2682 C 262.852 0.581509 1.9856 0
M  V30 2683 C 263.267 -0.840041 1.69082 0
M  V30 2684 O 262.624 -1.55805 0.950312 0
M  V30 2685 C 262.675 0.795589 3.52637 0
M  V30 2686 O 262.396 2.16121 3.81082 0
M  V30 2687 C 263.897 0.459744 4.4091 0
M  V30 2688 H 261.117 0.220538 0.633722 0
M  V30 2689 H 263.661 1.24232 1.6244 0
M  V30 2690 H 261.816 0.18161 3.86974 0
M  V30 2691 H 262.23 2.2098 4.75676 0
M  V30 2692 H 263.704 0.660244 5.48037 0
M  V30 2693 H 264.181 -0.604625 4.35018 0
M  V30 2694 H 264.787 1.05178 4.12089 0
M  V30 2695 N 263.102 -1.41638 0.69111 0
M  V30 2696 C 264.379 -1.95036 0.148421 0
M  V30 2697 C 264.759 -1.63072 -1.34055 0
M  V30 2698 O 264.107 -0.93538 -2.08478 0
M  V30 2699 C 264.317 -3.46279 0.434951 0
M  V30 2700 C 265.665 -4.23069 0.360275 0
M  V30 2701 O 266.689 -3.54277 0.369613 0
M  V30 2702 O 265.548 -5.45583 0.316534 0
M  V30 2703 H 262.642 -0.826908 0.0123654 0
M  V30 2704 H 265.188 -1.5138 0.766963 0
M  V30 2705 H 263.96 -3.6281 1.46576 0
M  V30 2706 H 263.583 -3.97019 -0.214787 0
M  V30 2707 N 264.58 -0.43555 -1.51462 0
M  V30 2708 C 265.805 0.132627 -2.06976 0
M  V30 2709 C 266.23 1.35848 -1.30104 0
M  V30 2710 O 265.588 1.78112 -0.338493 0
M  V30 2711 C 265.636 0.43523 -3.57964 0
M  V30 2712 O 264.74 1.52198 -3.83288 0
M  V30 2713 H 264.081 0.00265 -0.663995 0
M  V30 2714 H 266.611 -0.616369 -1.95095 0
M  V30 2715 H 266.621 0.686206 -4.02188 0
M  V30 2716 H 265.296 -0.460739 -4.1334 0
M  V30 2717 H 263.873 1.2611 -3.50928 0
M  V30 2718 N 266.058 1.56714 -0.166846 0
M  V30 2719 C 267.288 2.00828 0.48494 0
M  V30 2720 C 267.696 1.04612 1.57648 0
M  V30 2721 O 267.039 0.0383201 1.8366 0
M  V30 2722 C 267.101 3.4137 1.12723 0
M  V30 2723 C 266.765 4.56654 0.177886 0
M  V30 2724 C 267.762 5.16402 -0.60207 0
M  V30 2725 C 265.447 5.02244 0.0750139 0
M  V30 2726 C 267.441 6.20167 -1.47215 0
M  V30 2727 C 265.128 6.05859 -0.798649 0
M  V30 2728 C 266.126 6.64691 -1.57082 0
M  V30 2729 O 265.814 7.66297 -2.42989 0
M  V30 2730 H 265.546 0.663587 0.128953 0
M  V30 2731 H 268.1 2.03692 -0.264365 0
M  V30 2732 H 266.33 3.35406 1.92457 0
M  V30 2733 H 268.019 3.69466 1.68076 0
M  V30 2734 H 268.785 4.82065 -0.53274 0
M  V30 2735 H 264.664 4.56167 0.665812 0
M  V30 2736 H 268.208 6.66016 -2.07531 0
M  V30 2737 H 264.105 6.39621 -0.869199 0
M  V30 2738 H 264.873 7.83601 -2.36455 0
M  V30 2739 N 267.536 -0.106894 1.57237 0
M  V30 2740 C 268.468 -1.15646 1.97885 0
M  V30 2741 C 269.481 -1.36981 0.879779 0
M  V30 2742 O 270.67 -1.35841 1.15799 0
M  V30 2743 C 267.77 -2.51425 2.27241 0
M  V30 2744 C 266.943 -2.50529 3.58545 0
M  V30 2745 C 266.002 -3.68145 3.75973 0
M  V30 2746 O 265.028 -3.51176 4.47956 0
M  V30 2747 N 266.23 -4.87177 3.15656 0
M  V30 2748 H 268.995 -0.81059 2.8853 0
M  V30 2749 H 266.556 -0.296024 1.59171 0
M  V30 2750 H 268.548 -3.28689 2.36105 0
M  V30 2751 H 267.118 -2.78147 1.42663 0
M  V30 2752 H 266.338 -1.58894 3.60758 0
M  V30 2753 H 267.626 -2.46997 4.44826 0
M  V30 2754 H 267.024 -5.03868 2.57165 0
M  V30 2755 H 265.581 -5.62075 3.30023 0
M  V30 2756 N 269.014 -1.53014 -0.377408 0
M  V30 2757 C 269.944 -1.81589 -1.46791 0
M  V30 2758 C 270.925 -0.668622 -1.56408 0
M  V30 2759 O 272.11 -0.917337 -1.71168 0
M  V30 2760 C 269.24 -1.99519 -2.8427 0
M  V30 2761 C 268.194 -3.15249 -2.89486 0
M  V30 2762 C 267.52 -3.18451 -4.29527 0
M  V30 2763 C 268.82 -4.54084 -2.58079 0
M  V30 2764 H 270.514 -2.7291 -1.23127 0
M  V30 2765 H 268.06 -1.31319 -0.590883 0
M  V30 2766 H 270.013 -2.18092 -3.60575 0
M  V30 2767 H 268.737 -1.04897 -3.09296 0
M  V30 2768 H 267.396 -2.96477 -2.15631 0
M  V30 2769 H 267.044 -2.2149 -4.5161 0
M  V30 2770 H 266.744 -3.962 -4.33934 0
M  V30 2771 H 268.268 -3.39193 -5.07721 0
M  V30 2772 H 269.682 -4.72899 -3.24098 0
M  V30 2773 H 268.079 -5.33987 -2.7382 0
M  V30 2774 H 269.149 -4.60006 -1.53372 0
M  V30 2775 N 270.492 0.636531 -1.44174 0
M  V30 2776 C 271.422 1.76003 -1.53444 0
M  V30 2777 C 272.403 1.65619 -0.387841 0
M  V30 2778 O 273.588 1.84461 -0.607257 0
M  V30 2779 C 270.718 3.14511 -1.4731 0
M  V30 2780 C 269.672 3.39677 -2.60391 0
M  V30 2781 C 268.998 4.78159 -2.39308 0
M  V30 2782 C 270.298 3.32772 -4.02567 0
M  V30 2783 H 271.992 1.68501 -2.47483 0
M  V30 2784 H 269.538 0.809237 -1.19111 0
M  V30 2785 H 271.491 3.92878 -1.52397 0
M  V30 2786 H 270.215 3.22783 -0.49785 0
M  V30 2787 H 268.874 2.63688 -2.54684 0
M  V30 2788 H 268.522 4.83128 -1.39988 0
M  V30 2789 H 268.222 4.95956 -3.15122 0
M  V30 2790 H 269.746 5.58762 -2.46205 0
M  V30 2791 H 271.16 4.01051 -4.09672 0
M  V30 2792 H 269.557 3.62104 -4.7854 0
M  V30 2793 H 270.627 2.30669 -4.2652 0
M  V30 2794 N 271.97 1.30982 0.876444 0
M  V30 2795 C 272.88 1.2003 2.01569 0
M  V30 2796 C 273.896 0.11838 1.73597 0
M  V30 2797 O 275.072 0.33495 1.98595 0
M  V30 2798 C 272.137 0.901637 3.34771 0
M  V30 2799 C 271.198 2.06979 3.76109 0
M  V30 2800 C 270.431 1.78529 5.02954 0
M  V30 2801 O 270.654 0.717296 5.65872 0
M  V30 2802 O 269.588 2.64019 5.40905 0
M  V30 2803 H 273.414 2.15753 2.13739 0
M  V30 2804 H 270.999 1.10658 1.00375 0
M  V30 2805 H 272.881 0.750645 4.1466 0
M  V30 2806 H 271.556 -0.0256141 3.2369 0
M  V30 2807 H 270.463 2.27616 2.96887 0
M  V30 2808 H 271.796 2.97907 3.91807 0
M  V30 2809 N 273.449 -1.08991 1.13837 0
M  V30 2810 C 274.396 -2.15748 0.819835 0
M  V30 2811 C 275.366 -1.64636 -0.220026 0
M  V30 2812 O 276.551 -1.90582 -0.0912757 0
M  V30 2813 C 273.691 -3.4382 0.296913 0
M  V30 2814 C 272.804 -4.0881 1.39636 0
M  V30 2815 C 271.939 -5.24655 0.831314 0
M  V30 2816 C 270.978 -5.81575 1.90886 0
M  V30 2817 N 270.115 -6.88774 1.36142 0
M  V30 2818 H 274.955 -2.42338 1.73426 0
M  V30 2819 H 272.492 -1.18935 0.865613 0
M  V30 2820 H 274.45 -4.17193 -0.0244339 0
M  V30 2821 H 273.08 -3.17535 -0.580628 0
M  V30 2822 H 272.132 -3.33258 1.83422 0
M  V30 2823 H 273.444 -4.47141 2.21058 0
M  V30 2824 H 272.598 -6.04942 0.461515 0
M  V30 2825 H 271.337 -4.87698 -0.013932 0
M  V30 2826 H 270.342 -4.99946 2.28767 0
M  V30 2827 H 271.567 -6.20592 2.75758 0
M  V30 2828 H 269.513 -6.53788 0.538254 0
M  V30 2829 H 269.43 -7.25898 2.11208 0
M  V30 2830 H 270.698 -7.72806 1.01933 0
M  V30 2831 N 274.927 -0.932562 -1.27047 0
M  V30 2832 C 276.176 -0.571351 -1.93439 0
M  V30 2833 C 276.489 0.892467 -1.74053 0
M  V30 2834 O 277.695 1.36267 -2.34826 0
M  V30 2835 C 276.151 -0.97106 -3.46552 0
M  V30 2836 C 275.759 -2.4559 -3.74686 0
M  V30 2837 C 277.503 -0.681333 -4.18997 0
M  V30 2838 C 275.41 -2.79475 -5.21198 0
M  V30 2839 H 274.34 -0.209966 -0.724176 0
M  V30 2840 H 276.991 -1.13403 -1.44263 0
M  V30 2841 H 275.373 -0.336983 -3.94564 0
M  V30 2842 H 276.547 -3.13829 -3.37414 0
M  V30 2843 H 274.862 -2.71802 -3.15456 0
M  V30 2844 H 277.459 -0.910939 -5.26883 0
M  V30 2845 H 277.802 0.381628 -4.14547 0
M  V30 2846 H 278.335 -1.27473 -3.76823 0
M  V30 2847 H 275.074 -3.847 -5.30741 0
M  V30 2848 H 274.594 -2.1589 -5.596 0
M  V30 2849 H 276.273 -2.67478 -5.89122 0
M  V30 2850 N 276.405 1.4127 -0.698611 0
M  V30 2851 C 277.651 2.01478 -0.231207 0
M  V30 2852 C 277.984 1.55215 1.16713 0
M  V30 2853 O 277.259 0.764672 1.78838 0
M  V30 2854 C 277.542 3.58912 -0.292281 0
M  V30 2855 C 277.395 4.15293 -1.72778 0
M  V30 2856 C 278.714 4.38736 0.346194 0
M  V30 2857 H 275.833 0.732025 -0.0854878 0
M  V30 2858 H 278.475 1.67977 -0.887906 0
M  V30 2859 H 276.625 3.87582 0.26686 0
M  V30 2860 H 278.297 3.97486 -2.341 0
M  V30 2861 H 276.54 3.7022 -2.26096 0
M  V30 2862 H 277.211 5.24452 -1.72202 0
M  V30 2863 H 279.687 4.15897 -0.130035 0
M  V30 2864 H 278.563 5.48221 0.272932 0
M  V30 2865 H 278.824 4.18425 1.42734 0
M  V30 2866 N 277.883 0.443576 1.51229 0
M  V30 2867 C 278.831 -0.37904 2.29491 0
M  V30 2868 C 279.825 -1.0153 1.35603 0
M  V30 2869 O 281.031 -0.94955 1.52917 0
M  V30 2870 H 277.406 -0.141053 0.738653 0
M  V30 2871 H 279.377 0.301799 2.9687 0
M  V30 2872 C 278.126 -1.46426 3.15364 0
M  V30 2873 H 277.449 -0.984037 3.87501 0
M  V30 2874 H 278.889 -2.01297 3.7317 0
M  V30 2875 C 277.348 -2.45099 2.31146 0
M  V30 2876 O 277.878 -3.49773 1.9754 0
M  V30 2877 N 276.084 -2.16139 1.94249 0
M  V30 2878 H 275.631 -1.31044 2.21777 0
M  V30 2879 H 275.589 -2.82398 1.38198 0
M  V30 2880 N 279.361 -1.56624 0.175154 0
M  V30 2881 C 280.591 -2.01082 -0.474283 0
M  V30 2882 C 280.999 -1.05447 -1.57091 0
M  V30 2883 O 280.342 -0.0480595 -1.83637 0
M  V30 2884 C 280.404 -3.41963 -1.10911 0
M  V30 2885 C 280.068 -4.56742 -0.153666 0
M  V30 2886 C 281.065 -5.16076 0.629448 0
M  V30 2887 C 278.75 -5.02277 -0.0483776 0
M  V30 2888 C 280.744 -6.19377 1.50501 0
M  V30 2889 C 278.431 -6.05427 0.830768 0
M  V30 2890 C 279.429 -6.63849 1.60605 0
M  V30 2891 O 279.117 -7.64998 2.47049 0
M  V30 2892 H 278.849 -0.664261 -0.125432 0
M  V30 2893 H 281.403 -2.03549 0.275163 0
M  V30 2894 H 279.633 -3.36422 -1.90676 0
M  V30 2895 H 281.322 -3.70352 -1.66114 0
M  V30 2896 H 282.088 -4.81776 0.558297 0
M  V30 2897 H 277.967 -4.56513 -0.641611 0
M  V30 2898 H 281.511 -6.64906 2.1106 0
M  V30 2899 H 277.408 -6.39151 0.903107 0
M  V30 2900 H 278.176 -7.82336 2.40607 0
M  V30 2901 N 280.839 0.0985539 -1.57292 0
M  V30 2902 C 281.786 1.11981 -2.01814 0
M  V30 2903 C 282.756 1.39999 -0.89384 0
M  V30 2904 O 283.941 1.5152 -1.15958 0
M  V30 2905 C 281.081 2.43577 -2.44467 0
M  V30 2906 C 280.194 2.2232 -3.70402 0
M  V30 2907 C 279.329 3.4729 -4.01949 0
M  V30 2908 C 278.368 3.2128 -5.21005 0
M  V30 2909 N 277.505 4.38507 -5.48321 0
M  V30 2910 H 282.345 0.733149 -2.88841 0
M  V30 2911 H 279.882 0.350482 -1.42864 0
M  V30 2912 H 281.84 3.20373 -2.6724 0
M  V30 2913 H 280.47 2.80097 -1.60455 0
M  V30 2914 H 279.522 1.36343 -3.55126 0
M  V30 2915 H 280.834 1.99089 -4.57345 0
M  V30 2916 H 279.988 4.32495 -4.25479 0
M  V30 2917 H 278.727 3.73572 -3.13521 0
M  V30 2918 H 277.732 2.34468 -4.97298 0
M  V30 2919 H 278.957 2.96348 -6.11028 0
M  V30 2920 H 276.903 4.64871 -4.62851 0
M  V30 2921 H 276.82 4.18455 -6.29628 0
M  V30 2922 H 278.088 5.24787 -5.76385 0
M  V30 2923 N 282.317 1.53212 0.369288 0
M  V30 2924 C 283.594 1.59815 1.12776 0
M  V30 2925 C 283.974 0.403402 2.0721 0
M  V30 2926 O 283.322 -0.606667 2.20299 0
M  V30 2927 C 283.532 2.94664 1.87013 0
M  V30 2928 C 284.88 3.49109 2.41677 0
M  V30 2929 O 285.904 2.96669 1.97144 0
M  V30 2930 O 284.763 4.40775 3.23079 0
M  V30 2931 H 281.857 0.645376 0.517125 0
M  V30 2932 H 284.403 1.65553 0.37285 0
M  V30 2933 H 283.175 3.73061 1.18071 0
M  V30 2934 H 282.798 2.92401 2.69421 0
M  V30 2935 N 283.795 -0.628877 1.44509 0
M  V30 2936 C 285.02 -1.42048 1.5112 0
M  V30 2937 C 285.445 -1.87594 0.137818 0
M  V30 2938 O 284.803 -1.58873 -0.873437 0
M  V30 2939 C 284.851 -2.61541 2.48251 0
M  V30 2940 O 283.955 -3.61453 1.98559 0
M  V30 2941 H 283.296 -0.424942 0.510216 0
M  V30 2942 H 285.826 -0.767374 1.89664 0
M  V30 2943 H 285.836 -3.09057 2.66361 0
M  V30 2944 H 284.511 -2.27736 3.48007 0
M  V30 2945 H 283.088 -3.20731 1.90227 0
M  V30 2946 N 285.273 -1.31445 -0.869486 0
M  V30 2947 C 286.684 -1.19042 -1.43826 0
M  V30 2948 C 287.035 0.202919 -1.95148 0
M  V30 2949 O 286.16 1.10071 -1.86315 0
M  V30 2950 C 286.755 -2.15499 -2.6143 0
M  V30 2951 C 285.314 -2.07028 -3.14351 0
M  V30 2952 C 284.461 -2.04701 -1.87063 0
M  V30 2953 H 287.412 -1.43489 -0.677984 0
M  V30 2954 H 287.433 -1.74488 -3.38134 0
M  V30 2955 H 286.945 -3.16899 -2.24046 0
M  V30 2956 H 285.046 -1.08825 -3.56354 0
M  V30 2957 H 285.159 -2.96157 -3.766 0
M  V30 2958 H 283.523 -1.49724 -2.06046 0
M  V30 2959 H 284.306 -3.07857 -1.51917 0
M  V30 2960 N 286.751 1.08385 -1.14413 0
M  V30 2961 C 287.714 2.13486 -0.834048 0
M  V30 2962 C 288.714 1.59988 0.161418 0
M  V30 2963 O 289.904 1.74071 -0.0669575 0
M  V30 2964 C 287.036 3.4003 -0.243354 0
M  V30 2965 H 288.229 2.42425 -1.7655 0
M  V30 2966 H 285.782 1.24101 -0.950189 0
M  V30 2967 H 286.517 3.16726 0.696807 0
M  V30 2968 H 286.302 3.80157 -0.960367 0
M  V30 2969 H 287.792 4.17577 -0.0436242 0
M  V30 2970 N 288.23 0.939286 1.26551 0
M  V30 2971 C 289.47 0.5933 1.956 0
M  V30 2972 C 289.834 -0.851515 1.72085 0
M  V30 2973 O 291.035 -1.30634 2.34921 0
M  V30 2974 C 289.306 0.923996 3.45249 0
M  V30 2975 S 290.865 0.688269 4.33369 0
M  V30 2976 H 287.683 0.218591 0.676564 0
M  V30 2977 H 290.285 1.2102 1.5354 0
M  V30 2978 H 288.989 1.97297 3.59864 0
M  V30 2979 H 288.52 0.296746 3.92279 0
M  V30 2980 H 290.535 -0.448434 4.9417 0
M  V30 2981 N 289.708 -1.40897 0.706093 0
M  V30 2982 C 290.655 -2.30751 0.0474474 0
M  V30 2983 C 291.625 -1.47678 -0.76029 0
M  V30 2984 O 292.81 -1.76441 -0.726177 0
M  V30 2985 C 289.95 -3.33815 -0.875309 0
M  V30 2986 C 289.063 -4.31961 -0.0580623 0
M  V30 2987 C 288.198 -5.22093 -0.979425 0
M  V30 2988 C 287.237 -6.11902 -0.155706 0
M  V30 2989 N 286.374 -6.94482 -1.03144 0
M  V30 2990 H 291.214 -2.86513 0.819413 0
M  V30 2991 H 288.751 -1.41102 0.415783 0
M  V30 2992 H 290.709 -3.92129 -1.42446 0
M  V30 2993 H 289.339 -2.79579 -1.61356 0
M  V30 2994 H 288.391 -3.75507 0.608147 0
M  V30 2995 H 289.703 -4.95415 0.580082 0
M  V30 2996 H 288.857 -5.85292 -1.59744 0
M  V30 2997 H 287.596 -4.5889 -1.65141 0
M  V30 2998 H 286.601 -5.47742 0.475309 0
M  V30 2999 H 287.826 -6.77162 0.512635 0
M  V30 3000 H 285.772 -6.33877 -1.68924 0
M  V30 3001 H 285.689 -7.54665 -0.449108 0
M  V30 3002 H 286.957 -7.6214 -1.63593 0
M  V30 3003 N 291.186 -0.45159 -1.50991 0
M  V30 3004 C 292.096 0.358431 -2.31846 0
M  V30 3005 C 293.112 1.01438 -1.41373 0
M  V30 3006 O 294.288 1.00663 -1.74439 0
M  V30 3007 C 291.353 1.43704 -3.15515 0
M  V30 3008 C 290.414 0.799742 -4.21785 0
M  V30 3009 C 289.647 1.82696 -5.01456 0
M  V30 3010 O 289.87 3.05105 -4.81941 0
M  V30 3011 O 288.804 1.40958 -5.85162 0
M  V30 3012 H 292.63 -0.302032 -3.02194 0
M  V30 3013 H 290.215 -0.213825 -1.47862 0
M  V30 3014 H 292.097 2.06227 -3.67489 0
M  V30 3015 H 290.772 2.08133 -2.47916 0
M  V30 3016 H 289.679 0.136084 -3.73852 0
M  V30 3017 H 291.012 0.198718 -4.91799 0
M  V30 3018 N 292.664 1.56529 -0.183458 0
M  V30 3019 C 293.611 2.18546 0.742055 0
M  V30 3020 C 294.581 1.12912 1.2182 0
M  V30 3021 O 295.766 1.41115 1.28418 0
M  V30 3022 C 292.906 2.83977 1.96089 0
M  V30 3023 C 292.019 4.04105 1.52719 0
M  V30 3024 C 291.154 4.57427 2.70063 0
M  V30 3025 C 290.193 5.69938 2.23243 0
M  V30 3026 N 289.33 6.17717 3.33722 0
M  V30 3027 H 294.17 2.97284 0.206432 0
M  V30 3028 H 291.707 1.46823 0.0901571 0
M  V30 3029 H 293.665 3.20077 2.67594 0
M  V30 3030 H 292.295 2.07822 2.47002 0
M  V30 3031 H 291.347 3.73745 0.708436 0
M  V30 3032 H 292.659 4.85513 1.1436 0
M  V30 3033 H 291.813 4.95772 3.49708 0
M  V30 3034 H 290.552 3.75101 3.11689 0
M  V30 3035 H 289.557 5.31133 1.42048 0
M  V30 3036 H 290.782 6.54073 1.82661 0
M  V30 3037 H 288.728 5.38317 3.74902 0
M  V30 3038 H 288.645 6.94146 2.99495 0
M  V30 3039 H 289.913 6.60713 4.13616 0
M  V30 3040 N 294.142 -0.090211 1.57342 0
M  V30 3041 C 295.074 -1.13541 1.99101 0
M  V30 3042 C 296.087 -1.3604 0.894258 0
M  V30 3043 O 297.276 -1.34606 1.17233 0
M  V30 3044 C 294.376 -2.49001 2.29895 0
M  V30 3045 C 293.549 -2.46712 3.61182 0
M  V30 3046 C 292.608 -3.64136 3.79857 0
M  V30 3047 O 291.634 -3.46405 4.51655 0
M  V30 3048 N 292.836 -4.83802 3.20806 0
M  V30 3049 H 295.601 -0.779942 2.89373 0
M  V30 3050 H 293.162 -0.279125 1.59476 0
M  V30 3051 H 295.154 -3.26166 2.39578 0
M  V30 3052 H 293.724 -2.76619 1.45605 0
M  V30 3053 H 292.944 -1.55058 3.62423 0
M  V30 3054 H 294.232 -2.42265 4.4742 0
M  V30 3055 H 293.63 -5.01112 2.62494 0
M  V30 3056 H 292.187 -5.58543 3.35966 0
M  V30 3057 N 295.62 -1.53406 -0.361157 0
M  V30 3058 C 296.552 -1.76446 -1.46286 0
M  V30 3059 C 297.565 -0.645322 -1.49464 0
M  V30 3060 O 298.754 -0.921681 -1.52864 0
M  V30 3061 C 295.854 -1.83332 -2.85031 0
M  V30 3062 C 295.027 -3.13033 -3.05498 0
M  V30 3063 C 294.086 -3.11104 -4.24383 0
M  V30 3064 O 293.112 -3.84888 -4.19344 0
M  V30 3065 N 294.314 -2.32234 -5.32022 0
M  V30 3066 H 297.079 -2.71508 -1.26899 0
M  V30 3067 H 294.64 -1.52238 -0.550915 0
M  V30 3068 H 296.632 -1.79514 -3.62708 0
M  V30 3069 H 295.202 -0.955342 -2.97644 0
M  V30 3070 H 294.422 -3.30119 -2.15442 0
M  V30 3071 H 295.71 -3.9874 -3.16044 0
M  V30 3072 H 295.108 -1.71807 -5.38979 0
M  V30 3073 H 293.665 -2.3423 -6.08259 0
M  V30 3074 N 297.098 0.621204 -1.44841 0
M  V30 3075 C 298.338 1.39201 -1.49674 0
M  V30 3076 C 298.702 1.91561 -0.129764 0
M  V30 3077 O 299.903 2.68748 -0.0527814 0
M  V30 3078 C 298.174 2.519 -2.53537 0
M  V30 3079 S 299.733 3.39916 -2.77494 0
M  V30 3080 H 296.551 0.474758 -0.529269 0
M  V30 3081 H 299.153 0.718171 -1.81831 0
M  V30 3082 H 297.857 2.11761 -3.51547 0
M  V30 3083 H 297.388 3.241 -2.22986 0
M  V30 3084 H 299.403 4.49646 -2.0984 0
M  V30 3085 N 298.576 1.31904 0.862503 0
M  V30 3086 C 299.801 1.25135 1.65397 0
M  V30 3087 C 300.226 -0.179 1.87246 0
M  V30 3088 O 299.584 -1.1277 1.4196 0
M  V30 3089 C 299.632 2.00832 2.99498 0
M  V30 3090 O 298.736 1.35075 3.89652 0
M  V30 3091 H 298.077 0.431655 0.504549 0
M  V30 3092 H 300.607 1.74094 1.07483 0
M  V30 3093 H 300.617 2.10709 3.49379 0
M  V30 3094 H 299.292 3.04847 2.82916 0
M  V30 3095 H 297.869 1.33696 3.48109 0
M  V30 3096 N 300.054 -1.07777 1.14986 0
M  V30 3097 C 300.984 -2.16865 0.865557 0
M  V30 3098 C 301.965 -1.69123 -0.182083 0
M  V30 3099 O 303.15 -1.94164 -0.0373815 0
M  V30 3100 C 300.28 -3.45539 0.349313 0
M  V30 3101 C 299.234 -4.06708 1.33313 0
M  V30 3102 C 298.56 -5.30411 0.675918 0
M  V30 3103 C 299.86 -4.47241 2.69764 0
M  V30 3104 H 301.554 -2.40905 1.77778 0
M  V30 3105 H 299.1 -1.15781 0.856203 0
M  V30 3106 H 301.053 -4.21174 0.137983 0
M  V30 3107 H 299.777 -3.21072 -0.598362 0
M  V30 3108 H 298.436 -3.33112 1.53075 0
M  V30 3109 H 298.084 -5.02232 -0.277767 0
M  V30 3110 H 297.784 -5.72293 1.33244 0
M  V30 3111 H 299.308 -6.08755 0.474262 0
M  V30 3112 H 300.722 -5.14025 2.53873 0
M  V30 3113 H 299.119 -5.00062 3.3175 0
M  V30 3114 H 300.189 -3.58818 3.26156 0
M  V30 3115 N 301.532 -0.945985 -1.26051 0
M  V30 3116 C 302.778 -0.597002 -1.93814 0
M  V30 3117 C 303.111 0.862484 -1.73997 0
M  V30 3118 O 302.386 1.61769 -1.07986 0
M  V30 3119 C 302.669 -0.945937 -3.47454 0
M  V30 3120 C 302.522 -2.46052 -3.76535 0
M  V30 3121 C 303.841 -0.464785 -4.37639 0
M  V30 3122 H 300.96 -0.218366 -0.703907 0
M  V30 3123 H 303.602 -1.18107 -1.48831 0
M  V30 3124 H 301.752 -0.448902 -3.85898 0
M  V30 3125 H 303.424 -3.03065 -3.47778 0
M  V30 3126 H 301.667 -2.90194 -3.22444 0
M  V30 3127 H 302.338 -2.65517 -4.83947 0
M  V30 3128 H 304.814 -0.891016 -4.06448 0
M  V30 3129 H 303.69 -0.737712 -5.4392 0
M  V30 3130 H 303.951 0.635274 -4.37512 0
M  V30 3131 N 303.011 1.40521 -0.713556 0
M  V30 3132 C 304.288 1.94775 -0.17943 0
M  V30 3133 C 304.668 1.65184 1.31444 0
M  V30 3134 O 304.016 0.968429 2.06963 0
M  V30 3135 C 304.226 3.45543 -0.489986 0
M  V30 3136 C 305.574 4.22442 -0.427536 0
M  V30 3137 O 306.598 3.53644 -0.425929 0
M  V30 3138 O 305.457 5.4501 -0.403292 0
M  V30 3139 H 302.551 0.826606 -0.0255192 0
M  V30 3140 H 305.097 1.5014 -0.790949 0
M  V30 3141 H 303.869 3.60432 -1.5233 0
M  V30 3142 H 303.492 3.97311 0.151598 0
M  V30 3143 N 304.489 0.459591 1.5075 0
M  V30 3144 C 305.737 -0.0991532 2.01857 0
M  V30 3145 C 306.058 -1.41247 1.34441 0
M  V30 3146 O 305.328 -1.89775 0.486022 0
M  V30 3147 H 303.908 -0.039633 0.745948 0
M  V30 3148 H 306.57 0.607387 1.85194 0
M  V30 3149 H 305.666 -0.258998 3.11023 0
M  V30 3150 N 305.967 -1.56429 0.191757 0
M  V30 3151 C 306.914 -2.18936 -0.730454 0
M  V30 3152 C 307.884 -1.13557 -1.21219 0
M  V30 3153 O 309.069 -1.41794 -1.27668 0
M  V30 3154 C 306.209 -2.85013 -1.9458 0
M  V30 3155 C 305.322 -4.04909 -1.50574 0
M  V30 3156 C 304.457 -4.58853 -2.67634 0
M  V30 3157 C 303.496 -5.71114 -2.20217 0
M  V30 3158 N 302.633 -6.19478 -3.30442 0
M  V30 3159 H 307.473 -2.97389 -0.190664 0
M  V30 3160 H 305.01 -1.46869 -0.0823694 0
M  V30 3161 H 306.968 -3.21492 -2.65893 0
M  V30 3162 H 305.598 -2.09129 -2.45896 0
M  V30 3163 H 304.65 -3.74115 -0.688605 0
M  V30 3164 H 305.962 -4.86113 -1.11784 0
M  V30 3165 H 305.116 -4.97619 -3.47074 0
M  V30 3166 H 303.855 -3.76749 -3.09696 0
M  V30 3167 H 302.86 -5.31879 -1.3923 0
M  V30 3168 H 304.085 -6.55033 -1.79189 0
M  V30 3169 H 302.031 -5.40297 -3.72041 0
M  V30 3170 H 301.948 -6.95725 -2.9581 0
M  V30 3171 H 303.216 -6.62898 -4.10106 0
M  V30 3172 N 307.445 0.0818655 -1.57387 0
M  V30 3173 C 308.393 1.11712 -2.04018 0
M  V30 3174 C 309.387 1.40683 -0.94364 0
M  V30 3175 O 310.593 1.40209 -1.12878 0
M  V30 3176 H 306.968 0.377542 -0.650358 0
M  V30 3177 H 308.939 0.697614 -2.90131 0
M  V30 3178 C 307.688 2.42537 -2.49141 0
M  V30 3179 H 307.011 2.21092 -3.33104 0
M  V30 3180 H 308.451 3.13446 -2.85531 0
M  V30 3181 C 306.91 3.0778 -1.37014 0
M  V30 3182 O 307.44 3.95436 -0.706621 0
M  V30 3183 N 305.646 2.68242 -1.11779 0
M  V30 3184 H 305.193 1.97052 -1.65917 0
M  V30 3185 H 305.151 3.1222 -0.369594 0
M  V30 3186 N 308.923 1.53595 0.353017 0
M  V30 3187 C 310.151 1.74311 1.1146 0
M  V30 3188 C 310.566 0.477854 1.82653 0
M  V30 3189 O 309.923 -0.549977 1.74016 0
M  V30 3190 C 309.974 2.91694 2.13534 0
M  V30 3191 O 309.695 4.13325 1.45238 0
M  V30 3192 C 311.196 3.24384 3.02142 0
M  V30 3193 H 308.416 0.582669 0.332773 0
M  V30 3194 H 310.96 2.00386 0.408107 0
M  V30 3195 H 309.115 2.67977 2.79763 0
M  V30 3196 H 309.529 4.79148 2.13349 0
M  V30 3197 H 311.003 4.09893 3.69718 0
M  V30 3198 H 311.48 2.40282 3.67643 0
M  V30 3199 H 312.086 3.50073 2.41514 0
M  V30 3200 N 310.401 -0.613514 1.45168 0
M  V30 3201 C 311.648 -1.37268 1.48875 0
M  V30 3202 C 311.976 -1.94077 0.128161 0
M  V30 3203 O 311.231 -1.75178 -0.872416 0
M  V30 3204 C 311.53 -2.54347 2.51083 0
M  V30 3205 C 311.196 -2.1572 3.95949 0
M  V30 3206 C 309.858 -2.04899 4.35396 0
M  V30 3207 C 312.21 -1.85485 4.87078 0
M  V30 3208 C 309.538 -1.62057 5.63875 0
M  V30 3209 C 311.89 -1.4413 6.15962 0
M  V30 3210 C 310.554 -1.31863 6.54346 0
M  V30 3211 H 309.824 -0.502299 0.544773 0
M  V30 3212 H 312.471 -0.694021 1.78481 0
M  V30 3213 H 310.776 -3.27524 2.15024 0
M  V30 3214 H 312.473 -3.12577 2.51191 0
M  V30 3215 H 309.063 -2.25066 3.64751 0
M  V30 3216 H 313.247 -1.92745 4.57343 0
M  V30 3217 H 308.503 -1.51177 5.92415 0
M  V30 3218 H 312.677 -1.19778 6.86022 0
M  V30 3219 H 310.304 -0.984392 7.538 0
M  V30 3220 N 311.879 -1.3236 -0.855495 0
M  V30 3221 C 313.104 -1.2601 -1.64731 0
M  V30 3222 C 313.529 0.169068 -1.87339 0
M  V30 3223 O 312.887 1.12016 -1.42556 0
M  V30 3224 C 312.935 -2.02417 -2.98429 0
M  V30 3225 O 312.039 -1.3714 -3.8893 0
M  V30 3226 H 311.38 -0.434325 -0.502253 0
M  V30 3227 H 313.91 -1.74661 -1.06558 0
M  V30 3228 H 313.92 -2.12559 -3.48257 0
M  V30 3229 H 312.595 -3.06343 -2.81295 0
M  V30 3230 H 311.172 -1.3554 -3.47395 0
M  V30 3231 N 313.357 1.07166 -1.15556 0
M  V30 3232 C 314.32 2.12589 -0.856644 0
M  V30 3233 C 315.32 1.6015 0.14444 0
M  V30 3234 O 316.51 1.7399 -0.0854163 0
M  V30 3235 C 313.642 3.39753 -0.279405 0
M  V30 3236 H 314.835 2.40539 -1.79112 0
M  V30 3237 H 312.388 1.23086 -0.963298 0
M  V30 3238 H 313.123 3.17447 0.663174 0
M  V30 3239 H 312.908 3.79117 -1.00063 0
M  V30 3240 H 314.398 4.17507 -0.0879113 0
M  V30 3241 N 314.835 0.952656 1.25548 0
M  V30 3242 C 315.782 0.47008 2.25962 0
M  V30 3243 C 316.752 -0.476384 1.59122 0
M  V30 3244 O 317.937 -0.39007 1.8677 0
M  V30 3245 C 315.077 -0.247881 3.44209 0
M  V30 3246 C 314.19 0.735591 4.25691 0
M  V30 3247 C 313.325 -0.0047306 5.312 0
M  V30 3248 C 312.364 0.969805 6.04368 0
M  V30 3249 N 311.501 0.260486 7.01617 0
M  V30 3250 H 316.341 1.33126 2.66611 0
M  V30 3251 H 313.878 0.66765 1.31076 0
M  V30 3252 H 315.836 -0.680695 4.1161 0
M  V30 3253 H 314.466 -1.07312 3.0444 0
M  V30 3254 H 313.518 1.28689 3.57971 0
M  V30 3255 H 314.83 1.47934 4.76358 0
M  V30 3256 H 313.984 -0.496275 6.04667 0
M  V30 3257 H 312.723 -0.781282 4.81401 0
M  V30 3258 H 311.728 1.47237 5.29718 0
M  V30 3259 H 312.953 1.74655 6.56256 0
M  V30 3260 H 310.899 -0.497364 6.54112 0
M  V30 3261 H 310.816 0.943362 7.50091 0
M  V30 3262 H 312.084 -0.209587 7.79218 0
M  V30 3263 N 316.313 -1.40141 0.720998 0
M  V30 3264 C 317.543 -2.04798 0.27226 0
M  V30 3265 C 317.951 -1.54442 -1.09289 0
M  V30 3266 O 317.294 -0.698342 -1.69908 0
M  V30 3267 C 317.356 -3.59048 0.18027 0
M  V30 3268 C 317.02 -4.32317 1.48159 0
M  V30 3269 C 318.017 -4.59902 2.42458 0
M  V30 3270 C 315.702 -4.71125 1.74202 0
M  V30 3271 C 317.696 -5.25288 3.61042 0
M  V30 3272 C 315.383 -5.36242 2.93066 0
M  V30 3273 C 316.381 -5.63254 3.86308 0
M  V30 3274 O 316.069 -6.27024 5.03086 0
M  V30 3275 H 315.801 -0.665419 0.119139 0
M  V30 3276 H 318.355 -1.80436 0.981432 0
M  V30 3277 H 316.585 -3.82251 -0.58489 0
M  V30 3278 H 318.274 -4.05221 -0.234618 0
M  V30 3279 H 319.04 -4.30379 2.23604 0
M  V30 3280 H 314.919 -4.49466 1.02477 0
M  V30 3281 H 318.463 -5.46289 4.33837 0
M  V30 3282 H 314.36 -5.65185 3.11826 0
M  V30 3283 H 315.128 -6.4552 5.03235 0
M  V30 3284 N 317.792 -0.46758 -1.50504 0
M  V30 3285 C 318.724 0.364655 -2.26281 0
M  V30 3286 C 319.737 0.960151 -1.31472 0
M  V30 3287 O 320.926 0.849153 -1.57008 0
M  V30 3288 C 318.026 1.52509 -3.02645 0
M  V30 3289 C 317.199 1.04302 -4.24782 0
M  V30 3290 C 316.258 2.07709 -4.8347 0
M  V30 3291 O 315.284 1.65913 -5.44483 0
M  V30 3292 N 316.486 3.40485 -4.70159 0
M  V30 3293 H 319.251 -0.28495 -2.98342 0
M  V30 3294 H 316.812 -0.298163 -1.59131 0
M  V30 3295 H 318.804 2.21371 -3.38787 0
M  V30 3296 H 317.374 2.07945 -2.33404 0
M  V30 3297 H 316.594 0.180393 -3.93787 0
M  V30 3298 H 317.882 0.698798 -5.03978 0
M  V30 3299 H 317.28 3.77155 -4.21629 0
M  V30 3300 H 315.837 4.05156 -5.1058 0
M  V30 3301 N 319.27 1.56325 -0.20005 0
M  V30 3302 C 320.202 2.16555 0.750771 0
M  V30 3303 C 321.215 1.12871 1.1732 0
M  V30 3304 O 322.404 1.39943 1.10807 0
M  V30 3305 C 319.504 2.71684 2.02586 0
M  V30 3306 C 318.677 4.00321 1.76244 0
M  V30 3307 C 317.736 4.40227 2.88248 0
M  V30 3308 O 316.762 5.07552 2.57642 0
M  V30 3309 N 317.964 4.04138 4.16717 0
M  V30 3310 H 320.729 2.98772 0.235685 0
M  V30 3311 H 318.29 1.6189 -0.0182594 0
M  V30 3312 H 320.282 2.95363 2.76664 0
M  V30 3313 H 318.852 1.93893 2.45202 0
M  V30 3314 H 318.072 3.84723 0.85919 0
M  V30 3315 H 319.36 4.84279 1.56048 0
M  V30 3316 H 318.758 3.49993 4.44434 0
M  V30 3317 H 317.315 4.32756 4.87407 0
M  V30 3318 N 320.748 -0.0735177 1.57428 0
M  V30 3319 C 321.658 -1.10547 2.06922 0
M  V30 3320 C 322.674 -1.42506 0.998402 0
M  V30 3321 O 323.85 -1.52717 1.31299 0
M  V30 3322 C 320.915 -2.40019 2.50184 0
M  V30 3323 C 319.976 -2.15046 3.71556 0
M  V30 3324 C 319.209 -3.38345 4.12745 0
M  V30 3325 O 319.432 -4.47399 3.53822 0
M  V30 3326 O 318.366 -3.2666 5.05546 0
M  V30 3327 H 322.192 -0.715013 2.95163 0
M  V30 3328 H 319.777 -0.287531 1.46607 0
M  V30 3329 H 321.659 -3.16218 2.78539 0
M  V30 3330 H 320.334 -2.78447 1.65072 0
M  V30 3331 H 319.241 -1.36558 3.48285 0
M  V30 3332 H 320.574 -1.81499 4.57514 0
M  V30 3333 N 322.226 -1.5378 -0.344866 0
M  V30 3334 C 323.637 -1.62428 -0.920552 0
M  V30 3335 C 323.988 -0.504747 -1.89596 0
M  V30 3336 O 323.113 0.365711 -2.13287 0
M  V30 3337 C 323.708 -2.94419 -1.67639 0
M  V30 3338 C 322.267 -3.05333 -2.20111 0
M  V30 3339 C 321.414 -2.57866 -1.01982 0
M  V30 3340 H 324.365 -1.58222 -0.123042 0
M  V30 3341 H 324.386 -2.83384 -2.53917 0
M  V30 3342 H 323.898 -3.7588 -0.966224 0
M  V30 3343 H 321.999 -2.28502 -2.94308 0
M  V30 3344 H 322.112 -4.10778 -2.46573 0
M  V30 3345 H 320.476 -2.13241 -1.39285 0
M  V30 3346 H 321.259 -3.41765 -0.324308 0
M  V30 3347 N 323.704 0.605807 -1.45491 0
M  V30 3348 C 324.952 1.36207 -1.49305 0
M  V30 3349 C 325.273 1.94519 -0.136863 0
M  V30 3350 O 324.543 1.77261 0.833983 0
M  V30 3351 H 323.123 0.50565 -0.549843 0
M  V30 3352 H 325.785 0.711239 -1.81459 0
M  V30 3353 H 324.881 2.18058 -2.23287 0
M  V30 3354 N 325.182 1.32811 0.848464 0
M  V30 3355 C 326.428 1.23907 1.60546 0
M  V30 3356 C 326.761 -0.197161 1.93197 0
M  V30 3357 O 326.036 -1.13596 1.5788 0
M  V30 3358 C 326.319 2.10489 2.92175 0
M  V30 3359 C 326.172 3.62522 2.66266 0
M  V30 3360 C 327.491 1.97075 3.93509 0
M  V30 3361 H 324.61 0.451459 0.58254 0
M  V30 3362 H 327.252 1.62818 0.979296 0
M  V30 3363 H 325.402 1.77434 3.45614 0
M  V30 3364 H 327.074 4.05821 2.19334 0
M  V30 3365 H 325.317 3.84879 2.00126 0
M  V30 3366 H 325.988 4.18437 3.6002 0
M  V30 3367 H 328.464 2.26045 3.49346 0
M  V30 3368 H 327.34 2.59923 4.83457 0
M  V30 3369 H 327.601 0.940186 4.31987 0
M  V30 3370 N 326.66 -1.06551 1.16123 0
M  V30 3371 C 327.885 -1.83544 0.965735 0
M  V30 3372 C 328.31 -1.81843 -0.481102 0
M  V30 3373 O 327.668 -1.21732 -1.34354 0
M  V30 3374 C 327.716 -3.28169 1.49457 0
M  V30 3375 O 326.82 -4.0643 0.699157 0
M  V30 3376 H 326.161 -0.568026 0.343864 0
M  V30 3377 H 328.691 -1.34362 1.54299 0
M  V30 3378 H 328.701 -3.78992 1.51092 0
M  V30 3379 H 327.376 -3.28722 2.54784 0
M  V30 3380 H 325.953 -3.65216 0.7531 0
M  V30 3381 N 328.138 -0.959301 -1.25041 0
M  V30 3382 C 329.386 -0.615393 -1.92503 0
M  V30 3383 C 329.707 0.850969 -1.75452 0
M  V30 3384 O 328.977 1.60658 -1.12098 0
M  V30 3385 H 327.557 -0.224613 -0.712431 0
M  V30 3386 H 330.219 -1.21855 -1.5211 0
M  V30 3387 H 329.315 -0.848738 -3.00338 0
M  V30 3388 N 329.616 1.39756 -0.72842 0
M  V30 3389 C 331.027 1.83498 -0.344289 0
M  V30 3390 C 331.378 1.60868 1.12321 0
M  V30 3391 O 330.503 1.09634 1.86573 0
M  V30 3392 C 331.098 3.33114 -0.618112 0
M  V30 3393 C 329.657 3.753 -0.287549 0
M  V30 3394 C 328.804 2.62831 -0.884048 0
M  V30 3395 H 331.755 1.28842 -0.926578 0
M  V30 3396 H 331.776 3.80334 0.112349 0
M  V30 3397 H 331.288 3.49553 -1.68625 0
M  V30 3398 H 329.389 3.64451 0.775012 0
M  V30 3399 H 329.502 4.72945 -0.765512 0
M  V30 3400 H 327.866 2.52792 -0.311149 0
M  V30 3401 H 328.649 2.82078 -1.95671 0
M  V30 3402 N 331.094 0.475555 1.50254 0
M  V30 3403 C 332.024 -0.30611 2.31485 0
M  V30 3404 C 333.005 -0.986228 1.38591 0
M  V30 3405 O 334.19 -0.982541 1.67511 0
M  V30 3406 C 331.32 -1.38588 3.1845 0
M  V30 3407 C 330.274 -0.827115 4.19932 0
M  V30 3408 C 329.6 -2.00551 4.95665 0
M  V30 3409 C 330.9 0.16463 5.2204 0
M  V30 3410 H 332.594 0.371866 2.97082 0
M  V30 3411 H 330.14 0.180282 1.42867 0
M  V30 3412 H 332.093 -1.94023 3.74076 0
M  V30 3413 H 330.817 -2.09269 2.50747 0
M  V30 3414 H 329.476 -0.294702 3.65414 0
M  V30 3415 H 329.124 -2.6994 4.2443 0
M  V30 3416 H 328.824 -1.63784 5.64313 0
M  V30 3417 H 330.348 -2.56468 5.54127 0
M  V30 3418 H 331.762 -0.300699 5.72511 0
M  V30 3419 H 330.159 0.446813 5.98434 0
M  V30 3420 H 331.229 1.08905 4.72512 0
M  V30 3421 N 332.573 -1.56217 0.208337 0
M  V30 3422 C 333.52 -2.19699 -0.707192 0
M  V30 3423 C 334.49 -1.14836 -1.20008 0
M  V30 3424 O 335.675 -1.4314 -1.26157 0
M  V30 3425 C 332.815 -2.87061 -1.91546 0
M  V30 3426 C 331.928 -4.06483 -1.46271 0
M  V30 3427 C 331.063 -4.61665 -2.62752 0
M  V30 3428 C 330.102 -5.73417 -2.14147 0
M  V30 3429 N 329.239 -6.22948 -3.23853 0
M  V30 3430 H 334.079 -2.97575 -0.159111 0
M  V30 3431 H 331.616 -1.46948 -0.0667874 0
M  V30 3432 H 333.574 -3.24294 -2.62468 0
M  V30 3433 H 332.204 -2.11725 -2.43664 0
M  V30 3434 H 331.256 -3.74825 -0.648886 0
M  V30 3435 H 332.568 -4.87271 -1.06622 0
M  V30 3436 H 331.722 -5.01272 -3.41776 0
M  V30 3437 H 330.461 -3.80013 -3.05682 0
M  V30 3438 H 329.466 -5.33326 -1.33581 0
M  V30 3439 H 330.691 -6.56897 -1.72232 0
M  V30 3440 H 328.637 -5.44213 -3.6629 0
M  V30 3441 H 328.554 -6.98823 -2.88414 0
M  V30 3442 H 329.822 -6.6721 -4.03052 0
M  V30 3443 N 334.051 0.0651679 -1.57465 0
M  V30 3444 C 335.297 0.764193 -1.87851 0
M  V30 3445 C 335.63 1.76889 -0.801495 0
M  V30 3446 O 334.905 1.93594 0.187528 0
M  V30 3447 C 335.188 1.46625 -3.28897 0
M  V30 3448 C 335.041 0.477515 -4.47258 0
M  V30 3449 C 336.36 2.4095 -3.68281 0
M  V30 3450 H 333.479 0.276351 -0.683227 0
M  V30 3451 H 336.121 0.0272868 -1.8998 0
M  V30 3452 H 334.271 2.09438 -3.27212 0
M  V30 3453 H 335.943 -0.145922 -4.61069 0
M  V30 3454 H 334.186 -0.206576 -4.33308 0
M  V30 3455 H 334.857 1.0065 -5.42746 0
M  V30 3456 H 337.333 1.88209 -3.71102 0
M  V30 3457 H 336.209 2.87072 -4.67847 0
M  V30 3458 H 336.47 3.26049 -2.98571 0
M  V30 3459 N 335.529 1.53961 0.336706 0
M  V30 3460 C 336.777 1.71197 1.07405 0
M  V30 3461 C 337.098 0.481475 1.88962 0
M  V30 3462 O 336.368 -0.504585 1.8929 0
M  V30 3463 H 334.948 0.631185 0.399517 0
M  V30 3464 H 337.61 1.91232 0.376323 0
M  V30 3465 H 336.706 2.58587 1.74755 0
M  V30 3466 N 337.007 -0.598083 1.45811 0
M  V30 3467 C 337.955 -1.72932 1.55555 0
M  V30 3468 C 338.949 -1.63984 0.424921 0
M  V30 3469 O 340.155 -1.69663 0.601205 0
M  V30 3470 H 336.53 -0.571489 0.488779 0
M  V30 3471 H 338.501 -1.61842 2.50699 0
M  V30 3472 C 337.25 -3.11318 1.54843 0
M  V30 3473 H 336.573 -3.18867 2.41172 0
M  V30 3474 H 338.013 -3.90274 1.65717 0
M  V30 3475 C 336.472 -3.3578 0.274427 0
M  V30 3476 O 337.002 -3.9654 -0.641778 0
M  V30 3477 N 335.208 -2.90119 0.167139 0
M  V30 3478 H 334.755 -2.40855 0.913596 0
M  V30 3479 H 334.713 -3.0686 -0.684435 0
M  V30 3480 N 338.485 -1.33259 -0.841409 0
M  V30 3481 C 339.71 -1.2775 -1.63385 0
M  V30 3482 C 340.135 0.149188 -1.87507 0
M  V30 3483 O 339.493 1.10498 -1.43736 0
M  V30 3484 C 339.541 -2.05571 -2.96265 0
M  V30 3485 O 338.645 -1.41257 -3.87453 0
M  V30 3486 H 337.986 -0.439627 -0.497618 0
M  V30 3487 H 340.516 -1.75782 -1.04699 0
M  V30 3488 H 340.526 -2.16241 -3.45982 0
M  V30 3489 H 339.201 -3.09309 -2.7803 0
M  V30 3490 H 337.778 -1.39217 -3.45938 0
M  V30 3491 N 339.963 1.05934 -1.16686 0
M  V30 3492 C 340.893 2.1546 -0.899949 0
M  V30 3493 C 341.874 1.69391 0.155154 0
M  V30 3494 O 343.059 1.94199 0.00648693 0
M  V30 3495 C 340.189 3.44939 -0.404241 0
M  V30 3496 C 339.143 4.04536 -1.39767 0
M  V30 3497 C 338.469 5.29268 -0.760216 0
M  V30 3498 C 339.769 4.42893 -2.76845 0
M  V30 3499 H 341.463 2.38046 -1.81588 0
M  V30 3500 H 339.009 1.14404 -0.874514 0
M  V30 3501 H 340.962 4.20901 -0.204971 0
M  V30 3502 H 339.686 3.21983 0.547206 0
M  V30 3503 H 338.345 3.30635 -1.58355 0
M  V30 3504 H 337.993 5.02611 0.197831 0
M  V30 3505 H 337.693 5.70101 -1.42332 0
M  V30 3506 H 339.217 6.07924 -0.57105 0
M  V30 3507 H 340.631 5.09921 -2.62019 0
M  V30 3508 H 339.028 4.94721 -3.39663 0
M  V30 3509 H 340.098 3.53584 -3.31823 0
M  V30 3510 N 341.441 0.965919 1.2453 0
M  V30 3511 C 342.687 0.62776 1.92839 0
M  V30 3512 C 343.02 -0.834694 1.75347 0
M  V30 3513 O 342.295 -1.60031 1.10546 0
M  V30 3514 C 342.578 1.00109 3.45905 0
M  V30 3515 C 342.431 2.52011 3.72573 0
M  V30 3516 C 343.75 0.53435 4.36844 0
M  V30 3517 H 340.869 0.229537 0.700344 0
M  V30 3518 H 343.511 1.2046 1.46933 0
M  V30 3519 H 341.661 0.510238 3.85135 0
M  V30 3520 H 343.333 3.08559 3.42912 0
M  V30 3521 H 341.576 2.95287 3.17786 0
M  V30 3522 H 342.247 2.73183 4.79661 0
M  V30 3523 H 344.723 0.955565 4.04979 0
M  V30 3524 H 343.599 0.824152 5.42678 0
M  V30 3525 H 343.86 -0.565589 4.38467 0
M  V30 3526 N 342.919 -1.39368 0.735821 0
M  V30 3527 C 344.196 -1.94465 0.210395 0
M  V30 3528 C 344.576 -1.67254 -1.28799 0
M  V30 3529 O 343.924 -1.00123 -2.05396 0
M  V30 3530 C 344.134 -3.4472 0.544897 0
M  V30 3531 C 345.482 -4.21708 0.494689 0
M  V30 3532 O 346.506 -3.52922 0.482136 0
M  V30 3533 O 345.365 -5.44299 0.489947 0
M  V30 3534 H 342.459 -0.826096 0.0386666 0
M  V30 3535 H 345.005 -1.48863 0.814735 0
M  V30 3536 H 343.777 -3.57963 1.58045 0
M  V30 3537 H 343.4 -3.97502 -0.08837 0
M  V30 3538 N 344.397 -0.483516 -1.5 0
M  V30 3539 C 345.36 0.292965 -2.2732 0
M  V30 3540 C 346.36 0.909499 -1.32608 0
M  V30 3541 O 347.55 0.776745 -1.55924 0
M  V30 3542 C 344.682 1.41854 -3.09984 0
M  V30 3543 H 345.875 -0.385289 -2.97415 0
M  V30 3544 H 343.428 -0.237942 -1.54478 0
M  V30 3545 H 344.163 2.13148 -2.44414 0
M  V30 3546 H 343.948 0.982114 -3.79601 0
M  V30 3547 H 345.438 1.96597 -3.68429 0
M  V30 3548 N 345.875 1.56104 -0.216619 0
M  V30 3549 C 347.122 1.98172 0.416416 0
M  V30 3550 C 347.45 1.10413 1.60122 0
M  V30 3551 O 346.705 0.147967 1.9514 0
M  V30 3552 C 347.004 3.45923 0.898464 0
M  V30 3553 C 346.67 4.50559 -0.175288 0
M  V30 3554 C 345.332 4.78897 -0.470271 0
M  V30 3555 C 347.684 5.1334 -0.901728 0
M  V30 3556 C 345.012 5.67299 -1.4963 0
M  V30 3557 C 347.364 6.02853 -1.91705 0
M  V30 3558 C 346.028 6.29537 -2.21901 0
M  V30 3559 H 345.298 0.725164 0.152377 0
M  V30 3560 H 347.945 1.88839 -0.318103 0
M  V30 3561 H 346.25 3.52434 1.71165 0
M  V30 3562 H 347.947 3.75841 1.39803 0
M  V30 3563 H 344.537 4.28551 0.0647806 0
M  V30 3564 H 348.721 4.91521 -0.687072 0
M  V30 3565 H 343.977 5.86239 -1.73592 0
M  V30 3566 H 348.151 6.50552 -2.48505 0
M  V30 3567 H 345.778 6.97835 -3.01548 0
M  V30 3568 N 347.353 -0.0568162 1.57498 0
M  V30 3569 C 348.581 -0.765626 1.92213 0
M  V30 3570 C 348.996 -1.70353 0.813961 0
M  V30 3571 O 348.353 -1.81268 -0.211701 0
M  V30 3572 C 348.404 -1.5465 3.2675 0
M  V30 3573 O 348.125 -0.646278 4.33307 0
M  V30 3574 C 349.626 -2.35497 3.75574 0
M  V30 3575 H 346.846 -0.216835 0.634999 0
M  V30 3576 H 349.39 -0.0226146 2.04487 0
M  V30 3577 H 347.545 -2.24165 3.15957 0
M  V30 3578 H 347.959 -1.19093 5.108 0
M  V30 3579 H 349.433 -2.85722 4.72299 0
M  V30 3580 H 349.91 -3.15692 3.05344 0
M  V30 3581 H 350.516 -1.7111 3.8936 0
M  V30 3582 N 348.832 -1.54138 -0.328536 0
M  V30 3583 C 349.762 -1.86167 -1.40939 0
M  V30 3584 C 350.743 -0.718044 -1.54202 0
M  V30 3585 O 351.928 -0.971328 -1.68163 0
M  V30 3586 C 349.058 -2.08461 -2.77779 0
M  V30 3587 C 348.012 -3.24299 -2.7931 0
M  V30 3588 C 347.338 -3.31955 -4.19178 0
M  V30 3589 C 348.638 -4.62065 -2.43502 0
M  V30 3590 H 350.332 -2.76689 -1.14383 0
M  V30 3591 H 347.878 -1.33132 -0.548806 0
M  V30 3592 H 349.831 -2.29453 -3.53454 0
M  V30 3593 H 348.555 -1.14684 -3.05802 0
M  V30 3594 H 347.214 -3.03187 -2.0609 0
M  V30 3595 H 346.862 -2.35745 -4.44335 0
M  V30 3596 H 346.562 -4.09805 -4.2111 0
M  V30 3597 H 348.086 -3.55175 -4.96672 0
M  V30 3598 H 349.5 -4.8297 -3.08889 0
M  V30 3599 H 347.897 -5.42429 -2.56693 0
M  V30 3600 H 348.967 -4.64652 -1.38659 0
M  V30 3601 N 350.31 0.590341 -1.46126 0
M  V30 3602 C 351.242 1.71427 -1.52136 0
M  V30 3603 C 352.255 1.57542 -0.41042 0
M  V30 3604 O 353.444 1.65106 -0.678389 0
M  V30 3605 C 350.544 3.09605 -1.37834 0
M  V30 3606 C 349.717 3.49566 -2.62912 0
M  V30 3607 C 348.776 4.66773 -2.42918 0
M  V30 3608 O 347.802 4.73019 -3.1661 0
M  V30 3609 N 349.004 5.61161 -1.4859 0
M  V30 3610 H 351.769 1.66728 -2.49042 0
M  V30 3611 H 349.33 0.776113 -1.42085 0
M  V30 3612 H 351.322 3.85796 -1.22243 0
M  V30 3613 H 349.892 3.08714 -0.491393 0
M  V30 3614 H 349.112 2.63158 -2.93499 0
M  V30 3615 H 350.4 3.73028 -3.46017 0
M  V30 3616 H 349.798 5.58844 -0.87808 0
M  V30 3617 H 348.355 6.36814 -1.38965 0
M  V30 3618 N 351.788 1.33704 0.83433 0
M  V30 3619 C 353.018 1.28281 1.6195 0
M  V30 3620 C 353.426 -0.147603 1.88623 0
M  V30 3621 O 352.769 -1.1016 1.47005 0
M  V30 3622 C 352.831 1.99386 2.99141 0
M  V30 3623 C 352.495 3.48681 2.95416 0
M  V30 3624 C 353.492 4.438 2.70809 0
M  V30 3625 C 351.177 3.90925 3.15409 0
M  V30 3626 C 353.171 5.79138 2.66229 0
M  V30 3627 C 350.858 5.26366 3.10454 0
M  V30 3628 C 351.856 6.20284 2.85895 0
M  V30 3629 O 351.544 7.53245 2.80852 0
M  V30 3630 H 351.276 0.44315 0.510484 0
M  V30 3631 H 353.83 1.76711 1.04702 0
M  V30 3632 H 352.06 1.45554 3.58261 0
M  V30 3633 H 353.749 1.87403 3.60049 0
M  V30 3634 H 354.515 4.12485 2.5511 0
M  V30 3635 H 350.394 3.18229 3.33543 0
M  V30 3636 H 353.938 6.52416 2.4698 0
M  V30 3637 H 349.835 5.57304 3.25703 0
M  V30 3638 H 350.603 7.62846 2.96661 0
M  V30 3639 N 353.266 -1.05314 1.17247 0
M  V30 3640 C 354.496 -1.81707 0.983166 0
M  V30 3641 C 354.904 -1.83222 -0.471822 0
M  V30 3642 O 354.247 -1.25721 -1.3394 0
M  V30 3643 C 354.309 -3.29134 1.44606 0
M  V30 3644 C 353.973 -3.51304 2.92292 0
M  V30 3645 C 354.97 -3.4353 3.90235 0
M  V30 3646 C 352.655 -3.78306 3.30439 0
M  V30 3647 C 354.649 -3.62442 5.24323 0
M  V30 3648 C 352.336 -3.96866 4.64694 0
M  V30 3649 C 353.334 -3.88933 5.61445 0
M  V30 3650 O 353.022 -4.06976 6.93272 0
M  V30 3651 H 352.754 -0.579476 0.348114 0
M  V30 3652 H 355.308 -1.33705 1.55924 0
M  V30 3653 H 353.538 -3.78046 0.813537 0
M  V30 3654 H 355.227 -3.87049 1.22262 0
M  V30 3655 H 355.993 -3.22648 3.62109 0
M  V30 3656 H 351.872 -3.83585 2.55702 0
M  V30 3657 H 355.416 -3.56165 5.99827 0
M  V30 3658 H 351.313 -4.1724 4.92525 0
M  V30 3659 H 352.081 -4.24209 6.99992 0
M  V30 3660 N 354.744 -0.972509 -1.24016 0
M  V30 3661 C 355.654 -0.5143 -2.28893 0
M  V30 3662 C 356.67 0.427078 -1.68677 0
M  V30 3663 O 357.846 0.298939 -1.99169 0
M  V30 3664 C 354.911 0.183598 -3.46214 0
M  V30 3665 C 353.972 -0.798202 -4.21814 0
M  V30 3666 C 353.205 -0.133514 -5.33533 0
M  V30 3667 O 353.428 1.07714 -5.60137 0
M  V30 3668 O 352.362 -0.828103 -5.96176 0
M  V30 3669 H 356.188 -1.38629 -2.70214 0
M  V30 3670 H 353.773 -0.739769 -1.29799 0
M  V30 3671 H 355.655 0.575433 -4.17453 0
M  V30 3672 H 354.33 1.03048 -3.0686 0
M  V30 3673 H 353.237 -1.24059 -3.52931 0
M  V30 3674 H 354.57 -1.61364 -4.64997 0
M  V30 3675 N 356.222 1.38976 -0.743202 0
M  V30 3676 C 357.47 1.99948 -0.29417 0
M  V30 3677 C 357.791 1.59279 1.12495 0
M  V30 3678 O 357.061 0.844808 1.76748 0
M  V30 3679 H 355.641 0.739473 -0.105774 0
M  V30 3680 H 358.303 1.699 -0.954986 0
M  V30 3681 H 357.399 3.10142 -0.349056 0
M  V30 3682 N 357.7 0.491464 1.49741 0
M  V30 3683 C 358.947 -0.0564256 2.02421 0
M  V30 3684 C 359.275 -1.37872 1.37192 0
M  V30 3685 O 358.53 -1.89375 0.493508 0
M  V30 3686 C 358.829 -0.267329 3.56399 0
M  V30 3687 C 358.495 0.975775 4.40215 0
M  V30 3688 C 357.157 1.31655 4.62839 0
M  V30 3689 C 359.509 1.80251 4.89039 0
M  V30 3690 C 356.837 2.48375 5.31532 0
M  V30 3691 C 359.189 2.96116 5.59015 0
M  V30 3692 C 357.853 3.30585 5.79888 0
M  V30 3693 H 357.123 -0.0206476 0.740712 0
M  V30 3694 H 359.77 0.649686 1.80143 0
M  V30 3695 H 358.075 -1.05588 3.77304 0
M  V30 3696 H 359.772 -0.705549 3.94744 0
M  V30 3697 H 356.362 0.700315 4.2284 0
M  V30 3698 H 360.546 1.55239 4.71396 0
M  V30 3699 H 355.802 2.7533 5.45897 0
M  V30 3700 H 359.976 3.60509 5.95824 0
M  V30 3701 H 357.603 4.21132 6.32892 0
M  V30 3702 N 359.178 -1.55987 0.224894 0
M  V30 3703 C 360.589 -1.84553 -0.282345 0
M  V30 3704 C 360.94 -1.14634 -1.59227 0
M  V30 3705 O 360.065 -0.417155 -2.12341 0
M  V30 3706 C 360.66 -3.348 -0.519062 0
M  V30 3707 C 359.219 -3.63671 -0.970604 0
M  V30 3708 C 358.366 -2.77277 -0.0355261 0
M  V30 3709 H 361.317 -1.52245 0.448006 0
M  V30 3710 H 361.338 -3.55187 -1.36463 0
M  V30 3711 H 360.85 -3.8566 0.43449 0
M  V30 3712 H 358.951 -3.1827 -1.9374 0
M  V30 3713 H 359.064 -4.71631 -0.842698 0
M  V30 3714 H 357.428 -2.48846 -0.542927 0
M  V30 3715 H 358.211 -3.30937 0.913003 0
M  V30 3716 N 360.656 0.0484629 -1.57525 0
M  V30 3717 C 361.589 1.08755 -2.00618 0
M  V30 3718 C 362.567 1.36272 -0.887058 0
M  V30 3719 O 363.751 1.49255 -1.15131 0
M  V30 3720 C 360.878 2.42675 -2.36277 0
M  V30 3721 C 359.924 2.31142 -3.58435 0
M  V30 3722 S 360.757 1.68326 -5.08357 0
M  V30 3723 C 361.913 3.03776 -5.47239 0
M  V30 3724 H 362.146 0.720415 -2.88439 0
M  V30 3725 H 359.679 0.257801 -1.52233 0
M  V30 3726 H 361.637 3.19699 -2.57494 0
M  V30 3727 H 360.298 2.76541 -1.48942 0
M  V30 3728 H 359.491 3.29957 -3.80978 0
M  V30 3729 H 359.093 1.62258 -3.36969 0
M  V30 3730 H 361.385 4.00106 -5.46737 0
M  V30 3731 H 362.328 2.85988 -6.47778 0
M  V30 3732 H 362.736 3.05456 -4.74718 0
M  V30 3733 N 362.134 1.5431 0.320358 0
M  V30 3734 C 363.411 1.63322 1.07635 0
M  V30 3735 C 363.791 0.46912 2.05821 0
M  V30 3736 O 363.139 -0.536274 2.22118 0
M  V30 3737 C 363.349 3.00465 1.77544 0
M  V30 3738 C 364.697 3.56621 2.30449 0
M  V30 3739 O 365.721 3.02791 1.87606 0
M  V30 3740 O 364.58 4.5083 3.08892 0
M  V30 3741 H 361.674 0.661502 0.496331 0
M  V30 3742 H 364.22 1.66656 0.319992 0
M  V30 3743 H 362.992 3.76629 1.06143 0
M  V30 3744 H 362.615 3.00824 2.59982 0
M  V30 3745 N 363.613 -0.582584 1.46437 0
M  V30 3746 C 364.545 -1.70618 1.53043 0
M  V30 3747 C 365.558 -1.57322 0.418769 0
M  V30 3748 O 366.747 -1.64744 0.687136 0
M  V30 3749 C 363.847 -3.08869 1.39474 0
M  V30 3750 C 363.02 -3.48166 2.64762 0
M  V30 3751 C 362.079 -4.65478 2.4539 0
M  V30 3752 O 361.105 -4.71333 3.19114 0
M  V30 3753 N 362.307 -5.60365 1.51564 0
M  V30 3754 H 365.072 -1.65405 2.49923 0
M  V30 3755 H 362.633 -0.768567 1.42494 0
M  V30 3756 H 364.625 -3.85143 1.24287 0
M  V30 3757 H 363.195 -3.08449 0.507758 0
M  V30 3758 H 362.415 -2.61598 2.9489 0
M  V30 3759 H 363.703 -3.71188 3.4799 0
M  V30 3760 H 363.101 -5.5837 0.907705 0
M  V30 3761 H 361.658 -6.36068 1.4234 0
M  V30 3762 N 365.091 -1.34144 -0.827227 0
M  V30 3763 C 366.337 -1.26446 -1.58554 0
M  V30 3764 C 366.67 0.1664 -1.93486 0
M  V30 3765 O 365.945 1.1107 -1.59667 0
M  V30 3766 C 366.228 -2.15111 -2.8879 0
M  V30 3767 C 366.081 -3.66712 -2.60465 0
M  V30 3768 C 367.4 -2.03311 -3.90324 0
M  V30 3769 H 364.519 -0.46067 -0.575284 0
M  V30 3770 H 367.161 -1.64356 -0.953269 0
M  V30 3771 H 365.311 -1.8291 -3.42748 0
M  V30 3772 H 366.983 -4.09259 -2.1285 0
M  V30 3773 H 365.226 -3.88014 -1.93978 0
M  V30 3774 H 365.897 -4.24112 -3.53317 0
M  V30 3775 H 368.373 -2.31574 -3.45706 0
M  V30 3776 H 367.249 -2.67582 -4.79261 0
M  V30 3777 H 367.51 -1.00879 -4.30437 0
M  V30 3778 N 366.569 1.04691 -1.17803 0
M  V30 3779 C 367.532 2.10724 -0.901545 0
M  V30 3780 C 368.532 1.6042 0.110437 0
M  V30 3781 O 369.722 1.7377 -0.122303 0
M  V30 3782 C 366.854 3.39084 -0.351409 0
M  V30 3783 H 368.047 2.36686 -1.84174 0
M  V30 3784 H 365.6 1.21015 -0.98919 0
M  V30 3785 H 366.335 3.18782 0.59569 0
M  V30 3786 H 366.12 3.76909 -1.08083 0
M  V30 3787 H 367.61 4.17227 -0.176451 0
M  V30 3788 N 368.047 0.979072 1.23499 0
M  V30 3789 C 369.293 0.6578 1.9247 0
M  V30 3790 C 369.648 -0.799746 1.74991 0
M  V30 3791 O 368.941 -1.56922 1.09937 0
M  V30 3792 C 369.135 0.981932 3.43646 0
M  V30 3793 C 368.964 2.46944 3.75831 0
M  V30 3794 C 367.734 3.13119 3.96591 0
M  V30 3795 C 369.932 3.45006 3.81412 0
M  V30 3796 N 367.914 4.51489 4.15969 0
M  V30 3797 C 369.285 4.68778 4.05768 0
M  V30 3798 C 371.34 3.39505 3.64198 0
M  V30 3799 C 370.043 5.87723 4.14697 0
M  V30 3800 C 372.069 4.57814 3.7438 0
M  V30 3801 C 371.431 5.80381 3.99171 0
M  V30 3802 H 367.53 0.291746 0.72554 0
M  V30 3803 H 370.114 1.25626 1.48749 0
M  V30 3804 H 368.285 0.412179 3.86207 0
M  V30 3805 H 370.017 0.618068 3.99953 0
M  V30 3806 H 366.772 2.63619 3.93449 0
M  V30 3807 H 367.196 5.23221 4.29615 0
M  V30 3808 H 371.838 2.45773 3.44029 0
M  V30 3809 H 369.556 6.81874 4.33675 0
M  V30 3810 H 373.142 4.55132 3.62417 0
M  V30 3811 H 372.022 6.70398 4.06861 0
M  V30 3812 N 369.525 -1.3858 0.750561 0
M  V30 3813 C 370.773 -1.99789 0.30477 0
M  V30 3814 C 371.094 -1.59874 -1.11649 0
M  V30 3815 O 370.364 -0.85417 -1.76297 0
M  V30 3816 H 368.944 -0.738902 0.109694 0
M  V30 3817 H 371.606 -1.69391 0.963983 0
M  V30 3818 H 370.702 -3.09952 0.365499 0
M  V30 3819 N 371.003 -0.499398 -1.49478 0
M  V30 3820 C 371.913 0.284489 -2.32869 0
M  V30 3821 C 372.929 0.968885 -1.44529 0
M  V30 3822 O 374.105 0.95062 -1.77553 0
M  V30 3823 C 371.17 1.33594 -3.19928 0
M  V30 3824 C 370.231 0.665149 -4.24116 0
M  V30 3825 C 369.464 1.6665 -5.07014 0
M  V30 3826 O 369.687 2.89618 -4.91404 0
M  V30 3827 O 368.621 1.22271 -5.8935 0
M  V30 3828 H 372.447 -0.39802 -3.01081 0
M  V30 3829 H 370.032 -0.260758 -1.47107 0
M  V30 3830 H 371.914 1.94431 -3.73864 0
M  V30 3831 H 370.589 2.0014 -2.54412 0
M  V30 3832 H 369.496 0.0170769 -3.74096 0
M  V30 3833 H 370.829 0.0421555 -4.92182 0
M  V30 3834 N 372.481 1.55866 -0.233164 0
M  V30 3835 C 373.73 1.97779 0.39579 0
M  V30 3836 C 374.043 1.12419 1.60066 0
M  V30 3837 O 375.249 1.44283 2.29988 0
M  V30 3838 C 373.705 3.5188 0.755556 0
M  V30 3839 C 373.313 4.45959 -0.427152 0
M  V30 3840 C 375.057 4.02479 1.34946 0
M  V30 3841 C 372.964 5.91383 -0.0443043 0
M  V30 3842 H 371.894 0.738592 0.15165 0
M  V30 3843 H 374.545 1.80486 -0.331212 0
M  V30 3844 H 372.927 3.64816 1.5403 0
M  V30 3845 H 374.101 4.44776 -1.20462 0
M  V30 3846 H 372.416 4.05765 -0.935068 0
M  V30 3847 H 375.013 5.08637 1.649 0
M  V30 3848 H 375.356 3.49014 2.26925 0
M  V30 3849 H 375.889 3.92813 0.62791 0
M  V30 3850 H 372.628 6.48857 -0.930874 0
M  V30 3851 H 372.148 5.95734 0.697238 0
M  V30 3852 H 373.827 6.45893 0.378334 0
M  V30 3853 N 373.959 -0.0401083 1.57549 0
M  V30 3854 C 374.906 -1.04413 2.05831 0
M  V30 3855 C 375.876 -1.36585 0.945184 0
M  V30 3856 O 377.061 -1.47112 1.21502 0
M  V30 3857 C 374.201 -2.34336 2.53339 0
M  V30 3858 C 373.314 -2.08419 3.78398 0
M  V30 3859 C 372.449 -3.32133 4.14561 0
M  V30 3860 C 371.488 -3.01721 5.3257 0
M  V30 3861 N 370.625 -4.17855 5.64218 0
M  V30 3862 H 375.465 -0.625442 2.91363 0
M  V30 3863 H 373.002 -0.297218 1.44066 0
M  V30 3864 H 374.96 -3.10234 2.78946 0
M  V30 3865 H 373.59 -2.73948 1.7074 0
M  V30 3866 H 372.642 -1.23069 3.59942 0
M  V30 3867 H 373.954 -1.81978 4.64419 0
M  V30 3868 H 373.108 -4.16406 4.41238 0
M  V30 3869 H 371.847 -3.61678 3.2717 0
M  V30 3870 H 370.852 -2.15849 5.05657 0
M  V30 3871 H 372.077 -2.73466 6.21605 0
M  V30 3872 H 370.023 -4.47372 4.79786 0
M  V30 3873 H 369.94 -3.94798 6.44725 0
M  V30 3874 H 371.208 -5.03033 5.95465 0
M  V30 3875 N 375.437 -1.54477 -0.31217 0
M  V30 3876 C 376.662 -1.77526 -1.07235 0
M  V30 3877 C 377.087 -0.527775 -1.80544 0
M  V30 3878 O 376.445 0.52121 -1.73646 0
M  V30 3879 C 376.493 -2.97535 -2.03728 0
M  V30 3880 O 375.597 -2.69878 -3.11833 0
M  V30 3881 H 374.938 -0.58792 -0.30862 0
M  V30 3882 H 377.468 -2.01532 -0.352993 0
M  V30 3883 H 377.478 -3.25198 -2.46395 0
M  V30 3884 H 376.153 -3.87996 -1.49774 0
M  V30 3885 H 374.73 -2.53199 -2.7376 0
M  V30 3886 N 376.915 0.57481 -1.46744 0
M  V30 3887 C 378.192 1.3352 -1.4294 0
M  V30 3888 C 378.572 2.10775 -0.117009 0
M  V30 3889 O 377.92 2.09966 0.901474 0
M  V30 3890 C 378.13 2.25456 -2.66403 0
M  V30 3891 C 379.478 2.87035 -3.12883 0
M  V30 3892 O 380.502 2.35766 -2.67007 0
M  V30 3893 O 379.361 3.80179 -3.92589 0
M  V30 3894 H 376.455 0.600318 -0.568812 0
M  V30 3895 H 379.001 0.595171 -1.58921 0
M  V30 3896 H 377.773 1.67851 -3.53471 0
M  V30 3897 H 377.396 3.06785 -2.52921 0
M  V30 3898 N 378.394 1.34581 0.820102 0
M  V30 3899 C 379.326 1.22236 1.93884 0
M  V30 3900 C 380.339 0.148776 1.62119 0
M  V30 3901 O 381.528 0.400877 1.7394 0
M  V30 3902 C 378.628 0.856542 3.27897 0
M  V30 3903 C 377.801 2.02569 3.87666 0
M  V30 3904 C 376.86 1.63782 5.00062 0
M  V30 3905 O 375.886 2.35477 5.18208 0
M  V30 3906 N 377.088 0.553611 5.77854 0
M  V30 3907 H 379.853 2.18615 2.05006 0
M  V30 3908 H 377.414 1.27573 0.99683 0
M  V30 3909 H 379.406 0.578806 4.0054 0
M  V30 3910 H 377.976 -0.0171518 3.12595 0
M  V30 3911 H 377.196 2.468 3.07382 0
M  V30 3912 H 378.484 2.80752 4.24329 0
M  V30 3913 H 377.882 -0.0423528 5.65684 0
M  V30 3914 H 376.439 0.335614 6.50935 0
M  V30 3915 N 379.872 -1.04064 1.18357 0
M  V30 3916 C 380.804 -2.12114 0.868358 0
M  V30 3917 C 381.817 -1.62247 -0.134045 0
M  V30 3918 O 383.006 -1.78253 0.0937933 0
M  V30 3919 C 380.106 -3.37773 0.276132 0
M  V30 3920 C 379.279 -4.16874 1.3242 0
M  V30 3921 C 378.338 -5.20861 0.747662 0
M  V30 3922 O 377.364 -5.51141 1.42239 0
M  V30 3923 N 378.566 -5.78715 -0.454823 0
M  V30 3924 H 381.331 -2.39748 1.79836 0
M  V30 3925 H 378.892 -1.20258 1.08396 0
M  V30 3926 H 380.884 -4.04513 -0.123133 0
M  V30 3927 H 379.454 -3.07581 -0.557895 0
M  V30 3928 H 378.674 -3.45456 1.89878 0
M  V30 3929 H 379.962 -4.66516 2.03078 0
M  V30 3930 H 379.36 -5.56415 -1.02073 0
M  V30 3931 H 377.917 -6.46921 -0.79601 0
M  V30 3932 N 381.35 -0.985608 -1.22978 0
M  V30 3933 C 382.596 -0.667998 -1.92118 0
M  V30 3934 C 382.951 0.790454 -1.75413 0
M  V30 3935 O 382.244 1.56336 -1.10768 0
M  V30 3936 C 382.438 -1.00014 -3.43121 0
M  V30 3937 C 382.267 -2.48933 -3.74516 0
M  V30 3938 C 381.037 -3.15218 -3.94925 0
M  V30 3939 C 383.235 -3.47024 -3.79577 0
M  V30 3940 N 381.217 -4.53689 -4.13569 0
M  V30 3941 C 382.588 -4.70923 -4.03276 0
M  V30 3942 C 384.643 -3.41432 -3.62393 0
M  V30 3943 C 383.346 -5.89914 -4.11574 0
M  V30 3944 C 385.372 -4.59793 -3.71947 0
M  V30 3945 C 384.734 -5.82489 -3.96088 0
M  V30 3946 H 380.833 -0.295589 -0.723983 0
M  V30 3947 H 383.417 -1.26413 -1.4808 0
M  V30 3948 H 381.588 -0.432655 -3.85983 0
M  V30 3949 H 383.32 -0.63927 -3.99619 0
M  V30 3950 H 380.075 -2.65702 -3.92045 0
M  V30 3951 H 380.499 -5.25492 -4.26834 0
M  V30 3952 H 385.141 -2.47594 -3.4272 0
M  V30 3953 H 382.859 -6.84164 -4.30053 0
M  V30 3954 H 386.445 -4.57048 -3.59998 0
M  V30 3955 H 385.325 -6.72546 -4.033 0
M  V30 3956 N 382.828 1.3818 -0.7579 0
M  V30 3957 C 383.775 2.30416 -0.133057 0
M  V30 3958 C 384.745 1.50398 0.704957 0
M  V30 3959 O 385.93 1.79014 0.660192 0
M  V30 3960 C 383.07 3.36834 0.750813 0
M  V30 3961 C 382.183 4.31879 -0.102297 0
M  V30 3962 C 381.318 5.25368 0.784979 0
M  V30 3963 C 380.357 6.12058 -0.0715046 0
M  V30 3964 N 379.494 6.97832 0.772972 0
M  V30 3965 H 384.334 2.83274 -0.925186 0
M  V30 3966 H 381.871 1.39461 -0.467866 0
M  V30 3967 H 383.829 3.97145 1.27794 0
M  V30 3968 H 382.459 2.85374 1.50868 0
M  V30 3969 H 381.511 3.72991 -0.747095 0
M  V30 3970 H 382.823 4.92921 -0.763552 0
M  V30 3971 H 381.977 5.90818 1.37911 0
M  V30 3972 H 380.716 4.64703 1.47996 0
M  V30 3973 H 379.721 5.456 -0.678272 0
M  V30 3974 H 380.946 6.74793 -0.763606 0
M  V30 3975 H 378.892 6.3971 1.45282 0
M  V30 3976 H 378.809 7.55812 0.168709 0
M  V30 3977 H 380.077 7.67687 1.35194 0
M  V30 3978 N 384.306 0.507319 1.49211 0
M  V30 3979 C 385.552 -0.0350047 2.0277 0
M  V30 3980 C 385.885 -1.3606 1.38569 0
M  V30 3981 O 385.16 -1.87321 0.523542 0
M  V30 3982 C 385.443 -0.180916 3.59645 0
M  V30 3983 C 385.296 1.16825 4.34364 0
M  V30 3984 C 386.615 -0.918558 4.30407 0
M  V30 3985 H 383.734 -0.0112473 0.736914 0
M  V30 3986 H 386.376 0.659956 1.7817 0
M  V30 3987 H 384.526 -0.772826 3.80736 0
M  V30 3988 H 386.198 1.79952 4.24753 0
M  V30 3989 H 384.441 1.75594 3.96673 0
M  V30 3990 H 385.112 1.01939 5.42506 0
M  V30 3991 H 387.588 -0.41649 4.1401 0
M  V30 3992 H 386.464 -0.989505 5.39907 0
M  V30 3993 H 386.725 -1.96373 3.96093 0
M  V30 3994 N 385.784 -1.5574 0.241426 0
M  V30 3995 C 386.714 -2.24133 -0.654722 0
M  V30 3996 C 387.695 -1.21974 -1.1856 0
M  V30 3997 O 388.88 -1.50612 -1.22595 0
M  V30 3998 C 386.01 -2.93659 -1.85423 0
M  V30 3999 C 384.964 -4.0246 -1.45636 0
M  V30 4000 C 384.29 -4.59383 -2.73626 0
M  V30 4001 C 385.59 -5.18468 -0.631506 0
M  V30 4002 H 387.284 -2.99281 -0.0844353 0
M  V30 4003 H 384.83 -1.43947 -0.0391707 0
M  V30 4004 H 386.783 -3.40203 -2.48676 0
M  V30 4005 H 385.507 -2.15991 -2.44981 0
M  V30 4006 H 384.166 -3.56676 -0.847202 0
M  V30 4007 H 383.814 -3.78422 -3.3137 0
M  V30 4008 H 383.514 -5.32826 -2.4773 0
M  V30 4009 H 385.038 -5.08658 -3.37786 0
M  V30 4010 H 386.452 -5.61272 -1.1682 0
M  V30 4011 H 384.849 -5.98266 -0.468831 0
M  V30 4012 H 385.919 -4.8358 0.357506 0
M  V30 4013 N 387.262 0.0317525 -1.57568 0
M  V30 4014 C 388.487 0.738664 -1.938 0
M  V30 4015 C 388.912 1.68242 -0.841208 0
M  V30 4016 O 388.27 1.80157 0.203267 0
M  V30 4017 C 388.318 1.47417 -3.29091 0
M  V30 4018 O 387.422 2.5872 -3.2115 0
M  V30 4019 H 386.763 0.198856 -0.633524 0
M  V30 4020 H 389.293 -0.0119713 -2.04596 0
M  V30 4021 H 389.303 1.84468 -3.63917 0
M  V30 4022 H 387.978 0.781988 -4.08482 0
M  V30 4023 H 386.555 2.24231 -2.97951 0
M  V30 4024 N 388.74 1.54641 0.303973 0
M  V30 4025 C 389.687 1.85386 1.37479 0
M  V30 4026 C 390.657 0.702528 1.50512 0
M  V30 4027 O 391.842 0.950867 1.65418 0
M  V30 4028 C 388.982 2.10413 2.73533 0
M  V30 4029 C 388.095 3.38049 2.68974 0
M  V30 4030 C 387.23 3.52934 3.97002 0
M  V30 4031 C 386.269 4.74373 3.86829 0
M  V30 4032 N 385.406 4.8608 5.06627 0
M  V30 4033 H 390.246 2.76732 1.1056 0
M  V30 4034 H 387.783 1.37034 0.534805 0
M  V30 4035 H 389.741 2.22919 3.52652 0
M  V30 4036 H 388.371 1.22338 2.98719 0
M  V30 4037 H 387.423 3.3418 1.81736 0
M  V30 4038 H 388.735 4.27288 2.57346 0
M  V30 4039 H 387.889 3.65088 4.84557 0
M  V30 4040 H 386.628 2.61824 4.1146 0
M  V30 4041 H 385.633 4.62255 2.97658 0
M  V30 4042 H 386.858 5.66888 3.73918 0
M  V30 4043 H 384.804 3.97891 5.21554 0
M  V30 4044 H 384.721 5.69315 4.9741 0
M  V30 4045 H 385.989 5.02587 5.95841 0
M  V30 4046 N 390.218 -0.567019 1.47046 0
M  V30 4047 C 391.148 -1.68482 1.61667 0
M  V30 4048 C 392.129 -1.6358 0.466418 0
M  V30 4049 O 393.314 -1.81354 0.694574 0
M  V30 4050 C 390.444 -3.07124 1.62148 0
M  V30 4051 C 389.398 -3.26867 2.76301 0
M  V30 4052 C 388.724 -4.66196 2.61849 0
M  V30 4053 C 390.024 -3.13186 4.17986 0
M  V30 4054 H 391.718 -1.56502 2.5524 0
M  V30 4055 H 389.264 -0.751486 1.22836 0
M  V30 4056 H 391.217 -3.8516 1.70968 0
M  V30 4057 H 389.941 -3.2004 0.651287 0
M  V30 4058 H 388.6 -2.51237 2.66975 0
M  V30 4059 H 388.248 -4.75898 1.62879 0
M  V30 4060 H 387.948 -4.80356 3.38425 0
M  V30 4061 H 389.472 -5.46379 2.72584 0
M  V30 4062 H 390.886 -3.81049 4.2834 0
M  V30 4063 H 389.283 -3.3886 4.95272 0
M  V30 4064 H 390.353 -2.10057 4.3704 0
M  V30 4065 N 391.696 -1.35014 -0.812953 0
M  V30 4066 C 392.643 -1.27412 -1.92444 0
M  V30 4067 C 393.613 -0.14733 -1.65445 0
M  V30 4068 O 394.798 -0.329974 -1.87925 0
M  V30 4069 C 391.938 -1.04558 -3.28879 0
M  V30 4070 C 391.051 -2.26101 -3.68106 0
M  V30 4071 C 390.186 -1.96449 -4.9354 0
M  V30 4072 C 389.225 -3.14081 -5.25376 0
M  V30 4073 N 388.362 -2.84246 -6.41988 0
M  V30 4074 H 393.202 -2.22463 -1.98278 0
M  V30 4075 H 390.739 -1.10593 -0.969933 0
M  V30 4076 H 392.697 -0.893413 -4.07522 0
M  V30 4077 H 391.327 -0.131719 -3.22531 0
M  V30 4078 H 390.379 -2.52204 -2.84775 0
M  V30 4079 H 391.691 -3.13959 -3.87597 0
M  V30 4080 H 390.845 -1.78026 -5.79993 0
M  V30 4081 H 389.584 -1.05867 -4.76071 0
M  V30 4082 H 388.589 -3.33089 -4.37415 0
M  V30 4083 H 389.814 -4.05455 -5.44778 0
M  V30 4084 H 387.76 -1.96252 -6.25956 0
M  V30 4085 H 387.677 -3.65637 -6.61699 0
M  V30 4086 H 388.945 -2.6935 -7.31485 0
M  V30 4087 N 393.175 1.03435 -1.18907 0
M  V30 4088 C 394.123 2.13703 -0.918353 0
M  V30 4089 C 395.117 1.68947 0.123767 0
M  V30 4090 O 396.323 1.79983 -0.0249701 0
M  V30 4091 H 392.698 0.698112 -0.279542 0
M  V30 4092 H 394.669 2.33731 -1.85506 0
M  V30 4093 C 393.418 3.44542 -0.467532 0
M  V30 4094 H 392.741 3.79394 -1.26095 0
M  V30 4095 H 394.181 4.22812 -0.317164 0
M  V30 4096 C 392.64 3.26829 0.817588 0
M  V30 4097 O 393.17 3.54975 1.88031 0
M  V30 4098 N 391.376 2.80139 0.772677 0
M  V30 4099 H 390.923 2.57434 -0.0923883 0
M  V30 4100 H 390.881 2.68668 1.63294 0
M  V30 4101 N 394.653 0.992116 1.22453 0
M  V30 4102 C 395.901 0.666215 1.90804 0
M  V30 4103 C 396.222 -0.804152 1.77647 0
M  V30 4104 O 395.492 -1.57629 1.16318 0
M  V30 4105 H 394.072 0.243423 0.706225 0
M  V30 4106 H 396.734 1.25845 1.48825 0
M  V30 4107 H 395.83 0.928069 2.97982 0
M  V30 4108 N 396.131 -1.37776 0.765217 0
M  V30 4109 C 397.361 -2.03828 0.337277 0
M  V30 4110 C 397.769 -1.57841 -1.04321 0
M  V30 4111 O 397.112 -0.752043 -1.67601 0
M  V30 4112 C 397.174 -3.58292 0.294407 0
M  V30 4113 C 396.838 -4.27384 1.61838 0
M  V30 4114 C 397.835 -4.51956 2.56967 0
M  V30 4115 C 395.52 -4.65345 1.89102 0
M  V30 4116 C 397.514 -5.13536 3.77571 0
M  V30 4117 C 395.201 -5.26647 3.09978 0
M  V30 4118 C 396.199 -5.50679 4.04032 0
M  V30 4119 O 395.887 -6.10702 5.2278 0
M  V30 4120 H 395.619 -0.661292 0.140248 0
M  V30 4121 H 398.173 -1.77222 1.03834 0
M  V30 4122 H 396.403 -3.83918 -0.462983 0
M  V30 4123 H 398.092 -4.05763 -0.105581 0
M  V30 4124 H 398.858 -4.23048 2.37183 0
M  V30 4125 H 394.737 -4.45978 1.16725 0
M  V30 4126 H 398.281 -5.3221 4.50997 0
M  V30 4127 H 394.178 -5.54979 3.29649 0
M  V30 4128 H 394.946 -6.29183 5.23517 0
M  V30 4129 N 397.609 -0.515225 -1.4894 0
M  V30 4130 C 398.541 0.292481 -2.27326 0
M  V30 4131 C 399.554 0.917838 -1.3446 0
M  V30 4132 O 400.743 0.798772 -1.5963 0
M  V30 4133 C 397.843 1.42803 -3.07344 0
M  V30 4134 C 397.016 0.907347 -4.27885 0
M  V30 4135 C 396.075 1.92222 -4.89834 0
M  V30 4136 O 395.101 1.48506 -5.49486 0
M  V30 4137 N 396.303 3.25355 -4.80754 0
M  V30 4138 H 399.068 -0.379721 -2.97285 0
M  V30 4139 H 396.629 -0.348638 -1.58102 0
M  V30 4140 H 398.621 2.10481 -3.45658 0
M  V30 4141 H 397.191 2.00414 -2.39902 0
M  V30 4142 H 396.411 0.0550218 -3.94162 0
M  V30 4143 H 397.699 0.538108 -5.05946 0
M  V30 4144 H 397.097 3.6355 -4.33414 0
M  V30 4145 H 395.654 3.88707 -5.23211 0
M  V30 4146 N 399.087 1.5561 -0.249682 0
M  V30 4147 C 400.364 1.90932 0.424761 0
M  V30 4148 C 400.744 1.17078 1.75658 0
M  V30 4149 O 400.092 0.289176 2.26663 0
M  V30 4150 C 400.302 3.43975 0.590109 0
M  V30 4151 C 401.65 4.15281 0.884714 0
M  V30 4152 O 402.674 3.49729 0.67587 0
M  V30 4153 O 401.533 5.31236 1.28259 0
M  V30 4154 H 398.627 0.794815 0.228468 0
M  V30 4155 H 401.173 1.67135 -0.293954 0
M  V30 4156 H 399.945 3.89748 -0.34818 0
M  V30 4157 H 399.568 3.73644 1.35926 0
M  V30 4158 N 400.565 -0.0233959 1.57583 0
M  V30 4159 C 401.79 -0.728376 1.94189 0
M  V30 4160 C 402.215 -1.67793 0.850119 0
M  V30 4161 O 401.573 -1.80262 -0.19371 0
M  V30 4162 C 401.621 -1.45669 3.29868 0
M  V30 4163 O 400.725 -2.57013 3.22518 0
M  V30 4164 H 400.066 -0.195493 0.63457 0
M  V30 4165 H 402.596 0.0228214 2.04587 0
M  V30 4166 H 402.606 -1.82535 3.6489 0
M  V30 4167 H 401.281 -0.760314 4.08891 0
M  V30 4168 H 399.858 -2.22648 2.99136 0
M  V30 4169 N 402.043 -1.548 -0.295768 0
M  V30 4170 C 402.973 -1.89115 -1.36959 0
M  V30 4171 C 403.954 -0.75059 -1.52644 0
M  V30 4172 O 405.139 -1.00678 -1.66065 0
M  V30 4173 C 402.269 -2.14307 -2.73295 0
M  V30 4174 C 401.223 -3.30151 -2.72368 0
M  V30 4175 C 400.549 -3.40772 -4.12042 0
M  V30 4176 C 401.849 -4.67126 -2.33646 0
M  V30 4177 H 403.543 -2.79053 -1.08488 0
M  V30 4178 H 401.089 -1.34266 -0.520443 0
M  V30 4179 H 403.042 -2.36898 -3.48507 0
M  V30 4180 H 401.766 -1.21145 -3.03301 0
M  V30 4181 H 400.425 -3.0749 -1.99613 0
M  V30 4182 H 400.073 -2.45117 -4.39234 0
M  V30 4183 H 399.773 -4.18645 -4.12322 0
M  V30 4184 H 401.297 -3.6563 -4.89027 0
M  V30 4185 H 402.711 -4.89414 -2.98575 0
M  V30 4186 H 401.108 -5.47751 -2.45129 0
M  V30 4187 H 402.178 -4.67489 -1.28772 0
M  V30 4188 N 403.521 0.559213 -1.47345 0
M  V30 4189 C 404.768 1.31648 -1.53867 0
M  V30 4190 C 405.096 1.93468 -0.200104 0
M  V30 4191 O 404.351 1.78295 0.806799 0
M  V30 4192 C 404.65 2.44853 -2.6035 0
M  V30 4193 C 404.316 2.00876 -4.03683 0
M  V30 4194 C 402.978 1.88599 -4.42701 0
M  V30 4195 C 405.33 1.67279 -4.93626 0
M  V30 4196 C 402.658 1.41017 -5.69501 0
M  V30 4197 C 405.01 1.21169 -6.20887 0
M  V30 4198 C 403.674 1.07487 -6.58789 0
M  V30 4199 H 402.944 0.481734 -0.56304 0
M  V30 4200 H 405.591 0.627301 -1.80934 0
M  V30 4201 H 403.896 3.19318 -2.27032 0
M  V30 4202 H 405.593 3.03039 -2.62619 0
M  V30 4203 H 402.183 2.11374 -3.72853 0
M  V30 4204 H 406.367 1.75638 -4.64182 0
M  V30 4205 H 401.623 1.29086 -5.97618 0
M  V30 4206 H 405.797 0.942345 -6.89995 0
M  V30 4207 H 403.424 0.703946 -7.56934 0
M  V30 4208 N 404.999 1.35443 0.805782 0
M  V30 4209 C 406.227 1.31878 1.59423 0
M  V30 4210 C 406.642 -0.103562 1.88516 0
M  V30 4211 O 405.999 -1.05575 1.48863 0
M  V30 4212 C 406.05 2.12426 2.92502 0
M  V30 4213 O 405.771 3.49115 2.6467 0
M  V30 4214 C 407.272 2.16455 3.86862 0
M  V30 4215 H 404.492 0.453002 0.495005 0
M  V30 4216 H 407.036 1.78309 1.00131 0
M  V30 4217 H 405.191 1.69593 3.48306 0
M  V30 4218 H 405.605 3.90957 3.49647 0
M  V30 4219 H 407.079 2.77204 4.77349 0
M  V30 4220 H 407.556 1.16352 4.23508 0
M  V30 4221 H 408.162 2.59453 3.36993 0
M  V30 4222 N 406.477 -1.02803 1.19454 0
M  V30 4223 C 407.702 -1.80378 1.02364 0
M  V30 4224 C 408.127 -1.83282 -0.423007 0
M  V30 4225 O 407.485 -1.25945 -1.30413 0
M  V30 4226 C 407.533 -3.23248 1.59821 0
M  V30 4227 O 406.637 -4.04 0.828105 0
M  V30 4228 H 405.978 -0.556799 0.361761 0
M  V30 4229 H 408.508 -1.29385 1.58495 0
M  V30 4230 H 408.518 -3.73994 1.63073 0
M  V30 4231 H 407.193 -3.2045 2.65113 0
M  V30 4232 H 405.77 -3.62635 0.86891 0
M  V30 4233 N 407.956 -0.998596 -1.21925 0
M  V30 4234 C 409.367 -0.711939 -1.72593 0
M  V30 4235 C 409.718 0.770842 -1.80423 0
M  V30 4236 O 408.843 1.60237 -1.4544 0
M  V30 4237 C 409.438 -1.28567 -3.13458 0
M  V30 4238 C 407.997 -1.04828 -3.61508 0
M  V30 4239 C 407.144 -1.4024 -2.39224 0
M  V30 4240 H 410.095 -1.17027 -1.07193 0
M  V30 4241 H 410.116 -0.667098 -3.74607 0
M  V30 4242 H 409.628 -2.36486 -3.07727 0
M  V30 4243 H 407.729 0.0140383 -3.72597 0
M  V30 4244 H 407.842 -1.71566 -4.47328 0
M  V30 4245 H 406.206 -0.821077 -2.41103 0
M  V30 4246 H 406.989 -2.49176 -2.36149 0
M  V30 4247 N 409.434 1.37368 -0.772513 0
M  V30 4248 C 410.344 2.34053 -0.160081 0
M  V30 4249 C 411.36 1.60216 0.678728 0
M  V30 4250 O 412.536 1.92303 0.59847 0
M  V30 4251 C 409.601 3.3939 0.708182 0
M  V30 4252 C 408.662 4.29048 -0.147172 0
M  V30 4253 C 407.895 5.29354 0.679744 0
M  V30 4254 O 408.118 5.3723 1.91678 0
M  V30 4255 O 407.052 6.01835 0.0885444 0
M  V30 4256 H 410.878 2.88159 -0.959053 0
M  V30 4257 H 408.463 1.39543 -0.533685 0
M  V30 4258 H 410.345 4.03839 1.20384 0
M  V30 4259 H 409.02 2.8761 1.48533 0
M  V30 4260 H 407.927 3.67697 -0.689205 0
M  V30 4261 H 409.26 4.84134 -0.887423 0
M  V30 4262 N 410.912 0.523116 1.48665 0
M  V30 4263 C 412.158 -0.0134963 2.02796 0
M  V30 4264 C 412.491 -1.34582 1.40004 0
M  V30 4265 O 411.766 -1.86756 0.543381 0
M  V30 4266 C 412.049 -0.14276 3.59817 0
M  V30 4267 C 411.902 1.21425 4.331 0
M  V30 4268 C 413.221 -0.872856 4.31357 0
M  V30 4269 H 410.34 -0.00343074 0.736992 0
M  V30 4270 H 412.982 0.678816 1.7746 0
M  V30 4271 H 411.132 -0.732401 3.81534 0
M  V30 4272 H 412.804 1.84447 4.2282 0
M  V30 4273 H 411.047 1.79791 3.94788 0
M  V30 4274 H 411.718 1.07687 5.41394 0
M  V30 4275 H 414.194 -0.372555 4.14429 0
M  V30 4276 H 413.07 -0.932185 5.40927 0
M  V30 4277 H 413.331 -1.92161 3.98154 0
M  V30 4278 N 412.39 -1.55475 0.257931 0
M  V30 4279 C 413.353 -2.20551 -0.623706 0
M  V30 4280 C 414.353 -1.17809 -1.09443 0
M  V30 4281 O 415.543 -1.42823 -0.997362 0
M  V30 4282 C 412.675 -2.85784 -1.8585 0
M  V30 4283 H 413.868 -2.99848 -0.0557743 0
M  V30 4284 H 411.421 -1.56298 0.0084422 0
M  V30 4285 H 412.156 -2.10453 -2.46739 0
M  V30 4286 H 411.941 -3.61057 -1.52907 0
M  V30 4287 H 413.431 -3.35553 -2.48584 0
M  V30 4288 N 413.868 0.0150385 -1.57593 0
M  V30 4289 C 415.284 0.370907 -1.5523 0
M  V30 4290 C 415.484 1.75735 -0.985882 0
M  V30 4291 O 414.54 2.44944 -0.613077 0
M  V30 4292 C 415.853 0.259908 -2.99575 0
M  V30 4293 C 417.401 0.335959 -3.11192 0
M  V30 4294 C 417.876 0.254253 -4.57294 0
M  V30 4295 N 419.367 0.312618 -4.62144 0
M  V30 4296 C 420.102 0.272505 -5.72752 0
M  V30 4297 N 419.598 0.183864 -6.92556 0
M  V30 4298 N 421.391 0.323267 -5.6117 0
M  V30 4299 H 413.542 -0.892104 -1.92757 0
M  V30 4300 H 415.805 -0.340563 -0.884715 0
M  V30 4301 H 415.511 -0.693403 -3.44797 0
M  V30 4302 H 415.385 1.048 -3.62349 0
M  V30 4303 H 417.772 1.27971 -2.65909 0
M  V30 4304 H 417.853 -0.481739 -2.51223 0
M  V30 4305 H 417.497 -0.685887 -5.03247 0
M  V30 4306 H 417.427 1.09024 -5.15191 0
M  V30 4307 H 419.918 0.38307 -3.75953 0
M  V30 4308 H 420.231 0.15874 -7.72637 0
M  V30 4309 H 418.576 0.149708 -6.94839 0
M  V30 4310 H 421.767 0.390607 -4.66467 0
M  V30 4311 H 421.94 0.288539 -6.47357 0
M  V30 4312 N 415.346 1.54954 0.287554 0
M  V30 4313 C 416.294 1.87606 1.37502 0
M  V30 4314 C 417.288 0.751001 1.51843 0
M  V30 4315 O 418.494 0.935169 1.53801 0
M  V30 4316 H 414.869 0.595231 0.459569 0
M  V30 4317 H 416.84 2.78477 1.07206 0
M  V30 4318 C 415.589 2.15183 2.73115 0
M  V30 4319 H 414.912 3.01234 2.62866 0
M  V30 4320 H 416.352 2.4196 3.48183 0
M  V30 4321 C 414.811 0.954686 3.2309 0
M  V30 4322 O 415.341 0.181949 4.01288 0
M  V30 4323 N 413.547 0.756368 2.80584 0
M  V30 4324 H 413.094 1.38643 2.17108 0
M  V30 4325 H 413.052 -0.0430391 3.14371 0
M  V30 4326 N 416.824 -0.551391 1.4764 0
M  V30 4327 C 418.07 -1.31024 1.54792 0
M  V30 4328 C 418.403 -1.9304 0.211967 0
M  V30 4329 O 417.678 -1.78175 -0.77999 0
M  V30 4330 C 417.961 -2.41593 2.67029 0
M  V30 4331 C 417.814 -1.84408 4.10261 0
M  V30 4332 C 419.133 -3.43488 2.75143 0
M  V30 4333 H 416.252 -0.475031 0.563485 0
M  V30 4334 H 418.894 -0.616454 1.79722 0
M  V30 4335 H 417.044 -3.00772 2.45904 0
M  V30 4336 H 418.716 -1.29445 4.42766 0
M  V30 4337 H 416.959 -1.15051 4.18265 0
M  V30 4338 H 417.63 -2.64367 4.84576 0
M  V30 4339 H 420.106 -2.94236 2.94218 0
M  V30 4340 H 418.982 -4.18274 3.55441 0
M  V30 4341 H 419.243 -4.02703 1.82435 0
M  V30 4342 N 418.302 -1.35869 -0.798587 0
M  V30 4343 C 419.265 -1.29307 -1.89242 0
M  V30 4344 C 420.265 -0.202747 -1.59517 0
M  V30 4345 O 421.455 -0.456957 -1.681 0
M  V30 4346 C 418.587 -1.00229 -3.25833 0
M  V30 4347 H 419.78 -2.26576 -1.96478 0
M  V30 4348 H 417.333 -1.20509 -0.995358 0
M  V30 4349 H 418.068 -0.033801 -3.24282 0
M  V30 4350 H 417.853 -1.79121 -3.48795 0
M  V30 4351 H 419.343 -0.98219 -4.05885 0
M  V30 4352 N 419.78 1.02168 -1.19998 0
M  V30 4353 C 420.727 2.10601 -0.944228 0
M  V30 4354 C 421.697 1.65639 0.123664 0
M  V30 4355 O 422.882 1.9079 -0.0199941 0
M  V30 4356 C 420.022 3.41504 -0.496865 0
M  V30 4357 C 419.135 3.99973 -1.63234 0
M  V30 4358 C 418.27 5.18915 -1.13579 0
M  V30 4359 C 417.309 5.69456 -2.24468 0
M  V30 4360 N 416.446 6.79665 -1.76068 0
M  V30 4361 H 421.286 2.31814 -1.8726 0
M  V30 4362 H 418.823 1.13686 -0.933483 0
M  V30 4363 H 420.781 4.16626 -0.218843 0
M  V30 4364 H 419.411 3.2038 0.394508 0
M  V30 4365 H 418.463 3.21997 -2.0254 0
M  V30 4366 H 419.775 4.33492 -2.46752 0
M  V30 4367 H 418.929 6.01222 -0.813429 0
M  V30 4368 H 417.668 4.8695 -0.270434 0
M  V30 4369 H 416.673 4.85757 -2.57526 0
M  V30 4370 H 417.898 6.03459 -3.11472 0
M  V30 4371 H 415.844 6.49538 -0.918516 0
M  V30 4372 H 415.761 7.12349 -2.5317 0
M  V30 4373 H 417.029 7.65549 -1.46817 0
M  V30 4374 N 421.258 1.00505 1.21394 0
M  V30 4375 C 422.669 0.721082 1.72213 0
M  V30 4376 C 423.02 -0.761263 1.80829 0
M  V30 4377 O 422.145 -1.59464 1.46288 0
M  V30 4378 C 422.74 1.30228 3.12772 0
M  V30 4379 C 421.299 1.06743 3.60947 0
M  V30 4380 C 420.446 1.41507 2.38477 0
M  V30 4381 H 423.397 1.17594 1.06571 0
M  V30 4382 H 423.418 0.686955 3.74247 0
M  V30 4383 H 422.93 2.38115 3.06468 0
M  V30 4384 H 421.031 0.00572162 3.726 0
M  V30 4385 H 421.144 1.73936 4.46411 0
M  V30 4386 H 419.508 0.833852 2.40664 0
M  V30 4387 H 420.291 2.50424 2.34824 0
M  V30 4388 N 422.737 -1.36956 0.779787 0
M  V30 4389 C 423.667 -2.32761 0.185651 0
M  V30 4390 C 424.648 -1.56177 -0.673989 0
M  V30 4391 O 425.833 -1.84378 -0.609797 0
M  V30 4392 C 422.963 -3.40418 -0.687964 0
M  V30 4393 C 421.917 -4.27941 0.0710102 0
M  V30 4394 C 421.243 -5.26681 -0.922573 0
M  V30 4395 C 422.543 -5.07006 1.25467 0
M  V30 4396 H 424.237 -2.82698 0.986008 0
M  V30 4397 H 421.783 -1.3592 0.475592 0
M  V30 4398 H 423.736 -4.06423 -1.11348 0
M  V30 4399 H 422.46 -2.89025 -1.52093 0
M  V30 4400 H 421.119 -3.63478 0.47739 0
M  V30 4401 H 420.767 -4.71565 -1.7503 0
M  V30 4402 H 420.467 -5.86103 -0.419237 0
M  V30 4403 H 421.991 -5.9556 -1.34686 0
M  V30 4404 H 423.405 -5.66105 0.905401 0
M  V30 4405 H 421.802 -5.75793 1.69063 0
M  V30 4406 H 422.872 -4.3921 2.05481 0
M  V30 4407 N 424.215 -0.530993 -1.48385 0
M  V30 4408 C 425.461 0.00274135 -2.028 0
M  V30 4409 C 425.794 1.33838 -1.40716 0
M  V30 4410 O 425.069 1.86465 -0.553277 0
M  V30 4411 C 425.352 0.123676 -3.59888 0
M  V30 4412 C 425.205 -1.2372 -4.3245 0
M  V30 4413 C 426.524 0.849967 -4.31814 0
M  V30 4414 H 423.643 -0.000477758 -0.737 0
M  V30 4415 H 426.285 -0.688217 -1.77098 0
M  V30 4416 H 424.435 0.712157 -3.81917 0
M  V30 4417 H 426.107 -1.86687 -4.21836 0
M  V30 4418 H 424.35 -1.81882 -3.93829 0
M  V30 4419 H 425.021 -1.10557 -5.40815 0
M  V30 4420 H 427.497 0.350572 -4.14621 0
M  V30 4421 H 426.373 0.903486 -5.41413 0
M  V30 4422 H 426.634 1.90047 -3.99167 0
M  V30 4423 N 425.693 1.55336 -0.266172 0
M  V30 4424 C 426.918 2.04258 0.359661 0
M  V30 4425 C 427.343 1.14359 1.49344 0
M  V30 4426 O 426.701 0.140369 1.80756 0
M  V30 4427 C 426.749 3.50997 0.826635 0
M  V30 4428 O 425.853 3.64204 1.93466 0
M  V30 4429 H 425.194 0.659668 0.075727 0
M  V30 4430 H 427.724 2.00694 -0.39786 0
M  V30 4431 H 427.734 3.9219 1.12477 0
M  V30 4432 H 426.409 4.159 -0.00293032 0
M  V30 4433 H 424.986 3.34913 1.63974 0
M  V30 4434 N 427.171 -0.0066808 1.57599 0
M  V30 4435 C 428.401 -0.703066 1.94269 0
M  V30 4436 C 428.809 -1.68206 0.866222 0
M  V30 4437 O 428.152 -1.82966 -0.164087 0
M  V30 4438 C 428.214 -1.49616 3.26887 0
M  V30 4439 C 427.878 -0.679494 4.5192 0
M  V30 4440 C 428.875 0.0299508 5.19891 0
M  V30 4441 C 426.56 -0.627433 4.98366 0
M  V30 4442 C 428.554 0.780514 6.32603 0
M  V30 4443 C 426.241 0.126861 6.10968 0
M  V30 4444 C 427.239 0.829574 6.77943 0
M  V30 4445 O 426.927 1.57157 7.88389 0
M  V30 4446 H 426.659 -0.201217 0.645359 0
M  V30 4447 H 429.213 0.0385326 2.05364 0
M  V30 4448 H 427.443 -2.28209 3.12182 0
M  V30 4449 H 429.132 -2.07726 3.48719 0
M  V30 4450 H 429.898 -0.00115963 4.85 0
M  V30 4451 H 425.777 -1.16392 4.46065 0
M  V30 4452 H 429.321 1.32954 6.84813 0
M  V30 4453 H 425.218 0.159815 6.45302 0
M  V30 4454 H 425.986 1.48758 8.04868 0
M  V30 4455 N 428.649 -1.55105 -0.279332 0
M  V30 4456 C 429.898 -1.74618 -1.00952 0
M  V30 4457 C 430.211 -0.551096 -1.87676 0
M  V30 4458 O 431.417 -0.628507 -2.64125 0
M  V30 4459 C 429.873 -3.09025 -1.84476 0
M  V30 4460 C 429.481 -4.36081 -1.0265 0
M  V30 4461 C 431.225 -3.37891 -2.56963 0
M  V30 4462 C 429.132 -5.6153 -1.85576 0
M  V30 4463 H 428.062 -0.650868 -0.38064 0
M  V30 4464 H 430.713 -1.81569 -0.265475 0
M  V30 4465 H 429.095 -2.96095 -2.62952 0
M  V30 4466 H 430.269 -4.59909 -0.286354 0
M  V30 4467 H 428.584 -4.14312 -0.416464 0
M  V30 4468 H 431.181 -4.28822 -3.19399 0
M  V30 4469 H 431.524 -2.57737 -3.26921 0
M  V30 4470 H 432.057 -3.5189 -1.85522 0
M  V30 4471 H 428.796 -6.44413 -1.2005 0
M  V30 4472 H 428.316 -5.41854 -2.57204 0
M  V30 4473 H 429.995 -5.99594 -2.43096 0
M  V30 4474 N 430.127 0.543554 -1.4793 0
M  V30 4475 C 431.404 1.30458 -1.4574 0
M  V30 4476 C 431.784 2.1048 -0.161692 0
M  V30 4477 O 431.132 2.11831 0.856734 0
M  V30 4478 C 431.342 2.19754 -2.71126 0
M  V30 4479 C 432.69 2.80334 -3.18901 0
M  V30 4480 O 433.714 2.30049 -2.71948 0
M  V30 4481 O 432.573 3.71766 -4.00565 0
M  V30 4482 H 429.667 0.588117 -0.581418 0
M  V30 4483 H 432.213 0.561328 -1.60147 0
M  V30 4484 H 430.985 1.60316 -3.56952 0
M  V30 4485 H 430.608 3.01351 -2.59371 0
M  V30 4486 N 431.605 1.3629 0.791371 0
M  V30 4487 C 432.552 1.30458 1.90393 0
M  V30 4488 C 433.522 0.173632 1.6519 0
M  V30 4489 O 434.707 0.35983 1.87376 0
M  V30 4490 C 431.847 1.09777 3.27174 0
M  V30 4491 C 430.96 2.31929 3.64462 0
M  V30 4492 C 430.095 2.04276 4.90352 0
M  V30 4493 C 429.134 3.224 5.20312 0
M  V30 4494 N 428.271 2.94424 6.37385 0
M  V30 4495 H 433.111 2.25589 1.94714 0
M  V30 4496 H 430.648 1.12122 0.952216 0
M  V30 4497 H 432.606 0.958133 4.06049 0
M  V30 4498 H 431.236 0.183014 3.22281 0
M  V30 4499 H 430.288 2.56703 2.80727 0
M  V30 4500 H 431.6 3.20085 3.82553 0
M  V30 4501 H 430.754 1.87231 5.77087 0
M  V30 4502 H 429.493 1.13428 4.74326 0
M  V30 4503 H 428.498 3.40005 4.32061 0
M  V30 4504 H 429.723 4.14071 5.38258 0
M  V30 4505 H 427.669 2.06185 6.22755 0
M  V30 4506 H 427.586 3.76118 6.55798 0
M  V30 4507 H 428.854 2.80953 7.27108 0
M  V30 4508 N 433.083 -1.0153 1.20538 0
M  V30 4509 C 434.046 -2.0826 0.957098 0
M  V30 4510 C 435.046 -1.60657 -0.0678655 0
M  V30 4511 O 436.236 -1.73385 0.168332 0
M  V30 4512 C 433.368 -3.38033 0.441188 0
M  V30 4513 H 434.561 -2.31719 1.90384 0
M  V30 4514 H 432.114 -1.1835 1.02093 0
M  V30 4515 H 432.849 -3.20249 -0.510961 0
M  V30 4516 H 432.634 -3.73911 1.18038 0
M  V30 4517 H 434.124 -4.16613 0.287009 0
M  V30 4518 N 434.561 -1.01147 -1.20859 0
M  V30 4519 C 435.491 -0.597663 -2.25722 0
M  V30 4520 C 436.472 0.384744 -1.65692 0
M  V30 4521 O 437.657 0.271303 -1.92296 0
M  V30 4522 C 434.787 0.0700149 -3.47229 0
M  V30 4523 C 433.741 -0.832843 -4.19819 0
M  V30 4524 C 433.067 -0.0312202 -5.34691 0
M  V30 4525 C 434.367 -2.1385 -4.76514 0
M  V30 4526 H 436.061 -1.47423 -2.60589 0
M  V30 4527 H 433.607 -0.710301 -1.25263 0
M  V30 4528 H 435.56 0.37103 -4.19763 0
M  V30 4529 H 434.284 0.981259 -3.11511 0
M  V30 4530 H 432.943 -1.11778 -3.49144 0
M  V30 4531 H 432.591 0.881515 -4.95215 0
M  V30 4532 H 432.291 -0.632434 -5.84187 0
M  V30 4533 H 433.815 0.26346 -6.10031 0
M  V30 4534 H 435.229 -1.9002 -5.40893 0
M  V30 4535 H 433.626 -2.69012 -5.36426 0
M  V30 4536 H 434.696 -2.80495 -3.95538 0
M  V30 4537 N 436.039 1.36541 -0.78704 0
M  V30 4538 C 437.285 1.99599 -0.358872 0
M  V30 4539 C 437.618 1.62323 1.06606 0
M  V30 4540 O 436.893 0.876858 1.73613 0
M  V30 4541 C 437.176 3.56327 -0.519944 0
M  V30 4542 C 437.029 4.03464 -1.98839 0
M  V30 4543 C 438.348 4.4005 0.0664737 0
M  V30 4544 H 435.467 0.725107 -0.131869 0
M  V30 4545 H 438.109 1.6199 -0.992936 0
M  V30 4546 H 436.259 3.88495 0.0198321 0
M  V30 4547 H 437.931 3.81793 -2.58905 0
M  V30 4548 H 436.174 3.55092 -2.49183 0
M  V30 4549 H 436.845 5.12439 -2.05207 0
M  V30 4550 H 439.321 4.14228 -0.394267 0
M  V30 4551 H 438.197 5.48847 -0.0762682 0
M  V30 4552 H 438.458 4.26655 1.15835 0
M  V30 4553 N 437.518 0.538854 1.48102 0
M  V30 4554 C 438.746 0.0123136 2.06896 0
M  V30 4555 C 439.161 -1.27312 1.39417 0
M  V30 4556 O 438.518 -1.75949 0.484582 0
M  V30 4557 C 438.569 -0.206118 3.60912 0
M  V30 4558 O 438.29 1.0284 4.25859 0
M  V30 4559 C 439.791 -0.772033 4.36526 0
M  V30 4560 H 437.011 0.0375239 0.66995 0
M  V30 4561 H 439.555 0.747032 1.90367 0
M  V30 4562 H 437.71 -0.89091 3.77017 0
M  V30 4563 H 438.124 0.814654 5.18135 0
M  V30 4564 H 439.598 -0.874251 5.45033 0
M  V30 4565 H 440.075 -1.77904 4.01555 0
M  V30 4566 H 440.681 -0.123526 4.25121 0
M  V30 4567 N 438.996 -1.55193 0.274407 0
M  V30 4568 C 440.273 -1.91584 -0.394331 0
M  V30 4569 C 440.653 -1.19858 -1.73774 0
M  V30 4570 O 440.001 -0.3252 -2.26174 0
M  V30 4571 C 440.211 -3.4487 -0.535311 0
M  V30 4572 C 441.559 -4.16636 -0.818534 0
M  V30 4573 O 442.583 -3.5076 -0.620146 0
M  V30 4574 O 441.442 -5.33209 -1.19792 0
M  V30 4575 H 438.536 -0.798349 -0.215794 0
M  V30 4576 H 441.082 -1.66646 0.320507 0
M  V30 4577 H 439.854 -3.89145 0.410141 0
M  V30 4578 H 439.477 -3.75759 -1.29964 0
M  V30 4579 N 440.474 -0.00167713 -1.576 0
M  V30 4580 C 441.89 0.354422 -1.55615 0
M  V30 4581 C 442.09 1.74679 -1.00447 0
M  V30 4582 O 441.146 2.4428 -0.639022 0
M  V30 4583 C 442.459 0.22812 -2.99833 0
M  V30 4584 C 444.007 0.302934 -3.11531 0
M  V30 4585 C 444.482 0.205737 -4.57538 0
M  V30 4586 N 445.973 0.263584 -4.62449 0
M  V30 4587 C 446.708 0.211742 -5.73009 0
M  V30 4588 N 446.204 0.110399 -6.92712 0
M  V30 4589 N 447.997 0.263729 -5.61481 0
M  V30 4590 H 440.148 -0.912498 -1.918 0
M  V30 4591 H 442.411 -0.349928 -0.881053 0
M  V30 4592 H 442.117 -0.729934 -3.44042 0
M  V30 4593 H 441.991 1.00951 -3.6344 0
M  V30 4594 H 444.378 1.25143 -2.67251 0
M  V30 4595 H 444.459 -0.508357 -2.50698 0
M  V30 4596 H 444.103 -0.739225 -5.02492 0
M  V30 4597 H 444.033 1.03554 -5.16318 0
M  V30 4598 H 446.524 0.343173 -3.76339 0
M  V30 4599 H 446.837 0.0767828 -7.72762 0
M  V30 4600 H 445.182 0.0760025 -6.94958 0
M  V30 4601 H 448.373 0.34111 -4.66855 0
M  V30 4602 H 448.546 0.219862 -6.47627 0
M  V30 4603 N 441.952 1.55251 0.271103 0
M  V30 4604 C 443.18 1.79974 1.02064 0
M  V30 4605 C 443.595 0.574003 1.79863 0
M  V30 4606 O 442.952 -0.456962 1.76686 0
M  V30 4607 C 443.003 3.02603 1.97772 0
M  V30 4608 O 442.724 4.20443 1.23124 0
M  V30 4609 C 444.225 3.39944 2.84522 0
M  V30 4610 H 441.445 0.599489 0.301419 0
M  V30 4611 H 443.989 2.02268 0.301313 0
M  V30 4612 H 442.144 2.8243 2.65165 0
M  V30 4613 H 442.558 4.89783 1.87651 0
M  V30 4614 H 444.032 4.28915 3.47471 0
M  V30 4615 H 444.509 2.59432 3.54389 0
M  V30 4616 H 445.115 3.62383 2.22618 0
M  V30 4617 N 443.43 -0.535701 1.48216 0
M  V30 4618 C 444.655 -1.32149 1.59848 0
M  V30 4619 C 445.08 -1.86338 0.256842 0
M  V30 4620 O 444.438 -1.64107 -0.770632 0
M  V30 4621 C 444.486 -2.45224 2.64381 0
M  V30 4622 O 443.59 -3.48093 2.21144 0
M  V30 4623 H 442.931 -0.391634 0.536208 0
M  V30 4624 H 445.461 -0.645202 1.94161 0
M  V30 4625 H 445.471 -2.91491 2.85476 0
M  V30 4626 H 444.146 -2.05143 3.61786 0
M  V30 4627 H 442.723 -3.07984 2.10239 0
M  V30 4628 N 444.908 -1.36708 -0.784132 0
M  V30 4629 C 445.871 -1.31307 -1.87859 0
M  V30 4630 C 446.871 -0.219654 -1.59293 0
M  V30 4631 O 448.061 -0.47476 -1.67606 0
M  V30 4632 C 445.193 -1.03679 -3.24751 0
M  V30 4633 H 446.386 -2.28647 -1.94064 0
M  V30 4634 H 443.939 -1.21558 -0.98252 0
M  V30 4635 H 444.674 -0.0681936 -3.24228 0
M  V30 4636 H 444.459 -1.82811 -3.46876 0
M  V30 4637 H 445.949 -1.02518 -4.04821 0
M  V30 4638 N 446.386 1.0089 -1.21074 0
M  V30 4639 C 447.797 1.56056 -1.02486 0
M  V30 4640 C 448.148 1.91728 0.416506 0
M  V30 4641 O 447.273 1.73066 1.29912 0
M  V30 4642 C 447.868 2.83563 -1.85411 0
M  V30 4643 C 446.427 3.3523 -1.71166 0
M  V30 4644 C 445.574 2.0846 -1.82865 0
M  V30 4645 H 448.525 0.831818 -1.35154 0
M  V30 4646 H 448.546 3.55286 -1.36205 0
M  V30 4647 H 448.058 2.57569 -2.9031 0
M  V30 4648 H 446.159 3.66167 -0.689361 0
M  V30 4649 H 446.272 4.06913 -2.52901 0
M  V30 4650 H 444.636 2.21275 -1.26132 0
M  V30 4651 H 445.419 1.84883 -2.89263 0
M  V30 4652 N 447.864 1.01787 1.20321 0
M  V30 4653 C 448.811 0.589197 2.23153 0
M  V30 4654 C 449.781 -0.391367 1.61423 0
M  V30 4655 O 450.966 -0.290518 1.88575 0
M  V30 4656 C 448.106 -0.0650747 3.45039 0
M  V30 4657 C 447.219 0.960207 4.21194 0
M  V30 4658 C 446.354 0.276854 5.30478 0
M  V30 4659 C 445.393 1.2888 5.98378 0
M  V30 4660 N 444.53 0.632031 6.99249 0
M  V30 4661 H 449.37 1.47071 2.59179 0
M  V30 4662 H 446.907 0.736192 1.27352 0
M  V30 4663 H 448.865 -0.461552 4.14639 0
M  V30 4664 H 447.495 -0.910233 3.09701 0
M  V30 4665 H 446.547 1.47484 3.50646 0
M  V30 4666 H 447.859 1.72977 4.67847 0
M  V30 4667 H 447.013 -0.175056 6.06447 0
M  V30 4668 H 445.752 -0.525004 4.84866 0
M  V30 4669 H 444.757 1.75109 5.21169 0
M  V30 4670 H 445.982 2.09196 6.46076 0
M  V30 4671 H 443.928 -0.149935 6.55829 0
M  V30 4672 H 443.845 1.33964 7.44036 0
M  V30 4673 H 445.113 0.203755 7.79234 0
M  V30 4674 N 449.342 -1.36122 0.79427 0
M  V30 4675 C 450.591 -1.98361 0.365464 0
M  V30 4676 C 450.904 -1.6374 -1.06997 0
M  V30 4677 O 452.11 -2.19251 -1.60129 0
M  V30 4678 C 450.566 -3.54821 0.602496 0
M  V30 4679 C 450.174 -3.98362 2.04967 0
M  V30 4680 C 451.918 -4.2383 0.238437 0
M  V30 4681 C 449.825 -5.47619 2.2331 0
M  V30 4682 H 448.755 -0.742193 0.13291 0
M  V30 4683 H 451.406 -1.55354 0.976589 0
M  V30 4684 H 449.788 -3.95922 -0.078409 0
M  V30 4685 H 450.962 -3.68447 2.76737 0
M  V30 4686 H 449.277 -3.42206 2.37243 0
M  V30 4687 H 451.874 -5.33529 0.353705 0
M  V30 4688 H 452.217 -4.08264 -0.814006 0
M  V30 4689 H 452.75 -3.88108 0.872769 0
M  V30 4690 H 449.489 -5.68138 3.26955 0
M  V30 4691 H 449.009 -5.79145 1.5605 0
M  V30 4692 H 450.688 -6.13911 2.0426 0
M  V30 4693 N 450.82 -0.546701 -1.47814 0
M  V30 4694 C 452.048 -0.0232857 -2.06887 0
M  V30 4695 C 452.463 1.26571 -1.4009 0
M  V30 4696 O 451.82 1.7569 -0.493906 0
M  V30 4697 C 451.871 0.186975 -3.61016 0
M  V30 4698 O 451.592 -1.05097 -4.25307 0
M  V30 4699 C 453.093 0.748872 -4.36929 0
M  V30 4700 H 450.313 -0.0410763 -0.669742 0
M  V30 4701 H 452.857 -0.757117 -1.89968 0
M  V30 4702 H 451.012 0.870903 -3.77484 0
M  V30 4703 H 451.426 -0.842121 -5.17695 0
M  V30 4704 H 452.9 0.845334 -5.45489 0
M  V30 4705 H 453.377 1.75772 -4.02493 0
M  V30 4706 H 453.983 0.100979 -4.2518 0
M  V30 4707 N 452.299 1.55045 -0.282633 0
M  V30 4708 C 453.545 2.00056 0.332481 0
M  V30 4709 C 453.878 1.1708 1.54939 0
M  V30 4710 O 453.153 0.2427 1.9298 0
M  V30 4711 C 453.436 3.53086 0.70725 0
M  V30 4712 C 453.289 4.46813 -0.517521 0
M  V30 4713 C 454.608 4.12245 1.54084 0
M  V30 4714 H 451.727 0.727268 0.119373 0
M  V30 4715 H 454.369 1.85932 -0.391076 0
M  V30 4716 H 452.519 3.65253 1.32372 0
M  V30 4717 H 454.191 4.46579 -1.15607 0
M  V30 4718 H 452.434 4.18163 -1.1542 0
M  V30 4719 H 453.105 5.51595 -0.211426 0
M  V30 4720 H 455.581 4.03401 1.02013 0
M  V30 4721 H 454.457 5.19515 1.77186 0
M  V30 4722 H 454.718 3.62951 2.52427 0
M  V30 4723 N 453.777 0.010035 1.57597 0
M  V30 4724 C 454.707 -0.976857 2.12084 0
M  V30 4725 C 455.688 -1.35191 1.03235 0
M  V30 4726 O 456.873 -1.43389 1.3097 0
M  V30 4727 C 454.003 -2.26548 2.63236 0
M  V30 4728 C 452.957 -2.03175 3.76701 0
M  V30 4729 C 452.283 -3.38138 4.14206 0
M  V30 4730 C 453.583 -1.38625 5.03568 0
M  V30 4731 H 455.277 -0.523145 2.94794 0
M  V30 4732 H 452.823 -0.250195 1.4181 0
M  V30 4733 H 454.776 -2.95952 2.99984 0
M  V30 4734 H 453.5 -2.74051 1.77661 0
M  V30 4735 H 452.159 -1.36195 3.40362 0
M  V30 4736 H 451.807 -3.83363 3.25641 0
M  V30 4737 H 451.507 -3.23312 4.90656 0
M  V30 4738 H 453.031 -4.08841 4.53521 0
M  V30 4739 H 454.445 -1.98 5.38023 0
M  V30 4740 H 452.842 -1.34256 5.84889 0
M  V30 4741 H 453.912 -0.356722 4.83586 0
M  V30 4742 N 455.255 -1.55392 -0.262866 0
M  V30 4743 C 456.501 -1.76737 -0.99458 0
M  V30 4744 C 456.834 -0.572453 -1.85571 0
M  V30 4745 O 456.109 0.429732 -1.89693 0
M  V30 4746 C 456.392 -3.07824 -1.8686 0
M  V30 4747 C 456.245 -4.3769 -1.03672 0
M  V30 4748 C 457.564 -3.35021 -2.85393 0
M  V30 4749 H 454.683 -0.643005 -0.360157 0
M  V30 4750 H 457.325 -1.88126 -0.266216 0
M  V30 4751 H 455.475 -2.98245 -2.48962 0
M  V30 4752 H 457.147 -4.59238 -0.43563 0
M  V30 4753 H 455.39 -4.32461 -0.340513 0
M  V30 4754 H 456.061 -5.25759 -1.6817 0
M  V30 4755 H 458.537 -3.44458 -2.33426 0
M  V30 4756 H 457.413 -4.27989 -3.43681 0
M  V30 4757 H 457.674 -2.55153 -3.61039 0
M  V30 4758 N 456.733 0.527833 -1.48498 0
M  V30 4759 C 457.981 1.28101 -1.56316 0
M  V30 4760 C 458.302 1.9352 -0.239781 0
M  V30 4761 O 457.572 1.81433 0.738849 0
M  V30 4762 H 456.152 0.475793 -0.575873 0
M  V30 4763 H 458.814 0.614052 -1.84974 0
M  V30 4764 H 457.91 2.05916 -2.34532 0
M  V30 4765 N 458.211 1.37122 0.776871 0
M  V30 4766 C 459.161 1.28989 1.88005 0
M  V30 4767 C 460.145 0.178765 1.59904 0
M  V30 4768 O 461.337 0.412705 1.72121 0
M  V30 4769 C 458.466 1.09402 3.25402 0
M  V30 4770 C 457.552 2.25036 3.59471 0
M  V30 4771 N 457.943 3.50407 3.64759 0
M  V30 4772 C 456.241 2.17078 3.89607 0
M  V30 4773 C 456.942 4.26628 3.95428 0
M  V30 4774 N 455.918 3.55709 4.11062 0
M  V30 4775 H 459.72 2.2394 1.90337 0
M  V30 4776 H 457.234 1.30021 0.973052 0
M  V30 4777 H 459.231 1.01661 4.04315 0
M  V30 4778 H 457.891 0.153632 3.24336 0
M  V30 4779 H 458.902 3.8438 3.47091 0
M  V30 4780 H 455.579 1.31067 3.96393 0
M  V30 4781 H 456.969 5.35107 4.06338 0
M  V30 4782 N 459.689 -1.00246 1.21608 0
M  V30 4783 C 460.966 -1.71336 0.943568 0
M  V30 4784 C 461.346 -2.03972 -0.543943 0
M  V30 4785 O 460.694 -1.71545 -1.50946 0
M  V30 4786 C 460.904 -2.97094 1.83128 0
M  V30 4787 C 462.252 -3.70071 2.08165 0
M  V30 4788 O 463.276 -3.07081 1.80498 0
M  V30 4789 O 462.135 -4.83376 2.54971 0
M  V30 4790 H 459.229 -0.747386 0.354039 0
M  V30 4791 H 461.775 -1.05967 1.32549 0
M  V30 4792 H 460.547 -2.69407 2.83788 0
M  V30 4793 H 460.17 -3.70204 1.45034 0
M  V30 4794 N 461.167 -1.02423 -1.1978 0
M  V30 4795 C 462.392 -0.7373 -1.93852 0
M  V30 4796 C 462.817 0.696923 -1.74713 0
M  V30 4797 O 462.175 1.48056 -1.04638 0
M  V30 4798 C 462.223 -1.08783 -3.438 0
M  V30 4799 O 461.327 -0.20383 -4.11896 0
M  V30 4800 H 460.668 -0.27284 -0.605355 0
M  V30 4801 H 463.198 -1.36966 -1.51992 0
M  V30 4802 H 463.208 -1.04276 -3.9445 0
M  V30 4803 H 461.883 -2.13274 -3.57053 0
M  V30 4804 H 460.46 -0.307091 -3.71633 0
M  V30 4805 N 462.645 1.35699 -0.801477 0
M  V30 4806 C 463.593 2.3177 -0.196317 0
M  V30 4807 C 464.587 1.56388 0.651081 0
M  V30 4808 O 465.793 1.71557 0.544815 0
M  V30 4809 H 462.168 0.750669 -0.0447189 0
M  V30 4810 H 464.139 2.8036 -1.02181 0
M  V30 4811 C 462.888 3.41671 0.644702 0
M  V30 4812 H 462.211 3.998 0.0019921 0
M  V30 4813 H 463.651 4.11184 1.0346 0
M  V30 4814 C 462.11 2.84271 1.80808 0
M  V30 4815 O 462.64 2.77408 2.9053 0
M  V30 4816 N 460.846 2.41391 1.61799 0
M  V30 4817 H 460.393 2.47173 0.725493 0
M  V30 4818 H 460.351 2.03334 2.39797 0
M  V30 4819 N 464.123 0.554532 1.47522 0
M  V30 4820 C 465.372 0.0273458 2.01681 0
M  V30 4821 C 465.685 -1.32962 1.43459 0
M  V30 4822 O 466.891 -1.94657 1.89265 0
M  V30 4823 C 465.347 -0.00159057 3.599 0
M  V30 4824 C 464.955 1.35197 4.27113 0
M  V30 4825 C 466.699 -0.476311 4.21819 0
M  V30 4826 C 464.606 1.28229 5.77331 0
M  V30 4827 H 463.536 0.00645269 0.753972 0
M  V30 4828 H 466.187 0.701985 1.69542 0
M  V30 4829 H 464.569 -0.741821 3.8899 0
M  V30 4830 H 465.743 2.1097 4.09668 0
M  V30 4831 H 464.058 1.76441 3.77171 0
M  V30 4832 H 466.655 -0.5468 5.31897 0
M  V30 4833 H 466.998 -1.4877 3.8881 0
M  V30 4834 H 467.531 0.20898 3.97251 0
M  V30 4835 H 464.27 2.26959 6.14955 0
M  V30 4836 H 463.79 0.566314 5.97121 0
M  V30 4837 H 465.469 0.983226 6.39485 0
M  V30 4838 N 465.601 -1.54893 0.290851 0
M  V30 4839 C 466.564 -2.21824 -0.576784 0
M  V30 4840 C 467.564 -1.20104 -1.06919 0
M  V30 4841 O 468.754 -1.44906 -0.966843 0
M  V30 4842 C 465.886 -2.89662 -1.79747 0
M  V30 4843 H 467.079 -2.99899 0.00784051 0
M  V30 4844 H 464.632 -1.56245 0.0415934 0
M  V30 4845 H 465.367 -2.15639 -2.42219 0
M  V30 4846 H 465.152 -3.64219 -1.45214 0
M  V30 4847 H 466.642 -3.4075 -2.4141 0
M  V30 4848 N 467.08 -0.0183926 -1.57589 0
M  V30 4849 C 468.305 0.676634 -1.96052 0
M  V30 4850 C 468.73 1.6548 -0.894307 0
M  V30 4851 O 468.088 1.80712 0.145849 0
M  V30 4852 C 468.136 1.36872 -3.33614 0
M  V30 4853 O 467.24 2.48372 -3.29219 0
M  V30 4854 H 466.581 0.1786 -0.63953 0
M  V30 4855 H 469.111 -0.077056 -2.04455 0
M  V30 4856 H 469.121 1.72797 -3.69601 0
M  V30 4857 H 467.796 0.651636 -4.10763 0
M  V30 4858 H 466.373 2.14639 -3.04934 0
M  V30 4859 N 468.558 1.5553 0.254621 0
M  V30 4860 C 469.488 1.9268 1.31897 0
M  V30 4861 C 470.469 0.790797 1.506 0
M  V30 4862 O 471.654 1.05045 1.63337 0
M  V30 4863 C 468.784 2.21477 2.67517 0
M  V30 4864 C 467.738 3.37256 2.63519 0
M  V30 4865 C 467.064 3.51576 4.02862 0
M  V30 4866 C 468.364 4.73157 2.21179 0
M  V30 4867 H 470.058 2.81832 1.01051 0
M  V30 4868 H 467.604 1.35599 0.484662 0
M  V30 4869 H 469.557 2.46055 3.42104 0
M  V30 4870 H 468.281 1.29144 2.99982 0
M  V30 4871 H 466.94 3.12675 1.9139 0
M  V30 4872 H 466.588 2.56676 4.32581 0
M  V30 4873 H 466.288 4.2943 4.01078 0
M  V30 4874 H 467.812 3.78467 4.79161 0
M  V30 4875 H 469.226 4.97158 2.85494 0
M  V30 4876 H 467.623 5.54058 2.30521 0
M  V30 4877 H 468.693 4.70739 1.16332 0
M  V30 4878 N 470.036 -0.519951 1.48776 0
M  V30 4879 C 470.966 -1.63253 1.66945 0
M  V30 4880 C 471.947 -1.62014 0.518224 0
M  V30 4881 O 473.132 -1.79053 0.751919 0
M  V30 4882 C 470.262 -3.0181 1.71836 0
M  V30 4883 C 469.216 -3.17911 2.8656 0
M  V30 4884 C 468.542 -4.5763 2.76548 0
M  V30 4885 C 469.842 -2.99729 4.27738 0
M  V30 4886 H 471.536 -1.48302 2.6009 0
M  V30 4887 H 469.082 -0.712026 1.25165 0
M  V30 4888 H 471.035 -3.79525 1.83135 0
M  V30 4889 H 469.759 -3.17806 0.752775 0
M  V30 4890 H 468.418 -2.42616 2.74833 0
M  V30 4891 H 468.066 -4.70476 1.77937 0
M  V30 4892 H 467.766 -4.69346 3.53536 0
M  V30 4893 H 469.29 -5.37431 2.89828 0
M  V30 4894 H 470.704 -3.67228 4.40246 0
M  V30 4895 H 469.101 -3.22932 5.05801 0
M  V30 4896 H 470.171 -1.96047 4.43502 0
M  V30 4897 N 471.514 -1.37532 -0.769588 0
M  V30 4898 C 472.742 -1.36059 -1.55871 0
M  V30 4899 C 473.157 0.053544 -1.88724 0
M  V30 4900 O 472.514 1.01591 -1.5161 0
M  V30 4901 C 472.565 -2.20107 -2.86767 0
M  V30 4902 O 472.286 -3.56009 -2.55321 0
M  V30 4903 C 473.787 -2.26636 -3.80987 0
M  V30 4904 H 471.007 -0.465967 -0.482821 0
M  V30 4905 H 473.551 -1.80901 -0.953686 0
M  V30 4906 H 471.706 -1.78768 -3.43687 0
M  V30 4907 H 472.12 -4.0009 -3.39158 0
M  V30 4908 H 473.594 -2.89763 -4.69831 0
M  V30 4909 H 474.071 -1.2754 -4.20274 0
M  V30 4910 H 474.677 -2.68296 -3.29996 0
M  V30 4911 N 472.992 0.995999 -1.22138 0
M  V30 4912 C 473.955 2.06711 -0.990109 0
M  V30 4913 C 474.955 1.60744 0.0422978 0
M  V30 4914 O 476.145 1.73095 -0.195895 0
M  V30 4915 C 473.277 3.37288 -0.49491 0
M  V30 4916 H 474.47 2.28661 -1.94047 0
M  V30 4917 H 472.023 1.16711 -1.03963 0
M  V30 4918 H 472.758 3.21022 0.459948 0
M  V30 4919 H 472.543 3.71986 -1.23971 0
M  V30 4920 H 474.033 4.16103 -0.353253 0
M  V30 4921 N 474.47 1.03057 1.19235 0
M  V30 4922 C 475.4 0.633497 2.24742 0
M  V30 4923 C 476.381 -0.358335 1.66283 0
M  V30 4924 O 477.566 -0.240676 1.92703 0
M  V30 4925 C 474.696 -0.0147648 3.47297 0
M  V30 4926 C 473.65 0.899527 4.18441 0
M  V30 4927 C 472.976 0.116281 5.34574 0
M  V30 4928 C 474.276 2.21404 4.73051 0
M  V30 4929 H 475.97 1.5155 2.58211 0
M  V30 4930 H 473.516 0.73014 1.24117 0
M  V30 4931 H 475.469 -0.304202 4.20301 0
M  V30 4932 H 474.193 -0.931577 3.13032 0
M  V30 4933 H 472.852 1.17319 3.47321 0
M  V30 4934 H 472.5 -0.802619 4.96555 0
M  V30 4935 H 472.2 0.725293 5.83107 0
M  V30 4936 H 473.724 -0.166376 6.10373 0
M  V30 4937 H 475.138 1.98601 5.37802 0
M  V30 4938 H 473.535 2.77512 5.32078 0
M  V30 4939 H 474.605 2.86752 3.91026 0
M  V30 4940 N 475.948 -1.35272 0.808662 0
M  V30 4941 C 477.225 -1.93077 0.313181 0
M  V30 4942 C 477.605 -1.73847 -1.19752 0
M  V30 4943 O 476.953 -1.1087 -1.998 0
M  V30 4944 C 477.163 -3.41347 0.726859 0
M  V30 4945 C 478.511 -4.18493 0.717532 0
M  V30 4946 O 479.535 -3.4987 0.668535 0
M  V30 4947 O 478.394 -5.40937 0.777779 0
M  V30 4948 H 475.488 -0.822885 0.0824018 0
M  V30 4949 H 478.034 -1.44335 0.892499 0
M  V30 4950 H 476.806 -3.49082 1.76797 0
M  V30 4951 H 476.429 -3.97411 0.122461 0
M  V30 4952 N 477.426 -0.562348 -1.47226 0
M  V30 4953 C 478.673 -0.0402165 -2.0246 0
M  V30 4954 C 479.001 1.31169 -1.43614 0
M  V30 4955 O 478.256 1.86805 -0.5833 0
M  V30 4956 C 478.555 0.0969817 -3.57268 0
M  V30 4957 C 478.221 -1.1847 -4.35058 0
M  V30 4958 C 476.883 -1.53588 -4.56031 0
M  V30 4959 C 479.235 -2.03378 -4.79882 0
M  V30 4960 C 476.563 -2.73452 -5.19077 0
M  V30 4961 C 478.915 -3.2245 -5.44251 0
M  V30 4962 C 477.579 -3.57876 -5.63455 0
M  V30 4963 H 476.849 -0.0147163 -0.740854 0
M  V30 4964 H 479.496 -0.734895 -1.76838 0
M  V30 4965 H 477.801 0.87466 -3.81912 0
M  V30 4966 H 479.498 0.516408 -3.97661 0
M  V30 4967 H 476.088 -0.90126 -4.19017 0
M  V30 4968 H 480.272 -1.77553 -4.63453 0
M  V30 4969 H 475.528 -3.01062 -5.32139 0
M  V30 4970 H 479.702 -3.88526 -5.77945 0
M  V30 4971 H 477.329 -4.50849 -6.12078 0
M  V30 4972 N 478.904 1.54736 -0.299062 0
M  V30 4973 C 479.851 2.23448 0.577899 0
M  V30 4974 C 480.821 1.21637 1.13109 0
M  V30 4975 O 482.006 1.50252 1.17597 0
M  V30 4976 C 479.146 2.9774 1.74484 0
M  V30 4977 C 478.259 4.1432 1.22323 0
M  V30 4978 C 477.394 4.76199 2.35388 0
M  V30 4979 C 476.433 5.84927 1.80351 0
M  V30 4980 N 475.57 6.4077 2.86982 0
M  V30 4981 H 480.41 2.97996 -0.0146545 0
M  V30 4982 H 477.947 1.47088 -0.0190013 0
M  V30 4983 H 479.905 3.39045 2.43114 0
M  V30 4984 H 478.535 2.25572 2.30905 0
M  V30 4985 H 477.587 3.7797 0.429249 0
M  V30 4986 H 478.899 4.92659 0.780309 0
M  V30 4987 H 478.053 5.20346 3.11969 0
M  V30 4988 H 476.792 3.97188 2.83006 0
M  V30 4989 H 475.797 5.40207 1.02259 0
M  V30 4990 H 477.022 6.65821 1.3364 0
M  V30 4991 H 474.968 5.64643 3.33938 0
M  V30 4992 H 474.885 7.1445 2.4718 0
M  V30 4993 H 476.153 6.89574 3.63466 0
M  V30 4994 N 480.382 0.0267497 1.57577 0
M  V30 4995 C 481.793 -0.512413 1.79531 0
M  V30 4996 C 482.144 -1.72391 0.936791 0
M  V30 4997 O 481.269 -2.15903 0.146543 0
M  V30 4998 C 481.864 -0.936378 3.25603 0
M  V30 4999 C 480.423 -1.42067 3.4856 0
M  V30 5000 C 479.57 -0.384278 2.74624 0
M  V30 5001 H 482.521 0.252797 1.56674 0
M  V30 5002 H 482.542 -1.80088 3.35184 0
M  V30 5003 H 482.054 -0.0544332 3.88062 0
M  V30 5004 H 480.155 -2.32262 2.9135 0
M  V30 5005 H 480.268 -1.42968 4.57271 0
M  V30 5006 H 478.632 -0.851855 2.40032 0
M  V30 5007 H 479.415 0.489159 3.39797 0
M  V30 5008 N 481.861 -1.55662 -0.24637 0
M  V30 5009 C 483.091 -1.81312 -0.990438 0
M  V30 5010 C 483.499 -0.600234 -1.79426 0
M  V30 5011 O 482.842 0.440537 -1.78339 0
M  V30 5012 C 482.904 -3.0032 -1.97607 0
M  V30 5013 C 482.568 -4.36322 -1.35912 0
M  V30 5014 C 483.565 -5.14295 -0.761348 0
M  V30 5015 C 481.25 -4.83019 -1.37833 0
M  V30 5016 C 483.244 -6.37114 -0.190998 0
M  V30 5017 C 480.931 -6.05786 -0.804128 0
M  V30 5018 C 481.929 -6.82672 -0.211489 0
M  V30 5019 O 481.617 -8.03121 0.353845 0
M  V30 5020 H 481.349 -0.607233 -0.297058 0
M  V30 5021 H 483.903 -2.0356 -0.274351 0
M  V30 5022 H 482.133 -2.73829 -2.73047 0
M  V30 5023 H 483.822 -3.13057 -2.58361 0
M  V30 5024 H 484.588 -4.79337 -0.739013 0
M  V30 5025 H 480.467 -4.23165 -1.829 0
M  V30 5026 H 484.011 -6.97069 0.272206 0
M  V30 5027 H 479.908 -6.40222 -0.823792 0
M  V30 5028 H 480.676 -8.18131 0.245761 0
M  V30 5029 N 483.339 0.512053 -1.4905 0
M  V30 5030 C 484.271 1.63121 -1.6101 0
M  V30 5031 C 485.284 1.55145 -0.493352 0
M  V30 5032 O 486.473 1.61278 -0.764955 0
M  V30 5033 C 483.573 3.01863 -1.54052 0
M  V30 5034 C 482.746 3.35138 -2.81072 0
M  V30 5035 C 481.805 4.5324 -2.67319 0
M  V30 5036 O 480.831 4.55571 -3.41238 0
M  V30 5037 N 482.033 5.52495 -1.78127 0
M  V30 5038 H 484.798 1.53292 -2.5753 0
M  V30 5039 H 482.359 0.699706 -1.45999 0
M  V30 5040 H 484.351 3.78774 -1.42521 0
M  V30 5041 H 482.921 3.05675 -0.654345 0
M  V30 5042 H 482.141 2.4723 -3.07036 0
M  V30 5043 H 483.429 3.54162 -3.65304 0
M  V30 5044 H 482.827 5.53403 -1.17308 0
M  V30 5045 H 481.384 6.28553 -1.72525 0
M  V30 5046 N 484.817 1.37938 0.762283 0
M  V30 5047 C 485.747 1.37176 1.88958 0
M  V30 5048 C 486.728 0.238945 1.68413 0
M  V30 5049 O 487.913 0.440726 1.89133 0
M  V30 5050 C 485.043 1.18742 3.2637 0
M  V30 5051 C 483.997 2.29136 3.61498 0
M  V30 5052 C 483.323 1.95816 4.97554 0
M  V30 5053 C 484.623 3.71363 3.6727 0
M  V30 5054 H 486.317 2.31509 1.89853 0
M  V30 5055 H 483.863 1.11438 0.912005 0
M  V30 5056 H 485.816 1.16837 4.04879 0
M  V30 5057 H 484.54 0.208683 3.25933 0
M  V30 5058 H 483.199 2.30213 2.85303 0
M  V30 5059 H 482.847 0.964475 4.93667 0
M  V30 5060 H 482.547 2.69745 5.22026 0
M  V30 5061 H 484.071 1.95513 5.78452 0
M  V30 5062 H 485.485 3.72364 4.35911 0
M  V30 5063 H 483.882 4.44425 4.03245 0
M  V30 5064 H 484.952 4.04305 2.67704 0
M  V30 5065 N 486.295 -0.989507 1.22664 0
M  V30 5066 C 487.245 -2.06478 0.967005 0
M  V30 5067 C 488.229 -1.60682 -0.0836374 0
M  V30 5068 O 489.421 -1.76541 0.127322 0
M  V30 5069 C 486.55 -3.38861 0.550313 0
M  V30 5070 C 485.636 -3.9128 1.63587 0
M  V30 5071 N 486.027 -4.16884 2.86429 0
M  V30 5072 C 484.325 -4.1972 1.50834 0
M  V30 5073 C 485.026 -4.5954 3.56648 0
M  V30 5074 N 484.002 -4.63434 2.84131 0
M  V30 5075 H 487.804 -2.24219 1.90008 0
M  V30 5076 H 485.318 -1.17153 1.12467 0
M  V30 5077 H 487.315 -4.15465 0.345612 0
M  V30 5078 H 485.975 -3.22518 -0.375822 0
M  V30 5079 H 486.986 -4.04976 3.22823 0
M  V30 5080 H 483.663 -4.1243 0.648643 0
M  V30 5081 H 485.053 -4.87944 4.61909 0
M  V30 5082 N 487.773 -1.03688 -1.18687 0
M  V30 5083 C 489.05 -0.652397 -1.84399 0
M  V30 5084 C 489.43 0.868386 -1.92412 0
M  V30 5085 O 488.778 1.76832 -1.44716 0
M  V30 5086 C 488.988 -1.3238 -3.22919 0
M  V30 5087 C 490.336 -1.45216 -3.98996 0
M  V30 5088 O 491.36 -1.2816 -3.32345 0
M  V30 5089 O 490.219 -1.72975 -5.18403 0
M  V30 5090 H 487.313 -0.227793 -0.795009 0
M  V30 5091 H 489.859 -1.13553 -1.2611 0
M  V30 5092 H 488.631 -2.36202 -3.11968 0
M  V30 5093 H 488.254 -0.829039 -3.88861 0
M  V30 5094 N 489.251 1.34841 -0.815825 0
M  V30 5095 C 490.183 2.28409 -0.190265 0
M  V30 5096 C 491.196 1.50705 0.615771 0
M  V30 5097 O 492.385 1.72822 0.446616 0
M  V30 5098 C 489.485 3.30441 0.752446 0
M  V30 5099 C 488.658 4.37399 -0.00922152 0
M  V30 5100 C 487.717 5.19234 0.853351 0
M  V30 5101 O 486.743 5.68404 0.300919 0
M  V30 5102 N 487.945 5.38248 2.17416 0
M  V30 5103 H 490.71 2.82732 -0.994114 0
M  V30 5104 H 488.271 1.47289 -0.672129 0
M  V30 5105 H 490.263 3.82084 1.33394 0
M  V30 5106 H 488.833 2.76565 1.45707 0
M  V30 5107 H 488.053 3.86567 -0.771979 0
M  V30 5108 H 489.341 5.05992 -0.533807 0
M  V30 5109 H 488.739 4.99961 2.6468 0
M  V30 5110 H 487.296 5.93035 2.70467 0
M  V30 5111 N 490.729 0.570148 1.46925 0
M  V30 5112 C 491.677 -0.183181 2.31878 0
M  V30 5113 C 492.671 -0.896721 1.43719 0
M  V30 5114 O 493.877 -0.816536 1.60414 0
M  V30 5115 H 490.252 -0.077944 0.74795 0
M  V30 5116 H 492.223 0.552312 2.93244 0
M  V30 5117 C 490.972 -1.19172 3.2664 0
M  V30 5118 H 490.295 -0.652088 3.94446 0
M  V30 5119 H 491.735 -1.68946 3.88887 0
M  V30 5120 C 490.194 -2.24627 2.51086 0
M  V30 5121 O 490.724 -3.31773 2.26472 0
M  V30 5122 N 488.93 -1.98898 2.11867 0
M  V30 5123 H 488.477 -1.11777 2.32086 0
M  V30 5124 H 488.435 -2.6967 1.61634 0
M  V30 5125 N 492.207 -1.54576 0.307264 0
M  V30 5126 C 493.117 -2.27435 -0.57536 0
M  V30 5127 C 494.133 -1.31183 -1.14311 0
M  V30 5128 O 495.309 -1.64175 -1.16656 0
M  V30 5129 C 492.374 -3.00566 -1.72803 0
M  V30 5130 C 491.435 -4.12369 -1.19373 0
M  V30 5131 C 490.668 -4.82003 -2.29147 0
M  V30 5132 O 490.891 -4.51038 -3.49171 0
M  V30 5133 O 489.825 -5.69271 -1.95485 0
M  V30 5134 H 493.651 -3.03696 0.0158558 0
M  V30 5135 H 491.236 -1.49219 0.0735064 0
M  V30 5136 H 493.118 -3.46416 -2.39946 0
M  V30 5137 H 491.793 -2.27195 -2.30574 0
M  V30 5138 H 490.7 -3.70905 -0.487851 0
M  V30 5139 H 492.033 -4.87736 -0.661376 0
M  V30 5140 N 493.685 -0.035106 -1.57561 0
M  V30 5141 C 495.101 0.321334 -1.56332 0
M  V30 5142 C 495.301 1.72509 -1.04129 0
M  V30 5143 O 494.357 2.4287 -0.690694 0
M  V30 5144 C 495.67 0.164469 -3.0025 0
M  V30 5145 C 497.218 0.236786 -3.12103 0
M  V30 5146 C 497.693 0.10864 -4.57871 0
M  V30 5147 N 499.184 0.165433 -4.62904 0
M  V30 5148 C 499.919 0.0901506 -5.73329 0
M  V30 5149 N 499.415 -0.0365606 -6.9279 0
M  V30 5150 N 501.208 0.144572 -5.61914 0
M  V30 5151 H 493.359 -0.952976 -1.89821 0
M  V30 5152 H 495.622 -0.368537 -0.873432 0
M  V30 5153 H 495.328 -0.802746 -3.42416 0
M  V30 5154 H 495.202 0.932194 -3.655 0
M  V30 5155 H 497.589 1.19446 -2.69845 0
M  V30 5156 H 497.67 -0.561419 -2.49563 0
M  V30 5157 H 497.314 -0.845644 -5.00811 0
M  V30 5158 H 497.244 0.925786 -5.18398 0
M  V30 5159 H 499.735 0.263269 -3.76982 0
M  V30 5160 H 500.048 -0.0871487 -7.72751 0
M  V30 5161 H 498.393 -0.0714256 -6.94963 0
M  V30 5162 H 501.584 0.242006 -4.67474 0
M  V30 5163 H 501.757 0.0824413 -6.47948 0
M  V30 5164 N 495.163 1.55791 0.238111 0
M  V30 5165 C 496.391 1.82098 0.982233 0
M  V30 5166 C 496.806 0.612025 1.78605 0
M  V30 5167 O 496.163 -0.419381 1.77616 0
M  V30 5168 C 496.214 3.0673 1.91309 0
M  V30 5169 O 495.935 4.2296 1.14179 0
M  V30 5170 C 497.436 3.45903 2.77248 0
M  V30 5171 H 494.656 0.605748 0.288635 0
M  V30 5172 H 497.2 2.02862 0.258341 0
M  V30 5173 H 495.355 2.87991 2.59114 0
M  V30 5174 H 495.769 4.93653 1.7722 0
M  V30 5175 H 497.243 4.36189 3.38295 0
M  V30 5176 H 497.72 2.66891 3.48806 0
M  V30 5177 H 498.326 3.67024 2.14881 0
M  V30 5178 N 496.642 -0.504142 1.49319 0
M  V30 5179 C 498.053 -1.08572 1.51885 0
M  V30 5180 C 498.404 -1.93842 0.303255 0
M  V30 5181 O 497.529 -2.0828 -0.58724 0
M  V30 5182 C 498.124 -1.97574 2.75227 0
M  V30 5183 C 496.683 -2.509 2.80581 0
M  V30 5184 C 495.83 -1.28447 2.45757 0
M  V30 5185 H 498.781 -0.288194 1.56061 0
M  V30 5186 H 498.802 -2.82219 2.55211 0
M  V30 5187 H 498.314 -1.35486 3.63683 0
M  V30 5188 H 496.415 -3.16636 1.96398 0
M  V30 5189 H 496.528 -2.88268 3.82673 0
M  V30 5190 H 494.892 -1.60868 1.97468 0
M  V30 5191 H 495.675 -0.68072 3.36483 0
M  V30 5192 N 498.12 -1.38341 -0.754957 0
M  V30 5193 C 499.369 -1.33791 -1.5094 0
M  V30 5194 C 499.682 0.0699267 -1.95475 0
M  V30 5195 O 500.888 0.237956 -2.70455 0
M  V30 5196 C 499.344 -2.34934 -2.72643 0
M  V30 5197 C 498.952 -3.81332 -2.35138 0
M  V30 5198 C 500.696 -2.39425 -3.50536 0
M  V30 5199 C 498.603 -4.74164 -3.53444 0
M  V30 5200 H 497.533 -0.497314 -0.566741 0
M  V30 5201 H 500.184 -1.63888 -0.825403 0
M  V30 5202 H 498.566 -1.97878 -3.43017 0
M  V30 5203 H 499.74 -4.27319 -1.7244 0
M  V30 5204 H 498.055 -3.79946 -1.70382 0
M  V30 5205 H 500.652 -3.0598 -4.38498 0
M  V30 5206 H 500.995 -1.41278 -3.91594 0
M  V30 5207 H 501.528 -2.75274 -2.87174 0
M  V30 5208 H 498.267 -5.73501 -3.17453 0
M  V30 5209 H 497.787 -4.3287 -4.15191 0
M  V30 5210 H 499.466 -4.92111 -4.20043 0
M  V30 5211 N 499.598 0.982988 -1.23187 0
M  V30 5212 C 500.846 1.72052 -1.06031 0
M  V30 5213 C 501.167 1.90769 0.404019 0
M  V30 5214 O 500.437 1.47446 1.28982 0
M  V30 5215 H 499.017 0.637499 -0.389363 0
M  V30 5216 H 501.679 1.18338 -1.54862 0
M  V30 5217 H 500.775 2.7111 -1.54615 0
M  V30 5218 N 501.076 1.04316 1.18135 0
M  V30 5219 C 502.324 0.746542 1.87806 0
M  V30 5220 C 502.645 -0.728082 1.80898 0
M  V30 5221 O 501.915 -1.52554 1.22899 0
M  V30 5222 H 500.495 0.273157 0.695265 0
M  V30 5223 H 503.157 1.32044 1.43354 0
M  V30 5224 H 502.253 1.05362 2.93778 0
M  V30 5225 N 502.554 -1.34406 0.822964 0
M  V30 5226 C 503.501 -2.29519 0.24284 0
M  V30 5227 C 504.471 -1.5359 -0.632397 0
M  V30 5228 O 505.656 -1.8196 -0.57403 0
M  V30 5229 C 502.796 -3.40032 -0.58925 0
M  V30 5230 C 501.909 -4.30899 0.308236 0
M  V30 5231 C 501.044 -5.28515 -0.533425 0
M  V30 5232 C 500.083 -6.1102 0.363444 0
M  V30 5233 N 499.22 -7.00725 -0.439147 0
M  V30 5234 H 504.06 -2.78537 1.05929 0
M  V30 5235 H 501.597 -1.3707 0.533872 0
M  V30 5236 H 503.555 -4.0279 -1.087 0
M  V30 5237 H 502.185 -2.92248 -1.37081 0
M  V30 5238 H 501.237 -3.69002 0.924203 0
M  V30 5239 H 502.549 -4.88717 0.997862 0
M  V30 5240 H 501.703 -5.96725 -1.09565 0
M  V30 5241 H 500.442 -4.71235 -1.25656 0
M  V30 5242 H 499.447 -5.41743 0.937812 0
M  V30 5243 H 500.672 -6.70381 1.08469 0
M  V30 5244 H 498.618 -6.45913 -1.14595 0
M  V30 5245 H 498.535 -7.55756 0.19209 0
M  V30 5246 H 499.803 -7.73263 -0.984124 0
M  V30 5247 N 504.032 -0.577932 -1.46621 0
M  V30 5248 C 505.281 -0.0594281 -2.01612 0
M  V30 5249 C 505.594 1.30663 -1.45556 0
M  V30 5250 O 506.8 1.91621 -1.92337 0
M  V30 5251 C 505.256 -0.0556666 -3.59857 0
M  V30 5252 C 504.864 -1.41975 -4.24908 0
M  V30 5253 C 506.608 0.409143 -4.22524 0
M  V30 5254 C 504.515 -1.37397 -5.75218 0
M  V30 5255 H 503.445 -0.0184469 -0.753774 0
M  V30 5256 H 506.096 -0.728869 -1.68404 0
M  V30 5257 H 504.478 0.679843 -3.90121 0
M  V30 5258 H 505.652 -2.17461 -4.0626 0
M  V30 5259 H 503.967 -1.82419 -3.74316 0
M  V30 5260 H 506.564 0.46211 -5.32699 0
M  V30 5261 H 506.907 1.42565 -3.91128 0
M  V30 5262 H 507.44 -0.272152 -3.96868 0
M  V30 5263 H 504.179 -2.36714 -6.11267 0
M  V30 5264 H 503.699 -0.661239 -5.96144 0
M  V30 5265 H 505.378 -1.08484 -6.3784 0
M  V30 5266 N 505.51 1.54411 -0.315457 0
M  V30 5267 C 506.756 2.00716 0.289972 0
M  V30 5268 C 507.089 1.2034 1.5242 0
M  V30 5269 O 506.364 0.283579 1.92422 0
M  V30 5270 C 506.647 3.54507 0.632196 0
M  V30 5271 C 506.5 4.45615 -0.61218 0
M  V30 5272 C 507.819 4.15421 1.45305 0
M  V30 5273 H 504.938 0.729637 0.10392 0
M  V30 5274 H 507.58 1.8506 -0.430427 0
M  V30 5275 H 505.73 3.67979 1.24595 0
M  V30 5276 H 507.402 4.44026 -1.25053 0
M  V30 5277 H 505.645 4.15621 -1.24264 0
M  V30 5278 H 506.316 5.51022 -0.328379 0
M  V30 5279 H 508.792 4.05474 0.934331 0
M  V30 5280 H 507.668 5.23157 1.66127 0
M  V30 5281 H 507.929 3.68223 2.44671 0
M  V30 5282 N 506.988 0.0434614 1.5754 0
M  V30 5283 C 508.235 -0.632035 1.92384 0
M  V30 5284 C 508.563 -1.71304 0.921157 0
M  V30 5285 O 507.818 -1.95583 -0.067744 0
M  V30 5286 C 508.117 -1.2738 3.3393 0
M  V30 5287 C 507.783 -0.321757 4.49751 0
M  V30 5288 C 506.445 -0.0597611 4.81163 0
M  V30 5289 C 508.797 0.331158 5.20147 0
M  V30 5290 C 506.125 0.862715 5.80322 0
M  V30 5291 C 508.477 1.24178 6.20292 0
M  V30 5292 C 507.141 1.51252 6.50138 0
M  V30 5293 H 506.411 -0.231278 0.703983 0
M  V30 5294 H 509.058 0.108294 1.91194 0
M  V30 5295 H 507.363 -2.08921 3.3145 0
M  V30 5296 H 509.06 -1.80326 3.58167 0
M  V30 5297 H 505.65 -0.53614 4.25233 0
M  V30 5298 H 509.834 0.141826 4.96097 0
M  V30 5299 H 505.09 1.08003 6.01785 0
M  V30 5300 H 509.264 1.75381 6.73954 0
M  V30 5301 H 506.891 2.22897 7.26788 0
M  V30 5302 N 508.466 -1.55915 -0.229846 0
M  V30 5303 C 509.398 -1.88209 -1.30805 0
M  V30 5304 C 510.411 -0.769672 -1.43457 0
M  V30 5305 O 511.6 -1.04792 -1.44502 0
M  V30 5306 C 508.7 -2.06829 -2.68468 0
M  V30 5307 C 507.873 -3.37798 -2.77869 0
M  V30 5308 C 506.932 -3.45952 -3.96489 0
M  V30 5309 O 505.958 -4.19043 -3.85216 0
M  V30 5310 N 507.16 -2.76488 -5.10426 0
M  V30 5311 H 509.925 -2.81286 -1.03431 0
M  V30 5312 H 507.486 -1.5636 -0.41991 0
M  V30 5313 H 509.478 -2.09608 -3.46189 0
M  V30 5314 H 508.048 -1.20416 -2.88477 0
M  V30 5315 H 507.268 -3.4719 -1.86689 0
M  V30 5316 H 508.556 -4.24091 -2.81113 0
M  V30 5317 H 507.954 -2.16868 -5.2248 0
M  V30 5318 H 506.511 -2.84938 -5.8622 0
M  V30 5319 N 509.944 0.496216 -1.49584 0
M  V30 5320 C 511.36 0.827814 -1.36453 0
M  V30 5321 C 511.56 1.97464 -0.401285 0
M  V30 5322 O 510.616 2.51958 0.165296 0
M  V30 5323 C 511.929 1.16352 -2.77277 0
M  V30 5324 C 513.477 1.27145 -2.86013 0
M  V30 5325 C 513.952 1.64042 -4.27615 0
M  V30 5326 N 515.443 1.71082 -4.30448 0
M  V30 5327 C 516.178 2.01085 -5.36984 0
M  V30 5328 N 515.674 2.2928 -6.5376 0
M  V30 5329 N 517.467 2.02376 -5.24405 0
M  V30 5330 H 509.618 -0.259947 -2.10803 0
M  V30 5331 H 511.881 -0.0537163 -0.946477 0
M  V30 5332 H 511.587 0.394153 -3.49484 0
M  V30 5333 H 511.461 2.10582 -3.12946 0
M  V30 5334 H 513.848 2.03152 -2.1404 0
M  V30 5335 H 513.929 0.309542 -2.5392 0
M  V30 5336 H 513.573 0.88583 -5.00115 0
M  V30 5337 H 513.503 2.6134 -4.57175 0
M  V30 5338 H 515.994 1.51434 -3.46232 0
M  V30 5339 H 516.307 2.51376 -7.30774 0
M  V30 5340 H 514.652 2.26726 -6.56978 0
M  V30 5341 H 517.843 1.79829 -4.32179 0
M  V30 5342 H 518.016 2.25425 -6.07526 0
M  V30 5343 N 511.423 1.38739 0.74761 0
M  V30 5344 C 512.669 1.3648 1.50814 0
M  V30 5345 C 513.024 -0.0431982 1.92351 0
M  V30 5346 O 512.317 -1.0071 1.62997 0
M  V30 5347 C 512.511 2.25992 2.7688 0
M  V30 5348 C 512.34 3.75354 2.47668 0
M  V30 5349 C 511.11 4.44348 2.40589 0
M  V30 5350 C 513.308 4.67642 2.14046 0
M  V30 5351 N 511.29 5.79114 2.03715 0
M  V30 5352 C 512.661 5.90965 1.87512 0
M  V30 5353 C 514.716 4.55787 2.00407 0
M  V30 5354 C 513.419 7.03759 1.48714 0
M  V30 5355 C 515.445 5.68491 1.63011 0
M  V30 5356 C 514.807 6.90879 1.37353 0
M  V30 5357 H 510.906 0.554695 0.551214 0
M  V30 5358 H 513.49 1.7418 0.870033 0
M  V30 5359 H 511.661 1.9047 3.3849 0
M  V30 5360 H 513.393 2.14815 3.42982 0
M  V30 5361 H 510.148 3.97634 2.57262 0
M  V30 5362 H 510.572 6.504 1.87906 0
M  V30 5363 H 515.214 3.61712 2.18916 0
M  V30 5364 H 512.932 7.97746 1.28945 0
M  V30 5365 H 516.518 5.613 1.53081 0
M  V30 5366 H 515.398 7.76609 1.08848 0
M  V30 5367 N 512.901 -0.976442 1.23707 0
M  V30 5368 C 513.851 -2.0544 0.988851 0
M  V30 5369 C 514.835 -1.60762 -0.0665901 0
M  V30 5370 O 516.027 -1.76396 0.14604 0
M  V30 5371 C 513.156 -3.38258 0.586223 0
M  V30 5372 C 512.242 -3.89523 1.67728 0
M  V30 5373 N 512.633 -4.13823 2.90834 0
M  V30 5374 C 510.931 -4.18097 1.55277 0
M  V30 5375 C 511.632 -4.55731 3.61502 0
M  V30 5376 N 510.608 -4.60394 2.8903 0
M  V30 5377 H 514.41 -2.22191 1.92376 0
M  V30 5378 H 511.924 -1.15954 1.13704 0
M  V30 5379 H 513.921 -4.15075 0.389658 0
M  V30 5380 H 512.581 -3.22898 -0.341594 0
M  V30 5381 H 513.592 -4.01529 3.271 0
M  V30 5382 H 510.269 -4.11719 0.692351 0
M  V30 5383 H 511.659 -4.83018 4.67059 0
M  V30 5384 N 514.379 -1.04941 -1.1758 0
M  V30 5385 C 515.656 -0.671918 -1.83697 0
M  V30 5386 C 516.036 0.847929 -1.93322 0
M  V30 5387 O 515.384 1.75287 -1.46583 0
M  V30 5388 C 515.594 -1.35797 -3.21497 0
M  V30 5389 C 516.942 -1.4944 -3.97433 0
M  V30 5390 O 517.966 -1.31678 -3.30967 0
M  V30 5391 O 516.825 -1.78463 -5.1654 0
M  V30 5392 H 513.919 -0.236212 -0.792548 0
M  V30 5393 H 516.465 -1.14884 -1.24899 0
M  V30 5394 H 515.237 -2.39498 -3.09446 0
M  V30 5395 H 514.86 -0.870236 -3.8796 0
M  V30 5396 N 515.857 1.33968 -0.830081 0
M  V30 5397 C 517.082 2.02813 -0.433796 0
M  V30 5398 C 517.507 1.62076 0.954614 0
M  V30 5399 O 516.865 0.808955 1.62252 0
M  V30 5400 C 516.913 3.56348 -0.552115 0
M  V30 5401 O 516.017 4.10202 0.425191 0
M  V30 5402 H 515.358 0.639817 -0.177567 0
M  V30 5403 H 517.888 1.7106 -1.12248 0
M  V30 5404 H 517.898 4.05722 -0.430513 0
M  V30 5405 H 516.573 3.85344 -1.56471 0
M  V30 5406 H 515.15 3.71979 0.261878 0
M  V30 5407 N 517.335 0.585699 1.46312 0
M  V30 5408 C 518.282 -0.145835 2.30339 0
M  V30 5409 C 519.252 -0.881215 1.40797 0
M  V30 5410 O 520.437 -0.871293 1.69744 0
M  V30 5411 C 517.577 -1.15161 3.25318 0
M  V30 5412 C 516.69 -0.419367 4.2996 0
M  V30 5413 C 515.825 -1.41293 5.12064 0
M  V30 5414 C 514.864 -0.667261 6.08452 0
M  V30 5415 N 514.001 -1.60903 6.83414 0
M  V30 5416 H 518.841 0.576755 2.92365 0
M  V30 5417 H 516.378 0.296237 1.44086 0
M  V30 5418 H 518.336 -1.74763 3.78832 0
M  V30 5419 H 516.966 -1.84188 2.65094 0
M  V30 5420 H 516.018 0.291751 3.7928 0
M  V30 5421 H 517.33 0.163433 4.98532 0
M  V30 5422 H 516.484 -2.08167 5.6987 0
M  V30 5423 H 515.223 -2.02966 4.43459 0
M  V30 5424 H 514.228 0.0152356 5.49798 0
M  V30 5425 H 515.453 -0.0558817 6.79077 0
M  V30 5426 H 513.399 -2.21381 6.17516 0
M  V30 5427 H 513.316 -1.07911 7.48259 0
M  V30 5428 H 514.584 -2.26802 7.45775 0
M  V30 5429 N 518.813 -1.54241 0.323641 0
M  V30 5430 C 519.776 -2.22997 -0.529602 0
M  V30 5431 C 520.776 -1.22345 -1.04347 0
M  V30 5432 O 521.966 -1.46924 -0.935889 0
M  V30 5433 C 519.098 -2.93409 -1.73562 0
M  V30 5434 H 520.291 -2.99815 0.0714518 0
M  V30 5435 H 517.844 -1.56121 0.0747258 0
M  V30 5436 H 518.579 -2.20729 -2.37591 0
M  V30 5437 H 518.364 -3.67217 -1.37456 0
M  V30 5438 H 519.854 -3.45794 -2.34128 0
M  V30 5439 N 520.291 -0.0518155 -1.57515 0
M  V30 5440 C 521.239 0.940195 -2.12751 0
M  V30 5441 C 522.233 1.3218 -1.05948 0
M  V30 5442 O 523.439 1.30138 -1.24355 0
M  V30 5443 H 519.814 0.321066 -0.680015 0
M  V30 5444 H 521.785 0.449217 -2.94999 0
M  V30 5445 C 520.534 2.2055 -2.68799 0
M  V30 5446 H 519.857 1.92066 -3.50643 0
M  V30 5447 H 521.297 2.88119 -3.11068 0
M  V30 5448 C 519.756 2.95061 -1.62605 0
M  V30 5449 O 520.286 3.88025 -1.03921 0
M  V30 5450 N 518.492 2.57804 -1.34111 0
M  V30 5451 H 518.039 1.82281 -1.8202 0
M  V30 5452 H 517.997 3.07964 -0.632872 0
M  V30 5453 N 521.769 1.56035 0.221574 0
M  V30 5454 C 523.185 1.49026 0.571271 0
M  V30 5455 C 523.385 0.746912 1.87146 0
M  V30 5456 O 522.441 0.286566 2.50869 0
M  V30 5457 C 523.754 2.93579 0.650522 0
M  V30 5458 C 525.302 3.04099 0.741151 0
M  V30 5459 C 525.777 4.5001 0.851747 0
M  V30 5460 N 527.268 4.54053 0.915968 0
M  V30 5461 C 528.003 5.64232 1.02125 0
M  V30 5462 N 527.499 6.84164 1.09049 0
M  V30 5463 N 529.292 5.52084 1.05639 0
M  V30 5464 H 521.443 2.02791 -0.63162 0
M  V30 5465 H 523.706 0.921736 -0.221602 0
M  V30 5466 H 523.412 3.50912 -0.235253 0
M  V30 5467 H 523.286 3.45476 1.51413 0
M  V30 5468 H 525.673 2.4683 1.61737 0
M  V30 5469 H 525.754 2.55371 -0.148128 0
M  V30 5470 H 525.398 5.07896 -0.0200117 0
M  V30 5471 H 525.328 4.96444 1.75644 0
M  V30 5472 H 527.819 3.67683 0.872782 0
M  V30 5473 H 528.132 7.63883 1.1706 0
M  V30 5474 H 526.477 6.86875 1.05962 0
M  V30 5475 H 529.668 4.57317 0.998953 0
M  V30 5476 H 529.841 6.37983 1.13498 0
M  V30 5477 N 523.247 -0.488276 1.49845 0
M  V30 5478 C 524.524 -1.24959 1.50481 0
M  V30 5479 C 524.904 -2.09735 0.239698 0
M  V30 5480 O 524.252 -2.14865 -0.777524 0
M  V30 5481 C 524.462 -2.0954 2.79095 0
M  V30 5482 C 525.81 -2.68305 3.29086 0
M  V30 5483 O 526.834 -2.19797 2.80299 0
M  V30 5484 O 525.693 -3.56643 4.14087 0
M  V30 5485 H 522.787 -0.566133 0.602845 0
M  V30 5486 H 525.333 -0.501504 1.6212 0
M  V30 5487 H 524.105 -1.46958 3.62656 0
M  V30 5488 H 523.728 -2.91517 2.70377 0
M  V30 5489 N 524.725 -1.39134 -0.740242 0
M  V30 5490 C 525.655 -1.40165 -1.86751 0
M  V30 5491 C 526.636 -0.265708 -1.68012 0
M  V30 5492 O 527.821 -0.47076 -1.88408 0
M  V30 5493 C 524.951 -1.2392 -3.2444 0
M  V30 5494 C 523.905 -2.34858 -3.57807 0
M  V30 5495 C 523.231 -2.03707 -4.94376 0
M  V30 5496 C 524.531 -3.77159 -3.61315 0
M  V30 5497 H 526.225 -2.345 -1.86145 0
M  V30 5498 H 523.771 -1.12875 -0.89416 0
M  V30 5499 H 525.724 -1.23263 -4.02969 0
M  V30 5500 H 524.448 -0.26051 -3.25559 0
M  V30 5501 H 523.107 -2.34723 -2.81604 0
M  V30 5502 H 522.755 -1.04289 -4.9207 0
M  V30 5503 H 522.455 -2.78016 -5.17669 0
M  V30 5504 H 523.979 -2.04691 -5.75268 0
M  V30 5505 H 525.393 -3.79252 -4.29931 0
M  V30 5506 H 523.79 -4.50784 -3.96124 0
M  V30 5507 H 524.86 -4.08513 -2.61238 0
M  V30 5508 N 526.204 0.969867 -1.24223 0
M  V30 5509 C 527.137 2.06279 -0.975926 0
M  V30 5510 C 528.115 1.62353 0.0895385 0
M  V30 5511 O 529.299 1.88442 -0.0469418 0
M  V30 5512 C 526.426 3.35391 -0.472315 0
M  V30 5513 C 525.472 3.98266 -1.526 0
M  V30 5514 S 526.305 4.36172 -3.10667 0
M  V30 5515 C 527.461 5.68423 -2.62003 0
M  V30 5516 H 527.694 2.28551 -1.90137 0
M  V30 5517 H 525.227 1.10748 -1.07584 0
M  V30 5518 H 527.185 4.10068 -0.188376 0
M  V30 5519 H 525.846 3.1111 0.432378 0
M  V30 5520 H 525.039 4.91307 -1.12399 0
M  V30 5521 H 524.641 3.30009 -1.75983 0
M  V30 5522 H 526.933 6.45842 -2.0468 0
M  V30 5523 H 527.876 6.13478 -3.53625 0
M  V30 5524 H 528.284 5.26928 -2.02502 0
M  V30 5525 N 527.682 1.05563 1.17022 0
M  V30 5526 C 528.629 0.659893 2.21165 0
M  V30 5527 C 529.599 -0.339813 1.62587 0
M  V30 5528 O 530.784 -0.230378 1.89404 0
M  V30 5529 C 527.924 0.0447297 3.45071 0
M  V30 5530 C 527.037 1.09372 4.17926 0
M  V30 5531 C 526.172 0.445481 5.29329 0
M  V30 5532 C 525.211 1.47852 5.93975 0
M  V30 5533 N 524.348 0.854172 6.96885 0
M  V30 5534 H 529.188 1.55243 2.54369 0
M  V30 5535 H 526.725 0.776336 1.24946 0
M  V30 5536 H 528.683 -0.329404 4.15898 0
M  V30 5537 H 527.313 -0.811244 3.1244 0
M  V30 5538 H 526.365 1.58564 3.45777 0
M  V30 5539 H 527.677 1.87773 4.62107 0
M  V30 5540 H 526.831 0.0179688 6.06697 0
M  V30 5541 H 525.57 -0.370481 4.86291 0
M  V30 5542 H 524.575 1.91601 5.15334 0
M  V30 5543 H 525.8 2.29645 6.39093 0
M  V30 5544 H 523.746 0.0587882 6.55974 0
M  V30 5545 H 523.663 1.57567 7.39397 0
M  V30 5546 H 524.931 0.451559 7.78191 0
M  V30 5547 N 529.16 -1.33526 0.837174 0
M  V30 5548 C 530.409 -1.97098 0.428387 0
M  V30 5549 C 530.722 -1.67062 -1.01734 0
M  V30 5550 O 531.928 -2.24235 -1.53072 0
M  V30 5551 C 530.384 -3.52725 0.715075 0
M  V30 5552 C 529.992 -3.9164 2.17537 0
M  V30 5553 C 531.736 -4.22857 0.373154 0
M  V30 5554 C 529.643 -5.40237 2.40619 0
M  V30 5555 H 528.573 -0.737589 0.156455 0
M  V30 5556 H 531.224 -1.52169 1.02552 0
M  V30 5557 H 529.606 -3.95971 0.0475904 0
M  V30 5558 H 530.78 -3.59456 2.88319 0
M  V30 5559 H 529.095 -3.34485 2.4801 0
M  V30 5560 H 531.692 -5.32133 0.523264 0
M  V30 5561 H 532.035 -4.10647 -0.683708 0
M  V30 5562 H 532.568 -3.85135 0.995801 0
M  V30 5563 H 529.307 -5.57449 3.44864 0
M  V30 5564 H 528.827 -5.73887 1.74396 0
M  V30 5565 H 530.506 -6.07102 2.23688 0
M  V30 5566 N 530.638 -0.59345 -1.46 0
M  V30 5567 C 531.548 0.135817 -2.34207 0
M  V30 5568 C 532.564 0.875008 -1.50398 0
M  V30 5569 O 533.74 0.835778 -1.83239 0
M  V30 5570 C 530.805 1.12977 -3.27776 0
M  V30 5571 C 529.866 0.394081 -4.27487 0
M  V30 5572 C 529.099 1.34068 -5.16586 0
M  V30 5573 O 529.322 2.5778 -5.08828 0
M  V30 5574 O 528.256 0.845426 -5.95933 0
M  V30 5575 H 532.082 -0.588691 -2.9794 0
M  V30 5576 H 529.667 -0.353784 -1.45151 0
M  V30 5577 H 531.549 1.70261 -3.85473 0
M  V30 5578 H 530.224 1.83556 -2.66625 0
M  V30 5579 H 529.131 -0.220869 -3.73447 0
M  V30 5580 H 530.464 -0.270939 -4.91454 0
M  V30 5581 N 532.116 1.54067 -0.331816 0
M  V30 5582 C 533.346 2.04833 0.269605 0
M  V30 5583 C 533.754 1.20714 1.45687 0
M  V30 5584 O 533.097 0.232539 1.82222 0
M  V30 5585 C 533.159 3.51386 0.759499 0
M  V30 5586 C 532.823 4.55971 -0.306557 0
M  V30 5587 C 533.82 5.07126 -1.14538 0
M  V30 5588 C 531.505 5.00216 -0.457116 0
M  V30 5589 C 533.499 6.01096 -2.12042 0
M  V30 5590 C 531.186 5.93999 -1.43556 0
M  V30 5591 C 532.184 6.44326 -2.26568 0
M  V30 5592 O 531.872 7.36267 -3.22749 0
M  V30 5593 H 531.604 0.673509 0.0579763 0
M  V30 5594 H 534.158 1.99748 -0.478521 0
M  V30 5595 H 532.388 3.53896 1.55867 0
M  V30 5596 H 534.077 3.85184 1.28017 0
M  V30 5597 H 534.843 4.73716 -1.04009 0
M  V30 5598 H 530.722 4.60652 0.179142 0
M  V30 5599 H 534.266 6.40302 -2.76873 0
M  V30 5600 H 530.163 6.26825 -1.54146 0
M  V30 5601 H 530.931 7.54165 -3.18083 0
M  V30 5602 N 533.594 0.0601682 1.57485 0
M  V30 5603 C 534.84 -0.612501 1.93329 0
M  V30 5604 C 535.173 -1.6996 0.939526 0
M  V30 5605 O 534.448 -1.94472 -0.0330957 0
M  V30 5606 C 534.731 -1.20025 3.39508 0
M  V30 5607 C 534.584 -0.12059 4.49638 0
M  V30 5608 C 535.903 -2.10923 3.86264 0
M  V30 5609 H 533.022 -0.221185 0.703027 0
M  V30 5610 H 535.664 0.123768 1.89596 0
M  V30 5611 H 533.814 -1.82774 3.42821 0
M  V30 5612 H 535.486 0.51185 4.58452 0
M  V30 5613 H 533.729 0.550251 4.30296 0
M  V30 5614 H 534.4 -0.572019 5.49028 0
M  V30 5615 H 536.876 -1.58124 3.84884 0
M  V30 5616 H 535.752 -2.48987 4.8918 0
M  V30 5617 H 536.013 -3.01292 3.23536 0
M  V30 5618 N 535.072 -1.5615 -0.213296 0
M  V30 5619 C 536.302 -1.83372 -0.951757 0
M  V30 5620 C 536.71 -0.638158 -1.78113 0
M  V30 5621 O 536.053 0.402609 -1.79234 0
M  V30 5622 C 536.115 -3.04444 -1.91192 0
M  V30 5623 C 535.779 -4.39107 -1.26627 0
M  V30 5624 C 536.776 -5.15794 -0.652087 0
M  V30 5625 C 534.461 -4.85834 -1.27556 0
M  V30 5626 C 536.455 -6.37376 -0.055814 0
M  V30 5627 C 534.142 -6.07356 -0.675451 0
M  V30 5628 C 535.14 -6.82967 -0.0666367 0
M  V30 5629 O 534.828 -8.0219 0.524119 0
M  V30 5630 H 534.56 -0.613398 -0.284111 0
M  V30 5631 H 537.114 -2.04096 -0.231112 0
M  V30 5632 H 535.344 -2.79559 -2.67178 0
M  V30 5633 H 537.033 -3.18466 -2.51662 0
M  V30 5634 H 537.799 -4.80796 -0.637172 0
M  V30 5635 H 533.678 -4.26949 -1.73883 0
M  V30 5636 H 537.222 -6.96334 0.420004 0
M  V30 5637 H 533.119 -6.41825 -0.687806 0
M  V30 5638 H 533.887 -8.17426 0.419243 0
M  V30 5639 N 536.55 0.480323 -1.50102 0
M  V30 5640 C 537.482 1.59669 -1.64433 0
M  V30 5641 C 538.495 1.54063 -0.52615 0
M  V30 5642 O 539.684 1.59619 -0.798992 0
M  V30 5643 C 536.784 2.98527 -1.6042 0
M  V30 5644 C 535.957 3.291 -2.88117 0
M  V30 5645 C 535.016 4.47468 -2.76873 0
M  V30 5646 O 534.042 4.4823 -3.50825 0
M  V30 5647 N 535.244 5.48593 -1.89806 0
M  V30 5648 H 538.009 1.47795 -2.60723 0
M  V30 5649 H 535.57 0.66858 -1.4745 0
M  V30 5650 H 537.562 3.75666 -1.50523 0
M  V30 5651 H 536.132 3.04218 -0.719036 0
M  V30 5652 H 535.352 2.40662 -3.12211 0
M  V30 5653 H 536.64 3.46334 -3.72734 0
M  V30 5654 H 536.038 5.50791 -1.2902 0
M  V30 5655 H 534.595 6.24752 -1.85819 0
M  V30 5656 N 538.028 1.39524 0.732853 0
M  V30 5657 C 539.253 1.40329 1.52717 0
M  V30 5658 C 539.678 0.000286574 1.881 0
M  V30 5659 O 539.036 -0.987262 1.52062 0
M  V30 5660 C 539.084 2.28464 2.78992 0
M  V30 5661 O 538.188 1.716 3.75003 0
M  V30 5662 H 537.529 0.47778 0.461109 0
M  V30 5663 H 540.059 1.83546 0.903996 0
M  V30 5664 H 540.069 2.43051 3.27705 0
M  V30 5665 H 538.744 3.30425 2.52572 0
M  V30 5666 H 537.321 1.66267 3.33781 0
M  V30 5667 N 539.506 -0.963266 1.24736 0
M  V30 5668 C 540.469 -2.04013 1.04457 0
M  V30 5669 C 541.469 -1.608 0.000335555 0
M  V30 5670 O 542.659 -1.72515 0.241719 0
M  V30 5671 C 539.791 -3.35858 0.584162 0
M  V30 5672 H 540.984 -2.23436 2.00041 0
M  V30 5673 H 538.537 -1.13914 1.07021 0
M  V30 5674 H 539.272 -3.22128 -0.374673 0
M  V30 5675 H 539.057 -3.68568 1.3379 0
M  V30 5676 H 540.547 -4.1502 0.463451 0
M  V30 5677 N 540.985 -1.06182 -1.16461 0
M  V30 5678 C 541.895 -0.682671 -2.24448 0
M  V30 5679 C 542.911 0.30078 -1.71381 0
M  V30 5680 O 544.087 0.150376 -2.00838 0
M  V30 5681 C 541.152 -0.0737202 -3.46622 0
M  V30 5682 C 540.213 -1.10889 -4.14731 0
M  V30 5683 C 539.446 -0.528908 -5.31073 0
M  V30 5684 O 539.669 0.65868 -5.66584 0
M  V30 5685 O 538.603 -1.26805 -5.88391 0
M  V30 5686 H 542.429 -1.58291 -2.59187 0
M  V30 5687 H 540.014 -0.834013 -1.23954 0
M  V30 5688 H 541.896 0.264192 -4.20571 0
M  V30 5689 H 540.571 0.800015 -3.13658 0
M  V30 5690 H 539.478 -1.49896 -3.42756 0
M  V30 5691 H 540.811 -1.95412 -4.51747 0
M  V30 5692 N 542.463 1.3308 -0.844243 0
M  V30 5693 C 543.395 2.27954 -0.238671 0
M  V30 5694 C 544.408 1.51978 0.583665 0
M  V30 5695 O 545.597 1.73731 0.409857 0
M  V30 5696 C 542.697 3.31963 0.682185 0
M  V30 5697 C 541.87 4.37281 -0.101998 0
M  V30 5698 C 540.929 5.20928 0.743022 0
M  V30 5699 O 539.955 5.68914 0.180285 0
M  V30 5700 N 541.157 5.42738 2.0595 0
M  V30 5701 H 543.922 2.8056 -1.05386 0
M  V30 5702 H 541.483 1.4583 -0.70322 0
M  V30 5703 H 543.475 3.84828 1.25259 0
M  V30 5704 H 542.045 2.79594 1.39808 0
M  V30 5705 H 541.265 3.84843 -0.853802 0
M  V30 5706 H 542.553 5.04746 -0.641015 0
M  V30 5707 H 541.951 5.05463 2.54016 0
M  V30 5708 H 540.508 5.98639 2.57827 0
M  V30 5709 N 543.941 0.601185 1.45683 0
M  V30 5710 C 544.871 -0.108824 2.33246 0
M  V30 5711 C 545.852 -0.865223 1.46451 0
M  V30 5712 O 547.037 -0.83704 1.75235 0
M  V30 5713 C 544.167 -1.11101 3.2905 0
M  V30 5714 C 543.121 -0.468244 4.25431 0
M  V30 5715 C 542.447 -1.57822 5.10878 0
M  V30 5716 C 543.747 0.606469 5.18767 0
M  V30 5717 H 545.441 0.622306 2.92861 0
M  V30 5718 H 542.987 0.300714 1.40825 0
M  V30 5719 H 544.94 -1.61622 3.89174 0
M  V30 5720 H 543.664 -1.87265 2.67581 0
M  V30 5721 H 542.323 0.0160484 3.66596 0
M  V30 5722 H 541.971 -2.32998 4.45781 0
M  V30 5723 H 541.671 -1.15369 5.76163 0
M  V30 5724 H 543.195 -2.08583 5.73869 0
M  V30 5725 H 544.609 0.185589 5.73 0
M  V30 5726 H 543.006 0.952381 5.92494 0
M  V30 5727 H 544.076 1.48559 4.61582 0
M  V30 5728 N 545.419 -1.53889 0.339982 0
M  V30 5729 C 546.835 -1.59595 -0.0120752 0
M  V30 5730 C 547.035 -1.35605 -1.49042 0
M  V30 5731 O 546.091 -1.14856 -2.24865 0
M  V30 5732 C 547.404 -2.9774 0.420898 0
M  V30 5733 C 548.952 -3.1077 0.37294 0
M  V30 5734 C 549.427 -4.51286 0.781327 0
M  V30 5735 N 550.918 -4.57325 0.735374 0
M  V30 5736 C 551.653 -5.64194 1.02336 0
M  V30 5737 N 551.149 -6.7893 1.37933 0
M  V30 5738 N 552.942 -5.54051 0.947838 0
M  V30 5739 H 545.093 -1.67738 1.30299 0
M  V30 5740 H 547.356 -0.785385 0.530918 0
M  V30 5741 H 547.062 -3.20349 1.45152 0
M  V30 5742 H 546.936 -3.76639 -0.205721 0
M  V30 5743 H 549.323 -2.87886 -0.648505 0
M  V30 5744 H 549.404 -2.33939 1.03472 0
M  V30 5745 H 549.048 -4.74905 1.80077 0
M  V30 5746 H 548.978 -5.26511 0.0970679 0
M  V30 5747 H 551.469 -3.74931 0.472773 0
M  V30 5748 H 551.782 -7.56392 1.58402 0
M  V30 5749 H 550.127 -6.80386 1.41774 0
M  V30 5750 H 553.318 -4.63293 0.669115 0
M  V30 5751 H 553.491 -6.37246 1.17563 0
M  V30 5752 N 546.897 -0.0685191 -1.57451 0
M  V30 5753 C 547.845 0.917577 -2.13736 0
M  V30 5754 C 548.839 1.31049 -1.07344 0
M  V30 5755 O 550.045 1.28811 -1.25728 0
M  V30 5756 H 546.42 0.313835 -0.683382 0
M  V30 5757 H 548.391 0.417903 -2.95459 0
M  V30 5758 C 547.14 2.17686 -2.71123 0
M  V30 5759 H 546.463 1.88336 -3.52661 0
M  V30 5760 H 547.903 2.84803 -3.14107 0
M  V30 5761 C 546.362 2.9332 -1.65726 0
M  V30 5762 O 546.892 3.86901 -1.08031 0
M  V30 5763 N 545.098 2.56367 -1.36837 0
M  V30 5764 H 544.645 1.80341 -1.83943 0
M  V30 5765 H 544.603 3.07276 -0.665501 0
M  V30 5766 N 548.375 1.56261 0.205012 0
M  V30 5767 C 549.338 1.92908 1.23771 0
M  V30 5768 C 550.338 0.809208 1.38955 0
M  V30 5769 O 551.528 1.07676 1.36936 0
M  V30 5770 C 548.66 2.19442 2.60879 0
M  V30 5771 H 549.853 2.85287 0.924728 0
M  V30 5772 H 547.406 1.49798 0.446125 0
M  V30 5773 H 548.141 1.29668 2.97248 0
M  V30 5774 H 547.926 3.0104 2.51232 0
M  V30 5775 H 549.416 2.48833 3.35368 0
M  V30 5776 N 549.853 -0.472356 1.50355 0
M  V30 5777 C 551.13 -1.23356 1.51798 0
M  V30 5778 C 551.51 -2.09469 0.26193 0
M  V30 5779 O 550.858 -2.15677 -0.754691 0
M  V30 5780 C 551.068 -2.06568 2.81302 0
M  V30 5781 C 552.416 -2.648 3.31913 0
M  V30 5782 O 553.44 -2.16812 2.82614 0
M  V30 5783 O 552.299 -3.52231 4.17846 0
M  V30 5784 H 549.393 -0.559707 0.608816 0
M  V30 5785 H 551.939 -0.48428 1.62643 0
M  V30 5786 H 550.711 -1.43103 3.64194 0
M  V30 5787 H 550.334 -2.88633 2.73454 0
M  V30 5788 N 551.331 -1.39911 -0.725443 0
M  V30 5789 C 552.294 -1.39156 -1.82121 0
M  V30 5790 C 553.294 -0.287018 -1.58218 0
M  V30 5791 O 554.484 -0.545421 -1.65441 0
M  V30 5792 C 551.616 -1.1736 -3.20062 0
M  V30 5793 H 552.809 -2.36672 -1.84191 0
M  V30 5794 H 550.362 -1.25615 -0.930079 0
M  V30 5795 H 551.097 -0.205648 -3.23647 0
M  V30 5796 H 550.882 -1.97358 -3.3881 0
M  V30 5797 H 552.372 -1.19596 -4.00108 0
M  V30 5798 N 552.809 0.956637 -1.25245 0
M  V30 5799 C 553.739 2.07058 -1.07931 0
M  V30 5800 C 554.72 1.70096 0.0110361 0
M  V30 5801 O 555.905 1.93555 -0.158121 0
M  V30 5802 C 553.035 3.40272 -0.695124 0
M  V30 5803 C 551.989 3.91235 -1.73549 0
M  V30 5804 C 551.315 5.20921 -1.20604 0
M  V30 5805 C 552.615 4.17837 -3.13385 0
M  V30 5806 H 554.309 2.218 -2.01109 0
M  V30 5807 H 551.855 1.06581 -0.968326 0
M  V30 5808 H 553.808 4.1765 -0.560949 0
M  V30 5809 H 552.532 3.25462 0.272355 0
M  V30 5810 H 551.191 3.16025 -1.85807 0
M  V30 5811 H 550.839 5.02479 -0.228846 0
M  V30 5812 H 550.539 5.55987 -1.90136 0
M  V30 5813 H 552.063 6.00897 -1.08421 0
M  V30 5814 H 553.477 4.8588 -3.04292 0
M  V30 5815 H 551.874 4.64154 -3.80369 0
M  V30 5816 H 552.944 3.2419 -3.60595 0
M  V30 5817 N 554.287 1.06798 1.15896 0
M  V30 5818 C 555.515 0.808694 1.90441 0
M  V30 5819 C 555.93 -0.637506 1.77711 0
M  V30 5820 O 555.287 -1.43684 1.12522 0
M  V30 5821 C 555.338 1.20068 3.40978 0
M  V30 5822 O 555.059 2.59013 3.53333 0
M  V30 5823 C 556.56 0.96987 4.3256 0
M  V30 5824 H 553.78 0.292809 0.603742 0
M  V30 5825 H 556.324 1.42296 1.46874 0
M  V30 5826 H 554.479 0.630842 3.82229 0
M  V30 5827 H 554.893 2.7485 4.46719 0
M  V30 5828 H 556.367 1.29371 5.36626 0
M  V30 5829 H 556.844 -0.0941209 4.39099 0
M  V30 5830 H 557.45 1.52433 3.97044 0
M  V30 5831 N 555.766 -1.3263 0.851289 0
M  V30 5832 C 556.696 -2.31449 0.308771 0
M  V30 5833 C 557.677 -1.59531 -0.590255 0
M  V30 5834 O 558.862 -1.87351 -0.511205 0
M  V30 5835 C 555.992 -3.43586 -0.506548 0
M  V30 5836 C 554.946 -4.26963 0.297753 0
M  V30 5837 C 554.272 -5.30831 -0.642094 0
M  V30 5838 C 555.572 -4.99643 1.52166 0
M  V30 5839 H 557.266 -2.77074 1.13447 0
M  V30 5840 H 554.812 -1.33207 0.546971 0
M  V30 5841 H 556.765 -4.11754 -0.896474 0
M  V30 5842 H 555.489 -2.96681 -1.36558 0
M  V30 5843 H 554.148 -3.60437 0.669391 0
M  V30 5844 H 553.796 -4.8018 -1.49788 0
M  V30 5845 H 553.496 -5.87501 -0.107968 0
M  V30 5846 H 555.02 -6.01862 -1.02927 0
M  V30 5847 H 556.434 -5.6051 1.20421 0
M  V30 5848 H 554.831 -5.66022 1.99347 0
M  V30 5849 H 555.901 -4.27701 2.28474 0
M  V30 5850 N 557.244 -0.608902 -1.45362 0
M  V30 5851 C 558.176 0.147318 -2.28726 0
M  V30 5852 C 559.189 0.830468 -1.40025 0
M  V30 5853 O 560.378 0.695636 -1.64387 0
M  V30 5854 C 557.478 1.22968 -3.15804 0
M  V30 5855 C 556.651 0.633391 -4.3279 0
M  V30 5856 C 555.71 1.60682 -5.01067 0
M  V30 5857 O 554.736 1.13261 -5.57818 0
M  V30 5858 N 555.938 2.94123 -5.00472 0
M  V30 5859 H 558.703 -0.568014 -2.94268 0
M  V30 5860 H 556.264 -0.448479 -1.55564 0
M  V30 5861 H 558.256 1.88072 -3.58345 0
M  V30 5862 H 556.826 1.84752 -2.52162 0
M  V30 5863 H 556.046 -0.195762 -3.93714 0
M  V30 5864 H 557.334 0.215255 -5.08344 0
M  V30 5865 H 556.732 3.3525 -4.55657 0
M  V30 5866 H 555.289 3.54646 -5.46872 0
M  V30 5867 N 558.722 1.53707 -0.348139 0
M  V30 5868 C 559.685 2.23812 0.494058 0
M  V30 5869 C 560.685 1.23989 1.02388 0
M  V30 5870 O 561.875 1.48395 0.912396 0
M  V30 5871 C 559.007 2.96133 1.68872 0
M  V30 5872 H 560.2 2.99663 -0.119141 0
M  V30 5873 H 557.753 1.55983 -0.0995539 0
M  V30 5874 H 558.488 2.24481 2.34049 0
M  V30 5875 H 558.273 3.69357 1.31596 0
M  V30 5876 H 559.763 3.49475 2.28597 0
M  V30 5877 N 560.2 0.0768682 1.57412 0
M  V30 5878 C 561.611 -0.455037 1.8107 0
M  V30 5879 C 561.962 -1.69323 0.991162 0
M  V30 5880 O 561.087 -2.15328 0.215156 0
M  V30 5881 C 561.682 -0.832316 3.28417 0
M  V30 5882 C 560.241 -1.30906 3.52903 0
M  V30 5883 C 559.388 -0.296714 2.75708 0
M  V30 5884 H 562.339 0.302514 1.5579 0
M  V30 5885 H 562.36 -1.69333 3.40744 0
M  V30 5886 H 561.872 0.0690532 3.88039 0
M  V30 5887 H 559.973 -2.22875 2.98592 0
M  V30 5888 H 560.086 -1.28348 4.61588 0
M  V30 5889 H 558.45 -0.775059 2.42621 0
M  V30 5890 H 559.233 0.597015 3.38069 0
M  V30 5891 N 561.678 -1.56367 -0.196722 0
M  V30 5892 C 562.641 -1.93561 -1.22746 0
M  V30 5893 C 563.641 -0.816566 -1.38524 0
M  V30 5894 O 564.831 -1.084 -1.36363 0
M  V30 5895 C 561.963 -2.20823 -2.59712 0
M  V30 5896 H 563.156 -2.85774 -0.909586 0
M  V30 5897 H 560.709 -1.50032 -0.438174 0
M  V30 5898 H 561.444 -1.31243 -2.96557 0
M  V30 5899 H 561.229 -3.02368 -2.49632 0
M  V30 5900 H 562.719 -2.50608 -3.34044 0
M  V30 5901 N 563.156 0.464375 -1.50603 0
M  V30 5902 C 564.088 1.57916 -1.66118 0
M  V30 5903 C 565.101 1.53497 -0.54246 0
M  V30 5904 O 566.29 1.58763 -0.815877 0
M  V30 5905 C 563.39 2.96809 -1.63577 0
M  V30 5906 C 562.563 3.26026 -2.91592 0
M  V30 5907 C 561.622 4.44506 -2.81604 0
M  V30 5908 O 560.648 4.44484 -3.55559 0
M  V30 5909 N 561.85 5.46549 -1.95614 0
M  V30 5910 H 564.615 1.45022 -2.62276 0
M  V30 5911 H 562.176 0.652903 -1.48151 0
M  V30 5912 H 564.168 3.74048 -1.54499 0
M  V30 5913 H 562.738 3.03438 -0.751262 0
M  V30 5914 H 561.958 2.37337 -3.14746 0
M  V30 5915 H 563.246 3.42361 -3.76386 0
M  V30 5916 H 562.644 5.49391 -1.34854 0
M  V30 5917 H 561.201 6.22746 -1.92435 0
M  V30 5918 N 564.634 1.40294 0.718013 0
M  V30 5919 C 566.05 1.2227 1.02577 0
M  V30 5920 C 566.25 0.0961976 2.0127 0
M  V30 5921 O 565.306 -0.546695 2.46511 0
M  V30 5922 C 566.619 2.56348 1.57182 0
M  V30 5923 C 568.167 2.6334 1.69178 0
M  V30 5924 C 568.642 3.9768 2.27188 0
M  V30 5925 N 570.133 3.99409 2.34578 0
M  V30 5926 C 570.868 5.00141 2.8044 0
M  V30 5927 N 570.364 6.11268 3.26073 0
M  V30 5928 N 572.157 4.87511 2.79802 0
M  V30 5929 H 564.308 2.12304 0.0637899 0
M  V30 5930 H 566.571 0.943632 0.0909036 0
M  V30 5931 H 566.277 3.3942 0.921262 0
M  V30 5932 H 566.151 2.77266 2.55741 0
M  V30 5933 H 568.538 1.80641 2.33351 0
M  V30 5934 H 568.619 2.46255 0.692247 0
M  V30 5935 H 568.263 4.80817 1.63638 0
M  V30 5936 H 568.193 4.12093 3.27852 0
M  V30 5937 H 570.684 3.19162 2.02346 0
M  V30 5938 H 570.997 6.84023 3.59628 0
M  V30 5939 H 569.342 6.14837 3.24038 0
M  V30 5940 H 572.533 3.9979 2.43487 0
M  V30 5941 H 572.706 5.66158 3.15228 0
M  V30 5942 N 566.112 -0.949982 1.2575 0
M  V30 5943 C 567.358 -1.69766 1.10938 0
M  V30 5944 C 567.691 -1.91056 -0.348028 0
M  V30 5945 O 566.966 -1.48488 -1.25625 0
M  V30 5946 C 567.249 -3.07779 1.86933 0
M  V30 5947 C 567.102 -2.9387 3.4053 0
M  V30 5948 C 568.421 -4.07749 1.65616 0
M  V30 5949 H 565.54 -0.616144 0.404396 0
M  V30 5950 H 568.182 -1.10394 1.54639 0
M  V30 5951 H 566.332 -3.58462 1.4979 0
M  V30 5952 H 568.004 -2.50476 3.87375 0
M  V30 5953 H 566.247 -2.29686 3.68004 0
M  V30 5954 H 566.918 -3.91719 3.88922 0
M  V30 5955 H 569.394 -3.65994 1.97959 0
M  V30 5956 H 568.27 -5.02348 2.21218 0
M  V30 5957 H 568.531 -4.38029 0.598595 0
M  V30 5958 N 567.59 -1.07411 -1.15328 0
M  V30 5959 C 568.818 -0.818782 -1.90009 0
M  V30 5960 C 569.233 0.628072 -1.78047 0
M  V30 5961 O 568.59 1.43085 -1.13282 0
M  V30 5962 C 568.641 -1.21874 -3.40337 0
M  V30 5963 O 568.362 -2.60883 -3.51954 0
M  V30 5964 C 569.863 -0.992796 -4.3204 0
M  V30 5965 H 567.083 -0.296007 -0.60218 0
M  V30 5966 H 569.627 -1.43073 -1.46117 0
M  V30 5967 H 567.782 -0.651103 -3.81889 0
M  V30 5968 H 568.196 -2.77216 -4.45255 0
M  V30 5969 H 569.67 -1.32215 -5.35932 0
M  V30 5970 H 570.147 0.0708331 -4.39143 0
M  V30 5971 H 570.753 -1.54537 -3.9623 0
M  V30 5972 N 569.068 1.32177 -0.85831 0
M  V30 5973 C 569.998 2.31282 -0.321041 0
M  V30 5974 C 570.979 1.59841 0.581786 0
M  V30 5975 O 572.164 1.87619 0.501262 0
M  V30 5976 C 569.294 3.4385 0.48832 0
M  V30 5977 C 568.248 4.26799 -0.320391 0
M  V30 5978 C 567.574 5.31164 0.613934 0
M  V30 5979 C 568.874 4.98829 -1.54813 0
M  V30 5980 H 570.568 2.76469 -1.14915 0
M  V30 5981 H 568.114 1.32916 -0.554028 0
M  V30 5982 H 570.067 4.12224 0.874626 0
M  V30 5983 H 568.791 2.97401 1.34983 0
M  V30 5984 H 567.45 3.60077 -0.688497 0
M  V30 5985 H 567.098 4.80967 1.47239 0
M  V30 5986 H 566.798 5.8755 0.0768097 0
M  V30 5987 H 568.322 6.024 0.997336 0
M  V30 5988 H 569.736 5.59864 -1.23392 0
M  V30 5989 H 568.133 5.64957 -2.02346 0
M  V30 5990 H 569.203 4.26483 -2.30739 0
M  V30 5991 N 570.547 0.616602 1.45037 0
M  V30 5992 C 571.457 -0.0985401 2.34393 0
M  V30 5993 C 572.473 -0.850971 1.51771 0
M  V30 5994 O 573.649 -0.806521 1.84546 0
M  V30 5995 C 570.714 -1.07748 3.29532 0
M  V30 5996 C 569.775 -0.326022 4.2806 0
M  V30 5997 C 569.008 -1.25833 5.18654 0
M  V30 5998 O 569.231 -2.49652 5.12864 0
M  V30 5999 O 568.165 -0.750512 5.97203 0
M  V30 6000 H 571.991 0.636016 2.96966 0
M  V30 6001 H 569.576 0.376832 1.44569 0
M  V30 6002 H 571.458 -1.64107 3.88133 0
M  V30 6003 H 570.133 -1.79291 2.69512 0
M  V30 6004 H 569.04 0.280253 3.73049 0
M  V30 6005 H 570.373 0.349091 4.9096 0
M  V30 6006 N 572.025 -1.5352 0.356285 0
M  V30 6007 C 572.955 -2.28372 -0.486661 0
M  V30 6008 C 573.936 -1.30432 -1.09185 0
M  V30 6009 O 575.121 -1.59291 -1.11085 0
M  V30 6010 C 572.251 -3.06604 -1.63129 0
M  V30 6011 C 571.205 -4.12154 -1.15381 0
M  V30 6012 C 570.531 -4.78415 -2.38796 0
M  V30 6013 C 571.831 -5.21724 -0.245179 0
M  V30 6014 H 573.525 -2.99083 0.137797 0
M  V30 6015 H 571.071 -1.43841 0.0677134 0
M  V30 6016 H 573.024 -3.57712 -2.22755 0
M  V30 6017 H 571.748 -2.33568 -2.28284 0
M  V30 6018 H 570.407 -3.61978 -0.580294 0
M  V30 6019 H 570.055 -4.01959 -3.02387 0
M  V30 6020 H 569.755 -5.49734 -2.07524 0
M  V30 6021 H 571.279 -5.32313 -2.99125 0
M  V30 6022 H 572.693 -5.68391 -0.748646 0
M  V30 6023 H 571.09 -6.00095 -0.0237608 0
M  V30 6024 H 572.16 -4.79596 0.715229 0
M  V30 6025 N 573.503 -0.0852151 -1.57369 0
M  V30 6026 C 574.728 0.592872 -1.98746 0
M  V30 6027 C 575.153 1.61538 -0.963689 0
M  V30 6028 O 574.511 1.81168 0.069071 0
M  V30 6029 C 574.559 1.22599 -3.39119 0
M  V30 6030 O 573.663 2.34185 -3.39457 0
M  V30 6031 H 573.004 0.151314 -0.646529 0
M  V30 6032 H 575.534 -0.163703 -2.03944 0
M  V30 6033 H 575.544 1.56965 -3.76598 0
M  V30 6034 H 574.219 0.476831 -4.13158 0
M  V30 6035 H 572.796 2.01512 -3.13763 0
M  V30 6036 N 574.981 1.5647 0.188427 0
M  V30 6037 C 576.229 1.80655 0.905986 0
M  V30 6038 C 576.55 0.659391 1.83513 0
M  V30 6039 O 575.82 -0.321868 1.93238 0
M  V30 6040 H 574.4 0.666391 0.337538 0
M  V30 6041 H 577.062 1.93949 0.192339 0
M  V30 6042 H 576.158 2.74066 1.49313 0
M  V30 6043 N 576.459 -0.456382 1.50847 0
M  V30 6044 C 577.699 -1.21704 1.64218 0
M  V30 6045 C 578.063 -1.88932 0.341859 0
M  V30 6046 O 579.264 -2.66497 0.351137 0
M  V30 6047 C 577.535 -2.22162 2.79962 0
M  V30 6048 S 579.094 -3.0697 3.13552 0
M  V30 6049 H 575.912 -0.412995 0.578754 0
M  V30 6050 H 578.514 -0.511637 1.88686 0
M  V30 6051 H 577.218 -1.71379 3.72904 0
M  V30 6052 H 576.749 -2.9731 2.57624 0
M  V30 6053 H 578.764 -4.23539 2.58513 0
M  V30 6054 N 577.937 -1.40673 -0.710563 0
M  V30 6055 C 579.348 -1.34975 -1.28991 0
M  V30 6056 C 579.699 -0.0256272 -1.96183 0
M  V30 6057 O 578.824 0.876339 -1.97862 0
M  V30 6058 C 579.419 -2.44467 -2.34567 0
M  V30 6059 C 577.978 -2.42213 -2.88114 0
M  V30 6060 C 577.125 -2.25085 -1.61963 0
M  V30 6061 H 580.076 -1.50406 -0.506343 0
M  V30 6062 H 580.097 -2.12663 -3.15523 0
M  V30 6063 H 579.609 -3.40825 -1.85634 0
M  V30 6064 H 577.71 -1.49568 -3.41263 0
M  V30 6065 H 577.823 -3.37983 -3.39565 0
M  V30 6066 H 576.187 -1.72691 -1.87216 0
M  V30 6067 H 576.97 -3.23449 -1.15047 0
M  V30 6068 N 579.415 0.9433 -1.26252 0
M  V30 6069 C 580.664 1.68369 -1.11062 0
M  V30 6070 C 580.977 1.92514 0.346104 0
M  V30 6071 O 582.183 2.64358 0.618646 0
M  V30 6072 C 580.639 3.03171 -1.93946 0
M  V30 6073 C 580.247 2.86782 -3.4418 0
M  V30 6074 C 581.991 3.80916 -1.87359 0
M  V30 6075 C 579.898 4.17044 -4.19319 0
M  V30 6076 H 578.828 0.631469 -0.412023 0
M  V30 6077 H 581.479 1.04922 -1.50544 0
M  V30 6078 H 579.861 3.67587 -1.47296 0
M  V30 6079 H 581.035 2.31229 -3.98585 0
M  V30 6080 H 579.35 2.22482 -3.51981 0
M  V30 6081 H 581.947 4.77417 -2.40784 0
M  V30 6082 H 582.29 4.07658 -0.843857 0
M  V30 6083 H 582.823 3.2327 -2.31821 0
M  V30 6084 H 579.562 3.95487 -5.22753 0
M  V30 6085 H 579.082 4.72319 -3.69696 0
M  V30 6086 H 580.761 4.85513 -4.27651 0
M  V30 6087 N 580.893 1.08022 1.14757 0
M  V30 6088 C 582.17 0.720386 1.81851 0
M  V30 6089 C 582.55 -0.796375 1.95502 0
M  V30 6090 O 581.898 -1.71339 1.51179 0
M  V30 6091 C 582.108 1.44273 3.17783 0
M  V30 6092 C 583.456 1.59925 3.93331 0
M  V30 6093 O 584.48 1.40407 3.2736 0
M  V30 6094 O 583.339 1.92096 5.11626 0
M  V30 6095 H 580.433 0.257142 0.786007 0
M  V30 6096 H 582.979 1.18155 1.21809 0
M  V30 6097 H 581.751 2.47618 3.02987 0
M  V30 6098 H 581.374 0.97279 3.85516 0
M  V30 6099 N 582.371 -1.3172 0.865308 0
M  V30 6100 C 583.334 -2.26918 0.322627 0
M  V30 6101 C 584.334 -1.52031 -0.523751 0
M  V30 6102 O 585.524 -1.70973 -0.333727 0
M  V30 6103 C 582.656 -3.36558 -0.542338 0
M  V30 6104 H 583.849 -2.76432 1.16298 0
M  V30 6105 H 581.402 -1.42573 0.640512 0
M  V30 6106 H 582.137 -2.92329 -1.40407 0
M  V30 6107 H 581.922 -3.92048 0.0636395 0
M  V30 6108 H 583.412 -4.07465 -0.91446 0
M  V30 6109 N 583.85 -0.624285 -1.44708 0
M  V30 6110 C 585.127 -0.0572781 -1.95516 0
M  V30 6111 C 585.507 1.41516 -1.56641 0
M  V30 6112 O 584.855 2.12614 -0.837111 0
M  V30 6113 C 585.065 -0.272944 -3.47931 0
M  V30 6114 C 586.413 -0.162529 -4.24289 0
M  V30 6115 O 587.437 -0.203946 -3.55616 0
M  V30 6116 O 586.296 -0.0616847 -5.46465 0
M  V30 6117 H 583.389 0.0262219 -0.826584 0
M  V30 6118 H 585.936 -0.695512 -1.54793 0
M  V30 6119 H 584.707 -1.29492 -3.69253 0
M  V30 6120 H 584.331 0.399756 -3.95585 0
M  V30 6121 N 585.328 1.53329 -0.364422 0
M  V30 6122 C 586.576 2.00842 0.225189 0
M  V30 6123 C 586.897 1.25345 1.49378 0
M  V30 6124 O 586.167 0.366396 1.92443 0
M  V30 6125 H 584.747 0.742009 0.0862027 0
M  V30 6126 H 587.409 1.8863 -0.490389 0
M  V30 6127 H 586.505 3.08795 0.452987 0
M  V30 6128 N 586.806 0.0935595 1.57322 0
M  V30 6129 C 588.053 -0.570509 1.94297 0
M  V30 6130 C 588.381 -1.68286 0.97519 0
M  V30 6131 O 587.636 -1.95699 -0.00548655 0
M  V30 6132 C 587.935 -1.16692 3.37813 0
M  V30 6133 C 587.601 -0.178509 4.50547 0
M  V30 6134 C 586.263 0.0933475 4.81109 0
M  V30 6135 C 588.615 0.496472 5.1883 0
M  V30 6136 C 585.943 1.0469 5.77284 0
M  V30 6137 C 588.295 1.43849 6.16028 0
M  V30 6138 C 586.959 1.71859 6.44997 0
M  V30 6139 H 586.229 -0.208764 0.710984 0
M  V30 6140 H 588.876 0.169066 1.90752 0
M  V30 6141 H 587.181 -1.98271 3.37929 0
M  V30 6142 H 588.878 -1.6884 3.63722 0
M  V30 6143 H 585.468 -0.400584 4.26724 0
M  V30 6144 H 589.652 0.299584 4.95395 0
M  V30 6145 H 584.908 1.27094 5.98044 0
M  V30 6146 H 589.082 1.96734 6.68034 0
M  V30 6147 H 586.709 2.45906 7.19329 0
M  V30 6148 N 588.284 -1.56567 -0.180126 0
M  V30 6149 C 589.524 -1.83285 -0.904761 0
M  V30 6150 C 589.888 -0.673226 -1.7981 0
M  V30 6151 O 591.089 -0.820645 -2.55967 0
M  V30 6152 C 589.36 -3.15086 -1.68688 0
M  V30 6153 S 590.919 -3.63258 -2.46149 0
M  V30 6154 H 587.737 -0.643114 -0.303193 0
M  V30 6155 H 590.339 -1.94785 -0.167034 0
M  V30 6156 H 589.043 -3.97484 -1.02148 0
M  V30 6157 H 588.574 -3.06504 -2.46615 0
M  V30 6158 H 590.589 -3.29884 -3.70663 0
M  V30 6159 N 589.762 0.448376 -1.51087 0
M  V30 6160 C 591.173 1.0286 -1.5581 0
M  V30 6161 C 591.524 1.92583 -0.374989 0
M  V30 6162 O 590.649 2.10316 0.509533 0
M  V30 6163 C 591.244 1.87223 -2.8237 0
M  V30 6164 C 589.803 2.40314 -2.897 0
M  V30 6165 C 588.95 1.19238 -2.50355 0
M  V30 6166 H 591.901 0.230075 -1.57023 0
M  V30 6167 H 591.922 2.72553 -2.6551 0
M  V30 6168 H 591.434 1.21894 -3.68461 0
M  V30 6169 H 589.535 3.09129 -2.08014 0
M  V30 6170 H 589.648 2.73866 -3.93108 0
M  V30 6171 H 588.012 1.53428 -2.03303 0
M  V30 6172 H 588.795 0.555367 -3.38778 0
M  V30 6173 N 591.24 1.41047 0.703093 0
M  V30 6174 C 592.173 1.36713 1.82715 0
M  V30 6175 C 593.151 0.235533 1.60885 0
M  V30 6176 O 594.335 0.421227 1.83733 0
M  V30 6177 C 591.462 1.13069 3.1927 0
M  V30 6178 C 590.508 2.28846 3.59905 0
M  V30 6179 S 591.341 3.91297 3.65578 0
M  V30 6180 C 592.497 3.69941 5.04871 0
M  V30 6181 H 592.73 2.31838 1.86114 0
M  V30 6182 H 590.263 1.27481 0.871083 0
M  V30 6183 H 592.221 1.00113 3.98105 0
M  V30 6184 H 590.882 0.195763 3.13489 0
M  V30 6185 H 590.075 2.07977 4.59088 0
M  V30 6186 H 589.677 2.3817 2.88359 0
M  V30 6187 H 591.969 3.29181 5.92154 0
M  V30 6188 H 592.912 4.68699 5.30779 0
M  V30 6189 H 593.32 3.03369 4.76054 0
M  V30 6190 N 592.718 -0.936591 1.26751 0
M  V30 6191 C 593.995 -1.66094 1.03306 0
M  V30 6192 C 594.375 -2.06568 -0.435058 0
M  V30 6193 O 593.723 -1.79305 -1.41641 0
M  V30 6194 C 593.933 -2.86969 1.98619 0
M  V30 6195 C 595.281 -3.58516 2.27489 0
M  V30 6196 O 596.305 -2.97082 1.96522 0
M  V30 6197 O 595.164 -4.69181 2.80235 0
M  V30 6198 H 592.258 -0.727568 0.393158 0
M  V30 6199 H 594.804 -0.987914 1.3798 0
M  V30 6200 H 593.576 -2.53985 2.9767 0
M  V30 6201 H 593.199 -3.61996 1.64454 0
M  V30 6202 N 594.196 -1.08629 -1.14182 0
M  V30 6203 C 595.143 -0.718299 -2.19338 0
M  V30 6204 C 596.113 0.296587 -1.63431 0
M  V30 6205 O 597.298 0.180079 -1.89948 0
M  V30 6206 C 594.438 -0.136203 -3.44831 0
M  V30 6207 C 593.551 -1.20414 -4.14879 0
M  V30 6208 C 592.686 -0.585666 -5.27962 0
M  V30 6209 C 591.725 -1.63548 -5.89846 0
M  V30 6210 N 590.862 -1.03864 -6.94375 0
M  V30 6211 H 595.702 -1.61932 -2.50164 0
M  V30 6212 H 593.239 -0.80919 -1.22844 0
M  V30 6213 H 595.197 0.219021 -4.16625 0
M  V30 6214 H 593.827 0.728121 -3.14481 0
M  V30 6215 H 592.879 -1.67676 -3.41451 0
M  V30 6216 H 594.191 -1.99959 -4.56966 0
M  V30 6217 H 593.345 -0.178818 -6.06436 0
M  V30 6218 H 592.084 0.24142 -4.87102 0
M  V30 6219 H 591.089 -2.05197 -5.10073 0
M  V30 6220 H 592.314 -2.46509 -6.3278 0
M  V30 6221 H 590.26 -0.232687 -6.55587 0
M  V30 6222 H 590.177 -1.77116 -7.3496 0
M  V30 6223 H 591.445 -0.657724 -7.7672 0
M  V30 6224 N 595.674 1.31259 -0.872281 0
M  V30 6225 C 596.921 1.96622 -0.484365 0
M  V30 6226 C 597.249 1.68939 0.963841 0
M  V30 6227 O 596.504 0.97974 1.6941 0
M  V30 6228 C 596.803 3.50659 -0.690889 0
M  V30 6229 C 596.469 3.98366 -2.11224 0
M  V30 6230 C 595.131 4.11104 -2.50094 0
M  V30 6231 C 597.483 4.23425 -3.0391 0
M  V30 6232 C 594.811 4.46254 -3.80887 0
M  V30 6233 C 597.163 4.60039 -4.3422 0
M  V30 6234 C 595.827 4.70984 -4.73001 0
M  V30 6235 H 595.097 0.71949 -0.177242 0
M  V30 6236 H 597.744 1.56353 -1.10571 0
M  V30 6237 H 596.049 3.91798 0.0135782 0
M  V30 6238 H 597.746 3.99284 -0.370534 0
M  V30 6239 H 594.336 3.88949 -1.80047 0
M  V30 6240 H 598.52 4.13075 -2.75104 0
M  V30 6241 H 593.776 4.52926 -4.10692 0
M  V30 6242 H 597.95 4.78381 -5.06088 0
M  V30 6243 H 595.577 4.97977 -5.7439 0
M  V30 6244 N 597.152 0.631951 1.44375 0
M  V30 6245 C 598.429 0.067646 1.95483 0
M  V30 6246 C 598.809 -1.40683 1.57389 0
M  V30 6247 O 598.157 -2.12167 0.848375 0
M  V30 6248 C 598.367 0.291392 3.47781 0
M  V30 6249 C 599.715 0.185028 4.24197 0
M  V30 6250 O 600.739 0.222803 3.55503 0
M  V30 6251 O 599.598 0.0906642 5.46425 0
M  V30 6252 H 596.692 -0.0218379 0.826712 0
M  V30 6253 H 599.238 0.703711 1.54421 0
M  V30 6254 H 598.01 1.31449 3.68561 0
M  V30 6255 H 597.633 -0.378772 3.95792 0
M  V30 6256 N 598.631 -1.53133 0.372548 0
M  V30 6257 C 599.856 -2.0625 -0.218098 0
M  V30 6258 C 600.281 -1.24375 -1.41111 0
M  V30 6259 O 599.639 -0.264554 -1.79359 0
M  V30 6260 C 599.687 -3.55858 -0.582876 0
M  V30 6261 O 598.791 -3.76667 -1.67917 0
M  V30 6262 H 598.132 -0.663317 -0.030104 0
M  V30 6263 H 600.662 -1.97477 0.535169 0
M  V30 6264 H 600.672 -3.99007 -0.851925 0
M  V30 6265 H 599.347 -4.14892 0.289428 0
M  V30 6266 H 597.924 -3.45413 -1.40513 0
M  V30 6267 N 600.109 -0.101901 -1.5727 0
M  V30 6268 C 601.355 0.561027 -1.94885 0
M  V30 6269 C 601.688 1.6741 -0.984258 0
M  V30 6270 O 600.963 1.94491 -0.0184767 0
M  V30 6271 C 601.246 1.10982 -3.42571 0
M  V30 6272 C 601.099 0.00133418 -4.498 0
M  V30 6273 C 602.418 2.00608 -3.9172 0
M  V30 6274 H 599.537 0.202467 -0.708644 0
M  V30 6275 H 602.179 -0.173992 -1.89202 0
M  V30 6276 H 600.329 1.73621 -3.47546 0
M  V30 6277 H 602.001 -0.63322 -4.56933 0
M  V30 6278 H 600.244 -0.664143 -4.28686 0
M  V30 6279 H 600.915 0.426253 -5.50352 0
M  V30 6280 H 603.391 1.47864 -3.88941 0
M  V30 6281 H 602.267 2.3593 -4.95609 0
M  V30 6282 H 602.528 2.92608 -3.3141 0
M  V30 6283 N 601.587 1.56661 0.17182 0
M  V30 6284 C 602.517 1.99401 1.21498 0
M  V30 6285 C 603.498 0.869516 1.46197 0
M  V30 6286 O 604.683 1.13556 1.57539 0
M  V30 6287 C 601.813 2.35346 2.55401 0
M  V30 6288 C 600.767 3.5075 2.45272 0
M  V30 6289 C 600.093 3.72437 3.8366 0
M  V30 6290 C 601.393 4.84216 1.95787 0
M  V30 6291 H 603.087 2.86792 0.859699 0
M  V30 6292 H 600.633 1.37977 0.412103 0
M  V30 6293 H 602.586 2.63843 3.2858 0
M  V30 6294 H 601.31 1.44864 2.92715 0
M  V30 6295 H 599.969 3.2238 1.74547 0
M  V30 6296 H 599.617 2.79246 4.18367 0
M  V30 6297 H 599.317 4.50087 3.77751 0
M  V30 6298 H 600.841 4.03334 4.58426 0
M  V30 6299 H 602.255 5.11592 2.5874 0
M  V30 6300 H 600.652 5.65498 2.00827 0
M  V30 6301 H 601.722 4.76243 0.912159 0
M  V30 6302 N 603.065 -0.440357 1.51323 0
M  V30 6303 C 604.013 -1.55492 1.72988 0
M  V30 6304 C 605.007 -1.58564 0.596138 0
M  V30 6305 O 606.213 -1.62345 0.777443 0
M  V30 6306 H 602.588 -0.516532 0.546533 0
M  V30 6307 H 604.559 -1.34392 2.66423 0
M  V30 6308 C 603.308 -2.93176 1.86931 0
M  V30 6309 H 602.631 -2.91543 2.73574 0
M  V30 6310 H 604.071 -3.70537 2.06103 0
M  V30 6311 C 602.53 -3.30988 0.628365 0
M  V30 6312 O 603.06 -4.01106 -0.218367 0
M  V30 6313 N 601.266 -2.86719 0.473339 0
M  V30 6314 H 600.813 -2.2983 1.16345 0
M  V30 6315 H 600.771 -3.12381 -0.355727 0
M  V30 6316 N 604.543 -1.41418 -0.695603 0
M  V30 6317 C 605.453 -1.45622 -1.83933 0
M  V30 6318 C 606.469 -0.346825 -1.70508 0
M  V30 6319 O 607.645 -0.59454 -1.92424 0
M  V30 6320 C 604.71 -1.33627 -3.19914 0
M  V30 6321 C 603.771 -2.54882 -3.45447 0
M  V30 6322 C 603.004 -2.43449 -4.7494 0
M  V30 6323 O 603.227 -1.45905 -5.51424 0
M  V30 6324 O 602.161 -3.33206 -5.01256 0
M  V30 6325 H 605.987 -2.42114 -1.83342 0
M  V30 6326 H 603.572 -1.22956 -0.848658 0
M  V30 6327 H 605.454 -1.29221 -4.01098 0
M  V30 6328 H 604.129 -0.402508 -3.21188 0
M  V30 6329 H 603.036 -2.64865 -2.64192 0
M  V30 6330 H 604.369 -3.47087 -3.48987 0
M  V30 6331 N 606.021 0.929856 -1.27246 0
M  V30 6332 C 606.984 2.01172 -1.09829 0
M  V30 6333 C 607.984 1.60743 -0.0429687 0
M  V30 6334 O 609.174 1.71813 -0.287373 0
M  V30 6335 C 606.306 3.34191 -0.673003 0
M  V30 6336 H 607.499 2.18054 -2.05895 0
M  V30 6337 H 605.052 1.11036 -1.10003 0
M  V30 6338 H 605.787 3.23009 0.289134 0
M  V30 6339 H 605.572 3.64892 -1.43515 0
M  V30 6340 H 607.062 4.13646 -0.573323 0
M  V30 6341 N 607.499 1.09233 1.13605 0
M  V30 6342 C 608.745 0.828385 1.8511 0
M  V30 6343 C 609.078 -0.64437 1.83198 0
M  V30 6344 O 608.353 -1.47428 1.26867 0
M  V30 6345 C 608.636 1.36167 3.33363 0
M  V30 6346 C 608.489 2.90038 3.438 0
M  V30 6347 C 609.808 0.993819 4.28732 0
M  V30 6348 H 606.927 0.30239 0.672108 0
M  V30 6349 H 609.569 1.35339 1.33355 0
M  V30 6350 H 607.719 0.9151 3.77569 0
M  V30 6351 H 609.391 3.43128 3.08319 0
M  V30 6352 H 607.634 3.27271 2.84739 0
M  V30 6353 H 608.305 3.22428 4.48045 0
M  V30 6354 H 610.781 1.37893 3.92587 0
M  V30 6355 H 609.657 1.39403 5.30903 0
M  V30 6356 H 609.918 -0.0982206 4.41991 0
M  V30 6357 N 608.977 -1.30795 0.87923 0
M  V30 6358 C 609.924 -2.28282 0.339968 0
M  V30 6359 C 610.894 -1.56134 -0.566685 0
M  V30 6360 O 612.079 -1.84231 -0.496338 0
M  V30 6361 C 609.219 -3.42225 -0.444501 0
M  V30 6362 C 608.332 -4.29204 0.490717 0
M  V30 6363 C 607.467 -5.30302 -0.308784 0
M  V30 6364 C 606.506 -6.08929 0.622272 0
M  V30 6365 N 605.643 -7.01957 -0.14155 0
M  V30 6366 H 610.483 -2.73794 1.17647 0
M  V30 6367 H 608.02 -1.34682 0.591527 0
M  V30 6368 H 609.978 -4.07038 -0.915186 0
M  V30 6369 H 608.608 -2.97799 -1.24562 0
M  V30 6370 H 607.66 -3.6475 1.07988 0
M  V30 6371 H 608.972 -4.84045 1.20425 0
M  V30 6372 H 608.126 -6.00835 -0.841575 0
M  V30 6373 H 606.865 -4.7614 -1.05556 0
M  V30 6374 H 605.87 -5.37278 1.16674 0
M  V30 6375 H 607.095 -6.65178 1.36804 0
M  V30 6376 H 605.041 -6.50192 -0.870966 0
M  V30 6377 H 604.958 -7.54261 0.51246 0
M  V30 6378 H 606.226 -7.76741 -0.655271 0
M  V30 6379 O 610.494 -0.779418 -1.41447 0
M  V30 6380 H 611.185 -0.346083 -1.90583 0
M  V30 END ATOM
M  V30 BEGIN BOND
M  V30 END BOND
M  V30 END CTAB
M  END
$$$$
