drugbank_target|P20061 Transcobalamin-1 (DB00200)
 OpenBabel12092119273D

  0  0  0     0  0            999 V3000
M  V30 BEGIN CTAB
M  V30 COUNTS 6728 6787 0 0 0
M  V30 BEGIN ATOM
M  V30 1 H -0.908 1.98254 -0.117106 0
M  V30 2 N 0 1.576 0 0
M  V30 3 C 0.933 2.03868 1.02534 0
M  V30 4 C 1.911 0.928543 1.3348 0
M  V30 5 O 3.095 1.19667 1.45644 0
M  V30 6 C 0.222 2.43627 2.35294 0
M  V30 7 C -0.732 3.65373 2.2001 0
M  V30 8 S 0.101 5.13292 1.52614 0
M  V30 9 C 1.257 5.56322 2.86805 0
M  V30 10 H 1.49 2.90518 0.631377 0
M  V30 11 H -0.977 1.52953 0.210867 0
M  V30 12 H 0.981 2.67203 3.11629 0
M  V30 13 H -0.358 1.57376 2.7183 0
M  V30 14 H -1.165 3.90944 3.18086 0
M  V30 15 H -1.563 3.418 1.51819 0
M  V30 16 H 0.729 5.58782 3.83104 0
M  V30 17 H 1.672 6.56266 2.65933 0
M  V30 18 H 2.08 4.83886 2.90714 0
M  V30 19 N 1.4781 -0.272755 1.55222 0
M  V30 20 C 2.8941 -0.619959 1.47067 0
M  V30 21 C 3.0941 -1.895 0.684978 0
M  V30 22 O 2.1501 -2.51675 0.203931 0
M  V30 23 C 3.4631 -0.746693 2.91282 0
M  V30 24 C 5.0111 -0.840731 3.01497 0
M  V30 25 C 5.4861 -0.99924 4.46967 0
M  V30 26 N 6.9771 -1.06476 4.50796 0
M  V30 27 C 7.7121 -1.20621 5.6057 0
M  V30 28 N 7.2081 -1.31483 6.80209 0
M  V30 29 N 9.0011 -1.23733 5.48312 0
M  V30 30 H 1.1521 0.564606 2.04758 0
M  V30 31 H 3.4151 0.191177 0.928523 0
M  V30 32 H 3.1211 0.119753 3.51496 0
M  V30 33 H 2.9951 -1.6269 3.40311 0
M  V30 34 H 5.3821 -1.69764 2.41379 0
M  V30 35 H 5.4631 0.0640874 2.5572 0
M  V30 36 H 5.1071 -0.146984 5.07687 0
M  V30 37 H 5.0371 -1.91871 4.90401 0
M  V30 38 H 7.5281 -0.993196 3.64615 0
M  V30 39 H 7.8411 -1.42111 7.59621 0
M  V30 40 H 6.1861 -1.28487 6.8302 0
M  V30 41 H 9.3771 -1.14877 4.53785 0
M  V30 42 H 9.5501 -1.34412 6.33906 0
M  V30 43 N 2.9562 -1.48159 -0.537278 0
M  V30 44 C 3.8882 -1.58218 -1.65831 0
M  V30 45 C 4.9012 -0.466948 -1.5596 0
M  V30 46 O 6.0902 -0.73747 -1.62553 0
M  V30 47 C 3.1902 -1.48906 -3.04434 0
M  V30 48 C 2.3632 -2.75343 -3.3986 0
M  V30 49 C 1.4222 -2.59588 -4.57712 0
M  V30 50 O 0.4482 -3.33457 -4.61297 0
M  V30 51 N 1.6502 -1.68724 -5.55439 0
M  V30 52 H 4.4152 -2.54891 -1.57641 0
M  V30 53 H 1.9762 -1.4479 -0.724386 0
M  V30 54 H 3.9682 -1.36072 -3.81139 0
M  V30 55 H 2.5382 -0.602368 -3.06741 0
M  V30 56 H 1.7582 -3.02795 -2.52406 0
M  V30 57 H 3.0462 -3.5924 -3.60311 0
M  V30 58 H 2.4442 -1.07898 -5.55315 0
M  V30 59 H 1.0012 -1.61832 -6.3139 0
M  V30 60 N 4.4343 0.785586 -1.36625 0
M  V30 61 C 5.6593 1.57963 -1.34397 0
M  V30 62 C 6.0843 1.87964 0.071526 0
M  V30 63 O 5.4423 1.48182 1.0446 0
M  V30 64 C 5.4903 2.87511 -2.17646 0
M  V30 65 O 4.5943 3.81281 -1.57158 0
M  V30 66 H 3.9353 0.479014 -0.459828 0
M  V30 67 H 6.4653 0.973411 -1.79961 0
M  V30 68 H 6.4753 3.36745 -2.30362 0
M  V30 69 H 5.1503 2.65002 -3.20541 0
M  V30 70 H 3.7273 3.39885 -1.53403 0
M  V30 71 N 5.9124 1.20967 1.01018 0
M  V30 72 C 6.8624 0.93182 2.08089 0
M  V30 73 C 7.8464 -0.110898 1.60517 0
M  V30 74 O 9.0384 0.0973392 1.76732 0
M  V30 75 C 6.1674 0.492719 3.39746 0
M  V30 76 C 5.2534 1.56922 3.94 0
M  V30 77 N 5.6444 2.79312 4.21686 0
M  V30 78 C 3.9424 1.43688 4.2222 0
M  V30 79 C 4.6434 3.48797 4.65527 0
M  V30 80 N 3.6194 2.76224 4.68189 0
M  V30 81 H 7.4214 1.86175 2.27412 0
M  V30 82 H 4.9354 1.10463 1.19045 0
M  V30 83 H 6.9324 0.275044 4.15992 0
M  V30 84 H 5.5924 -0.430509 3.21833 0
M  V30 85 H 6.6034 3.15903 4.10397 0
M  V30 86 H 3.2804 0.578548 4.13472 0
M  V30 87 H 4.6704 4.53561 4.95714 0
M  V30 88 N 7.3905 -1.2043 1.01659 0
M  V30 89 C 8.3225 -2.22626 0.544988 0
M  V30 90 C 9.3355 -1.58479 -0.372609 0
M  V30 91 O 10.5245 -1.77679 -0.170958 0
M  V30 92 C 7.6245 -3.38141 -0.22663 0
M  V30 93 C 6.7975 -4.31877 0.692876 0
M  V30 94 C 5.8565 -5.26191 -0.0311616 0
M  V30 95 O 4.8825 -5.6612 0.591343 0
M  V30 96 N 6.0845 -5.65618 -1.30601 0
M  V30 97 H 8.8495 -2.63716 1.42388 0
M  V30 98 H 6.4105 -1.34971 0.894116 0
M  V30 99 H 8.4025 -3.98239 -0.72024 0
M  V30 100 H 6.9725 -2.95943 -1.00681 0
M  V30 101 H 6.1925 -3.69746 1.36679 0
M  V30 102 H 7.4805 -4.91426 1.31824 0
M  V30 103 H 6.8785 -5.3519 -1.83269 0
M  V30 104 H 5.4355 -6.28025 -1.74435 0
M  V30 105 N 8.8686 -0.792821 -1.36206 0
M  V30 106 C 9.7986 -0.207853 -2.32573 0
M  V30 107 C 10.7796 0.659055 -1.56813 0
M  V30 108 O 11.9646 0.592176 -1.84951 0
M  V30 109 C 9.0946 0.655449 -3.41059 0
M  V30 110 C 8.0486 -0.111842 -4.27854 0
M  V30 111 C 7.3746 0.872274 -5.27537 0
M  V30 112 C 8.6746 -1.30299 -5.05786 0
M  V30 113 H 10.3686 -1.01294 -2.81744 0
M  V30 114 H 7.9146 -0.48854 -1.3546 0
M  V30 115 H 9.8676 1.07464 -4.07467 0
M  V30 116 H 8.5916 1.49328 -2.90463 0
M  V30 117 H 7.2506 -0.512053 -3.63006 0
M  V30 118 H 6.8986 1.70523 -4.73214 0
M  V30 119 H 6.5986 0.363291 -5.86476 0
M  V30 120 H 8.1226 1.28996 -5.96818 0
M  V30 121 H 9.5366 -0.959379 -5.65216 0
M  V30 122 H 7.9336 -1.7455 -5.74154 0
M  V30 123 H 9.0036 -2.09663 -4.37229 0
M  V30 124 N 10.3467 1.47872 -0.545128 0
M  V30 125 C 11.7577 1.86384 -0.108581 0
M  V30 126 C 12.1087 1.45309 1.31832 0
M  V30 127 O 11.2337 0.850641 1.9898 0
M  V30 128 C 11.8287 3.38265 -0.190274 0
M  V30 129 C 10.3877 3.75914 0.191164 0
M  V30 130 C 9.5347 2.71926 -0.543273 0
M  V30 131 H 12.4857 1.39561 -0.755537 0
M  V30 132 H 12.5067 3.75831 0.594217 0
M  V30 133 H 12.0187 3.6813 -1.2289 0
M  V30 134 H 10.1197 3.51665 1.23136 0
M  V30 135 H 10.2327 4.78836 -0.158987 0
M  V30 136 H 8.5967 2.54697 0.0122495 0
M  V30 137 H 9.3797 3.04634 -1.58282 0
M  V30 138 N 11.8248 0.280983 1.55075 0
M  V30 139 C 12.7548 -0.597469 2.25727 0
M  V30 140 C 13.7358 -1.15417 1.24952 0
M  V30 141 O 14.9208 -1.18722 1.53684 0
M  V30 142 C 12.0508 -1.7789 2.98283 0
M  V30 143 C 11.0048 -1.35347 4.06036 0
M  V30 144 C 10.3308 -2.61846 4.66198 0
M  V30 145 C 11.6308 -0.499354 5.19907 0
M  V30 146 H 13.3248 -0.00824265 2.99399 0
M  V30 147 H 10.8708 -0.0025244 1.44 0
M  V30 148 H 12.8238 -2.39937 3.46422 0
M  V30 149 H 11.5478 -2.39405 2.22155 0
M  V30 150 H 10.2068 -0.756156 3.58717 0
M  V30 151 H 9.8548 -3.21632 3.86732 0
M  V30 152 H 9.5548 -2.3409 5.38958 0
M  V30 153 H 11.0788 -3.24732 5.1709 0
M  V30 154 H 12.4928 -1.02498 5.64063 0
M  V30 155 H 10.8898 -0.316424 5.99265 0
M  V30 156 H 11.9598 0.480459 4.82514 0
M  V30 157 N 13.3029 -1.57598 0.00835791 0
M  V30 158 C 14.5489 -1.91211 -0.675732 0
M  V30 159 C 14.8819 -0.883139 -1.72958 0
M  V30 160 O 14.1569 0.097016 -1.94258 0
M  V30 161 C 14.4399 -3.35379 -1.31123 0
M  V30 162 C 14.2929 -4.48999 -0.268356 0
M  V30 163 C 15.6119 -3.7912 -2.23508 0
M  V30 164 H 12.7309 -0.695374 -0.244179 0
M  V30 165 H 15.3729 -1.89901 0.0613655 0
M  V30 166 H 13.5229 -3.36626 -1.93946 0
M  V30 167 H 15.1949 -4.59887 0.360844 0
M  V30 168 H 13.4379 -4.31873 0.408482 0
M  V30 169 H 14.1089 -5.46851 -0.752218 0
M  V30 170 H 16.5849 -3.79477 -1.70693 0
M  V30 171 H 15.4609 -4.80729 -2.64936 0
M  V30 172 H 15.7219 -3.13455 -3.11766 0
M  V30 173 N 14.781 0.264519 -1.55364 0
M  V30 174 C 16.029 0.993021 -1.76021 0
M  V30 175 C 16.35 1.86511 -0.569099 0
M  V30 176 O 15.62 1.91438 0.415735 0
M  V30 177 H 14.2 0.369639 -0.649135 0
M  V30 178 H 16.862 0.286707 -1.9278 0
M  V30 179 H 15.958 1.62502 -2.66457 0
M  V30 180 N 16.2591 1.48442 0.529413 0
M  V30 181 C 17.1891 1.65902 1.64313 0
M  V30 182 C 18.1701 0.507897 1.6234 0
M  V30 183 O 19.3551 0.740503 1.79528 0
M  V30 184 C 16.4851 1.69911 3.02898 0
M  V30 185 C 15.4391 2.8453 3.19729 0
M  V30 186 C 14.7651 2.73629 4.59381 0
M  V30 187 C 16.0651 4.25821 3.02447 0
M  V30 188 H 17.7591 2.5914 1.49955 0
M  V30 189 H 15.3051 1.24709 0.719982 0
M  V30 190 H 17.2581 1.80715 3.80684 0
M  V30 191 H 15.9821 0.732524 3.18279 0
M  V30 192 H 14.6411 2.73283 2.44361 0
M  V30 193 H 14.2891 1.74938 4.71599 0
M  V30 194 H 13.9891 3.50541 4.71588 0
M  V30 195 H 15.5131 2.86401 5.39265 0
M  V30 196 H 16.9271 4.37898 3.70024 0
M  V30 197 H 15.3241 5.03735 3.26146 0
M  V30 198 H 16.3941 4.42244 1.98867 0
M  V30 199 N 17.7372 -0.778329 1.37039 0
M  V30 200 C 18.6672 -1.90546 1.34962 0
M  V30 201 C 19.6482 -1.68681 0.219274 0
M  V30 202 O 20.8332 -1.89634 0.418624 0
M  V30 203 C 17.9632 -3.27734 1.14925 0
M  V30 204 C 16.9172 -3.64147 2.24902 0
M  V30 205 C 16.2432 -4.99806 1.89996 0
M  V30 206 C 17.5432 -3.71579 3.67051 0
M  V30 207 H 19.2372 -1.92541 2.29277 0
M  V30 208 H 16.7832 -0.924948 1.10366 0
M  V30 209 H 18.7362 -4.06215 1.12104 0
M  V30 210 H 17.4602 -3.26154 0.170631 0
M  V30 211 H 16.1192 -2.8797 2.26868 0
M  V30 212 H 15.7672 -4.94759 0.906796 0
M  V30 213 H 15.4672 -5.25139 2.63634 0
M  V30 214 H 16.9912 -5.80694 1.88749 0
M  V30 215 H 18.4052 -4.40227 3.67251 0
M  V30 216 H 16.8022 -4.08405 4.39688 0
M  V30 217 H 17.8722 -2.72404 4.01154 0
M  V30 218 N 19.2153 -1.21501 -1.00376 0
M  V30 219 C 20.1453 -0.999478 -2.11028 0
M  V30 220 C 21.1263 0.0759671 -1.6993 0
M  V30 221 O 22.3113 -0.0841106 -1.94018 0
M  V30 222 C 19.4413 -0.564709 -3.42678 0
M  V30 223 C 18.3953 -1.58486 -3.97576 0
M  V30 224 C 17.7213 -1.00628 -5.25146 0
M  V30 225 C 19.0213 -2.97204 -4.29496 0
M  V30 226 H 20.7153 -1.92495 -2.29317 0
M  V30 227 H 18.2613 -0.92693 -1.102 0
M  V30 228 H 20.2143 -0.401091 -4.19487 0
M  V30 229 H 18.9383 0.396411 -3.24185 0
M  V30 230 H 17.5973 -1.73606 -3.22888 0
M  V30 231 H 17.2453 -0.0368439 -5.02987 0
M  V30 232 H 16.9453 -1.68771 -5.62841 0
M  V30 233 H 18.4693 -0.854015 -6.04598 0
M  V30 234 H 19.8833 -2.8552 -4.97143 0
M  V30 235 H 18.2803 -3.62372 -4.78338 0
M  V30 236 H 19.3503 -3.47956 -3.3772 0
M  V30 237 N 20.6934 1.19889 -1.02296 0
M  V30 238 C 21.9404 1.8942 -0.715972 0
M  V30 239 C 22.2684 1.79251 0.754944 0
M  V30 240 O 21.5234 1.17526 1.56481 0
M  V30 241 C 21.8224 3.39883 -1.10518 0
M  V30 242 C 21.4884 3.70254 -2.57337 0
M  V30 243 C 20.1504 3.78254 -2.97452 0
M  V30 244 C 22.5024 3.84052 -3.52354 0
M  V30 245 C 19.8304 3.97514 -4.31509 0
M  V30 246 C 22.1824 4.04824 -4.86108 0
M  V30 247 C 20.8464 4.11054 -5.25919 0
M  V30 248 H 20.1164 0.693138 -0.261993 0
M  V30 249 H 22.7634 1.42012 -1.28472 0
M  V30 250 H 21.0684 3.8915 -0.454953 0
M  V30 251 H 22.7654 3.9199 -0.845261 0
M  V30 252 H 19.3554 3.64632 -2.25258 0
M  V30 253 H 23.5394 3.77221 -3.22518 0
M  V30 254 H 18.7954 4.00574 -4.61898 0
M  V30 255 H 22.9694 4.14442 -5.59653 0
M  V30 256 H 20.5964 4.2573 -6.29808 0
M  V30 257 N 22.1715 0.800033 1.35784 0
M  V30 258 C 23.3965 0.388511 2.03729 0
M  V30 259 C 23.8215 -0.990481 1.5991 0
M  V30 260 O 23.1795 -1.64013 0.772612 0
M  V30 261 C 23.2275 0.4726 3.5749 0
M  V30 262 O 22.3315 -0.51646 4.09153 0
M  V30 263 H 21.6725 0.163271 0.643614 0
M  V30 264 H 24.2025 1.0841 1.73518 0
M  V30 265 H 24.2125 0.34003 4.06581 0
M  V30 266 H 22.8875 1.47848 3.88734 0
M  V30 267 H 21.4645 -0.344673 3.71304 0
M  V30 268 N 23.6496 -1.47581 0.552962 0
M  V30 269 C 24.8966 -2.02482 0.0273243 0
M  V30 270 C 25.2246 -1.42776 -1.32081 0
M  V30 271 O 24.4796 -0.571393 -1.87173 0
M  V30 272 C 24.7786 -3.57199 -0.119728 0
M  V30 273 C 24.4446 -4.35804 1.15697 0
M  V30 274 C 23.1066 -4.57 1.50681 0
M  V30 275 C 25.4586 -4.81167 2.00319 0
M  V30 276 C 22.7866 -5.20807 2.70142 0
M  V30 277 C 25.1386 -5.46293 3.18978 0
M  V30 278 C 23.8026 -5.65722 3.54281 0
M  V30 279 H 23.0726 -0.740933 0.00999866 0
M  V30 280 H 25.7196 -1.77302 0.72362 0
M  V30 281 H 24.0246 -3.81348 -0.89896 0
M  V30 282 H 25.7216 -3.97324 -0.541718 0
M  V30 283 H 22.3116 -4.19582 0.874561 0
M  V30 284 H 26.4956 -4.64574 1.74599 0
M  V30 285 H 21.7516 -5.34045 2.97668 0
M  V30 286 H 25.9256 -5.80407 3.84838 0
M  V30 287 H 23.5526 -6.14936 4.46942 0
M  V30 288 N 25.1277 -0.289203 -1.54924 0
M  V30 289 C 26.3767 0.324231 -1.99077 0
M  V30 290 C 26.6897 1.5591 -1.18117 0
M  V30 291 O 27.8957 2.24637 -1.52481 0
M  V30 292 C 26.3517 0.628209 -3.54375 0
M  V30 293 C 25.9597 -0.587647 -4.44129 0
M  V30 294 C 27.7037 1.20349 -4.07083 0
M  V30 295 C 25.6107 -0.257475 -5.90839 0
M  V30 296 H 24.5407 0.124924 -0.743579 0
M  V30 297 H 27.1917 -0.396063 -1.79175 0
M  V30 298 H 25.5737 1.40778 -3.70132 0
M  V30 299 H 26.7477 -1.36418 -4.40144 0
M  V30 300 H 25.0627 -1.08074 -4.0213 0
M  V30 301 H 27.6597 1.46456 -5.14252 0
M  V30 302 H 28.0027 2.14195 -3.56968 0
M  V30 303 H 28.5357 0.485889 -3.94821 0
M  V30 304 H 25.2747 -1.16419 -6.45079 0
M  V30 305 H 24.7947 0.482018 -5.9786 0
M  V30 306 H 26.4737 0.145238 -6.46837 0
M  V30 307 N 26.6058 1.57591 -0.0167156 0
M  V30 308 C 28.0168 1.79201 0.523834 0
M  V30 309 C 28.3678 0.925796 1.72984 0
M  V30 310 O 27.4928 0.132792 2.15992 0
M  V30 311 C 28.0878 3.25 0.957091 0
M  V30 312 C 26.6468 3.47648 1.44283 0
M  V30 313 C 25.7938 2.74374 0.401757 0
M  V30 314 H 28.7448 1.56831 -0.242816 0
M  V30 315 H 28.7658 3.34031 1.82219 0
M  V30 316 H 28.2778 3.88019 0.0791415 0
M  V30 317 H 26.3788 2.89866 2.34113 0
M  V30 318 H 26.4918 4.56352 1.45877 0
M  V30 319 H 24.8558 2.39485 0.867121 0
M  V30 320 H 25.6388 3.40102 -0.467513 0
M  V30 321 N 28.0839 -0.256276 1.55502 0
M  V30 322 C 29.3089 -1.00766 1.81276 0
M  V30 323 C 29.7339 -1.78524 0.59252 0
M  V30 324 O 29.0919 -1.75413 -0.45827 0
M  V30 325 C 29.1399 -1.92869 3.04687 0
M  V30 326 O 28.2439 -3.019 2.80945 0
M  V30 327 H 27.5849 -0.287224 0.598664 0
M  V30 328 H 30.1149 -0.280109 2.02674 0
M  V30 329 H 30.1249 -2.34511 3.33869 0
M  V30 330 H 28.7999 -1.35689 3.93143 0
M  V30 331 H 27.3769 -2.64454 2.62904 0
M  V30 332 N 29.562 -1.4872 -0.521534 0
M  V30 333 C 30.494 -1.59968 -1.64143 0
M  V30 334 C 31.507 -0.483463 -1.55456 0
M  V30 335 O 32.696 -0.75467 -1.61762 0
M  V30 336 C 29.796 -1.52127 -3.02838 0
M  V30 337 C 28.969 -2.78932 -3.36921 0
M  V30 338 C 28.028 -2.64428 -4.54933 0
M  V30 339 O 27.054 -3.38331 -4.57735 0
M  V30 340 N 28.256 -1.74606 -5.53618 0
M  V30 341 H 31.021 -2.56548 -1.54929 0
M  V30 342 H 28.582 -1.45551 -0.708988 0
M  V30 343 H 30.574 -1.40106 -3.79674 0
M  V30 344 H 29.144 -0.634868 -3.06085 0
M  V30 345 H 28.364 -3.05455 -2.4918 0
M  V30 346 H 29.652 -3.63041 -3.56481 0
M  V30 347 H 29.05 -1.13782 -5.54139 0
M  V30 348 H 27.607 -1.6852 -6.29638 0
M  V30 349 N 31.0401 0.771051 -1.3745 0
M  V30 350 C 31.9701 1.89827 -1.3597 0
M  V30 351 C 32.9511 1.68562 -0.228216 0
M  V30 352 O 34.1361 1.8941 -0.428675 0
M  V30 353 C 31.2661 3.2712 -1.16662 0
M  V30 354 C 30.2201 3.6295 -2.2683 0
M  V30 355 C 29.5461 4.98791 -1.92644 0
M  V30 356 C 30.8461 3.69627 -3.69017 0
M  V30 357 H 32.5401 1.91323 -2.30295 0
M  V30 358 H 30.0861 0.919082 -1.10855 0
M  V30 359 H 32.0391 4.05615 -1.14256 0
M  V30 360 H 30.7631 3.26059 -0.187926 0
M  V30 361 H 29.4221 2.86763 -2.28392 0
M  V30 362 H 29.0701 4.94271 -0.933021 0
M  V30 363 H 28.7701 5.23733 -2.66416 0
M  V30 364 H 30.2941 5.79685 -1.91826 0
M  V30 365 H 31.7081 4.38273 -3.69581 0
M  V30 366 H 30.1051 4.06067 -4.41848 0
M  V30 367 H 31.1751 2.70273 -4.02592 0
M  V30 368 N 32.5182 1.22032 0.997298 0
M  V30 369 C 33.7582 1.05375 1.75144 0
M  V30 370 C 34.1222 -0.404696 1.87686 0
M  V30 371 O 35.3232 -0.691998 2.5974 0
M  V30 372 C 33.5942 1.74046 3.12158 0
M  V30 373 S 35.1532 1.72745 4.03366 0
M  V30 374 H 31.9712 0.377449 0.602539 0
M  V30 375 H 34.5732 1.54902 1.19272 0
M  V30 376 H 33.2772 2.79332 3.00669 0
M  V30 377 H 32.8082 1.24731 3.73103 0
M  V30 378 H 34.8232 0.774015 4.90126 0
M  V30 379 N 33.9963 -1.19345 1.0293 0
M  V30 380 C 34.9063 -2.26245 0.620515 0
M  V30 381 C 35.9223 -1.70486 -0.347928 0
M  V30 382 O 37.0983 -2.00347 -0.205704 0
M  V30 383 C 34.1633 -3.46693 -0.0218957 0
M  V30 384 C 33.2243 -4.17632 0.994102 0
M  V30 385 C 32.4573 -5.32329 0.382253 0
M  V30 386 O 32.6803 -5.64552 -0.814676 0
M  V30 387 O 31.6143 -5.91664 1.10531 0
M  V30 388 H 35.4403 -2.63453 1.51083 0
M  V30 389 H 33.0253 -1.26207 0.799513 0
M  V30 390 H 34.9073 -4.19683 -0.380072 0
M  V30 391 H 33.5823 -3.11333 -0.886209 0
M  V30 392 H 32.4893 -3.4676 1.40387 0
M  V30 393 H 33.8223 -4.56964 1.8288 0
M  V30 394 N 35.4744 -0.807222 -1.35358 0
M  V30 395 C 36.7234 -0.384376 -1.98004 0
M  V30 396 C 37.0364 1.0543 -1.64754 0
M  V30 397 O 38.2424 1.58029 -2.20769 0
M  V30 398 C 36.6984 -0.636326 -3.5423 0
M  V30 399 C 36.3064 -2.08759 -3.96388 0
M  V30 400 C 38.0504 -0.278869 -4.23583 0
M  V30 401 C 35.9574 -2.28525 -5.45463 0
M  V30 402 H 34.8874 -0.139986 -0.740891 0
M  V30 403 H 37.5384 -0.991369 -1.54415 0
M  V30 404 H 35.9204 0.0406256 -3.95979 0
M  V30 405 H 37.0944 -2.8024 -3.6579 0
M  V30 406 H 35.4094 -2.40497 -3.39926 0
M  V30 407 H 38.0064 -0.404599 -5.33167 0
M  V30 408 H 38.3494 0.775012 -4.09022 0
M  V30 409 H 38.8824 -0.909764 -3.87257 0
M  V30 410 H 35.6214 -3.32361 -5.64992 0
M  V30 411 H 35.1414 -1.61569 -5.77629 0
M  V30 412 H 36.8204 -2.10109 -6.11934 0
M  V30 413 N 36.9525 1.47285 -0.560781 0
M  V30 414 C 38.1925 2.0436 -0.0404627 0
M  V30 415 C 38.5565 1.42534 1.28639 0
M  V30 416 O 39.7575 1.90677 1.89462 0
M  V30 417 C 38.0285 3.57369 0.0471856 0
M  V30 418 S 39.5875 4.3579 0.513109 0
M  V30 419 H 36.4055 0.710492 -0.0268674 0
M  V30 420 H 39.0075 1.80611 -0.748323 0
M  V30 421 H 37.7115 3.9989 -0.922817 0
M  V30 422 H 37.2425 3.8562 0.778491 0
M  V30 423 H 39.2575 4.63476 1.77212 0
M  V30 424 N 38.4306 0.297415 1.54768 0
M  V30 425 C 39.3406 -0.58983 2.27064 0
M  V30 426 C 40.3566 -1.15144 1.30453 0
M  V30 427 O 41.5326 -1.17699 1.63428 0
M  V30 428 C 38.5976 -1.74714 2.9946 0
M  V30 429 C 37.6586 -1.21997 4.11601 0
M  V30 430 C 36.8916 -2.32212 4.80535 0
M  V30 431 O 37.1146 -3.52036 4.48806 0
M  V30 432 O 36.0486 -1.99106 5.68014 0
M  V30 433 H 39.8746 -0.00348199 3.037 0
M  V30 434 H 37.4596 0.0640035 1.49263 0
M  V30 435 H 39.3416 -2.42147 3.44881 0
M  V30 436 H 38.0166 -2.32016 2.25722 0
M  V30 437 H 36.9236 -0.511458 3.70587 0
M  V30 438 H 38.2566 -0.692419 4.87305 0
M  V30 439 N 39.9087 -1.5758 0.0250728 0
M  V30 440 C 41.1547 -1.91917 -0.655413 0
M  V30 441 C 41.4877 -0.901433 -1.72011 0
M  V30 442 O 40.7627 0.0764069 -1.9435 0
M  V30 443 C 41.0457 -3.36751 -1.27558 0
M  V30 444 C 40.8987 -4.49258 -0.220719 0
M  V30 445 C 42.2177 -3.81469 -2.19475 0
M  V30 446 H 39.3367 -0.697925 -0.23679 0
M  V30 447 H 41.9787 -1.89825 0.0815036 0
M  V30 448 H 40.1287 -3.38664 -1.90365 0
M  V30 449 H 41.8007 -4.59478 0.409601 0
M  V30 450 H 40.0437 -4.31415 0.454264 0
M  V30 451 H 40.7147 -5.47618 -0.694175 0
M  V30 452 H 43.1907 -3.81266 -1.66659 0
M  V30 453 H 42.0667 -4.83512 -2.59822 0
M  V30 454 H 42.3277 -3.16744 -3.08424 0
M  V30 455 N 41.3868 0.248026 -1.55636 0
M  V30 456 C 42.6118 0.998028 -1.81808 0
M  V30 457 C 43.0368 1.78207 -0.601979 0
M  V30 458 O 42.3948 1.75653 0.448961 0
M  V30 459 C 42.4428 1.9125 -3.05705 0
M  V30 460 O 41.5468 3.00406 -2.82542 0
M  V30 461 H 40.8878 0.284045 -0.600179 0
M  V30 462 H 43.4178 0.269357 -2.02819 0
M  V30 463 H 43.4278 2.32737 -3.35108 0
M  V30 464 H 42.1028 1.33602 -3.93857 0
M  V30 465 H 40.6798 2.63056 -2.64303 0
M  V30 466 N 42.8649 1.48995 0.513639 0
M  V30 467 C 43.7749 1.67443 1.64317 0
M  V30 468 C 44.7909 0.556947 1.64846 0
M  V30 469 O 45.9669 0.830082 1.83498 0
M  V30 470 C 43.0319 1.72515 3.00732 0
M  V30 471 C 42.0929 2.96009 3.1093 0
M  V30 472 C 41.3259 3.00829 4.40837 0
M  V30 473 O 41.5489 2.13594 5.28898 0
M  V30 474 O 40.4829 3.93168 4.55744 0
M  V30 475 H 44.3089 2.63106 1.51687 0
M  V30 476 H 41.8939 1.32588 0.688543 0
M  V30 477 H 43.7759 1.78277 3.81831 0
M  V30 478 H 42.4509 0.800278 3.13651 0
M  V30 479 H 41.3579 2.9577 2.29065 0
M  V30 480 H 42.6909 3.87934 3.02933 0
M  V30 481 N 44.343 -0.763751 1.37857 0
M  V30 482 C 45.253 -1.90817 1.36478 0
M  V30 483 C 46.269 -1.71997 0.263248 0
M  V30 484 O 47.445 -1.95095 0.499979 0
M  V30 485 C 44.51 -3.2605 1.17864 0
M  V30 486 C 43.571 -3.57467 2.3773 0
M  V30 487 C 42.804 -4.86249 2.19995 0
M  V30 488 O 43.027 -5.57884 1.18836 0
M  V30 489 O 41.961 -5.16911 3.08361 0
M  V30 490 H 45.787 -1.94933 2.32884 0
M  V30 491 H 43.372 -0.907619 1.1867 0
M  V30 492 H 45.254 -4.06924 1.09504 0
M  V30 493 H 43.929 -3.22769 0.245372 0
M  V30 494 H 42.836 -2.76796 2.51664 0
M  V30 495 H 44.169 -3.655 3.29652 0
M  V30 496 N 45.8211 -1.22559 -0.990812 0
M  V30 497 C 46.7691 -0.994798 -2.10253 0
M  V30 498 C 47.7631 0.0627798 -1.69284 0
M  V30 499 O 48.9691 -0.0898392 -1.79776 0
M  V30 500 H 45.3441 -0.304527 -0.687581 0
M  V30 501 H 47.3151 -1.93812 -2.26891 0
M  V30 502 C 46.0641 -0.591439 -3.42633 0
M  V30 503 H 45.3871 -1.3969 -3.74602 0
M  V30 504 H 46.8271 -0.469385 -4.21394 0
M  V30 505 C 45.2861 0.699232 -3.29564 0
M  V30 506 O 45.8161 1.75112 -3.61523 0
M  V30 507 N 44.0221 0.671182 -2.82743 0
M  V30 508 H 43.5691 -0.185136 -2.56934 0
M  V30 509 H 43.5271 1.53502 -2.7438 0
M  V30 510 N 47.2992 1.18797 -1.03562 0
M  V30 511 C 48.5292 1.92319 -0.754773 0
M  V30 512 C 48.9372 1.7612 0.691248 0
M  V30 513 O 48.2802 1.08491 1.48241 0
M  V30 514 C 48.3422 3.44284 -1.03484 0
M  V30 515 C 48.0062 3.84258 -2.47376 0
M  V30 516 C 49.0032 3.88459 -3.45537 0
M  V30 517 C 46.6882 4.15701 -2.81954 0
M  V30 518 C 48.6822 4.23545 -4.76328 0
M  V30 519 C 46.3692 4.50458 -4.12954 0
M  V30 520 C 47.3672 4.54356 -5.09951 0
M  V30 521 O 47.0552 4.88305 -6.38603 0
M  V30 522 H 46.7872 0.617527 -0.275021 0
M  V30 523 H 49.3412 1.51683 -1.38497 0
M  V30 524 H 47.5712 3.85135 -0.347513 0
M  V30 525 H 49.2602 3.99049 -0.7426 0
M  V30 526 H 50.0262 3.6431 -3.20162 0
M  V30 527 H 45.9052 4.11847 -2.0713 0
M  V30 528 H 49.4492 4.26502 -5.52035 0
M  V30 529 H 45.3462 4.74067 -4.38099 0
M  V30 530 H 46.1142 5.06227 -6.43177 0
M  V30 531 N 48.7773 0.814389 1.34928 0
M  V30 532 C 50.0263 0.394871 1.97797 0
M  V30 533 C 50.3393 -1.04555 1.65311 0
M  V30 534 O 51.5453 -1.56856 2.21604 0
M  V30 535 C 50.0013 0.655103 3.53888 0
M  V30 536 C 49.6093 2.10858 3.95276 0
M  V30 537 C 51.3533 0.301329 4.23429 0
M  V30 538 C 49.2603 2.31415 5.44244 0
M  V30 539 H 48.1903 0.143913 0.740139 0
M  V30 540 H 50.8413 0.999544 1.53888 0
M  V30 541 H 49.2233 -0.0196253 3.95995 0
M  V30 542 H 50.3973 2.82176 3.64298 0
M  V30 543 H 48.7123 2.42297 3.38646 0
M  V30 544 H 51.3093 0.432869 5.32945 0
M  V30 545 H 51.6523 -0.75331 4.09428 0
M  V30 546 H 52.1853 0.930288 3.86769 0
M  V30 547 H 48.9243 3.35353 5.63222 0
M  V30 548 H 48.4443 1.6463 5.76764 0
M  V30 549 H 50.1233 2.13352 6.10811 0
M  V30 550 N 50.2554 -1.46986 0.568584 0
M  V30 551 C 51.6714 -1.57946 0.229189 0
M  V30 552 C 51.8714 -1.56567 -1.26843 0
M  V30 553 O 50.9274 -1.47511 -2.04931 0
M  V30 554 C 52.2404 -2.87963 0.865909 0
M  V30 555 C 53.7884 -3.01568 0.838188 0
M  V30 556 C 54.2634 -4.34301 1.45419 0
M  V30 557 N 55.7544 -4.40965 1.41788 0
M  V30 558 C 56.4894 -5.42256 1.86403 0
M  V30 559 N 55.9854 -6.50297 2.38926 0
M  V30 560 N 57.7784 -5.3337 1.77405 0
M  V30 561 H 49.9294 -1.46126 1.54146 0
M  V30 562 H 52.1924 -0.696156 0.643484 0
M  V30 563 H 51.8984 -2.94742 1.91886 0
M  V30 564 H 51.7724 -3.75423 0.365687 0
M  V30 565 H 54.1594 -2.94379 -0.206106 0
M  V30 566 H 54.2404 -2.1562 1.37629 0
M  V30 567 H 53.8844 -4.42247 2.49761 0
M  V30 568 H 53.8144 -5.19 0.891435 0
M  V30 569 H 56.3054 -3.63484 1.03381 0
M  V30 570 H 56.6184 -7.23777 2.70863 0
M  V30 571 H 54.9634 -6.51155 2.42944 0
M  V30 572 H 58.1544 -4.47865 1.3614 0
M  V30 573 H 58.3274 -6.12169 2.12492 0
M  V30 574 N 51.7335 -0.305618 -1.54608 0
M  V30 575 C 52.6635 0.561482 -2.26649 0
M  V30 576 C 53.6445 1.13415 -1.26772 0
M  V30 577 O 54.8295 1.16262 -1.55553 0
M  V30 578 C 51.9595 1.73122 -3.01075 0
M  V30 579 C 50.9135 1.2887 -4.08138 0
M  V30 580 C 50.2395 2.54396 -4.70305 0
M  V30 581 C 51.5395 0.416578 -5.20636 0
M  V30 582 H 53.2335 -0.0393902 -2.99374 0
M  V30 583 H 50.7795 -0.020385 -1.43986 0
M  V30 584 H 52.7325 2.34396 -3.50195 0
M  V30 585 H 51.4565 2.3584 -2.25936 0
M  V30 586 H 50.1155 0.698991 -3.59875 0
M  V30 587 H 49.7635 3.15439 -3.918 0
M  V30 588 H 49.4635 2.25486 -5.42614 0
M  V30 589 H 50.9875 3.16464 -5.2219 0
M  V30 590 H 52.4015 0.935116 -5.65622 0
M  V30 591 H 50.7985 0.221046 -5.99693 0
M  V30 592 H 51.8685 -0.557162 -4.81688 0
M  V30 593 N 53.2116 1.57565 -0.0334293 0
M  V30 594 C 54.1586 2.10478 0.946981 0
M  V30 595 C 55.1286 1.00787 1.32027 0
M  V30 596 O 56.3136 1.28232 1.41284 0
M  V30 597 C 53.4536 2.63994 2.22263 0
M  V30 598 C 52.5666 3.87709 1.90541 0
M  V30 599 C 51.7016 4.29604 3.12433 0
M  V30 600 C 50.7406 5.46065 2.76549 0
M  V30 601 N 49.8776 5.83096 3.9108 0
M  V30 602 H 54.7176 2.93963 0.488846 0
M  V30 603 H 52.2546 1.45296 0.22969 0
M  V30 604 H 54.2126 2.93114 2.96884 0
M  V30 605 H 52.8426 1.83333 2.65685 0
M  V30 606 H 51.8946 3.65291 1.06144 0
M  V30 607 H 53.2066 4.72403 1.60116 0
M  V30 608 H 52.3606 4.60182 3.9537 0
M  V30 609 H 51.0996 3.43685 3.46023 0
M  V30 610 H 50.1046 5.15176 1.92026 0
M  V30 611 H 51.3296 6.33685 2.44171 0
M  V30 612 H 49.2756 5.00132 4.24504 0
M  V30 613 H 49.1926 6.6244 3.64293 0
M  V30 614 H 50.4606 6.18282 4.74708 0
M  V30 615 N 54.6897 -0.239769 1.55765 0
M  V30 616 C 56.1007 -0.808263 1.68297 0
M  V30 617 C 56.4517 -1.85736 0.632181 0
M  V30 618 O 55.5767 -2.15277 -0.220204 0
M  V30 619 C 56.1717 -1.47284 3.05111 0
M  V30 620 C 54.7307 -1.98895 3.19559 0
M  V30 621 C 53.8777 -0.842575 2.64189 0
M  V30 622 H 56.8287 -0.0154422 1.58692 0
M  V30 623 H 56.8497 -2.34111 2.99954 0
M  V30 624 H 56.3617 -0.709053 3.81568 0
M  V30 625 H 54.4627 -2.78132 2.47938 0
M  V30 626 H 54.5757 -2.18143 4.26556 0
M  V30 627 H 52.9397 -1.24501 2.22197 0
M  V30 628 H 53.7227 -0.0917552 3.43177 0
M  V30 629 N 56.1678 -1.49265 -0.50573 0
M  V30 630 C 57.0978 -1.68495 -1.61653 0
M  V30 631 C 58.0788 -0.53366 -1.61512 0
M  V30 632 O 59.2638 -0.76897 -1.78327 0
M  V30 633 C 56.3938 -1.74709 -3.00157 0
M  V30 634 C 55.3478 -2.89581 -3.15162 0
M  V30 635 C 54.6738 -2.80903 -4.5497 0
M  V30 636 C 55.9738 -4.30578 -2.95634 0
M  V30 637 H 57.6678 -2.61493 -1.45814 0
M  V30 638 H 55.2138 -1.25838 -0.70005 0
M  V30 639 H 57.1668 -1.86748 -3.77761 0
M  V30 640 H 55.8908 -0.783067 -3.17074 0
M  V30 641 H 54.5498 -2.77136 -2.39982 0
M  V30 642 H 54.1978 -1.82419 -4.68756 0
M  V30 643 H 53.8978 -3.57999 -4.65951 0
M  V30 644 H 55.4218 -2.94944 -5.34641 0
M  V30 645 H 56.8358 -4.4373 -3.63011 0
M  V30 646 H 55.2328 -5.0886 -3.18091 0
M  V30 647 H 56.3028 -4.45352 -1.91806 0
M  V30 648 N 57.6459 0.756429 -1.3826 0
M  V30 649 C 58.5759 1.88374 -1.37976 0
M  V30 650 C 59.5569 1.68311 -0.246082 0
M  V30 651 O 60.7419 1.88944 -0.44874 0
M  V30 652 C 57.8719 3.25864 -1.20125 0
M  V30 653 C 56.8259 3.60523 -2.30666 0
M  V30 654 C 56.1519 4.9672 -1.97923 0
M  V30 655 C 57.4519 3.65692 -3.72916 0
M  V30 656 H 59.1459 1.88869 -2.32312 0
M  V30 657 H 56.6919 0.907272 -1.11824 0
M  V30 658 H 58.6449 4.0438 -1.18552 0
M  V30 659 H 57.3689 3.25841 -0.222498 0
M  V30 660 H 56.0279 2.84324 -2.3142 0
M  V30 661 H 55.6759 4.93253 -0.985393 0
M  V30 662 H 55.3759 5.20878 -2.71955 0
M  V30 663 H 56.8999 5.77618 -1.97964 0
M  V30 664 H 58.3139 4.34328 -3.74208 0
M  V30 665 H 56.7109 4.01358 -4.4613 0
M  V30 666 H 57.7809 2.65987 -4.05436 0
M  V30 667 N 59.124 1.23083 0.984299 0
M  V30 668 C 60.072 1.00593 2.09723 0
M  V30 669 C 61.066 -0.0538014 1.69315 0
M  V30 670 O 62.272 0.0993719 1.79725 0
M  V30 671 H 58.647 0.30817 0.685956 0
M  V30 672 H 60.618 1.95012 2.2586 0
M  V30 673 C 59.367 0.609601 3.42314 0
M  V30 674 H 58.69 1.41675 3.73856 0
M  V30 675 H 60.13 0.491726 4.21139 0
M  V30 676 C 58.589 -0.681745 3.2993 0
M  V30 677 O 59.119 -1.73192 3.62446 0
M  V30 678 N 57.325 -0.656178 2.83095 0
M  V30 679 H 56.872 0.198759 2.56832 0
M  V30 680 H 56.83 -1.52044 2.75191 0
M  V30 681 N 60.6021 -1.18246 1.0419 0
M  V30 682 C 61.8301 -1.92195 0.766072 0
M  V30 683 C 62.2451 -1.76247 -0.676933 0
M  V30 684 O 61.6021 -1.09293 -1.46155 0
M  V30 685 C 61.6531 -3.43568 1.12442 0
M  V30 686 O 61.3741 -3.59015 2.51078 0
M  V30 687 C 62.8751 -4.34613 0.873275 0
M  V30 688 H 60.0951 -0.610114 0.279288 0
M  V30 689 H 62.6391 -1.50007 1.38989 0
M  V30 690 H 60.7941 -3.8354 0.545542 0
M  V30 691 H 61.2081 -4.5273 2.64831 0
M  V30 692 H 62.6821 -5.39374 1.17385 0
M  V30 693 H 63.1591 -4.38781 -0.191909 0
M  V30 694 H 63.7651 -4.00341 1.43551 0
M  V30 695 N 62.0802 -0.821533 -1.34494 0
M  V30 696 C 63.0132 -0.187704 -2.27427 0
M  V30 697 C 63.9912 0.65507 -1.48821 0
M  V30 698 O 65.1752 0.619111 -1.78043 0
M  V30 699 C 62.3022 0.737996 -3.30562 0
M  V30 700 C 61.3482 -0.0270713 -4.26491 0
M  V30 701 S 62.1812 -1.37329 -5.17592 0
M  V30 702 C 63.3372 -0.452427 -6.24263 0
M  V30 703 H 63.5702 -0.975598 -2.80837 0
M  V30 704 H 61.1032 -0.61736 -1.4152 0
M  V30 705 H 63.0612 1.26654 -3.90473 0
M  V30 706 H 61.7222 1.4994 -2.76001 0
M  V30 707 H 60.9152 0.6766 -4.99438 0
M  V30 708 H 60.5172 -0.48612 -3.70827 0
M  V30 709 H 62.8092 0.356557 -6.76561 0
M  V30 710 H 63.7522 -1.15153 -6.98674 0
M  V30 711 H 64.1602 -0.0414755 -5.64485 0
M  V30 712 N 63.5583 1.46682 -0.576371 0
M  V30 713 C 64.8073 2.01619 -0.0572825 0
M  V30 714 C 65.1203 1.45417 1.30818 0
M  V30 715 O 66.3263 1.92133 1.91825 0
M  V30 716 C 64.7823 3.59863 -0.0518371 0
M  V30 717 C 64.3903 4.25059 -1.41523 0
M  V30 718 C 66.1343 4.2248 0.413639 0
M  V30 719 C 64.0413 5.75364 -1.36785 0
M  V30 720 H 62.9713 0.753794 -0.0176448 0
M  V30 721 H 65.6223 1.68481 -0.727076 0
M  V30 722 H 64.0043 3.90048 0.683994 0
M  V30 723 H 65.1783 4.06491 -2.17029 0
M  V30 724 H 63.4933 3.7451 -1.8202 0
M  V30 725 H 66.0903 5.3265 0.467779 0
M  V30 726 H 66.4333 3.90976 1.42982 0
M  V30 727 H 66.9663 3.96897 -0.267929 0
M  V30 728 H 63.7053 6.11518 -2.36063 0
M  V30 729 H 63.2253 5.96214 -0.654895 0
M  V30 730 H 64.9043 6.37955 -1.07805 0
M  V30 731 N 65.0364 0.313813 1.54444 0
M  V30 732 C 65.9684 -0.590425 2.21465 0
M  V30 733 C 66.9814 -1.08753 1.21147 0
M  V30 734 O 68.1704 -1.00278 1.4767 0
M  V30 735 C 65.2704 -1.82179 2.85769 0
M  V30 736 C 64.4434 -1.46502 4.12136 0
M  V30 737 C 63.5024 -2.55288 4.60124 0
M  V30 738 O 62.5284 -2.19842 5.25032 0
M  V30 739 N 63.7304 -3.86053 4.33525 0
M  V30 740 H 66.4954 -0.0166033 2.99695 0
M  V30 741 H 64.0564 0.136578 1.61323 0
M  V30 742 H 66.0484 -2.54328 3.14801 0
M  V30 743 H 64.6184 -2.30369 2.11303 0
M  V30 744 H 63.8384 -0.575595 3.89975 0
M  V30 745 H 65.1264 -1.20221 4.94393 0
M  V30 746 H 64.5244 -4.17654 3.81552 0
M  V30 747 H 63.0814 -4.54461 4.67235 0
M  V30 748 N 66.5145 -1.57545 0.0417849 0
M  V30 749 C 67.7395 -1.97035 -0.647455 0
M  V30 750 C 68.1645 -0.918775 -1.64135 0
M  V30 751 O 67.5225 0.119006 -1.80909 0
M  V30 752 C 67.5705 -3.35609 -1.31905 0
M  V30 753 O 66.6745 -3.3287 -2.43457 0
M  V30 754 H 66.0155 -0.64211 -0.169086 0
M  V30 755 H 68.5455 -2.04318 0.107399 0
M  V30 756 H 68.5555 -3.72126 -1.67291 0
M  V30 757 H 67.2305 -4.11685 -0.590586 0
M  V30 758 H 65.8075 -3.08087 -2.10088 0
M  V30 759 N 67.9926 0.231505 -1.5589 0
M  V30 760 C 68.9406 1.30649 -1.92441 0
M  V30 761 C 69.9346 1.49037 -0.805254 0
M  V30 762 O 71.1406 1.50329 -0.990007 0
M  V30 763 H 67.5156 0.437812 -0.611412 0
M  V30 764 H 69.4866 0.970973 -2.82161 0
M  V30 765 C 68.2356 2.65179 -2.24889 0
M  V30 766 H 67.5586 2.51835 -3.10514 0
M  V30 767 H 68.9986 3.39234 -2.54355 0
M  V30 768 C 67.4576 3.19439 -1.07054 0
M  V30 769 O 67.9876 4.00371 -0.326499 0
M  V30 770 N 66.1936 2.77675 -0.85703 0
M  V30 771 H 65.7406 2.11969 -1.46379 0
M  V30 772 H 65.6986 3.14321 -0.0703223 0
M  V30 773 N 69.4707 1.49531 0.497807 0
M  V30 774 C 70.7007 1.62657 1.27382 0
M  V30 775 C 71.1087 0.298488 1.86831 0
M  V30 776 O 70.4517 -0.72647 1.68725 0
M  V30 777 C 70.5137 2.6393 2.44093 0
M  V30 778 C 70.1777 4.08195 2.05489 0
M  V30 779 C 71.1747 4.949 1.59279 0
M  V30 780 C 68.8597 4.53948 2.15026 0
M  V30 781 C 70.8537 6.25397 1.23113 0
M  V30 782 C 68.5407 5.84458 1.78473 0
M  V30 783 C 69.5387 6.70006 1.32591 0
M  V30 784 O 69.2267 7.98083 0.965327 0
M  V30 785 H 68.9587 0.550429 0.392434 0
M  V30 786 H 71.5127 1.96325 0.603801 0
M  V30 787 H 69.7427 2.25449 3.14181 0
M  V30 788 H 71.4317 2.66552 3.06113 0
M  V30 789 H 72.1977 4.60779 1.51354 0
M  V30 790 H 68.0767 3.87525 2.4969 0
M  V30 791 H 71.6207 6.92125 0.872299 0
M  V30 792 H 67.5177 6.18107 1.86048 0
M  V30 793 H 68.2857 8.11122 1.09652 0
M  V30 794 N 70.9488 -0.749086 1.3866 0
M  V30 795 C 71.8968 -1.88428 1.36373 0
M  V30 796 C 72.8908 -1.67561 0.248929 0
M  V30 797 O 74.0968 -1.75074 0.41821 0
M  V30 798 H 70.4718 -0.620023 0.42553 0
M  V30 799 H 72.4428 -1.87473 2.32156 0
M  V30 800 C 71.1918 -3.25961 1.21014 0
M  V30 801 H 70.5148 -3.42607 2.06059 0
M  V30 802 H 71.9548 -4.05625 1.23469 0
M  V30 803 C 70.4138 -3.36799 -0.0825941 0
M  V30 804 O 70.9438 -3.87517 -1.05797 0
M  V30 805 N 69.1498 -2.90258 -0.140939 0
M  V30 806 H 68.6968 -2.49174 0.653477 0
M  V30 807 H 68.6548 -2.97889 -1.00545 0
M  V30 808 N 72.4269 -1.23603 -0.977757 0
M  V30 809 C 73.8429 -0.999251 -1.24447 0
M  V30 810 C 74.0429 0.298053 -1.99283 0
M  V30 811 O 73.0989 1.01681 -2.31122 0
M  V30 812 C 74.4119 -2.20784 -2.04144 0
M  V30 813 C 75.9599 -2.25303 -2.17273 0
M  V30 814 C 76.4349 -3.45755 -3.00362 0
M  V30 815 N 77.9259 -3.4601 -3.07947 0
M  V30 816 C 78.6609 -4.35868 -3.72568 0
M  V30 817 N 78.1569 -5.35966 -4.38991 0
M  V30 818 N 79.9499 -4.23605 -3.6948 0
M  V30 819 H 72.1009 -2.06986 -0.476483 0
M  V30 820 H 74.3639 -0.907801 -0.273134 0
M  V30 821 H 74.0699 -3.14945 -1.56533 0
M  V30 822 H 73.9439 -2.22085 -3.04891 0
M  V30 823 H 76.3309 -1.3168 -2.64092 0
M  V30 824 H 76.4119 -2.28033 -1.15907 0
M  V30 825 H 76.0559 -4.39687 -2.5424 0
M  V30 826 H 75.9859 -3.40266 -4.01904 0
M  V30 827 H 78.4769 -2.73588 -2.60688 0
M  V30 828 H 78.7899 -6.00783 -4.86086 0
M  V30 829 H 77.1349 -5.39863 -4.37691 0
M  V30 830 H 80.3259 -3.44647 -3.16759 0
M  V30 831 H 80.4989 -4.93836 -4.1956 0
M  V30 832 N 73.905 1.17692 -1.04816 0
M  V30 833 C 75.153 1.87488 -0.754497 0
M  V30 834 C 75.474 1.81205 0.720407 0
M  V30 835 O 74.744 1.23544 1.52032 0
M  V30 836 H 73.324 0.694101 -0.276102 0
M  V30 837 H 75.986 1.42793 -1.32651 0
M  V30 838 H 75.082 2.93328 -1.06606 0
M  V30 839 N 75.3831 0.828654 1.34056 0
M  V30 840 C 76.6111 0.43262 2.02326 0
M  V30 841 C 77.0261 -0.963147 1.62385 0
M  V30 842 O 76.3831 -1.62425 0.832121 0
M  V30 843 C 76.4341 0.53182 3.57567 0
M  V30 844 O 76.1551 1.87258 3.96063 0
M  V30 845 C 77.6561 0.131422 4.43105 0
M  V30 846 H 74.8761 0.172923 0.648335 0
M  V30 847 H 77.4201 1.1184 1.71208 0
M  V30 848 H 75.5751 -0.105938 3.87255 0
M  V30 849 H 75.9891 1.85087 4.90758 0
M  V30 850 H 77.4631 0.251904 5.51425 0
M  V30 851 H 77.9401 -0.925645 4.29335 0
M  V30 852 H 78.5461 0.743207 4.18756 0
M  V30 853 N 76.8612 -1.46375 0.584142 0
M  V30 854 C 78.0862 -2.07268 0.0740405 0
M  V30 855 C 78.5112 -1.42979 -1.22223 0
M  V30 856 O 77.8692 -0.514092 -1.73859 0
M  V30 857 C 77.9172 -3.60518 -0.0767769 0
M  V30 858 O 77.0212 -3.96533 -1.13292 0
M  V30 859 H 76.3622 -0.660961 0.0634524 0
M  V30 860 H 78.8922 -1.87991 0.807492 0
M  V30 861 H 78.9022 -4.07021 -0.282489 0
M  V30 862 H 77.5772 -4.06702 0.86986 0
M  V30 863 H 76.1542 -3.61738 -0.905553 0
M  V30 864 N 78.3393 -0.321999 -1.54275 0
M  V30 865 C 79.3023 0.531975 -2.22941 0
M  V30 866 C 80.3023 1.04478 -1.22234 0
M  V30 867 O 81.4923 0.937452 -1.46825 0
M  V30 868 C 78.6243 1.73874 -2.93224 0
M  V30 869 H 79.8173 -0.0682612 -2.99822 0
M  V30 870 H 77.3703 -0.0730644 -1.56129 0
M  V30 871 H 78.1053 2.37825 -2.20476 0
M  V30 872 H 77.8903 1.37847 -3.6707 0
M  V30 873 H 79.3803 2.34496 -3.45545 0
M  V30 874 N 79.8174 1.5752 -0.0501392 0
M  V30 875 C 81.0634 1.92936 0.624798 0
M  V30 876 C 81.3964 0.928685 1.70555 0
M  V30 877 O 80.6714 -0.0454779 1.94447 0
M  V30 878 C 80.9544 3.38737 1.22185 0
M  V30 879 C 80.8074 4.49552 0.149218 0
M  V30 880 C 82.1264 3.84913 2.13378 0
M  V30 881 H 79.2454 0.701604 0.225657 0
M  V30 882 H 81.8874 1.89671 -0.111693 0
M  V30 883 H 80.0374 3.4165 1.84953 0
M  V30 884 H 81.7094 4.58768 -0.482648 0
M  V30 885 H 79.9524 4.30638 -0.522841 0
M  V30 886 H 80.6234 5.48653 0.606966 0
M  V30 887 H 83.0994 3.8387 1.60572 0
M  V30 888 H 81.9754 4.87584 2.52097 0
M  V30 889 H 82.2364 3.21611 3.03346 0
M  V30 890 N 81.2955 -0.223234 1.56011 0
M  V30 891 C 82.2435 -1.29627 1.93131 0
M  V30 892 C 83.2375 -1.48608 0.813146 0
M  V30 893 O 84.4435 -1.49802 0.997966 0
M  V30 894 H 80.8185 -0.434563 0.613726 0
M  V30 895 H 82.7895 -0.955995 2.82672 0
M  V30 896 C 81.5385 -2.63983 2.26292 0
M  V30 897 H 80.8615 -2.50185 3.11846 0
M  V30 898 H 82.3015 -3.3788 2.56151 0
M  V30 899 C 80.7605 -3.18866 1.08747 0
M  V30 900 O 81.2905 -4.00192 0.347727 0
M  V30 901 N 79.4965 -2.77217 0.871743 0
M  V30 902 H 79.0435 -2.1119 1.47501 0
M  V30 903 H 79.0015 -3.1428 0.0869905 0
M  V30 904 N 82.7736 -1.49793 -0.48987 0
M  V30 905 C 84.0196 -1.60078 -1.24511 0
M  V30 906 C 84.3526 -0.291608 -1.91998 0
M  V30 907 O 83.6276 0.705647 -1.81248 0
M  V30 908 C 83.9106 -2.76791 -2.30345 0
M  V30 909 C 83.7636 -4.17535 -1.67286 0
M  V30 910 C 85.0826 -2.89111 -3.31817 0
M  V30 911 H 82.2016 -0.582645 -0.451324 0
M  V30 912 H 84.8436 -1.82117 -0.541612 0
M  V30 913 H 82.9936 -2.5813 -2.90346 0
M  V30 914 H 84.6656 -4.4774 -1.11026 0
M  V30 915 H 82.9086 -4.22665 -0.976577 0
M  V30 916 H 83.5796 -4.95094 -2.44103 0
M  V30 917 H 86.0556 -3.06133 -2.81819 0
M  V30 918 H 84.9316 -3.72433 -4.03219 0
M  V30 919 H 85.1926 -1.9893 -3.94815 0
M  V30 920 N 84.2517 0.741722 -1.39055 0
M  V30 921 C 85.4977 1.50336 -1.36113 0
M  V30 922 C 85.8307 1.94148 0.0450796 0
M  V30 923 O 85.1057 1.66301 1.00868 0
M  V30 924 C 85.3887 2.74773 -2.32749 0
M  V30 925 C 85.2417 2.37023 -3.82283 0
M  V30 926 C 86.5607 3.76846 -2.27322 0
M  V30 927 H 83.6797 0.545351 -0.495743 0
M  V30 928 H 86.3217 0.848624 -1.69995 0
M  V30 929 H 84.4717 3.30639 -2.03986 0
M  V30 930 H 86.1437 1.8684 -4.21768 0
M  V30 931 H 84.3867 1.69334 -3.99385 0
M  V30 932 H 85.0577 3.26104 -4.45376 0
M  V30 933 H 87.5337 3.30548 -2.5274 0
M  V30 934 H 86.4097 4.6159 -2.97028 0
M  V30 935 H 86.6707 4.23286 -1.27599 0
M  V30 936 N 85.7298 1.2412 0.971189 0
M  V30 937 C 86.6598 1.05508 2.08304 0
M  V30 938 C 87.6408 -0.0308864 1.70072 0
M  V30 939 O 88.8258 0.135521 1.93727 0
M  V30 940 C 85.9558 0.655365 3.4106 0
M  V30 941 C 84.9098 1.68971 3.93234 0
M  V30 942 C 84.2358 1.14516 5.22293 0
M  V30 943 C 85.5358 3.08487 4.21465 0
M  V30 944 H 87.2298 1.98507 2.24132 0
M  V30 945 H 84.7758 0.955821 1.07704 0
M  V30 946 H 86.7288 0.51217 4.18276 0
M  V30 947 H 85.4528 -0.31032 3.25122 0
M  V30 948 H 84.1118 1.82106 3.18171 0
M  V30 949 H 83.7598 0.170189 5.02712 0
M  V30 950 H 83.4598 1.83635 5.58168 0
M  V30 951 H 84.9838 1.01401 6.02121 0
M  V30 952 H 86.3978 2.98601 4.89398 0
M  V30 953 H 84.7948 3.74926 4.68562 0
M  V30 954 H 85.8648 3.56787 3.28376 0
M  V30 955 N 87.2079 -1.17134 1.05439 0
M  V30 956 C 88.4329 -1.91913 0.786396 0
M  V30 957 C 88.8579 -1.7643 -0.652234 0
M  V30 958 O 88.2159 -1.08372 -1.45345 0
M  V30 959 C 88.2639 -3.40921 1.17497 0
M  V30 960 O 87.3679 -4.11244 0.308589 0
M  V30 961 H 86.7089 -0.598215 0.288158 0
M  V30 962 H 89.2389 -1.48457 1.4079 0
M  V30 963 H 89.2489 -3.91668 1.14281 0
M  V30 964 H 87.9239 -3.5151 2.22292 0
M  V30 965 H 86.5009 -3.70731 0.40157 0
M  V30 966 N 88.686 -0.835752 -1.33615 0
M  V30 967 C 89.616 -0.281739 -2.31794 0
M  V30 968 C 90.597 0.608833 -1.58831 0
M  V30 969 O 91.782 0.533035 -1.86741 0
M  V30 970 C 88.912 0.546612 -3.42971 0
M  V30 971 C 87.866 -0.247904 -4.27281 0
M  V30 972 C 87.192 0.704001 -5.30045 0
M  V30 973 C 88.492 -1.46324 -5.01385 0
M  V30 974 H 90.186 -1.10206 -2.78379 0
M  V30 975 H 87.732 -0.531388 -1.33837 0
M  V30 976 H 89.685 0.944467 -4.1068 0
M  V30 977 H 88.409 1.40011 -2.95067 0
M  V30 978 H 87.068 -0.627281 -3.61194 0
M  V30 979 H 86.716 1.55381 -4.78399 0
M  V30 980 H 86.416 0.176524 -5.87335 0
M  V30 981 H 87.94 1.09944 -6.0062 0
M  V30 982 H 89.354 -1.13871 -5.61877 0
M  V30 983 H 87.751 -1.92728 -5.6831 0
M  V30 984 H 88.821 -2.23467 -4.30338 0
M  V30 985 N 90.1641 1.46063 -0.591896 0
M  V30 986 C 91.1111 2.30399 0.136069 0
M  V30 987 C 92.0811 1.41169 0.875238 0
M  V30 988 O 93.2661 1.70112 0.86409 0
M  V30 989 C 90.4061 3.25804 1.13781 0
M  V30 990 C 89.5191 4.30134 0.401137 0
M  V30 991 C 88.6541 5.12659 1.39121 0
M  V30 992 C 87.6931 6.0873 0.641462 0
M  V30 993 N 86.8301 6.8409 1.58004 0
M  V30 994 H 91.6701 2.92118 -0.589144 0
M  V30 995 H 89.2071 1.43959 -0.302342 0
M  V30 996 H 91.1651 3.79569 1.73156 0
M  V30 997 H 89.7951 2.65872 1.83062 0
M  V30 998 H 88.8471 3.79152 -0.307826 0
M  V30 999 H 90.1591 4.98458 -0.184565 0
M  V30 1000 H 89.3131 5.70747 2.05749 0
M  V30 1001 H 88.0521 4.44316 2.01084 0
M  V30 1002 H 87.0571 5.49786 -0.0385419 0
M  V30 1003 H 88.2821 6.79095 0.0270945 0
M  V30 1004 H 86.2281 6.18449 2.18761 0
M  V30 1005 H 86.1451 7.48709 1.04738 0
M  V30 1006 H 87.4131 7.4673 2.23639 0
M  V30 1007 N 91.6422 0.330177 1.54103 0
M  V30 1008 C 92.5722 -0.525353 2.27513 0
M  V30 1009 C 93.5532 -1.11383 1.2856 0
M  V30 1010 O 94.7382 -1.13773 1.57383 0
M  V30 1011 C 91.8682 -1.6831 3.03791 0
M  V30 1012 C 90.8222 -1.2236 4.10137 0
M  V30 1013 C 90.1482 -2.46882 4.74293 0
M  V30 1014 C 91.4482 -0.333697 5.21233 0
M  V30 1015 H 93.1422 0.087013 2.99274 0
M  V30 1016 H 90.6882 0.0432893 1.43935 0
M  V30 1017 H 92.6412 -2.28795 3.5388 0
M  V30 1018 H 91.3652 -2.32216 2.29659 0
M  V30 1019 H 90.0242 -0.64165 3.60941 0
M  V30 1020 H 89.6722 -3.09165 3.96769 0
M  V30 1021 H 89.3722 -2.16825 5.46133 0
M  V30 1022 H 90.8962 -3.08117 5.27159 0
M  V30 1023 H 92.3102 -0.845013 5.67038 0
M  V30 1024 H 90.7072 -0.125612 5.99969 0
M  V30 1025 H 91.7772 0.633724 4.80741 0
M  V30 1026 N 93.1203 -1.57491 0.0584922 0
M  V30 1027 C 94.3663 -1.93264 -0.614558 0
M  V30 1028 C 94.6993 -0.937717 -1.7006 0
M  V30 1029 O 93.9743 0.0351652 -1.94468 0
M  V30 1030 C 94.2573 -3.3938 -1.20386 0
M  V30 1031 C 94.1103 -4.49625 -0.125375 0
M  V30 1032 C 95.4293 -3.86039 -2.11334 0
M  V30 1033 H 92.5483 -0.702791 -0.221933 0
M  V30 1034 H 95.1903 -1.8961 0.12175 0
M  V30 1035 H 93.3403 -3.42626 -1.83139 0
M  V30 1036 H 95.0123 -4.58506 0.506971 0
M  V30 1037 H 93.2553 -4.30354 0.545672 0
M  V30 1038 H 93.9263 -5.48967 -0.577861 0
M  V30 1039 H 96.4023 -3.84716 -1.58534 0
M  V30 1040 H 95.2783 -4.88914 -2.49507 0
M  V30 1041 H 95.5393 -3.23215 -3.01636 0
M  V30 1042 N 94.5984 0.214957 -1.56127 0
M  V30 1043 C 95.8464 0.936518 -1.79091 0
M  V30 1044 C 96.1674 1.84606 -0.628148 0
M  V30 1045 O 95.4374 1.92664 0.35462 0
M  V30 1046 H 94.0174 0.3488 -0.660566 0
M  V30 1047 H 96.6794 0.22523 -1.93594 0
M  V30 1048 H 95.7754 1.53943 -2.71492 0
M  V30 1049 N 96.0765 1.50051 0.48192 0
M  V30 1050 C 97.3255 1.59741 1.23149 0
M  V30 1051 C 97.6385 0.298163 1.93314 0
M  V30 1052 O 98.8445 0.273835 2.70116 0
M  V30 1053 C 97.3005 2.81926 2.23708 0
M  V30 1054 C 96.9085 4.18685 1.59396 0
M  V30 1055 C 98.6525 3.00956 2.99375 0
M  V30 1056 C 96.5595 5.3207 2.58178 0
M  V30 1057 H 95.4895 0.594838 0.46334 0
M  V30 1058 H 98.1405 1.76467 0.503169 0
M  V30 1059 H 96.5225 2.58736 2.99786 0
M  V30 1060 H 97.6965 4.52088 0.891811 0
M  V30 1061 H 96.0115 4.05171 0.960503 0
M  V30 1062 H 98.6085 3.82836 3.73283 0
M  V30 1063 H 98.9515 2.12258 3.58123 0
M  V30 1064 H 99.4845 3.24277 2.30411 0
M  V30 1065 H 96.2235 6.22888 2.04184 0
M  V30 1066 H 95.7435 5.03098 3.26577 0
M  V30 1067 H 97.4225 5.62196 3.20225 0
M  V30 1068 N 97.5546 -0.734337 1.39446 0
M  V30 1069 C 98.4866 -1.85861 1.34121 0
M  V30 1070 C 99.4996 -1.60871 0.249864 0
M  V30 1071 O 100.689 -1.71093 0.508865 0
M  V30 1072 C 97.7886 -3.21899 1.05991 0
M  V30 1073 C 96.9616 -3.74239 2.26415 0
M  V30 1074 C 96.0206 -4.88841 1.94733 0
M  V30 1075 O 95.0466 -5.02468 2.67422 0
M  V30 1076 N 96.2486 -5.73261 0.913884 0
M  V30 1077 H 99.0136 -1.90934 2.31007 0
M  V30 1078 H 96.5746 -0.915102 1.33557 0
M  V30 1079 H 98.5666 -3.96136 0.828147 0
M  V30 1080 H 97.1366 -3.12091 0.178361 0
M  V30 1081 H 96.3566 -2.91347 2.65539 0
M  V30 1082 H 97.6446 -4.05942 3.06738 0
M  V30 1083 H 97.0426 -5.64842 0.311476 0
M  V30 1084 H 95.5996 -6.47563 0.742015 0
M  V30 1085 N 99.0327 -1.24633 -0.964593 0
M  V30 1086 C 100.282 -1.08188 -1.7023 0
M  V30 1087 C 100.595 0.37873 -1.91898 0
M  V30 1088 O 101.801 0.663427 -2.6327 0
M  V30 1089 C 100.257 -1.88773 -3.06419 0
M  V30 1090 C 99.8647 -3.39263 -2.92582 0
M  V30 1091 C 101.609 -1.80867 -3.84041 0
M  V30 1092 C 99.5157 -4.1218 -4.24101 0
M  V30 1093 H 98.4457 -0.401245 -0.638372 0
M  V30 1094 H 101.097 -1.48742 -1.07462 0
M  V30 1095 H 99.4787 -1.41035 -3.70034 0
M  V30 1096 H 100.653 -3.94603 -2.37961 0
M  V30 1097 H 98.9677 -3.48154 -2.28424 0
M  V30 1098 H 101.565 -2.32646 -4.81435 0
M  V30 1099 H 101.908 -0.774543 -4.09031 0
M  V30 1100 H 102.441 -2.26301 -3.27159 0
M  V30 1101 H 99.1797 -5.15965 -4.04303 0
M  V30 1102 H 98.6997 -3.61626 -4.78526 0
M  V30 1103 H 100.379 -4.19349 -4.92702 0
M  V30 1104 N 100.511 1.16574 -1.06058 0
M  V30 1105 C 101.443 2.2045 -0.627239 0
M  V30 1106 C 102.456 1.59752 0.313534 0
M  V30 1107 O 103.645 1.78192 0.104896 0
M  V30 1108 C 100.745 3.3875 0.100974 0
M  V30 1109 C 99.9178 4.29008 -0.852687 0
M  V30 1110 C 98.9768 5.25944 -0.164152 0
M  V30 1111 O 98.0028 5.63535 -0.801047 0
M  V30 1112 N 99.2048 5.70075 1.09518 0
M  V30 1113 H 101.97 2.58249 -1.52077 0
M  V30 1114 H 99.5308 1.3156 -0.943594 0
M  V30 1115 H 101.523 4.00638 0.57194 0
M  V30 1116 H 100.093 2.99476 0.89628 0
M  V30 1117 H 99.3128 3.64419 -1.50308 0
M  V30 1118 H 100.601 4.86195 -1.49972 0
M  V30 1119 H 99.9988 5.41624 1.6328 0
M  V30 1120 H 98.5558 6.34067 1.51006 0
M  V30 1121 N 101.989 0.842826 1.3317 0
M  V30 1122 C 103.217 0.454055 2.01856 0
M  V30 1123 C 103.632 -0.94587 1.63397 0
M  V30 1124 O 102.989 -1.61534 0.849302 0
M  V30 1125 C 103.04 0.569715 3.56982 0
M  V30 1126 O 102.761 1.91448 3.94055 0
M  V30 1127 C 104.262 0.178412 4.42941 0
M  V30 1128 H 101.482 0.17979 0.646465 0
M  V30 1129 H 104.026 1.1365 1.70012 0
M  V30 1130 H 102.181 -0.0648587 3.87346 0
M  V30 1131 H 102.595 1.90282 4.88767 0
M  V30 1132 H 104.069 0.310376 5.51127 0
M  V30 1133 H 104.546 -0.880056 4.30293 0
M  V30 1134 H 105.152 0.787579 4.17944 0
M  V30 1135 N 103.467 -1.45747 0.599634 0
M  V30 1136 C 104.397 -2.33235 -0.111306 0
M  V30 1137 C 105.378 -1.46359 -0.866781 0
M  V30 1138 O 106.563 -1.75146 -0.838904 0
M  V30 1139 C 103.693 -3.28932 -1.11451 0
M  V30 1140 C 102.647 -4.25381 -0.472772 0
M  V30 1141 C 101.973 -5.1071 -1.58365 0
M  V30 1142 C 103.273 -5.18831 0.600948 0
M  V30 1143 H 104.967 -2.92927 0.61919 0
M  V30 1144 H 102.513 -1.40857 0.299215 0
M  V30 1145 H 104.466 -3.89002 -1.62036 0
M  V30 1146 H 103.19 -2.67381 -1.8755 0
M  V30 1147 H 101.849 -3.66598 0.0121472 0
M  V30 1148 H 101.497 -4.45533 -2.33473 0
M  V30 1149 H 101.197 -5.7604 -1.15982 0
M  V30 1150 H 102.721 -5.73647 -2.09194 0
M  V30 1151 H 104.135 -5.73019 0.179491 0
M  V30 1152 H 102.532 -5.92595 0.946076 0
M  V30 1153 H 103.602 -4.6174 1.48068 0
M  V30 1154 N 104.945 -0.338344 -1.53925 0
M  V30 1155 C 105.878 0.563758 -2.21127 0
M  V30 1156 C 106.856 1.10433 -1.19345 0
M  V30 1157 O 108.04 1.16557 -1.48144 0
M  V30 1158 C 105.167 1.77505 -2.88461 0
M  V30 1159 C 104.213 1.3644 -4.04087 0
M  V30 1160 S 105.046 0.388593 -5.34088 0
M  V30 1161 C 106.202 1.60683 -6.04923 0
M  V30 1162 H 106.435 -0.00704546 -2.97299 0
M  V30 1163 H 103.968 -0.122418 -1.53914 0
M  V30 1164 H 105.926 2.46999 -3.27875 0
M  V30 1165 H 104.587 2.31706 -2.12064 0
M  V30 1166 H 103.78 2.26739 -4.50117 0
M  V30 1167 H 103.382 0.748998 -3.66423 0
M  V30 1168 H 105.674 2.54209 -6.28 0
M  V30 1169 H 106.617 1.18842 -6.98056 0
M  V30 1170 H 107.025 1.80052 -5.35015 0
M  V30 1171 N 106.423 1.57458 -0.0668435 0
M  V30 1172 C 107.355 2.09413 0.931601 0
M  V30 1173 C 108.368 1.02522 1.26464 0
M  V30 1174 O 109.557 1.30049 1.22269 0
M  V30 1175 C 106.657 2.53537 2.24882 0
M  V30 1176 C 105.83 3.83944 2.09537 0
M  V30 1177 C 104.889 4.14214 3.2452 0
M  V30 1178 O 103.915 4.83891 2.9973 0
M  V30 1179 N 105.117 3.67367 4.49469 0
M  V30 1180 H 107.882 2.95699 0.488048 0
M  V30 1181 H 105.443 1.61462 0.119009 0
M  V30 1182 H 107.435 2.70853 3.00701 0
M  V30 1183 H 106.005 1.72415 2.60753 0
M  V30 1184 H 105.225 3.76057 1.18215 0
M  V30 1185 H 106.513 4.69312 1.96529 0
M  V30 1186 H 105.911 3.11068 4.72497 0
M  V30 1187 H 104.468 3.89891 5.2233 0
M  V30 1188 N 107.901 -0.206675 1.56239 0
M  V30 1189 C 108.848 -1.25617 1.93621 0
M  V30 1190 C 109.818 -1.45824 0.795274 0
M  V30 1191 O 111.003 -1.59148 1.05245 0
M  V30 1192 C 108.143 -2.59839 2.27107 0
M  V30 1193 C 107.256 -2.47308 3.54207 0
M  V30 1194 C 106.391 -3.74155 3.7707 0
M  V30 1195 C 105.43 -3.56407 4.97635 0
M  V30 1196 N 104.567 -4.75238 5.1681 0
M  V30 1197 H 109.407 -0.930383 2.83104 0
M  V30 1198 H 106.944 -0.448065 1.4011 0
M  V30 1199 H 108.902 -3.38021 2.44535 0
M  V30 1200 H 107.532 -2.90485 1.40778 0
M  V30 1201 H 106.584 -1.60483 3.4489 0
M  V30 1202 H 107.896 -2.30122 4.42544 0
M  V30 1203 H 107.05 -4.60778 3.94675 0
M  V30 1204 H 105.789 -3.94282 2.87042 0
M  V30 1205 H 104.794 -2.68168 4.79964 0
M  V30 1206 H 106.019 -3.37736 5.89161 0
M  V30 1207 H 103.965 -4.95651 4.29728 0
M  V30 1208 H 103.882 -4.60835 5.99306 0
M  V30 1209 H 105.15 -5.63246 5.38864 0
M  V30 1210 N 109.379 -1.50304 -0.473955 0
M  V30 1211 C 110.312 -1.63595 -1.59097 0
M  V30 1212 C 111.29 -0.484142 -1.55225 0
M  V30 1213 O 112.474 -0.703271 -1.7489 0
M  V30 1214 C 109.601 -1.61589 -2.97669 0
M  V30 1215 C 108.647 -2.82295 -3.19705 0
M  V30 1216 S 109.48 -4.43635 -2.99913 0
M  V30 1217 C 110.636 -4.44317 -4.40832 0
M  V30 1218 H 110.869 -2.58082 -1.47583 0
M  V30 1219 H 108.402 -1.39531 -0.661087 0
M  V30 1220 H 110.36 -1.61116 -3.7756 0
M  V30 1221 H 109.021 -0.683421 -3.06575 0
M  V30 1222 H 108.214 -2.77188 -4.20931 0
M  V30 1223 H 107.816 -2.8032 -2.47582 0
M  V30 1224 H 110.108 -4.17703 -5.33414 0
M  V30 1225 H 111.051 -5.45911 -4.50984 0
M  V30 1226 H 111.459 -3.74059 -4.22777 0
M  V30 1227 N 110.857 0.726932 -1.39834 0
M  V30 1228 C 112.106 1.48214 -1.36805 0
M  V30 1229 C 112.419 1.95576 0.0305291 0
M  V30 1230 O 113.625 2.7088 0.183417 0
M  V30 1231 C 112.081 2.67854 -2.40379 0
M  V30 1232 C 111.689 2.27408 -3.85992 0
M  V30 1233 C 113.433 3.45641 -2.46439 0
M  V30 1234 C 111.34 3.43819 -4.81189 0
M  V30 1235 H 110.27 0.556606 -0.508631 0
M  V30 1236 H 112.921 0.792216 -1.65518 0
M  V30 1237 H 111.303 3.3896 -2.04749 0
M  V30 1238 H 112.477 1.63795 -4.30706 0
M  V30 1239 H 110.792 1.62692 -3.83302 0
M  V30 1240 H 113.389 4.32244 -3.14753 0
M  V30 1241 H 113.732 3.88669 -1.49139 0
M  V30 1242 H 114.265 2.8157 -2.81004 0
M  V30 1243 H 111.004 3.05834 -5.79781 0
M  V30 1244 H 110.524 4.06385 -4.41148 0
M  V30 1245 H 112.203 4.10043 -5.00474 0
M  V30 1246 N 112.336 1.25143 0.95797 0
M  V30 1247 C 113.268 1.01023 2.05735 0
M  V30 1248 C 114.281 -0.0236902 1.62783 0
M  V30 1249 O 115.47 0.21448 1.77207 0
M  V30 1250 C 112.57 0.504595 3.35122 0
M  V30 1251 C 111.743 1.6039 4.06932 0
M  V30 1252 C 110.802 1.09922 5.14591 0
M  V30 1253 O 109.828 1.79293 5.40225 0
M  V30 1254 N 111.03 -0.0612545 5.80468 0
M  V30 1255 H 113.795 1.95683 2.26998 0
M  V30 1256 H 111.356 1.16303 1.12629 0
M  V30 1257 H 113.348 0.151516 4.04416 0
M  V30 1258 H 111.918 -0.347989 3.10657 0
M  V30 1259 H 111.138 2.12872 3.31782 0
M  V30 1260 H 112.426 2.34252 4.51667 0
M  V30 1261 H 111.824 -0.640985 5.62057 0
M  V30 1262 H 110.381 -0.355395 6.5083 0
M  V30 1263 N 113.814 -1.1601 1.06675 0
M  V30 1264 C 114.746 -2.20115 0.638921 0
M  V30 1265 C 115.759 -1.59916 -0.305057 0
M  V30 1266 O 116.948 -1.78245 -0.0954446 0
M  V30 1267 C 114.048 -3.38798 -0.0830083 0
M  V30 1268 C 113.221 -4.2855 0.875426 0
M  V30 1269 C 112.28 -5.25849 0.192042 0
M  V30 1270 O 111.306 -5.63102 0.830921 0
M  V30 1271 N 112.508 -5.70648 -1.06493 0
M  V30 1272 H 115.273 -2.57439 1.53444 0
M  V30 1273 H 112.834 -1.31057 0.950557 0
M  V30 1274 H 114.826 -4.00936 -0.550685 0
M  V30 1275 H 113.396 -2.99947 -0.880386 0
M  V30 1276 H 112.616 -3.63617 1.52238 0
M  V30 1277 H 113.904 -4.85393 1.52548 0
M  V30 1278 H 113.302 -5.42482 -1.60405 0
M  V30 1279 H 111.859 -6.34859 -1.47641 0
M  V30 1280 N 115.292 -0.849877 -1.32721 0
M  V30 1281 C 116.541 -0.447175 -1.96681 0
M  V30 1282 C 116.854 1.00135 -1.68025 0
M  V30 1283 O 118.06 1.50926 -2.25685 0
M  V30 1284 C 116.516 -0.7487 -3.52026 0
M  V30 1285 C 116.124 -2.21264 -3.89546 0
M  V30 1286 C 117.868 -0.413487 -4.22481 0
M  V30 1287 C 115.775 -2.45763 -5.37917 0
M  V30 1288 H 114.705 -0.163486 -0.736063 0
M  V30 1289 H 117.356 -1.03999 -1.51183 0
M  V30 1290 H 115.738 -0.0853727 -3.95908 0
M  V30 1291 H 116.912 -2.91736 -3.56689 0
M  V30 1292 H 115.227 -2.5119 -3.32103 0
M  V30 1293 H 117.824 -0.574017 -5.3161 0
M  V30 1294 H 118.167 0.644492 -4.11281 0
M  V30 1295 H 118.7 -1.03251 -3.84167 0
M  V30 1296 H 115.439 -3.50168 -5.54132 0
M  V30 1297 H 114.959 -1.79864 -5.72197 0
M  V30 1298 H 116.638 -2.29471 -6.0494 0
M  V30 1299 N 116.77 1.45427 -0.607355 0
M  V30 1300 C 117.717 2.3053 0.111625 0
M  V30 1301 C 118.687 1.4209 0.860216 0
M  V30 1302 O 119.872 1.71019 0.845998 0
M  V30 1303 C 117.012 3.26992 1.10319 0
M  V30 1304 C 116.125 4.30535 0.355493 0
M  V30 1305 C 115.26 5.14105 1.33676 0
M  V30 1306 C 114.299 6.09376 0.576862 0
M  V30 1307 N 113.436 6.85727 1.5074 0
M  V30 1308 H 118.276 2.91477 -0.620093 0
M  V30 1309 H 115.813 1.43631 -0.317594 0
M  V30 1310 H 117.771 3.81385 1.6912 0
M  V30 1311 H 116.401 2.67799 1.80232 0
M  V30 1312 H 115.453 3.78805 -0.348023 0
M  V30 1313 H 116.765 4.98235 -0.237423 0
M  V30 1314 H 115.919 5.72897 1.99684 0
M  V30 1315 H 114.658 4.46423 1.9636 0
M  V30 1316 H 113.663 5.49715 -0.0968519 0
M  V30 1317 H 114.888 6.79085 -0.0449341 0
M  V30 1318 H 112.834 6.20735 2.12189 0
M  V30 1319 H 112.751 7.49778 0.967913 0
M  V30 1320 H 114.019 7.4906 2.15706 0
M  V30 1321 N 118.248 0.346503 1.53744 0
M  V30 1322 C 119.478 -0.250047 2.05081 0
M  V30 1323 C 119.886 -1.44529 1.22098 0
M  V30 1324 O 119.229 -1.81992 0.249917 0
M  V30 1325 C 119.291 -0.725934 3.52094 0
M  V30 1326 C 118.955 0.350053 4.55657 0
M  V30 1327 C 119.952 1.19372 5.0601 0
M  V30 1328 C 117.637 0.504827 4.99757 0
M  V30 1329 C 119.631 2.17768 5.99046 0
M  V30 1330 C 117.318 1.49218 5.92602 0
M  V30 1331 C 118.316 2.32706 6.42135 0
M  V30 1332 O 118.004 3.2976 7.33153 0
M  V30 1333 H 117.736 -0.0515469 0.674032 0
M  V30 1334 H 120.29 0.497559 1.99282 0
M  V30 1335 H 118.52 -1.52483 3.55367 0
M  V30 1336 H 120.209 -1.24336 3.86388 0
M  V30 1337 H 120.975 1.08525 4.72702 0
M  V30 1338 H 116.854 -0.135178 4.60802 0
M  V30 1339 H 120.398 2.82971 6.37631 0
M  V30 1340 H 116.295 1.6012 6.25325 0
M  V30 1341 H 117.063 3.25265 7.51096 0
M  V30 1342 N 119.726 -1.57421 0.075193 0
M  V30 1343 C 120.674 -2.14124 -0.908508 0
M  V30 1344 C 121.668 -1.07898 -1.30592 0
M  V30 1345 O 122.874 -1.26273 -1.28277 0
M  V30 1346 H 119.249 -0.684707 -0.310935 0
M  V30 1347 H 121.22 -2.95634 -0.405374 0
M  V30 1348 C 119.969 -2.72044 -2.16535 0
M  V30 1349 H 119.292 -3.53456 -1.86839 0
M  V30 1350 H 120.732 -3.15311 -2.83469 0
M  V30 1351 C 119.191 -1.66968 -2.92615 0
M  V30 1352 O 119.721 -1.0967 -3.86439 0
M  V30 1353 N 117.927 -1.37923 -2.55784 0
M  V30 1354 H 117.474 -1.84706 -1.79559 0
M  V30 1355 H 117.432 -0.67852 -3.06991 0
M  V30 1356 N 121.204 0.198386 -1.56346 0
M  V30 1357 C 122.45 0.920648 -1.80698 0
M  V30 1358 C 122.783 1.83045 -0.648697 0
M  V30 1359 O 122.058 1.91308 0.350925 0
M  V30 1360 C 122.341 1.73971 -3.15287 0
M  V30 1361 C 122.194 0.85485 -4.41602 0
M  V30 1362 C 123.513 2.71296 -3.46535 0
M  V30 1363 H 120.632 0.333261 -0.657348 0
M  V30 1364 H 123.274 0.188198 -1.89066 0
M  V30 1365 H 121.424 2.36416 -3.08285 0
M  V30 1366 H 123.096 0.245362 -4.60647 0
M  V30 1367 H 121.339 0.161398 -4.335 0
M  V30 1368 H 122.01 1.46286 -5.32264 0
M  V30 1369 H 124.486 2.18983 -3.53816 0
M  V30 1370 H 123.362 3.2569 -4.41834 0
M  V30 1371 H 123.623 3.5018 -2.69864 0
M  V30 1372 N 122.682 1.50554 0.465978 0
M  V30 1373 C 123.629 1.6979 1.56333 0
M  V30 1374 C 124.599 0.539239 1.57103 0
M  V30 1375 O 125.784 0.770401 1.74555 0
M  V30 1376 C 122.924 1.80273 2.94271 0
M  V30 1377 C 122.037 3.07674 3.0325 0
M  V30 1378 C 121.172 3.08922 4.32135 0
M  V30 1379 C 120.211 4.30755 4.34875 0
M  V30 1380 N 119.348 4.29714 5.55239 0
M  V30 1381 H 124.188 2.63472 1.39235 0
M  V30 1382 H 121.725 1.30602 0.676873 0
M  V30 1383 H 123.683 1.84332 3.74269 0
M  V30 1384 H 122.313 0.900258 3.09992 0
M  V30 1385 H 121.365 3.13062 2.16094 0
M  V30 1386 H 122.677 3.97642 3.01135 0
M  V30 1387 H 121.831 3.11738 5.20485 0
M  V30 1388 H 120.57 2.16792 4.36866 0
M  V30 1389 H 119.575 4.28146 3.44922 0
M  V30 1390 H 120.8 5.24117 4.31831 0
M  V30 1391 H 118.746 3.4044 5.60746 0
M  V30 1392 H 118.663 5.13456 5.54886 0
M  V30 1393 H 119.931 4.36683 6.457 0
M  V30 1394 N 124.16 -0.719506 1.40217 0
M  V30 1395 C 125.385 -1.51371 1.4178 0
M  V30 1396 C 125.81 -1.88091 0.0182355 0
M  V30 1397 O 125.168 -1.52997 -0.972707 0
M  V30 1398 C 125.216 -2.768 2.31115 0
M  V30 1399 O 124.32 -3.73349 1.7517 0
M  V30 1400 H 123.661 -0.456529 0.482159 0
M  V30 1401 H 126.191 -0.88644 1.844 0
M  V30 1402 H 126.201 -3.25371 2.46167 0
M  V30 1403 H 124.876 -2.49407 3.3282 0
M  V30 1404 H 123.453 -3.32179 1.69444 0
M  V30 1405 N 125.638 -1.25649 -0.95132 0
M  V30 1406 C 127.054 -1.02542 -1.223 0
M  V30 1407 C 127.254 0.255715 -1.99871 0
M  V30 1408 O 126.31 0.967558 -2.33226 0
M  V30 1409 C 127.623 -2.25065 -1.99415 0
M  V30 1410 C 129.171 -2.29861 -2.12446 0
M  V30 1411 C 129.646 -3.52048 -2.92961 0
M  V30 1412 N 131.137 -3.52465 -3.00538 0
M  V30 1413 C 131.872 -4.43672 -3.63239 0
M  V30 1414 N 131.368 -5.45157 -4.27523 0
M  V30 1415 N 133.161 -4.31346 -3.60412 0
M  V30 1416 H 125.312 -2.07951 -0.432471 0
M  V30 1417 H 127.575 -0.91339 -0.253816 0
M  V30 1418 H 127.281 -3.18194 -1.49817 0
M  V30 1419 H 127.155 -2.28502 -3.00111 0
M  V30 1420 H 129.542 -1.37252 -2.61239 0
M  V30 1421 H 129.623 -2.3044 -1.11044 0
M  V30 1422 H 129.267 -4.44981 -2.44856 0
M  V30 1423 H 129.197 -3.48715 -3.94596 0
M  V30 1424 H 131.688 -2.79056 -2.54826 0
M  V30 1425 H 132.001 -6.10958 -4.73234 0
M  V30 1426 H 130.346 -5.49025 -4.26141 0
M  V30 1427 H 133.537 -3.51288 -3.09377 0
M  V30 1428 H 133.71 -5.02624 -4.0899 0
M  V30 1429 N 127.117 1.15442 -1.07289 0
M  V30 1430 C 128.047 2.22312 -0.714107 0
M  V30 1431 C 129.028 1.67467 0.298155 0
M  V30 1432 O 130.213 1.93445 0.171048 0
M  V30 1433 C 127.343 3.47124 -0.110448 0
M  V30 1434 C 126.297 4.14926 -1.04979 0
M  V30 1435 C 125.623 5.33807 -0.308924 0
M  V30 1436 C 126.923 4.64762 -2.38314 0
M  V30 1437 H 128.617 2.5258 -1.6076 0
M  V30 1438 H 126.163 1.21404 -0.77441 0
M  V30 1439 H 128.116 4.21124 0.152482 0
M  V30 1440 H 126.84 3.16187 0.81812 0
M  V30 1441 H 125.499 3.42866 -1.29764 0
M  V30 1442 H 125.147 4.99126 0.623084 0
M  V30 1443 H 124.847 5.80113 -0.935036 0
M  V30 1444 H 126.371 6.10576 -0.0537771 0
M  V30 1445 H 127.785 5.30292 -2.1786 0
M  V30 1446 H 126.182 5.21728 -2.96514 0
M  V30 1447 H 127.252 3.80434 -3.00663 0
M  V30 1448 N 128.595 0.856903 1.32268 0
M  V30 1449 C 129.82 0.474569 2.01897 0
M  V30 1450 C 130.245 -0.921766 1.63967 0
M  V30 1451 O 129.603 -1.60589 0.84148 0
M  V30 1452 C 129.651 0.623799 3.55164 0
M  V30 1453 O 128.755 -0.342459 4.10976 0
M  V30 1454 H 128.096 0.190422 0.63611 0
M  V30 1455 H 130.626 1.15672 1.68764 0
M  V30 1456 H 130.636 0.512169 4.04773 0
M  V30 1457 H 129.311 1.64202 3.82113 0
M  V30 1458 H 127.888 -0.18688 3.72431 0
M  V30 1459 N 130.073 -1.45103 0.615059 0
M  V30 1460 C 131.35 -1.95549 0.0448276 0
M  V30 1461 C 131.73 -1.55737 -1.4251 0
M  V30 1462 O 131.078 -0.823556 -2.13143 0
M  V30 1463 C 131.288 -3.48098 0.250785 0
M  V30 1464 C 132.636 -4.24384 0.135509 0
M  V30 1465 O 133.66 -3.55738 0.181299 0
M  V30 1466 O 132.519 -5.46493 0.0268878 0
M  V30 1467 H 129.613 -0.8264 -0.0314845 0
M  V30 1468 H 132.159 -1.55232 0.685642 0
M  V30 1469 H 130.931 -3.7007 1.27139 0
M  V30 1470 H 130.554 -3.95323 -0.424937 0
M  V30 1471 N 131.551 -0.354651 -1.53558 0
M  V30 1472 C 132.797 0.238797 -2.01389 0
M  V30 1473 C 133.13 1.49309 -1.2418 0
M  V30 1474 O 132.405 1.91638 -0.332457 0
M  V30 1475 C 132.688 0.541771 -3.56001 0
M  V30 1476 C 132.541 -0.725388 -4.43912 0
M  V30 1477 C 133.86 1.34685 -4.18984 0
M  V30 1478 H 130.979 0.0853177 -0.732045 0
M  V30 1479 H 133.621 -0.477384 -1.83905 0
M  V30 1480 H 131.771 1.15189 -3.71031 0
M  V30 1481 H 133.443 -1.36313 -4.407 0
M  V30 1482 H 131.686 -1.34801 -4.12324 0
M  V30 1483 H 132.357 -0.468505 -5.50008 0
M  V30 1484 H 134.833 0.830837 -4.07721 0
M  V30 1485 H 133.709 1.52759 -5.27215 0
M  V30 1486 H 133.97 2.35221 -3.74331 0
M  V30 1487 N 133.029 1.57378 -0.0835403 0
M  V30 1488 C 134.254 1.98682 0.594987 0
M  V30 1489 C 134.679 0.961969 1.61641 0
M  V30 1490 O 134.037 -0.0709989 1.81161 0
M  V30 1491 C 134.085 3.38988 1.2296 0
M  V30 1492 O 133.189 3.39208 2.34546 0
M  V30 1493 H 132.53 0.646368 0.152002 0
M  V30 1494 H 135.06 2.03961 -0.161533 0
M  V30 1495 H 135.07 3.76431 1.57366 0
M  V30 1496 H 133.745 4.13107 0.481228 0
M  V30 1497 H 132.322 3.13548 2.01846 0
M  V30 1498 N 134.507 -0.190092 1.56449 0
M  V30 1499 C 135.732 -0.929864 1.85387 0
M  V30 1500 C 136.157 -1.7585 0.667704 0
M  V30 1501 O 135.515 -1.77198 -0.383459 0
M  V30 1502 C 135.563 -1.79773 3.12593 0
M  V30 1503 O 134.667 -2.89713 2.93496 0
M  V30 1504 H 134.008 -0.261574 0.610307 0
M  V30 1505 H 136.538 -0.193896 2.03679 0
M  V30 1506 H 136.548 -2.20139 3.43515 0
M  V30 1507 H 135.223 -1.18892 3.98544 0
M  V30 1508 H 133.8 -2.53065 2.73884 0
M  V30 1509 N 135.985 -1.50799 -0.457987 0
M  V30 1510 C 137.233 -1.62121 -1.2067 0
M  V30 1511 C 137.554 -0.329793 -1.92191 0
M  V30 1512 O 136.824 0.653409 -1.84682 0
M  V30 1513 H 135.404 -0.597441 -0.448411 0
M  V30 1514 H 138.066 -1.87637 -0.527096 0
M  V30 1515 H 137.162 -2.43882 -1.94751 0
M  V30 1516 N 137.463 0.71206 -1.40597 0
M  V30 1517 C 138.373 1.8562 -1.43466 0
M  V30 1518 C 139.389 1.70902 -0.326902 0
M  V30 1519 O 140.565 1.93105 -0.572043 0
M  V30 1520 C 137.63 3.21451 -1.29884 0
M  V30 1521 C 136.691 3.48398 -2.50833 0
M  V30 1522 C 135.924 4.77749 -2.3789 0
M  V30 1523 O 136.147 5.53089 -1.39459 0
M  V30 1524 O 135.081 5.05111 -3.27333 0
M  V30 1525 H 138.907 1.86155 -2.39958 0
M  V30 1526 H 136.492 0.86295 -1.21957 0
M  V30 1527 H 138.374 4.02579 -1.24531 0
M  V30 1528 H 137.049 3.21636 -0.364997 0
M  V30 1529 H 135.956 2.67265 -2.61763 0
M  V30 1530 H 137.289 3.53014 -3.4299 0
M  V30 1531 N 138.941 1.26152 0.944643 0
M  V30 1532 C 139.871 1.09902 2.06019 0
M  V30 1533 C 140.852 0.00519538 1.70099 0
M  V30 1534 O 142.037 0.176583 1.93396 0
M  V30 1535 C 139.167 0.727562 3.39594 0
M  V30 1536 C 138.121 1.77274 3.89561 0
M  V30 1537 C 137.447 1.25569 5.19747 0
M  V30 1538 C 138.747 3.17357 4.14827 0
M  V30 1539 H 140.441 2.03217 2.19871 0
M  V30 1540 H 137.987 0.978452 1.05652 0
M  V30 1541 H 139.94 0.600777 4.17095 0
M  V30 1542 H 138.664 -0.241287 3.25707 0
M  V30 1543 H 137.323 1.88814 3.14237 0
M  V30 1544 H 136.971 0.276783 5.02238 0
M  V30 1545 H 136.671 1.95433 5.54148 0
M  V30 1546 H 138.195 1.1415 5.99835 0
M  V30 1547 H 139.609 3.08914 4.82954 0
M  V30 1548 H 138.006 3.84781 4.60504 0
M  V30 1549 H 139.076 3.63673 3.20734 0
M  V30 1550 N 140.419 -1.14872 1.07899 0
M  V30 1551 C 141.382 -2.17986 0.708161 0
M  V30 1552 C 142.382 -1.58775 -0.25442 0
M  V30 1553 O 143.572 -1.74166 -0.034645 0
M  V30 1554 C 140.704 -3.40871 0.0446929 0
M  V30 1555 H 141.897 -2.52306 1.62116 0
M  V30 1556 H 139.45 -1.2943 0.876218 0
M  V30 1557 H 140.185 -3.12124 -0.880281 0
M  V30 1558 H 139.97 -3.8511 0.737091 0
M  V30 1559 H 141.46 -4.17121 -0.19991 0
M  V30 1560 N 141.898 -0.863906 -1.31812 0
M  V30 1561 C 142.828 -0.330843 -2.31144 0
M  V30 1562 C 143.809 0.575005 -1.60087 0
M  V30 1563 O 144.994 0.493304 -1.8783 0
M  V30 1564 C 142.124 0.47374 -3.44054 0
M  V30 1565 C 141.078 -0.338481 -4.26659 0
M  V30 1566 C 140.404 0.591412 -5.31419 0
M  V30 1567 C 141.704 -1.56926 -4.98168 0
M  V30 1568 H 143.398 -1.16086 -2.75979 0
M  V30 1569 H 140.944 -0.559657 -1.32679 0
M  V30 1570 H 142.897 0.857143 -4.12591 0
M  V30 1571 H 141.621 1.33721 -2.9797 0
M  V30 1572 H 140.28 -0.703754 -3.59782 0
M  V30 1573 H 139.928 1.45199 -4.81587 0
M  V30 1574 H 139.628 0.0519022 -5.87577 0
M  V30 1575 H 141.152 0.97179 -6.02817 0
M  V30 1576 H 142.566 -1.25764 -5.59336 0
M  V30 1577 H 140.963 -2.04739 -5.64094 0
M  V30 1578 H 142.033 -2.32544 -4.25501 0
M  V30 1579 N 143.376 1.44774 -0.622745 0
M  V30 1580 C 144.625 2.01334 -0.121397 0
M  V30 1581 C 144.938 1.49505 1.26125 0
M  V30 1582 O 146.144 1.98139 1.85616 0
M  V30 1583 C 144.6 3.59516 -0.166298 0
M  V30 1584 C 144.208 4.20342 -1.54974 0
M  V30 1585 C 145.952 4.23582 0.279021 0
M  V30 1586 C 143.859 5.70721 -1.55021 0
M  V30 1587 H 142.789 0.752851 -0.0416172 0
M  V30 1588 H 145.44 1.66083 -0.780309 0
M  V30 1589 H 143.822 3.92027 0.559557 0
M  V30 1590 H 144.996 3.99381 -2.29851 0
M  V30 1591 H 143.311 3.68529 -1.93843 0
M  V30 1592 H 145.908 5.33868 0.298083 0
M  V30 1593 H 146.251 3.95327 1.30471 0
M  V30 1594 H 146.784 3.95843 -0.394063 0
M  V30 1595 H 143.523 6.03698 -2.55399 0
M  V30 1596 H 143.043 5.93829 -0.844245 0
M  V30 1597 H 144.722 6.34203 -1.28047 0
M  V30 1598 N 144.854 0.36279 1.53368 0
M  V30 1599 C 146.103 -0.22888 2.00397 0
M  V30 1600 C 146.416 -1.50096 1.25421 0
M  V30 1601 O 147.622 -2.17106 1.63025 0
M  V30 1602 C 146.078 -0.458417 3.56969 0
M  V30 1603 C 145.686 0.798877 4.4082 0
M  V30 1604 C 147.43 -1.00789 4.12361 0
M  V30 1605 C 145.337 0.539078 5.88938 0
M  V30 1606 H 144.267 -0.089305 0.748693 0
M  V30 1607 H 146.918 0.481099 1.77081 0
M  V30 1608 H 145.3 -1.22959 3.76427 0
M  V30 1609 H 146.474 1.57262 4.33134 0
M  V30 1610 H 144.789 1.27137 3.96516 0
M  V30 1611 H 147.386 -1.21754 5.20653 0
M  V30 1612 H 147.729 -1.9692 3.66781 0
M  V30 1613 H 148.262 -0.296961 3.9669 0
M  V30 1614 H 145.001 1.47064 6.3879 0
M  V30 1615 H 144.521 -0.196222 5.99479 0
M  V30 1616 H 146.2 0.163542 6.46793 0
M  V30 1617 N 146.332 -1.57332 0.0918853 0
M  V30 1618 C 147.262 -2.16872 -0.865371 0
M  V30 1619 C 148.243 -1.10118 -1.29646 0
M  V30 1620 O 149.428 -1.38242 -1.36392 0
M  V30 1621 C 146.558 -2.74649 -2.12569 0
M  V30 1622 C 145.512 -3.86747 -1.83333 0
M  V30 1623 C 144.838 -4.31212 -3.16166 0
M  V30 1624 C 146.138 -5.10089 -1.1228 0
M  V30 1625 H 147.832 -2.97114 -0.369307 0
M  V30 1626 H 145.378 -1.42918 -0.176194 0
M  V30 1627 H 147.331 -3.14952 -2.7997 0
M  V30 1628 H 146.055 -1.91657 -2.64452 0
M  V30 1629 H 144.714 -3.46978 -1.18331 0
M  V30 1630 H 144.362 -3.45115 -3.6593 0
M  V30 1631 H 144.062 -5.06788 -2.97388 0
M  V30 1632 H 145.586 -4.74146 -3.84731 0
M  V30 1633 H 147 -5.47582 -1.69785 0
M  V30 1634 H 145.397 -5.91073 -1.03693 0
M  V30 1635 H 146.467 -4.84786 -0.105041 0
M  V30 1636 N 147.81 0.181792 -1.56548 0
M  V30 1637 C 148.773 1.20894 -1.94724 0
M  V30 1638 C 149.773 1.37738 -0.829747 0
M  V30 1639 O 150.963 1.35323 -1.09697 0
M  V30 1640 C 148.095 2.57593 -2.23291 0
M  V30 1641 H 149.288 0.882275 -2.86629 0
M  V30 1642 H 146.841 0.423838 -1.50444 0
M  V30 1643 H 147.576 2.95291 -1.34067 0
M  V30 1644 H 147.361 2.46735 -3.04736 0
M  V30 1645 H 148.851 3.31637 -2.53785 0
M  V30 1646 N 149.288 1.51039 0.449983 0
M  V30 1647 C 150.218 1.74379 1.55288 0
M  V30 1648 C 151.199 0.593236 1.5942 0
M  V30 1649 O 152.384 0.834625 1.7535 0
M  V30 1650 C 149.514 1.85728 2.93466 0
M  V30 1651 C 148.468 3.01078 3.04197 0
M  V30 1652 C 147.794 2.97595 4.44231 0
M  V30 1653 C 149.094 4.41254 2.7945 0
M  V30 1654 H 150.788 2.66725 1.36008 0
M  V30 1655 H 148.334 1.2835 0.652864 0
M  V30 1656 H 150.287 2.0064 3.70569 0
M  V30 1657 H 149.011 0.900207 3.13949 0
M  V30 1658 H 147.67 2.85851 2.29531 0
M  V30 1659 H 147.318 1.99691 4.61663 0
M  V30 1660 H 147.018 3.75046 4.52343 0
M  V30 1661 H 148.542 3.14583 5.23326 0
M  V30 1662 H 149.956 4.56897 3.46292 0
M  V30 1663 H 148.353 5.20315 2.98985 0
M  V30 1664 H 149.423 4.52164 1.75144 0
M  V30 1665 N 150.766 -0.704594 1.40972 0
M  V30 1666 C 152.014 -1.46169 1.39568 0
M  V30 1667 C 152.335 -1.95 0.00253745 0
M  V30 1668 O 151.605 -1.71095 -0.954114 0
M  V30 1669 H 150.185 -0.542326 0.513704 0
M  V30 1670 H 152.847 -0.834553 1.76128 0
M  V30 1671 H 151.943 -2.32922 2.07735 0
M  V30 1672 N 152.244 -1.26651 -0.937939 0
M  V30 1673 C 153.49 -1.12553 -1.687 0
M  V30 1674 C 153.823 0.329782 -1.91379 0
M  V30 1675 O 153.098 1.24202 -1.4968 0
M  V30 1676 C 153.381 -1.89862 -3.05981 0
M  V30 1677 C 153.234 -3.43318 -2.90607 0
M  V30 1678 C 154.553 -1.69499 -4.0615 0
M  V30 1679 H 151.672 -0.410257 -0.612257 0
M  V30 1680 H 154.314 -1.55685 -1.08913 0
M  V30 1681 H 152.464 -1.53204 -3.57017 0
M  V30 1682 H 154.136 -3.89747 -2.46769 0
M  V30 1683 H 152.379 -3.70179 -2.26164 0
M  V30 1684 H 153.05 -3.92642 -3.8799 0
M  V30 1685 H 155.526 -2.01442 -3.64088 0
M  V30 1686 H 154.402 -2.26002 -5.00214 0
M  V30 1687 H 154.663 -0.640365 -4.37438 0
M  V30 1688 N 153.722 1.14298 -1.08507 0
M  V30 1689 C 154.962 1.87016 -0.824894 0
M  V30 1690 C 155.326 1.81099 0.637735 0
M  V30 1691 O 156.527 2.48963 1.01345 0
M  V30 1692 C 154.798 3.31584 -1.33368 0
M  V30 1693 S 156.357 4.21903 -1.20596 0
M  V30 1694 H 153.175 0.645259 -0.2986 0
M  V30 1695 H 155.777 1.37822 -1.38656 0
M  V30 1696 H 154.481 3.33439 -2.39262 0
M  V30 1697 H 154.012 3.85836 -0.767734 0
M  V30 1698 H 156.027 4.95971 -0.150891 0
M  V30 1699 N 155.201 0.870884 1.31352 0
M  V30 1700 C 156.617 0.562932 1.49343 0
M  V30 1701 C 156.817 -0.902725 1.80148 0
M  V30 1702 O 155.873 -1.68484 1.88067 0
M  V30 1703 C 157.186 1.46393 2.62659 0
M  V30 1704 C 158.734 1.46607 2.76542 0
M  V30 1705 C 159.209 2.35266 3.92955 0
M  V30 1706 N 160.7 2.33151 4.00243 0
M  V30 1707 C 161.435 2.98471 4.89594 0
M  V30 1708 N 160.931 3.72964 5.8384 0
M  V30 1709 N 162.724 2.87775 4.82848 0
M  V30 1710 H 154.875 1.81923 1.09626 0
M  V30 1711 H 157.138 0.777934 0.541777 0
M  V30 1712 H 156.844 2.50689 2.46674 0
M  V30 1713 H 156.718 1.16314 3.58819 0
M  V30 1714 H 159.105 0.43069 2.9194 0
M  V30 1715 H 159.186 1.8071 1.81046 0
M  V30 1716 H 158.83 3.38881 3.78315 0
M  V30 1717 H 158.76 1.98487 4.87761 0
M  V30 1718 H 161.251 1.79006 3.32814 0
M  V30 1719 H 161.564 4.19932 6.4875 0
M  V30 1720 H 159.909 3.77073 5.83816 0
M  V30 1721 H 163.1 2.29116 4.08195 0
M  V30 1722 H 163.273 3.38961 5.52277 0
M  V30 1723 N 156.679 -1.44442 0.630414 0
M  V30 1724 C 157.627 -2.32437 -0.0871428 0
M  V30 1725 C 158.621 -1.47304 -0.836525 0
M  V30 1726 O 159.827 -1.63653 -0.749506 0
M  V30 1727 H 156.202 -0.750533 -0.0469495 0
M  V30 1728 H 158.173 -2.90709 0.673096 0
M  V30 1729 C 156.922 -3.31288 -1.05563 0
M  V30 1730 H 156.245 -3.96805 -0.488426 0
M  V30 1731 H 157.685 -3.9554 -1.52721 0
M  V30 1732 C 156.144 -2.6016 -2.14052 0
M  V30 1733 O 156.674 -2.39997 -3.22124 0
M  V30 1734 N 154.88 -2.19911 -1.89967 0
M  V30 1735 H 154.427 -2.36509 -1.02085 0
M  V30 1736 H 154.385 -1.72646 -2.62756 0
M  V30 1737 N 158.157 -0.370918 -1.53173 0
M  V30 1738 C 159.12 0.460778 -2.24521 0
M  V30 1739 C 160.12 1.00536 -1.25496 0
M  V30 1740 O 161.31 0.890266 -1.49733 0
M  V30 1741 C 158.442 1.64457 -2.98608 0
M  V30 1742 H 159.635 -0.163613 -2.99453 0
M  V30 1743 H 157.188 -0.122699 -1.55818 0
M  V30 1744 H 157.923 2.30691 -2.2793 0
M  V30 1745 H 157.708 1.26099 -3.7127 0
M  V30 1746 H 159.198 2.23384 -3.5283 0
M  V30 1747 N 159.635 1.57281 -0.100228 0
M  V30 1748 C 160.545 2.17833 0.870965 0
M  V30 1749 C 161.561 1.14921 1.30649 0
M  V30 1750 O 162.737 1.47313 1.37335 0
M  V30 1751 C 159.802 2.75085 2.1102 0
M  V30 1752 C 158.863 3.9297 1.72838 0
M  V30 1753 C 158.096 4.47482 2.90854 0
M  V30 1754 O 158.319 4.00922 4.05731 0
M  V30 1755 O 157.253 5.38433 2.69023 0
M  V30 1756 H 161.079 3.0124 0.38575 0
M  V30 1757 H 158.664 1.48881 0.124397 0
M  V30 1758 H 160.546 3.11656 2.83634 0
M  V30 1759 H 159.221 1.94721 2.58584 0
M  V30 1760 H 158.128 3.61201 0.973883 0
M  V30 1761 H 159.461 4.74713 1.30033 0
M  V30 1762 N 161.113 -0.173488 1.56642 0
M  V30 1763 C 162.023 -1.23482 1.99473 0
M  V30 1764 C 163.039 -1.48567 0.905752 0
M  V30 1765 O 164.215 -1.60758 1.21321 0
M  V30 1766 C 161.28 -2.55444 2.34413 0
M  V30 1767 C 160.341 -2.38241 3.57127 0
M  V30 1768 C 159.574 -3.63909 3.90392 0
M  V30 1769 O 159.797 -4.68996 3.24653 0
M  V30 1770 O 158.731 -3.58149 4.83749 0
M  V30 1771 H 162.557 -0.901279 2.90018 0
M  V30 1772 H 160.142 -0.380185 1.44482 0
M  V30 1773 H 162.024 -3.33292 2.57865 0
M  V30 1774 H 160.699 -2.88382 1.4703 0
M  V30 1775 H 159.606 -1.58431 3.38896 0
M  V30 1776 H 160.939 -2.10228 4.45045 0
M  V30 1777 N 162.591 -1.51276 -0.441967 0
M  V30 1778 C 163.539 -1.72823 -1.55676 0
M  V30 1779 C 164.533 -0.59445 -1.58627 0
M  V30 1780 O 165.739 -0.775715 -1.62427 0
M  V30 1781 H 162.114 -0.545983 -0.517113 0
M  V30 1782 H 164.085 -2.6628 -1.34675 0
M  V30 1783 C 162.834 -1.86619 -2.93375 0
M  V30 1784 H 162.157 -2.73264 -2.91834 0
M  V30 1785 H 163.597 -2.05709 -3.70756 0
M  V30 1786 C 162.056 -0.624842 -3.31055 0
M  V30 1787 O 162.586 0.222636 -4.01083 0
M  V30 1788 N 160.792 -0.470288 -2.86769 0
M  V30 1789 H 160.339 -1.161 -2.29953 0
M  V30 1790 H 160.297 0.359051 -3.12343 0
M  V30 1791 N 164.069 0.697108 -1.41344 0
M  V30 1792 C 164.999 1.82353 -1.45841 0
M  V30 1793 C 165.98 1.67115 -0.317247 0
M  V30 1794 O 167.165 1.86871 -0.528474 0
M  V30 1795 C 164.295 3.20476 -1.33838 0
M  V30 1796 C 163.249 3.50415 -2.4575 0
M  V30 1797 C 162.575 4.87878 -2.18813 0
M  V30 1798 C 163.875 3.49546 -3.88091 0
M  V30 1799 H 165.569 1.78846 -2.40113 0
M  V30 1800 H 163.115 0.859028 -1.15571 0
M  V30 1801 H 165.068 3.98988 -1.35596 0
M  V30 1802 H 163.792 3.24604 -0.360498 0
M  V30 1803 H 162.451 2.74253 -2.43271 0
M  V30 1804 H 162.099 4.8863 -1.19371 0
M  V30 1805 H 161.799 5.08875 -2.93803 0
M  V30 1806 H 163.323 5.68702 -2.22284 0
M  V30 1807 H 164.737 4.18066 -3.92293 0
M  V30 1808 H 163.134 3.82075 -4.62751 0
M  V30 1809 H 164.204 2.48552 -4.16353 0
M  V30 1810 N 165.547 1.27147 0.931209 0
M  V30 1811 C 166.796 1.12664 1.67302 0
M  V30 1812 C 167.109 -0.327718 1.92835 0
M  V30 1813 O 168.315 -0.593392 2.64936 0
M  V30 1814 C 166.771 1.9683 3.01307 0
M  V30 1815 C 166.379 3.46901 2.83485 0
M  V30 1816 C 168.123 1.90985 3.79111 0
M  V30 1817 C 166.03 4.23279 4.13024 0
M  V30 1818 H 164.96 0.41803 0.627509 0
M  V30 1819 H 167.611 1.51539 1.03481 0
M  V30 1820 H 165.993 1.50797 3.66164 0
M  V30 1821 H 167.167 4.00773 2.27415 0
M  V30 1822 H 165.482 3.54088 2.19113 0
M  V30 1823 H 168.079 2.45328 4.75098 0
M  V30 1824 H 168.422 0.882718 4.06834 0
M  V30 1825 H 168.955 2.34895 3.21044 0
M  V30 1826 H 165.694 5.26503 3.90481 0
M  V30 1827 H 165.214 3.74186 4.6877 0
M  V30 1828 H 166.893 4.32265 4.81411 0
M  V30 1829 N 167.025 -1.13721 1.09112 0
M  V30 1830 C 168.255 -1.88499 0.845671 0
M  V30 1831 C 168.663 -1.79218 -0.606432 0
M  V30 1832 O 168.006 -1.1544 -1.42896 0
M  V30 1833 C 168.068 -3.38954 1.19793 0
M  V30 1834 C 167.732 -3.72018 2.65428 0
M  V30 1835 C 168.729 -3.7153 3.63677 0
M  V30 1836 C 166.414 -4.01775 3.01467 0
M  V30 1837 C 168.408 -4.00336 4.95994 0
M  V30 1838 C 166.095 -4.30243 4.33975 0
M  V30 1839 C 167.093 -4.29508 5.31048 0
M  V30 1840 O 166.781 -4.5728 6.61173 0
M  V30 1841 H 166.513 -0.603702 0.304171 0
M  V30 1842 H 169.067 -1.44903 1.45576 0
M  V30 1843 H 167.297 -3.83039 0.530871 0
M  V30 1844 H 168.986 -3.95052 0.932146 0
M  V30 1845 H 169.752 -3.4862 3.37179 0
M  V30 1846 H 165.631 -4.01496 2.26544 0
M  V30 1847 H 169.175 -3.99678 5.71755 0
M  V30 1848 H 165.072 -4.52625 4.60219 0
M  V30 1849 H 165.84 -4.74964 6.66597 0
M  V30 1850 N 168.503 -0.877838 -1.30888 0
M  V30 1851 C 169.78 -0.413052 -1.91189 0
M  V30 1852 C 170.16 1.1056 -1.79832 0
M  V30 1853 O 169.508 1.93771 -1.21099 0
M  V30 1854 C 169.718 -0.903191 -3.3711 0
M  V30 1855 C 171.066 -0.93395 -4.14201 0
M  V30 1856 O 172.09 -0.849373 -3.45925 0
M  V30 1857 O 170.949 -1.05772 -5.36167 0
M  V30 1858 H 168.043 -0.125035 -0.817493 0
M  V30 1859 H 170.589 -0.966269 -1.39504 0
M  V30 1860 H 169.361 -1.94692 -3.39427 0
M  V30 1861 H 168.984 -0.328732 -3.96239 0
M  V30 1862 N 169.982 1.44106 -0.638065 0
M  V30 1863 C 171.212 2.06037 -0.152394 0
M  V30 1864 C 171.62 1.47808 1.18108 0
M  V30 1865 O 170.963 0.598092 1.73691 0
M  V30 1866 C 171.025 3.59488 0.0293714 0
M  V30 1867 C 170.689 4.4022 -1.22702 0
M  V30 1868 C 171.686 4.73256 -2.15232 0
M  V30 1869 C 169.371 4.8048 -1.46437 0
M  V30 1870 C 171.365 5.45444 -3.29802 0
M  V30 1871 C 169.052 5.52417 -2.61303 0
M  V30 1872 C 170.05 5.84819 -3.52811 0
M  V30 1873 O 169.738 6.55289 -4.65673 0
M  V30 1874 H 169.47 0.671233 -0.0801401 0
M  V30 1875 H 172.024 1.85851 -0.874563 0
M  V30 1876 H 170.254 3.78191 0.806758 0
M  V30 1877 H 171.943 4.03164 0.470475 0
M  V30 1878 H 172.709 4.42684 -1.98131 0
M  V30 1879 H 168.588 4.54676 -0.760977 0
M  V30 1880 H 172.132 5.70653 -4.01249 0
M  V30 1881 H 168.029 5.82404 -2.78344 0
M  V30 1882 H 168.797 6.73762 -4.64744 0
M  V30 1883 N 171.46 0.379036 1.52974 0
M  V30 1884 C 172.41 -0.477772 2.22938 0
M  V30 1885 C 173.394 -1.03792 1.22948 0
M  V30 1886 O 174.586 -0.965725 1.48333 0
M  V30 1887 C 171.715 -1.60994 3.03209 0
M  V30 1888 C 170.801 -1.06203 4.10587 0
M  V30 1889 N 171.192 -0.238214 5.05239 0
M  V30 1890 C 169.49 -1.33554 4.25534 0
M  V30 1891 C 170.191 0.0633235 5.81666 0
M  V30 1892 N 169.167 -0.537901 5.40932 0
M  V30 1893 H 172.969 0.158295 2.93473 0
M  V30 1894 H 170.483 0.187778 1.61311 0
M  V30 1895 H 172.48 -2.23607 3.5186 0
M  V30 1896 H 171.14 -2.24893 2.34207 0
M  V30 1897 H 172.151 0.123695 5.17752 0
M  V30 1898 H 168.828 -1.97632 3.6776 0
M  V30 1899 H 170.218 0.730161 6.67921 0
M  V30 1900 N 172.938 -1.57226 0.108567 0
M  V30 1901 C 173.868 -2.17778 -0.84232 0
M  V30 1902 C 174.849 -1.11487 -1.2847 0
M  V30 1903 O 176.034 -1.39681 -1.34918 0
M  V30 1904 C 173.164 -2.76888 -2.09644 0
M  V30 1905 C 172.118 -3.88669 -1.79221 0
M  V30 1906 C 171.444 -4.34541 -3.11574 0
M  V30 1907 C 172.744 -5.11251 -1.06864 0
M  V30 1908 H 174.438 -2.97489 -0.337774 0
M  V30 1909 H 171.984 -1.43097 -0.161025 0
M  V30 1910 H 173.937 -3.17904 -2.76614 0
M  V30 1911 H 172.661 -1.94451 -2.62405 0
M  V30 1912 H 171.32 -3.48213 -1.14644 0
M  V30 1913 H 170.968 -3.48977 -3.62249 0
M  V30 1914 H 170.668 -5.09914 -2.91996 0
M  V30 1915 H 172.192 -4.782 -3.7968 0
M  V30 1916 H 173.606 -5.49352 -1.63968 0
M  V30 1917 H 172.003 -5.9214 -0.974178 0
M  V30 1918 H 173.073 -4.8487 -0.0536168 0
M  V30 1919 N 174.416 0.165178 -1.56732 0
M  V30 1920 C 175.665 0.879143 -1.81532 0
M  V30 1921 C 175.978 1.83144 -0.686842 0
M  V30 1922 O 177.184 2.58823 -0.819944 0
M  V30 1923 C 175.64 1.61388 -3.21686 0
M  V30 1924 C 175.248 0.704904 -4.4242 0
M  V30 1925 C 176.992 2.3157 -3.55774 0
M  V30 1926 C 174.899 1.44022 -5.73595 0
M  V30 1927 H 173.829 0.332033 -0.676957 0
M  V30 1928 H 176.48 0.132008 -1.83025 0
M  V30 1929 H 174.862 2.40599 -3.14529 0
M  V30 1930 H 176.036 -0.0506815 -4.60772 0
M  V30 1931 H 174.351 0.112419 -4.16248 0
M  V30 1932 H 176.948 2.8719 -4.51028 0
M  V30 1933 H 177.291 3.07201 -2.8095 0
M  V30 1934 H 177.824 1.59297 -3.64513 0
M  V30 1935 H 174.563 0.72612 -6.51466 0
M  V30 1936 H 174.083 2.16898 -5.5921 0
M  V30 1937 H 175.762 1.98606 -6.15764 0
M  V30 1938 N 175.894 1.51508 0.433938 0
M  V30 1939 C 177.171 1.54888 1.19453 0
M  V30 1940 C 177.551 0.315154 2.08734 0
M  V30 1941 O 176.899 -0.699558 2.17528 0
M  V30 1942 C 177.109 2.86467 1.99342 0
M  V30 1943 C 178.457 3.38545 2.56267 0
M  V30 1944 O 179.481 2.88041 2.0955 0
M  V30 1945 O 178.34 4.26675 3.41483 0
M  V30 1946 H 175.434 0.622863 0.544032 0
M  V30 1947 H 177.98 1.63823 0.442732 0
M  V30 1948 H 176.752 3.67718 1.33788 0
M  V30 1949 H 176.375 2.8071 2.8158 0
M  V30 1950 N 177.372 -0.689602 1.41712 0
M  V30 1951 C 178.319 -1.80345 1.44029 0
M  V30 1952 C 179.289 -1.63478 0.293948 0
M  V30 1953 O 180.474 -1.84244 0.495869 0
M  V30 1954 C 177.614 -3.18272 1.33405 0
M  V30 1955 C 176.727 -3.46529 2.57956 0
M  V30 1956 C 175.862 -4.74103 2.39582 0
M  V30 1957 C 174.901 -4.95347 3.5958 0
M  V30 1958 N 174.038 -6.14151 3.40239 0
M  V30 1959 H 178.878 -1.77698 2.39222 0
M  V30 1960 H 176.415 -0.867688 1.18784 0
M  V30 1961 H 178.373 -3.97956 1.25246 0
M  V30 1962 H 177.003 -3.2008 0.418164 0
M  V30 1963 H 176.055 -2.61207 2.76542 0
M  V30 1964 H 177.367 -3.58126 3.47199 0
M  V30 1965 H 176.521 -5.61853 2.28924 0
M  V30 1966 H 175.26 -4.64763 1.47805 0
M  V30 1967 H 174.265 -4.06044 3.70686 0
M  V30 1968 H 175.49 -5.06542 4.52318 0
M  V30 1969 H 173.436 -6.06013 2.51167 0
M  V30 1970 H 173.353 -6.26543 4.23061 0
M  V30 1971 H 174.621 -7.04619 3.33365 0
M  V30 1972 N 178.85 -1.27639 -0.924453 0
M  V30 1973 C 179.78 -1.13166 -2.04244 0
M  V30 1974 C 180.761 -0.032256 -1.70069 0
M  V30 1975 O 181.946 -0.207328 -1.9309 0
M  V30 1976 C 179.076 -0.781496 -3.38393 0
M  V30 1977 C 178.03 -1.83449 -3.86692 0
M  V30 1978 C 177.356 -1.33822 -5.17683 0
M  V30 1979 C 178.656 -3.23917 -4.09726 0
M  V30 1980 H 180.35 -2.06689 -2.1661 0
M  V30 1981 H 177.896 -0.995136 -1.04082 0
M  V30 1982 H 179.849 -0.667057 -4.16087 0
M  V30 1983 H 178.573 0.189439 -3.2605 0
M  V30 1984 H 177.232 -1.93789 -3.11193 0
M  V30 1985 H 176.88 -0.35665 -5.01734 0
M  V30 1986 H 176.58 -2.04224 -5.50968 0
M  V30 1987 H 178.104 -1.23679 -5.97943 0
M  V30 1988 H 179.518 -3.16559 -4.77978 0
M  V30 1989 H 177.915 -3.92059 -4.54324 0
M  V30 1990 H 178.985 -3.68729 -3.14908 0
M  V30 1991 N 180.328 1.1314 -1.09713 0
M  V30 1992 C 181.238 2.22242 -0.751367 0
M  V30 1993 C 182.254 1.72224 0.247938 0
M  V30 1994 O 183.43 2.01205 0.0885463 0
M  V30 1995 C 180.495 3.46231 -0.180274 0
M  V30 1996 C 179.556 4.11125 -1.2359 0
M  V30 1997 C 178.789 5.29195 -0.691966 0
M  V30 1998 O 179.012 5.68342 0.48414 0
M  V30 1999 O 177.946 5.84214 -1.44838 0
M  V30 2000 H 181.772 2.54197 -1.66186 0
M  V30 2001 H 179.357 1.21331 -0.871735 0
M  V30 2002 H 181.239 4.21185 0.134739 0
M  V30 2003 H 179.914 3.1597 0.703185 0
M  V30 2004 H 178.821 3.37985 -1.60366 0
M  V30 2005 H 180.154 4.45524 -2.09211 0
M  V30 2006 N 181.806 0.884767 1.30421 0
M  V30 2007 C 182.754 0.340869 2.30089 0
M  V30 2008 C 183.748 -0.55201 1.60154 0
M  V30 2009 O 184.954 -0.436467 1.74628 0
M  V30 2010 H 181.329 0.0915739 0.746404 0
M  V30 2011 H 183.3 1.19513 2.73421 0
M  V30 2012 C 182.049 -0.429779 3.45034 0
M  V30 2013 H 181.372 0.248024 3.9903 0
M  V30 2014 H 182.812 -0.775445 4.16849 0
M  V30 2015 C 181.271 -1.62677 2.95022 0
M  V30 2016 O 181.801 -2.72614 2.95033 0
M  V30 2017 N 180.007 -1.46387 2.51036 0
M  V30 2018 H 179.554 -0.569506 2.51226 0
M  V30 2019 H 179.512 -2.26612 2.17932 0
M  V30 2020 N 183.284 -1.43765 0.645699 0
M  V30 2021 C 184.231 -2.30745 -0.0504648 0
M  V30 2022 C 185.201 -1.4432 -0.822241 0
M  V30 2023 O 186.386 -1.73202 -0.800358 0
M  V30 2024 C 183.526 -3.29802 -1.0161 0
M  V30 2025 C 182.639 -4.31326 -0.241219 0
M  V30 2026 C 181.774 -5.17469 -1.19998 0
M  V30 2027 C 180.813 -6.10691 -0.415094 0
M  V30 2028 N 179.95 -6.89483 -1.32506 0
M  V30 2029 H 184.79 -2.8973 0.697155 0
M  V30 2030 H 182.327 -1.42738 0.355563 0
M  V30 2031 H 184.285 -3.85734 -1.58949 0
M  V30 2032 H 182.915 -2.72483 -1.73069 0
M  V30 2033 H 181.967 -3.77749 0.448334 0
M  V30 2034 H 183.279 -4.9743 0.369437 0
M  V30 2035 H 182.433 -5.7799 -1.84424 0
M  V30 2036 H 181.172 -4.51473 -1.84455 0
M  V30 2037 H 180.177 -5.49265 0.242565 0
M  V30 2038 H 181.402 -6.78727 0.224966 0
M  V30 2039 H 179.348 -6.26142 -1.95657 0
M  V30 2040 H 179.265 -7.52081 -0.768783 0
M  V30 2041 H 180.533 -7.54516 -1.9577 0
M  V30 2042 N 184.763 -0.387143 -1.52771 0
M  V30 2043 C 186.01 0.195735 -2.01552 0
M  V30 2044 C 186.338 1.46995 -1.27369 0
M  V30 2045 O 185.593 1.92325 -0.361879 0
M  V30 2046 C 185.892 0.512209 -3.53711 0
M  V30 2047 C 185.558 -0.670202 -4.45891 0
M  V30 2048 C 184.22 -0.994586 -4.70809 0
M  V30 2049 C 186.572 -1.46134 -5.00294 0
M  V30 2050 C 183.9 -2.11169 -5.4738 0
M  V30 2051 C 186.252 -2.56903 -5.78086 0
M  V30 2052 C 184.916 -2.89852 -6.01284 0
M  V30 2053 H 184.186 0.0716246 -0.73753 0
M  V30 2054 H 186.833 -0.524046 -1.8419 0
M  V30 2055 H 185.138 1.31329 -3.69134 0
M  V30 2056 H 186.835 0.975804 -3.88946 0
M  V30 2057 H 183.425 -0.407366 -4.2666 0
M  V30 2058 H 187.609 -1.22397 -4.80971 0
M  V30 2059 H 182.865 -2.3707 -5.63567 0
M  V30 2060 H 187.039 -3.18608 -6.19243 0
M  V30 2061 H 184.666 -3.76533 -6.60399 0
M  V30 2062 N 186.241 1.57166 -0.116904 0
M  V30 2063 C 187.173 2.12271 0.864507 0
M  V30 2064 C 188.186 1.06494 1.23138 0
M  V30 2065 O 189.375 1.33873 1.18069 0
M  V30 2066 C 186.475 2.60564 2.16702 0
M  V30 2067 C 185.648 3.90416 1.97216 0
M  V30 2068 C 184.707 4.24329 3.11178 0
M  V30 2069 O 183.733 4.93182 2.84184 0
M  V30 2070 N 184.935 3.8148 4.37554 0
M  V30 2071 H 187.7 2.97102 0.393726 0
M  V30 2072 H 185.261 1.61759 0.0675805 0
M  V30 2073 H 187.253 2.80282 2.91932 0
M  V30 2074 H 185.823 1.80623 2.55135 0
M  V30 2075 H 185.043 3.79627 1.06192 0
M  V30 2076 H 186.331 4.75327 1.81499 0
M  V30 2077 H 185.729 3.25943 4.62361 0
M  V30 2078 H 184.286 4.06311 5.09661 0
M  V30 2079 N 187.719 -0.156864 1.56817 0
M  V30 2080 C 188.682 -1.17781 1.96622 0
M  V30 2081 C 189.682 -1.36401 0.851555 0
M  V30 2082 O 190.872 -1.33561 1.11836 0
M  V30 2083 C 188.004 -2.54008 2.27361 0
M  V30 2084 H 189.197 -0.836564 2.87996 0
M  V30 2085 H 186.75 -0.39985 1.51099 0
M  V30 2086 H 187.485 -2.9312 1.38748 0
M  V30 2087 H 187.27 -2.41856 3.08623 0
M  V30 2088 H 188.76 -3.27558 2.59029 0
M  V30 2089 N 189.197 -1.51736 -0.425897 0
M  V30 2090 C 190.107 -1.76738 -1.54275 0
M  V30 2091 C 191.123 -0.65211 -1.61318 0
M  V30 2092 O 192.299 -0.935654 -1.78346 0
M  V30 2093 C 189.364 -1.89755 -2.90162 0
M  V30 2094 C 188.425 -3.13633 -2.93143 0
M  V30 2095 C 187.658 -3.2602 -4.22548 0
M  V30 2096 O 187.881 -2.44067 -5.15546 0
M  V30 2097 O 186.815 -4.19071 -4.32046 0
M  V30 2098 H 190.641 -2.71502 -1.36089 0
M  V30 2099 H 188.226 -1.36376 -0.610069 0
M  V30 2100 H 190.108 -2.00236 -3.70788 0
M  V30 2101 H 188.783 -0.981785 -3.08452 0
M  V30 2102 H 187.69 -3.08622 -2.11431 0
M  V30 2103 H 189.023 -4.04936 -2.798 0
M  V30 2104 N 190.675 0.682077 -1.42076 0
M  V30 2105 C 191.924 1.43786 -1.41451 0
M  V30 2106 C 192.237 1.95574 -0.0317074 0
M  V30 2107 O 193.443 2.71326 0.0971462 0
M  V30 2108 C 191.899 2.60071 -2.48779 0
M  V30 2109 C 191.507 2.15013 -3.93031 0
M  V30 2110 C 193.251 3.37626 -2.57311 0
M  V30 2111 C 191.158 3.28336 -4.91883 0
M  V30 2112 H 190.088 0.540143 -0.526082 0
M  V30 2113 H 192.739 0.739157 -1.67955 0
M  V30 2114 H 191.121 3.32275 -2.15429 0
M  V30 2115 H 192.295 1.5001 -4.35699 0
M  V30 2116 H 190.61 1.50416 -3.88284 0
M  V30 2117 H 193.207 4.22012 -3.28345 0
M  V30 2118 H 193.55 3.83727 -1.61429 0
M  V30 2119 H 194.083 2.72488 -2.89819 0
M  V30 2120 H 190.822 2.87234 -5.89217 0
M  V30 2121 H 190.342 3.92145 -4.53853 0
M  V30 2122 H 192.021 3.93913 -5.13265 0
M  V30 2123 N 192.153 1.28127 0.917671 0
M  V30 2124 C 193.063 1.13556 2.05286 0
M  V30 2125 C 194.079 0.0630914 1.73886 0
M  V30 2126 O 195.255 0.271598 1.9956 0
M  V30 2127 C 192.32 0.794676 3.3747 0
M  V30 2128 C 191.381 1.94909 3.82504 0
M  V30 2129 C 190.614 1.62437 5.0838 0
M  V30 2130 O 190.837 0.536905 5.67867 0
M  V30 2131 O 189.771 2.46677 5.4903 0
M  V30 2132 H 193.597 2.08844 2.20495 0
M  V30 2133 H 191.182 1.07409 1.03845 0
M  V30 2134 H 193.064 0.618344 4.16839 0
M  V30 2135 H 191.739 -0.128581 3.23445 0
M  V30 2136 H 190.646 2.18055 3.03978 0
M  V30 2137 H 191.979 2.85291 4.01086 0
M  V30 2138 N 193.631 -1.12557 1.10312 0
M  V30 2139 C 194.579 -2.20325 0.745629 0
M  V30 2140 C 195.573 -1.67429 -0.25763 0
M  V30 2141 O 196.779 -1.79612 -0.118132 0
M  V30 2142 H 193.154 -0.718118 0.223182 0
M  V30 2143 H 195.125 -2.47733 1.66346 0
M  V30 2144 C 193.874 -3.47168 0.192262 0
M  V30 2145 H 193.197 -3.88215 0.955475 0
M  V30 2146 H 194.637 -4.23995 -0.0198274 0
M  V30 2147 C 193.096 -3.19298 -1.07472 0
M  V30 2148 O 193.626 -3.3891 -2.15645 0
M  V30 2149 N 191.832 -2.73113 -0.992847 0
M  V30 2150 H 191.379 -2.57354 -0.112474 0
M  V30 2151 H 191.337 -2.54842 -1.84127 0
M  V30 2152 N 195.109 -0.891671 -1.2995 0
M  V30 2153 C 196.042 -0.307994 -2.26112 0
M  V30 2154 C 197.02 0.575262 -1.52084 0
M  V30 2155 O 198.204 0.523864 -1.81074 0
M  V30 2156 C 195.331 0.561734 -3.34009 0
M  V30 2157 C 194.377 -0.253107 -4.25748 0
M  V30 2158 S 195.21 -1.64572 -5.09584 0
M  V30 2159 C 196.366 -0.782699 -6.20987 0
M  V30 2160 H 196.599 -1.12309 -2.75271 0
M  V30 2161 H 194.132 -0.691509 -1.38049 0
M  V30 2162 H 196.09 1.05777 -3.96638 0
M  V30 2163 H 194.751 1.35099 -2.83561 0
M  V30 2164 H 193.944 0.410908 -5.02322 0
M  V30 2165 H 193.546 -0.682004 -3.67729 0
M  V30 2166 H 195.838 -0.00257476 -6.775 0
M  V30 2167 H 196.781 -1.52026 -6.91588 0
M  V30 2168 H 197.189 -0.340638 -5.63471 0
M  V30 2169 N 196.587 1.43421 -0.653314 0
M  V30 2170 C 197.497 2.34568 0.0388565 0
M  V30 2171 C 198.513 1.53888 0.81207 0
M  V30 2172 O 199.689 1.86539 0.759294 0
M  V30 2173 C 196.754 3.32167 0.993269 0
M  V30 2174 C 195.815 4.28751 0.216977 0
M  V30 2175 C 195.048 5.21688 1.12593 0
M  V30 2176 O 195.271 5.19052 2.36519 0
M  V30 2177 O 194.205 5.98919 0.598284 0
M  V30 2178 H 198.031 2.95251 -0.711386 0
M  V30 2179 H 195.616 1.43564 -0.413502 0
M  V30 2180 H 197.498 3.92183 1.54176 0
M  V30 2181 H 196.173 2.73987 1.72374 0
M  V30 2182 H 195.08 3.72215 -0.375101 0
M  V30 2183 H 196.413 4.89913 -0.473924 0
M  V30 2184 N 198.065 0.39524 1.52563 0
M  V30 2185 C 199.028 -0.425001 2.25225 0
M  V30 2186 C 200.028 -0.985266 1.27079 0
M  V30 2187 O 201.218 -0.866332 1.5113 0
M  V30 2188 C 198.35 -1.59686 3.01186 0
M  V30 2189 H 199.543 0.211233 2.99155 0
M  V30 2190 H 197.096 0.147472 1.55603 0
M  V30 2191 H 197.831 -2.27035 2.31572 0
M  V30 2192 H 197.616 -1.20176 3.73229 0
M  V30 2193 H 199.106 -2.17743 3.5634 0
M  V30 2194 N 199.544 -1.57102 0.125237 0
M  V30 2195 C 200.494 -2.12202 -0.833936 0
M  V30 2196 C 201.478 -1.04433 -1.22403 0
M  V30 2197 O 202.67 -1.30655 -1.19408 0
M  V30 2198 C 199.799 -2.72994 -2.08157 0
M  V30 2199 C 198.885 -3.87852 -1.71556 0
M  V30 2200 N 199.276 -4.9464 -1.05662 0
M  V30 2201 C 197.574 -3.98153 -2.00973 0
M  V30 2202 C 198.275 -5.74953 -0.883376 0
M  V30 2203 N 197.251 -5.24985 -1.41036 0
M  V30 2204 H 201.053 -2.92141 -0.321035 0
M  V30 2205 H 198.567 -1.62217 -0.0770315 0
M  V30 2206 H 200.564 -3.10816 -2.77847 0
M  V30 2207 H 199.224 -1.9452 -2.59985 0
M  V30 2208 H 200.235 -5.12872 -0.719878 0
M  V30 2209 H 196.912 -3.30728 -2.54804 0
M  V30 2210 H 198.302 -6.70904 -0.365675 0
M  V30 2211 N 201.022 0.148545 -1.56898 0
M  V30 2212 C 201.97 1.20265 -1.99096 0
M  V30 2213 C 202.964 1.44559 -0.883123 0
M  V30 2214 O 204.17 1.4487 -1.0683 0
M  V30 2215 H 200.545 0.404786 -0.63376 0
M  V30 2216 H 202.516 0.82004 -2.86911 0
M  V30 2217 C 201.265 2.52886 -2.3863 0
M  V30 2218 H 200.588 2.35021 -3.23427 0
M  V30 2219 H 202.028 3.25274 -2.7198 0
M  V30 2220 C 200.487 3.13315 -1.23837 0
M  V30 2221 O 201.017 3.98077 -0.538268 0
M  V30 2222 N 199.223 2.72742 -1.00301 0
M  V30 2223 H 198.77 2.03912 -1.5741 0
M  V30 2224 H 198.728 3.13507 -0.236838 0
M  V30 2225 N 202.5 1.5196 0.417844 0
M  V30 2226 C 203.748 1.65263 1.16329 0
M  V30 2227 C 204.069 0.380634 1.91249 0
M  V30 2228 O 203.339 -0.604214 1.86349 0
M  V30 2229 H 201.919 0.60912 0.432414 0
M  V30 2230 H 204.581 1.88969 0.477162 0
M  V30 2231 H 203.677 2.4896 1.88217 0
M  V30 2232 N 203.978 -0.674533 1.42435 0
M  V30 2233 C 205.206 -1.46283 1.46317 0
M  V30 2234 C 205.621 -1.88653 0.0745836 0
M  V30 2235 O 204.978 -1.58151 -0.91074 0
M  V30 2236 C 205.029 -2.71178 2.3905 0
M  V30 2237 O 204.75 -2.30586 3.72507 0
M  V30 2238 C 206.251 -3.64738 2.51955 0
M  V30 2239 H 203.471 -0.450104 0.497642 0
M  V30 2240 H 206.015 -0.828792 1.86953 0
M  V30 2241 H 204.17 -3.3077 2.01667 0
M  V30 2242 H 204.584 -3.11241 4.22172 0
M  V30 2243 H 206.058 -4.49096 3.20962 0
M  V30 2244 H 206.535 -4.10656 1.55752 0
M  V30 2245 H 207.141 -3.11038 2.90061 0
M  V30 2246 N 205.456 -1.28612 -0.910864 0
M  V30 2247 C 206.867 -1.14406 -1.47541 0
M  V30 2248 C 207.218 0.264901 -1.94403 0
M  V30 2249 O 206.343 1.15942 -1.82719 0
M  V30 2250 C 206.938 -2.07073 -2.68153 0
M  V30 2251 C 205.497 -1.96923 -3.20778 0
M  V30 2252 C 204.644 -1.98646 -1.93481 0
M  V30 2253 H 207.595 -1.41259 -0.723291 0
M  V30 2254 H 207.616 -1.63642 -3.43514 0
M  V30 2255 H 207.128 -3.09611 -2.34015 0
M  V30 2256 H 205.229 -0.97433 -3.59635 0
M  V30 2257 H 205.342 -2.84026 -3.85832 0
M  V30 2258 H 203.706 -1.43093 -2.10705 0
M  V30 2259 H 204.489 -3.02868 -1.61634 0
M  V30 2260 N 206.934 1.1197 -1.10907 0
M  V30 2261 C 207.864 2.19928 -0.784473 0
M  V30 2262 C 208.845 1.6833 0.244726 0
M  V30 2263 O 210.03 1.93892 0.109418 0
M  V30 2264 C 207.16 3.46597 -0.220827 0
M  V30 2265 C 206.114 4.11376 -1.18127 0
M  V30 2266 C 205.44 5.32554 -0.478594 0
M  V30 2267 C 206.74 4.56945 -2.52979 0
M  V30 2268 H 208.434 2.47337 -1.68715 0
M  V30 2269 H 205.98 1.18879 -0.812642 0
M  V30 2270 H 207.933 4.21396 0.0184278 0
M  V30 2271 H 206.657 3.1863 0.717113 0
M  V30 2272 H 205.316 3.38564 -1.40606 0
M  V30 2273 H 204.964 5.00856 0.463976 0
M  V30 2274 H 204.664 5.76844 -1.11912 0
M  V30 2275 H 206.188 6.10096 -0.248 0
M  V30 2276 H 207.602 5.23093 -2.3462 0
M  V30 2277 H 205.999 5.1203 -3.12962 0
M  V30 2278 H 207.069 3.70676 -3.12614 0
M  V30 2279 N 208.412 0.89855 1.29475 0
M  V30 2280 C 209.64 0.539261 1.99749 0
M  V30 2281 C 210.055 -0.875716 1.67262 0
M  V30 2282 O 209.412 -1.57786 0.917049 0
M  V30 2283 C 209.463 0.72061 3.54245 0
M  V30 2284 O 209.184 2.07989 3.8558 0
M  V30 2285 C 210.685 0.366118 4.41786 0
M  V30 2286 H 207.905 0.207047 0.638258 0
M  V30 2287 H 210.449 1.20758 1.65039 0
M  V30 2288 H 208.604 0.0994862 3.87272 0
M  V30 2289 H 209.018 2.10841 4.80257 0
M  V30 2290 H 210.492 0.543848 5.49314 0
M  V30 2291 H 210.969 -0.696763 4.33638 0
M  V30 2292 H 211.575 0.964135 4.14228 0
M  V30 2293 N 209.89 -1.43072 0.660911 0
M  V30 2294 C 210.838 -2.32569 -0.0378199 0
M  V30 2295 C 211.832 -1.49046 -0.805092 0
M  V30 2296 O 213.038 -1.65206 -0.714624 0
M  V30 2297 H 209.413 -0.75136 -0.031019 0
M  V30 2298 H 211.384 -2.89216 0.734609 0
M  V30 2299 C 210.133 -3.33453 -0.985124 0
M  V30 2300 H 209.456 -3.97752 -0.404147 0
M  V30 2301 H 210.896 -3.98691 -1.44297 0
M  V30 2302 C 209.355 -2.64642 -2.08486 0
M  V30 2303 O 209.885 -2.46776 -3.16961 0
M  V30 2304 N 208.091 -2.23891 -1.8526 0
M  V30 2305 H 207.638 -2.38621 -0.970449 0
M  V30 2306 H 207.596 -1.78181 -2.59034 0
M  V30 2307 N 211.368 -0.403325 -1.52352 0
M  V30 2308 C 212.598 0.17376 -2.05868 0
M  V30 2309 C 213.006 1.39898 -1.27378 0
M  V30 2310 O 212.349 1.80939 -0.31729 0
M  V30 2311 C 212.411 0.594756 -3.54546 0
M  V30 2312 C 212.075 -0.518926 -4.54044 0
M  V30 2313 C 213.072 -1.3807 -5.01231 0
M  V30 2314 C 210.757 -0.689961 -4.97539 0
M  V30 2315 C 212.751 -2.39852 -5.90551 0
M  V30 2316 C 210.438 -1.71109 -5.86656 0
M  V30 2317 C 211.436 -2.56378 -6.33056 0
M  V30 2318 O 211.124 -3.56743 -7.20409 0
M  V30 2319 H 210.856 0.0264951 -0.675481 0
M  V30 2320 H 213.41 -0.571179 -1.97299 0
M  V30 2321 H 211.64 1.39189 -3.60782 0
M  V30 2322 H 213.329 1.0991 -3.90736 0
M  V30 2323 H 214.095 -1.25994 -4.68349 0
M  V30 2324 H 209.974 -0.035939 -4.60986 0
M  V30 2325 H 213.518 -3.06441 -6.26689 0
M  V30 2326 H 209.415 -1.83218 -6.18952 0
M  V30 2327 H 210.183 -3.52918 -7.38506 0
M  V30 2328 N 212.846 1.57033 -0.133567 0
M  V30 2329 C 214.076 1.99754 0.527429 0
M  V30 2330 C 214.484 1.01245 1.59832 0
M  V30 2331 O 213.827 -0.000645496 1.837 0
M  V30 2332 C 213.889 3.38903 1.19939 0
M  V30 2333 C 213.553 4.56174 0.274709 0
M  V30 2334 C 214.55 5.17563 -0.492398 0
M  V30 2335 C 212.235 5.01972 0.18153 0
M  V30 2336 C 214.229 6.2315 -1.34027 0
M  V30 2337 C 211.916 6.07416 -0.669958 0
M  V30 2338 C 212.914 6.67874 -1.42947 0
M  V30 2339 O 212.602 7.71279 -2.2668 0
M  V30 2340 H 212.334 0.660702 0.142999 0
M  V30 2341 H 214.888 2.04207 -0.221099 0
M  V30 2342 H 213.118 3.31248 1.99528 0
M  V30 2343 H 214.807 3.65818 1.75875 0
M  V30 2344 H 215.573 4.83087 -0.430367 0
M  V30 2345 H 211.452 4.54652 0.762422 0
M  V30 2346 H 214.996 6.70268 -1.93357 0
M  V30 2347 H 210.893 6.41321 -0.73333 0
M  V30 2348 H 211.661 7.88441 -2.1978 0
M  V30 2349 N 214.325 -0.140222 1.56975 0
M  V30 2350 C 215.257 -1.19818 1.95388 0
M  V30 2351 C 216.27 -1.38816 0.850525 0
M  V30 2352 O 217.459 -1.38267 1.12891 0
M  V30 2353 C 214.559 -2.56189 2.21857 0
M  V30 2354 C 213.732 -2.58077 3.5315 0
M  V30 2355 C 212.791 -3.76037 3.6808 0
M  V30 2356 O 211.817 -3.60598 4.40406 0
M  V30 2357 N 213.019 -4.93763 3.05251 0
M  V30 2358 H 215.784 -0.871609 2.86746 0
M  V30 2359 H 213.345 -0.32972 1.58507 0
M  V30 2360 H 215.337 -3.33623 2.2908 0
M  V30 2361 H 213.907 -2.81111 1.36731 0
M  V30 2362 H 213.127 -1.6651 3.57307 0
M  V30 2363 H 214.415 -2.56377 4.39486 0
M  V30 2364 H 213.813 -5.09209 2.46419 0
M  V30 2365 H 212.37 -5.68949 3.18026 0
M  V30 2366 N 215.803 -1.52179 -0.40978 0
M  V30 2367 C 216.733 -1.78435 -1.5061 0
M  V30 2368 C 217.714 -0.635295 -1.57791 0
M  V30 2369 O 218.899 -0.880823 -1.73076 0
M  V30 2370 C 216.029 -1.93444 -2.88439 0
M  V30 2371 C 214.983 -3.09038 -2.96108 0
M  V30 2372 C 214.309 -3.09268 -4.36185 0
M  V30 2373 C 215.609 -4.48508 -2.67652 0
M  V30 2374 H 217.303 -2.70237 -1.28889 0
M  V30 2375 H 214.849 -1.30036 -0.618605 0
M  V30 2376 H 216.802 -2.10394 -3.65119 0
M  V30 2377 H 215.526 -0.983129 -3.11452 0
M  V30 2378 H 214.185 -2.91837 -2.21872 0
M  V30 2379 H 213.833 -2.11861 -4.56206 0
M  V30 2380 H 213.533 -3.86907 -4.42241 0
M  V30 2381 H 215.057 -3.28348 -5.14801 0
M  V30 2382 H 216.471 -4.65918 -3.34056 0
M  V30 2383 H 214.868 -5.28059 -2.85085 0
M  V30 2384 H 215.938 -4.56649 -1.63095 0
M  V30 2385 N 217.281 0.66697 -1.42791 0
M  V30 2386 C 218.506 1.46004 -1.47301 0
M  V30 2387 C 218.931 1.87894 -0.0880317 0
M  V30 2388 O 218.289 1.56502 0.915253 0
M  V30 2389 C 218.337 2.68031 -2.41229 0
M  V30 2390 O 217.441 3.6659 -1.88906 0
M  V30 2391 H 216.782 0.43832 -0.49877 0
M  V30 2392 H 219.312 0.817391 -1.87563 0
M  V30 2393 H 219.322 3.1601 -2.58073 0
M  V30 2394 H 217.997 2.36883 -3.41847 0
M  V30 2395 H 216.574 3.25661 -1.81656 0
M  V30 2396 N 218.759 1.29093 0.90403 0
M  V30 2397 C 219.689 1.16401 2.02418 0
M  V30 2398 C 220.67 0.0593085 1.69997 0
M  V30 2399 O 221.855 0.238021 1.92736 0
M  V30 2400 C 218.985 0.835233 3.37107 0
M  V30 2401 C 217.939 1.89578 3.83724 0
M  V30 2402 C 217.265 1.42041 5.15489 0
M  V30 2403 C 218.565 3.30394 4.04521 0
M  V30 2404 H 220.259 2.10109 2.13295 0
M  V30 2405 H 217.805 1.01157 1.02486 0
M  V30 2406 H 219.758 0.733169 4.14973 0
M  V30 2407 H 218.482 -0.137543 3.2631 0
M  V30 2408 H 217.141 1.98715 3.08071 0
M  V30 2409 H 216.789 0.436426 5.01103 0
M  V30 2410 H 216.489 2.12964 5.4765 0
M  V30 2411 H 218.013 1.33176 5.959 0
M  V30 2412 H 219.427 3.24123 4.72882 0
M  V30 2413 H 217.824 3.99237 4.48029 0
M  V30 2414 H 218.894 3.73692 3.09002 0
M  V30 2415 N 220.237 -1.11381 1.11499 0
M  V30 2416 C 221.514 -1.7955 0.775965 0
M  V30 2417 C 221.894 -1.97859 -0.73588 0
M  V30 2418 O 221.242 -1.56376 -1.66609 0
M  V30 2419 C 221.452 -3.13196 1.53977 0
M  V30 2420 C 222.8 -3.88227 1.71944 0
M  V30 2421 O 223.824 -3.22887 1.50407 0
M  V30 2422 O 222.683 -5.05477 2.07738 0
M  V30 2423 H 219.777 -0.777728 0.28119 0
M  V30 2424 H 222.323 -1.18118 1.21845 0
M  V30 2425 H 221.095 -2.95229 2.56818 0
M  V30 2426 H 220.718 -3.82342 1.09088 0
M  V30 2427 N 221.715 -0.905404 -1.28997 0
M  V30 2428 C 222.961 -0.535039 -1.95615 0
M  V30 2429 C 223.294 0.917404 -1.71165 0
M  V30 2430 O 222.569 1.65123 -1.02785 0
M  V30 2431 C 222.852 -0.834918 -3.50287 0
M  V30 2432 C 222.705 -2.33948 -3.84172 0
M  V30 2433 C 224.024 -0.325318 -4.38896 0
M  V30 2434 H 221.143 -0.195861 -0.710498 0
M  V30 2435 H 223.785 -1.13313 -1.52513 0
M  V30 2436 H 221.935 -0.325904 -3.87131 0
M  V30 2437 H 223.607 -2.91847 -3.57243 0
M  V30 2438 H 221.85 -2.79789 -3.31513 0
M  V30 2439 H 222.521 -2.49987 -4.92149 0
M  V30 2440 H 224.997 -0.761256 -4.09077 0
M  V30 2441 H 223.873 -0.564295 -5.45992 0
M  V30 2442 H 224.134 0.774144 -4.35269 0
M  V30 2443 N 223.193 1.4272 -0.668489 0
M  V30 2444 C 224.123 2.335 -0.000100175 0
M  V30 2445 C 225.104 1.50328 0.795964 0
M  V30 2446 O 226.289 1.78949 0.754385 0
M  V30 2447 C 223.419 3.33874 0.956302 0
M  V30 2448 C 222.373 4.27152 0.269278 0
M  V30 2449 C 221.699 5.17684 1.33818 0
M  V30 2450 C 222.999 5.15373 -0.847805 0
M  V30 2451 H 224.693 2.89639 -0.758244 0
M  V30 2452 H 222.239 1.39269 -0.366079 0
M  V30 2453 H 224.192 3.9629 1.43292 0
M  V30 2454 H 222.916 2.76025 1.74579 0
M  V30 2455 H 221.575 3.66123 -0.187042 0
M  V30 2456 H 221.223 4.56165 2.1195 0
M  V30 2457 H 220.923 5.80918 0.883659 0
M  V30 2458 H 222.447 5.82974 1.81586 0
M  V30 2459 H 223.861 5.7151 -0.452681 0
M  V30 2460 H 222.258 5.87407 -1.22773 0
M  V30 2461 H 223.328 4.5415 -1.69929 0
M  V30 2462 N 224.671 0.411399 1.52136 0
M  V30 2463 C 225.634 -0.401089 2.25663 0
M  V30 2464 C 226.634 -0.971732 1.28117 0
M  V30 2465 O 227.824 -0.850254 1.52041 0
M  V30 2466 C 224.956 -1.56483 3.02863 0
M  V30 2467 H 226.149 0.24295 2.98914 0
M  V30 2468 H 223.702 0.163968 1.55438 0
M  V30 2469 H 224.437 -2.24567 2.33967 0
M  V30 2470 H 224.222 -1.16211 3.74483 0
M  V30 2471 H 225.712 -2.13951 3.58629 0
M  V30 2472 N 226.149 -1.5696 0.141893 0
M  V30 2473 C 227.079 -2.19516 -0.795936 0
M  V30 2474 C 228.06 -1.14187 -1.26077 0
M  V30 2475 O 229.245 -1.42511 -1.31925 0
M  V30 2476 C 226.375 -2.81272 -2.03723 0
M  V30 2477 C 225.329 -3.92384 -1.70936 0
M  V30 2478 C 224.655 -4.41052 -3.02287 0
M  V30 2479 C 225.955 -5.13403 -0.959954 0
M  V30 2480 H 227.649 -2.98138 -0.274596 0
M  V30 2481 H 225.195 -1.43406 -0.130636 0
M  V30 2482 H 227.148 -3.237 -2.69808 0
M  V30 2483 H 225.872 -1.99973 -2.58221 0
M  V30 2484 H 224.531 -3.50566 -1.07232 0
M  V30 2485 H 224.179 -3.56582 -3.54765 0
M  V30 2486 H 223.879 -5.15993 -2.81114 0
M  V30 2487 H 225.403 -4.86146 -3.69451 0
M  V30 2488 H 226.817 -5.52706 -1.52279 0
M  V30 2489 H 225.214 -5.94073 -0.848357 0
M  V30 2490 H 226.284 -4.84875 0.0492434 0
M  V30 2491 N 227.627 0.131896 -1.57047 0
M  V30 2492 C 228.867 0.847972 -1.85981 0
M  V30 2493 C 229.231 1.77655 -0.7282 0
M  V30 2494 O 230.432 2.53322 -0.898968 0
M  V30 2495 C 228.703 1.58919 -3.20124 0
M  V30 2496 S 230.262 2.34862 -3.70655 0
M  V30 2497 H 227.08 0.283273 -0.652133 0
M  V30 2498 H 229.682 0.107057 -1.95207 0
M  V30 2499 H 228.386 0.898771 -4.00438 0
M  V30 2500 H 227.917 2.37073 -3.13942 0
M  V30 2501 H 229.932 3.60344 -3.41126 0
M  V30 2502 N 229.106 1.52395 0.401703 0
M  V30 2503 C 230.036 1.79231 1.49661 0
M  V30 2504 C 231.017 0.643654 1.57452 0
M  V30 2505 O 232.202 0.889989 1.72606 0
M  V30 2506 C 229.332 1.94971 2.87409 0
M  V30 2507 C 228.286 3.10604 2.94465 0
M  V30 2508 C 227.612 3.11577 4.34538 0
M  V30 2509 C 228.912 4.49921 2.6527 0
M  V30 2510 H 230.606 2.70917 1.27454 0
M  V30 2511 H 228.152 1.30362 0.6117 0
M  V30 2512 H 230.105 2.12328 3.63999 0
M  V30 2513 H 228.829 0.999632 3.10926 0
M  V30 2514 H 227.488 2.93009 2.20321 0
M  V30 2515 H 227.136 2.14277 4.55076 0
M  V30 2516 H 226.836 3.89247 4.40183 0
M  V30 2517 H 228.36 3.31073 5.13053 0
M  V30 2518 H 229.774 4.67683 3.31581 0
M  V30 2519 H 228.171 5.29564 2.82281 0
M  V30 2520 H 229.241 4.57507 1.60671 0
M  V30 2521 N 230.584 -0.659388 1.43143 0
M  V30 2522 C 231.831 -1.41935 1.44433 0
M  V30 2523 C 232.159 -1.94387 0.0663522 0
M  V30 2524 O 231.414 -1.72314 -0.927706 0
M  V30 2525 C 231.713 -2.62206 2.42864 0
M  V30 2526 C 231.379 -2.28208 3.88886 0
M  V30 2527 C 230.041 -2.18647 4.28657 0
M  V30 2528 C 232.393 -2.00887 4.8093 0
M  V30 2529 C 229.721 -1.79914 5.58433 0
M  V30 2530 C 232.073 -1.63653 6.11065 0
M  V30 2531 C 230.737 -1.52614 6.49819 0
M  V30 2532 H 230.007 -0.519376 0.528517 0
M  V30 2533 H 232.654 -0.750453 1.76183 0
M  V30 2534 H 230.959 -3.34199 2.04495 0
M  V30 2535 H 232.656 -3.2041 2.41119 0
M  V30 2536 H 229.246 -2.36557 3.57406 0
M  V30 2537 H 233.43 -2.07198 4.5098 0
M  V30 2538 H 228.686 -1.69948 5.87305 0
M  V30 2539 H 232.86 -1.41543 6.81864 0
M  V30 2540 H 230.487 -1.22371 7.50286 0
M  V30 2541 N 232.062 -1.29571 -0.897171 0
M  V30 2542 C 233.01 -1.14802 -2.02295 0
M  V30 2543 C 234.004 -0.0629637 -1.69283 0
M  V30 2544 O 235.21 -0.222945 -1.78614 0
M  V30 2545 H 231.585 -0.354692 -0.663097 0
M  V30 2546 H 233.556 -2.10108 -2.11889 0
M  V30 2547 C 232.305 -0.843966 -3.37302 0
M  V30 2548 H 231.628 -1.67093 -3.63208 0
M  V30 2549 H 233.068 -0.780672 -4.16751 0
M  V30 2550 C 231.527 0.452843 -3.33843 0
M  V30 2551 O 232.057 1.47813 -3.73516 0
M  V30 2552 N 230.263 0.459601 -2.86943 0
M  V30 2553 H 229.81 -0.375213 -2.54853 0
M  V30 2554 H 229.768 1.32726 -2.85011 0
M  V30 2555 N 233.54 1.10788 -1.12088 0
M  V30 2556 C 234.788 1.8231 -0.872205 0
M  V30 2557 C 235.109 1.85419 0.603709 0
M  V30 2558 O 234.379 1.32963 1.43867 0
M  V30 2559 H 232.959 0.675137 -0.319686 0
M  V30 2560 H 235.621 1.34068 -1.41463 0
M  V30 2561 H 234.717 2.85955 -1.25045 0
M  V30 2562 N 235.018 0.912232 1.28515 0
M  V30 2563 C 235.966 0.389597 2.29314 0
M  V30 2564 C 236.96 -0.517915 1.61289 0
M  V30 2565 O 238.166 -0.399328 1.75515 0
M  V30 2566 H 234.541 0.107386 0.744293 0
M  V30 2567 H 236.512 1.25286 2.70825 0
M  V30 2568 C 235.261 -0.356496 3.45868 0
M  V30 2569 H 234.584 0.332608 3.98414 0
M  V30 2570 H 236.024 -0.686851 4.184 0
M  V30 2571 C 234.483 -1.56383 2.98406 0
M  V30 2572 O 235.013 -2.66294 3.00749 0
M  V30 2573 N 233.219 -1.41029 2.54085 0
M  V30 2574 H 232.766 -0.516089 2.52377 0
M  V30 2575 H 232.724 -2.21939 2.22689 0
M  V30 2576 N 236.496 -1.42363 0.676048 0
M  V30 2577 C 237.726 -2.05561 0.206967 0
M  V30 2578 C 238.134 -1.50887 -1.14148 0
M  V30 2579 O 237.477 -0.643933 -1.72044 0
M  V30 2580 C 237.539 -3.5944 0.0659508 0
M  V30 2581 C 237.203 -4.36812 1.34331 0
M  V30 2582 C 238.2 -4.67383 2.27704 0
M  V30 2583 C 235.885 -4.76429 1.59125 0
M  V30 2584 C 237.879 -5.36509 3.44147 0
M  V30 2585 C 235.566 -5.45294 2.75857 0
M  V30 2586 C 236.564 -5.75259 3.68193 0
M  V30 2587 O 236.252 -6.42712 4.82883 0
M  V30 2588 H 235.984 -0.668872 0.0979084 0
M  V30 2589 H 238.538 -1.83467 0.923531 0
M  V30 2590 H 236.768 -3.80197 -0.706204 0
M  V30 2591 H 238.457 -4.0427 -0.363418 0
M  V30 2592 H 239.223 -4.37275 2.09799 0
M  V30 2593 H 235.102 -4.52498 0.881258 0
M  V30 2594 H 238.646 -5.59814 4.16238 0
M  V30 2595 H 234.543 -5.7482 2.93688 0
M  V30 2596 H 235.311 -6.61204 4.82444 0
M  V30 2597 N 237.974 -0.419461 -1.51915 0
M  V30 2598 C 239.199 0.154572 -2.06823 0
M  V30 2599 C 239.624 1.3722 -1.28656 0
M  V30 2600 O 238.982 1.78461 -0.319583 0
M  V30 2601 C 239.03 0.473172 -3.57482 0
M  V30 2602 O 238.134 1.56255 -3.81652 0
M  V30 2603 H 237.475 0.0096924 -0.663929 0
M  V30 2604 H 240.005 -0.595642 -1.95738 0
M  V30 2605 H 240.015 0.728825 -4.01438 0
M  V30 2606 H 238.69 -0.416873 -4.13805 0
M  V30 2607 H 237.267 1.29825 -3.49571 0
M  V30 2608 N 239.452 1.56882 -0.150215 0
M  V30 2609 C 240.68 2.00593 0.506948 0
M  V30 2610 C 241.095 1.03033 1.58208 0
M  V30 2611 O 240.452 0.0278396 1.82479 0
M  V30 2612 C 240.503 3.44209 1.10465 0
M  V30 2613 O 240.224 4.3804 0.0724636 0
M  V30 2614 C 241.725 4.03214 1.84211 0
M  V30 2615 H 238.945 0.65795 0.13169 0
M  V30 2616 H 241.489 2.03018 -0.245743 0
M  V30 2617 H 239.644 3.42625 1.80795 0
M  V30 2618 H 240.058 5.22007 0.510793 0
M  V30 2619 H 241.532 5.0569 2.21318 0
M  V30 2620 H 242.009 3.44107 2.72923 0
M  V30 2621 H 242.615 4.08437 1.18572 0
M  V30 2622 N 240.93 -0.123565 1.57115 0
M  V30 2623 C 241.893 -1.13583 1.99076 0
M  V30 2624 C 242.893 -1.34564 0.880296 0
M  V30 2625 O 244.083 -1.31158 1.14644 0
M  V30 2626 C 241.215 -2.49128 2.32698 0
M  V30 2627 H 242.408 -0.775287 2.89706 0
M  V30 2628 H 239.961 -0.36771 1.51913 0
M  V30 2629 H 240.696 -2.90111 1.44934 0
M  V30 2630 H 240.481 -2.35255 3.13684 0
M  V30 2631 H 241.971 -3.2199 2.65918 0
M  V30 2632 N 242.408 -1.52605 -0.393616 0
M  V30 2633 C 243.318 -1.79971 -1.50492 0
M  V30 2634 C 244.334 -0.686181 -1.59899 0
M  V30 2635 O 245.51 -0.973274 -1.76322 0
M  V30 2636 C 242.575 -1.95867 -2.86072 0
M  V30 2637 C 241.636 -3.19781 -2.86424 0
M  V30 2638 C 240.869 -3.34909 -4.15538 0
M  V30 2639 O 241.092 -2.54948 -5.10253 0
M  V30 2640 O 240.026 -4.28141 -4.23059 0
M  V30 2641 H 243.852 -2.74328 -1.30299 0
M  V30 2642 H 241.437 -1.3764 -0.581005 0
M  V30 2643 H 243.319 -2.08056 -3.66457 0
M  V30 2644 H 241.994 -1.04699 -3.063 0
M  V30 2645 H 240.901 -3.13038 -2.04837 0
M  V30 2646 H 242.234 -4.1078 -2.71147 0
M  V30 2647 N 243.887 0.651787 -1.4349 0
M  V30 2648 C 245.133 1.41376 -1.45398 0
M  V30 2649 C 245.466 1.94041 -0.0784823 0
M  V30 2650 O 244.741 1.72379 0.900878 0
M  V30 2651 C 245.024 2.59414 -2.49752 0
M  V30 2652 C 244.877 2.12232 -3.96582 0
M  V30 2653 C 246.196 3.61626 -2.50827 0
M  V30 2654 H 243.315 0.512719 -0.529422 0
M  V30 2655 H 245.957 0.738796 -1.75048 0
M  V30 2656 H 244.107 3.16997 -2.246 0
M  V30 2657 H 245.779 1.59639 -4.32797 0
M  V30 2658 H 244.022 1.43592 -4.09346 0
M  V30 2659 H 244.693 2.9712 -4.65214 0
M  V30 2660 H 247.169 3.13805 -2.7325 0
M  V30 2661 H 246.045 4.41766 -3.25783 0
M  V30 2662 H 246.306 4.14314 -1.5426 0
M  V30 2663 N 245.365 1.30045 0.890287 0
M  V30 2664 C 246.611 1.18737 1.64406 0
M  V30 2665 C 246.944 -0.258525 1.92472 0
M  V30 2666 O 246.219 -1.18562 1.54186 0
M  V30 2667 C 246.502 2.01087 2.98724 0
M  V30 2668 C 246.355 3.53867 2.77665 0
M  V30 2669 C 247.674 1.84457 3.9958 0
M  V30 2670 H 244.793 0.432698 0.596608 0
M  V30 2671 H 247.435 1.5962 1.0306 0
M  V30 2672 H 245.585 1.66349 3.51084 0
M  V30 2673 H 247.257 3.98637 2.32133 0
M  V30 2674 H 245.5 3.78318 2.12269 0
M  V30 2675 H 246.171 4.06772 3.7315 0
M  V30 2676 H 248.647 2.14817 3.56361 0
M  V30 2677 H 247.523 2.44411 4.91482 0
M  V30 2678 H 247.784 0.802276 4.3476 0
M  V30 2679 N 246.843 -1.10192 1.12674 0
M  V30 2680 C 247.791 -2.18694 0.792196 0
M  V30 2681 C 248.785 -1.67938 -0.222058 0
M  V30 2682 O 249.991 -1.79822 -0.0800074 0
M  V30 2683 H 246.366 -0.713223 0.238364 0
M  V30 2684 H 248.337 -2.44149 1.71564 0
M  V30 2685 C 247.086 -3.46682 0.265859 0
M  V30 2686 H 246.409 -3.86101 1.03761 0
M  V30 2687 H 247.849 -4.23942 0.0701128 0
M  V30 2688 C 246.308 -3.21506 -1.00675 0
M  V30 2689 O 246.838 -3.43408 -2.08408 0
M  V30 2690 N 245.044 -2.75158 -0.934692 0
M  V30 2691 H 244.591 -2.57535 -0.0578604 0
M  V30 2692 H 244.549 -2.58691 -1.7868 0
M  V30 2693 N 248.321 -0.919034 -1.28029 0
M  V30 2694 C 249.271 -0.382574 -2.24767 0
M  V30 2695 C 250.255 0.508286 -1.52661 0
M  V30 2696 O 251.447 0.347145 -1.73562 0
M  V30 2697 C 248.576 0.371432 -3.41285 0
M  V30 2698 C 247.662 -0.535449 -4.20706 0
M  V30 2699 N 248.053 -1.65141 -4.78082 0
M  V30 2700 C 246.351 -0.336824 -4.44726 0
M  V30 2701 C 247.052 -2.21475 -5.37888 0
M  V30 2702 N 246.028 -1.50537 -5.22341 0
M  V30 2703 H 249.83 -1.23477 -2.66703 0
M  V30 2704 H 247.344 -0.772299 -1.42861 0
M  V30 2705 H 249.341 0.772638 -4.09678 0
M  V30 2706 H 248.001 1.22066 -3.00882 0
M  V30 2707 H 249.012 -2.03392 -4.7629 0
M  V30 2708 H 245.689 0.47246 -4.14818 0
M  V30 2709 H 247.079 -3.15379 -5.93284 0
M  V30 2710 N 249.799 1.42003 -0.683588 0
M  V30 2711 C 251.046 2.01413 -0.209514 0
M  V30 2712 C 251.374 1.54088 1.1869 0
M  V30 2713 O 250.629 0.737591 1.81268 0
M  V30 2714 C 250.928 3.56827 -0.202357 0
M  V30 2715 C 250.594 4.23617 -1.54464 0
M  V30 2716 C 249.256 4.41577 -1.91215 0
M  V30 2717 C 251.608 4.61178 -2.42826 0
M  V30 2718 C 248.936 4.9437 -3.15935 0
M  V30 2719 C 251.288 5.15355 -3.66867 0
M  V30 2720 C 249.952 5.31528 -4.03776 0
M  V30 2721 H 249.222 0.737023 -0.0766668 0
M  V30 2722 H 251.869 1.70067 -0.880312 0
M  V30 2723 H 250.174 3.87892 0.551969 0
M  V30 2724 H 251.871 4.00588 0.181793 0
M  V30 2725 H 248.461 4.10004 -1.24877 0
M  V30 2726 H 252.645 4.46968 -2.15717 0
M  V30 2727 H 247.901 5.05076 -3.44541 0
M  V30 2728 H 252.075 5.43402 -4.35531 0
M  V30 2729 H 249.702 5.72199 -5.00492 0
M  V30 2730 N 251.277 0.427512 1.51691 0
M  V30 2731 C 252.505 -0.141191 2.06418 0
M  V30 2732 C 252.92 -1.37303 1.29589 0
M  V30 2733 O 252.277 -1.79059 0.352732 0
M  V30 2734 C 252.328 -0.473266 3.58389 0
M  V30 2735 O 252.049 0.709673 4.32314 0
M  V30 2736 C 253.55 -1.09371 4.29596 0
M  V30 2737 H 250.77 -0.0122747 0.670888 0
M  V30 2738 H 253.314 0.603764 1.95384 0
M  V30 2739 H 251.469 -1.16812 3.69369 0
M  V30 2740 H 251.883 0.42807 5.2275 0
M  V30 2741 H 253.357 -1.27613 5.37046 0
M  V30 2742 H 253.834 -2.072 3.87253 0
M  V30 2743 H 254.44 -0.43853 4.23033 0
M  V30 2744 N 252.755 -1.56801 0.158532 0
M  V30 2745 C 254.166 -1.83189 -0.360366 0
M  V30 2746 C 254.517 -1.07778 -1.63946 0
M  V30 2747 O 253.642 -0.326718 -2.13919 0
M  V30 2748 C 254.237 -3.32297 -0.660595 0
M  V30 2749 C 252.796 -3.59227 -1.12398 0
M  V30 2750 C 251.943 -2.76877 -0.153097 0
M  V30 2751 H 254.894 -1.54008 0.383031 0
M  V30 2752 H 254.915 -3.4908 -1.51405 0
M  V30 2753 H 254.427 -3.87156 0.270527 0
M  V30 2754 H 252.528 -3.09766 -2.07064 0
M  V30 2755 H 252.641 -4.67632 -1.04197 0
M  V30 2756 H 251.005 -2.46319 -0.647983 0
M  V30 2757 H 251.788 -3.34511 0.77182 0
M  V30 2758 N 254.233 0.115231 -1.57178 0
M  V30 2759 C 255.143 1.15994 -2.03918 0
M  V30 2760 C 256.159 1.45103 -0.960268 0
M  V30 2761 O 257.335 1.56144 -1.27204 0
M  V30 2762 C 254.4 2.46568 -2.43732 0
M  V30 2763 C 253.461 2.24822 -3.65723 0
M  V30 2764 C 252.694 3.4917 -4.03629 0
M  V30 2765 O 252.917 4.56623 -3.41835 0
M  V30 2766 O 251.851 3.39949 -4.96708 0
M  V30 2767 H 255.677 0.793019 -2.93164 0
M  V30 2768 H 253.262 0.3263 -1.45793 0
M  V30 2769 H 255.144 3.23492 -2.70057 0
M  V30 2770 H 253.819 2.82726 -1.57631 0
M  V30 2771 H 252.726 1.45744 -3.44542 0
M  V30 2772 H 254.059 1.93566 -4.52541 0
M  V30 2773 N 255.711 1.52812 0.385517 0
M  V30 2774 C 256.659 1.78482 1.49155 0
M  V30 2775 C 257.653 0.652914 1.56312 0
M  V30 2776 O 258.859 0.835464 1.59436 0
M  V30 2777 H 255.234 0.5648 0.496493 0
M  V30 2778 H 257.205 2.71095 1.24699 0
M  V30 2779 C 255.954 1.97378 2.86247 0
M  V30 2780 H 255.277 2.83907 2.81491 0
M  V30 2781 H 256.717 2.19327 3.62866 0
M  V30 2782 C 255.176 0.74728 3.28508 0
M  V30 2783 O 255.706 -0.0736232 4.01633 0
M  V30 2784 N 253.912 0.576396 2.84826 0
M  V30 2785 H 253.459 1.24555 2.25486 0
M  V30 2786 H 253.417 -0.24288 3.1346 0
M  V30 2787 N 257.189 -0.644168 1.43834 0
M  V30 2788 C 258.136 -1.75671 1.49694 0
M  V30 2789 C 259.106 -1.6246 0.345809 0
M  V30 2790 O 260.291 -1.82573 0.554234 0
M  V30 2791 C 257.431 -3.13867 1.43463 0
M  V30 2792 C 256.544 -3.38147 2.6885 0
M  V30 2793 C 255.679 -4.66241 2.54544 0
M  V30 2794 C 254.718 -4.83657 3.75157 0
M  V30 2795 N 253.855 -6.03016 3.59605 0
M  V30 2796 H 258.695 -1.69998 2.44754 0
M  V30 2797 H 256.232 -0.829458 1.21484 0
M  V30 2798 H 258.19 -3.9377 1.37843 0
M  V30 2799 H 256.82 -3.18588 0.519783 0
M  V30 2800 H 255.872 -2.52276 2.84712 0
M  V30 2801 H 257.184 -3.46899 3.58417 0
M  V30 2802 H 256.338 -5.54285 2.46683 0
M  V30 2803 H 255.077 -4.59826 1.62516 0
M  V30 2804 H 254.082 -3.94046 3.83416 0
M  V30 2805 H 255.307 -4.91896 4.68204 0
M  V30 2806 H 253.253 -5.97715 2.7032 0
M  V30 2807 H 253.17 -6.12766 4.42779 0
M  V30 2808 H 254.438 -6.93657 3.55613 0
M  V30 2809 N 258.668 -1.30515 -0.883378 0
M  V30 2810 C 259.616 -1.16941 -2.01066 0
M  V30 2811 C 260.61 -0.0809148 -1.69207 0
M  V30 2812 O 261.816 -0.241877 -1.78367 0
M  V30 2813 H 258.191 -0.361705 -0.659298 0
M  V30 2814 H 260.162 -2.12344 -2.09649 0
M  V30 2815 C 258.911 -0.879694 -3.36388 0
M  V30 2816 H 258.234 -1.70936 -3.61415 0
M  V30 2817 H 259.674 -0.82483 -4.159 0
M  V30 2818 C 258.133 0.417409 -3.34304 0
M  V30 2819 O 258.663 1.43843 -3.75063 0
M  V30 2820 N 256.869 0.429141 -2.87414 0
M  V30 2821 H 256.416 -0.402222 -2.5444 0
M  V30 2822 H 256.374 1.29696 -2.86403 0
M  V30 2823 N 260.146 1.09593 -1.13257 0
M  V30 2824 C 261.376 1.85231 -0.915049 0
M  V30 2825 C 261.784 1.81345 0.539498 0
M  V30 2826 O 261.127 1.20664 1.38513 0
M  V30 2827 C 261.189 3.34275 -1.3229 0
M  V30 2828 C 260.853 3.6191 -2.79052 0
M  V30 2829 C 261.85 3.57777 -3.77216 0
M  V30 2830 C 259.535 3.90309 -3.16171 0
M  V30 2831 C 261.529 3.81652 -5.1051 0
M  V30 2832 C 259.216 4.13839 -4.49644 0
M  V30 2833 C 260.214 4.09502 -5.46623 0
M  V30 2834 O 259.902 4.32426 -6.77689 0
M  V30 2835 H 259.634 0.591997 -0.326367 0
M  V30 2836 H 262.188 1.394 -1.50854 0
M  V30 2837 H 260.418 3.80805 -0.672667 0
M  V30 2838 H 262.107 3.9132 -1.07812 0
M  V30 2839 H 262.873 3.35865 -3.49885 0
M  V30 2840 H 258.752 3.92811 -2.41289 0
M  V30 2841 H 262.296 3.78182 -5.86195 0
M  V30 2842 H 258.193 4.35232 -4.767 0
M  V30 2843 H 258.961 4.49896 -6.83766 0
M  V30 2844 N 261.624 0.925811 1.2754 0
M  V30 2845 C 262.854 0.580666 1.98272 0
M  V30 2846 C 263.262 -0.845207 1.69272 0
M  V30 2847 O 262.605 -1.57306 0.948707 0
M  V30 2848 C 262.667 0.724418 3.52126 0
M  V30 2849 C 262.331 2.12206 4.04744 0
M  V30 2850 C 263.328 3.09604 4.17662 0
M  V30 2851 C 261.013 2.4385 4.39138 0
M  V30 2852 C 263.007 4.36755 4.64246 0
M  V30 2853 C 260.694 3.71237 4.85414 0
M  V30 2854 C 261.692 4.67503 4.97926 0
M  V30 2855 O 261.38 5.92624 5.43187 0
M  V30 2856 H 261.112 0.218987 0.639547 0
M  V30 2857 H 263.666 1.24452 1.63404 0
M  V30 2858 H 261.896 0.0034663 3.867 0
M  V30 2859 H 263.585 0.384607 4.04074 0
M  V30 2860 H 264.351 2.86478 3.91351 0
M  V30 2861 H 260.23 1.69665 4.28643 0
M  V30 2862 H 263.774 5.11898 4.73927 0
M  V30 2863 H 259.671 3.94182 5.11166 0
M  V30 2864 H 260.439 5.95585 5.61445 0
M  V30 2865 N 263.102 -1.41638 0.69111 0
M  V30 2866 C 264.349 -2.01299 0.220193 0
M  V30 2867 C 264.677 -1.54715 -1.17871 0
M  V30 2868 O 263.932 -0.747193 -1.80874 0
M  V30 2869 C 264.231 -3.56714 0.221277 0
M  V30 2870 C 263.897 -4.22792 1.56709 0
M  V30 2871 C 262.559 -4.40557 1.93554 0
M  V30 2872 C 264.911 -4.59883 2.45268 0
M  V30 2873 C 262.239 -4.92688 3.18552 0
M  V30 2874 C 264.591 -5.13403 3.69595 0
M  V30 2875 C 263.255 -5.29379 4.06589 0
M  V30 2876 H 262.525 -0.736606 0.0805743 0
M  V30 2877 H 265.172 -1.69598 0.889319 0
M  V30 2878 H 263.477 -3.8818 -0.531391 0
M  V30 2879 H 265.174 -4.00678 -0.160547 0
M  V30 2880 H 261.764 -4.09336 1.2705 0
M  V30 2881 H 265.948 -4.45817 2.18084 0
M  V30 2882 H 261.204 -5.03242 3.47214 0
M  V30 2883 H 265.378 -5.41084 4.38407 0
M  V30 2884 H 263.005 -5.69537 5.03519 0
M  V30 2885 N 264.58 -0.43555 -1.51462 0
M  V30 2886 C 265.828 0.131254 -2.01673 0
M  V30 2887 C 266.149 1.43368 -1.32177 0
M  V30 2888 O 265.419 1.90524 -0.455769 0
M  V30 2889 H 263.999 0.0514954 -0.745223 0
M  V30 2890 H 266.661 -0.577847 -1.86137 0
M  V30 2891 H 265.757 0.308446 -3.10572 0
M  V30 2892 N 266.058 1.56714 -0.166846 0
M  V30 2893 C 267.283 2.01557 0.488833 0
M  V30 2894 C 267.708 1.0463 1.56314 0
M  V30 2895 O 267.066 0.0251304 1.81283 0
M  V30 2896 C 267.114 3.4503 1.04818 0
M  V30 2897 O 266.218 3.51163 2.16236 0
M  V30 2898 H 265.559 0.653516 0.117526 0
M  V30 2899 H 268.089 2.02818 -0.269421 0
M  V30 2900 H 268.099 3.84243 1.37191 0
M  V30 2901 H 266.774 4.15077 0.261572 0
M  V30 2902 H 265.351 3.23807 1.84942 0
M  V30 2903 N 267.536 -0.106894 1.57237 0
M  V30 2904 C 268.468 -1.15646 1.97885 0
M  V30 2905 C 269.481 -1.36981 0.879779 0
M  V30 2906 O 270.67 -1.35841 1.15799 0
M  V30 2907 C 267.77 -2.51425 2.27241 0
M  V30 2908 C 266.943 -2.50529 3.58545 0
M  V30 2909 C 266.002 -3.68145 3.75973 0
M  V30 2910 O 265.028 -3.51176 4.47956 0
M  V30 2911 N 266.23 -4.87177 3.15656 0
M  V30 2912 H 268.995 -0.81059 2.8853 0
M  V30 2913 H 266.556 -0.296024 1.59171 0
M  V30 2914 H 268.548 -3.28689 2.36105 0
M  V30 2915 H 267.118 -2.78147 1.42663 0
M  V30 2916 H 266.338 -1.58894 3.60758 0
M  V30 2917 H 267.626 -2.46997 4.44826 0
M  V30 2918 H 267.024 -5.03868 2.57165 0
M  V30 2919 H 265.581 -5.62075 3.30023 0
M  V30 2920 N 269.014 -1.53014 -0.377408 0
M  V30 2921 C 270.261 -1.68623 -1.12128 0
M  V30 2922 C 270.589 -0.431997 -1.89642 0
M  V30 2923 O 269.844 0.585855 -1.86725 0
M  V30 2924 C 270.143 -2.87982 -2.11663 0
M  V30 2925 C 269.809 -4.24964 -1.50719 0
M  V30 2926 C 268.471 -4.62217 -1.33825 0
M  V30 2927 C 270.823 -5.10199 -1.06519 0
M  V30 2928 C 268.151 -5.82352 -0.712963 0
M  V30 2929 C 270.503 -6.30969 -0.453955 0
M  V30 2930 C 269.167 -6.66944 -0.272411 0
M  V30 2931 H 268.437 -0.617034 -0.410305 0
M  V30 2932 H 271.084 -1.8718 -0.404484 0
M  V30 2933 H 269.389 -2.63889 -2.89603 0
M  V30 2934 H 271.086 -2.97253 -2.6915 0
M  V30 2935 H 267.676 -3.95626 -1.64858 0
M  V30 2936 H 271.86 -4.81978 -1.18368 0
M  V30 2937 H 267.116 -6.08824 -0.560611 0
M  V30 2938 H 271.29 -6.96324 -0.103217 0
M  V30 2939 H 268.917 -7.59898 0.214181 0
M  V30 2940 N 270.492 0.636531 -1.44174 0
M  V30 2941 C 271.717 1.42847 -1.50364 0
M  V30 2942 C 272.142 1.87665 -0.127867 0
M  V30 2943 O 271.5 1.58408 0.88185 0
M  V30 2944 C 271.548 2.62854 -2.4686 0
M  V30 2945 O 270.652 3.62501 -1.9664 0
M  V30 2946 H 269.993 0.427642 -0.507955 0
M  V30 2947 H 272.523 0.777422 -1.89255 0
M  V30 2948 H 272.533 3.10465 -2.64718 0
M  V30 2949 H 271.208 2.29578 -3.46795 0
M  V30 2950 H 269.785 3.21735 -1.88523 0
M  V30 2951 N 271.97 1.30982 0.876444 0
M  V30 2952 C 273.216 1.20474 1.63138 0
M  V30 2953 C 273.549 -0.238096 1.92735 0
M  V30 2954 O 272.824 -1.1692 1.55435 0
M  V30 2955 C 273.107 2.04244 2.96574 0
M  V30 2956 C 272.96 3.56793 2.73896 0
M  V30 2957 C 274.279 1.88684 3.97601 0
M  V30 2958 H 271.398 0.439001 0.591985 0
M  V30 2959 H 274.04 1.60704 1.01361 0
M  V30 2960 H 272.19 1.70063 3.493 0
M  V30 2961 H 273.862 4.01077 2.27892 0
M  V30 2962 H 272.105 3.80548 2.08245 0
M  V30 2963 H 272.776 4.10706 3.68815 0
M  V30 2964 H 275.252 2.18584 3.54062 0
M  V30 2965 H 274.128 2.4961 4.88862 0
M  V30 2966 H 274.389 0.848343 4.33884 0
M  V30 2967 N 273.449 -1.08991 1.13837 0
M  V30 2968 C 274.726 -1.77863 0.813876 0
M  V30 2969 C 275.106 -1.99375 -0.693746 0
M  V30 2970 O 274.454 -1.59875 -1.63255 0
M  V30 2971 C 274.664 -3.0986 1.60586 0
M  V30 2972 C 276.012 -3.84493 1.8014 0
M  V30 2973 O 277.036 -3.19624 1.57222 0
M  V30 2974 O 275.895 -5.00957 2.18413 0
M  V30 2975 H 272.989 -0.771589 0.297624 0
M  V30 2976 H 275.535 -1.15507 1.24323 0
M  V30 2977 H 274.307 -2.89715 2.63022 0
M  V30 2978 H 273.93 -3.79942 1.17173 0
M  V30 2979 N 274.927 -0.932562 -1.27047 0
M  V30 2980 C 276.155 -0.592031 -1.98249 0
M  V30 2981 C 276.57 0.831062 -1.69525 0
M  V30 2982 O 275.927 1.55299 -0.958561 0
M  V30 2983 C 275.978 -0.814279 -3.5221 0
M  V30 2984 O 275.699 -2.18139 -3.7993 0
M  V30 2985 C 277.2 -0.483121 -4.4066 0
M  V30 2986 H 274.42 -0.223896 -0.632544 0
M  V30 2987 H 276.964 -1.25091 -1.61779 0
M  V30 2988 H 275.119 -0.20213 -3.86872 0
M  V30 2989 H 275.533 -2.235 -4.74498 0
M  V30 2990 H 277.007 -0.689298 -5.47679 0
M  V30 2991 H 277.484 0.581546 -4.35333 0
M  V30 2992 H 278.09 -1.07362 -4.11526 0
M  V30 2993 N 276.405 1.4127 -0.698611 0
M  V30 2994 C 277.653 2.00782 -0.230409 0
M  V30 2995 C 277.974 1.5562 1.17505 0
M  V30 2996 O 277.244 0.78815 1.79346 0
M  V30 2997 H 275.824 0.742464 -0.0821944 0
M  V30 2998 H 278.486 1.72852 -0.90045 0
M  V30 2999 H 277.582 3.11095 -0.25021 0
M  V30 3000 N 277.883 0.443576 1.51229 0
M  V30 3001 C 278.846 -0.353132 2.26463 0
M  V30 3002 C 279.846 -0.944338 1.3015 0
M  V30 3003 O 281.036 -0.817813 1.5381 0
M  V30 3004 C 278.168 -1.50023 3.06114 0
M  V30 3005 H 279.361 0.3063 2.98332 0
M  V30 3006 H 276.914 0.196902 1.55055 0
M  V30 3007 H 277.649 -2.19553 2.38677 0
M  V30 3008 H 277.434 -1.08241 3.76864 0
M  V30 3009 H 278.924 -2.06296 3.63087 0
M  V30 3010 N 279.361 -1.56624 0.175154 0
M  V30 3011 C 280.294 -2.14 -0.792412 0
M  V30 3012 C 281.272 -1.07114 -1.22333 0
M  V30 3013 O 282.456 -1.35112 -1.31442 0
M  V30 3014 C 279.583 -2.68268 -2.0676 0
M  V30 3015 C 278.629 -3.87562 -1.7804 0
M  V30 3016 S 279.462 -5.27074 -0.946222 0
M  V30 3017 C 280.618 -5.8475 -2.23199 0
M  V30 3018 H 280.851 -2.95736 -0.304588 0
M  V30 3019 H 278.384 -1.54349 -0.0395705 0
M  V30 3020 H 280.342 -3.00182 -2.80002 0
M  V30 3021 H 279.003 -1.86612 -2.52656 0
M  V30 3022 H 278.196 -4.23874 -2.72666 0
M  V30 3023 H 277.798 -3.56555 -1.12891 0
M  V30 3024 H 280.09 -5.97898 -3.18629 0
M  V30 3025 H 281.033 -6.81756 -1.91349 0
M  V30 3026 H 281.441 -5.13198 -2.35134 0
M  V30 3027 N 280.839 0.0985539 -1.57292 0
M  V30 3028 C 281.802 1.10402 -2.00858 0
M  V30 3029 C 282.802 1.33146 -0.901593 0
M  V30 3030 O 283.992 1.29318 -1.16716 0
M  V30 3031 C 281.124 2.45394 -2.36632 0
M  V30 3032 H 282.317 0.729099 -2.90902 0
M  V30 3033 H 279.87 0.343495 -1.52479 0
M  V30 3034 H 280.605 2.87769 -1.49531 0
M  V30 3035 H 280.39 2.30235 -3.17387 0
M  V30 3036 H 281.88 3.17718 -2.71007 0
M  V30 3037 N 282.317 1.53212 0.369288 0
M  V30 3038 C 283.563 1.69466 1.11397 0
M  V30 3039 C 283.896 0.443257 1.89074 0
M  V30 3040 O 283.171 -0.559386 1.86282 0
M  V30 3041 C 283.454 2.9422 2.07621 0
M  V30 3042 C 283.307 4.29508 1.33577 0
M  V30 3043 C 284.626 3.14565 3.07794 0
M  V30 3044 H 281.745 0.616667 0.403597 0
M  V30 3045 H 284.387 1.85845 0.395179 0
M  V30 3046 H 282.537 2.80387 2.68916 0
M  V30 3047 H 284.209 4.55147 0.750955 0
M  V30 3048 H 282.452 4.29088 0.637618 0
M  V30 3049 H 283.123 5.12926 2.03989 0
M  V30 3050 H 285.599 3.2756 2.56601 0
M  V30 3051 H 284.475 4.03297 3.72348 0
M  V30 3052 H 284.736 2.29675 3.77759 0
M  V30 3053 N 283.795 -0.628877 1.44509 0
M  V30 3054 C 284.725 -1.75187 1.54376 0
M  V30 3055 C 285.706 -1.65411 0.396618 0
M  V30 3056 O 286.891 -1.84137 0.617031 0
M  V30 3057 C 284.021 -3.13725 1.48976 0
M  V30 3058 C 282.975 -3.38291 2.62189 0
M  V30 3059 C 282.301 -4.76883 2.41841 0
M  V30 3060 C 283.601 -3.30632 4.04326 0
M  V30 3061 H 285.295 -1.67187 2.48373 0
M  V30 3062 H 282.841 -0.802909 1.19538 0
M  V30 3063 H 284.794 -3.92064 1.54478 0
M  V30 3064 H 283.518 -3.22515 0.514961 0
M  V30 3065 H 282.177 -2.62334 2.56079 0
M  V30 3066 H 281.825 -4.82378 1.42548 0
M  V30 3067 H 281.525 -4.94278 3.17747 0
M  V30 3068 H 283.049 -5.57449 2.49165 0
M  V30 3069 H 284.463 -3.98873 4.11793 0
M  V30 3070 H 282.86 -3.59561 4.80454 0
M  V30 3071 H 283.93 -2.28404 4.27738 0
M  V30 3072 N 285.273 -1.31445 -0.869486 0
M  V30 3073 C 286.236 -1.19094 -1.9583 0
M  V30 3074 C 287.236 -0.117906 -1.60367 0
M  V30 3075 O 288.426 -0.367208 -1.70286 0
M  V30 3076 C 285.558 -0.828165 -3.30688 0
M  V30 3077 H 286.751 -2.15842 -2.08212 0
M  V30 3078 H 284.304 -1.15063 -1.05784 0
M  V30 3079 H 285.039 0.138142 -3.24006 0
M  V30 3080 H 284.824 -1.6038 -3.578 0
M  V30 3081 H 286.314 -0.765658 -4.10521 0
M  V30 3082 N 286.751 1.08385 -1.14413 0
M  V30 3083 C 287.681 2.17321 -0.854044 0
M  V30 3084 C 288.662 1.69024 0.191049 0
M  V30 3085 O 289.847 1.94141 0.0476779 0
M  V30 3086 C 286.977 3.45719 -0.330983 0
M  V30 3087 C 285.931 4.07409 -1.31155 0
M  V30 3088 C 285.257 5.30762 -0.64778 0
M  V30 3089 C 286.557 4.48665 -2.67388 0
M  V30 3090 H 288.251 2.41845 -1.76498 0
M  V30 3091 H 285.797 1.16233 -0.850051 0
M  V30 3092 H 287.75 4.21241 -0.115645 0
M  V30 3093 H 286.474 3.2075 0.615381 0
M  V30 3094 H 285.133 3.33919 -1.51306 0
M  V30 3095 H 284.781 5.02078 0.304398 0
M  V30 3096 H 284.481 5.72992 -1.30207 0
M  V30 3097 H 286.005 6.08998 -0.441972 0
M  V30 3098 H 287.419 5.15364 -2.51143 0
M  V30 3099 H 285.816 5.01814 -3.29093 0
M  V30 3100 H 286.886 3.60543 -3.24248 0
M  V30 3101 N 288.23 0.939286 1.26551 0
M  V30 3102 C 289.458 0.602536 1.97932 0
M  V30 3103 C 289.873 -0.82206 1.69964 0
M  V30 3104 O 289.23 -1.54789 0.966784 0
M  V30 3105 C 289.281 0.832946 3.51773 0
M  V30 3106 O 289.002 2.20151 3.78768 0
M  V30 3107 C 290.503 0.506483 4.40397 0
M  V30 3108 H 287.723 0.227248 0.631347 0
M  V30 3109 H 290.267 1.25948 1.61113 0
M  V30 3110 H 288.422 0.222644 3.8676 0
M  V30 3111 H 288.836 2.26013 4.73306 0
M  V30 3112 H 290.31 0.718333 5.47306 0
M  V30 3113 H 290.787 -0.558451 4.35635 0
M  V30 3114 H 291.393 1.09543 4.10951 0
M  V30 3115 N 289.708 -1.40897 0.706093 0
M  V30 3116 C 290.948 -2.02916 0.245827 0
M  V30 3117 C 291.312 -1.54751 -1.13649 0
M  V30 3118 O 292.513 -2.08768 -1.69321 0
M  V30 3119 C 290.784 -3.56031 0.312537 0
M  V30 3120 S 292.343 -4.38741 -0.0721388 0
M  V30 3121 H 289.161 -0.704186 0.0982007 0
M  V30 3122 H 291.763 -1.72168 0.926207 0
M  V30 3123 H 290.467 -3.88579 1.32039 0
M  V30 3124 H 289.998 -3.91495 -0.386641 0
M  V30 3125 H 292.013 -4.78952 -1.29692 0
M  V30 3126 N 291.186 -0.45159 -1.50991 0
M  V30 3127 C 292.432 0.110237 -2.025 0
M  V30 3128 C 292.765 1.41109 -1.33424 0
M  V30 3129 O 292.04 1.89135 -0.453659 0
M  V30 3130 C 292.323 0.314271 -3.58726 0
M  V30 3131 C 292.176 -1.00623 -4.38401 0
M  V30 3132 C 293.495 1.07767 -4.26702 0
M  V30 3133 H 290.614 0.0385897 -0.735989 0
M  V30 3134 H 293.256 -0.593374 -1.80497 0
M  V30 3135 H 291.406 0.913601 -3.77605 0
M  V30 3136 H 293.078 -1.64064 -4.31139 0
M  V30 3137 H 291.321 -1.6075 -4.02917 0
M  V30 3138 H 291.992 -0.817341 -5.45915 0
M  V30 3139 H 294.468 0.56986 -4.12179 0
M  V30 3140 H 293.344 1.18921 -5.35863 0
M  V30 3141 H 293.605 2.10939 -3.88532 0
M  V30 3142 N 292.664 1.56529 -0.183458 0
M  V30 3143 C 293.611 2.18546 0.742055 0
M  V30 3144 C 294.581 1.12912 1.2182 0
M  V30 3145 O 295.766 1.41115 1.28418 0
M  V30 3146 C 292.906 2.83977 1.96089 0
M  V30 3147 C 292.019 4.04105 1.52719 0
M  V30 3148 C 291.154 4.57427 2.70063 0
M  V30 3149 C 290.193 5.69938 2.23243 0
M  V30 3150 N 289.33 6.17717 3.33722 0
M  V30 3151 H 294.17 2.97284 0.206432 0
M  V30 3152 H 291.707 1.46823 0.0901571 0
M  V30 3153 H 293.665 3.20077 2.67594 0
M  V30 3154 H 292.295 2.07822 2.47002 0
M  V30 3155 H 291.347 3.73745 0.708436 0
M  V30 3156 H 292.659 4.85513 1.1436 0
M  V30 3157 H 291.813 4.95772 3.49708 0
M  V30 3158 H 290.552 3.75101 3.11689 0
M  V30 3159 H 289.557 5.31133 1.42048 0
M  V30 3160 H 290.782 6.54073 1.82661 0
M  V30 3161 H 288.728 5.38317 3.74902 0
M  V30 3162 H 288.645 6.94146 2.99495 0
M  V30 3163 H 289.913 6.60713 4.13616 0
M  V30 3164 N 294.142 -0.090211 1.57342 0
M  V30 3165 C 295.089 -1.10909 2.02405 0
M  V30 3166 C 296.059 -1.39523 0.901252 0
M  V30 3167 O 297.244 -1.50903 1.1676 0
M  V30 3168 C 294.384 -2.42277 2.45755 0
M  V30 3169 C 293.497 -2.20352 3.71576 0
M  V30 3170 C 292.632 -3.45154 4.03785 0
M  V30 3171 C 291.671 -3.18512 5.22701 0
M  V30 3172 N 290.808 -4.35593 5.50639 0
M  V30 3173 H 295.648 -0.71782 2.89225 0
M  V30 3174 H 293.185 -0.342901 1.43048 0
M  V30 3175 H 295.143 -3.18951 2.68935 0
M  V30 3176 H 293.773 -2.79242 1.61938 0
M  V30 3177 H 292.825 -1.34458 3.55844 0
M  V30 3178 H 294.137 -1.96661 4.58395 0
M  V30 3179 H 293.291 -4.30233 4.27767 0
M  V30 3180 H 292.03 -3.71904 3.15498 0
M  V30 3181 H 291.035 -2.31827 4.98534 0
M  V30 3182 H 292.26 -2.93103 6.12591 0
M  V30 3183 H 290.206 -4.6241 4.6531 0
M  V30 3184 H 290.123 -4.1511 6.31838 0
M  V30 3185 H 291.391 -5.21723 5.7916 0
M  V30 3186 N 295.62 -1.53406 -0.361157 0
M  V30 3187 C 296.845 -1.74024 -1.12829 0
M  V30 3188 C 297.27 -0.470069 -1.82132 0
M  V30 3189 O 296.628 0.57619 -1.719 0
M  V30 3190 C 296.676 -2.90903 -2.13091 0
M  V30 3191 O 295.78 -2.59821 -3.20261 0
M  V30 3192 H 295.121 -0.577804 -0.327168 0
M  V30 3193 H 297.651 -2.00307 -0.41693 0
M  V30 3194 H 297.661 -3.17194 -2.56616 0
M  V30 3195 H 296.336 -3.83034 -1.62042 0
M  V30 3196 H 294.913 -2.44362 -2.81677 0
M  V30 3197 N 297.098 0.621204 -1.44841 0
M  V30 3198 C 298.028 1.74366 -1.55303 0
M  V30 3199 C 299.009 1.65199 -0.405385 0
M  V30 3200 O 300.194 1.83807 -0.626787 0
M  V30 3201 C 297.324 3.12931 -1.50637 0
M  V30 3202 C 296.278 3.36896 -2.63979 0
M  V30 3203 C 295.604 4.75594 -2.44366 0
M  V30 3204 C 296.904 3.28483 -4.06074 0
M  V30 3205 H 298.598 1.65867 -2.49256 0
M  V30 3206 H 296.144 0.796558 -1.19962 0
M  V30 3207 H 298.097 3.9124 -1.56555 0
M  V30 3208 H 296.821 3.22237 -0.532057 0
M  V30 3209 H 295.48 2.60972 -2.57467 0
M  V30 3210 H 295.128 4.81616 -1.45105 0
M  V30 3211 H 294.828 4.92586 -3.20364 0
M  V30 3212 H 296.352 5.5612 -2.52117 0
M  V30 3213 H 297.766 3.96684 -4.13902 0
M  V30 3214 H 296.163 3.57008 -4.82354 0
M  V30 3215 H 297.233 2.26133 -4.28943 0
M  V30 3216 N 298.576 1.31904 0.862503 0
M  V30 3217 C 299.825 1.21373 1.61094 0
M  V30 3218 C 300.138 -0.22504 1.94301 0
M  V30 3219 O 301.344 -0.452121 2.67709 0
M  V30 3220 C 299.8 2.12525 2.9045 0
M  V30 3221 C 299.408 3.61441 2.64697 0
M  V30 3222 C 301.152 2.10813 3.68454 0
M  V30 3223 C 299.059 4.44578 3.90006 0
M  V30 3224 H 297.989 0.450705 0.604468 0
M  V30 3225 H 300.64 1.56811 0.953027 0
M  V30 3226 H 299.022 1.69994 3.57656 0
M  V30 3227 H 300.196 4.12264 2.05851 0
M  V30 3228 H 298.511 3.65205 2.00036 0
M  V30 3229 H 301.108 2.70167 4.61426 0
M  V30 3230 H 301.451 1.09713 4.01583 0
M  V30 3231 H 301.984 2.51583 3.08141 0
M  V30 3232 H 298.723 5.46461 3.62023 0
M  V30 3233 H 298.243 3.98508 4.48276 0
M  V30 3234 H 299.922 4.57176 4.5782 0
M  V30 3235 N 300.054 -1.07777 1.14986 0
M  V30 3236 C 301.002 -2.16964 0.838406 0
M  V30 3237 C 301.996 -1.68372 -0.186386 0
M  V30 3238 O 303.202 -1.79951 -0.0418465 0
M  V30 3239 H 299.577 -0.708006 0.253439 0
M  V30 3240 H 301.548 -2.40454 1.76704 0
M  V30 3241 C 300.297 -3.4604 0.339335 0
M  V30 3242 H 299.62 -3.83813 1.11927 0
M  V30 3243 H 301.06 -4.23698 0.160021 0
M  V30 3244 C 299.519 -3.23569 -0.938325 0
M  V30 3245 O 300.049 -3.47752 -2.01077 0
M  V30 3246 N 298.255 -2.77079 -0.876117 0
M  V30 3247 H 297.802 -2.576 -0.00322037 0
M  V30 3248 H 297.76 -2.62422 -1.73153 0
M  V30 3249 N 301.532 -0.945985 -1.26051 0
M  V30 3250 C 302.78 -0.594941 -1.93145 0
M  V30 3251 C 303.101 0.86953 -1.7454 0
M  V30 3252 O 302.371 1.61838 -1.10387 0
M  V30 3253 H 300.951 -0.217044 -0.714773 0
M  V30 3254 H 303.613 -1.20235 -1.53393 0
M  V30 3255 H 302.709 -0.816835 -3.01221 0
M  V30 3256 N 303.011 1.40521 -0.713556 0
M  V30 3257 C 303.943 2.29191 -0.0203126 0
M  V30 3258 C 304.956 1.45723 0.725864 0
M  V30 3259 O 306.145 1.69033 0.573581 0
M  V30 3260 C 303.245 3.2395 0.995486 0
M  V30 3261 C 302.418 4.36262 0.315256 0
M  V30 3262 C 301.477 5.11474 1.23616 0
M  V30 3263 O 300.503 5.64606 0.721719 0
M  V30 3264 N 301.705 5.20638 2.56743 0
M  V30 3265 H 304.47 2.89327 -0.781652 0
M  V30 3266 H 302.031 1.51869 -0.561022 0
M  V30 3267 H 304.023 3.71137 1.61368 0
M  V30 3268 H 302.593 2.64995 1.6582 0
M  V30 3269 H 301.813 3.91228 -0.483106 0
M  V30 3270 H 303.101 5.08558 -0.157004 0
M  V30 3271 H 302.499 4.7895 3.01037 0
M  V30 3272 H 301.056 5.71339 3.13712 0
M  V30 3273 N 304.489 0.459591 1.5075 0
M  V30 3274 C 305.738 -0.100971 2.01447 0
M  V30 3275 C 306.051 -1.41816 1.34713 0
M  V30 3276 O 307.257 -2.06299 1.76502 0
M  V30 3277 C 305.713 -0.23047 3.59161 0
M  V30 3278 C 305.321 1.0776 4.34847 0
M  V30 3279 C 307.065 -0.743608 4.17936 0
M  V30 3280 C 304.972 0.91253 5.84317 0
M  V30 3281 H 303.902 -0.0415102 0.752856 0
M  V30 3282 H 306.553 0.592742 1.73663 0
M  V30 3283 H 304.935 -0.987703 3.83485 0
M  V30 3284 H 306.109 1.8449 4.22256 0
M  V30 3285 H 304.424 1.52097 3.87628 0
M  V30 3286 H 307.021 -0.883959 5.27343 0
M  V30 3287 H 307.364 -1.73196 3.78562 0
M  V30 3288 H 307.897 -0.04408 3.97776 0
M  V30 3289 H 304.636 1.87391 6.28144 0
M  V30 3290 H 304.156 0.185422 5.99513 0
M  V30 3291 H 305.835 0.574547 6.44444 0
M  V30 3292 N 305.967 -1.56429 0.191757 0
M  V30 3293 C 306.914 -2.18936 -0.730454 0
M  V30 3294 C 307.884 -1.13557 -1.21219 0
M  V30 3295 O 309.069 -1.41794 -1.27668 0
M  V30 3296 C 306.209 -2.85013 -1.9458 0
M  V30 3297 C 305.322 -4.04909 -1.50574 0
M  V30 3298 C 304.457 -4.58853 -2.67634 0
M  V30 3299 C 303.496 -5.71114 -2.20217 0
M  V30 3300 N 302.633 -6.19478 -3.30442 0
M  V30 3301 H 307.473 -2.97389 -0.190664 0
M  V30 3302 H 305.01 -1.46869 -0.0823694 0
M  V30 3303 H 306.968 -3.21492 -2.65893 0
M  V30 3304 H 305.598 -2.09129 -2.45896 0
M  V30 3305 H 304.65 -3.74115 -0.688605 0
M  V30 3306 H 305.962 -4.86113 -1.11784 0
M  V30 3307 H 305.116 -4.97619 -3.47074 0
M  V30 3308 H 303.855 -3.76749 -3.09696 0
M  V30 3309 H 302.86 -5.31879 -1.3923 0
M  V30 3310 H 304.085 -6.55033 -1.79189 0
M  V30 3311 H 302.031 -5.40297 -3.72041 0
M  V30 3312 H 301.948 -6.95725 -2.9581 0
M  V30 3313 H 303.216 -6.62898 -4.10106 0
M  V30 3314 N 307.445 0.0818655 -1.57387 0
M  V30 3315 C 308.408 1.08265 -2.02018 0
M  V30 3316 C 309.408 1.32183 -0.915664 0
M  V30 3317 O 310.598 1.28073 -1.18081 0
M  V30 3318 C 307.73 2.42871 -2.39221 0
M  V30 3319 H 308.923 0.698204 -2.91659 0
M  V30 3320 H 306.476 0.327303 -1.52835 0
M  V30 3321 H 307.211 2.86167 -1.52575 0
M  V30 3322 H 306.996 2.26855 -3.19811 0
M  V30 3323 H 308.486 3.14826 -2.74362 0
M  V30 3324 N 308.923 1.53595 0.353017 0
M  V30 3325 C 310.2 1.61002 1.11075 0
M  V30 3326 C 310.58 0.425356 2.0677 0
M  V30 3327 O 309.928 -0.583267 2.2093 0
M  V30 3328 C 310.138 2.96631 1.83877 0
M  V30 3329 C 311.486 3.51653 2.37961 0
M  V30 3330 O 312.51 2.98743 1.93987 0
M  V30 3331 O 311.369 4.44177 3.18386 0
M  V30 3332 H 308.463 0.650825 0.510251 0
M  V30 3333 H 311.009 1.6594 0.35527 0
M  V30 3334 H 309.781 3.74293 1.14108 0
M  V30 3335 H 309.404 2.95242 2.66304 0
M  V30 3336 N 310.401 -0.613514 1.45168 0
M  V30 3337 C 311.311 -1.75296 1.55912 0
M  V30 3338 C 312.327 -1.68244 0.443856 0
M  V30 3339 O 313.503 -1.88706 0.70371 0
M  V30 3340 C 310.568 -3.1174 1.5172 0
M  V30 3341 C 309.629 -3.30291 2.74238 0
M  V30 3342 C 308.862 -4.60226 2.70236 0
M  V30 3343 O 309.085 -5.42168 1.77229 0
M  V30 3344 O 308.019 -4.81361 3.61352 0
M  V30 3345 H 311.845 -1.69183 2.52212 0
M  V30 3346 H 309.43 -0.776886 1.27612 0
M  V30 3347 H 311.312 -3.93044 1.51968 0
M  V30 3348 H 309.987 -3.18357 0.585697 0
M  V30 3349 H 308.894 -2.48598 2.79553 0
M  V30 3350 H 310.227 -3.28547 3.66494 0
M  V30 3351 N 311.879 -1.3236 -0.855495 0
M  V30 3352 C 313.127 -1.22629 -1.60644 0
M  V30 3353 C 313.448 0.212136 -1.93843 0
M  V30 3354 O 312.718 1.13666 -1.59552 0
M  V30 3355 H 311.298 -0.450882 -0.595579 0
M  V30 3356 H 313.96 -1.65871 -1.02337 0
M  V30 3357 H 313.056 -1.80832 -2.54374 0
M  V30 3358 N 313.357 1.07166 -1.15556 0
M  V30 3359 C 314.582 1.84053 -0.955988 0
M  V30 3360 C 315.007 1.81586 0.490739 0
M  V30 3361 O 314.365 1.21018 1.34997 0
M  V30 3362 C 314.413 3.28957 -1.47714 0
M  V30 3363 O 313.517 4.06795 -0.677593 0
M  V30 3364 H 312.858 0.569842 -0.340847 0
M  V30 3365 H 315.388 1.35178 -1.53584 0
M  V30 3366 H 315.398 3.79788 -1.4908 0
M  V30 3367 H 314.073 3.30068 -2.53037 0
M  V30 3368 H 312.65 3.6561 -0.733721 0
M  V30 3369 N 314.835 0.952656 1.25548 0
M  V30 3370 C 315.765 0.489287 2.28316 0
M  V30 3371 C 316.746 -0.463359 1.63667 0
M  V30 3372 O 317.931 -0.36274 1.90782 0
M  V30 3373 C 315.061 -0.235603 3.465 0
M  V30 3374 C 314.015 0.631593 4.23314 0
M  V30 3375 C 313.341 -0.223923 5.34231 0
M  V30 3376 C 314.641 1.90871 4.86174 0
M  V30 3377 H 316.335 1.34822 2.67326 0
M  V30 3378 H 313.881 0.649728 1.28509 0
M  V30 3379 H 315.834 -0.570882 4.17515 0
M  V30 3380 H 314.558 -1.12877 3.06474 0
M  V30 3381 H 313.217 0.949929 3.54079 0
M  V30 3382 H 312.865 -1.11678 4.90446 0
M  V30 3383 H 312.565 0.35299 5.86539 0
M  V30 3384 H 314.089 -0.554214 6.0808 0
M  V30 3385 H 315.503 1.63997 5.49343 0
M  V30 3386 H 313.9 2.43112 5.4865 0
M  V30 3387 H 314.97 2.61304 4.08471 0
M  V30 3388 N 316.313 -1.40141 0.720998 0
M  V30 3389 C 317.26 -2.30688 0.071919 0
M  V30 3390 C 318.23 -1.48476 -0.744584 0
M  V30 3391 O 319.415 -1.77201 -0.707423 0
M  V30 3392 C 316.555 -3.34724 -0.839855 0
M  V30 3393 C 315.668 -4.31998 -0.0122438 0
M  V30 3394 C 314.803 -5.23102 -0.923995 0
M  V30 3395 C 313.842 -6.12033 -0.0907969 0
M  V30 3396 N 312.979 -6.95537 -0.957718 0
M  V30 3397 H 317.819 -2.85628 0.849755 0
M  V30 3398 H 315.356 -1.40653 0.430726 0
M  V30 3399 H 317.314 -3.93618 -1.38279 0
M  V30 3400 H 315.944 -2.81274 -1.58381 0
M  V30 3401 H 314.996 -3.74841 0.64794 0
M  V30 3402 H 316.308 -4.94772 0.632595 0
M  V30 3403 H 315.462 -5.86953 -1.53527 0
M  V30 3404 H 314.201 -4.60615 -1.60264 0
M  V30 3405 H 313.206 -5.47207 0.533377 0
M  V30 3406 H 314.431 -6.76581 0.584428 0
M  V30 3407 H 312.377 -6.35633 -1.62192 0
M  V30 3408 H 312.294 -7.55099 -0.36904 0
M  V30 3409 H 313.562 -7.63832 -1.555 0
M  V30 3410 N 317.792 -0.46758 -1.50504 0
M  V30 3411 C 318.74 0.342482 -2.30065 0
M  V30 3412 C 319.734 0.993596 -1.37201 0
M  V30 3413 O 320.94 0.925102 -1.54408 0
M  V30 3414 H 317.315 0.129283 -0.740803 0
M  V30 3415 H 319.286 -0.34899 -2.96352 0
M  V30 3416 C 318.035 1.4139 -3.17654 0
M  V30 3417 H 317.358 0.922264 -3.89017 0
M  V30 3418 H 318.798 1.95335 -3.76325 0
M  V30 3419 C 317.257 2.4139 -2.35016 0
M  V30 3420 O 317.787 3.46586 -2.03079 0
M  V30 3421 N 315.993 2.13021 -1.97662 0
M  V30 3422 H 315.54 1.27499 -2.23834 0
M  V30 3423 H 315.498 2.80164 -1.42673 0
M  V30 3424 N 319.27 1.56325 -0.20005 0
M  V30 3425 C 320.519 1.96895 0.437652 0
M  V30 3426 C 320.832 1.08999 1.62415 0
M  V30 3427 O 322.038 1.39372 2.32997 0
M  V30 3428 C 320.494 3.50198 0.830025 0
M  V30 3429 C 320.102 4.46765 -0.332461 0
M  V30 3430 C 321.846 3.99526 1.43453 0
M  V30 3431 C 319.753 5.91344 0.0811468 0
M  V30 3432 H 318.683 0.735209 0.167282 0
M  V30 3433 H 321.334 1.81148 -0.292853 0
M  V30 3434 H 319.716 3.61467 1.61734 0
M  V30 3435 H 320.89 4.47231 -1.11 0
M  V30 3436 H 319.205 4.07657 -0.848789 0
M  V30 3437 H 321.802 5.05025 1.75652 0
M  V30 3438 H 322.145 3.44122 2.34277 0
M  V30 3439 H 322.678 3.91393 0.71109 0
M  V30 3440 H 319.417 6.50685 -0.793033 0
M  V30 3441 H 318.937 5.94121 0.823445 0
M  V30 3442 H 320.616 6.44945 0.515252 0
M  V30 3443 N 320.748 -0.0735177 1.57428 0
M  V30 3444 C 321.973 -0.789787 1.91774 0
M  V30 3445 C 322.398 -1.70413 0.796306 0
M  V30 3446 O 321.756 -1.79555 -0.250961 0
M  V30 3447 C 321.804 -1.5609 3.25067 0
M  V30 3448 O 320.908 -2.67144 3.14178 0
M  V30 3449 H 320.249 -0.215582 0.628029 0
M  V30 3450 H 322.779 -0.0422781 2.04556 0
M  V30 3451 H 322.789 -1.94052 3.58898 0
M  V30 3452 H 321.464 -0.890015 4.06265 0
M  V30 3453 H 320.041 -2.32052 2.91901 0
M  V30 3454 N 322.226 -1.5378 -0.344866 0
M  V30 3455 C 323.475 -1.7018 -1.08267 0
M  V30 3456 C 323.788 -0.471 -1.89845 0
M  V30 3457 O 324.994 -0.515917 -2.66553 0
M  V30 3458 C 323.45 -3.00923 -1.97417 0
M  V30 3459 C 323.058 -4.31335 -1.21053 0
M  V30 3460 C 324.802 -3.26688 -2.71063 0
M  V30 3461 C 322.709 -5.53153 -2.09225 0
M  V30 3462 H 321.639 -0.634138 -0.407903 0
M  V30 3463 H 324.29 -1.8028 -0.342246 0
M  V30 3464 H 322.672 -2.84676 -2.75274 0
M  V30 3465 H 323.846 -4.58281 -0.481159 0
M  V30 3466 H 322.161 -4.12173 -0.591813 0
M  V30 3467 H 324.758 -4.1489 -3.37299 0
M  V30 3468 H 325.101 -2.43639 -3.37558 0
M  V30 3469 H 325.634 -3.43705 -2.0028 0
M  V30 3470 H 322.373 -6.38741 -1.47274 0
M  V30 3471 H 321.893 -5.30458 -2.79955 0
M  V30 3472 H 323.572 -5.88744 -2.68308 0
M  V30 3473 N 323.704 0.605807 -1.45491 0
M  V30 3474 C 324.934 1.38934 -1.52908 0
M  V30 3475 C 325.342 1.88513 -0.161086 0
M  V30 3476 O 324.685 1.62962 0.847891 0
M  V30 3477 C 324.747 2.62737 -2.45376 0
M  V30 3478 C 324.411 2.34785 -3.92078 0
M  V30 3479 C 325.408 1.95038 -4.8193 0
M  V30 3480 C 323.093 2.47642 -4.37011 0
M  V30 3481 C 325.087 1.68511 -6.14722 0
M  V30 3482 C 322.774 2.20728 -5.69844 0
M  V30 3483 C 323.772 1.81225 -6.58519 0
M  V30 3484 O 323.46 1.54627 -7.88889 0
M  V30 3485 H 323.192 0.431629 -0.520262 0
M  V30 3486 H 325.746 0.74573 -1.91384 0
M  V30 3487 H 323.976 3.29824 -2.01874 0
M  V30 3488 H 325.665 3.24783 -2.43456 0
M  V30 3489 H 326.431 1.84639 -4.48479 0
M  V30 3490 H 322.31 2.77356 -3.68232 0
M  V30 3491 H 325.854 1.37602 -6.83894 0
M  V30 3492 H 321.751 2.30744 -6.02849 0
M  V30 3493 H 322.519 1.68665 -8.00933 0
M  V30 3494 N 325.182 1.32811 0.848464 0
M  V30 3495 C 326.41 1.26739 1.63538 0
M  V30 3496 C 326.825 -0.163484 1.88091 0
M  V30 3497 O 326.182 -1.10258 1.45429 0
M  V30 3498 C 326.233 2.03013 2.99112 0
M  V30 3499 O 325.954 3.40518 2.75643 0
M  V30 3500 C 327.455 2.04038 3.93552 0
M  V30 3501 H 324.675 0.437024 0.509167 0
M  V30 3502 H 327.219 1.75033 1.05753 0
M  V30 3503 H 325.374 1.58426 3.53525 0
M  V30 3504 H 325.788 3.79635 3.61908 0
M  V30 3505 H 327.262 2.61877 4.85926 0
M  V30 3506 H 327.739 1.0282 4.26995 0
M  V30 3507 H 328.345 2.486 3.45077 0
M  V30 3508 N 326.66 -1.06551 1.16123 0
M  V30 3509 C 327.607 -2.13961 0.865414 0
M  V30 3510 C 328.577 -1.65066 -0.185055 0
M  V30 3511 O 329.762 -1.90732 -0.05083 0
M  V30 3512 C 326.902 -3.43113 0.369776 0
M  V30 3513 C 326.015 -4.05756 1.48276 0
M  V30 3514 C 325.15 -5.22773 0.942414 0
M  V30 3515 C 324.189 -5.77395 2.03179 0
M  V30 3516 N 323.326 -6.85731 1.50721 0
M  V30 3517 H 328.166 -2.38605 1.78527 0
M  V30 3518 H 325.703 -1.17072 0.890646 0
M  V30 3519 H 327.661 -4.17151 0.0640643 0
M  V30 3520 H 326.291 -3.18695 -0.513143 0
M  V30 3521 H 325.343 -3.29292 1.9045 0
M  V30 3522 H 326.655 -4.42351 2.30493 0
M  V30 3523 H 325.809 -6.03827 0.589729 0
M  V30 3524 H 324.548 -4.87618 0.0895191 0
M  V30 3525 H 323.553 -4.94981 2.3932 0
M  V30 3526 H 324.778 -6.14603 2.8886 0
M  V30 3527 H 322.724 -6.52499 0.676811 0
M  V30 3528 H 322.641 -7.21254 2.26557 0
M  V30 3529 H 323.909 -7.7047 1.18303 0
M  V30 3530 N 328.138 -0.959301 -1.25041 0
M  V30 3531 C 329.363 -0.633507 -1.97488 0
M  V30 3532 C 329.788 0.788555 -1.70773 0
M  V30 3533 O 329.146 1.53394 -0.966431 0
M  V30 3534 C 329.194 -0.904057 -3.49083 0
M  V30 3535 O 328.298 0.0147939 -4.12397 0
M  V30 3536 H 327.639 -0.240368 -0.618966 0
M  V30 3537 H 330.169 -1.28717 -1.59038 0
M  V30 3538 H 330.179 -0.832203 -3.99423 0
M  V30 3539 H 328.854 -1.94048 -3.67856 0
M  V30 3540 H 327.431 -0.109664 -3.72739 0
M  V30 3541 N 329.616 1.39756 -0.72842 0
M  V30 3542 C 330.546 2.33289 -0.0991354 0
M  V30 3543 C 331.527 1.53568 0.731489 0
M  V30 3544 O 332.712 1.81987 0.677807 0
M  V30 3545 C 329.842 3.3763 0.813834 0
M  V30 3546 C 328.796 4.2791 0.0878663 0
M  V30 3547 C 328.122 5.22894 1.11741 0
M  V30 3548 C 329.422 5.11314 -1.06563 0
M  V30 3549 H 331.116 2.86163 -0.880408 0
M  V30 3550 H 328.662 1.37591 -0.424819 0
M  V30 3551 H 330.615 4.0201 1.26355 0
M  V30 3552 H 329.339 2.83181 1.62715 0
M  V30 3553 H 327.998 3.65 -0.342159 0
M  V30 3554 H 327.646 4.64744 1.92412 0
M  V30 3555 H 327.346 5.84143 0.636477 0
M  V30 3556 H 328.87 5.90151 1.56697 0
M  V30 3557 H 330.284 5.69076 -0.694671 0
M  V30 3558 H 328.681 5.81671 -1.47577 0
M  V30 3559 H 329.751 4.46534 -1.89038 0
M  V30 3560 N 331.094 0.475555 1.50254 0
M  V30 3561 C 332.34 -0.0780073 2.0265 0
M  V30 3562 C 332.673 -1.38968 1.35652 0
M  V30 3563 O 331.948 -1.8839 0.483691 0
M  V30 3564 C 332.231 -0.257161 3.59181 0
M  V30 3565 C 332.084 1.07585 4.36744 0
M  V30 3566 C 333.403 -1.00965 4.28362 0
M  V30 3567 H 330.522 -0.0268758 0.73651 0
M  V30 3568 H 333.164 0.622015 1.7953 0
M  V30 3569 H 331.314 -0.853412 3.79011 0
M  V30 3570 H 332.986 1.70902 4.28474 0
M  V30 3571 H 331.229 1.6714 4.00308 0
M  V30 3572 H 331.9 0.904088 5.44546 0
M  V30 3573 H 334.376 -0.504214 4.13034 0
M  V30 3574 H 333.252 -1.10381 5.37687 0
M  V30 3575 H 333.513 -2.04731 3.91839 0
M  V30 3576 N 332.573 -1.56217 0.208337 0
M  V30 3577 C 333.483 -2.23316 -0.718836 0
M  V30 3578 C 334.499 -1.23648 -1.22422 0
M  V30 3579 O 335.675 -1.56423 -1.26861 0
M  V30 3580 C 332.74 -2.88968 -1.91568 0
M  V30 3581 C 331.801 -4.03943 -1.45357 0
M  V30 3582 C 331.034 -4.66455 -2.59337 0
M  V30 3583 O 331.257 -4.27919 -3.77149 0
M  V30 3584 O 330.191 -5.55686 -2.31293 0
M  V30 3585 H 334.017 -3.03182 -0.177315 0
M  V30 3586 H 331.602 -1.49384 -0.0215402 0
M  V30 3587 H 333.484 -3.30455 -2.61491 0
M  V30 3588 H 332.159 -2.12071 -2.44556 0
M  V30 3589 H 331.066 -3.67052 -0.722746 0
M  V30 3590 H 332.399 -4.82543 -0.970219 0
M  V30 3591 N 334.051 0.0651679 -1.57465 0
M  V30 3592 C 334.998 1.07675 -2.04144 0
M  V30 3593 C 335.968 1.38071 -0.923335 0
M  V30 3594 O 337.153 1.49026 -1.19146 0
M  V30 3595 C 334.293 2.38337 -2.49579 0
M  V30 3596 C 333.406 2.14413 -3.75035 0
M  V30 3597 C 332.541 3.38686 -4.09225 0
M  V30 3598 C 331.58 3.10156 -5.27702 0
M  V30 3599 N 330.717 4.26778 -5.57499 0
M  V30 3600 H 335.557 0.671716 -2.90331 0
M  V30 3601 H 333.094 0.3201 -1.43575 0
M  V30 3602 H 335.052 3.14632 -2.73975 0
M  V30 3603 H 333.682 2.7663 -1.6636 0
M  V30 3604 H 332.734 1.2878 -3.57939 0
M  V30 3605 H 334.046 1.89344 -4.61466 0
M  V30 3606 H 333.2 4.23373 -4.34558 0
M  V30 3607 H 331.939 3.66837 -3.21374 0
M  V30 3608 H 330.944 2.23866 -5.02159 0
M  V30 3609 H 332.169 2.8332 -6.17176 0
M  V30 3610 H 330.115 4.54948 -4.72608 0
M  V30 3611 H 330.032 4.05005 -6.38362 0
M  V30 3612 H 331.3 5.12443 -5.87386 0
M  V30 3613 N 335.529 1.53961 0.336706 0
M  V30 3614 C 336.778 1.70751 1.07363 0
M  V30 3615 C 337.091 0.481061 1.89592 0
M  V30 3616 O 338.297 0.530046 2.66276 0
M  V30 3617 C 336.753 3.01965 1.95818 0
M  V30 3618 C 336.361 4.31971 1.18764 0
M  V30 3619 C 338.105 3.28121 2.69327 0
M  V30 3620 C 336.012 5.54255 2.06289 0
M  V30 3621 H 334.942 0.636292 0.404535 0
M  V30 3622 H 337.593 1.80459 0.332681 0
M  V30 3623 H 335.975 2.86132 2.7376 0
M  V30 3624 H 337.149 4.5853 0.456849 0
M  V30 3625 H 335.464 4.12481 0.569946 0
M  V30 3626 H 338.061 4.16673 3.35094 0
M  V30 3627 H 338.404 2.45426 3.36261 0
M  V30 3628 H 338.937 3.44762 1.98454 0
M  V30 3629 H 335.676 6.39513 1.43885 0
M  V30 3630 H 335.196 5.31935 2.77138 0
M  V30 3631 H 336.875 5.90159 2.65182 0
M  V30 3632 N 337.007 -0.598083 1.45811 0
M  V30 3633 C 337.937 -1.71873 1.58057 0
M  V30 3634 C 338.918 -1.64533 0.431615 0
M  V30 3635 O 340.103 -1.82787 0.65595 0
M  V30 3636 C 337.233 -3.10495 1.55597 0
M  V30 3637 C 336.187 -3.32654 2.69305 0
M  V30 3638 C 335.513 -4.71646 2.51902 0
M  V30 3639 C 336.813 -3.21981 4.11248 0
M  V30 3640 H 338.507 -1.61881 2.51863 0
M  V30 3641 H 336.053 -0.777372 1.21214 0
M  V30 3642 H 338.006 -3.88699 1.6276 0
M  V30 3643 H 336.73 -3.2135 0.583255 0
M  V30 3644 H 335.389 -2.56843 2.61586 0
M  V30 3645 H 335.037 -4.79246 1.52748 0
M  V30 3646 H 334.737 -4.87426 3.2816 0
M  V30 3647 H 336.261 -5.52038 2.60933 0
M  V30 3648 H 337.675 -3.90049 4.20161 0
M  V30 3649 H 336.072 -3.49289 4.87972 0
M  V30 3650 H 337.142 -2.1928 4.32486 0
M  V30 3651 N 338.485 -1.33259 -0.841409 0
M  V30 3652 C 339.71 -1.2775 -1.63385 0
M  V30 3653 C 340.135 0.149188 -1.87507 0
M  V30 3654 O 339.493 1.10498 -1.43736 0
M  V30 3655 C 339.541 -2.05571 -2.96265 0
M  V30 3656 O 338.645 -1.41257 -3.87453 0
M  V30 3657 H 337.986 -0.439627 -0.497618 0
M  V30 3658 H 340.516 -1.75782 -1.04699 0
M  V30 3659 H 340.526 -2.16241 -3.45982 0
M  V30 3660 H 339.201 -3.09309 -2.7803 0
M  V30 3661 H 337.778 -1.39217 -3.45938 0
M  V30 3662 N 339.963 1.05934 -1.16686 0
M  V30 3663 C 340.873 2.17014 -0.891183 0
M  V30 3664 C 341.889 1.73453 0.137907 0
M  V30 3665 O 343.065 2.01361 -0.039592 0
M  V30 3666 C 340.13 3.44384 -0.400099 0
M  V30 3667 C 339.191 4.02433 -1.49486 0
M  V30 3668 C 338.424 5.23723 -1.02711 0
M  V30 3669 O 338.647 5.7027 0.121716 0
M  V30 3670 O 337.581 5.7382 -1.81699 0
M  V30 3671 H 341.407 2.43113 -1.82015 0
M  V30 3672 H 338.992 1.15541 -0.947132 0
M  V30 3673 H 340.874 4.21189 -0.133392 0
M  V30 3674 H 339.549 3.19802 0.500817 0
M  V30 3675 H 338.456 3.27102 -1.81535 0
M  V30 3676 H 339.789 4.31317 -2.37121 0
M  V30 3677 N 341.441 0.965919 1.2453 0
M  V30 3678 C 342.388 0.49402 2.25451 0
M  V30 3679 C 343.358 -0.45948 1.59618 0
M  V30 3680 O 344.543 -0.370238 1.87173 0
M  V30 3681 C 341.683 -0.211359 3.44452 0
M  V30 3682 C 340.796 0.7807 4.24887 0
M  V30 3683 C 339.931 0.0516105 5.31175 0
M  V30 3684 C 338.97 1.03385 6.03306 0
M  V30 3685 N 338.107 0.334887 7.01301 0
M  V30 3686 H 342.947 1.35946 2.65184 0
M  V30 3687 H 340.484 0.681515 1.3036 0
M  V30 3688 H 342.442 -0.637 4.12308 0
M  V30 3689 H 341.072 -1.04077 3.05562 0
M  V30 3690 H 340.124 1.32479 3.56586 0
M  V30 3691 H 341.436 1.52978 4.74762 0
M  V30 3692 H 340.59 -0.432114 6.05159 0
M  V30 3693 H 339.329 -0.730179 4.82203 0
M  V30 3694 H 338.334 1.52847 5.28127 0
M  V30 3695 H 339.559 1.81606 6.54367 0
M  V30 3696 H 337.505 -0.427959 6.54603 0
M  V30 3697 H 337.422 1.02287 7.49048 0
M  V30 3698 H 338.69 -0.126928 7.79397 0
M  V30 3699 N 342.919 -1.39368 0.735821 0
M  V30 3700 C 343.866 -2.30599 0.0963825 0
M  V30 3701 C 344.836 -1.49257 -0.728794 0
M  V30 3702 O 346.021 -1.77941 -0.688588 0
M  V30 3703 C 343.161 -3.35596 -0.804305 0
M  V30 3704 C 342.274 -4.31987 0.0335761 0
M  V30 3705 C 341.409 -5.24053 -0.868461 0
M  V30 3706 C 340.448 -6.12095 -0.0258776 0
M  V30 3707 N 339.585 -6.96514 -0.883893 0
M  V30 3708 H 344.425 -2.8471 0.880002 0
M  V30 3709 H 341.962 -1.40188 0.445619 0
M  V30 3710 H 343.92 -3.95062 -1.34096 0
M  V30 3711 H 342.55 -2.82938 -1.55389 0
M  V30 3712 H 341.602 -3.74133 0.68766 0
M  V30 3713 H 342.914 -4.94074 0.685036 0
M  V30 3714 H 342.068 -5.88549 -1.47293 0
M  V30 3715 H 340.807 -4.62289 -1.5537 0
M  V30 3716 H 339.812 -5.4661 0.591386 0
M  V30 3717 H 341.037 -6.75923 0.656156 0
M  V30 3718 H 338.983 -6.37318 -1.55441 0
M  V30 3719 H 338.9 -7.55448 -0.288931 0
M  V30 3720 H 340.168 -7.65439 -1.4739 0
M  V30 3721 N 344.397 -0.483516 -1.5 0
M  V30 3722 C 345.307 0.309172 -2.32554 0
M  V30 3723 C 346.323 0.984159 -1.43493 0
M  V30 3724 O 347.499 0.969399 -1.76535 0
M  V30 3725 C 344.564 1.36979 -3.18493 0
M  V30 3726 C 343.625 0.710095 -4.23387 0
M  V30 3727 C 342.858 1.72018 -5.05218 0
M  V30 3728 O 343.081 2.94813 -4.88305 0
M  V30 3729 O 342.015 1.28515 -5.8802 0
M  V30 3730 H 345.841 -0.366064 -3.01486 0
M  V30 3731 H 343.426 -0.24514 -1.47375 0
M  V30 3732 H 345.308 1.98385 -3.71781 0
M  V30 3733 H 343.983 2.02828 -2.52275 0
M  V30 3734 H 342.89 0.0567539 -3.74057 0
M  V30 3735 H 344.223 0.0943557 -4.9211 0
M  V30 3736 N 345.875 1.56104 -0.216619 0
M  V30 3737 C 346.823 2.21434 0.712036 0
M  V30 3738 C 347.817 1.19218 1.20348 0
M  V30 3739 O 349.023 1.3731 1.16387 0
M  V30 3740 H 345.398 0.70992 0.248026 0
M  V30 3741 H 347.369 2.98083 0.137558 0
M  V30 3742 C 346.118 2.90434 1.91163 0
M  V30 3743 H 345.441 3.68842 1.54258 0
M  V30 3744 H 346.881 3.39552 2.5393 0
M  V30 3745 C 345.34 1.92635 2.76394 0
M  V30 3746 O 345.87 1.44017 3.74996 0
M  V30 3747 N 344.076 1.60392 2.42328 0
M  V30 3748 H 343.623 2.00122 1.622 0
M  V30 3749 H 343.581 0.952159 2.99635 0
M  V30 3750 N 347.353 -0.0568162 1.57498 0
M  V30 3751 C 348.601 -0.751617 1.87604 0
M  V30 3752 C 348.922 -1.77351 0.81066 0
M  V30 3753 O 348.192 -1.95254 -0.159018 0
M  V30 3754 H 346.772 -0.280583 0.692302 0
M  V30 3755 H 349.434 -0.0293483 1.94878 0
M  V30 3756 H 348.53 -1.25852 2.856 0
M  V30 3757 N 348.832 -1.54138 -0.328536 0
M  V30 3758 C 349.762 -1.86167 -1.40939 0
M  V30 3759 C 350.743 -0.718044 -1.54202 0
M  V30 3760 O 351.928 -0.971328 -1.68163 0
M  V30 3761 C 349.058 -2.08461 -2.77779 0
M  V30 3762 C 348.012 -3.24299 -2.7931 0
M  V30 3763 C 347.338 -3.31955 -4.19178 0
M  V30 3764 C 348.638 -4.62065 -2.43502 0
M  V30 3765 H 350.332 -2.76689 -1.14383 0
M  V30 3766 H 347.878 -1.33132 -0.548806 0
M  V30 3767 H 349.831 -2.29453 -3.53454 0
M  V30 3768 H 348.555 -1.14684 -3.05802 0
M  V30 3769 H 347.214 -3.03187 -2.0609 0
M  V30 3770 H 346.862 -2.35745 -4.44335 0
M  V30 3771 H 346.562 -4.09805 -4.2111 0
M  V30 3772 H 348.086 -3.55175 -4.96672 0
M  V30 3773 H 349.5 -4.8297 -3.08889 0
M  V30 3774 H 347.897 -5.42429 -2.56693 0
M  V30 3775 H 348.967 -4.64652 -1.38659 0
M  V30 3776 N 350.31 0.590341 -1.46126 0
M  V30 3777 C 351.559 1.34499 -1.50309 0
M  V30 3778 C 351.872 1.94977 -0.156021 0
M  V30 3779 O 353.078 2.71395 -0.0756037 0
M  V30 3780 C 351.534 2.43723 -2.64815 0
M  V30 3781 C 351.142 1.89582 -4.0591 0
M  V30 3782 C 352.886 3.20579 -2.78262 0
M  V30 3783 C 350.793 2.9639 -5.11769 0
M  V30 3784 H 349.723 0.505593 -0.559368 0
M  V30 3785 H 352.374 0.630848 -1.72315 0
M  V30 3786 H 350.756 3.17902 -2.36124 0
M  V30 3787 H 351.93 1.21997 -4.44357 0
M  V30 3788 H 350.245 1.25418 -3.97063 0
M  V30 3789 H 352.842 4.00276 -3.54519 0
M  V30 3790 H 353.185 3.72684 -1.85505 0
M  V30 3791 H 353.718 2.53505 -3.06562 0
M  V30 3792 H 350.457 2.49181 -6.06291 0
M  V30 3793 H 349.977 3.62487 -4.77873 0
M  V30 3794 H 351.656 3.60474 -5.37278 0
M  V30 3795 N 351.788 1.33704 0.83433 0
M  V30 3796 C 353.036 1.25169 1.58673 0
M  V30 3797 C 353.357 -0.18127 1.94156 0
M  V30 3798 O 352.627 -1.11113 1.6134 0
M  V30 3799 H 351.207 0.4603 0.58833 0
M  V30 3800 H 353.869 1.67478 0.996847 0
M  V30 3801 H 352.965 1.84856 2.51465 0
M  V30 3802 N 353.266 -1.05314 1.17247 0
M  V30 3803 C 354.214 -2.15137 0.884238 0
M  V30 3804 C 355.208 -1.68729 -0.15063 0
M  V30 3805 O 356.414 -1.8 -0.00366673 0
M  V30 3806 H 352.789 -0.702471 0.2684 0
M  V30 3807 H 354.76 -2.36652 1.81764 0
M  V30 3808 C 353.509 -3.45243 0.412659 0
M  V30 3809 H 352.832 -3.81352 1.20043 0
M  V30 3810 H 354.272 -4.23263 0.249858 0
M  V30 3811 C 352.731 -3.25487 -0.86948 0
M  V30 3812 O 353.261 -3.51938 -1.93655 0
M  V30 3813 N 351.467 -2.78875 -0.817147 0
M  V30 3814 H 351.014 -2.57549 0.0514211 0
M  V30 3815 H 350.972 -2.66036 -1.67547 0
M  V30 3816 N 354.744 -0.972509 -1.24016 0
M  V30 3817 C 355.972 -0.654803 -1.96265 0
M  V30 3818 C 356.387 0.776708 -1.72083 0
M  V30 3819 O 355.744 1.52171 -1.00748 0
M  V30 3820 C 355.795 -0.92592 -3.49441 0
M  V30 3821 O 355.516 -2.30116 -3.72798 0
M  V30 3822 C 357.017 -0.623068 -4.38899 0
M  V30 3823 H 354.237 -0.243907 -0.6251 0
M  V30 3824 H 356.781 -1.30175 -1.57717 0
M  V30 3825 H 354.936 -0.325108 -3.86033 0
M  V30 3826 H 355.35 -2.38483 -4.67147 0
M  V30 3827 H 356.824 -0.863189 -5.45209 0
M  V30 3828 H 357.301 0.442754 -4.36963 0
M  V30 3829 H 357.907 -1.204 -4.07902 0
M  V30 3830 N 356.222 1.38976 -0.743202 0
M  V30 3831 C 357.469 2.00343 -0.294752 0
M  V30 3832 C 357.797 1.58983 1.12047 0
M  V30 3833 O 357.052 0.813809 1.77977 0
M  V30 3834 C 357.351 3.55647 -0.353517 0
M  V30 3835 C 357.017 4.16685 -1.72292 0
M  V30 3836 C 355.679 4.3307 -2.09771 0
M  V30 3837 C 358.031 4.50464 -2.62168 0
M  V30 3838 C 355.359 4.80526 -3.36618 0
M  V30 3839 C 357.711 4.99332 -3.88395 0
M  V30 3840 C 356.375 5.13924 -4.25956 0
M  V30 3841 H 355.645 0.733108 -0.107857 0
M  V30 3842 H 358.292 1.6618 -0.951651 0
M  V30 3843 H 356.597 3.89884 0.386954 0
M  V30 3844 H 358.294 4.00998 0.0117269 0
M  V30 3845 H 354.884 4.04339 -1.42155 0
M  V30 3846 H 359.068 4.37416 -2.3448 0
M  V30 3847 H 354.324 4.90008 -3.65653 0
M  V30 3848 H 358.498 5.2444 -4.58187 0
M  V30 3849 H 356.125 5.50457 -5.2431 0
M  V30 3850 N 357.7 0.491464 1.49741 0
M  V30 3851 C 358.925 -0.0557177 2.07325 0
M  V30 3852 C 359.35 -1.30925 1.35056 0
M  V30 3853 O 358.708 -1.76733 0.404365 0
M  V30 3854 C 358.756 -0.302074 3.59333 0
M  V30 3855 O 357.86 -1.37868 3.88672 0
M  V30 3856 H 357.201 0.0219956 0.663636 0
M  V30 3857 H 359.731 0.688352 1.92673 0
M  V30 3858 H 359.741 -0.536464 4.04458 0
M  V30 3859 H 358.416 0.61383 4.11345 0
M  V30 3860 H 356.993 -1.12999 3.55367 0
M  V30 3861 N 359.178 -1.55987 0.224894 0
M  V30 3862 C 360.406 -2.02784 -0.410665 0
M  V30 3863 C 360.821 -1.10464 -1.53112 0
M  V30 3864 O 360.178 -0.114871 -1.82138 0
M  V30 3865 C 360.229 -3.49087 -0.939165 0
M  V30 3866 O 359.95 -4.37887 0.136614 0
M  V30 3867 C 361.451 -4.11543 -1.64763 0
M  V30 3868 H 358.671 -0.663484 -0.100148 0
M  V30 3869 H 361.215 -2.01614 0.342326 0
M  V30 3870 H 359.37 -3.50861 -1.64242 0
M  V30 3871 H 359.784 -5.23849 -0.261155 0
M  V30 3872 H 361.258 -5.15673 -1.96939 0
M  V30 3873 H 361.735 -3.56736 -2.56195 0
M  V30 3874 H 362.341 -4.13629 -0.989503 0
M  V30 3875 N 360.656 0.0484629 -1.57525 0
M  V30 3876 C 361.904 0.741657 -1.88 0
M  V30 3877 C 362.225 1.76918 -0.820054 0
M  V30 3878 O 361.495 1.95335 0.148661 0
M  V30 3879 H 360.075 0.276908 -0.69378 0
M  V30 3880 H 362.737 0.019013 -1.94891 0
M  V30 3881 H 361.833 1.24336 -2.86264 0
M  V30 3882 N 362.134 1.5431 0.320358 0
M  V30 3883 C 363.044 1.86946 1.41734 0
M  V30 3884 C 364.06 0.761689 1.56443 0
M  V30 3885 O 365.236 1.05629 1.71477 0
M  V30 3886 C 362.301 2.09293 2.76401 0
M  V30 3887 C 361.362 3.33082 2.70841 0
M  V30 3888 C 360.595 3.54353 3.99086 0
M  V30 3889 O 360.818 2.79002 4.97508 0
M  V30 3890 O 359.752 4.47838 4.0215 0
M  V30 3891 H 363.578 2.80232 1.17062 0
M  V30 3892 H 361.163 1.40255 0.514673 0
M  V30 3893 H 363.045 2.25303 3.56113 0
M  V30 3894 H 361.72 1.19194 3.00956 0
M  V30 3895 H 360.627 3.22454 1.89668 0
M  V30 3896 H 361.96 4.23249 2.5124 0
M  V30 3897 N 363.613 -0.582584 1.46437 0
M  V30 3898 C 364.576 -1.67366 1.56592 0
M  V30 3899 C 365.576 -1.54575 0.443072 0
M  V30 3900 O 366.766 -1.59191 0.707381 0
M  V30 3901 C 363.898 -3.06791 1.48634 0
M  V30 3902 H 365.091 -1.5972 2.5383 0
M  V30 3903 H 362.644 -0.800432 1.34249 0
M  V30 3904 H 363.379 -3.19993 0.526763 0
M  V30 3905 H 363.164 -3.17484 2.30101 0
M  V30 3906 H 364.654 -3.86218 1.58826 0
M  V30 3907 N 365.091 -1.34144 -0.827227 0
M  V30 3908 C 366.024 -1.19707 -1.94282 0
M  V30 3909 C 367.002 -0.0897256 -1.62352 0
M  V30 3910 O 368.186 -0.254095 -1.8678 0
M  V30 3911 C 365.313 -0.838646 -3.28153 0
M  V30 3912 C 364.359 -1.95514 -3.79047 0
M  V30 3913 S 365.192 -3.56793 -3.99323 0
M  V30 3914 C 366.348 -3.22983 -5.36127 0
M  V30 3915 H 366.581 -2.1414 -2.06231 0
M  V30 3916 H 364.114 -1.19121 -0.982321 0
M  V30 3917 H 366.072 -0.638637 -4.05502 0
M  V30 3918 H 364.733 0.0872776 -3.13979 0
M  V30 3919 H 363.926 -1.658 -4.75948 0
M  V30 3920 H 363.528 -2.11241 -3.08631 0
M  V30 3921 H 365.82 -2.74531 -6.19386 0
M  V30 3922 H 366.763 -4.19008 -5.70822 0
M  V30 3923 H 367.171 -2.59276 -5.01434 0
M  V30 3924 N 366.569 1.04691 -1.17803 0
M  V30 3925 C 367.501 2.12571 -0.857097 0
M  V30 3926 C 368.514 1.62174 0.142647 0
M  V30 3927 O 369.703 1.78301 -0.0843387 0
M  V30 3928 C 366.803 3.37915 -0.258216 0
M  V30 3929 C 365.976 4.1757 -1.30207 0
M  V30 3930 C 365.035 5.2125 -0.720029 0
M  V30 3931 O 364.061 5.51888 -1.39314 0
M  V30 3932 N 365.263 5.78466 0.485507 0
M  V30 3933 H 368.028 2.40698 -1.78562 0
M  V30 3934 H 365.589 1.20831 -1.07757 0
M  V30 3935 H 367.581 4.04442 0.144584 0
M  V30 3936 H 366.151 3.07281 0.574199 0
M  V30 3937 H 365.371 3.46458 -1.88043 0
M  V30 3938 H 366.659 4.67586 -2.00601 0
M  V30 3939 H 366.057 5.55866 1.05022 0
M  V30 3940 H 364.614 6.4649 0.830307 0
M  V30 3941 N 368.047 0.979072 1.23499 0
M  V30 3942 C 369.01 0.523244 2.23147 0
M  V30 3943 C 370.01 -0.386406 1.56088 0
M  V30 3944 O 371.2 -0.180283 1.73265 0
M  V30 3945 C 368.332 -0.240739 3.40049 0
M  V30 3946 H 369.525 1.40432 2.64989 0
M  V30 3947 H 367.078 0.764824 1.36309 0
M  V30 3948 H 367.813 -1.13841 3.03662 0
M  V30 3949 H 367.598 0.412207 3.89927 0
M  V30 3950 H 369.088 -0.548297 4.13985 0
M  V30 3951 N 369.525 -1.3858 0.750561 0
M  V30 3952 C 370.455 -2.33102 0.136237 0
M  V30 3953 C 371.436 -1.54713 -0.706965 0
M  V30 3954 O 372.621 -1.83043 -0.648769 0
M  V30 3955 C 369.751 -3.38882 -0.760017 0
M  V30 3956 C 368.705 -4.27995 -0.0197785 0
M  V30 3957 C 368.031 -5.24605 -1.03408 0
M  V30 3958 C 369.331 -5.09554 1.14684 0
M  V30 3959 H 371.025 -2.84726 0.925822 0
M  V30 3960 H 368.571 -1.36898 0.446654 0
M  V30 3961 H 370.524 -4.0397 -1.19943 0
M  V30 3962 H 369.248 -2.85734 -1.58189 0
M  V30 3963 H 367.907 -3.64409 0.400184 0
M  V30 3964 H 367.555 -4.67746 -1.84994 0
M  V30 3965 H 367.255 -5.85081 -0.543464 0
M  V30 3966 H 368.779 -5.9257 -1.47288 0
M  V30 3967 H 370.193 -5.67899 0.785118 0
M  V30 3968 H 368.59 -5.7925 1.56812 0
M  V30 3969 H 369.66 -4.4347 1.96118 0
M  V30 3970 N 371.003 -0.499398 -1.49478 0
M  V30 3971 C 372.25 0.0456899 -2.02448 0
M  V30 3972 C 372.578 1.37142 -1.37921 0
M  V30 3973 O 371.833 1.89111 -0.503544 0
M  V30 3974 C 372.132 0.248424 -3.56536 0
M  V30 3975 C 371.798 -0.999107 -4.39692 0
M  V30 3976 C 370.46 -1.34108 -4.62135 0
M  V30 3977 C 372.812 -1.82842 -4.88076 0
M  V30 3978 C 370.14 -2.51191 -5.30208 0
M  V30 3979 C 372.492 -2.99076 -5.57437 0
M  V30 3980 C 371.156 -3.33655 -5.78127 0
M  V30 3981 H 370.426 0.0167191 -0.740811 0
M  V30 3982 H 373.073 -0.65923 -1.79795 0
M  V30 3983 H 371.378 1.03586 -3.77859 0
M  V30 3984 H 373.075 0.684605 -3.95113 0
M  V30 3985 H 369.665 -0.722729 -4.22463 0
M  V30 3986 H 373.849 -1.57737 -4.70566 0
M  V30 3987 H 369.105 -2.78221 -5.44429 0
M  V30 3988 H 373.279 -3.63664 -5.93904 0
M  V30 3989 H 370.906 -4.24483 -6.30649 0
M  V30 3990 N 372.481 1.55866 -0.233164 0
M  V30 3991 C 373.727 1.98897 0.395959 0
M  V30 3992 C 374.06 1.12091 1.58585 0
M  V30 3993 O 373.335 0.181182 1.93654 0
M  V30 3994 C 373.618 3.50658 0.819224 0
M  V30 3995 C 373.471 4.48233 -0.375109 0
M  V30 3996 C 374.79 4.07135 1.67121 0
M  V30 3997 H 371.909 0.723102 0.142451 0
M  V30 3998 H 374.551 1.87082 -0.331725 0
M  V30 3999 H 372.701 3.60857 1.43925 0
M  V30 4000 H 374.373 4.50031 -1.01341 0
M  V30 4001 H 372.616 4.21624 -1.02058 0
M  V30 4002 H 373.287 5.51988 -0.0358328 0
M  V30 4003 H 375.763 3.99952 1.14795 0
M  V30 4004 H 374.639 5.13615 1.93625 0
M  V30 4005 H 374.9 3.54736 2.63846 0
M  V30 4006 N 373.959 -0.0401083 1.57549 0
M  V30 4007 C 375.184 -0.748931 1.93406 0
M  V30 4008 C 375.609 -1.68686 0.832274 0
M  V30 4009 O 374.967 -1.80047 -0.212818 0
M  V30 4010 C 375.015 -1.4916 3.28304 0
M  V30 4011 O 374.119 -2.6042 3.19774 0
M  V30 4012 H 373.46 -0.202212 0.63246 0
M  V30 4013 H 375.99 0.00112086 2.046 0
M  V30 4014 H 376 -1.86395 3.62934 0
M  V30 4015 H 374.675 -0.80364 4.08062 0
M  V30 4016 H 373.252 -2.25808 2.96758 0
M  V30 4017 N 375.437 -1.54477 -0.31217 0
M  V30 4018 C 376.662 -1.77526 -1.07235 0
M  V30 4019 C 377.087 -0.527775 -1.80544 0
M  V30 4020 O 376.445 0.52121 -1.73646 0
M  V30 4021 C 376.493 -2.97535 -2.03728 0
M  V30 4022 O 375.597 -2.69878 -3.11833 0
M  V30 4023 H 374.938 -0.58792 -0.30862 0
M  V30 4024 H 377.468 -2.01532 -0.352993 0
M  V30 4025 H 377.478 -3.25198 -2.46395 0
M  V30 4026 H 376.153 -3.87996 -1.49774 0
M  V30 4027 H 374.73 -2.53199 -2.7376 0
M  V30 4028 N 376.915 0.57481 -1.46744 0
M  V30 4029 C 378.192 1.3352 -1.4294 0
M  V30 4030 C 378.572 2.10775 -0.117009 0
M  V30 4031 O 377.92 2.09966 0.901474 0
M  V30 4032 C 378.13 2.25456 -2.66403 0
M  V30 4033 C 379.478 2.87035 -3.12883 0
M  V30 4034 O 380.502 2.35766 -2.67007 0
M  V30 4035 O 379.361 3.80179 -3.92589 0
M  V30 4036 H 376.455 0.600318 -0.568812 0
M  V30 4037 H 379.001 0.595171 -1.58921 0
M  V30 4038 H 377.773 1.67851 -3.53471 0
M  V30 4039 H 377.396 3.06785 -2.52921 0
M  V30 4040 N 378.394 1.34581 0.820102 0
M  V30 4041 C 379.624 1.29991 1.6058 0
M  V30 4042 C 380.032 -0.127588 1.88769 0
M  V30 4043 O 379.375 -1.08595 1.48165 0
M  V30 4044 C 379.437 2.02548 2.9701 0
M  V30 4045 C 379.101 3.51794 2.91701 0
M  V30 4046 C 380.098 4.46647 2.66087 0
M  V30 4047 C 377.783 3.94249 3.11245 0
M  V30 4048 C 379.777 5.81929 2.60071 0
M  V30 4049 C 377.464 5.2963 3.04853 0
M  V30 4050 C 378.462 6.23282 2.793 0
M  V30 4051 O 378.15 7.56181 2.72847 0
M  V30 4052 H 377.882 0.448539 0.505756 0
M  V30 4053 H 380.436 1.77811 1.02822 0
M  V30 4054 H 378.666 1.49345 3.56697 0
M  V30 4055 H 380.355 1.91211 3.58041 0
M  V30 4056 H 381.121 4.15168 2.5072 0
M  V30 4057 H 377 3.21749 3.30149 0
M  V30 4058 H 380.544 6.54999 2.40046 0
M  V30 4059 H 376.441 5.60727 3.19774 0
M  V30 4060 H 377.209 7.6595 2.88553 0
M  V30 4061 N 379.872 -1.04064 1.18357 0
M  V30 4062 C 381.102 -1.80654 1.00238 0
M  V30 4063 C 381.51 -1.83713 -0.452362 0
M  V30 4064 O 380.853 -1.27135 -1.32599 0
M  V30 4065 C 380.915 -3.27582 1.48088 0
M  V30 4066 C 380.579 -3.48184 2.96002 0
M  V30 4067 C 381.576 -3.39372 3.93856 0
M  V30 4068 C 379.261 -3.7478 3.34433 0
M  V30 4069 C 381.255 -3.5686 5.28138 0
M  V30 4070 C 378.942 -3.91915 4.68877 0
M  V30 4071 C 379.94 -3.82956 5.65539 0
M  V30 4072 O 379.628 -3.996 6.97549 0
M  V30 4073 H 379.36 -0.575751 0.354241 0
M  V30 4074 H 381.914 -1.32044 1.57333 0
M  V30 4075 H 380.144 -3.77161 0.853588 0
M  V30 4076 H 381.833 -3.8573 1.2636 0
M  V30 4077 H 382.599 -3.18789 3.65511 0
M  V30 4078 H 378.478 -3.80852 2.59756 0
M  V30 4079 H 382.022 -3.49783 6.03571 0
M  V30 4080 H 377.919 -4.11992 4.96923 0
M  V30 4081 H 378.687 -4.1676 7.04452 0
M  V30 4082 N 381.35 -0.985608 -1.22978 0
M  V30 4083 C 382.298 -0.522631 -2.26652 0
M  V30 4084 C 383.292 0.422998 -1.64034 0
M  V30 4085 O 384.498 0.296319 -1.77544 0
M  V30 4086 H 380.873 -0.150597 -0.736766 0
M  V30 4087 H 382.844 -1.40863 -2.63059 0
M  V30 4088 C 381.593 0.154238 -3.47358 0
M  V30 4089 H 380.916 -0.564329 -3.95797 0
M  V30 4090 H 382.356 0.441744 -4.21693 0
M  V30 4091 C 380.815 1.38719 -3.07016 0
M  V30 4092 O 381.345 2.48307 -3.15764 0
M  V30 4093 N 379.551 1.25975 -2.61875 0
M  V30 4094 H 379.098 0.368068 -2.54957 0
M  V30 4095 H 379.056 2.08578 -2.3525 0
M  V30 4096 N 382.828 1.3818 -0.7579 0
M  V30 4097 C 383.738 2.3421 -0.135247 0
M  V30 4098 C 384.754 1.59487 0.695683 0
M  V30 4099 O 385.93 1.91657 0.618832 0
M  V30 4100 C 382.995 3.3862 0.744139 0
M  V30 4101 C 382.056 4.2918 -0.101658 0
M  V30 4102 C 381.289 5.28603 0.735851 0
M  V30 4103 O 381.512 5.35166 1.97366 0
M  V30 4104 O 380.446 6.01707 0.152372 0
M  V30 4105 H 384.272 2.8916 -0.928436 0
M  V30 4106 H 381.857 1.40101 -0.518855 0
M  V30 4107 H 383.739 4.02539 1.2466 0
M  V30 4108 H 382.414 2.86019 1.51575 0
M  V30 4109 H 381.321 3.68407 -0.650167 0
M  V30 4110 H 382.654 4.85048 -0.836024 0
M  V30 4111 N 384.306 0.507319 1.49211 0
M  V30 4112 C 385.254 -0.281364 2.30892 0
M  V30 4113 C 386.248 -0.95687 1.39787 0
M  V30 4114 O 387.454 -0.883838 1.56807 0
M  V30 4115 H 383.829 -0.109597 0.743971 0
M  V30 4116 H 385.8 0.42744 2.95323 0
M  V30 4117 C 384.549 -1.32918 3.21291 0
M  V30 4118 H 383.872 -0.818799 3.91326 0
M  V30 4119 H 385.312 -1.85288 3.81372 0
M  V30 4120 C 383.771 -2.35074 2.41333 0
M  V30 4121 O 384.301 -3.4108 2.12197 0
M  V30 4122 N 382.507 -2.07705 2.03241 0
M  V30 4123 H 382.054 -1.2152 2.27136 0
M  V30 4124 H 382.012 -2.76283 1.50051 0
M  V30 4125 N 385.784 -1.5574 0.241426 0
M  V30 4126 C 387.061 -1.90704 -0.434881 0
M  V30 4127 C 387.441 -1.16145 -1.76277 0
M  V30 4128 O 386.789 -0.277152 -2.26813 0
M  V30 4129 C 386.999 -3.43657 -0.608343 0
M  V30 4130 C 388.347 -4.14806 -0.906725 0
M  V30 4131 O 389.371 -3.49366 -0.694408 0
M  V30 4132 O 388.23 -5.30548 -1.31075 0
M  V30 4133 H 385.324 -0.793592 -0.23268 0
M  V30 4134 H 387.87 -1.67288 0.285086 0
M  V30 4135 H 386.642 -3.89927 0.327505 0
M  V30 4136 H 386.265 -3.72918 -1.37906 0
M  V30 4137 N 387.262 0.0317525 -1.57568 0
M  V30 4138 C 388.508 0.718712 -1.90279 0
M  V30 4139 C 388.863 1.73108 -0.839727 0
M  V30 4140 O 388.156 1.90997 0.15188 0
M  V30 4141 C 388.35 1.43167 -3.27472 0
M  V30 4142 C 388.179 0.489869 -4.47024 0
M  V30 4143 C 386.949 0.111909 -5.05176 0
M  V30 4144 C 389.147 -0.230592 -5.13783 0
M  V30 4145 N 387.129 -0.831427 -6.08244 0
M  V30 4146 C 388.5 -1.02968 -6.1139 0
M  V30 4147 C 390.555 -0.297821 -4.97008 0
M  V30 4148 C 389.258 -1.88982 -6.9403 0
M  V30 4149 C 391.284 -1.14507 -5.80209 0
M  V30 4150 C 390.646 -1.9321 -6.77384 0
M  V30 4151 H 386.745 0.237177 -0.745165 0
M  V30 4152 H 389.329 -0.0211267 -1.94689 0
M  V30 4153 H 387.5 2.14199 -3.23996 0
M  V30 4154 H 389.232 2.0708 -3.47707 0
M  V30 4155 H 385.987 0.473513 -4.71227 0
M  V30 4156 H 386.411 -1.29752 -6.6445 0
M  V30 4157 H 391.053 0.296346 -4.2176 0
M  V30 4158 H 388.771 -2.4948 -7.68626 0
M  V30 4159 H 392.357 -1.20059 -5.69278 0
M  V30 4160 H 391.237 -2.57711 -7.40645 0
M  V30 4161 N 388.74 1.54641 0.303973 0
M  V30 4162 C 389.688 1.86137 1.39484 0
M  V30 4163 C 390.682 0.734854 1.52631 0
M  V30 4164 O 391.888 0.918803 1.54784 0
M  V30 4165 H 388.263 0.590324 0.465856 0
M  V30 4166 H 390.234 2.77324 1.10154 0
M  V30 4167 C 388.983 2.12274 2.75382 0
M  V30 4168 H 388.306 2.98429 2.66046 0
M  V30 4169 H 389.746 2.38254 3.5073 0
M  V30 4170 C 388.205 0.920365 3.24085 0
M  V30 4171 O 388.735 0.139377 4.01458 0
M  V30 4172 N 386.941 0.726566 2.81371 0
M  V30 4173 H 386.488 1.36332 2.18567 0
M  V30 4174 H 386.446 -0.0763799 3.14307 0
M  V30 4175 N 390.218 -0.567019 1.47046 0
M  V30 4176 C 391.458 -1.3355 1.54738 0
M  V30 4177 C 391.822 -1.90947 0.200772 0
M  V30 4178 O 393.023 -2.68367 0.152489 0
M  V30 4179 C 391.294 -2.42317 2.62712 0
M  V30 4180 S 392.853 -3.29383 2.89918 0
M  V30 4181 H 389.671 -0.454788 0.546525 0
M  V30 4182 H 392.273 -0.650191 1.84371 0
M  V30 4183 H 390.977 -1.98568 3.59164 0
M  V30 4184 H 390.508 -3.15601 2.34861 0
M  V30 4185 H 392.523 -4.41548 2.26384 0
M  V30 4186 N 391.696 -1.35014 -0.812953 0
M  V30 4187 C 392.628 -1.23262 -1.93233 0
M  V30 4188 C 393.641 -0.157371 -1.62038 0
M  V30 4189 O 394.83 -0.410096 -1.73725 0
M  V30 4190 C 391.93 -0.87392 -3.27438 0
M  V30 4191 C 391.103 -2.04622 -3.86586 0
M  V30 4192 C 390.162 -1.66432 -4.99186 0
M  V30 4193 O 389.188 -2.38222 -5.16951 0
M  V30 4194 N 390.39 -0.584248 -5.77552 0
M  V30 4195 H 393.155 -2.19699 -2.03844 0
M  V30 4196 H 390.716 -1.281 -0.99005 0
M  V30 4197 H 392.708 -0.600039 -4.00227 0
M  V30 4198 H 391.278 0.00057392 -3.126 0
M  V30 4199 H 390.498 -2.48427 -3.06068 0
M  V30 4200 H 391.786 -2.82999 -4.22835 0
M  V30 4201 H 391.184 0.0123526 -5.65699 0
M  V30 4202 H 389.741 -0.37013 -6.50748 0
M  V30 4203 N 393.175 1.03435 -1.18907 0
M  V30 4204 C 394.107 2.1165 -0.879595 0
M  V30 4205 C 395.12 1.62316 0.125439 0
M  V30 4206 O 396.309 1.78201 -0.103245 0
M  V30 4207 C 393.409 3.37622 -0.294042 0
M  V30 4208 C 392.582 4.16166 -1.34629 0
M  V30 4209 C 391.641 5.20457 -0.775274 0
M  V30 4210 O 390.667 5.50379 -1.4516 0
M  V30 4211 N 391.869 5.78949 0.424126 0
M  V30 4212 H 394.634 2.38791 -1.81105 0
M  V30 4213 H 392.195 1.19681 -1.09032 0
M  V30 4214 H 394.187 4.04572 0.101679 0
M  V30 4215 H 392.757 3.07873 0.541575 0
M  V30 4216 H 391.977 3.44444 -1.91707 0
M  V30 4217 H 393.265 4.65432 -2.05549 0
M  V30 4218 H 392.663 5.56948 0.991209 0
M  V30 4219 H 391.22 6.47334 0.761691 0
M  V30 4220 N 394.653 0.992116 1.22453 0
M  V30 4221 C 395.881 0.685944 1.95198 0
M  V30 4222 C 396.296 -0.749233 1.73297 0
M  V30 4223 O 395.653 -1.50549 1.03156 0
M  V30 4224 C 395.704 0.981395 3.47924 0
M  V30 4225 O 395.425 2.36018 3.6909 0
M  V30 4226 C 396.926 0.692815 4.37853 0
M  V30 4227 H 394.146 0.253821 0.621141 0
M  V30 4228 H 396.69 1.32668 1.55626 0
M  V30 4229 H 394.845 0.386481 3.85467 0
M  V30 4230 H 395.259 2.45884 4.63294 0
M  V30 4231 H 396.733 0.949818 5.43767 0
M  V30 4232 H 397.21 -0.373181 4.37612 0
M  V30 4233 H 397.816 1.26874 4.05935 0
M  V30 4234 N 396.131 -1.37776 0.765217 0
M  V30 4235 C 397.061 -2.32945 0.160953 0
M  V30 4236 C 398.042 -1.55454 -0.690516 0
M  V30 4237 O 399.227 -1.83721 -0.629318 0
M  V30 4238 C 396.357 -3.39669 -0.724031 0
M  V30 4239 C 395.311 -4.27992 0.0256173 0
M  V30 4240 C 394.637 -5.25673 -0.978383 0
M  V30 4241 C 395.937 -5.08309 1.20082 0
M  V30 4242 H 397.631 -2.83728 0.955969 0
M  V30 4243 H 395.177 -1.36416 0.461149 0
M  V30 4244 H 397.13 -4.05219 -1.15652 0
M  V30 4245 H 395.854 -2.87396 -1.5515 0
M  V30 4246 H 394.513 -3.63964 0.438812 0
M  V30 4247 H 394.161 -4.69682 -1.80022 0
M  V30 4248 H 393.861 -5.85625 -0.481378 0
M  V30 4249 H 395.385 -5.94098 -1.40995 0
M  V30 4250 H 396.799 -5.67034 0.845307 0
M  V30 4251 H 395.196 -5.77554 1.62947 0
M  V30 4252 H 396.266 -4.41365 2.00811 0
M  V30 4253 N 397.609 -0.515225 -1.4894 0
M  V30 4254 C 398.557 0.269115 -2.31038 0
M  V30 4255 C 399.551 0.949443 -1.40292 0
M  V30 4256 O 400.757 0.87551 -1.57273 0
M  V30 4257 H 397.132 0.10565 -0.744542 0
M  V30 4258 H 399.103 -0.443096 -2.95092 0
M  V30 4259 C 397.852 1.31213 -3.21991 0
M  V30 4260 H 397.175 0.798034 -3.91754 0
M  V30 4261 H 398.615 1.83263 -3.82349 0
M  V30 4262 C 397.074 2.33791 -2.42576 0
M  V30 4263 O 397.604 3.3995 -2.14003 0
M  V30 4264 N 395.81 2.06625 -2.0434 0
M  V30 4265 H 395.357 1.20314 -2.27777 0
M  V30 4266 H 395.315 2.75483 -1.51514 0
M  V30 4267 N 399.087 1.5561 -0.249682 0
M  V30 4268 C 400.315 2.03411 0.378352 0
M  V30 4269 C 400.73 1.12886 1.51335 0
M  V30 4270 O 400.087 0.143833 1.81932 0
M  V30 4271 C 400.138 3.50537 0.88351 0
M  V30 4272 O 399.859 4.37614 -0.20626 0
M  V30 4273 C 401.36 4.14113 1.58195 0
M  V30 4274 H 398.58 0.664994 0.08958 0
M  V30 4275 H 401.124 2.01044 -0.374357 0
M  V30 4276 H 399.279 3.5343 1.58639 0
M  V30 4277 H 399.693 5.24199 0.177782 0
M  V30 4278 H 401.167 5.18741 1.8871 0
M  V30 4279 H 401.644 3.60767 2.50487 0
M  V30 4280 H 402.25 4.15151 0.923573 0
M  V30 4281 N 400.565 -0.0233959 1.57583 0
M  V30 4282 C 401.811 -0.714119 1.89811 0
M  V30 4283 C 402.144 -1.74702 0.848113 0
M  V30 4284 O 401.419 -1.94023 -0.136135 0
M  V30 4285 C 401.702 -1.37853 3.32669 0
M  V30 4286 C 401.555 -0.358764 4.48367 0
M  V30 4287 C 402.874 -2.31101 3.7454 0
M  V30 4288 H 399.993 -0.25814 0.690314 0
M  V30 4289 H 402.635 0.0230927 1.89986 0
M  V30 4290 H 400.785 -2.00689 3.3265 0
M  V30 4291 H 402.457 0.268115 4.6052 0
M  V30 4292 H 400.7 0.321387 4.32608 0
M  V30 4293 H 401.371 -0.862242 5.45224 0
M  V30 4294 H 403.847 -1.78304 3.75961 0
M  V30 4295 H 402.723 -2.74567 4.75294 0
M  V30 4296 H 402.984 -3.18018 3.0711 0
M  V30 4297 N 402.043 -1.548 -0.295768 0
M  V30 4298 C 402.973 -1.89115 -1.36959 0
M  V30 4299 C 403.954 -0.75059 -1.52644 0
M  V30 4300 O 405.139 -1.00678 -1.66065 0
M  V30 4301 C 402.269 -2.14307 -2.73295 0
M  V30 4302 C 401.223 -3.30151 -2.72368 0
M  V30 4303 C 400.549 -3.40772 -4.12042 0
M  V30 4304 C 401.849 -4.67126 -2.33646 0
M  V30 4305 H 403.543 -2.79053 -1.08488 0
M  V30 4306 H 401.089 -1.34266 -0.520443 0
M  V30 4307 H 403.042 -2.36898 -3.48507 0
M  V30 4308 H 401.766 -1.21145 -3.03301 0
M  V30 4309 H 400.425 -3.0749 -1.99613 0
M  V30 4310 H 400.073 -2.45117 -4.39234 0
M  V30 4311 H 399.773 -4.18645 -4.12322 0
M  V30 4312 H 401.297 -3.6563 -4.89027 0
M  V30 4313 H 402.711 -4.89414 -2.98575 0
M  V30 4314 H 401.108 -5.47751 -2.45129 0
M  V30 4315 H 402.178 -4.67489 -1.28772 0
M  V30 4316 N 403.521 0.559213 -1.47345 0
M  V30 4317 C 404.749 1.34194 -1.57479 0
M  V30 4318 C 405.164 1.87463 -0.224261 0
M  V30 4319 O 404.521 1.64888 0.782185 0
M  V30 4320 C 404.572 2.51324 -2.59843 0
M  V30 4321 O 404.293 2.00256 -3.89653 0
M  V30 4322 C 405.794 3.43563 -2.80142 0
M  V30 4323 H 403.014 0.409136 -0.531835 0
M  V30 4324 H 405.558 0.677609 -1.92947 0
M  V30 4325 H 403.713 3.13699 -2.27314 0
M  V30 4326 H 404.127 2.76708 -4.4557 0
M  V30 4327 H 405.601 4.2217 -3.55635 0
M  V30 4328 H 406.078 3.9698 -1.87892 0
M  V30 4329 H 406.684 2.87005 -3.1386 0
M  V30 4330 N 404.999 1.35443 0.805782 0
M  V30 4331 C 405.909 1.30546 1.94923 0
M  V30 4332 C 406.925 0.210233 1.72725 0
M  V30 4333 O 408.101 0.43975 1.9654 0
M  V30 4334 C 405.166 1.07782 3.29521 0
M  V30 4335 C 404.227 2.26625 3.64609 0
M  V30 4336 C 403.46 2.04938 4.92784 0
M  V30 4337 O 403.683 1.01624 5.61274 0
M  V30 4338 O 402.617 2.9232 5.26149 0
M  V30 4339 H 406.443 2.26779 2.02002 0
M  V30 4340 H 404.028 1.15823 0.943682 0
M  V30 4341 H 405.91 0.969392 4.10098 0
M  V30 4342 H 404.585 0.146003 3.23371 0
M  V30 4343 H 403.492 2.43033 2.84404 0
M  V30 4344 H 404.825 3.18257 3.75464 0
M  V30 4345 N 406.477 -1.02803 1.19454 0
M  V30 4346 C 407.726 -1.7562 0.991996 0
M  V30 4347 C 408.039 -1.89672 -0.477901 0
M  V30 4348 O 409.245 -2.59468 -0.799287 0
M  V30 4349 C 407.701 -3.15812 1.72601 0
M  V30 4350 C 407.309 -3.0981 3.23607 0
M  V30 4351 C 409.053 -3.92918 1.60674 0
M  V30 4352 C 406.96 -4.44939 3.89594 0
M  V30 4353 H 405.89 -0.658352 0.367543 0
M  V30 4354 H 408.541 -1.15044 1.42959 0
M  V30 4355 H 406.923 -3.7686 1.21624 0
M  V30 4356 H 408.097 -2.58138 3.81709 0
M  V30 4357 H 406.412 -2.46201 3.35819 0
M  V30 4358 H 409.009 -4.9287 2.07323 0
M  V30 4359 H 409.352 -4.12502 0.561025 0
M  V30 4360 H 409.885 -3.38472 2.09001 0
M  V30 4361 H 406.624 -4.30559 4.94267 0
M  V30 4362 H 406.144 -4.96664 3.36281 0
M  V30 4363 H 407.823 -5.1382 3.93189 0
M  V30 4364 N 407.956 -0.998596 -1.21925 0
M  V30 4365 C 409.181 -0.696015 -1.95372 0
M  V30 4366 C 409.606 0.733826 -1.73195 0
M  V30 4367 O 408.964 1.50242 -1.01474 0
M  V30 4368 C 409.012 -1.01466 -3.4603 0
M  V30 4369 O 408.116 -0.116415 -4.12236 0
M  V30 4370 H 407.457 -0.259938 -0.611006 0
M  V30 4371 H 409.987 -1.33711 -1.54863 0
M  V30 4372 H 409.997 -0.958855 -3.96573 0
M  V30 4373 H 408.672 -2.05653 -3.61497 0
M  V30 4374 H 407.249 -0.228193 -3.72201 0
M  V30 4375 N 409.434 1.37368 -0.772513 0
M  V30 4376 C 410.366 2.28899 -0.117502 0
M  V30 4377 C 411.379 1.4867 0.663405 0
M  V30 4378 O 412.568 1.71314 0.501372 0
M  V30 4379 C 409.668 3.2788 0.857192 0
M  V30 4380 C 408.841 4.37207 0.129938 0
M  V30 4381 C 407.9 5.16257 1.01811 0
M  V30 4382 O 406.926 5.67159 0.481601 0
M  V30 4383 N 408.128 5.31058 2.3443 0
M  V30 4384 H 410.893 2.85752 -0.903662 0
M  V30 4385 H 408.454 1.49353 -0.62493 0
M  V30 4386 H 410.446 3.77647 1.45482 0
M  V30 4387 H 409.016 2.7179 1.54432 0
M  V30 4388 H 408.236 3.88827 -0.648605 0
M  V30 4389 H 409.524 5.07434 -0.372559 0
M  V30 4390 H 408.922 4.91287 2.80452 0
M  V30 4391 H 407.479 5.84131 2.89197 0
M  V30 4392 N 410.912 0.523116 1.48665 0
M  V30 4393 C 412.16 -0.0134497 2.02096 0
M  V30 4394 C 412.481 -1.35418 1.40311 0
M  V30 4395 O 411.751 -1.87543 0.566074 0
M  V30 4396 H 410.331 -0.00795915 0.746958 0
M  V30 4397 H 412.993 0.685388 1.82451 0
M  V30 4398 H 412.089 -0.126849 3.11842 0
M  V30 4399 N 412.39 -1.55475 0.257931 0
M  V30 4400 C 413.353 -2.20551 -0.623706 0
M  V30 4401 C 414.353 -1.17809 -1.09443 0
M  V30 4402 O 415.543 -1.42823 -0.997362 0
M  V30 4403 C 412.675 -2.85784 -1.8585 0
M  V30 4404 H 413.868 -2.99848 -0.0557743 0
M  V30 4405 H 411.421 -1.56298 0.0084422 0
M  V30 4406 H 412.156 -2.10453 -2.46739 0
M  V30 4407 H 411.941 -3.61057 -1.52907 0
M  V30 4408 H 413.431 -3.35553 -2.48584 0
M  V30 4409 N 413.868 0.0150385 -1.57593 0
M  V30 4410 C 415.115 0.703001 -1.89906 0
M  V30 4411 C 415.443 1.74604 -0.856944 0
M  V30 4412 O 414.698 1.95197 0.140287 0
M  V30 4413 C 414.997 1.39686 -3.28972 0
M  V30 4414 C 414.663 0.488457 -4.48246 0
M  V30 4415 C 413.325 0.2383 -4.8061 0
M  V30 4416 C 415.677 -0.137881 -5.21018 0
M  V30 4417 C 413.005 -0.646738 -5.83125 0
M  V30 4418 C 415.357 -1.0107 -6.24474 0
M  V30 4419 C 414.021 -1.27019 -6.55303 0
M  V30 4420 H 413.291 0.257246 -0.694914 0
M  V30 4421 H 415.938 -0.037259 -1.91464 0
M  V30 4422 H 414.243 2.21079 -3.23468 0
M  V30 4423 H 415.94 1.93495 -3.51227 0
M  V30 4424 H 412.53 0.693593 -4.22951 0
M  V30 4425 H 416.714 0.0423953 -4.96282 0
M  V30 4426 H 411.97 -0.855937 -6.05379 0
M  V30 4427 H 416.144 -1.50247 -6.79999 0
M  V30 4428 H 413.771 -1.95769 -7.3456 0
M  V30 4429 N 415.346 1.54954 0.287554 0
M  V30 4430 C 416.571 1.79209 1.04397 0
M  V30 4431 C 416.996 0.556431 1.79682 0
M  V30 4432 O 416.354 -0.493518 1.74454 0
M  V30 4433 C 416.402 3.00739 1.98969 0
M  V30 4434 O 415.506 2.74805 3.075 0
M  V30 4435 H 414.847 0.592755 0.299227 0
M  V30 4436 H 417.377 2.02068 0.320886 0
M  V30 4437 H 417.387 3.29077 2.4119 0
M  V30 4438 H 416.062 3.90329 1.43582 0
M  V30 4439 H 414.639 2.57523 2.69697 0
M  V30 4440 N 416.824 -0.551391 1.4764 0
M  V30 4441 C 417.772 -1.67896 1.60978 0
M  V30 4442 C 418.766 -1.62549 0.476877 0
M  V30 4443 O 419.972 -1.67664 0.654878 0
M  V30 4444 H 416.347 -0.555649 0.506713 0
M  V30 4445 H 418.318 -1.53784 2.55721 0
M  V30 4446 C 417.067 -3.06234 1.64669 0
M  V30 4447 H 416.39 -3.11033 2.51194 0
M  V30 4448 H 417.83 -3.84804 1.7805 0
M  V30 4449 C 416.289 -3.34737 0.381115 0
M  V30 4450 O 416.819 -3.98381 -0.515297 0
M  V30 4451 N 415.025 -2.8944 0.259354 0
M  V30 4452 H 414.572 -2.37827 0.98976 0
M  V30 4453 H 414.53 -3.08882 -0.586464 0
M  V30 4454 N 418.302 -1.35869 -0.798587 0
M  V30 4455 C 419.713 -1.26498 -1.37314 0
M  V30 4456 C 420.064 0.0991899 -1.95949 0
M  V30 4457 O 419.189 1.0004 -1.91888 0
M  V30 4458 C 419.784 -2.29054 -2.49639 0
M  V30 4459 C 418.343 -2.234 -3.02935 0
M  V30 4460 C 417.49 -2.14329 -1.75949 0
M  V30 4461 H 420.441 -1.46881 -0.600971 0
M  V30 4462 H 420.462 -1.92166 -3.28409 0
M  V30 4463 H 419.974 -3.2833 -2.06933 0
M  V30 4464 H 418.075 -1.27562 -3.50084 0
M  V30 4465 H 418.188 -3.15703 -3.60372 0
M  V30 4466 H 416.552 -1.60435 -1.9782 0
M  V30 4467 H 417.335 -3.15477 -1.35384 0
M  V30 4468 N 419.78 1.02168 -1.19998 0
M  V30 4469 C 420.728 2.12717 -0.940967 0
M  V30 4470 C 421.722 1.69069 0.105841 0
M  V30 4471 O 422.928 1.79946 -0.0440583 0
M  V30 4472 H 419.303 0.695108 -0.28693 0
M  V30 4473 H 421.274 2.3175 -1.87975 0
M  V30 4474 C 420.023 3.44027 -0.504049 0
M  V30 4475 H 419.346 3.78036 -1.30112 0
M  V30 4476 H 420.786 4.22452 -0.361991 0
M  V30 4477 C 419.245 3.27678 0.782878 0
M  V30 4478 O 419.775 3.56949 1.84256 0
M  V30 4479 N 417.981 2.80943 0.742921 0
M  V30 4480 H 417.528 2.57322 -0.119687 0
M  V30 4481 H 417.486 2.70385 1.60435 0
M  V30 4482 N 421.258 1.00505 1.21394 0
M  V30 4483 C 422.221 0.570459 2.21987 0
M  V30 4484 C 423.221 -0.353211 1.56873 0
M  V30 4485 O 424.411 -0.14349 1.73608 0
M  V30 4486 C 421.543 -0.168555 3.40483 0
M  V30 4487 H 422.736 1.46021 2.6195 0
M  V30 4488 H 420.289 0.793565 1.34656 0
M  V30 4489 H 421.024 -1.07374 3.06009 0
M  V30 4490 H 420.809 0.494823 3.88965 0
M  V30 4491 H 422.299 -0.460362 4.15055 0
M  V30 4492 N 422.737 -1.36956 0.779787 0
M  V30 4493 C 423.7 -2.2851 0.177662 0
M  V30 4494 C 424.7 -1.48393 -0.619377 0
M  V30 4495 O 425.89 -1.68505 -0.441785 0
M  V30 4496 C 423.022 -3.32428 -0.755279 0
M  V30 4497 H 424.215 -2.83269 0.984823 0
M  V30 4498 H 421.768 -1.46358 0.548544 0
M  V30 4499 H 422.503 -2.82808 -1.58714 0
M  V30 4500 H 422.288 -3.91659 -0.185817 0
M  V30 4501 H 423.778 -4.00824 -1.17174 0
M  V30 4502 N 424.215 -0.530993 -1.48385 0
M  V30 4503 C 425.178 0.220497 -2.28137 0
M  V30 4504 C 426.178 0.866851 -1.35434 0
M  V30 4505 O 427.368 0.726746 -1.58316 0
M  V30 4506 C 424.5 1.31921 -3.1434 0
M  V30 4507 H 425.693 -0.479714 -2.96038 0
M  V30 4508 H 423.246 -0.286968 -1.53643 0
M  V30 4509 H 423.981 2.05264 -2.51072 0
M  V30 4510 H 423.766 0.86085 -3.82533 0
M  V30 4511 H 425.256 1.84776 -3.74497 0
M  V30 4512 N 425.693 1.55336 -0.266172 0
M  V30 4513 C 426.625 2.19544 0.658247 0
M  V30 4514 C 427.638 1.17746 1.12427 0
M  V30 4515 O 428.827 1.44517 1.04772 0
M  V30 4516 C 425.927 2.80032 1.9088 0
M  V30 4517 C 425.1 4.07436 1.59106 0
M  V30 4518 C 424.159 4.52056 2.69317 0
M  V30 4519 O 423.185 5.18023 2.35883 0
M  V30 4520 N 424.387 4.21448 3.99201 0
M  V30 4521 H 427.152 2.99503 0.108754 0
M  V30 4522 H 424.713 1.61667 -0.0869059 0
M  V30 4523 H 426.705 3.06831 2.63888 0
M  V30 4524 H 425.275 2.04119 2.36758 0
M  V30 4525 H 424.495 3.88021 0.695243 0
M  V30 4526 H 425.783 4.90462 1.35367 0
M  V30 4527 H 425.181 3.68528 4.29189 0
M  V30 4528 H 423.738 4.53039 4.68614 0
M  V30 4529 N 427.171 -0.0066808 1.57599 0
M  V30 4530 C 428.417 -0.693947 1.90558 0
M  V30 4531 C 428.75 -1.73792 0.866594 0
M  V30 4532 O 428.025 -1.94156 -0.115548 0
M  V30 4533 C 428.308 -1.34317 3.34112 0
M  V30 4534 C 428.161 -0.311189 4.48722 0
M  V30 4535 C 429.48 -2.27116 3.7697 0
M  V30 4536 H 426.599 -0.250803 0.693013 0
M  V30 4537 H 429.241 0.043242 1.89951 0
M  V30 4538 H 427.391 -1.9715 3.3476 0
M  V30 4539 H 429.063 0.316944 4.6021 0
M  V30 4540 H 427.306 0.367253 4.32243 0
M  V30 4541 H 427.977 -0.804366 5.46108 0
M  V30 4542 H 430.453 -1.74306 3.77831 0
M  V30 4543 H 429.329 -2.69511 4.78179 0
M  V30 4544 H 429.59 -3.14743 3.10466 0
M  V30 4545 N 428.649 -1.55105 -0.279332 0
M  V30 4546 C 429.579 -1.90557 -1.34945 0
M  V30 4547 C 430.56 -0.766738 -1.51839 0
M  V30 4548 O 431.745 -1.02434 -1.64988 0
M  V30 4549 C 428.875 -2.17193 -2.71006 0
M  V30 4550 C 427.829 -3.33021 -2.68851 0
M  V30 4551 C 427.155 -3.45123 -4.08405 0
M  V30 4552 C 428.455 -4.69578 -2.28678 0
M  V30 4553 H 430.149 -2.80188 -1.05522 0
M  V30 4554 H 427.695 -1.34811 -0.506173 0
M  V30 4555 H 429.648 -2.40581 -3.45975 0
M  V30 4556 H 428.372 -1.24355 -3.01999 0
M  V30 4557 H 427.031 -3.0959 -1.9634 0
M  V30 4558 H 426.679 -2.49762 -4.3661 0
M  V30 4559 H 426.379 -4.22995 -4.07859 0
M  V30 4560 H 427.903 -3.70796 -4.85121 0
M  V30 4561 H 429.317 -4.92553 -2.93368 0
M  V30 4562 H 427.714 -5.5032 -2.39306 0
M  V30 4563 H 428.784 -4.68828 -1.23807 0
M  V30 4564 N 430.127 0.543554 -1.4793 0
M  V30 4565 C 431.538 1.12561 -1.48953 0
M  V30 4566 C 431.889 1.94578 -0.251754 0
M  V30 4567 O 431.014 2.0665 0.642255 0
M  V30 4568 C 431.609 2.04801 -2.69892 0
M  V30 4569 C 430.168 2.58251 -2.73831 0
M  V30 4570 C 429.315 1.34918 -2.42265 0
M  V30 4571 H 432.266 0.32947 -1.55242 0
M  V30 4572 H 432.287 2.88886 -2.47639 0
M  V30 4573 H 431.799 1.4508 -3.59963 0
M  V30 4574 H 429.9 3.21732 -1.87934 0
M  V30 4575 H 430.013 2.98312 -3.74895 0
M  V30 4576 H 428.377 1.66046 -1.93134 0
M  V30 4577 H 429.16 0.769693 -3.3456 0
M  V30 4578 N 431.605 1.3629 0.791371 0
M  V30 4579 C 432.568 1.30309 1.88553 0
M  V30 4580 C 433.568 0.211204 1.59407 0
M  V30 4581 O 434.758 0.465865 1.67855 0
M  V30 4582 C 431.89 1.01956 3.25297 0
M  V30 4583 H 433.083 2.27614 1.95273 0
M  V30 4584 H 430.636 1.21035 0.988953 0
M  V30 4585 H 431.371 0.050998 3.2426 0
M  V30 4586 H 431.156 1.80968 3.4784 0
M  V30 4587 H 432.646 1.0037 4.05359 0
M  V30 4588 N 433.083 -1.0153 1.20538 0
M  V30 4589 C 434.013 -2.11972 0.979295 0
M  V30 4590 C 434.994 -1.6985 -0.0921787 0
M  V30 4591 O 436.179 -1.94089 0.0655932 0
M  V30 4592 C 433.309 -3.43201 0.531984 0
M  V30 4593 C 432.263 -3.9907 1.54685 0
M  V30 4594 C 431.589 -5.26082 0.956127 0
M  V30 4595 C 432.889 -4.32313 2.93092 0
M  V30 4596 H 434.583 -2.31143 1.90298 0
M  V30 4597 H 432.129 -1.11079 0.916372 0
M  V30 4598 H 434.082 -4.1985 0.361044 0
M  V30 4599 H 432.806 -3.23792 -0.427327 0
M  V30 4600 H 431.465 -3.2453 1.70517 0
M  V30 4601 H 431.113 -5.02999 -0.0111538 0
M  V30 4602 H 430.813 -5.64426 1.63393 0
M  V30 4603 H 432.337 -6.05386 0.796284 0
M  V30 4604 H 433.751 -4.99845 2.80763 0
M  V30 4605 H 432.148 -4.81774 3.57791 0
M  V30 4606 H 433.218 -3.41025 3.44717 0
M  V30 4607 N 434.561 -1.01147 -1.20859 0
M  V30 4608 C 435.494 -0.522108 -2.22147 0
M  V30 4609 C 436.472 0.427686 -1.56874 0
M  V30 4610 O 437.656 0.34889 -1.85243 0
M  V30 4611 C 434.783 0.240819 -3.37843 0
M  V30 4612 C 433.829 -0.657752 -4.21398 0
M  V30 4613 S 434.662 -2.12393 -4.91578 0
M  V30 4614 C 435.818 -1.37102 -6.10699 0
M  V30 4615 H 436.051 -1.38035 -2.63313 0
M  V30 4616 H 433.584 -0.819941 -1.30829 0
M  V30 4617 H 435.542 0.674908 -4.04914 0
M  V30 4618 H 434.203 1.07457 -2.95147 0
M  V30 4619 H 433.396 -0.0697456 -5.03952 0
M  V30 4620 H 432.998 -1.0294 -3.59555 0
M  V30 4621 H 435.29 -0.648315 -6.74391 0
M  V30 4622 H 436.233 -2.17252 -6.73949 0
M  V30 4623 H 436.641 -0.876154 -5.57659 0
M  V30 4624 N 436.039 1.36541 -0.78704 0
M  V30 4625 C 437.287 1.98911 -0.357633 0
M  V30 4626 C 437.608 1.62778 1.07371 0
M  V30 4627 O 436.878 0.900612 1.73971 0
M  V30 4628 H 435.458 0.735734 -0.129246 0
M  V30 4629 H 438.12 1.66776 -1.00855 0
M  V30 4630 H 437.216 3.08874 -0.447549 0
M  V30 4631 N 437.518 0.538854 1.48102 0
M  V30 4632 C 438.465 -0.219042 2.29758 0
M  V30 4633 C 439.435 -0.925562 1.37922 0
M  V30 4634 O 440.62 -0.924855 1.66886 0
M  V30 4635 C 437.76 -1.25452 3.2149 0
M  V30 4636 C 436.873 -0.555943 4.28408 0
M  V30 4637 C 436.008 -1.57512 5.0731 0
M  V30 4638 C 435.047 -0.860498 6.06021 0
M  V30 4639 N 434.184 -1.82564 6.77949 0
M  V30 4640 H 439.024 0.483449 2.94052 0
M  V30 4641 H 436.561 0.250247 1.44956 0
M  V30 4642 H 438.519 -1.86727 3.7308 0
M  V30 4643 H 437.149 -1.92528 2.591 0
M  V30 4644 H 436.201 0.170938 3.80016 0
M  V30 4645 H 437.513 0.00474616 4.988 0
M  V30 4646 H 436.667 -2.26191 5.62959 0
M  V30 4647 H 435.406 -2.16972 4.36778 0
M  V30 4648 H 434.411 -0.159686 5.49568 0
M  V30 4649 H 435.636 -0.271897 6.78555 0
M  V30 4650 H 433.582 -2.40915 6.10161 0
M  V30 4651 H 433.499 -1.31662 7.44447 0
M  V30 4652 H 434.767 -2.50414 7.38182 0
M  V30 4653 N 438.996 -1.55193 0.274407 0
M  V30 4654 C 440.224 -2.03987 -0.345943 0
M  V30 4655 C 440.639 -1.15279 -1.4952 0
M  V30 4656 O 439.996 -0.172759 -1.8168 0
M  V30 4657 C 440.047 -3.51898 -0.827631 0
M  V30 4658 O 439.768 -4.37231 0.275855 0
M  V30 4659 C 441.269 -4.16577 -1.51587 0
M  V30 4660 H 438.489 -0.666335 -0.0789892 0
M  V30 4661 H 441.033 -2.00423 0.406294 0
M  V30 4662 H 439.188 -3.55909 -1.52996 0
M  V30 4663 H 439.602 -5.24415 -0.0943638 0
M  V30 4664 H 441.076 -5.21678 -1.80433 0
M  V30 4665 H 441.553 -3.64707 -2.44716 0
M  V30 4666 H 442.159 -4.16568 -0.857409 0
M  V30 4667 N 440.474 -0.00167713 -1.576 0
M  V30 4668 C 441.721 0.68282 -1.90641 0
M  V30 4669 C 442.049 1.73686 -0.875415 0
M  V30 4670 O 441.304 1.95334 0.119575 0
M  V30 4671 C 441.603 1.36189 -3.30435 0
M  V30 4672 C 441.269 0.440887 -4.48739 0
M  V30 4673 C 439.931 0.187312 -4.80835 0
M  V30 4674 C 442.283 -0.193134 -5.20842 0
M  V30 4675 C 439.611 -0.70855 -5.82406 0
M  V30 4676 C 441.963 -1.07688 -6.23367 0
M  V30 4677 C 440.627 -1.33962 -6.53919 0
M  V30 4678 H 439.897 0.249862 -0.697603 0
M  V30 4679 H 442.544 -0.0575642 -1.91413 0
M  V30 4680 H 440.849 2.17636 -3.25794 0
M  V30 4681 H 442.546 1.89759 -3.5326 0
M  V30 4682 H 439.136 0.648694 -4.23663 0
M  V30 4683 H 443.32 -0.0102445 -4.96299 0
M  V30 4684 H 438.576 -0.920097 -6.04437 0
M  V30 4685 H 442.75 -1.57451 -6.78367 0
M  V30 4686 H 440.377 -2.03549 -7.32442 0
M  V30 4687 N 441.952 1.55251 0.271103 0
M  V30 4688 C 442.882 1.9127 1.33933 0
M  V30 4689 C 443.863 0.77478 1.5143 0
M  V30 4690 O 445.048 1.03307 1.64442 0
M  V30 4691 C 442.178 2.18627 2.69851 0
M  V30 4692 C 441.132 3.34442 2.67081 0
M  V30 4693 C 440.458 3.47284 4.06569 0
M  V30 4694 C 441.758 4.70784 2.26185 0
M  V30 4695 H 443.452 2.80744 1.04035 0
M  V30 4696 H 440.998 1.35077 0.499017 0
M  V30 4697 H 442.951 2.42413 3.44694 0
M  V30 4698 H 441.675 1.25955 3.01335 0
M  V30 4699 H 440.334 3.10627 1.94695 0
M  V30 4700 H 439.982 2.52074 4.35279 0
M  V30 4701 H 439.682 4.25152 4.0561 0
M  V30 4702 H 441.206 3.73363 4.83148 0
M  V30 4703 H 442.62 4.94102 2.90751 0
M  V30 4704 H 441.017 5.51582 2.36384 0
M  V30 4705 H 442.087 4.69478 1.21319 0
M  V30 4706 N 443.43 -0.535701 1.48216 0
M  V30 4707 C 444.707 -1.29683 1.46429 0
M  V30 4708 C 445.087 -2.10391 0.172852 0
M  V30 4709 O 444.435 -2.12282 -0.845488 0
M  V30 4710 C 444.645 -2.18313 2.72287 0
M  V30 4711 C 445.993 -2.78639 3.20383 0
M  V30 4712 O 447.017 -2.28604 2.73164 0
M  V30 4713 O 445.876 -3.69636 4.02531 0
M  V30 4714 H 442.97 -0.585026 0.584529 0
M  V30 4715 H 445.516 -0.552827 1.60443 0
M  V30 4716 H 444.288 -1.58421 3.57797 0
M  V30 4717 H 443.911 -2.99971 2.60966 0
M  V30 4718 N 444.908 -1.36708 -0.784132 0
M  V30 4719 C 446.157 -1.30559 -1.53744 0
M  V30 4720 C 446.47 0.111374 -1.95283 0
M  V30 4721 O 447.676 0.29527 -2.6989 0
M  V30 4722 C 446.132 -2.29098 -2.77565 0
M  V30 4723 C 445.74 -3.76258 -2.43174 0
M  V30 4724 C 447.484 -2.31936 -3.55536 0
M  V30 4725 C 445.391 -4.6656 -3.63422 0
M  V30 4726 H 444.321 -0.48518 -0.577162 0
M  V30 4727 H 446.972 -1.62101 -0.859981 0
M  V30 4728 H 445.354 -1.90557 -3.47137 0
M  V30 4729 H 446.528 -4.23565 -1.81465 0
M  V30 4730 H 444.843 -3.76246 -1.78403 0
M  V30 4731 H 447.44 -2.9661 -4.44889 0
M  V30 4732 H 447.783 -1.3294 -3.94503 0
M  V30 4733 H 448.316 -2.6912 -2.92949 0
M  V30 4734 H 445.055 -5.66638 -3.29547 0
M  V30 4735 H 444.575 -4.23966 -4.24279 0
M  V30 4736 H 446.254 -4.8309 -4.30387 0
M  V30 4737 N 446.386 1.0089 -1.21074 0
M  V30 4738 C 447.334 2.11707 -0.963476 0
M  V30 4739 C 448.328 1.69172 0.0879032 0
M  V30 4740 O 449.534 1.79889 -0.0631415 0
M  V30 4741 H 445.909 0.692026 -0.294287 0
M  V30 4742 H 447.88 2.29743 -1.90422 0
M  V30 4743 C 446.629 3.43473 -0.540509 0
M  V30 4744 H 445.952 3.76634 -1.34114 0
M  V30 4745 H 447.392 4.22044 -0.406777 0
M  V30 4746 C 445.851 3.2849 0.748079 0
M  V30 4747 O 446.381 3.58883 1.8046 0
M  V30 4748 N 444.587 2.81715 0.713081 0
M  V30 4749 H 444.134 2.5718 -0.146973 0
M  V30 4750 H 444.092 2.72071 1.57558 0
M  V30 4751 N 447.864 1.01787 1.20321 0
M  V30 4752 C 448.811 0.589197 2.23153 0
M  V30 4753 C 449.781 -0.391367 1.61423 0
M  V30 4754 O 450.966 -0.290518 1.88575 0
M  V30 4755 C 448.106 -0.0650747 3.45039 0
M  V30 4756 C 447.219 0.960207 4.21194 0
M  V30 4757 C 446.354 0.276854 5.30478 0
M  V30 4758 C 445.393 1.2888 5.98378 0
M  V30 4759 N 444.53 0.632031 6.99249 0
M  V30 4760 H 449.37 1.47071 2.59179 0
M  V30 4761 H 446.907 0.736192 1.27352 0
M  V30 4762 H 448.865 -0.461552 4.14639 0
M  V30 4763 H 447.495 -0.910233 3.09701 0
M  V30 4764 H 446.547 1.47484 3.50646 0
M  V30 4765 H 447.859 1.72977 4.67847 0
M  V30 4766 H 447.013 -0.175056 6.06447 0
M  V30 4767 H 445.752 -0.525004 4.84866 0
M  V30 4768 H 444.757 1.75109 5.21169 0
M  V30 4769 H 445.982 2.09196 6.46076 0
M  V30 4770 H 443.928 -0.149935 6.55829 0
M  V30 4771 H 443.845 1.33964 7.44036 0
M  V30 4772 H 445.113 0.203755 7.79234 0
M  V30 4773 N 449.342 -1.36122 0.79427 0
M  V30 4774 C 450.619 -1.93398 0.292685 0
M  V30 4775 C 450.999 -1.72567 -1.21589 0
M  V30 4776 O 450.347 -1.08745 -2.00965 0
M  V30 4777 C 450.557 -3.42099 0.690614 0
M  V30 4778 C 451.905 -4.19231 0.673105 0
M  V30 4779 O 452.929 -3.50559 0.631389 0
M  V30 4780 O 451.788 -5.41732 0.720362 0
M  V30 4781 H 448.882 -0.823712 0.0736693 0
M  V30 4782 H 451.428 -1.45273 0.87714 0
M  V30 4783 H 450.2 -3.50938 1.73085 0
M  V30 4784 H 449.823 -3.97519 0.0803036 0
M  V30 4785 N 450.82 -0.546701 -1.47814 0
M  V30 4786 C 452.045 -0.021268 -2.07389 0
M  V30 4787 C 452.47 1.25822 -1.39822 0
M  V30 4788 O 451.828 1.75111 -0.46968 0
M  V30 4789 C 451.876 0.168502 -3.60206 0
M  V30 4790 O 450.98 1.23347 -3.93522 0
M  V30 4791 H 450.321 -0.0466108 -0.662362 0
M  V30 4792 H 452.851 -0.759387 -1.89985 0
M  V30 4793 H 452.861 0.385982 -4.0617 0
M  V30 4794 H 451.536 -0.766075 -4.08784 0
M  V30 4795 H 450.113 0.997319 -3.59316 0
M  V30 4796 N 452.299 1.55045 -0.282633 0
M  V30 4797 C 453.524 2.04628 0.337977 0
M  V30 4798 C 453.949 1.15937 1.48123 0
M  V30 4799 O 453.307 0.159532 1.80597 0
M  V30 4800 C 453.355 3.51854 0.78936 0
M  V30 4801 O 452.459 3.66236 1.89592 0
M  V30 4802 H 451.8 0.660434 0.0687261 0
M  V30 4803 H 454.33 2.00261 -0.419124 0
M  V30 4804 H 454.34 3.93361 1.08311 0
M  V30 4805 H 453.015 4.15873 -0.0470419 0
M  V30 4806 H 451.592 3.36633 1.60413 0
M  V30 4807 N 453.777 0.010035 1.57597 0
M  V30 4808 C 455.017 -0.677084 1.9286 0
M  V30 4809 C 455.381 -1.70377 0.885192 0
M  V30 4810 O 456.582 -2.44199 1.12339 0
M  V30 4811 C 454.853 -1.29452 3.33132 0
M  V30 4812 S 456.412 -2.00537 3.90295 0
M  V30 4813 H 453.23 -0.223409 0.674989 0
M  V30 4814 H 455.832 0.0691289 1.95378 0
M  V30 4815 H 454.536 -0.534593 4.06903 0
M  V30 4816 H 454.067 -2.07845 3.34012 0
M  V30 4817 H 456.082 -3.28168 3.72183 0
M  V30 4818 N 455.255 -1.55392 -0.262866 0
M  V30 4819 C 456.501 -1.76737 -0.99458 0
M  V30 4820 C 456.834 -0.572453 -1.85571 0
M  V30 4821 O 456.109 0.429732 -1.89693 0
M  V30 4822 C 456.392 -3.07824 -1.8686 0
M  V30 4823 C 456.245 -4.3769 -1.03672 0
M  V30 4824 C 457.564 -3.35021 -2.85393 0
M  V30 4825 H 454.683 -0.643005 -0.360157 0
M  V30 4826 H 457.325 -1.88126 -0.266216 0
M  V30 4827 H 455.475 -2.98245 -2.48962 0
M  V30 4828 H 457.147 -4.59238 -0.43563 0
M  V30 4829 H 455.39 -4.32461 -0.340513 0
M  V30 4830 H 456.061 -5.25759 -1.6817 0
M  V30 4831 H 458.537 -3.44458 -2.33426 0
M  V30 4832 H 457.413 -4.27989 -3.43681 0
M  V30 4833 H 457.674 -2.55153 -3.61039 0
M  V30 4834 N 456.733 0.527833 -1.48498 0
M  V30 4835 C 457.958 1.313 -1.60546 0
M  V30 4836 C 458.383 1.86199 -0.26672 0
M  V30 4837 O 457.741 1.64513 0.761918 0
M  V30 4838 C 457.789 2.43818 -2.65678 0
M  V30 4839 O 456.893 3.46916 -2.22987 0
M  V30 4840 H 456.234 0.388784 -0.538277 0
M  V30 4841 H 458.764 0.634896 -1.945 0
M  V30 4842 H 458.774 2.89973 -2.87018 0
M  V30 4843 H 457.449 2.03222 -3.62869 0
M  V30 4844 H 456.026 3.06864 -2.11869 0
M  V30 4845 N 458.211 1.37122 0.776871 0
M  V30 4846 C 459.174 1.32301 1.8716 0
M  V30 4847 C 460.174 0.228099 1.59174 0
M  V30 4848 O 461.364 0.483642 1.67352 0
M  V30 4849 C 458.496 1.054 3.24197 0
M  V30 4850 H 459.689 2.29673 1.92848 0
M  V30 4851 H 457.242 1.22077 0.97606 0
M  V30 4852 H 457.977 0.0853872 3.24188 0
M  V30 4853 H 457.762 1.84648 3.45901 0
M  V30 4854 H 459.252 1.04664 4.04271 0
M  V30 4855 N 459.689 -1.00246 1.21608 0
M  V30 4856 C 460.914 -1.78167 1.06167 0
M  V30 4857 C 461.339 -1.84138 -0.384035 0
M  V30 4858 O 460.697 -1.28683 -1.27712 0
M  V30 4859 C 460.745 -3.19786 1.66642 0
M  V30 4860 O 459.849 -4.02153 0.913613 0
M  V30 4861 H 459.19 -0.549 0.37349 0
M  V30 4862 H 461.72 -1.25994 1.61204 0
M  V30 4863 H 461.73 -3.70451 1.70969 0
M  V30 4864 H 460.405 -3.14754 2.7185 0
M  V30 4865 H 458.982 -3.60711 0.945635 0
M  V30 4866 N 461.167 -1.02423 -1.1978 0
M  V30 4867 C 462.415 -0.716569 -1.8897 0
M  V30 4868 C 462.736 0.756769 -1.79716 0
M  V30 4869 O 462.006 1.5449 -1.20456 0
M  V30 4870 H 460.586 -0.262062 -0.699523 0
M  V30 4871 H 463.248 -1.29747 -1.45436 0
M  V30 4872 H 462.344 -1.00675 -2.95417 0
M  V30 4873 N 462.645 1.35699 -0.801477 0
M  V30 4874 C 463.593 2.3177 -0.196317 0
M  V30 4875 C 464.587 1.56388 0.651081 0
M  V30 4876 O 465.793 1.71557 0.544815 0
M  V30 4877 H 462.168 0.750669 -0.0447189 0
M  V30 4878 H 464.139 2.8036 -1.02181 0
M  V30 4879 C 462.888 3.41671 0.644702 0
M  V30 4880 H 462.211 3.998 0.0019921 0
M  V30 4881 H 463.651 4.11184 1.0346 0
M  V30 4882 C 462.11 2.84271 1.80808 0
M  V30 4883 O 462.64 2.77408 2.9053 0
M  V30 4884 N 460.846 2.41391 1.61799 0
M  V30 4885 H 460.393 2.47173 0.725493 0
M  V30 4886 H 460.351 2.03334 2.39797 0
M  V30 4887 N 464.123 0.554532 1.47522 0
M  V30 4888 C 465.37 0.029479 2.02479 0
M  V30 4889 C 465.698 -1.31929 1.42916 0
M  V30 4890 O 464.953 -1.87112 0.573385 0
M  V30 4891 C 465.252 -0.115927 3.57212 0
M  V30 4892 C 464.918 1.16161 4.3568 0
M  V30 4893 C 463.58 1.51168 4.56839 0
M  V30 4894 C 465.932 2.0083 4.80954 0
M  V30 4895 C 463.26 2.70696 5.2052 0
M  V30 4896 C 465.612 3.19559 5.45953 0
M  V30 4897 C 464.276 3.54882 5.65345 0
M  V30 4898 H 463.546 0.0107871 0.740921 0
M  V30 4899 H 466.193 0.725506 1.77225 0
M  V30 4900 H 464.498 -0.894902 3.81443 0
M  V30 4901 H 466.195 -0.53749 3.97381 0
M  V30 4902 H 462.785 0.879026 4.19489 0
M  V30 4903 H 466.969 1.75093 4.64388 0
M  V30 4904 H 462.225 2.98236 5.33728 0
M  V30 4905 H 466.399 3.85456 5.79997 0
M  V30 4906 H 464.026 4.47596 6.1446 0
M  V30 4907 N 465.601 -1.54893 0.290851 0
M  V30 4908 C 466.549 -2.24579 -0.605576 0
M  V30 4909 C 467.543 -1.24824 -1.14522 0
M  V30 4910 O 468.749 -1.42706 -1.09704 0
M  V30 4911 H 465.124 -0.720946 -0.213872 0
M  V30 4912 H 467.095 -2.984 0.0048173 0
M  V30 4913 C 465.844 -2.99224 -1.77088 0
M  V30 4914 H 465.167 -3.75782 -1.36484 0
M  V30 4915 H 466.607 -3.51281 -2.3744 0
M  V30 4916 C 465.066 -2.05602 -2.66888 0
M  V30 4917 O 465.596 -1.61745 -3.67698 0
M  V30 4918 N 463.802 -1.71771 -2.34399 0
M  V30 4919 H 463.349 -2.07633 -1.52468 0
M  V30 4920 H 463.307 -1.09403 -2.94751 0
M  V30 4921 N 467.08 -0.0183926 -1.57589 0
M  V30 4922 C 468.329 0.66185 -1.90532 0
M  V30 4923 C 468.642 1.73904 -0.895366 0
M  V30 4924 O 469.848 2.47518 -1.11566 0
M  V30 4925 C 468.304 1.22844 -3.38286 0
M  V30 4926 C 467.912 0.185103 -4.47617 0
M  V30 4927 C 469.656 1.88581 -3.80312 0
M  V30 4928 C 467.563 0.762723 -5.86461 0
M  V30 4929 H 466.493 0.250972 -0.711006 0
M  V30 4930 H 469.144 -0.0819435 -1.83317 0
M  V30 4931 H 467.526 2.0235 -3.40398 0
M  V30 4932 H 468.7 -0.58671 -4.5705 0
M  V30 4933 H 467.015 -0.372889 -4.14727 0
M  V30 4934 H 469.612 2.32735 -4.81392 0
M  V30 4935 H 469.955 2.72408 -3.14801 0
M  V30 4936 H 470.488 1.15782 -3.80578 0
M  V30 4937 H 467.227 -0.0371713 -6.55489 0
M  V30 4938 H 466.747 1.50327 -5.80656 0
M  V30 4939 H 468.426 1.25576 -6.34697 0
M  V30 4940 N 468.558 1.5553 0.254621 0
M  V30 4941 C 469.783 1.81383 1.00573 0
M  V30 4942 C 470.208 0.594419 1.78461 0
M  V30 4943 O 469.566 -0.456403 1.75461 0
M  V30 4944 C 469.614 3.04892 1.92545 0
M  V30 4945 O 468.718 2.81266 3.01601 0
M  V30 4946 H 468.059 0.598969 0.286587 0
M  V30 4947 H 470.589 2.02703 0.277952 0
M  V30 4948 H 470.599 3.34119 2.34155 0
M  V30 4949 H 469.274 3.93287 1.3527 0
M  V30 4950 H 467.851 2.63185 2.64174 0
M  V30 4951 N 470.036 -0.519951 1.48776 0
M  V30 4952 C 470.999 -1.60574 1.6355 0
M  V30 4953 C 471.999 -1.52557 0.508234 0
M  V30 4954 O 473.189 -1.56047 0.774262 0
M  V30 4955 C 470.321 -3.00211 1.61512 0
M  V30 4956 H 471.514 -1.4881 2.60376 0
M  V30 4957 H 469.067 -0.742772 1.37523 0
M  V30 4958 H 469.802 -3.17471 0.662009 0
M  V30 4959 H 469.587 -3.07439 2.43359 0
M  V30 4960 H 471.077 -3.79134 1.75064 0
M  V30 4961 N 471.514 -1.37532 -0.769588 0
M  V30 4962 C 472.791 -1.23392 -1.51768 0
M  V30 4963 C 473.171 0.17157 -2.10402 0
M  V30 4964 O 472.519 1.17943 -1.95708 0
M  V30 4965 C 472.729 -2.33163 -2.59685 0
M  V30 4966 C 474.077 -2.70809 -3.27028 0
M  V30 4967 O 475.101 -2.32355 -2.69981 0
M  V30 4968 O 473.96 -3.37066 -4.30173 0
M  V30 4969 H 471.054 -0.481617 -0.67229 0
M  V30 4970 H 473.6 -1.49318 -0.806368 0
M  V30 4971 H 472.372 -3.27273 -2.14494 0
M  V30 4972 H 471.995 -2.08713 -3.38415 0
M  V30 4973 N 472.992 0.995999 -1.22138 0
M  V30 4974 C 473.902 2.11985 -1.00496 0
M  V30 4975 C 474.918 1.7394 0.0457701 0
M  V30 4976 O 476.094 2.00868 -0.146273 0
M  V30 4977 C 473.159 3.41779 -0.582086 0
M  V30 4978 C 472.22 3.93943 -1.70608 0
M  V30 4979 C 471.453 5.17542 -1.30328 0
M  V30 4980 O 471.676 5.70114 -0.180743 0
M  V30 4981 O 470.61 5.63382 -2.11861 0
M  V30 4982 H 474.436 2.33123 -1.94647 0
M  V30 4983 H 472.021 1.10358 -1.00705 0
M  V30 4984 H 473.903 4.1989 -0.356467 0
M  V30 4985 H 472.578 3.22007 0.330592 0
M  V30 4986 H 471.485 3.17019 -1.98619 0
M  V30 4987 H 472.818 4.18141 -2.59651 0
M  V30 4988 N 474.47 1.03057 1.19235 0
M  V30 4989 C 475.881 0.757449 1.70645 0
M  V30 4990 C 476.232 -0.722735 1.82403 0
M  V30 4991 O 475.357 -1.56325 1.49638 0
M  V30 4992 C 475.952 1.36833 3.09939 0
M  V30 4993 C 474.511 1.14375 3.58602 0
M  V30 4994 C 473.658 1.46533 2.35422 0
M  V30 4995 H 476.609 1.19828 1.04052 0
M  V30 4996 H 476.63 0.766184 3.72706 0
M  V30 4997 H 476.142 2.44562 3.01349 0
M  V30 4998 H 474.243 0.0847542 3.72504 0
M  V30 4999 H 474.356 1.83366 4.42622 0
M  V30 5000 H 472.72 0.884712 2.38841 0
M  V30 5001 H 473.503 2.55349 2.2946 0
M  V30 5002 N 475.948 -1.35272 0.808662 0
M  V30 5003 C 477.197 -1.97963 0.386483 0
M  V30 5004 C 477.51 -1.64866 -1.05255 0
M  V30 5005 O 478.716 -2.20937 -1.57794 0
M  V30 5006 C 477.172 -3.54162 0.640096 0
M  V30 5007 C 476.78 -3.96166 2.0918 0
M  V30 5008 C 478.524 -4.23553 0.283376 0
M  V30 5009 C 476.431 -5.4522 2.29106 0
M  V30 5010 H 475.361 -0.740742 0.140774 0
M  V30 5011 H 478.012 -1.5431 0.993012 0
M  V30 5012 H 476.394 -3.95983 -0.0364117 0
M  V30 5013 H 477.568 -3.65491 2.80629 0
M  V30 5014 H 475.883 -3.3967 2.40859 0
M  V30 5015 H 478.48 -5.33124 0.410273 0
M  V30 5016 H 478.823 -4.09105 -0.770659 0
M  V30 5017 H 479.356 -3.8716 0.913884 0
M  V30 5018 H 476.095 -5.64638 3.32962 0
M  V30 5019 H 475.615 -5.77457 1.62184 0
M  V30 5020 H 477.294 -6.1171 2.1076 0
M  V30 5021 N 477.426 -0.562348 -1.47226 0
M  V30 5022 C 478.654 -0.0452275 -2.06851 0
M  V30 5023 C 479.069 1.25078 -1.41424 0
M  V30 5024 O 478.426 1.75156 -0.512513 0
M  V30 5025 C 478.477 0.148674 -3.61194 0
M  V30 5026 O 478.198 -1.09602 -4.24169 0
M  V30 5027 C 479.699 0.702488 -4.37699 0
M  V30 5028 H 476.919 -0.0481775 -0.669268 0
M  V30 5029 H 479.463 -0.777223 -1.89155 0
M  V30 5030 H 477.618 0.830817 -3.78386 0
M  V30 5031 H 478.032 -0.896982 -5.16773 0
M  V30 5032 H 479.506 0.78743 -5.46355 0
M  V30 5033 H 479.983 1.71493 -4.04335 0
M  V30 5034 H 480.589 0.0558772 -4.25263 0
M  V30 5035 N 478.904 1.54736 -0.299062 0
M  V30 5036 C 480.15 2.00397 0.311244 0
M  V30 5037 C 480.483 1.18716 1.53688 0
M  V30 5038 O 479.758 0.263154 1.92712 0
M  V30 5039 C 480.041 3.53817 0.669761 0
M  V30 5040 C 479.894 4.46239 -0.564882 0
M  V30 5041 C 481.213 4.13856 1.49702 0
M  V30 5042 H 478.332 0.728493 0.111653 0
M  V30 5043 H 480.974 1.85506 -0.410774 0
M  V30 5044 H 479.124 3.66637 1.28491 0
M  V30 5045 H 480.796 4.45328 -1.20337 0
M  V30 5046 H 479.039 4.16916 -1.19849 0
M  V30 5047 H 479.71 5.5134 -0.269918 0
M  V30 5048 H 482.186 4.04461 0.977284 0
M  V30 5049 H 481.062 5.21365 1.71666 0
M  V30 5050 H 481.323 3.65608 2.48563 0
M  V30 5051 N 480.382 0.0267497 1.57577 0
M  V30 5052 C 481.61 -0.662661 1.96001 0
M  V30 5053 C 482.025 -1.65799 0.903117 0
M  V30 5054 O 481.382 -1.82135 -0.115317 0
M  V30 5055 C 481.433 -1.37112 3.34488 0
M  V30 5056 O 481.154 -0.415683 4.36123 0
M  V30 5057 C 482.655 -2.15257 3.8753 0
M  V30 5058 H 479.875 -0.18287 0.6456 0
M  V30 5059 H 482.419 0.0858116 2.0432 0
M  V30 5060 H 480.574 -2.07101 3.27395 0
M  V30 5061 H 480.988 -0.918496 5.16395 0
M  V30 5062 H 482.462 -2.60285 4.86781 0
M  V30 5063 H 482.939 -2.99063 3.21649 0
M  V30 5064 H 483.545 -1.50231 3.97883 0
M  V30 5065 N 481.861 -1.55662 -0.24637 0
M  V30 5066 C 483.272 -1.67953 -0.81539 0
M  V30 5067 C 483.623 -0.624302 -1.86002 0
M  V30 5068 O 482.748 0.229328 -2.15181 0
M  V30 5069 C 483.343 -3.04484 -1.48576 0
M  V30 5070 C 481.902 -3.18713 -2.00248 0
M  V30 5071 C 481.049 -2.6383 -0.853766 0
M  V30 5072 H 484 -1.58685 -0.0221692 0
M  V30 5073 H 484.021 -2.98959 -2.3538 0
M  V30 5074 H 483.533 -3.81264 -0.725222 0
M  V30 5075 H 481.634 -2.46757 -2.79181 0
M  V30 5076 H 481.747 -4.25628 -2.1995 0
M  V30 5077 H 480.111 -2.21667 -1.25442 0
M  V30 5078 H 480.894 -3.43135 -0.106302 0
M  V30 5079 N 483.339 0.512053 -1.4905 0
M  V30 5080 C 484.75 1.09376 -1.51307 0
M  V30 5081 C 485.101 1.94 -0.292971 0
M  V30 5082 O 484.226 2.07965 0.598277 0
M  V30 5083 C 484.821 1.99031 -2.74176 0
M  V30 5084 C 483.38 2.52385 -2.79247 0
M  V30 5085 C 482.527 1.29749 -2.45073 0
M  V30 5086 H 485.478 0.296467 -1.55906 0
M  V30 5087 H 485.499 2.83569 -2.53711 0
M  V30 5088 H 485.011 1.37412 -3.62959 0
M  V30 5089 H 483.112 3.17673 -1.94716 0
M  V30 5090 H 483.225 2.90293 -3.81139 0
M  V30 5091 H 481.589 1.61912 -1.96612 0
M  V30 5092 H 482.372 0.698555 -3.36118 0
M  V30 5093 N 484.817 1.37938 0.762283 0
M  V30 5094 C 486.094 1.24196 1.51112 0
M  V30 5095 C 486.474 -0.160409 2.1049 0
M  V30 5096 O 485.822 -1.16904 1.96331 0
M  V30 5097 C 486.032 2.34537 2.58445 0
M  V30 5098 C 487.38 2.7254 3.25588 0
M  V30 5099 O 488.404 2.33783 2.68745 0
M  V30 5100 O 487.263 3.39343 4.28379 0
M  V30 5101 H 484.357 0.485175 0.669727 0
M  V30 5102 H 486.903 1.49743 0.798438 0
M  V30 5103 H 485.675 3.28406 2.12756 0
M  V30 5104 H 485.298 2.10505 3.37303 0
M  V30 5105 N 486.295 -0.989507 1.22664 0
M  V30 5106 C 487.52 -1.77031 1.08051 0
M  V30 5107 C 487.945 -1.84535 -0.364483 0
M  V30 5108 O 487.303 -1.3003 -1.2634 0
M  V30 5109 C 487.351 -3.18 1.70024 0
M  V30 5110 O 486.455 -4.01161 0.956216 0
M  V30 5111 H 485.796 -0.545008 0.379292 0
M  V30 5112 H 488.326 -1.24277 1.62531 0
M  V30 5113 H 488.336 -3.68616 1.74888 0
M  V30 5114 H 487.011 -3.11853 2.75174 0
M  V30 5115 H 485.588 -3.59687 0.98384 0
M  V30 5116 N 487.773 -1.03688 -1.18687 0
M  V30 5117 C 488.705 -0.582696 -2.21669 0
M  V30 5118 C 489.718 0.345656 -1.59088 0
M  V30 5119 O 490.907 0.140776 -1.77944 0
M  V30 5120 C 488.007 0.169204 -3.38477 0
M  V30 5121 C 487.18 -0.766079 -4.30639 0
M  V30 5122 C 486.239 -0.0581541 -5.26168 0
M  V30 5123 O 485.265 -0.687346 -5.65035 0
M  V30 5124 N 486.467 1.20981 -5.67753 0
M  V30 5125 H 489.232 -1.46843 -2.61261 0
M  V30 5126 H 486.793 -0.916896 -1.33434 0
M  V30 5127 H 488.785 0.652543 -3.99405 0
M  V30 5128 H 487.355 0.956435 -2.97609 0
M  V30 5129 H 486.575 -1.42935 -3.67373 0
M  V30 5130 H 487.863 -1.40146 -4.89118 0
M  V30 5131 H 487.261 1.74159 -5.38224 0
M  V30 5132 H 485.818 1.6375 -6.30896 0
M  V30 5133 N 489.251 1.34841 -0.815825 0
M  V30 5134 C 490.476 2.03261 -0.41226 0
M  V30 5135 C 490.901 1.61055 0.971751 0
M  V30 5136 O 490.259 0.7917 1.63101 0
M  V30 5137 C 490.307 3.56914 -0.514289 0
M  V30 5138 O 489.411 4.09728 0.468675 0
M  V30 5139 H 488.752 0.641664 -0.170771 0
M  V30 5140 H 491.282 1.72241 -1.10427 0
M  V30 5141 H 491.292 4.06156 -0.387457 0
M  V30 5142 H 489.967 3.86982 -1.52375 0
M  V30 5143 H 488.544 3.71681 0.301316 0
M  V30 5144 N 490.729 0.570148 1.46925 0
M  V30 5145 C 491.959 0.0561151 2.06524 0
M  V30 5146 C 492.367 -1.24874 1.42137 0
M  V30 5147 O 491.71 -1.76292 0.516417 0
M  V30 5148 C 491.772 -0.197035 3.5896 0
M  V30 5149 C 491.436 1.02033 4.45464 0
M  V30 5150 C 492.433 1.92921 4.82781 0
M  V30 5151 C 490.118 1.23864 4.86788 0
M  V30 5152 C 492.112 3.03999 5.60235 0
M  V30 5153 C 489.799 2.35249 5.64004 0
M  V30 5154 C 490.797 3.25146 6.0064 0
M  V30 5155 O 490.485 4.34598 6.76299 0
M  V30 5156 H 490.217 0.0487409 0.674241 0
M  V30 5157 H 492.771 0.786915 1.89728 0
M  V30 5158 H 491.001 -0.982299 3.74016 0
M  V30 5159 H 492.69 -0.658032 4.00531 0
M  V30 5160 H 493.456 1.77265 4.51444 0
M  V30 5161 H 489.335 0.54805 4.57731 0
M  V30 5162 H 492.879 3.74192 5.8875 0
M  V30 5163 H 488.776 2.50873 5.94755 0
M  V30 5164 H 489.544 4.32808 6.94708 0
M  V30 5165 N 492.207 -1.54576 0.307264 0
M  V30 5166 C 493.456 -1.99442 -0.300976 0
M  V30 5167 C 493.769 -1.19928 -1.5452 0
M  V30 5168 O 494.975 -1.55092 -2.22842 0
M  V30 5169 C 493.431 -3.55084 -0.586809 0
M  V30 5170 C 493.039 -4.43413 0.639438 0
M  V30 5171 C 494.783 -4.0846 -1.1559 0
M  V30 5172 C 492.69 -5.90499 0.326411 0
M  V30 5173 H 491.62 -0.744986 -0.116238 0
M  V30 5174 H 494.271 -1.787 0.416947 0
M  V30 5175 H 492.653 -3.71749 -1.36449 0
M  V30 5176 H 493.827 -4.38522 1.41545 0
M  V30 5177 H 492.142 -4.00842 1.1276 0
M  V30 5178 H 494.739 -5.15926 -1.40445 0
M  V30 5179 H 495.082 -3.59443 -2.10015 0
M  V30 5180 H 495.615 -3.95362 -0.439778 0
M  V30 5181 H 492.354 -6.43676 1.23939 0
M  V30 5182 H 491.874 -5.98382 -0.412212 0
M  V30 5183 H 493.553 -6.46962 -0.0697393 0
M  V30 5184 N 493.685 -0.035106 -1.57561 0
M  V30 5185 C 494.91 0.655802 -1.96759 0
M  V30 5186 C 495.335 1.64523 -0.911809 0
M  V30 5187 O 494.693 1.80857 0.126673 0
M  V30 5188 C 494.741 1.33326 -3.35047 0
M  V30 5189 O 493.845 2.44866 -3.31835 0
M  V30 5190 H 493.186 0.171807 -0.641388 0
M  V30 5191 H 495.716 -0.0987369 -2.04362 0
M  V30 5192 H 495.726 1.68867 -3.71413 0
M  V30 5193 H 494.401 0.608033 -4.11431 0
M  V30 5194 H 492.978 2.11392 -3.07193 0
M  V30 5195 N 495.163 1.55791 0.238111 0
M  V30 5196 C 496.409 1.78297 0.966337 0
M  V30 5197 C 496.742 0.601903 1.84637 0
M  V30 5198 O 496.017 -0.399499 1.90353 0
M  V30 5199 C 496.3 3.10758 1.81939 0
M  V30 5200 C 496.153 4.39283 0.966958 0
M  V30 5201 C 497.472 3.39519 2.80027 0
M  V30 5202 H 494.591 0.648654 0.349882 0
M  V30 5203 H 497.233 1.88525 0.236253 0
M  V30 5204 H 495.383 3.02168 2.44185 0
M  V30 5205 H 497.055 4.59873 0.362514 0
M  V30 5206 H 495.298 4.32948 0.271669 0
M  V30 5207 H 495.969 5.28368 1.59784 0
M  V30 5208 H 498.445 3.48128 2.27917 0
M  V30 5209 H 497.321 4.33402 3.36829 0
M  V30 5210 H 497.582 2.60864 3.56934 0
M  V30 5211 N 496.642 -0.504142 1.49319 0
M  V30 5212 C 497.59 -1.62689 1.66238 0
M  V30 5213 C 498.584 -1.6095 0.528349 0
M  V30 5214 O 499.79 -1.65496 0.707887 0
M  V30 5215 H 496.165 -0.539247 0.524134 0
M  V30 5216 H 498.136 -1.45571 2.60484 0
M  V30 5217 C 496.885 -3.00841 1.74328 0
M  V30 5218 H 496.208 -3.02884 2.60963 0
M  V30 5219 H 497.648 -3.78945 1.90202 0
M  V30 5220 C 496.107 -3.33355 0.487416 0
M  V30 5221 O 496.637 -3.99819 -0.388294 0
M  V30 5222 N 494.843 -2.88469 0.351306 0
M  V30 5223 H 494.39 -2.34557 1.06492 0
M  V30 5224 H 494.348 -3.10591 -0.487899 0
M  V30 5225 N 498.12 -1.38341 -0.754957 0
M  V30 5226 C 499.35 -1.37504 -1.54195 0
M  V30 5227 C 499.758 0.0373787 -1.89163 0
M  V30 5228 O 499.101 1.01402 -1.53178 0
M  V30 5229 C 499.163 -2.16488 -2.87008 0
M  V30 5230 C 498.827 -3.65311 -2.74585 0
M  V30 5231 C 499.824 -4.58834 -2.44474 0
M  V30 5232 C 497.509 -4.08649 -2.9208 0
M  V30 5233 C 499.503 -5.93675 -2.32011 0
M  V30 5234 C 497.19 -5.43571 -2.79237 0
M  V30 5235 C 498.188 -6.35898 -2.49245 0
M  V30 5236 O 497.876 -7.68338 -2.36458 0
M  V30 5237 H 497.608 -0.472159 -0.483779 0
M  V30 5238 H 500.162 -1.82515 -0.94221 0
M  V30 5239 H 498.392 -1.66194 -3.49166 0
M  V30 5240 H 500.081 -2.08076 -3.4851 0
M  V30 5241 H 500.847 -4.26657 -2.30627 0
M  V30 5242 H 496.726 -3.37134 -3.14422 0
M  V30 5243 H 500.27 -6.65706 -2.08522 0
M  V30 5244 H 496.167 -5.75345 -2.92657 0
M  V30 5245 H 496.935 -7.78845 -2.5168 0
M  V30 5246 N 499.598 0.982988 -1.23187 0
M  V30 5247 C 500.823 1.76455 -1.08988 0
M  V30 5248 C 501.248 1.84726 0.354691 0
M  V30 5249 O 500.606 1.30699 1.25649 0
M  V30 5250 C 500.654 3.17094 -1.71708 0
M  V30 5251 O 499.758 4.00648 -0.977477 0
M  V30 5252 H 499.099 0.542988 -0.382177 0
M  V30 5253 H 501.629 1.23413 -1.63188 0
M  V30 5254 H 501.639 3.67684 -1.76841 0
M  V30 5255 H 500.314 3.10389 -2.76823 0
M  V30 5256 H 498.891 3.59161 -1.0029 0
M  V30 5257 N 501.076 1.04316 1.18135 0
M  V30 5258 C 502.322 0.749128 1.88457 0
M  V30 5259 C 502.655 -0.72149 1.803 0
M  V30 5260 O 501.93 -1.52676 1.205 0
M  V30 5261 C 502.213 1.21905 3.38838 0
M  V30 5262 C 502.066 2.75195 3.55792 0
M  V30 5263 C 503.385 0.811085 4.32561 0
M  V30 5264 H 500.504 0.273611 0.684329 0
M  V30 5265 H 503.146 1.29561 1.38975 0
M  V30 5266 H 501.296 0.754137 3.8111 0
M  V30 5267 H 502.968 3.29743 3.22595 0
M  V30 5268 H 501.211 3.14899 2.98364 0
M  V30 5269 H 501.882 3.03135 4.61317 0
M  V30 5270 H 504.358 1.21118 3.98082 0
M  V30 5271 H 503.234 1.16761 5.36338 0
M  V30 5272 H 503.495 -0.285596 4.41177 0
M  V30 5273 N 502.554 -1.34406 0.822964 0
M  V30 5274 C 503.97 -1.51275 0.508727 0
M  V30 5275 C 504.17 -1.76776 -0.967083 0
M  V30 5276 O 503.226 -1.81871 -1.75155 0
M  V30 5277 C 504.539 -2.67765 1.36829 0
M  V30 5278 C 506.087 -2.81647 1.36542 0
M  V30 5279 C 506.562 -4.01181 2.20947 0
M  V30 5280 N 508.053 -4.08388 2.18571 0
M  V30 5281 C 508.788 -5.00036 2.80627 0
M  V30 5282 N 508.284 -5.96906 3.51674 0
M  V30 5283 N 510.077 -4.92908 2.70181 0
M  V30 5284 H 502.228 -1.16113 1.77852 0
M  V30 5285 H 504.491 -0.56947 0.757897 0
M  V30 5286 H 504.197 -2.55551 2.41633 0
M  V30 5287 H 504.071 -3.62779 1.03303 0
M  V30 5288 H 506.458 -2.93303 0.325163 0
M  V30 5289 H 506.539 -1.87443 1.74066 0
M  V30 5290 H 506.183 -3.90286 3.25022 0
M  V30 5291 H 506.113 -4.94599 1.80774 0
M  V30 5292 H 508.604 -3.39051 1.66891 0
M  V30 5293 H 508.917 -6.63468 3.96271 0
M  V30 5294 H 507.262 -5.9703 3.5578 0
M  V30 5295 H 510.453 -4.1619 2.14251 0
M  V30 5296 H 510.626 -5.64137 3.18831 0
M  V30 5297 N 504.032 -0.577932 -1.46621 0
M  V30 5298 C 505.281 -0.0594281 -2.01612 0
M  V30 5299 C 505.594 1.30663 -1.45556 0
M  V30 5300 O 506.8 1.91621 -1.92337 0
M  V30 5301 C 505.256 -0.0556666 -3.59857 0
M  V30 5302 C 504.864 -1.41975 -4.24908 0
M  V30 5303 C 506.608 0.409143 -4.22524 0
M  V30 5304 C 504.515 -1.37397 -5.75218 0
M  V30 5305 H 503.445 -0.0184469 -0.753774 0
M  V30 5306 H 506.096 -0.728869 -1.68404 0
M  V30 5307 H 504.478 0.679843 -3.90121 0
M  V30 5308 H 505.652 -2.17461 -4.0626 0
M  V30 5309 H 503.967 -1.82419 -3.74316 0
M  V30 5310 H 506.564 0.46211 -5.32699 0
M  V30 5311 H 506.907 1.42565 -3.91128 0
M  V30 5312 H 507.44 -0.272152 -3.96868 0
M  V30 5313 H 504.179 -2.36714 -6.11267 0
M  V30 5314 H 503.699 -0.661239 -5.96144 0
M  V30 5315 H 505.378 -1.08484 -6.3784 0
M  V30 5316 N 505.51 1.54411 -0.315457 0
M  V30 5317 C 506.458 2.25514 0.569771 0
M  V30 5318 C 507.452 1.2663 1.12522 0
M  V30 5319 O 508.658 1.44434 1.07419 0
M  V30 5320 H 505.033 0.724257 0.202376 0
M  V30 5321 H 507.004 2.98354 -0.0522895 0
M  V30 5322 C 505.753 3.02004 1.72305 0
M  V30 5323 H 505.076 3.77906 1.30488 0
M  V30 5324 H 506.516 3.55014 2.31821 0
M  V30 5325 C 504.975 2.09822 2.63583 0
M  V30 5326 O 505.505 1.67574 3.65078 0
M  V30 5327 N 503.711 1.75478 2.31637 0
M  V30 5328 H 503.258 2.10032 1.49145 0
M  V30 5329 H 503.216 1.14079 2.92973 0
M  V30 5330 N 506.988 0.0434614 1.5754 0
M  V30 5331 C 507.898 -0.94893 2.14552 0
M  V30 5332 C 508.914 -1.34707 1.10136 0
M  V30 5333 O 510.09 -1.42557 1.42266 0
M  V30 5334 C 507.155 -2.208 2.67298 0
M  V30 5335 C 506.216 -1.86893 3.86484 0
M  V30 5336 C 505.449 -3.06797 4.36705 0
M  V30 5337 O 505.672 -4.19921 3.86034 0
M  V30 5338 O 504.606 -2.8826 5.28384 0
M  V30 5339 H 508.432 -0.494099 2.99654 0
M  V30 5340 H 506.017 -0.177989 1.48336 0
M  V30 5341 H 507.899 -2.94686 3.01228 0
M  V30 5342 H 506.574 -2.65436 1.85272 0
M  V30 5343 H 505.481 -1.10347 3.57455 0
M  V30 5344 H 506.814 -1.47062 4.69716 0
M  V30 5345 N 508.466 -1.55915 -0.229846 0
M  V30 5346 C 509.694 -1.82617 -0.972562 0
M  V30 5347 C 510.109 -0.621488 -1.78278 0
M  V30 5348 O 509.466 0.409956 -1.77836 0
M  V30 5349 C 509.517 -3.0774 -1.89679 0
M  V30 5350 O 509.238 -4.23559 -1.11934 0
M  V30 5351 C 510.739 -3.47368 -2.75409 0
M  V30 5352 H 507.959 -0.60727 -0.285419 0
M  V30 5353 H 510.503 -2.02996 -0.247579 0
M  V30 5354 H 508.658 -2.89361 -2.57583 0
M  V30 5355 H 509.072 -4.94586 -1.74599 0
M  V30 5356 H 510.546 -4.37977 -3.35977 0
M  V30 5357 H 511.023 -2.68737 -3.47386 0
M  V30 5358 H 511.629 -3.68158 -2.12931 0
M  V30 5359 N 509.944 0.496216 -1.49584 0
M  V30 5360 C 511.174 1.27209 -1.62793 0
M  V30 5361 C 511.582 1.86799 -0.300476 0
M  V30 5362 O 510.925 1.68802 0.724674 0
M  V30 5363 C 510.987 2.43812 -2.64189 0
M  V30 5364 C 510.651 2.05055 -4.08414 0
M  V30 5365 C 511.648 1.58752 -4.9507 0
M  V30 5366 C 509.333 2.14543 -4.54177 0
M  V30 5367 C 511.327 1.22448 -6.25528 0
M  V30 5368 C 509.014 1.77851 -5.84647 0
M  V30 5369 C 510.012 1.31878 -6.70147 0
M  V30 5370 O 509.7 0.956834 -7.98185 0
M  V30 5371 H 509.432 0.391848 -0.550846 0
M  V30 5372 H 511.986 0.601712 -1.96389 0
M  V30 5373 H 510.216 3.13941 -2.25783 0
M  V30 5374 H 511.905 3.05829 -2.66877 0
M  V30 5375 H 512.671 1.50863 -4.60939 0
M  V30 5376 H 508.55 2.49277 -3.87791 0
M  V30 5377 H 512.094 0.864933 -6.92217 0
M  V30 5378 H 507.991 1.8539 -6.18305 0
M  V30 5379 H 508.759 1.08789 -8.11238 0
M  V30 5380 N 511.423 1.38739 0.74761 0
M  V30 5381 C 512.67 1.35274 1.50689 0
M  V30 5382 C 512.998 -0.0553359 1.94421 0
M  V30 5383 O 512.253 -1.03365 1.66175 0
M  V30 5384 C 512.552 2.25992 2.7688 0
M  V30 5385 C 512.218 3.73854 2.5208 0
M  V30 5386 C 510.88 4.14145 2.45025 0
M  V30 5387 C 513.232 4.67427 2.30568 0
M  V30 5388 C 510.56 5.4609 2.14483 0
M  V30 5389 C 512.912 5.99635 2.01545 0
M  V30 5390 C 511.576 6.39004 1.92951 0
M  V30 5391 H 510.846 0.495003 0.55141 0
M  V30 5392 H 513.493 1.71145 0.859158 0
M  V30 5393 H 511.798 1.83196 3.46333 0
M  V30 5394 H 513.495 2.20611 3.34861 0
M  V30 5395 H 510.085 3.41913 2.58444 0
M  V30 5396 H 514.269 4.3714 2.34994 0
M  V30 5397 H 509.525 5.75528 2.06342 0
M  V30 5398 H 513.699 6.71678 1.83906 0
M  V30 5399 H 511.326 7.41165 1.6905 0
M  V30 5400 N 512.901 -0.976442 1.23707 0
M  V30 5401 C 514.129 -1.75341 1.09833 0
M  V30 5402 C 514.544 -1.8553 -0.349885 0
M  V30 5403 O 513.901 -1.33732 -1.24185 0
M  V30 5404 C 513.952 -3.17833 1.72233 0
M  V30 5405 O 513.673 -3.08167 3.11391 0
M  V30 5406 C 515.174 -4.11906 1.63853 0
M  V30 5407 H 512.394 -0.550137 0.384175 0
M  V30 5408 H 514.938 -1.2265 1.63638 0
M  V30 5409 H 513.093 -3.67538 1.22452 0
M  V30 5410 H 513.507 -3.97897 3.41729 0
M  V30 5411 H 514.981 -5.09579 2.12211 0
M  V30 5412 H 515.458 -4.35109 0.598092 0
M  V30 5413 H 516.064 -3.68107 2.13019 0
M  V30 5414 N 514.379 -1.04941 -1.1758 0
M  V30 5415 C 515.327 -0.64204 -2.23563 0
M  V30 5416 C 516.321 0.335453 -1.66045 0
M  V30 5417 O 517.527 0.20179 -1.78865 0
M  V30 5418 H 513.902 -0.18944 -0.727748 0
M  V30 5419 H 515.873 -1.54609 -2.55223 0
M  V30 5420 C 514.622 -0.0301051 -3.47687 0
M  V30 5421 H 513.945 -0.773339 -3.92249 0
M  V30 5422 H 515.385 0.217592 -4.23441 0
M  V30 5423 C 513.844 1.2225 -3.13937 0
M  V30 5424 O 514.374 2.3122 -3.28482 0
M  V30 5425 N 512.58 1.11917 -2.68185 0
M  V30 5426 H 512.127 0.232403 -2.5655 0
M  V30 5427 H 512.085 1.95814 -2.45976 0
M  V30 5428 N 515.857 1.33968 -0.830081 0
M  V30 5429 C 517.103 1.98357 -0.422191 0
M  V30 5430 C 517.436 1.65633 1.01387 0
M  V30 5431 O 516.711 0.931648 1.70735 0
M  V30 5432 C 516.994 3.54492 -0.633043 0
M  V30 5433 C 516.847 3.96934 -2.11574 0
M  V30 5434 C 518.166 4.40039 -0.0735584 0
M  V30 5435 H 515.285 0.720544 -0.154871 0
M  V30 5436 H 517.927 1.58749 -1.04397 0
M  V30 5437 H 516.077 3.88361 -0.103775 0
M  V30 5438 H 517.749 3.73363 -2.7092 0
M  V30 5439 H 515.992 3.46984 -2.60354 0
M  V30 5440 H 516.663 5.05651 -2.21406 0
M  V30 5441 H 519.139 4.12764 -0.52585 0
M  V30 5442 H 518.015 5.48327 -0.250841 0
M  V30 5443 H 518.276 4.30124 1.02202 0
M  V30 5444 N 517.335 0.585699 1.46312 0
M  V30 5445 C 518.563 0.0781299 2.06752 0
M  V30 5446 C 518.978 -1.22812 1.43396 0
M  V30 5447 O 518.335 -1.74318 0.540314 0
M  V30 5448 C 518.386 -0.0911927 3.61385 0
M  V30 5449 O 518.107 1.16336 4.22371 0
M  V30 5450 C 519.608 -0.632765 4.38761 0
M  V30 5451 H 516.828 0.0588188 0.668417 0
M  V30 5452 H 519.372 0.807218 1.87894 0
M  V30 5453 H 517.527 -0.770514 3.7966 0
M  V30 5454 H 517.941 0.979082 5.15281 0
M  V30 5455 H 519.415 -0.70041 5.47538 0
M  V30 5456 H 519.892 -1.65039 4.07012 0
M  V30 5457 H 520.498 0.0117856 4.25298 0
M  V30 5458 N 518.813 -1.54241 0.323641 0
M  V30 5459 C 520.059 -2.00867 -0.279323 0
M  V30 5460 C 520.392 -1.21146 -1.5178 0
M  V30 5461 O 519.667 -0.29378 -1.92269 0
M  V30 5462 C 519.95 -3.54837 -0.613387 0
M  V30 5463 C 519.803 -4.45284 0.635803 0
M  V30 5464 C 521.122 -4.16186 -1.43099 0
M  V30 5465 H 518.241 -0.730177 -0.100049 0
M  V30 5466 H 520.883 -1.84829 0.440235 0
M  V30 5467 H 519.033 -3.68634 -1.22641 0
M  V30 5468 H 520.705 -4.43357 1.27406 0
M  V30 5469 H 518.948 -4.14956 1.26466 0
M  V30 5470 H 519.619 -5.5084 0.357597 0
M  V30 5471 H 522.095 -4.05964 -0.912814 0
M  V30 5472 H 520.971 -5.24031 -1.6335 0
M  V30 5473 H 521.232 -3.69516 -2.42715 0
M  V30 5474 N 520.291 -0.0518155 -1.57515 0
M  V30 5475 C 521.221 0.920283 -2.146 0
M  V30 5476 C 522.202 1.32406 -1.06783 0
M  V30 5477 O 523.387 1.39866 -1.34726 0
M  V30 5478 C 520.517 2.1949 -2.6915 0
M  V30 5479 C 519.471 1.93116 -3.81956 0
M  V30 5480 C 518.797 3.27037 -4.23026 0
M  V30 5481 C 520.097 1.25225 -5.07066 0
M  V30 5482 H 521.791 0.444801 -2.96077 0
M  V30 5483 H 519.337 0.212508 -1.42423 0
M  V30 5484 H 521.29 2.87894 -3.07725 0
M  V30 5485 H 520.014 2.69244 -1.84865 0
M  V30 5486 H 518.673 1.27123 -3.43854 0
M  V30 5487 H 518.321 3.74595 -3.3569 0
M  V30 5488 H 518.021 3.10189 -4.99056 0
M  V30 5489 H 519.545 3.96673 -4.64202 0
M  V30 5490 H 520.959 1.83666 -5.43083 0
M  V30 5491 H 519.356 1.18702 -5.88243 0
M  V30 5492 H 520.426 0.228382 -4.84362 0
M  V30 5493 N 521.769 1.56035 0.221574 0
M  V30 5494 C 522.717 1.93269 1.29421 0
M  V30 5495 C 523.711 0.814727 1.48521 0
M  V30 5496 O 524.917 0.999559 1.49696 0
M  V30 5497 H 521.292 0.614188 0.43391 0
M  V30 5498 H 523.263 2.82773 0.952987 0
M  V30 5499 C 522.012 2.26573 2.63742 0
M  V30 5500 H 521.335 3.12112 2.49853 0
M  V30 5501 H 522.775 2.5651 3.37607 0
M  V30 5502 C 521.234 1.09086 3.1875 0
M  V30 5503 O 521.764 0.351985 4.00155 0
M  V30 5504 N 519.97 0.874693 2.77124 0
M  V30 5505 H 519.517 1.47726 2.11033 0
M  V30 5506 H 519.475 0.0903349 3.1427 0
M  V30 5507 N 523.247 -0.488276 1.49845 0
M  V30 5508 C 524.495 -1.23911 1.59657 0
M  V30 5509 C 524.816 -1.92816 0.291005 0
M  V30 5510 O 524.086 -1.83328 -0.690485 0
M  V30 5511 H 522.666 -0.460357 0.588286 0
M  V30 5512 H 525.328 -0.564794 1.86537 0
M  V30 5513 H 524.424 -1.99625 2.39909 0
M  V30 5514 N 524.725 -1.39134 -0.740242 0
M  V30 5515 C 525.95 -1.39518 -1.53459 0
M  V30 5516 C 526.375 0.00968883 -1.88098 0
M  V30 5517 O 525.733 0.995312 -1.51536 0
M  V30 5518 C 525.781 -2.26981 -2.802 0
M  V30 5519 O 524.885 -1.69609 -3.75908 0
M  V30 5520 H 524.226 -0.475328 -0.463637 0
M  V30 5521 H 526.756 -1.83064 -0.913717 0
M  V30 5522 H 526.766 -2.41309 -3.28989 0
M  V30 5523 H 525.441 -3.29081 -2.5432 0
M  V30 5524 H 524.018 -1.64495 -3.34658 0
M  V30 5525 N 526.204 0.969867 -1.24223 0
M  V30 5526 C 527.45 1.7151 -1.08223 0
M  V30 5527 C 527.783 1.90478 0.37838 0
M  V30 5528 O 527.058 1.4647 1.27971 0
M  V30 5529 C 527.341 3.10714 -1.82013 0
M  V30 5530 C 527.194 2.9925 -3.35811 0
M  V30 5531 C 528.513 4.10332 -1.59108 0
M  V30 5532 H 525.632 0.622499 -0.394543 0
M  V30 5533 H 528.274 1.1284 -1.52863 0
M  V30 5534 H 526.424 3.608 -1.44068 0
M  V30 5535 H 528.096 2.56608 -3.83341 0
M  V30 5536 H 526.339 2.35512 -3.64303 0
M  V30 5537 H 527.01 3.97857 -3.82641 0
M  V30 5538 H 529.486 3.69097 -1.92111 0
M  V30 5539 H 528.362 5.05804 -2.13198 0
M  V30 5540 H 528.623 4.38926 -0.528832 0
M  V30 5541 N 527.682 1.05563 1.17022 0
M  V30 5542 C 528.929 0.767937 1.87374 0
M  V30 5543 C 529.257 -0.705224 1.81265 0
M  V30 5544 O 528.512 -1.5318 1.21796 0
M  V30 5545 C 528.811 1.19849 3.36706 0
M  V30 5546 C 528.477 2.6745 3.63017 0
M  V30 5547 C 527.139 3.0777 3.69907 0
M  V30 5548 C 529.491 3.62811 3.74189 0
M  V30 5549 C 526.819 4.42307 3.85463 0
M  V30 5550 C 529.171 4.97087 3.91264 0
M  V30 5551 C 527.835 5.37055 3.96394 0
M  V30 5552 H 527.105 0.281008 0.68565 0
M  V30 5553 H 529.752 1.32339 1.38415 0
M  V30 5554 H 528.057 0.562096 3.87747 0
M  V30 5555 H 529.754 0.953038 3.8951 0
M  V30 5556 H 526.344 2.35228 3.58282 0
M  V30 5557 H 530.528 3.32798 3.68183 0
M  V30 5558 H 525.784 4.72769 3.87684 0
M  V30 5559 H 529.958 5.70869 3.9885 0
M  V30 5560 H 527.585 6.41308 4.082 0
M  V30 5561 N 529.16 -1.33526 0.837174 0
M  V30 5562 C 530.09 -2.31764 0.284206 0
M  V30 5563 C 531.071 -1.58896 -0.607142 0
M  V30 5564 O 532.256 -1.86798 -0.531047 0
M  V30 5565 C 529.386 -3.43029 -0.542962 0
M  V30 5566 C 528.34 -4.27255 0.252451 0
M  V30 5567 C 527.666 -5.3012 -0.69836 0
M  V30 5568 C 528.966 -5.01229 1.46858 0
M  V30 5569 H 530.66 -2.78262 1.10502 0
M  V30 5570 H 528.206 -1.3378 0.532812 0
M  V30 5571 H 530.159 -4.1078 -0.940096 0
M  V30 5572 H 528.883 -2.95216 -1.39697 0
M  V30 5573 H 527.542 -3.61127 0.631124 0
M  V30 5574 H 527.19 -4.78564 -1.54872 0
M  V30 5575 H 526.89 -5.87353 -0.170274 0
M  V30 5576 H 528.414 -6.00737 -1.09305 0
M  V30 5577 H 529.828 -5.61756 1.14469 0
M  V30 5578 H 528.225 -5.68104 1.93333 0
M  V30 5579 H 529.295 -4.301 2.23924 0
M  V30 5580 N 530.638 -0.59345 -1.46 0
M  V30 5581 C 531.863 -0.0872365 -2.07216 0
M  V30 5582 C 532.288 1.2131 -1.43755 0
M  V30 5583 O 531.646 1.73528 -0.525152 0
M  V30 5584 C 531.694 0.0538197 -3.6056 0
M  V30 5585 O 530.798 1.10765 -3.97247 0
M  V30 5586 H 530.139 -0.0676598 -0.660544 0
M  V30 5587 H 532.669 -0.819445 -1.87473 0
M  V30 5588 H 532.679 0.256567 -4.07193 0
M  V30 5589 H 531.354 -0.895739 -4.0614 0
M  V30 5590 H 529.931 0.882501 -3.62307 0
M  V30 5591 N 532.116 1.54067 -0.331816 0
M  V30 5592 C 533.362 2.01012 0.268667 0
M  V30 5593 C 533.695 1.2195 1.51136 0
M  V30 5594 O 532.97 0.303972 1.9211 0
M  V30 5595 C 533.253 3.55158 0.59456 0
M  V30 5596 C 533.106 4.4494 -0.659409 0
M  V30 5597 C 534.425 4.16939 1.4089 0
M  V30 5598 H 531.544 0.730698 0.0961756 0
M  V30 5599 H 534.186 1.84593 -0.450031 0
M  V30 5600 H 532.336 3.6928 1.20685 0
M  V30 5601 H 534.008 4.42675 -1.29756 0
M  V30 5602 H 532.251 4.1428 -1.28665 0
M  V30 5603 H 532.922 5.50643 -0.386804 0
M  V30 5604 H 535.398 4.06443 0.891272 0
M  V30 5605 H 534.274 5.24889 1.60569 0
M  V30 5606 H 534.535 3.70798 2.40752 0
M  V30 5607 N 533.594 0.0601682 1.57485 0
M  V30 5608 C 534.527 -0.94676 2.07634 0
M  V30 5609 C 535.505 -1.29837 0.978826 0
M  V30 5610 O 536.689 -1.40969 1.2514 0
M  V30 5611 C 533.816 -2.25822 2.52433 0
M  V30 5612 C 532.862 -2.05901 3.73507 0
M  V30 5613 S 533.695 -1.32907 5.18745 0
M  V30 5614 C 534.851 -2.65356 5.66866 0
M  V30 5615 H 535.084 -0.520003 2.92717 0
M  V30 5616 H 532.617 -0.152319 1.53647 0
M  V30 5617 H 534.575 -3.01201 2.78905 0
M  V30 5618 H 533.236 -2.65624 1.67639 0
M  V30 5619 H 532.429 -3.02929 4.02803 0
M  V30 5620 H 532.031 -1.38659 3.47347 0
M  V30 5621 H 534.323 -3.61492 5.73001 0
M  V30 5622 H 535.266 -2.40685 6.6594 0
M  V30 5623 H 535.674 -2.72028 4.94632 0
M  V30 5624 N 535.072 -1.5615 -0.213296 0
M  V30 5625 C 535.982 -1.96265 -1.28519 0
M  V30 5626 C 536.998 -0.86765 -1.50824 0
M  V30 5627 O 538.174 -1.17191 -1.63793 0
M  V30 5628 C 535.239 -2.27836 -2.61327 0
M  V30 5629 C 534.3 -3.50949 -2.47252 0
M  V30 5630 C 533.533 -3.81004 -3.73727 0
M  V30 5631 O 533.756 -3.12612 -4.77106 0
M  V30 5632 O 532.69 -4.74477 -3.70344 0
M  V30 5633 H 536.516 -2.87631 -0.974795 0
M  V30 5634 H 534.101 -1.43467 -0.416832 0
M  V30 5635 H 535.983 -2.49299 -3.39747 0
M  V30 5636 H 534.658 -1.39643 -2.9203 0
M  V30 5637 H 533.565 -3.34754 -1.67004 0
M  V30 5638 H 534.898 -4.39551 -2.21486 0
M  V30 5639 N 536.55 0.480323 -1.50102 0
M  V30 5640 C 537.497 1.57946 -1.6829 0
M  V30 5641 C 538.467 1.57611 -0.524223 0
M  V30 5642 O 539.652 1.75282 -0.753709 0
M  V30 5643 C 536.792 2.95978 -1.77457 0
M  V30 5644 C 535.905 3.06173 -3.04766 0
M  V30 5645 C 535.04 4.35063 -3.04784 0
M  V30 5646 C 534.079 4.38966 -4.26586 0
M  V30 5647 N 533.216 5.59314 -4.24396 0
M  V30 5648 H 538.056 1.41743 -2.62131 0
M  V30 5649 H 535.593 0.689304 -1.2995 0
M  V30 5650 H 537.551 3.76011 -1.80752 0
M  V30 5651 H 536.181 3.10837 -0.870637 0
M  V30 5652 H 535.233 2.19071 -3.10986 0
M  V30 5653 H 536.545 3.04916 -3.9475 0
M  V30 5654 H 535.699 5.23436 -3.06757 0
M  V30 5655 H 534.438 4.38915 -2.12614 0
M  V30 5656 H 533.443 3.48992 -4.24835 0
M  V30 5657 H 534.668 4.36813 -5.19972 0
M  V30 5658 H 532.614 5.63969 -3.35074 0
M  V30 5659 H 532.531 5.5976 -5.08138 0
M  V30 5660 H 533.799 6.49837 -4.30502 0
M  V30 5661 N 538.028 1.39524 0.732853 0
M  V30 5662 C 538.991 1.38189 1.82857 0
M  V30 5663 C 539.991 0.278624 1.58368 0
M  V30 5664 O 541.181 0.536639 1.65728 0
M  V30 5665 C 538.313 1.15661 3.2068 0
M  V30 5666 H 539.506 2.35692 1.85444 0
M  V30 5667 H 537.059 1.2512 0.936728 0
M  V30 5668 H 537.794 0.188482 3.23752 0
M  V30 5669 H 537.579 1.95559 3.39852 0
M  V30 5670 H 539.069 1.17472 4.00737 0
M  V30 5671 N 539.506 -0.963266 1.24736 0
M  V30 5672 C 540.438 -2.06162 1.0015 0
M  V30 5673 C 541.451 -1.62771 -0.0305905 0
M  V30 5674 O 542.64 -1.77296 0.206966 0
M  V30 5675 C 539.74 -3.35333 0.490385 0
M  V30 5676 C 538.913 -4.07609 1.58663 0
M  V30 5677 C 537.972 -5.15052 1.0774 0
M  V30 5678 O 536.998 -5.4098 1.77002 0
M  V30 5679 N 538.2 -5.80436 -0.0858605 0
M  V30 5680 H 540.965 -2.27825 1.94719 0
M  V30 5681 H 538.526 -1.13121 1.15825 0
M  V30 5682 H 540.518 -4.04477 0.134371 0
M  V30 5683 H 539.088 -3.10507 -0.361155 0
M  V30 5684 H 538.308 -3.32681 2.11463 0
M  V30 5685 H 539.596 -4.52656 2.32336 0
M  V30 5686 H 538.994 -5.6178 -0.664806 0
M  V30 5687 H 537.551 -6.50674 -0.382981 0
M  V30 5688 N 540.985 -1.06182 -1.16461 0
M  V30 5689 C 541.932 -0.671613 -2.20812 0
M  V30 5690 C 542.902 0.331186 -1.62765 0
M  V30 5691 O 544.087 0.22033 -1.89524 0
M  V30 5692 C 541.227 -0.063029 -3.45042 0
M  V30 5693 C 540.34 -1.11587 -4.1734 0
M  V30 5694 C 539.475 -0.473546 -5.29085 0
M  V30 5695 C 538.514 -1.51 -5.93182 0
M  V30 5696 N 537.651 -0.891118 -6.96422 0
M  V30 5697 H 542.491 -1.56589 -2.53542 0
M  V30 5698 H 540.028 -0.782951 -1.24532 0
M  V30 5699 H 541.986 0.307344 -4.16066 0
M  V30 5700 H 540.616 0.794663 -3.12866 0
M  V30 5701 H 539.668 -1.60396 -3.44931 0
M  V30 5702 H 540.98 -1.90221 -4.61104 0
M  V30 5703 H 540.134 -0.0501432 -6.06679 0
M  V30 5704 H 538.873 0.344687 -4.8648 0
M  V30 5705 H 537.878 -1.94331 -5.14311 0
M  V30 5706 H 539.103 -2.33031 -6.37866 0
M  V30 5707 H 537.049 -0.0935753 -6.55933 0
M  V30 5708 H 536.966 -1.61486 -7.38551 0
M  V30 5709 H 538.234 -0.492822 -7.77941 0
M  V30 5710 N 542.463 1.3308 -0.844243 0
M  V30 5711 C 543.396 2.27075 -0.226279 0
M  V30 5712 C 544.374 1.49911 0.629716 0
M  V30 5713 O 545.558 1.79068 0.588803 0
M  V30 5714 C 542.685 3.31767 0.681782 0
M  V30 5715 C 541.731 4.26384 -0.0994565 0
M  V30 5716 S 542.564 5.15186 -1.46094 0
M  V30 5717 C 543.72 6.23405 -0.558319 0
M  V30 5718 H 543.953 2.79141 -1.02312 0
M  V30 5719 H 541.486 1.40452 -0.641292 0
M  V30 5720 H 543.444 3.92566 1.20008 0
M  V30 5721 H 542.105 2.78507 1.45234 0
M  V30 5722 H 541.298 5.00514 0.591733 0
M  V30 5723 H 540.9 3.69949 -0.548991 0
M  V30 5724 H 543.192 6.77069 0.241672 0
M  V30 5725 H 544.135 6.96619 -1.26995 0
M  V30 5726 H 544.543 5.64333 -0.13728 0
M  V30 5727 N 543.941 0.601185 1.45683 0
M  V30 5728 C 544.889 -0.133955 2.32214 0
M  V30 5729 C 545.883 -0.866034 1.45589 0
M  V30 5730 O 547.089 -0.782326 1.6211 0
M  V30 5731 H 543.464 -0.0620613 0.749435 0
M  V30 5732 H 545.435 0.614389 2.92007 0
M  V30 5733 C 544.184 -1.12216 3.29094 0
M  V30 5734 H 543.507 -0.568273 3.95741 0
M  V30 5735 H 544.947 -1.60659 3.92383 0
M  V30 5736 C 543.406 -2.19251 2.55794 0
M  V30 5737 O 543.936 -3.26894 2.33459 0
M  V30 5738 N 542.142 -1.9436 2.16039 0
M  V30 5739 H 541.689 -1.06829 2.34404 0
M  V30 5740 H 541.647 -2.66181 1.67318 0
M  V30 5741 N 545.419 -1.53889 0.339982 0
M  V30 5742 C 546.696 -1.93084 -0.312719 0
M  V30 5743 C 547.076 -1.2712 -1.68534 0
M  V30 5744 O 546.424 -0.420835 -2.24591 0
M  V30 5745 C 546.634 -3.4683 -0.388558 0
M  V30 5746 C 547.982 -4.19732 -0.641088 0
M  V30 5747 O 549.006 -3.53075 -0.470818 0
M  V30 5748 O 547.865 -5.3781 -0.970685 0
M  V30 5749 H 544.959 -0.806784 -0.18174 0
M  V30 5750 H 547.505 -1.65137 0.390898 0
M  V30 5751 H 546.277 -3.87055 0.574821 0
M  V30 5752 H 545.9 -3.80933 -1.1391 0
M  V30 5753 N 546.897 -0.0685191 -1.57451 0
M  V30 5754 C 548.125 0.610462 -1.97689 0
M  V30 5755 C 548.54 1.63346 -0.946758 0
M  V30 5756 O 547.897 1.82377 0.0669868 0
M  V30 5757 C 547.948 1.28196 -3.38006 0
M  V30 5758 O 547.669 0.299906 -4.37072 0
M  V30 5759 C 549.17 2.04907 -3.931 0
M  V30 5760 H 546.39 0.165689 -0.650222 0
M  V30 5761 H 548.934 -0.139953 -2.04021 0
M  V30 5762 H 547.089 1.98348 -3.32771 0
M  V30 5763 H 547.503 0.78126 -5.18649 0
M  V30 5764 H 548.977 2.47287 -4.93511 0
M  V30 5765 H 549.454 2.9043 -3.29465 0
M  V30 5766 H 550.06 1.39629 -4.01726 0
M  V30 5767 N 548.375 1.56261 0.205012 0
M  V30 5768 C 549.624 1.79236 0.925058 0
M  V30 5769 C 549.937 0.640011 1.84833 0
M  V30 5770 O 551.143 0.753809 2.60826 0
M  V30 5771 C 549.599 3.17475 1.69522 0
M  V30 5772 C 549.207 4.40482 0.817269 0
M  V30 5773 C 550.951 3.49766 2.4055 0
M  V30 5774 C 548.858 5.69744 1.58573 0
M  V30 5775 H 547.788 0.668287 0.349153 0
M  V30 5776 H 550.439 1.82629 0.178544 0
M  V30 5777 H 548.821 3.08304 2.48526 0
M  V30 5778 H 549.995 4.60752 0.0665988 0
M  V30 5779 H 548.31 4.15827 0.218316 0
M  V30 5780 H 550.907 4.43573 2.98575 0
M  V30 5781 H 551.25 2.73041 3.14252 0
M  V30 5782 H 551.783 3.60341 1.68522 0
M  V30 5783 H 548.522 6.49407 0.891679 0
M  V30 5784 H 548.042 5.53509 2.31059 0
M  V30 5785 H 549.721 6.1051 2.14212 0
M  V30 5786 N 549.853 -0.472356 1.50355 0
M  V30 5787 C 551.1 -1.22453 1.61281 0
M  V30 5788 C 551.428 -1.91972 0.31256 0
M  V30 5789 O 550.683 -1.82696 -0.701475 0
M  V30 5790 C 550.982 -2.29257 2.74182 0
M  V30 5791 C 550.648 -1.76999 4.14708 0
M  V30 5792 C 549.31 -1.62467 4.52944 0
M  V30 5793 C 551.662 -1.38215 5.0254 0
M  V30 5794 C 548.99 -1.07574 5.76754 0
M  V30 5795 C 551.342 -0.847638 6.26895 0
M  V30 5796 C 550.006 -0.688946 6.63935 0
M  V30 5797 H 549.276 -0.448087 0.590168 0
M  V30 5798 H 551.923 -0.520744 1.84284 0
M  V30 5799 H 550.228 -3.05538 2.45263 0
M  V30 5800 H 551.925 -2.87212 2.7984 0
M  V30 5801 H 548.515 -1.89276 3.84542 0
M  V30 5802 H 552.699 -1.48276 4.73633 0
M  V30 5803 H 547.955 -0.940237 6.04127 0
M  V30 5804 H 552.129 -0.538455 6.94315 0
M  V30 5805 H 549.756 -0.261435 7.5975 0
M  V30 5806 N 551.331 -1.39911 -0.725443 0
M  V30 5807 C 552.579 -1.37382 -1.48224 0
M  V30 5808 C 552.9 0.0264107 -1.94982 0
M  V30 5809 O 552.17 0.979408 -1.6966 0
M  V30 5810 H 550.75 -0.505596 -0.549892 0
M  V30 5811 H 553.412 -1.7487 -0.860608 0
M  V30 5812 H 552.508 -2.04254 -2.3598 0
M  V30 5813 N 552.809 0.956637 -1.25245 0
M  V30 5814 C 554.056 1.701 -1.09874 0
M  V30 5815 C 554.384 1.91128 0.36062 0
M  V30 5816 O 553.639 1.47837 1.28229 0
M  V30 5817 C 553.938 3.08996 -1.79601 0
M  V30 5818 C 553.604 3.07774 -3.29523 0
M  V30 5819 C 552.266 3.07149 -3.70423 0
M  V30 5820 C 554.618 3.01257 -4.25316 0
M  V30 5821 C 551.946 2.97752 -5.0553 0
M  V30 5822 C 554.298 2.93403 -5.60444 0
M  V30 5823 C 552.962 2.91111 -6.00675 0
M  V30 5824 H 552.232 0.62244 -0.402056 0
M  V30 5825 H 554.879 1.1178 -1.55491 0
M  V30 5826 H 553.184 3.70848 -1.26408 0
M  V30 5827 H 554.881 3.65407 -1.65162 0
M  V30 5828 H 551.471 3.09032 -2.9698 0
M  V30 5829 H 555.655 3.00861 -3.9471 0
M  V30 5830 H 550.911 2.94346 -5.35883 0
M  V30 5831 H 555.085 2.87321 -6.34366 0
M  V30 5832 H 552.712 2.83586 -7.05325 0
M  V30 5833 N 554.287 1.06798 1.15896 0
M  V30 5834 C 555.515 0.808694 1.90441 0
M  V30 5835 C 555.93 -0.637506 1.77711 0
M  V30 5836 O 555.287 -1.43684 1.12522 0
M  V30 5837 C 555.338 1.20068 3.40978 0
M  V30 5838 O 555.059 2.59013 3.53333 0
M  V30 5839 C 556.56 0.96987 4.3256 0
M  V30 5840 H 553.78 0.292809 0.603742 0
M  V30 5841 H 556.324 1.42296 1.46874 0
M  V30 5842 H 554.479 0.630842 3.82229 0
M  V30 5843 H 554.893 2.7485 4.46719 0
M  V30 5844 H 556.367 1.29371 5.36626 0
M  V30 5845 H 556.844 -0.0941209 4.39099 0
M  V30 5846 H 557.45 1.52433 3.97044 0
M  V30 5847 N 555.766 -1.3263 0.851289 0
M  V30 5848 C 556.699 -2.26952 0.238318 0
M  V30 5849 C 557.677 -1.50243 -0.621757 0
M  V30 5850 O 558.861 -1.79378 -0.579298 0
M  V30 5851 C 555.988 -3.32124 -0.664178 0
M  V30 5852 C 555.034 -4.26325 0.122067 0
M  V30 5853 S 555.867 -5.14404 1.48824 0
M  V30 5854 C 557.023 -6.231 0.591372 0
M  V30 5855 H 557.256 -2.78594 1.03791 0
M  V30 5856 H 554.789 -1.4011 0.648731 0
M  V30 5857 H 556.747 -3.93197 -1.17924 0
M  V30 5858 H 555.408 -2.79273 -1.43755 0
M  V30 5859 H 554.601 -5.00821 -0.565181 0
M  V30 5860 H 554.203 -3.69652 0.568602 0
M  V30 5861 H 556.495 -6.77187 -0.205762 0
M  V30 5862 H 557.438 -6.95936 1.30687 0
M  V30 5863 H 557.846 -5.64252 0.167206 0
M  V30 5864 N 557.244 -0.608902 -1.45362 0
M  V30 5865 C 558.154 0.110969 -2.34337 0
M  V30 5866 C 559.17 0.859007 -1.51318 0
M  V30 5867 O 560.346 0.816296 -1.84116 0
M  V30 5868 C 557.411 1.09494 -3.28956 0
M  V30 5869 C 556.472 0.348718 -4.27881 0
M  V30 5870 C 555.705 1.28582 -5.17979 0
M  V30 5871 O 555.928 2.52369 -5.11533 0
M  V30 5872 O 554.862 0.782172 -5.96796 0
M  V30 5873 H 558.688 -0.620258 -2.97299 0
M  V30 5874 H 556.273 -0.36916 -1.44767 0
M  V30 5875 H 558.155 1.66163 -3.87257 0
M  V30 5876 H 556.83 1.80717 -2.68557 0
M  V30 5877 H 555.737 -0.260465 -3.73192 0
M  V30 5878 H 557.07 -0.323049 -4.91139 0
M  V30 5879 N 558.722 1.53707 -0.348139 0
M  V30 5880 C 559.632 2.28881 0.514857 0
M  V30 5881 C 560.648 1.34168 1.10793 0
M  V30 5882 O 561.824 1.6721 1.12262 0
M  V30 5883 C 558.889 3.05042 1.64774 0
M  V30 5884 C 557.95 4.15389 1.08398 0
M  V30 5885 C 557.183 4.87909 2.16287 0
M  V30 5886 O 557.406 4.60137 3.3709 0
M  V30 5887 O 556.34 5.74254 1.80323 0
M  V30 5888 H 560.166 3.03547 -0.0963699 0
M  V30 5889 H 557.751 1.48972 -0.113043 0
M  V30 5890 H 559.633 3.52656 2.30677 0
M  V30 5891 H 558.308 2.33228 2.24469 0
M  V30 5892 H 557.215 3.72068 0.389341 0
M  V30 5893 H 558.548 4.89318 0.531829 0
M  V30 5894 N 560.2 0.0768682 1.57412 0
M  V30 5895 C 561.616 -0.279772 1.57129 0
M  V30 5896 C 561.816 -1.69688 1.08666 0
M  V30 5897 O 560.872 -2.40953 0.754843 0
M  V30 5898 C 562.185 -0.0848055 3.0058 0
M  V30 5899 C 563.733 -0.153954 3.12621 0
M  V30 5900 C 564.208 0.0127946 4.57998 0
M  V30 5901 N 565.699 -0.0426435 4.6318 0
M  V30 5902 C 566.434 0.0618892 5.73367 0
M  V30 5903 N 565.93 0.220229 6.9245 0
M  V30 5904 N 567.723 0.00446072 5.621 0
M  V30 5905 H 559.874 1.00297 1.87228 0
M  V30 5906 H 562.137 0.391565 0.863354 0
M  V30 5907 H 561.843 0.89325 3.40168 0
M  V30 5908 H 561.717 -0.834961 3.67843 0
M  V30 5909 H 564.104 -1.1225 2.72917 0
M  V30 5910 H 564.185 0.627389 2.47987 0
M  V30 5911 H 563.829 0.978128 4.98392 0
M  V30 5912 H 563.759 -0.788016 5.20671 0
M  V30 5913 H 566.25 -0.163226 3.77547 0
M  V30 5914 H 566.563 0.291999 7.72248 0
M  V30 5915 H 564.908 0.255658 6.9453 0
M  V30 5916 H 568.099 -0.117979 4.67951 0
M  V30 5917 H 568.272 0.0893796 6.47938 0
M  V30 5918 N 561.678 -1.56367 -0.196722 0
M  V30 5919 C 562.903 -1.84991 -0.937714 0
M  V30 5920 C 563.328 -0.660244 -1.76132 0
M  V30 5921 O 562.686 0.390967 -1.77034 0
M  V30 5922 C 562.734 -3.11828 -1.81096 0
M  V30 5923 O 561.838 -2.92266 -2.90955 0
M  V30 5924 H 561.179 -0.609193 -0.264159 0
M  V30 5925 H 563.709 -2.03595 -0.202529 0
M  V30 5926 H 563.719 -3.42579 -2.21594 0
M  V30 5927 H 562.394 -3.98037 -1.2058 0
M  V30 5928 H 560.971 -2.72809 -2.54224 0
M  V30 5929 N 563.156 0.464375 -1.50603 0
M  V30 5930 C 564.402 1.21485 -1.63135 0
M  V30 5931 C 564.757 1.89538 -0.33063 0
M  V30 5932 O 564.05 1.79432 0.671903 0
M  V30 5933 C 564.244 2.278 -2.75394 0
M  V30 5934 C 564.073 1.70178 -4.16257 0
M  V30 5935 C 562.843 1.49854 -4.82568 0
M  V30 5936 C 565.041 1.19298 -5.00272 0
M  V30 5937 N 563.023 0.875458 -6.07626 0
M  V30 5938 C 564.394 0.693527 -6.16109 0
M  V30 5939 C 566.449 1.08216 -4.85998 0
M  V30 5940 C 565.152 0.0941808 -7.19238 0
M  V30 5941 C 567.178 0.496745 -5.8931 0
M  V30 5942 C 566.54 0.00770448 -7.044 0
M  V30 5943 H 562.639 0.433184 -0.651057 0
M  V30 5944 H 565.223 0.515748 -1.87745 0
M  V30 5945 H 563.394 2.95129 -2.52495 0
M  V30 5946 H 565.126 2.94814 -2.77249 0
M  V30 5947 H 561.881 1.75269 -4.39975 0
M  V30 5948 H 562.305 0.582135 -6.74493 0
M  V30 5949 H 566.947 1.44617 -3.97298 0
M  V30 5950 H 564.665 -0.28202 -8.07608 0
M  V30 5951 H 568.251 0.413275 -5.8033 0
M  V30 5952 H 567.131 -0.438188 -7.82975 0
M  V30 5953 N 564.634 1.40294 0.718013 0
M  V30 5954 C 565.882 1.38167 1.47494 0
M  V30 5955 C 566.203 -0.01607 1.94993 0
M  V30 5956 O 565.473 -0.970396 1.70177 0
M  V30 5957 H 564.053 0.508505 0.547203 0
M  V30 5958 H 566.715 1.75324 0.851322 0
M  V30 5959 H 565.811 2.05503 2.34894 0
M  V30 5960 N 566.112 -0.949982 1.2575 0
M  V30 5961 C 567.523 -1.50989 1.09815 0
M  V30 5962 C 567.874 -1.93497 -0.324556 0
M  V30 5963 O 566.999 -1.79068 -1.21506 0
M  V30 5964 C 567.594 -2.74394 1.98729 0
M  V30 5965 C 566.153 -3.26682 1.86965 0
M  V30 5966 C 565.3 -1.99498 1.92603 0
M  V30 5967 H 568.251 -0.766387 1.38968 0
M  V30 5968 H 568.272 -3.48383 1.53001 0
M  V30 5969 H 567.784 -2.43425 3.02268 0
M  V30 5970 H 565.885 -3.62461 0.863279 0
M  V30 5971 H 565.998 -3.94383 2.72027 0
M  V30 5972 H 564.362 -2.15005 1.36546 0
M  V30 5973 H 565.145 -1.70871 2.97755 0
M  V30 5974 N 567.59 -1.07411 -1.15328 0
M  V30 5975 C 568.82 -0.817595 -1.89734 0
M  V30 5976 C 569.228 0.63297 -1.78298 0
M  V30 5977 O 568.571 1.44594 -1.13306 0
M  V30 5978 C 568.633 -1.14748 -3.40695 0
M  V30 5979 C 568.297 -2.59876 -3.75917 0
M  V30 5980 C 569.294 -3.58122 -3.76888 0
M  V30 5981 C 566.979 -2.95469 -4.06206 0
M  V30 5982 C 568.973 -4.89996 -4.07655 0
M  V30 5983 C 566.66 -4.2754 -4.36638 0
M  V30 5984 C 567.658 -5.24614 -4.37344 0
M  V30 5985 O 567.346 -6.54312 -4.67045 0
M  V30 5986 H 567.078 -0.295175 -0.608151 0
M  V30 5987 H 569.632 -1.43409 -1.47048 0
M  V30 5988 H 567.862 -0.47395 -3.83785 0
M  V30 5989 H 569.551 -0.873397 -3.96392 0
M  V30 5990 H 570.317 -3.31966 -3.53587 0
M  V30 5991 H 566.196 -2.20558 -4.04815 0
M  V30 5992 H 569.74 -5.65759 -4.08121 0
M  V30 5993 H 565.637 -4.53449 -4.59407 0
M  V30 5994 H 566.405 -6.59473 -4.84807 0
M  V30 5995 N 569.068 1.32177 -0.85831 0
M  V30 5996 C 570.317 1.96392 -0.459689 0
M  V30 5997 C 570.63 1.68659 0.990632 0
M  V30 5998 O 571.836 2.26641 1.49485 0
M  V30 5999 C 570.292 3.51542 -0.7711 0
M  V30 6000 C 569.9 3.8813 -2.2374 0
M  V30 6001 C 571.644 4.2221 -0.44038 0
M  V30 6002 C 569.551 5.36341 -2.49183 0
M  V30 6003 H 568.481 0.735007 -0.168169 0
M  V30 6004 H 571.132 1.50518 -1.0496 0
M  V30 6005 H 569.514 3.95846 -0.11058 0
M  V30 6006 H 570.688 3.54824 -2.94001 0
M  V30 6007 H 569.003 3.30497 -2.533 0
M  V30 6008 H 571.6 5.31234 -0.607855 0
M  V30 6009 H 571.943 4.11683 0.618291 0
M  V30 6010 H 572.476 3.83502 -1.05695 0
M  V30 6011 H 569.215 5.51892 -3.53689 0
M  V30 6012 H 568.735 5.7104 -1.83504 0
M  V30 6013 H 570.414 6.03466 -2.33318 0
M  V30 6014 N 570.547 0.616602 1.45037 0
M  V30 6015 C 571.775 0.121968 2.0654 0
M  V30 6016 C 572.19 -1.19743 1.45969 0
M  V30 6017 O 571.547 -1.73133 0.577168 0
M  V30 6018 C 571.598 -0.0145171 3.61497 0
M  V30 6019 O 571.319 1.25269 4.19809 0
M  V30 6020 C 572.82 -0.539555 4.40004 0
M  V30 6021 H 570.04 0.0729837 0.667019 0
M  V30 6022 H 572.584 0.846891 1.8614 0
M  V30 6023 H 570.739 -0.689809 3.81209 0
M  V30 6024 H 571.153 1.08816 5.13088 0
M  V30 6025 H 572.627 -0.584112 5.48901 0
M  V30 6026 H 573.104 -1.56368 4.10421 0
M  V30 6027 H 573.71 0.101995 4.25178 0
M  V30 6028 N 572.025 -1.5352 0.356285 0
M  V30 6029 C 573.265 -2.03027 -0.23649 0
M  V30 6030 C 573.629 -1.23813 -1.46746 0
M  V30 6031 O 574.83 -1.63281 -2.13525 0
M  V30 6032 C 573.101 -3.53442 -0.530415 0
M  V30 6033 S 574.66 -4.24836 -1.09819 0
M  V30 6034 H 571.478 -0.707591 -0.0695378 0
M  V30 6035 H 574.08 -1.89077 0.496999 0
M  V30 6036 H 572.784 -4.087 0.373114 0
M  V30 6037 H 572.315 -3.71536 -1.29323 0
M  V30 6038 H 574.33 -4.35228 -2.38309 0
M  V30 6039 N 573.503 -0.0852151 -1.57369 0
M  V30 6040 C 574.752 0.580443 -1.93168 0
M  V30 6041 C 575.065 1.6995 -0.968319 0
M  V30 6042 O 576.271 2.42564 -1.21963 0
M  V30 6043 C 574.727 1.08386 -3.43192 0
M  V30 6044 C 574.335 -0.00491388 -4.48 0
M  V30 6045 C 576.079 1.72281 -3.87968 0
M  V30 6046 C 573.986 0.513299 -5.89168 0
M  V30 6047 H 572.916 0.22059 -0.72101 0
M  V30 6048 H 575.567 -0.159621 -1.82804 0
M  V30 6049 H 573.949 1.8773 -3.48674 0
M  V30 6050 H 575.123 -0.780032 -4.5415 0
M  V30 6051 H 573.438 -0.548453 -4.12772 0
M  V30 6052 H 576.035 2.12108 -4.9083 0
M  V30 6053 H 576.378 2.58811 -3.26071 0
M  V30 6054 H 576.911 0.995359 -3.85146 0
M  V30 6055 H 573.65 -0.315153 -6.54742 0
M  V30 6056 H 573.17 1.25564 -5.8651 0
M  V30 6057 H 574.849 0.985433 -6.39451 0
M  V30 6058 N 574.981 1.5647 0.188427 0
M  V30 6059 C 575.913 1.91611 1.25769 0
M  V30 6060 C 576.926 0.807436 1.41366 0
M  V30 6061 O 578.115 1.08586 1.41673 0
M  V30 6062 C 575.215 2.13874 2.6289 0
M  V30 6063 C 574.388 3.45047 2.68815 0
M  V30 6064 C 573.447 3.56342 3.87178 0
M  V30 6065 O 572.473 4.29109 3.73971 0
M  V30 6066 N 573.675 2.89924 5.02916 0
M  V30 6067 H 576.44 2.8393 0.959373 0
M  V30 6068 H 574.001 1.57418 0.378306 0
M  V30 6069 H 575.993 2.18713 3.4051 0
M  V30 6070 H 574.563 1.28022 2.85183 0
M  V30 6071 H 573.783 3.52017 1.77419 0
M  V30 6072 H 575.071 4.31395 2.6977 0
M  V30 6073 H 574.469 2.30644 5.16546 0
M  V30 6074 H 573.026 3.0038 5.78459 0
M  V30 6075 N 576.459 -0.456382 1.50847 0
M  V30 6076 C 577.707 -1.20497 1.62249 0
M  V30 6077 C 578.028 -1.92156 0.331839 0
M  V30 6078 O 577.298 -1.84751 -0.651443 0
M  V30 6079 H 575.878 -0.447775 0.597918 0
M  V30 6080 H 578.54 -0.525099 1.87693 0
M  V30 6081 H 577.636 -1.94492 2.44089 0
M  V30 6082 N 577.937 -1.40673 -0.710563 0
M  V30 6083 C 578.867 -1.44095 -1.83736 0
M  V30 6084 C 579.848 -0.301286 -1.67411 0
M  V30 6085 O 581.033 -0.510618 -1.87367 0
M  V30 6086 C 578.163 -1.30773 -3.21738 0
M  V30 6087 C 577.117 -2.42395 -3.52745 0
M  V30 6088 C 576.443 -2.14147 -4.89944 0
M  V30 6089 C 577.743 -3.84738 -3.53234 0
M  V30 6090 H 579.437 -2.38396 -1.81129 0
M  V30 6091 H 576.983 -1.14746 -0.870017 0
M  V30 6092 H 578.936 -1.31783 -4.00264 0
M  V30 6093 H 577.66 -0.329507 -3.24934 0
M  V30 6094 H 576.319 -2.40643 -2.76562 0
M  V30 6095 H 575.967 -1.14703 -4.89747 0
M  V30 6096 H 575.667 -2.88934 -5.11655 0
M  V30 6097 H 577.191 -2.16848 -5.70797 0
M  V30 6098 H 578.605 -3.88286 -4.2179 0
M  V30 6099 H 577.002 -4.59085 -3.86473 0
M  V30 6100 H 578.072 -4.13962 -2.52514 0
M  V30 6101 N 579.415 0.9433 -1.26252 0
M  V30 6102 C 580.655 1.70397 -1.1289 0
M  V30 6103 C 581.019 1.89268 0.322713 0
M  V30 6104 O 582.22 2.62503 0.578418 0
M  V30 6105 C 580.491 3.04296 -1.87453 0
M  V30 6106 S 582.05 3.95475 -1.90119 0
M  V30 6107 H 578.868 0.585559 -0.403289 0
M  V30 6108 H 581.47 1.12424 -1.59941 0
M  V30 6109 H 580.174 2.8824 -2.9214 0
M  V30 6110 H 579.705 3.67327 -1.40835 0
M  V30 6111 H 581.72 4.86297 -0.986373 0
M  V30 6112 N 580.893 1.08022 1.14757 0
M  V30 6113 C 581.856 0.71048 2.1791 0
M  V30 6114 C 582.856 -0.252731 1.58801 0
M  V30 6115 O 584.046 -0.0327915 1.74169 0
M  V30 6116 C 581.178 0.0483203 3.40866 0
M  V30 6117 H 582.371 1.62384 2.52134 0
M  V30 6118 H 579.924 0.877595 1.29337 0
M  V30 6119 H 580.659 -0.876959 3.12218 0
M  V30 6120 H 580.444 0.741189 3.85031 0
M  V30 6121 H 581.934 -0.195471 4.17142 0
M  V30 6122 N 582.371 -1.3172 0.865308 0
M  V30 6123 C 583.319 -2.30569 0.306674 0
M  V30 6124 C 584.313 -1.59317 -0.575724 0
M  V30 6125 O 585.519 -1.73961 -0.462343 0
M  V30 6126 H 581.894 -0.747681 0.0804834 0
M  V30 6127 H 583.865 -2.75165 1.15441 0
M  V30 6128 C 582.614 -3.44358 -0.480952 0
M  V30 6129 H 581.937 -3.99354 0.18876 0
M  V30 6130 H 583.377 -4.15652 -0.837241 0
M  V30 6131 C 581.836 -2.92574 -1.67039 0
M  V30 6132 O 582.366 -2.90954 -2.76964 0
M  V30 6133 N 580.572 -2.48835 -1.50097 0
M  V30 6134 H 580.119 -2.50353 -0.606738 0
M  V30 6135 H 580.077 -2.14543 -2.29823 0
M  V30 6136 N 583.85 -0.624285 -1.44708 0
M  V30 6137 C 584.798 0.0969952 -2.32398 0
M  V30 6138 C 585.792 0.842762 -1.46949 0
M  V30 6139 O 586.998 0.756436 -1.63334 0
M  V30 6140 H 583.373 0.0501306 -0.750327 0
M  V30 6141 H 585.344 -0.660767 -2.90992 0
M  V30 6142 C 584.093 1.06967 -3.30837 0
M  V30 6143 H 583.416 0.505242 -3.96595 0
M  V30 6144 H 584.856 1.54397 -3.94889 0
M  V30 6145 C 583.315 2.15153 -2.5925 0
M  V30 6146 O 583.845 3.23139 -2.3863 0
M  V30 6147 N 582.051 1.90898 -2.19103 0
M  V30 6148 H 581.598 1.03086 -2.36074 0
M  V30 6149 H 581.556 2.63485 -1.71531 0
M  V30 6150 N 585.328 1.53329 -0.364422 0
M  V30 6151 C 586.276 2.27212 0.497737 0
M  V30 6152 C 587.27 1.30146 1.08437 0
M  V30 6153 O 588.476 1.47778 1.0277 0
M  V30 6154 H 584.851 0.730329 0.179232 0
M  V30 6155 H 586.822 2.98037 -0.147182 0
M  V30 6156 C 585.571 3.07333 1.6261 0
M  V30 6157 H 584.894 3.81866 1.184 0
M  V30 6158 H 586.334 3.62209 2.20409 0
M  V30 6159 C 584.793 2.18102 2.56775 0
M  V30 6160 O 585.323 1.79104 3.59562 0
M  V30 6161 N 583.529 1.82759 2.25937 0
M  V30 6162 H 583.076 2.14671 1.42387 0
M  V30 6163 H 583.034 1.23342 2.89196 0
M  V30 6164 N 586.806 0.0935595 1.57322 0
M  V30 6165 C 588.083 -0.612692 1.85756 0
M  V30 6166 C 588.463 -1.86439 0.99013 0
M  V30 6167 O 587.811 -2.28416 0.0621362 0
M  V30 6168 C 588.021 -0.929547 3.36393 0
M  V30 6169 C 589.369 -1.29366 4.04413 0
M  V30 6170 O 590.393 -1.02061 3.41265 0
M  V30 6171 O 589.252 -1.80498 5.15832 0
M  V30 6172 H 586.346 -0.306444 0.768128 0
M  V30 6173 H 588.892 0.126141 1.69231 0
M  V30 6174 H 587.664 -0.0414766 3.91278 0
M  V30 6175 H 587.287 -1.72441 3.5826 0
M  V30 6176 N 588.284 -1.56567 -0.180126 0
M  V30 6177 C 589.7 -1.50488 -0.531559 0
M  V30 6178 C 589.9 -0.796267 -1.851 0
M  V30 6179 O 588.956 -0.352978 -2.50021 0
M  V30 6180 C 590.269 -2.95201 -0.572456 0
M  V30 6181 C 591.817 -3.05957 -0.660264 0
M  V30 6182 C 592.292 -4.5211 -0.732135 0
M  V30 6183 N 593.783 -4.56322 -0.795262 0
M  V30 6184 C 594.518 -5.66742 -0.871296 0
M  V30 6185 N 594.014 -6.86815 -0.908708 0
M  V30 6186 N 595.807 -5.54691 -0.909639 0
M  V30 6187 H 587.958 -2.01045 0.685165 0
M  V30 6188 H 590.221 -0.915536 0.245962 0
M  V30 6189 H 589.927 -3.50165 0.328208 0
M  V30 6190 H 589.801 -3.49369 -1.422 0
M  V30 6191 H 592.188 -2.51032 -1.55136 0
M  V30 6192 H 592.269 -2.54888 0.215783 0
M  V30 6193 H 591.913 -5.07664 0.154664 0
M  V30 6194 H 591.843 -5.00926 -1.6242 0
M  V30 6195 H 594.334 -3.69868 -0.77499 0
M  V30 6196 H 594.647 -7.66718 -0.967654 0
M  V30 6197 H 592.992 -6.89443 -0.877132 0
M  V30 6198 H 596.183 -4.59804 -0.877353 0
M  V30 6199 H 596.356 -6.40768 -0.965434 0
M  V30 6200 N 589.762 0.448376 -1.51087 0
M  V30 6201 C 590.99 1.22143 -1.66999 0
M  V30 6202 C 591.405 1.85283 -0.362699 0
M  V30 6203 O 590.762 1.70236 0.65772 0
M  V30 6204 C 590.813 2.31357 -2.7777 0
M  V30 6205 O 590.534 1.70801 -4.03434 0
M  V30 6206 C 592.035 3.21836 -3.04855 0
M  V30 6207 H 589.255 0.368558 -0.560719 0
M  V30 6208 H 591.799 0.532618 -1.97442 0
M  V30 6209 H 589.954 2.95973 -2.49958 0
M  V30 6210 H 590.368 2.42895 -4.64868 0
M  V30 6211 H 591.842 3.94627 -3.85971 0
M  V30 6212 H 592.319 3.81949 -2.16821 0
M  V30 6213 H 592.925 2.62933 -3.34285 0
M  V30 6214 N 591.24 1.41047 0.703093 0
M  V30 6215 C 592.47 1.43133 1.48985 0
M  V30 6216 C 592.878 0.0328537 1.89171 0
M  V30 6217 O 592.221 -0.956469 1.56835 0
M  V30 6218 C 592.283 2.26991 2.78775 0
M  V30 6219 C 591.947 3.7525 2.60837 0
M  V30 6220 C 592.944 4.67591 2.27276 0
M  V30 6221 C 590.629 4.19208 2.76712 0
M  V30 6222 C 592.623 6.01877 2.09817 0
M  V30 6223 C 590.31 5.53561 2.5887 0
M  V30 6224 C 591.308 6.4471 2.25472 0
M  V30 6225 O 590.996 7.76584 2.07778 0
M  V30 6226 H 590.728 0.489788 0.465922 0
M  V30 6227 H 593.282 1.85886 0.873822 0
M  V30 6228 H 591.512 1.79038 3.42757 0
M  V30 6229 H 593.201 2.20867 3.40547 0
M  V30 6230 H 593.967 4.34923 2.14633 0
M  V30 6231 H 589.846 3.48572 3.01693 0
M  V30 6232 H 593.39 6.72986 1.83671 0
M  V30 6233 H 589.287 5.85811 2.71102 0
M  V30 6234 H 590.055 7.87649 2.22601 0
M  V30 6235 N 592.718 -0.936591 1.26751 0
M  V30 6236 C 593.964 -1.68625 1.13741 0
M  V30 6237 C 594.319 -1.898 -0.315221 0
M  V30 6238 O 593.612 -1.47088 -1.22783 0
M  V30 6239 C 593.806 -3.06099 1.84494 0
M  V30 6240 C 593.635 -2.98338 3.36488 0
M  V30 6241 C 592.405 -3.01104 4.05789 0
M  V30 6242 C 594.603 -2.78128 4.32608 0
M  V30 6243 N 592.585 -2.8369 5.4442 0
M  V30 6244 C 593.956 -2.69329 5.58446 0
M  V30 6245 C 596.011 -2.62946 4.22804 0
M  V30 6246 C 594.714 -2.46899 6.75598 0
M  V30 6247 C 596.74 -2.41892 5.39669 0
M  V30 6248 C 596.102 -2.33829 6.64457 0
M  V30 6249 H 592.201 -0.624227 0.471025 0
M  V30 6250 H 594.785 -1.10798 1.601 0
M  V30 6251 H 592.956 -3.62057 1.40604 0
M  V30 6252 H 594.688 -3.69951 1.64067 0
M  V30 6253 H 591.443 -3.10992 3.57185 0
M  V30 6254 H 591.867 -2.78138 6.17226 0
M  V30 6255 H 596.509 -2.67944 3.27056 0
M  V30 6256 H 594.227 -2.40642 7.71438 0
M  V30 6257 H 597.813 -2.31043 5.33957 0
M  V30 6258 H 596.693 -2.17754 7.53361 0
M  V30 6259 N 594.196 -1.08629 -1.14182 0
M  V30 6260 C 595.106 -0.730126 -2.22949 0
M  V30 6261 C 596.122 0.26436 -1.7198 0
M  V30 6262 O 597.298 0.107742 -2.01112 0
M  V30 6263 C 594.363 -0.147227 -3.46387 0
M  V30 6264 C 593.424 -1.19662 -4.12286 0
M  V30 6265 C 592.657 -0.641437 -5.29831 0
M  V30 6266 O 592.88 0.538351 -5.67854 0
M  V30 6267 O 591.814 -1.39257 -5.85569 0
M  V30 6268 H 595.64 -1.63753 -2.55771 0
M  V30 6269 H 593.225 -0.860118 -1.22157 0
M  V30 6270 H 595.107 0.174923 -4.21037 0
M  V30 6271 H 593.782 0.733304 -3.15285 0
M  V30 6272 H 592.689 -1.57133 -3.395 0
M  V30 6273 H 594.022 -2.0495 -4.475 0
M  V30 6274 N 595.674 1.31259 -0.872281 0
M  V30 6275 C 596.604 2.30929 -0.345554 0
M  V30 6276 C 597.585 1.60449 0.5648 0
M  V30 6277 O 598.77 1.8814 0.481335 0
M  V30 6278 C 595.9 3.44348 0.451823 0
M  V30 6279 C 594.854 4.26435 -0.365641 0
M  V30 6280 C 594.18 5.31785 0.557562 0
M  V30 6281 C 595.48 4.97159 -1.60095 0
M  V30 6282 H 597.174 2.75234 -1.17841 0
M  V30 6283 H 594.72 1.3232 -0.568094 0
M  V30 6284 H 596.673 4.13128 0.830854 0
M  V30 6285 H 595.397 2.98816 1.31821 0
M  V30 6286 H 594.056 3.59326 -0.726649 0
M  V30 6287 H 593.704 4.82502 1.4213 0
M  V30 6288 H 593.404 5.87598 0.0144878 0
M  V30 6289 H 594.928 6.03424 0.933387 0
M  V30 6290 H 596.342 5.58523 -1.29323 0
M  V30 6291 H 594.739 5.62779 -2.08327 0
M  V30 6292 H 595.809 4.24012 -2.35249 0
M  V30 6293 N 597.152 0.631951 1.44375 0
M  V30 6294 C 598.082 -0.0593243 2.33425 0
M  V30 6295 C 599.063 -0.833964 1.48253 0
M  V30 6296 O 600.248 -0.799682 1.76971 0
M  V30 6297 C 597.378 -1.04096 3.31333 0
M  V30 6298 C 596.332 -0.377899 4.26328 0
M  V30 6299 C 595.658 -1.4695 5.14111 0
M  V30 6300 C 596.958 0.716371 5.17364 0
M  V30 6301 H 598.652 0.684287 2.91475 0
M  V30 6302 H 596.198 0.330518 1.40156 0
M  V30 6303 H 598.151 -1.53331 3.92514 0
M  V30 6304 H 596.875 -1.81547 2.71493 0
M  V30 6305 H 595.534 0.0938054 3.6648 0
M  V30 6306 H 595.182 -2.2349 4.50623 0
M  V30 6307 H 594.882 -1.03121 5.78481 0
M  V30 6308 H 596.406 -1.96363 5.78164 0
M  V30 6309 H 597.82 0.307089 5.72477 0
M  V30 6310 H 596.217 1.07784 5.90341 0
M  V30 6311 H 597.287 1.58316 4.58327 0
M  V30 6312 N 598.631 -1.53133 0.372548 0
M  V30 6313 C 599.856 -2.0625 -0.218098 0
M  V30 6314 C 600.281 -1.24375 -1.41111 0
M  V30 6315 O 599.639 -0.264554 -1.79359 0
M  V30 6316 C 599.687 -3.55858 -0.582876 0
M  V30 6317 O 598.791 -3.76667 -1.67917 0
M  V30 6318 H 598.132 -0.663317 -0.030104 0
M  V30 6319 H 600.662 -1.97477 0.535169 0
M  V30 6320 H 600.672 -3.99007 -0.851925 0
M  V30 6321 H 599.347 -4.14892 0.289428 0
M  V30 6322 H 597.924 -3.45413 -1.40513 0
M  V30 6323 N 600.109 -0.101901 -1.5727 0
M  V30 6324 C 601.357 0.559091 -1.94213 0
M  V30 6325 C 601.678 1.68297 -0.984948 0
M  V30 6326 O 600.948 1.95863 -0.0381975 0
M  V30 6327 H 599.528 0.20952 -0.717015 0
M  V30 6328 H 602.19 -0.166831 -1.94185 0
M  V30 6329 H 601.286 0.96485 -2.96811 0
M  V30 6330 N 601.587 1.56661 0.17182 0
M  V30 6331 C 602.835 1.81606 0.886774 0
M  V30 6332 C 603.156 0.678818 1.82803 0
M  V30 6333 O 602.426 -0.301354 1.93568 0
M  V30 6334 H 601.006 0.669934 0.330451 0
M  V30 6335 H 603.668 1.94142 0.171757 0
M  V30 6336 H 602.764 2.75634 1.46398 0
M  V30 6337 N 603.065 -0.440357 1.51323 0
M  V30 6338 C 603.975 -1.55955 1.75258 0
M  V30 6339 C 604.991 -1.61933 0.636687 0
M  V30 6340 O 606.167 -1.79231 0.918593 0
M  V30 6341 C 603.232 -2.9196 1.86977 0
M  V30 6342 C 602.293 -2.96122 3.10822 0
M  V30 6343 C 601.526 -4.2564 3.21973 0
M  V30 6344 O 601.749 -5.17851 2.39137 0
M  V30 6345 O 600.683 -4.36025 4.14929 0
M  V30 6346 H 604.509 -1.38673 2.70191 0
M  V30 6347 H 602.094 -0.623055 1.35788 0
M  V30 6348 H 603.976 -3.72682 1.96688 0
M  V30 6349 H 602.651 -3.09375 0.952307 0
M  V30 6350 H 601.558 -2.14366 3.06591 0
M  V30 6351 H 602.891 -2.83651 4.02247 0
M  V30 6352 N 604.543 -1.41418 -0.695603 0
M  V30 6353 C 605.954 -1.36335 -1.27552 0
M  V30 6354 C 606.305 -0.0464336 -1.96145 0
M  V30 6355 O 605.43 0.855304 -1.9878 0
M  V30 6356 C 606.025 -2.46941 -2.3196 0
M  V30 6357 C 604.584 -2.45256 -2.85529 0
M  V30 6358 C 603.731 -2.2679 -1.59566 0
M  V30 6359 H 606.682 -1.50934 -0.490362 0
M  V30 6360 H 606.703 -2.15997 -3.1325 0
M  V30 6361 H 606.215 -3.42775 -1.82008 0
M  V30 6362 H 604.316 -1.53179 -3.39657 0
M  V30 6363 H 604.429 -3.41565 -3.35961 0
M  V30 6364 H 602.793 -1.74667 -1.85374 0
M  V30 6365 H 603.576 -3.24651 -1.1161 0
M  V30 6366 N 606.021 0.929856 -1.27246 0
M  V30 6367 C 606.951 2.04722 -1.12299 0
M  V30 6368 C 607.932 1.70082 -0.0250464 0
M  V30 6369 O 609.117 1.93176 -0.199141 0
M  V30 6370 C 606.247 3.38721 -0.767145 0
M  V30 6371 C 605.201 3.87466 -1.81808 0
M  V30 6372 C 604.527 5.18246 -1.31626 0
M  V30 6373 C 605.827 4.11095 -3.22177 0
M  V30 6374 H 607.521 2.17485 -2.05769 0
M  V30 6375 H 605.067 1.04503 -0.990715 0
M  V30 6376 H 607.02 4.16366 -0.649413 0
M  V30 6377 H 605.744 3.25967 0.203259 0
M  V30 6378 H 604.403 3.12012 -1.92468 0
M  V30 6379 H 604.051 5.01881 -0.335378 0
M  V30 6380 H 603.751 5.51829 -2.01887 0
M  V30 6381 H 605.275 5.98462 -1.21143 0
M  V30 6382 H 606.689 4.79316 -3.1453 0
M  V30 6383 H 605.086 4.55982 -3.90129 0
M  V30 6384 H 606.156 3.16468 -3.67391 0
M  V30 6385 N 607.499 1.09233 1.13605 0
M  V30 6386 C 608.724 0.849067 1.89224 0
M  V30 6387 C 609.149 -0.593875 1.78479 0
M  V30 6388 O 608.507 -1.41703 1.13092 0
M  V30 6389 C 608.555 1.28642 3.36873 0
M  V30 6390 O 607.659 0.44363 4.10007 0
M  V30 6391 H 607 0.30767 0.588417 0
M  V30 6392 H 609.53 1.45595 1.43748 0
M  V30 6393 H 609.54 1.27096 3.87699 0
M  V30 6394 H 608.215 2.33729 3.44011 0
M  V30 6395 H 606.792 0.523241 3.69211 0
M  V30 6396 N 608.977 -1.30795 0.87923 0
M  V30 6397 C 609.909 -2.27241 0.299025 0
M  V30 6398 C 610.922 -1.53472 -0.543166 0
M  V30 6399 O 612.111 -1.74756 -0.363651 0
M  V30 6400 C 609.211 -3.33655 -0.593931 0
M  V30 6401 C 608.384 -4.36857 0.2179 0
M  V30 6402 C 607.443 -5.22715 -0.604646 0
M  V30 6403 O 606.469 -5.69192 -0.0293838 0
M  V30 6404 N 607.671 -5.48008 -1.91488 0
M  V30 6405 H 610.436 -2.77667 1.12788 0
M  V30 6406 H 607.997 -1.43914 0.741637 0
M  V30 6407 H 609.989 -3.88013 -1.15012 0
M  V30 6408 H 608.559 -2.83202 -1.32346 0
M  V30 6409 H 607.779 -3.82444 0.955536 0
M  V30 6410 H 609.067 -5.02869 0.774614 0
M  V30 6411 H 608.465 -5.1202 -2.40525 0
M  V30 6412 H 607.022 -6.05264 -2.41864 0
M  V30 6413 N 610.455 -0.639598 -1.44038 0
M  V30 6414 C 611.703 -0.147188 -2.01563 0
M  V30 6415 C 612.024 1.2384 -1.50628 0
M  V30 6416 O 611.294 1.82452 -0.713316 0
M  V30 6417 H 609.874 -0.0514231 -0.745228 0
M  V30 6418 H 612.536 -0.828205 -1.76428 0
M  V30 6419 H 611.632 -0.121358 -3.11864 0
M  V30 6420 N 611.933 1.52934 -0.380664 0
M  V30 6421 C 612.896 2.24809 0.446473 0
M  V30 6422 C 613.896 1.26133 0.997347 0
M  V30 6423 O 615.086 1.50297 0.880714 0
M  V30 6424 C 612.218 2.99649 1.62553 0
M  V30 6425 H 613.411 2.99343 -0.182677 0
M  V30 6426 H 610.964 1.55736 -0.132618 0
M  V30 6427 H 611.699 2.29395 2.29235 0
M  V30 6428 H 611.484 3.72066 1.23732 0
M  V30 6429 H 612.974 3.54246 2.21133 0
M  V30 6430 N 613.412 0.11024 1.57214 0
M  V30 6431 C 614.66 -0.548783 1.94506 0
M  V30 6432 C 614.981 -1.67772 0.99386 0
M  V30 6433 O 614.251 -1.9584 0.0485841 0
M  V30 6434 H 612.831 -0.205715 0.718116 0
M  V30 6435 H 615.493 0.177127 1.94093 0
M  V30 6436 H 614.589 -0.949096 2.97319 0
M  V30 6437 N 614.89 -1.56749 -0.16351 0
M  V30 6438 C 616.115 -1.86938 -0.898264 0
M  V30 6439 C 616.54 -0.697456 -1.74692 0
M  V30 6440 O 615.898 0.353327 -1.77824 0
M  V30 6441 C 615.946 -3.15599 -1.74441 0
M  V30 6442 O 615.05 -2.98371 -2.8469 0
M  V30 6443 H 614.391 -0.614659 -0.251178 0
M  V30 6444 H 616.921 -2.03979 -0.159298 0
M  V30 6445 H 616.931 -3.47202 -2.14277 0
M  V30 6446 H 615.606 -4.00505 -1.1211 0
M  V30 6447 H 614.183 -2.7814 -2.4838 0
M  V30 6448 N 616.368 0.432326 -1.51554 0
M  V30 6449 C 617.598 1.2019 -1.68042 0
M  V30 6450 C 618.006 1.85356 -0.379434 0
M  V30 6451 O 617.349 1.71724 0.652427 0
M  V30 6452 C 617.411 2.32387 -2.74292 0
M  V30 6453 C 617.075 1.87548 -4.16743 0
M  V30 6454 C 618.072 1.37611 -5.01357 0
M  V30 6455 C 615.757 1.95087 -4.62868 0
M  V30 6456 C 617.751 0.958069 -6.30159 0
M  V30 6457 C 615.438 1.52894 -5.91664 0
M  V30 6458 C 616.436 1.03336 -6.75137 0
M  V30 6459 O 616.124 0.617435 -8.01525 0
M  V30 6460 H 615.856 0.368132 -0.56697 0
M  V30 6461 H 618.41 0.517875 -1.98764 0
M  V30 6462 H 616.64 3.04082 -2.38895 0
M  V30 6463 H 618.329 2.94235 -2.79608 0
M  V30 6464 H 619.095 1.31178 -4.66923 0
M  V30 6465 H 614.974 2.32606 -3.98015 0
M  V30 6466 H 618.518 0.570562 -6.95263 0
M  V30 6467 H 614.415 1.58999 -6.25611 0
M  V30 6468 H 615.183 0.742835 -8.15122 0
M  V30 6469 N 617.846 1.41785 0.688094 0
M  V30 6470 C 619.092 1.41753 1.4503 0
M  V30 6471 C 619.425 0.0290745 1.94178 0
M  V30 6472 O 618.7 -0.944456 1.7003 0
M  V30 6473 C 618.983 2.43069 2.65686 0
M  V30 6474 C 618.836 3.91053 2.22256 0
M  V30 6475 C 620.155 2.41543 3.67893 0
M  V30 6476 H 617.274 0.516202 0.526027 0
M  V30 6477 H 619.916 1.73111 0.783105 0
M  V30 6478 H 618.066 2.1646 3.2261 0
M  V30 6479 H 619.738 4.28594 1.70602 0
M  V30 6480 H 617.981 4.05559 1.53963 0
M  V30 6481 H 618.652 4.57501 3.08863 0
M  V30 6482 H 621.128 2.65175 3.20658 0
M  V30 6483 H 620.004 3.14434 4.49914 0
M  V30 6484 H 620.265 1.43666 4.18106 0
M  V30 6485 N 619.324 -0.923095 1.27737 0
M  V30 6486 C 620.57 -1.67375 1.14514 0
M  V30 6487 C 620.903 -1.91751 -0.307424 0
M  V30 6488 O 620.178 -1.51119 -1.22447 0
M  V30 6489 C 620.461 -3.03745 1.9342 0
M  V30 6490 C 620.314 -2.86581 3.46686 0
M  V30 6491 C 621.633 -4.04144 1.74228 0
M  V30 6492 H 618.752 -0.607427 0.417374 0
M  V30 6493 H 621.394 -1.07089 1.56946 0
M  V30 6494 H 619.544 -3.55204 1.5736 0
M  V30 6495 H 621.216 -2.42203 3.92601 0
M  V30 6496 H 619.459 -2.21829 3.72793 0
M  V30 6497 H 620.13 -3.83381 3.97143 0
M  V30 6498 H 622.606 -3.61712 2.05678 0
M  V30 6499 H 621.482 -4.97543 2.31824 0
M  V30 6500 H 621.743 -4.36661 0.691373 0
M  V30 6501 N 620.802 -1.09834 -1.13024 0
M  V30 6502 C 622.218 -0.828875 -1.36388 0
M  V30 6503 C 622.418 0.554756 -1.93713 0
M  V30 6504 O 621.474 1.30882 -2.15931 0
M  V30 6505 C 622.787 -1.92352 -2.3113 0
M  V30 6506 C 624.335 -1.95124 -2.44735 0
M  V30 6507 C 624.81 -3.03745 -3.42787 0
M  V30 6508 N 626.301 -3.03012 -3.5034 0
M  V30 6509 C 627.036 -3.83699 -4.26101 0
M  V30 6510 N 626.532 -4.74306 -5.04981 0
M  V30 6511 N 628.325 -3.71942 -4.21445 0
M  V30 6512 H 620.476 -1.99029 -0.74169 0
M  V30 6513 H 622.739 -0.864557 -0.388903 0
M  V30 6514 H 622.445 -2.91906 -1.96172 0
M  V30 6515 H 622.319 -1.80536 -3.3119 0
M  V30 6516 H 624.706 -0.962069 -2.78977 0
M  V30 6517 H 624.787 -2.11018 -1.44586 0
M  V30 6518 H 624.431 -4.02878 -3.09276 0
M  V30 6519 H 624.361 -2.85094 -4.42752 0
M  V30 6520 H 626.852 -2.37352 -2.94062 0
M  V30 6521 H 627.165 -5.32446 -5.60108 0
M  V30 6522 H 625.51 -4.78339 -5.04199 0
M  V30 6523 H 628.701 -3.00513 -3.589 0
M  V30 6524 H 628.874 -4.35062 -4.80235 0
M  V30 6525 N 622.28 1.30327 -0.886154 0
M  V30 6526 C 623.228 2.30052 -0.343317 0
M  V30 6527 C 624.222 1.60212 0.550305 0
M  V30 6528 O 625.428 1.74674 0.434609 0
M  V30 6529 H 621.803 0.746306 -0.0923681 0
M  V30 6530 H 623.774 2.73294 -1.19804 0
M  V30 6531 C 622.523 3.45079 0.426107 0
M  V30 6532 H 621.846 3.99003 -0.25227 0
M  V30 6533 H 623.286 4.16931 0.771009 0
M  V30 6534 C 621.745 2.95195 1.62363 0
M  V30 6535 O 622.275 2.95323 2.723 0
M  V30 6536 N 620.481 2.51192 1.4612 0
M  V30 6537 H 620.028 2.51286 0.566832 0
M  V30 6538 H 619.986 2.18173 2.2638 0
M  V30 6539 N 623.758 0.647228 1.43697 0
M  V30 6540 C 625.006 0.157876 2.01482 0
M  V30 6541 C 625.327 -1.23039 1.51282 0
M  V30 6542 O 624.597 -1.82071 0.722982 0
M  V30 6543 H 623.177 0.0553745 0.744945 0
M  V30 6544 H 625.839 0.83755 1.75986 0
M  V30 6545 H 624.935 0.137895 3.11795 0
M  V30 6546 N 625.236 -1.5273 0.388769 0
M  V30 6547 C 626.146 -2.30165 -0.453993 0
M  V30 6548 C 627.162 -1.37058 -1.07197 0
M  V30 6549 O 628.338 -1.70127 -1.0779 0
M  V30 6550 C 625.403 -3.09303 -1.56628 0
M  V30 6551 C 624.464 -4.18117 -0.973467 0
M  V30 6552 C 623.697 -4.93472 -2.03275 0
M  V30 6553 O 623.92 -4.68913 -3.24772 0
M  V30 6554 O 622.854 -5.78833 -1.65034 0
M  V30 6555 H 626.68 -3.03185 0.176816 0
M  V30 6556 H 624.265 -1.4862 0.152501 0
M  V30 6557 H 626.147 -3.58648 -2.21246 0
M  V30 6558 H 624.822 -2.39098 -2.18206 0
M  V30 6559 H 623.729 -3.7297 -0.290556 0
M  V30 6560 H 625.062 -4.90556 -0.401908 0
M  V30 6561 N 626.714 -0.118576 -1.57153 0
M  V30 6562 C 627.662 0.849114 -2.16547 0
M  V30 6563 C 628.656 1.27567 -1.11458 0
M  V30 6564 O 629.862 1.24746 -1.29763 0
M  V30 6565 H 626.237 0.291935 -0.693021 0
M  V30 6566 H 628.208 0.323693 -2.96639 0
M  V30 6567 C 626.957 2.08951 -2.77912 0
M  V30 6568 H 626.28 1.77021 -3.58474 0
M  V30 6569 H 627.72 2.74666 -3.23008 0
M  V30 6570 C 626.179 2.87899 -1.74974 0
M  V30 6571 O 626.709 3.83268 -1.20285 0
M  V30 6572 N 624.915 2.51884 -1.44924 0
M  V30 6573 H 624.462 1.74397 -1.89587 0
M  V30 6574 H 624.42 3.05003 -0.762921 0
M  V30 6575 N 628.193 1.56834 0.155195 0
M  V30 6576 C 629.123 2.00678 1.19376 0
M  V30 6577 C 630.104 0.884973 1.45266 0
M  V30 6578 O 631.289 1.1522 1.56326 0
M  V30 6579 C 628.419 2.38042 2.5289 0
M  V30 6580 C 627.373 3.53332 2.41538 0
M  V30 6581 C 626.699 3.76485 3.79688 0
M  V30 6582 C 627.999 4.86265 1.9064 0
M  V30 6583 H 629.693 2.87688 0.829232 0
M  V30 6584 H 627.239 1.38407 0.397445 0
M  V30 6585 H 629.192 2.67314 3.25763 0
M  V30 6586 H 627.916 1.4796 2.91162 0
M  V30 6587 H 626.575 3.24213 1.71117 0
M  V30 6588 H 626.223 2.83667 4.15382 0
M  V30 6589 H 625.923 4.54068 3.72956 0
M  V30 6590 H 627.447 4.08174 4.54122 0
M  V30 6591 H 628.861 5.14308 2.53299 0
M  V30 6592 H 627.258 5.67597 1.94818 0
M  V30 6593 H 628.328 4.77184 0.861596 0
M  V30 6594 N 629.671 -0.424282 1.51781 0
M  V30 6595 C 630.581 -1.54087 1.76902 0
M  V30 6596 C 631.597 -1.61249 0.653826 0
M  V30 6597 O 632.773 -1.78247 0.937552 0
M  V30 6598 C 629.838 -2.8996 1.90063 0
M  V30 6599 C 628.899 -2.92809 3.13945 0
M  V30 6600 C 628.132 -4.22201 3.26469 0
M  V30 6601 O 628.355 -5.15286 2.44616 0
M  V30 6602 O 627.289 -4.31599 4.1953 0
M  V30 6603 H 631.115 -1.358 2.71647 0
M  V30 6604 H 628.7 -0.608618 1.36441 0
M  V30 6605 H 630.582 -3.70575 2.0063 0
M  V30 6606 H 629.257 -3.08347 0.985067 0
M  V30 6607 H 628.164 -2.11102 3.08847 0
M  V30 6608 H 629.497 -2.79369 4.05233 0
M  V30 6609 N 631.149 -1.42148 -0.680565 0
M  V30 6610 C 632.395 -1.42521 -1.44277 0
M  V30 6611 C 632.728 -0.0393718 -1.9416 0
M  V30 6612 O 632.003 0.935425 -1.70529 0
M  V30 6613 C 632.286 -2.44475 -2.64394 0
M  V30 6614 C 632.139 -3.92226 -2.20179 0
M  V30 6615 C 633.458 -2.43491 -3.66606 0
M  V30 6616 H 630.577 -0.518985 -0.523282 0
M  V30 6617 H 633.219 -1.73524 -0.773914 0
M  V30 6618 H 631.369 -2.18168 -3.21458 0
M  V30 6619 H 633.041 -4.29493 -1.68327 0
M  V30 6620 H 631.284 -4.0637 -1.5181 0
M  V30 6621 H 631.955 -4.59133 -3.06433 0
M  V30 6622 H 634.431 -2.66872 -3.19247 0
M  V30 6623 H 633.307 -3.16816 -4.4824 0
M  V30 6624 H 633.568 -1.45881 -4.17338 0
M  V30 6625 N 632.627 0.916307 -1.28225 0
M  V30 6626 C 634.043 1.19425 -1.05876 0
M  V30 6627 C 634.243 2.005 0.2005 0
M  V30 6628 O 633.299 2.35806 0.902873 0
M  V30 6629 C 634.612 1.93133 -2.30478 0
M  V30 6630 C 636.16 2.06026 -2.35632 0
M  V30 6631 C 636.635 2.83141 -3.59994 0
M  V30 6632 N 638.126 2.90704 -3.60618 0
M  V30 6633 C 638.861 3.50865 -4.53521 0
M  V30 6634 N 638.357 4.12327 -5.56739 0
M  V30 6635 N 640.15 3.48379 -4.41122 0
M  V30 6636 H 632.301 0.37496 -2.09064 0
M  V30 6637 H 634.564 0.228531 -0.920042 0
M  V30 6638 H 634.27 1.40985 -3.22205 0
M  V30 6639 H 634.144 2.93696 -2.36691 0
M  V30 6640 H 636.531 2.57355 -1.44404 0
M  V30 6641 H 636.612 1.04647 -2.33415 0
M  V30 6642 H 636.256 2.32492 -4.51564 0
M  V30 6643 H 636.186 3.84829 -3.59464 0
M  V30 6644 H 638.677 2.47034 -2.85977 0
M  V30 6645 H 638.99 4.56205 -6.23776 0
M  V30 6646 H 637.335 4.10839 -5.60568 0
M  V30 6647 H 640.526 2.99572 -3.59686 0
M  V30 6648 H 640.699 3.94974 -5.13712 0
M  V30 6649 N 634.105 1.10431 1.1244 0
M  V30 6650 C 635.351 0.857864 1.84424 0
M  V30 6651 C 635.706 -0.609995 1.82474 0
M  V30 6652 O 634.999 -1.44401 1.25932 0
M  V30 6653 C 635.193 1.34022 3.3132 0
M  V30 6654 C 635.022 2.85344 3.47576 0
M  V30 6655 C 633.792 3.53345 3.61213 0
M  V30 6656 C 635.99 3.83446 3.42744 0
M  V30 6657 N 633.972 4.92989 3.65834 0
M  V30 6658 C 635.343 5.09101 3.5386 0
M  V30 6659 C 637.398 3.76154 3.26209 0
M  V30 6660 C 636.101 6.28323 3.50146 0
M  V30 6661 C 638.127 4.94876 3.23809 0
M  V30 6662 C 637.489 6.19378 3.35485 0
M  V30 6663 H 633.588 0.366917 0.690577 0
M  V30 6664 H 636.172 1.40668 1.34613 0
M  V30 6665 H 634.343 0.818727 3.79673 0
M  V30 6666 H 636.075 1.03801 3.91162 0
M  V30 6667 H 632.83 3.03791 3.63329 0
M  V30 6668 H 633.254 5.65762 3.71809 0
M  V30 6669 H 637.896 2.80813 3.16076 0
M  V30 6670 H 635.614 7.23953 3.5905 0
M  V30 6671 H 639.2 4.90942 3.12197 0
M  V30 6672 H 638.08 7.09704 3.33602 0
M  V30 6673 N 635.583 -1.29855 0.893053 0
M  V30 6674 C 636.808 -2.00512 0.530066 0
M  V30 6675 C 637.233 -1.66446 -0.876199 0
M  V30 6676 O 636.591 -0.885446 -1.58207 0
M  V30 6677 C 636.639 -3.53308 0.721505 0
M  V30 6678 O 635.743 -4.11764 -0.228994 0
M  V30 6679 H 635.084 -0.630617 0.207891 0
M  V30 6680 H 637.614 -1.6551 1.20282 0
M  V30 6681 H 637.624 -4.03206 0.623599 0
M  V30 6682 H 636.299 -3.77439 1.74678 0
M  V30 6683 H 634.876 -3.72805 -0.0841034 0
M  V30 6684 N 637.061 -0.65484 -1.43351 0
M  V30 6685 C 638.008 0.0357713 -2.30772 0
M  V30 6686 C 638.978 0.813035 -1.44841 0
M  V30 6687 O 640.163 0.789314 -1.73708 0
M  V30 6688 C 637.303 0.995084 -3.30442 0
M  V30 6689 C 636.416 0.21375 -4.31471 0
M  V30 6690 C 635.551 1.16701 -5.18222 0
M  V30 6691 C 634.59 0.376201 -6.10943 0
M  V30 6692 N 633.727 1.28113 -6.90313 0
M  V30 6693 H 638.567 -0.71559 -2.89281 0
M  V30 6694 H 636.104 -0.364645 -1.42509 0
M  V30 6695 H 638.062 1.5649 -3.86739 0
M  V30 6696 H 636.692 1.7133 -2.7358 0
M  V30 6697 H 635.744 -0.472377 -3.77456 0
M  V30 6698 H 637.056 -0.401103 -4.97185 0
M  V30 6699 H 636.21 1.8074 -5.79153 0
M  V30 6700 H 634.949 1.81577 -4.52638 0
M  V30 6701 H 633.954 -0.277534 -5.49099 0
M  V30 6702 H 635.179 -0.268178 -6.7857 0
M  V30 6703 H 633.125 1.91666 -6.27376 0
M  V30 6704 H 633.042 0.720879 -7.52555 0
M  V30 6705 H 634.31 1.90962 -7.55747 0
M  V30 6706 N 638.539 1.52521 -0.396863 0
M  V30 6707 C 639.769 2.05792 0.182485 0
M  V30 6708 C 640.177 1.26784 1.40436 0
M  V30 6709 O 639.52 0.309617 1.81072 0
M  V30 6710 C 639.582 3.54291 0.609781 0
M  V30 6711 C 639.246 4.5426 -0.499674 0
M  V30 6712 C 640.243 5.01812 -1.35944 0
M  V30 6713 C 637.928 4.97827 -0.668864 0
M  V30 6714 C 639.922 5.91562 -2.37346 0
M  V30 6715 C 637.609 5.87376 -1.68621 0
M  V30 6716 C 638.607 6.34137 -2.53692 0
M  V30 6717 O 638.295 7.21915 -3.53686 0
M  V30 6718 H 638.027 0.675362 0.0293583 0
M  V30 6719 H 640.581 1.97539 -0.56281 0
M  V30 6720 H 638.811 3.60188 1.40717 0
M  V30 6721 H 640.5 3.90267 1.11565 0
M  V30 6722 H 641.266 4.68879 -1.24008 0
M  V30 6723 H 637.145 4.60997 -0.0163971 0
M  V30 6724 H 640.689 6.27983 -3.03782 0
M  V30 6725 H 636.586 6.19723 -1.80593 0
M  V30 6726 H 637.354 7.39996 -3.49784 0
M  V30 6727 O 640.056 0.267423 1.59271 0
M  V30 6728 H 640.747 -0.304099 1.91298 0
M  V30 END ATOM
M  V30 BEGIN BOND
M  V30 END BOND
M  V30 END CTAB
M  END
$$$$
