drugbank_target|P20020 Plasma membrane calcium-transporting ATPase 1 (DB01159)
 OpenBabel12092121233D

  0  0  0     0  0            999 V3000
M  V30 BEGIN CTAB
M  V30 COUNTS 19072 19243 0 0 0
M  V30 BEGIN ATOM
M  V30 1 H -0.908 1.98254 -0.117106 0
M  V30 2 N 0 1.576 0 0
M  V30 3 C 0.933 2.03868 1.02534 0
M  V30 4 C 1.911 0.928543 1.3348 0
M  V30 5 O 3.095 1.19667 1.45644 0
M  V30 6 C 0.222 2.43627 2.35294 0
M  V30 7 C -0.732 3.65373 2.2001 0
M  V30 8 S 0.101 5.13292 1.52614 0
M  V30 9 C 1.257 5.56322 2.86805 0
M  V30 10 H 1.49 2.90518 0.631377 0
M  V30 11 H -0.977 1.52953 0.210867 0
M  V30 12 H 0.981 2.67203 3.11629 0
M  V30 13 H -0.358 1.57376 2.7183 0
M  V30 14 H -1.165 3.90944 3.18086 0
M  V30 15 H -1.563 3.418 1.51819 0
M  V30 16 H 0.729 5.58782 3.83104 0
M  V30 17 H 1.672 6.56266 2.65933 0
M  V30 18 H 2.08 4.83886 2.90714 0
M  V30 19 N 1.4781 -0.272755 1.55222 0
M  V30 20 C 2.7261 -1.00234 1.75492 0
M  V30 21 C 3.0471 -1.8681 0.5592 0
M  V30 22 O 2.3171 -1.91215 -0.425882 0
M  V30 23 H 0.8971 -0.373076 0.647166 0
M  V30 24 H 3.5591 -0.296926 1.92625 0
M  V30 25 H 2.6551 -1.63913 2.65592 0
M  V30 26 N 2.9562 -1.48159 -0.537278 0
M  V30 27 C 4.2332 -1.46291 -1.29839 0
M  V30 28 C 4.6132 -0.170613 -2.10409 0
M  V30 29 O 3.9612 0.847746 -2.12192 0
M  V30 30 C 4.1712 -2.72055 -2.18603 0
M  V30 31 C 5.5192 -3.20087 -2.7898 0
M  V30 32 O 6.5432 -2.72921 -2.28894 0
M  V30 33 O 5.4022 -4.02138 -3.70064 0
M  V30 34 H 2.4962 -0.583906 -0.585647 0
M  V30 35 H 5.0422 -1.60384 -0.554534 0
M  V30 36 H 3.8142 -3.57628 -1.58801 0
M  V30 37 H 3.4372 -2.60646 -3.00249 0
M  V30 38 N 4.4343 0.785586 -1.36625 0
M  V30 39 C 5.3673 1.90509 -1.25625 0
M  V30 40 C 6.3453 1.62 -0.139607 0
M  V30 41 O 7.5293 1.8591 -0.31141 0
M  V30 42 C 4.6563 3.25419 -0.939158 0
M  V30 43 C 3.7023 3.72856 -2.07077 0
M  V30 44 S 4.5353 3.88162 -3.68904 0
M  V30 45 C 5.6913 5.25942 -3.39317 0
M  V30 46 H 5.9243 1.99549 -2.20381 0
M  V30 47 H 3.4573 0.945226 -1.22085 0
M  V30 48 H 5.4153 4.03346 -0.763029 0
M  V30 49 H 4.0763 3.14099 -0.00931402 0
M  V30 50 H 3.2693 4.70624 -1.80357 0
M  V30 51 H 2.8713 3.01989 -2.20632 0
M  V30 52 H 5.1633 6.10651 -2.93447 0
M  V30 53 H 6.1063 5.57668 -4.36363 0
M  V30 54 H 6.5143 4.93224 -2.74573 0
M  V30 55 N 5.9124 1.20967 1.01018 0
M  V30 56 C 6.8754 0.965918 2.07853 0
M  V30 57 C 7.8754 -0.0610545 1.60684 0
M  V30 58 O 9.0654 0.175681 1.73312 0
M  V30 59 C 6.1974 0.455513 3.37843 0
M  V30 60 H 7.3904 1.91365 2.3091 0
M  V30 61 H 4.9434 1.02594 1.17916 0
M  V30 62 H 5.6784 -0.497381 3.20463 0
M  V30 63 H 5.4634 1.19622 3.73407 0
M  V30 64 H 6.9534 0.304667 4.16487 0
M  V30 65 N 7.3905 -1.2043 1.01659 0
M  V30 66 C 8.3385 -2.25249 0.580143 0
M  V30 67 C 9.3325 -1.65057 -0.381115 0
M  V30 68 O 10.5385 -1.78241 -0.251039 0
M  V30 69 H 6.9135 -0.732695 0.169299 0
M  V30 70 H 8.8845 -2.59389 1.47512 0
M  V30 71 C 7.6335 -3.47638 -0.065788 0
M  V30 72 H 6.9565 -3.94233 0.664874 0
M  V30 73 H 8.3965 -4.2268 -0.334282 0
M  V30 74 C 6.8555 -3.10447 -1.3086 0
M  V30 75 O 7.3855 -3.21981 -2.4019 0
M  V30 76 N 5.5915 -2.64996 -1.1927 0
M  V30 77 H 5.1385 -2.55811 -0.303064 0
M  V30 78 H 5.0965 -2.40482 -2.02523 0
M  V30 79 N 8.8686 -0.792821 -1.36206 0
M  V30 80 C 9.8166 -0.181555 -2.3189 0
M  V30 81 C 10.8106 0.661025 -1.55971 0
M  V30 82 O 12.0166 0.555728 -1.71206 0
M  V30 83 H 8.3916 -0.0399382 -0.750939 0
M  V30 84 H 10.3626 -1.00394 -2.81005 0
M  V30 85 C 9.1116 0.666444 -3.41253 0
M  V30 86 H 8.4346 0.0274489 -3.99791 0
M  V30 87 H 9.8746 1.06076 -4.10517 0
M  V30 88 C 8.3336 1.82614 -2.83114 0
M  V30 89 O 8.8636 2.9229 -2.75553 0
M  V30 90 N 7.0696 1.63333 -2.40356 0
M  V30 91 H 6.6166 0.741217 -2.46706 0
M  V30 92 H 6.5746 2.41087 -2.01803 0
M  V30 93 N 10.3467 1.47872 -0.545128 0
M  V30 94 C 11.5717 2.07391 -0.0190611 0
M  V30 95 C 11.9967 1.39688 1.25971 0
M  V30 96 O 11.3547 0.467816 1.7516 0
M  V30 97 C 11.4027 3.60188 0.172335 0
M  V30 98 O 10.5067 3.9339 1.23766 0
M  V30 99 H 9.8477 0.662411 -0.0459059 0
M  V30 100 H 12.3777 1.90066 -0.757365 0
M  V30 101 H 12.3877 4.06129 0.390305 0
M  V30 102 H 11.0627 4.08865 -0.761725 0
M  V30 103 H 9.6397 3.5921 1.00114 0
M  V30 104 N 11.8248 0.280983 1.55075 0
M  V30 105 C 13.0708 -0.33461 2.00021 0
M  V30 106 C 13.4038 -1.55063 1.16915 0
M  V30 107 O 12.6788 -1.93006 0.240646 0
M  V30 108 C 12.9618 -0.711007 3.53011 0
M  V30 109 C 12.8148 0.512766 4.46868 0
M  V30 110 C 14.1338 -1.54522 4.12081 0
M  V30 111 H 11.2528 -0.120147 0.727141 0
M  V30 112 H 13.8948 0.389097 1.85973 0
M  V30 113 H 12.0448 -1.32761 3.65112 0
M  V30 114 H 13.7168 1.15131 4.46702 0
M  V30 115 H 11.9598 1.14975 4.18286 0
M  V30 116 H 12.6308 0.205556 5.51617 0
M  V30 117 H 15.1068 -1.02442 4.03293 0
M  V30 118 H 13.9828 -1.77739 5.19327 0
M  V30 119 H 14.2438 -2.52813 3.62682 0
M  V30 120 N 13.3029 -1.57598 0.00835791 0
M  V30 121 C 14.2659 -2.07884 -0.965242 0
M  V30 122 C 15.2659 -0.989825 -1.26725 0
M  V30 123 O 16.4559 -1.25218 -1.21104 0
M  V30 124 C 13.5879 -2.52731 -2.28779 0
M  V30 125 H 14.7809 -2.95178 -0.530112 0
M  V30 126 H 12.3339 -1.54458 -0.239283 0
M  V30 127 H 13.0689 -1.68705 -2.76964 0
M  V30 128 H 12.8539 -3.32272 -2.08177 0
M  V30 129 H 14.3439 -2.91933 -2.98605 0
M  V30 130 N 14.781 0.264519 -1.55364 0
M  V30 131 C 16.011 1.01153 -1.80143 0
M  V30 132 C 16.419 1.80115 -0.579253 0
M  V30 133 O 15.762 1.77813 0.46132 0
M  V30 134 C 15.824 2.01098 -2.97993 0
M  V30 135 C 15.488 1.40995 -4.34706 0
M  V30 136 C 16.485 0.821316 -5.13372 0
M  V30 137 C 14.17 1.43461 -4.81378 0
M  V30 138 C 16.164 0.265339 -6.36847 0
M  V30 139 C 13.851 0.874771 -6.04807 0
M  V30 140 C 14.849 0.291146 -6.82379 0
M  V30 141 O 14.537 -0.260093 -8.03479 0
M  V30 142 H 14.269 0.304125 -0.603725 0
M  V30 143 H 16.823 0.298089 -2.03225 0
M  V30 144 H 15.053 2.76224 -2.70623 0
M  V30 145 H 16.742 2.61997 -3.1002 0
M  V30 146 H 17.508 0.794903 -4.78442 0
M  V30 147 H 13.387 1.87826 -4.21002 0
M  V30 148 H 16.931 -0.190837 -6.97339 0
M  V30 149 H 12.828 0.898452 -6.39217 0
M  V30 150 H 13.596 -0.150265 -8.18362 0
M  V30 151 N 16.2591 1.48442 0.529413 0
M  V30 152 C 17.4841 1.60406 1.31471 0
M  V30 153 C 17.9091 0.264738 1.86228 0
M  V30 154 O 17.2671 -0.763668 1.64432 0
M  V30 155 C 17.3151 2.65419 2.44101 0
M  V30 156 O 16.4191 2.22618 3.47153 0
M  V30 157 H 15.7601 0.537863 0.389357 0
M  V30 158 H 18.2901 1.94432 0.636965 0
M  V30 159 H 18.3001 2.86709 2.90279 0
M  V30 160 H 16.9751 3.62652 2.03608 0
M  V30 161 H 15.5521 2.11543 3.0709 0
M  V30 162 N 17.7372 -0.778329 1.37039 0
M  V30 163 C 18.9852 -1.53361 1.31623 0
M  V30 164 C 19.3062 -1.94739 -0.100831 0
M  V30 165 O 18.5762 -1.65797 -1.04347 0
M  V30 166 H 17.1562 -0.568794 0.484234 0
M  V30 167 H 19.8182 -0.926742 1.71457 0
M  V30 168 H 18.9142 -2.43606 1.95096 0
M  V30 169 N 19.2153 -1.21501 -1.00376 0
M  V30 170 C 20.4613 -1.03452 -1.74429 0
M  V30 171 C 20.7943 0.430764 -1.89362 0
M  V30 172 O 20.0693 1.31962 -1.42886 0
M  V30 173 C 20.3523 -1.73375 -3.15615 0
M  V30 174 C 20.2053 -3.27431 -3.08397 0
M  V30 175 C 21.5243 -1.47732 -4.14564 0
M  V30 176 H 18.6433 -0.377226 -0.633143 0
M  V30 177 H 21.2853 -1.49693 -1.17013 0
M  V30 178 H 19.4353 -1.34064 -3.64636 0
M  V30 179 H 21.1073 -3.76119 -2.67081 0
M  V30 180 H 19.3503 -3.5767 -2.45468 0
M  V30 181 H 20.0213 -3.71524 -4.08258 0
M  V30 182 H 22.4973 -1.8186 -3.74254 0
M  V30 183 H 21.3733 -1.99169 -5.11491 0
M  V30 184 H 21.6343 -0.407589 -4.40217 0
M  V30 185 N 20.6934 1.19889 -1.02296 0
M  V30 186 C 21.6404 2.22901 -0.598651 0
M  V30 187 C 22.6104 1.61588 0.384521 0
M  V30 188 O 23.7954 1.88697 0.282522 0
M  V30 189 C 20.9354 3.45063 0.0504476 0
M  V30 190 C 20.0484 4.20783 -0.978053 0
M  V30 191 C 19.1834 5.30356 -0.299338 0
M  V30 192 C 18.2224 5.97826 -1.31416 0
M  V30 193 N 17.3594 6.98975 -0.661667 0
M  V30 194 H 22.1994 2.58554 -1.48169 0
M  V30 195 H 19.7364 1.27039 -0.741584 0
M  V30 196 H 21.6944 4.14831 0.443971 0
M  V30 197 H 20.3244 3.10084 0.897097 0
M  V30 198 H 19.3764 3.50018 -1.48969 0
M  V30 199 H 20.6884 4.67109 -1.74958 0
M  V30 200 H 19.8424 6.06516 0.149347 0
M  V30 201 H 18.5814 4.85084 0.504445 0
M  V30 202 H 17.5864 5.20422 -1.77317 0
M  V30 203 H 18.8114 6.45183 -2.11933 0
M  V30 204 H 16.7574 6.55886 0.122132 0
M  V30 205 H 16.6744 7.43461 -1.37117 0
M  V30 206 H 17.9424 7.7914 -0.236785 0
M  V30 207 N 22.1715 0.800033 1.35784 0
M  V30 208 C 23.1195 0.193851 2.31791 0
M  V30 209 C 24.1135 -0.652744 1.56319 0
M  V30 210 O 25.3195 -0.546641 1.71499 0
M  V30 211 H 21.6945 0.04392 0.750716 0
M  V30 212 H 23.6655 1.01883 2.80468 0
M  V30 213 C 22.4145 -0.648338 3.41602 0
M  V30 214 H 21.7375 -0.00624665 3.998 0
M  V30 215 H 23.1775 -1.03898 4.11073 0
M  V30 216 C 21.6365 -1.8111 2.84079 0
M  V30 217 O 22.1665 -2.90825 2.77099 0
M  V30 218 N 20.3725 -1.62056 2.41218 0
M  V30 219 H 19.9195 -0.728123 2.47095 0
M  V30 220 H 19.8775 -2.40013 2.03079 0
M  V30 221 N 23.6496 -1.47581 0.552962 0
M  V30 222 C 24.8746 -2.07378 0.0300593 0
M  V30 223 C 25.2996 -1.40355 -1.25229 0
M  V30 224 O 24.6576 -0.477099 -1.7491 0
M  V30 225 C 24.7056 -3.60274 -0.153231 0
M  V30 226 O 23.8096 -3.94041 -1.21678 0
M  V30 227 H 23.1506 -0.662158 0.0494182 0
M  V30 228 H 25.6806 -1.89662 0.767434 0
M  V30 229 H 25.6906 -4.0633 -0.368761 0
M  V30 230 H 24.3656 -4.08455 0.783397 0
M  V30 231 H 22.9426 -3.59735 -0.982079 0
M  V30 232 N 25.1277 -0.289203 -1.54924 0
M  V30 233 C 26.0577 0.58549 -2.2604 0
M  V30 234 C 27.0387 1.14753 -1.25562 0
M  V30 235 O 28.2237 1.17906 -1.54311 0
M  V30 236 C 25.3537 1.76305 -2.99222 0
M  V30 237 C 24.3077 1.33191 -4.06748 0
M  V30 238 C 23.6337 2.5937 -4.6758 0
M  V30 239 C 24.9337 0.471775 -5.20165 0
M  V30 240 H 26.6277 -0.00763532 -2.99399 0
M  V30 241 H 24.1737 -0.00511229 -1.43999 0
M  V30 242 H 26.1267 2.38097 -3.47689 0
M  V30 243 H 24.8507 2.38223 -2.23422 0
M  V30 244 H 23.5097 0.737121 -3.59113 0
M  V30 245 H 23.1577 3.19576 -3.88433 0
M  V30 246 H 22.8577 2.31228 -5.40192 0
M  V30 247 H 24.3817 3.21985 -5.18804 0
M  V30 248 H 25.7957 0.995056 -5.64599 0
M  V30 249 H 24.1927 0.284639 -5.99425 0
M  V30 250 H 25.2627 -0.506041 -4.82252 0
M  V30 251 N 26.6058 1.57591 -0.0167156 0
M  V30 252 C 27.5528 2.09462 0.969251 0
M  V30 253 C 28.5228 0.99381 1.33089 0
M  V30 254 O 29.7078 1.26726 1.42636 0
M  V30 255 C 26.8478 2.61622 2.25051 0
M  V30 256 C 25.9608 3.85666 1.94642 0
M  V30 257 C 25.0958 4.26266 3.16972 0
M  V30 258 C 24.1348 5.43101 2.82326 0
M  V30 259 N 23.2718 5.78915 3.97243 0
M  V30 260 H 28.1118 2.93428 0.519997 0
M  V30 261 H 25.6488 1.45044 0.245087 0
M  V30 262 H 27.6068 2.89949 2.99976 0
M  V30 263 H 26.2368 1.80505 2.67615 0
M  V30 264 H 25.2888 3.64145 1.10013 0
M  V30 265 H 26.6008 4.70678 1.65117 0
M  V30 266 H 25.7548 4.55963 4.00228 0
M  V30 267 H 24.4938 3.39996 3.49648 0
M  V30 268 H 23.4988 5.1311 1.97479 0
M  V30 269 H 24.7238 6.3106 2.50879 0
M  V30 270 H 22.6698 4.95602 4.29785 0
M  V30 271 H 22.5868 6.58539 3.71299 0
M  V30 272 H 23.8548 6.13212 4.81239 0
M  V30 273 N 28.0839 -0.256276 1.55502 0
M  V30 274 C 28.9939 -1.33882 1.92647 0
M  V30 275 C 30.0099 -1.53159 0.825727 0
M  V30 276 O 31.1859 -1.66963 1.12629 0
M  V30 277 C 28.2509 -2.6751 2.20543 0
M  V30 278 C 27.3119 -2.56836 3.43997 0
M  V30 279 C 26.5449 -3.84092 3.70553 0
M  V30 280 O 26.7679 -4.85545 2.99336 0
M  V30 281 O 25.7019 -3.83288 4.64084 0
M  V30 282 H 29.5279 -1.05374 2.84833 0
M  V30 283 H 27.1129 -0.456237 1.42263 0
M  V30 284 H 28.9949 -3.46492 2.39835 0
M  V30 285 H 27.6699 -2.9577 1.31536 0
M  V30 286 H 26.5769 -1.76172 3.30021 0
M  V30 287 H 27.9099 -2.33523 4.33275 0
M  V30 288 N 29.562 -1.4872 -0.521534 0
M  V30 289 C 30.525 -1.63379 -1.60748 0
M  V30 290 C 31.525 -0.50661 -1.52611 0
M  V30 291 O 32.715 -0.772601 -1.5613 0
M  V30 292 C 29.847 -1.61192 -3.00383 0
M  V30 293 H 31.04 -2.60217 -1.49087 0
M  V30 294 H 28.593 -1.37444 -0.744235 0
M  V30 295 H 29.328 -0.65863 -3.17541 0
M  V30 296 H 29.113 -2.43032 -3.07698 0
M  V30 297 H 30.603 -1.7466 -3.7932 0
M  V30 298 N 31.0401 0.771051 -1.3745 0
M  V30 299 C 31.9881 1.90574 -1.33358 0
M  V30 300 C 32.9821 1.67936 -0.22224 0
M  V30 301 O 34.1881 1.75717 -0.390304 0
M  V30 302 H 30.5631 0.626714 -0.415612 0
M  V30 303 H 32.5341 1.91142 -2.29144 0
M  V30 304 C 31.2831 3.27845 -1.15813 0
M  V30 305 H 30.6061 3.45842 -2.00583 0
M  V30 306 H 32.0461 4.07538 -1.17 0
M  V30 307 C 30.5051 3.36625 0.136165 0
M  V30 308 O 31.0351 3.85785 1.11949 0
M  V30 309 N 29.2411 2.89997 0.187099 0
M  V30 310 H 28.7881 2.50182 -0.613753 0
M  V30 311 H 28.7461 2.96252 1.05272 0
M  V30 312 N 32.5182 1.22032 0.997298 0
M  V30 313 C 33.4682 0.953838 2.07089 0
M  V30 314 C 34.4522 -0.0938669 1.60626 0
M  V30 315 O 35.6442 0.116078 1.76619 0
M  V30 316 C 32.7732 0.528726 3.39204 0
M  V30 317 C 31.8592 1.61092 3.92314 0
M  V30 318 N 32.2502 2.83768 4.18699 0
M  V30 319 C 30.5482 1.48158 4.20672 0
M  V30 320 C 31.2492 3.53715 4.61802 0
M  V30 321 N 30.2252 2.81174 4.65233 0
M  V30 322 H 34.0272 1.88577 2.25424 0
M  V30 323 H 31.5412 1.11719 1.17867 0
M  V30 324 H 33.5382 0.31915 4.15677 0
M  V30 325 H 32.1982 -0.39635 3.22272 0
M  V30 326 H 33.2092 3.20238 4.07023 0
M  V30 327 H 29.8862 0.622369 4.12835 0
M  V30 328 H 31.2762 4.58793 4.90875 0
M  V30 329 N 33.9963 -1.19345 1.0293 0
M  V30 330 C 35.2733 -1.84811 0.640642 0
M  V30 331 C 35.6533 -1.91855 -0.88062 0
M  V30 332 O 35.0013 -1.43587 -1.7775 0
M  V30 333 C 35.2113 -3.23755 1.30321 0
M  V30 334 C 36.5593 -3.99912 1.42673 0
M  V30 335 O 37.5833 -3.33155 1.26041 0
M  V30 336 O 36.4423 -5.19494 1.6967 0
M  V30 337 H 33.5363 -0.796443 0.222726 0
M  V30 338 H 36.0823 -1.26831 1.12748 0
M  V30 339 H 34.8543 -3.13466 2.34211 0
M  V30 340 H 34.4773 -3.89381 0.804261 0
M  V30 341 N 35.4744 -0.807222 -1.35358 0
M  V30 342 C 36.7224 -0.387122 -1.98358 0
M  V30 343 C 37.0434 1.04942 -1.64354 0
M  V30 344 O 36.3134 1.72615 -0.926339 0
M  V30 345 H 34.8934 -0.140154 -0.733734 0
M  V30 346 H 37.5554 -1.0332 -1.6526 0
M  V30 347 H 36.6514 -0.493352 -3.08176 0
M  V30 348 N 36.9525 1.47285 -0.560781 0
M  V30 349 C 38.2295 1.9558 0.0277798 0
M  V30 350 C 38.6095 1.5034 1.48192 0
M  V30 351 O 37.9575 0.743882 2.16052 0
M  V30 352 C 38.1675 3.48789 -0.121418 0
M  V30 353 C 39.5155 4.24594 0.0220912 0
M  V30 354 O 40.5395 3.56166 -0.0491439 0
M  V30 355 O 39.3985 5.46217 0.175958 0
M  V30 356 H 36.4925 0.824663 0.0621342 0
M  V30 357 H 39.0385 1.5767 -0.627556 0
M  V30 358 H 37.8105 3.74533 -1.13316 0
M  V30 359 H 37.4335 3.93473 0.571366 0
M  V30 360 N 38.4306 0.297415 1.54768 0
M  V30 361 C 39.6776 -0.312913 2.00068 0
M  V30 362 C 40.0056 -1.54171 1.18582 0
M  V30 363 O 39.2606 -1.94108 0.249133 0
M  V30 364 C 39.5596 -0.717561 3.50123 0
M  V30 365 C 39.2256 0.409095 4.4904 0
M  V30 366 C 37.8876 0.718399 4.75807 0
M  V30 367 C 40.2396 1.16717 5.07963 0
M  V30 368 C 37.5676 1.78896 5.5876 0
M  V30 369 C 39.9196 2.22762 5.92081 0
M  V30 370 C 38.5836 2.54303 6.1716 0
M  V30 371 H 37.8536 -0.114503 0.7321 0
M  V30 372 H 40.5006 0.415767 1.86932 0
M  V30 373 H 38.8056 -1.52627 3.60849 0
M  V30 374 H 40.5026 -1.20091 3.82595 0
M  V30 375 H 37.0926 0.157918 4.28309 0
M  V30 376 H 41.2766 0.941466 4.87289 0
M  V30 377 H 36.5326 2.0381 5.7643 0
M  V30 378 H 40.7066 2.81962 6.36765 0
M  V30 379 H 38.3336 3.3739 6.81229 0
M  V30 380 N 39.9087 -1.5758 0.0250728 0
M  V30 381 C 41.1567 -1.91255 -0.653151 0
M  V30 382 C 41.4777 -0.901691 -1.729 0
M  V30 383 O 40.7477 0.0573785 -1.95816 0
M  V30 384 H 39.3277 -0.705942 -0.244243 0
M  V30 385 H 41.9897 -1.94767 0.0719209 0
M  V30 386 H 41.0857 -2.91752 -1.10847 0
M  V30 387 N 41.3868 0.248026 -1.55636 0
M  V30 388 C 42.6358 0.974134 -1.76617 0
M  V30 389 C 42.9488 1.86528 -0.588796 0
M  V30 390 O 44.1548 2.62805 -0.681594 0
M  V30 391 C 42.6108 1.78213 -3.12679 0
M  V30 392 C 42.2188 0.93843 -4.38061 0
M  V30 393 C 43.9628 2.50104 -3.42999 0
M  V30 394 C 41.8698 1.74225 -5.65155 0
M  V30 395 H 40.7998 0.36745 -0.658405 0
M  V30 396 H 43.4508 0.22884 -1.82067 0
M  V30 397 H 41.8328 2.56933 -3.01333 0
M  V30 398 H 43.0068 0.193635 -4.60393 0
M  V30 399 H 41.3218 0.332905 -4.15067 0
M  V30 400 H 43.9188 3.10694 -4.3517 0
M  V30 401 H 44.2618 3.21662 -2.64271 0
M  V30 402 H 44.7948 1.78395 -3.55556 0
M  V30 403 H 41.5338 1.07043 -6.46701 0
M  V30 404 H 41.0538 2.46235 -5.46926 0
M  V30 405 H 42.7328 2.30967 -6.0437 0
M  V30 406 N 42.8649 1.48995 0.513639 0
M  V30 407 C 44.0929 1.61531 1.29288 0
M  V30 408 C 44.5079 0.281801 1.86685 0
M  V30 409 O 43.8649 -0.731111 1.67215 0
M  V30 410 C 43.9159 2.67449 2.43215 0
M  V30 411 O 43.6369 3.95626 1.88179 0
M  V30 412 C 45.1379 2.90575 3.34785 0
M  V30 413 H 42.3579 0.544165 0.392588 0
M  V30 414 H 44.9019 1.9494 0.617956 0
M  V30 415 H 43.0569 2.36853 3.0656 0
M  V30 416 H 43.4709 4.53868 2.62876 0
M  V30 417 H 44.9449 3.68449 4.11035 0
M  V30 418 H 45.4219 2.00011 3.91015 0
M  V30 419 H 46.0279 3.22538 2.77218 0
M  V30 420 N 44.343 -0.763751 1.37857 0
M  V30 421 C 45.273 -1.89103 1.36975 0
M  V30 422 C 46.254 -1.68439 0.237152 0
M  V30 423 O 47.439 -1.8918 0.438713 0
M  V30 424 C 44.569 -3.26496 1.18395 0
M  V30 425 C 43.523 -3.61741 2.28751 0
M  V30 426 C 42.849 -4.97762 1.95286 0
M  V30 427 C 44.149 -3.67665 3.70972 0
M  V30 428 H 45.843 -1.90099 2.31307 0
M  V30 429 H 43.389 -0.91319 1.11341 0
M  V30 430 H 45.342 -4.05003 1.16406 0
M  V30 431 H 44.066 -3.25955 0.205215 0
M  V30 432 H 42.725 -2.85547 2.29909 0
M  V30 433 H 42.373 -4.93769 0.959221 0
M  V30 434 H 42.073 -5.22313 2.69189 0
M  V30 435 H 43.597 -5.7866 1.94898 0
M  V30 436 H 45.011 -4.36307 3.719 0
M  V30 437 H 43.408 -4.03718 4.43995 0
M  V30 438 H 44.478 -2.68134 4.0402 0
M  V30 439 N 45.8211 -1.22559 -0.990812 0
M  V30 440 C 46.7841 -0.998863 -2.0629 0
M  V30 441 C 47.7841 0.0354834 -1.60761 0
M  V30 442 O 48.9741 -0.203231 -1.7301 0
M  V30 443 C 46.1061 -0.509203 -3.37076 0
M  V30 444 H 47.2991 -1.95014 -2.27837 0
M  V30 445 H 44.8521 -1.04456 -1.16269 0
M  V30 446 H 45.5871 0.446335 -3.21214 0
M  V30 447 H 45.3721 -1.25547 -3.71457 0
M  V30 448 H 46.8621 -0.370888 -4.1595 0
M  V30 449 N 47.2992 1.18797 -1.03562 0
M  V30 450 C 48.2092 2.25913 -0.632505 0
M  V30 451 C 49.2252 1.70668 0.338882 0
M  V30 452 O 50.4012 2.00453 0.195076 0
M  V30 453 C 47.4662 3.467 0.00350942 0
M  V30 454 C 46.5272 4.17098 -1.01624 0
M  V30 455 C 45.7602 5.32119 -0.410478 0
M  V30 456 O 45.9832 5.64976 0.784725 0
M  V30 457 O 44.9172 5.9107 -1.13667 0
M  V30 458 H 48.7432 2.62648 -1.52478 0
M  V30 459 H 46.3282 1.25781 -0.806195 0
M  V30 460 H 48.2102 4.19878 0.35781 0
M  V30 461 H 46.8852 3.11798 0.869686 0
M  V30 462 H 45.7922 3.4601 -1.42224 0
M  V30 463 H 47.1252 4.55987 -1.85301 0
M  V30 464 N 48.7773 0.814389 1.34928 0
M  V30 465 C 49.7073 0.244827 2.32213 0
M  V30 466 C 50.6883 -0.634024 1.57842 0
M  V30 467 O 51.8733 -0.562676 1.8587 0
M  V30 468 C 49.0033 -0.601106 3.42058 0
M  V30 469 C 47.9573 0.179896 4.27622 0
M  V30 470 C 47.2833 -0.788237 5.28858 0
M  V30 471 C 48.5833 1.38329 5.03649 0
M  V30 472 H 50.2773 1.05763 2.80097 0
M  V30 473 H 47.8233 0.510029 1.34665 0
M  V30 474 H 49.7763 -1.00968 4.09125 0
M  V30 475 H 48.5003 -1.44688 2.92802 0
M  V30 476 H 47.1593 0.569739 3.62146 0
M  V30 477 H 46.8073 -1.62973 4.75866 0
M  V30 478 H 46.5073 -0.269942 5.8698 0
M  V30 479 H 48.0313 -1.19485 5.98795 0
M  V30 480 H 49.4453 1.04918 5.63618 0
M  V30 481 H 47.8423 1.83662 5.71304 0
M  V30 482 H 48.9123 2.16592 4.33839 0
M  V30 483 N 50.2554 -1.46986 0.568584 0
M  V30 484 C 51.6714 -1.57946 0.229189 0
M  V30 485 C 51.8714 -1.56567 -1.26843 0
M  V30 486 O 50.9274 -1.47511 -2.04931 0
M  V30 487 C 52.2404 -2.87963 0.865909 0
M  V30 488 C 53.7884 -3.01568 0.838188 0
M  V30 489 C 54.2634 -4.34301 1.45419 0
M  V30 490 N 55.7544 -4.40965 1.41788 0
M  V30 491 C 56.4894 -5.42256 1.86403 0
M  V30 492 N 55.9854 -6.50297 2.38926 0
M  V30 493 N 57.7784 -5.3337 1.77405 0
M  V30 494 H 49.9294 -1.46126 1.54146 0
M  V30 495 H 52.1924 -0.696156 0.643484 0
M  V30 496 H 51.8984 -2.94742 1.91886 0
M  V30 497 H 51.7724 -3.75423 0.365687 0
M  V30 498 H 54.1594 -2.94379 -0.206106 0
M  V30 499 H 54.2404 -2.1562 1.37629 0
M  V30 500 H 53.8844 -4.42247 2.49761 0
M  V30 501 H 53.8144 -5.19 0.891435 0
M  V30 502 H 56.3054 -3.63484 1.03381 0
M  V30 503 H 56.6184 -7.23777 2.70863 0
M  V30 504 H 54.9634 -6.51155 2.42944 0
M  V30 505 H 58.1544 -4.47865 1.3614 0
M  V30 506 H 58.3274 -6.12169 2.12492 0
M  V30 507 N 51.7335 -0.305618 -1.54608 0
M  V30 508 C 52.6965 0.555591 -2.22364 0
M  V30 509 C 53.6965 1.05768 -1.21119 0
M  V30 510 O 54.8865 0.952972 -1.45822 0
M  V30 511 C 52.0185 1.76974 -2.91364 0
M  V30 512 H 53.2115 -0.0364572 -2.99878 0
M  V30 513 H 50.7645 -0.0565007 -1.56198 0
M  V30 514 H 51.4995 2.40151 -2.17941 0
M  V30 515 H 51.2845 1.41732 -3.65588 0
M  V30 516 H 52.7745 2.38148 -3.43038 0
M  V30 517 N 53.2116 1.57565 -0.0334293 0
M  V30 518 C 54.1416 2.13511 0.945265 0
M  V30 519 C 55.1226 1.05231 1.33643 0
M  V30 520 O 56.3076 1.33084 1.41429 0
M  V30 521 C 53.4376 2.6657 2.22616 0
M  V30 522 C 52.3916 3.79676 1.97561 0
M  V30 523 C 51.7176 4.1918 3.31952 0
M  V30 524 C 53.0176 5.0557 1.31135 0
M  V30 525 H 54.7116 2.95538 0.479325 0
M  V30 526 H 52.2576 1.42166 0.229115 0
M  V30 527 H 54.2106 3.04344 2.91466 0
M  V30 528 H 52.9346 1.8171 2.71384 0
M  V30 529 H 51.5936 3.42347 1.31127 0
M  V30 530 H 51.2416 3.31296 3.78487 0
M  V30 531 H 50.9416 4.95402 3.15992 0
M  V30 532 H 52.4656 4.59541 4.02063 0
M  V30 533 H 53.8796 5.40903 1.89992 0
M  V30 534 H 52.2766 5.86818 1.25559 0
M  V30 535 H 53.3466 4.84062 0.284894 0
M  V30 536 N 54.6897 -0.239769 1.55765 0
M  V30 537 C 55.6227 -1.32356 1.85895 0
M  V30 538 C 56.6007 -1.46053 0.714662 0
M  V30 539 O 57.7847 -1.62154 0.961157 0
M  V30 540 C 54.9117 -2.6962 2.04994 0
M  V30 541 C 53.9577 -2.73036 3.27648 0
M  V30 542 S 54.7907 -2.28929 4.84099 0
M  V30 543 C 55.9467 -3.68103 5.06212 0
M  V30 544 H 56.1797 -1.06601 2.77531 0
M  V30 545 H 53.7127 -0.441112 1.47965 0
M  V30 546 H 55.6707 -3.48653 2.16682 0
M  V30 547 H 54.3317 -2.92609 1.14188 0
M  V30 548 H 53.5247 -3.7386 3.38 0
M  V30 549 H 53.1267 -2.02052 3.14723 0
M  V30 550 H 55.4187 -4.63656 4.93993 0
M  V30 551 H 56.3617 -3.6268 6.08168 0
M  V30 552 H 56.7697 -3.60947 4.34025 0
M  V30 553 N 56.1678 -1.49265 -0.50573 0
M  V30 554 C 57.0778 -1.68312 -1.63427 0
M  V30 555 C 58.0938 -0.565682 -1.64548 0
M  V30 556 O 59.2698 -0.839801 -1.83055 0
M  V30 557 C 56.3348 -1.74107 -2.99813 0
M  V30 558 C 55.3958 -2.97653 -3.09356 0
M  V30 559 C 54.6288 -3.03163 -4.39236 0
M  V30 560 O 54.8518 -2.16396 -5.27758 0
M  V30 561 O 53.7858 -3.9558 -4.53652 0
M  V30 562 H 57.6118 -2.63907 -1.50289 0
M  V30 563 H 55.1968 -1.32951 -0.681502 0
M  V30 564 H 57.0788 -1.803 -3.80881 0
M  V30 565 H 55.7538 -0.816901 -3.13223 0
M  V30 566 H 54.6608 -2.96981 -2.27493 0
M  V30 567 H 55.9938 -3.89535 -3.00871 0
M  V30 568 N 57.6459 0.756429 -1.3826 0
M  V30 569 C 58.5759 1.88374 -1.37976 0
M  V30 570 C 59.5569 1.68311 -0.246082 0
M  V30 571 O 60.7419 1.88944 -0.44874 0
M  V30 572 C 57.8719 3.25864 -1.20125 0
M  V30 573 C 56.8259 3.60523 -2.30666 0
M  V30 574 C 56.1519 4.9672 -1.97923 0
M  V30 575 C 57.4519 3.65692 -3.72916 0
M  V30 576 H 59.1459 1.88869 -2.32312 0
M  V30 577 H 56.6919 0.907272 -1.11824 0
M  V30 578 H 58.6449 4.0438 -1.18552 0
M  V30 579 H 57.3689 3.25841 -0.222498 0
M  V30 580 H 56.0279 2.84324 -2.3142 0
M  V30 581 H 55.6759 4.93253 -0.985393 0
M  V30 582 H 55.3759 5.20878 -2.71955 0
M  V30 583 H 56.8999 5.77618 -1.97964 0
M  V30 584 H 58.3139 4.34328 -3.74208 0
M  V30 585 H 56.7109 4.01358 -4.4613 0
M  V30 586 H 57.7809 2.65987 -4.05436 0
M  V30 587 N 59.124 1.23083 0.984299 0
M  V30 588 C 60.54 0.992637 1.24975 0
M  V30 589 C 60.74 -0.308618 1.99123 0
M  V30 590 O 59.796 -1.02905 2.30579 0
M  V30 591 C 61.109 2.19698 2.05312 0
M  V30 592 C 62.657 2.24147 2.18465 0
M  V30 593 C 63.132 3.44157 3.02192 0
M  V30 594 N 64.623 3.44372 3.09777 0
M  V30 595 C 65.358 4.33886 3.74874 0
M  V30 596 N 64.854 5.3363 4.41827 0
M  V30 597 N 66.647 4.21639 3.71721 0
M  V30 598 H 58.798 2.06731 0.487453 0
M  V30 599 H 61.061 0.906339 0.277944 0
M  V30 600 H 60.767 3.1411 1.58201 0
M  V30 601 H 60.641 2.20465 3.06064 0
M  V30 602 H 63.028 1.30277 2.64786 0
M  V30 603 H 63.109 2.27415 1.17115 0
M  V30 604 H 62.753 4.38332 2.56568 0
M  V30 605 H 62.683 3.3813 4.03702 0
M  V30 606 H 65.174 2.72201 2.62135 0
M  V30 607 H 65.487 5.98196 4.89266 0
M  V30 608 H 63.832 5.37534 4.40548 0
M  V30 609 H 67.023 3.42962 3.18582 0
M  V30 610 H 67.196 4.91604 4.22173 0
M  V30 611 N 60.6021 -1.18246 1.0419 0
M  V30 612 C 61.8271 -1.92736 0.765996 0
M  V30 613 C 62.2521 -1.75728 -0.67091 0
M  V30 614 O 61.6101 -1.06825 -1.46486 0
M  V30 615 C 61.6581 -3.42148 1.13875 0
M  V30 616 O 60.7621 -4.11548 0.264954 0
M  V30 617 H 60.1031 -0.601238 0.281797 0
M  V30 618 H 62.6331 -1.49942 1.39207 0
M  V30 619 H 62.6431 -3.92858 1.1012 0
M  V30 620 H 61.3181 -3.53848 2.18551 0
M  V30 621 H 59.8951 -3.71137 0.362226 0
M  V30 622 N 62.0802 -0.821533 -1.34494 0
M  V30 623 C 63.3082 -0.421884 -2.02553 0
M  V30 624 C 63.7232 0.971745 -1.61872 0
M  V30 625 O 63.0802 1.62864 -0.823496 0
M  V30 626 C 63.1312 -0.51285 -3.57844 0
M  V30 627 O 62.8522 -1.85155 -3.97051 0
M  V30 628 C 64.3532 -0.107921 -4.43169 0
M  V30 629 H 61.5732 -0.169482 -0.649243 0
M  V30 630 H 64.1172 -1.1093 -1.71798 0
M  V30 631 H 62.2722 0.126474 -3.87193 0
M  V30 632 H 62.6862 -1.82482 -4.91732 0
M  V30 633 H 64.1602 -0.222657 -5.51551 0
M  V30 634 H 64.6372 0.948401 -4.28838 0
M  V30 635 H 65.2432 -0.720989 -4.19144 0
M  V30 636 N 63.5583 1.46682 -0.576371 0
M  V30 637 C 64.8353 1.95599 0.00703437 0
M  V30 638 C 65.2153 1.51904 1.46589 0
M  V30 639 O 64.5633 0.766755 2.15251 0
M  V30 640 C 64.7733 3.4864 -0.158404 0
M  V30 641 C 66.1213 4.24594 -0.0229439 0
M  V30 642 O 67.1453 3.56094 -0.0869173 0
M  V30 643 O 66.0043 5.46373 0.118015 0
M  V30 644 H 63.0983 0.825275 0.053384 0
M  V30 645 H 65.6443 1.56996 -0.644244 0
M  V30 646 H 64.4163 3.7331 -1.17282 0
M  V30 647 H 64.0393 3.94057 0.5296 0
M  V30 648 N 65.0364 0.313813 1.54444 0
M  V30 649 C 65.9994 -0.54379 2.22656 0
M  V30 650 C 66.9994 -1.05124 1.21678 0
M  V30 651 O 68.1894 -0.945225 1.46325 0
M  V30 652 C 65.3214 -1.75427 2.92298 0
M  V30 653 H 66.5144 0.0523599 2.99854 0
M  V30 654 H 64.0674 0.0647834 1.56166 0
M  V30 655 H 64.8024 -2.38991 2.19211 0
M  V30 656 H 64.5874 -1.39791 3.66334 0
M  V30 657 H 66.0774 -2.36325 3.44297 0
M  V30 658 N 66.5145 -1.57545 0.0417849 0
M  V30 659 C 67.4445 -2.14009 -0.933929 0
M  V30 660 C 68.4255 -1.05938 -1.33083 0
M  V30 661 O 69.6105 -1.33833 -1.40721 0
M  V30 662 C 66.7405 -2.67747 -2.21199 0
M  V30 663 C 65.6945 -3.80718 -1.95544 0
M  V30 664 C 65.0205 -4.20935 -3.29724 0
M  V30 665 C 66.3205 -5.06258 -1.28452 0
M  V30 666 H 68.0145 -2.95788 -0.463645 0
M  V30 667 H 65.5605 -1.42285 -0.221573 0
M  V30 668 H 67.5135 -3.05886 -2.89848 0
M  V30 669 H 66.2375 -1.83147 -2.70416 0
M  V30 670 H 64.8965 -3.43037 -1.2931 0
M  V30 671 H 64.5445 -3.33298 -3.76724 0
M  V30 672 H 64.2445 -4.9707 -3.13361 0
M  V30 673 H 65.7685 -4.61666 -3.9962 0
M  V30 674 H 67.1825 -5.41903 -1.8712 0
M  V30 675 H 65.5795 -5.87475 -1.22445 0
M  V30 676 H 66.6495 -4.84207 -0.259219 0
M  V30 677 N 67.9926 0.231505 -1.5589 0
M  V30 678 C 69.4086 0.580748 -1.48659 0
M  V30 679 C 69.6086 1.87617 -0.73498 0
M  V30 680 O 68.6646 2.51046 -0.270586 0
M  V30 681 C 69.9776 0.669202 -2.93159 0
M  V30 682 C 71.5256 0.760499 -3.03621 0
M  V30 683 C 72.0006 0.880383 -4.49459 0
M  V30 684 N 73.4916 0.944861 -4.53461 0
M  V30 685 C 74.2266 1.05716 -5.63571 0
M  V30 686 N 73.7226 1.13403 -6.83456 0
M  V30 687 N 75.5156 1.09152 -5.514 0
M  V30 688 H 67.6666 -0.618695 -2.03189 0
M  V30 689 H 69.9296 -0.215728 -0.923128 0
M  V30 690 H 69.6356 -0.212904 -3.51055 0
M  V30 691 H 69.5096 1.5361 -3.44505 0
M  V30 692 H 71.8966 1.63305 -2.45796 0
M  V30 693 H 71.9776 -0.131864 -2.5546 0
M  V30 694 H 71.6216 0.0123284 -5.07899 0
M  V30 695 H 71.5516 1.78802 -4.95316 0
M  V30 696 H 74.0426 0.896176 -3.6712 0
M  V30 697 H 74.3556 1.21921 -7.63122 0
M  V30 698 H 72.7006 1.10333 -6.86186 0
M  V30 699 H 75.8916 1.02805 -4.56671 0
M  V30 700 H 76.0646 1.17558 -6.37247 0
M  V30 701 N 69.4707 1.49531 0.497807 0
M  V30 702 C 70.4177 1.66436 1.59899 0
M  V30 703 C 71.3877 0.505793 1.58212 0
M  V30 704 O 72.5727 0.733202 1.7615 0
M  V30 705 C 69.7127 1.7399 2.98029 0
M  V30 706 C 68.8257 3.01172 3.09708 0
M  V30 707 C 67.9607 2.99686 4.38591 0
M  V30 708 C 66.9997 4.21434 4.43914 0
M  V30 709 N 66.1367 4.1784 5.64229 0
M  V30 710 H 70.9767 2.60459 1.44793 0
M  V30 711 H 68.5137 1.29137 0.704423 0
M  V30 712 H 70.4717 1.76352 3.78095 0
M  V30 713 H 69.1017 0.834301 3.11832 0
M  V30 714 H 68.1537 3.08408 2.22685 0
M  V30 715 H 69.4657 3.91165 3.09502 0
M  V30 716 H 68.6197 3.00628 5.2698 0
M  V30 717 H 67.3587 2.07477 4.41367 0
M  V30 718 H 66.3637 4.20733 3.53926 0
M  V30 719 H 67.5887 5.14839 4.42851 0
M  V30 720 H 65.5347 3.28469 5.67841 0
M  V30 721 H 65.4517 5.01571 5.65652 0
M  V30 722 H 66.7197 4.22889 6.54817 0
M  V30 723 N 70.9488 -0.749086 1.3866 0
M  V30 724 C 72.1978 -1.50371 1.3443 0
M  V30 725 C 72.5108 -1.95503 -0.0616397 0
M  V30 726 O 73.7168 -2.70554 -0.226489 0
M  V30 727 C 72.1728 -2.71644 2.36088 0
M  V30 728 C 71.7808 -2.3352 3.82325 0
M  V30 729 C 73.5248 -3.49518 2.40909 0
M  V30 730 C 71.4318 -3.51431 4.75658 0
M  V30 731 H 70.3618 -0.564628 0.499712 0
M  V30 732 H 73.0128 -0.818449 1.64237 0
M  V30 733 H 71.3948 -3.42175 1.9933 0
M  V30 734 H 72.5688 -1.70627 4.28046 0
M  V30 735 H 70.8838 -1.6877 3.80665 0
M  V30 736 H 73.4808 -4.37197 3.07836 0
M  V30 737 H 73.8238 -3.90992 1.42937 0
M  V30 738 H 74.3568 -2.86005 2.76489 0
M  V30 739 H 71.0958 -3.15019 5.74842 0
M  V30 740 H 70.6158 -4.13352 4.34627 0
M  V30 741 H 72.2948 -4.17953 4.93887 0
M  V30 742 N 72.4269 -1.23603 -0.977757 0
M  V30 743 C 73.3589 -0.977369 -2.07317 0
M  V30 744 C 74.3719 0.0495845 -1.62724 0
M  V30 745 O 75.5609 -0.186261 -1.77526 0
M  V30 746 C 72.6609 -0.451216 -3.35883 0
M  V30 747 C 71.8339 -1.53896 -4.09432 0
M  V30 748 C 70.8929 -1.01721 -5.16274 0
M  V30 749 O 69.9189 -1.70676 -5.43009 0
M  V30 750 N 71.1209 0.153594 -5.80297 0
M  V30 751 H 73.8859 -1.92047 -2.30082 0
M  V30 752 H 71.4469 -1.14497 -1.14465 0
M  V30 753 H 73.4389 -0.0871574 -4.04606 0
M  V30 754 H 72.0089 0.397368 -3.10064 0
M  V30 755 H 71.2289 -2.07566 -3.35127 0
M  V30 756 H 72.5169 -2.27037 -4.55337 0
M  V30 757 H 71.9149 0.730323 -5.60966 0
M  V30 758 H 70.4719 0.458892 -6.50183 0
M  V30 759 N 73.905 1.17692 -1.04816 0
M  V30 760 C 74.815 2.25229 -0.65643 0
M  V30 761 C 75.831 1.71018 0.320761 0
M  V30 762 O 77.007 2.00649 0.173805 0
M  V30 763 C 74.072 3.46684 -0.0332629 0
M  V30 764 C 73.133 4.15997 -1.06042 0
M  V30 765 C 72.366 5.31654 -0.466893 0
M  V30 766 O 72.589 5.65777 0.724758 0
M  V30 767 O 71.523 5.89831 -1.1993 0
M  V30 768 H 75.349 2.61016 -1.55255 0
M  V30 769 H 72.934 1.24919 -0.81949 0
M  V30 770 H 74.816 4.20234 0.313256 0
M  V30 771 H 73.491 3.12703 0.836566 0
M  V30 772 H 72.398 3.44482 -1.45886 0
M  V30 773 H 73.731 4.53996 -1.90127 0
M  V30 774 N 75.3831 0.828654 1.34056 0
M  V30 775 C 76.6081 0.431637 2.02859 0
M  V30 776 C 77.0331 -0.956339 1.61975 0
M  V30 777 O 76.3911 -1.62338 0.807228 0
M  V30 778 C 76.4391 0.548323 3.56407 0
M  V30 779 O 75.5431 -0.429556 4.10157 0
M  V30 780 H 74.8841 0.176886 0.640006 0
M  V30 781 H 77.4141 1.12066 1.71179 0
M  V30 782 H 77.4241 0.426196 4.05768 0
M  V30 783 H 76.0991 1.5606 3.8551 0
M  V30 784 H 74.6761 -0.265836 3.71951 0
M  V30 785 N 76.8612 -1.46375 0.584142 0
M  V30 786 C 78.0912 -2.06461 0.0758195 0
M  V30 787 C 78.4992 -1.43322 -1.23512 0
M  V30 788 O 77.8422 -0.533216 -1.75791 0
M  V30 789 C 77.9042 -3.59131 -0.162773 0
M  V30 790 C 77.5682 -4.4447 1.06279 0
M  V30 791 C 78.5652 -4.80918 1.97519 0
M  V30 792 C 76.2502 -4.85584 1.28504 0
M  V30 793 C 78.2442 -5.57309 3.09331 0
M  V30 794 C 75.9312 -5.61734 2.4062 0
M  V30 795 C 76.9292 -5.9751 3.30863 0
M  V30 796 O 76.6172 -6.72121 4.41032 0
M  V30 797 H 76.3492 -0.673745 0.0551725 0
M  V30 798 H 78.9032 -1.88969 0.804984 0
M  V30 799 H 77.1332 -3.74936 -0.946565 0
M  V30 800 H 78.8222 -4.0114 -0.619782 0
M  V30 801 H 79.5882 -4.49732 1.81565 0
M  V30 802 H 75.4672 -4.57187 0.591702 0
M  V30 803 H 79.0112 -5.85152 3.79793 0
M  V30 804 H 74.9082 -5.92334 2.56537 0
M  V30 805 H 75.6762 -6.90547 4.39417 0
M  V30 806 N 78.3393 -0.321999 -1.54275 0
M  V30 807 C 79.5873 0.280489 -2.00144 0
M  V30 808 C 79.9083 1.52777 -1.21178 0
M  V30 809 O 79.1783 1.9338 -0.313187 0
M  V30 810 H 77.7583 0.106632 -0.73935 0
M  V30 811 H 80.4203 -0.438184 -1.8991 0
M  V30 812 H 79.5163 0.537972 -3.07428 0
M  V30 813 N 79.8174 1.5752 -0.0501392 0
M  V30 814 C 81.0944 1.83996 0.663685 0
M  V30 815 C 81.4744 0.938339 1.89099 0
M  V30 816 O 80.8224 -0.00087759 2.285 0
M  V30 817 C 81.0324 3.33702 1.02196 0
M  V30 818 C 82.3804 4.00691 1.40469 0
M  V30 819 O 83.4044 3.38321 1.11433 0
M  V30 820 O 82.2634 5.10658 1.94654 0
M  V30 821 H 79.3574 0.759385 0.32751 0
M  V30 822 H 81.9034 1.69514 -0.0794238 0
M  V30 823 H 80.6754 3.91015 0.149364 0
M  V30 824 H 80.2984 3.53368 1.82255 0
M  V30 825 N 81.2955 -0.223234 1.56011 0
M  V30 826 C 82.5415 -0.949279 1.79211 0
M  V30 827 C 82.8745 -1.84054 0.619494 0
M  V30 828 O 82.1495 -1.90726 -0.381317 0
M  V30 829 C 82.4325 -1.78965 3.12479 0
M  V30 830 C 82.2855 -0.924997 4.40186 0
M  V30 831 C 83.6045 -2.76774 3.42175 0
M  V30 832 H 80.7235 -0.343676 0.651963 0
M  V30 833 H 83.3655 -0.218253 1.88742 0
M  V30 834 H 81.5155 -2.41291 3.04485 0
M  V30 835 H 83.1875 -0.318615 4.60198 0
M  V30 836 H 81.4305 -0.230344 4.33188 0
M  V30 837 H 82.1015 -1.54735 5.29869 0
M  V30 838 H 84.5775 -2.24584 3.50287 0
M  V30 839 H 83.4535 -3.32678 4.36597 0
M  V30 840 H 83.7145 -3.54429 2.64258 0
M  V30 841 N 82.7736 -1.49793 -0.48987 0
M  V30 842 C 84.0036 -1.6333 -1.26518 0
M  V30 843 C 84.4116 -0.308392 -1.8667 0
M  V30 844 O 83.7546 0.717512 -1.69108 0
M  V30 845 C 83.8166 -2.6522 -2.4269 0
M  V30 846 C 83.4806 -4.09279 -2.03321 0
M  V30 847 C 84.4776 -4.95738 -1.56652 0
M  V30 848 C 82.1626 -4.55082 -2.12616 0
M  V30 849 C 84.1566 -6.26041 -1.19795 0
M  V30 850 C 81.8436 -5.85396 -1.75371 0
M  V30 851 C 82.8416 -6.707 -1.29036 0
M  V30 852 O 82.5296 -7.98584 -0.92299 0
M  V30 853 H 82.2616 -0.552502 -0.389509 0
M  V30 854 H 84.8156 -1.96642 -0.593381 0
M  V30 855 H 83.0456 -2.27112 -3.12981 0
M  V30 856 H 84.7346 -2.68171 -3.04695 0
M  V30 857 H 85.5006 -4.61575 -1.48908 0
M  V30 858 H 81.3796 -3.88844 -2.47631 0
M  V30 859 H 84.9236 -6.92578 -0.835582 0
M  V30 860 H 80.8206 -6.19085 -1.82768 0
M  V30 861 H 81.5886 -8.11692 -1.05349 0
M  V30 862 N 84.2517 0.741722 -1.39055 0
M  V30 863 C 85.4997 1.49818 -1.35643 0
M  V30 864 C 85.8207 1.94938 0.0491642 0
M  V30 865 O 85.0907 1.68505 0.999141 0
M  V30 866 H 83.6707 0.555755 -0.499144 0
M  V30 867 H 86.3327 0.880957 -1.73854 0
M  V30 868 H 85.4287 2.38348 -2.01486 0
M  V30 869 N 85.7298 1.2412 0.971189 0
M  V30 870 C 86.9788 1.07284 1.70801 0
M  V30 871 C 87.2918 -0.388902 1.91695 0
M  V30 872 O 88.4978 -0.677379 2.62914 0
M  V30 873 C 86.9538 1.87145 3.07416 0
M  V30 874 C 86.5618 3.37707 2.94377 0
M  V30 875 C 88.3058 1.78828 3.84995 0
M  V30 876 C 86.2128 4.09925 4.26281 0
M  V30 877 H 85.1428 0.397854 0.64049 0
M  V30 878 H 87.7938 1.4817 1.0825 0
M  V30 879 H 86.1758 1.39071 3.70777 0
M  V30 880 H 87.3498 3.93335 2.4005 0
M  V30 881 H 85.6648 3.46938 2.30267 0
M  V30 882 H 88.2618 2.30089 4.82662 0
M  V30 883 H 88.6048 0.75284 4.09436 0
M  V30 884 H 89.1378 2.24563 3.28354 0
M  V30 885 H 85.8768 5.13813 4.07033 0
M  V30 886 H 85.3968 3.59083 4.80437 0
M  V30 887 H 87.0758 4.1673 4.94919 0
M  V30 888 N 87.2079 -1.17134 1.05439 0
M  V30 889 C 88.4479 -1.89137 0.77502 0
M  V30 890 C 88.8119 -1.79345 -0.685526 0
M  V30 891 O 90.0129 -2.46188 -1.0791 0
M  V30 892 C 88.2839 -3.35003 1.2453 0
M  V30 893 S 89.8429 -4.24952 1.09367 0
M  V30 894 H 86.6609 -0.652949 0.281387 0
M  V30 895 H 89.2629 -1.4145 1.34953 0
M  V30 896 H 87.9669 -3.39666 2.30338 0
M  V30 897 H 87.4979 -3.87736 0.665166 0
M  V30 898 H 89.5129 -4.96196 0.0193397 0
M  V30 899 N 88.686 -0.835752 -1.33615 0
M  V30 900 C 89.914 -0.443344 -2.02094 0
M  V30 901 C 90.329 0.954522 -1.62894 0
M  V30 902 O 89.686 1.61982 -0.840723 0
M  V30 903 C 89.737 -0.550775 -3.5728 0
M  V30 904 O 89.458 -1.89356 -3.95065 0
M  V30 905 C 90.959 -0.154919 -4.43029 0
M  V30 906 H 88.179 -0.176359 -0.647409 0
M  V30 907 H 90.723 -1.12746 -1.70612 0
M  V30 908 H 88.878 0.0853997 -3.87306 0
M  V30 909 H 89.292 -1.87687 -4.89769 0
M  V30 910 H 90.766 -0.281144 -5.51284 0
M  V30 911 H 91.243 0.902863 -4.2982 0
M  V30 912 H 91.849 -0.765404 -4.18356 0
M  V30 913 N 90.1641 1.46063 -0.591896 0
M  V30 914 C 91.1111 2.30399 0.136069 0
M  V30 915 C 92.0811 1.41169 0.875238 0
M  V30 916 O 93.2661 1.70112 0.86409 0
M  V30 917 C 90.4061 3.25804 1.13781 0
M  V30 918 C 89.5191 4.30134 0.401137 0
M  V30 919 C 88.6541 5.12659 1.39121 0
M  V30 920 C 87.6931 6.0873 0.641462 0
M  V30 921 N 86.8301 6.8409 1.58004 0
M  V30 922 H 91.6701 2.92118 -0.589144 0
M  V30 923 H 89.2071 1.43959 -0.302342 0
M  V30 924 H 91.1651 3.79569 1.73156 0
M  V30 925 H 89.7951 2.65872 1.83062 0
M  V30 926 H 88.8471 3.79152 -0.307826 0
M  V30 927 H 90.1591 4.98458 -0.184565 0
M  V30 928 H 89.3131 5.70747 2.05749 0
M  V30 929 H 88.0521 4.44316 2.01084 0
M  V30 930 H 87.0571 5.49786 -0.0385419 0
M  V30 931 H 88.2821 6.79095 0.0270945 0
M  V30 932 H 86.2281 6.18449 2.18761 0
M  V30 933 H 86.1451 7.48709 1.04738 0
M  V30 934 H 87.4131 7.4673 2.23639 0
M  V30 935 N 91.6422 0.330177 1.54103 0
M  V30 936 C 92.5722 -0.525353 2.27513 0
M  V30 937 C 93.5532 -1.11383 1.2856 0
M  V30 938 O 94.7382 -1.13773 1.57383 0
M  V30 939 C 91.8682 -1.6831 3.03791 0
M  V30 940 C 90.8222 -1.2236 4.10137 0
M  V30 941 C 90.1482 -2.46882 4.74293 0
M  V30 942 C 91.4482 -0.333697 5.21233 0
M  V30 943 H 93.1422 0.087013 2.99274 0
M  V30 944 H 90.6882 0.0432893 1.43935 0
M  V30 945 H 92.6412 -2.28795 3.5388 0
M  V30 946 H 91.3652 -2.32216 2.29659 0
M  V30 947 H 90.0242 -0.64165 3.60941 0
M  V30 948 H 89.6722 -3.09165 3.96769 0
M  V30 949 H 89.3722 -2.16825 5.46133 0
M  V30 950 H 90.8962 -3.08117 5.27159 0
M  V30 951 H 92.3102 -0.845013 5.67038 0
M  V30 952 H 90.7072 -0.125612 5.99969 0
M  V30 953 H 91.7772 0.633724 4.80741 0
M  V30 954 N 93.1203 -1.57491 0.0584922 0
M  V30 955 C 94.0673 -2.11958 -0.913376 0
M  V30 956 C 95.0373 -1.02875 -1.30407 0
M  V30 957 O 96.2223 -1.30464 -1.39226 0
M  V30 958 C 93.3623 -2.67497 -2.18035 0
M  V30 959 C 92.4753 -3.90691 -1.84349 0
M  V30 960 C 91.6103 -4.3452 -3.05559 0
M  V30 961 C 90.6493 -5.50395 -2.67827 0
M  V30 962 N 89.7863 -5.89244 -3.81754 0
M  V30 963 H 94.6263 -2.94704 -0.442017 0
M  V30 964 H 92.1633 -1.45643 -0.206545 0
M  V30 965 H 94.1213 -2.978 -2.92183 0
M  V30 966 H 92.7513 -1.87537 -2.62735 0
M  V30 967 H 91.8033 -3.66934 -1.00319 0
M  V30 968 H 93.1153 -4.7489 -1.5258 0
M  V30 969 H 92.2693 -4.66414 -3.87998 0
M  V30 970 H 91.0083 -3.49147 -3.40511 0
M  V30 971 H 90.0133 -5.18165 -1.83806 0
M  V30 972 H 91.2383 -6.3749 -2.34059 0
M  V30 973 H 89.1843 -5.06823 -4.16493 0
M  V30 974 H 89.1013 -6.68151 -3.53708 0
M  V30 975 H 90.3693 -6.25756 -4.64811 0
M  V30 976 N 94.5984 0.214957 -1.56127 0
M  V30 977 C 95.8264 0.955092 -1.83536 0
M  V30 978 C 96.2414 1.77677 -0.638472 0
M  V30 979 O 95.5984 1.78219 0.392968 0
M  V30 980 C 95.6494 1.86734 -3.09536 0
M  V30 981 O 95.3704 1.07887 -4.24608 0
M  V30 982 C 96.8714 2.72082 -3.4998 0
M  V30 983 H 94.0914 0.279611 -0.609966 0
M  V30 984 H 96.6354 0.228197 -2.03223 0
M  V30 985 H 94.7904 2.5481 -2.91806 0
M  V30 986 H 95.2044 1.69872 -4.9623 0
M  V30 987 H 96.6784 3.31782 -4.41163 0
M  V30 988 H 97.1554 3.44806 -2.7204 0
M  V30 989 H 97.7614 2.09409 -3.70173 0
M  V30 990 N 96.0765 1.50051 0.48192 0
M  V30 991 C 97.3015 1.64508 1.26301 0
M  V30 992 C 97.7265 0.323851 1.85291 0
M  V30 993 O 97.0845 -0.710969 1.66778 0
M  V30 994 C 97.1325 2.7305 2.35533 0
M  V30 995 O 96.2365 2.3355 3.39895 0
M  V30 996 H 95.5775 0.549978 0.372048 0
M  V30 997 H 98.1075 1.9636 0.574786 0
M  V30 998 H 98.1175 2.95799 2.8101 0
M  V30 999 H 96.7925 3.68946 1.91967 0
M  V30 1000 H 95.3695 2.21205 3.00204 0
M  V30 1001 N 97.5546 -0.734337 1.39446 0
M  V30 1002 C 98.9656 -1.31264 1.32766 0
M  V30 1003 C 99.3166 -1.96198 -0.00767497 0
M  V30 1004 O 98.4416 -1.96346 -0.909796 0
M  V30 1005 C 99.0366 -2.38682 2.4045 0
M  V30 1006 C 97.5956 -2.92184 2.37288 0
M  V30 1007 C 96.7426 -1.6576 2.22304 0
M  V30 1008 H 99.6936 -0.531799 1.49525 0
M  V30 1009 H 99.7146 -3.19087 2.07276 0
M  V30 1010 H 99.2266 -1.91392 3.37625 0
M  V30 1011 H 97.3276 -3.43752 1.43754 0
M  V30 1012 H 97.4406 -3.45253 3.3217 0
M  V30 1013 H 95.8046 -1.9012 1.69489 0
M  V30 1014 H 96.5876 -1.20521 3.21449 0
M  V30 1015 N 99.0327 -1.24633 -0.964593 0
M  V30 1016 C 99.9807 -1.03917 -2.08096 0
M  V30 1017 C 100.975 0.0268581 -1.69379 0
M  V30 1018 O 102.181 -0.127952 -1.79545 0
M  V30 1019 H 98.5557 -0.319044 -0.680966 0
M  V30 1020 H 100.527 -1.98581 -2.22729 0
M  V30 1021 C 99.2757 -0.663983 -3.41301 0
M  V30 1022 H 98.5987 -1.47605 -3.71555 0
M  V30 1023 H 100.039 -0.558663 -4.20303 0
M  V30 1024 C 98.4977 0.629169 -3.30973 0
M  V30 1025 O 99.0277 1.67404 -3.65156 0
M  V30 1026 N 97.2337 0.611057 -2.84103 0
M  V30 1027 H 96.7807 -0.239593 -2.56483 0
M  V30 1028 H 96.7387 1.47647 -2.77575 0
M  V30 1029 N 100.511 1.16574 -1.06058 0
M  V30 1030 C 101.421 2.2452 -0.680282 0
M  V30 1031 C 102.437 1.71348 0.302604 0
M  V30 1032 O 103.613 2.00822 0.152513 0
M  V30 1033 C 100.678 3.46629 -0.0700315 0
M  V30 1034 C 99.7388 4.14849 -1.10448 0
M  V30 1035 C 98.9718 5.31129 -0.523256 0
M  V30 1036 O 99.1948 5.66514 0.664709 0
M  V30 1037 O 98.1288 5.88526 -1.26179 0
M  V30 1038 H 101.955 2.59355 -1.58015 0
M  V30 1039 H 99.5398 1.24043 -0.832694 0
M  V30 1040 H 101.422 4.20543 0.268667 0
M  V30 1041 H 100.097 3.13573 0.803353 0
M  V30 1042 H 99.0038 3.42916 -1.49532 0
M  V30 1043 H 100.337 4.51954 -1.94931 0
M  V30 1044 N 101.989 0.842826 1.3317 0
M  V30 1045 C 103.237 0.439577 1.97262 0
M  V30 1046 C 103.558 -1.00548 1.67078 0
M  V30 1047 O 102.828 -1.70098 0.971779 0
M  V30 1048 H 101.408 0.159558 0.72976 0
M  V30 1049 H 104.07 1.07665 1.62463 0
M  V30 1050 H 103.166 0.574886 3.0676 0
M  V30 1051 N 103.467 -1.45747 0.599634 0
M  V30 1052 C 104.397 -2.33235 -0.111306 0
M  V30 1053 C 105.378 -1.46359 -0.866781 0
M  V30 1054 O 106.563 -1.75146 -0.838904 0
M  V30 1055 C 103.693 -3.28932 -1.11451 0
M  V30 1056 C 102.647 -4.25381 -0.472772 0
M  V30 1057 C 101.973 -5.1071 -1.58365 0
M  V30 1058 C 103.273 -5.18831 0.600948 0
M  V30 1059 H 104.967 -2.92927 0.61919 0
M  V30 1060 H 102.513 -1.40857 0.299215 0
M  V30 1061 H 104.466 -3.89002 -1.62036 0
M  V30 1062 H 103.19 -2.67381 -1.8755 0
M  V30 1063 H 101.849 -3.66598 0.0121472 0
M  V30 1064 H 101.497 -4.45533 -2.33473 0
M  V30 1065 H 101.197 -5.7604 -1.15982 0
M  V30 1066 H 102.721 -5.73647 -2.09194 0
M  V30 1067 H 104.135 -5.73019 0.179491 0
M  V30 1068 H 102.532 -5.92595 0.946076 0
M  V30 1069 H 103.602 -4.6174 1.48068 0
M  V30 1070 N 104.945 -0.338344 -1.53925 0
M  V30 1071 C 106.17 0.263987 -2.05713 0
M  V30 1072 C 106.595 1.43847 -1.21201 0
M  V30 1073 O 105.953 1.79904 -0.224535 0
M  V30 1074 C 106.001 0.662 -3.54471 0
M  V30 1075 O 105.105 1.76265 -3.72833 0
M  V30 1076 H 104.446 0.0448722 -0.662482 0
M  V30 1077 H 106.976 -0.491048 -1.9862 0
M  V30 1078 H 106.986 0.940594 -3.9701 0
M  V30 1079 H 105.661 -0.196937 -4.15433 0
M  V30 1080 H 104.238 1.48173 -3.42198 0
M  V30 1081 N 106.423 1.57458 -0.0668435 0
M  V30 1082 C 107.671 1.92919 0.602214 0
M  V30 1083 C 107.992 0.947215 1.70449 0
M  V30 1084 O 107.262 -0.00544117 1.95899 0
M  V30 1085 H 105.842 0.71217 0.22544 0
M  V30 1086 H 108.504 1.94508 -0.123535 0
M  V30 1087 H 107.6 2.94589 1.03073 0
M  V30 1088 N 107.901 -0.206675 1.56239 0
M  V30 1089 C 108.849 -1.27571 1.94495 0
M  V30 1090 C 109.843 -1.47737 0.828862 0
M  V30 1091 O 111.049 -1.48735 1.0138 0
M  V30 1092 H 107.424 -0.428029 0.6183 0
M  V30 1093 H 109.395 -0.925961 2.8367 0
M  V30 1094 C 108.144 -2.61568 2.29079 0
M  V30 1095 H 107.467 -2.46863 3.14482 0
M  V30 1096 H 108.907 -3.35144 2.5972 0
M  V30 1097 C 107.366 -3.17695 1.12123 0
M  V30 1098 O 107.896 -3.99801 0.390153 0
M  V30 1099 N 106.102 -2.76276 0.901097 0
M  V30 1100 H 105.649 -2.09613 1.49733 0
M  V30 1101 H 105.607 -3.1417 0.120319 0
M  V30 1102 N 109.379 -1.50304 -0.473955 0
M  V30 1103 C 110.79 -1.54042 -1.0549 0
M  V30 1104 C 111.141 -0.342248 -1.93192 0
M  V30 1105 O 110.266 0.545157 -2.09421 0
M  V30 1106 C 110.861 -2.79152 -1.91989 0
M  V30 1107 C 109.42 -2.8558 -2.45196 0
M  V30 1108 C 108.567 -2.48295 -1.2347 0
M  V30 1109 H 111.518 -1.5661 -0.256693 0
M  V30 1110 H 111.539 -2.60845 -2.7702 0
M  V30 1111 H 111.051 -3.66339 -1.28131 0
M  V30 1112 H 109.152 -2.02738 -3.12615 0
M  V30 1113 H 109.265 -3.88403 -2.80499 0
M  V30 1114 H 107.629 -2.00669 -1.56856 0
M  V30 1115 H 108.412 -3.37787 -0.612789 0
M  V30 1116 N 110.857 0.726932 -1.39834 0
M  V30 1117 C 111.82 1.82269 -1.38962 0
M  V30 1118 C 112.82 1.58248 -0.285334 0
M  V30 1119 O 114.01 1.65499 -0.54366 0
M  V30 1120 C 111.142 3.20186 -1.17019 0
M  V30 1121 H 112.335 1.84443 -2.36476 0
M  V30 1122 H 109.888 0.931416 -1.25516 0
M  V30 1123 H 110.623 3.23669 -0.202204 0
M  V30 1124 H 110.408 3.3902 -1.96998 0
M  V30 1125 H 111.898 4.00235 -1.1917 0
M  V30 1126 N 112.336 1.25143 0.95797 0
M  V30 1127 C 113.613 1.00472 1.67823 0
M  V30 1128 C 113.993 -0.470056 2.058 0
M  V30 1129 O 113.341 -1.44663 1.76875 0
M  V30 1130 C 113.551 1.9372 2.90299 0
M  V30 1131 C 114.899 2.21371 3.62326 0
M  V30 1132 O 115.923 1.91451 3.00375 0
M  V30 1133 O 114.782 2.72231 4.7387 0
M  V30 1134 H 111.876 0.380752 0.734137 0
M  V30 1135 H 114.422 1.36283 1.01119 0
M  V30 1136 H 113.194 2.93316 2.59001 0
M  V30 1137 H 112.817 1.58286 3.64735 0
M  V30 1138 N 113.814 -1.1601 1.06675 0
M  V30 1139 C 114.744 -2.22688 0.702307 0
M  V30 1140 C 115.725 -1.67306 -0.307032 0
M  V30 1141 O 116.91 -1.93352 -0.181305 0
M  V30 1142 C 114.04 -3.47178 0.092038 0
M  V30 1143 C 112.994 -4.15477 1.02777 0
M  V30 1144 C 112.32 -5.33963 0.28061 0
M  V30 1145 C 113.62 -4.66019 2.35846 0
M  V30 1146 H 115.314 -2.53429 1.59419 0
M  V30 1147 H 112.86 -1.21813 0.767961 0
M  V30 1148 H 114.813 -4.21037 -0.174814 0
M  V30 1149 H 113.537 -3.15749 -0.834877 0
M  V30 1150 H 112.196 -3.43549 1.27944 0
M  V30 1151 H 111.844 -4.98788 -0.649545 0
M  V30 1152 H 111.544 -5.806 0.904258 0
M  V30 1153 H 113.068 -6.10596 0.021396 0
M  V30 1154 H 114.482 -5.3144 2.15045 0
M  V30 1155 H 112.879 -5.23293 2.93743 0
M  V30 1156 H 113.949 -3.82023 2.98641 0
M  V30 1157 N 115.292 -0.849877 -1.32721 0
M  V30 1158 C 116.202 -0.293791 -2.32753 0
M  V30 1159 C 117.218 0.585906 -1.63839 0
M  V30 1160 O 118.394 0.487413 -1.95413 0
M  V30 1161 C 115.459 0.512752 -3.42887 0
M  V30 1162 C 114.52 -0.39252 -4.27502 0
M  V30 1163 C 113.753 0.375625 -5.32377 0
M  V30 1164 O 113.976 1.60613 -5.4732 0
M  V30 1165 O 112.91 -0.256094 -6.01355 0
M  V30 1166 H 116.736 -1.12242 -2.82197 0
M  V30 1167 H 114.321 -0.612685 -1.36259 0
M  V30 1168 H 116.203 0.970704 -4.10067 0
M  V30 1169 H 114.878 1.31826 -2.95641 0
M  V30 1170 H 113.785 -0.898547 -3.63149 0
M  V30 1171 H 115.118 -1.16309 -4.7826 0
M  V30 1172 N 116.77 1.45427 -0.607355 0
M  V30 1173 C 118.186 1.57283 -0.270985 0
M  V30 1174 C 118.386 1.59875 1.22647 0
M  V30 1175 O 117.442 1.52893 2.00948 0
M  V30 1176 C 118.755 2.85566 -0.941952 0
M  V30 1177 C 120.303 2.9924 -0.917849 0
M  V30 1178 C 120.778 4.30293 -1.56882 0
M  V30 1179 N 122.269 4.37051 -1.5343 0
M  V30 1180 C 123.004 5.37123 -2.00715 0
M  V30 1181 N 122.5 6.43734 -2.56084 0
M  V30 1182 N 124.293 5.28479 -1.91484 0
M  V30 1183 H 116.444 1.41988 -1.57966 0
M  V30 1184 H 118.707 0.67885 -0.661715 0
M  V30 1185 H 118.413 2.8955 -1.99633 0
M  V30 1186 H 118.287 3.74322 -0.465096 0
M  V30 1187 H 120.674 2.94822 0.127984 0
M  V30 1188 H 120.755 2.11895 -1.43297 0
M  V30 1189 H 120.399 4.35469 -2.61398 0
M  V30 1190 H 120.329 5.16454 -1.02873 0
M  V30 1191 H 122.82 3.60615 -1.12982 0
M  V30 1192 H 123.133 7.16341 -2.89958 0
M  V30 1193 H 121.478 6.44485 -2.60122 0
M  V30 1194 H 124.669 4.44098 -1.47967 0
M  V30 1195 H 124.842 6.0632 -2.28648 0
M  V30 1196 N 118.248 0.346503 1.53744 0
M  V30 1197 C 119.664 -0.00530975 1.59599 0
M  V30 1198 C 119.864 -1.48465 1.36236 0
M  V30 1199 O 118.92 -2.24376 1.15808 0
M  V30 1200 C 120.233 0.433516 2.97559 0
M  V30 1201 C 121.781 0.386111 3.10609 0
M  V30 1202 C 122.256 0.800451 4.50951 0
M  V30 1203 N 123.747 0.754753 4.5701 0
M  V30 1204 C 124.482 1.04727 5.63755 0
M  V30 1205 N 123.978 1.4081 6.7834 0
M  V30 1206 N 125.771 0.971316 5.53644 0
M  V30 1207 H 117.922 1.31009 1.67184 0
M  V30 1208 H 120.185 0.534242 0.783128 0
M  V30 1209 H 119.891 1.46509 3.19731 0
M  V30 1210 H 119.765 -0.189753 3.76722 0
M  V30 1211 H 122.152 -0.636295 2.88158 0
M  V30 1212 H 122.233 1.04462 2.33498 0
M  V30 1213 H 121.877 1.82088 4.74137 0
M  V30 1214 H 121.807 0.119386 5.26465 0
M  V30 1215 H 124.298 0.488662 3.74727 0
M  V30 1216 H 124.611 1.61607 7.55714 0
M  V30 1217 H 122.956 1.44657 6.79779 0
M  V30 1218 H 126.147 0.688748 4.63005 0
M  V30 1219 H 126.32 1.20263 6.36742 0
M  V30 1220 N 119.726 -1.57421 0.075193 0
M  V30 1221 C 120.636 -2.1642 -0.905511 0
M  V30 1222 C 121.652 -1.12828 -1.32461 0
M  V30 1223 O 122.828 -1.45109 -1.39661 0
M  V30 1224 C 119.893 -2.71693 -2.15369 0
M  V30 1225 C 118.954 -3.90171 -1.79068 0
M  V30 1226 C 118.187 -4.42798 -2.97936 0
M  V30 1227 O 118.41 -3.94416 -4.12058 0
M  V30 1228 O 117.344 -5.34085 -2.77555 0
M  V30 1229 H 121.17 -3.00588 -0.433626 0
M  V30 1230 H 118.755 -1.48664 -0.148067 0
M  V30 1231 H 120.637 -3.07104 -2.88557 0
M  V30 1232 H 119.312 -1.90582 -2.61649 0
M  V30 1233 H 118.219 -3.59606 -1.03122 0
M  V30 1234 H 119.552 -4.72584 -1.37569 0
M  V30 1235 N 121.204 0.198386 -1.56346 0
M  V30 1236 C 122.167 1.22952 -1.93431 0
M  V30 1237 C 123.167 1.38611 -0.815092 0
M  V30 1238 O 124.357 1.36479 -1.08255 0
M  V30 1239 C 121.489 2.59946 -2.20546 0
M  V30 1240 H 122.682 0.912626 -2.85677 0
M  V30 1241 H 120.235 0.43977 -1.49986 0
M  V30 1242 H 120.97 2.96696 -1.30927 0
M  V30 1243 H 120.755 2.49953 -3.02102 0
M  V30 1244 H 122.245 3.3431 -2.50253 0
M  V30 1245 N 122.682 1.50554 0.465978 0
M  V30 1246 C 123.928 1.62038 1.21949 0
M  V30 1247 C 124.261 0.322116 1.9151 0
M  V30 1248 O 123.536 -0.676723 1.82348 0
M  V30 1249 C 123.819 2.80421 2.25912 0
M  V30 1250 C 123.672 4.20144 1.60622 0
M  V30 1251 C 124.991 2.94354 3.27176 0
M  V30 1252 H 122.11 0.589752 0.441998 0
M  V30 1253 H 124.752 1.82956 0.51257 0
M  V30 1254 H 122.902 2.62717 2.86203 0
M  V30 1255 H 124.574 4.49449 1.03889 0
M  V30 1256 H 122.817 4.24165 0.909211 0
M  V30 1257 H 123.488 4.98914 2.36196 0
M  V30 1258 H 125.964 3.10578 2.76913 0
M  V30 1259 H 124.84 3.788 3.97242 0
M  V30 1260 H 125.101 2.05186 3.916 0
M  V30 1261 N 124.16 -0.719506 1.40217 0
M  V30 1262 C 125.407 -1.47933 1.38283 0
M  V30 1263 C 125.735 -1.94493 -0.0161536 0
M  V30 1264 O 124.99 -1.68224 -0.999956 0
M  V30 1265 C 125.289 -2.72271 2.31524 0
M  V30 1266 C 124.955 -2.44496 3.78857 0
M  V30 1267 C 123.617 -2.36631 4.18998 0
M  V30 1268 C 125.969 -2.21104 4.71977 0
M  V30 1269 C 123.297 -2.03437 5.503 0
M  V30 1270 C 125.649 -1.89423 6.03574 0
M  V30 1271 C 124.313 -1.80038 6.42762 0
M  V30 1272 H 123.583 -0.541325 0.506012 0
M  V30 1273 H 126.23 -0.824502 1.72842 0
M  V30 1274 H 124.535 -3.42572 1.90137 0
M  V30 1275 H 126.232 -3.30348 2.27313 0
M  V30 1276 H 122.822 -2.51503 3.47051 0
M  V30 1277 H 127.006 -2.26139 4.41786 0
M  V30 1278 H 122.262 -1.94705 5.79569 0
M  V30 1279 H 126.436 -1.70336 6.75247 0
M  V30 1280 H 124.063 -1.54083 7.44421 0
M  V30 1281 N 125.638 -1.25649 -0.95132 0
M  V30 1282 C 126.886 -1.10375 -1.69298 0
M  V30 1283 C 127.207 0.355339 -1.91735 0
M  V30 1284 O 126.477 1.25188 -1.50681 0
M  V30 1285 H 125.057 -0.405461 -0.627384 0
M  V30 1286 H 127.719 -1.57823 -1.14358 0
M  V30 1287 H 126.815 -1.61465 -2.67087 0
M  V30 1288 N 127.117 1.15442 -1.07289 0
M  V30 1289 C 128.064 2.20161 -0.692653 0
M  V30 1290 C 129.034 1.63073 0.31564 0
M  V30 1291 O 130.219 1.89725 0.202235 0
M  V30 1292 C 127.359 3.44967 -0.0959509 0
M  V30 1293 C 126.472 4.16256 -1.15564 0
M  V30 1294 C 125.607 5.28609 -0.524011 0
M  V30 1295 C 124.646 5.91715 -1.56653 0
M  V30 1296 N 123.783 6.9554 -0.957531 0
M  V30 1297 H 128.623 2.52037 -1.59002 0
M  V30 1298 H 126.16 1.2378 -0.794798 0
M  V30 1299 H 128.118 4.16341 0.267628 0
M  V30 1300 H 126.748 3.1361 0.764772 0
M  V30 1301 H 125.8 3.43385 -1.6368 0
M  V30 1302 H 127.112 4.59268 -1.94613 0
M  V30 1303 H 126.266 6.06604 -0.108032 0
M  V30 1304 H 125.005 4.86787 0.29825 0
M  V30 1305 H 124.01 5.12433 -1.9923 0
M  V30 1306 H 125.235 6.35614 -2.39107 0
M  V30 1307 H 123.181 6.55814 -0.156162 0
M  V30 1308 H 123.098 7.36977 -1.68526 0
M  V30 1309 H 124.366 7.77435 -0.567032 0
M  V30 1310 N 128.595 0.856903 1.32268 0
M  V30 1311 C 129.543 0.291987 2.3076 0
M  V30 1312 C 130.537 -0.585857 1.58947 0
M  V30 1313 O 131.743 -0.47341 1.73663 0
M  V30 1314 H 128.118 0.075721 0.748178 0
M  V30 1315 H 130.089 1.13687 2.75895 0
M  V30 1316 C 128.838 -0.502869 3.44044 0
M  V30 1317 H 128.161 0.163328 3.99466 0
M  V30 1318 H 129.601 -0.863691 4.1511 0
M  V30 1319 C 128.06 -1.68898 2.91505 0
M  V30 1320 O 128.59 -2.78811 2.89184 0
M  V30 1321 N 126.796 -1.51679 2.47875 0
M  V30 1322 H 126.343 -0.622666 2.49961 0
M  V30 1323 H 126.301 -2.31184 2.13076 0
M  V30 1324 N 130.073 -1.45103 0.615059 0
M  V30 1325 C 131.32 -2.02183 0.113179 0
M  V30 1326 C 131.648 -1.48249 -1.25906 0
M  V30 1327 O 130.903 -0.650265 -1.84581 0
M  V30 1328 C 131.202 -3.57386 0.0318797 0
M  V30 1329 C 130.868 -4.30505 1.34077 0
M  V30 1330 C 129.53 -4.50197 1.69929 0
M  V30 1331 C 131.882 -4.72238 2.20546 0
M  V30 1332 C 129.21 -5.08881 2.91988 0
M  V30 1333 C 131.562 -5.32272 3.41861 0
M  V30 1334 C 130.226 -5.50187 3.77956 0
M  V30 1335 H 129.496 -0.739842 0.0414151 0
M  V30 1336 H 132.143 -1.74073 0.798168 0
M  V30 1337 H 130.448 -3.84817 -0.736409 0
M  V30 1338 H 132.145 -3.99264 -0.372712 0
M  V30 1339 H 128.735 -4.15496 1.05173 0
M  V30 1340 H 132.919 -4.56751 1.94146 0
M  V30 1341 H 128.175 -5.20939 3.2005 0
M  V30 1342 H 132.349 -5.63563 4.09109 0
M  V30 1343 H 129.976 -5.95427 4.72622 0
M  V30 1344 N 131.551 -0.354651 -1.53558 0
M  V30 1345 C 132.8 0.239504 -2.00273 0
M  V30 1346 C 133.113 1.50759 -1.24623 0
M  V30 1347 O 134.319 2.17968 -1.61871 0
M  V30 1348 C 132.775 0.477341 -3.5672 0
M  V30 1349 C 132.383 -0.775488 -4.41237 0
M  V30 1350 C 134.127 1.02975 -4.11821 0
M  V30 1351 C 132.034 -0.507838 -5.89216 0
M  V30 1352 H 130.964 0.0932743 -0.748208 0
M  V30 1353 H 133.615 -0.471701 -1.77334 0
M  V30 1354 H 131.997 1.24953 -3.7577 0
M  V30 1355 H 133.171 -1.54963 -4.33962 0
M  V30 1356 H 131.486 -1.25033 -3.97185 0
M  V30 1357 H 134.083 1.24513 -5.2 0
M  V30 1358 H 134.426 1.98862 -3.65731 0
M  V30 1359 H 134.959 0.317994 -3.96527 0
M  V30 1360 H 131.698 -1.43674 -6.39561 0
M  V30 1361 H 131.218 0.228011 -5.99366 0
M  V30 1362 H 132.897 -0.129238 -6.46871 0
M  V30 1363 N 133.029 1.57378 -0.0835403 0
M  V30 1364 C 134.44 1.81261 0.447358 0
M  V30 1365 C 134.791 0.998331 1.68902 0
M  V30 1366 O 133.916 0.224282 2.15235 0
M  V30 1367 C 134.511 3.28767 0.818386 0
M  V30 1368 C 133.07 3.53455 1.29409 0
M  V30 1369 C 132.217 2.75831 0.285024 0
M  V30 1370 H 135.168 1.5566 -0.309115 0
M  V30 1371 H 135.189 3.41459 1.67887 0
M  V30 1372 H 134.701 3.88006 -0.0855019 0
M  V30 1373 H 132.802 2.99534 2.21608 0
M  V30 1374 H 132.915 4.62128 1.2639 0
M  V30 1375 H 131.279 2.42947 0.764767 0
M  V30 1376 H 132.062 3.37813 -0.611341 0
M  V30 1377 N 134.507 -0.190092 1.56449 0
M  V30 1378 C 135.918 -0.754312 1.70784 0
M  V30 1379 C 136.269 -1.83631 0.690951 0
M  V30 1380 O 135.394 -2.15868 -0.151604 0
M  V30 1381 C 135.989 -1.37503 3.09642 0
M  V30 1382 C 134.548 -1.88628 3.25725 0
M  V30 1383 C 133.695 -0.758098 2.66736 0
M  V30 1384 H 136.646 0.0350524 1.58661 0
M  V30 1385 H 136.667 -2.2445 3.0725 0
M  V30 1386 H 136.179 -0.587302 3.83631 0
M  V30 1387 H 134.28 -2.70103 2.56661 0
M  V30 1388 H 134.393 -2.04462 4.3328 0
M  V30 1389 H 132.757 -1.17369 2.26046 0
M  V30 1390 H 133.54 0.0174705 3.43296 0
M  V30 1391 N 135.985 -1.50799 -0.457987 0
M  V30 1392 C 136.932 -1.70617 -1.5543 0
M  V30 1393 C 137.902 -0.547562 -1.56815 0
M  V30 1394 O 139.087 -0.779647 -1.74144 0
M  V30 1395 C 136.227 -1.81831 -2.93311 0
M  V30 1396 C 135.34 -3.09278 -3.01615 0
M  V30 1397 C 134.475 -3.11209 -4.30491 0
M  V30 1398 C 133.514 -4.33055 -4.32585 0
M  V30 1399 N 132.651 -4.32652 -5.52952 0
M  V30 1400 H 137.491 -2.64207 -1.37836 0
M  V30 1401 H 135.028 -1.30959 -0.669937 0
M  V30 1402 H 136.986 -1.86314 -3.73287 0
M  V30 1403 H 135.616 -0.916685 -3.0951 0
M  V30 1404 H 134.668 -3.14203 -2.1443 0
M  V30 1405 H 135.98 -3.99233 -2.99022 0
M  V30 1406 H 135.134 -3.14494 -5.18824 0
M  V30 1407 H 133.873 -2.19106 -4.35711 0
M  V30 1408 H 132.878 -4.29969 -3.42647 0
M  V30 1409 H 134.103 -5.264 -4.29046 0
M  V30 1410 H 132.049 -3.43409 -5.58933 0
M  V30 1411 H 131.966 -5.16392 -5.52155 0
M  V30 1412 H 133.234 -4.40101 -6.43375 0
M  V30 1413 N 137.463 0.71206 -1.40597 0
M  V30 1414 C 138.41 1.82613 -1.41142 0
M  V30 1415 C 139.38 1.63925 -0.267903 0
M  V30 1416 O 140.565 1.85009 -0.466495 0
M  V30 1417 C 137.705 3.20354 -1.28324 0
M  V30 1418 C 136.818 3.50589 -2.52411 0
M  V30 1419 C 135.953 4.77855 -2.32009 0
M  V30 1420 C 134.992 5.01005 -3.51654 0
M  V30 1421 N 134.129 6.19487 -3.30425 0
M  V30 1422 H 138.969 1.81482 -2.36365 0
M  V30 1423 H 136.506 0.886475 -1.17388 0
M  V30 1424 H 138.464 3.99899 -1.18899 0
M  V30 1425 H 137.094 3.20705 -0.367189 0
M  V30 1426 H 136.146 2.65573 -2.72351 0
M  V30 1427 H 137.458 3.63604 -3.41458 0
M  V30 1428 H 136.612 5.65424 -2.19956 0
M  V30 1429 H 135.351 4.67056 -1.40392 0
M  V30 1430 H 134.356 4.1189 -3.64179 0
M  V30 1431 H 135.581 5.13674 -4.44202 0
M  V30 1432 H 133.527 6.09932 -2.41494 0
M  V30 1433 H 133.444 6.33194 -4.13039 0
M  V30 1434 H 134.712 7.09834 -3.22113 0
M  V30 1435 N 138.941 1.26152 0.944643 0
M  V30 1436 C 140.352 1.10454 1.50522 0
M  V30 1437 C 140.703 -0.31635 1.93633 0
M  V30 1438 O 139.828 -1.20746 1.79581 0
M  V30 1439 C 140.423 1.99891 2.73549 0
M  V30 1440 C 138.982 1.88348 3.25886 0
M  V30 1441 C 138.129 1.93447 1.9868 0
M  V30 1442 H 141.08 1.39292 0.760489 0
M  V30 1443 H 141.101 1.54477 3.47732 0
M  V30 1444 H 140.613 3.03297 2.42141 0
M  V30 1445 H 138.714 0.878636 3.62092 0
M  V30 1446 H 138.827 2.73696 3.93227 0
M  V30 1447 H 137.191 1.37456 2.14425 0
M  V30 1448 H 137.974 2.98476 1.69607 0
M  V30 1449 N 140.419 -1.14872 1.07899 0
M  V30 1450 C 141.366 -2.19791 0.704319 0
M  V30 1451 C 142.336 -1.63238 -0.306987 0
M  V30 1452 O 143.521 -1.8983 -0.192171 0
M  V30 1453 C 140.661 -3.44911 0.114244 0
M  V30 1454 C 139.774 -4.15637 1.1777 0
M  V30 1455 C 138.909 -5.28324 0.552037 0
M  V30 1456 C 137.948 -5.90875 1.59789 0
M  V30 1457 N 137.085 -6.95022 0.994404 0
M  V30 1458 H 141.925 -2.5119 1.60336 0
M  V30 1459 H 139.462 -1.23356 0.801352 0
M  V30 1460 H 141.42 -4.16477 -0.245544 0
M  V30 1461 H 140.05 -3.14011 -0.74813 0
M  V30 1462 H 139.102 -3.42512 1.65499 0
M  V30 1463 H 140.414 -4.5823 1.97046 0
M  V30 1464 H 139.568 -6.06538 0.1402 0
M  V30 1465 H 138.307 -4.86939 -0.272431 0
M  V30 1466 H 137.312 -5.11369 2.01945 0
M  V30 1467 H 138.537 -6.34337 2.42474 0
M  V30 1468 H 136.483 -6.55722 0.190939 0
M  V30 1469 H 136.4 -7.36073 1.72432 0
M  V30 1470 H 137.668 -7.77123 0.608253 0
M  V30 1471 N 141.898 -0.863906 -1.31812 0
M  V30 1472 C 143.126 -0.486111 -2.01108 0
M  V30 1473 C 143.541 0.919755 -1.64882 0
M  V30 1474 O 142.898 1.60162 -0.874893 0
M  V30 1475 C 142.949 -0.626435 -3.56031 0
M  V30 1476 O 142.67 -1.97693 -3.90959 0
M  V30 1477 C 144.171 -0.248857 -4.42601 0
M  V30 1478 H 141.391 -0.190052 -0.643523 0
M  V30 1479 H 143.935 -1.1634 -1.68182 0
M  V30 1480 H 142.09 0.00322717 -3.874 0
M  V30 1481 H 142.504 -1.98034 -4.85678 0
M  V30 1482 H 143.978 -0.398016 -5.50563 0
M  V30 1483 H 144.455 0.811489 -4.31638 0
M  V30 1484 H 145.061 -0.853971 -4.16638 0
M  V30 1485 N 143.376 1.44774 -0.622745 0
M  V30 1486 C 144.623 2.02121 -0.1239 0
M  V30 1487 C 144.951 1.48915 1.25118 0
M  V30 1488 O 144.206 0.660045 1.84233 0
M  V30 1489 C 144.505 3.57364 -0.0508323 0
M  V30 1490 C 144.171 4.29787 -1.36358 0
M  V30 1491 C 142.833 4.4929 -1.72314 0
M  V30 1492 C 145.185 4.71062 -2.23048 0
M  V30 1493 C 142.513 5.07325 -2.94682 0
M  V30 1494 C 144.865 5.30452 -3.44679 0
M  V30 1495 C 143.529 5.48175 -3.80868 0
M  V30 1496 H 142.799 0.739612 -0.0453381 0
M  V30 1497 H 145.446 1.73648 -0.807389 0
M  V30 1498 H 143.751 3.85202 0.715991 0
M  V30 1499 H 145.448 3.99456 0.351533 0
M  V30 1500 H 142.038 4.14932 -1.07375 0
M  V30 1501 H 146.222 4.55715 -1.96565 0
M  V30 1502 H 141.478 5.19235 -3.22809 0
M  V30 1503 H 145.652 5.61385 -4.12092 0
M  V30 1504 H 143.279 5.92912 -4.75773 0
M  V30 1505 N 144.854 0.36279 1.53368 0
M  V30 1506 C 145.784 -0.476976 2.28576 0
M  V30 1507 C 146.765 -1.08631 1.30894 0
M  V30 1508 O 147.95 -1.10409 1.59761 0
M  V30 1509 C 145.08 -1.61828 3.07293 0
M  V30 1510 C 144.034 -1.13633 4.1264 0
M  V30 1511 C 143.36 -2.36766 4.79423 0
M  V30 1512 C 144.66 -0.223061 5.21823 0
M  V30 1513 H 146.354 0.150474 2.99022 0
M  V30 1514 H 143.9 0.0738103 1.43811 0
M  V30 1515 H 145.853 -2.21237 3.58653 0
M  V30 1516 H 144.577 -2.27292 2.34533 0
M  V30 1517 H 143.236 -0.564945 3.62221 0
M  V30 1518 H 142.884 -3.0068 4.03238 0
M  V30 1519 H 142.584 -2.05192 5.50609 0
M  V30 1520 H 144.108 -2.96865 5.33576 0
M  V30 1521 H 145.522 -0.724545 5.68703 0
M  V30 1522 H 143.919 0.001678 6.001 0
M  V30 1523 H 144.989 0.735553 4.79289 0
M  V30 1524 N 146.332 -1.57332 0.0918853 0
M  V30 1525 C 147.264 -2.10869 -0.898168 0
M  V30 1526 C 148.277 -1.04521 -1.24817 0
M  V30 1527 O 149.466 -1.31977 -1.20184 0
M  V30 1528 C 146.566 -2.57083 -2.2082 0
M  V30 1529 C 145.739 -3.87229 -2.03402 0
M  V30 1530 C 144.798 -4.19324 -3.17889 0
M  V30 1531 O 143.824 -4.88598 -2.91994 0
M  V30 1532 N 145.026 -3.74471 -4.43567 0
M  V30 1533 H 147.791 -2.96439 -0.440943 0
M  V30 1534 H 145.352 -1.61631 -0.0933064 0
M  V30 1535 H 147.344 -2.75602 -2.96354 0
M  V30 1536 H 145.914 -1.76541 -2.57977 0
M  V30 1537 H 145.134 -3.7789 -1.12218 0
M  V30 1538 H 146.422 -4.72379 -1.89038 0
M  V30 1539 H 145.82 -3.18546 -4.67488 0
M  V30 1540 H 144.377 -3.98151 -5.16061 0
M  V30 1541 N 147.81 0.181792 -1.56548 0
M  V30 1542 C 148.74 1.22765 -1.98623 0
M  V30 1543 C 149.721 1.46747 -0.860189 0
M  V30 1544 O 150.906 1.58259 -1.12551 0
M  V30 1545 C 148.036 2.56894 -2.33715 0
M  V30 1546 C 146.99 2.475 -3.49182 0
M  V30 1547 C 146.316 3.86023 -3.69986 0
M  V30 1548 C 147.616 1.98866 -4.82959 0
M  V30 1549 H 149.31 0.877942 -2.86239 0
M  V30 1550 H 146.856 0.42088 -1.37712 0
M  V30 1551 H 148.809 3.30253 -2.61746 0
M  V30 1552 H 147.533 2.93632 -1.42997 0
M  V30 1553 H 146.192 1.76596 -3.21262 0
M  V30 1554 H 145.84 4.20136 -2.76576 0
M  V30 1555 H 145.54 3.80609 -4.47672 0
M  V30 1556 H 147.064 4.60984 -4.00407 0
M  V30 1557 H 148.478 2.61992 -5.09934 0
M  V30 1558 H 146.875 2.04424 -5.64208 0
M  V30 1559 H 147.945 0.942465 -4.75653 0
M  V30 1560 N 149.288 1.51039 0.449983 0
M  V30 1561 C 150.534 1.63322 1.20223 0
M  V30 1562 C 150.867 0.34241 1.91158 0
M  V30 1563 O 150.142 -0.657344 1.83055 0
M  V30 1564 C 150.425 2.82801 2.22925 0
M  V30 1565 C 150.278 4.21823 1.56157 0
M  V30 1566 C 151.597 2.97807 3.24035 0
M  V30 1567 H 148.716 0.594407 0.435718 0
M  V30 1568 H 151.358 1.83489 0.493136 0
M  V30 1569 H 149.508 2.65738 2.834 0
M  V30 1570 H 151.18 4.50526 0.991162 0
M  V30 1571 H 149.423 4.25105 0.864172 0
M  V30 1572 H 150.094 5.01391 2.30891 0
M  V30 1573 H 152.57 3.13497 2.73603 0
M  V30 1574 H 151.446 3.82992 3.93202 0
M  V30 1575 H 151.707 2.09328 3.89402 0
M  V30 1576 N 150.766 -0.704594 1.40972 0
M  V30 1577 C 152.012 -1.46546 1.41053 0
M  V30 1578 C 152.367 -1.92393 0.0159714 0
M  V30 1579 O 151.66 -1.66017 -0.956506 0
M  V30 1580 C 151.854 -2.698 2.34399 0
M  V30 1581 C 151.683 -2.36008 3.82793 0
M  V30 1582 C 150.453 -2.26812 4.51536 0
M  V30 1583 C 152.651 -1.99565 4.74003 0
M  V30 1584 N 150.633 -1.8581 5.85105 0
M  V30 1585 C 152.004 -1.69251 5.96451 0
M  V30 1586 C 154.059 -1.86296 4.61734 0
M  V30 1587 C 152.762 -1.27003 7.07999 0
M  V30 1588 C 154.788 -1.45452 5.73234 0
M  V30 1589 C 154.15 -1.16043 6.94776 0
M  V30 1590 H 150.249 -0.533896 0.571383 0
M  V30 1591 H 152.833 -0.816061 1.76773 0
M  V30 1592 H 151.004 -3.32473 2.00789 0
M  V30 1593 H 152.736 -3.36214 2.25261 0
M  V30 1594 H 149.491 -2.44913 4.05357 0
M  V30 1595 H 149.915 -1.67817 6.55871 0
M  V30 1596 H 154.557 -2.0769 3.68273 0
M  V30 1597 H 152.275 -1.04353 8.01334 0
M  V30 1598 H 155.861 -1.35748 5.65742 0
M  V30 1599 H 154.741 -0.84915 7.79589 0
M  V30 1600 N 152.244 -1.26651 -0.937939 0
M  V30 1601 C 153.154 -1.10276 -2.07066 0
M  V30 1602 C 154.17 -0.0354197 -1.73964 0
M  V30 1603 O 155.346 -0.239816 -1.99967 0
M  V30 1604 C 152.411 -0.740887 -3.38691 0
M  V30 1605 C 151.472 -1.88799 -3.85556 0
M  V30 1606 C 150.705 -1.54329 -5.10899 0
M  V30 1607 O 150.928 -0.446494 -5.6865 0
M  V30 1608 O 149.862 -2.37911 -5.52885 0
M  V30 1609 H 153.688 -2.05309 -2.23789 0
M  V30 1610 H 151.273 -1.05743 -1.0554 0
M  V30 1611 H 153.155 -0.55195 -4.1777 0
M  V30 1612 H 151.83 0.180022 -3.23199 0
M  V30 1613 H 150.737 -2.13191 -3.07409 0
M  V30 1614 H 152.07 -2.78874 -4.05574 0
M  V30 1615 N 153.722 1.14298 -1.08507 0
M  V30 1616 C 154.685 2.17607 -0.719711 0
M  V30 1617 C 155.685 1.58907 0.245997 0
M  V30 1618 O 156.875 1.74181 0.0254081 0
M  V30 1619 C 154.007 3.40842 -0.0627695 0
M  V30 1620 H 155.2 2.51443 -1.63452 0
M  V30 1621 H 152.753 1.28963 -0.88307 0
M  V30 1622 H 153.488 3.12587 0.863716 0
M  V30 1623 H 153.273 3.84713 -0.757504 0
M  V30 1624 H 154.763 4.17221 0.177786 0
M  V30 1625 N 155.201 0.870884 1.31352 0
M  V30 1626 C 156.131 0.343096 2.30966 0
M  V30 1627 C 157.112 -0.566507 1.60389 0
M  V30 1628 O 158.297 -0.483336 1.88089 0
M  V30 1629 C 155.427 -0.455487 3.443 0
M  V30 1630 C 154.381 0.361103 4.26474 0
M  V30 1631 C 153.707 -0.563221 5.31725 0
M  V30 1632 C 155.007 1.59566 4.97329 0
M  V30 1633 H 156.701 1.17548 2.75359 0
M  V30 1634 H 154.247 0.566686 1.32381 0
M  V30 1635 H 156.2 -0.83525 4.13039 0
M  V30 1636 H 154.924 -1.32139 2.98675 0
M  V30 1637 H 153.583 0.722825 3.59403 0
M  V30 1638 H 153.231 -1.42643 4.82351 0
M  V30 1639 H 152.931 -0.0207409 5.87596 0
M  V30 1640 H 154.455 -0.939808 6.03324 0
M  V30 1641 H 155.869 1.28728 5.58661 0
M  V30 1642 H 154.266 2.07728 5.63 0
M  V30 1643 H 155.336 2.34798 4.24262 0
M  V30 1644 N 156.679 -1.44442 0.630414 0
M  V30 1645 C 157.611 -2.2892 -0.113347 0
M  V30 1646 C 158.624 -1.41243 -0.80959 0
M  V30 1647 O 159.813 -1.65402 -0.671156 0
M  V30 1648 C 156.913 -3.17594 -1.18266 0
M  V30 1649 C 156.086 -4.33682 -0.569073 0
M  V30 1650 C 155.145 -5.03397 -1.53226 0
M  V30 1651 O 154.171 -5.59438 -1.04967 0
M  V30 1652 N 155.373 -5.04783 -2.86661 0
M  V30 1653 H 158.138 -2.93392 0.611636 0
M  V30 1654 H 155.699 -1.54881 0.471523 0
M  V30 1655 H 157.691 -3.61097 -1.82732 0
M  V30 1656 H 156.261 -2.54876 -1.80988 0
M  V30 1657 H 155.481 -3.9338 0.254187 0
M  V30 1658 H 156.769 -5.08608 -0.139767 0
M  V30 1659 H 156.167 -4.60584 -3.28449 0
M  V30 1660 H 154.724 -5.52077 -3.46489 0
M  V30 1661 N 158.157 -0.370918 -1.53173 0
M  V30 1662 C 159.434 0.273754 -1.93675 0
M  V30 1663 C 159.814 1.65938 -1.3049 0
M  V30 1664 O 159.162 2.23698 -0.465999 0
M  V30 1665 C 159.372 0.318602 -3.47543 0
M  V30 1666 C 160.72 0.556392 -4.20939 0
M  V30 1667 O 161.744 0.399587 -3.53952 0
M  V30 1668 O 160.603 0.862133 -5.39657 0
M  V30 1669 H 157.697 0.165448 -0.810281 0
M  V30 1670 H 160.243 -0.42409 -1.64315 0
M  V30 1671 H 159.015 -0.652687 -3.85818 0
M  V30 1672 H 158.638 1.06212 -3.83151 0
M  V30 1673 N 159.635 1.57281 -0.100228 0
M  V30 1674 C 160.881 1.94826 0.563101 0
M  V30 1675 C 161.214 0.982475 1.67514 0
M  V30 1676 O 160.489 0.0164069 1.94493 0
M  V30 1677 C 160.772 3.42453 1.11346 0
M  V30 1678 C 160.625 4.498 0.00612081 0
M  V30 1679 C 161.944 3.91506 2.01024 0
M  V30 1680 H 159.063 0.708428 0.203221 0
M  V30 1681 H 161.705 1.8922 -0.171979 0
M  V30 1682 H 159.855 3.47361 1.7399 0
M  V30 1683 H 161.527 4.57 -0.628357 0
M  V30 1684 H 159.77 4.28756 -0.659581 0
M  V30 1685 H 160.441 5.50306 0.432109 0
M  V30 1686 H 162.917 3.88784 1.48278 0
M  V30 1687 H 161.793 4.95358 2.36457 0
M  V30 1688 H 162.054 3.31099 2.92961 0
M  V30 1689 N 161.113 -0.173488 1.56642 0
M  V30 1690 C 162.341 -0.906095 1.86004 0
M  V30 1691 C 162.756 -1.75921 0.685355 0
M  V30 1692 O 162.113 -1.79198 -0.345578 0
M  V30 1693 C 162.164 -1.78462 3.14378 0
M  V30 1694 O 161.885 -0.965914 4.27319 0
M  V30 1695 C 163.386 -2.62707 3.57071 0
M  V30 1696 H 160.606 -0.263341 0.617165 0
M  V30 1697 H 163.15 -0.174236 2.03756 0
M  V30 1698 H 161.305 -2.46984 2.98459 0
M  V30 1699 H 161.719 -1.56655 5.00559 0
M  V30 1700 H 163.193 -3.19969 4.49804 0
M  V30 1701 H 163.67 -3.37472 2.81086 0
M  V30 1702 H 164.276 -1.99521 3.75595 0
M  V30 1703 N 162.591 -1.51276 -0.441967 0
M  V30 1704 C 163.521 -1.752 -1.54361 0
M  V30 1705 C 164.502 -0.601682 -1.59103 0
M  V30 1706 O 165.687 -0.843913 -1.74905 0
M  V30 1707 C 162.817 -1.87282 -2.92477 0
M  V30 1708 C 161.771 -3.02687 -3.02596 0
M  V30 1709 C 161.097 -2.99947 -4.42647 0
M  V30 1710 C 162.397 -4.4273 -2.77106 0
M  V30 1711 H 164.091 -2.67442 -1.34592 0
M  V30 1712 H 161.637 -1.28694 -0.646048 0
M  V30 1713 H 163.59 -2.02602 -3.695 0
M  V30 1714 H 162.314 -0.916844 -3.13467 0
M  V30 1715 H 160.973 -2.87065 -2.28012 0
M  V30 1716 H 160.621 -2.02136 -4.60597 0
M  V30 1717 H 160.321 -3.77439 -4.50348 0
M  V30 1718 H 161.845 -3.17354 -5.2165 0
M  V30 1719 H 163.259 -4.58727 -3.43864 0
M  V30 1720 H 161.656 -5.21893 -2.96222 0
M  V30 1721 H 162.726 -4.53087 -1.72744 0
M  V30 1722 N 164.069 0.697108 -1.41344 0
M  V30 1723 C 165.318 1.45279 -1.39918 0
M  V30 1724 C 165.631 1.95597 -0.0109624 0
M  V30 1725 O 166.837 2.71208 0.125919 0
M  V30 1726 C 165.293 2.62695 -2.46007 0
M  V30 1727 C 164.901 2.19169 -3.90729 0
M  V30 1728 C 166.645 3.40336 -2.53715 0
M  V30 1729 C 164.552 3.33535 -4.88373 0
M  V30 1730 H 163.482 0.545692 -0.520323 0
M  V30 1731 H 166.133 0.756929 -1.67161 0
M  V30 1732 H 164.515 3.34541 -2.11892 0
M  V30 1733 H 165.689 1.54623 -4.34083 0
M  V30 1734 H 164.004 1.54525 -3.86666 0
M  V30 1735 H 166.601 4.2547 -3.2385 0
M  V30 1736 H 166.944 3.85418 -1.5735 0
M  V30 1737 H 167.477 2.75546 -2.86913 0
M  V30 1738 H 164.216 2.93468 -5.86137 0
M  V30 1739 H 163.736 3.96936 -4.49668 0
M  V30 1740 H 165.415 3.99335 -5.09059 0
M  V30 1741 N 165.547 1.27147 0.931209 0
M  V30 1742 C 166.796 1.12664 1.67302 0
M  V30 1743 C 167.109 -0.327718 1.92835 0
M  V30 1744 O 168.315 -0.593392 2.64936 0
M  V30 1745 C 166.771 1.9683 3.01307 0
M  V30 1746 C 166.379 3.46901 2.83485 0
M  V30 1747 C 168.123 1.90985 3.79111 0
M  V30 1748 C 166.03 4.23279 4.13024 0
M  V30 1749 H 164.96 0.41803 0.627509 0
M  V30 1750 H 167.611 1.51539 1.03481 0
M  V30 1751 H 165.993 1.50797 3.66164 0
M  V30 1752 H 167.167 4.00773 2.27415 0
M  V30 1753 H 165.482 3.54088 2.19113 0
M  V30 1754 H 168.079 2.45328 4.75098 0
M  V30 1755 H 168.422 0.882718 4.06834 0
M  V30 1756 H 168.955 2.34895 3.21044 0
M  V30 1757 H 165.694 5.26503 3.90481 0
M  V30 1758 H 165.214 3.74186 4.6877 0
M  V30 1759 H 166.893 4.32265 4.81411 0
M  V30 1760 N 167.025 -1.13721 1.09112 0
M  V30 1761 C 167.955 -2.21148 0.749385 0
M  V30 1762 C 168.936 -1.6792 -0.271475 0
M  V30 1763 O 170.121 -1.93693 -0.140251 0
M  V30 1764 C 167.251 -3.46905 0.165659 0
M  V30 1765 C 166.205 -4.13203 1.11567 0
M  V30 1766 C 165.531 -5.33248 0.393809 0
M  V30 1767 C 166.831 -4.60912 2.45678 0
M  V30 1768 H 168.525 -2.4999 1.64758 0
M  V30 1769 H 166.071 -1.20156 0.793626 0
M  V30 1770 H 168.024 -4.21313 -0.085466 0
M  V30 1771 H 166.748 -3.17449 -0.767714 0
M  V30 1772 H 165.407 -3.40758 1.35202 0
M  V30 1773 H 165.055 -5.00054 -0.543599 0
M  V30 1774 H 164.755 -5.78552 1.02721 0
M  V30 1775 H 166.279 -6.10413 0.150908 0
M  V30 1776 H 167.693 -5.26759 2.26269 0
M  V30 1777 H 166.09 -5.16944 3.04776 0
M  V30 1778 H 167.16 -3.75603 3.06677 0
M  V30 1779 N 168.503 -0.877838 -1.30888 0
M  V30 1780 C 169.413 -0.343096 -2.32078 0
M  V30 1781 C 170.429 0.551022 -1.65045 0
M  V30 1782 O 171.605 0.445854 -1.96403 0
M  V30 1783 C 168.67 0.439905 -3.43898 0
M  V30 1784 C 167.731 -0.483111 -4.26573 0
M  V30 1785 C 166.964 0.262616 -5.33053 0
M  V30 1786 O 167.187 1.48967 -5.50604 0
M  V30 1787 O 166.121 -0.383593 -6.00676 0
M  V30 1788 H 169.947 -1.18203 -2.79753 0
M  V30 1789 H 167.532 -0.64145 -1.34929 0
M  V30 1790 H 169.414 0.883504 -4.12034 0
M  V30 1791 H 168.089 1.25526 -2.98371 0
M  V30 1792 H 166.996 -0.975374 -3.61161 0
M  V30 1793 H 168.329 -1.26427 -4.75686 0
M  V30 1794 N 169.982 1.44106 -0.638065 0
M  V30 1795 C 171.231 2.01194 -0.142744 0
M  V30 1796 C 171.544 1.50835 1.24532 0
M  V30 1797 O 172.75 2.00096 1.83504 0
M  V30 1798 C 171.206 3.59319 -0.20442 0
M  V30 1799 C 170.814 4.18674 -1.59423 0
M  V30 1800 C 172.558 4.23854 0.234079 0
M  V30 1801 C 170.465 5.69045 -1.61065 0
M  V30 1802 H 169.395 0.752367 -0.0495998 0
M  V30 1803 H 172.046 1.65246 -0.797881 0
M  V30 1804 H 170.428 3.92598 0.517946 0
M  V30 1805 H 171.602 3.96921 -2.34074 0
M  V30 1806 H 169.917 3.66453 -1.97741 0
M  V30 1807 H 172.514 5.34155 0.241443 0
M  V30 1808 H 172.857 3.96688 1.2627 0
M  V30 1809 H 173.39 3.95403 -0.436025 0
M  V30 1810 H 170.129 6.00956 -2.61787 0
M  V30 1811 H 169.649 5.929 -0.90718 0
M  V30 1812 H 171.328 6.32809 -1.34766 0
M  V30 1813 N 171.46 0.379036 1.52974 0
M  V30 1814 C 172.423 -0.448865 2.24762 0
M  V30 1815 C 173.423 -0.998689 1.26027 0
M  V30 1816 O 174.613 -0.882313 1.50203 0
M  V30 1817 C 171.745 -1.62872 2.99476 0
M  V30 1818 H 172.938 0.179491 2.99362 0
M  V30 1819 H 170.491 0.13096 1.5575 0
M  V30 1820 H 171.226 -2.29479 2.29151 0
M  V30 1821 H 171.011 -1.24128 3.71934 0
M  V30 1822 H 172.501 -2.2151 3.5401 0
M  V30 1823 N 172.938 -1.57226 0.108567 0
M  V30 1824 C 173.901 -2.13602 -0.831082 0
M  V30 1825 C 174.901 -1.06841 -1.20173 0
M  V30 1826 O 176.091 -1.32666 -1.12895 0
M  V30 1827 C 173.223 -2.66769 -2.12243 0
M  V30 1828 H 174.416 -2.97951 -0.341317 0
M  V30 1829 H 171.969 -1.55667 -0.14057 0
M  V30 1830 H 172.704 -1.85977 -2.65675 0
M  V30 1831 H 172.489 -3.44839 -1.86625 0
M  V30 1832 H 173.979 -3.10332 -2.79435 0
M  V30 1833 N 174.416 0.165178 -1.56732 0
M  V30 1834 C 175.665 0.879143 -1.81532 0
M  V30 1835 C 175.978 1.83144 -0.686842 0
M  V30 1836 O 177.184 2.58823 -0.819944 0
M  V30 1837 C 175.64 1.61388 -3.21686 0
M  V30 1838 C 175.248 0.704904 -4.4242 0
M  V30 1839 C 176.992 2.3157 -3.55774 0
M  V30 1840 C 174.899 1.44022 -5.73595 0
M  V30 1841 H 173.829 0.332033 -0.676957 0
M  V30 1842 H 176.48 0.132008 -1.83025 0
M  V30 1843 H 174.862 2.40599 -3.14529 0
M  V30 1844 H 176.036 -0.0506815 -4.60772 0
M  V30 1845 H 174.351 0.112419 -4.16248 0
M  V30 1846 H 176.948 2.8719 -4.51028 0
M  V30 1847 H 177.291 3.07201 -2.8095 0
M  V30 1848 H 177.824 1.59297 -3.64513 0
M  V30 1849 H 174.563 0.72612 -6.51466 0
M  V30 1850 H 174.083 2.16898 -5.5921 0
M  V30 1851 H 175.762 1.98606 -6.15764 0
M  V30 1852 N 175.894 1.51508 0.433938 0
M  V30 1853 C 177.14 1.64588 1.18484 0
M  V30 1854 C 177.473 0.362666 1.90784 0
M  V30 1855 O 176.748 -0.637892 1.83742 0
M  V30 1856 C 177.031 2.85149 2.19913 0
M  V30 1857 C 176.884 4.23456 1.51674 0
M  V30 1858 C 178.203 3.01227 3.20858 0
M  V30 1859 H 175.322 0.598994 0.429389 0
M  V30 1860 H 177.964 1.84002 0.473647 0
M  V30 1861 H 176.114 2.68729 2.80566 0
M  V30 1862 H 177.786 4.51552 0.943322 0
M  V30 1863 H 176.029 4.25998 0.819035 0
M  V30 1864 H 176.7 5.03812 2.2556 0
M  V30 1865 H 179.176 3.16382 2.70263 0
M  V30 1866 H 178.052 3.87141 3.89118 0
M  V30 1867 H 178.313 2.13447 3.8716 0
M  V30 1868 N 177.372 -0.689602 1.41712 0
M  V30 1869 C 178.597 -1.48329 1.44959 0
M  V30 1870 C 179.022 -1.8801 0.0581283 0
M  V30 1871 O 178.38 -1.55026 -0.940035 0
M  V30 1872 C 178.428 -2.71835 2.36935 0
M  V30 1873 O 177.532 -3.69549 1.8305 0
M  V30 1874 H 176.873 -0.446199 0.491734 0
M  V30 1875 H 179.403 -0.847127 1.86239 0
M  V30 1876 H 179.413 -3.20076 2.53013 0
M  V30 1877 H 178.088 -2.42291 3.38035 0
M  V30 1878 H 176.665 -3.2851 1.76452 0
M  V30 1879 N 178.85 -1.27639 -0.924453 0
M  V30 1880 C 179.78 -1.13166 -2.04244 0
M  V30 1881 C 180.761 -0.032256 -1.70069 0
M  V30 1882 O 181.946 -0.207328 -1.9309 0
M  V30 1883 C 179.076 -0.781496 -3.38393 0
M  V30 1884 C 178.03 -1.83449 -3.86692 0
M  V30 1885 C 177.356 -1.33822 -5.17683 0
M  V30 1886 C 178.656 -3.23917 -4.09726 0
M  V30 1887 H 180.35 -2.06689 -2.1661 0
M  V30 1888 H 177.896 -0.995136 -1.04082 0
M  V30 1889 H 179.849 -0.667057 -4.16087 0
M  V30 1890 H 178.573 0.189439 -3.2605 0
M  V30 1891 H 177.232 -1.93789 -3.11193 0
M  V30 1892 H 176.88 -0.35665 -5.01734 0
M  V30 1893 H 176.58 -2.04224 -5.50968 0
M  V30 1894 H 178.104 -1.23679 -5.97943 0
M  V30 1895 H 179.518 -3.16559 -4.77978 0
M  V30 1896 H 177.915 -3.92059 -4.54324 0
M  V30 1897 H 178.985 -3.68729 -3.14908 0
M  V30 1898 N 180.328 1.1314 -1.09713 0
M  V30 1899 C 181.576 1.84119 -0.833338 0
M  V30 1900 C 181.897 1.84097 0.642904 0
M  V30 1901 O 181.167 1.29881 1.46655 0
M  V30 1902 H 179.747 0.681766 -0.305293 0
M  V30 1903 H 182.409 1.37038 -1.38588 0
M  V30 1904 H 181.505 2.88543 -1.18951 0
M  V30 1905 N 181.806 0.884767 1.30421 0
M  V30 1906 C 182.736 0.367574 2.30589 0
M  V30 1907 C 183.717 -0.549464 1.60981 0
M  V30 1908 O 184.902 -0.46336 1.88591 0
M  V30 1909 C 182.032 -0.418944 3.44764 0
M  V30 1910 C 180.986 0.406316 4.26067 0
M  V30 1911 C 180.312 -0.506793 5.32293 0
M  V30 1912 C 181.612 1.64832 4.95608 0
M  V30 1913 H 183.306 1.20462 2.74097 0
M  V30 1914 H 180.852 0.580695 1.31772 0
M  V30 1915 H 182.805 -0.791395 4.13902 0
M  V30 1916 H 181.529 -1.28964 3.0006 0
M  V30 1917 H 180.188 0.760903 3.58617 0
M  V30 1918 H 179.836 -1.37519 4.83836 0
M  V30 1919 H 179.536 0.0415828 5.87585 0
M  V30 1920 H 181.06 -0.875764 6.04287 0
M  V30 1921 H 182.474 1.34646 5.57264 0
M  V30 1922 H 180.871 2.13688 5.60765 0
M  V30 1923 H 181.941 2.39284 4.21748 0
M  V30 1924 N 183.284 -1.43765 0.645699 0
M  V30 1925 C 184.509 -2.06767 0.161883 0
M  V30 1926 C 184.934 -1.48034 -1.16049 0
M  V30 1927 O 184.292 -0.587369 -1.71522 0
M  V30 1928 C 184.34 -3.60519 0.0762003 0
M  V30 1929 O 183.444 -4.00982 -0.963721 0
M  V30 1930 H 182.785 -0.657675 0.091429 0
M  V30 1931 H 185.315 -1.84397 0.886499 0
M  V30 1932 H 185.325 -4.07853 -0.109604 0
M  V30 1933 H 184 -4.02646 1.04157 0
M  V30 1934 H 182.577 -3.65253 -0.751312 0
M  V30 1935 N 184.763 -0.387143 -1.52771 0
M  V30 1936 C 186.01 0.195735 -2.01552 0
M  V30 1937 C 186.338 1.46995 -1.27369 0
M  V30 1938 O 185.593 1.92325 -0.361879 0
M  V30 1939 C 185.892 0.512209 -3.53711 0
M  V30 1940 C 185.558 -0.670202 -4.45891 0
M  V30 1941 C 184.22 -0.994586 -4.70809 0
M  V30 1942 C 186.572 -1.46134 -5.00294 0
M  V30 1943 C 183.9 -2.11169 -5.4738 0
M  V30 1944 C 186.252 -2.56903 -5.78086 0
M  V30 1945 C 184.916 -2.89852 -6.01284 0
M  V30 1946 H 184.186 0.0716246 -0.73753 0
M  V30 1947 H 186.833 -0.524046 -1.8419 0
M  V30 1948 H 185.138 1.31329 -3.69134 0
M  V30 1949 H 186.835 0.975804 -3.88946 0
M  V30 1950 H 183.425 -0.407366 -4.2666 0
M  V30 1951 H 187.609 -1.22397 -4.80971 0
M  V30 1952 H 182.865 -2.3707 -5.63567 0
M  V30 1953 H 187.039 -3.18608 -6.19243 0
M  V30 1954 H 184.666 -3.76533 -6.60399 0
M  V30 1955 N 186.241 1.57166 -0.116904 0
M  V30 1956 C 187.471 1.99184 0.548586 0
M  V30 1957 C 187.879 0.995436 1.60897 0
M  V30 1958 O 187.222 -0.0201293 1.83689 0
M  V30 1959 C 187.284 3.37611 1.23526 0
M  V30 1960 C 186.948 4.55857 0.323077 0
M  V30 1961 C 187.945 5.18056 -0.437476 0
M  V30 1962 C 185.63 5.01751 0.234761 0
M  V30 1963 C 187.624 6.24536 -1.2741 0
M  V30 1964 C 185.311 6.08093 -0.605496 0
M  V30 1965 C 186.309 6.69352 -1.35856 0
M  V30 1966 O 185.997 7.7364 -2.18487 0
M  V30 1967 H 185.729 0.659148 0.149999 0
M  V30 1968 H 188.283 2.0443 -0.199428 0
M  V30 1969 H 186.513 3.29113 2.0303 0
M  V30 1970 H 188.202 3.63932 1.79745 0
M  V30 1971 H 188.968 4.83516 -0.379105 0
M  V30 1972 H 184.847 4.53817 0.810601 0
M  V30 1973 H 188.391 6.72281 -1.86237 0
M  V30 1974 H 184.288 6.42063 -0.665268 0
M  V30 1975 H 185.056 7.90727 -2.11406 0
M  V30 1976 N 187.719 -0.156864 1.56817 0
M  V30 1977 C 188.651 -1.21883 1.94106 0
M  V30 1978 C 189.664 -1.3971 0.835754 0
M  V30 1979 O 190.853 -1.39457 1.11418 0
M  V30 1980 C 187.953 -2.58527 2.19127 0
M  V30 1981 C 187.126 -2.61809 3.50393 0
M  V30 1982 C 186.185 -3.7992 3.64071 0
M  V30 1983 O 185.211 -3.65249 4.36557 0
M  V30 1984 N 186.413 -4.96973 2.99997 0
M  V30 1985 H 189.178 -0.901974 2.85805 0
M  V30 1986 H 186.739 -0.346513 1.58148 0
M  V30 1987 H 188.731 -3.36034 2.25529 0
M  V30 1988 H 187.301 -2.82545 1.33742 0
M  V30 1989 H 186.521 -1.7029 3.5552 0
M  V30 1990 H 187.809 -2.61024 4.36742 0
M  V30 1991 H 187.207 -5.11794 2.41004 0
M  V30 1992 H 185.764 -5.7229 3.11974 0
M  V30 1993 N 189.197 -1.51736 -0.425897 0
M  V30 1994 C 190.608 -1.5732 -1.00536 0
M  V30 1995 C 190.959 -0.403537 -1.92005 0
M  V30 1996 O 190.084 0.478256 -2.11049 0
M  V30 1997 C 190.679 -2.85119 -1.8301 0
M  V30 1998 C 189.238 -2.93236 -2.35987 0
M  V30 1999 C 188.385 -2.52098 -1.15508 0
M  V30 2000 H 191.336 -1.57348 -0.206739 0
M  V30 2001 H 191.357 -2.69526 -2.68581 0
M  V30 2002 H 190.869 -3.7023 -1.16411 0
M  V30 2003 H 188.97 -2.12581 -3.06007 0
M  V30 2004 H 189.083 -3.9713 -2.68001 0
M  V30 2005 H 187.447 -2.05558 -1.50393 0
M  V30 2006 H 188.23 -3.39565 -0.505014 0
M  V30 2007 N 190.675 0.682077 -1.42076 0
M  V30 2008 C 192.086 1.26246 -1.37546 0
M  V30 2009 C 192.437 1.96092 -0.0651481 0
M  V30 2010 O 191.562 1.99587 0.836297 0
M  V30 2011 C 192.157 2.29594 -2.49143 0
M  V30 2012 C 190.716 2.83175 -2.47969 0
M  V30 2013 C 189.863 1.57395 -2.28303 0
M  V30 2014 H 192.814 0.475937 -1.51395 0
M  V30 2015 H 192.835 3.11175 -2.18976 0
M  V30 2016 H 192.347 1.78729 -3.44496 0
M  V30 2017 H 190.448 3.3818 -1.56413 0
M  V30 2018 H 190.561 3.32687 -3.44755 0
M  V30 2019 H 188.925 1.83699 -1.76428 0
M  V30 2020 H 189.708 1.08507 -3.25701 0
M  V30 2021 N 192.153 1.28127 0.917671 0
M  V30 2022 C 193.063 1.13556 2.05286 0
M  V30 2023 C 194.079 0.0630914 1.73886 0
M  V30 2024 O 195.255 0.271598 1.9956 0
M  V30 2025 C 192.32 0.794676 3.3747 0
M  V30 2026 C 191.381 1.94909 3.82504 0
M  V30 2027 C 190.614 1.62437 5.0838 0
M  V30 2028 O 190.837 0.536905 5.67867 0
M  V30 2029 O 189.771 2.46677 5.4903 0
M  V30 2030 H 193.597 2.08844 2.20495 0
M  V30 2031 H 191.182 1.07409 1.03845 0
M  V30 2032 H 193.064 0.618344 4.16839 0
M  V30 2033 H 191.739 -0.128581 3.23445 0
M  V30 2034 H 190.646 2.18055 3.03978 0
M  V30 2035 H 191.979 2.85291 4.01086 0
M  V30 2036 N 193.631 -1.12557 1.10312 0
M  V30 2037 C 194.879 -1.83675 0.843091 0
M  V30 2038 C 195.2 -1.84435 -0.633131 0
M  V30 2039 O 194.47 -1.30657 -1.45964 0
M  V30 2040 H 193.05 -0.680138 0.308904 0
M  V30 2041 H 195.712 -1.36301 1.39313 0
M  V30 2042 H 194.808 -2.87908 1.2048 0
M  V30 2043 N 195.109 -0.891671 -1.2995 0
M  V30 2044 C 196.386 -0.433307 -1.9074 0
M  V30 2045 C 196.766 1.08646 -1.80995 0
M  V30 2046 O 196.114 1.92476 -1.23147 0
M  V30 2047 C 196.324 -0.938895 -3.36134 0
M  V30 2048 C 197.672 -0.977829 -4.13187 0
M  V30 2049 O 198.696 -0.886015 -3.45005 0
M  V30 2050 O 197.555 -1.11453 -5.35015 0
M  V30 2051 H 194.649 -0.133699 -0.816121 0
M  V30 2052 H 197.195 -0.981011 -1.38471 0
M  V30 2053 H 195.967 -1.98281 -3.37343 0
M  V30 2054 H 195.59 -0.37074 -3.95868 0
M  V30 2055 N 196.587 1.43421 -0.653314 0
M  V30 2056 C 197.535 2.32546 0.0501531 0
M  V30 2057 C 198.529 1.48617 0.812985 0
M  V30 2058 O 199.735 1.64825 0.723375 0
M  V30 2059 H 196.11 0.751185 0.0350032 0
M  V30 2060 H 198.081 2.89602 -0.719261 0
M  V30 2061 C 196.83 3.32925 1.00279 0
M  V30 2062 H 196.153 3.97532 0.425236 0
M  V30 2063 H 197.593 3.9792 1.46409 0
M  V30 2064 C 196.052 2.63532 2.09886 0
M  V30 2065 O 196.582 2.45092 3.18265 0
M  V30 2066 N 194.788 2.22905 1.86445 0
M  V30 2067 H 194.335 2.38103 0.98309 0
M  V30 2068 H 194.293 1.76805 2.59976 0
M  V30 2069 N 198.065 0.39524 1.52563 0
M  V30 2070 C 199.028 -0.425001 2.25225 0
M  V30 2071 C 200.028 -0.985266 1.27079 0
M  V30 2072 O 201.218 -0.866332 1.5113 0
M  V30 2073 C 198.35 -1.59686 3.01186 0
M  V30 2074 H 199.543 0.211233 2.99155 0
M  V30 2075 H 197.096 0.147472 1.55603 0
M  V30 2076 H 197.831 -2.27035 2.31572 0
M  V30 2077 H 197.616 -1.20176 3.73229 0
M  V30 2078 H 199.106 -2.17743 3.5634 0
M  V30 2079 N 199.544 -1.57102 0.125237 0
M  V30 2080 C 200.474 -2.18659 -0.819174 0
M  V30 2081 C 201.455 -1.12843 -1.27281 0
M  V30 2082 O 202.64 -1.41104 -1.33429 0
M  V30 2083 C 199.77 -2.79096 -2.06695 0
M  V30 2084 C 198.724 -3.90548 -1.75088 0
M  V30 2085 C 198.05 -4.37821 -3.06948 0
M  V30 2086 C 199.35 -5.12356 -1.01435 0
M  V30 2087 H 201.044 -2.9783 -0.306202 0
M  V30 2088 H 198.59 -1.4326 -0.145839 0
M  V30 2089 H 200.543 -3.2082 -2.73226 0
M  V30 2090 H 199.267 -1.97223 -2.60328 0
M  V30 2091 H 197.926 -3.49409 -1.10944 0
M  V30 2092 H 197.574 -3.52799 -3.58527 0
M  V30 2093 H 197.274 -5.12982 -2.86571 0
M  V30 2094 H 198.798 -4.822 -3.74587 0
M  V30 2095 H 200.212 -5.5106 -1.58132 0
M  V30 2096 H 198.609 -5.9314 -0.911319 0
M  V30 2097 H 199.679 -4.849 -0.00218681 0
M  V30 2098 N 201.022 0.148545 -1.56898 0
M  V30 2099 C 202.262 0.86765 -1.85071 0
M  V30 2100 C 202.626 1.78417 -0.709317 0
M  V30 2101 O 203.827 2.54261 -0.872049 0
M  V30 2102 C 202.098 1.62306 -3.1842 0
M  V30 2103 S 203.657 2.3878 -3.68143 0
M  V30 2104 H 200.475 0.290174 -0.649092 0
M  V30 2105 H 203.077 0.127755 -1.95082 0
M  V30 2106 H 201.781 0.941192 -3.99462 0
M  V30 2107 H 201.312 2.4039 -3.1141 0
M  V30 2108 H 203.327 3.63942 -3.37285 0
M  V30 2109 N 202.5 1.5196 0.417844 0
M  V30 2110 C 203.748 1.65263 1.16329 0
M  V30 2111 C 204.069 0.380634 1.91249 0
M  V30 2112 O 203.339 -0.604214 1.86349 0
M  V30 2113 H 201.919 0.60912 0.432414 0
M  V30 2114 H 204.581 1.88969 0.477162 0
M  V30 2115 H 203.677 2.4896 1.88217 0
M  V30 2116 N 203.978 -0.674533 1.42435 0
M  V30 2117 C 204.888 -1.81751 1.48337 0
M  V30 2118 C 205.904 -1.69975 0.372099 0
M  V30 2119 O 207.08 -1.91521 0.62304 0
M  V30 2120 C 204.145 -3.17895 1.38361 0
M  V30 2121 C 203.206 -3.41625 2.59982 0
M  V30 2122 C 202.439 -4.71274 2.50473 0
M  V30 2123 O 202.662 -5.49197 1.54075 0
M  V30 2124 O 201.596 -4.96254 3.4061 0
M  V30 2125 H 205.422 -1.79728 2.44809 0
M  V30 2126 H 203.007 -0.830312 1.24202 0
M  V30 2127 H 204.889 -3.99136 1.35161 0
M  V30 2128 H 203.564 -3.20555 0.450144 0
M  V30 2129 H 202.471 -2.60231 2.68757 0
M  V30 2130 H 203.804 -3.43796 3.52229 0
M  V30 2131 N 205.456 -1.28612 -0.910864 0
M  V30 2132 C 206.702 -1.16106 -1.66274 0
M  V30 2133 C 207.035 0.289113 -1.92036 0
M  V30 2134 O 206.31 1.21 -1.52281 0
M  V30 2135 C 206.593 -1.96309 -3.01885 0
M  V30 2136 C 206.446 -3.49405 -2.8326 0
M  V30 2137 C 207.765 -1.78076 -4.02463 0
M  V30 2138 H 204.884 -0.423152 -0.603417 0
M  V30 2139 H 207.526 -1.57961 -1.05586 0
M  V30 2140 H 205.676 -1.60742 -3.53687 0
M  V30 2141 H 207.348 -3.94894 -2.38446 0
M  V30 2142 H 205.591 -3.74893 -2.18261 0
M  V30 2143 H 206.262 -4.00784 -3.79574 0
M  V30 2144 H 208.738 -2.0912 -3.59733 0
M  V30 2145 H 207.614 -2.36561 -4.95308 0
M  V30 2146 H 207.875 -0.733008 -4.35981 0
M  V30 2147 N 206.934 1.1197 -1.10907 0
M  V30 2148 C 208.159 1.87942 -0.877064 0
M  V30 2149 C 208.584 1.79341 0.567314 0
M  V30 2150 O 207.942 1.15184 1.40009 0
M  V30 2151 C 207.99 3.34926 -1.33629 0
M  V30 2152 O 207.094 4.09303 -0.504447 0
M  V30 2153 H 206.435 0.583785 -0.316371 0
M  V30 2154 H 208.965 1.4157 -1.47712 0
M  V30 2155 H 208.975 3.8577 -1.32837 0
M  V30 2156 H 207.65 3.40504 -2.3881 0
M  V30 2157 H 206.227 3.68393 -0.577993 0
M  V30 2158 N 208.412 0.89855 1.29475 0
M  V30 2159 C 209.658 0.524658 1.95896 0
M  V30 2160 C 209.991 -0.926468 1.70676 0
M  V30 2161 O 209.266 -1.65665 1.01908 0
M  V30 2162 C 209.549 0.81633 3.50725 0
M  V30 2163 C 209.402 2.31907 3.85408 0
M  V30 2164 C 210.721 0.302038 4.39062 0
M  V30 2165 H 207.84 0.19209 0.711527 0
M  V30 2166 H 210.482 1.12502 1.53112 0
M  V30 2167 H 208.632 0.305369 3.87298 0
M  V30 2168 H 210.304 2.89949 3.58786 0
M  V30 2169 H 208.547 2.78027 3.32992 0
M  V30 2170 H 209.218 2.47373 4.93468 0
M  V30 2171 H 211.694 0.739551 4.09475 0
M  V30 2172 H 210.57 0.535331 5.46283 0
M  V30 2173 H 210.831 -0.797216 4.34853 0
M  V30 2174 N 209.89 -1.43072 0.660911 0
M  V30 2175 C 211.138 -2.01323 0.177094 0
M  V30 2176 C 211.459 -1.5245 -1.2159 0
M  V30 2177 O 210.729 -0.740322 -1.81373 0
M  V30 2178 H 209.309 -0.744382 0.0624804 0
M  V30 2179 H 211.971 -1.75179 0.854305 0
M  V30 2180 H 211.067 -3.11649 0.167641 0
M  V30 2181 N 211.368 -0.403325 -1.52352 0
M  V30 2182 C 212.278 0.432009 -2.30588 0
M  V30 2183 C 213.294 1.05884 -1.38075 0
M  V30 2184 O 214.47 1.06161 -1.71148 0
M  V30 2185 C 211.535 1.53669 -3.10784 0
M  V30 2186 C 210.596 0.933525 -4.19027 0
M  V30 2187 C 209.829 1.98557 -4.9539 0
M  V30 2188 O 210.052 3.20283 -4.71991 0
M  V30 2189 O 208.986 1.59504 -5.80381 0
M  V30 2190 H 212.812 -0.205739 -3.03002 0
M  V30 2191 H 210.397 -0.166675 -1.48467 0
M  V30 2192 H 212.279 2.17814 -3.60742 0
M  V30 2193 H 210.954 2.15915 -2.41169 0
M  V30 2194 H 209.861 0.254954 -3.7323 0
M  V30 2195 H 211.194 0.35508 -4.90918 0
M  V30 2196 N 212.846 1.57033 -0.133567 0
M  V30 2197 C 213.756 2.19632 0.824564 0
M  V30 2198 C 214.772 1.17666 1.28182 0
M  V30 2199 O 215.948 1.50193 1.3418 0
M  V30 2200 C 213.013 2.79499 2.05137 0
M  V30 2201 C 212.074 3.96548 1.64464 0
M  V30 2202 C 211.307 4.5355 2.81297 0
M  V30 2203 O 211.53 4.09438 3.97136 0
M  V30 2204 O 210.464 5.44018 2.57542 0
M  V30 2205 H 214.29 3.01991 0.321766 0
M  V30 2206 H 211.875 1.49112 0.0927889 0
M  V30 2207 H 213.757 3.17602 2.7696 0
M  V30 2208 H 212.432 2.00162 2.54395 0
M  V30 2209 H 211.339 3.63186 0.897048 0
M  V30 2210 H 212.672 4.77364 1.19934 0
M  V30 2211 N 214.325 -0.140222 1.56975 0
M  V30 2212 C 215.235 -1.19223 2.02047 0
M  V30 2213 C 216.251 -1.46612 0.937062 0
M  V30 2214 O 217.427 -1.58148 1.24704 0
M  V30 2215 C 214.492 -2.50414 2.39778 0
M  V30 2216 C 213.553 -2.30612 3.621 0
M  V30 2217 C 212.786 -3.55547 3.98023 0
M  V30 2218 O 213.009 -4.62004 3.34528 0
M  V30 2219 O 211.943 -3.47808 4.91237 0
M  V30 2220 H 215.769 -0.839559 2.91865 0
M  V30 2221 H 213.354 -0.349453 1.45256 0
M  V30 2222 H 215.236 -3.27747 2.64877 0
M  V30 2223 H 213.911 -2.85198 1.53114 0
M  V30 2224 H 212.818 -1.51207 3.4218 0
M  V30 2225 H 214.151 -2.00741 4.49404 0
M  V30 2226 N 215.803 -1.52179 -0.40978 0
M  V30 2227 C 217.051 -1.65878 -1.15451 0
M  V30 2228 C 217.372 -0.390771 -1.91044 0
M  V30 2229 O 216.642 0.594323 -1.86667 0
M  V30 2230 H 215.222 -0.611405 -0.429177 0
M  V30 2231 H 217.884 -1.89219 -0.467134 0
M  V30 2232 H 216.98 -2.49954 -1.86894 0
M  V30 2233 N 217.281 0.66697 -1.42791 0
M  V30 2234 C 218.191 1.80962 -1.49299 0
M  V30 2235 C 219.207 1.69775 -0.381108 0
M  V30 2236 O 220.383 1.91188 -0.633188 0
M  V30 2237 C 217.448 3.17156 -1.40045 0
M  V30 2238 C 216.509 3.40242 -2.6179 0
M  V30 2239 C 215.742 4.69939 -2.52969 0
M  V30 2240 O 215.965 5.48372 -1.56985 0
M  V30 2241 O 214.899 4.94441 -3.43237 0
M  V30 2242 H 218.725 1.78427 -2.45759 0
M  V30 2243 H 216.31 0.823713 -1.24641 0
M  V30 2244 H 218.192 3.98413 -1.37276 0
M  V30 2245 H 216.867 3.20312 -0.467138 0
M  V30 2246 H 215.774 2.58802 -2.70134 0
M  V30 2247 H 217.107 3.41923 -3.54047 0
M  V30 2248 N 218.759 1.29093 0.90403 0
M  V30 2249 C 220.007 1.16583 1.65085 0
M  V30 2250 C 220.328 -0.283933 1.92922 0
M  V30 2251 O 219.598 -1.19509 1.55224 0
M  V30 2252 H 218.178 0.428467 0.611903 0
M  V30 2253 H 220.84 1.61959 1.08422 0
M  V30 2254 H 219.936 1.71266 2.6091 0
M  V30 2255 N 220.237 -1.11381 1.11499 0
M  V30 2256 C 221.147 -2.21019 0.786628 0
M  V30 2257 C 222.163 -1.72597 -0.220507 0
M  V30 2258 O 223.339 -2.01321 -0.0565251 0
M  V30 2259 C 220.404 -3.459 0.235333 0
M  V30 2260 C 219.465 -4.09107 1.30115 0
M  V30 2261 C 218.698 -5.28027 0.776068 0
M  V30 2262 O 218.921 -5.6904 -0.393661 0
M  V30 2263 O 217.855 -5.81835 1.54114 0
M  V30 2264 H 221.681 -2.51521 1.70209 0
M  V30 2265 H 219.266 -1.19928 0.890928 0
M  V30 2266 H 221.148 -4.21346 -0.067715 0
M  V30 2267 H 219.823 -3.17049 -0.652828 0
M  V30 2268 H 218.73 -3.35391 1.65722 0
M  V30 2269 H 220.063 -4.42139 2.16273 0
M  V30 2270 N 221.715 -0.905404 -1.28997 0
M  V30 2271 C 222.943 -0.549846 -1.9946 0
M  V30 2272 C 223.358 0.866834 -1.67724 0
M  V30 2273 O 222.715 1.57298 -0.925404 0
M  V30 2274 C 222.766 -0.739387 -3.53858 0
M  V30 2275 O 222.487 -2.10031 -3.84472 0
M  V30 2276 C 223.988 -0.389541 -4.41585 0
M  V30 2277 H 221.208 -0.210429 -0.637151 0
M  V30 2278 H 223.752 -1.21632 -1.64396 0
M  V30 2279 H 221.907 -0.120023 -3.87214 0
M  V30 2280 H 222.321 -2.13385 -4.79132 0
M  V30 2281 H 223.795 -0.572972 -5.49018 0
M  V30 2282 H 224.272 0.673756 -4.34001 0
M  V30 2283 H 224.878 -0.986089 -4.1371 0
M  V30 2284 N 223.193 1.4272 -0.668489 0
M  V30 2285 C 224.441 2.01226 -0.187769 0
M  V30 2286 C 224.762 1.53092 1.2078 0
M  V30 2287 O 224.032 0.74993 1.80977 0
M  V30 2288 H 222.612 0.744041 -0.0664272 0
M  V30 2289 H 225.274 1.74723 -0.863583 0
M  V30 2290 H 224.37 3.11556 -0.184166 0
M  V30 2291 N 224.671 0.411399 1.52136 0
M  V30 2292 C 225.917 -0.156262 2.02799 0
M  V30 2293 C 226.272 -1.42613 1.29149 0
M  V30 2294 O 225.565 -1.87592 0.389839 0
M  V30 2295 C 225.759 -0.455872 3.54481 0
M  V30 2296 C 225.588 0.783404 4.42824 0
M  V30 2297 C 224.358 1.30928 4.88043 0
M  V30 2298 C 226.556 1.66217 4.86699 0
M  V30 2299 N 224.538 2.5038 5.6052 0
M  V30 2300 C 225.909 2.70292 5.5798 0
M  V30 2301 C 227.964 1.67966 4.68713 0
M  V30 2302 C 226.667 3.7603 6.13184 0
M  V30 2303 C 228.693 2.72624 5.24815 0
M  V30 2304 C 228.055 3.7542 5.9602 0
M  V30 2305 H 224.154 -0.0186886 0.781777 0
M  V30 2306 H 226.738 0.566255 1.86284 0
M  V30 2307 H 224.909 -1.14743 3.71064 0
M  V30 2308 H 226.641 -1.01261 3.91827 0
M  V30 2309 H 223.396 0.866977 4.65597 0
M  V30 2310 H 223.82 3.10881 6.014 0
M  V30 2311 H 228.462 0.898312 4.13147 0
M  V30 2312 H 226.18 4.55019 6.6782 0
M  V30 2313 H 229.766 2.74887 5.12765 0
M  V30 2314 H 228.646 4.55073 6.38654 0
M  V30 2315 N 226.149 -1.5696 0.141893 0
M  V30 2316 C 227.398 -1.95135 -0.510427 0
M  V30 2317 C 227.711 -1.02896 -1.66348 0
M  V30 2318 O 228.917 -1.30629 -2.38009 0
M  V30 2319 C 227.373 -3.46876 -0.959427 0
M  V30 2320 C 226.981 -4.47691 0.166419 0
M  V30 2321 C 228.725 -3.93927 -1.58183 0
M  V30 2322 C 226.632 -5.90636 -0.300565 0
M  V30 2323 H 225.562 -0.728494 -0.194454 0
M  V30 2324 H 228.213 -1.8211 0.22542 0
M  V30 2325 H 226.595 -3.55215 -1.75038 0
M  V30 2326 H 227.769 -4.51043 0.94325 0
M  V30 2327 H 226.084 -4.10527 0.696905 0
M  V30 2328 H 228.681 -4.98158 -1.94275 0
M  V30 2329 H 229.024 -3.3519 -2.46888 0
M  V30 2330 H 229.557 -3.88484 -0.855863 0
M  V30 2331 H 226.296 -6.5318 0.550989 0
M  V30 2332 H 225.816 -5.90655 -1.04338 0
M  V30 2333 H 227.495 -6.42588 -0.754265 0
M  V30 2334 N 227.627 0.131896 -1.57047 0
M  V30 2335 C 228.537 1.1815 -2.02676 0
M  V30 2336 C 229.553 1.46113 -0.944824 0
M  V30 2337 O 230.729 1.57485 -1.25541 0
M  V30 2338 C 227.794 2.49139 -2.41103 0
M  V30 2339 C 226.855 2.28688 -3.63318 0
M  V30 2340 C 226.088 3.53431 -3.99903 0
M  V30 2341 O 226.311 4.60223 -3.36973 0
M  V30 2342 O 225.245 3.45198 -4.93074 0
M  V30 2343 H 229.071 0.824069 -2.92306 0
M  V30 2344 H 226.656 0.341745 -1.45439 0
M  V30 2345 H 228.538 3.26338 -2.66611 0
M  V30 2346 H 227.213 2.84382 -1.54624 0
M  V30 2347 H 226.12 1.4939 -3.42977 0
M  V30 2348 H 227.453 1.98355 -4.50462 0
M  V30 2349 N 229.106 1.52395 0.401703 0
M  V30 2350 C 230.354 1.66488 1.14569 0
M  V30 2351 C 230.675 0.400897 1.90835 0
M  V30 2352 O 229.945 -0.584415 1.8698 0
M  V30 2353 H 228.525 0.613672 0.425929 0
M  V30 2354 H 231.187 1.89464 0.457093 0
M  V30 2355 H 230.283 2.50942 1.85566 0
M  V30 2356 N 230.584 -0.659388 1.43143 0
M  V30 2357 C 231.547 -1.75432 1.47501 0
M  V30 2358 C 232.547 -1.56707 0.360512 0
M  V30 2359 O 233.737 -1.62717 0.622002 0
M  V30 2360 C 230.869 -3.14239 1.32162 0
M  V30 2361 H 232.062 -1.7295 2.45006 0
M  V30 2362 H 229.615 -0.870469 1.29817 0
M  V30 2363 H 230.35 -3.22336 0.356401 0
M  V30 2364 H 230.135 -3.29235 2.12948 0
M  V30 2365 H 231.625 -3.94094 1.3813 0
M  V30 2366 N 232.062 -1.29571 -0.897171 0
M  V30 2367 C 233.025 -1.14913 -1.98312 0
M  V30 2368 C 234.025 -0.0838629 -1.60581 0
M  V30 2369 O 235.215 -0.331006 -1.71026 0
M  V30 2370 C 232.347 -0.757835 -3.3237 0
M  V30 2371 H 233.54 -2.11377 -2.12743 0
M  V30 2372 H 231.093 -1.12793 -1.08201 0
M  V30 2373 H 231.828 0.206837 -3.2364 0
M  V30 2374 H 231.613 -1.52755 -3.61121 0
M  V30 2375 H 233.103 -0.678408 -4.12053 0
M  V30 2376 N 233.54 1.10788 -1.12088 0
M  V30 2377 C 234.789 1.82036 -0.868659 0
M  V30 2378 C 235.102 1.85929 0.607426 0
M  V30 2379 O 236.308 2.53346 0.97613 0
M  V30 2380 C 234.764 3.26951 -1.50435 0
M  V30 2381 C 234.372 3.31367 -3.01496 0
M  V30 2382 C 236.116 4.03053 -1.33225 0
M  V30 2383 C 234.023 4.7072 -3.58017 0
M  V30 2384 H 232.953 0.682108 -0.321318 0
M  V30 2385 H 235.604 1.24618 -1.34694 0
M  V30 2386 H 233.986 3.84343 -0.953735 0
M  V30 2387 H 235.16 2.83819 -3.6302 0
M  V30 2388 H 233.475 2.6875 -3.18061 0
M  V30 2389 H 236.072 5.05981 -1.72878 0
M  V30 2390 H 236.415 4.15387 -0.275529 0
M  V30 2391 H 236.948 3.52066 -1.85188 0
M  V30 2392 H 233.687 4.63585 -4.63432 0
M  V30 2393 H 233.207 5.1865 -3.01268 0
M  V30 2394 H 234.886 5.39685 -3.56859 0
M  V30 2395 N 235.018 0.912232 1.28515 0
M  V30 2396 C 235.948 0.416403 2.29757 0
M  V30 2397 C 236.929 -0.515194 1.6211 0
M  V30 2398 O 238.114 -0.423253 1.89532 0
M  V30 2399 C 235.244 -0.34572 3.45575 0
M  V30 2400 C 234.198 0.496599 4.25109 0
M  V30 2401 C 233.524 -0.393771 5.33248 0
M  V30 2402 C 234.824 1.75307 4.92001 0
M  V30 2403 H 236.518 1.26249 2.7148 0
M  V30 2404 H 234.064 0.608515 1.30511 0
M  V30 2405 H 236.017 -0.703422 4.15488 0
M  V30 2406 H 234.741 -1.2257 3.02728 0
M  V30 2407 H 233.4 0.8368 3.56922 0
M  V30 2408 H 233.048 -1.27225 4.86644 0
M  V30 2409 H 232.748 0.166209 5.87365 0
M  V30 2410 H 234.272 -0.747389 6.06009 0
M  V30 2411 H 235.686 1.46437 5.54283 0
M  V30 2412 H 234.083 2.25534 5.56106 0
M  V30 2413 H 235.153 2.48176 4.16577 0
M  V30 2414 N 236.496 -1.42363 0.676048 0
M  V30 2415 C 237.426 -2.33497 0.0124832 0
M  V30 2416 C 238.407 -1.50748 -0.787981 0
M  V30 2417 O 239.592 -1.79346 -0.744884 0
M  V30 2418 C 236.722 -3.34377 -0.938582 0
M  V30 2419 C 235.676 -4.27289 -0.246622 0
M  V30 2420 C 235.002 -5.18386 -1.31071 0
M  V30 2421 C 236.302 -5.14916 0.875125 0
M  V30 2422 H 237.996 -2.89233 0.773593 0
M  V30 2423 H 235.542 -1.39073 0.37346 0
M  V30 2424 H 237.495 -3.97044 -1.41188 0
M  V30 2425 H 236.219 -2.76947 -1.73113 0
M  V30 2426 H 234.878 -3.66018 0.206456 0
M  V30 2427 H 234.526 -4.57282 -2.09528 0
M  V30 2428 H 234.226 -5.81378 -0.852839 0
M  V30 2429 H 235.75 -5.83929 -1.78492 0
M  V30 2430 H 237.164 -5.71262 0.482983 0
M  V30 2431 H 235.561 -5.86747 1.25887 0
M  V30 2432 H 236.631 -4.53242 1.72335 0
M  V30 2433 N 237.974 -0.419461 -1.51915 0
M  V30 2434 C 239.199 0.154572 -2.06823 0
M  V30 2435 C 239.624 1.3722 -1.28656 0
M  V30 2436 O 238.982 1.78461 -0.319583 0
M  V30 2437 C 239.03 0.473172 -3.57482 0
M  V30 2438 O 238.134 1.56255 -3.81652 0
M  V30 2439 H 237.475 0.0096924 -0.663929 0
M  V30 2440 H 240.005 -0.595642 -1.95738 0
M  V30 2441 H 240.015 0.728825 -4.01438 0
M  V30 2442 H 238.69 -0.416873 -4.13805 0
M  V30 2443 H 237.267 1.29825 -3.49571 0
M  V30 2444 N 239.452 1.56882 -0.150215 0
M  V30 2445 C 240.698 1.96518 0.500834 0
M  V30 2446 C 241.031 1.03527 1.64304 0
M  V30 2447 O 240.306 0.0782751 1.94342 0
M  V30 2448 C 240.589 3.45822 1.00395 0
M  V30 2449 C 240.442 4.49591 -0.136983 0
M  V30 2450 C 241.761 3.97704 1.88467 0
M  V30 2451 H 238.88 0.714535 0.18058 0
M  V30 2452 H 241.522 1.88577 -0.232091 0
M  V30 2453 H 239.672 3.5272 1.62851 0
M  V30 2454 H 241.344 4.5477 -0.77343 0
M  V30 2455 H 239.587 4.26441 -0.795652 0
M  V30 2456 H 240.258 5.51402 0.256815 0
M  V30 2457 H 242.734 3.93304 1.35834 0
M  V30 2458 H 241.61 5.0263 2.20578 0
M  V30 2459 H 241.871 3.40252 2.82279 0
M  V30 2460 N 240.93 -0.123565 1.57115 0
M  V30 2461 C 242.176 -0.833386 1.84885 0
M  V30 2462 C 242.509 -1.79742 0.735292 0
M  V30 2463 O 241.784 -1.92764 -0.25925 0
M  V30 2464 C 242.067 -1.5873 3.23228 0
M  V30 2465 C 241.92 -0.643183 4.45178 0
M  V30 2466 C 243.239 -2.54453 3.59085 0
M  V30 2467 H 240.358 -0.301518 0.6725 0
M  V30 2468 H 243 -0.097778 1.89748 0
M  V30 2469 H 241.15 -2.21438 3.19214 0
M  V30 2470 H 242.822 -0.0253015 4.61293 0
M  V30 2471 H 241.065 0.0456139 4.33776 0
M  V30 2472 H 241.736 -1.20724 5.38637 0
M  V30 2473 H 244.212 -2.01853 3.63861 0
M  V30 2474 H 243.088 -3.04238 4.5687 0
M  V30 2475 H 243.349 -3.36906 2.86264 0
M  V30 2476 N 242.408 -1.52605 -0.393616 0
M  V30 2477 C 243.648 -1.6911 -1.1481 0
M  V30 2478 C 244.012 -0.41969 -1.87357 0
M  V30 2479 O 245.213 -0.461034 -2.64817 0
M  V30 2480 C 243.484 -2.88909 -2.10395 0
M  V30 2481 S 245.043 -3.25977 -2.93742 0
M  V30 2482 H 241.861 -0.595337 -0.38871 0
M  V30 2483 H 244.463 -1.90641 -0.433178 0
M  V30 2484 H 243.167 -3.79672 -1.55812 0
M  V30 2485 H 242.698 -2.69698 -2.86403 0
M  V30 2486 H 244.713 -2.75806 -4.12487 0
M  V30 2487 N 243.887 0.651787 -1.4349 0
M  V30 2488 C 245.133 1.41376 -1.45398 0
M  V30 2489 C 245.466 1.94041 -0.0784823 0
M  V30 2490 O 244.741 1.72379 0.900878 0
M  V30 2491 C 245.024 2.59414 -2.49752 0
M  V30 2492 C 244.877 2.12232 -3.96582 0
M  V30 2493 C 246.196 3.61626 -2.50827 0
M  V30 2494 H 243.315 0.512719 -0.529422 0
M  V30 2495 H 245.957 0.738796 -1.75048 0
M  V30 2496 H 244.107 3.16997 -2.246 0
M  V30 2497 H 245.779 1.59639 -4.32797 0
M  V30 2498 H 244.022 1.43592 -4.09346 0
M  V30 2499 H 244.693 2.9712 -4.65214 0
M  V30 2500 H 247.169 3.13805 -2.7325 0
M  V30 2501 H 246.045 4.41766 -3.25783 0
M  V30 2502 H 246.306 4.14314 -1.5426 0
M  V30 2503 N 245.365 1.30045 0.890287 0
M  V30 2504 C 246.611 1.18737 1.64406 0
M  V30 2505 C 246.944 -0.258525 1.92472 0
M  V30 2506 O 246.219 -1.18562 1.54186 0
M  V30 2507 C 246.502 2.01087 2.98724 0
M  V30 2508 C 246.355 3.53867 2.77665 0
M  V30 2509 C 247.674 1.84457 3.9958 0
M  V30 2510 H 244.793 0.432698 0.596608 0
M  V30 2511 H 247.435 1.5962 1.0306 0
M  V30 2512 H 245.585 1.66349 3.51084 0
M  V30 2513 H 247.257 3.98637 2.32133 0
M  V30 2514 H 245.5 3.78318 2.12269 0
M  V30 2515 H 246.171 4.06772 3.7315 0
M  V30 2516 H 248.647 2.14817 3.56361 0
M  V30 2517 H 247.523 2.44411 4.91482 0
M  V30 2518 H 247.784 0.802276 4.3476 0
M  V30 2519 N 246.843 -1.10192 1.12674 0
M  V30 2520 C 247.773 -2.18652 0.819362 0
M  V30 2521 C 248.754 -1.68698 -0.217915 0
M  V30 2522 O 249.939 -1.94041 -0.0785581 0
M  V30 2523 C 247.069 -3.46202 0.27594 0
M  V30 2524 C 246.023 -4.09444 1.24656 0
M  V30 2525 C 245.349 -5.31725 0.563258 0
M  V30 2526 C 246.649 -4.52863 2.60217 0
M  V30 2527 H 248.343 -2.44622 1.72628 0
M  V30 2528 H 245.889 -1.17571 0.831451 0
M  V30 2529 H 247.842 -4.21372 0.0486149 0
M  V30 2530 H 246.566 -3.1973 -0.666331 0
M  V30 2531 H 245.225 -3.36284 1.45974 0
M  V30 2532 H 244.873 -5.0153 -0.384235 0
M  V30 2533 H 244.573 -5.74991 1.21075 0
M  V30 2534 H 246.097 -6.09624 0.34503 0
M  V30 2535 H 247.511 -5.19294 2.42913 0
M  V30 2536 H 245.908 -5.06986 3.21068 0
M  V30 2537 H 246.978 -3.65656 3.18471 0
M  V30 2538 N 248.321 -0.919034 -1.28029 0
M  V30 2539 C 249.567 -0.555757 -1.95036 0
M  V30 2540 C 249.9 0.899198 -1.72128 0
M  V30 2541 O 249.175 1.64023 -1.04531 0
M  V30 2542 C 249.458 -0.872024 -3.49382 0
M  V30 2543 C 249.311 -2.3801 -3.81669 0
M  V30 2544 C 250.63 -0.37185 -4.38526 0
M  V30 2545 H 247.749 -0.203386 -0.708381 0
M  V30 2546 H 250.391 -1.14924 -1.51303 0
M  V30 2547 H 248.541 -0.366946 -3.86763 0
M  V30 2548 H 250.213 -2.9562 -3.54128 0
M  V30 2549 H 248.456 -2.83289 -3.28526 0
M  V30 2550 H 249.127 -2.55192 -4.8947 0
M  V30 2551 H 251.603 -0.804602 -4.08247 0
M  V30 2552 H 250.479 -0.622173 -5.45362 0
M  V30 2553 H 250.74 0.727934 -4.36066 0
M  V30 2554 N 249.799 1.42003 -0.683588 0
M  V30 2555 C 251.027 2.05746 -0.218182 0
M  V30 2556 C 251.442 1.51396 1.12804 0
M  V30 2557 O 250.799 0.657303 1.70252 0
M  V30 2558 C 250.85 3.61171 -0.154131 0
M  V30 2559 O 250.571 4.13508 -1.44716 0
M  V30 2560 C 252.072 4.42042 0.333713 0
M  V30 2561 H 249.292 0.662888 -0.10402 0
M  V30 2562 H 251.836 1.81987 -0.9328 0
M  V30 2563 H 249.991 3.84012 0.511231 0
M  V30 2564 H 250.405 5.07453 -1.32632 0
M  V30 2565 H 251.879 5.51028 0.327423 0
M  V30 2566 H 252.356 4.17269 1.37053 0
M  V30 2567 H 252.962 4.24239 -0.300222 0
M  V30 2568 N 251.277 0.427512 1.51691 0
M  V30 2569 C 252.24 -0.377132 2.26076 0
M  V30 2570 C 253.24 -0.958089 1.29141 0
M  V30 2571 O 254.43 -0.83408 1.52934 0
M  V30 2572 C 251.562 -1.53262 3.04506 0
M  V30 2573 H 252.755 0.27464 2.9864 0
M  V30 2574 H 250.308 0.180445 1.55255 0
M  V30 2575 H 251.043 -2.22072 2.36335 0
M  V30 2576 H 250.828 -1.12232 3.75694 0
M  V30 2577 H 252.318 -2.10135 3.60878 0
M  V30 2578 N 252.755 -1.56801 0.158532 0
M  V30 2579 C 254.002 -1.9649 -0.489679 0
M  V30 2580 C 254.33 -1.04394 -1.6411 0
M  V30 2581 O 253.585 -0.0754401 -1.95555 0
M  V30 2582 C 253.884 -3.4235 -1.02623 0
M  V30 2583 C 253.55 -4.50899 0.00794526 0
M  V30 2584 C 252.212 -4.80312 0.292207 0
M  V30 2585 C 254.564 -5.16333 0.710584 0
M  V30 2586 C 251.892 -5.72461 1.28472 0
M  V30 2587 C 254.244 -6.09553 1.69199 0
M  V30 2588 C 252.908 -6.37339 1.98383 0
M  V30 2589 H 252.178 -0.719009 -0.179186 0
M  V30 2590 H 254.825 -1.8989 0.247798 0
M  V30 2591 H 253.13 -3.45838 -1.84128 0
M  V30 2592 H 254.827 -3.70393 -1.53656 0
M  V30 2593 H 251.417 -4.28015 -0.22379 0
M  V30 2594 H 255.601 -4.93732 0.504174 0
M  V30 2595 H 250.857 -5.92278 1.51714 0
M  V30 2596 H 255.031 -6.59327 2.24189 0
M  V30 2597 H 252.658 -7.08546 2.7544 0
M  V30 2598 N 254.233 0.115231 -1.57178 0
M  V30 2599 C 255.181 1.16014 -2.01602 0
M  V30 2600 C 256.175 1.42653 -0.913587 0
M  V30 2601 O 257.381 1.42571 -1.09879 0
M  V30 2602 H 253.756 0.391252 -0.642204 0
M  V30 2603 H 255.727 0.758998 -2.88586 0
M  V30 2604 C 254.476 2.47767 -2.4394 0
M  V30 2605 H 253.799 2.28108 -3.28339 0
M  V30 2606 H 255.239 3.19432 -2.78818 0
M  V30 2607 C 253.698 3.10617 -1.30455 0
M  V30 2608 O 254.228 3.96846 -0.622585 0
M  V30 2609 N 252.434 2.70553 -1.06064 0
M  V30 2610 H 251.981 2.00527 -1.61699 0
M  V30 2611 H 251.939 3.12934 -0.303284 0
M  V30 2612 N 255.711 1.52812 0.385517 0
M  V30 2613 C 256.988 1.5861 1.14465 0
M  V30 2614 C 257.368 0.381402 2.07626 0
M  V30 2615 O 256.716 -0.629999 2.19643 0
M  V30 2616 C 256.926 2.92664 1.90128 0
M  V30 2617 C 258.274 3.46526 2.45367 0
M  V30 2618 O 259.298 2.94562 2.0028 0
M  V30 2619 O 258.157 4.37323 3.27736 0
M  V30 2620 H 255.251 0.639855 0.523941 0
M  V30 2621 H 257.797 1.65149 0.390389 0
M  V30 2622 H 256.569 3.71788 1.22022 0
M  V30 2623 H 256.192 2.89527 2.72507 0
M  V30 2624 N 257.189 -0.644168 1.43834 0
M  V30 2625 C 258.435 -1.40431 1.47141 0
M  V30 2626 C 258.79 -1.92153 0.0975577 0
M  V30 2627 O 258.083 -1.69924 -0.885232 0
M  V30 2628 C 258.277 -2.59615 2.45631 0
M  V30 2629 C 258.106 -2.1956 3.92458 0
M  V30 2630 C 256.876 -2.07456 4.60749 0
M  V30 2631 C 259.074 -1.79281 4.8204 0
M  V30 2632 N 257.056 -1.60827 5.92459 0
M  V30 2633 C 258.427 -1.43801 6.03093 0
M  V30 2634 C 260.482 -1.66545 4.6922 0
M  V30 2635 C 259.185 -0.968599 7.12749 0
M  V30 2636 C 261.211 -1.21008 5.78888 0
M  V30 2637 C 260.573 -0.864711 6.99072 0
M  V30 2638 H 256.672 -0.509182 0.593513 0
M  V30 2639 H 259.256 -0.740351 1.80075 0
M  V30 2640 H 257.427 -3.23658 2.1471 0
M  V30 2641 H 259.159 -3.26357 2.39318 0
M  V30 2642 H 255.914 -2.275 4.1538 0
M  V30 2643 H 256.338 -1.39848 6.62398 0
M  V30 2644 H 260.98 -1.91883 3.7675 0
M  V30 2645 H 258.698 -0.702715 8.05039 0
M  V30 2646 H 262.284 -1.11631 5.7099 0
M  V30 2647 H 261.164 -0.517736 7.82489 0
M  V30 2648 N 258.668 -1.30515 -0.883378 0
M  V30 2649 C 259.893 -1.22487 -1.67367 0
M  V30 2650 C 260.318 0.208767 -1.86938 0
M  V30 2651 O 259.676 1.15015 -1.40148 0
M  V30 2652 C 259.724 -1.96041 -3.02655 0
M  V30 2653 O 258.828 -1.28859 -3.91751 0
M  V30 2654 H 258.169 -0.423573 -0.511353 0
M  V30 2655 H 260.699 -1.72362 -1.10239 0
M  V30 2656 H 260.709 -2.05124 -3.52687 0
M  V30 2657 H 259.384 -3.00307 -2.8773 0
M  V30 2658 H 257.961 -1.28141 -3.50192 0
M  V30 2659 N 260.146 1.09593 -1.13257 0
M  V30 2660 C 261.093 2.1618 -0.808381 0
M  V30 2661 C 262.063 1.64517 0.228754 0
M  V30 2662 O 263.248 1.9053 0.101381 0
M  V30 2663 C 260.388 3.43973 -0.278675 0
M  V30 2664 C 259.501 4.09545 -1.37466 0
M  V30 2665 C 258.636 5.25088 -0.803479 0
M  V30 2666 C 257.675 5.82579 -1.87799 0
M  V30 2667 N 256.812 6.89486 -1.32488 0
M  V30 2668 H 261.652 2.43254 -1.72138 0
M  V30 2669 H 259.189 1.19392 -0.859294 0
M  V30 2670 H 261.147 4.17174 0.0465583 0
M  V30 2671 H 259.777 3.17223 0.597459 0
M  V30 2672 H 258.829 3.34226 -1.81652 0
M  V30 2673 H 260.141 4.48307 -2.18684 0
M  V30 2674 H 259.295 6.05178 -0.429427 0
M  V30 2675 H 258.034 4.87684 0.0397956 0
M  V30 2676 H 257.039 5.01152 -2.26113 0
M  V30 2677 H 258.264 6.22045 -2.72463 0
M  V30 2678 H 256.21 6.54064 -0.503575 0
M  V30 2679 H 256.127 7.27007 -2.07355 0
M  V30 2680 H 257.395 7.73336 -0.978336 0
M  V30 2681 N 261.624 0.925811 1.2754 0
M  V30 2682 C 262.534 0.428993 2.30644 0
M  V30 2683 C 263.55 -0.489387 1.66976 0
M  V30 2684 O 264.726 -0.372653 1.97922 0
M  V30 2685 C 261.791 -0.311967 3.45294 0
M  V30 2686 C 260.852 0.641098 4.24486 0
M  V30 2687 C 260.085 -0.0645955 5.33661 0
M  V30 2688 O 260.308 -1.28429 5.55754 0
M  V30 2689 O 259.242 0.606265 5.98839 0
M  V30 2690 H 263.068 1.28504 2.75173 0
M  V30 2691 H 260.653 0.691086 1.32455 0
M  V30 2692 H 262.535 -0.729972 4.15029 0
M  V30 2693 H 261.21 -1.14365 3.02824 0
M  V30 2694 H 260.117 1.10874 3.57292 0
M  V30 2695 H 261.45 1.43995 4.70666 0
M  V30 2696 N 263.102 -1.41638 0.69111 0
M  V30 2697 C 264.049 -2.30789 0.0229705 0
M  V30 2698 C 265.019 -1.46863 -0.775911 0
M  V30 2699 O 266.204 -1.75661 -0.74485 0
M  V30 2700 C 263.344 -3.32868 -0.910666 0
M  V30 2701 C 262.457 -4.31875 -0.103874 0
M  V30 2702 C 261.592 -5.21024 -1.03475 0
M  V30 2703 C 260.631 -6.11702 -0.220598 0
M  V30 2704 N 259.768 -6.93349 -1.10504 0
M  V30 2705 H 264.608 -2.87366 0.788978 0
M  V30 2706 H 262.145 -1.41535 0.400794 0
M  V30 2707 H 264.103 -3.90596 -1.46597 0
M  V30 2708 H 262.733 -2.77851 -1.64312 0
M  V30 2709 H 261.785 -3.76131 0.568285 0
M  V30 2710 H 263.097 -4.96003 0.527504 0
M  V30 2711 H 262.251 -5.83565 -1.65943 0
M  V30 2712 H 260.99 -4.57112 -1.69999 0
M  V30 2713 H 259.995 -5.48215 0.417187 0
M  V30 2714 H 261.22 -6.77668 0.440784 0
M  V30 2715 H 259.166 -6.3205 -1.75638 0
M  V30 2716 H 259.083 -7.54146 -0.529125 0
M  V30 2717 H 260.351 -7.60362 -1.71667 0
M  V30 2718 N 264.58 -0.43555 -1.51462 0
M  V30 2719 C 265.512 0.41257 -2.25456 0
M  V30 2720 C 266.525 0.987822 -1.29406 0
M  V30 2721 O 267.714 0.882266 -1.55172 0
M  V30 2722 C 264.814 1.58894 -2.99342 0
M  V30 2723 C 263.987 1.13288 -4.22474 0
M  V30 2724 C 263.046 2.17917 -4.78956 0
M  V30 2725 O 262.072 1.77425 -5.40841 0
M  V30 2726 N 263.274 3.50382 -4.62832 0
M  V30 2727 H 266.039 -0.221603 -2.9888 0
M  V30 2728 H 263.6 -0.264342 -1.59727 0
M  V30 2729 H 265.592 2.28508 -3.34015 0
M  V30 2730 H 264.162 2.12849 -2.28941 0
M  V30 2731 H 263.382 0.263881 -3.93316 0
M  V30 2732 H 264.67 0.805542 -5.02383 0
M  V30 2733 H 264.068 3.86013 -4.13534 0
M  V30 2734 H 262.625 4.15895 -5.01871 0
M  V30 2735 N 266.058 1.56714 -0.166846 0
M  V30 2736 C 267.305 1.96747 0.479252 0
M  V30 2737 C 267.633 1.05263 1.63554 0
M  V30 2738 O 266.888 0.0858098 1.95512 0
M  V30 2739 C 267.187 3.42889 1.00806 0
M  V30 2740 C 266.853 4.50889 -0.0318574 0
M  V30 2741 C 265.515 4.8015 -0.317675 0
M  V30 2742 C 267.867 5.15949 -0.737956 0
M  V30 2743 C 265.195 5.71772 -1.31506 0
M  V30 2744 C 267.547 6.08647 -1.72429 0
M  V30 2745 C 266.211 6.36277 -2.0176 0
M  V30 2746 H 265.481 0.719949 0.175371 0
M  V30 2747 H 268.128 1.89756 -0.257864 0
M  V30 2748 H 266.433 3.4681 1.82291 0
M  V30 2749 H 268.13 3.71203 1.51689 0
M  V30 2750 H 264.72 4.28128 0.201088 0
M  V30 2751 H 268.904 4.93458 -0.530351 0
M  V30 2752 H 264.16 5.91465 -1.54853 0
M  V30 2753 H 268.334 6.58129 -2.27682 0
M  V30 2754 H 265.961 7.07075 -2.79194 0
M  V30 2755 N 267.536 -0.106894 1.57237 0
M  V30 2756 C 268.952 -0.46078 1.52804 0
M  V30 2757 C 269.152 -1.81184 0.881746 0
M  V30 2758 O 268.208 -2.48102 0.469224 0
M  V30 2759 C 269.521 -0.434127 2.9755 0
M  V30 2760 C 271.069 -0.516821 3.08704 0
M  V30 2761 C 271.544 -0.520436 4.55033 0
M  V30 2762 N 273.035 -0.58153 4.59535 0
M  V30 2763 C 273.77 -0.605973 5.70189 0
M  V30 2764 N 273.266 -0.587331 6.90306 0
M  V30 2765 N 275.059 -0.649895 5.5833 0
M  V30 2766 H 267.21 0.778203 1.9763 0
M  V30 2767 H 269.473 0.288403 0.903066 0
M  V30 2768 H 269.179 0.491197 3.48253 0
M  V30 2769 H 269.053 -1.25748 3.55622 0
M  V30 2770 H 271.44 -1.43256 2.57995 0
M  V30 2771 H 271.521 0.334449 2.53604 0
M  V30 2772 H 271.165 0.391313 5.0639 0
M  V30 2773 H 271.095 -1.38876 5.07958 0
M  V30 2774 H 273.586 -0.60161 3.73081 0
M  V30 2775 H 273.899 -0.60894 7.70397 0
M  V30 2776 H 272.244 -0.554564 6.92784 0
M  V30 2777 H 275.435 -0.661907 4.63397 0
M  V30 2778 H 275.608 -0.665476 6.44574 0
M  V30 2779 N 269.014 -1.53014 -0.377408 0
M  V30 2780 C 270.262 -1.6829 -1.11906 0
M  V30 2781 C 270.583 -0.431206 -1.90173 0
M  V30 2782 O 269.853 0.554595 -1.87886 0
M  V30 2783 H 268.433 -0.620371 -0.416112 0
M  V30 2784 H 271.095 -1.90167 -0.426893 0
M  V30 2785 H 270.191 -2.53862 -1.8155 0
M  V30 2786 N 270.492 0.636531 -1.44174 0
M  V30 2787 C 271.422 1.76003 -1.53444 0
M  V30 2788 C 272.403 1.65619 -0.387841 0
M  V30 2789 O 273.588 1.84461 -0.607257 0
M  V30 2790 C 270.718 3.14511 -1.4731 0
M  V30 2791 C 269.672 3.39677 -2.60391 0
M  V30 2792 C 268.998 4.78159 -2.39308 0
M  V30 2793 C 270.298 3.32772 -4.02567 0
M  V30 2794 H 271.992 1.68501 -2.47483 0
M  V30 2795 H 269.538 0.809237 -1.19111 0
M  V30 2796 H 271.491 3.92878 -1.52397 0
M  V30 2797 H 270.215 3.22783 -0.49785 0
M  V30 2798 H 268.874 2.63688 -2.54684 0
M  V30 2799 H 268.522 4.83128 -1.39988 0
M  V30 2800 H 268.222 4.95956 -3.15122 0
M  V30 2801 H 269.746 5.58762 -2.46205 0
M  V30 2802 H 271.16 4.01051 -4.09672 0
M  V30 2803 H 269.557 3.62104 -4.7854 0
M  V30 2804 H 270.627 2.30669 -4.2652 0
M  V30 2805 N 271.97 1.30982 0.876444 0
M  V30 2806 C 272.902 1.13902 1.98894 0
M  V30 2807 C 273.915 0.0798815 1.62604 0
M  V30 2808 O 275.104 0.326743 1.75484 0
M  V30 2809 C 272.204 0.716699 3.31235 0
M  V30 2810 C 271.377 1.85945 3.95908 0
M  V30 2811 C 270.436 1.42426 5.06558 0
M  V30 2812 O 269.462 2.13287 5.27729 0
M  V30 2813 N 270.664 0.308025 5.79682 0
M  V30 2814 H 273.429 2.09724 2.14094 0
M  V30 2815 H 270.99 1.2323 1.05004 0
M  V30 2816 H 272.982 0.408403 4.02634 0
M  V30 2817 H 271.552 -0.149719 3.12241 0
M  V30 2818 H 270.772 2.33541 3.17573 0
M  V30 2819 H 272.06 2.62503 4.35855 0
M  V30 2820 H 271.458 -0.282241 5.64995 0
M  V30 2821 H 270.015 0.0592282 6.51773 0
M  V30 2822 N 273.449 -1.08991 1.13837 0
M  V30 2823 C 274.674 -1.85551 0.926585 0
M  V30 2824 C 275.099 -1.80782 -0.519566 0
M  V30 2825 O 274.457 -1.18855 -1.36906 0
M  V30 2826 C 274.505 -3.31266 1.42462 0
M  V30 2827 O 273.609 -4.07822 0.612789 0
M  V30 2828 H 272.95 -0.575192 0.331738 0
M  V30 2829 H 275.48 -1.37604 1.51414 0
M  V30 2830 H 275.49 -3.82112 1.43019 0
M  V30 2831 H 274.165 -3.34052 2.47754 0
M  V30 2832 H 272.742 -3.66731 0.675463 0
M  V30 2833 N 274.927 -0.932562 -1.27047 0
M  V30 2834 C 276.343 -0.633544 -1.46487 0
M  V30 2835 C 276.543 0.815746 -1.84249 0
M  V30 2836 O 275.599 1.59319 -1.95892 0
M  V30 2837 C 276.912 -1.58758 -2.55375 0
M  V30 2838 C 278.46 -1.59634 -2.69232 0
M  V30 2839 C 278.935 -2.53747 -3.81283 0
M  V30 2840 N 280.426 -2.51982 -3.88664 0
M  V30 2841 C 281.161 -3.21491 -4.74796 0
M  V30 2842 N 280.657 -4.00395 -5.65381 0
M  V30 2843 N 282.45 -3.10485 -4.68568 0
M  V30 2844 H 274.601 -1.86946 -1.00821 0
M  V30 2845 H 276.864 -0.802897 -0.504044 0
M  V30 2846 H 276.57 -2.62172 -2.34432 0
M  V30 2847 H 276.444 -1.33301 -3.52861 0
M  V30 2848 H 278.831 -0.569488 -2.89553 0
M  V30 2849 H 278.912 -1.89142 -1.72218 0
M  V30 2850 H 278.556 -3.56545 -3.61715 0
M  V30 2851 H 278.486 -2.21532 -4.77735 0
M  V30 2852 H 280.977 -1.94681 -3.23895 0
M  V30 2853 H 281.29 -4.50406 -6.27976 0
M  V30 2854 H 279.635 -4.04498 -5.65161 0
M  V30 2855 H 282.826 -2.48331 -3.96799 0
M  V30 2856 H 282.999 -3.64925 -5.35475 0
M  V30 2857 N 276.405 1.4127 -0.698611 0
M  V30 2858 C 277.654 2.00408 -0.227949 0
M  V30 2859 C 277.967 1.55981 1.18023 0
M  V30 2860 O 279.173 2.07699 1.74852 0
M  V30 2861 C 277.629 3.58129 -0.356636 0
M  V30 2862 C 277.237 4.11536 -1.77037 0
M  V30 2863 C 278.981 4.24466 0.0540969 0
M  V30 2864 C 276.888 5.61701 -1.85055 0
M  V30 2865 H 275.818 0.749586 -0.0814657 0
M  V30 2866 H 278.469 1.61713 -0.867249 0
M  V30 2867 H 276.851 3.94442 0.350965 0
M  V30 2868 H 278.025 3.86636 -2.50698 0
M  V30 2869 H 276.34 3.57736 -2.13105 0
M  V30 2870 H 278.937 5.34698 0.0146723 0
M  V30 2871 H 279.28 4.01687 1.09332 0
M  V30 2872 H 279.813 3.93198 -0.603337 0
M  V30 2873 H 276.552 5.89312 -2.8704 0
M  V30 2874 H 276.072 5.88519 -1.15783 0
M  V30 2875 H 277.751 6.26524 -1.61484 0
M  V30 2876 N 277.883 0.443576 1.51229 0
M  V30 2877 C 278.793 -0.370721 2.31652 0
M  V30 2878 C 279.809 -1.02186 1.40833 0
M  V30 2879 O 280.985 -1.01586 1.73903 0
M  V30 2880 C 278.05 -1.45376 3.14749 0
M  V30 2881 C 277.111 -0.822099 4.21355 0
M  V30 2882 C 276.344 -1.85353 5.0048 0
M  V30 2883 O 276.567 -3.07656 4.80316 0
M  V30 2884 O 275.501 -1.4406 5.84406 0
M  V30 2885 H 279.327 0.286002 3.0235 0
M  V30 2886 H 276.912 0.20598 1.47973 0
M  V30 2887 H 278.794 -2.08173 3.66391 0
M  V30 2888 H 277.469 -2.09445 2.46809 0
M  V30 2889 H 276.376 -0.155909 3.73775 0
M  V30 2890 H 277.709 -0.224797 4.91686 0
M  V30 2891 N 279.361 -1.56624 0.175154 0
M  V30 2892 C 280.293 -2.15333 -0.785128 0
M  V30 2893 C 281.306 -1.1099 -1.19101 0
M  V30 2894 O 282.495 -1.38162 -1.13019 0
M  V30 2895 C 279.595 -2.68427 -2.06882 0
M  V30 2896 C 278.768 -3.97466 -1.8259 0
M  V30 2897 C 277.827 -4.35585 -2.95215 0
M  V30 2898 O 276.853 -5.03389 -2.65684 0
M  V30 2899 N 278.055 -3.97457 -4.23094 0
M  V30 2900 H 280.82 -2.98359 -0.283187 0
M  V30 2901 H 278.381 -1.61898 -0.00749817 0
M  V30 2902 H 280.373 -2.90924 -2.81328 0
M  V30 2903 H 278.943 -1.89968 -2.48256 0
M  V30 2904 H 278.163 -3.83307 -0.920287 0
M  V30 2905 H 279.451 -4.81736 -1.63733 0
M  V30 2906 H 278.849 -3.42878 -4.49945 0
M  V30 2907 H 277.406 -4.24947 -4.9423 0
M  V30 2908 N 280.839 0.0985539 -1.57292 0
M  V30 2909 C 281.749 1.13824 -2.05137 0
M  V30 2910 C 282.765 1.44076 -0.975604 0
M  V30 2911 O 283.941 1.54786 -1.28853 0
M  V30 2912 C 281.006 2.43969 -2.46333 0
M  V30 2913 C 280.067 2.2093 -3.68087 0
M  V30 2914 C 279.3 3.44869 -4.0731 0
M  V30 2915 O 279.523 4.52972 -3.46659 0
M  V30 2916 O 278.457 3.34661 -5.00285 0
M  V30 2917 H 282.283 0.761881 -2.93988 0
M  V30 2918 H 279.868 0.310818 -1.46131 0
M  V30 2919 H 281.75 3.20609 -2.73473 0
M  V30 2920 H 280.425 2.81038 -1.60621 0
M  V30 2921 H 279.332 1.42081 -3.46069 0
M  V30 2922 H 280.665 1.88755 -4.54568 0
M  V30 2923 N 282.317 1.53212 0.369288 0
M  V30 2924 C 283.249 1.75668 1.47219 0
M  V30 2925 C 284.262 0.637387 1.49804 0
M  V30 2926 O 285.451 0.913561 1.5335 0
M  V30 2927 C 282.551 1.81818 2.85999 0
M  V30 2928 C 281.724 3.11409 3.07153 0
M  V30 2929 C 280.783 3.08849 4.26026 0
M  V30 2930 O 279.809 3.82659 4.2138 0
M  V30 2931 N 281.011 2.29409 5.33246 0
M  V30 2932 H 283.776 2.70832 1.28337 0
M  V30 2933 H 281.337 1.51944 0.55898 0
M  V30 2934 H 283.329 1.77588 3.63655 0
M  V30 2935 H 281.899 0.939544 2.98146 0
M  V30 2936 H 281.119 3.28971 2.1719 0
M  V30 2937 H 282.407 3.97059 3.18154 0
M  V30 2938 H 281.805 1.68946 5.39883 0
M  V30 2939 H 280.362 2.31001 6.09493 0
M  V30 2940 N 283.795 -0.628877 1.44509 0
M  V30 2941 C 284.742 -1.74074 1.51549 0
M  V30 2942 C 285.712 -1.62084 0.363021 0
M  V30 2943 O 286.897 -1.81975 0.573567 0
M  V30 2944 C 284.037 -3.12328 1.46784 0
M  V30 2945 C 283.15 -3.35277 2.72422 0
M  V30 2946 C 282.285 -4.63515 2.59475 0
M  V30 2947 C 281.324 -4.7965 3.80266 0
M  V30 2948 N 280.461 -5.99168 3.65981 0
M  V30 2949 H 285.301 -1.67392 2.46544 0
M  V30 2950 H 282.838 -0.816527 1.22357 0
M  V30 2951 H 284.796 -3.92286 1.42012 0
M  V30 2952 H 283.426 -3.18018 0.553544 0
M  V30 2953 H 282.478 -2.49242 2.87372 0
M  V30 2954 H 283.79 -3.43078 3.62076 0
M  V30 2955 H 282.944 -5.51638 2.52548 0
M  V30 2956 H 281.683 -4.58076 1.67384 0
M  V30 2957 H 280.688 -3.89957 3.87574 0
M  V30 2958 H 281.913 -4.86902 4.73395 0
M  V30 2959 H 279.859 -5.94814 2.76644 0
M  V30 2960 H 279.776 -6.08035 4.49254 0
M  V30 2961 H 281.044 -6.89846 3.6295 0
M  V30 2962 N 285.273 -1.31445 -0.869486 0
M  V30 2963 C 286.52 -1.21158 -1.62256 0
M  V30 2964 C 286.848 0.230155 -1.93133 0
M  V30 2965 O 286.103 1.17906 -1.56194 0
M  V30 2966 C 286.402 -2.00145 -2.96102 0
M  V30 2967 C 286.068 -3.4964 -2.84715 0
M  V30 2968 C 284.73 -3.90403 -2.81317 0
M  V30 2969 C 287.082 -4.44769 -2.71716 0
M  V30 2970 C 284.41 -5.24561 -2.62778 0
M  V30 2971 C 286.762 -5.79054 -2.54714 0
M  V30 2972 C 285.426 -6.19037 -2.49699 0
M  V30 2973 H 284.696 -0.443348 -0.593737 0
M  V30 2974 H 287.343 -1.62715 -1.00976 0
M  V30 2975 H 285.648 -1.5127 -3.6142 0
M  V30 2976 H 287.345 -1.89566 -3.53363 0
M  V30 2977 H 283.935 -3.17256 -2.88178 0
M  V30 2978 H 288.119 -4.14208 -2.73397 0
M  V30 2979 H 283.375 -5.54613 -2.57321 0
M  V30 2980 H 287.549 -6.52393 -2.43632 0
M  V30 2981 H 285.176 -7.22935 -2.35093 0
M  V30 2982 N 286.751 1.08385 -1.14413 0
M  V30 2983 C 287.979 1.84517 -0.936001 0
M  V30 2984 C 288.394 1.81626 0.515503 0
M  V30 2985 O 287.751 1.22008 1.35721 0
M  V30 2986 C 287.802 3.32049 -1.42918 0
M  V30 2987 O 287.523 3.34951 -2.82381 0
M  V30 2988 C 289.024 4.24986 -1.26103 0
M  V30 2989 H 286.244 0.582491 -0.333084 0
M  V30 2990 H 288.788 1.36885 -1.5193 0
M  V30 2991 H 286.943 3.7707 -0.888641 0
M  V30 2992 H 287.357 4.27048 -3.04517 0
M  V30 2993 H 288.831 5.26615 -1.6547 0
M  V30 2994 H 289.308 4.38726 -0.20392 0
M  V30 2995 H 289.914 3.85791 -1.79012 0
M  V30 2996 N 288.23 0.939286 1.26551 0
M  V30 2997 C 289.476 0.586715 1.94128 0
M  V30 2998 C 289.809 -0.8717 1.73537 0
M  V30 2999 O 289.084 -1.62339 1.07127 0
M  V30 3000 C 289.367 0.927497 3.4795 0
M  V30 3001 C 289.22 2.44052 3.77834 0
M  V30 3002 C 290.539 0.441569 4.37879 0
M  V30 3003 H 287.658 0.21463 0.705055 0
M  V30 3004 H 290.3 1.17316 1.49455 0
M  V30 3005 H 288.45 0.428431 3.8613 0
M  V30 3006 H 290.122 3.01216 3.4938 0
M  V30 3007 H 288.365 2.8848 3.23978 0
M  V30 3008 H 289.036 2.62947 4.85348 0
M  V30 3009 H 291.512 0.869448 4.06915 0
M  V30 3010 H 290.388 0.708856 5.44304 0
M  V30 3011 H 290.649 -0.658467 4.37169 0
M  V30 3012 N 289.708 -1.40897 0.706093 0
M  V30 3013 C 290.957 -2.00284 0.238574 0
M  V30 3014 C 291.27 -1.56604 -1.17194 0
M  V30 3015 O 292.476 -2.08624 -1.73748 0
M  V30 3016 C 290.932 -3.57934 0.375623 0
M  V30 3017 C 290.54 -4.10591 1.79217 0
M  V30 3018 C 292.284 -4.24488 -0.0315857 0
M  V30 3019 C 290.191 -5.60712 1.88032 0
M  V30 3020 H 289.121 -0.749144 0.0854398 0
M  V30 3021 H 291.772 -1.61251 0.875813 0
M  V30 3022 H 290.154 -3.94622 -0.330042 0
M  V30 3023 H 291.328 -3.85301 2.52745 0
M  V30 3024 H 289.643 -3.56601 2.15 0
M  V30 3025 H 292.24 -5.34698 0.0136842 0
M  V30 3026 H 292.583 -4.02261 -1.072 0
M  V30 3027 H 293.116 -3.92873 0.624181 0
M  V30 3028 H 289.855 -5.87781 2.90161 0
M  V30 3029 H 289.375 -5.87896 1.18903 0
M  V30 3030 H 291.054 -6.25658 1.64805 0
M  V30 3031 N 291.186 -0.45159 -1.50991 0
M  V30 3032 C 292.602 -0.104647 -1.59257 0
M  V30 3033 C 292.802 1.38728 -1.4614 0
M  V30 3034 O 291.858 2.15866 -1.30989 0
M  V30 3035 C 293.171 -0.637468 -2.93865 0
M  V30 3036 C 294.719 -0.599166 -3.07212 0
M  V30 3037 C 295.194 -1.1092 -4.44366 0
M  V30 3038 N 296.685 -1.06778 -4.50725 0
M  V30 3039 C 297.42 -1.43314 -5.55201 0
M  V30 3040 N 296.916 -1.87204 -6.67028 0
M  V30 3041 N 298.709 -1.3504 -5.45638 0
M  V30 3042 H 290.86 -1.42214 -1.57762 0
M  V30 3043 H 293.123 -0.586921 -0.744465 0
M  V30 3044 H 292.829 -1.68187 -3.08879 0
M  V30 3045 H 292.703 -0.0702139 -3.77135 0
M  V30 3046 H 295.09 0.436277 -2.91857 0
M  V30 3047 H 295.171 -1.20299 -2.25747 0
M  V30 3048 H 294.815 -2.14318 -4.60467 0
M  V30 3049 H 294.745 -0.481773 -5.24392 0
M  V30 3050 H 297.236 -0.745643 -3.70471 0
M  V30 3051 H 297.549 -2.13282 -7.42786 0
M  V30 3052 H 295.894 -1.91142 -6.68199 0
M  V30 3053 H 299.085 -1.00607 -4.57161 0
M  V30 3054 H 299.258 -1.63841 -6.26945 0
M  V30 3055 N 292.664 1.56529 -0.183458 0
M  V30 3056 C 293.912 1.96855 0.457452 0
M  V30 3057 C 294.233 1.07104 1.62953 0
M  V30 3058 O 293.503 0.139887 1.954 0
M  V30 3059 H 292.083 0.72693 0.171992 0
M  V30 3060 H 294.745 1.93056 -0.267476 0
M  V30 3061 H 293.841 3.01423 0.809368 0
M  V30 3062 N 294.142 -0.090211 1.57342 0
M  V30 3063 C 295.39 -0.791241 1.85967 0
M  V30 3064 C 295.711 -1.7903 0.772859 0
M  V30 3065 O 294.981 -1.94872 -0.200398 0
M  V30 3066 H 293.561 -0.295205 0.686195 0
M  V30 3067 H 296.223 -0.0706782 1.94772 0
M  V30 3068 H 295.319 -1.31882 2.82867 0
M  V30 3069 N 295.62 -1.53406 -0.361157 0
M  V30 3070 C 296.552 -1.76446 -1.46286 0
M  V30 3071 C 297.565 -0.645322 -1.49464 0
M  V30 3072 O 298.754 -0.921681 -1.52864 0
M  V30 3073 C 295.854 -1.83332 -2.85031 0
M  V30 3074 C 295.027 -3.13033 -3.05498 0
M  V30 3075 C 294.086 -3.11104 -4.24383 0
M  V30 3076 O 293.112 -3.84888 -4.19344 0
M  V30 3077 N 294.314 -2.32234 -5.32022 0
M  V30 3078 H 297.079 -2.71508 -1.26899 0
M  V30 3079 H 294.64 -1.52238 -0.550915 0
M  V30 3080 H 296.632 -1.79514 -3.62708 0
M  V30 3081 H 295.202 -0.955342 -2.97644 0
M  V30 3082 H 294.422 -3.30119 -2.15442 0
M  V30 3083 H 295.71 -3.9874 -3.16044 0
M  V30 3084 H 295.108 -1.71807 -5.38979 0
M  V30 3085 H 293.665 -2.3423 -6.08259 0
M  V30 3086 N 297.098 0.621204 -1.44841 0
M  V30 3087 C 298.344 1.3826 -1.48365 0
M  V30 3088 C 298.677 1.93831 -0.119624 0
M  V30 3089 O 297.952 1.74251 0.864111 0
M  V30 3090 C 298.235 2.54058 -2.55199 0
M  V30 3091 C 298.088 2.03772 -4.00995 0
M  V30 3092 C 299.407 3.56225 -2.58442 0
M  V30 3093 H 296.526 0.501374 -0.540179 0
M  V30 3094 H 299.168 0.7015 -1.76576 0
M  V30 3095 H 297.318 3.12162 -2.31274 0
M  V30 3096 H 298.99 1.50423 -4.36086 0
M  V30 3097 H 297.233 1.34876 -4.12299 0
M  V30 3098 H 297.904 2.87185 -4.71411 0
M  V30 3099 H 300.38 3.07939 -2.79844 0
M  V30 3100 H 299.256 4.34756 -3.3508 0
M  V30 3101 H 299.517 4.10949 -1.63013 0
M  V30 3102 N 298.576 1.31904 0.862503 0
M  V30 3103 C 299.825 1.21373 1.61094 0
M  V30 3104 C 300.138 -0.22504 1.94301 0
M  V30 3105 O 301.344 -0.452121 2.67709 0
M  V30 3106 C 299.8 2.12525 2.9045 0
M  V30 3107 C 299.408 3.61441 2.64697 0
M  V30 3108 C 301.152 2.10813 3.68454 0
M  V30 3109 C 299.059 4.44578 3.90006 0
M  V30 3110 H 297.989 0.450705 0.604468 0
M  V30 3111 H 300.64 1.56811 0.953027 0
M  V30 3112 H 299.022 1.69994 3.57656 0
M  V30 3113 H 300.196 4.12264 2.05851 0
M  V30 3114 H 298.511 3.65205 2.00036 0
M  V30 3115 H 301.108 2.70167 4.61426 0
M  V30 3116 H 301.451 1.09713 4.01583 0
M  V30 3117 H 301.984 2.51583 3.08141 0
M  V30 3118 H 298.723 5.46461 3.62023 0
M  V30 3119 H 298.243 3.98508 4.48276 0
M  V30 3120 H 299.922 4.57176 4.5782 0
M  V30 3121 N 300.054 -1.07777 1.14986 0
M  V30 3122 C 300.986 -2.14769 0.800436 0
M  V30 3123 C 301.999 -1.61739 -0.185595 0
M  V30 3124 O 303.188 -1.78462 0.0370358 0
M  V30 3125 C 300.288 -3.38481 0.168533 0
M  V30 3126 C 299.461 -4.20876 1.1909 0
M  V30 3127 C 298.52 -5.22976 0.581575 0
M  V30 3128 O 297.546 -5.55388 1.24633 0
M  V30 3129 N 298.748 -5.76976 -0.638706 0
M  V30 3130 H 301.513 -2.45348 1.72118 0
M  V30 3131 H 299.074 -1.23645 1.04515 0
M  V30 3132 H 301.066 -4.03916 -0.251764 0
M  V30 3133 H 299.636 -3.05651 -0.655467 0
M  V30 3134 H 298.856 -3.51322 1.78791 0
M  V30 3135 H 300.144 -4.7274 1.88133 0
M  V30 3136 H 299.542 -5.52886 -1.19723 0
M  V30 3137 H 298.099 -6.44061 -1.00142 0
M  V30 3138 N 301.532 -0.945985 -1.26051 0
M  V30 3139 C 302.781 -0.591836 -1.92822 0
M  V30 3140 C 303.094 0.873956 -1.7499 0
M  V30 3141 O 304.3 1.33769 -2.36259 0
M  V30 3142 C 302.756 -1.00776 -3.45503 0
M  V30 3143 C 302.364 -2.4955 -3.7206 0
M  V30 3144 C 304.108 -0.725735 -4.1825 0
M  V30 3145 C 302.015 -2.84988 -5.18205 0
M  V30 3146 H 300.945 -0.217635 -0.721908 0
M  V30 3147 H 303.596 -1.14927 -1.43052 0
M  V30 3148 H 301.978 -0.378812 -3.94184 0
M  V30 3149 H 303.152 -3.1739 -3.34066 0
M  V30 3150 H 301.467 -2.75133 -3.12555 0
M  V30 3151 H 304.064 -0.966771 -5.25887 0
M  V30 3152 H 304.407 0.337639 -4.14929 0
M  V30 3153 H 304.94 -1.31463 -3.7545 0
M  V30 3154 H 301.679 -3.90307 -5.26631 0
M  V30 3155 H 301.199 -2.21813 -5.57278 0
M  V30 3156 H 302.878 -2.73712 -5.86252 0
M  V30 3157 N 303.011 1.40521 -0.713556 0
M  V30 3158 C 304.422 1.83853 -0.324807 0
M  V30 3159 C 304.773 1.59667 1.14021 0
M  V30 3160 O 303.898 1.07649 1.87725 0
M  V30 3161 C 304.493 3.33751 -0.582746 0
M  V30 3162 C 303.052 3.75584 -0.247727 0
M  V30 3163 C 302.199 2.63753 -0.856121 0
M  V30 3164 H 305.15 1.29817 -0.91286 0
M  V30 3165 H 305.171 3.80194 0.152682 0
M  V30 3166 H 304.683 3.51322 -1.64908 0
M  V30 3167 H 302.784 3.63608 0.813624 0
M  V30 3168 H 302.897 4.7373 -0.715307 0
M  V30 3169 H 301.261 2.53108 -0.28432 0
M  V30 3170 H 302.044 2.84137 -1.92668 0
M  V30 3171 N 304.489 0.459591 1.5075 0
M  V30 3172 C 305.735 -0.0994966 2.02556 0
M  V30 3173 C 306.068 -1.40399 1.3417 0
M  V30 3174 O 305.343 -1.88892 0.463683 0
M  V30 3175 C 305.626 -0.295242 3.58888 0
M  V30 3176 C 305.479 1.02947 4.37861 0
M  V30 3177 C 306.798 -1.05502 4.27267 0
M  V30 3178 H 303.917 -0.034686 0.736183 0
M  V30 3179 H 306.559 0.602938 1.8018 0
M  V30 3180 H 304.709 -0.893563 3.78084 0
M  V30 3181 H 306.381 1.66348 4.30263 0
M  V30 3182 H 304.624 1.62885 4.02058 0
M  V30 3183 H 305.295 0.846281 5.45474 0
M  V30 3184 H 307.771 -0.547993 4.12476 0
M  V30 3185 H 306.647 -1.16077 5.36486 0
M  V30 3186 H 306.908 -2.08875 3.89645 0
M  V30 3187 N 305.967 -1.56429 0.191757 0
M  V30 3188 C 306.93 -2.17707 -0.716688 0
M  V30 3189 C 307.93 -1.13061 -1.14341 0
M  V30 3190 O 309.12 -1.38464 -1.05704 0
M  V30 3191 C 306.252 -2.77644 -1.97804 0
M  V30 3192 H 307.445 -2.99342 -0.1829 0
M  V30 3193 H 304.998 -1.56193 -0.0578566 0
M  V30 3194 H 305.733 -1.99799 -2.55443 0
M  V30 3195 H 305.518 -3.54246 -1.68083 0
M  V30 3196 H 307.008 -3.24708 -2.62592 0
M  V30 3197 N 307.445 0.0818655 -1.57387 0
M  V30 3198 C 308.722 0.815343 -1.77796 0
M  V30 3199 C 309.102 1.96289 -0.77679 0
M  V30 3200 O 308.45 2.27691 0.192106 0
M  V30 3201 C 308.66 1.29765 -3.23978 0
M  V30 3202 C 310.008 1.7351 -3.8753 0
M  V30 3203 O 311.032 1.39356 -3.27808 0
M  V30 3204 O 309.891 2.36708 -4.92576 0
M  V30 3205 H 306.985 0.389914 -0.729312 0
M  V30 3206 H 309.531 0.0627213 -1.69584 0
M  V30 3207 H 308.303 0.47608 -3.88393 0
M  V30 3208 H 307.926 2.11189 -3.36875 0
M  V30 3209 N 308.923 1.53595 0.353017 0
M  V30 3210 C 310.172 1.69603 1.09168 0
M  V30 3211 C 310.485 0.460925 1.90092 0
M  V30 3212 O 311.691 0.501774 2.66823 0
M  V30 3213 C 310.147 2.99872 1.9901 0
M  V30 3214 C 309.755 4.30687 1.23339 0
M  V30 3215 C 311.499 3.25246 2.72792 0
M  V30 3216 C 309.406 5.52036 2.12156 0
M  V30 3217 H 308.336 0.631966 0.411261 0
M  V30 3218 H 310.987 1.80096 0.351802 0
M  V30 3219 H 309.369 2.83212 2.7678 0
M  V30 3220 H 310.543 4.58019 0.505456 0
M  V30 3221 H 308.858 4.11853 0.613663 0
M  V30 3222 H 311.455 4.13095 3.39495 0
M  V30 3223 H 311.798 2.41846 3.38846 0
M  V30 3224 H 312.331 3.42638 2.021 0
M  V30 3225 H 309.07 6.37951 1.50659 0
M  V30 3226 H 308.59 5.28966 2.82764 0
M  V30 3227 H 310.269 5.87313 2.71427 0
M  V30 3228 N 310.401 -0.613514 1.45168 0
M  V30 3229 C 311.629 -1.39946 1.5239 0
M  V30 3230 C 312.044 -1.88167 0.154531 0
M  V30 3231 O 311.401 -1.61872 -0.842843 0
M  V30 3232 C 311.452 -2.60795 2.50337 0
M  V30 3233 O 311.173 -2.1458 3.81952 0
M  V30 3234 C 312.674 -3.53723 2.67198 0
M  V30 3235 H 309.894 -0.428593 0.516284 0
M  V30 3236 H 312.438 -0.748753 1.903 0
M  V30 3237 H 310.593 -3.21919 2.15515 0
M  V30 3238 H 311.007 -2.93055 4.34993 0
M  V30 3239 H 312.481 -4.35079 3.39721 0
M  V30 3240 H 312.958 -4.0368 1.73029 0
M  V30 3241 H 313.564 -2.98456 3.02992 0
M  V30 3242 N 311.879 -1.3236 -0.855495 0
M  V30 3243 C 313.125 -1.23054 -1.612 0
M  V30 3244 C 313.458 0.207404 -1.93089 0
M  V30 3245 O 312.733 1.14432 -1.57275 0
M  V30 3246 C 313.016 -2.08937 -2.93287 0
M  V30 3247 C 312.869 -3.61105 -2.68185 0
M  V30 3248 C 314.188 -1.94986 -3.94549 0
M  V30 3249 H 311.307 -0.448364 -0.584926 0
M  V30 3250 H 313.949 -1.62297 -0.987917 0
M  V30 3251 H 312.099 -1.75599 -3.46551 0
M  V30 3252 H 313.771 -4.04652 -2.21483 0
M  V30 3253 H 312.014 -3.83813 -2.02164 0
M  V30 3254 H 312.685 -4.16522 -3.62234 0
M  V30 3255 H 315.161 -2.24189 -3.5054 0
M  V30 3256 H 314.037 -2.57356 -4.84829 0
M  V30 3257 H 314.298 -0.917263 -4.3248 0
M  V30 3258 N 313.357 1.07166 -1.15556 0
M  V30 3259 C 314.605 1.79443 -0.929764 0
M  V30 3260 C 314.926 1.87246 0.544414 0
M  V30 3261 O 314.196 1.37473 1.39564 0
M  V30 3262 H 312.776 0.664625 -0.341003 0
M  V30 3263 H 315.438 1.29499 -1.45657 0
M  V30 3264 H 314.534 2.81832 -1.34079 0
M  V30 3265 N 314.835 0.952656 1.25548 0
M  V30 3266 C 316.112 0.523818 1.88456 0
M  V30 3267 C 316.492 -0.998871 1.85973 0
M  V30 3268 O 315.84 -1.86381 1.3219 0
M  V30 3269 C 316.05 1.0982 3.31271 0
M  V30 3270 C 317.398 1.17385 4.08051 0
M  V30 3271 O 318.422 1.04961 3.40384 0
M  V30 3272 O 317.281 1.36852 5.29088 0
M  V30 3273 H 314.375 0.172485 0.808813 0
M  V30 3274 H 316.921 1.04596 1.33633 0
M  V30 3275 H 315.693 2.1415 3.27499 0
M  V30 3276 H 315.316 0.559191 3.93648 0
M  V30 3277 N 316.313 -1.40141 0.720998 0
M  V30 3278 C 317.562 -2.0002 0.259804 0
M  V30 3279 C 317.875 -1.57839 -1.15526 0
M  V30 3280 O 319.081 -2.10455 -1.71525 0
M  V30 3281 C 317.537 -3.57516 0.413566 0
M  V30 3282 C 317.145 -4.08667 1.83562 0
M  V30 3283 C 318.889 -4.24498 0.0134387 0
M  V30 3284 C 316.796 -5.58686 1.93968 0
M  V30 3285 H 315.726 -0.748195 0.0933806 0
M  V30 3286 H 318.377 -1.60313 0.892866 0
M  V30 3287 H 316.759 -3.9495 -0.288169 0
M  V30 3288 H 317.933 -3.82598 2.56817 0
M  V30 3289 H 316.248 -3.543 2.1877 0
M  V30 3290 H 318.845 -5.34654 0.0703954 0
M  V30 3291 H 319.188 -4.03375 -1.02927 0
M  V30 3292 H 319.721 -3.92188 0.665815 0
M  V30 3293 H 316.46 -5.8467 2.96379 0
M  V30 3294 H 315.98 -5.86602 1.25131 0
M  V30 3295 H 317.659 -6.23875 1.71431 0
M  V30 3296 N 317.792 -0.46758 -1.50504 0
M  V30 3297 C 318.755 0.317059 -2.26996 0
M  V30 3298 C 319.755 0.923513 -1.31635 0
M  V30 3299 O 320.945 0.793239 -1.55091 0
M  V30 3300 C 318.077 1.45134 -3.08462 0
M  V30 3301 H 319.27 -0.353723 -2.97807 0
M  V30 3302 H 316.823 -0.221545 -1.54722 0
M  V30 3303 H 317.558 2.15728 -2.4214 0
M  V30 3304 H 317.343 1.02232 -3.78538 0
M  V30 3305 H 318.833 2.00493 -3.66323 0
M  V30 3306 N 319.27 1.56325 -0.20005 0
M  V30 3307 C 320.202 2.16555 0.750771 0
M  V30 3308 C 321.215 1.12871 1.1732 0
M  V30 3309 O 322.404 1.39943 1.10807 0
M  V30 3310 C 319.504 2.71684 2.02586 0
M  V30 3311 C 318.677 4.00321 1.76244 0
M  V30 3312 C 317.736 4.40227 2.88248 0
M  V30 3313 O 316.762 5.07552 2.57642 0
M  V30 3314 N 317.964 4.04138 4.16717 0
M  V30 3315 H 320.729 2.98772 0.235685 0
M  V30 3316 H 318.29 1.6189 -0.0182594 0
M  V30 3317 H 320.282 2.95363 2.76664 0
M  V30 3318 H 318.852 1.93893 2.45202 0
M  V30 3319 H 318.072 3.84723 0.85919 0
M  V30 3320 H 319.36 4.84279 1.56048 0
M  V30 3321 H 318.758 3.49993 4.44434 0
M  V30 3322 H 317.315 4.32756 4.87407 0
M  V30 3323 N 320.748 -0.0735177 1.57428 0
M  V30 3324 C 321.994 -0.774145 1.87443 0
M  V30 3325 C 322.327 -1.77311 0.792103 0
M  V30 3326 O 321.602 -1.93492 -0.197793 0
M  V30 3327 C 321.885 -1.48367 3.28115 0
M  V30 3328 C 321.738 -0.501227 4.46999 0
M  V30 3329 C 323.057 -2.429 3.66998 0
M  V30 3330 H 320.176 -0.279971 0.681752 0
M  V30 3331 H 322.818 -0.0373616 1.89963 0
M  V30 3332 H 320.968 -2.11171 3.26097 0
M  V30 3333 H 322.64 0.121468 4.6114 0
M  V30 3334 H 320.883 0.183593 4.33411 0
M  V30 3335 H 321.554 -1.03526 5.42205 0
M  V30 3336 H 324.03 -1.90175 3.70098 0
M  V30 3337 H 322.906 -2.89549 4.66318 0
M  V30 3338 H 323.167 -3.27628 2.96837 0
M  V30 3339 N 322.226 -1.5378 -0.344866 0
M  V30 3340 C 323.173 -1.81676 -1.42346 0
M  V30 3341 C 324.143 -0.662376 -1.52321 0
M  V30 3342 O 325.328 -0.906675 -1.67881 0
M  V30 3343 C 322.468 -2.03087 -2.79015 0
M  V30 3344 C 321.581 -3.30799 -2.77842 0
M  V30 3345 C 320.716 -3.42285 -4.0622 0
M  V30 3346 C 319.755 -4.6395 -3.9927 0
M  V30 3347 N 318.892 -4.72477 -5.19336 0
M  V30 3348 H 323.732 -2.73703 -1.17858 0
M  V30 3349 H 321.269 -1.35568 -0.570949 0
M  V30 3350 H 323.227 -2.1349 -3.58438 0
M  V30 3351 H 321.857 -1.14375 -3.01858 0
M  V30 3352 H 320.909 -3.29244 -1.90533 0
M  V30 3353 H 322.221 -4.20314 -2.68584 0
M  V30 3354 H 321.375 -3.52113 -4.94066 0
M  V30 3355 H 320.114 -2.50823 -4.18258 0
M  V30 3356 H 319.119 -4.54201 -3.09809 0
M  V30 3357 H 320.344 -5.56775 -3.88817 0
M  V30 3358 H 318.29 -3.83924 -5.3192 0
M  V30 3359 H 318.207 -5.55927 -5.12329 0
M  V30 3360 H 319.475 -4.86613 -6.08957 0
M  V30 3361 N 323.704 0.605807 -1.45491 0
M  V30 3362 C 324.934 1.38934 -1.52908 0
M  V30 3363 C 325.342 1.88513 -0.161086 0
M  V30 3364 O 324.685 1.62962 0.847891 0
M  V30 3365 C 324.747 2.62737 -2.45376 0
M  V30 3366 C 324.411 2.34785 -3.92078 0
M  V30 3367 C 325.408 1.95038 -4.8193 0
M  V30 3368 C 323.093 2.47642 -4.37011 0
M  V30 3369 C 325.087 1.68511 -6.14722 0
M  V30 3370 C 322.774 2.20728 -5.69844 0
M  V30 3371 C 323.772 1.81225 -6.58519 0
M  V30 3372 O 323.46 1.54627 -7.88889 0
M  V30 3373 H 323.192 0.431629 -0.520262 0
M  V30 3374 H 325.746 0.74573 -1.91384 0
M  V30 3375 H 323.976 3.29824 -2.01874 0
M  V30 3376 H 325.665 3.24783 -2.43456 0
M  V30 3377 H 326.431 1.84639 -4.48479 0
M  V30 3378 H 322.31 2.77356 -3.68232 0
M  V30 3379 H 325.854 1.37602 -6.83894 0
M  V30 3380 H 321.751 2.30744 -6.02849 0
M  V30 3381 H 322.519 1.68665 -8.00933 0
M  V30 3382 N 325.182 1.32811 0.848464 0
M  V30 3383 C 326.43 1.23479 1.59991 0
M  V30 3384 C 326.751 -0.201853 1.93952 0
M  V30 3385 O 326.021 -1.12818 1.60153 0
M  V30 3386 H 324.601 0.454034 0.593179 0
M  V30 3387 H 327.263 1.66412 1.01455 0
M  V30 3388 H 326.359 1.82178 2.53412 0
M  V30 3389 N 326.66 -1.06551 1.16123 0
M  V30 3390 C 327.937 -1.76097 0.85142 0
M  V30 3391 C 328.317 -2.00802 -0.6513 0
M  V30 3392 O 327.665 -1.63302 -1.59827 0
M  V30 3393 C 327.875 -3.06384 1.67122 0
M  V30 3394 C 329.223 -3.80585 1.88255 0
M  V30 3395 O 330.247 -3.16218 1.63966 0
M  V30 3396 O 329.106 -4.96212 2.2899 0
M  V30 3397 H 326.2 -0.765102 0.313923 0
M  V30 3398 H 328.746 -1.12844 1.26745 0
M  V30 3399 H 327.518 -2.84071 2.69108 0
M  V30 3400 H 327.141 -3.77371 1.25206 0
M  V30 3401 N 328.138 -0.959301 -1.25041 0
M  V30 3402 C 329.068 -0.501388 -2.28053 0
M  V30 3403 C 330.049 0.454673 -1.63911 0
M  V30 3404 O 331.234 0.352618 -1.90972 0
M  V30 3405 C 328.364 0.217224 -3.4662 0
M  V30 3406 C 327.318 -0.654034 -4.22973 0
M  V30 3407 C 326.644 0.195589 -5.34342 0
M  V30 3408 C 327.944 -1.93447 -4.85155 0
M  V30 3409 H 329.638 -1.36238 -2.66608 0
M  V30 3410 H 327.184 -0.656534 -1.28163 0
M  V30 3411 H 329.137 0.548732 -4.17812 0
M  V30 3412 H 327.861 1.1125 -3.07068 0
M  V30 3413 H 326.52 -0.968693 -3.5357 0
M  V30 3414 H 326.168 1.09076 -4.91031 0
M  V30 3415 H 325.868 -0.384091 -5.86343 0
M  V30 3416 H 327.392 0.521958 -6.08365 0
M  V30 3417 H 328.806 -1.66908 -5.48466 0
M  V30 3418 H 327.203 -2.46018 -5.47353 0
M  V30 3419 H 328.273 -2.63466 -4.07079 0
M  V30 3420 N 329.616 1.39756 -0.72842 0
M  V30 3421 C 330.546 2.33289 -0.0991354 0
M  V30 3422 C 331.527 1.53568 0.731489 0
M  V30 3423 O 332.712 1.81987 0.677807 0
M  V30 3424 C 329.842 3.3763 0.813834 0
M  V30 3425 C 328.796 4.2791 0.0878663 0
M  V30 3426 C 328.122 5.22894 1.11741 0
M  V30 3427 C 329.422 5.11314 -1.06563 0
M  V30 3428 H 331.116 2.86163 -0.880408 0
M  V30 3429 H 328.662 1.37591 -0.424819 0
M  V30 3430 H 330.615 4.0201 1.26355 0
M  V30 3431 H 329.339 2.83181 1.62715 0
M  V30 3432 H 327.998 3.65 -0.342159 0
M  V30 3433 H 327.646 4.64744 1.92412 0
M  V30 3434 H 327.346 5.84143 0.636477 0
M  V30 3435 H 328.87 5.90151 1.56697 0
M  V30 3436 H 330.284 5.69076 -0.694671 0
M  V30 3437 H 328.681 5.81671 -1.47577 0
M  V30 3438 H 329.751 4.46534 -1.89038 0
M  V30 3439 N 331.094 0.475555 1.50254 0
M  V30 3440 C 332.505 0.0215174 1.86688 0
M  V30 3441 C 332.856 -1.38467 1.39001 0
M  V30 3442 O 331.981 -2.02732 0.756894 0
M  V30 3443 C 332.576 0.0322715 3.38785 0
M  V30 3444 C 331.135 -0.366314 3.74613 0
M  V30 3445 C 330.282 0.415832 2.74164 0
M  V30 3446 H 333.233 0.689612 1.42934 0
M  V30 3447 H 333.254 -0.76889 3.7265 0
M  V30 3448 H 332.766 1.05584 3.73462 0
M  V30 3449 H 330.867 -1.39406 3.45538 0
M  V30 3450 H 330.98 -0.064555 4.79057 0
M  V30 3451 H 329.344 -0.131048 2.54363 0
M  V30 3452 H 330.127 1.43899 3.11686 0
M  V30 3453 N 332.573 -1.56217 0.208337 0
M  V30 3454 C 333.536 -2.18455 -0.693557 0
M  V30 3455 C 334.536 -1.14268 -1.13135 0
M  V30 3456 O 335.726 -1.39577 -1.0423 0
M  V30 3457 C 332.858 -2.79727 -1.94848 0
M  V30 3458 H 334.051 -2.99519 -0.15114 0
M  V30 3459 H 331.604 -1.56245 -0.041287 0
M  V30 3460 H 332.339 -2.02497 -2.53309 0
M  V30 3461 H 332.124 -3.56009 -1.64316 0
M  V30 3462 H 333.614 -3.27475 -2.59133 0
M  V30 3463 N 334.051 0.0651679 -1.57465 0
M  V30 3464 C 335.328 0.79644 -1.78651 0
M  V30 3465 C 335.708 1.95454 -0.797566 0
M  V30 3466 O 335.056 2.27882 0.167946 0
M  V30 3467 C 335.266 1.26322 -3.25337 0
M  V30 3468 C 336.614 1.6939 -3.89348 0
M  V30 3469 O 337.638 1.35872 -3.29268 0
M  V30 3470 O 336.497 2.31471 -4.95059 0
M  V30 3471 H 333.591 0.382157 -0.733407 0
M  V30 3472 H 336.137 0.0447311 -1.69641 0
M  V30 3473 H 334.909 0.434859 -3.88876 0
M  V30 3474 H 334.532 2.07604 -3.39096 0
M  V30 3475 N 335.529 1.53961 0.336706 0
M  V30 3476 C 336.777 1.71197 1.07405 0
M  V30 3477 C 337.098 0.481475 1.88962 0
M  V30 3478 O 336.368 -0.504585 1.8929 0
M  V30 3479 H 334.948 0.631185 0.399517 0
M  V30 3480 H 337.61 1.91232 0.376323 0
M  V30 3481 H 336.706 2.58587 1.74755 0
M  V30 3482 N 337.007 -0.598083 1.45811 0
M  V30 3483 C 338.256 -1.35295 1.49594 0
M  V30 3484 C 338.569 -1.95057 0.145679 0
M  V30 3485 O 339.775 -2.71431 0.0612099 0
M  V30 3486 C 338.231 -2.45124 2.63519 0
M  V30 3487 C 337.839 -1.91732 4.04899 0
M  V30 3488 C 339.583 -3.2205 2.76558 0
M  V30 3489 C 337.49 -2.991 5.1019 0
M  V30 3490 H 336.42 -0.508552 0.556679 0
M  V30 3491 H 339.071 -0.639977 1.71978 0
M  V30 3492 H 337.453 -3.19149 2.34435 0
M  V30 3493 H 338.627 -1.24352 4.43704 0
M  V30 3494 H 336.942 -1.27522 3.96393 0
M  V30 3495 H 339.539 -4.0215 3.52391 0
M  V30 3496 H 339.882 -3.73663 1.83526 0
M  V30 3497 H 340.415 -2.55127 3.05213 0
M  V30 3498 H 337.154 -2.52393 6.04961 0
M  V30 3499 H 336.674 -3.65017 4.75944 0
M  V30 3500 H 338.353 -3.63318 5.35359 0
M  V30 3501 N 338.485 -1.33259 -0.841409 0
M  V30 3502 C 339.415 -1.25926 -1.96634 0
M  V30 3503 C 340.396 -0.140349 -1.6952 0
M  V30 3504 O 341.581 -0.329707 -1.91381 0
M  V30 3505 C 338.711 -0.99512 -3.32738 0
M  V30 3506 C 337.665 -2.0767 -3.74242 0
M  V30 3507 C 336.991 -1.66474 -5.08125 0
M  V30 3508 C 338.291 -3.49318 -3.88297 0
M  V30 3509 H 339.985 -2.20046 -2.03027 0
M  V30 3510 H 337.531 -1.05931 -0.975425 0
M  V30 3511 H 339.484 -0.930323 -4.11002 0
M  V30 3512 H 338.208 -0.0183004 -3.26595 0
M  V30 3513 H 336.867 -2.13187 -2.98239 0
M  V30 3514 H 336.515 -0.675012 -4.9845 0
M  V30 3515 H 336.215 -2.3885 -5.36865 0
M  V30 3516 H 337.739 -1.61455 -5.88867 0
M  V30 3517 H 339.153 -3.46316 -4.56879 0
M  V30 3518 H 337.55 -4.20158 -4.28471 0
M  V30 3519 H 338.62 -3.8801 -2.9082 0
M  V30 3520 N 339.963 1.05934 -1.16686 0
M  V30 3521 C 341.212 1.78188 -0.945085 0
M  V30 3522 C 341.525 1.88338 0.528021 0
M  V30 3523 O 342.731 2.57258 0.867799 0
M  V30 3524 C 341.187 3.20277 -1.64167 0
M  V30 3525 C 340.795 3.18281 -3.15279 0
M  V30 3526 C 342.539 3.97039 -1.502 0
M  V30 3527 C 340.446 4.55112 -3.7766 0
M  V30 3528 H 339.376 0.667866 -0.349959 0
M  V30 3529 H 342.027 1.18794 -1.39858 0
M  V30 3530 H 340.409 3.79952 -1.11589 0
M  V30 3531 H 341.583 2.68167 -3.74731 0
M  V30 3532 H 339.898 2.55018 -3.29173 0
M  V30 3533 H 342.495 4.98194 -1.94183 0
M  V30 3534 H 342.838 4.13845 -0.451461 0
M  V30 3535 H 343.371 3.43894 -1.99954 0
M  V30 3536 H 340.11 4.43512 -4.82677 0
M  V30 3537 H 339.63 5.05406 -3.22994 0
M  V30 3538 H 341.309 5.24064 -3.79428 0
M  V30 3539 N 341.441 0.965919 1.2453 0
M  V30 3540 C 342.373 0.452465 2.2469 0
M  V30 3541 C 343.386 -0.437821 1.56802 0
M  V30 3542 O 344.575 -0.244283 1.76821 0
M  V30 3543 C 341.675 -0.366258 3.36915 0
M  V30 3544 C 340.848 0.513701 4.34373 0
M  V30 3545 C 339.907 -0.248716 5.25612 0
M  V30 3546 O 338.933 0.356745 5.68081 0
M  V30 3547 N 340.135 -1.53877 5.59734 0
M  V30 3548 H 342.9 1.31361 2.69378 0
M  V30 3549 H 340.461 0.837541 1.38553 0
M  V30 3550 H 342.453 -0.884297 3.94921 0
M  V30 3551 H 341.023 -1.12832 2.91526 0
M  V30 3552 H 340.243 1.21273 3.75082 0
M  V30 3553 H 341.531 1.11391 4.96457 0
M  V30 3554 H 340.929 -2.05243 5.27154 0
M  V30 3555 H 339.486 -2.00254 6.20275 0
M  V30 3556 N 342.919 -1.39368 0.735821 0
M  V30 3557 C 344.167 -2.00101 0.283562 0
M  V30 3558 C 344.488 -1.5868 -1.13338 0
M  V30 3559 O 343.758 -0.835423 -1.77193 0
M  V30 3560 H 342.338 -0.740024 0.101851 0
M  V30 3561 H 345 -1.70404 0.945962 0
M  V30 3562 H 344.096 -3.10323 0.332604 0
M  V30 3563 N 344.397 -0.483516 -1.5 0
M  V30 3564 C 345.345 0.318061 -2.30415 0
M  V30 3565 C 346.339 0.978988 -1.38247 0
M  V30 3566 O 347.545 0.908673 -1.55381 0
M  V30 3567 H 343.92 0.121419 -0.742133 0
M  V30 3568 H 345.891 -0.380403 -2.95965 0
M  V30 3569 C 344.64 1.38013 -3.19136 0
M  V30 3570 H 343.963 0.880952 -3.89973 0
M  V30 3571 H 345.403 1.91332 -3.78375 0
M  V30 3572 C 343.862 2.38884 -2.37563 0
M  V30 3573 O 344.392 3.44412 -2.06744 0
M  V30 3574 N 342.598 2.10912 -1.99911 0
M  V30 3575 H 342.145 1.25118 -2.25174 0
M  V30 3576 H 342.103 2.78635 -1.45636 0
M  V30 3577 N 345.875 1.56104 -0.216619 0
M  V30 3578 C 347.152 1.89988 0.465165 0
M  V30 3579 C 347.532 1.13326 1.78102 0
M  V30 3580 O 346.88 0.241033 2.27225 0
M  V30 3581 C 347.09 3.42646 0.662939 0
M  V30 3582 C 348.438 4.13311 0.972602 0
M  V30 3583 O 349.462 3.48217 0.749901 0
M  V30 3584 O 348.321 5.28396 1.39499 0
M  V30 3585 H 345.415 0.78979 0.245276 0
M  V30 3586 H 347.961 1.67721 -0.258436 0
M  V30 3587 H 346.733 3.90399 -0.26543 0
M  V30 3588 H 346.356 3.70677 1.43821 0
M  V30 3589 N 347.353 -0.0568162 1.57498 0
M  V30 3590 C 348.283 -1.06593 2.0775 0
M  V30 3591 C 349.264 -1.39448 0.974082 0
M  V30 3592 O 350.449 -1.48815 1.24771 0
M  V30 3593 C 347.579 -2.37509 2.5339 0
M  V30 3594 C 346.533 -2.1897 3.67745 0
M  V30 3595 C 345.859 -3.55402 3.99492 0
M  V30 3596 C 347.159 -1.59859 4.97235 0
M  V30 3597 H 348.853 -0.647706 2.9231 0
M  V30 3598 H 346.399 -0.310116 1.40621 0
M  V30 3599 H 348.352 -3.08409 2.87162 0
M  V30 3600 H 347.076 -2.8134 1.65878 0
M  V30 3601 H 345.735 -1.50508 3.3428 0
M  V30 3602 H 345.383 -3.9683 3.09088 0
M  V30 3603 H 345.083 -3.43831 4.76502 0
M  V30 3604 H 346.607 -4.27708 4.35773 0
M  V30 3605 H 348.021 -2.20642 5.29141 0
M  V30 3606 H 346.418 -1.58942 5.78669 0
M  V30 3607 H 347.488 -0.561506 4.81638 0
M  V30 3608 N 348.832 -1.54138 -0.328536 0
M  V30 3609 C 349.779 -1.83176 -1.40411 0
M  V30 3610 C 350.749 -0.678494 -1.5161 0
M  V30 3611 O 351.934 -0.92443 -1.6691 0
M  V30 3612 C 349.074 -2.06035 -2.76846 0
M  V30 3613 C 348.187 -3.33727 -2.74318 0
M  V30 3614 C 347.322 -3.46574 -4.02567 0
M  V30 3615 C 346.361 -4.68159 -3.94327 0
M  V30 3616 N 345.498 -4.77959 -5.14296 0
M  V30 3617 H 350.338 -2.74938 -1.14948 0
M  V30 3618 H 347.875 -1.36166 -0.556538 0
M  V30 3619 H 349.833 -2.1728 -3.56153 0
M  V30 3620 H 348.463 -1.1757 -3.00628 0
M  V30 3621 H 347.515 -3.31246 -1.8703 0
M  V30 3622 H 348.827 -4.23139 -2.64111 0
M  V30 3623 H 347.981 -3.57333 -4.90304 0
M  V30 3624 H 346.72 -2.55245 -4.15574 0
M  V30 3625 H 345.725 -4.57461 -3.04974 0
M  V30 3626 H 346.95 -5.60868 -3.82889 0
M  V30 3627 H 344.896 -3.89544 -5.27818 0
M  V30 3628 H 344.813 -5.6133 -5.06404 0
M  V30 3629 H 346.081 -4.93044 -6.03761 0
M  V30 3630 N 350.31 0.590341 -1.46126 0
M  V30 3631 C 351.559 1.34499 -1.50309 0
M  V30 3632 C 351.872 1.94977 -0.156021 0
M  V30 3633 O 353.078 2.71395 -0.0756037 0
M  V30 3634 C 351.534 2.43723 -2.64815 0
M  V30 3635 C 351.142 1.89582 -4.0591 0
M  V30 3636 C 352.886 3.20579 -2.78262 0
M  V30 3637 C 350.793 2.9639 -5.11769 0
M  V30 3638 H 349.723 0.505593 -0.559368 0
M  V30 3639 H 352.374 0.630848 -1.72315 0
M  V30 3640 H 350.756 3.17902 -2.36124 0
M  V30 3641 H 351.93 1.21997 -4.44357 0
M  V30 3642 H 350.245 1.25418 -3.97063 0
M  V30 3643 H 352.842 4.00276 -3.54519 0
M  V30 3644 H 353.185 3.72684 -1.85505 0
M  V30 3645 H 353.718 2.53505 -3.06562 0
M  V30 3646 H 350.457 2.49181 -6.06291 0
M  V30 3647 H 349.977 3.62487 -4.77873 0
M  V30 3648 H 351.656 3.60474 -5.37278 0
M  V30 3649 N 351.788 1.33704 0.83433 0
M  V30 3650 C 353.065 1.16011 1.57483 0
M  V30 3651 C 353.445 -0.27176 2.09343 0
M  V30 3652 O 352.793 -1.27146 1.89858 0
M  V30 3653 C 353.003 2.20507 2.70514 0
M  V30 3654 C 354.351 2.54898 3.39577 0
M  V30 3655 O 355.375 2.19209 2.80759 0
M  V30 3656 O 354.234 3.16158 4.45765 0
M  V30 3657 H 351.328 0.448992 0.694503 0
M  V30 3658 H 353.874 1.453 0.876691 0
M  V30 3659 H 352.646 3.16667 2.29865 0
M  V30 3660 H 352.269 1.92329 3.47987 0
M  V30 3661 N 353.266 -1.05314 1.17247 0
M  V30 3662 C 354.176 -2.16538 0.90268 0
M  V30 3663 C 355.192 -1.73523 -0.128707 0
M  V30 3664 O 356.368 -2.01337 0.0502701 0
M  V30 3665 C 353.433 -3.44167 0.418356 0
M  V30 3666 C 352.494 -4.01635 1.51618 0
M  V30 3667 C 351.727 -5.23171 1.05487 0
M  V30 3668 O 351.95 -5.70327 -0.0914715 0
M  V30 3669 O 350.884 -5.72848 1.8474 0
M  V30 3670 H 354.71 -2.42145 1.83302 0
M  V30 3671 H 352.295 -1.15037 0.953246 0
M  V30 3672 H 354.177 -4.21112 0.155726 0
M  V30 3673 H 352.852 -3.20063 -0.48385 0
M  V30 3674 H 351.759 -3.26135 1.83268 0
M  V30 3675 H 353.092 -4.30053 2.39405 0
M  V30 3676 N 354.744 -0.972509 -1.24016 0
M  V30 3677 C 355.969 -0.654417 -1.96805 0
M  V30 3678 C 356.394 0.770398 -1.716 0
M  V30 3679 O 355.752 1.52361 -0.982647 0
M  V30 3680 C 355.8 -0.941031 -3.48105 0
M  V30 3681 O 354.904 -0.0289472 -4.1239 0
M  V30 3682 H 354.245 -0.24692 -0.616382 0
M  V30 3683 H 356.775 -1.30396 -1.57664 0
M  V30 3684 H 356.785 -0.87452 -3.98517 0
M  V30 3685 H 355.46 -1.97939 -3.65777 0
M  V30 3686 H 354.037 -0.149192 -3.72601 0
M  V30 3687 N 356.222 1.38976 -0.743202 0
M  V30 3688 C 357.447 2.05161 -0.303936 0
M  V30 3689 C 357.872 1.55677 1.05576 0
M  V30 3690 O 357.23 0.704131 1.67068 0
M  V30 3691 C 357.278 3.59138 -0.324373 0
M  V30 3692 O 356.382 4.06668 0.685204 0
M  V30 3693 H 355.723 0.649815 -0.136518 0
M  V30 3694 H 358.253 1.77852 -1.01142 0
M  V30 3695 H 358.263 4.07639 -0.171618 0
M  V30 3696 H 356.938 3.94515 -1.31647 0
M  V30 3697 H 355.515 3.69561 0.497913 0
M  V30 3698 N 357.7 0.491464 1.49741 0
M  V30 3699 C 358.63 -0.28154 2.31796 0
M  V30 3700 C 359.611 -0.971473 1.3963 0
M  V30 3701 O 360.796 -0.964719 1.68543 0
M  V30 3702 C 357.926 -1.35203 3.19902 0
M  V30 3703 C 356.88 -0.782529 4.20786 0
M  V30 3704 C 356.206 -1.95283 4.97764 0
M  V30 3705 C 357.506 0.21999 5.21837 0
M  V30 3706 H 359.2 0.403355 2.96671 0
M  V30 3707 H 356.746 0.195425 1.42668 0
M  V30 3708 H 358.699 -1.90045 3.76113 0
M  V30 3709 H 357.423 -2.06598 2.52953 0
M  V30 3710 H 356.082 -0.255928 3.65706 0
M  V30 3711 H 355.73 -2.65423 4.2727 0
M  V30 3712 H 355.43 -1.57789 5.66018 0
M  V30 3713 H 356.954 -2.50577 5.56816 0
M  V30 3714 H 358.368 -0.23996 5.72798 0
M  V30 3715 H 356.765 0.51026 5.97927 0
M  V30 3716 H 357.835 1.13911 4.7133 0
M  V30 3717 N 359.178 -1.55987 0.224894 0
M  V30 3718 C 360.406 -2.02784 -0.410665 0
M  V30 3719 C 360.821 -1.10464 -1.53112 0
M  V30 3720 O 360.178 -0.114871 -1.82138 0
M  V30 3721 C 360.229 -3.49087 -0.939165 0
M  V30 3722 O 359.95 -4.37887 0.136614 0
M  V30 3723 C 361.451 -4.11543 -1.64763 0
M  V30 3724 H 358.671 -0.663484 -0.100148 0
M  V30 3725 H 361.215 -2.01614 0.342326 0
M  V30 3726 H 359.37 -3.50861 -1.64242 0
M  V30 3727 H 359.784 -5.23849 -0.261155 0
M  V30 3728 H 361.258 -5.15673 -1.96939 0
M  V30 3729 H 361.735 -3.56736 -2.56195 0
M  V30 3730 H 362.341 -4.13629 -0.989503 0
M  V30 3731 N 360.656 0.0484629 -1.57525 0
M  V30 3732 C 361.904 0.741657 -1.88 0
M  V30 3733 C 362.225 1.76918 -0.820054 0
M  V30 3734 O 361.495 1.95335 0.148661 0
M  V30 3735 H 360.075 0.276908 -0.69378 0
M  V30 3736 H 362.737 0.019013 -1.94891 0
M  V30 3737 H 361.833 1.24336 -2.86264 0
M  V30 3738 N 362.134 1.5431 0.320358 0
M  V30 3739 C 363.044 1.86946 1.41734 0
M  V30 3740 C 364.06 0.761689 1.56443 0
M  V30 3741 O 365.236 1.05629 1.71477 0
M  V30 3742 C 362.301 2.09293 2.76401 0
M  V30 3743 C 361.362 3.33082 2.70841 0
M  V30 3744 C 360.595 3.54353 3.99086 0
M  V30 3745 O 360.818 2.79002 4.97508 0
M  V30 3746 O 359.752 4.47838 4.0215 0
M  V30 3747 H 363.578 2.80232 1.17062 0
M  V30 3748 H 361.163 1.40255 0.514673 0
M  V30 3749 H 363.045 2.25303 3.56113 0
M  V30 3750 H 361.72 1.19194 3.00956 0
M  V30 3751 H 360.627 3.22454 1.89668 0
M  V30 3752 H 361.96 4.23249 2.5124 0
M  V30 3753 N 363.613 -0.582584 1.46437 0
M  V30 3754 C 364.838 -1.37168 1.55563 0
M  V30 3755 C 365.263 -1.87061 0.19743 0
M  V30 3756 O 364.621 -1.61572 -0.822451 0
M  V30 3757 C 364.669 -2.53511 2.56446 0
M  V30 3758 O 363.773 -3.54953 2.09958 0
M  V30 3759 H 363.114 -0.408494 0.523477 0
M  V30 3760 H 365.644 -0.706646 1.9201 0
M  V30 3761 H 365.654 -3.00426 2.76058 0
M  V30 3762 H 364.329 -2.16549 3.55076 0
M  V30 3763 H 362.906 -3.14516 2.00334 0
M  V30 3764 N 365.091 -1.34144 -0.827227 0
M  V30 3765 C 366.368 -1.16844 -1.56865 0
M  V30 3766 C 366.748 0.260654 -2.09485 0
M  V30 3767 O 366.096 1.26138 -1.9053 0
M  V30 3768 C 366.306 -2.21939 -2.6934 0
M  V30 3769 C 367.654 -2.56695 -3.3822 0
M  V30 3770 O 368.678 -2.20695 -2.79593 0
M  V30 3771 O 367.537 -3.18518 -4.44082 0
M  V30 3772 H 364.631 -0.452669 -0.692112 0
M  V30 3773 H 367.177 -1.45763 -0.868973 0
M  V30 3774 H 365.949 -3.17882 -2.28182 0
M  V30 3775 H 365.572 -1.94172 -3.46962 0
M  V30 3776 N 366.569 1.04691 -1.17803 0
M  V30 3777 C 367.519 2.10856 -0.867391 0
M  V30 3778 C 368.503 1.601 0.160206 0
M  V30 3779 O 369.695 1.76948 -0.042947 0
M  V30 3780 C 366.824 3.411 -0.388012 0
M  V30 3781 C 365.91 3.9864 -1.44732 0
M  V30 3782 N 366.301 4.30075 -2.66212 0
M  V30 3783 C 364.599 4.26439 -1.30637 0
M  V30 3784 C 365.3 4.76033 -3.34317 0
M  V30 3785 N 364.276 4.76462 -2.61696 0
M  V30 3786 H 368.078 2.33029 -1.79094 0
M  V30 3787 H 365.592 1.22386 -1.0675 0
M  V30 3788 H 367.589 4.16641 -0.146994 0
M  V30 3789 H 366.249 3.20357 0.529271 0
M  V30 3790 H 367.26 4.19917 -3.03134 0
M  V30 3791 H 363.937 4.15056 -0.451129 0
M  V30 3792 H 365.327 5.09427 -4.38103 0
M  V30 3793 N 368.047 0.979072 1.23499 0
M  V30 3794 C 369.293 0.648178 1.92163 0
M  V30 3795 C 369.626 -0.816049 1.76222 0
M  V30 3796 O 368.901 -1.58849 1.12237 0
M  V30 3797 C 369.184 1.03773 3.44824 0
M  V30 3798 C 369.037 2.55948 3.69879 0
M  V30 3799 C 370.356 0.580653 4.36253 0
M  V30 3800 H 367.475 0.236952 0.69787 0
M  V30 3801 H 370.117 1.22012 1.45647 0
M  V30 3802 H 368.267 0.551058 3.84572 0
M  V30 3803 H 369.939 3.12179 3.3962 0
M  V30 3804 H 368.182 2.98641 3.14636 0
M  V30 3805 H 368.853 2.78255 4.76737 0
M  V30 3806 H 371.329 0.998465 4.03943 0
M  V30 3807 H 370.205 0.881663 5.41773 0
M  V30 3808 H 370.466 -0.519052 4.39042 0
M  V30 3809 N 369.525 -1.3858 0.750561 0
M  V30 3810 C 370.472 -2.30483 0.120835 0
M  V30 3811 C 371.442 -1.50022 -0.712923 0
M  V30 3812 O 372.627 -1.78662 -0.669676 0
M  V30 3813 C 369.767 -3.36431 -0.768666 0
M  V30 3814 C 368.88 -4.31927 0.0793922 0
M  V30 3815 C 368.015 -5.24944 -0.81283 0
M  V30 3816 C 367.054 -6.12088 0.0390447 0
M  V30 3817 N 366.191 -6.97412 -0.809969 0
M  V30 3818 H 371.031 -2.83761 0.91015 0
M  V30 3819 H 368.568 -1.39707 0.460463 0
M  V30 3820 H 370.526 -3.96462 -1.29898 0
M  V30 3821 H 369.156 -2.8457 -1.5238 0
M  V30 3822 H 368.208 -3.73382 0.727303 0
M  V30 3823 H 369.52 -4.93319 0.737401 0
M  V30 3824 H 368.674 -5.90078 -1.41042 0
M  V30 3825 H 367.413 -4.63911 -1.50458 0
M  V30 3826 H 366.418 -5.45952 0.649328 0
M  V30 3827 H 367.643 -6.75189 0.727809 0
M  V30 3828 H 365.589 -6.38931 -1.48672 0
M  V30 3829 H 365.506 -7.55712 -0.208789 0
M  V30 3830 H 366.774 -7.66959 -1.39263 0
M  V30 3831 N 371.003 -0.499398 -1.49478 0
M  V30 3832 C 371.95 0.279881 -2.29097 0
M  V30 3833 C 372.92 0.961805 -1.3542 0
M  V30 3834 O 374.105 0.968777 -1.64376 0
M  V30 3835 C 371.245 1.33932 -3.18051 0
M  V30 3836 C 370.358 0.669333 -4.26783 0
M  V30 3837 C 369.493 1.70907 -5.02955 0
M  V30 3838 C 368.532 1.02087 -6.03527 0
M  V30 3839 N 367.669 2.00474 -6.7287 0
M  V30 3840 H 372.509 -0.405317 -2.95231 0
M  V30 3841 H 370.046 -0.211726 -1.45568 0
M  V30 3842 H 372.004 1.96553 -3.67998 0
M  V30 3843 H 370.634 1.9933 -2.53904 0
M  V30 3844 H 369.686 -0.0701234 -3.80335 0
M  V30 3845 H 370.998 0.127503 -4.98637 0
M  V30 3846 H 370.152 2.41037 -5.56764 0
M  V30 3847 H 368.891 2.28476 -4.30871 0
M  V30 3848 H 367.896 0.305338 -5.48951 0
M  V30 3849 H 369.121 0.451708 -6.77596 0
M  V30 3850 H 367.067 2.57007 -6.03559 0
M  V30 3851 H 366.984 1.51353 -7.40694 0
M  V30 3852 H 368.252 2.69897 -7.31284 0
M  V30 3853 N 372.481 1.55866 -0.233164 0
M  V30 3854 C 373.706 2.03449 0.402906 0
M  V30 3855 C 374.131 1.11166 1.51736 0
M  V30 3856 O 373.489 0.101996 1.81013 0
M  V30 3857 C 373.537 3.49165 0.9009 0
M  V30 3858 O 372.641 3.60019 2.01147 0
M  V30 3859 H 371.982 0.657913 0.0897025 0
M  V30 3860 H 374.512 2.01493 -0.355201 0
M  V30 3861 H 374.522 3.89716 1.2077 0
M  V30 3862 H 373.197 4.15813 0.0852889 0
M  V30 3863 H 371.774 3.3136 1.71042 0
M  V30 3864 N 373.959 -0.0401083 1.57549 0
M  V30 3865 C 374.889 -1.04384 2.08869 0
M  V30 3866 C 375.87 -1.38407 0.988817 0
M  V30 3867 O 377.055 -1.47483 1.26342 0
M  V30 3868 C 374.185 -2.34808 2.55895 0
M  V30 3869 C 373.139 -2.15057 3.70047 0
M  V30 3870 C 372.465 -3.51145 4.03239 0
M  V30 3871 C 373.765 -1.54576 4.98902 0
M  V30 3872 H 375.459 -0.616666 2.92981 0
M  V30 3873 H 373.005 -0.295184 1.40942 0
M  V30 3874 H 374.958 -3.05346 2.90417 0
M  V30 3875 H 373.682 -2.79565 1.68853 0
M  V30 3876 H 372.341 -1.46954 3.35857 0
M  V30 3877 H 371.989 -3.93529 3.13279 0
M  V30 3878 H 371.689 -3.38758 4.80122 0
M  V30 3879 H 373.213 -4.23062 4.40285 0
M  V30 3880 H 374.627 -2.15017 5.31451 0
M  V30 3881 H 373.024 -1.52796 5.80322 0
M  V30 3882 H 374.094 -0.51039 4.82206 0
M  V30 3883 N 375.437 -1.54477 -0.31217 0
M  V30 3884 C 376.714 -1.63891 -1.06767 0
M  V30 3885 C 377.094 -0.480028 -2.0557 0
M  V30 3886 O 376.442 0.524487 -2.22399 0
M  V30 3887 C 376.652 -3.01402 -1.75948 0
M  V30 3888 C 378 -3.57838 -2.28554 0
M  V30 3889 O 379.024 -3.03782 -1.85998 0
M  V30 3890 O 377.883 -4.52462 -3.06497 0
M  V30 3891 H 374.977 -0.664125 -0.492816 0
M  V30 3892 H 377.523 -1.66823 -0.311149 0
M  V30 3893 H 376.295 -3.77187 -1.04144 0
M  V30 3894 H 375.918 -3.02199 -2.58383 0
M  V30 3895 N 376.915 0.57481 -1.46744 0
M  V30 3896 C 377.862 1.68329 -1.57905 0
M  V30 3897 C 378.832 1.60625 -0.422927 0
M  V30 3898 O 380.017 1.79721 -0.640711 0
M  V30 3899 C 377.157 3.06665 -1.58274 0
M  V30 3900 C 376.27 3.24935 -2.84678 0
M  V30 3901 C 375.405 4.53566 -2.76499 0
M  V30 3902 C 374.444 4.65207 -3.97806 0
M  V30 3903 N 373.581 5.85172 -3.87967 0
M  V30 3904 H 378.421 1.58127 -2.52587 0
M  V30 3905 H 375.958 0.770552 -1.25303 0
M  V30 3906 H 377.916 3.86745 -1.56473 0
M  V30 3907 H 376.546 3.15745 -0.671194 0
M  V30 3908 H 375.598 2.38405 -2.96424 0
M  V30 3909 H 376.91 3.29403 -3.7456 0
M  V30 3910 H 376.064 5.41885 -2.72848 0
M  V30 3911 H 374.803 4.51548 -1.8427 0
M  V30 3912 H 373.808 3.75304 -4.0178 0
M  V30 3913 H 375.033 4.68997 -4.9114 0
M  V30 3914 H 372.979 5.84137 -2.98529 0
M  V30 3915 H 372.896 5.90943 -4.71511 0
M  V30 3916 H 374.164 6.759 -3.88303 0
M  V30 3917 N 378.394 1.34581 0.820102 0
M  V30 3918 C 379.671 1.17675 1.56244 0
M  V30 3919 C 380.051 -0.249541 2.0962 0
M  V30 3920 O 379.399 -1.25125 1.91196 0
M  V30 3921 C 379.609 2.23364 2.6816 0
M  V30 3922 C 380.957 2.58485 3.36854 0
M  V30 3923 O 381.981 2.22175 2.78418 0
M  V30 3924 O 380.84 3.20868 4.42386 0
M  V30 3925 H 377.934 0.456333 0.689702 0
M  V30 3926 H 380.48 1.46222 0.861231 0
M  V30 3927 H 379.252 3.19087 2.26493 0
M  V30 3928 H 378.875 1.96009 3.45928 0
M  V30 3929 N 379.872 -1.04064 1.18357 0
M  V30 3930 C 381.283 -1.58719 0.98312 0
M  V30 3931 C 381.634 -1.90556 -0.467193 0
M  V30 3932 O 380.759 -1.69561 -1.34454 0
M  V30 3933 C 381.354 -2.88379 1.77828 0
M  V30 3934 C 379.913 -3.3965 1.62218 0
M  V30 3935 C 379.06 -2.13235 1.77274 0
M  V30 3936 H 382.011 -0.867359 1.32901 0
M  V30 3937 H 382.032 -3.58773 1.26737 0
M  V30 3938 H 381.544 -2.65176 2.83379 0
M  V30 3939 H 379.645 -3.67866 0.592036 0
M  V30 3940 H 379.758 -4.13475 2.42023 0
M  V30 3941 H 378.122 -2.24542 1.20221 0
M  V30 3942 H 378.905 -1.92487 2.8426 0
M  V30 3943 N 381.35 -0.985608 -1.22978 0
M  V30 3944 C 382.28 -0.549649 -2.26939 0
M  V30 3945 C 383.261 0.419803 -1.64838 0
M  V30 3946 O 384.446 0.31203 -1.91677 0
M  V30 3947 C 381.576 0.143652 -3.47003 0
M  V30 3948 C 380.53 -0.743606 -4.21491 0
M  V30 3949 C 379.856 0.0822027 -5.34637 0
M  V30 3950 C 381.156 -2.03694 -4.80943 0
M  V30 3951 H 382.85 -1.41862 -2.63658 0
M  V30 3952 H 380.396 -0.683571 -1.26741 0
M  V30 3953 H 382.349 0.459985 -4.18882 0
M  V30 3954 H 381.073 1.04711 -3.09359 0
M  V30 3955 H 379.732 -1.04347 -3.51436 0
M  V30 3956 H 379.38 0.986359 -4.93234 0
M  V30 3957 H 379.08 -0.508377 -5.85397 0
M  V30 3958 H 380.604 0.392797 -6.09335 0
M  V30 3959 H 382.018 -1.78504 -5.44802 0
M  V30 3960 H 380.415 -2.57573 -5.42011 0
M  V30 3961 H 381.485 -2.72042 -4.01399 0
M  V30 3962 N 382.828 1.3818 -0.7579 0
M  V30 3963 C 383.758 2.33027 -0.148597 0
M  V30 3964 C 384.739 1.55085 0.69875 0
M  V30 3965 O 385.924 1.83384 0.639053 0
M  V30 3966 C 383.054 3.3928 0.742034 0
M  V30 3967 C 382.008 4.28 -0.00291946 0
M  V30 3968 C 381.334 5.25146 1.00625 0
M  V30 3969 C 382.634 5.08938 -1.17385 0
M  V30 3970 H 384.328 2.84231 -0.940909 0
M  V30 3971 H 381.874 1.36659 -0.453908 0
M  V30 3972 H 383.827 4.046 1.17799 0
M  V30 3973 H 382.551 2.86569 1.56671 0
M  V30 3974 H 381.21 3.64192 -0.419504 0
M  V30 3975 H 380.858 4.68721 1.8251 0
M  V30 3976 H 380.558 5.85361 0.512428 0
M  V30 3977 H 382.082 5.93342 1.44143 0
M  V30 3978 H 383.496 5.67474 -0.815224 0
M  V30 3979 H 381.893 5.7841 -1.59882 0
M  V30 3980 H 382.963 4.42424 -1.98468 0
M  V30 3981 N 384.306 0.507319 1.49211 0
M  V30 3982 C 385.236 -0.256939 2.32082 0
M  V30 3983 C 386.217 -0.956609 1.40652 0
M  V30 3984 O 387.402 -0.946788 1.69557 0
M  V30 3985 C 384.532 -1.31802 3.21318 0
M  V30 3986 C 383.486 -0.737855 4.21592 0
M  V30 3987 C 382.812 -1.89992 4.99807 0
M  V30 3988 C 384.112 0.275325 5.21574 0
M  V30 3989 H 385.806 0.434798 2.96226 0
M  V30 3990 H 383.352 0.210546 1.42452 0
M  V30 3991 H 385.305 -1.86045 3.78107 0
M  V30 3992 H 384.029 -2.03903 2.5513 0
M  V30 3993 H 382.688 -0.217126 3.65956 0
M  V30 3994 H 382.336 -2.60877 4.30061 0
M  V30 3995 H 382.036 -1.51777 5.6766 0
M  V30 3996 H 383.56 -2.44657 5.59442 0
M  V30 3997 H 384.974 -0.179193 5.7302 0
M  V30 3998 H 383.371 0.573649 5.97352 0
M  V30 3999 H 384.441 1.18903 4.70096 0
M  V30 4000 N 385.784 -1.5574 0.241426 0
M  V30 4001 C 387.009 -2.0366 -0.392111 0
M  V30 4002 C 387.434 -1.11969 -1.51144 0
M  V30 4003 O 386.792 -0.111594 -1.80956 0
M  V30 4004 C 386.84 -3.49638 -0.882371 0
M  V30 4005 O 385.944 -3.6108 -1.99235 0
M  V30 4006 H 385.285 -0.658379 -0.0862122 0
M  V30 4007 H 387.815 -2.01302 0.365881 0
M  V30 4008 H 387.825 -3.90351 -1.18702 0
M  V30 4009 H 386.5 -4.15852 -0.0632361 0
M  V30 4010 H 385.077 -3.32262 -1.69282 0
M  V30 4011 N 387.262 0.0317525 -1.57568 0
M  V30 4012 C 388.51 0.721676 -1.88776 0
M  V30 4013 C 388.831 1.76039 -0.838772 0
M  V30 4014 O 388.101 1.95482 0.127935 0
M  V30 4015 H 386.681 0.269534 -0.696678 0
M  V30 4016 H 389.343 -0.00165879 -1.949 0
M  V30 4017 H 388.439 1.21293 -2.87566 0
M  V30 4018 N 388.74 1.54641 0.303973 0
M  V30 4019 C 389.968 1.77768 1.05858 0
M  V30 4020 C 390.383 0.535722 1.8104 0
M  V30 4021 O 389.74 -0.494337 1.75677 0
M  V30 4022 C 389.791 2.9834 2.04146 0
M  V30 4023 O 389.512 4.17736 1.32015 0
M  V30 4024 C 391.013 3.33832 2.91669 0
M  V30 4025 H 388.233 0.592961 0.314067 0
M  V30 4026 H 390.777 2.01583 0.344149 0
M  V30 4027 H 388.932 2.76742 2.71096 0
M  V30 4028 H 389.346 4.85693 1.97998 0
M  V30 4029 H 390.82 4.21448 3.56491 0
M  V30 4030 H 391.297 2.51857 3.59812 0
M  V30 4031 H 391.903 3.57579 2.30254 0
M  V30 4032 N 390.218 -0.567019 1.47046 0
M  V30 4033 C 391.168 -1.67018 1.55207 0
M  V30 4034 C 392.152 -1.55543 0.411714 0
M  V30 4035 O 393.344 -1.64192 0.661064 0
M  V30 4036 C 390.473 -3.05801 1.56014 0
M  V30 4037 C 389.559 -3.22515 2.75399 0
M  V30 4038 N 389.95 -3.09329 4.00186 0
M  V30 4039 C 388.248 -3.53493 2.71954 0
M  V30 4040 C 388.949 -3.2847 4.80086 0
M  V30 4041 N 387.925 -3.54352 4.12233 0
M  V30 4042 H 391.727 -1.55377 2.4947 0
M  V30 4043 H 389.241 -0.771503 1.42904 0
M  V30 4044 H 391.238 -3.84996 1.59949 0
M  V30 4045 H 389.898 -3.18561 0.628396 0
M  V30 4046 H 390.909 -2.86863 4.31196 0
M  V30 4047 H 387.586 -3.7284 1.87873 0
M  V30 4048 H 388.976 -3.23326 5.88991 0
M  V30 4049 N 391.696 -1.35014 -0.812953 0
M  V30 4050 C 392.942 -1.2812 -1.57204 0
M  V30 4051 C 393.275 0.145869 -1.93651 0
M  V30 4052 O 392.55 1.0937 -1.60836 0
M  V30 4053 C 392.833 -2.18162 -2.86492 0
M  V30 4054 C 392.686 -3.69454 -2.56561 0
M  V30 4055 C 394.005 -2.07439 -3.88145 0
M  V30 4056 H 391.124 -0.466746 -0.570366 0
M  V30 4057 H 393.766 -1.65357 -0.935783 0
M  V30 4058 H 391.916 -1.86535 -3.40789 0
M  V30 4059 H 393.588 -4.11493 -2.08497 0
M  V30 4060 H 391.831 -3.9005 -1.89851 0
M  V30 4061 H 392.502 -4.27835 -3.48799 0
M  V30 4062 H 394.978 -2.35228 -3.4323 0
M  V30 4063 H 393.854 -2.7265 -4.76396 0
M  V30 4064 H 394.115 -1.05439 -4.29343 0
M  V30 4065 N 393.175 1.03435 -1.18907 0
M  V30 4066 C 394.108 2.11162 -0.86521 0
M  V30 4067 C 395.086 1.6165 0.175473 0
M  V30 4068 O 396.27 1.88425 0.0530129 0
M  V30 4069 C 393.397 3.37423 -0.293868 0
M  V30 4070 C 392.443 4.05795 -1.31274 0
M  V30 4071 S 393.276 4.52027 -2.8711 0
M  V30 4072 C 394.432 5.81513 -2.31504 0
M  V30 4073 H 394.665 2.38308 -1.77754 0
M  V30 4074 H 392.198 1.16295 -1.01562 0
M  V30 4075 H 394.156 4.1049 0.0292572 0
M  V30 4076 H 392.817 3.0838 0.596682 0
M  V30 4077 H 392.01 4.96574 -0.86198 0
M  V30 4078 H 391.612 3.38874 -1.58242 0
M  V30 4079 H 393.904 6.55784 -1.70157 0
M  V30 4080 H 394.847 6.3136 -3.20608 0
M  V30 4081 H 395.255 5.36921 -1.74286 0
M  V30 4082 N 394.653 0.992116 1.22453 0
M  V30 4083 C 395.563 0.55065 2.28046 0
M  V30 4084 C 396.579 -0.400189 1.69335 0
M  V30 4085 O 397.755 -0.267215 1.99619 0
M  V30 4086 C 394.82 -0.128496 3.46462 0
M  V30 4087 C 393.881 0.865208 4.20491 0
M  V30 4088 C 393.114 0.218377 5.33253 0
M  V30 4089 O 393.337 -0.987894 5.6178 0
M  V30 4090 O 392.271 0.922845 5.94783 0
M  V30 4091 H 396.097 1.4291 2.67975 0
M  V30 4092 H 393.682 0.760326 1.28606 0
M  V30 4093 H 395.564 -0.508947 4.18315 0
M  V30 4094 H 394.239 -0.981526 3.0846 0
M  V30 4095 H 393.146 1.29658 3.50913 0
M  V30 4096 H 394.479 1.68741 4.62371 0
M  V30 4097 N 396.131 -1.37776 0.765217 0
M  V30 4098 C 397.379 -1.99454 0.325943 0
M  V30 4099 C 397.7 -1.61049 -1.09947 0
M  V30 4100 O 396.97 -0.872821 -1.75381 0
M  V30 4101 H 395.55 -0.737697 0.117525 0
M  V30 4102 H 398.212 -1.68359 0.981895 0
M  V30 4103 H 397.308 -3.09547 0.398353 0
M  V30 4104 N 397.609 -0.515225 -1.4894 0
M  V30 4105 C 398.834 0.022727 -2.07388 0
M  V30 4106 C 399.259 1.2876 -1.37122 0
M  V30 4107 O 398.617 1.76067 -0.432431 0
M  V30 4108 C 398.665 0.244869 -3.59768 0
M  V30 4109 O 397.769 1.31667 -3.90817 0
M  V30 4110 H 397.11 -0.0325506 -0.663202 0
M  V30 4111 H 399.64 -0.718918 -1.91553 0
M  V30 4112 H 399.65 0.47205 -4.0526 0
M  V30 4113 H 398.325 -0.679194 -4.10317 0
M  V30 4114 H 396.902 1.07331 -3.5712 0
M  V30 4115 N 399.087 1.5561 -0.249682 0
M  V30 4116 C 400.335 1.98618 0.373548 0
M  V30 4117 C 400.656 1.13919 1.58264 0
M  V30 4118 O 399.926 0.222637 1.94631 0
M  V30 4119 H 398.506 0.733571 0.141006 0
M  V30 4120 H 401.168 1.91748 -0.349117 0
M  V30 4121 H 400.264 3.04584 0.680796 0
M  V30 4122 N 400.565 -0.0233959 1.57583 0
M  V30 4123 C 401.981 -0.379134 1.55031 0
M  V30 4124 C 402.181 -1.76255 0.976548 0
M  V30 4125 O 401.237 -2.45266 0.600078 0
M  V30 4126 C 402.55 -0.275792 2.99433 0
M  V30 4127 C 404.098 -0.352458 3.11009 0
M  V30 4128 C 404.573 -0.278501 4.57152 0
M  V30 4129 N 406.064 -0.337123 4.61972 0
M  V30 4130 C 406.799 -0.302876 5.726 0
M  V30 4131 N 406.295 -0.220589 6.92449 0
M  V30 4132 N 408.088 -0.353023 5.6099 0
M  V30 4133 H 400.239 0.881869 1.93227 0
M  V30 4134 H 402.502 0.335867 0.886509 0
M  V30 4135 H 402.208 0.675108 3.4516 0
M  V30 4136 H 402.082 -1.06721 3.61788 0
M  V30 4137 H 404.469 -1.29379 2.65226 0
M  V30 4138 H 404.55 0.468409 2.51475 0
M  V30 4139 H 404.194 0.659189 5.03604 0
M  V30 4140 H 404.124 -1.11755 5.14605 0
M  V30 4141 H 406.615 -0.403002 3.75745 0
M  V30 4142 H 406.928 -0.199713 7.72542 0
M  V30 4143 H 405.273 -0.186555 6.9475 0
M  V30 4144 H 408.464 -0.415339 4.66254 0
M  V30 4145 H 408.637 -0.322866 6.47195 0
M  V30 4146 N 402.043 -1.548 -0.295768 0
M  V30 4147 C 402.976 -1.81003 -1.38972 0
M  V30 4148 C 403.954 -0.661544 -1.48534 0
M  V30 4149 O 405.138 -0.902074 -1.65514 0
M  V30 4150 C 402.265 -1.95141 -2.76835 0
M  V30 4151 C 401.311 -3.17592 -2.84671 0
M  V30 4152 S 402.144 -4.75531 -2.46232 0
M  V30 4153 C 403.3 -4.92613 -3.86114 0
M  V30 4154 H 403.533 -2.73507 -1.16537 0
M  V30 4155 H 401.066 -1.46278 -0.494168 0
M  V30 4156 H 403.024 -2.03972 -3.56238 0
M  V30 4157 H 401.685 -1.03565 -2.96535 0
M  V30 4158 H 400.878 -3.24303 -3.85803 0
M  V30 4159 H 400.48 -3.07235 -2.13267 0
M  V30 4160 H 402.772 -4.76957 -4.81164 0
M  V30 4161 H 403.715 -5.94698 -3.8437 0
M  V30 4162 H 404.123 -4.2073 -3.76359 0
M  V30 4163 N 403.521 0.559213 -1.47345 0
M  V30 4164 C 404.767 1.31843 -1.54095 0
M  V30 4165 C 405.1 1.93149 -0.201726 0
M  V30 4166 O 404.375 1.77759 0.789428 0
M  V30 4167 C 404.658 2.43006 -2.65744 0
M  V30 4168 C 404.511 1.86581 -4.09277 0
M  V30 4169 C 405.83 3.44943 -2.73318 0
M  V30 4170 H 402.949 0.478012 -0.560957 0
M  V30 4171 H 405.591 0.625977 -1.79392 0
M  V30 4172 H 403.741 3.02072 -2.44305 0
M  V30 4173 H 405.413 1.31792 -4.42073 0
M  V30 4174 H 403.656 1.17268 -4.17649 0
M  V30 4175 H 404.327 2.66933 -4.83168 0
M  V30 4176 H 406.803 2.95793 -2.92653 0
M  V30 4177 H 405.679 4.20153 -3.53218 0
M  V30 4178 H 405.94 4.03665 -1.80296 0
M  V30 4179 N 404.999 1.35443 0.805782 0
M  V30 4180 C 406.245 1.28952 1.56522 0
M  V30 4181 C 406.578 -0.135597 1.93726 0
M  V30 4182 O 405.853 -1.08516 1.61414 0
M  V30 4183 C 406.136 2.19678 2.85331 0
M  V30 4184 C 405.989 3.7081 2.54598 0
M  V30 4185 C 407.308 2.09495 3.8704 0
M  V30 4186 H 404.427 0.469764 0.567883 0
M  V30 4187 H 407.069 1.65851 0.927001 0
M  V30 4188 H 405.219 1.8834 3.39795 0
M  V30 4189 H 406.891 4.12593 2.06312 0
M  V30 4190 H 405.134 3.91051 1.8778 0
M  V30 4191 H 405.805 4.29679 3.46525 0
M  V30 4192 H 408.281 2.37045 3.41978 0
M  V30 4193 H 407.157 2.75173 4.74943 0
M  V30 4194 H 407.418 1.07714 4.28777 0
M  V30 4195 N 406.477 -1.02803 1.19454 0
M  V30 4196 C 407.705 -1.79841 1.02297 0
M  V30 4197 C 408.12 -1.83879 -0.428259 0
M  V30 4198 O 407.477 -1.28345 -1.29745 0
M  V30 4199 C 407.528 -3.24852 1.58598 0
M  V30 4200 O 407.249 -3.21097 2.98041 0
M  V30 4201 C 408.75 -4.18485 1.46236 0
M  V30 4202 H 405.97 -0.565936 0.360496 0
M  V30 4203 H 408.514 -1.2948 1.58288 0
M  V30 4204 H 406.669 -3.72401 1.06753 0
M  V30 4205 H 407.083 -4.12033 3.24545 0
M  V30 4206 H 408.557 -5.18121 1.90407 0
M  V30 4207 H 409.034 -4.37254 0.41301 0
M  V30 4208 H 409.64 -3.76811 1.97215 0
M  V30 4209 N 407.956 -0.998596 -1.21925 0
M  V30 4210 C 408.919 -0.558679 -2.22287 0
M  V30 4211 C 409.919 0.361525 -1.56683 0
M  V30 4212 O 411.109 0.152695 -1.73529 0
M  V30 4213 C 408.241 0.18661 -3.40389 0
M  V30 4214 H 409.434 -1.4463 -2.62721 0
M  V30 4215 H 406.987 -0.786413 -1.35075 0
M  V30 4216 H 407.722 1.08996 -3.05435 0
M  V30 4217 H 407.507 -0.474188 -3.89222 0
M  V30 4218 H 408.997 0.482367 -4.14805 0
M  V30 4219 N 409.434 1.37368 -0.772513 0
M  V30 4220 C 410.68 1.99969 -0.337681 0
M  V30 4221 C 411.013 1.61184 1.08321 0
M  V30 4222 O 410.288 0.858395 1.74533 0
M  V30 4223 C 410.571 3.56858 -0.482121 0
M  V30 4224 C 410.424 4.0555 -1.94549 0
M  V30 4225 C 411.743 4.39955 0.113143 0
M  V30 4226 H 408.862 0.726464 -0.124171 0
M  V30 4227 H 411.504 1.63034 -0.975699 0
M  V30 4228 H 409.654 3.88452 0.0610361 0
M  V30 4229 H 411.326 3.84518 -2.54841 0
M  V30 4230 H 409.569 3.57715 -2.45403 0
M  V30 4231 H 410.24 5.14587 -1.9976 0
M  V30 4232 H 412.716 4.14623 -0.35031 0
M  V30 4233 H 411.592 5.48897 -0.0180514 0
M  V30 4234 H 411.853 4.25403 1.20354 0
M  V30 4235 N 410.912 0.523116 1.48665 0
M  V30 4236 C 412.16 -0.0134497 2.02096 0
M  V30 4237 C 412.481 -1.35418 1.40311 0
M  V30 4238 O 411.751 -1.87543 0.566074 0
M  V30 4239 H 410.331 -0.00795915 0.746958 0
M  V30 4240 H 412.993 0.685388 1.82451 0
M  V30 4241 H 412.089 -0.126849 3.11842 0
M  V30 4242 N 412.39 -1.55475 0.257931 0
M  V30 4243 C 413.636 -1.99502 -0.364266 0
M  V30 4244 C 413.969 -1.146 -1.56782 0
M  V30 4245 O 413.244 -0.211968 -1.93342 0
M  V30 4246 C 413.527 -3.51917 -0.763333 0
M  V30 4247 C 413.38 -4.4758 0.446371 0
M  V30 4248 C 414.699 -4.09742 -1.60623 0
M  V30 4249 H 411.818 -0.725277 -0.130929 0
M  V30 4250 H 414.46 -1.8653 0.361446 0
M  V30 4251 H 412.61 -3.63101 -1.38166 0
M  V30 4252 H 414.282 -4.48362 1.08487 0
M  V30 4253 H 412.525 -4.19947 1.08753 0
M  V30 4254 H 413.196 -5.51862 0.123645 0
M  V30 4255 H 415.672 -4.01727 -1.08418 0
M  V30 4256 H 414.548 -5.16631 -1.85429 0
M  V30 4257 H 414.809 -3.58889 -2.58169 0
M  V30 4258 N 413.868 0.0150385 -1.57593 0
M  V30 4259 C 414.816 1.02958 -2.08572 0
M  V30 4260 C 415.81 1.36554 -1.00246 0
M  V30 4261 O 417.016 1.35295 -1.18724 0
M  V30 4262 H 413.391 0.349619 -0.665786 0
M  V30 4263 H 415.362 0.573932 -2.92829 0
M  V30 4264 C 414.111 2.31752 -2.59203 0
M  V30 4265 H 413.434 2.06765 -3.42182 0
M  V30 4266 H 414.874 3.01053 -2.98568 0
M  V30 4267 C 413.333 3.01692 -1.49945 0
M  V30 4268 O 413.863 3.92083 -0.873704 0
M  V30 4269 N 412.069 2.6326 -1.23056 0
M  V30 4270 H 411.616 1.89838 -1.74125 0
M  V30 4271 H 411.574 3.10372 -0.501685 0
M  V30 4272 N 415.346 1.54954 0.287554 0
M  V30 4273 C 416.571 1.79209 1.04397 0
M  V30 4274 C 416.996 0.556431 1.79682 0
M  V30 4275 O 416.354 -0.493518 1.74454 0
M  V30 4276 C 416.402 3.00739 1.98969 0
M  V30 4277 O 415.506 2.74805 3.075 0
M  V30 4278 H 414.847 0.592755 0.299227 0
M  V30 4279 H 417.377 2.02068 0.320886 0
M  V30 4280 H 417.387 3.29077 2.4119 0
M  V30 4281 H 416.062 3.90329 1.43582 0
M  V30 4282 H 414.639 2.57523 2.69697 0
M  V30 4283 N 416.824 -0.551391 1.4764 0
M  V30 4284 C 417.756 -1.67333 1.56628 0
M  V30 4285 C 418.769 -1.56398 0.452045 0
M  V30 4286 O 419.958 -1.6325 0.721926 0
M  V30 4287 C 417.058 -3.05841 1.45994 0
M  V30 4288 C 416.231 -3.42472 2.72088 0
M  V30 4289 C 415.29 -4.60168 2.55209 0
M  V30 4290 O 414.316 -4.64458 3.2904 0
M  V30 4291 N 415.518 -5.57024 1.63416 0
M  V30 4292 H 418.283 -1.60066 2.53375 0
M  V30 4293 H 415.844 -0.738169 1.44093 0
M  V30 4294 H 417.836 -3.8242 1.32428 0
M  V30 4295 H 416.406 -3.07302 0.573071 0
M  V30 4296 H 415.626 -2.55284 3.00373 0
M  V30 4297 H 416.914 -3.63723 3.55785 0
M  V30 4298 H 416.312 -5.56319 1.02594 0
M  V30 4299 H 414.869 -6.32906 1.558 0
M  V30 4300 N 418.302 -1.35869 -0.798587 0
M  V30 4301 C 419.53 -1.32722 -1.58722 0
M  V30 4302 C 419.945 0.0935631 -1.88568 0
M  V30 4303 O 419.302 1.04784 -1.49421 0
M  V30 4304 C 419.353 -2.13974 -2.91371 0
M  V30 4305 O 419.074 -3.50514 -2.62815 0
M  V30 4306 C 420.575 -2.18504 -3.85708 0
M  V30 4307 H 417.795 -0.45562 -0.492596 0
M  V30 4308 H 420.339 -1.78837 -0.991843 0
M  V30 4309 H 418.494 -1.71438 -3.47402 0
M  V30 4310 H 418.908 -3.92806 -3.47568 0
M  V30 4311 H 420.382 -2.79732 -4.75872 0
M  V30 4312 H 420.859 -1.18597 -4.22885 0
M  V30 4313 H 421.465 -2.61236 -3.35612 0
M  V30 4314 N 419.78 1.02168 -1.19998 0
M  V30 4315 C 421.028 1.75338 -1.00504 0
M  V30 4316 C 421.349 1.89387 0.464506 0
M  V30 4317 O 420.619 1.43268 1.33608 0
M  V30 4318 H 419.199 0.649564 -0.368885 0
M  V30 4319 H 421.861 1.23205 -1.51018 0
M  V30 4320 H 420.957 2.75892 -1.45912 0
M  V30 4321 N 421.258 1.00505 1.21394 0
M  V30 4322 C 422.507 0.683159 1.89778 0
M  V30 4323 C 422.82 -0.789471 1.7896 0
M  V30 4324 O 424.026 -1.22344 2.42372 0
M  V30 4325 C 422.482 1.17146 3.40301 0
M  V30 4326 C 422.09 2.67017 3.5973 0
M  V30 4327 C 423.834 0.924461 4.14311 0
M  V30 4328 C 421.741 3.09387 5.04017 0
M  V30 4329 H 420.671 0.25183 0.710702 0
M  V30 4330 H 423.322 1.21622 1.37406 0
M  V30 4331 H 421.704 0.566451 3.91928 0
M  V30 4332 H 422.878 3.32968 3.18542 0
M  V30 4333 H 421.193 2.89732 2.99073 0
M  V30 4334 H 423.79 1.21658 5.20676 0
M  V30 4335 H 424.133 -0.139286 4.16067 0
M  V30 4336 H 424.666 1.49226 3.6875 0
M  V30 4337 H 421.405 4.14989 5.07409 0
M  V30 4338 H 420.925 2.48149 5.46061 0
M  V30 4339 H 422.604 3.01371 5.72525 0
M  V30 4340 N 422.737 -1.36956 0.779787 0
M  V30 4341 C 423.986 -1.98738 0.344405 0
M  V30 4342 C 424.299 -1.62596 -1.08728 0
M  V30 4343 O 425.505 -2.1754 -1.62445 0
M  V30 4344 C 423.961 -3.5544 0.564829 0
M  V30 4345 C 423.569 -4.00514 2.0073 0
M  V30 4346 C 425.313 -4.24059 0.193471 0
M  V30 4347 C 423.22 -5.49957 2.17489 0
M  V30 4348 H 422.15 -0.743561 0.12503 0
M  V30 4349 H 424.801 -1.56381 0.960057 0
M  V30 4350 H 423.183 -3.95817 -0.120397 0
M  V30 4351 H 424.357 -3.71362 2.72814 0
M  V30 4352 H 422.672 -3.44703 2.336 0
M  V30 4353 H 425.269 -5.33874 0.297097 0
M  V30 4354 H 425.612 -4.07378 -0.857263 0
M  V30 4355 H 426.145 -3.89012 0.831556 0
M  V30 4356 H 422.884 -5.71574 3.2091 0
M  V30 4357 H 422.404 -5.80767 1.49899 0
M  V30 4358 H 424.083 -6.16043 1.97738 0
M  V30 4359 N 424.215 -0.530993 -1.48385 0
M  V30 4360 C 425.462 0.0027373 -2.025 0
M  V30 4361 C 425.79 1.34186 -1.40799 0
M  V30 4362 O 425.045 1.88 -0.543544 0
M  V30 4363 C 425.344 0.172742 -3.56982 0
M  V30 4364 C 425.01 -1.09215 -4.37473 0
M  V30 4365 C 423.672 -1.43881 -4.59186 0
M  V30 4366 C 426.024 -1.93153 -4.84088 0
M  V30 4367 C 423.352 -2.62381 -5.2476 0
M  V30 4368 C 425.704 -3.10833 -5.50968 0
M  V30 4369 C 424.368 -3.45843 -5.70919 0
M  V30 4370 H 423.638 0.00100165 -0.740999 0
M  V30 4371 H 426.285 -0.697219 -1.78357 0
M  V30 4372 H 424.59 0.955473 -3.79971 0
M  V30 4373 H 426.287 0.600642 -3.96476 0
M  V30 4374 H 422.877 -0.812177 -4.20834 0
M  V30 4375 H 427.061 -1.67683 -4.67115 0
M  V30 4376 H 422.317 -2.89707 -5.38405 0
M  V30 4377 H 426.491 -3.7618 -5.86056 0
M  V30 4378 H 424.118 -4.37764 -6.21503 0
M  V30 4379 N 425.693 1.55336 -0.266172 0
M  V30 4380 C 426.921 2.03801 0.356756 0
M  V30 4381 C 427.336 1.14485 1.50129 0
M  V30 4382 O 426.693 0.163121 1.8177 0
M  V30 4383 C 426.744 3.51455 0.846281 0
M  V30 4384 O 426.465 4.37371 -0.252663 0
M  V30 4385 C 427.966 4.15767 1.53794 0
M  V30 4386 H 425.186 0.665906 0.0825218 0
M  V30 4387 H 427.73 2.00636 -0.39566 0
M  V30 4388 H 425.885 3.55092 1.54881 0
M  V30 4389 H 426.299 5.24358 0.122173 0
M  V30 4390 H 427.773 5.20714 1.83198 0
M  V30 4391 H 428.25 3.63404 2.46646 0
M  V30 4392 H 428.856 4.16107 0.879488 0
M  V30 4393 N 427.171 -0.0066808 1.57599 0
M  V30 4394 C 428.101 -0.999296 2.11036 0
M  V30 4395 C 429.082 -1.36278 1.01795 0
M  V30 4396 O 430.267 -1.4477 1.29442 0
M  V30 4397 C 427.397 -2.29328 2.60818 0
M  V30 4398 C 426.351 -2.07159 3.74525 0
M  V30 4399 C 425.677 -3.42512 4.10596 0
M  V30 4400 C 426.977 -1.43959 5.02069 0
M  V30 4401 H 428.671 -0.554382 2.94223 0
M  V30 4402 H 426.217 -0.265221 1.41536 0
M  V30 4403 H 428.17 -2.99117 2.96828 0
M  V30 4404 H 426.894 -2.7592 1.74745 0
M  V30 4405 H 425.553 -1.39797 3.38899 0
M  V30 4406 H 425.201 -3.86795 3.21556 0
M  V30 4407 H 424.901 -3.28498 4.87199 0
M  V30 4408 H 426.425 -4.13628 4.4916 0
M  V30 4409 H 427.839 -2.03696 5.35893 0
M  V30 4410 H 426.236 -1.40452 5.83432 0
M  V30 4411 H 427.306 -0.407992 4.83181 0
M  V30 4412 N 428.649 -1.55105 -0.279332 0
M  V30 4413 C 429.579 -1.90557 -1.34945 0
M  V30 4414 C 430.56 -0.766738 -1.51839 0
M  V30 4415 O 431.745 -1.02434 -1.64988 0
M  V30 4416 C 428.875 -2.17193 -2.71006 0
M  V30 4417 C 427.829 -3.33021 -2.68851 0
M  V30 4418 C 427.155 -3.45123 -4.08405 0
M  V30 4419 C 428.455 -4.69578 -2.28678 0
M  V30 4420 H 430.149 -2.80188 -1.05522 0
M  V30 4421 H 427.695 -1.34811 -0.506173 0
M  V30 4422 H 429.648 -2.40581 -3.45975 0
M  V30 4423 H 428.372 -1.24355 -3.01999 0
M  V30 4424 H 427.031 -3.0959 -1.9634 0
M  V30 4425 H 426.679 -2.49762 -4.3661 0
M  V30 4426 H 426.379 -4.22995 -4.07859 0
M  V30 4427 H 427.903 -3.70796 -4.85121 0
M  V30 4428 H 429.317 -4.92553 -2.93368 0
M  V30 4429 H 427.714 -5.5032 -2.39306 0
M  V30 4430 H 428.784 -4.68828 -1.23807 0
M  V30 4431 N 430.127 0.543554 -1.4793 0
M  V30 4432 C 431.375 1.29752 -1.54948 0
M  V30 4433 C 431.696 1.93764 -0.219242 0
M  V30 4434 O 430.966 1.80639 0.75805 0
M  V30 4435 H 429.546 0.481874 -0.570795 0
M  V30 4436 H 432.208 0.633636 -1.84312 0
M  V30 4437 H 431.304 2.08392 -2.32334 0
M  V30 4438 N 431.605 1.3629 0.791371 0
M  V30 4439 C 432.568 1.30309 1.88553 0
M  V30 4440 C 433.568 0.211204 1.59407 0
M  V30 4441 O 434.758 0.465865 1.67855 0
M  V30 4442 C 431.89 1.01956 3.25297 0
M  V30 4443 H 433.083 2.27614 1.95273 0
M  V30 4444 H 430.636 1.21035 0.988953 0
M  V30 4445 H 431.371 0.050998 3.2426 0
M  V30 4446 H 431.156 1.80968 3.4784 0
M  V30 4447 H 432.646 1.0037 4.05359 0
M  V30 4448 N 433.083 -1.0153 1.20538 0
M  V30 4449 C 434.331 -1.74803 1.01432 0
M  V30 4450 C 434.652 -1.8963 -0.454456 0
M  V30 4451 O 433.922 -1.43975 -1.32846 0
M  V30 4452 H 432.502 -0.647598 0.372324 0
M  V30 4453 H 435.164 -1.22402 1.5167 0
M  V30 4454 H 434.26 -2.75114 1.47373 0
M  V30 4455 N 434.561 -1.01147 -1.20859 0
M  V30 4456 C 435.809 -0.696486 -1.89719 0
M  V30 4457 C 436.13 0.775788 -1.78904 0
M  V30 4458 O 435.4 1.55759 -1.18811 0
M  V30 4459 H 433.98 -0.254628 -0.702263 0
M  V30 4460 H 436.642 -1.28197 -1.46804 0
M  V30 4461 H 435.738 -0.975357 -2.96468 0
M  V30 4462 N 436.039 1.36541 -0.78704 0
M  V30 4463 C 436.949 2.3387 -0.184896 0
M  V30 4464 C 437.965 1.60927 0.661697 0
M  V30 4465 O 439.141 1.92927 0.57804 0
M  V30 4466 C 436.206 3.40122 0.672145 0
M  V30 4467 C 435.267 4.28867 -0.19267 0
M  V30 4468 C 434.5 5.30045 0.623561 0
M  V30 4469 O 434.723 5.39232 1.8597 0
M  V30 4470 O 433.657 6.01895 0.0247068 0
M  V30 4471 H 437.483 2.87126 -0.989562 0
M  V30 4472 H 435.068 1.38969 -0.548455 0
M  V30 4473 H 436.95 4.05093 1.16094 0
M  V30 4474 H 435.625 2.89169 1.45474 0
M  V30 4475 H 434.532 3.66945 -0.728166 0
M  V30 4476 H 435.865 4.83165 -0.938722 0
M  V30 4477 N 437.518 0.538854 1.48102 0
M  V30 4478 C 438.428 -0.222648 2.33541 0
M  V30 4479 C 439.444 -0.930225 1.47047 0
M  V30 4480 O 440.62 -0.903211 1.80011 0
M  V30 4481 C 437.685 -1.25064 3.23357 0
M  V30 4482 C 436.746 -0.552469 4.2573 0
M  V30 4483 C 435.979 -1.53149 5.11254 0
M  V30 4484 O 436.202 -2.76487 4.9891 0
M  V30 4485 O 435.136 -1.06602 5.92385 0
M  V30 4486 H 438.962 0.477707 2.99919 0
M  V30 4487 H 436.547 0.299669 1.46364 0
M  V30 4488 H 438.429 -1.8445 3.78888 0
M  V30 4489 H 437.104 -1.93325 2.59629 0
M  V30 4490 H 436.011 0.082114 3.7401 0
M  V30 4491 H 437.344 0.0883526 4.92121 0
M  V30 4492 N 438.996 -1.55193 0.274407 0
M  V30 4493 C 439.906 -2.26164 -0.623473 0
M  V30 4494 C 440.922 -1.28729 -1.17068 0
M  V30 4495 O 442.098 -1.61663 -1.20112 0
M  V30 4496 C 439.163 -2.96833 -1.7914 0
M  V30 4497 C 438.224 -4.09745 -1.28093 0
M  V30 4498 C 437.457 -4.77034 -2.3932 0
M  V30 4499 O 437.68 -4.4353 -3.5866 0
M  V30 4500 O 436.614 -5.64996 -2.07516 0
M  V30 4501 H 440.44 -3.03661 -0.0485661 0
M  V30 4502 H 438.025 -1.49341 0.0418382 0
M  V30 4503 H 439.907 -3.41248 -2.4724 0
M  V30 4504 H 438.582 -2.22253 -2.35341 0
M  V30 4505 H 437.489 -3.69787 -0.566416 0
M  V30 4506 H 438.822 -4.86224 -0.764683 0
M  V30 4507 N 440.474 -0.00167713 -1.576 0
M  V30 4508 C 441.384 1.00548 -2.1196 0
M  V30 4509 C 442.4 1.3758 -1.06526 0
M  V30 4510 O 443.576 1.46278 -1.38436 0
M  V30 4511 C 440.641 2.27809 -2.6135 0
M  V30 4512 C 439.702 1.97074 -3.81393 0
M  V30 4513 C 438.935 3.18267 -4.28417 0
M  V30 4514 O 439.158 4.30009 -3.74765 0
M  V30 4515 O 438.092 3.02167 -5.20556 0
M  V30 4516 H 441.918 0.573373 -2.98238 0
M  V30 4517 H 439.503 0.217255 -1.47812 0
M  V30 4518 H 441.385 3.02568 -2.93309 0
M  V30 4519 H 440.06 2.70254 -1.78169 0
M  V30 4520 H 438.967 1.19785 -3.54404 0
M  V30 4521 H 440.3 1.59464 -4.65652 0
M  V30 4522 N 441.952 1.55251 0.271103 0
M  V30 4523 C 442.899 1.88261 1.33516 0
M  V30 4524 C 443.869 0.734296 1.48988 0
M  V30 4525 O 445.054 0.985741 1.63364 0
M  V30 4526 C 442.194 2.16168 2.69008 0
M  V30 4527 C 441.307 3.43678 2.61743 0
M  V30 4528 C 440.442 3.61276 3.89427 0
M  V30 4529 C 439.481 4.82472 3.7668 0
M  V30 4530 N 438.618 4.96717 4.96202 0
M  V30 4531 H 443.458 2.79015 1.04665 0
M  V30 4532 H 440.995 1.38137 0.505618 0
M  V30 4533 H 442.953 2.30349 3.47844 0
M  V30 4534 H 441.583 1.28646 2.96057 0
M  V30 4535 H 440.635 3.37959 1.74607 0
M  V30 4536 H 441.947 4.3265 2.48224 0
M  V30 4537 H 441.101 3.75284 4.76704 0
M  V30 4538 H 439.84 2.70492 4.05814 0
M  V30 4539 H 438.845 4.68465 2.87786 0
M  V30 4540 H 440.07 5.74692 3.61809 0
M  V30 4541 H 438.016 4.08865 5.12997 0
M  V30 4542 H 437.933 5.79738 4.85222 0
M  V30 4543 H 439.201 5.15113 5.85046 0
M  V30 4544 N 443.43 -0.535701 1.48216 0
M  V30 4545 C 444.377 -1.64083 1.62312 0
M  V30 4546 C 445.347 -1.59448 0.465365 0
M  V30 4547 O 446.532 -1.77959 0.688135 0
M  V30 4548 C 443.672 -3.0236 1.66349 0
M  V30 4549 C 442.785 -3.17273 2.93193 0
M  V30 4550 C 441.92 -4.46075 2.88427 0
M  V30 4551 C 440.959 -4.54496 4.1 0
M  V30 4552 N 440.096 -5.7468 4.03345 0
M  V30 4553 H 444.936 -1.51374 2.5669 0
M  V30 4554 H 442.473 -0.737059 1.27302 0
M  V30 4555 H 444.431 -3.82461 1.66672 0
M  V30 4556 H 443.061 -3.13854 0.754672 0
M  V30 4557 H 442.113 -2.30462 3.02641 0
M  V30 4558 H 443.425 -3.19357 3.83162 0
M  V30 4559 H 442.579 -5.3446 2.87119 0
M  V30 4560 H 441.318 -4.46504 1.96177 0
M  V30 4561 H 440.323 -3.64519 4.11589 0
M  V30 4562 H 441.548 -4.5581 5.03402 0
M  V30 4563 H 439.494 -5.76017 3.13912 0
M  V30 4564 H 439.411 -5.78234 4.87013 0
M  V30 4565 H 440.679 -6.65367 4.06087 0
M  V30 4566 N 444.908 -1.36708 -0.784132 0
M  V30 4567 C 446.185 -1.21776 -1.53069 0
M  V30 4568 C 446.565 0.193876 -2.10208 0
M  V30 4569 O 445.913 1.20012 -1.94446 0
M  V30 4570 C 446.123 -2.30395 -2.62143 0
M  V30 4571 C 447.471 -2.67325 -3.29882 0
M  V30 4572 O 448.495 -2.29478 -2.7243 0
M  V30 4573 O 447.354 -3.32485 -4.33724 0
M  V30 4574 H 444.448 -0.474459 -0.677361 0
M  V30 4575 H 446.994 -1.48454 -0.82216 0
M  V30 4576 H 445.766 -3.2498 -2.17953 0
M  V30 4577 H 445.389 -2.05112 -3.40609 0
M  V30 4578 N 446.386 1.0089 -1.21074 0
M  V30 4579 C 447.296 2.13039 -0.982425 0
M  V30 4580 C 448.312 1.73881 0.0642161 0
M  V30 4581 O 449.488 2.01012 -0.12496 0
M  V30 4582 C 446.553 3.42377 -0.545803 0
M  V30 4583 C 445.614 3.95731 -1.6642 0
M  V30 4584 C 444.847 5.18896 -1.24832 0
M  V30 4585 O 445.07 5.70273 -0.120265 0
M  V30 4586 O 444.004 5.65597 -2.05873 0
M  V30 4587 H 447.83 2.35175 -1.92163 0
M  V30 4588 H 445.415 1.1142 -0.995285 0
M  V30 4589 H 447.297 4.20244 -0.311912 0
M  V30 4590 H 445.972 3.21639 0.364727 0
M  V30 4591 H 444.879 3.19108 -1.95246 0
M  V30 4592 H 446.212 4.20872 -2.55201 0
M  V30 4593 N 447.864 1.01787 1.20321 0
M  V30 4594 C 448.811 0.589197 2.23153 0
M  V30 4595 C 449.781 -0.391367 1.61423 0
M  V30 4596 O 450.966 -0.290518 1.88575 0
M  V30 4597 C 448.106 -0.0650747 3.45039 0
M  V30 4598 C 447.219 0.960207 4.21194 0
M  V30 4599 C 446.354 0.276854 5.30478 0
M  V30 4600 C 445.393 1.2888 5.98378 0
M  V30 4601 N 444.53 0.632031 6.99249 0
M  V30 4602 H 449.37 1.47071 2.59179 0
M  V30 4603 H 446.907 0.736192 1.27352 0
M  V30 4604 H 448.865 -0.461552 4.14639 0
M  V30 4605 H 447.495 -0.910233 3.09701 0
M  V30 4606 H 446.547 1.47484 3.50646 0
M  V30 4607 H 447.859 1.72977 4.67847 0
M  V30 4608 H 447.013 -0.175056 6.06447 0
M  V30 4609 H 445.752 -0.525004 4.84866 0
M  V30 4610 H 444.757 1.75109 5.21169 0
M  V30 4611 H 445.982 2.09196 6.46076 0
M  V30 4612 H 443.928 -0.149935 6.55829 0
M  V30 4613 H 443.845 1.33964 7.44036 0
M  V30 4614 H 445.113 0.203755 7.79234 0
M  V30 4615 N 449.342 -1.36122 0.79427 0
M  V30 4616 C 450.289 -2.29982 0.194101 0
M  V30 4617 C 451.259 -1.52214 -0.664833 0
M  V30 4618 O 452.444 -1.80702 -0.612498 0
M  V30 4619 C 449.584 -3.38706 -0.661244 0
M  V30 4620 C 448.697 -4.31456 0.216766 0
M  V30 4621 C 447.832 -5.27265 -0.645411 0
M  V30 4622 C 446.871 -6.11653 0.233756 0
M  V30 4623 N 446.008 -6.99636 -0.587682 0
M  V30 4624 H 450.848 -2.80722 0.999965 0
M  V30 4625 H 448.385 -1.38172 0.504677 0
M  V30 4626 H 450.343 -4.00394 -1.17219 0
M  V30 4627 H 448.973 -2.89274 -1.43249 0
M  V30 4628 H 448.025 -3.7088 0.845724 0
M  V30 4629 H 449.337 -4.90724 0.893973 0
M  V30 4630 H 448.491 -5.94266 -1.22198 0
M  V30 4631 H 447.23 -4.68463 -1.35623 0
M  V30 4632 H 446.235 -5.4361 0.82269 0
M  V30 4633 H 447.46 -6.72531 0.942247 0
M  V30 4634 H 445.406 -6.43337 -1.2827 0
M  V30 4635 H 445.323 -7.55993 0.0317402 0
M  V30 4636 H 446.591 -7.71001 -1.14792 0
M  V30 4637 N 450.82 -0.546701 -1.47814 0
M  V30 4638 C 451.767 0.206854 -2.29871 0
M  V30 4639 C 452.737 0.918235 -1.38411 0
M  V30 4640 O 453.922 0.915991 -1.67375 0
M  V30 4641 C 451.062 1.23746 -3.22151 0
M  V30 4642 C 450.175 0.533216 -4.28697 0
M  V30 4643 C 449.31 1.5482 -5.08138 0
M  V30 4644 C 448.349 0.828347 -6.06469 0
M  V30 4645 N 447.486 1.78966 -6.78908 0
M  V30 4646 H 452.326 -0.499037 -2.93792 0
M  V30 4647 H 449.863 -0.25793 -1.44821 0
M  V30 4648 H 451.821 1.84746 -3.74065 0
M  V30 4649 H 450.451 1.91151 -2.60117 0
M  V30 4650 H 449.503 -0.191089 -3.7992 0
M  V30 4651 H 450.815 -0.0311987 -4.9879 0
M  V30 4652 H 449.969 2.23202 -5.6415 0
M  V30 4653 H 448.708 2.14652 -4.37922 0
M  V30 4654 H 447.713 0.130539 -5.49645 0
M  V30 4655 H 448.938 0.235907 -6.7869 0
M  V30 4656 H 446.884 2.37675 -6.1143 0
M  V30 4657 H 446.801 1.27712 -7.45135 0
M  V30 4658 H 448.069 2.46496 -7.395 0
M  V30 4659 N 452.299 1.55045 -0.282633 0
M  V30 4660 C 453.209 2.26491 0.61147 0
M  V30 4661 C 454.225 1.29348 1.16384 0
M  V30 4662 O 455.401 1.62298 1.19253 0
M  V30 4663 C 452.466 2.97779 1.77563 0
M  V30 4664 C 451.527 4.10418 1.25919 0
M  V30 4665 C 450.76 4.78297 2.36786 0
M  V30 4666 O 450.983 4.45426 3.56303 0
M  V30 4667 O 449.917 5.66089 2.04517 0
M  V30 4668 H 453.743 3.03683 0.0324615 0
M  V30 4669 H 451.328 1.49317 -0.0497576 0
M  V30 4670 H 453.21 3.42554 2.45427 0
M  V30 4671 H 451.885 2.23498 2.34159 0
M  V30 4672 H 450.792 3.70082 0.546797 0
M  V30 4673 H 452.125 4.86622 0.738887 0
M  V30 4674 N 453.777 0.010035 1.57597 0
M  V30 4675 C 454.724 -0.978122 2.09049 0
M  V30 4676 C 455.694 -1.33509 0.988159 0
M  V30 4677 O 456.879 -1.43172 1.26121 0
M  V30 4678 C 454.019 -2.26158 2.60666 0
M  V30 4679 C 453.132 -1.96275 3.84838 0
M  V30 4680 C 452.267 -3.18776 4.24918 0
M  V30 4681 C 451.306 -2.84625 5.41899 0
M  V30 4682 N 450.443 -3.99693 5.77226 0
M  V30 4683 H 455.283 -0.532431 2.93205 0
M  V30 4684 H 452.82 -0.251234 1.44939 0
M  V30 4685 H 454.778 -3.01202 2.88675 0
M  V30 4686 H 453.408 -2.68378 1.79369 0
M  V30 4687 H 452.46 -1.11555 3.63675 0
M  V30 4688 H 453.772 -1.67111 4.69974 0
M  V30 4689 H 452.926 -4.02157 4.54262 0
M  V30 4690 H 451.665 -3.51087 3.38511 0
M  V30 4691 H 450.67 -1.99653 5.12268 0
M  V30 4692 H 451.895 -2.53551 6.29991 0
M  V30 4693 H 449.841 -4.31882 4.93776 0
M  V30 4694 H 449.758 -3.74087 6.56959 0
M  V30 4695 H 451.026 -4.83834 6.11167 0
M  V30 4696 N 455.255 -1.55392 -0.262866 0
M  V30 4697 C 456.202 -1.88966 -1.32516 0
M  V30 4698 C 457.172 -0.742187 -1.48596 0
M  V30 4699 O 458.357 -0.99439 -1.62839 0
M  V30 4700 C 455.497 -2.17592 -2.67858 0
M  V30 4701 C 454.61 -3.45061 -2.59917 0
M  V30 4702 C 453.745 -3.63336 -3.87505 0
M  V30 4703 C 452.784 -4.84462 -3.74116 0
M  V30 4704 N 451.921 -4.99342 -4.93561 0
M  V30 4705 H 456.761 -2.79566 -1.03184 0
M  V30 4706 H 454.298 -1.38404 -0.498285 0
M  V30 4707 H 456.256 -2.3219 -3.46617 0
M  V30 4708 H 454.886 -1.30215 -2.95371 0
M  V30 4709 H 453.938 -3.38881 -1.72812 0
M  V30 4710 H 455.25 -4.3396 -2.45926 0
M  V30 4711 H 454.404 -3.77807 -4.74707 0
M  V30 4712 H 453.143 -2.72641 -4.04374 0
M  V30 4713 H 452.148 -4.69985 -2.85297 0
M  V30 4714 H 453.373 -5.76603 -3.58757 0
M  V30 4715 H 451.319 -4.1158 -5.10821 0
M  V30 4716 H 451.236 -5.82303 -4.82141 0
M  V30 4717 H 452.504 -5.18208 -5.82306 0
M  V30 4718 N 456.733 0.527833 -1.48498 0
M  V30 4719 C 457.681 1.65313 -1.63628 0
M  V30 4720 C 458.675 1.6177 -0.502676 0
M  V30 4721 O 459.881 1.66601 -0.681469 0
M  V30 4722 H 456.256 0.547518 -0.515488 0
M  V30 4723 H 458.227 1.49696 -2.58135 0
M  V30 4724 C 456.976 3.03576 -1.6952 0
M  V30 4725 H 456.299 3.06997 -2.56111 0
M  V30 4726 H 457.739 3.81923 -1.84149 0
M  V30 4727 C 456.198 3.34089 -0.43432 0
M  V30 4728 O 456.728 3.99151 0.451852 0
M  V30 4729 N 454.934 2.88991 -0.305368 0
M  V30 4730 H 454.481 2.36222 -1.02747 0
M  V30 4731 H 454.439 3.09776 0.537249 0
M  V30 4732 N 458.211 1.37122 0.776871 0
M  V30 4733 C 459.158 1.3247 1.88998 0
M  V30 4734 C 460.128 0.191143 1.64997 0
M  V30 4735 O 461.313 0.379683 1.86984 0
M  V30 4736 C 458.453 1.13241 3.25992 0
M  V30 4737 C 457.566 2.35782 3.61982 0
M  V30 4738 C 456.701 2.09465 4.88158 0
M  V30 4739 C 455.74 3.279 5.16864 0
M  V30 4740 N 454.877 3.01167 6.34226 0
M  V30 4741 H 459.717 2.27642 1.9231 0
M  V30 4742 H 457.254 1.13125 0.94027 0
M  V30 4743 H 459.212 1.00115 4.0501 0
M  V30 4744 H 457.842 0.217186 3.22069 0
M  V30 4745 H 456.894 2.59666 2.77989 0
M  V30 4746 H 458.206 3.24125 3.79137 0
M  V30 4747 H 457.36 1.93341 5.75069 0
M  V30 4748 H 456.099 1.18452 4.73097 0
M  V30 4749 H 455.104 3.44569 4.2843 0
M  V30 4750 H 456.329 4.19757 5.33836 0
M  V30 4751 H 454.275 2.12779 6.20533 0
M  V30 4752 H 454.192 3.83052 6.51772 0
M  V30 4753 H 455.46 2.88649 7.24087 0
M  V30 4754 N 459.689 -1.00246 1.21608 0
M  V30 4755 C 460.636 -2.09073 0.977613 0
M  V30 4756 C 461.606 -1.65815 -0.097297 0
M  V30 4757 O 462.791 -1.90734 0.0503445 0
M  V30 4758 C 459.931 -3.40671 0.551133 0
M  V30 4759 C 459.044 -3.97326 1.69576 0
M  V30 4760 C 458.179 -5.17043 1.2182 0
M  V30 4761 C 457.218 -5.65813 2.335 0
M  V30 4762 N 456.355 -6.76778 1.86859 0
M  V30 4763 H 461.195 -2.28806 1.90924 0
M  V30 4764 H 458.732 -1.12186 0.951452 0
M  V30 4765 H 460.69 -4.16225 0.285097 0
M  V30 4766 H 459.32 -3.20967 -0.343489 0
M  V30 4767 H 458.372 -3.18734 2.07637 0
M  V30 4768 H 459.684 -4.29511 2.53617 0
M  V30 4769 H 458.838 -5.99852 0.908975 0
M  V30 4770 H 457.577 -4.86458 0.347869 0
M  V30 4771 H 456.582 -4.81599 2.65222 0
M  V30 4772 H 457.807 -5.98427 3.21033 0
M  V30 4773 H 455.753 -6.47994 1.02174 0
M  V30 4774 H 455.67 -7.08231 2.64471 0
M  V30 4775 H 456.938 -7.63116 1.58978 0
M  V30 4776 N 461.167 -1.02423 -1.1978 0
M  V30 4777 C 462.099 -0.559152 -2.22275 0
M  V30 4778 C 463.112 0.36251 -1.58713 0
M  V30 4779 O 464.301 0.159641 -1.77785 0
M  V30 4780 C 461.401 0.205094 -3.38279 0
M  V30 4781 C 460.574 -0.720361 -4.31427 0
M  V30 4782 C 459.633 -0.00234368 -5.262 0
M  V30 4783 O 458.659 -0.627378 -5.65732 0
M  V30 4784 N 459.861 1.26996 -5.66438 0
M  V30 4785 H 462.626 -1.44064 -2.62804 0
M  V30 4786 H 460.187 -0.902692 -1.34399 0
M  V30 4787 H 462.179 0.694868 -3.9869 0
M  V30 4788 H 460.749 0.987947 -2.96578 0
M  V30 4789 H 459.969 -1.39031 -3.68869 0
M  V30 4790 H 461.257 -1.3495 -4.90577 0
M  V30 4791 H 460.655 1.79858 -5.36347 0
M  V30 4792 H 459.212 1.70432 -6.29123 0
M  V30 4793 N 462.645 1.35699 -0.801477 0
M  V30 4794 C 463.922 1.9324 -0.302937 0
M  V30 4795 C 464.302 1.73209 1.20672 0
M  V30 4796 O 463.65 1.09809 2.00385 0
M  V30 4797 C 463.86 3.41728 -0.708747 0
M  V30 4798 C 465.208 4.18868 -0.695328 0
M  V30 4799 O 466.232 3.5022 -0.649971 0
M  V30 4800 O 465.091 5.41342 -0.749081 0
M  V30 4801 H 462.185 0.82331 -0.0780367 0
M  V30 4802 H 464.731 1.44806 -0.884832 0
M  V30 4803 H 463.503 3.50015 -1.74944 0
M  V30 4804 H 463.126 3.97471 -0.101384 0
M  V30 4805 N 464.123 0.554532 1.47522 0
M  V30 4806 C 465.371 0.0294208 2.02079 0
M  V30 4807 C 465.692 -1.32411 1.43151 0
M  V30 4808 O 464.962 -1.863 0.605728 0
M  V30 4809 H 463.542 0.00788672 0.746958 0
M  V30 4810 H 466.204 0.723934 1.80956 0
M  V30 4811 H 465.3 -0.0606745 3.12041 0
M  V30 4812 N 465.601 -1.54893 0.290851 0
M  V30 4813 C 466.564 -2.21824 -0.576784 0
M  V30 4814 C 467.564 -1.20104 -1.06919 0
M  V30 4815 O 468.754 -1.44906 -0.966843 0
M  V30 4816 C 465.886 -2.89662 -1.79747 0
M  V30 4817 H 467.079 -2.99899 0.00784051 0
M  V30 4818 H 464.632 -1.56245 0.0415934 0
M  V30 4819 H 465.367 -2.15639 -2.42219 0
M  V30 4820 H 465.152 -3.64219 -1.45214 0
M  V30 4821 H 466.642 -3.4075 -2.4141 0
M  V30 4822 N 467.08 -0.0183926 -1.57589 0
M  V30 4823 C 468.329 0.66185 -1.90532 0
M  V30 4824 C 468.642 1.73904 -0.895366 0
M  V30 4825 O 469.848 2.47518 -1.11566 0
M  V30 4826 C 468.304 1.22844 -3.38286 0
M  V30 4827 C 467.912 0.185103 -4.47617 0
M  V30 4828 C 469.656 1.88581 -3.80312 0
M  V30 4829 C 467.563 0.762723 -5.86461 0
M  V30 4830 H 466.493 0.250972 -0.711006 0
M  V30 4831 H 469.144 -0.0819435 -1.83317 0
M  V30 4832 H 467.526 2.0235 -3.40398 0
M  V30 4833 H 468.7 -0.58671 -4.5705 0
M  V30 4834 H 467.015 -0.372889 -4.14727 0
M  V30 4835 H 469.612 2.32735 -4.81392 0
M  V30 4836 H 469.955 2.72408 -3.14801 0
M  V30 4837 H 470.488 1.15782 -3.80578 0
M  V30 4838 H 467.227 -0.0371713 -6.55489 0
M  V30 4839 H 466.747 1.50327 -5.80656 0
M  V30 4840 H 468.426 1.25576 -6.34697 0
M  V30 4841 N 468.558 1.5553 0.254621 0
M  V30 4842 C 469.468 1.92789 1.33677 0
M  V30 4843 C 470.484 0.827356 1.53071 0
M  V30 4844 O 471.66 1.12807 1.66843 0
M  V30 4845 C 468.725 2.20827 2.67275 0
M  V30 4846 C 467.786 3.4427 2.5647 0
M  V30 4847 C 467.019 3.70961 3.83697 0
M  V30 4848 O 467.242 2.99852 4.85227 0
M  V30 4849 O 466.176 4.64491 3.82794 0
M  V30 4850 H 470.002 2.84945 1.05071 0
M  V30 4851 H 467.587 1.42312 0.454723 0
M  V30 4852 H 469.469 2.40204 3.46237 0
M  V30 4853 H 468.144 1.31851 2.9563 0
M  V30 4854 H 467.051 3.30209 1.75821 0
M  V30 4855 H 468.384 4.33524 2.33062 0
M  V30 4856 N 470.036 -0.519951 1.48776 0
M  V30 4857 C 470.984 -1.64443 1.64503 0
M  V30 4858 C 471.978 -1.61501 0.511248 0
M  V30 4859 O 473.184 -1.66238 0.690294 0
M  V30 4860 H 469.559 -0.544776 0.518385 0
M  V30 4861 H 471.53 -1.48325 2.58925 0
M  V30 4862 C 470.279 -3.02673 1.71127 0
M  V30 4863 H 469.602 -3.05635 2.57735 0
M  V30 4864 H 471.042 -3.80941 1.86172 0
M  V30 4865 C 469.501 -3.33854 0.452032 0
M  V30 4866 O 470.031 -3.99385 -0.430678 0
M  V30 4867 N 468.237 -2.88825 0.32069 0
M  V30 4868 H 467.784 -2.35674 1.03998 0
M  V30 4869 H 467.742 -3.10056 -0.520814 0
M  V30 4870 N 471.514 -1.37532 -0.769588 0
M  V30 4871 C 472.93 -1.18379 -1.07045 0
M  V30 4872 C 473.13 -0.0214312 -2.01489 0
M  V30 4873 O 472.186 0.637809 -2.44312 0
M  V30 4874 C 473.499 -2.50338 -1.66588 0
M  V30 4875 C 475.047 -2.56879 -1.78835 0
M  V30 4876 C 475.522 -3.88974 -2.41792 0
M  V30 4877 N 477.013 -3.90428 -2.4924 0
M  V30 4878 C 477.748 -4.89388 -2.98809 0
M  V30 4879 N 477.244 -5.98745 -3.48535 0
M  V30 4880 N 479.037 -4.76791 -2.97703 0
M  V30 4881 H 471.188 -2.11921 -0.142541 0
M  V30 4882 H 473.451 -0.939608 -0.125863 0
M  V30 4883 H 473.157 -3.35767 -1.0466 0
M  V30 4884 H 473.031 -2.67583 -2.65856 0
M  V30 4885 H 475.418 -1.71856 -2.39895 0
M  V30 4886 H 475.499 -2.43516 -0.783166 0
M  V30 4887 H 475.143 -4.74412 -1.81371 0
M  V30 4888 H 475.073 -3.99641 -3.4292 0
M  V30 4889 H 477.564 -3.11433 -2.14052 0
M  V30 4890 H 477.877 -6.70205 -3.84767 0
M  V30 4891 H 476.222 -6.02387 -3.46634 0
M  V30 4892 H 479.413 -3.90478 -2.58157 0
M  V30 4893 H 479.586 -5.54069 -3.36024 0
M  V30 4894 N 472.992 0.995999 -1.22138 0
M  V30 4895 C 473.94 2.10673 -0.985876 0
M  V30 4896 C 474.934 1.69255 0.0699553 0
M  V30 4897 O 476.14 1.79812 -0.0822176 0
M  V30 4898 H 472.515 0.688865 -0.30161 0
M  V30 4899 H 474.486 2.27711 -1.92848 0
M  V30 4900 C 473.235 3.42881 -0.576909 0
M  V30 4901 H 472.558 3.75191 -1.38101 0
M  V30 4902 H 473.998 4.21589 -0.451518 0
M  V30 4903 C 472.457 3.29265 0.713196 0
M  V30 4904 O 472.987 3.60777 1.76643 0
M  V30 4905 N 471.193 2.82456 0.683162 0
M  V30 4906 H 470.74 2.5701 -0.174242 0
M  V30 4907 H 470.698 2.73727 1.54663 0
M  V30 4908 N 474.47 1.03057 1.19235 0
M  V30 4909 C 475.417 0.612832 2.22515 0
M  V30 4910 C 476.387 -0.374224 1.61829 0
M  V30 4911 O 477.572 -0.270501 1.88873 0
M  V30 4912 C 474.712 -0.028475 3.45088 0
M  V30 4913 C 473.825 1.00483 4.20151 0
M  V30 4914 C 472.96 0.333102 5.30155 0
M  V30 4915 C 471.999 1.3522 5.96977 0
M  V30 4916 N 471.136 0.70616 6.9854 0
M  V30 4917 H 475.976 1.49812 2.57605 0
M  V30 4918 H 473.513 0.749658 1.26564 0
M  V30 4919 H 475.471 -0.417548 4.15105 0
M  V30 4920 H 474.101 -0.877334 3.10649 0
M  V30 4921 H 473.153 1.51194 3.49062 0
M  V30 4922 H 474.465 1.77929 4.65986 0
M  V30 4923 H 473.619 -0.110725 6.06599 0
M  V30 4924 H 472.358 -0.473547 4.85396 0
M  V30 4925 H 471.363 1.80627 5.19282 0
M  V30 4926 H 472.588 2.16037 6.4382 0
M  V30 4927 H 470.534 -0.0803667 6.55951 0
M  V30 4928 H 470.451 1.41848 7.42573 0
M  V30 4929 H 471.719 0.286391 7.78974 0
M  V30 4930 N 475.948 -1.35272 0.808662 0
M  V30 4931 C 476.911 -2.28082 0.226093 0
M  V30 4932 C 477.911 -1.49673 -0.587762 0
M  V30 4933 O 479.101 -1.69404 -0.405943 0
M  V30 4934 C 476.233 -3.33955 -0.684596 0
M  V30 4935 H 477.426 -2.81116 1.04469 0
M  V30 4936 H 474.979 -1.45162 0.579466 0
M  V30 4937 H 475.714 -2.86111 -1.5268 0
M  V30 4938 H 475.499 -3.91965 -0.102699 0
M  V30 4939 H 476.989 -4.03219 -1.08646 0
M  V30 4940 N 477.426 -0.562348 -1.47226 0
M  V30 4941 C 478.373 0.182461 -2.30078 0
M  V30 4942 C 479.343 0.903503 -1.39377 0
M  V30 4943 O 480.528 0.898188 -1.68337 0
M  V30 4944 C 477.668 1.20322 -3.23445 0
M  V30 4945 C 476.781 0.487717 -4.29238 0
M  V30 4946 C 475.916 1.49422 -5.09752 0
M  V30 4947 C 474.955 0.763976 -6.07314 0
M  V30 4948 N 474.092 1.71755 -6.80768 0
M  V30 4949 H 478.932 -0.530169 -2.93246 0
M  V30 4950 H 476.469 -0.273276 -1.44539 0
M  V30 4951 H 478.427 1.80768 -3.76004 0
M  V30 4952 H 477.057 1.88382 -2.6213 0
M  V30 4953 H 476.109 -0.231374 -3.79696 0
M  V30 4954 H 477.421 -0.0841003 -4.98729 0
M  V30 4955 H 476.575 2.17206 -5.66486 0
M  V30 4956 H 475.314 2.09995 -4.40174 0
M  V30 4957 H 474.319 0.0722344 -5.49753 0
M  V30 4958 H 475.544 0.16391 -6.78902 0
M  V30 4959 H 473.49 2.31177 -6.13916 0
M  V30 4960 H 473.407 1.19802 -7.46447 0
M  V30 4961 H 474.675 2.38638 -7.42073 0
M  V30 4962 N 478.904 1.54736 -0.299062 0
M  V30 4963 C 479.867 2.22127 0.565012 0
M  V30 4964 C 480.867 1.20669 1.06281 0
M  V30 4965 O 482.057 1.45417 0.959145 0
M  V30 4966 C 479.189 2.90611 1.78208 0
M  V30 4967 H 480.382 2.99891 -0.0237448 0
M  V30 4968 H 477.935 1.5622 -0.0498788 0
M  V30 4969 H 478.67 2.16921 2.41072 0
M  V30 4970 H 478.455 3.64984 1.43281 0
M  V30 4971 H 479.945 3.42026 2.396 0
M  V30 4972 N 480.382 0.0267497 1.57577 0
M  V30 4973 C 481.314 -0.984594 2.06974 0
M  V30 4974 C 482.327 -1.29032 0.992705 0
M  V30 4975 O 483.516 -1.25539 1.26895 0
M  V30 4976 C 480.616 -2.31262 2.47732 0
M  V30 4977 C 479.789 -2.1924 3.78487 0
M  V30 4978 C 478.848 -3.34956 4.05821 0
M  V30 4979 O 477.874 -3.11948 4.76106 0
M  V30 4980 N 479.076 -4.58672 3.55809 0
M  V30 4981 H 481.841 -0.563143 2.94362 0
M  V30 4982 H 479.402 -0.160061 1.61107 0
M  V30 4983 H 481.394 -3.07496 2.63112 0
M  V30 4984 H 479.964 -2.65056 1.65723 0
M  V30 4985 H 479.184 -1.27747 3.72927 0
M  V30 4986 H 480.472 -2.08409 4.64158 0
M  V30 4987 H 479.87 -4.8026 2.98942 0
M  V30 4988 H 478.427 -5.32083 3.76472 0
M  V30 4989 N 481.861 -1.55662 -0.24637 0
M  V30 4990 C 483.138 -1.68272 -0.997198 0
M  V30 4991 C 483.518 -0.566785 -2.03349 0
M  V30 4992 O 482.866 0.429688 -2.24424 0
M  V30 4993 C 483.076 -3.08594 -1.63006 0
M  V30 4994 C 484.424 -3.6721 -2.13171 0
M  V30 4995 O 485.448 -3.11397 -1.72946 0
M  V30 4996 O 484.307 -4.65054 -2.87031 0
M  V30 4997 H 481.401 -0.684429 -0.464205 0
M  V30 4998 H 483.947 -1.67993 -0.240114 0
M  V30 4999 H 482.719 -3.81264 -0.880527 0
M  V30 5000 H 482.342 -3.12886 -2.45333 0
M  V30 5001 N 483.339 0.512053 -1.4905 0
M  V30 5002 C 484.587 1.26436 -1.57665 0
M  V30 5003 C 484.908 1.93255 -0.260293 0
M  V30 5004 O 484.178 1.82206 0.719564 0
M  V30 5005 H 482.758 0.469658 -0.580888 0
M  V30 5006 H 485.42 0.594398 -1.85615 0
M  V30 5007 H 484.516 2.03417 -2.36702 0
M  V30 5008 N 484.817 1.37938 0.762283 0
M  V30 5009 C 485.78 1.34279 1.85747 0
M  V30 5010 C 486.78 0.244969 1.58923 0
M  V30 5011 O 487.97 0.501365 1.66829 0
M  V30 5012 C 485.102 1.08833 3.23061 0
M  V30 5013 H 486.295 2.31705 1.90401 0
M  V30 5014 H 483.848 1.23105 0.963057 0
M  V30 5015 H 484.583 0.119767 3.24079 0
M  V30 5016 H 484.368 1.88306 3.43923 0
M  V30 5017 H 485.858 1.08946 4.03138 0
M  V30 5018 N 486.295 -0.989507 1.22664 0
M  V30 5019 C 487.258 -2.06183 1.00106 0
M  V30 5020 C 488.258 -1.60765 -0.0337726 0
M  V30 5021 O 489.448 -1.72989 0.205072 0
M  V30 5022 C 486.58 -3.37021 0.51279 0
M  V30 5023 H 487.773 -2.27629 1.95256 0
M  V30 5024 H 485.326 -1.16158 1.0458 0
M  V30 5025 H 486.061 -3.21261 -0.442917 0
M  V30 5026 H 485.846 -3.71323 1.25942 0
M  V30 5027 H 487.336 -4.1591 0.375315 0
M  V30 5028 N 487.773 -1.03688 -1.18687 0
M  V30 5029 C 488.706 -0.569112 -2.2099 0
M  V30 5030 C 489.684 0.394315 -1.57746 0
M  V30 5031 O 490.868 0.309519 -1.85941 0
M  V30 5032 C 487.995 0.169104 -3.38278 0
M  V30 5033 C 487.041 -0.746989 -4.19908 0
M  V30 5034 S 487.874 -2.22773 -4.86963 0
M  V30 5035 C 489.03 -1.50025 -6.07654 0
M  V30 5036 H 489.263 -1.43589 -2.60326 0
M  V30 5037 H 486.796 -0.847507 -1.29061 0
M  V30 5038 H 488.754 0.588868 -4.06254 0
M  V30 5039 H 487.415 1.01172 -2.9736 0
M  V30 5040 H 486.608 -0.176626 -5.0369 0
M  V30 5041 H 486.21 -1.10543 -3.5729 0
M  V30 5042 H 488.502 -0.791217 -6.72864 0
M  V30 5043 H 489.445 -2.31498 -6.69189 0
M  V30 5044 H 489.853 -0.994245 -5.55675 0
M  V30 5045 N 489.251 1.34841 -0.815825 0
M  V30 5046 C 490.161 2.33425 -0.234462 0
M  V30 5047 C 491.177 1.62295 0.627413 0
M  V30 5048 O 492.353 1.94109 0.536987 0
M  V30 5049 C 489.418 3.41471 0.599849 0
M  V30 5050 C 488.479 4.28362 -0.283596 0
M  V30 5051 C 487.712 5.31248 0.51099 0
M  V30 5052 O 487.935 5.43056 1.7449 0
M  V30 5053 O 486.869 6.01812 -0.10297 0
M  V30 5054 H 490.695 2.84962 -1.05024 0
M  V30 5055 H 488.28 1.37774 -0.577809 0
M  V30 5056 H 490.162 4.07464 1.07475 0
M  V30 5057 H 488.837 2.9219 1.39308 0
M  V30 5058 H 487.744 3.65318 -0.805836 0
M  V30 5059 H 489.077 4.81066 -1.041 0
M  V30 5060 N 490.729 0.570148 1.46925 0
M  V30 5061 C 491.662 -0.218362 2.27153 0
M  V30 5062 C 492.64 -0.90847 1.34854 0
M  V30 5063 O 493.824 -0.924875 1.64251 0
M  V30 5064 C 490.951 -1.3122 3.12248 0
M  V30 5065 C 489.997 -0.729277 4.20219 0
M  V30 5066 S 490.83 0.434159 5.33737 0
M  V30 5067 C 491.986 -0.661188 6.22398 0
M  V30 5068 H 492.219 0.462393 2.93682 0
M  V30 5069 H 489.752 0.356753 1.50222 0
M  V30 5070 H 491.71 -1.93856 3.61842 0
M  V30 5071 H 490.371 -1.96485 2.45056 0
M  V30 5072 H 489.564 -1.5511 4.79538 0
M  V30 5073 H 489.166 -0.178836 3.73572 0
M  V30 5074 H 491.458 -1.55006 6.5953 0
M  V30 5075 H 492.401 -0.105046 7.08022 0
M  V30 5076 H 492.809 -0.959682 5.56283 0
M  V30 5077 N 492.207 -1.54576 0.307264 0
M  V30 5078 C 493.139 -2.21212 -0.599807 0
M  V30 5079 C 494.152 -1.20685 -1.09266 0
M  V30 5080 O 495.341 -1.47244 -1.00903 0
M  V30 5081 C 492.441 -2.84994 -1.83389 0
M  V30 5082 C 491.614 -4.11511 -1.48248 0
M  V30 5083 C 490.673 -4.59038 -2.57237 0
M  V30 5084 O 489.699 -5.24095 -2.22065 0
M  V30 5085 N 490.901 -4.31884 -3.87887 0
M  V30 5086 H 493.666 -2.99686 -0.0293075 0
M  V30 5087 H 491.227 -1.61379 0.129738 0
M  V30 5088 H 493.219 -3.1372 -2.5566 0
M  V30 5089 H 491.789 -2.10324 -2.31263 0
M  V30 5090 H 491.009 -3.89728 -0.592122 0
M  V30 5091 H 492.297 -4.93879 -1.22316 0
M  V30 5092 H 491.695 -3.79778 -4.19268 0
M  V30 5093 H 490.252 -4.65304 -4.56438 0
M  V30 5094 N 493.685 -0.035106 -1.57561 0
M  V30 5095 C 495.096 0.502885 -1.798 0
M  V30 5096 C 495.447 1.71892 -0.945921 0
M  V30 5097 O 494.572 2.15822 -0.157991 0
M  V30 5098 C 495.167 0.919097 -3.26095 0
M  V30 5099 C 493.726 1.40216 -3.49308 0
M  V30 5100 C 492.873 0.369709 -2.74824 0
M  V30 5101 H 495.824 -0.261102 -1.56537 0
M  V30 5102 H 495.845 1.78308 -3.36135 0
M  V30 5103 H 495.357 0.0338526 -3.88085 0
M  V30 5104 H 493.458 2.30714 -2.92578 0
M  V30 5105 H 493.571 1.40541 -4.58023 0
M  V30 5106 H 491.935 0.839113 -2.40481 0
M  V30 5107 H 492.718 -0.507173 -3.39533 0
M  V30 5108 N 495.163 1.55791 0.238111 0
M  V30 5109 C 496.093 1.94068 1.29846 0
M  V30 5110 C 497.074 0.806726 1.49753 0
M  V30 5111 O 498.259 1.06772 1.62214 0
M  V30 5112 C 495.389 2.24302 2.65153 0
M  V30 5113 C 494.343 3.40032 2.59927 0
M  V30 5114 C 493.669 3.55829 3.99111 0
M  V30 5115 C 494.969 4.75476 2.16148 0
M  V30 5116 H 496.663 2.82887 0.980563 0
M  V30 5117 H 494.209 1.36105 0.470253 0
M  V30 5118 H 496.162 2.4967 3.39475 0
M  V30 5119 H 494.886 1.32318 2.98596 0
M  V30 5120 H 493.545 3.14687 1.88063 0
M  V30 5121 H 493.193 2.6125 4.29834 0
M  V30 5122 H 492.893 4.3366 3.96501 0
M  V30 5123 H 494.417 3.83528 4.7512 0
M  V30 5124 H 495.831 5.00158 2.80205 0
M  V30 5125 H 494.228 5.56472 2.24631 0
M  V30 5126 H 495.298 4.71946 1.11333 0
M  V30 5127 N 496.642 -0.504142 1.49319 0
M  V30 5128 C 497.589 -1.60603 1.65756 0
M  V30 5129 C 498.559 -1.58425 0.499082 0
M  V30 5130 O 499.744 -1.76459 0.725728 0
M  V30 5131 C 496.884 -2.98764 1.72726 0
M  V30 5132 C 495.997 -3.10982 2.99857 0
M  V30 5133 C 495.132 -4.39857 2.97824 0
M  V30 5134 C 494.171 -4.45697 4.19548 0
M  V30 5135 N 493.308 -5.65995 4.15444 0
M  V30 5136 H 498.148 -1.45895 2.59843 0
M  V30 5137 H 495.685 -0.709891 1.28837 0
M  V30 5138 H 497.643 -3.78839 1.74747 0
M  V30 5139 H 496.273 -3.12183 0.821075 0
M  V30 5140 H 495.325 -2.23991 3.07461 0
M  V30 5141 H 496.637 -3.11157 3.89849 0
M  V30 5142 H 495.791 -5.2825 2.98391 0
M  V30 5143 H 494.53 -4.42242 2.05604 0
M  V30 5144 H 493.535 -3.55707 4.19229 0
M  V30 5145 H 494.76 -4.4503 5.12957 0
M  V30 5146 H 492.706 -5.69229 3.26059 0
M  V30 5147 H 492.623 -5.67773 4.99169 0
M  V30 5148 H 493.891 -6.56604 4.20109 0
M  V30 5149 N 498.12 -1.38341 -0.754957 0
M  V30 5150 C 499.345 -1.37882 -1.5493 0
M  V30 5151 C 499.77 0.0296385 -1.88077 0
M  V30 5152 O 499.128 1.01133 -1.50472 0
M  V30 5153 C 499.176 -2.23996 -2.82592 0
M  V30 5154 O 498.28 -1.65612 -3.77686 0
M  V30 5155 H 497.621 -0.470384 -0.468652 0
M  V30 5156 H 500.151 -1.82084 -0.933082 0
M  V30 5157 H 500.161 -2.37806 -3.3153 0
M  V30 5158 H 498.836 -3.26365 -2.57796 0
M  V30 5159 H 497.413 -1.60936 -3.36384 0
M  V30 5160 N 499.598 0.982988 -1.23187 0
M  V30 5161 C 500.508 2.10907 -1.02739 0
M  V30 5162 C 501.524 1.73979 0.0273188 0
M  V30 5163 O 502.7 2.00702 -0.16757 0
M  V30 5164 C 499.765 3.41142 -0.618304 0
M  V30 5165 C 498.826 3.92112 -1.74777 0
M  V30 5166 C 498.059 5.16131 -1.3581 0
M  V30 5167 O 498.282 5.6989 -0.241201 0
M  V30 5168 O 497.216 5.61103 -2.17824 0
M  V30 5169 H 501.042 2.31046 -1.97108 0
M  V30 5170 H 498.627 1.09284 -1.01869 0
M  V30 5171 H 500.509 4.19488 -0.400982 0
M  V30 5172 H 499.184 3.2234 0.296421 0
M  V30 5173 H 498.091 3.14895 -2.0197 0
M  V30 5174 H 499.424 4.15364 -2.64071 0
M  V30 5175 N 501.076 1.04316 1.18135 0
M  V30 5176 C 501.986 0.646876 2.25505 0
M  V30 5177 C 503.002 -0.328008 1.7088 0
M  V30 5178 O 504.178 -0.182309 2.00573 0
M  V30 5179 C 501.243 0.0185664 3.46695 0
M  V30 5180 C 500.304 1.04277 4.16443 0
M  V30 5181 C 499.537 0.444352 5.31847 0
M  V30 5182 O 499.76 -0.748735 5.65465 0
M  V30 5183 O 498.694 1.17428 5.90334 0
M  V30 5184 H 502.52 1.54147 2.61672 0
M  V30 5185 H 500.105 0.814188 1.25265 0
M  V30 5186 H 501.987 -0.331068 4.20097 0
M  V30 5187 H 500.662 -0.849814 3.12346 0
M  V30 5188 H 499.569 1.44425 3.45098 0
M  V30 5189 H 500.902 1.882 4.54798 0
M  V30 5190 N 502.554 -1.34406 0.822964 0
M  V30 5191 C 503.802 -1.97892 0.410245 0
M  V30 5192 C 504.123 -1.65567 -1.03017 0
M  V30 5193 O 503.393 -0.94642 -1.71522 0
M  V30 5194 H 501.973 -0.732049 0.148707 0
M  V30 5195 H 504.635 -1.64043 1.05242 0
M  V30 5196 H 503.731 -3.07579 0.529284 0
M  V30 5197 N 504.032 -0.577932 -1.46621 0
M  V30 5198 C 505.28 -0.061566 -2.02006 0
M  V30 5199 C 505.601 1.30117 -1.4524 0
M  V30 5200 O 504.871 1.85313 -0.63529 0
M  V30 5201 H 503.451 -0.0197692 -0.746738 0
M  V30 5202 H 506.113 -0.752631 -1.79782 0
M  V30 5203 H 505.209 0.0110238 -3.12098 0
M  V30 5204 N 505.51 1.54411 -0.315457 0
M  V30 5205 C 506.787 1.92562 0.343398 0
M  V30 5206 C 507.167 1.24423 1.70535 0
M  V30 5207 O 506.515 0.385051 2.25232 0
M  V30 5208 C 506.725 3.46168 0.443687 0
M  V30 5209 C 508.073 4.18659 0.707783 0
M  V30 5210 O 509.097 3.52281 0.52693 0
M  V30 5211 O 507.956 5.36198 1.05612 0
M  V30 5212 H 505.05 0.80379 0.194552 0
M  V30 5213 H 507.596 1.65738 -0.364577 0
M  V30 5214 H 506.368 3.8792 -0.513172 0
M  V30 5215 H 505.991 3.79073 1.19956 0
M  V30 5216 N 506.988 0.0434614 1.5754 0
M  V30 5217 C 508.236 -0.630786 1.92004 0
M  V30 5218 C 508.557 -1.71836 0.921807 0
M  V30 5219 O 507.827 -1.9587 -0.034522 0
M  V30 5220 H 506.407 -0.235988 0.708745 0
M  V30 5221 H 509.069 0.0946462 1.9467 0
M  V30 5222 H 508.165 -1.07434 2.93026 0
M  V30 5223 N 508.466 -1.55915 -0.229846 0
M  V30 5224 C 509.743 -1.6932 -0.979295 0
M  V30 5225 C 510.123 -0.588321 -2.02736 0
M  V30 5226 O 509.471 0.40586 -2.24867 0
M  V30 5227 C 509.681 -3.10305 -1.59724 0
M  V30 5228 C 511.029 -3.6945 -2.09264 0
M  V30 5229 O 512.053 -3.13214 -1.69633 0
M  V30 5230 O 510.912 -4.68072 -2.82082 0
M  V30 5231 H 508.006 -0.689314 -0.456919 0
M  V30 5232 H 510.552 -1.68238 -0.222283 0
M  V30 5233 H 509.324 -3.82177 -0.840039 0
M  V30 5234 H 508.947 -3.1547 -2.42001 0
M  V30 5235 N 509.944 0.496216 -1.49584 0
M  V30 5236 C 510.854 1.62352 -1.69349 0
M  V30 5237 C 511.87 1.64184 -0.576147 0
M  V30 5238 O 513.046 1.82517 -0.85144 0
M  V30 5239 C 510.111 2.98698 -1.76013 0
M  V30 5240 C 509.172 3.07454 -2.99617 0
M  V30 5241 C 508.405 4.37296 -3.05953 0
M  V30 5242 O 508.628 5.2637 -2.19752 0
M  V30 5243 O 507.562 4.51124 -3.9846 0
M  V30 5244 H 511.388 1.48606 -2.64859 0
M  V30 5245 H 508.973 0.673022 -1.33382 0
M  V30 5246 H 510.855 3.79725 -1.82721 0
M  V30 5247 H 509.53 3.12696 -0.836828 0
M  V30 5248 H 508.437 2.25597 -2.98424 0
M  V30 5249 H 509.77 2.98385 -3.91443 0
M  V30 5250 N 511.423 1.38739 0.74761 0
M  V30 5251 C 512.37 1.36449 1.86146 0
M  V30 5252 C 513.34 0.226098 1.64554 0
M  V30 5253 O 514.525 0.41926 1.86137 0
M  V30 5254 C 511.665 1.2013 3.23516 0
M  V30 5255 C 510.778 2.43407 3.56899 0
M  V30 5256 C 509.913 2.19773 4.83605 0
M  V30 5257 C 508.952 3.3879 5.09792 0
M  V30 5258 N 508.089 3.14553 6.27695 0
M  V30 5259 H 512.929 2.3167 1.87438 0
M  V30 5260 H 510.466 1.15094 0.916063 0
M  V30 5261 H 512.424 1.08683 4.02795 0
M  V30 5262 H 511.054 0.285453 3.21535 0
M  V30 5263 H 510.106 2.65504 2.72418 0
M  V30 5264 H 511.418 3.32094 3.72176 0
M  V30 5265 H 510.572 2.05496 5.70838 0
M  V30 5266 H 509.311 1.28461 4.70478 0
M  V30 5267 H 508.316 3.53579 4.21025 0
M  V30 5268 H 509.541 4.30986 5.24812 0
M  V30 5269 H 507.487 2.25893 6.1588 0
M  V30 5270 H 507.404 3.96791 6.435 0
M  V30 5271 H 508.672 3.03943 7.17801 0
M  V30 5272 N 512.901 -0.976442 1.23707 0
M  V30 5273 C 514.178 -1.69296 0.979699 0
M  V30 5274 C 514.558 -2.0508 -0.500555 0
M  V30 5275 O 513.906 -1.74708 -1.47273 0
M  V30 5276 C 514.116 -2.93143 1.89389 0
M  V30 5277 C 515.464 -3.65572 2.15968 0
M  V30 5278 O 516.488 -3.03184 1.86971 0
M  V30 5279 O 515.347 -4.77859 2.65167 0
M  V30 5280 H 512.441 -0.739708 0.369812 0
M  V30 5281 H 514.987 -1.03131 1.34767 0
M  V30 5282 H 513.759 -2.63327 2.89439 0
M  V30 5283 H 513.382 -3.67044 1.52854 0
M  V30 5284 N 514.379 -1.04941 -1.1758 0
M  V30 5285 C 515.326 -0.648155 -2.21512 0
M  V30 5286 C 516.296 0.348431 -1.62404 0
M  V30 5287 O 517.481 0.240419 -1.89279 0
M  V30 5288 C 514.621 -0.0264291 -3.4509 0
M  V30 5289 C 513.734 -1.07154 -4.185 0
M  V30 5290 C 512.869 -0.417403 -5.29558 0
M  V30 5291 C 511.908 -1.447 -5.94751 0
M  V30 5292 N 511.045 -0.817203 -6.97328 0
M  V30 5293 H 515.885 -1.53891 -2.55189 0
M  V30 5294 H 513.422 -0.769699 -1.25356 0
M  V30 5295 H 515.38 0.351456 -4.15717 0
M  V30 5296 H 514.01 0.827802 -3.12005 0
M  V30 5297 H 513.062 -1.56728 -3.46613 0
M  V30 5298 H 514.374 -1.8532 -4.63096 0
M  V30 5299 H 513.528 0.0142061 -6.06698 0
M  V30 5300 H 512.267 0.396265 -4.86087 0
M  V30 5301 H 511.272 -1.88865 -5.16343 0
M  V30 5302 H 512.497 -2.26252 -6.40302 0
M  V30 5303 H 510.443 -0.0239995 -6.55996 0
M  V30 5304 H 510.36 -1.53644 -7.40223 0
M  V30 5305 H 511.628 -0.410283 -7.7842 0
M  V30 5306 N 515.857 1.33968 -0.830081 0
M  V30 5307 C 516.804 2.29387 -0.255008 0
M  V30 5308 C 517.774 1.53923 0.624243 0
M  V30 5309 O 518.959 1.82262 0.564372 0
M  V30 5310 C 516.099 3.4034 0.571209 0
M  V30 5311 C 515.212 4.30729 -0.331083 0
M  V30 5312 C 514.347 5.2879 0.505389 0
M  V30 5313 C 513.386 6.10819 -0.395843 0
M  V30 5314 N 512.523 7.00948 0.401979 0
M  V30 5315 H 517.363 2.77972 -1.07404 0
M  V30 5316 H 514.9 1.36785 -0.541133 0
M  V30 5317 H 516.858 4.03361 1.06562 0
M  V30 5318 H 515.488 2.9297 1.35529 0
M  V30 5319 H 514.54 3.68507 -0.943759 0
M  V30 5320 H 515.852 4.88181 -1.02377 0
M  V30 5321 H 515.006 5.97297 1.06399 0
M  V30 5322 H 513.745 4.71894 1.23155 0
M  V30 5323 H 512.75 5.41238 -0.966529 0
M  V30 5324 H 513.975 6.69797 -1.12023 0
M  V30 5325 H 511.921 6.46512 1.11168 0
M  V30 5326 H 511.838 7.55643 -0.232167 0
M  V30 5327 H 513.106 7.73774 0.943102 0
M  V30 5328 N 517.335 0.585699 1.46312 0
M  V30 5329 C 518.282 -0.145835 2.30339 0
M  V30 5330 C 519.252 -0.881215 1.40797 0
M  V30 5331 O 520.437 -0.871293 1.69744 0
M  V30 5332 C 517.577 -1.15161 3.25318 0
M  V30 5333 C 516.69 -0.419367 4.2996 0
M  V30 5334 C 515.825 -1.41293 5.12064 0
M  V30 5335 C 514.864 -0.667261 6.08452 0
M  V30 5336 N 514.001 -1.60903 6.83414 0
M  V30 5337 H 518.841 0.576755 2.92365 0
M  V30 5338 H 516.378 0.296237 1.44086 0
M  V30 5339 H 518.336 -1.74763 3.78832 0
M  V30 5340 H 516.966 -1.84188 2.65094 0
M  V30 5341 H 516.018 0.291751 3.7928 0
M  V30 5342 H 517.33 0.163433 4.98532 0
M  V30 5343 H 516.484 -2.08167 5.6987 0
M  V30 5344 H 515.223 -2.02966 4.43459 0
M  V30 5345 H 514.228 0.0152356 5.49798 0
M  V30 5346 H 515.453 -0.0558817 6.79077 0
M  V30 5347 H 513.399 -2.21381 6.17516 0
M  V30 5348 H 513.316 -1.07911 7.48259 0
M  V30 5349 H 514.584 -2.26802 7.45775 0
M  V30 5350 N 518.813 -1.54241 0.323641 0
M  V30 5351 C 519.776 -2.22997 -0.529602 0
M  V30 5352 C 520.776 -1.22345 -1.04347 0
M  V30 5353 O 521.966 -1.46924 -0.935889 0
M  V30 5354 C 519.098 -2.93409 -1.73562 0
M  V30 5355 H 520.291 -2.99815 0.0714518 0
M  V30 5356 H 517.844 -1.56121 0.0747258 0
M  V30 5357 H 518.579 -2.20729 -2.37591 0
M  V30 5358 H 518.364 -3.67217 -1.37456 0
M  V30 5359 H 519.854 -3.45794 -2.34128 0
M  V30 5360 N 520.291 -0.0518155 -1.57515 0
M  V30 5361 C 521.239 0.940195 -2.12751 0
M  V30 5362 C 522.233 1.3218 -1.05948 0
M  V30 5363 O 523.439 1.30138 -1.24355 0
M  V30 5364 H 519.814 0.321066 -0.680015 0
M  V30 5365 H 521.785 0.449217 -2.94999 0
M  V30 5366 C 520.534 2.2055 -2.68799 0
M  V30 5367 H 519.857 1.92066 -3.50643 0
M  V30 5368 H 521.297 2.88119 -3.11068 0
M  V30 5369 C 519.756 2.95061 -1.62605 0
M  V30 5370 O 520.286 3.88025 -1.03921 0
M  V30 5371 N 518.492 2.57804 -1.34111 0
M  V30 5372 H 518.039 1.82281 -1.8202 0
M  V30 5373 H 517.997 3.07964 -0.632872 0
M  V30 5374 N 521.769 1.56035 0.221574 0
M  V30 5375 C 522.699 1.95434 1.2778 0
M  V30 5376 C 523.68 0.822564 1.48889 0
M  V30 5377 O 524.865 1.08486 1.61072 0
M  V30 5378 C 521.995 2.27102 2.62759 0
M  V30 5379 C 520.949 3.4277 2.56306 0
M  V30 5380 C 520.275 3.60043 3.95314 0
M  V30 5381 C 521.575 4.77742 2.11093 0
M  V30 5382 H 523.269 2.83912 0.950504 0
M  V30 5383 H 520.815 1.36596 0.455791 0
M  V30 5384 H 522.768 2.53256 3.36807 0
M  V30 5385 H 521.492 1.35478 2.97176 0
M  V30 5386 H 520.151 3.16664 1.84715 0
M  V30 5387 H 519.799 2.65794 4.27039 0
M  V30 5388 H 519.499 4.37841 3.91879 0
M  V30 5389 H 521.023 3.88545 4.71025 0
M  V30 5390 H 522.437 5.03102 2.74885 0
M  V30 5391 H 520.834 5.58823 2.18716 0
M  V30 5392 H 521.904 4.731 1.06321 0
M  V30 5393 N 523.247 -0.488276 1.49845 0
M  V30 5394 C 524.658 -1.06955 1.53028 0
M  V30 5395 C 525.009 -1.9351 0.323797 0
M  V30 5396 O 524.134 -2.08891 -0.565116 0
M  V30 5397 C 524.729 -1.94643 2.77307 0
M  V30 5398 C 523.288 -2.4791 2.83227 0
M  V30 5399 C 522.435 -1.25833 2.47106 0
M  V30 5400 H 525.386 -0.271626 1.56358 0
M  V30 5401 H 525.407 -2.79496 2.5819 0
M  V30 5402 H 524.919 -1.31621 3.65099 0
M  V30 5403 H 523.02 -3.14535 1.99745 0
M  V30 5404 H 523.133 -2.84193 3.85709 0
M  V30 5405 H 521.497 -1.58764 1.99163 0
M  V30 5406 H 522.28 -0.644993 3.37186 0
M  V30 5407 N 524.725 -1.39134 -0.740242 0
M  V30 5408 C 525.672 -1.37434 -1.8542 0
M  V30 5409 C 526.642 -0.234822 -1.64432 0
M  V30 5410 O 527.827 -0.429125 -1.85912 0
M  V30 5411 C 524.967 -1.21844 -3.22875 0
M  V30 5412 C 524.08 -2.45296 -3.55603 0
M  V30 5413 C 523.215 -2.22334 -4.82432 0
M  V30 5414 C 522.254 -3.41488 -5.07988 0
M  V30 5415 N 521.391 -3.17877 -6.26018 0
M  V30 5416 H 526.231 -2.3266 -1.86207 0
M  V30 5417 H 523.768 -1.15578 -0.909946 0
M  V30 5418 H 525.726 -1.10818 -4.02213 0
M  V30 5419 H 524.356 -0.3025 -3.21379 0
M  V30 5420 H 523.408 -2.66945 -2.71006 0
M  V30 5421 H 524.72 -3.34063 -3.7041 0
M  V30 5422 H 523.874 -2.0852 -5.69741 0
M  V30 5423 H 522.613 -1.30954 -4.6979 0
M  V30 5424 H 521.618 -3.55807 -4.19144 0
M  V30 5425 H 522.843 -4.33763 -5.22519 0
M  V30 5426 H 520.789 -2.29156 -6.14673 0
M  V30 5427 H 520.706 -4.00198 -6.41387 0
M  V30 5428 H 521.974 -3.07746 -7.16179 0
M  V30 5429 N 526.204 0.969867 -1.24223 0
M  V30 5430 C 527.151 2.06407 -1.0327 0
M  V30 5431 C 528.121 1.66014 0.0533 0
M  V30 5432 O 529.306 1.90533 -0.100896 0
M  V30 5433 C 526.446 3.3909 -0.641262 0
M  V30 5434 C 525.559 3.9269 -1.80051 0
M  V30 5435 C 524.694 5.13631 -1.35486 0
M  V30 5436 C 523.733 5.59423 -2.48419 0
M  V30 5437 N 522.87 6.71586 -2.04737 0
M  V30 5438 H 527.71 2.23663 -1.96923 0
M  V30 5439 H 525.247 1.09624 -0.980862 0
M  V30 5440 H 527.205 4.15323 -0.395351 0
M  V30 5441 H 525.835 3.21765 0.258269 0
M  V30 5442 H 524.887 3.13116 -2.16014 0
M  V30 5443 H 526.199 4.22636 -2.64916 0
M  V30 5444 H 525.353 5.97231 -1.0677 0
M  V30 5445 H 524.092 4.85364 -0.476722 0
M  V30 5446 H 523.097 4.74398 -2.77897 0
M  V30 5447 H 524.322 5.89705 -3.36786 0
M  V30 5448 H 522.268 6.45058 -1.19318 0
M  V30 5449 H 522.185 7.0097 -2.83156 0
M  V30 5450 H 523.453 7.58633 -1.79154 0
M  V30 5451 N 527.682 1.05563 1.17022 0
M  V30 5452 C 528.592 0.670758 2.24807 0
M  V30 5453 C 529.608 -0.309865 1.71219 0
M  V30 5454 O 530.784 -0.161025 2.00755 0
M  V30 5455 C 527.849 0.055337 3.46656 0
M  V30 5456 C 526.91 1.08688 4.15314 0
M  V30 5457 C 526.143 0.500736 5.31346 0
M  V30 5458 O 526.366 -0.688718 5.66227 0
M  V30 5459 O 525.3 1.23683 5.89055 0
M  V30 5460 H 529.126 1.56914 2.60023 0
M  V30 5461 H 526.711 0.827428 1.24395 0
M  V30 5462 H 528.593 -0.286492 4.20425 0
M  V30 5463 H 527.268 -0.816638 3.13229 0
M  V30 5464 H 526.175 1.48077 3.43546 0
M  V30 5465 H 527.508 1.93014 4.52777 0
M  V30 5466 N 529.16 -1.33526 0.837174 0
M  V30 5467 C 530.107 -2.29248 0.267169 0
M  V30 5468 C 531.077 -1.54252 -0.616071 0
M  V30 5469 O 532.262 -1.82559 -0.554699 0
M  V30 5470 C 529.402 -3.40638 -0.553152 0
M  V30 5471 C 528.515 -4.30548 0.353921 0
M  V30 5472 C 527.65 -5.29051 -0.477339 0
M  V30 5473 C 526.689 -6.106 0.42823 0
M  V30 5474 N 525.826 -7.01152 -0.364801 0
M  V30 5475 H 530.666 -2.77398 1.08877 0
M  V30 5476 H 528.203 -1.36496 0.54838 0
M  V30 5477 H 530.161 -4.03921 -1.04422 0
M  V30 5478 H 528.791 -2.93685 -1.33973 0
M  V30 5479 H 527.843 -3.68001 0.963289 0
M  V30 5480 H 529.155 -4.87631 1.04964 0
M  V30 5481 H 528.309 -5.97853 -1.0323 0
M  V30 5482 H 527.048 -4.72541 -1.2065 0
M  V30 5483 H 526.053 -5.40718 0.995219 0
M  V30 5484 H 527.278 -6.69193 1.15573 0
M  V30 5485 H 525.224 -6.47092 -1.07738 0
M  V30 5486 H 525.141 -7.5551 0.272238 0
M  V30 5487 H 526.409 -7.74263 -0.902054 0
M  V30 5488 N 530.638 -0.59345 -1.46 0
M  V30 5489 C 531.863 -0.0872365 -2.07216 0
M  V30 5490 C 532.288 1.2131 -1.43755 0
M  V30 5491 O 531.646 1.73528 -0.525152 0
M  V30 5492 C 531.694 0.0538197 -3.6056 0
M  V30 5493 O 530.798 1.10765 -3.97247 0
M  V30 5494 H 530.139 -0.0676598 -0.660544 0
M  V30 5495 H 532.669 -0.819445 -1.87473 0
M  V30 5496 H 532.679 0.256567 -4.07193 0
M  V30 5497 H 531.354 -0.895739 -4.0614 0
M  V30 5498 H 529.931 0.882501 -3.62307 0
M  V30 5499 N 532.116 1.54067 -0.331816 0
M  V30 5500 C 533.362 2.01012 0.268667 0
M  V30 5501 C 533.695 1.2195 1.51136 0
M  V30 5502 O 532.97 0.303972 1.9211 0
M  V30 5503 C 533.253 3.55158 0.59456 0
M  V30 5504 C 533.106 4.4494 -0.659409 0
M  V30 5505 C 534.425 4.16939 1.4089 0
M  V30 5506 H 531.544 0.730698 0.0961756 0
M  V30 5507 H 534.186 1.84593 -0.450031 0
M  V30 5508 H 532.336 3.6928 1.20685 0
M  V30 5509 H 534.008 4.42675 -1.29756 0
M  V30 5510 H 532.251 4.1428 -1.28665 0
M  V30 5511 H 532.922 5.50643 -0.386804 0
M  V30 5512 H 535.398 4.06443 0.891272 0
M  V30 5513 H 534.274 5.24889 1.60569 0
M  V30 5514 H 534.535 3.70798 2.40752 0
M  V30 5515 N 533.594 0.0601682 1.57485 0
M  V30 5516 C 534.524 -0.90889 2.15085 0
M  V30 5517 C 535.505 -1.31838 1.07484 0
M  V30 5518 O 536.69 -1.3915 1.35466 0
M  V30 5519 C 533.82 -2.18059 2.7031 0
M  V30 5520 C 532.774 -1.91088 3.82974 0
M  V30 5521 C 532.1 -3.24789 4.24754 0
M  V30 5522 C 533.4 -1.22535 5.07723 0
M  V30 5523 H 535.094 -0.429093 2.96309 0
M  V30 5524 H 532.64 -0.204952 1.42534 0
M  V30 5525 H 534.593 -2.86258 3.09248 0
M  V30 5526 H 533.317 -2.6826 1.8629 0
M  V30 5527 H 531.976 -1.25297 3.44523 0
M  V30 5528 H 531.624 -3.72809 3.37672 0
M  V30 5529 H 531.324 -3.07538 5.00694 0
M  V30 5530 H 532.848 -3.94205 4.66299 0
M  V30 5531 H 534.262 -1.80783 5.4405 0
M  V30 5532 H 532.659 -1.1558 5.88864 0
M  V30 5533 H 533.729 -0.202692 4.84476 0
M  V30 5534 N 535.072 -1.5615 -0.213296 0
M  V30 5535 C 536.004 -1.89586 -1.28802 0
M  V30 5536 C 537.017 -0.784844 -1.42633 0
M  V30 5537 O 538.206 -1.06319 -1.43383 0
M  V30 5538 C 535.306 -2.09665 -2.66259 0
M  V30 5539 C 534.479 -3.40726 -2.7427 0
M  V30 5540 C 533.538 -3.50137 -3.92798 0
M  V30 5541 O 532.564 -4.23105 -3.8075 0
M  V30 5542 N 533.766 -2.81886 -5.07465 0
M  V30 5543 H 536.531 -2.82368 -1.00442 0
M  V30 5544 H 534.092 -1.56796 -0.403302 0
M  V30 5545 H 536.084 -2.13268 -3.43946 0
M  V30 5546 H 534.654 -1.23469 -2.87183 0
M  V30 5547 H 533.874 -3.4915 -1.82997 0
M  V30 5548 H 535.162 -4.27048 -2.76599 0
M  V30 5549 H 534.56 -2.22397 -5.2015 0
M  V30 5550 H 533.117 -2.91139 -5.83165 0
M  V30 5551 N 536.55 0.480323 -1.50102 0
M  V30 5552 C 537.798 1.23063 -1.60312 0
M  V30 5553 C 538.119 1.92659 -0.301226 0
M  V30 5554 O 537.389 1.83691 0.680753 0
M  V30 5555 H 535.969 0.457231 -0.590719 0
M  V30 5556 H 538.631 0.554893 -1.86834 0
M  V30 5557 H 537.727 1.9835 -2.40964 0
M  V30 5558 N 538.028 1.39524 0.732853 0
M  V30 5559 C 538.975 1.38416 1.84688 0
M  V30 5560 C 539.945 0.243539 1.64305 0
M  V30 5561 O 541.13 0.438979 1.85681 0
M  V30 5562 C 538.27 1.23555 3.22224 0
M  V30 5563 C 537.383 2.47179 3.54298 0
M  V30 5564 C 536.518 2.2489 4.81246 0
M  V30 5565 C 535.557 3.44178 5.0617 0
M  V30 5566 N 534.694 3.21192 6.24323 0
M  V30 5567 H 539.534 2.33645 1.84971 0
M  V30 5568 H 537.071 1.16059 0.903804 0
M  V30 5569 H 539.029 1.12949 4.0162 0
M  V30 5570 H 537.659 0.31954 3.21215 0
M  V30 5571 H 536.711 2.68379 2.69587 0
M  V30 5572 H 538.023 3.36022 3.68633 0
M  V30 5573 H 537.177 2.11538 5.68627 0
M  V30 5574 H 535.916 1.33443 4.69089 0
M  V30 5575 H 534.921 3.58025 4.17251 0
M  V30 5576 H 536.146 4.36528 5.20212 0
M  V30 5577 H 534.092 2.32413 6.1345 0
M  V30 5578 H 534.009 4.03594 6.39256 0
M  V30 5579 H 535.277 3.1154 7.14537 0
M  V30 5580 N 539.506 -0.963266 1.24736 0
M  V30 5581 C 540.436 -2.07628 1.06832 0
M  V30 5582 C 541.417 -1.70088 -0.0200566 0
M  V30 5583 O 542.602 -1.93636 0.147854 0
M  V30 5584 C 539.732 -3.40636 0.677069 0
M  V30 5585 C 538.686 -3.9215 1.71471 0
M  V30 5586 C 538.012 -5.21553 1.1784 0
M  V30 5587 C 539.312 -4.19493 3.11164 0
M  V30 5588 H 541.006 -2.22864 1.9993 0
M  V30 5589 H 538.552 -1.07093 0.96266 0
M  V30 5590 H 540.505 -4.17941 0.538792 0
M  V30 5591 H 539.229 -3.25313 -0.289612 0
M  V30 5592 H 537.888 -3.17005 1.84128 0
M  V30 5593 H 537.536 -5.02593 0.202195 0
M  V30 5594 H 537.236 -5.56988 1.87185 0
M  V30 5595 H 538.76 -6.01463 1.05233 0
M  V30 5596 H 540.174 -4.87487 3.01711 0
M  V30 5597 H 538.571 -4.66165 3.77902 0
M  V30 5598 H 539.641 -3.26097 3.58871 0
M  V30 5599 N 540.985 -1.06182 -1.16461 0
M  V30 5600 C 542.213 -0.798583 -1.90867 0
M  V30 5601 C 542.628 0.646921 -1.77371 0
M  V30 5602 O 541.985 1.44279 -1.11758 0
M  V30 5603 C 542.036 -1.18258 -3.4161 0
M  V30 5604 O 541.757 -2.57135 -3.54701 0
M  V30 5605 C 543.258 -0.946917 -4.33069 0
M  V30 5606 H 540.478 -0.289603 -0.605286 0
M  V30 5607 H 543.022 -1.41515 -1.47627 0
M  V30 5608 H 541.177 -0.610562 -3.82558 0
M  V30 5609 H 541.591 -2.72477 -4.4817 0
M  V30 5610 H 543.065 -1.26523 -5.37304 0
M  V30 5611 H 543.542 0.117406 -4.39043 0
M  V30 5612 H 544.148 -1.50326 -3.97847 0
M  V30 5613 N 542.463 1.3308 -0.844243 0
M  V30 5614 C 543.41 2.29104 -0.279323 0
M  V30 5615 C 544.38 1.54577 0.607882 0
M  V30 5616 O 545.565 1.8285 0.545009 0
M  V30 5617 C 542.705 3.40927 0.53508 0
M  V30 5618 C 541.818 4.30354 -0.376749 0
M  V30 5619 C 540.953 5.29297 0.449276 0
M  V30 5620 C 539.992 6.10365 -0.460606 0
M  V30 5621 N 539.129 7.01335 0.327612 0
M  V30 5622 H 543.969 2.76817 -1.10346 0
M  V30 5623 H 541.506 1.36203 -0.555611 0
M  V30 5624 H 543.464 4.04469 1.02278 0
M  V30 5625 H 542.094 2.94391 1.32414 0
M  V30 5626 H 541.146 3.67485 -0.982791 0
M  V30 5627 H 542.458 4.87067 -1.07549 0
M  V30 5628 H 541.612 5.98392 1.00058 0
M  V30 5629 H 540.351 4.73174 1.18143 0
M  V30 5630 H 539.356 5.40182 -1.02388 0
M  V30 5631 H 540.581 6.68571 -1.1912 0
M  V30 5632 H 538.527 6.47655 1.04305 0
M  V30 5633 H 538.444 7.55355 -0.3123 0
M  V30 5634 H 539.712 7.74731 0.86098 0
M  V30 5635 N 543.941 0.601185 1.45683 0
M  V30 5636 C 544.871 -0.108824 2.33246 0
M  V30 5637 C 545.852 -0.865223 1.46451 0
M  V30 5638 O 547.037 -0.83704 1.75235 0
M  V30 5639 C 544.167 -1.11101 3.2905 0
M  V30 5640 C 543.121 -0.468244 4.25431 0
M  V30 5641 C 542.447 -1.57822 5.10878 0
M  V30 5642 C 543.747 0.606469 5.18767 0
M  V30 5643 H 545.441 0.622306 2.92861 0
M  V30 5644 H 542.987 0.300714 1.40825 0
M  V30 5645 H 544.94 -1.61622 3.89174 0
M  V30 5646 H 543.664 -1.87265 2.67581 0
M  V30 5647 H 542.323 0.0160484 3.66596 0
M  V30 5648 H 541.971 -2.32998 4.45781 0
M  V30 5649 H 541.671 -1.15369 5.76163 0
M  V30 5650 H 543.195 -2.08583 5.73869 0
M  V30 5651 H 544.609 0.185589 5.73 0
M  V30 5652 H 543.006 0.952381 5.92494 0
M  V30 5653 H 544.076 1.48559 4.61582 0
M  V30 5654 N 545.419 -1.53889 0.339982 0
M  V30 5655 C 546.382 -2.23547 -0.50592 0
M  V30 5656 C 547.382 -1.23445 -1.03044 0
M  V30 5657 O 548.572 -1.47909 -0.920253 0
M  V30 5658 C 545.704 -2.95234 -1.7044 0
M  V30 5659 H 546.897 -2.99722 0.103247 0
M  V30 5660 H 544.45 -1.56033 0.0912804 0
M  V30 5661 H 545.185 -2.23236 -2.35236 0
M  V30 5662 H 544.97 -3.68654 -1.33553 0
M  V30 5663 H 546.46 -3.48258 -2.30447 0
M  V30 5664 N 546.897 -0.0685191 -1.57451 0
M  V30 5665 C 548.143 0.602239 -1.93652 0
M  V30 5666 C 548.476 1.6946 -0.948526 0
M  V30 5667 O 547.751 1.94487 0.022782 0
M  V30 5668 C 548.034 1.18223 -3.4014 0
M  V30 5669 C 547.887 0.0967431 -4.49696 0
M  V30 5670 C 549.206 2.08872 -3.87377 0
M  V30 5671 H 546.325 0.217453 -0.70419 0
M  V30 5672 H 548.967 -0.133821 -1.89528 0
M  V30 5673 H 547.117 1.80953 -3.43785 0
M  V30 5674 H 548.789 -0.536155 -4.58174 0
M  V30 5675 H 547.032 -0.573063 -4.29998 0
M  V30 5676 H 547.703 0.542894 -5.49324 0
M  V30 5677 H 550.179 1.56081 -3.85717 0
M  V30 5678 H 549.055 2.46389 -4.90493 0
M  V30 5679 H 549.316 2.99572 -3.25129 0
M  V30 5680 N 548.375 1.56261 0.205012 0
M  V30 5681 C 549.307 1.90266 1.27795 0
M  V30 5682 C 550.32 0.792397 1.42214 0
M  V30 5683 O 551.509 1.07077 1.42817 0
M  V30 5684 C 548.609 2.11074 2.65143 0
M  V30 5685 C 547.782 3.42176 2.7246 0
M  V30 5686 C 546.841 3.52216 3.90936 0
M  V30 5687 O 545.867 4.25119 3.78501 0
M  V30 5688 N 547.069 2.84573 5.05963 0
M  V30 5689 H 549.834 2.82896 0.989434 0
M  V30 5690 H 547.395 1.57008 0.394981 0
M  V30 5691 H 549.387 2.15089 3.4281 0
M  V30 5692 H 547.957 1.2499 2.86524 0
M  V30 5693 H 547.177 3.50116 1.81142 0
M  V30 5694 H 548.465 4.28509 2.74331 0
M  V30 5695 H 547.863 2.25152 5.18963 0
M  V30 5696 H 546.42 2.94228 5.81613 0
M  V30 5697 N 549.853 -0.472356 1.50355 0
M  V30 5698 C 551.102 -1.2213 1.60522 0
M  V30 5699 C 551.415 -1.9312 0.310466 0
M  V30 5700 O 552.621 -2.69936 0.291029 0
M  V30 5701 C 551.077 -2.21909 2.83345 0
M  V30 5702 C 550.685 -1.56727 4.19691 0
M  V30 5703 C 552.429 -2.97453 3.02856 0
M  V30 5704 C 550.336 -2.54785 5.33703 0
M  V30 5705 H 549.266 -0.459543 0.597776 0
M  V30 5706 H 551.917 -0.491922 1.76783 0
M  V30 5707 H 550.299 -2.98133 2.60639 0
M  V30 5708 H 551.473 -0.863007 4.52646 0
M  V30 5709 H 549.788 -0.934685 4.05774 0
M  V30 5710 H 552.385 -3.70838 3.85205 0
M  V30 5711 H 552.728 -3.56764 2.14534 0
M  V30 5712 H 553.261 -2.28342 3.25737 0
M  V30 5713 H 550 -2.00214 6.24175 0
M  V30 5714 H 549.52 -3.23367 5.05167 0
M  V30 5715 H 551.199 -3.16639 5.64224 0
M  V30 5716 N 551.331 -1.39911 -0.725443 0
M  V30 5717 C 552.579 -1.37382 -1.48224 0
M  V30 5718 C 552.9 0.0264107 -1.94982 0
M  V30 5719 O 552.17 0.979408 -1.6966 0
M  V30 5720 H 550.75 -0.505596 -0.549892 0
M  V30 5721 H 553.412 -1.7487 -0.860608 0
M  V30 5722 H 552.508 -2.04254 -2.3598 0
M  V30 5723 N 552.809 0.956637 -1.25245 0
M  V30 5724 C 553.756 2.053 -1.05454 0
M  V30 5725 C 554.726 1.66062 0.0356889 0
M  V30 5726 O 555.911 1.90415 -0.121099 0
M  V30 5727 C 553.051 3.38391 -0.677191 0
M  V30 5728 C 552.164 3.90758 -1.84206 0
M  V30 5729 C 551.299 5.12165 -1.40926 0
M  V30 5730 C 550.338 5.56757 -2.54338 0
M  V30 5731 N 549.475 6.69376 -2.11848 0
M  V30 5732 H 554.315 2.21562 -1.99284 0
M  V30 5733 H 551.852 1.08578 -0.992434 0
M  V30 5734 H 553.81 4.1488 -0.43938 0
M  V30 5735 H 552.44 3.22021 0.224127 0
M  V30 5736 H 551.492 3.10808 -2.19323 0
M  V30 5737 H 552.804 4.19802 -2.69383 0
M  V30 5738 H 551.958 5.96065 -1.13098 0
M  V30 5739 H 550.697 4.84832 -0.528175 0
M  V30 5740 H 549.702 4.71423 -2.82913 0
M  V30 5741 H 550.927 5.861 -3.43022 0
M  V30 5742 H 548.873 6.43756 -1.26153 0
M  V30 5743 H 548.79 6.97927 -2.90574 0
M  V30 5744 H 550.058 7.5669 -1.87191 0
M  V30 5745 N 554.287 1.06798 1.15896 0
M  V30 5746 C 555.25 0.687328 2.18651 0
M  V30 5747 C 556.25 -0.269559 1.58524 0
M  V30 5748 O 557.44 -0.0512627 1.74125 0
M  V30 5749 C 554.572 0.0121642 3.40898 0
M  V30 5750 H 555.765 1.59701 2.53842 0
M  V30 5751 H 553.318 0.863828 1.3026 0
M  V30 5752 H 554.053 -0.910025 3.1127 0
M  V30 5753 H 553.838 0.700309 3.85795 0
M  V30 5754 H 555.328 -0.239703 4.16911 0
M  V30 5755 N 555.766 -1.3263 0.851289 0
M  V30 5756 C 557.014 -1.96978 0.452128 0
M  V30 5757 C 557.335 -1.67715 -0.99482 0
M  V30 5758 O 556.605 -0.98259 -1.69476 0
M  V30 5759 H 555.185 -0.72873 0.164202 0
M  V30 5760 H 557.847 -1.61774 1.08698 0
M  V30 5761 H 556.943 -3.06387 0.594407 0
M  V30 5762 N 557.244 -0.608902 -1.45362 0
M  V30 5763 C 558.174 0.0964526 -2.33301 0
M  V30 5764 C 559.155 0.857444 -1.46908 0
M  V30 5765 O 560.34 0.827735 -1.75676 0
M  V30 5766 C 557.47 1.09354 -3.29635 0
M  V30 5767 C 556.424 0.445676 -4.25673 0
M  V30 5768 C 555.75 1.5511 -5.11708 0
M  V30 5769 C 557.05 -0.633972 -5.18438 0
M  V30 5770 H 558.744 -0.637829 -2.92527 0
M  V30 5771 H 556.29 -0.308178 -1.40664 0
M  V30 5772 H 558.243 1.59556 -3.90025 0
M  V30 5773 H 556.967 1.85843 -2.6857 0
M  V30 5774 H 555.626 -0.0354897 -3.66583 0
M  V30 5775 H 555.274 2.30631 -4.4701 0
M  V30 5776 H 554.974 1.12311 -5.76767 0
M  V30 5777 H 556.498 2.05537 -5.74967 0
M  V30 5778 H 557.912 -0.215974 -5.72893 0
M  V30 5779 H 556.309 -0.983789 -5.91981 0
M  V30 5780 H 557.379 -1.51005 -4.60788 0
M  V30 5781 N 558.722 1.53707 -0.348139 0
M  V30 5782 C 559.652 2.28111 0.498766 0
M  V30 5783 C 560.633 1.29851 1.09876 0
M  V30 5784 O 561.818 1.587 1.11928 0
M  V30 5785 C 558.948 3.05735 1.64753 0
M  V30 5786 C 557.902 4.11537 1.17565 0
M  V30 5787 C 557.228 4.77142 2.4133 0
M  V30 5788 C 558.528 5.21587 0.272844 0
M  V30 5789 H 560.222 2.99152 -0.121934 0
M  V30 5790 H 557.768 1.43875 -0.0600842 0
M  V30 5791 H 559.721 3.56526 2.24649 0
M  V30 5792 H 558.445 2.32354 2.2952 0
M  V30 5793 H 557.104 3.61665 0.599483 0
M  V30 5794 H 556.752 4.0035 3.04514 0
M  V30 5795 H 556.452 5.48626 2.10436 0
M  V30 5796 H 557.976 5.30719 3.01943 0
M  V30 5797 H 559.39 5.67986 0.778779 0
M  V30 5798 H 557.787 6.00074 0.0555849 0
M  V30 5799 H 558.857 4.79969 -0.689785 0
M  V30 5800 N 560.2 0.0768682 1.57412 0
M  V30 5801 C 561.133 -0.924685 2.08626 0
M  V30 5802 C 562.111 -1.28792 0.992542 0
M  V30 5803 O 563.295 -1.39634 1.26628 0
M  V30 5804 C 560.422 -2.23131 2.54814 0
M  V30 5805 C 559.468 -2.01928 3.75669 0
M  V30 5806 S 560.301 -1.27397 5.20125 0
M  V30 5807 C 561.457 -2.59329 5.69648 0
M  V30 5808 H 561.69 -0.488928 2.93252 0
M  V30 5809 H 559.223 -0.136014 1.538 0
M  V30 5810 H 561.181 -2.98226 2.82084 0
M  V30 5811 H 559.842 -2.63831 1.70447 0
M  V30 5812 H 559.035 -2.98639 4.05993 0
M  V30 5813 H 558.637 -1.34967 3.48798 0
M  V30 5814 H 560.929 -3.55394 5.76803 0
M  V30 5815 H 561.872 -2.33608 6.68456 0
M  V30 5816 H 562.28 -2.66767 4.9749 0
M  V30 5817 N 561.678 -1.56367 -0.196722 0
M  V30 5818 C 562.903 -1.84991 -0.937714 0
M  V30 5819 C 563.328 -0.660244 -1.76132 0
M  V30 5820 O 562.686 0.390967 -1.77034 0
M  V30 5821 C 562.734 -3.11828 -1.81096 0
M  V30 5822 O 561.838 -2.92266 -2.90955 0
M  V30 5823 H 561.179 -0.609193 -0.264159 0
M  V30 5824 H 563.709 -2.03595 -0.202529 0
M  V30 5825 H 563.719 -3.42579 -2.21594 0
M  V30 5826 H 562.394 -3.98037 -1.2058 0
M  V30 5827 H 560.971 -2.72809 -2.54224 0
M  V30 5828 N 563.156 0.464375 -1.50603 0
M  V30 5829 C 564.119 1.54393 -1.69397 0
M  V30 5830 C 565.119 1.50566 -0.564504 0
M  V30 5831 O 566.309 1.53066 -0.831645 0
M  V30 5832 C 563.441 2.9401 -1.72543 0
M  V30 5833 H 564.634 1.39044 -2.65719 0
M  V30 5834 H 562.187 0.69122 -1.40185 0
M  V30 5835 H 562.922 3.14795 -0.77938 0
M  V30 5836 H 562.707 2.98195 -2.54602 0
M  V30 5837 H 564.197 3.72375 -1.89015 0
M  V30 5838 N 564.634 1.40294 0.718013 0
M  V30 5839 C 565.883 1.37746 1.4734 0
M  V30 5840 C 566.196 -0.0180754 1.95592 0
M  V30 5841 O 567.402 -0.166166 2.70991 0
M  V30 5842 C 565.858 2.4208 2.66318 0
M  V30 5843 C 565.466 3.87432 2.24945 0
M  V30 5844 C 567.21 2.48635 3.44065 0
M  V30 5845 C 565.117 4.83368 3.40748 0
M  V30 5846 H 564.047 0.512165 0.553356 0
M  V30 5847 H 566.698 1.66019 0.781661 0
M  V30 5848 H 565.08 2.06903 3.3765 0
M  V30 5849 H 566.254 4.3174 1.6105 0
M  V30 5850 H 564.569 3.8433 1.60249 0
M  V30 5851 H 567.166 3.17499 4.30231 0
M  V30 5852 H 567.509 1.51611 3.87711 0
M  V30 5853 H 568.042 2.82791 2.79775 0
M  V30 5854 H 564.781 5.81716 3.02136 0
M  V30 5855 H 564.301 4.43726 4.03568 0
M  V30 5856 H 565.98 5.03074 4.06848 0
M  V30 5857 N 566.112 -0.949982 1.2575 0
M  V30 5858 C 567.34 -1.72972 1.13527 0
M  V30 5859 C 567.755 -1.8623 -0.310453 0
M  V30 5860 O 567.112 -1.36336 -1.2132 0
M  V30 5861 C 567.163 -3.14108 1.78936 0
M  V30 5862 O 566.884 -3.01493 3.17858 0
M  V30 5863 C 568.385 -4.08338 1.72554 0
M  V30 5864 H 565.605 -0.541864 0.395758 0
M  V30 5865 H 568.149 -1.19151 1.66202 0
M  V30 5866 H 566.304 -3.64858 1.30221 0
M  V30 5867 H 566.718 -3.90559 3.50092 0
M  V30 5868 H 568.192 -5.04963 2.22973 0
M  V30 5869 H 568.669 -4.33742 0.690251 0
M  V30 5870 H 569.275 -3.63506 2.2078 0
M  V30 5871 N 567.59 -1.07411 -1.15328 0
M  V30 5872 C 568.836 -0.798831 -1.86404 0
M  V30 5873 C 569.169 0.673433 -1.8215 0
M  V30 5874 O 568.444 1.49428 -1.24505 0
M  V30 5875 C 568.727 -1.30846 -3.35487 0
M  V30 5876 C 568.58 -2.84532 -3.4837 0
M  V30 5877 C 569.899 -0.925486 -4.30259 0
M  V30 5878 H 567.018 -0.291659 -0.676834 0
M  V30 5879 H 569.66 -1.332 -1.35491 0
M  V30 5880 H 567.81 -0.854916 -3.78977 0
M  V30 5881 H 569.482 -3.3818 -3.13739 0
M  V30 5882 H 567.725 -3.22699 -2.8991 0
M  V30 5883 H 568.396 -3.15259 -4.53118 0
M  V30 5884 H 570.872 -1.3163 -3.94731 0
M  V30 5885 H 569.748 -1.3094 -5.33053 0
M  V30 5886 H 570.009 0.168525 -4.41779 0
M  V30 5887 N 569.068 1.32177 -0.85831 0
M  V30 5888 C 570.317 1.96392 -0.459689 0
M  V30 5889 C 570.63 1.68659 0.990632 0
M  V30 5890 O 571.836 2.26641 1.49485 0
M  V30 5891 C 570.292 3.51542 -0.7711 0
M  V30 5892 C 569.9 3.8813 -2.2374 0
M  V30 5893 C 571.644 4.2221 -0.44038 0
M  V30 5894 C 569.551 5.36341 -2.49183 0
M  V30 5895 H 568.481 0.735007 -0.168169 0
M  V30 5896 H 571.132 1.50518 -1.0496 0
M  V30 5897 H 569.514 3.95846 -0.11058 0
M  V30 5898 H 570.688 3.54824 -2.94001 0
M  V30 5899 H 569.003 3.30497 -2.533 0
M  V30 5900 H 571.6 5.31234 -0.607855 0
M  V30 5901 H 571.943 4.11683 0.618291 0
M  V30 5902 H 572.476 3.83502 -1.05695 0
M  V30 5903 H 569.215 5.51892 -3.53689 0
M  V30 5904 H 568.735 5.7104 -1.83504 0
M  V30 5905 H 570.414 6.03466 -2.33318 0
M  V30 5906 N 570.547 0.616602 1.45037 0
M  V30 5907 C 571.796 0.112861 2.01384 0
M  V30 5908 C 572.109 -1.26758 1.48969 0
M  V30 5909 O 573.315 -1.86454 1.9735 0
M  V30 5910 C 571.771 0.151057 3.59583 0
M  V30 5911 C 571.379 1.53191 4.20995 0
M  V30 5912 C 573.123 -0.296974 4.2346 0
M  V30 5913 C 571.03 1.526 5.71373 0
M  V30 5914 H 569.96 0.0384254 0.75302 0
M  V30 5915 H 572.611 0.773262 1.66412 0
M  V30 5916 H 570.993 -0.57617 3.91786 0
M  V30 5917 H 572.167 2.28156 4.00352 0
M  V30 5918 H 570.482 1.92279 3.69348 0
M  V30 5919 H 573.079 -0.320712 5.33737 0
M  V30 5920 H 573.422 -1.32145 3.9477 0
M  V30 5921 H 573.955 0.377279 3.96007 0
M  V30 5922 H 570.694 2.52837 6.04776 0
M  V30 5923 H 570.214 0.819064 5.94181 0
M  V30 5924 H 571.893 1.25357 6.3474 0
M  V30 5925 N 572.025 -1.5352 0.356285 0
M  V30 5926 C 572.955 -2.28372 -0.486661 0
M  V30 5927 C 573.936 -1.30432 -1.09185 0
M  V30 5928 O 575.121 -1.59291 -1.11085 0
M  V30 5929 C 572.251 -3.06604 -1.63129 0
M  V30 5930 C 571.205 -4.12154 -1.15381 0
M  V30 5931 C 570.531 -4.78415 -2.38796 0
M  V30 5932 C 571.831 -5.21724 -0.245179 0
M  V30 5933 H 573.525 -2.99083 0.137797 0
M  V30 5934 H 571.071 -1.43841 0.0677134 0
M  V30 5935 H 573.024 -3.57712 -2.22755 0
M  V30 5936 H 571.748 -2.33568 -2.28284 0
M  V30 5937 H 570.407 -3.61978 -0.580294 0
M  V30 5938 H 570.055 -4.01959 -3.02387 0
M  V30 5939 H 569.755 -5.49734 -2.07524 0
M  V30 5940 H 571.279 -5.32313 -2.99125 0
M  V30 5941 H 572.693 -5.68391 -0.748646 0
M  V30 5942 H 571.09 -6.00095 -0.0237608 0
M  V30 5943 H 572.16 -4.79596 0.715229 0
M  V30 5944 N 573.503 -0.0852151 -1.57369 0
M  V30 5945 C 574.749 0.581666 -1.94279 0
M  V30 5946 C 575.082 1.68444 -0.966446 0
M  V30 5947 O 574.357 1.945 0.00215277 0
M  V30 5948 C 574.64 1.14609 -3.41375 0
M  V30 5949 C 574.493 0.0490414 -4.49773 0
M  V30 5950 C 575.812 2.04751 -3.8957 0
M  V30 5951 H 572.931 0.209972 -0.706456 0
M  V30 5952 H 575.573 -0.153915 -1.89376 0
M  V30 5953 H 573.723 1.77297 -3.45685 0
M  V30 5954 H 575.395 -0.584721 -4.57579 0
M  V30 5955 H 573.638 -0.618638 -4.29366 0
M  V30 5956 H 574.309 0.484601 -5.49869 0
M  V30 5957 H 576.785 1.51981 -3.87351 0
M  V30 5958 H 575.661 2.41173 -4.93079 0
M  V30 5959 H 575.922 2.96107 -3.28288 0
M  V30 5960 N 574.981 1.5647 0.188427 0
M  V30 5961 C 575.911 1.98101 1.23606 0
M  V30 5962 C 576.892 0.853961 1.47111 0
M  V30 5963 O 578.077 1.11879 1.58735 0
M  V30 5964 C 575.207 2.32624 2.57882 0
M  V30 5965 C 574.161 3.48129 2.48978 0
M  V30 5966 C 573.487 3.68347 3.87588 0
M  V30 5967 C 574.787 4.82112 2.00911 0
M  V30 5968 H 576.481 2.85864 0.890068 0
M  V30 5969 H 574.027 1.37532 0.426714 0
M  V30 5970 H 575.98 2.60343 3.3136 0
M  V30 5971 H 574.704 1.41751 2.94235 0
M  V30 5972 H 573.363 3.20511 1.77956 0
M  V30 5973 H 573.011 2.74793 4.21305 0
M  V30 5974 H 572.711 4.46055 3.82503 0
M  V30 5975 H 574.235 3.98449 4.62678 0
M  V30 5976 H 575.649 5.08819 2.64151 0
M  V30 5977 H 574.046 5.63337 2.06814 0
M  V30 5978 H 575.116 4.75249 0.96262 0
M  V30 5979 N 576.459 -0.456382 1.50847 0
M  V30 5980 C 577.689 -1.22848 1.66108 0
M  V30 5981 C 578.097 -1.85936 0.349897 0
M  V30 5982 O 577.44 -1.70664 -0.679665 0
M  V30 5983 C 577.502 -2.36722 2.70561 0
M  V30 5984 C 577.166 -1.94154 4.13707 0
M  V30 5985 C 578.163 -1.4557 4.99105 0
M  V30 5986 C 575.848 -2.02426 4.59705 0
M  V30 5987 C 577.842 -1.0582 6.28555 0
M  V30 5988 C 575.529 -1.62287 5.89157 0
M  V30 5989 C 576.527 -1.14064 6.73408 0
M  V30 5990 O 576.215 -0.744873 8.00442 0
M  V30 5991 H 575.947 -0.377105 0.561042 0
M  V30 5992 H 578.501 -0.549431 1.97915 0
M  V30 5993 H 576.731 -3.07844 2.34027 0
M  V30 5994 H 578.42 -2.98646 2.74892 0
M  V30 5995 H 579.186 -1.38589 4.64777 0
M  V30 5996 H 575.065 -2.38908 3.94264 0
M  V30 5997 H 578.609 -0.6811 6.94267 0
M  V30 5998 H 574.506 -1.68932 6.23003 0
M  V30 5999 H 575.274 -0.87242 8.13837 0
M  V30 6000 N 577.937 -1.40673 -0.710563 0
M  V30 6001 C 579.184 -1.39222 -1.47049 0
M  V30 6002 C 579.512 0.0037691 -1.945 0
M  V30 6003 O 578.767 0.989224 -1.68857 0
M  V30 6004 C 579.066 -2.33253 -2.70791 0
M  V30 6005 C 578.732 -3.80406 -2.42079 0
M  V30 6006 C 577.394 -4.20496 -2.33959 0
M  V30 6007 C 579.746 -4.73375 -2.18094 0
M  V30 6008 C 577.074 -5.51584 -1.99929 0
M  V30 6009 C 579.426 -6.04768 -1.85576 0
M  V30 6010 C 578.09 -6.43895 -1.75941 0
M  V30 6011 H 577.36 -0.509449 -0.538092 0
M  V30 6012 H 580.007 -1.73363 -0.81348 0
M  V30 6013 H 578.312 -1.92314 -3.41354 0
M  V30 6014 H 580.009 -2.29412 -3.28894 0
M  V30 6015 H 576.599 -3.48645 -2.49288 0
M  V30 6016 H 580.783 -4.43217 -2.23321 0
M  V30 6017 H 576.039 -5.80797 -1.91011 0
M  V30 6018 H 580.213 -6.76318 -1.66033 0
M  V30 6019 H 577.84 -7.45387 -1.4934 0
M  V30 6020 N 579.415 0.9433 -1.26252 0
M  V30 6021 C 580.661 1.69175 -1.11837 0
M  V30 6022 C 580.994 1.91238 0.337891 0
M  V30 6023 O 580.269 1.49152 1.24836 0
M  V30 6024 C 580.552 3.06783 -1.88563 0
M  V30 6025 C 580.405 2.9206 -3.42083 0
M  V30 6026 C 581.724 4.06865 -1.67776 0
M  V30 6027 H 578.843 0.61399 -0.407658 0
M  V30 6028 H 581.485 1.09572 -1.55222 0
M  V30 6029 H 579.635 3.57663 -1.51689 0
M  V30 6030 H 581.307 2.48419 -3.88698 0
M  V30 6031 H 579.55 2.27731 -3.69217 0
M  V30 6032 H 580.221 3.89651 -3.90994 0
M  V30 6033 H 582.697 3.64939 -1.99897 0
M  V30 6034 H 581.573 5.01168 -2.23879 0
M  V30 6035 H 581.834 4.37705 -0.621816 0
M  V30 6036 N 580.893 1.08022 1.14757 0
M  V30 6037 C 582.142 0.802468 1.8505 0
M  V30 6038 C 582.455 -0.674061 1.83619 0
M  V30 6039 O 583.661 -1.06683 2.49662 0
M  V30 6040 C 582.117 1.38551 3.32162 0
M  V30 6041 C 581.725 2.89354 3.42021 0
M  V30 6042 C 583.469 1.18608 4.07594 0
M  V30 6043 C 581.376 3.40815 4.83321 0
M  V30 6044 H 580.306 0.296518 0.693248 0
M  V30 6045 H 582.957 1.30114 1.29393 0
M  V30 6046 H 581.339 0.814556 3.87532 0
M  V30 6047 H 582.513 3.52552 2.96722 0
M  V30 6048 H 580.828 3.08165 2.80041 0
M  V30 6049 H 583.425 1.54525 5.11885 0
M  V30 6050 H 583.768 0.125599 4.1611 0
M  V30 6051 H 584.301 1.72375 3.58513 0
M  V30 6052 H 581.04 4.46418 4.79991 0
M  V30 6053 H 580.56 2.82374 5.29174 0
M  V30 6054 H 582.239 3.37171 5.522 0
M  V30 6055 N 582.371 -1.3172 0.865308 0
M  V30 6056 C 583.648 -1.91574 0.394789 0
M  V30 6057 C 584.028 -1.78769 -1.12271 0
M  V30 6058 O 583.376 -1.19245 -1.94918 0
M  V30 6059 C 583.586 -3.37957 0.870982 0
M  V30 6060 C 584.934 -4.15073 0.894384 0
M  V30 6061 O 585.958 -3.4672 0.816325 0
M  V30 6062 O 584.817 -5.37151 1.00651 0
M  V30 6063 H 581.911 -0.818649 0.117229 0
M  V30 6064 H 584.457 -1.4042 0.952913 0
M  V30 6065 H 583.229 -3.41269 1.91444 0
M  V30 6066 H 582.852 -3.96534 0.290907 0
M  V30 6067 N 583.85 -0.624285 -1.44708 0
M  V30 6068 C 585.077 -0.132919 -2.06473 0
M  V30 6069 C 585.493 1.18967 -1.46602 0
M  V30 6070 O 584.85 1.72824 -0.586341 0
M  V30 6071 C 584.901 -0.00465418 -3.615 0
M  V30 6072 O 584.622 -1.27494 -4.19138 0
M  V30 6073 C 586.123 0.516213 -4.40284 0
M  V30 6074 H 583.343 -0.0765201 -0.666623 0
M  V30 6075 H 585.887 -0.856751 -1.85688 0
M  V30 6076 H 584.042 0.669583 -3.8157 0
M  V30 6077 H 584.456 -1.11536 -5.12504 0
M  V30 6078 H 585.93 0.554994 -5.49203 0
M  V30 6079 H 586.407 1.5419 -4.11245 0
M  V30 6080 H 587.013 -0.124542 -4.25118 0
M  V30 6081 N 585.328 1.53329 -0.364422 0
M  V30 6082 C 586.575 2.01239 0.225634 0
M  V30 6083 C 586.903 1.25172 1.48869 0
M  V30 6084 O 586.158 0.333289 1.92841 0
M  V30 6085 C 586.457 3.52911 0.564661 0
M  V30 6086 C 586.123 4.46837 -0.603936 0
M  V30 6087 C 584.785 4.72234 -0.924585 0
M  V30 6088 C 587.137 5.02409 -1.38691 0
M  V30 6089 C 584.465 5.50454 -2.0302 0
M  V30 6090 C 586.817 5.81836 -2.48293 0
M  V30 6091 C 585.481 6.0552 -2.80894 0
M  V30 6092 H 584.751 0.736386 0.0825654 0
M  V30 6093 H 587.398 1.84948 -0.496645 0
M  V30 6094 H 585.703 3.67144 1.36794 0
M  V30 6095 H 587.4 3.87455 1.03344 0
M  V30 6096 H 583.99 4.27217 -0.343983 0
M  V30 6097 H 588.174 4.82735 -1.15243 0
M  V30 6098 H 583.43 5.67024 -2.28678 0
M  V30 6099 H 587.604 6.23905 -3.0938 0
M  V30 6100 H 585.231 6.65916 -3.66688 0
M  V30 6101 N 586.806 0.0935595 1.57322 0
M  V30 6102 C 588.052 -0.565234 1.95388 0
M  V30 6103 C 588.407 -1.65888 0.974632 0
M  V30 6104 O 587.7 -1.916 0.000376385 0
M  V30 6105 C 587.894 -1.16692 3.37813 0
M  V30 6106 C 587.723 -0.133091 4.49503 0
M  V30 6107 C 586.493 0.289884 5.04468 0
M  V30 6108 C 588.691 0.638141 5.10326 0
M  V30 6109 N 586.673 1.31214 5.99713 0
M  V30 6110 C 588.044 1.51227 6.01274 0
M  V30 6111 C 590.099 0.691827 4.9307 0
M  V30 6112 C 588.802 2.43536 6.76818 0
M  V30 6113 C 590.828 1.60251 5.69274 0
M  V30 6114 C 590.19 2.46427 6.59889 0
M  V30 6115 H 586.289 -0.177212 0.761656 0
M  V30 6116 H 588.873 0.175769 1.93905 0
M  V30 6117 H 587.044 -1.87775 3.39993 0
M  V30 6118 H 588.776 -1.78795 3.63063 0
M  V30 6119 H 585.531 -0.0975541 4.735 0
M  V30 6120 H 585.955 1.82143 6.52038 0
M  V30 6121 H 590.597 0.0397431 4.22781 0
M  V30 6122 H 588.315 3.0977 7.4637 0
M  V30 6123 H 591.901 1.64917 5.57937 0
M  V30 6124 H 590.781 3.15751 7.17824 0
M  V30 6125 N 588.284 -1.56567 -0.180126 0
M  V30 6126 C 589.53 -1.81761 -0.899497 0
M  V30 6127 C 589.863 -0.670015 -1.82276 0
M  V30 6128 O 589.138 0.328575 -1.91705 0
M  V30 6129 C 589.421 -3.17296 -1.7028 0
M  V30 6130 C 589.274 -4.4257 -0.803255 0
M  V30 6131 C 590.593 -3.49678 -2.67233 0
M  V30 6132 H 587.712 -0.661192 -0.325567 0
M  V30 6133 H 590.354 -1.89272 -0.16612 0
M  V30 6134 H 588.504 -3.11023 -2.32802 0
M  V30 6135 H 590.176 -4.60902 -0.191585 0
M  V30 6136 H 588.419 -4.33658 -0.110796 0
M  V30 6137 H 589.09 -5.33935 -1.40064 0
M  V30 6138 H 591.566 -3.56347 -2.14839 0
M  V30 6139 H 590.442 -4.45605 -3.20511 0
M  V30 6140 H 590.703 -2.73932 -3.47007 0
M  V30 6141 N 589.762 0.448376 -1.51087 0
M  V30 6142 C 590.694 1.56146 -1.67783 0
M  V30 6143 C 591.707 1.52913 -0.55871 0
M  V30 6144 O 592.896 1.57889 -0.83267 0
M  V30 6145 C 589.996 2.95057 -1.66716 0
M  V30 6146 C 589.169 3.22915 -2.95033 0
M  V30 6147 C 588.228 4.41495 -2.86302 0
M  V30 6148 O 587.254 4.40688 -3.60254 0
M  V30 6149 N 588.456 5.44443 -2.014 0
M  V30 6150 H 591.221 1.42232 -2.638 0
M  V30 6151 H 588.782 0.637153 -1.48835 0
M  V30 6152 H 590.774 3.72388 -1.58458 0
M  V30 6153 H 589.344 3.02624 -0.783403 0
M  V30 6154 H 588.564 2.33985 -3.17245 0
M  V30 6155 H 589.852 3.38349 -3.79996 0
M  V30 6156 H 589.25 5.4793 -1.40674 0
M  V30 6157 H 587.807 6.2067 -1.99029 0
M  V30 6158 N 591.24 1.41047 0.703093 0
M  V30 6159 C 592.187 1.42302 1.81711 0
M  V30 6160 C 593.157 0.278336 1.63751 0
M  V30 6161 O 594.342 0.478266 1.84709 0
M  V30 6162 C 591.482 1.30362 3.19531 0
M  V30 6163 C 590.595 2.54638 3.48975 0
M  V30 6164 C 589.73 2.35047 4.76368 0
M  V30 6165 C 588.769 3.54837 4.98756 0
M  V30 6166 N 587.906 3.34363 6.1737 0
M  V30 6167 H 592.746 2.37516 1.79973 0
M  V30 6168 H 590.283 1.1795 0.878983 0
M  V30 6169 H 592.241 1.21443 3.99134 0
M  V30 6170 H 590.871 0.387602 3.20464 0
M  V30 6171 H 589.923 2.74037 2.63833 0
M  V30 6172 H 591.235 3.43766 3.61423 0
M  V30 6173 H 590.389 2.23552 5.64012 0
M  V30 6174 H 589.128 1.43363 4.66153 0
M  V30 6175 H 588.133 3.66795 4.09563 0
M  V30 6176 H 589.358 4.47464 5.10835 0
M  V30 6177 H 587.304 2.45373 6.08382 0
M  V30 6178 H 587.221 4.17063 6.30551 0
M  V30 6179 H 588.489 3.26626 7.07768 0
M  V30 6180 N 592.718 -0.936591 1.26751 0
M  V30 6181 C 594.134 -1.21095 1.03963 0
M  V30 6182 C 594.334 -2.00156 -0.232372 0
M  V30 6183 O 593.39 -2.3434 -0.940274 0
M  V30 6184 C 594.703 -1.96775 2.27377 0
M  V30 6185 C 596.251 -2.09749 2.32324 0
M  V30 6186 C 596.726 -2.88832 3.55443 0
M  V30 6187 N 598.217 -2.96404 3.55948 0
M  V30 6188 C 598.952 -3.58036 4.47881 0
M  V30 6189 N 598.448 -4.21132 5.50109 0
M  V30 6190 N 600.241 -3.55353 4.35523 0
M  V30 6191 H 592.392 -0.408173 2.08441 0
M  V30 6192 H 594.655 -0.243139 0.91629 0
M  V30 6193 H 594.361 -1.46094 3.19921 0
M  V30 6194 H 594.235 -2.97424 2.31989 0
M  V30 6195 H 596.622 -2.5962 1.40291 0
M  V30 6196 H 596.703 -1.08347 2.31721 0
M  V30 6197 H 596.347 -2.39647 4.47808 0
M  V30 6198 H 596.277 -3.90499 3.53296 0
M  V30 6199 H 598.768 -2.51552 2.82011 0
M  V30 6200 H 599.081 -4.66071 6.16439 0
M  V30 6201 H 597.426 -4.19705 5.53961 0
M  V30 6202 H 600.617 -3.05256 3.54875 0
M  V30 6203 H 600.79 -4.03097 5.07363 0
M  V30 6204 N 594.196 -1.08629 -1.14182 0
M  V30 6205 C 595.607 -0.838003 -1.66836 0
M  V30 6206 C 595.958 0.634885 -1.85644 0
M  V30 6207 O 595.083 1.49008 -1.56926 0
M  V30 6208 C 595.678 -1.51465 -3.03058 0
M  V30 6209 C 594.237 -1.31355 -3.52736 0
M  V30 6210 C 593.384 -1.57599 -2.28162 0
M  V30 6211 H 596.335 -1.24656 -0.982165 0
M  V30 6212 H 596.356 -0.943134 -3.68626 0
M  V30 6213 H 595.868 -2.58661 -2.89337 0
M  V30 6214 H 593.969 -0.262384 -3.71675 0
M  V30 6215 H 594.082 -2.04275 -4.33369 0
M  V30 6216 H 592.446 -0.997659 -2.34348 0
M  V30 6217 H 593.229 -2.66006 -2.17015 0
M  V30 6218 N 595.674 1.31259 -0.872281 0
M  V30 6219 C 596.92 1.973 -0.494414 0
M  V30 6220 C 597.275 1.67684 0.94339 0
M  V30 6221 O 596.568 0.964186 1.65572 0
M  V30 6222 C 596.762 3.50659 -0.690889 0
M  V30 6223 C 596.591 3.95179 -2.14624 0
M  V30 6224 C 595.361 4.21405 -2.7883 0
M  V30 6225 C 597.559 4.08948 -3.11875 0
M  V30 6226 N 595.541 4.52295 -4.15093 0
M  V30 6227 C 596.912 4.43576 -4.33174 0
M  V30 6228 C 598.967 3.91334 -3.07835 0
M  V30 6229 C 597.67 4.62429 -5.50956 0
M  V30 6230 C 599.696 4.11381 -4.24876 0
M  V30 6231 C 599.058 4.46343 -5.44938 0
M  V30 6232 H 595.157 0.747411 -0.230002 0
M  V30 6233 H 597.741 1.58741 -1.12736 0
M  V30 6234 H 595.912 3.88301 -0.0875162 0
M  V30 6235 H 597.644 4.03722 -0.281179 0
M  V30 6236 H 594.399 4.14131 -2.29767 0
M  V30 6237 H 594.823 4.71897 -4.8543 0
M  V30 6238 H 599.465 3.6339 -2.16119 0
M  V30 6239 H 597.183 4.8922 -6.43187 0
M  V30 6240 H 600.769 3.99235 -4.23205 0
M  V30 6241 H 599.649 4.6154 -6.33996 0
M  V30 6242 N 597.152 0.631951 1.44375 0
M  V30 6243 C 598.082 -0.0593243 2.33425 0
M  V30 6244 C 599.063 -0.833964 1.48253 0
M  V30 6245 O 600.248 -0.799682 1.76971 0
M  V30 6246 C 597.378 -1.04096 3.31333 0
M  V30 6247 C 596.332 -0.377899 4.26328 0
M  V30 6248 C 595.658 -1.4695 5.14111 0
M  V30 6249 C 596.958 0.716371 5.17364 0
M  V30 6250 H 598.652 0.684287 2.91475 0
M  V30 6251 H 596.198 0.330518 1.40156 0
M  V30 6252 H 598.151 -1.53331 3.92514 0
M  V30 6253 H 596.875 -1.81547 2.71493 0
M  V30 6254 H 595.534 0.0938054 3.6648 0
M  V30 6255 H 595.182 -2.2349 4.50623 0
M  V30 6256 H 594.882 -1.03121 5.78481 0
M  V30 6257 H 596.406 -1.96363 5.78164 0
M  V30 6258 H 597.82 0.307089 5.72477 0
M  V30 6259 H 596.217 1.07784 5.90341 0
M  V30 6260 H 597.287 1.58316 4.58327 0
M  V30 6261 N 598.631 -1.53133 0.372548 0
M  V30 6262 C 599.594 -2.24569 -0.458389 0
M  V30 6263 C 600.594 -1.25603 -1.00402 0
M  V30 6264 O 601.784 -1.49827 -0.888672 0
M  V30 6265 C 598.916 -2.98783 -1.6414 0
M  V30 6266 H 600.109 -2.99436 0.166799 0
M  V30 6267 H 597.662 -1.55805 0.124357 0
M  V30 6268 H 598.397 -2.28176 -2.30448 0
M  V30 6269 H 598.182 -3.71404 -1.25704 0
M  V30 6270 H 599.672 -3.53068 -2.23008 0
M  V30 6271 N 600.109 -0.101901 -1.5727 0
M  V30 6272 C 601.019 0.868647 -2.17926 0
M  V30 6273 C 602.035 1.30527 -1.1506 0
M  V30 6274 O 603.211 1.37178 -1.47459 0
M  V30 6275 C 600.276 2.10727 -2.75309 0
M  V30 6276 C 599.337 1.7242 -3.93154 0
M  V30 6277 C 598.57 2.90377 -4.47791 0
M  V30 6278 O 598.793 4.05305 -4.01353 0
M  V30 6279 O 597.727 2.6845 -5.38719 0
M  V30 6280 H 601.553 0.382544 -3.01281 0
M  V30 6281 H 599.138 0.122812 -1.48894 0
M  V30 6282 H 601.02 2.83303 -3.11958 0
M  V30 6283 H 599.695 2.58376 -1.94996 0
M  V30 6284 H 598.602 0.970039 -3.61305 0
M  V30 6285 H 599.935 1.29528 -4.74851 0
M  V30 6286 N 601.587 1.56661 0.17182 0
M  V30 6287 C 602.827 1.83762 0.895029 0
M  V30 6288 C 603.191 0.682752 1.79451 0
M  V30 6289 O 604.392 0.834208 2.55528 0
M  V30 6290 C 602.663 3.15976 1.67015 0
M  V30 6291 S 604.222 3.64558 2.44219 0
M  V30 6292 H 601.04 0.644713 0.299778 0
M  V30 6293 H 603.642 1.94871 0.156701 0
M  V30 6294 H 602.346 3.98021 1.00039 0
M  V30 6295 H 601.877 3.07807 2.44986 0
M  V30 6296 H 603.892 3.31845 3.68909 0
M  V30 6297 N 603.065 -0.440357 1.51323 0
M  V30 6298 C 604.293 -1.21255 1.67645 0
M  V30 6299 C 604.708 -1.85088 0.37252 0
M  V30 6300 O 604.065 -1.70582 -0.648683 0
M  V30 6301 C 604.116 -2.29881 2.78993 0
M  V30 6302 O 603.837 -1.68659 4.04334 0
M  V30 6303 C 605.338 -3.20214 3.06558 0
M  V30 6304 H 602.558 -0.36558 0.562666 0
M  V30 6305 H 605.102 -0.52214 1.97722 0
M  V30 6306 H 603.257 -2.94643 2.51524 0
M  V30 6307 H 603.671 -2.40426 4.6615 0
M  V30 6308 H 605.145 -3.92575 3.88058 0
M  V30 6309 H 605.622 -3.80794 2.18844 0
M  V30 6310 H 606.228 -2.61156 3.35675 0
M  V30 6311 N 604.543 -1.41418 -0.695603 0
M  V30 6312 C 605.954 -1.36335 -1.27552 0
M  V30 6313 C 606.305 -0.0464336 -1.96145 0
M  V30 6314 O 605.43 0.855304 -1.9878 0
M  V30 6315 C 606.025 -2.46941 -2.3196 0
M  V30 6316 C 604.584 -2.45256 -2.85529 0
M  V30 6317 C 603.731 -2.2679 -1.59566 0
M  V30 6318 H 606.682 -1.50934 -0.490362 0
M  V30 6319 H 606.703 -2.15997 -3.1325 0
M  V30 6320 H 606.215 -3.42775 -1.82008 0
M  V30 6321 H 604.316 -1.53179 -3.39657 0
M  V30 6322 H 604.429 -3.41565 -3.35961 0
M  V30 6323 H 602.793 -1.74667 -1.85374 0
M  V30 6324 H 603.576 -3.24651 -1.1161 0
M  V30 6325 N 606.021 0.929856 -1.27246 0
M  V30 6326 C 607.27 1.67182 -1.12842 0
M  V30 6327 C 607.583 1.9287 0.325666 0
M  V30 6328 O 608.789 2.64999 0.590572 0
M  V30 6329 C 607.245 3.01097 -1.97151 0
M  V30 6330 C 606.853 2.83115 -3.47203 0
M  V30 6331 C 608.597 3.78907 -1.91389 0
M  V30 6332 C 606.504 4.12573 -4.23719 0
M  V30 6333 H 605.434 0.627064 -0.418697 0
M  V30 6334 H 608.085 1.0332 -1.51649 0
M  V30 6335 H 606.467 3.66004 -1.51186 0
M  V30 6336 H 607.641 2.26989 -4.01015 0
M  V30 6337 H 605.956 2.18736 -3.54321 0
M  V30 6338 H 608.553 4.74837 -2.45834 0
M  V30 6339 H 608.896 4.0674 -0.887047 0
M  V30 6340 H 609.429 3.20794 -2.35237 0
M  V30 6341 H 606.168 3.8992 -5.26918 0
M  V30 6342 H 605.688 4.68371 -3.74685 0
M  V30 6343 H 607.367 4.8095 -4.32777 0
M  V30 6344 N 607.499 1.09233 1.13605 0
M  V30 6345 C 608.729 0.847677 1.88409 0
M  V30 6346 C 609.137 -0.604524 1.79282 0
M  V30 6347 O 608.48 -1.42773 1.15592 0
M  V30 6348 C 608.542 1.20153 3.38827 0
M  V30 6349 C 608.206 2.65824 3.71735 0
M  V30 6350 C 609.203 3.64072 3.71143 0
M  V30 6351 C 606.888 3.01894 4.01454 0
M  V30 6352 C 608.882 4.96419 3.99808 0
M  V30 6353 C 606.569 4.34433 4.29781 0
M  V30 6354 C 607.567 5.31505 4.28942 0
M  V30 6355 O 607.255 6.61659 4.56576 0
M  V30 6356 H 606.987 0.304813 0.603378 0
M  V30 6357 H 609.541 1.4573 1.44748 0
M  V30 6358 H 607.771 0.534946 3.82982 0
M  V30 6359 H 609.46 0.936349 3.94952 0
M  V30 6360 H 610.226 3.37549 3.4826 0
M  V30 6361 H 606.105 2.26971 4.01255 0
M  V30 6362 H 609.649 5.7218 3.99069 0
M  V30 6363 H 605.546 4.607 4.52135 0
M  V30 6364 H 606.314 6.67102 4.74254 0
M  V30 6365 N 608.977 -1.30795 0.87923 0
M  V30 6366 C 610.226 -1.95636 0.490875 0
M  V30 6367 C 610.539 -1.70214 -0.963674 0
M  V30 6368 O 611.745 -2.28991 -1.45861 0
M  V30 6369 C 610.201 -3.50271 0.826929 0
M  V30 6370 C 609.809 -3.84521 2.29886 0
M  V30 6371 C 611.553 -4.21456 0.507494 0
M  V30 6372 C 609.46 -5.32309 2.57685 0
M  V30 6373 H 608.39 -0.732238 0.179841 0
M  V30 6374 H 611.041 -1.48829 1.07341 0
M  V30 6375 H 609.423 -3.9562 0.173542 0
M  V30 6376 H 610.597 -3.50102 2.99609 0
M  V30 6377 H 608.912 -3.26425 2.58526 0
M  V30 6378 H 611.509 -5.30199 0.692293 0
M  V30 6379 H 611.852 -4.12614 -0.552718 0
M  V30 6380 H 612.385 -3.81772 1.11782 0
M  V30 6381 H 609.124 -5.46195 3.62424 0
M  V30 6382 H 608.644 -5.68048 1.92566 0
M  V30 6383 H 610.323 -5.99678 2.42889 0
M  V30 6384 N 610.455 -0.639598 -1.44038 0
M  V30 6385 C 611.387 0.0987684 -2.28987 0
M  V30 6386 C 612.4 0.80058 -1.41755 0
M  V30 6387 O 613.589 0.660611 -1.65826 0
M  V30 6388 C 610.689 1.16242 -3.18341 0
M  V30 6389 C 609.862 0.541447 -4.34036 0
M  V30 6390 C 608.921 1.50017 -5.04362 0
M  V30 6391 O 607.947 1.01403 -5.60095 0
M  V30 6392 N 609.149 2.83441 -5.06598 0
M  V30 6393 H 611.914 -0.630305 -2.92997 0
M  V30 6394 H 609.475 -0.481376 -1.54578 0
M  V30 6395 H 611.467 1.80429 -3.62253 0
M  V30 6396 H 610.037 1.79362 -2.56024 0
M  V30 6397 H 609.257 -0.27923 -3.9321 0
M  V30 6398 H 610.545 0.107379 -5.08687 0
M  V30 6399 H 609.943 3.2551 -4.62666 0
M  V30 6400 H 608.5 3.42966 -5.54272 0
M  V30 6401 N 611.933 1.52934 -0.380664 0
M  V30 6402 C 613.163 2.05587 0.204302 0
M  V30 6403 C 613.571 1.25288 1.41773 0
M  V30 6404 O 612.914 0.290394 1.8139 0
M  V30 6405 C 612.976 3.53624 0.647324 0
M  V30 6406 C 612.64 4.54765 -0.451465 0
M  V30 6407 C 613.637 5.03226 -1.30614 0
M  V30 6408 C 611.322 4.98508 -0.616025 0
M  V30 6409 C 613.316 5.94046 -2.31058 0
M  V30 6410 C 611.003 5.89131 -1.62381 0
M  V30 6411 C 612.001 6.36792 -2.46952 0
M  V30 6412 O 611.689 7.25626 -3.46009 0
M  V30 6413 H 611.421 0.675013 0.0365198 0
M  V30 6414 H 613.975 1.98125 -0.541827 0
M  V30 6415 H 612.205 3.58676 1.44529 0
M  V30 6416 H 613.894 3.89061 1.15698 0
M  V30 6417 H 614.66 4.70167 -1.19027 0
M  V30 6418 H 610.539 4.60989 0.0324987 0
M  V30 6419 H 614.083 6.3117 -2.97104 0
M  V30 6420 H 609.98 6.21603 -1.7401 0
M  V30 6421 H 610.748 7.43664 -3.41916 0
M  V30 6422 N 613.412 0.11024 1.57214 0
M  V30 6423 C 614.659 -0.54987 1.94891 0
M  V30 6424 C 614.987 -1.67243 0.992984 0
M  V30 6425 O 614.242 -1.95694 0.0152703 0
M  V30 6426 C 614.541 -1.13102 3.39032 0
M  V30 6427 C 614.207 -0.130713 4.5071 0
M  V30 6428 C 612.869 0.14437 4.80983 0
M  V30 6429 C 615.221 0.551472 5.18274 0
M  V30 6430 C 612.549 1.10807 5.76141 0
M  V30 6431 C 614.901 1.50375 6.14467 0
M  V30 6432 C 613.565 1.78691 6.43138 0
M  V30 6433 H 612.835 -0.201212 0.713158 0
M  V30 6434 H 615.482 0.189288 1.90562 0
M  V30 6435 H 613.787 -1.94675 3.40013 0
M  V30 6436 H 615.484 -1.64973 3.65493 0
M  V30 6437 H 612.074 -0.355301 4.27125 0
M  V30 6438 H 616.258 0.35211 4.95049 0
M  V30 6439 H 611.514 1.3343 5.96663 0
M  V30 6440 H 615.688 2.03808 6.65909 0
M  V30 6441 H 613.315 2.53522 7.1668 0
M  V30 6442 N 614.89 -1.56749 -0.16351 0
M  V30 6443 C 616.136 -1.82704 -0.880168 0
M  V30 6444 C 616.469 -0.689311 -1.81555 0
M  V30 6445 O 615.744 0.308224 -1.92042 0
M  V30 6446 C 616.027 -3.19084 -1.66905 0
M  V30 6447 C 615.88 -4.43397 -0.756269 0
M  V30 6448 C 617.199 -3.52493 -2.63509 0
M  V30 6449 H 614.318 -0.664608 -0.318535 0
M  V30 6450 H 616.96 -1.89438 -0.146036 0
M  V30 6451 H 615.11 -3.13475 -2.2949 0
M  V30 6452 H 616.782 -4.61079 -0.14269 0
M  V30 6453 H 615.025 -4.33752 -0.0647944 0
M  V30 6454 H 615.696 -5.3539 -1.34393 0
M  V30 6455 H 618.172 -3.58606 -2.11047 0
M  V30 6456 H 617.048 -4.48979 -3.15767 0
M  V30 6457 H 617.309 -2.77597 -3.44082 0
M  V30 6458 N 616.368 0.432326 -1.51554 0
M  V30 6459 C 617.315 1.52512 -1.7323 0
M  V30 6460 C 618.285 1.55863 -0.5741 0
M  V30 6461 O 619.47 1.72796 -0.809093 0
M  V30 6462 C 616.61 2.90183 -1.86783 0
M  V30 6463 C 615.723 2.96322 -3.14352 0
M  V30 6464 C 614.858 4.25147 -3.18471 0
M  V30 6465 C 613.897 4.25172 -4.40335 0
M  V30 6466 N 613.034 5.45529 -4.41975 0
M  V30 6467 H 617.874 1.33332 -2.66508 0
M  V30 6468 H 615.411 0.647613 -1.32077 0
M  V30 6469 H 617.369 3.70071 -1.92623 0
M  V30 6470 H 615.999 3.0791 -0.969087 0
M  V30 6471 H 615.051 2.09066 -3.17798 0
M  V30 6472 H 616.363 2.92203 -4.04251 0
M  V30 6473 H 615.517 5.13411 -3.23255 0
M  V30 6474 H 614.256 4.31929 -2.2647 0
M  V30 6475 H 613.261 3.353 -4.35723 0
M  V30 6476 H 614.486 4.20049 -5.33606 0
M  V30 6477 H 612.432 5.53024 -3.52847 0
M  V30 6478 H 612.349 5.43311 -5.25689 0
M  V30 6479 H 613.617 6.35812 -4.50958 0
M  V30 6480 N 617.846 1.41785 0.688094 0
M  V30 6481 C 619.093 1.41544 1.44816 0
M  V30 6482 C 619.421 0.0271746 1.94481 0
M  V30 6483 O 618.676 -0.962235 1.7041 0
M  V30 6484 C 618.975 2.37532 2.67046 0
M  V30 6485 C 618.641 3.84209 2.35996 0
M  V30 6486 C 617.303 4.24165 2.27239 0
M  V30 6487 C 619.655 4.76785 2.10536 0
M  V30 6488 C 616.983 5.54695 1.91128 0
M  V30 6489 C 619.335 6.07644 1.75931 0
M  V30 6490 C 617.999 6.46613 1.65675 0
M  V30 6491 H 617.269 0.517945 0.529919 0
M  V30 6492 H 619.916 1.74635 0.785797 0
M  V30 6493 H 618.221 1.9772 3.38251 0
M  V30 6494 H 619.918 2.34615 3.25203 0
M  V30 6495 H 616.508 3.52567 2.4371 0
M  V30 6496 H 620.692 4.46714 2.16242 0
M  V30 6497 H 615.948 5.83762 1.81746 0
M  V30 6498 H 620.122 6.78874 1.55252 0
M  V30 6499 H 617.749 7.47668 1.37463 0
M  V30 6500 N 619.324 -0.923095 1.27737 0
M  V30 6501 C 620.571 -1.67127 1.14345 0
M  V30 6502 C 620.899 -1.92017 -0.30982 0
M  V30 6503 O 620.154 -1.51185 -1.24264 0
M  V30 6504 C 620.453 -3.04125 1.8773 0
M  V30 6505 C 620.119 -2.98929 3.37568 0
M  V30 6506 C 618.781 -2.9722 3.78436 0
M  V30 6507 C 621.133 -2.89875 4.33154 0
M  V30 6508 C 618.461 -2.84244 5.13247 0
M  V30 6509 C 620.813 -2.7844 5.68026 0
M  V30 6510 C 619.477 -2.75083 6.08182 0
M  V30 6511 H 618.747 -0.611562 0.418417 0
M  V30 6512 H 621.394 -1.07618 1.584 0
M  V30 6513 H 619.699 -3.67366 1.36196 0
M  V30 6514 H 621.396 -3.609 1.74792 0
M  V30 6515 H 617.986 -3.0105 3.05069 0
M  V30 6516 H 622.17 -2.9029 4.02548 0
M  V30 6517 H 617.426 -2.80034 5.43499 0
M  V30 6518 H 621.6 -2.70401 6.4176 0
M  V30 6519 H 619.227 -2.64786 7.12596 0
M  V30 6520 N 620.802 -1.09834 -1.13024 0
M  V30 6521 C 622.051 -0.831806 -1.83749 0
M  V30 6522 C 622.364 0.644763 -1.84668 0
M  V30 6523 O 623.57 1.02697 -2.51327 0
M  V30 6524 C 622.026 -1.43817 -3.29916 0
M  V30 6525 C 621.634 -2.94759 -3.37374 0
M  V30 6526 C 623.378 -1.25077 -4.05655 0
M  V30 6527 C 621.285 -3.48461 -4.77838 0
M  V30 6528 H 620.215 -0.30751 -0.688443 0
M  V30 6529 H 622.866 -1.32156 -1.27307 0
M  V30 6530 H 621.248 -0.876106 -3.86187 0
M  V30 6531 H 622.422 -3.57228 -2.91076 0
M  V30 6532 H 620.737 -3.12581 -2.75103 0
M  V30 6533 H 623.334 -1.62649 -5.09362 0
M  V30 6534 H 623.677 -0.191782 -4.15858 0
M  V30 6535 H 624.21 -1.78057 -3.55725 0
M  V30 6536 H 620.949 -4.53998 -4.72828 0
M  V30 6537 H 620.469 -2.90757 -5.24615 0
M  V30 6538 H 622.148 -3.45914 -5.46766 0
M  V30 6539 N 622.28 1.30327 -0.886154 0
M  V30 6540 C 623.529 1.95373 -0.501243 0
M  V30 6541 C 623.842 1.70722 0.954634 0
M  V30 6542 O 625.048 2.29761 1.44644 0
M  V30 6543 C 623.504 3.49828 -0.845493 0
M  V30 6544 C 623.112 3.83296 -2.31922 0
M  V30 6545 C 624.856 4.2118 -0.529838 0
M  V30 6546 C 622.763 5.30935 -2.60504 0
M  V30 6547 H 621.693 0.731274 -0.183722 0
M  V30 6548 H 624.344 1.48258 -1.08129 0
M  V30 6549 H 622.726 3.95522 -0.19452 0
M  V30 6550 H 623.9 3.48508 -3.01461 0
M  V30 6551 H 622.215 3.2505 -2.60253 0
M  V30 6552 H 624.812 5.29825 -0.720401 0
M  V30 6553 H 625.155 4.12902 0.530828 0
M  V30 6554 H 625.688 3.81173 -1.13806 0
M  V30 6555 H 622.427 5.44265 -3.65316 0
M  V30 6556 H 621.947 5.67019 -1.95575 0
M  V30 6557 H 623.626 5.98381 -2.46066 0
M  V30 6558 N 623.758 0.647228 1.43697 0
M  V30 6559 C 625.006 0.157876 2.01482 0
M  V30 6560 C 625.327 -1.23039 1.51282 0
M  V30 6561 O 624.597 -1.82071 0.722982 0
M  V30 6562 H 623.177 0.0553745 0.744945 0
M  V30 6563 H 625.839 0.83755 1.75986 0
M  V30 6564 H 624.935 0.137895 3.11795 0
M  V30 6565 N 625.236 -1.5273 0.388769 0
M  V30 6566 C 626.482 -2.01871 -0.193877 0
M  V30 6567 C 626.815 -1.27475 -1.46505 0
M  V30 6568 O 626.09 -0.375063 -1.90849 0
M  V30 6569 C 626.373 -3.5712 -0.462336 0
M  V30 6570 C 626.226 -4.42186 0.824091 0
M  V30 6571 C 627.545 -4.21881 -1.25319 0
M  V30 6572 H 624.664 -0.733764 -0.0689899 0
M  V30 6573 H 627.306 -1.82796 0.518231 0
M  V30 6574 H 625.456 -3.73504 -1.06896 0
M  V30 6575 H 627.128 -4.37554 1.46096 0
M  V30 6576 H 625.371 -4.09219 1.43952 0
M  V30 6577 H 626.042 -5.48828 0.590905 0
M  V30 6578 H 628.518 -4.0947 -0.73981 0
M  V30 6579 H 627.394 -5.30487 -1.40977 0
M  V30 6580 H 627.655 -3.79478 -2.26824 0
M  V30 6581 N 626.714 -0.118576 -1.57153 0
M  V30 6582 C 627.942 0.54726 -1.99531 0
M  V30 6583 C 628.357 1.60251 -0.998246 0
M  V30 6584 O 627.714 1.82498 0.00893106 0
M  V30 6585 C 627.765 1.17378 -3.41913 0
M  V30 6586 O 627.486 0.160703 -4.37805 0
M  V30 6587 C 628.987 1.92297 -3.9942 0
M  V30 6588 H 626.207 0.144919 -0.655164 0
M  V30 6589 H 628.751 -0.20479 -2.03472 0
M  V30 6590 H 626.906 1.87661 -3.38913 0
M  V30 6591 H 627.32 0.61586 -5.20872 0
M  V30 6592 H 628.794 2.31462 -5.01128 0
M  V30 6593 H 629.271 2.79801 -3.38538 0
M  V30 6594 H 629.877 1.26777 -4.05965 0
M  V30 6595 N 628.193 1.56834 0.155195 0
M  V30 6596 C 629.439 1.83169 0.870467 0
M  V30 6597 C 629.772 0.698929 1.81187 0
M  V30 6598 O 629.047 -0.298035 1.92203 0
M  V30 6599 C 629.33 3.19965 1.65211 0
M  V30 6600 C 629.183 4.43792 0.732744 0
M  V30 6601 C 630.502 3.53885 2.61636 0
M  V30 6602 H 627.621 0.666288 0.315006 0
M  V30 6603 H 630.263 1.89513 0.135988 0
M  V30 6604 H 628.413 3.14687 2.27825 0
M  V30 6605 H 630.085 4.61148 0.118236 0
M  V30 6606 H 628.328 4.3378 0.0417906 0
M  V30 6607 H 628.999 5.36095 1.31552 0
M  V30 6608 H 631.475 3.5972 2.09143 0
M  V30 6609 H 630.351 4.50648 3.13381 0
M  V30 6610 H 630.612 2.79418 3.42605 0
M  V30 6611 N 629.671 -0.424282 1.51781 0
M  V30 6612 C 630.601 -1.52305 1.7699 0
M  V30 6613 C 631.582 -1.5839 0.620209 0
M  V30 6614 O 632.767 -1.73908 0.864268 0
M  V30 6615 C 629.897 -2.90271 1.90683 0
M  V30 6616 C 628.851 -2.99043 3.06198 0
M  V30 6617 C 628.177 -4.39116 3.05092 0
M  V30 6618 C 629.477 -2.7192 4.45934 0
M  V30 6619 H 631.171 -1.31461 2.68995 0
M  V30 6620 H 628.717 -0.630985 1.29439 0
M  V30 6621 H 630.67 -3.6711 2.06901 0
M  V30 6622 H 629.394 -3.12376 0.953365 0
M  V30 6623 H 628.053 -2.24646 2.89706 0
M  V30 6624 H 627.701 -4.58207 2.07498 0
M  V30 6625 H 627.401 -4.45912 3.82669 0
M  V30 6626 H 628.925 -5.17911 3.2342 0
M  V30 6627 H 630.339 -3.38487 4.62709 0
M  V30 6628 H 628.736 -2.90111 5.25315 0
M  V30 6629 H 629.806 -1.67445 4.55072 0
M  V30 6630 N 631.149 -1.42148 -0.680565 0
M  V30 6631 C 632.395 -1.42521 -1.44277 0
M  V30 6632 C 632.728 -0.0393718 -1.9416 0
M  V30 6633 O 632.003 0.935425 -1.70529 0
M  V30 6634 C 632.286 -2.44475 -2.64394 0
M  V30 6635 C 632.139 -3.92226 -2.20179 0
M  V30 6636 C 633.458 -2.43491 -3.66606 0
M  V30 6637 H 630.577 -0.518985 -0.523282 0
M  V30 6638 H 633.219 -1.73524 -0.773914 0
M  V30 6639 H 631.369 -2.18168 -3.21458 0
M  V30 6640 H 633.041 -4.29493 -1.68327 0
M  V30 6641 H 631.284 -4.0637 -1.5181 0
M  V30 6642 H 631.955 -4.59133 -3.06433 0
M  V30 6643 H 634.431 -2.66872 -3.19247 0
M  V30 6644 H 633.307 -3.16816 -4.4824 0
M  V30 6645 H 633.568 -1.45881 -4.17338 0
M  V30 6646 N 632.627 0.916307 -1.28225 0
M  V30 6647 C 633.873 1.66765 -1.154 0
M  V30 6648 C 634.206 1.91912 0.297251 0
M  V30 6649 O 633.481 1.51766 1.21644 0
M  V30 6650 C 633.764 3.02715 -1.95028 0
M  V30 6651 C 633.617 2.84738 -3.48201 0
M  V30 6652 C 634.936 4.03215 -1.76369 0
M  V30 6653 H 632.055 0.605205 -0.42059 0
M  V30 6654 H 634.697 1.06255 -1.57512 0
M  V30 6655 H 632.847 3.54365 -1.59242 0
M  V30 6656 H 634.519 2.40118 -3.9388 0
M  V30 6657 H 632.762 2.19848 -3.73964 0
M  V30 6658 H 633.433 3.8127 -3.99171 0
M  V30 6659 H 635.909 3.60617 -2.07593 0
M  V30 6660 H 634.785 4.96306 -2.34459 0
M  V30 6661 H 635.046 4.36288 -0.71452 0
M  V30 6662 N 634.105 1.10431 1.1244 0
M  V30 6663 C 635.068 0.756542 2.16354 0
M  V30 6664 C 636.068 -0.21899 1.59302 0
M  V30 6665 O 637.258 0.00415969 1.742 0
M  V30 6666 C 634.39 0.120612 3.40687 0
M  V30 6667 H 635.583 1.67696 2.48632 0
M  V30 6668 H 633.136 0.904832 1.27446 0
M  V30 6669 H 633.871 -0.810536 3.14008 0
M  V30 6670 H 633.656 0.822693 3.83372 0
M  V30 6671 H 635.146 -0.106945 4.17463 0
M  V30 6672 N 635.583 -1.29855 0.893053 0
M  V30 6673 C 636.829 -1.96116 0.516349 0
M  V30 6674 C 637.162 -1.70281 -0.933695 0
M  V30 6675 O 636.437 -1.01205 -1.66096 0
M  V30 6676 C 636.72 -3.51068 0.801455 0
M  V30 6677 C 636.573 -3.86387 2.30272 0
M  V30 6678 C 637.892 -4.39186 0.283423 0
M  V30 6679 H 635.011 -0.712335 0.189072 0
M  V30 6680 H 637.653 -1.53587 1.11852 0
M  V30 6681 H 635.803 -3.87424 0.288949 0
M  V30 6682 H 637.475 -3.60012 2.88425 0
M  V30 6683 H 635.718 -3.34167 2.76613 0
M  V30 6684 H 636.389 -4.94512 2.45279 0
M  V30 6685 H 638.865 -4.09785 0.722187 0
M  V30 6686 H 637.741 -5.46505 0.512169 0
M  V30 6687 H 638.002 -4.34511 -0.815643 0
M  V30 6688 N 637.061 -0.65484 -1.43351 0
M  V30 6689 C 638.472 -0.248506 -1.85039 0
M  V30 6690 C 638.823 1.20526 -1.54816 0
M  V30 6691 O 637.948 1.92016 -0.99794 0
M  V30 6692 C 638.543 -0.444241 -3.35875 0
M  V30 6693 C 637.102 -0.0922108 -3.76287 0
M  V30 6694 C 636.249 -0.746327 -2.67068 0
M  V30 6695 H 639.2 -0.8584 -1.33481 0
M  V30 6696 H 639.221 0.309762 -3.79237 0
M  V30 6697 H 638.733 -1.50239 -3.5784 0
M  V30 6698 H 636.834 0.96328 -3.59933 0
M  V30 6699 H 636.947 -0.518807 -4.76283 0
M  V30 6700 H 635.311 -0.179416 -2.54067 0
M  V30 6701 H 636.094 -1.80754 -2.91861 0
M  V30 6702 N 638.539 1.52521 -0.396863 0
M  V30 6703 C 639.449 2.30403 0.44178 0
M  V30 6704 C 640.465 1.37625 1.06468 0
M  V30 6705 O 641.641 1.70697 1.06886 0
M  V30 6706 C 638.706 3.1013 1.54986 0
M  V30 6707 C 637.767 4.18628 0.951279 0
M  V30 6708 C 637 4.94543 2.00655 0
M  V30 6709 O 637.223 4.70629 3.22281 0
M  V30 6710 O 636.157 5.797 1.61962 0
M  V30 6711 H 639.983 3.03087 -0.192892 0
M  V30 6712 H 637.568 1.48537 -0.16038 0
M  V30 6713 H 639.45 3.59816 2.19341 0
M  V30 6714 H 638.125 2.40251 2.16935 0
M  V30 6715 H 637.032 3.73119 0.270773 0
M  V30 6716 H 638.365 4.90763 0.375887 0
M  V30 6717 N 640.017 0.126909 1.57088 0
M  V30 6718 C 641.265 -0.528123 1.95078 0
M  V30 6719 C 641.586 -1.66708 1.0116 0
M  V30 6720 O 640.856 -1.95777 0.0693527 0
M  V30 6721 H 639.436 -0.198087 0.720257 0
M  V30 6722 H 642.098 0.197703 1.93895 0
M  V30 6723 H 641.194 -0.917507 2.98309 0
M  V30 6724 N 641.495 -1.56914 -0.146875 0
M  V30 6725 C 642.425 -2.01308 -1.1831 0
M  V30 6726 C 643.406 -0.892664 -1.44795 0
M  V30 6727 O 644.591 -1.16048 -1.55713 0
M  V30 6728 C 641.721 -2.3938 -2.51624 0
M  V30 6729 C 640.675 -3.54608 -2.3966 0
M  V30 6730 C 640.001 -3.78493 -3.77686 0
M  V30 6731 C 641.301 -4.87269 -1.88058 0
M  V30 6732 H 642.995 -2.88123 -0.813964 0
M  V30 6733 H 640.541 -1.38615 -0.3901 0
M  V30 6734 H 642.494 -2.69037 -3.24341 0
M  V30 6735 H 641.218 -1.49502 -2.90373 0
M  V30 6736 H 639.877 -3.25116 -1.69396 0
M  V30 6737 H 639.525 -2.85866 -4.13871 0
M  V30 6738 H 639.225 -4.56039 -3.70543 0
M  V30 6739 H 640.749 -4.10576 -4.51951 0
M  V30 6740 H 642.163 -5.15644 -2.50568 0
M  V30 6741 H 640.56 -5.68622 -1.91805 0
M  V30 6742 H 641.63 -4.77634 -0.836277 0
M  V30 6743 N 642.974 0.416227 -1.52004 0
M  V30 6744 C 644.385 0.995319 -1.57957 0
M  V30 6745 C 644.736 1.91744 -0.415754 0
M  V30 6746 O 643.861 2.11349 0.464808 0
M  V30 6747 C 644.456 1.81191 -2.86278 0
M  V30 6748 C 643.015 2.34115 -2.94732 0
M  V30 6749 C 642.162 1.139 -2.52828 0
M  V30 6750 H 645.113 0.196716 -1.57476 0
M  V30 6751 H 645.134 2.66859 -2.71231 0
M  V30 6752 H 644.646 1.14051 -3.70963 0
M  V30 6753 H 642.747 3.04647 -2.14525 0
M  V30 6754 H 642.86 2.65466 -3.98829 0
M  V30 6755 H 641.224 1.49081 -2.06511 0
M  V30 6756 H 642.007 0.483383 -3.3988 0
M  V30 6757 N 644.452 1.42507 0.673017 0
M  V30 6758 C 645.382 1.48916 1.79851 0
M  V30 6759 C 646.363 0.345566 1.66553 0
M  V30 6760 O 647.548 0.560116 1.85947 0
M  V30 6761 C 644.678 1.39258 3.18158 0
M  V30 6762 C 643.632 2.51662 3.46194 0
M  V30 6763 C 642.958 2.27062 4.84094 0
M  V30 6764 C 644.258 3.93968 3.42909 0
M  V30 6765 H 645.952 2.43114 1.74745 0
M  V30 6766 H 643.498 1.17013 0.839288 0
M  V30 6767 H 645.451 1.42349 3.96629 0
M  V30 6768 H 644.175 0.415542 3.23946 0
M  V30 6769 H 642.834 2.47891 2.70084 0
M  V30 6770 H 642.482 1.27648 4.86534 0
M  V30 6771 H 642.182 3.02398 5.03815 0
M  V30 6772 H 643.706 2.31905 5.64847 0
M  V30 6773 H 645.12 3.99332 4.11347 0
M  V30 6774 H 643.517 4.6917 3.74165 0
M  V30 6775 H 644.587 4.20512 2.41449 0
M  V30 6776 N 645.93 -0.909495 1.28709 0
M  V30 6777 C 646.893 -1.99399 1.13016 0
M  V30 6778 C 647.893 -1.60654 0.068536 0
M  V30 6779 O 649.083 -1.71334 0.314671 0
M  V30 6780 C 646.215 -3.33078 0.726085 0
M  V30 6781 H 647.408 -2.14751 2.09338 0
M  V30 6782 H 644.961 -1.09272 1.11756 0
M  V30 6783 H 645.696 -3.23428 -0.23771 0
M  V30 6784 H 645.481 -3.62562 1.49302 0
M  V30 6785 H 646.971 -4.12681 0.639058 0
M  V30 6786 N 647.408 -1.11026 -1.11852 0
M  V30 6787 C 648.654 -0.857729 -1.83768 0
M  V30 6788 C 648.987 0.615143 -1.842 0
M  V30 6789 O 648.262 1.45391 -1.29196 0
M  V30 6790 C 648.545 -1.41453 -3.31154 0
M  V30 6791 C 648.398 -2.95471 -3.39142 0
M  V30 6792 C 649.717 -1.0619 -4.27097 0
M  V30 6793 H 646.836 -0.313044 -0.667212 0
M  V30 6794 H 649.478 -1.37443 -1.31185 0
M  V30 6795 H 647.628 -0.975052 -3.76065 0
M  V30 6796 H 649.3 -3.4799 -3.02821 0
M  V30 6797 H 647.543 -3.31759 -2.79497 0
M  V30 6798 H 648.214 -3.29515 -4.42859 0
M  V30 6799 H 650.69 -1.44122 -3.90344 0
M  V30 6800 H 649.566 -1.47832 -5.28618 0
M  V30 6801 H 649.827 0.0278912 -4.42091 0
M  V30 6802 N 648.886 1.2938 -0.899927 0
M  V30 6803 C 650.114 1.99691 -0.541386 0
M  V30 6804 C 650.529 1.67355 0.873936 0
M  V30 6805 O 649.886 0.918728 1.57688 0
M  V30 6806 C 649.937 3.54168 -0.72438 0
M  V30 6807 O 649.658 3.85359 -2.08399 0
M  V30 6808 C 651.159 4.41746 -0.370819 0
M  V30 6809 H 648.379 0.638037 -0.207726 0
M  V30 6810 H 650.923 1.6491 -1.20934 0
M  V30 6811 H 649.078 3.87261 -0.103607 0
M  V30 6812 H 649.492 4.80032 -2.11352 0
M  V30 6813 H 650.966 5.49256 -0.549693 0
M  V30 6814 H 651.443 4.33712 0.692148 0
M  V30 6815 H 652.049 4.14125 -0.968543 0
M  V30 6816 N 650.364 0.662433 1.43002 0
M  V30 6817 C 651.613 0.176873 2.00923 0
M  V30 6818 C 651.926 -1.21954 1.52927 0
M  V30 6819 O 653.132 -1.80081 2.03182 0
M  V30 6820 C 651.588 0.265379 3.5892 0
M  V30 6821 C 651.196 1.66507 4.15908 0
M  V30 6822 C 652.94 -0.162103 4.2419 0
M  V30 6823 C 650.847 1.707 5.66229 0
M  V30 6824 H 649.777 0.0623627 0.751417 0
M  V30 6825 H 652.428 0.825813 1.63868 0
M  V30 6826 H 650.81 -0.451235 3.93421 0
M  V30 6827 H 651.984 2.40777 3.92891 0
M  V30 6828 H 650.299 2.03932 3.63044 0
M  V30 6829 H 652.896 -0.150745 5.34487 0
M  V30 6830 H 653.239 -1.19519 3.98774 0
M  V30 6831 H 653.772 0.503075 3.94606 0
M  V30 6832 H 650.511 2.7195 5.96426 0
M  V30 6833 H 650.031 1.00768 5.91275 0
M  V30 6834 H 651.71 1.45487 6.3043 0
M  V30 6835 N 651.842 -1.52309 0.404946 0
M  V30 6836 C 653.067 -2.06666 -0.1743 0
M  V30 6837 C 653.492 -1.27341 -1.38441 0
M  V30 6838 O 652.85 -0.302539 -1.78758 0
M  V30 6839 C 652.898 -3.57014 -0.507262 0
M  V30 6840 O 652.002 -3.80144 -1.59889 0
M  V30 6841 H 651.343 -0.663807 -0.0160273 0
M  V30 6842 H 653.873 -1.96297 0.576937 0
M  V30 6843 H 653.883 -4.00724 -0.767098 0
M  V30 6844 H 652.558 -4.14184 0.377368 0
M  V30 6845 H 651.135 -3.48316 -1.33155 0
M  V30 6846 N 653.32 -0.135238 -1.57019 0
M  V30 6847 C 654.25 0.805235 -2.19176 0
M  V30 6848 C 655.231 1.2656 -1.13651 0
M  V30 6849 O 656.416 1.32528 -1.4195 0
M  V30 6850 C 653.546 2.04914 -2.80406 0
M  V30 6851 C 652.5 1.72598 -3.91655 0
M  V30 6852 C 651.826 3.04154 -4.39766 0
M  V30 6853 C 653.126 0.981709 -5.12991 0
M  V30 6854 H 654.82 0.287232 -2.98019 0
M  V30 6855 H 652.366 0.136714 -1.4335 0
M  V30 6856 H 654.319 2.71178 -3.22553 0
M  V30 6857 H 653.043 2.59067 -1.98877 0
M  V30 6858 H 651.702 1.08717 -3.50109 0
M  V30 6859 H 651.35 3.56274 -3.55075 0
M  V30 6860 H 651.05 2.83299 -5.14796 0
M  V30 6861 H 652.574 3.71509 -4.84576 0
M  V30 6862 H 653.988 1.5462 -5.52056 0
M  V30 6863 H 652.385 0.873533 -5.93708 0
M  V30 6864 H 653.455 -0.0286887 -4.84892 0
M  V30 6865 N 654.798 1.5699 0.138552 0
M  V30 6866 C 655.761 1.97984 1.15478 0
M  V30 6867 C 656.761 0.867416 1.35398 0
M  V30 6868 O 657.951 1.13387 1.32246 0
M  V30 6869 C 655.083 2.3031 2.51337 0
M  V30 6870 H 656.276 2.88953 0.802896 0
M  V30 6871 H 653.829 1.51555 0.382189 0
M  V30 6872 H 654.564 1.42159 2.91481 0
M  V30 6873 H 654.349 3.11425 2.38237 0
M  V30 6874 H 655.839 2.62834 3.24512 0
M  V30 6875 N 656.276 -0.40816 1.52223 0
M  V30 6876 C 657.506 -1.17501 1.69932 0
M  V30 6877 C 657.914 -1.84729 0.408874 0
M  V30 6878 O 657.257 -1.7274 -0.625025 0
M  V30 6879 C 657.319 -2.27994 2.77955 0
M  V30 6880 C 656.983 -1.80894 4.19674 0
M  V30 6881 C 657.98 -1.29618 5.03483 0
M  V30 6882 C 655.665 -1.87698 4.65913 0
M  V30 6883 C 657.659 -0.857695 6.31603 0
M  V30 6884 C 655.346 -1.43461 5.94022 0
M  V30 6885 C 656.344 -0.925822 6.76696 0
M  V30 6886 O 656.032 -0.489841 8.02406 0
M  V30 6887 H 655.764 -0.359065 0.572755 0
M  V30 6888 H 658.318 -0.486188 1.99563 0
M  V30 6889 H 656.548 -3.00243 2.43703 0
M  V30 6890 H 658.237 -2.89749 2.84254 0
M  V30 6891 H 659.003 -1.23733 4.68951 0
M  V30 6892 H 654.882 -2.26244 4.01665 0
M  V30 6893 H 658.426 -0.459879 6.96083 0
M  V30 6894 H 654.323 -1.49026 6.28062 0
M  V30 6895 H 655.091 -0.613062 8.16201 0
M  V30 6896 N 657.755 -1.42862 -0.66545 0
M  V30 6897 C 658.98 -1.47456 -1.45848 0
M  V30 6898 C 659.405 -0.0900312 -1.87884 0
M  V30 6899 O 658.763 0.913587 -1.56599 0
M  V30 6900 C 658.811 -2.41514 -2.67774 0
M  V30 6901 O 657.915 -1.89296 -3.66389 0
M  V30 6902 H 657.256 -0.499236 -0.437789 0
M  V30 6903 H 659.786 -1.8765 -0.815394 0
M  V30 6904 H 659.796 -2.58409 -3.15735 0
M  V30 6905 H 658.471 -3.42099 -2.36519 0
M  V30 6906 H 657.048 -1.82003 -3.25468 0
M  V30 6907 N 659.233 0.902656 -1.29189 0
M  V30 6908 C 660.479 1.65532 -1.17163 0
M  V30 6909 C 660.812 1.92216 0.276879 0
M  V30 6910 O 660.087 1.53048 1.20027 0
M  V30 6911 C 660.37 3.00629 -1.98228 0
M  V30 6912 C 660.223 2.81029 -3.51202 0
M  V30 6913 C 661.542 4.01321 -1.80635 0
M  V30 6914 H 658.661 0.60071 -0.426985 0
M  V30 6915 H 661.303 1.04578 -1.5863 0
M  V30 6916 H 659.453 3.52656 -1.62991 0
M  V30 6917 H 661.125 2.35927 -3.96404 0
M  V30 6918 H 659.368 2.1587 -3.76275 0
M  V30 6919 H 660.039 3.77014 -4.03192 0
M  V30 6920 H 662.515 3.58394 -2.11406 0
M  V30 6921 H 661.391 4.93792 -2.3971 0
M  V30 6922 H 661.652 4.35505 -0.760754 0
M  V30 6923 N 660.711 1.11618 1.11262 0
M  V30 6924 C 661.658 0.7762 2.17356 0
M  V30 6925 C 662.628 -0.253152 1.6416 0
M  V30 6926 O 663.813 -0.129655 1.90359 0
M  V30 6927 C 660.953 0.227581 3.44349 0
M  V30 6928 C 660.066 1.31372 4.1154 0
M  V30 6929 C 659.201 0.72544 5.26223 0
M  V30 6930 C 658.24 1.7913 5.85302 0
M  V30 6931 N 657.377 1.22237 6.91377 0
M  V30 6932 H 662.217 1.68508 2.45783 0
M  V30 6933 H 659.754 0.841475 1.20655 0
M  V30 6934 H 661.712 -0.108483 4.17059 0
M  V30 6935 H 660.342 -0.644486 3.16301 0
M  V30 6936 H 659.394 1.7667 3.36885 0
M  V30 6937 H 660.706 2.12005 4.51504 0
M  V30 6938 H 659.86 0.339541 6.05749 0
M  V30 6939 H 658.599 -0.112188 4.87571 0
M  V30 6940 H 657.604 2.18648 5.04453 0
M  V30 6941 H 658.829 2.63199 6.26022 0
M  V30 6942 H 656.775 0.406423 6.5474 0
M  V30 6943 H 656.692 1.9654 7.30006 0
M  V30 6944 H 657.96 0.863426 7.74703 0
M  V30 6945 N 662.189 -1.289 0.906776 0
M  V30 6946 C 663.136 -2.2751 0.388313 0
M  V30 6947 C 664.106 -1.57301 -0.533439 0
M  V30 6948 O 665.291 -1.85243 -0.457148 0
M  V30 6949 C 662.431 -3.43091 -0.37181 0
M  V30 6950 C 661.544 -4.28066 0.581647 0
M  V30 6951 C 660.679 -5.30837 -0.19623 0
M  V30 6952 C 659.718 -6.07472 0.751294 0
M  V30 6953 N 658.855 -7.021 0.00737727 0
M  V30 6954 H 663.695 -2.71237 1.23428 0
M  V30 6955 H 661.232 -1.33397 0.619962 0
M  V30 6956 H 663.19 -4.08888 -0.828641 0
M  V30 6957 H 661.82 -3.00374 -1.18218 0
M  V30 6958 H 660.872 -3.62378 1.157 0
M  V30 6959 H 662.184 -4.81382 1.30665 0
M  V30 6960 H 661.338 -6.02485 -0.71394 0
M  V30 6961 H 660.077 -4.78272 -0.954324 0
M  V30 6962 H 659.082 -5.34682 1.28044 0
M  V30 6963 H 660.307 -6.62126 1.50883 0
M  V30 6964 H 658.253 -6.51894 -0.732854 0
M  V30 6965 H 658.17 -7.53004 0.672334 0
M  V30 6966 H 659.438 -7.77956 -0.490365 0
M  V30 6967 N 663.667 -0.670007 -1.42649 0
M  V30 6968 C 664.6 0.0613623 -2.28117 0
M  V30 6969 C 665.578 0.813414 -1.40792 0
M  V30 6970 O 666.762 0.809529 -1.70232 0
M  V30 6971 C 663.889 1.09399 -3.20546 0
M  V30 6972 C 662.935 0.438064 -4.24244 0
M  V30 6973 S 663.768 -0.800808 -5.29478 0
M  V30 6974 C 664.924 0.23086 -6.25474 0
M  V30 6975 H 665.157 -0.663606 -2.89799 0
M  V30 6976 H 662.69 -0.45939 -1.47407 0
M  V30 6977 H 664.648 1.68469 -3.74337 0
M  V30 6978 H 663.309 1.79137 -2.58009 0
M  V30 6979 H 662.502 1.21707 -4.89084 0
M  V30 6980 H 662.104 -0.0789346 -3.73917 0
M  V30 6981 H 664.396 1.09204 -6.68641 0
M  V30 6982 H 665.339 -0.382945 -7.07064 0
M  V30 6983 H 665.747 0.574191 -5.61572 0
M  V30 6984 N 665.145 1.52092 -0.413018 0
M  V30 6985 C 666.078 2.23613 0.455234 0
M  V30 6986 C 667.056 1.2459 1.04481 0
M  V30 6987 O 668.24 1.53653 1.09193 0
M  V30 6988 C 665.367 2.96775 1.63224 0
M  V30 6989 C 664.413 4.10261 1.16568 0
M  V30 6990 S 665.246 5.35348 0.127633 0
M  V30 6991 C 666.402 6.1204 1.30987 0
M  V30 6992 H 666.635 2.96911 -0.152042 0
M  V30 6993 H 664.168 1.53134 -0.197343 0
M  V30 6994 H 666.126 3.39532 2.30713 0
M  V30 6995 H 664.787 2.23113 2.21087 0
M  V30 6996 H 663.98 4.6064 2.04515 0
M  V30 6997 H 663.582 3.6964 0.569386 0
M  V30 6998 H 665.874 6.39651 2.23276 0
M  V30 6999 H 666.817 7.03022 0.846533 0
M  V30 7000 H 667.225 5.43161 1.53743 0
M  V30 7001 N 666.623 0.143563 1.56945 0
M  V30 7002 C 667.57 -0.797433 2.16586 0
M  V30 7003 C 668.54 -1.24654 1.09775 0
M  V30 7004 O 669.725 -1.31968 1.37801 0
M  V30 7005 C 666.865 -2.03253 2.78895 0
M  V30 7006 C 665.978 -1.62954 4.00087 0
M  V30 7007 C 665.113 -2.81617 4.50406 0
M  V30 7008 C 664.152 -2.37675 5.64072 0
M  V30 7009 N 663.289 -3.49335 6.09023 0
M  V30 7010 H 668.129 -0.282023 2.96662 0
M  V30 7011 H 665.666 -0.127494 1.46546 0
M  V30 7012 H 667.624 -2.75653 3.13163 0
M  V30 7013 H 666.254 -2.52211 2.01469 0
M  V30 7014 H 665.306 -0.803322 3.71821 0
M  V30 7015 H 666.618 -1.26679 4.82446 0
M  V30 7016 H 665.772 -3.62212 4.86711 0
M  V30 7017 H 664.511 -3.21134 3.67048 0
M  V30 7018 H 663.516 -1.55519 5.27346 0
M  V30 7019 H 664.741 -1.99247 6.49213 0
M  V30 7020 H 662.687 -3.8848 5.28601 0
M  V30 7021 H 662.604 -3.17064 6.86299 0
M  V30 7022 H 663.872 -4.30297 6.49973 0
M  V30 7023 N 668.101 -1.57061 -0.130224 0
M  V30 7024 C 669.378 -1.75205 -0.869631 0
M  V30 7025 C 669.758 -0.716063 -1.98584 0
M  V30 7026 O 669.106 0.262032 -2.26993 0
M  V30 7027 C 669.316 -3.19835 -1.39666 0
M  V30 7028 C 670.664 -3.82011 -1.85345 0
M  V30 7029 O 671.688 -3.23368 -1.49371 0
M  V30 7030 O 670.547 -4.85064 -2.51744 0
M  V30 7031 H 667.641 -0.716977 -0.412157 0
M  V30 7032 H 670.187 -1.69311 -0.11484 0
M  V30 7033 H 668.959 -3.86745 -0.595288 0
M  V30 7034 H 668.582 -3.30222 -2.21448 0
M  V30 7035 N 669.579 0.400081 -1.52437 0
M  V30 7036 C 670.527 1.50851 -1.7705 0
M  V30 7037 C 671.521 1.56928 -0.637969 0
M  V30 7038 O 672.727 1.60226 -0.820212 0
M  V30 7039 H 669.102 0.50186 -0.560036 0
M  V30 7040 H 671.073 1.27281 -2.69893 0
M  V30 7041 C 669.822 2.88117 -1.94638 0
M  V30 7042 H 669.145 2.84187 -2.81208 0
M  V30 7043 H 670.585 3.64942 -2.15855 0
M  V30 7044 C 669.044 3.29206 -0.715899 0
M  V30 7045 O 669.574 4.01544 0.111944 0
M  V30 7046 N 667.78 2.85363 -0.549191 0
M  V30 7047 H 667.327 2.26664 -1.22397 0
M  V30 7048 H 667.285 3.13214 0.27278 0
M  V30 7049 N 671.057 1.43213 0.657864 0
M  V30 7050 C 672.005 1.48271 1.79216 0
M  V30 7051 C 672.999 0.35675 1.65601 0
M  V30 7052 O 674.205 0.530535 1.72004 0
M  V30 7053 H 670.58 0.464729 0.591211 0
M  V30 7054 H 672.551 2.43792 1.7207 0
M  V30 7055 C 671.3 1.41837 3.17455 0
M  V30 7056 H 670.623 2.27781 3.28567 0
M  V30 7057 H 672.063 1.49438 3.96793 0
M  V30 7058 C 670.522 0.135347 3.36628 0
M  V30 7059 O 671.052 -0.805199 3.93547 0
M  V30 7060 N 669.258 0.0470316 2.90562 0
M  V30 7061 H 668.805 0.813221 2.44427 0
M  V30 7062 H 668.763 -0.810737 3.03767 0
M  V30 7063 N 672.536 -0.895792 1.29666 0
M  V30 7064 C 673.466 -2.01673 1.17688 0
M  V30 7065 C 674.447 -1.69955 0.0701317 0
M  V30 7066 O 675.632 -1.9258 0.250289 0
M  V30 7067 C 672.762 -3.36568 0.856681 0
M  V30 7068 C 671.716 -3.82509 1.92017 0
M  V30 7069 C 671.042 -5.14574 1.4532 0
M  V30 7070 C 672.342 -4.02409 3.32963 0
M  V30 7071 H 674.036 -2.11953 2.11463 0
M  V30 7072 H 671.582 -1.01839 1.01807 0
M  V30 7073 H 673.535 -4.14498 0.759577 0
M  V30 7074 H 672.259 -3.26391 -0.116763 0
M  V30 7075 H 670.918 -3.068 2.00673 0
M  V30 7076 H 670.566 -5.00815 0.468325 0
M  V30 7077 H 670.266 -5.46283 2.16447 0
M  V30 7078 H 671.79 -5.9504 1.36968 0
M  V30 7079 H 673.204 -4.70808 3.27127 0
M  V30 7080 H 671.601 -4.45478 4.02082 0
M  V30 7081 H 672.671 -3.06616 3.75652 0
M  V30 7082 N 674.014 -1.12206 -1.10668 0
M  V30 7083 C 675.26 -0.877172 -1.82848 0
M  V30 7084 C 675.593 0.595571 -1.84842 0
M  V30 7085 O 674.868 1.44013 -1.30731 0
M  V30 7086 C 675.151 -1.44957 -3.29635 0
M  V30 7087 C 675.004 -2.99051 -3.35989 0
M  V30 7088 C 676.323 -1.10714 -4.25946 0
M  V30 7089 H 673.442 -0.320103 -0.663854 0
M  V30 7090 H 676.084 -1.38827 -1.2972 0
M  V30 7091 H 674.234 -1.01488 -3.7501 0
M  V30 7092 H 675.906 -3.51182 -2.99113 0
M  V30 7093 H 674.149 -3.34705 -2.75962 0
M  V30 7094 H 674.82 -3.34194 -4.39339 0
M  V30 7095 H 677.296 -1.48254 -3.88793 0
M  V30 7096 H 676.172 -1.5343 -5.2702 0
M  V30 7097 H 676.433 -0.019 -4.42096 0
M  V30 7098 N 675.492 1.28418 -0.913599 0
M  V30 7099 C 676.908 1.47411 -0.611728 0
M  V30 7100 C 677.108 1.83018 0.843008 0
M  V30 7101 O 676.164 1.93505 1.6221 0
M  V30 7102 C 677.477 2.57703 -1.5495 0
M  V30 7103 C 679.025 2.71572 -1.5562 0
M  V30 7104 C 679.5 3.85008 -2.48058 0
M  V30 7105 N 680.991 3.92361 -2.46184 0
M  V30 7106 C 681.726 4.79516 -3.14407 0
M  V30 7107 N 681.222 5.71262 -3.91958 0
M  V30 7108 N 683.015 4.73125 -3.03495 0
M  V30 7109 H 675.166 1.03585 -1.85429 0
M  V30 7110 H 677.429 0.515907 -0.795326 0
M  V30 7111 H 677.135 2.38298 -2.58663 0
M  V30 7112 H 677.009 3.54801 -1.28048 0
M  V30 7113 H 679.396 2.90366 -0.526441 0
M  V30 7114 H 679.477 1.75006 -1.86565 0
M  V30 7115 H 679.121 3.66969 -3.51136 0
M  V30 7116 H 679.051 4.80971 -2.14416 0
M  V30 7117 H 681.542 3.26749 -1.89851 0
M  V30 7118 H 681.855 6.34593 -4.41034 0
M  V30 7119 H 680.2 5.71103 -3.96063 0
M  V30 7120 H 683.391 4.00442 -2.42413 0
M  V30 7121 H 683.564 5.40834 -3.56935 0
M  V30 7122 N 676.97 0.677563 1.42291 0
M  V30 7123 C 677.92 -0.0218641 2.2799 0
M  V30 7124 C 678.904 -0.770816 1.41235 0
M  V30 7125 O 680.096 -0.649273 1.64662 0
M  V30 7126 C 677.225 -0.970449 3.29298 0
M  V30 7127 C 676.311 -0.218695 4.23536 0
M  V30 7128 N 676.702 0.777908 4.99782 0
M  V30 7129 C 675 -0.456748 4.43655 0
M  V30 7130 C 675.701 1.22632 5.68627 0
M  V30 7131 N 674.677 0.55573 5.40752 0
M  V30 7132 H 678.479 0.742516 2.84366 0
M  V30 7133 H 675.993 0.506862 1.54288 0
M  V30 7134 H 677.99 -1.48652 3.89497 0
M  V30 7135 H 676.65 -1.73463 2.74483 0
M  V30 7136 H 677.661 1.15754 5.04798 0
M  V30 7137 H 674.338 -1.20021 3.99877 0
M  V30 7138 H 675.728 2.05231 6.39789 0
M  V30 7139 N 678.448 -1.51871 0.421078 0
M  V30 7140 C 679.378 -2.30231 -0.389363 0
M  V30 7141 C 680.359 -1.34946 -1.03555 0
M  V30 7142 O 681.544 -1.63859 -1.04229 0
M  V30 7143 C 678.674 -3.13247 -1.49979 0
M  V30 7144 C 677.628 -4.16677 -0.977966 0
M  V30 7145 C 676.954 -4.88112 -2.1829 0
M  V30 7146 C 678.254 -5.22295 -0.0236775 0
M  V30 7147 H 679.948 -2.98229 0.264524 0
M  V30 7148 H 677.494 -1.43424 0.12866 0
M  V30 7149 H 679.447 -3.66838 -2.07383 0
M  V30 7150 H 678.171 -2.4304 -2.18173 0
M  V30 7151 H 676.83 -3.64114 -0.426245 0
M  V30 7152 H 676.478 -4.14423 -2.85066 0
M  V30 7153 H 676.178 -5.58041 -1.84021 0
M  V30 7154 H 677.702 -5.44521 -2.76278 0
M  V30 7155 H 679.116 -5.71055 -0.506899 0
M  V30 7156 H 677.513 -5.99656 0.230782 0
M  V30 7157 H 678.583 -4.76131 0.917999 0
M  V30 7158 N 679.926 -0.151884 -1.56866 0
M  V30 7159 C 681.203 0.543328 -1.87902 0
M  V30 7160 C 681.583 1.82636 -1.05864 0
M  V30 7161 O 680.931 2.28028 -0.146868 0
M  V30 7162 C 681.141 0.804056 -3.39611 0
M  V30 7163 C 682.489 1.14267 -4.08935 0
M  V30 7164 O 683.513 0.893248 -3.44818 0
M  V30 7165 O 682.372 1.61229 -5.22176 0
M  V30 7166 H 679.466 0.277724 -0.778973 0
M  V30 7167 H 682.012 -0.188862 -1.68646 0
M  V30 7168 H 680.784 -0.103772 -3.91162 0
M  V30 7169 H 680.407 1.59025 -3.64413 0
M  V30 7170 N 681.404 1.57128 0.121893 0
M  V30 7171 C 682.367 1.99197 1.13372 0
M  V30 7172 C 683.367 0.881728 1.3447 0
M  V30 7173 O 684.557 1.14783 1.31036 0
M  V30 7174 C 681.689 2.32963 2.4888 0
M  V30 7175 H 682.882 2.89788 0.772204 0
M  V30 7176 H 680.435 1.51952 0.366093 0
M  V30 7177 H 681.17 1.45243 2.89957 0
M  V30 7178 H 680.955 3.13934 2.34921 0
M  V30 7179 H 682.445 2.66261 3.21706 0
M  V30 7180 N 682.882 -0.391992 1.52647 0
M  V30 7181 C 684.122 -1.1463 1.69232 0
M  V30 7182 C 684.486 -1.87312 0.421684 0
M  V30 7183 O 685.687 -2.64768 0.463852 0
M  V30 7184 C 683.958 -2.10088 2.89133 0
M  V30 7185 S 685.517 -2.93395 3.2629 0
M  V30 7186 H 682.335 -0.388076 0.59575 0
M  V30 7187 H 684.937 -0.431149 1.90687 0
M  V30 7188 H 683.641 -1.55408 3.79837 0
M  V30 7189 H 683.172 -2.86116 2.70003 0
M  V30 7190 H 685.187 -4.12193 2.76244 0
M  V30 7191 N 684.36 -1.4356 -0.65026 0
M  V30 7192 C 685.27 -1.514 -1.79207 0
M  V30 7193 C 686.286 -0.400895 -1.69319 0
M  V30 7194 O 687.462 -0.655458 -1.90436 0
M  V30 7195 C 684.527 -1.43737 -3.155 0
M  V30 7196 C 683.588 -2.65743 -3.37163 0
M  V30 7197 C 682.821 -2.58436 -4.66954 0
M  V30 7198 O 683.044 -1.63374 -5.46503 0
M  V30 7199 O 681.978 -3.48984 -4.90402 0
M  V30 7200 H 685.804 -2.47825 -1.75547 0
M  V30 7201 H 683.389 -1.25594 -0.809111 0
M  V30 7202 H 685.271 -1.41916 -3.96784 0
M  V30 7203 H 683.946 -0.504488 -3.19745 0
M  V30 7204 H 682.853 -2.73136 -2.55632 0
M  V30 7205 H 684.186 -3.58014 -3.37768 0
M  V30 7206 N 685.838 0.888903 -1.30139 0
M  V30 7207 C 687.066 1.67358 -1.21651 0
M  V30 7208 C 687.481 1.87499 0.221246 0
M  V30 7209 O 686.838 1.41969 1.14677 0
M  V30 7210 C 686.889 3.05213 -1.93719 0
M  V30 7211 O 686.61 2.85984 -3.31881 0
M  V30 7212 C 688.111 3.9964 -1.9184 0
M  V30 7213 H 685.331 0.522365 -0.42116 0
M  V30 7214 H 687.875 1.11086 -1.71698 0
M  V30 7215 H 686.03 3.5823 -1.4748 0
M  V30 7216 H 686.444 3.73411 -3.68327 0
M  V30 7217 H 687.918 4.93749 -2.46811 0
M  V30 7218 H 688.395 4.29955 -0.896409 0
M  V30 7219 H 689.001 3.52558 -2.37872 0
M  V30 7220 N 687.317 1.12792 1.10072 0
M  V30 7221 C 688.25 0.742921 2.15768 0
M  V30 7222 C 689.228 -0.267714 1.60381 0
M  V30 7223 O 690.412 -0.160782 1.87813 0
M  V30 7224 C 687.539 0.100244 3.38552 0
M  V30 7225 C 686.585 1.07831 4.12644 0
M  V30 7226 S 687.418 2.60765 4.6772 0
M  V30 7227 C 688.574 1.97838 5.9381 0
M  V30 7228 H 688.807 1.63822 2.48092 0
M  V30 7229 H 686.34 0.947385 1.21918 0
M  V30 7230 H 688.298 -0.264175 4.09649 0
M  V30 7231 H 686.959 -0.772223 3.04459 0
M  V30 7232 H 686.152 0.576325 5.00694 0
M  V30 7233 H 685.754 1.38586 3.47376 0
M  V30 7234 H 688.046 1.32341 6.64449 0
M  V30 7235 H 688.989 2.83943 6.48677 0
M  V30 7236 H 689.397 1.43267 5.46017 0
M  V30 7237 N 688.795 -1.27931 0.920396 0
M  V30 7238 C 690.043 -1.94304 0.555906 0
M  V30 7239 C 690.364 -1.72753 -0.904519 0
M  V30 7240 O 689.634 -1.07104 -1.64029 0
M  V30 7241 H 688.214 -0.719001 0.202599 0
M  V30 7242 H 690.876 -1.55785 1.1712 0
M  V30 7243 H 689.972 -3.02806 0.755981 0
M  V30 7244 N 690.273 -0.685099 -1.4193 0
M  V30 7245 C 691.221 -0.00165985 -2.326 0
M  V30 7246 C 692.215 0.779678 -1.50391 0
M  V30 7247 O 693.421 0.68648 -1.66395 0
M  V30 7248 H 689.796 0.0182616 -0.751778 0
M  V30 7249 H 691.767 -0.783592 -2.87928 0
M  V30 7250 C 690.516 0.928385 -3.35077 0
M  V30 7251 H 689.839 0.336578 -3.98381 0
M  V30 7252 H 691.279 1.37509 -4.01083 0
M  V30 7253 C 689.738 2.03964 -2.68142 0
M  V30 7254 O 690.268 3.12727 -2.5212 0
M  V30 7255 N 688.474 1.81433 -2.27003 0
M  V30 7256 H 688.021 0.929807 -2.40234 0
M  V30 7257 H 687.979 2.55973 -1.82552 0
M  V30 7258 N 691.751 1.51645 -0.429126 0
M  V30 7259 C 692.714 2.26116 0.374726 0
M  V30 7260 C 693.714 1.29242 0.956714 0
M  V30 7261 O 694.904 1.53022 0.832452 0
M  V30 7262 C 692.036 3.04669 1.52937 0
M  V30 7263 H 693.229 2.9861 -0.277818 0
M  V30 7264 H 690.782 1.55236 -0.182097 0
M  V30 7265 H 691.517 2.36571 2.21821 0
M  V30 7266 H 691.302 3.75814 1.11833 0
M  V30 7267 H 692.792 3.61102 2.09751 0
M  V30 7268 N 693.229 0.160201 1.56784 0
M  V30 7269 C 694.457 -0.494165 2.00912 0
M  V30 7270 C 694.872 -1.57548 1.04038 0
M  V30 7271 O 694.229 -1.82457 0.0394581 0
M  V30 7272 C 694.28 -1.08271 3.44905 0
M  V30 7273 O 694.001 -0.0445704 4.38077 0
M  V30 7274 C 695.502 -1.8164 4.04378 0
M  V30 7275 H 692.722 -0.127498 0.658776 0
M  V30 7276 H 695.266 0.258665 2.02858 0
M  V30 7277 H 693.421 -1.78609 3.4377 0
M  V30 7278 H 693.835 -0.477544 5.22322 0
M  V30 7279 H 695.309 -2.18094 5.07089 0
M  V30 7280 H 695.786 -2.70727 3.45838 0
M  V30 7281 H 696.392 -1.15969 4.09184 0
M  V30 7282 N 694.707 -1.5719 -0.113559 0
M  V30 7283 C 695.67 -1.99796 -1.12314 0
M  V30 7284 C 696.67 -0.888847 -1.34001 0
M  V30 7285 O 697.86 -1.15476 -1.30426 0
M  V30 7286 C 694.992 -2.34279 -2.47641 0
M  V30 7287 H 696.185 -2.90193 -0.756825 0
M  V30 7288 H 693.738 -1.52144 -0.358029 0
M  V30 7289 H 694.473 -1.46778 -2.89183 0
M  V30 7290 H 694.258 -3.15175 -2.33253 0
M  V30 7291 H 695.748 -2.67963 -3.2029 0
M  V30 7292 N 696.185 0.383891 -1.52853 0
M  V30 7293 C 697.434 1.12563 -1.67369 0
M  V30 7294 C 697.747 1.90982 -0.422533 0
M  V30 7295 O 698.953 2.6778 -0.447914 0
M  V30 7296 C 697.409 2.05011 -2.95801 0
M  V30 7297 C 697.017 1.31991 -4.28115 0
M  V30 7298 C 698.761 2.79289 -3.19684 0
M  V30 7299 C 696.668 2.23235 -5.4765 0
M  V30 7300 H 695.598 0.42391 -0.623552 0
M  V30 7301 H 698.249 0.388016 -1.79351 0
M  V30 7302 H 696.631 2.82429 -2.77578 0
M  V30 7303 H 697.805 0.597633 -4.56908 0
M  V30 7304 H 696.12 0.696517 -4.10533 0
M  V30 7305 H 698.717 3.47749 -4.06171 0
M  V30 7306 H 699.06 3.43649 -2.3497 0
M  V30 7307 H 699.593 2.08962 -3.38496 0
M  V30 7308 H 696.332 1.63482 -6.34786 0
M  V30 7309 H 695.852 2.93364 -5.23161 0
M  V30 7310 H 697.531 2.83205 -5.81725 0
M  V30 7311 N 697.663 1.43903 0.642637 0
M  V30 7312 C 698.903 1.47591 1.41408 0
M  V30 7313 C 699.267 0.101313 1.91733 0
M  V30 7314 O 700.468 0.0128797 2.68797 0
M  V30 7315 C 698.739 2.4977 2.55636 0
M  V30 7316 S 700.298 2.72417 3.43998 0
M  V30 7317 H 697.116 0.522163 0.482563 0
M  V30 7318 H 699.718 1.80745 0.745085 0
M  V30 7319 H 698.422 3.48365 2.16956 0
M  V30 7320 H 697.953 2.1815 3.27375 0
M  V30 7321 H 699.968 2.03142 4.52712 0
M  V30 7322 N 699.141 -0.881989 1.30609 0
M  V30 7323 C 700.366 -1.67236 1.22665 0
M  V30 7324 C 700.791 -1.8696 -0.206777 0
M  V30 7325 O 700.149 -1.4027 -1.14865 0
M  V30 7326 C 700.197 -3.02446 1.96363 0
M  V30 7327 O 699.301 -3.91614 1.29276 0
M  V30 7328 H 698.642 -0.510902 0.424117 0
M  V30 7329 H 701.172 -1.10055 1.72479 0
M  V30 7330 H 701.182 -3.52468 2.055 0
M  V30 7331 H 699.857 -2.8741 3.00613 0
M  V30 7332 H 698.434 -3.50055 1.28514 0
M  V30 7333 N 700.619 -1.13374 -1.09472 0
M  V30 7334 C 701.896 -0.806329 -1.78207 0
M  V30 7335 C 702.276 0.702191 -1.99079 0
M  V30 7336 O 701.624 1.63931 -1.59182 0
M  V30 7337 C 701.834 -1.59271 -3.10538 0
M  V30 7338 C 703.182 -1.78509 -3.85253 0
M  V30 7339 O 704.206 -1.55866 -3.20288 0
M  V30 7340 O 703.065 -2.16287 -5.01879 0
M  V30 7341 H 700.159 -0.29435 -0.772843 0
M  V30 7342 H 702.705 -1.23833 -1.16033 0
M  V30 7343 H 701.477 -2.61792 -2.90828 0
M  V30 7344 H 701.1 -1.15562 -3.80436 0
M  V30 7345 N 702.098 1.27442 -0.927168 0
M  V30 7346 C 703.045 2.26863 -0.424459 0
M  V30 7347 C 704.015 1.5813 0.508346 0
M  V30 7348 O 705.2 1.85946 0.42762 0
M  V30 7349 C 702.34 3.43639 0.31718 0
M  V30 7350 C 701.453 4.27087 -0.649675 0
M  V30 7351 C 700.588 5.31082 0.111753 0
M  V30 7352 C 699.627 6.062 -0.847843 0
M  V30 7353 N 698.764 7.01999 -0.119074 0
M  V30 7354 H 703.604 2.69239 -1.27728 0
M  V30 7355 H 701.141 1.32394 -0.641106 0
M  V30 7356 H 703.099 4.10155 0.763486 0
M  V30 7357 H 701.729 3.02217 1.13424 0
M  V30 7358 H 700.781 3.60491 -1.21451 0
M  V30 7359 H 702.093 4.79242 -1.38307 0
M  V30 7360 H 701.247 6.03544 0.618 0
M  V30 7361 H 699.986 4.7973 0.878114 0
M  V30 7362 H 698.991 5.32577 -1.36534 0
M  V30 7363 H 700.216 6.59642 -1.61398 0
M  V30 7364 H 698.162 6.52977 0.629051 0
M  V30 7365 H 698.079 7.5184 -0.792046 0
M  V30 7366 H 699.347 7.78638 0.366537 0
M  V30 7367 N 703.576 0.692616 1.41565 0
M  V30 7368 C 704.804 0.231279 2.05603 0
M  V30 7369 C 705.219 -1.11837 1.52111 0
M  V30 7370 O 704.576 -1.6983 0.66813 0
M  V30 7371 C 704.627 0.177125 3.61066 0
M  V30 7372 O 704.348 1.47346 4.12578 0
M  V30 7373 C 705.849 -0.30556 4.42246 0
M  V30 7374 H 703.069 0.108238 0.662213 0
M  V30 7375 H 705.613 0.944369 1.81389 0
M  V30 7376 H 703.768 -0.486769 3.8433 0
M  V30 7377 H 704.182 1.35861 5.06599 0
M  V30 7378 H 705.656 -0.29233 5.51225 0
M  V30 7379 H 706.133 -1.34393 4.18133 0
M  V30 7380 H 706.739 0.327229 4.24039 0
M  V30 7381 N 705.054 -1.51416 0.437162 0
M  V30 7382 C 706.302 -2.01687 -0.129108 0
M  V30 7383 C 706.623 -1.32329 -1.43227 0
M  V30 7384 O 705.893 -0.457796 -1.90476 0
M  V30 7385 H 704.473 -0.745277 -0.0507023 0
M  V30 7386 H 707.135 -1.86075 0.579828 0
M  V30 7387 H 706.231 -3.10605 -0.305141 0
M  V30 7388 N 706.532 -0.168513 -1.56696 0
M  V30 7389 C 707.76 0.483503 -2.01171 0
M  V30 7390 C 708.175 1.56994 -1.04872 0
M  V30 7391 O 707.532 1.82434 -0.0491337 0
M  V30 7392 C 707.583 1.0644 -3.45475 0
M  V30 7393 O 707.304 0.0213375 -4.38095 0
M  V30 7394 C 708.805 1.79493 -4.05336 0
M  V30 7395 H 706.025 0.124002 -0.659443 0
M  V30 7396 H 708.569 -0.269419 -2.02717 0
M  V30 7397 H 706.724 1.76784 -3.44712 0
M  V30 7398 H 707.138 0.449837 -5.22567 0
M  V30 7399 H 708.612 2.15401 -5.08238 0
M  V30 7400 H 709.089 2.68889 -3.47269 0
M  V30 7401 H 709.695 1.13798 -4.09793 0
M  V30 7402 N 708.01 1.57248 0.105221 0
M  V30 7403 C 708.94 2.04374 1.12931 0
M  V30 7404 C 709.921 0.93074 1.42377 0
M  V30 7405 O 711.106 1.20136 1.52581 0
M  V30 7406 C 708.236 2.45967 2.45189 0
M  V30 7407 C 707.19 3.60838 2.30174 0
M  V30 7408 C 706.516 3.88374 3.67518 0
M  V30 7409 C 707.816 4.92084 1.75073 0
M  V30 7410 H 709.51 2.9018 0.737287 0
M  V30 7411 H 707.056 1.39601 0.353211 0
M  V30 7412 H 709.009 2.77542 3.17094 0
M  V30 7413 H 707.733 1.57148 2.86308 0
M  V30 7414 H 706.392 3.29493 1.60716 0
M  V30 7415 H 706.04 2.96739 4.06147 0
M  V30 7416 H 705.74 4.65703 3.58321 0
M  V30 7417 H 707.264 4.22415 4.40906 0
M  V30 7418 H 708.678 5.22106 2.36809 0
M  V30 7419 H 707.075 5.73507 1.76662 0
M  V30 7420 H 708.145 4.79684 0.709347 0
M  V30 7421 N 709.488 -0.375779 1.53054 0
M  V30 7422 C 710.716 -1.14036 1.72637 0
M  V30 7423 C 711.131 -1.83342 0.450687 0
M  V30 7424 O 710.488 -1.7318 -0.575749 0
M  V30 7425 C 710.539 -2.17841 2.88492 0
M  V30 7426 O 710.26 -1.51358 4.11123 0
M  V30 7427 C 711.761 -3.06924 3.19863 0
M  V30 7428 H 708.981 -0.341386 0.577665 0
M  V30 7429 H 711.525 -0.437809 1.99759 0
M  V30 7430 H 709.68 -2.8371 2.63794 0
M  V30 7431 H 710.094 -2.20439 4.75928 0
M  V30 7432 H 711.568 -3.75763 4.04359 0
M  V30 7433 H 712.045 -3.71169 2.34798 0
M  V30 7434 H 712.651 -2.46684 3.46449 0
M  V30 7435 N 710.966 -1.44241 -0.634997 0
M  V30 7436 C 711.899 -1.45274 -1.75985 0
M  V30 7437 C 712.877 -0.312025 -1.59578 0
M  V30 7438 O 714.061 -0.508409 -1.81514 0
M  V30 7439 C 711.188 -1.28173 -3.13511 0
M  V30 7440 C 710.234 -2.45757 -3.48576 0
M  V30 7441 S 711.067 -4.08293 -3.46492 0
M  V30 7442 C 712.223 -3.93608 -4.86645 0
M  V30 7443 H 712.456 -2.40454 -1.74841 0
M  V30 7444 H 709.989 -1.31492 -0.809268 0
M  V30 7445 H 711.947 -1.18993 -3.92875 0
M  V30 7446 H 710.608 -0.34511 -3.12198 0
M  V30 7447 H 709.801 -2.29644 -4.48642 0
M  V30 7448 H 709.403 -2.51657 -2.76667 0
M  V30 7449 H 711.695 -3.57059 -5.75774 0
M  V30 7450 H 712.638 -4.9349 -5.07813 0
M  V30 7451 H 713.046 -3.25737 -4.61038 0
M  V30 7452 N 712.444 0.87505 -1.31075 0
M  V30 7453 C 713.392 2.00317 -1.18219 0
M  V30 7454 C 714.386 1.69152 -0.0916872 0
M  V30 7455 O 715.592 1.7821 -0.253229 0
M  V30 7456 H 711.967 0.656981 -0.365895 0
M  V30 7457 H 713.938 2.08293 -2.13674 0
M  V30 7458 C 712.687 3.35821 -0.901095 0
M  V30 7459 H 712.01 3.6032 -1.73233 0
M  V30 7460 H 713.45 4.15366 -0.851295 0
M  V30 7461 C 711.909 3.34563 0.396114 0
M  V30 7462 O 712.439 3.75971 1.41452 0
M  V30 7463 N 710.645 2.87681 0.410832 0
M  V30 7464 H 710.192 2.54179 -0.418415 0
M  V30 7465 H 710.15 2.87223 1.27869 0
M  V30 7466 N 713.922 1.13953 1.08869 0
M  V30 7467 C 715.338 0.878924 1.33218 0
M  V30 7468 C 715.538 -0.482478 1.95638 0
M  V30 7469 O 714.594 -1.22778 2.2064 0
M  V30 7470 C 715.907 2.00798 2.23832 0
M  V30 7471 C 717.455 2.04073 2.37325 0
M  V30 7472 C 717.93 3.16258 3.31278 0
M  V30 7473 N 719.421 3.15805 3.38853 0
M  V30 7474 C 720.156 3.99249 4.11567 0
M  V30 7475 N 719.652 4.92721 4.87029 0
M  V30 7476 N 721.445 3.87327 4.0735 0
M  V30 7477 H 713.596 2.01645 0.66731 0
M  V30 7478 H 715.859 0.878395 0.356547 0
M  V30 7479 H 715.565 2.98986 1.85203 0
M  V30 7480 H 715.439 1.92704 3.24261 0
M  V30 7481 H 717.826 1.06495 2.75214 0
M  V30 7482 H 717.907 2.16239 1.36654 0
M  V30 7483 H 717.551 4.14079 2.9411 0
M  V30 7484 H 717.481 3.0133 4.31866 0
M  V30 7485 H 719.972 2.48102 2.8505 0
M  V30 7486 H 720.285 5.52867 5.39961 0
M  V30 7487 H 718.63 4.96723 4.86098 0
M  V30 7488 H 721.821 3.13627 3.475 0
M  V30 7489 H 721.994 4.52585 4.63757 0
M  V30 7490 N 715.4 -1.26948 0.933913 0
M  V30 7491 C 716.333 -2.24977 0.382169 0
M  V30 7492 C 717.311 -1.53893 -0.524949 0
M  V30 7493 O 718.495 -1.82699 -0.464048 0
M  V30 7494 C 715.622 -3.35676 -0.451615 0
M  V30 7495 C 714.668 -4.24686 0.392947 0
M  V30 7496 S 715.501 -5.03898 1.81237 0
M  V30 7497 C 716.657 -6.18078 0.986443 0
M  V30 7498 H 716.89 -2.71429 1.21299 0
M  V30 7499 H 714.423 -1.35701 0.736523 0
M  V30 7500 H 716.381 -3.99901 -0.926797 0
M  V30 7501 H 715.042 -2.8785 -1.25703 0
M  V30 7502 H 714.235 -5.03402 -0.245533 0
M  V30 7503 H 713.837 -3.65288 0.802537 0
M  V30 7504 H 716.129 -6.77125 0.225321 0
M  V30 7505 H 717.072 -6.86216 1.74682 0
M  V30 7506 H 717.48 -5.62047 0.525711 0
M  V30 7507 N 716.879 -0.700114 -1.41195 0
M  V30 7508 C 718.107 -0.242179 -2.05478 0
M  V30 7509 C 718.522 1.11029 -1.52702 0
M  V30 7510 O 717.879 1.69473 -0.677127 0
M  V30 7511 C 717.93 -0.196271 -3.60967 0
M  V30 7512 O 717.651 -1.49532 -4.11791 0
M  V30 7513 C 719.152 0.282102 -4.42401 0
M  V30 7514 H 716.372 -0.111749 -0.661629 0
M  V30 7515 H 718.916 -0.953975 -1.80885 0
M  V30 7516 H 717.071 0.46638 -3.84582 0
M  V30 7517 H 717.485 -1.38545 -5.05871 0
M  V30 7518 H 718.959 0.263093 -5.51373 0
M  V30 7519 H 719.436 1.32174 -4.1884 0
M  V30 7520 H 720.042 -0.349712 -4.2386 0
M  V30 7521 N 718.357 1.51182 -0.445186 0
M  V30 7522 C 719.603 2.02452 0.11882 0
M  V30 7523 C 719.936 1.32824 1.41673 0
M  V30 7524 O 719.211 0.445637 1.89326 0
M  V30 7525 C 719.494 3.5859 0.329475 0
M  V30 7526 C 719.347 4.38823 -0.987638 0
M  V30 7527 C 720.666 4.26241 1.09575 0
M  V30 7528 H 717.785 0.735819 0.0417092 0
M  V30 7529 H 720.427 1.80747 -0.585718 0
M  V30 7530 H 718.577 3.77214 0.9296 0
M  V30 7531 H 720.249 4.3183 -1.62235 0
M  V30 7532 H 718.492 4.03594 -1.59041 0
M  V30 7533 H 719.163 5.46257 -0.794192 0
M  V30 7534 H 721.639 4.11934 0.587328 0
M  V30 7535 H 720.515 5.35354 1.21191 0
M  V30 7536 H 720.776 3.87635 2.12584 0
M  V30 7537 N 719.835 0.176821 1.56605 0
M  V30 7538 C 721.081 -0.467406 1.9734 0
M  V30 7539 C 721.414 -1.62523 1.06301 0
M  V30 7540 O 720.689 -1.94182 0.11125 0
M  V30 7541 C 720.972 -0.945106 3.47476 0
M  V30 7542 C 720.825 0.213273 4.49294 0
M  V30 7543 C 722.144 -1.8169 4.00845 0
M  V30 7544 H 719.263 -0.168426 0.717497 0
M  V30 7545 H 721.905 0.264065 1.88156 0
M  V30 7546 H 720.055 -1.56841 3.55434 0
M  V30 7547 H 721.727 0.850508 4.53392 0
M  V30 7548 H 719.97 0.867918 4.25029 0
M  V30 7549 H 720.641 -0.163187 5.51759 0
M  V30 7550 H 723.117 -1.29139 3.95553 0
M  V30 7551 H 721.993 -2.12015 5.06301 0
M  V30 7552 H 722.254 -2.76463 3.44994 0
M  V30 7553 N 721.313 -1.57302 -0.09688 0
M  V30 7554 C 722.245 -1.98618 -1.14384 0
M  V30 7555 C 723.258 -0.888483 -1.36418 0
M  V30 7556 O 724.447 -1.16661 -1.35101 0
M  V30 7557 C 721.547 -2.28838 -2.49973 0
M  V30 7558 C 720.72 -3.60132 -2.48241 0
M  V30 7559 C 719.779 -3.7831 -3.65743 0
M  V30 7560 O 718.805 -4.50183 -3.48316 0
M  V30 7561 N 720.007 -3.18752 -4.85157 0
M  V30 7562 H 722.772 -2.8904 -0.792202 0
M  V30 7563 H 720.333 -1.59356 -0.285883 0
M  V30 7564 H 722.325 -2.38193 -3.27179 0
M  V30 7565 H 720.895 -1.44431 -2.77233 0
M  V30 7566 H 720.115 -3.61763 -1.56593 0
M  V30 7567 H 721.403 -4.46389 -2.4416 0
M  V30 7568 H 720.801 -2.60368 -5.0222 0
M  V30 7569 H 719.358 -3.33595 -5.59962 0
M  V30 7570 N 722.791 0.367657 -1.53252 0
M  V30 7571 C 723.754 1.43308 -1.78873 0
M  V30 7572 C 724.754 1.46671 -0.659115 0
M  V30 7573 O 725.944 1.47468 -0.927306 0
M  V30 7574 C 723.076 2.82442 -1.90892 0
M  V30 7575 H 724.269 1.21864 -2.74024 0
M  V30 7576 H 721.822 0.600668 -1.44297 0
M  V30 7577 H 722.557 3.09202 -0.978 0
M  V30 7578 H 722.342 2.81399 -2.73051 0
M  V30 7579 H 723.832 3.59601 -2.12314 0
M  V30 7580 N 724.269 1.44576 0.627338 0
M  V30 7581 C 725.499 1.50829 1.41189 0
M  V30 7582 C 725.907 0.133083 1.88731 0
M  V30 7583 O 725.25 -0.87199 1.61685 0
M  V30 7584 C 725.312 2.41449 2.66351 0
M  V30 7585 C 724.976 3.88549 2.40579 0
M  V30 7586 C 725.973 4.78981 2.0217 0
M  V30 7587 C 723.658 4.33287 2.54102 0
M  V30 7588 C 725.652 6.12153 1.77618 0
M  V30 7589 C 723.339 5.66505 2.29163 0
M  V30 7590 C 724.337 6.55756 1.9098 0
M  V30 7591 O 724.025 7.86506 1.66321 0
M  V30 7592 H 723.757 0.513797 0.439304 0
M  V30 7593 H 726.311 1.90256 0.774059 0
M  V30 7594 H 724.541 1.96955 3.32784 0
M  V30 7595 H 726.23 2.38608 3.28361 0
M  V30 7596 H 726.996 4.45689 1.91277 0
M  V30 7597 H 722.875 3.64074 2.82792 0
M  V30 7598 H 726.419 6.81776 1.47739 0
M  V30 7599 H 722.316 5.99358 2.39668 0
M  V30 7600 H 723.084 7.98341 1.80536 0
M  V30 7601 N 725.747 -0.868086 1.31537 0
M  V30 7602 C 726.996 -1.61607 1.20689 0
M  V30 7603 C 727.309 -1.94204 -0.233275 0
M  V30 7604 O 728.515 -2.67515 -0.463465 0
M  V30 7605 C 726.971 -2.91348 2.11292 0
M  V30 7606 C 726.579 -2.66227 3.60315 0
M  V30 7607 C 728.323 -3.69344 2.09249 0
M  V30 7608 C 726.23 -3.91887 4.42921 0
M  V30 7609 H 725.16 -0.606373 0.448138 0
M  V30 7610 H 727.811 -0.959666 1.56405 0
M  V30 7611 H 726.193 -3.58374 1.68477 0
M  V30 7612 H 727.367 -2.07597 4.11388 0
M  V30 7613 H 725.682 -2.01582 3.64354 0
M  V30 7614 H 728.279 -4.62567 2.68209 0
M  V30 7615 H 728.622 -4.02044 1.0801 0
M  V30 7616 H 729.155 -3.09205 2.50274 0
M  V30 7617 H 725.894 -3.64336 5.44922 0
M  V30 7618 H 725.414 -4.49961 3.96605 0
M  V30 7619 H 727.093 -4.59754 4.55231 0
M  V30 7620 N 727.225 -1.14528 -1.08264 0
M  V30 7621 C 728.173 -0.829201 -2.17318 0
M  V30 7622 C 729.167 0.193521 -1.68291 0
M  V30 7623 O 730.373 0.0494744 -1.79932 0
M  V30 7624 H 726.748 -0.250435 -0.709074 0
M  V30 7625 H 728.719 -1.75683 -2.41201 0
M  V30 7626 C 727.468 -0.324663 -3.46181 0
M  V30 7627 H 726.791 -1.10299 -3.84284 0
M  V30 7628 H 728.231 -0.142059 -4.23762 0
M  V30 7629 C 726.69 0.952033 -3.23169 0
M  V30 7630 O 727.22 2.02549 -3.46896 0
M  V30 7631 N 725.426 0.887854 -2.76705 0
M  V30 7632 H 724.973 0.0141402 -2.57596 0
M  V30 7633 H 724.931 1.74263 -2.61686 0
M  V30 7634 N 728.703 1.26451 -0.940633 0
M  V30 7635 C 729.613 2.30128 -0.455881 0
M  V30 7636 C 730.629 1.67536 0.469867 0
M  V30 7637 O 731.805 1.98344 0.349529 0
M  V30 7638 C 728.87 3.45634 0.271648 0
M  V30 7639 C 727.931 4.23709 -0.690594 0
M  V30 7640 C 727.164 5.337 0.00231047 0
M  V30 7641 O 727.387 5.57215 1.21935 0
M  V30 7642 O 726.321 5.98091 -0.676111 0
M  V30 7643 H 730.147 2.73655 -1.31707 0
M  V30 7644 H 727.732 1.3164 -0.706497 0
M  V30 7645 H 729.614 4.15853 0.681486 0
M  V30 7646 H 728.289 3.04138 1.10824 0
M  V30 7647 H 727.196 3.55974 -1.15037 0
M  V30 7648 H 728.529 4.68953 -1.49478 0
M  V30 7649 N 730.181 0.707592 1.40822 0
M  V30 7650 C 731.128 0.0499029 2.30746 0
M  V30 7651 C 732.098 -0.758718 1.47759 0
M  V30 7652 O 733.283 -0.724299 1.76518 0
M  V30 7653 C 730.423 -0.871756 3.33908 0
M  V30 7654 C 729.536 -0.0534655 4.31967 0
M  V30 7655 C 728.671 -0.973869 5.22197 0
M  V30 7656 C 727.71 -0.149194 6.11918 0
M  V30 7657 N 726.847 -1.02404 6.94592 0
M  V30 7658 H 731.687 0.822461 2.86426 0
M  V30 7659 H 729.224 0.417285 1.41057 0
M  V30 7660 H 731.182 -1.42028 3.9228 0
M  V30 7661 H 729.812 -1.61058 2.7975 0
M  V30 7662 H 728.864 0.612142 3.75442 0
M  V30 7663 H 730.176 0.585354 4.95353 0
M  V30 7664 H 729.33 -1.59121 5.85462 0
M  V30 7665 H 728.069 -1.64652 4.59065 0
M  V30 7666 H 727.074 0.481137 5.47691 0
M  V30 7667 H 728.299 0.519841 6.77107 0
M  V30 7668 H 726.245 -1.6825 6.34057 0
M  V30 7669 H 726.162 -0.441076 7.54712 0
M  V30 7670 H 727.43 -1.62782 7.62314 0
M  V30 7671 N 731.66 -1.50943 0.453197 0
M  V30 7672 C 732.61 -2.25003 -0.368467 0
M  V30 7673 C 733.594 -1.27864 -0.976714 0
M  V30 7674 O 734.786 -1.52867 -0.892228 0
M  V30 7675 C 731.915 -3.10701 -1.46014 0
M  V30 7676 C 731.001 -4.15278 -0.860506 0
M  V30 7677 N 731.392 -5.05799 0.00849611 0
M  V30 7678 C 729.69 -4.31542 -1.1264 0
M  V30 7679 C 730.391 -5.80664 0.346951 0
M  V30 7680 N 729.367 -5.42912 -0.273426 0
M  V30 7681 H 733.169 -2.92352 0.301246 0
M  V30 7682 H 730.683 -1.60203 0.266233 0
M  V30 7683 H 732.68 -3.62348 -2.06179 0
M  V30 7684 H 731.34 -2.44898 -2.13202 0
M  V30 7685 H 732.351 -5.16533 0.376077 0
M  V30 7686 H 729.028 -3.76962 -1.7946 0
M  V30 7687 H 730.418 -6.63565 1.05507 0
M  V30 7688 N 733.138 -0.185124 -1.56509 0
M  V30 7689 C 734.368 0.461469 -2.0138 0
M  V30 7690 C 734.776 1.56417 -1.06445 0
M  V30 7691 O 734.119 1.83603 -0.0597515 0
M  V30 7692 C 734.181 1.08731 -3.42663 0
M  V30 7693 C 733.845 0.124581 -4.5683 0
M  V30 7694 C 734.842 -0.662295 -5.15664 0
M  V30 7695 C 732.527 0.0163947 -5.02297 0
M  V30 7696 C 734.521 -1.54442 -6.18406 0
M  V30 7697 C 732.208 -0.869301 -6.04885 0
M  V30 7698 C 733.206 -1.64828 -6.62813 0
M  V30 7699 O 732.894 -2.51915 -7.63409 0
M  V30 7700 H 732.626 0.1212 -0.665046 0
M  V30 7701 H 735.18 -0.288119 -2.03369 0
M  V30 7702 H 733.41 1.8853 -3.37629 0
M  V30 7703 H 735.099 1.63753 -3.71403 0
M  V30 7704 H 735.865 -0.588963 -4.81411 0
M  V30 7705 H 731.744 0.61253 -4.56913 0
M  V30 7706 H 735.288 -2.15289 -6.63548 0
M  V30 7707 H 731.185 -0.943786 -6.38563 0
M  V30 7708 H 731.953 -2.45584 -7.80789 0
M  V30 7709 N 734.616 1.57351 0.0885366 0
M  V30 7710 C 735.563 2.02523 1.10693 0
M  V30 7711 C 736.533 0.902736 1.39427 0
M  V30 7712 O 737.718 1.16921 1.50779 0
M  V30 7713 C 734.858 2.46013 2.42016 0
M  V30 7714 C 733.971 3.7181 2.19957 0
M  V30 7715 C 733.106 4.04152 3.44724 0
M  V30 7716 C 732.145 5.2304 3.17956 0
M  V30 7717 N 731.282 5.51102 4.35007 0
M  V30 7718 H 736.122 2.89302 0.714742 0
M  V30 7719 H 733.659 1.43084 0.341378 0
M  V30 7720 H 735.617 2.69274 3.18665 0
M  V30 7721 H 734.247 1.62235 2.79069 0
M  V30 7722 H 733.299 3.55987 1.34079 0
M  V30 7723 H 734.611 4.58604 1.96173 0
M  V30 7724 H 733.765 4.28225 4.29777 0
M  V30 7725 H 732.504 3.15893 3.71568 0
M  V30 7726 H 731.509 4.98781 2.31296 0
M  V30 7727 H 732.734 6.12902 2.92451 0
M  V30 7728 H 730.68 4.65802 4.61914 0
M  V30 7729 H 730.597 6.3228 4.14437 0
M  V30 7730 H 731.865 5.79714 5.21106 0
M  V30 7731 N 736.094 -0.359525 1.53444 0
M  V30 7732 C 737.041 -1.44073 1.8031 0
M  V30 7733 C 738.011 -1.52946 0.647811 0
M  V30 7734 O 739.196 -1.68739 0.890614 0
M  V30 7735 C 736.336 -2.80941 2.00416 0
M  V30 7736 C 735.449 -2.80986 3.28132 0
M  V30 7737 C 734.584 -4.09468 3.38393 0
M  V30 7738 C 733.623 -4.03679 4.60119 0
M  V30 7739 N 732.76 -5.23821 4.675 0
M  V30 7740 H 737.6 -1.20464 2.72566 0
M  V30 7741 H 735.137 -0.583859 1.35017 0
M  V30 7742 H 737.095 -3.60459 2.1006 0
M  V30 7743 H 735.725 -3.02936 1.11489 0
M  V30 7744 H 734.777 -1.93666 3.27411 0
M  V30 7745 H 736.089 -2.72583 4.17732 0
M  V30 7746 H 735.243 -4.97404 3.47382 0
M  V30 7747 H 733.982 -4.20632 2.4682 0
M  V30 7748 H 732.987 -3.14129 4.51224 0
M  V30 7749 H 734.212 -3.94112 5.5304 0
M  V30 7750 H 732.158 -5.35559 3.7883 0
M  V30 7751 H 732.075 -5.17611 5.51013 0
M  V30 7752 H 733.343 -6.13572 4.8078 0
M  V30 7753 N 737.572 -1.44907 -0.619662 0
M  V30 7754 C 738.818 -1.48512 -1.38102 0
M  V30 7755 C 739.151 -0.121686 -1.93818 0
M  V30 7756 O 738.426 0.862256 -1.74343 0
M  V30 7757 C 738.709 -2.55469 -2.53787 0
M  V30 7758 C 738.562 -4.01212 -2.03345 0
M  V30 7759 C 739.881 -2.58821 -3.55949 0
M  V30 7760 H 737 -0.540712 -0.500799 0
M  V30 7761 H 739.642 -1.7665 -0.69962 0
M  V30 7762 H 737.792 -2.31606 -3.11915 0
M  V30 7763 H 739.464 -4.36245 -1.49959 0
M  V30 7764 H 737.707 -4.12443 -1.34438 0
M  V30 7765 H 738.378 -4.71717 -2.86683 0
M  V30 7766 H 740.854 -2.80172 -3.07641 0
M  V30 7767 H 739.73 -3.35542 -4.34399 0
M  V30 7768 H 739.991 -1.63451 -4.10775 0
M  V30 7769 N 739.05 0.861098 -1.31996 0
M  V30 7770 C 740.461 1.43065 -1.19955 0
M  V30 7771 C 740.812 1.95273 0.190489 0
M  V30 7772 O 739.937 1.87012 1.08882 0
M  V30 7773 C 740.532 2.60052 -2.1716 0
M  V30 7774 C 739.091 3.13026 -2.09026 0
M  V30 7775 C 738.238 1.85756 -2.05888 0
M  V30 7776 H 741.189 0.668834 -1.43918 0
M  V30 7777 H 741.21 3.37016 -1.76637 0
M  V30 7778 H 740.722 2.22024 -3.18319 0
M  V30 7779 H 738.823 3.55653 -1.11092 0
M  V30 7780 H 738.936 3.74707 -2.98549 0
M  V30 7781 H 737.3 2.05088 -1.51033 0
M  V30 7782 H 738.083 1.49954 -3.08818 0
M  V30 7783 N 740.528 1.15101 1.07655 0
M  V30 7784 C 741.438 0.858869 2.18313 0
M  V30 7785 C 742.454 -0.163641 1.73229 0
M  V30 7786 O 743.63 0.00969541 2.01398 0
M  V30 7787 C 740.695 0.34893 3.4494 0
M  V30 7788 C 739.756 1.43495 4.04608 0
M  V30 7789 C 738.989 0.949253 5.2519 0
M  V30 7790 O 739.212 -0.20636 5.70027 0
M  V30 7791 O 738.146 1.73161 5.76454 0
M  V30 7792 H 741.972 1.78386 2.45788 0
M  V30 7793 H 739.557 0.929876 1.16934 0
M  V30 7794 H 741.439 0.070851 4.2134 0
M  V30 7795 H 740.114 -0.548237 3.19024 0
M  V30 7796 H 739.021 1.7666 3.29761 0
M  V30 7797 H 740.354 2.30692 4.3479 0
M  V30 7798 N 742.006 -1.2595 0.947325 0
M  V30 7799 C 743.417 -1.75389 0.639963 0
M  V30 7800 C 743.768 -1.77081 -0.844788 0
M  V30 7801 O 742.893 -1.3869 -1.66114 0
M  V30 7802 C 743.488 -3.18506 1.15496 0
M  V30 7803 C 742.047 -3.65534 0.897894 0
M  V30 7804 C 741.194 -2.44818 1.30228 0
M  V30 7805 H 744.145 -1.1194 1.12495 0
M  V30 7806 H 744.166 -3.77045 0.511627 0
M  V30 7807 H 743.678 -3.17243 2.23559 0
M  V30 7808 H 741.779 -3.72221 -0.168096 0
M  V30 7809 H 741.892 -4.54039 1.52922 0
M  V30 7810 H 740.256 -2.44291 0.720678 0
M  V30 7811 H 741.039 -2.46251 2.39198 0
M  V30 7812 N 743.484 -0.715051 -1.40445 0
M  V30 7813 C 744.394 -0.0631624 -2.34515 0
M  V30 7814 C 745.41 0.744397 -1.57273 0
M  V30 7815 O 746.586 0.677475 -1.89663 0
M  V30 7816 C 743.651 0.847915 -3.36172 0
M  V30 7817 C 742.712 0.0303655 -4.29289 0
M  V30 7818 C 741.945 0.898051 -5.2609 0
M  V30 7819 O 742.168 2.13729 -5.28844 0
M  V30 7820 O 741.102 0.337328 -6.00954 0
M  V30 7821 H 744.928 -0.839078 -2.91879 0
M  V30 7822 H 742.513 -0.475527 -1.4163 0
M  V30 7823 H 744.395 1.3698 -3.98515 0
M  V30 7824 H 743.07 1.60299 -2.81222 0
M  V30 7825 H 741.977 -0.536573 -3.70232 0
M  V30 7826 H 743.31 -0.686474 -4.87389 0
M  V30 7827 N 744.962 1.50701 -0.461195 0
M  V30 7828 C 745.925 2.2686 0.326679 0
M  V30 7829 C 746.925 1.31243 0.929085 0
M  V30 7830 O 748.115 1.54754 0.799807 0
M  V30 7831 C 745.247 3.07844 1.46441 0
M  V30 7832 H 746.44 2.97954 -0.341095 0
M  V30 7833 H 743.993 1.54814 -0.214984 0
M  V30 7834 H 744.728 2.41223 2.16753 0
M  V30 7835 H 744.513 3.78101 1.03836 0
M  V30 7836 H 746.003 3.65469 2.02044 0
M  V30 7837 N 746.441 0.193421 1.56409 0
M  V30 7838 C 747.69 -0.445995 1.96707 0
M  V30 7839 C 748.003 -1.62876 1.08309 0
M  V30 7840 O 749.209 -2.33586 1.38383 0
M  V30 7841 C 747.665 -0.844863 3.49843 0
M  V30 7842 C 747.273 0.31352 4.46902 0
M  V30 7843 C 749.017 -1.45146 3.98915 0
M  V30 7844 C 746.924 -0.106214 5.91305 0
M  V30 7845 H 745.854 -0.170398 0.734493 0
M  V30 7846 H 748.505 0.285172 1.81271 0
M  V30 7847 H 746.887 -1.63265 3.60778 0
M  V30 7848 H 748.061 1.09103 4.47698 0
M  V30 7849 H 746.376 0.8315 4.08014 0
M  V30 7850 H 748.973 -1.77792 5.04276 0
M  V30 7851 H 749.316 -2.35734 3.43126 0
M  V30 7852 H 749.849 -0.727675 3.91088 0
M  V30 7853 H 746.588 0.765442 6.51016 0
M  V30 7854 H 746.108 -0.848623 5.93766 0
M  V30 7855 H 747.787 -0.542588 6.44721 0
M  V30 7856 N 747.919 -1.57396 -0.0801906 0
M  V30 7857 C 749.33 -1.75642 -0.633002 0
M  V30 7858 C 749.681 -0.817708 -1.78348 0
M  V30 7859 O 748.806 0.000233743 -2.164 0
M  V30 7860 C 749.401 -3.18502 -1.15507 0
M  V30 7861 C 747.96 -3.38121 -1.65381 0
M  V30 7862 C 747.107 -2.71386 -0.569661 0
M  V30 7863 H 750.058 -1.58027 0.145949 0
M  V30 7864 H 750.079 -3.22198 -2.02408 0
M  V30 7865 H 749.591 -3.86799 -0.317515 0
M  V30 7866 H 747.692 -2.74926 -2.51488 0
M  V30 7867 H 747.805 -4.46521 -1.73654 0
M  V30 7868 H 746.169 -2.33702 -1.0127 0
M  V30 7869 H 746.952 -3.42332 0.257561 0
M  V30 7870 N 749.397 0.351382 -1.53633 0
M  V30 7871 C 750.808 0.927429 -1.62036 0
M  V30 7872 C 751.159 1.89809 -0.496706 0
M  V30 7873 O 750.284 2.1313 0.374749 0
M  V30 7874 C 750.879 1.68886 -2.93706 0
M  V30 7875 C 749.438 2.21404 -3.04397 0
M  V30 7876 C 748.585 1.03075 -2.57431 0
M  V30 7877 H 751.536 0.129748 -1.58169 0
M  V30 7878 H 751.557 2.55116 -2.82305 0
M  V30 7879 H 751.069 0.982149 -3.75467 0
M  V30 7880 H 749.17 2.95274 -2.27253 0
M  V30 7881 H 749.283 2.48312 -4.09729 0
M  V30 7882 H 747.647 1.40188 -2.12649 0
M  V30 7883 H 748.43 0.338793 -3.41624 0
M  V30 7884 N 750.875 1.45233 0.611969 0
M  V30 7885 C 751.823 1.53898 1.74408 0
M  V30 7886 C 752.817 0.409254 1.64382 0
M  V30 7887 O 754.023 0.584988 1.70229 0
M  V30 7888 H 750.398 0.483303 0.576127 0
M  V30 7889 H 752.369 2.49143 1.64227 0
M  V30 7890 C 751.118 1.51865 3.12782 0
M  V30 7891 H 750.441 2.38118 3.21154 0
M  V30 7892 H 751.881 1.61986 3.91838 0
M  V30 7893 C 750.34 0.242374 3.36027 0
M  V30 7894 O 750.87 -0.679587 3.9591 0
M  V30 7895 N 749.076 0.139448 2.90265 0
M  V30 7896 H 748.623 0.890571 2.41716 0
M  V30 7897 H 748.581 -0.713686 3.06193 0
M  V30 7898 N 752.353 -0.854086 1.3245 0
M  V30 7899 C 753.602 -1.60318 1.22397 0
M  V30 7900 C 753.915 -1.9444 -0.212664 0
M  V30 7901 O 755.121 -2.67991 -0.435066 0
M  V30 7902 C 753.577 -2.8909 2.1437 0
M  V30 7903 C 753.185 -2.62391 3.63119 0
M  V30 7904 C 754.929 -3.67104 2.13155 0
M  V30 7905 C 752.836 -3.87167 4.47052 0
M  V30 7906 H 751.766 -0.601586 0.454544 0
M  V30 7907 H 754.417 -0.943023 1.57415 0
M  V30 7908 H 752.799 -3.56567 1.72268 0
M  V30 7909 H 753.973 -2.03222 4.13567 0
M  V30 7910 H 752.288 -1.97706 3.66471 0
M  V30 7911 H 754.885 -4.59696 2.731 0
M  V30 7912 H 755.228 -4.00876 1.12268 0
M  V30 7913 H 755.761 -3.06533 2.5354 0
M  V30 7914 H 752.5 -3.58536 5.48755 0
M  V30 7915 H 752.02 -4.45729 4.01355 0
M  V30 7916 H 753.699 -4.549 4.60081 0
M  V30 7917 N 753.831 -1.1567 -1.07043 0
M  V30 7918 C 754.761 -0.879348 -2.16309 0
M  V30 7919 C 755.742 0.171311 -1.69235 0
M  V30 7920 O 756.927 0.0250175 -1.94184 0
M  V30 7921 C 754.057 -0.371307 -3.45309 0
M  V30 7922 C 753.011 -1.359 -4.05851 0
M  V30 7923 C 752.337 -0.709678 -5.29969 0
M  V30 7924 C 753.637 -2.72606 -4.45514 0
M  V30 7925 H 755.331 -1.79308 -2.39768 0
M  V30 7926 H 752.877 -0.863558 -1.15233 0
M  V30 7927 H 754.83 -0.164798 -4.21078 0
M  V30 7928 H 753.554 0.577906 -3.21446 0
M  V30 7929 H 752.213 -1.55193 -3.32131 0
M  V30 7930 H 751.861 0.245782 -5.02399 0
M  V30 7931 H 751.561 -1.36886 -5.71433 0
M  V30 7932 H 753.085 -0.513015 -6.08441 0
M  V30 7933 H 754.499 -2.57141 -5.12398 0
M  V30 7934 H 752.896 -3.34927 -4.97939 0
M  V30 7935 H 753.966 -3.28434 -3.56734 0
M  V30 7936 N 755.309 1.25446 -0.953992 0
M  V30 7937 C 756.534 1.97755 -0.625129 0
M  V30 7938 C 756.959 1.70437 0.795787 0
M  V30 7939 O 756.317 0.95992 1.53803 0
M  V30 7940 C 756.365 3.49463 -0.889251 0
M  V30 7941 O 755.469 4.12387 0.0322757 0
M  V30 7942 H 754.81 0.61998 -0.237742 0
M  V30 7943 H 757.34 1.59582 -1.28041 0
M  V30 7944 H 757.35 3.99772 -0.815263 0
M  V30 7945 H 756.025 3.68676 -1.92487 0
M  V30 7946 H 754.602 3.72782 -0.0938625 0
M  V30 7947 N 756.787 0.722489 1.40064 0
M  V30 7948 C 758.017 0.274439 2.04769 0
M  V30 7949 C 758.425 -1.09125 1.54559 0
M  V30 7950 O 757.768 -1.69834 0.700149 0
M  V30 7951 C 757.83 0.184091 3.59028 0
M  V30 7952 C 757.494 1.48619 4.32159 0
M  V30 7953 C 758.491 2.42947 4.59644 0
M  V30 7954 C 756.176 1.74703 4.7094 0
M  V30 7955 C 758.17 3.616 5.24904 0
M  V30 7956 C 755.857 2.93636 5.3593 0
M  V30 7957 C 756.855 3.86907 5.62843 0
M  V30 7958 O 756.543 5.03753 6.26489 0
M  V30 7959 H 756.275 0.119847 0.665292 0
M  V30 7960 H 758.829 0.983352 1.80331 0
M  V30 7961 H 757.059 -0.580821 3.82313 0
M  V30 7962 H 758.748 -0.230306 4.05246 0
M  V30 7963 H 759.514 2.24062 4.30141 0
M  V30 7964 H 755.393 1.02955 4.49356 0
M  V30 7965 H 758.937 4.34418 5.45827 0
M  V30 7966 H 754.834 3.12428 5.64853 0
M  V30 7967 H 755.602 5.03922 6.44984 0
M  V30 7968 N 758.265 -1.50454 0.469181 0
M  V30 7969 C 759.195 -2.31353 -0.31592 0
M  V30 7970 C 760.176 -1.38172 -0.992094 0
M  V30 7971 O 761.361 -1.67093 -0.989633 0
M  V30 7972 C 758.491 -3.1786 -1.39937 0
M  V30 7973 C 757.445 -4.19578 -0.844909 0
M  V30 7974 C 756.771 -4.9481 -2.0265 0
M  V30 7975 C 758.071 -5.22106 0.142499 0
M  V30 7976 H 759.765 -2.97237 0.359269 0
M  V30 7977 H 757.311 -1.42942 0.174224 0
M  V30 7978 H 759.264 -3.7325 -1.95607 0
M  V30 7979 H 757.988 -2.49858 -2.1033 0
M  V30 7980 H 756.647 -3.65285 -0.310189 0
M  V30 7981 H 756.295 -4.23282 -2.71737 0
M  V30 7982 H 755.995 -5.63613 -1.66174 0
M  V30 7983 H 757.519 -5.53035 -2.58815 0
M  V30 7984 H 758.933 -5.72378 -0.324966 0
M  V30 7985 H 757.33 -5.98618 0.421441 0
M  V30 7986 H 758.4 -4.7297 1.06901 0
M  V30 7987 N 759.743 -0.201713 -1.56304 0
M  V30 7988 C 760.989 0.435952 -1.98059 0
M  V30 7989 C 761.322 1.60811 -1.08873 0
M  V30 7990 O 760.597 1.9398 -0.142128 0
M  V30 7991 C 760.88 0.889706 -3.48936 0
M  V30 7992 C 760.733 -0.284725 -4.48898 0
M  V30 7993 C 762.052 1.7529 -4.03685 0
M  V30 7994 H 759.171 0.15699 -0.720085 0
M  V30 7995 H 761.813 -0.293965 -1.87712 0
M  V30 7996 H 759.963 1.51166 -3.57884 0
M  V30 7997 H 761.635 -0.922531 -4.51981 0
M  V30 7998 H 759.878 -0.935427 -4.23594 0
M  V30 7999 H 760.549 0.0753865 -5.51949 0
M  V30 8000 H 763.025 1.2283 -3.97558 0
M  V30 8001 H 761.901 2.03933 -5.0961 0
M  V30 8002 H 762.162 2.70939 -3.49348 0
M  V30 8003 N 761.222 1.57436 0.0718424 0
M  V30 8004 C 762.45 1.91474 0.783932 0
M  V30 8005 C 762.865 0.797669 1.71122 0
M  V30 8006 O 762.222 -0.228989 1.81058 0
M  V30 8007 C 762.273 3.25259 1.57761 0
M  V30 8008 O 761.994 4.3267 0.687596 0
M  V30 8009 C 763.495 3.7331 2.3907 0
M  V30 8010 H 760.715 0.632901 0.222885 0
M  V30 8011 H 763.259 2.04457 0.0421262 0
M  V30 8012 H 761.414 3.13804 2.27169 0
M  V30 8013 H 761.828 5.09641 1.23962 0
M  V30 8014 H 763.302 4.69551 2.90216 0
M  V30 8015 H 763.779 3.02318 3.18591 0
M  V30 8016 H 764.385 3.8771 1.74818 0
M  V30 8017 N 762.7 -0.34323 1.53817 0
M  V30 8018 C 763.948 -1.0813 1.70741 0
M  V30 8019 C 764.269 -1.89165 0.473461 0
M  V30 8020 O 763.539 -1.89075 -0.512605 0
M  V30 8021 H 762.119 -0.40219 0.629486 0
M  V30 8022 H 764.781 -0.384426 1.91071 0
M  V30 8023 H 763.877 -1.7585 2.57843 0
M  V30 8024 N 764.178 -1.45556 -0.604258 0
M  V30 8025 C 765.427 -1.49019 -1.35928 0
M  V30 8026 C 765.74 -0.137409 -1.95117 0
M  V30 8027 O 766.946 -0.0497032 -2.71455 0
M  V30 8028 C 765.402 -2.62477 -2.46239 0
M  V30 8029 C 765.01 -4.04082 -1.93447 0
M  V30 8030 C 766.754 -2.7519 -3.23219 0
M  V30 8031 C 764.661 -5.08917 -3.0126 0
M  V30 8032 H 763.591 -0.554518 -0.510907 0
M  V30 8033 H 766.242 -1.71705 -0.647262 0
M  V30 8034 H 764.624 -2.3308 -3.2014 0
M  V30 8035 H 765.798 -4.43173 -1.26232 0
M  V30 8036 H 764.113 -3.95849 -1.29201 0
M  V30 8037 H 766.71 -3.50683 -4.0364 0
M  V30 8038 H 767.053 -1.81941 -3.74437 0
M  V30 8039 H 767.586 -3.04129 -2.56418 0
M  V30 8040 H 764.325 -6.03886 -2.54955 0
M  V30 8041 H 763.845 -4.74393 -3.67031 0
M  V30 8042 H 765.524 -5.33814 -3.65584 0
M  V30 8043 N 765.656 0.84705 -1.32902 0
M  V30 8044 C 766.881 1.63925 -1.27056 0
M  V30 8045 C 767.306 1.87443 0.157136 0
M  V30 8046 O 766.664 1.43266 1.11106 0
M  V30 8047 C 766.712 2.97134 -2.04313 0
M  V30 8048 O 765.816 3.88049 -1.39614 0
M  V30 8049 H 765.157 0.499477 -0.437514 0
M  V30 8050 H 767.687 1.05443 -1.75336 0
M  V30 8051 H 767.697 3.46896 -2.14772 0
M  V30 8052 H 766.372 2.79339 -3.08128 0
M  V30 8053 H 764.949 3.46525 -1.3775 0
M  V30 8054 N 767.134 1.16236 1.06428 0
M  V30 8055 C 768.38 0.944431 1.79467 0
M  V30 8056 C 768.713 -0.526558 1.86925 0
M  V30 8057 O 767.988 -1.39061 1.35986 0
M  V30 8058 C 768.271 1.57092 3.24028 0
M  V30 8059 C 768.124 3.11315 3.24658 0
M  V30 8060 C 769.443 1.26447 4.21544 0
M  V30 8061 H 766.562 0.344521 0.651517 0
M  V30 8062 H 769.204 1.43545 1.24478 0
M  V30 8063 H 767.354 1.15337 3.70985 0
M  V30 8064 H 769.026 3.62042 2.85873 0
M  V30 8065 H 767.269 3.44716 2.6335 0
M  V30 8066 H 767.94 3.50269 4.26633 0
M  V30 8067 H 770.416 1.62581 3.83023 0
M  V30 8068 H 769.292 1.72885 5.20963 0
M  V30 8069 H 769.553 0.183068 4.41721 0
M  V30 8070 N 768.612 -1.24939 0.960631 0
M  V30 8071 C 769.56 -2.27659 0.47686 0
M  V30 8072 C 770.554 -1.63148 -0.455961 0
M  V30 8073 O 771.76 -1.76911 -0.332029 0
M  V30 8074 H 768.135 -0.739651 0.135723 0
M  V30 8075 H 770.106 -2.65844 1.35534 0
M  V30 8076 C 768.855 -3.46976 -0.224191 0
M  V30 8077 H 768.178 -3.96854 0.484471 0
M  V30 8078 H 769.618 -4.20717 -0.526615 0
M  V30 8079 C 768.077 -3.04159 -1.44876 0
M  V30 8080 O 768.607 -3.10697 -2.54618 0
M  V30 8081 N 766.813 -2.59284 -1.31226 0
M  V30 8082 H 766.36 -2.54164 -0.419361 0
M  V30 8083 H 766.318 -2.31 -2.13275 0
M  V30 8084 N 770.09 -0.729906 -1.39679 0
M  V30 8085 C 771.33 -0.280232 -2.0247 0
M  V30 8086 C 771.694 1.11006 -1.56658 0
M  V30 8087 O 772.895 1.65753 -2.11612 0
M  V30 8088 C 771.166 -0.372922 -3.55449 0
M  V30 8089 S 772.725 -0.00233974 -4.388 0
M  V30 8090 H 769.543 -0.110139 -0.702418 0
M  V30 8091 H 772.145 -0.955296 -1.70571 0
M  V30 8092 H 770.849 -1.38616 -3.86282 0
M  V30 8093 H 770.38 0.320136 -3.92095 0
M  V30 8094 H 772.395 1.21544 -4.81084 0
M  V30 8095 N 771.568 1.50203 -0.477153 0
M  V30 8096 C 772.531 2.27194 0.302599 0
M  V30 8097 C 773.531 1.32221 0.915112 0
M  V30 8098 O 774.721 1.55593 0.783348 0
M  V30 8099 C 771.853 3.0938 1.43167 0
M  V30 8100 H 773.046 2.97575 -0.372678 0
M  V30 8101 H 770.599 1.54578 -0.231392 0
M  V30 8102 H 771.334 2.43509 2.14182 0
M  V30 8103 H 771.119 3.79181 0.998197 0
M  V30 8104 H 772.609 3.67592 1.98157 0
M  V30 8105 N 773.046 0.209999 1.56195 0
M  V30 8106 C 774.276 -0.429373 2.02089 0
M  V30 8107 C 774.684 -1.54703 1.0892 0
M  V30 8108 O 774.027 -1.83485 0.0889535 0
M  V30 8109 C 774.089 -1.03266 3.44349 0
M  V30 8110 C 773.753 -0.0518873 4.56971 0
M  V30 8111 C 774.75 0.744249 5.14545 0
M  V30 8112 C 772.435 0.0635185 5.0226 0
M  V30 8113 C 774.429 1.64261 6.15871 0
M  V30 8114 C 772.116 0.965423 6.03426 0
M  V30 8115 C 773.114 1.75352 6.60106 0
M  V30 8116 O 772.802 2.64029 7.59305 0
M  V30 8117 H 772.534 -0.110604 0.66689 0
M  V30 8118 H 775.088 0.320436 2.02885 0
M  V30 8119 H 773.318 -1.83134 3.40586 0
M  V30 8120 H 775.007 -1.57823 3.73961 0
M  V30 8121 H 775.773 0.665476 4.80413 0
M  V30 8122 H 771.652 -0.539762 4.57829 0
M  V30 8123 H 775.196 2.25819 6.60039 0
M  V30 8124 H 771.093 1.04526 6.36981 0
M  V30 8125 H 771.861 2.57974 7.76783 0
M  V30 8126 N 774.524 -1.57472 -0.0634922 0
M  V30 8127 C 775.752 -1.91887 -0.773767 0
M  V30 8128 C 776.167 -0.806733 -1.70696 0
M  V30 8129 O 775.524 0.219383 -1.81177 0
M  V30 8130 C 775.575 -3.26092 -1.56034 0
M  V30 8131 O 775.296 -4.33029 -0.66464 0
M  V30 8132 C 776.797 -3.74573 -2.37087 0
M  V30 8133 H 774.017 -0.634074 -0.219525 0
M  V30 8134 H 776.561 -2.04476 -0.0312828 0
M  V30 8135 H 774.716 -3.15004 -2.25502 0
M  V30 8136 H 775.13 -5.10291 -1.21258 0
M  V30 8137 H 776.604 -4.71084 -2.87722 0
M  V30 8138 H 777.081 -3.04003 -3.16984 0
M  V30 8139 H 777.687 -3.88631 -1.72759 0
M  V30 8140 N 776.003 0.335068 -1.53997 0
M  V30 8141 C 777.228 1.09859 -1.75914 0
M  V30 8142 C 777.653 1.81308 -0.500915 0
M  V30 8143 O 777.011 1.72854 0.54693 0
M  V30 8144 C 777.059 2.08122 -2.94478 0
M  V30 8145 O 776.163 3.15805 -2.65219 0
M  V30 8146 H 775.504 0.317313 -0.583274 0
M  V30 8147 H 778.034 0.382872 -2.00986 0
M  V30 8148 H 778.044 2.51195 -3.21504 0
M  V30 8149 H 776.719 1.55517 -3.8573 0
M  V30 8150 H 775.296 2.77489 -2.49107 0
M  V30 8151 N 777.481 1.45874 0.596531 0
M  V30 8152 C 778.428 1.55389 1.70655 0
M  V30 8153 C 779.398 0.399036 1.61236 0
M  V30 8154 O 780.583 0.61396 1.80652 0
M  V30 8155 C 777.723 1.53705 3.0898 0
M  V30 8156 C 776.836 2.79823 3.29125 0
M  V30 8157 C 775.971 2.69735 4.5762 0
M  V30 8158 C 775.01 3.90856 4.71061 0
M  V30 8159 N 774.147 3.79237 5.90867 0
M  V30 8160 H 778.987 2.50211 1.61859 0
M  V30 8161 H 776.524 1.24146 0.789069 0
M  V30 8162 H 778.482 1.50715 3.89026 0
M  V30 8163 H 777.112 0.624247 3.16706 0
M  V30 8164 H 776.164 2.92852 2.42779 0
M  V30 8165 H 777.476 3.69628 3.34927 0
M  V30 8166 H 776.63 2.64773 5.45875 0
M  V30 8167 H 775.369 1.77547 4.54234 0
M  V30 8168 H 774.374 3.96164 3.81227 0
M  V30 8169 H 775.599 4.84124 4.76236 0
M  V30 8170 H 773.545 2.89825 5.88504 0
M  V30 8171 H 773.462 4.62686 5.97877 0
M  V30 8172 H 774.73 3.78227 6.8159 0
M  V30 8173 N 778.959 -0.83999 1.33349 0
M  V30 8174 C 780.208 -1.59011 1.2409 0
M  V30 8175 C 780.521 -1.94655 -0.192029 0
M  V30 8176 O 781.727 -2.68438 -0.406617 0
M  V30 8177 C 780.183 -2.86801 2.17425 0
M  V30 8178 C 779.791 -2.58525 3.65881 0
M  V30 8179 C 781.535 -3.64823 2.17036 0
M  V30 8180 C 779.442 -3.82404 4.51133 0
M  V30 8181 H 778.372 -0.596731 0.460899 0
M  V30 8182 H 781.023 -0.926274 1.58406 0
M  V30 8183 H 779.405 -3.54719 1.7604 0
M  V30 8184 H 780.579 -1.98824 4.15699 0
M  V30 8185 H 778.894 -1.93808 3.68548 0
M  V30 8186 H 781.491 -4.56774 2.7796 0
M  V30 8187 H 781.834 -3.99663 1.16513 0
M  V30 8188 H 782.367 -3.03826 2.56777 0
M  V30 8189 H 779.106 -3.52696 5.52527 0
M  V30 8190 H 778.626 -4.41447 4.0606 0
M  V30 8191 H 780.305 -4.49995 4.6488 0
M  V30 8192 N 780.437 -1.16799 -1.0581 0
M  V30 8193 C 781.367 -0.902241 -2.15364 0
M  V30 8194 C 782.348 0.153351 -1.69407 0
M  V30 8195 O 783.533 0.00442032 -1.94199 0
M  V30 8196 C 780.663 -0.407911 -3.44896 0
M  V30 8197 C 779.617 -1.40197 -4.04387 0
M  V30 8198 C 778.943 -0.765848 -5.29187 0
M  V30 8199 C 780.243 -2.77316 -4.42598 0
M  V30 8200 H 781.937 -1.81841 -2.37853 0
M  V30 8201 H 779.483 -0.875731 -1.14311 0
M  V30 8202 H 781.436 -0.20945 -4.20879 0
M  V30 8203 H 780.16 0.54378 -3.22041 0
M  V30 8204 H 778.819 -1.58707 -3.30466 0
M  V30 8205 H 778.467 0.192482 -5.02632 0
M  V30 8206 H 778.167 -1.42939 -5.69949 0
M  V30 8207 H 779.691 -0.577519 -6.07863 0
M  V30 8208 H 781.105 -2.62561 -5.09642 0
M  V30 8209 H 779.502 -3.4019 -4.94359 0
M  V30 8210 H 780.572 -3.32199 -3.53231 0
M  V30 8211 N 781.915 1.24427 -0.967243 0
M  V30 8212 C 783.326 1.74349 -0.667785 0
M  V30 8213 C 783.677 1.78403 0.816509 0
M  V30 8214 O 782.802 1.41315 1.63887 0
M  V30 8215 C 783.397 3.16628 -1.20548 0
M  V30 8216 C 781.956 3.64059 -0.955934 0
M  V30 8217 C 781.103 2.42715 -1.34106 0
M  V30 8218 H 784.054 1.10136 -1.14262 0
M  V30 8219 H 784.075 3.76183 -0.571547 0
M  V30 8220 H 783.587 3.13646 -2.28578 0
M  V30 8221 H 781.688 3.72441 0.108858 0
M  V30 8222 H 781.801 4.51549 -1.60126 0
M  V30 8223 H 780.165 2.43114 -0.759452 0
M  V30 8224 H 780.948 2.42414 -2.43085 0
M  V30 8225 N 783.393 0.737304 1.3929 0
M  V30 8226 C 784.804 0.355966 1.83275 0
M  V30 8227 C 785.155 -1.11295 1.6158 0
M  V30 8228 O 784.28 -1.85871 1.10819 0
M  V30 8229 C 784.875 0.63931 3.32713 0
M  V30 8230 C 783.434 0.31144 3.75109 0
M  V30 8231 C 782.581 0.900765 2.62262 0
M  V30 8232 H 785.532 0.934763 1.28249 0
M  V30 8233 H 785.553 -0.0881293 3.80398 0
M  V30 8234 H 785.065 1.70847 3.48472 0
M  V30 8235 H 783.166 -0.751791 3.64937 0
M  V30 8236 H 783.279 0.795611 4.72448 0
M  V30 8237 H 781.643 0.327239 2.52589 0
M  V30 8238 H 782.426 1.97463 2.80826 0
M  V30 8239 N 784.871 -1.49948 0.485112 0
M  V30 8240 C 785.781 -2.32587 -0.306697 0
M  V30 8241 C 786.797 -1.43598 -0.982632 0
M  V30 8242 O 787.973 -1.76638 -0.967519 0
M  V30 8243 C 785.038 -3.18638 -1.3664 0
M  V30 8244 C 784.099 -4.23462 -0.705589 0
M  V30 8245 C 783.332 -5.05401 -1.7148 0
M  V30 8246 O 783.555 -4.88618 -2.94293 0
M  V30 8247 O 782.489 -5.88157 -1.27889 0
M  V30 8248 H 786.315 -3.01447 0.369272 0
M  V30 8249 H 783.9 -1.47349 0.246709 0
M  V30 8250 H 785.782 -3.71992 -1.9799 0
M  V30 8251 H 784.457 -2.52491 -2.02559 0
M  V30 8252 H 783.364 -3.74063 -0.0527733 0
M  V30 8253 H 784.697 -4.92119 -0.0891187 0
M  V30 8254 N 786.349 -0.21828 -1.56081 0
M  V30 8255 C 787.296 0.693189 -2.20144 0
M  V30 8256 C 788.266 1.19274 -1.15598 0
M  V30 8257 O 789.451 1.25243 -1.4394 0
M  V30 8258 C 786.591 1.89715 -2.88275 0
M  V30 8259 C 785.704 1.4368 -4.07407 0
M  V30 8260 C 784.839 2.59807 -4.63329 0
M  V30 8261 C 783.878 2.10492 -5.74769 0
M  V30 8262 N 783.015 3.1988 -6.24997 0
M  V30 8263 H 787.855 0.14016 -2.9767 0
M  V30 8264 H 785.392 0.0574292 -1.46988 0
M  V30 8265 H 787.35 2.60398 -3.25958 0
M  V30 8266 H 785.98 2.42311 -2.13273 0
M  V30 8267 H 785.032 0.625007 -3.7523 0
M  V30 8268 H 786.344 1.03517 -4.8794 0
M  V30 8269 H 785.498 3.38577 -5.03438 0
M  V30 8270 H 784.237 3.03256 -3.81951 0
M  V30 8271 H 783.242 1.30182 -5.34165 0
M  V30 8272 H 784.467 1.68045 -6.5798 0
M  V30 8273 H 782.413 3.62817 -5.46534 0
M  V30 8274 H 782.33 2.83958 -7.00645 0
M  V30 8275 H 783.598 3.98796 -6.69763 0
M  V30 8276 N 787.827 1.57504 0.0551401 0
M  V30 8277 C 788.737 2.08198 1.08124 0
M  V30 8278 C 789.753 1.01496 1.41331 0
M  V30 8279 O 790.929 1.33073 1.51174 0
M  V30 8280 C 787.994 2.52968 2.37083 0
M  V30 8281 C 787.055 3.7404 2.10696 0
M  V30 8282 C 786.288 4.16665 3.33505 0
M  V30 8283 O 786.511 3.59019 4.4324 0
M  V30 8284 O 785.445 5.09324 3.20737 0
M  V30 8285 H 789.271 2.95977 0.680518 0
M  V30 8286 H 786.856 1.46933 0.270401 0
M  V30 8287 H 788.738 2.82211 3.12946 0
M  V30 8288 H 787.413 1.6831 2.76502 0
M  V30 8289 H 786.32 3.49855 1.32484 0
M  V30 8290 H 787.653 4.59601 1.76148 0
M  V30 8291 N 789.305 -0.326896 1.54172 0
M  V30 8292 C 790.553 -1.06313 1.71878 0
M  V30 8293 C 790.874 -1.88652 0.493498 0
M  V30 8294 O 790.144 -1.89608 -0.492522 0
M  V30 8295 H 788.724 -0.39549 0.633716 0
M  V30 8296 H 791.386 -0.364139 1.91468 0
M  V30 8297 H 790.482 -1.73105 2.59694 0
M  V30 8298 N 790.784 -1.46188 -0.588786 0
M  V30 8299 C 792.032 -1.50885 -1.34455 0
M  V30 8300 C 792.353 -0.159555 -1.94346 0
M  V30 8301 O 791.623 0.813239 -1.78222 0
M  V30 8302 H 790.203 -0.555707 -0.499198 0
M  V30 8303 H 792.865 -1.82277 -0.690014 0
M  V30 8304 H 791.961 -2.25816 -2.15438 0
M  V30 8305 N 792.262 0.832906 -1.33792 0
M  V30 8306 C 793.192 1.95828 -1.27176 0
M  V30 8307 C 794.173 1.69427 -0.15114 0
M  V30 8308 O 795.358 1.91167 -0.341886 0
M  V30 8309 C 792.488 3.32098 -1.01629 0
M  V30 8310 C 791.442 3.72912 -2.10049 0
M  V30 8311 C 790.768 5.07054 -1.69706 0
M  V30 8312 C 792.068 3.86064 -3.51783 0
M  V30 8313 H 793.762 2.01622 -2.21334 0
M  V30 8314 H 791.308 0.96866 -1.0655 0
M  V30 8315 H 793.261 4.10402 -0.956474 0
M  V30 8316 H 791.985 3.26577 -0.0390956 0
M  V30 8317 H 790.644 2.96876 -2.15082 0
M  V30 8318 H 790.292 4.9801 -0.706737 0
M  V30 8319 H 789.992 5.35333 -2.42264 0
M  V30 8320 H 791.516 5.87827 -1.65202 0
M  V30 8321 H 792.93 4.54665 -3.49218 0
M  V30 8322 H 791.327 4.25787 -4.22878 0
M  V30 8323 H 792.397 2.88344 -3.89854 0
M  V30 8324 N 793.74 1.17359 1.05189 0
M  V30 8325 C 795.151 0.96793 1.5965 0
M  V30 8326 C 795.502 -0.485355 1.90102 0
M  V30 8327 O 794.627 -1.36066 1.6827 0
M  V30 8328 C 795.222 1.75068 2.90063 0
M  V30 8329 C 793.781 1.58969 3.41183 0
M  V30 8330 C 792.928 1.75231 2.14917 0
M  V30 8331 H 795.879 1.32067 0.880001 0
M  V30 8332 H 795.9 1.23308 3.59966 0
M  V30 8333 H 795.412 2.80835 2.67868 0
M  V30 8334 H 793.513 0.556906 3.68415 0
M  V30 8335 H 793.626 2.38067 4.15766 0
M  V30 8336 H 791.99 1.18073 2.25679 0
M  V30 8337 H 792.773 2.8241 1.95191 0
M  V30 8338 N 795.218 -1.23913 0.973828 0
M  V30 8339 C 796.634 -1.44325 0.681363 0
M  V30 8340 C 796.834 -1.86832 -0.754728 0
M  V30 8341 O 795.89 -2.01024 -1.52793 0
M  V30 8342 C 797.203 -2.50017 1.67069 0
M  V30 8343 C 798.751 -2.63838 1.68399 0
M  V30 8344 C 799.226 -3.72734 2.66145 0
M  V30 8345 N 800.717 -3.80169 2.64624 0
M  V30 8346 C 801.452 -4.6397 3.36927 0
M  V30 8347 N 800.948 -5.51911 4.18767 0
M  V30 8348 N 802.741 -4.58106 3.25722 0
M  V30 8349 H 794.892 -0.946204 1.9016 0
M  V30 8350 H 797.155 -0.477374 0.819035 0
M  V30 8351 H 796.861 -2.25686 2.69738 0
M  V30 8352 H 796.735 -3.48287 1.4483 0
M  V30 8353 H 799.122 -2.87524 0.664379 0
M  V30 8354 H 799.203 -1.65906 1.94702 0
M  V30 8355 H 798.847 -3.49797 3.68245 0
M  V30 8356 H 798.777 -4.70193 2.3712 0
M  V30 8357 H 801.268 -3.17319 2.05224 0
M  V30 8358 H 801.581 -6.12828 4.70809 0
M  V30 8359 H 799.926 -5.51556 4.2286 0
M  V30 8360 H 803.117 -3.8842 2.61242 0
M  V30 8361 H 803.29 -5.23188 3.82333 0
M  V30 8362 N 796.696 -0.74468 -1.38897 0
M  V30 8363 C 797.646 -0.0869375 -2.27834 0
M  V30 8364 C 798.63 0.702553 -1.44751 0
M  V30 8365 O 799.822 0.569972 -1.67572 0
M  V30 8366 C 796.951 0.812232 -3.33553 0
M  V30 8367 C 796.037 0.0163713 -4.24097 0
M  V30 8368 N 796.428 -1.01547 -4.95502 0
M  V30 8369 C 794.726 0.244554 -4.45329 0
M  V30 8370 C 795.427 -1.49622 -5.62128 0
M  V30 8371 N 794.403 -0.813097 -5.37485 0
M  V30 8372 H 798.205 -0.877345 -2.80499 0
M  V30 8373 H 795.719 -0.579898 -1.51694 0
M  V30 8374 H 797.716 1.299 -3.96146 0
M  V30 8375 H 796.376 1.60169 -2.82446 0
M  V30 8376 H 797.387 -1.39707 -4.98701 0
M  V30 8377 H 794.064 1.00806 -4.05147 0
M  V30 8378 H 795.454 -2.35523 -6.29268 0
M  V30 8379 N 798.174 1.49689 -0.493057 0
M  V30 8380 C 799.42 2.02727 0.0543518 0
M  V30 8381 C 799.753 1.37264 1.37376 0
M  V30 8382 O 799.028 0.505644 1.87812 0
M  V30 8383 C 799.311 3.59456 0.215226 0
M  V30 8384 C 799.164 4.35459 -1.12675 0
M  V30 8385 C 800.483 4.29511 0.959586 0
M  V30 8386 H 797.602 0.736773 0.0182786 0
M  V30 8387 H 800.244 1.78792 -0.642924 0
M  V30 8388 H 798.394 3.79981 0.809122 0
M  V30 8389 H 800.066 4.2645 -1.75891 0
M  V30 8390 H 798.309 3.9833 -1.71801 0
M  V30 8391 H 798.98 5.43454 -0.967578 0
M  V30 8392 H 801.456 4.13594 0.455977 0
M  V30 8393 H 800.332 5.38939 1.04098 0
M  V30 8394 H 800.593 3.94202 2.00144 0
M  V30 8395 N 799.652 0.226554 1.55963 0
M  V30 8396 C 800.9 -0.402991 1.98041 0
M  V30 8397 C 801.221 -1.59938 1.11557 0
M  V30 8398 O 800.491 -1.9494 0.193719 0
M  V30 8399 H 799.071 -0.15188 0.731397 0
M  V30 8400 H 801.733 0.320613 1.92245 0
M  V30 8401 H 800.829 -0.725937 3.0354 0
M  V30 8402 N 801.13 -1.57531 -0.0467866 0
M  V30 8403 C 802.078 -2.06455 -1.0714 0
M  V30 8404 C 803.072 -0.974744 -1.38546 0
M  V30 8405 O 804.278 -1.15974 -1.37659 0
M  V30 8406 H 800.653 -0.658607 -0.362962 0
M  V30 8407 H 802.624 -2.91613 -0.632813 0
M  V30 8408 C 801.373 -2.54481 -2.36927 0
M  V30 8409 H 800.696 -3.37946 -2.13617 0
M  V30 8410 H 802.136 -2.92442 -3.07007 0
M  V30 8411 C 800.595 -1.43836 -3.04652 0
M  V30 8412 O 801.125 -0.794531 -3.93764 0
M  V30 8413 N 799.331 -1.17727 -2.65686 0
M  V30 8414 H 798.878 -1.70265 -1.93307 0
M  V30 8415 H 798.836 -0.439051 -3.11319 0
M  V30 8416 N 802.608 0.318715 -1.54344 0
M  V30 8417 C 803.555 1.39242 -1.84066 0
M  V30 8418 C 804.525 1.51175 -0.688134 0
M  V30 8419 O 805.71 1.66318 -0.935039 0
M  V30 8420 C 802.85 2.75528 -2.07794 0
M  V30 8421 C 801.963 2.72187 -3.35467 0
M  V30 8422 C 801.098 4.00352 -3.4913 0
M  V30 8423 C 800.137 3.91338 -4.7066 0
M  V30 8424 N 799.274 5.11242 -4.81224 0
M  V30 8425 H 804.114 1.13196 -2.75664 0
M  V30 8426 H 801.651 0.547857 -1.36517 0
M  V30 8427 H 803.609 3.54763 -2.19543 0
M  V30 8428 H 802.239 2.99873 -1.19482 0
M  V30 8429 H 801.291 1.84917 -3.3243 0
M  V30 8430 H 802.603 2.61411 -4.24812 0
M  V30 8431 H 801.757 4.88019 -3.60448 0
M  V30 8432 H 800.496 4.1394 -2.57886 0
M  V30 8433 H 799.501 3.02055 -4.59394 0
M  V30 8434 H 800.726 3.7931 -5.63294 0
M  V30 8435 H 798.672 5.25327 -3.92897 0
M  V30 8436 H 798.589 5.0282 -5.64543 0
M  V30 8437 H 799.857 6.0061 -4.96879 0
M  V30 8438 N 804.086 1.46499 0.581025 0
M  V30 8439 C 805.314 1.5547 1.36517 0
M  V30 8440 C 805.729 0.196407 1.87776 0
M  V30 8441 O 805.086 -0.806577 1.63709 0
M  V30 8442 C 805.137 2.56084 2.55154 0
M  V30 8443 O 804.858 3.86637 2.06018 0
M  V30 8444 C 806.359 2.75011 3.47683 0
M  V30 8445 H 803.579 0.525703 0.416986 0
M  V30 8446 H 806.123 1.9192 0.706177 0
M  V30 8447 H 804.278 2.22633 3.17039 0
M  V30 8448 H 804.692 4.41413 2.83292 0
M  V30 8449 H 806.166 3.49329 4.27403 0
M  V30 8450 H 806.643 1.81978 3.99726 0
M  V30 8451 H 807.249 3.09565 2.91632 0
M  V30 8452 N 805.565 -0.825799 1.34232 0
M  V30 8453 C 806.475 -1.9684 1.27638 0
M  V30 8454 C 807.491 -1.73018 0.184569 0
M  V30 8455 O 808.667 -1.97172 0.410525 0
M  V30 8456 C 805.732 -3.31084 1.02879 0
M  V30 8457 C 804.793 -3.67933 2.21188 0
M  V30 8458 C 804.026 -4.95772 1.976 0
M  V30 8459 O 804.249 -5.62721 0.93281 0
M  V30 8460 O 803.183 -5.30431 2.84477 0
M  V30 8461 H 807.009 -2.05346 2.23756 0
M  V30 8462 H 804.594 -0.960772 1.1441 0
M  V30 8463 H 806.476 -4.11492 0.908406 0
M  V30 8464 H 805.151 -3.23552 0.0979821 0
M  V30 8465 H 804.058 -2.87981 2.38784 0
M  V30 8466 H 805.391 -3.80147 3.12648 0
M  V30 8467 N 807.043 -1.17915 -1.04565 0
M  V30 8468 C 808.283 -0.982331 -1.79247 0
M  V30 8469 C 808.647 0.47998 -1.85904 0
M  V30 8470 O 809.848 0.796078 -2.56741 0
M  V30 8471 C 808.119 -1.61329 -3.18916 0
M  V30 8472 S 809.678 -1.56355 -4.09998 0
M  V30 8473 H 806.496 -0.352869 -0.617256 0
M  V30 8474 H 809.098 -1.49971 -1.25415 0
M  V30 8475 H 807.802 -2.66993 -3.11678 0
M  V30 8476 H 807.333 -1.09599 -3.77825 0
M  V30 8477 H 809.348 -0.57593 -4.92846 0
M  V30 8478 N 808.521 1.23394 -0.980386 0
M  V30 8479 C 809.484 2.23092 -0.525619 0
M  V30 8480 C 810.484 1.56129 0.384745 0
M  V30 8481 O 811.674 1.73284 0.178439 0
M  V30 8482 C 808.806 3.40074 0.23712 0
M  V30 8483 H 809.999 2.64839 -1.40714 0
M  V30 8484 H 807.552 1.36227 -0.766275 0
M  V30 8485 H 808.287 3.03783 1.13518 0
M  V30 8486 H 808.072 3.89883 -0.416356 0
M  V30 8487 H 809.562 4.14043 0.543892 0
M  V30 8488 N 809.999 0.752036 1.385 0
M  V30 8489 C 810.929 0.138718 2.33088 0
M  V30 8490 C 811.91 -0.705318 1.54788 0
M  V30 8491 O 813.095 -0.646821 1.83112 0
M  V30 8492 C 810.225 -0.75641 3.38963 0
M  V30 8493 C 809.179 -0.0152239 4.27997 0
M  V30 8494 C 808.505 -1.0285 5.24715 0
M  V30 8495 C 809.805 1.15226 5.09431 0
M  V30 8496 H 811.499 0.928852 2.84627 0
M  V30 8497 H 809.045 0.448111 1.3685 0
M  V30 8498 H 810.998 -1.19513 4.04097 0
M  V30 8499 H 809.722 -1.57885 2.85902 0
M  V30 8500 H 808.381 0.404061 3.64366 0
M  V30 8501 H 808.029 -1.84496 4.67943 0
M  V30 8502 H 807.729 -0.537238 5.85139 0
M  V30 8503 H 809.253 -1.46657 5.92726 0
M  V30 8504 H 810.667 0.791161 5.67815 0
M  V30 8505 H 809.064 1.57428 5.79082 0
M  V30 8506 H 810.134 1.9659 4.43261 0
M  V30 8507 N 811.477 -1.49425 0.500989 0
M  V30 8508 C 812.407 -2.31971 -0.266775 0
M  V30 8509 C 813.388 -1.40245 -0.962563 0
M  V30 8510 O 814.573 -1.69154 -0.953968 0
M  V30 8511 C 811.703 -3.20757 -1.33163 0
M  V30 8512 C 810.657 -4.21275 -0.75572 0
M  V30 8513 C 809.983 -4.98997 -1.92109 0
M  V30 8514 C 811.283 -5.21686 0.253213 0
M  V30 8515 H 812.977 -2.96408 0.422237 0
M  V30 8516 H 810.523 -1.4254 0.204505 0
M  V30 8517 H 812.476 -3.77315 -1.87646 0
M  V30 8518 H 811.2 -2.54263 -2.04983 0
M  V30 8519 H 809.859 -3.65861 -0.232637 0
M  V30 8520 H 809.507 -4.28951 -2.62698 0
M  V30 8521 H 809.207 -5.67011 -1.54182 0
M  V30 8522 H 810.731 -5.584 -2.47026 0
M  V30 8523 H 812.145 -5.72939 -0.203483 0
M  V30 8524 H 810.542 -5.9759 0.548322 0
M  V30 8525 H 811.612 -4.70596 1.16909 0
M  V30 8526 N 812.955 -0.234822 -1.55841 0
M  V30 8527 C 814.203 0.392483 -1.98252 0
M  V30 8528 C 814.524 1.59344 -1.12404 0
M  V30 8529 O 813.794 1.94834 -0.204055 0
M  V30 8530 H 812.374 0.147999 -0.732192 0
M  V30 8531 H 815.036 -0.330804 -1.92072 0
M  V30 8532 H 814.132 0.709829 -3.03921 0
M  V30 8533 N 814.433 1.57553 0.0384317 0
M  V30 8534 C 815.363 2.0898 1.04161 0
M  V30 8535 C 816.344 0.99029 1.38301 0
M  V30 8536 O 817.529 1.26499 1.47349 0
M  V30 8537 C 814.659 2.56145 2.34536 0
M  V30 8538 C 813.613 3.70275 2.14663 0
M  V30 8539 C 812.939 4.03612 3.50715 0
M  V30 8540 C 814.239 4.99067 1.54045 0
M  V30 8541 H 815.933 2.93046 0.613548 0
M  V30 8542 H 813.479 1.40973 0.293684 0
M  V30 8543 H 815.432 2.90741 3.05037 0
M  V30 8544 H 814.156 1.6915 2.79385 0
M  V30 8545 H 812.815 3.36013 1.46597 0
M  V30 8546 H 812.463 3.13698 3.93195 0
M  V30 8547 H 812.163 4.80482 3.38247 0
M  V30 8548 H 813.687 4.40735 4.22593 0
M  V30 8549 H 815.101 5.3168 2.14451 0
M  V30 8550 H 813.498 5.80484 1.52178 0
M  V30 8551 H 814.568 4.8226 0.505259 0
M  V30 8552 N 815.911 -0.310526 1.54511 0
M  V30 8553 C 816.841 -1.38757 1.878 0
M  V30 8554 C 817.822 -1.53353 0.735991 0
M  V30 8555 O 819.007 -1.67018 0.990887 0
M  V30 8556 C 816.137 -2.75327 2.11689 0
M  V30 8557 C 815.091 -2.75506 3.27537 0
M  V30 8558 C 814.417 -4.15275 3.36824 0
M  V30 8559 C 815.717 -2.38093 4.64875 0
M  V30 8560 H 817.411 -1.11146 2.78005 0
M  V30 8561 H 814.957 -0.533232 1.33763 0
M  V30 8562 H 816.91 -3.50752 2.33562 0
M  V30 8563 H 815.634 -3.04443 1.18245 0
M  V30 8564 H 814.293 -2.02538 3.05572 0
M  V30 8565 H 813.941 -4.41553 2.40915 0
M  V30 8566 H 813.641 -4.16299 4.14692 0
M  V30 8567 H 815.165 -4.92493 3.60947 0
M  V30 8568 H 816.579 -3.03232 4.86542 0
M  V30 8569 H 814.976 -2.50345 5.45387 0
M  V30 8570 H 816.046 -1.33227 4.66239 0
M  V30 8571 N 817.389 -1.46805 -0.573248 0
M  V30 8572 C 818.319 -1.60951 -1.69165 0
M  V30 8573 C 819.3 -0.45948 -1.63777 0
M  V30 8574 O 820.485 -0.68688 -1.81647 0
M  V30 8575 C 817.615 -1.60844 -3.07809 0
M  V30 8576 C 816.569 -2.74913 -3.28035 0
M  V30 8577 C 815.895 -2.59871 -4.67302 0
M  V30 8578 C 817.195 -4.16654 -3.14955 0
M  V30 8579 H 818.889 -2.54574 -1.57582 0
M  V30 8580 H 816.435 -1.22516 -0.756686 0
M  V30 8581 H 818.388 -1.69334 -3.85881 0
M  V30 8582 H 817.112 -0.637714 -3.20314 0
M  V30 8583 H 815.771 -2.65908 -2.52366 0
M  V30 8584 H 815.419 -1.60861 -4.76585 0
M  V30 8585 H 815.119 -3.36386 -4.81786 0
M  V30 8586 H 816.643 -2.70265 -5.4753 0
M  V30 8587 H 818.057 -4.26721 -3.82861 0
M  V30 8588 H 816.454 -4.93831 -3.40956 0
M  V30 8589 H 817.524 -4.36146 -2.11908 0
M  V30 8590 N 818.867 0.818669 -1.34668 0
M  V30 8591 C 820.144 1.56118 -1.17841 0
M  V30 8592 C 820.524 2.09646 0.24731 0
M  V30 8593 O 819.872 1.91329 1.24922 0
M  V30 8594 C 820.082 2.67922 -2.23649 0
M  V30 8595 C 821.43 3.36579 -2.58843 0
M  V30 8596 O 822.454 2.78182 -2.22471 0
M  V30 8597 O 821.313 4.42045 -3.21339 0
M  V30 8598 H 818.407 0.689216 -0.457067 0
M  V30 8599 H 820.953 0.859674 -1.46314 0
M  V30 8600 H 819.725 2.26153 -3.19328 0
M  V30 8601 H 819.348 3.45719 -1.96377 0
M  V30 8602 N 820.346 1.18468 1.03938 0
M  V30 8603 C 821.276 0.936389 2.13902 0
M  V30 8604 C 822.257 -0.126381 1.6963 0
M  V30 8605 O 823.442 0.0264757 1.94182 0
M  V30 8606 C 820.572 0.462729 3.44204 0
M  V30 8607 C 819.526 1.46613 4.02105 0
M  V30 8608 C 818.852 0.84994 5.27902 0
M  V30 8609 C 820.152 2.84323 4.3813 0
M  V30 8610 H 821.846 1.85602 2.3493 0
M  V30 8611 H 819.392 0.893806 1.12903 0
M  V30 8612 H 821.345 0.276382 4.20493 0
M  V30 8613 H 820.069 -0.492477 3.22866 0
M  V30 8614 H 818.728 1.63944 3.27899 0
M  V30 8615 H 818.376 -0.112493 5.02874 0
M  V30 8616 H 818.076 1.51988 5.67603 0
M  V30 8617 H 819.6 0.674152 6.06867 0
M  V30 8618 H 821.014 2.70636 5.054 0
M  V30 8619 H 819.411 3.48012 4.88884 0
M  V30 8620 H 820.481 3.37776 3.47901 0
M  V30 8621 N 821.824 -1.22873 0.986916 0
M  V30 8622 C 822.771 -2.2458 0.532215 0
M  V30 8623 C 823.741 -1.60375 -0.432322 0
M  V30 8624 O 824.926 -1.87775 -0.338416 0
M  V30 8625 C 822.066 -3.44761 -0.152864 0
M  V30 8626 C 821.179 -4.23501 0.852704 0
M  V30 8627 C 820.314 -5.31011 0.14176 0
M  V30 8628 C 819.353 -6.01464 1.1361 0
M  V30 8629 N 818.49 -7.00631 0.453871 0
M  V30 8630 H 823.33 -2.62838 1.40428 0
M  V30 8631 H 820.867 -1.29185 0.703543 0
M  V30 8632 H 822.825 -4.1333 -0.566926 0
M  V30 8633 H 821.455 -3.07284 -0.988756 0
M  V30 8634 H 820.507 -3.54286 1.38512 0
M  V30 8635 H 821.819 -4.72097 1.61014 0
M  V30 8636 H 820.973 -6.05805 -0.329337 0
M  V30 8637 H 819.712 -4.83373 -0.648229 0
M  V30 8638 H 818.717 -5.25456 1.61789 0
M  V30 8639 H 819.942 -6.5119 1.92686 0
M  V30 8640 H 817.888 -6.55235 -0.316791 0
M  V30 8641 H 817.805 -7.47204 1.14986 0
M  V30 8642 H 819.073 -7.795 0.00537823 0
M  V30 8643 N 823.302 -0.75937 -1.38099 0
M  V30 8644 C 824.718 -0.437606 -1.53483 0
M  V30 8645 C 824.918 1.04849 -1.72072 0
M  V30 8646 O 823.974 1.83448 -1.73502 0
M  V30 8647 C 825.287 -1.24189 -2.73857 0
M  V30 8648 C 826.835 -1.23255 -2.8771 0
M  V30 8649 C 827.31 -2.01992 -4.11051 0
M  V30 8650 N 828.801 -1.99282 -4.1814 0
M  V30 8651 C 829.536 -2.56996 -5.12583 0
M  V30 8652 N 829.032 -3.23446 -6.12662 0
M  V30 8653 N 830.825 -2.46894 -5.04975 0
M  V30 8654 H 822.976 -1.72242 -1.24283 0
M  V30 8655 H 825.239 -0.730507 -0.604205 0
M  V30 8656 H 824.945 -2.29449 -2.66545 0
M  V30 8657 H 824.819 -0.862672 -3.67203 0
M  V30 8658 H 827.206 -0.187988 -2.94501 0
M  V30 8659 H 827.287 -1.65132 -1.95359 0
M  V30 8660 H 826.931 -3.06462 -4.05023 0
M  V30 8661 H 826.861 -1.57505 -5.02494 0
M  V30 8662 H 829.352 -1.50893 -3.46467 0
M  V30 8663 H 829.665 -3.6489 -6.81231 0
M  V30 8664 H 828.01 -3.27543 -6.12977 0
M  V30 8665 H 831.201 -1.94604 -4.25731 0
M  V30 8666 H 831.374 -2.92168 -5.78396 0
M  V30 8667 N 824.78 1.49157 -0.508906 0
M  V30 8668 C 826.057 1.95363 0.0961913 0
M  V30 8669 C 826.437 1.45064 1.53362 0
M  V30 8670 O 825.785 0.667835 2.18523 0
M  V30 8671 C 825.995 3.49 0.000688881 0
M  V30 8672 C 827.343 4.24257 0.170632 0
M  V30 8673 O 828.367 3.5612 0.0754994 0
M  V30 8674 O 827.226 5.45267 0.366957 0
M  V30 8675 H 824.32 0.821984 0.0909489 0
M  V30 8676 H 826.866 1.59769 -0.572007 0
M  V30 8677 H 825.638 3.78269 -1.00143 0
M  V30 8678 H 825.261 3.91233 0.708682 0
M  V30 8679 N 826.258 0.243083 1.55714 0
M  V30 8680 C 827.488 -0.38641 2.02954 0
M  V30 8681 C 827.896 -1.52358 1.12177 0
M  V30 8682 O 827.239 -1.83255 0.127853 0
M  V30 8683 C 827.301 -0.959388 3.46462 0
M  V30 8684 C 826.965 0.0450546 4.56978 0
M  V30 8685 C 827.962 0.853224 5.12851 0
M  V30 8686 C 825.647 0.170041 5.02012 0
M  V30 8687 C 827.641 1.77288 6.12248 0
M  V30 8688 C 825.328 1.0932 6.01242 0
M  V30 8689 C 826.326 1.89315 6.56238 0
M  V30 8690 O 826.014 2.80075 7.53534 0
M  V30 8691 H 825.746 -0.0964333 0.669086 0
M  V30 8692 H 828.3 0.363399 2.0216 0
M  V30 8693 H 826.53 -1.75869 3.44394 0
M  V30 8694 H 828.219 -1.49856 3.77224 0
M  V30 8695 H 828.985 0.767229 4.78893 0
M  V30 8696 H 824.864 -0.442528 4.58871 0
M  V30 8697 H 828.408 2.39768 6.55101 0
M  V30 8698 H 824.305 1.18013 6.3462 0
M  V30 8699 H 825.073 2.74393 7.71136 0
M  V30 8700 N 827.736 -1.57571 -0.0300757 0
M  V30 8701 C 828.668 -2.0329 -1.05857 0
M  V30 8702 C 829.681 -0.945543 -1.32527 0
M  V30 8703 O 830.87 -1.22287 -1.30032 0
M  V30 8704 C 827.97 -2.39234 -2.40042 0
M  V30 8705 C 827.143 -3.70337 -2.32743 0
M  V30 8706 C 826.202 -3.93482 -3.49369 0
M  V30 8707 O 825.228 -4.64551 -3.28909 0
M  V30 8708 N 826.43 -3.39042 -4.71201 0
M  V30 8709 H 829.195 -2.9214 -0.668897 0
M  V30 8710 H 826.756 -1.60425 -0.218038 0
M  V30 8711 H 828.748 -2.51856 -3.16782 0
M  V30 8712 H 827.318 -1.5606 -2.70858 0
M  V30 8713 H 826.538 -3.68079 -1.41109 0
M  V30 8714 H 827.826 -4.56343 -2.25007 0
M  V30 8715 H 827.224 -2.81434 -4.90725 0
M  V30 8716 H 825.781 -3.57045 -5.45309 0
M  V30 8717 N 829.214 0.302327 -1.54673 0
M  V30 8718 C 830.491 1.05721 -1.64567 0
M  V30 8719 C 830.871 2.0526 -0.493108 0
M  V30 8720 O 830.219 2.22729 0.510315 0
M  V30 8721 C 830.429 1.74025 -3.02517 0
M  V30 8722 C 831.777 2.26271 -3.59286 0
M  V30 8723 O 832.801 1.8406 -3.0496 0
M  V30 8724 O 831.66 3.0361 -4.54404 0
M  V30 8725 H 828.754 0.488577 -0.667249 0
M  V30 8726 H 831.3 0.300521 -1.67018 0
M  V30 8727 H 830.072 1.0174 -3.77842 0
M  V30 8728 H 829.695 2.56454 -3.03838 0
M  V30 8729 N 830.692 1.47107 0.565454 0
M  V30 8730 C 831.938 1.53535 1.32495 0
M  V30 8731 C 832.271 0.193537 1.93233 0
M  V30 8732 O 831.546 -0.796956 1.77423 0
M  V30 8733 C 831.829 2.64712 2.4413 0
M  V30 8734 C 831.682 4.08482 1.88314 0
M  V30 8735 C 833.001 2.71853 3.46098 0
M  V30 8736 H 830.12 0.558926 0.480386 0
M  V30 8737 H 832.762 1.79125 0.633575 0
M  V30 8738 H 830.912 2.43023 3.03104 0
M  V30 8739 H 832.584 4.4151 1.33665 0
M  V30 8740 H 830.827 4.17148 1.19037 0
M  V30 8741 H 831.498 4.82032 2.68978 0
M  V30 8742 H 833.974 2.91397 2.97031 0
M  V30 8743 H 832.85 3.51433 4.21646 0
M  V30 8744 H 833.111 1.78584 4.04426 0
M  V30 8745 N 832.17 -0.811516 1.35101 0
M  V30 8746 C 833.586 -1.10634 1.15031 0
M  V30 8747 C 833.786 -2.01459 -0.0405379 0
M  V30 8748 O 832.842 -2.42235 -0.712635 0
M  V30 8749 C 834.155 -1.74207 2.45097 0
M  V30 8750 C 835.703 -1.8665 2.51258 0
M  V30 8751 C 836.178 -2.53638 3.81355 0
M  V30 8752 N 837.669 -2.61128 3.82579 0
M  V30 8753 C 838.404 -3.13717 4.79968 0
M  V30 8754 N 837.9 -3.66782 5.87744 0
M  V30 8755 N 839.693 -3.12224 4.67411 0
M  V30 8756 H 831.844 -0.207641 2.11383 0
M  V30 8757 H 834.107 -0.154697 0.935293 0
M  V30 8758 H 833.813 -1.14936 3.32389 0
M  V30 8759 H 833.687 -2.73958 2.59281 0
M  V30 8760 H 836.074 -2.45066 1.64398 0
M  V30 8761 H 836.155 -0.857678 2.40993 0
M  V30 8762 H 835.799 -1.95873 4.68611 0
M  V30 8763 H 835.729 -3.55047 3.88907 0
M  V30 8764 H 838.22 -2.23527 3.04703 0
M  V30 8765 H 838.533 -4.05194 6.58056 0
M  V30 8766 H 836.878 -3.64994 5.91443 0
M  V30 8767 H 840.069 -2.70042 3.82354 0
M  V30 8768 H 840.242 -3.52903 5.43474 0
M  V30 8769 N 833.648 -1.19017 -1.03309 0
M  V30 8770 C 834.596 -0.920627 -2.13605 0
M  V30 8771 C 835.59 0.121969 -1.6896 0
M  V30 8772 O 836.796 -0.0268854 -1.7998 0
M  V30 8773 H 833.171 -0.280284 -0.697814 0
M  V30 8774 H 835.142 -1.85755 -2.33533 0
M  V30 8775 C 833.891 -0.471198 -3.44492 0
M  V30 8776 H 833.214 -1.26499 -3.7926 0
M  V30 8777 H 834.654 -0.321663 -4.22778 0
M  V30 8778 C 833.113 0.81411 -3.26916 0
M  V30 8779 O 833.643 1.87654 -3.55175 0
M  V30 8780 N 831.849 0.769695 -2.80221 0
M  V30 8781 H 831.396 -0.0951278 -2.57424 0
M  V30 8782 H 831.354 1.63008 -2.68842 0
M  V30 8783 N 835.127 1.22348 -0.993418 0
M  V30 8784 C 836.037 2.27987 -0.553076 0
M  V30 8785 C 837.053 1.69378 0.398386 0
M  V30 8786 O 838.229 1.99648 0.26509 0
M  V30 8787 C 835.294 3.46475 0.124809 0
M  V30 8788 C 834.355 4.20399 -0.869682 0
M  V30 8789 C 833.588 5.33229 -0.224052 0
M  V30 8790 O 833.811 5.61885 0.981915 0
M  V30 8791 O 832.745 5.94685 -0.929174 0
M  V30 8792 H 836.571 2.67822 -1.43195 0
M  V30 8793 H 834.156 1.28525 -0.761694 0
M  V30 8794 H 836.038 4.18369 0.504496 0
M  V30 8795 H 834.713 3.08565 0.978243 0
M  V30 8796 H 833.62 3.50774 -1.30031 0
M  V30 8797 H 834.953 4.62191 -1.69233 0
M  V30 8798 N 836.605 0.766683 1.37694 0
M  V30 8799 C 837.854 0.325425 1.99057 0
M  V30 8800 C 838.167 -1.10275 1.61551 0
M  V30 8801 O 839.373 -1.64513 2.1598 0
M  V30 8802 C 837.829 0.530886 3.55963 0
M  V30 8803 C 837.437 1.96899 4.02411 0
M  V30 8804 C 839.181 0.152997 4.24224 0
M  V30 8805 C 837.088 2.12232 5.52007 0
M  V30 8806 H 836.018 0.117929 0.744721 0
M  V30 8807 H 838.669 0.945091 1.5729 0
M  V30 8808 H 837.051 -0.158162 3.95684 0
M  V30 8809 H 838.225 2.69258 3.73948 0
M  V30 8810 H 836.54 2.303 3.46916 0
M  V30 8811 H 839.137 0.24614 5.34133 0
M  V30 8812 H 839.48 -0.896096 4.06541 0
M  V30 8813 H 840.013 0.794398 3.89787 0
M  V30 8814 H 836.752 3.15442 5.7461 0
M  V30 8815 H 836.272 1.4435 5.82171 0
M  V30 8816 H 837.951 1.9185 6.17902 0
M  V30 8817 N 838.083 -1.48885 0.516809 0
M  V30 8818 C 839.494 -1.86557 0.0729921 0
M  V30 8819 C 839.845 -1.42767 -1.34581 0
M  V30 8820 O 838.97 -0.812514 -2.00567 0
M  V30 8821 C 839.565 -3.38567 0.125686 0
M  V30 8822 C 838.124 -3.75481 -0.262867 0
M  V30 8823 C 837.271 -2.72913 0.491281 0
M  V30 8824 H 840.222 -1.40978 0.728767 0
M  V30 8825 H 840.243 -3.74629 -0.665831 0
M  V30 8826 H 839.755 -3.70408 1.15842 0
M  V30 8827 H 837.856 -3.49251 -1.29824 0
M  V30 8828 H 837.969 -4.79052 0.067579 0
M  V30 8829 H 836.333 -2.54627 -0.0608525 0
M  V30 8830 H 837.116 -3.07599 1.5244 0
M  V30 8831 N 839.561 -0.251338 -1.55583 0
M  V30 8832 C 840.471 0.656978 -2.25213 0
M  V30 8833 C 841.487 1.18966 -1.26977 0
M  V30 8834 O 842.663 1.22499 -1.59862 0
M  V30 8835 C 839.728 1.83527 -2.94141 0
M  V30 8836 C 838.789 1.34162 -4.07798 0
M  V30 8837 C 838.022 2.46375 -4.73429 0
M  V30 8838 O 838.245 3.65205 -4.38157 0
M  V30 8839 O 837.179 2.15881 -5.61853 0
M  V30 8840 H 841.005 0.0936395 -3.03556 0
M  V30 8841 H 838.59 -0.0196638 -1.49387 0
M  V30 8842 H 840.472 2.52279 -3.3754 0
M  V30 8843 H 839.147 2.38614 -2.18735 0
M  V30 8844 H 838.054 0.621249 -3.68906 0
M  V30 8845 H 839.387 0.836779 -4.85035 0
M  V30 8846 N 841.039 1.57585 0.0217189 0
M  V30 8847 C 841.949 2.10444 1.03684 0
M  V30 8848 C 842.965 1.04472 1.39146 0
M  V30 8849 O 844.141 1.36249 1.48317 0
M  V30 8850 C 841.206 2.5794 2.31664 0
M  V30 8851 C 840.267 3.78425 2.02714 0
M  V30 8852 C 839.5 4.23646 3.24592 0
M  V30 8853 O 839.723 3.6834 4.35525 0
M  V30 8854 O 838.657 5.16013 3.09862 0
M  V30 8855 H 842.483 2.97354 0.617584 0
M  V30 8856 H 840.068 1.47473 0.239174 0
M  V30 8857 H 841.95 2.88785 3.06889 0
M  V30 8858 H 840.625 1.74138 2.7287 0
M  V30 8859 H 839.532 3.52587 1.25033 0
M  V30 8860 H 840.865 4.63234 1.66359 0
M  V30 8861 N 842.517 -0.29412 1.54831 0
M  V30 8862 C 843.48 -1.3461 1.85507 0
M  V30 8863 C 844.48 -1.43359 0.728343 0
M  V30 8864 O 845.67 -1.42875 0.996609 0
M  V30 8865 C 842.802 -2.73012 2.0415 0
M  V30 8866 H 843.995 -1.08651 2.79526 0
M  V30 8867 H 841.548 -0.531138 1.46999 0
M  V30 8868 H 842.283 -3.04183 1.12441 0
M  V30 8869 H 842.068 -2.68051 2.86166 0
M  V30 8870 H 843.558 -3.49061 2.29229 0
M  V30 8871 N 843.995 -1.47404 -0.557645 0
M  V30 8872 C 844.925 -1.62736 -1.67449 0
M  V30 8873 C 845.906 -0.476824 -1.6328 0
M  V30 8874 O 847.091 -0.706108 -1.80908 0
M  V30 8875 C 844.221 -1.641 -3.06086 0
M  V30 8876 C 843.175 -2.78377 -3.25101 0
M  V30 8877 C 842.501 -2.64812 -4.6452 0
M  V30 8878 C 843.801 -4.19971 -3.10518 0
M  V30 8879 H 845.495 -2.56232 -1.54873 0
M  V30 8880 H 843.041 -1.23312 -0.743649 0
M  V30 8881 H 844.994 -1.73417 -3.84063 0
M  V30 8882 H 843.718 -0.671652 -3.19619 0
M  V30 8883 H 842.377 -2.6857 -2.49531 0
M  V30 8884 H 842.025 -1.65906 -4.74852 0
M  V30 8885 H 841.725 -3.41477 -4.78191 0
M  V30 8886 H 843.249 -2.76057 -5.44633 0
M  V30 8887 H 844.663 -4.30757 -3.78313 0
M  V30 8888 H 843.06 -4.97419 -3.35699 0
M  V30 8889 H 844.13 -4.38369 -2.0727 0
M  V30 8890 N 845.473 0.80434 -1.35529 0
M  V30 8891 C 846.703 1.59052 -1.31856 0
M  V30 8892 C 847.111 1.88905 0.105549 0
M  V30 8893 O 846.454 1.49422 1.06858 0
M  V30 8894 C 846.516 2.94626 -2.06 0
M  V30 8895 C 846.18 2.87576 -3.55175 0
M  V30 8896 C 847.177 2.60856 -4.49722 0
M  V30 8897 C 844.862 3.06623 -3.97854 0
M  V30 8898 C 846.856 2.53262 -5.84925 0
M  V30 8899 C 844.543 2.98652 -5.33151 0
M  V30 8900 C 845.541 2.72007 -6.26499 0
M  V30 8901 O 845.229 2.64003 -7.59314 0
M  V30 8902 H 844.961 0.500486 -0.454411 0
M  V30 8903 H 847.515 1.0074 -1.78999 0
M  V30 8904 H 845.745 3.5493 -1.53498 0
M  V30 8905 H 847.434 3.55785 -1.95376 0
M  V30 8906 H 848.2 2.45858 -4.18066 0
M  V30 8907 H 844.079 3.26372 -3.2558 0
M  V30 8908 H 847.623 2.32386 -6.57756 0
M  V30 8909 H 843.52 3.13208 -5.64421 0
M  V30 8910 H 844.288 2.79595 -7.69265 0
M  V30 8911 N 846.951 1.19563 1.02676 0
M  V30 8912 C 847.898 0.935291 2.11 0
M  V30 8913 C 848.868 -0.130685 1.65585 0
M  V30 8914 O 850.053 0.0119062 1.90796 0
M  V30 8915 C 847.193 0.482384 3.41712 0
M  V30 8916 C 846.306 1.61537 4.00662 0
M  V30 8917 C 845.441 1.11378 5.19392 0
M  V30 8918 C 844.48 2.22052 5.70403 0
M  V30 8919 N 843.617 1.73185 6.80405 0
M  V30 8920 H 848.457 1.86275 2.32606 0
M  V30 8921 H 845.994 0.928656 1.14081 0
M  V30 8922 H 847.952 0.20118 4.16715 0
M  V30 8923 H 846.582 -0.408086 3.2021 0
M  V30 8924 H 845.634 2.01173 3.22852 0
M  V30 8925 H 846.946 2.44912 4.34534 0
M  V30 8926 H 846.1 0.787935 6.01562 0
M  V30 8927 H 844.839 0.249789 4.8706 0
M  V30 8928 H 843.844 2.55465 4.86845 0
M  V30 8929 H 845.069 3.08911 6.04774 0
M  V30 8930 H 843.015 0.890973 6.49921 0
M  V30 8931 H 842.932 2.50148 7.13416 0
M  V30 8932 H 844.2 1.4357 7.66164 0
M  V30 8933 N 848.429 -1.21819 0.999893 0
M  V30 8934 C 849.675 -1.91035 0.680701 0
M  V30 8935 C 850.008 -1.77582 -0.786021 0
M  V30 8936 O 849.283 -1.14917 -1.56921 0
M  V30 8937 C 849.566 -3.43013 1.0961 0
M  V30 8938 C 849.419 -3.65481 2.6219 0
M  V30 8939 C 850.738 -4.35204 0.654616 0
M  V30 8940 H 847.857 -0.693748 0.248763 0
M  V30 8941 H 850.499 -1.43555 1.24466 0
M  V30 8942 H 848.649 -3.83581 0.616253 0
M  V30 8943 H 850.321 -3.34273 3.17899 0
M  V30 8944 H 848.564 -3.09522 3.03938 0
M  V30 8945 H 849.235 -4.71945 2.86307 0
M  V30 8946 H 851.711 -4.0219 1.06688 0
M  V30 8947 H 850.587 -5.40198 0.973492 0
M  V30 8948 H 850.848 -4.3986 -0.444458 0
M  V30 8949 N 849.908 -0.773975 -1.37286 0
M  V30 8950 C 851.138 -0.350249 -2.03609 0
M  V30 8951 C 851.546 1.03313 -1.58502 0
M  V30 8952 O 850.889 1.67118 -0.7627 0
M  V30 8953 C 850.951 -0.317215 -3.58098 0
M  V30 8954 C 850.615 -1.64556 -4.26345 0
M  V30 8955 C 851.612 -2.59839 -4.50311 0
M  V30 8956 C 849.297 -1.92061 -4.64131 0
M  V30 8957 C 851.291 -3.80833 -5.11122 0
M  V30 8958 C 848.978 -3.13325 -5.24663 0
M  V30 8959 C 849.976 -4.0753 -5.48095 0
M  V30 8960 O 849.664 -5.26658 -6.0736 0
M  V30 8961 H 849.396 -0.144456 -0.660385 0
M  V30 8962 H 851.95 -1.0496 -1.76557 0
M  V30 8963 H 850.18 0.438528 -3.84205 0
M  V30 8964 H 851.869 0.0797428 -4.05822 0
M  V30 8965 H 852.635 -2.39872 -4.21529 0
M  V30 8966 H 848.514 -1.19562 -4.45226 0
M  V30 8967 H 852.058 -4.54377 -5.29327 0
M  V30 8968 H 847.955 -3.33177 -5.52869 0
M  V30 8969 H 848.723 -5.27513 -6.25837 0
M  V30 8970 N 851.386 1.48609 -0.524698 0
M  V30 8971 C 852.614 2.06899 0.00742946 0
M  V30 8972 C 853.029 1.38196 1.28637 0
M  V30 8973 O 852.386 0.467771 1.76403 0
M  V30 8974 C 852.437 3.60699 0.240548 0
M  V30 8975 O 852.158 4.26821 -0.987715 0
M  V30 8976 C 853.659 4.35769 0.813652 0
M  V30 8977 H 850.879 0.670278 -0.0311294 0
M  V30 8978 H 853.423 1.91071 -0.728832 0
M  V30 8979 H 851.578 3.76149 0.926845 0
M  V30 8980 H 851.992 5.18889 -0.765175 0
M  V30 8981 H 853.466 5.44174 0.926219 0
M  V30 8982 H 853.943 3.9984 1.81728 0
M  V30 8983 H 854.549 4.24983 0.164086 0
M  V30 8984 N 852.864 0.259585 1.55447 0
M  V30 8985 C 854.111 -0.361607 1.99245 0
M  V30 8986 C 854.439 -1.57017 1.14787 0
M  V30 8987 O 853.694 -1.94658 0.201724 0
M  V30 8988 C 853.993 -0.802727 3.48269 0
M  V30 8989 C 853.659 0.299472 4.49904 0
M  V30 8990 C 852.321 0.602157 4.77418 0
M  V30 8991 C 854.673 1.04295 5.10658 0
M  V30 8992 C 852.001 1.65217 5.62957 0
M  V30 8993 C 854.353 2.08257 5.97337 0
M  V30 8994 C 853.017 2.39177 6.23178 0
M  V30 8995 H 852.287 -0.132322 0.72909 0
M  V30 8996 H 854.934 0.370059 1.8789 0
M  V30 8997 H 853.239 -1.61381 3.5702 0
M  V30 8998 H 854.936 -1.29385 3.79553 0
M  V30 8999 H 851.526 0.0534256 4.28567 0
M  V30 9000 H 855.71 0.822358 4.89439 0
M  V30 9001 H 850.966 1.89692 5.81229 0
M  V30 9002 H 855.14 2.6635 6.43452 0
M  V30 9003 H 852.767 3.20677 6.89253 0
M  V30 9004 N 854.342 -1.57594 -0.0133615 0
M  V30 9005 C 855.29 -2.08682 -1.02736 0
M  V30 9006 C 856.284 -1.00391 -1.36448 0
M  V30 9007 O 857.49 -1.18868 -1.35168 0
M  V30 9008 H 853.865 -0.666158 -0.34891 0
M  V30 9009 H 855.836 -2.9289 -0.570815 0
M  V30 9010 C 854.585 -2.5945 -2.31476 0
M  V30 9011 H 853.908 -3.42401 -2.06401 0
M  V30 9012 H 855.348 -2.98888 -3.00735 0
M  V30 9013 C 853.807 -1.50266 -3.01533 0
M  V30 9014 O 854.337 -0.877875 -3.9199 0
M  V30 9015 N 852.543 -1.23336 -2.63129 0
M  V30 9016 H 852.09 -1.74327 -1.89652 0
M  V30 9017 H 852.048 -0.504987 -3.10318 0
M  V30 9018 N 855.82 0.285905 -1.54985 0
M  V30 9019 C 857.045 1.04207 -1.7932 0
M  V30 9020 C 857.47 1.79622 -0.558343 0
M  V30 9021 O 856.828 1.74506 0.491661 0
M  V30 9022 C 856.876 1.98648 -3.0095 0
M  V30 9023 O 855.98 3.07207 -2.75132 0
M  V30 9024 H 855.321 0.298596 -0.593074 0
M  V30 9025 H 857.851 0.318736 -2.02102 0
M  V30 9026 H 857.861 2.4084 -3.29333 0
M  V30 9027 H 856.536 1.43167 -3.90482 0
M  V30 9028 H 855.113 2.69423 -2.57809 0
M  V30 9029 N 857.298 1.47698 0.54982 0
M  V30 9030 C 858.544 1.54931 1.30859 0
M  V30 9031 C 858.877 0.214021 1.93017 0
M  V30 9032 O 858.152 -0.778093 1.78258 0
M  V30 9033 C 858.435 2.67286 2.41309 0
M  V30 9034 C 858.288 4.10457 1.83971 0
M  V30 9035 C 859.607 2.75509 3.43195 0
M  V30 9036 H 856.726 0.56399 0.474431 0
M  V30 9037 H 859.368 1.79787 0.614541 0
M  V30 9038 H 857.518 2.46224 3.0051 0
M  V30 9039 H 859.19 4.42903 1.28974 0
M  V30 9040 H 857.433 4.18387 1.14606 0
M  V30 9041 H 858.104 4.84857 2.63851 0
M  V30 9042 H 860.58 2.94531 2.93923 0
M  V30 9043 H 859.456 3.55886 4.17895 0
M  V30 9044 H 859.717 1.82863 4.02509 0
M  V30 9045 N 858.776 -0.797141 1.35954 0
M  V30 9046 C 860.192 -1.09408 1.16198 0
M  V30 9047 C 860.392 -2.01491 -0.0191682 0
M  V30 9048 O 859.448 -2.42977 -0.686902 0
M  V30 9049 C 860.761 -1.71597 2.46931 0
M  V30 9050 C 862.309 -1.83974 2.53224 0
M  V30 9051 C 862.784 -2.49579 3.84024 0
M  V30 9052 N 864.275 -2.57055 3.85327 0
M  V30 9053 C 865.01 -3.08608 4.83268 0
M  V30 9054 N 864.506 -3.60527 5.91601 0
M  V30 9055 N 866.299 -3.07249 4.70696 0
M  V30 9056 H 858.45 -0.185209 2.11591 0
M  V30 9057 H 860.713 -0.144768 0.936881 0
M  V30 9058 H 860.419 -1.11404 3.3359 0
M  V30 9059 H 860.293 -2.71193 2.62172 0
M  V30 9060 H 862.68 -2.43308 1.66988 0
M  V30 9061 H 862.761 -0.83207 2.41889 0
M  V30 9062 H 862.405 -1.90892 4.70662 0
M  V30 9063 H 862.335 -3.50902 3.92651 0
M  V30 9064 H 864.826 -2.20283 3.07057 0
M  V30 9065 H 865.139 -3.98192 6.62317 0
M  V30 9066 H 863.484 -3.587 5.95281 0
M  V30 9067 H 866.675 -2.65972 3.85197 0
M  V30 9068 H 866.848 -3.47119 5.47186 0
M  V30 9069 N 860.254 -1.20106 -1.0204 0
M  V30 9070 C 861.201 -0.946468 -2.10501 0
M  V30 9071 C 862.171 0.121902 -1.65652 0
M  V30 9072 O 863.356 -0.0220244 -1.90787 0
M  V30 9073 C 860.496 -0.500499 -3.41451 0
M  V30 9074 C 859.609 -1.63659 -3.998 0
M  V30 9075 C 858.744 -1.14131 -5.18794 0
M  V30 9076 C 857.783 -2.25074 -5.69217 0
M  V30 9077 N 856.92 -1.76791 -6.79477 0
M  V30 9078 H 861.76 -1.87506 -2.31615 0
M  V30 9079 H 859.297 -0.934693 -1.13587 0
M  V30 9080 H 861.255 -0.223276 -4.16602 0
M  V30 9081 H 859.885 0.391099 -3.20422 0
M  V30 9082 H 858.937 -2.02882 -3.21781 0
M  V30 9083 H 860.249 -2.47213 -4.33229 0
M  V30 9084 H 859.403 -0.819826 -6.01135 0
M  V30 9085 H 858.142 -0.275615 -4.86921 0
M  V30 9086 H 857.147 -2.58043 -4.85483 0
M  V30 9087 H 858.372 -3.12114 -6.03127 0
M  V30 9088 H 856.318 -0.925428 -6.4944 0
M  V30 9089 H 856.235 -2.53928 -7.12079 0
M  V30 9090 H 857.503 -1.47631 -7.65392 0
M  V30 9091 N 861.732 1.21287 -1.00634 0
M  V30 9092 C 862.957 1.94925 -0.708441 0
M  V30 9093 C 863.382 1.73659 0.722783 0
M  V30 9094 O 862.74 1.02429 1.49593 0
M  V30 9095 C 862.788 3.45377 -1.03667 0
M  V30 9096 O 861.892 4.12153 -0.142661 0
M  V30 9097 H 861.233 0.609338 -0.263824 0
M  V30 9098 H 863.763 1.54008 -1.34695 0
M  V30 9099 H 863.773 3.95954 -0.984086 0
M  V30 9100 H 862.448 3.6018 -2.0795 0
M  V30 9101 H 861.025 3.72048 -0.251888 0
M  V30 9102 N 863.21 0.781244 1.36873 0
M  V30 9103 C 864.143 0.120106 2.27884 0
M  V30 9104 C 865.121 -0.698961 1.4681 0
M  V30 9105 O 866.305 -0.671694 1.76126 0
M  V30 9106 C 863.432 -0.835804 3.28226 0
M  V30 9107 C 862.478 -0.0995527 4.26384 0
M  V30 9108 S 863.311 1.21903 5.2144 0
M  V30 9109 C 864.467 0.266904 6.25331 0
M  V30 9110 H 864.7 0.891796 2.83609 0
M  V30 9111 H 862.233 0.575075 1.43291 0
M  V30 9112 H 864.191 -1.3819 3.86541 0
M  V30 9113 H 862.852 -1.58068 2.71428 0
M  V30 9114 H 862.045 -0.82457 4.97209 0
M  V30 9115 H 861.647 0.375818 3.72107 0
M  V30 9116 H 863.939 -0.55725 6.75204 0
M  V30 9117 H 864.882 0.943603 7.01785 0
M  V30 9118 H 865.29 -0.126121 5.64359 0
M  V30 9119 N 864.689 -1.48329 0.532571 0
M  V30 9120 C 865.914 -2.074 0.00147755 0
M  V30 9121 C 866.339 -1.38615 -1.27151 0
M  V30 9122 O 865.697 -0.452949 -1.75551 0
M  V30 9123 C 865.745 -3.60029 -0.202866 0
M  V30 9124 O 864.849 -3.92327 -1.27097 0
M  V30 9125 H 864.19 -0.662777 0.0402883 0
M  V30 9126 H 866.72 -1.90701 0.741224 0
M  V30 9127 H 866.73 -4.05783 -0.424722 0
M  V30 9128 H 865.405 -4.09496 0.727033 0
M  V30 9129 H 863.982 -3.58348 -1.03156 0
M  V30 9130 N 866.167 -0.267825 -1.55308 0
M  V30 9131 C 867.395 0.354587 -2.03839 0
M  V30 9132 C 867.81 1.50007 -1.14644 0
M  V30 9133 O 867.167 1.81752 -0.165055 0
M  V30 9134 C 867.218 0.84254 -3.51544 0
M  V30 9135 O 866.939 -0.257318 -4.37344 0
M  V30 9136 C 868.44 1.53351 -4.15931 0
M  V30 9137 H 865.66 0.0818131 -0.665994 0
M  V30 9138 H 868.204 -0.397795 -2.00594 0
M  V30 9139 H 866.359 1.54503 -3.55257 0
M  V30 9140 H 866.773 0.116593 -5.2437 0
M  V30 9141 H 868.247 1.82643 -5.20908 0
M  V30 9142 H 868.724 2.4626 -3.63666 0
M  V30 9143 H 869.33 0.87506 -4.162 0
M  V30 9144 N 867.645 1.57599 0.00500368 0
M  V30 9145 C 868.891 1.90631 0.691919 0
M  V30 9146 C 869.224 0.868443 1.737 0
M  V30 9147 O 868.499 -0.113482 1.94169 0
M  V30 9148 C 868.782 3.34255 1.33961 0
M  V30 9149 C 868.635 4.48755 0.306413 0
M  V30 9150 C 869.954 3.77211 2.26715 0
M  V30 9151 H 867.073 0.693279 0.250066 0
M  V30 9152 H 869.715 1.89946 -0.0452634 0
M  V30 9153 H 867.865 3.3497 1.96793 0
M  V30 9154 H 869.537 4.60176 -0.321841 0
M  V30 9155 H 867.78 4.32203 -0.371852 0
M  V30 9156 H 868.451 5.46193 0.798554 0
M  V30 9157 H 870.927 3.78017 1.73904 0
M  V30 9158 H 869.803 4.78466 2.69002 0
M  V30 9159 H 870.064 3.10801 3.14413 0
M  V30 9160 N 869.123 -0.277682 1.55134 0
M  V30 9161 C 870.053 -1.34742 1.90701 0
M  V30 9162 C 871.034 -1.51757 0.768354 0
M  V30 9163 O 872.219 -1.64879 1.02609 0
M  V30 9164 C 869.349 -2.70775 2.17481 0
M  V30 9165 C 868.303 -2.68497 3.33307 0
M  V30 9166 C 867.629 -4.08037 3.45557 0
M  V30 9167 C 868.929 -2.28178 4.69821 0
M  V30 9168 H 870.623 -1.05224 2.803 0
M  V30 9169 H 868.169 -0.504738 1.34864 0
M  V30 9170 H 870.122 -3.45719 2.40949 0
M  V30 9171 H 868.846 -3.01867 1.24676 0
M  V30 9172 H 867.505 -1.9601 3.09799 0
M  V30 9173 H 867.153 -4.36344 2.50226 0
M  V30 9174 H 866.853 -4.07409 4.23429 0
M  V30 9175 H 868.377 -4.84726 3.71312 0
M  V30 9176 H 869.791 -2.92843 4.92865 0
M  V30 9177 H 868.188 -2.3872 5.50575 0
M  V30 9178 H 869.258 -1.23308 4.6896 0
M  V30 9179 N 870.601 -1.47988 -0.541979 0
M  V30 9180 C 871.548 -1.61615 -1.6477 0
M  V30 9181 C 872.518 -0.458602 -1.59644 0
M  V30 9182 O 873.703 -0.680585 -1.78249 0
M  V30 9183 C 870.843 -1.65066 -3.03063 0
M  V30 9184 C 869.956 -2.91845 -3.18513 0
M  V30 9185 C 869.091 -2.86534 -4.47294 0
M  V30 9186 C 868.13 -4.0807 -4.5623 0
M  V30 9187 N 867.267 -4.00905 -5.76385 0
M  V30 9188 H 872.107 -2.56046 -1.52461 0
M  V30 9189 H 869.644 -1.26989 -0.742449 0
M  V30 9190 H 871.602 -1.65049 -3.83164 0
M  V30 9191 H 870.232 -0.74136 -3.14171 0
M  V30 9192 H 869.284 -3.01661 -2.31743 0
M  V30 9193 H 870.596 -3.81804 -3.20978 0
M  V30 9194 H 869.75 -2.84851 -5.35672 0
M  V30 9195 H 868.489 -1.94283 -4.47332 0
M  V30 9196 H 867.494 -4.10041 -3.66261 0
M  V30 9197 H 868.719 -5.01465 -4.5794 0
M  V30 9198 H 866.665 -3.11467 -5.77342 0
M  V30 9199 H 866.582 -4.84557 -5.80293 0
M  V30 9200 H 867.85 -4.03263 -6.67083 0
M  V30 9201 N 872.079 0.78992 -1.36375 0
M  V30 9202 C 873.027 1.92394 -1.30719 0
M  V30 9203 C 874.021 1.68226 -0.199076 0
M  V30 9204 O 875.227 1.76239 -0.366051 0
M  V30 9205 H 871.602 0.632382 -0.406936 0
M  V30 9206 H 873.573 1.94282 -2.26488 0
M  V30 9207 C 872.322 3.2941 -1.11284 0
M  V30 9208 H 871.645 3.48573 -1.95798 0
M  V30 9209 H 873.085 4.09111 -1.11373 0
M  V30 9210 C 871.544 3.36405 0.182543 0
M  V30 9211 O 872.074 3.84206 1.17255 0
M  V30 9212 N 870.28 2.89712 0.227046 0
M  V30 9213 H 869.827 2.51004 -0.579217 0
M  V30 9214 H 869.785 2.94773 1.09344 0
M  V30 9215 N 873.557 1.20646 1.01402 0
M  V30 9216 C 874.782 1.04462 1.79172 0
M  V30 9217 C 875.207 -0.401588 1.83763 0
M  V30 9218 O 874.565 -1.28934 1.27459 0
M  V30 9219 C 874.613 1.63583 3.21361 0
M  V30 9220 O 873.717 0.875198 4.03006 0
M  V30 9221 H 873.058 0.368235 0.552539 0
M  V30 9222 H 875.588 1.59994 1.27526 0
M  V30 9223 H 875.598 1.67426 3.72065 0
M  V30 9224 H 874.273 2.68835 3.17334 0
M  V30 9225 H 872.85 0.911172 3.61597 0
M  V30 9226 N 875.035 -1.20752 1.01276 0
M  V30 9227 C 876.312 -1.85676 0.615112 0
M  V30 9228 C 876.692 -1.90623 -0.906976 0
M  V30 9229 O 876.04 -1.41124 -1.79712 0
M  V30 9230 C 876.25 -3.2552 1.25847 0
M  V30 9231 C 877.598 -4.0184 1.37148 0
M  V30 9232 O 878.622 -3.3486 1.21438 0
M  V30 9233 O 877.481 -5.21783 1.62495 0
M  V30 9234 H 874.575 -0.799437 0.211729 0
M  V30 9235 H 877.121 -1.28372 1.10989 0
M  V30 9236 H 875.893 -3.16664 2.29869 0
M  V30 9237 H 875.516 -3.90452 0.750524 0
M  V30 9238 N 876.513 -0.788492 -1.36457 0
M  V30 9239 C 877.761 -0.359749 -1.98872 0
M  V30 9240 C 878.082 1.07197 -1.62892 0
M  V30 9241 O 877.352 1.73875 -0.902463 0
M  V30 9242 H 875.932 -0.130029 -0.735596 0
M  V30 9243 H 878.594 -1.01033 -1.66668 0
M  V30 9244 H 877.69 -0.450835 -3.08827 0
M  V30 9245 N 877.991 1.48044 -0.54043 0
M  V30 9246 C 879.216 2.07396 -0.0124765 0
M  V30 9247 C 879.641 1.39288 1.26414 0
M  V30 9248 O 878.999 0.462252 1.75308 0
M  V30 9249 C 879.047 3.60131 0.18377 0
M  V30 9250 O 878.151 3.92995 1.25014 0
M  V30 9251 H 877.492 0.662554 -0.0438026 0
M  V30 9252 H 880.022 1.90306 -0.751327 0
M  V30 9253 H 880.032 4.06003 0.403197 0
M  V30 9254 H 878.707 4.09105 -0.74874 0
M  V30 9255 H 877.284 3.5889 1.01254 0
M  V30 9256 N 879.47 0.276058 1.55163 0
M  V30 9257 C 880.7 -0.343274 2.03728 0
M  V30 9258 C 881.108 -1.49945 1.15383 0
M  V30 9259 O 880.451 -1.82942 0.166696 0
M  V30 9260 C 880.513 -0.885683 3.48419 0
M  V30 9261 C 880.177 0.141976 4.56779 0
M  V30 9262 C 881.174 0.961816 5.10926 0
M  V30 9263 C 878.859 0.276487 5.01538 0
M  V30 9264 C 880.853 1.90234 6.0835 0
M  V30 9265 C 878.54 1.22049 5.98788 0
M  V30 9266 C 879.538 2.03192 6.52075 0
M  V30 9267 O 879.226 2.95996 7.47423 0
M  V30 9268 H 878.958 -0.0822192 0.670981 0
M  V30 9269 H 881.512 0.406199 2.01343 0
M  V30 9270 H 879.742 -1.68524 3.48047 0
M  V30 9271 H 881.431 -1.4182 3.80318 0
M  V30 9272 H 882.197 0.868637 4.77158 0
M  V30 9273 H 878.076 -0.345095 4.59707 0
M  V30 9274 H 881.62 2.5361 6.49867 0
M  V30 9275 H 877.517 1.31448 6.31974 0
M  V30 9276 H 878.285 2.90688 7.65142 0
M  V30 9277 N 880.948 -1.576 0.00335426 0
M  V30 9278 C 882.364 -1.55653 -0.352766 0
M  V30 9279 C 882.564 -1.00632 -1.74572 0
M  V30 9280 O 881.62 -0.641621 -2.44212 0
M  V30 9281 C 882.933 -2.99858 -0.224929 0
M  V30 9282 C 884.481 -3.11563 -0.299619 0
M  V30 9283 C 884.956 -4.57559 -0.200868 0
M  V30 9284 N 886.447 -4.62477 -0.258663 0
M  V30 9285 C 887.182 -5.73031 -0.205644 0
M  V30 9286 N 886.678 -6.92723 -0.103027 0
M  V30 9287 N 888.471 -5.61509 -0.257754 0
M  V30 9288 H 880.622 -1.91703 0.914539 0
M  V30 9289 H 882.885 -0.88068 0.350865 0
M  V30 9290 H 882.591 -3.43964 0.733595 0
M  V30 9291 H 882.465 -3.63547 -1.00564 0
M  V30 9292 H 884.852 -2.67384 -1.24859 0
M  V30 9293 H 884.933 -2.50644 0.511025 0
M  V30 9294 H 884.577 -5.02413 0.744572 0
M  V30 9295 H 884.507 -5.16428 -1.03004 0
M  V30 9296 H 886.998 -3.76375 -0.339168 0
M  V30 9297 H 887.311 -7.7277 -0.0685593 0
M  V30 9298 H 885.656 -6.94966 -0.0686069 0
M  V30 9299 H 888.847 -4.66892 -0.336142 0
M  V30 9300 H 889.02 -6.4765 -0.21297 0
M  V30 9301 N 882.426 0.269451 -1.5528 0
M  V30 9302 C 883.675 0.998381 -1.75258 0
M  V30 9303 C 883.988 1.87321 -0.563034 0
M  V30 9304 O 885.194 2.63719 -0.645313 0
M  V30 9305 C 883.65 1.82505 -3.10193 0
M  V30 9306 C 883.258 0.99871 -4.36726 0
M  V30 9307 C 885.002 2.54807 -3.3952 0
M  V30 9308 C 882.909 1.81997 -5.627 0
M  V30 9309 H 881.839 0.376488 -0.653278 0
M  V30 9310 H 884.49 0.253909 -1.81735 0
M  V30 9311 H 882.872 2.61061 -2.97763 0
M  V30 9312 H 884.046 0.257064 -4.60082 0
M  V30 9313 H 882.361 0.390074 -4.14569 0
M  V30 9314 H 884.958 3.16662 -4.30847 0
M  V30 9315 H 885.301 3.25273 -2.59813 0
M  V30 9316 H 885.834 1.83278 -3.53064 0
M  V30 9317 H 882.573 1.15945 -6.45164 0
M  V30 9318 H 882.093 2.53749 -5.43481 0
M  V30 9319 H 883.772 2.39274 -6.0113 0
M  V30 9320 N 883.904 1.48273 0.534124 0
M  V30 9321 C 885.151 1.56079 1.29017 0
M  V30 9322 C 885.479 0.232912 1.931 0
M  V30 9323 O 884.734 -0.77642 1.79639 0
M  V30 9324 C 885.033 2.64468 2.40398 0
M  V30 9325 C 884.699 4.07034 1.93995 0
M  V30 9326 C 883.361 4.45838 1.81058 0
M  V30 9327 C 885.713 4.96395 1.58877 0
M  V30 9328 C 883.041 5.71812 1.31331 0
M  V30 9329 C 885.393 6.22854 1.10614 0
M  V30 9330 C 884.057 6.60518 0.962895 0
M  V30 9331 H 883.327 0.571135 0.472108 0
M  V30 9332 H 885.974 1.81973 0.5965 0
M  V30 9333 H 884.279 2.32419 3.15418 0
M  V30 9334 H 885.976 2.67725 2.98537 0
M  V30 9335 H 882.566 3.76387 2.05015 0
M  V30 9336 H 886.75 4.67096 1.67734 0
M  V30 9337 H 882.006 5.99722 1.18924 0
M  V30 9338 H 886.18 6.91495 0.825095 0
M  V30 9339 H 883.807 7.58019 0.575369 0
M  V30 9340 N 885.382 -0.782676 1.36792 0
M  V30 9341 C 886.607 -1.57676 1.34733 0
M  V30 9342 C 887.032 -1.87979 -0.0675253 0
M  V30 9343 O 886.39 -1.48404 -1.04144 0
M  V30 9344 C 886.438 -2.87047 2.18257 0
M  V30 9345 O 885.542 -3.80946 1.57969 0
M  V30 9346 H 884.883 -0.478034 0.460846 0
M  V30 9347 H 887.413 -0.969578 1.80168 0
M  V30 9348 H 887.423 -3.36254 2.31079 0
M  V30 9349 H 886.098 -2.64319 3.21104 0
M  V30 9350 H 884.675 -3.39558 1.54126 0
M  V30 9351 N 886.86 -1.21182 -1.00761 0
M  V30 9352 C 887.807 -0.968741 -2.09485 0
M  V30 9353 C 888.777 0.104325 -1.65772 0
M  V30 9354 O 889.962 -0.0422587 -1.90753 0
M  V30 9355 C 887.102 -0.536686 -3.40901 0
M  V30 9356 C 886.215 -1.6789 -3.98041 0
M  V30 9357 C 885.35 -1.19627 -5.17555 0
M  V30 9358 C 884.389 -2.31099 -5.66798 0
M  V30 9359 N 883.526 -1.83988 -6.77564 0
M  V30 9360 H 888.366 -1.89952 -2.29613 0
M  V30 9361 H 885.903 -0.946688 -1.12589 0
M  V30 9362 H 887.861 -0.26745 -4.16342 0
M  V30 9363 H 886.491 0.357092 -3.20819 0
M  V30 9364 H 885.543 -2.06284 -3.19611 0
M  V30 9365 H 886.855 -2.51794 -4.30582 0
M  V30 9366 H 886.009 -0.883539 -6.00232 0
M  V30 9367 H 884.748 -0.327244 -4.86601 0
M  V30 9368 H 883.753 -2.63178 -4.82719 0
M  V30 9369 H 884.978 -3.18493 -5.99782 0
M  V30 9370 H 882.924 -0.994257 -6.48422 0
M  V30 9371 H 882.841 -2.61466 -7.09346 0
M  V30 9372 H 884.109 -1.55741 -7.63783 0
M  V30 9373 N 888.338 1.20213 -1.01915 0
M  V30 9374 C 889.586 1.89272 -0.708552 0
M  V30 9375 C 889.907 1.79394 0.76438 0
M  V30 9376 O 889.177 1.198 1.54999 0
M  V30 9377 H 887.757 0.700628 -0.259094 0
M  V30 9378 H 890.419 1.45985 -1.29129 0
M  V30 9379 H 889.515 2.95841 -0.994215 0
M  V30 9380 N 889.816 0.795718 1.36037 0
M  V30 9381 C 890.779 0.204318 2.28287 0
M  V30 9382 C 891.779 -0.602017 1.49105 0
M  V30 9383 O 892.969 -0.422089 1.69009 0
M  V30 9384 C 890.101 -0.716431 3.33287 0
M  V30 9385 H 891.294 1.01781 2.821 0
M  V30 9386 H 888.847 0.565588 1.45708 0
M  V30 9387 H 889.582 -1.55403 2.84641 0
M  V30 9388 H 889.367 -0.140096 3.9185 0
M  V30 9389 H 890.857 -1.12488 4.02164 0
M  V30 9390 N 891.294 -1.47756 0.548274 0
M  V30 9391 C 892.519 -2.07387 0.023475 0
M  V30 9392 C 892.944 -1.39956 -1.25674 0
M  V30 9393 O 892.302 -0.471543 -1.7506 0
M  V30 9394 C 892.35 -3.60224 -0.164669 0
M  V30 9395 O 891.454 -3.93653 -1.22928 0
M  V30 9396 H 890.795 -0.662312 0.0473156 0
M  V30 9397 H 893.325 -1.89905 0.761409 0
M  V30 9398 H 893.335 -4.06211 -0.38166 0
M  V30 9399 H 892.01 -4.08702 0.770425 0
M  V30 9400 H 890.587 -3.59422 -0.993495 0
M  V30 9401 N 892.772 -0.284283 -1.55015 0
M  V30 9402 C 893.682 0.60906 -2.26556 0
M  V30 9403 C 894.698 1.16246 -1.29472 0
M  V30 9404 O 895.874 1.1908 -1.62425 0
M  V30 9405 C 892.939 1.77246 -2.97968 0
M  V30 9406 C 892 1.25482 -4.10552 0
M  V30 9407 C 891.233 2.36277 -4.78549 0
M  V30 9408 O 891.456 3.55829 -4.45805 0
M  V30 9409 O 890.39 2.03914 -5.66306 0
M  V30 9410 H 894.216 0.0292298 -3.03686 0
M  V30 9411 H 891.801 -0.0513466 -1.49312 0
M  V30 9412 H 893.683 2.45062 -3.42815 0
M  V30 9413 H 892.358 2.33921 -2.23747 0
M  V30 9414 H 891.265 0.542859 -3.7014 0
M  V30 9415 H 892.598 0.733708 -4.86701 0
M  V30 9416 N 894.251 1.57596 -0.0117121 0
M  V30 9417 C 895.5 1.9025 0.669921 0
M  V30 9418 C 895.813 0.887986 1.74282 0
M  V30 9419 O 897.019 1.10516 2.47989 0
M  V30 9420 C 895.475 3.37762 1.24277 0
M  V30 9421 C 895.083 4.47535 0.204076 0
M  V30 9422 C 896.827 3.79509 1.90192 0
M  V30 9423 C 894.734 5.86132 0.787577 0
M  V30 9424 H 893.664 0.709935 0.253984 0
M  V30 9425 H 896.315 1.8335 -0.0741718 0
M  V30 9426 H 894.697 3.39537 2.03791 0
M  V30 9427 H 895.871 4.57294 -0.56733 0
M  V30 9428 H 894.186 4.14881 -0.355305 0
M  V30 9429 H 896.783 4.80402 2.34773 0
M  V30 9430 H 897.126 3.13643 2.7374 0
M  V30 9431 H 897.659 3.80084 1.17394 0
M  V30 9432 H 894.398 6.55499 -0.00938418 0
M  V30 9433 H 893.918 5.80014 1.52787 0
M  V30 9434 H 895.597 6.34158 1.28265 0
M  V30 9435 N 895.729 -0.261212 1.5542 0
M  V30 9436 C 896.978 -0.989072 1.75785 0
M  V30 9437 C 897.291 -1.8702 0.572961 0
M  V30 9438 O 898.497 -2.63374 0.659289 0
M  V30 9439 C 896.953 -1.80857 3.11157 0
M  V30 9440 C 896.561 -0.975535 4.3725 0
M  V30 9441 C 898.305 -2.53003 3.40866 0
M  V30 9442 C 896.212 -1.7901 5.63657 0
M  V30 9443 H 895.142 -0.373019 0.655266 0
M  V30 9444 H 897.793 -0.244267 1.81867 0
M  V30 9445 H 896.175 -2.59479 2.99144 0
M  V30 9446 H 897.349 -0.232661 4.60212 0
M  V30 9447 H 895.664 -0.368083 4.1477 0
M  V30 9448 H 898.261 -3.14372 4.32521 0
M  V30 9449 H 898.604 -3.23891 2.61535 0
M  V30 9450 H 899.137 -1.81403 3.54031 0
M  V30 9451 H 895.876 -1.12522 6.4577 0
M  V30 9452 H 895.396 -2.50863 5.44819 0
M  V30 9453 H 897.075 -2.36082 6.0239 0
M  V30 9454 N 897.207 -1.48554 -0.526253 0
M  V30 9455 C 898.137 -1.66252 -1.63959 0
M  V30 9456 C 899.118 -0.511351 -1.62232 0
M  V30 9457 O 900.303 -0.744322 -1.7937 0
M  V30 9458 C 897.433 -1.70556 -3.02536 0
M  V30 9459 C 896.387 -2.8521 -3.19123 0
M  V30 9460 C 895.713 -2.74606 -4.58798 0
M  V30 9461 C 897.013 -4.26463 -3.0154 0
M  V30 9462 H 898.707 -2.59459 -1.49404 0
M  V30 9463 H 896.253 -1.24862 -0.717326 0
M  V30 9464 H 898.206 -1.81524 -3.80298 0
M  V30 9465 H 896.93 -0.739297 -3.18123 0
M  V30 9466 H 895.589 -2.73802 -2.43779 0
M  V30 9467 H 895.237 -1.75941 -4.71226 0
M  V30 9468 H 894.937 -3.51544 -4.70841 0
M  V30 9469 H 896.461 -2.87548 -5.38655 0
M  V30 9470 H 897.875 -4.38685 -3.69091 0
M  V30 9471 H 896.272 -5.04428 -3.25073 0
M  V30 9472 H 897.342 -4.42667 -1.97925 0
M  V30 9473 N 898.685 0.775411 -1.37205 0
M  V30 9474 C 899.632 1.88857 -1.32671 0
M  V30 9475 C 900.602 1.64976 -0.192899 0
M  V30 9476 O 901.787 1.86944 -0.381673 0
M  V30 9477 C 898.927 3.25871 -1.13588 0
M  V30 9478 C 898.04 3.61731 -2.36167 0
M  V30 9479 C 897.175 4.87934 -2.09985 0
M  V30 9480 C 896.214 5.16514 -3.2845 0
M  V30 9481 N 895.351 6.33905 -3.01842 0
M  V30 9482 H 900.191 1.92068 -2.27846 0
M  V30 9483 H 897.728 0.939066 -1.13225 0
M  V30 9484 H 899.686 4.04903 -1.00546 0
M  V30 9485 H 898.316 3.22045 -0.220613 0
M  V30 9486 H 897.368 2.77712 -2.59962 0
M  V30 9487 H 898.68 3.78792 -3.24528 0
M  V30 9488 H 897.834 5.74863 -1.93953 0
M  V30 9489 H 896.573 4.7297 -1.18956 0
M  V30 9490 H 895.578 4.28063 -3.45025 0
M  V30 9491 H 896.803 5.33389 -4.20325 0
M  V30 9492 H 894.749 6.20306 -2.13439 0
M  V30 9493 H 894.666 6.51364 -3.83746 0
M  V30 9494 H 895.934 7.23779 -2.8942 0
M  V30 9495 N 900.163 1.21714 1.00117 0
M  V30 9496 C 901.11 0.979837 2.08968 0
M  V30 9497 C 902.08 -0.0955324 1.65825 0
M  V30 9498 O 903.265 0.0523742 1.90728 0
M  V30 9499 C 900.405 0.554758 3.40612 0
M  V30 9500 C 899.518 1.69999 3.97145 0
M  V30 9501 C 898.653 1.2237 5.16913 0
M  V30 9502 C 897.692 2.34101 5.65564 0
M  V30 9503 N 896.829 1.87579 6.76579 0
M  V30 9504 H 901.669 1.91167 2.28602 0
M  V30 9505 H 899.206 0.952645 1.12085 0
M  V30 9506 H 901.164 0.289526 4.16194 0
M  V30 9507 H 899.794 -0.340073 3.21004 0
M  V30 9508 H 898.846 2.07976 3.18512 0
M  V30 9509 H 900.158 2.54074 4.29241 0
M  V30 9510 H 899.312 0.915358 5.99755 0
M  V30 9511 H 898.051 0.353045 4.8642 0
M  V30 9512 H 897.056 2.65734 4.81316 0
M  V30 9513 H 898.281 3.21669 5.98085 0
M  V30 9514 H 896.227 1.02863 6.47885 0
M  V30 9515 H 896.144 2.65225 7.07949 0
M  V30 9516 H 897.412 1.5979 7.62947 0
M  V30 9517 N 901.641 -1.19671 1.02551 0
M  V30 9518 C 902.881 -1.90971 0.728668 0
M  V30 9519 C 903.245 -1.7762 -0.729057 0
M  V30 9520 O 904.446 -2.43484 -1.13882 0
M  V30 9521 C 902.717 -3.3794 1.16323 0
M  V30 9522 S 904.276 -4.27493 0.989722 0
M  V30 9523 H 901.094 -0.659617 0.265381 0
M  V30 9524 H 903.696 -1.44698 1.31463 0
M  V30 9525 H 902.4 -3.45181 2.21986 0
M  V30 9526 H 901.931 -3.89243 0.570417 0
M  V30 9527 H 903.946 -4.96096 -0.101666 0
M  V30 9528 N 903.119 -0.802921 -1.35613 0
M  V30 9529 C 904.366 -0.381576 -1.98872 0
M  V30 9530 C 904.694 1.0503 -1.63704 0
M  V30 9531 O 903.949 1.7427 -0.890418 0
M  V30 9532 C 904.248 -0.507806 -3.53774 0
M  V30 9533 C 903.914 -1.90245 -4.088 0
M  V30 9534 C 902.576 -2.28401 -4.2354 0
M  V30 9535 C 904.928 -2.81504 -4.3864 0
M  V30 9536 C 902.256 -3.57192 -4.65436 0
M  V30 9537 C 904.608 -4.09737 -4.81973 0
M  V30 9538 C 903.272 -4.47897 -4.94919 0
M  V30 9539 H 902.542 -0.139629 -0.727726 0
M  V30 9540 H 905.189 -1.023 -1.61886 0
M  V30 9541 H 903.494 0.21708 -3.91198 0
M  V30 9542 H 905.191 -0.162625 -4.0067 0
M  V30 9543 H 901.781 -1.596 -3.97776 0
M  V30 9544 H 905.965 -2.53276 -4.26808 0
M  V30 9545 H 901.221 -3.86611 -4.73648 0
M  V30 9546 H 905.395 -4.80555 -5.04024 0
M  V30 9547 H 903.022 -5.47747 -5.27141 0
M  V30 9548 N 904.597 1.47463 -0.556102 0
M  V30 9549 C 905.544 2.29998 0.192213 0
M  V30 9550 C 906.514 1.38993 0.909403 0
M  V30 9551 O 907.699 1.67954 0.905316 0
M  V30 9552 C 904.839 3.22932 1.21692 0
M  V30 9553 C 903.952 4.29027 0.505908 0
M  V30 9554 C 903.087 5.09114 1.51581 0
M  V30 9555 C 902.126 6.06984 0.789714 0
M  V30 9556 N 901.263 6.80033 1.74639 0
M  V30 9557 H 906.103 2.93468 -0.517734 0
M  V30 9558 H 903.64 1.44654 -0.267147 0
M  V30 9559 H 905.598 3.75234 1.8236 0
M  V30 9560 H 904.228 2.61329 1.89491 0
M  V30 9561 H 903.28 3.7979 -0.215276 0
M  V30 9562 H 904.592 4.9876 -0.062958 0
M  V30 9563 H 903.746 5.6556 2.19606 0
M  V30 9564 H 902.485 4.3928 2.11859 0
M  V30 9565 H 901.49 5.49717 0.0955382 0
M  V30 9566 H 902.715 6.78827 0.192688 0
M  V30 9567 H 900.661 6.12931 2.33777 0
M  V30 9568 H 900.578 7.45933 1.22965 0
M  V30 9569 H 901.846 7.41054 2.41782 0
M  V30 9570 N 906.075 0.2925 1.54862 0
M  V30 9571 C 907.324 -0.319994 1.99146 0
M  V30 9572 C 907.637 -1.55658 1.18448 0
M  V30 9573 O 908.843 -2.24312 1.52959 0
M  V30 9574 C 907.299 -0.620665 3.54508 0
M  V30 9575 C 906.907 0.597098 4.44003 0
M  V30 9576 C 908.651 -1.19482 4.07338 0
M  V30 9577 C 906.558 0.270049 5.90783 0
M  V30 9578 H 905.488 -0.123342 0.743843 0
M  V30 9579 H 908.139 0.399876 1.7909 0
M  V30 9580 H 906.521 -1.3999 3.7043 0
M  V30 9581 H 907.695 1.37354 4.39853 0
M  V30 9582 H 906.01 1.0893 4.019 0
M  V30 9583 H 908.607 -1.45362 5.14562 0
M  V30 9584 H 908.95 -2.13435 3.57423 0
M  V30 9585 H 909.483 -0.477485 3.94924 0
M  V30 9586 H 906.222 1.17791 6.4483 0
M  V30 9587 H 905.742 -0.469292 5.97961 0
M  V30 9588 H 907.421 -0.131471 6.46866 0
M  V30 9589 N 907.553 -1.57587 0.0200696 0
M  V30 9590 C 908.483 -2.12702 -0.963333 0
M  V30 9591 C 909.464 -1.04094 -1.34531 0
M  V30 9592 O 910.649 -1.31881 -1.42552 0
M  V30 9593 C 907.779 -2.64673 -2.24868 0
M  V30 9594 C 906.733 -3.77987 -2.00772 0
M  V30 9595 C 906.059 -4.16351 -3.35494 0
M  V30 9596 C 907.359 -5.0444 -1.35416 0
M  V30 9597 H 909.053 -2.95121 -0.504363 0
M  V30 9598 H 906.599 -1.41966 -0.24116 0
M  V30 9599 H 908.552 -3.01862 -2.94036 0
M  V30 9600 H 907.276 -1.79403 -2.72914 0
M  V30 9601 H 905.935 -3.41223 -1.34025 0
M  V30 9602 H 905.583 -3.28075 -3.81282 0
M  V30 9603 H 905.283 -4.92705 -3.20181 0
M  V30 9604 H 906.807 -4.56115 -4.05945 0
M  V30 9605 H 908.221 -5.39273 -1.94571 0
M  V30 9606 H 906.618 -5.85732 -1.30529 0
M  V30 9607 H 907.688 -4.83803 -0.325923 0
M  V30 9608 N 909.032 0.252966 -1.55557 0
M  V30 9609 C 910.257 1.0038 -1.8149 0
M  V30 9610 C 910.682 1.78397 -0.596318 0
M  V30 9611 O 910.04 1.7551 0.454535 0
M  V30 9612 C 910.088 1.9222 -3.05096 0
M  V30 9613 O 909.192 3.01302 -2.81587 0
M  V30 9614 H 908.533 0.285949 -0.599274 0
M  V30 9615 H 911.063 0.275795 -2.02733 0
M  V30 9616 H 911.073 2.338 -3.34368 0
M  V30 9617 H 909.748 1.34852 -3.93431 0
M  V30 9618 H 908.325 2.63894 -2.63466 0
M  V30 9619 N 910.51 1.48831 0.518367 0
M  V30 9620 C 911.473 1.63721 1.604 0
M  V30 9621 C 912.473 0.509857 1.52503 0
M  V30 9622 O 913.663 0.775922 1.55965 0
M  V30 9623 C 910.795 1.61831 3.00039 0
M  V30 9624 H 911.988 2.60534 1.48533 0
M  V30 9625 H 909.541 1.37602 0.741309 0
M  V30 9626 H 910.276 0.665387 3.17401 0
M  V30 9627 H 910.061 2.43686 3.0718 0
M  V30 9628 H 911.551 1.75467 3.78947 0
M  V30 9629 N 911.988 -0.768124 1.37614 0
M  V30 9630 C 912.936 -1.9029 1.33763 0
M  V30 9631 C 913.93 -1.67888 0.225814 0
M  V30 9632 O 915.136 -1.75634 0.394043 0
M  V30 9633 H 911.511 -0.625828 0.416945 0
M  V30 9634 H 913.482 -1.90654 2.29551 0
M  V30 9635 C 912.231 -3.27598 1.16511 0
M  V30 9636 H 911.554 -3.45414 2.01318 0
M  V30 9637 H 912.994 -4.07288 1.17867 0
M  V30 9638 C 911.453 -3.36653 -0.129001 0
M  V30 9639 O 911.983 -3.86023 -1.11128 0
M  V30 9640 N 910.189 -2.90036 -0.180926 0
M  V30 9641 H 909.736 -2.5005 0.619076 0
M  V30 9642 H 909.694 -2.96475 -1.04641 0
M  V30 9643 N 913.466 -1.22244 -0.994698 0
M  V30 9644 C 914.714 -1.04384 -1.73056 0
M  V30 9645 C 915.035 0.422204 -1.90374 0
M  V30 9646 O 914.305 1.30383 -1.46209 0
M  V30 9647 H 912.885 -0.383263 -0.641185 0
M  V30 9648 H 915.547 -1.53725 -1.1981 0
M  V30 9649 H 914.643 -1.52021 -2.72573 0
M  V30 9650 N 914.944 1.19125 -1.03184 0
M  V30 9651 C 915.854 2.26112 -0.625329 0
M  V30 9652 C 916.87 1.7056 0.344298 0
M  V30 9653 O 918.046 2.0039 0.20144 0
M  V30 9654 C 915.111 3.46697 0.0145169 0
M  V30 9655 C 914.172 4.17419 -1.00299 0
M  V30 9656 C 913.405 5.32247 -0.393581 0
M  V30 9657 O 913.628 5.64724 0.802659 0
M  V30 9658 O 912.562 5.91428 -1.1179 0
M  V30 9659 H 916.388 2.63131 -1.51643 0
M  V30 9660 H 913.973 1.26036 -0.802197 0
M  V30 9661 H 915.855 4.19762 0.371139 0
M  V30 9662 H 914.53 3.11521 0.879581 0
M  V30 9663 H 913.437 3.4646 -1.41125 0
M  V30 9664 H 914.77 4.56573 -1.83852 0
M  V30 9665 N 916.422 0.810101 1.35185 0
M  V30 9666 C 917.385 0.22852 2.28058 0
M  V30 9667 C 918.385 -0.586168 1.49735 0
M  V30 9668 O 919.575 -0.40414 1.69447 0
M  V30 9669 C 916.707 -0.681041 3.34028 0
M  V30 9670 H 917.9 1.04768 2.81005 0
M  V30 9671 H 915.453 0.58101 1.451 0
M  V30 9672 H 916.188 -1.52375 2.86273 0
M  V30 9673 H 915.973 -0.0985276 3.91976 0
M  V30 9674 H 917.463 -1.08217 4.03335 0
M  V30 9675 N 917.9 -1.47166 0.563914 0
M  V30 9676 C 918.847 -2.30097 -0.180013 0
M  V30 9677 C 919.817 -1.39473 -0.902019 0
M  V30 9678 O 921.002 -1.68432 -0.896396 0
M  V30 9679 C 918.142 -3.23573 -1.19978 0
M  V30 9680 C 917.255 -4.2929 -0.483149 0
M  V30 9681 C 916.39 -5.0991 -1.48879 0
M  V30 9682 C 915.429 -6.07395 -0.757513 0
M  V30 9683 N 914.566 -6.8095 -1.71031 0
M  V30 9684 H 919.406 -2.93189 0.53329 0
M  V30 9685 H 916.943 -1.4451 0.274814 0
M  V30 9686 H 918.901 -3.76196 -1.80368 0
M  V30 9687 H 917.531 -2.6233 -1.88103 0
M  V30 9688 H 916.583 -3.79671 0.235414 0
M  V30 9689 H 917.895 -4.9872 0.0894075 0
M  V30 9690 H 917.049 -5.66717 -2.16603 0
M  V30 9691 H 915.788 -4.40397 -2.09527 0
M  V30 9692 H 914.793 -5.4976 -0.0663841 0
M  V30 9693 H 916.018 -6.78919 -0.156685 0
M  V30 9694 H 913.964 -6.14162 -2.30524 0
M  V30 9695 H 913.881 -7.46574 -1.19007 0
M  V30 9696 H 915.149 -7.42326 -2.37849 0
M  V30 9697 N 919.378 -0.300708 -1.54705 0
M  V30 9698 C 920.624 0.309111 -2.0043 0
M  V30 9699 C 920.957 1.53562 -1.1888 0
M  V30 9700 O 920.232 1.92683 -0.265205 0
M  V30 9701 C 920.515 0.665995 -3.53888 0
M  V30 9702 C 920.368 -0.56963 -4.46178 0
M  V30 9703 C 921.687 1.49262 -4.14016 0
M  V30 9704 H 918.806 0.110878 -0.728612 0
M  V30 9705 H 921.448 -0.412748 -1.85463 0
M  V30 9706 H 919.598 1.281 -3.66773 0
M  V30 9707 H 921.27 -1.20811 -4.45199 0
M  V30 9708 H 919.513 -1.20292 -4.16788 0
M  V30 9709 H 920.184 -0.275785 -5.51311 0
M  V30 9710 H 922.66 0.972979 -4.04564 0
M  V30 9711 H 921.536 1.71111 -5.21548 0
M  V30 9712 H 921.797 2.48174 -3.65872 0
M  V30 9713 N 920.856 1.57574 -0.0284266 0
M  V30 9714 C 922.103 1.91772 0.650364 0
M  V30 9715 C 922.431 0.904769 1.72175 0
M  V30 9716 O 921.686 -0.0864038 1.95509 0
M  V30 9717 C 921.985 3.32699 1.3056 0
M  V30 9718 C 921.651 4.49423 0.364658 0
M  V30 9719 C 920.313 4.81084 0.105672 0
M  V30 9720 C 922.665 5.20439 -0.28151 0
M  V30 9721 C 919.993 5.81119 -0.8073 0
M  V30 9722 C 922.345 6.21449 -1.18253 0
M  V30 9723 C 921.009 6.51551 -1.45042 0
M  V30 9724 H 920.279 0.701744 0.237985 0
M  V30 9725 H 922.926 1.91288 -0.0900448 0
M  V30 9726 H 921.231 3.29441 2.12075 0
M  V30 9727 H 922.928 3.5643 1.83736 0
M  V30 9728 H 919.518 4.24703 0.576692 0
M  V30 9729 H 923.702 4.9621 -0.0944806 0
M  V30 9730 H 918.958 6.02788 -1.02256 0
M  V30 9731 H 923.132 6.75597 -1.68942 0
M  V30 9732 H 920.759 7.28882 -2.15951 0
M  V30 9733 N 922.334 -0.244713 1.55689 0
M  V30 9734 C 923.75 -0.593331 1.48161 0
M  V30 9735 C 923.95 -1.88234 0.719047 0
M  V30 9736 O 923.006 -2.51266 0.249292 0
M  V30 9737 C 924.319 -0.694032 2.92581 0
M  V30 9738 C 925.867 -0.786213 3.02965 0
M  V30 9739 C 926.342 -0.918457 4.48696 0
M  V30 9740 N 927.833 -0.983272 4.52643 0
M  V30 9741 C 928.568 -1.1049 5.62654 0
M  V30 9742 N 928.064 -1.19193 6.8247 0
M  V30 9743 N 929.857 -1.13823 5.50455 0
M  V30 9744 H 922.008 0.601446 2.03707 0
M  V30 9745 H 924.271 0.207894 0.924924 0
M  V30 9746 H 923.977 0.183133 3.51223 0
M  V30 9747 H 923.851 -1.56525 3.4319 0
M  V30 9748 H 926.238 -1.65383 2.44402 0
M  V30 9749 H 926.319 0.110202 2.55563 0
M  V30 9750 H 925.963 -0.0553881 5.0787 0
M  V30 9751 H 925.893 -1.82994 4.93782 0
M  V30 9752 H 928.384 -0.927269 3.66347 0
M  V30 9753 H 928.697 -1.28387 7.62061 0
M  V30 9754 H 927.042 -1.16147 6.85226 0
M  V30 9755 H 930.233 -1.06673 4.55783 0
M  V30 9756 H 930.406 -1.22957 6.36228 0
M  V30 9757 N 923.813 -1.49104 -0.510467 0
M  V30 9758 C 925.224 -1.51423 -1.09215 0
M  V30 9759 C 925.575 -0.295035 -1.93969 0
M  V30 9760 O 924.7 0.596064 -2.08029 0
M  V30 9761 C 925.295 -2.74387 -1.98739 0
M  V30 9762 C 923.854 -2.79515 -2.52088 0
M  V30 9763 C 923.001 -2.4521 -1.29488 0
M  V30 9764 H 925.952 -1.55938 -0.294807 0
M  V30 9765 H 925.973 -2.54012 -2.83298 0
M  V30 9766 H 925.485 -3.63105 -1.37026 0
M  V30 9767 H 923.586 -1.95054 -3.17466 0
M  V30 9768 H 923.699 -3.81447 -2.89887 0
M  V30 9769 H 922.063 -1.96785 -1.61703 0
M  V30 9770 H 922.846 -3.36192 -0.694978 0
M  V30 9771 N 925.291 0.760815 -1.38019 0
M  V30 9772 C 926.707 1.06289 -1.19058 0
M  V30 9773 C 926.907 2.01471 -0.0342603 0
M  V30 9774 O 925.963 2.44713 0.62224 0
M  V30 9775 C 927.276 1.6499 -2.51394 0
M  V30 9776 C 928.824 1.77196 -2.58013 0
M  V30 9777 C 929.299 2.3931 -3.90506 0
M  V30 9778 N 930.79 2.46749 -3.92007 0
M  V30 9779 C 931.525 2.95687 -4.91281 0
M  V30 9780 N 931.021 3.44715 -6.00952 0
M  V30 9781 N 932.814 2.94661 -4.78677 0
M  V30 9782 H 924.965 0.129045 -2.12008 0
M  V30 9783 H 927.228 0.119878 -0.94039 0
M  V30 9784 H 926.934 1.0252 -3.36426 0
M  V30 9785 H 926.808 2.64146 -2.6927 0
M  V30 9786 H 929.195 2.38796 -1.7338 0
M  V30 9787 H 929.276 0.767645 -2.4401 0
M  V30 9788 H 928.92 1.78346 -4.75558 0
M  V30 9789 H 928.85 3.40369 -4.01817 0
M  V30 9790 H 931.341 2.12064 -3.12789 0
M  V30 9791 H 931.654 3.80492 -6.72641 0
M  V30 9792 H 929.999 3.42791 -6.04582 0
M  V30 9793 H 933.19 2.55665 -3.92113 0
M  V30 9794 H 933.363 3.32489 -5.56197 0
M  V30 9795 N 926.769 1.22769 0.988202 0
M  V30 9796 C 928.046 0.9635 1.70223 0
M  V30 9797 C 928.426 -0.520102 2.04593 0
M  V30 9798 O 927.774 -1.48934 1.73295 0
M  V30 9799 C 927.984 1.86583 2.94937 0
M  V30 9800 C 929.332 2.12469 3.67616 0
M  V30 9801 O 930.356 1.84069 3.04954 0
M  V30 9802 O 929.215 2.60595 4.80367 0
M  V30 9803 H 926.309 0.362737 0.743203 0
M  V30 9804 H 928.855 1.33776 1.04412 0
M  V30 9805 H 927.627 2.86913 2.66077 0
M  V30 9806 H 927.25 1.49344 3.68486 0
M  V30 9807 N 928.247 -1.18576 1.03814 0
M  V30 9808 C 929.663 -1.4051 0.756909 0
M  V30 9809 C 929.863 -1.9057 -0.654631 0
M  V30 9810 O 928.919 -2.0884 -1.41922 0
M  V30 9811 C 930.232 -2.4081 1.80087 0
M  V30 9812 C 931.78 -2.54541 1.82148 0
M  V30 9813 C 932.255 -3.58102 2.85529 0
M  V30 9814 N 933.746 -3.65607 2.84404 0
M  V30 9815 C 934.481 -4.45458 3.61047 0
M  V30 9816 N 933.977 -5.28937 4.47434 0
M  V30 9817 N 935.77 -4.40196 3.49548 0
M  V30 9818 H 927.921 -0.844075 1.94908 0
M  V30 9819 H 930.184 -0.433287 0.843188 0
M  V30 9820 H 929.89 -2.1107 2.81322 0
M  V30 9821 H 929.764 -3.4012 1.63089 0
M  V30 9822 H 932.151 -2.83598 0.815855 0
M  V30 9823 H 932.232 -1.55352 2.03223 0
M  V30 9824 H 931.876 -3.29786 3.86269 0
M  V30 9825 H 931.806 -4.56963 2.6171 0
M  V30 9826 H 934.297 -3.05994 2.21756 0
M  V30 9827 H 934.61 -5.8701 5.02632 0
M  V30 9828 H 932.955 -5.28366 4.51503 0
M  V30 9829 H 936.146 -3.74026 2.81464 0
M  V30 9830 H 936.319 -5.02186 4.09528 0
M  V30 9831 N 929.725 -0.817259 -1.34754 0
M  V30 9832 C 931.002 -0.325468 -1.92873 0
M  V30 9833 C 931.382 1.18643 -1.74606 0
M  V30 9834 O 930.73 1.9909 -1.1214 0
M  V30 9835 C 930.94 -0.74858 -3.40877 0
M  V30 9836 C 932.288 -0.744165 -4.18028 0
M  V30 9837 O 933.312 -0.690799 -3.49437 0
M  V30 9838 O 932.171 -0.812207 -5.40431 0
M  V30 9839 H 929.265 -0.0876397 -0.822343 0
M  V30 9840 H 931.811 -0.901671 -1.43764 0
M  V30 9841 H 930.583 -1.79017 -3.47949 0
M  V30 9842 H 930.206 -0.147764 -3.97325 0
M  V30 9843 N 931.203 1.46865 -0.571711 0
M  V30 9844 C 932.48 1.95596 0.0132445 0
M  V30 9845 C 932.86 1.51438 1.47071 0
M  V30 9846 O 932.208 0.759917 2.15494 0
M  V30 9847 C 932.418 3.48689 -0.147335 0
M  V30 9848 C 933.766 4.24599 -0.00946329 0
M  V30 9849 O 934.79 3.5612 -0.0756112 0
M  V30 9850 O 933.649 5.46332 0.135361 0
M  V30 9851 H 930.743 0.825102 0.0560039 0
M  V30 9852 H 933.289 1.57199 -0.639256 0
M  V30 9853 H 932.061 3.73681 -1.16096 0
M  V30 9854 H 931.684 3.93887 0.542109 0
M  V30 9855 N 932.681 0.308908 1.54543 0
M  V30 9856 C 933.93 -0.298854 1.99474 0
M  V30 9857 C 934.243 -1.54393 1.20093 0
M  V30 9858 O 935.449 -2.22677 1.55329 0
M  V30 9859 C 933.905 -0.58303 3.55146 0
M  V30 9860 C 933.513 0.644157 4.43345 0
M  V30 9861 C 935.257 -1.15155 4.08582 0
M  V30 9862 C 933.164 0.332694 5.90463 0
M  V30 9863 H 932.094 -0.115445 0.74511 0
M  V30 9864 H 934.745 0.418848 1.78656 0
M  V30 9865 H 933.127 -1.36053 3.71894 0
M  V30 9866 H 934.301 1.42012 4.38371 0
M  V30 9867 H 932.616 1.13186 4.00722 0
M  V30 9868 H 935.213 -1.39896 5.16075 0
M  V30 9869 H 935.556 -2.09632 3.59667 0
M  V30 9870 H 936.089 -0.435571 3.95408 0
M  V30 9871 H 932.828 1.24624 6.43544 0
M  V30 9872 H 932.348 -0.405844 5.98425 0
M  V30 9873 H 934.027 -0.0628545 6.46969 0
M  V30 9874 N 934.159 -1.57557 0.0367827 0
M  V30 9875 C 935.405 -1.92399 -0.641133 0
M  V30 9876 C 935.738 -0.914191 -1.71336 0
M  V30 9877 O 935.013 0.0619616 -1.94401 0
M  V30 9878 C 935.296 -3.37689 -1.25052 0
M  V30 9879 C 935.149 -4.4941 -0.187326 0
M  V30 9880 C 936.468 -3.8309 -2.16634 0
M  V30 9881 H 933.587 -0.699666 -0.231597 0
M  V30 9882 H 936.229 -1.89759 0.0956083 0
M  V30 9883 H 934.379 -3.40069 -1.87843 0
M  V30 9884 H 936.051 -4.59161 0.443736 0
M  V30 9885 H 934.294 -4.31065 0.486313 0
M  V30 9886 H 934.965 -5.48119 -0.653459 0
M  V30 9887 H 937.441 -3.82494 -1.63821 0
M  V30 9888 H 936.317 -4.85429 -2.56222 0
M  V30 9889 H 936.578 -3.19028 -3.06062 0
M  V30 9890 N 935.637 0.236453 -1.55816 0
M  V30 9891 C 936.584 1.29289 -1.91188 0
M  V30 9892 C 937.554 1.47315 -0.767301 0
M  V30 9893 O 938.739 1.61128 -1.02189 0
M  V30 9894 C 935.879 2.64126 -2.22107 0
M  V30 9895 C 934.992 2.54022 -3.49423 0
M  V30 9896 C 934.127 3.81282 -3.69861 0
M  V30 9897 C 933.166 3.65839 -4.90743 0
M  V30 9898 N 932.303 4.85014 -5.07647 0
M  V30 9899 H 937.143 0.98424 -2.81277 0
M  V30 9900 H 934.68 0.474722 -1.39229 0
M  V30 9901 H 936.638 3.42626 -2.3804 0
M  V30 9902 H 935.268 2.93118 -1.35209 0
M  V30 9903 H 934.32 1.67036 -3.41765 0
M  V30 9904 H 935.632 2.38525 -4.38072 0
M  V30 9905 H 934.786 4.68226 -3.8581 0
M  V30 9906 H 933.525 3.99688 -2.79465 0
M  V30 9907 H 932.53 2.77279 -4.74759 0
M  V30 9908 H 933.755 3.48918 -5.82609 0
M  V30 9909 H 931.701 5.03762 -4.20191 0
M  V30 9910 H 931.618 4.72188 -5.90402 0
M  V30 9911 H 932.886 5.73427 -5.28017 0
M  V30 9912 N 937.115 1.49373 0.502552 0
M  V30 9913 C 938.343 1.62488 1.28084 0
M  V30 9914 C 938.758 0.295667 1.86471 0
M  V30 9915 O 938.115 -0.718664 1.67754 0
M  V30 9916 C 938.166 2.69249 2.4122 0
M  V30 9917 O 937.887 3.97014 1.85234 0
M  V30 9918 C 939.388 2.93054 3.32617 0
M  V30 9919 H 936.608 0.547068 0.388533 0
M  V30 9920 H 939.152 1.95394 0.603452 0
M  V30 9921 H 937.307 2.39125 3.04792 0
M  V30 9922 H 937.721 4.55809 2.59496 0
M  V30 9923 H 939.195 3.71493 4.08285 0
M  V30 9924 H 939.672 2.02911 3.89517 0
M  V30 9925 H 940.278 3.24589 2.74813 0
M  V30 9926 N 938.594 -0.753485 1.38421 0
M  V30 9927 C 939.84 -1.51485 1.34834 0
M  V30 9928 C 940.173 -1.94102 -0.0615381 0
M  V30 9929 O 939.448 -1.65439 -1.02274 0
M  V30 9930 C 939.731 -2.76736 2.30411 0
M  V30 9931 C 939.584 -2.40256 3.80259 0
M  V30 9932 C 940.903 -3.7876 2.24119 0
M  V30 9933 H 938.022 -0.549534 0.491102 0
M  V30 9934 H 940.664 -0.863006 1.6927 0
M  V30 9935 H 938.814 -3.32357 2.01175 0
M  V30 9936 H 940.486 -1.90409 4.20169 0
M  V30 9937 H 938.729 -1.72714 3.97935 0
M  V30 9938 H 939.4 -3.29869 4.42595 0
M  V30 9939 H 941.876 -3.32679 2.49928 0
M  V30 9940 H 940.752 -4.64092 2.93104 0
M  V30 9941 H 941.013 -4.24352 1.24006 0
M  V30 9942 N 940.072 -1.23292 -0.981677 0
M  V30 9943 C 941.321 -1.05832 -1.71705 0
M  V30 9944 C 941.634 0.40514 -1.91358 0
M  V30 9945 O 942.84 0.699645 -2.6233 0
M  V30 9946 C 941.296 -1.84532 -3.08992 0
M  V30 9947 C 940.904 -3.35199 -2.9723 0
M  V30 9948 C 942.648 -1.75557 -3.86497 0
M  V30 9949 C 940.555 -4.06296 -4.29741 0
M  V30 9950 H 939.485 -0.39241 -0.64384 0
M  V30 9951 H 942.136 -1.47247 -1.09502 0
M  V30 9952 H 940.518 -1.35923 -3.71942 0
M  V30 9953 H 941.692 -3.91286 -2.43377 0
M  V30 9954 H 940.007 -3.44973 -2.332 0
M  V30 9955 H 942.604 -2.25989 -4.84596 0
M  V30 9956 H 942.947 -0.718101 -4.1006 0
M  V30 9957 H 943.48 -2.21771 -3.30246 0
M  V30 9958 H 940.219 -5.10344 -4.11375 0
M  V30 9959 H 939.739 -3.54997 -4.83464 0
M  V30 9960 H 941.418 -4.12519 -4.98434 0
M  V30 9961 N 941.55 1.18024 -1.04442 0
M  V30 9962 C 942.46 2.25436 -0.649276 0
M  V30 9963 C 943.476 1.70915 0.326189 0
M  V30 9964 O 944.652 2.00592 0.180174 0
M  V30 9965 C 941.717 3.46693 -0.0222558 0
M  V30 9966 C 940.778 4.16332 -1.0472 0
M  V30 9967 C 940.011 5.31799 -0.450011 0
M  V30 9968 O 940.234 5.65544 0.742717 0
M  V30 9969 O 939.168 5.90209 -1.18056 0
M  V30 9970 H 942.994 2.61508 -1.54426 0
M  V30 9971 H 940.579 1.25178 -0.81552 0
M  V30 9972 H 942.461 4.20132 0.326597 0
M  V30 9973 H 941.136 3.12436 0.84649 0
M  V30 9974 H 940.043 3.44944 -1.44792 0
M  V30 9975 H 941.376 4.54598 -1.88684 0
M  V30 9976 N 943.028 0.824394 1.34319 0
M  V30 9977 C 944.439 0.471802 1.8064 0
M  V30 9978 C 944.79 -1.00793 1.6833 0
M  V30 9979 O 943.915 -1.78447 1.22416 0
M  V30 9980 C 944.51 0.849609 3.27974 0
M  V30 9981 C 943.069 0.549365 3.72369 0
M  V30 9982 C 942.216 1.06573 2.56003 0
M  V30 9983 H 945.167 1.01443 1.22045 0
M  V30 9984 H 945.188 0.153968 3.80188 0
M  V30 9985 H 944.7 1.92663 3.36902 0
M  V30 9986 H 942.801 -0.518182 3.68979 0
M  V30 9987 H 942.914 1.09446 4.66432 0
M  V30 9988 H 941.278 0.487214 2.49997 0
M  V30 9989 H 942.061 2.14923 2.677 0
M  V30 9990 N 944.506 -1.46559 0.579492 0
M  V30 9991 C 945.439 -2.27287 -0.203894 0
M  V30 9992 C 946.417 -1.3543 -0.899865 0
M  V30 9993 O 947.601 -1.64836 -0.914398 0
M  V30 9994 C 944.728 -3.13077 -1.2923 0
M  V30 9995 C 943.774 -4.20675 -0.702505 0
M  V30 9996 S 944.607 -5.3345 0.468136 0
M  V30 9997 C 945.763 -6.22806 -0.621544 0
M  V30 9998 H 945.996 -2.93382 0.481083 0
M  V30 9999 H 943.529 -1.49992 0.366311 0
M  V30 10000 H 945.487 -3.63069 -1.91548 0
M  V30 10001 H 944.148 -2.46302 -1.94921 0
M  V30 10002 H 943.341 -4.80516 -1.52053 0
M  V30 10003 H 942.943 -3.73678 -0.155046 0
M  V30 10004 H 945.235 -6.60503 -1.50803 0
M  V30 10005 H 946.178 -7.08075 -0.059961 0
M  V30 10006 H 946.586 -5.56882 -0.924242 0
M  V30 10007 N 945.984 -0.3171 -1.54377 0
M  V30 10008 C 946.947 0.53905 -2.22771 0
M  V30 10009 C 947.947 1.04865 -1.21901 0
M  V30 10010 O 949.137 0.942108 -1.46526 0
M  V30 10011 C 946.269 1.74804 -2.92671 0
M  V30 10012 H 947.462 -0.0587417 -2.99842 0
M  V30 10013 H 945.015 -0.068107 -1.56152 0
M  V30 10014 H 945.75 2.38524 -2.1972 0
M  V30 10015 H 945.535 1.39011 -3.66631 0
M  V30 10016 H 947.025 2.35592 -3.44799 0
M  V30 10017 N 947.462 1.57535 -0.0451378 0
M  V30 10018 C 948.687 1.97172 0.64326 0
M  V30 10019 C 949.112 0.922266 1.63939 0
M  V30 10020 O 948.47 -0.115155 1.80934 0
M  V30 10021 C 948.518 3.35889 1.3119 0
M  V30 10022 O 947.622 3.33387 2.42748 0
M  V30 10023 H 946.963 0.642469 0.167719 0
M  V30 10024 H 949.493 2.04295 -0.111747 0
M  V30 10025 H 949.503 3.72481 1.66499 0
M  V30 10026 H 948.178 4.1181 0.581823 0
M  V30 10027 H 946.755 3.08533 2.09432 0
M  V30 10028 N 948.94 -0.228186 1.55939 0
M  V30 10029 C 949.85 -1.30386 1.9503 0
M  V30 10030 C 950.866 -1.51645 0.853218 0
M  V30 10031 O 952.042 -1.64904 1.15623 0
M  V30 10032 C 949.107 -2.63489 2.25332 0
M  V30 10033 C 948.168 -2.5059 3.48573 0
M  V30 10034 C 947.401 -3.77345 3.7742 0
M  V30 10035 O 947.624 -4.80067 3.08045 0
M  V30 10036 O 946.558 -3.74855 4.70922 0
M  V30 10037 H 950.384 -1.0022 2.86687 0
M  V30 10038 H 947.969 -0.430503 1.43063 0
M  V30 10039 H 949.851 -3.4211 2.46046 0
M  V30 10040 H 948.526 -2.93349 1.3685 0
M  V30 10041 H 947.433 -1.70191 3.33145 0
M  V30 10042 H 948.766 -2.2567 4.37417 0
M  V30 10043 N 950.418 -1.49637 -0.494624 0
M  V30 10044 C 951.666 -1.5913 -1.24587 0
M  V30 10045 C 951.987 -0.282828 -1.92938 0
M  V30 10046 O 951.257 0.69825 -1.83034 0
M  V30 10047 H 949.837 -0.586329 -0.462847 0
M  V30 10048 H 952.499 -1.86296 -0.572696 0
M  V30 10049 H 951.595 -2.3906 -2.00641 0
M  V30 10050 N 951.896 0.746133 -1.38819 0
M  V30 10051 C 952.826 1.87344 -1.39372 0
M  V30 10052 C 953.807 1.68123 -0.258583 0
M  V30 10053 O 954.992 1.88606 -0.462769 0
M  V30 10054 C 952.122 3.24962 -1.22543 0
M  V30 10055 C 951.076 3.58799 -2.33339 0
M  V30 10056 C 950.402 4.95235 -2.01609 0
M  V30 10057 C 951.702 3.62911 -3.75624 0
M  V30 10058 H 953.396 1.87138 -2.33709 0
M  V30 10059 H 950.942 0.898937 -1.12495 0
M  V30 10060 H 952.895 4.03488 -1.21554 0
M  V30 10061 H 951.619 3.25667 -0.246707 0
M  V30 10062 H 950.278 2.82596 -2.33527 0
M  V30 10063 H 949.926 4.92508 -1.02202 0
M  V30 10064 H 949.626 5.18843 -2.75819 0
M  V30 10065 H 951.15 5.76131 -2.02251 0
M  V30 10066 H 952.564 4.31535 -3.77426 0
M  V30 10067 H 950.961 3.98031 -4.491 0
M  V30 10068 H 952.031 2.62967 -4.07402 0
M  V30 10069 N 953.375 1.23811 0.975125 0
M  V30 10070 C 954.791 1.0019 1.24234 0
M  V30 10071 C 954.991 -0.293811 1.99346 0
M  V30 10072 O 954.047 -1.01189 2.31337 0
M  V30 10073 C 955.36 2.21218 2.03674 0
M  V30 10074 C 956.908 2.25764 2.16793 0
M  V30 10075 C 957.383 3.46394 2.99626 0
M  V30 10076 N 958.874 3.46665 3.07209 0
M  V30 10077 C 959.609 4.3666 3.71639 0
M  V30 10078 N 959.105 5.36899 4.37849 0
M  V30 10079 N 960.898 4.2439 3.68578 0
M  V30 10080 H 953.049 2.07087 0.472076 0
M  V30 10081 H 955.312 0.90838 0.271201 0
M  V30 10082 H 955.018 3.15277 1.55862 0
M  V30 10083 H 954.892 2.22733 3.04417 0
M  V30 10084 H 957.279 1.32242 2.63811 0
M  V30 10085 H 957.36 2.28279 1.15422 0
M  V30 10086 H 957.004 4.40227 2.53304 0
M  V30 10087 H 956.934 3.41121 4.01178 0
M  V30 10088 H 959.425 2.74142 2.60105 0
M  V30 10089 H 959.738 6.01816 4.84807 0
M  V30 10090 H 958.083 5.40793 4.36541 0
M  V30 10091 H 961.274 3.4532 3.16025 0
M  V30 10092 H 961.447 4.94727 4.18508 0
M  V30 10093 N 954.853 -1.17469 1.05066 0
M  V30 10094 C 956.081 -1.9162 0.780334 0
M  V30 10095 C 956.496 -1.76745 -0.663817 0
M  V30 10096 O 955.853 -1.10377 -1.45338 0
M  V30 10097 C 955.904 -3.42723 1.14992 0
M  V30 10098 O 955.625 -3.57139 2.53739 0
M  V30 10099 C 957.126 -4.33952 0.905549 0
M  V30 10100 H 954.346 -0.608022 0.283814 0
M  V30 10101 H 956.89 -1.4897 1.401 0
M  V30 10102 H 955.045 -3.83124 0.57403 0
M  V30 10103 H 955.459 -4.5075 2.68189 0
M  V30 10104 H 956.933 -5.38487 1.21391 0
M  V30 10105 H 957.41 -4.38911 -0.159295 0
M  V30 10106 H 958.016 -3.99263 1.46522 0
M  V30 10107 N 956.331 -0.831506 -1.3388 0
M  V30 10108 C 957.58 -0.420028 -1.97278 0
M  V30 10109 C 957.893 1.02441 -1.66629 0
M  V30 10110 O 959.099 1.54021 -2.23584 0
M  V30 10111 C 957.555 -0.700116 -3.53025 0
M  V30 10112 C 957.163 -2.15874 -3.92559 0
M  V30 10113 C 958.907 -0.355226 -4.23011 0
M  V30 10114 C 956.814 -2.38327 -5.41252 0
M  V30 10115 H 955.744 -0.153326 -0.738246 0
M  V30 10116 H 958.395 -1.01906 -1.52602 0
M  V30 10117 H 956.777 -0.0308044 -3.95988 0
M  V30 10118 H 957.951 -2.86792 -3.60675 0
M  V30 10119 H 956.266 -2.4659 -3.35533 0
M  V30 10120 H 958.863 -0.500701 -5.32351 0
M  V30 10121 H 959.206 0.70111 -4.10354 0
M  V30 10122 H 959.739 -0.979466 -3.85553 0
M  V30 10123 H 956.478 -3.42498 -5.58906 0
M  V30 10124 H 955.998 -1.71962 -5.74621 0
M  V30 10125 H 957.677 -2.21113 -6.08045 0
M  V30 10126 N 957.809 1.4625 -0.587256 0
M  V30 10127 C 959.049 2.04254 -0.0773169 0
M  V30 10128 C 959.413 1.44831 1.26047 0
M  V30 10129 O 960.614 1.94063 1.85992 0
M  V30 10130 C 958.885 3.57396 -0.0172813 0
M  V30 10131 S 960.444 4.36644 0.434422 0
M  V30 10132 H 957.262 0.709892 -0.0396783 0
M  V30 10133 H 959.864 1.79232 -0.780779 0
M  V30 10134 H 958.568 3.98161 -0.994795 0
M  V30 10135 H 958.099 3.86962 0.70881 0
M  V30 10136 H 960.114 4.66597 1.68824 0
M  V30 10137 N 959.287 0.325282 1.54207 0
M  V30 10138 C 960.217 -0.532574 2.27345 0
M  V30 10139 C 961.198 -1.11791 1.28206 0
M  V30 10140 O 962.383 -1.14272 1.57021 0
M  V30 10141 C 959.513 -1.69274 3.03255 0
M  V30 10142 C 958.467 -1.23662 4.09746 0
M  V30 10143 C 957.793 -2.48386 4.73506 0
M  V30 10144 C 959.093 -0.350244 5.21124 0
M  V30 10145 H 960.787 0.0775108 2.993 0
M  V30 10146 H 958.333 0.0387193 1.43948 0
M  V30 10147 H 960.286 -2.29917 3.53152 0
M  V30 10148 H 959.01 -2.32944 2.28921 0
M  V30 10149 H 957.669 -0.653106 3.60735 0
M  V30 10150 H 957.317 -3.10424 3.95786 0
M  V30 10151 H 957.017 -2.18558 5.45441 0
M  V30 10152 H 958.541 -3.09789 5.26178 0
M  V30 10153 H 959.955 -0.863011 5.66767 0
M  V30 10154 H 958.352 -0.14466 5.99926 0
M  V30 10155 H 959.422 0.618457 4.8094 0
M  V30 10156 N 960.765 -1.57509 0.0534917 0
M  V30 10157 C 961.728 -2.10563 -0.905307 0
M  V30 10158 C 962.728 -1.02571 -1.23838 0
M  V30 10159 O 963.918 -1.28635 -1.17468 0
M  V30 10160 C 961.05 -2.5918 -2.21447 0
M  V30 10161 H 962.243 -2.96575 -0.445354 0
M  V30 10162 H 959.796 -1.55079 -0.194947 0
M  V30 10163 H 960.531 -1.76568 -2.72019 0
M  V30 10164 H 960.316 -3.38098 -1.98575 0
M  V30 10165 H 961.806 -3.00365 -2.90122 0
M  V30 10166 N 962.243 0.219913 -1.56058 0
M  V30 10167 C 963.49 0.944064 -1.79147 0
M  V30 10168 C 963.818 1.84268 -0.622531 0
M  V30 10169 O 963.073 1.91713 0.393013 0
M  V30 10170 C 963.372 1.81293 -3.08006 0
M  V30 10171 C 963.038 1.0674 -4.38084 0
M  V30 10172 C 961.7 0.86147 -4.73426 0
M  V30 10173 C 964.052 0.541049 -5.18384 0
M  V30 10174 C 961.38 0.117307 -5.86583 0
M  V30 10175 C 963.732 -0.189779 -6.32315 0
M  V30 10176 C 962.396 -0.406951 -6.66258 0
M  V30 10177 H 961.666 0.345458 -0.655546 0
M  V30 10178 H 964.313 0.212121 -1.90322 0
M  V30 10179 H 962.618 2.61278 -2.9196 0
M  V30 10180 H 964.315 2.3754 -3.23072 0
M  V30 10181 H 960.905 1.23789 -4.10334 0
M  V30 10182 H 965.089 0.687617 -4.91514 0
M  V30 10183 H 960.345 -0.0611651 -6.11369 0
M  V30 10184 H 964.519 -0.605134 -6.93766 0
M  V30 10185 H 962.146 -0.985511 -7.53785 0
M  V30 10186 N 963.721 1.49897 0.486681 0
M  V30 10187 C 965.137 1.36977 0.819109 0
M  V30 10188 C 965.337 0.41385 1.97204 0
M  V30 10189 O 964.393 -0.149249 2.52059 0
M  V30 10190 C 965.706 2.78013 1.14584 0
M  V30 10191 C 967.254 2.86816 1.25321 0
M  V30 10192 C 967.729 4.28651 1.61316 0
M  V30 10193 N 969.22 4.31528 1.68337 0
M  V30 10194 C 969.955 5.38254 1.97662 0
M  V30 10195 N 969.451 6.55207 2.25113 0
M  V30 10196 N 971.244 5.25683 1.99033 0
M  V30 10197 H 963.395 2.10634 -0.273364 0
M  V30 10198 H 965.658 0.946116 -0.0597418 0
M  V30 10199 H 965.364 3.49728 0.371892 0
M  V30 10200 H 965.238 3.1428 2.08585 0
M  V30 10201 H 967.625 2.15329 2.01785 0
M  V30 10202 H 967.706 2.54112 0.293368 0
M  V30 10203 H 967.35 5.00669 0.853968 0
M  V30 10204 H 967.28 4.5883 2.58424 0
M  V30 10205 H 969.771 3.47189 1.49226 0
M  V30 10206 H 970.084 7.32359 2.46717 0
M  V30 10207 H 968.429 6.58408 2.22538 0
M  V30 10208 H 971.62 4.33316 1.77074 0
M  V30 10209 H 971.793 6.08949 2.21552 0
M  V30 10210 N 965.199 -0.738761 1.39212 0
M  V30 10211 C 966.476 -1.48982 1.26742 0
M  V30 10212 C 966.856 -2.10732 -0.12466 0
M  V30 10213 O 966.204 -1.98287 -1.13554 0
M  V30 10214 C 966.414 -2.54427 2.38889 0
M  V30 10215 C 967.762 -3.20915 2.78027 0
M  V30 10216 O 968.786 -2.64738 2.38311 0
M  V30 10217 O 967.645 -4.22558 3.46565 0
M  V30 10218 H 964.739 -0.661395 0.496473 0
M  V30 10219 H 967.285 -0.772907 1.51077 0
M  V30 10220 H 966.057 -2.07151 3.3197 0
M  V30 10221 H 965.68 -3.33682 2.162 0
M  V30 10222 N 966.677 -1.24326 -0.968545 0
M  V30 10223 C 967.924 -1.08245 -1.71141 0
M  V30 10224 C 968.252 0.378842 -1.90775 0
M  V30 10225 O 967.507 1.29634 -1.46607 0
M  V30 10226 C 967.806 -1.76644 -3.10695 0
M  V30 10227 C 967.472 -3.26572 -3.10905 0
M  V30 10228 C 966.134 -3.67475 -3.10669 0
M  V30 10229 C 968.486 -4.22422 -3.05302 0
M  V30 10230 C 965.814 -5.02666 -3.02562 0
M  V30 10231 C 968.166 -5.57619 -2.98737 0
M  V30 10232 C 966.83 -5.9787 -2.9683 0
M  V30 10233 H 966.1 -0.396098 -0.626249 0
M  V30 10234 H 968.747 -1.54418 -1.13258 0
M  V30 10235 H 967.052 -1.22864 -3.72037 0
M  V30 10236 H 968.749 -1.61668 -3.66967 0
M  V30 10237 H 965.339 -2.94017 -3.11852 0
M  V30 10238 H 969.523 -3.91821 -3.04614 0
M  V30 10239 H 964.779 -5.3305 -2.99446 0
M  V30 10240 H 968.953 -6.31595 -2.93361 0
M  V30 10241 H 966.58 -7.02587 -2.90303 0
M  V30 10242 N 968.156 1.1691 -1.05688 0
M  V30 10243 C 969.567 1.68915 -0.795273 0
M  V30 10244 C 969.918 1.83968 0.681925 0
M  V30 10245 O 969.043 1.53083 1.52953 0
M  V30 10246 C 969.638 3.06814 -1.43703 0
M  V30 10247 C 968.197 3.55965 -1.22335 0
M  V30 10248 C 967.344 2.32099 -1.51741 0
M  V30 10249 H 970.295 1.01357 -1.22116 0
M  V30 10250 H 970.316 3.70907 -0.849016 0
M  V30 10251 H 969.828 2.95826 -2.51214 0
M  V30 10252 H 967.929 3.72222 -0.16771 0
M  V30 10253 H 968.042 4.38427 -1.9318 0
M  V30 10254 H 966.406 2.36811 -0.937696 0
M  V30 10255 H 967.189 2.23715 -2.60397 0
M  V30 10256 N 969.634 0.838594 1.33437 0
M  V30 10257 C 970.597 0.276843 2.27522 0
M  V30 10258 C 971.597 -0.554275 1.50945 0
M  V30 10259 O 972.787 -0.368107 1.70266 0
M  V30 10260 C 969.919 -0.610036 3.35397 0
M  V30 10261 H 971.112 1.10705 2.78719 0
M  V30 10262 H 968.665 0.611657 1.43835 0
M  V30 10263 H 969.4 -1.46269 2.89441 0
M  V30 10264 H 969.185 -0.0153615 3.92097 0
M  V30 10265 H 970.675 -0.996368 4.05539 0
M  V30 10266 N 971.112 -1.45937 0.595003 0
M  V30 10267 C 972.36 -2.01921 0.0851368 0
M  V30 10268 C 972.681 -1.46748 -1.28413 0
M  V30 10269 O 971.951 -0.656873 -1.84559 0
M  V30 10270 H 970.531 -0.746457 0.0284826 0
M  V30 10271 H 973.193 -1.78891 0.773561 0
M  V30 10272 H 972.289 -3.1209 0.0254002 0
M  V30 10273 N 972.59 -0.333456 -1.54032 0
M  V30 10274 C 973.5 0.536674 -2.28379 0
M  V30 10275 C 974.516 1.12068 -1.33104 0
M  V30 10276 O 975.692 1.13853 -1.66131 0
M  V30 10277 C 972.757 1.67677 -3.03456 0
M  V30 10278 C 971.818 1.12357 -4.14336 0
M  V30 10279 C 971.051 2.20933 -4.85823 0
M  V30 10280 O 971.274 3.41466 -4.569 0
M  V30 10281 O 970.208 1.85795 -5.72507 0
M  V30 10282 H 974.034 -0.0674003 -3.03625 0
M  V30 10283 H 971.619 -0.098823 -1.49073 0
M  V30 10284 H 973.501 2.34032 -3.50438 0
M  V30 10285 H 972.176 2.26684 -2.31076 0
M  V30 10286 H 971.083 0.424827 -3.7168 0
M  V30 10287 H 972.416 0.578497 -4.88789 0
M  V30 10288 N 974.068 1.57479 -0.061844 0
M  V30 10289 C 975.479 1.80627 0.472295 0
M  V30 10290 C 975.83 0.97496 1.70261 0
M  V30 10291 O 974.955 0.1946 2.15523 0
M  V30 10292 C 975.55 3.27608 0.863616 0
M  V30 10293 C 974.109 3.51638 1.34267 0
M  V30 10294 C 973.256 2.75412 0.323009 0
M  V30 10295 H 976.207 1.56072 -0.287634 0
M  V30 10296 H 976.228 3.39113 1.72577 0
M  V30 10297 H 975.74 3.88087 -0.0320226 0
M  V30 10298 H 973.841 2.96452 2.25714 0
M  V30 10299 H 973.954 4.60342 1.32747 0
M  V30 10300 H 972.318 2.4187 0.798175 0
M  V30 10301 H 973.101 3.38623 -0.564729 0
M  V30 10302 N 975.546 -0.211634 1.56173 0
M  V30 10303 C 976.456 -1.2831 1.96402 0
M  V30 10304 C 977.472 -1.50731 0.869254 0
M  V30 10305 O 978.648 -1.63669 1.17365 0
M  V30 10306 C 975.713 -2.61084 2.28114 0
M  V30 10307 C 974.774 -2.46879 3.51211 0
M  V30 10308 C 974.007 -3.73321 3.81401 0
M  V30 10309 O 974.23 -4.76773 3.13119 0
M  V30 10310 O 973.164 -3.69839 4.74871 0
M  V30 10311 H 976.99 -0.971733 2.87734 0
M  V30 10312 H 974.575 -0.415305 1.43512 0
M  V30 10313 H 976.457 -3.39481 2.49661 0
M  V30 10314 H 975.132 -2.91881 1.39954 0
M  V30 10315 H 974.039 -1.66648 3.34932 0
M  V30 10316 H 975.372 -2.21018 4.39786 0
M  V30 10317 N 977.024 -1.50153 -0.478725 0
M  V30 10318 C 978.435 -1.53706 -1.05978 0
M  V30 10319 C 978.786 -0.336112 -1.933 0
M  V30 10320 O 977.911 0.551803 -2.09246 0
M  V30 10321 C 978.506 -2.78541 -1.92874 0
M  V30 10322 C 977.065 -2.848 -2.46102 0
M  V30 10323 C 976.212 -2.47902 -1.24257 0
M  V30 10324 H 979.163 -1.56528 -0.261664 0
M  V30 10325 H 979.184 -2.59964 -2.77847 0
M  V30 10326 H 978.696 -3.6593 -1.29293 0
M  V30 10327 H 976.797 -2.01744 -3.13257 0
M  V30 10328 H 976.91 -3.87511 -2.81731 0
M  V30 10329 H 975.274 -2.0017 -1.57493 0
M  V30 10330 H 976.057 -3.3759 -0.62351 0
M  V30 10331 N 978.502 0.731368 -1.39602 0
M  V30 10332 C 979.412 1.87579 -1.40894 0
M  V30 10333 C 980.428 1.71336 -0.303319 0
M  V30 10334 O 981.604 1.93875 -0.545377 0
M  V30 10335 C 978.669 3.23211 -1.25442 0
M  V30 10336 C 977.73 3.51822 -2.46008 0
M  V30 10337 C 976.963 4.80982 -2.31284 0
M  V30 10338 O 977.186 5.54958 -1.31824 0
M  V30 10339 O 976.12 5.09574 -3.20341 0
M  V30 10340 H 979.946 1.89444 -2.3737 0
M  V30 10341 H 977.531 0.879675 -1.20756 0
M  V30 10342 H 979.413 4.04257 -1.18972 0
M  V30 10343 H 978.088 3.22108 -0.320637 0
M  V30 10344 H 976.995 2.70847 -2.58055 0
M  V30 10345 H 978.328 3.57707 -3.38093 0
M  V30 10346 N 979.98 1.24838 0.961938 0
M  V30 10347 C 981.226 1.10321 1.70883 0
M  V30 10348 C 981.581 -0.353397 1.89127 0
M  V30 10349 O 980.874 -1.25721 1.44584 0
M  V30 10350 C 981.068 1.78289 3.09754 0
M  V30 10351 C 980.897 3.30409 3.05057 0
M  V30 10352 C 979.667 3.9964 3.09218 0
M  V30 10353 C 981.865 4.26916 2.86787 0
M  V30 10354 N 979.847 5.38594 2.94601 0
M  V30 10355 C 981.218 5.52906 2.80526 0
M  V30 10356 C 983.273 4.17421 2.71412 0
M  V30 10357 C 981.976 6.70487 2.60461 0
M  V30 10358 C 984.002 5.34686 2.52715 0
M  V30 10359 C 983.364 6.59611 2.47168 0
M  V30 10360 H 979.463 0.458353 0.63359 0
M  V30 10361 H 982.047 1.57835 1.14001 0
M  V30 10362 H 980.218 1.33281 3.64816 0
M  V30 10363 H 981.95 1.5658 3.73182 0
M  V30 10364 H 978.705 3.50847 3.18125 0
M  V30 10365 H 979.129 6.11497 2.90517 0
M  V30 10366 H 983.771 3.21592 2.74479 0
M  V30 10367 H 981.489 7.66433 2.56136 0
M  V30 10368 H 985.075 5.29194 2.41754 0
M  V30 10369 H 983.955 7.48821 2.32888 0
M  V30 10370 N 981.458 -1.16348 1.06306 0
M  V30 10371 C 982.735 -1.829 0.69331 0
M  V30 10372 C 983.115 -1.94298 -0.82531 0
M  V30 10373 O 982.463 -1.48619 -1.73565 0
M  V30 10374 C 982.673 -3.1989 1.3954 0
M  V30 10375 C 984.021 -3.95662 1.54068 0
M  V30 10376 O 985.045 -3.29408 1.35532 0
M  V30 10377 O 983.904 -5.14422 1.84479 0
M  V30 10378 H 980.998 -0.789738 0.245445 0
M  V30 10379 H 983.544 -1.23549 1.16334 0
M  V30 10380 H 982.316 -3.06629 2.43093 0
M  V30 10381 H 981.939 -3.86918 0.915453 0
M  V30 10382 N 982.937 -0.845659 -1.3299 0
M  V30 10383 C 983.885 -0.272412 -2.30999 0
M  V30 10384 C 984.879 0.599311 -1.58444 0
M  V30 10385 O 986.085 0.488117 -1.73255 0
M  V30 10386 H 982.46 -0.0693751 -0.748793 0
M  V30 10387 H 984.431 -1.11343 -2.76849 0
M  V30 10388 C 983.18 0.532019 -3.43606 0
M  V30 10389 H 982.503 -0.129455 -3.9959 0
M  V30 10390 H 983.943 0.898853 -4.14363 0
M  V30 10391 C 982.402 1.71364 -2.90062 0
M  V30 10392 O 982.932 2.81252 -2.8681 0
M  V30 10393 N 981.138 1.53775 -2.4658 0
M  V30 10394 H 980.685 0.643836 -2.49424 0
M  V30 10395 H 980.643 2.32982 -2.11108 0
M  V30 10396 N 984.415 1.45619 -0.602734 0
M  V30 10397 C 985.325 2.34288 0.120902 0
M  V30 10398 C 986.341 1.50952 0.865414 0
M  V30 10399 O 987.517 1.83768 0.824094 0
M  V30 10400 C 984.582 3.28489 1.10888 0
M  V30 10401 C 983.643 4.2773 0.366853 0
M  V30 10402 C 982.876 5.17429 1.30776 0
M  V30 10403 O 983.099 5.10459 2.54535 0
M  V30 10404 O 982.033 5.96459 0.807464 0
M  V30 10405 H 985.859 2.97559 -0.60765 0
M  V30 10406 H 983.444 1.44922 -0.363019 0
M  V30 10407 H 985.326 3.86549 1.67803 0
M  V30 10408 H 984.001 2.67789 1.81854 0
M  V30 10409 H 982.908 3.73299 -0.244643 0
M  V30 10410 H 984.241 4.91271 -0.302226 0
M  V30 10411 N 985.893 0.34162 1.53853 0
M  V30 10412 C 986.841 -0.531412 2.26448 0
M  V30 10413 C 987.835 -1.10357 1.28521 0
M  V30 10414 O 989.041 -1.04953 1.46236 0
M  V30 10415 H 985.416 -0.190054 0.727588 0
M  V30 10416 H 987.387 0.102922 2.98222 0
M  V30 10417 C 986.136 -1.67154 3.04885 0
M  V30 10418 H 985.459 -1.24055 3.80066 0
M  V30 10419 H 986.899 -2.25762 3.58898 0
M  V30 10420 C 985.358 -2.59984 2.14266 0
M  V30 10421 O 985.888 -3.62181 1.73746 0
M  V30 10422 N 984.094 -2.28625 1.79385 0
M  V30 10423 H 983.641 -1.45559 2.12533 0
M  V30 10424 H 983.599 -2.90995 1.19035 0
M  V30 10425 N 987.371 -1.57444 0.0701946 0
M  V30 10426 C 988.648 -1.84826 -0.6402 0
M  V30 10427 C 989.028 -0.962344 -1.87889 0
M  V30 10428 O 988.376 -0.0282209 -2.28483 0
M  V30 10429 C 988.586 -3.34976 -0.979382 0
M  V30 10430 C 989.934 -4.02448 -1.35355 0
M  V30 10431 O 990.958 -3.39713 -1.07116 0
M  V30 10432 O 989.817 -5.13096 -1.88136 0
M  V30 10433 H 986.911 -0.763494 -0.317813 0
M  V30 10434 H 989.457 -1.69399 0.101004 0
M  V30 10435 H 988.229 -3.91173 -0.0995576 0
M  V30 10436 H 987.852 -3.5566 -1.7774 0
M  V30 10437 N 988.849 0.203349 -1.56283 0
M  V30 10438 C 990.098 0.92315 -1.79334 0
M  V30 10439 C 990.411 1.84765 -0.641977 0
M  V30 10440 O 991.617 2.60745 -0.756584 0
M  V30 10441 C 990.073 1.69184 -3.17655 0
M  V30 10442 C 989.681 0.812581 -4.40569 0
M  V30 10443 C 991.425 2.40177 -3.50022 0
M  V30 10444 C 989.332 1.57967 -5.69913 0
M  V30 10445 H 988.262 0.348442 -0.668659 0
M  V30 10446 H 990.913 0.1766 -1.82648 0
M  V30 10447 H 989.295 2.48197 -3.08568 0
M  V30 10448 H 990.469 0.0616956 -4.60759 0
M  V30 10449 H 988.784 0.21389 -4.1585 0
M  V30 10450 H 991.381 2.98103 -4.4389 0
M  V30 10451 H 991.724 3.13961 -2.73376 0
M  V30 10452 H 992.257 1.68138 -3.6052 0
M  V30 10453 H 988.996 0.884767 -6.49501 0
M  V30 10454 H 988.516 2.3047 -5.53754 0
M  V30 10455 H 990.195 2.13562 -6.10737 0
M  V30 10456 N 990.327 1.50405 0.470755 0
M  V30 10457 C 991.573 1.6165 1.22462 0
M  V30 10458 C 991.906 0.316034 1.91611 0
M  V30 10459 O 991.181 -0.682509 1.82132 0
M  V30 10460 C 991.464 2.79702 2.26801 0
M  V30 10461 C 991.317 4.19631 1.61955 0
M  V30 10462 C 992.636 2.93313 3.28109 0
M  V30 10463 H 989.755 0.588345 0.443868 0
M  V30 10464 H 992.397 1.82792 0.518376 0
M  V30 10465 H 990.547 2.61807 2.87036 0
M  V30 10466 H 992.219 4.49117 1.05316 0
M  V30 10467 H 990.462 4.23874 0.922674 0
M  V30 10468 H 991.133 4.98162 2.37779 0
M  V30 10469 H 993.609 3.09697 2.77897 0
M  V30 10470 H 992.485 3.77537 3.98443 0
M  V30 10471 H 992.746 2.03942 3.9225 0
M  V30 10472 N 991.805 -0.723954 1.39988 0
M  V30 10473 C 993.033 -1.51313 1.4111 0
M  V30 10474 C 993.448 -1.88798 0.00853333 0
M  V30 10475 O 992.805 -1.54868 -0.965516 0
M  V30 10476 C 992.856 -2.79375 2.29416 0
M  V30 10477 O 992.577 -2.43478 3.64211 0
M  V30 10478 C 994.078 -3.7333 2.3904 0
M  V30 10479 H 991.298 -0.46724 0.481589 0
M  V30 10480 H 993.842 -0.893694 1.83938 0
M  V30 10481 H 991.997 -3.37624 1.89971 0
M  V30 10482 H 992.411 -3.25821 4.11024 0
M  V30 10483 H 993.885 -4.60051 3.05053 0
M  V30 10484 H 994.362 -4.15854 1.41289 0
M  V30 10485 H 994.968 -3.20996 2.79001 0
M  V30 10486 N 993.283 -1.25346 -0.955304 0
M  V30 10487 C 994.531 -1.09837 -1.69647 0
M  V30 10488 C 994.852 0.361425 -1.91621 0
M  V30 10489 O 994.122 1.25666 -1.50283 0
M  V30 10490 H 992.702 -0.403467 -0.628668 0
M  V30 10491 H 995.364 -1.57459 -1.14859 0
M  V30 10492 H 994.46 -1.60616 -2.67598 0
M  V30 10493 N 994.761 1.15782 -1.06922 0
M  V30 10494 C 995.691 2.22538 -0.707045 0
M  V30 10495 C 996.672 1.67371 0.303471 0
M  V30 10496 O 997.857 1.9339 0.177189 0
M  V30 10497 C 994.987 3.47158 -0.0994269 0
M  V30 10498 C 993.941 4.15257 -1.03661 0
M  V30 10499 C 993.267 5.33902 -0.291974 0
M  V30 10500 C 994.567 4.65516 -2.36837 0
M  V30 10501 H 996.261 2.53089 -1.59958 0
M  V30 10502 H 993.807 1.21649 -0.770552 0
M  V30 10503 H 995.76 4.21073 0.165852 0
M  V30 10504 H 994.484 3.15926 0.828155 0
M  V30 10505 H 993.143 3.43276 -1.28674 0
M  V30 10506 H 992.791 4.98926 0.638928 0
M  V30 10507 H 992.491 5.80407 -0.916613 0
M  V30 10508 H 994.015 6.1059 -0.0343915 0
M  V30 10509 H 995.429 5.30981 -2.16175 0
M  V30 10510 H 993.826 5.22666 -2.94856 0
M  V30 10511 H 994.896 3.81387 -2.99453 0
M  V30 10512 N 996.239 0.8527 1.3254 0
M  V30 10513 C 997.467 0.469044 2.01513 0
M  V30 10514 C 997.882 -0.933701 1.64096 0
M  V30 10515 O 997.239 -1.60898 0.861283 0
M  V30 10516 C 997.29 0.596228 3.56549 0
M  V30 10517 O 997.011 1.94371 3.92621 0
M  V30 10518 C 998.512 0.211324 4.42796 0
M  V30 10519 H 995.732 0.184589 0.645111 0
M  V30 10520 H 998.276 1.1491 1.69163 0
M  V30 10521 H 996.431 -0.0360712 3.87383 0
M  V30 10522 H 996.845 1.93909 4.87339 0
M  V30 10523 H 998.319 0.351324 5.50881 0
M  V30 10524 H 998.796 -0.848055 4.30935 0
M  V30 10525 H 999.402 0.818617 4.17347 0
M  V30 10526 N 997.718 -1.45297 0.610449 0
M  V30 10527 C 998.958 -2.04105 0.109802 0
M  V30 10528 C 999.322 -1.46818 -1.23727 0
M  V30 10529 O 1000.52 -1.96997 -1.82881 0
M  V30 10530 C 998.794 -3.57323 0.0741377 0
M  V30 10531 S 1000.35 -4.3728 -0.364901 0
M  V30 10532 H 997.171 -0.709171 0.050967 0
M  V30 10533 H 999.773 -1.77967 0.809194 0
M  V30 10534 H 998.477 -3.96528 1.05801 0
M  V30 10535 H 998.008 -3.8804 -0.647158 0
M  V30 10536 H 1000.02 -4.69224 -1.61379 0
M  V30 10537 N 999.196 -0.349774 -1.5367 0
M  V30 10538 C 1000.44 0.245862 -2.00196 0
M  V30 10539 C 1000.76 1.51154 -1.24144 0
M  V30 10540 O 1001.96 2.18481 -1.61178 0
M  V30 10541 C 1000.42 0.488665 -3.56567 0
M  V30 10542 C 1000.03 -0.761475 -4.41481 0
M  V30 10543 C 1001.77 1.04282 -4.11492 0
M  V30 10544 C 999.679 -0.489128 -5.89374 0
M  V30 10545 H 998.609 0.0956493 -0.747909 0
M  V30 10546 H 1001.26 -0.466068 -1.77483 0
M  V30 10547 H 999.642 1.26145 -3.75371 0
M  V30 10548 H 1000.82 -1.53585 -4.34452 0
M  V30 10549 H 999.131 -1.23771 -3.9758 0
M  V30 10550 H 1001.73 1.26164 -5.19603 0
M  V30 10551 H 1002.07 2.00023 -3.65098 0
M  V30 10552 H 1002.6 0.330582 -3.96424 0
M  V30 10553 H 999.343 -1.41643 -6.40014 0
M  V30 10554 H 998.863 0.247039 -5.99291 0
M  V30 10555 H 1000.54 -0.1087 -6.46909 0
M  V30 10556 N 1000.67 1.57404 -0.0785433 0
M  V30 10557 C 1001.64 2.11977 0.871693 0
M  V30 10558 C 1002.64 1.04529 1.2219 0
M  V30 10559 O 1003.83 1.30488 1.15406 0
M  V30 10560 C 1000.96 2.6267 2.17296 0
M  V30 10561 H 1002.15 2.97246 0.398115 0
M  V30 10562 H 999.705 1.5537 0.170251 0
M  V30 10563 H 1000.44 1.80873 2.69175 0
M  V30 10564 H 1000.22 3.41214 1.93171 0
M  V30 10565 H 1001.71 3.04943 2.85306 0
M  V30 10566 N 1002.15 -0.195058 1.56388 0
M  V30 10567 C 1003.4 -0.9168 1.80894 0
M  V30 10568 C 1003.73 -1.82907 0.652592 0
M  V30 10569 O 1003.01 -1.91382 -0.346853 0
M  V30 10570 C 1003.29 -1.733 3.15657 0
M  V30 10571 C 1003.14 -0.845449 4.41783 0
M  V30 10572 C 1004.46 -2.70557 3.47112 0
M  V30 10573 H 1001.58 -0.331861 0.658056 0
M  V30 10574 H 1004.22 -0.184174 1.89105 0
M  V30 10575 H 1002.37 -2.3576 3.08787 0
M  V30 10576 H 1004.04 -0.235557 4.60698 0
M  V30 10577 H 1002.29 -0.152172 4.33533 0
M  V30 10578 H 1002.96 -1.45152 5.32574 0
M  V30 10579 H 1005.43 -2.1823 3.54281 0
M  V30 10580 H 1004.31 -3.24749 4.42526 0
M  V30 10581 H 1004.57 -3.49605 2.70608 0
M  V30 10582 N 1003.63 -1.50653 -0.462772 0
M  V30 10583 C 1004.88 -1.62297 -1.21603 0
M  V30 10584 C 1005.21 -0.326191 -1.91441 0
M  V30 10585 O 1004.48 0.67284 -1.82491 0
M  V30 10586 C 1004.77 -2.80901 -2.25315 0
M  V30 10587 C 1004.62 -4.20484 -1.59728 0
M  V30 10588 C 1005.94 -2.95049 -3.26549 0
M  V30 10589 H 1003.06 -0.590691 -0.440741 0
M  V30 10590 H 1005.7 -1.83064 -0.508675 0
M  V30 10591 H 1003.85 -2.63325 -2.85643 0
M  V30 10592 H 1005.52 -4.49669 -1.02932 0
M  V30 10593 H 1003.76 -4.24357 -0.900181 0
M  V30 10594 H 1004.44 -4.99416 -2.35133 0
M  V30 10595 H 1006.91 -3.11166 -2.76251 0
M  V30 10596 H 1005.79 -3.79645 -3.96435 0
M  V30 10597 H 1006.05 -2.06019 -3.91163 0
M  V30 10598 N 1005.11 0.71652 -1.4037 0
M  V30 10599 C 1006.36 1.47347 -1.38324 0
M  V30 10600 C 1006.68 1.94995 0.0139949 0
M  V30 10601 O 1005.95 1.7028 0.968585 0
M  V30 10602 H 1004.53 0.546662 -0.509087 0
M  V30 10603 H 1007.19 0.849455 -1.75415 0
M  V30 10604 H 1006.29 2.34675 -2.05752 0
M  V30 10605 N 1006.59 1.25851 0.948643 0
M  V30 10606 C 1007.84 1.10347 1.68838 0
M  V30 10607 C 1008.15 -0.354262 1.92365 0
M  V30 10608 O 1009.35 -0.629847 2.64093 0
M  V30 10609 C 1007.81 1.92659 3.03991 0
M  V30 10610 C 1007.42 3.42962 2.88238 0
M  V30 10611 C 1009.16 1.85743 3.81707 0
M  V30 10612 C 1007.07 4.17547 4.18818 0
M  V30 10613 H 1006 0.409342 0.63321 0
M  V30 10614 H 1008.65 1.50098 1.05559 0
M  V30 10615 H 1007.03 1.45736 3.68208 0
M  V30 10616 H 1008.21 3.97601 2.32917 0
M  V30 10617 H 1006.52 3.51035 2.23972 0
M  V30 10618 H 1009.12 2.38758 4.78434 0
M  V30 10619 H 1009.46 0.826568 4.08012 0
M  V30 10620 H 1009.99 2.30449 3.2425 0
M  V30 10621 H 1006.73 5.21072 3.97699 0
M  V30 10622 H 1006.25 3.6769 4.73882 0
M  V30 10623 H 1007.93 4.25589 4.87322 0
M  V30 10624 N 1008.06 -1.15214 1.07534 0
M  V30 10625 C 1008.97 -2.23636 0.708818 0
M  V30 10626 C 1009.99 -1.7172 -0.280759 0
M  V30 10627 O 1011.17 -2.01 -0.126927 0
M  V30 10628 C 1008.23 -3.46512 0.114167 0
M  V30 10629 C 1007.29 -4.13409 1.15722 0
M  V30 10630 C 1006.53 -5.30419 0.59085 0
M  V30 10631 O 1006.75 -5.67314 -0.592512 0
M  V30 10632 O 1005.68 -5.86871 1.33663 0
M  V30 10633 H 1009.51 -2.57322 1.61305 0
M  V30 10634 H 1007.09 -1.22972 0.848422 0
M  V30 10635 H 1008.98 -4.20851 -0.215091 0
M  V30 10636 H 1007.65 -3.1457 -0.763356 0
M  V30 10637 H 1006.56 -3.40984 1.53886 0
M  V30 10638 H 1007.89 -4.49435 2.00671 0
M  V30 10639 N 1009.54 -0.859717 -1.32086 0
M  V30 10640 C 1010.82 -0.386665 -1.9174 0
M  V30 10641 C 1011.2 1.13028 -1.78292 0
M  V30 10642 O 1010.55 1.95422 -1.18417 0
M  V30 10643 C 1010.76 -0.856648 -3.38323 0
M  V30 10644 C 1012.11 -0.87678 -4.15449 0
M  V30 10645 O 1013.13 -0.80162 -3.47063 0
M  V30 10646 O 1011.99 -0.98373 -5.37573 0
M  V30 10647 H 1009.08 -0.113758 -0.819139 0
M  V30 10648 H 1011.63 -0.946952 -1.40822 0
M  V30 10649 H 1010.4 -1.89996 -3.42078 0
M  V30 10650 H 1010.02 -0.274095 -3.96654 0
M  V30 10651 N 1011.02 1.44971 -0.618145 0
M  V30 10652 C 1012.43 1.85611 -0.201334 0
M  V30 10653 C 1012.78 1.51698 1.24427 0
M  V30 10654 O 1011.91 0.94875 1.94493 0
M  V30 10655 C 1012.5 3.36897 -0.358619 0
M  V30 10656 C 1011.06 3.764 0.00358196 0
M  V30 10657 C 1010.21 2.68881 -0.678118 0
M  V30 10658 H 1013.16 1.35622 -0.824152 0
M  V30 10659 H 1013.18 3.78326 0.406176 0
M  V30 10660 H 1012.69 3.61548 -1.41084 0
M  V30 10661 H 1010.79 3.57365 1.05457 0
M  V30 10662 H 1010.91 4.77449 -0.397427 0
M  V30 10663 H 1009.27 2.54442 -0.114699 0
M  V30 10664 H 1010.05 2.96367 -1.73268 0
M  V30 10665 N 1012.5 0.357919 1.53482 0
M  V30 10666 C 1013.74 -0.23451 2.0144 0
M  V30 10667 C 1014.08 -1.49044 1.24497 0
M  V30 10668 O 1013.35 -1.91566 0.336535 0
M  V30 10669 C 1013.64 -0.534193 3.56116 0
M  V30 10670 C 1013.49 0.734834 4.43757 0
M  V30 10671 C 1014.81 -1.33793 4.1927 0
M  V30 10672 H 1011.93 -0.0837595 0.732225 0
M  V30 10673 H 1014.57 0.481297 1.83803 0
M  V30 10674 H 1012.72 -1.144 3.71275 0
M  V30 10675 H 1014.39 1.37251 4.40409 0
M  V30 10676 H 1012.63 1.35678 4.12036 0
M  V30 10677 H 1013.3 0.48021 5.49907 0
M  V30 10678 H 1015.78 -0.822158 4.07897 0
M  V30 10679 H 1014.66 -1.51636 5.27539 0
M  V30 10680 H 1014.92 -2.34423 3.74831 0
M  V30 10681 N 1013.98 -1.5736 0.0868897 0
M  V30 10682 C 1015.39 -1.57304 -0.269762 0
M  V30 10683 C 1015.59 -1.09745 -1.68992 0
M  V30 10684 O 1014.65 -0.77017 -2.40468 0
M  V30 10685 C 1015.96 -3.00628 -0.0656646 0
M  V30 10686 C 1017.51 -3.12713 -0.134045 0
M  V30 10687 C 1017.98 -4.57981 0.0419569 0
M  V30 10688 N 1019.48 -4.63198 -0.0131501 0
M  V30 10689 C 1020.21 -5.73316 0.0983964 0
M  V30 10690 N 1019.71 -6.92296 0.264315 0
M  V30 10691 N 1021.5 -5.62086 0.0402517 0
M  V30 10692 H 1013.65 -1.86585 1.01487 0
M  V30 10693 H 1015.91 -0.860843 0.397055 0
M  V30 10694 H 1015.62 -3.39592 0.914891 0
M  V30 10695 H 1015.49 -3.68367 -0.811522 0
M  V30 10696 H 1017.88 -2.73627 -1.1051 0
M  V30 10697 H 1017.96 -2.47582 0.643167 0
M  V30 10698 H 1017.61 -4.9776 1.00984 0
M  V30 10699 H 1017.54 -5.21162 -0.754847 0
M  V30 10700 H 1020.03 -3.77644 -0.139183 0
M  V30 10701 H 1020.34 -7.72047 0.341165 0
M  V30 10702 H 1018.68 -6.94353 0.299876 0
M  V30 10703 H 1021.88 -4.68017 -0.0881801 0
M  V30 10704 H 1022.05 -6.47868 0.130635 0
M  V30 10705 N 1015.45 0.186762 -1.56489 0
M  V30 10706 C 1016.87 0.750675 -1.70944 0
M  V30 10707 C 1017.22 1.83483 -0.694858 0
M  V30 10708 O 1016.34 2.159 0.147009 0
M  V30 10709 C 1016.94 1.36843 -3.09934 0
M  V30 10710 C 1015.5 1.87934 -3.26125 0
M  V30 10711 C 1014.64 0.75242 -2.66897 0
M  V30 10712 H 1017.59 -0.0384292 -1.58653 0
M  V30 10713 H 1017.61 2.23795 -3.07727 0
M  V30 10714 H 1017.13 0.579135 -3.83755 0
M  V30 10715 H 1015.23 2.69556 -2.57235 0
M  V30 10716 H 1015.34 2.0354 -4.33715 0
M  V30 10717 H 1013.7 1.16888 -2.26295 0
M  V30 10718 H 1014.49 -0.0247769 -3.43291 0
M  V30 10719 N 1016.93 1.50896 0.454776 0
M  V30 10720 C 1017.84 1.73762 1.5762 0
M  V30 10721 C 1018.86 0.621206 1.62533 0
M  V30 10722 O 1020.03 0.901449 1.801 0
M  V30 10723 C 1017.1 1.84183 2.9373 0
M  V30 10724 C 1016.16 3.07982 2.99075 0
M  V30 10725 C 1015.39 3.17896 4.28693 0
M  V30 10726 O 1015.62 2.34184 5.20109 0
M  V30 10727 O 1014.55 4.10749 4.39964 0
M  V30 10728 H 1018.38 2.68856 1.41245 0
M  V30 10729 H 1015.96 1.35187 0.635984 0
M  V30 10730 H 1017.84 1.93123 3.74542 0
M  V30 10731 H 1016.52 0.922742 3.10269 0
M  V30 10732 H 1015.43 3.04531 2.17282 0
M  V30 10733 H 1016.76 3.99523 2.87476 0
M  V30 10734 N 1018.41 -0.709066 1.40748 0
M  V30 10735 C 1019.66 -1.47119 1.39585 0
M  V30 10736 C 1019.99 -1.942 0.000245323 0
M  V30 10737 O 1019.26 -1.68609 -0.969593 0
M  V30 10738 C 1019.55 -2.69266 2.39099 0
M  V30 10739 C 1019.4 -2.28037 3.8771 0
M  V30 10740 C 1020.72 -3.71438 2.36055 0
M  V30 10741 H 1017.84 -0.533632 0.508336 0
M  V30 10742 H 1020.48 -0.808718 1.7193 0
M  V30 10743 H 1018.63 -3.25788 2.11647 0
M  V30 10744 H 1020.3 -1.76946 4.26014 0
M  V30 10745 H 1018.55 -1.59966 4.03229 0
M  V30 10746 H 1019.22 -3.15621 4.52866 0
M  V30 10747 H 1021.69 -3.24559 2.60385 0
M  V30 10748 H 1020.57 -4.54532 3.07721 0
M  V30 10749 H 1020.83 -4.20193 1.37443 0
M  V30 10750 N 1019.89 -1.26353 -0.941956 0
M  V30 10751 C 1021.3 -1.10774 -1.50287 0
M  V30 10752 C 1021.65 0.312229 -1.937 0
M  V30 10753 O 1020.78 1.20364 -1.79838 0
M  V30 10754 C 1021.37 -2.00473 -2.73123 0
M  V30 10755 C 1019.93 -1.89042 -3.25485 0
M  V30 10756 C 1019.08 -1.93869 -1.98267 0
M  V30 10757 H 1022.03 -1.39454 -0.757523 0
M  V30 10758 H 1022.05 -1.55216 -3.47402 0
M  V30 10759 H 1021.56 -3.03812 -2.41495 0
M  V30 10760 H 1019.66 -0.886341 -3.61904 0
M  V30 10761 H 1019.78 -2.74533 -3.92643 0
M  V30 10762 H 1018.14 -1.37912 -2.14132 0
M  V30 10763 H 1018.92 -2.98837 -1.68972 0
M  V30 10764 N 1021.37 1.14642 -1.08144 0
M  V30 10765 C 1022.64 1.81774 -0.72232 0
M  V30 10766 C 1023.02 1.95587 0.794294 0
M  V30 10767 O 1022.37 1.51361 1.71178 0
M  V30 10768 C 1022.58 3.1763 -1.44611 0
M  V30 10769 C 1023.93 3.93161 -1.60343 0
M  V30 10770 O 1024.95 3.2721 -1.40755 0
M  V30 10771 O 1023.81 5.11422 -1.9264 0
M  V30 10772 H 1020.91 0.785733 -0.257978 0
M  V30 10773 H 1023.45 1.21683 -1.18285 0
M  V30 10774 H 1022.23 3.02723 -2.4794 0
M  V30 10775 H 1021.85 3.85412 -0.976892 0
M  V30 10776 N 1022.85 0.866709 1.31628 0
M  V30 10777 C 1023.81 0.325041 2.26883 0
M  V30 10778 C 1024.81 -0.522133 1.52087 0
M  V30 10779 O 1026 -0.331908 1.71009 0
M  V30 10780 C 1023.13 -0.538756 3.36616 0
M  V30 10781 H 1024.32 1.16592 2.76308 0
M  V30 10782 H 1021.88 0.642029 1.42505 0
M  V30 10783 H 1022.61 -1.40096 2.92478 0
M  V30 10784 H 1022.4 0.0678115 3.92041 0
M  V30 10785 H 1023.89 -0.910123 4.07562 0
M  V30 10786 N 1024.32 -1.44642 0.625825 0
M  V30 10787 C 1025.57 -2.01308 0.125682 0
M  V30 10788 C 1025.89 -1.49773 -1.25807 0
M  V30 10789 O 1027.09 -1.98533 -1.85194 0
M  V30 10790 C 1025.55 -3.59479 0.17395 0
M  V30 10791 C 1025.16 -4.20011 1.55868 0
M  V30 10792 C 1026.9 -4.2364 -0.270005 0
M  V30 10793 C 1024.81 -5.7039 1.56235 0
M  V30 10794 H 1023.74 -0.75276 0.0432194 0
M  V30 10795 H 1026.39 -1.65916 0.783842 0
M  V30 10796 H 1024.77 -3.92145 -0.551212 0
M  V30 10797 H 1025.94 -3.98891 2.307 0
M  V30 10798 H 1024.26 -3.68116 1.94627 0
M  V30 10799 H 1026.86 -5.33931 -0.28672 0
M  V30 10800 H 1027.2 -3.95603 -1.29629 0
M  V30 10801 H 1027.73 -3.95759 0.402487 0
M  V30 10802 H 1024.47 -6.03154 2.56683 0
M  V30 10803 H 1023.99 -5.93648 0.856881 0
M  V30 10804 H 1025.67 -6.33929 1.29396 0
M  V30 10805 N 1025.8 -0.366053 -1.5329 0
M  V30 10806 C 1026.75 0.480205 -2.25749 0
M  V30 10807 C 1027.72 1.07713 -1.2644 0
M  V30 10808 O 1028.9 1.10953 -1.55222 0
M  V30 10809 C 1026.04 1.61374 -3.05045 0
M  V30 10810 C 1025.16 1.04194 -4.19246 0
M  V30 10811 C 1024.29 2.14462 -4.85983 0
M  V30 10812 C 1023.33 1.5475 -5.92215 0
M  V30 10813 N 1022.47 2.58852 -6.52641 0
M  V30 10814 H 1027.31 -0.144199 -2.97651 0
M  V30 10815 H 1024.84 -0.0829321 -1.46866 0
M  V30 10816 H 1026.8 2.28144 -3.49294 0
M  V30 10817 H 1025.43 2.2088 -2.35397 0
M  V30 10818 H 1024.48 0.264514 -3.79479 0
M  V30 10819 H 1025.8 0.565379 -4.95585 0
M  V30 10820 H 1024.95 2.89051 -5.33418 0
M  V30 10821 H 1023.69 2.6547 -4.09117 0
M  V30 10822 H 1022.69 0.786759 -5.44142 0
M  V30 10823 H 1023.92 1.04566 -6.71001 0
M  V30 10824 H 1021.87 3.09073 -5.78627 0
M  V30 10825 H 1021.78 2.15884 -7.24521 0
M  V30 10826 H 1023.05 3.33142 -7.04724 0
M  V30 10827 N 1027.28 1.57312 -0.0952337 0
M  V30 10828 C 1028.23 2.14032 0.863657 0
M  V30 10829 C 1029.2 1.0589 1.27971 0
M  V30 10830 O 1030.38 1.33678 1.36143 0
M  V30 10831 C 1027.52 2.72513 2.11733 0
M  V30 10832 C 1026.63 3.94887 1.7518 0
M  V30 10833 C 1025.77 4.41533 2.95334 0
M  V30 10834 C 1024.81 5.56496 2.54908 0
M  V30 10835 N 1023.95 5.97993 3.67897 0
M  V30 10836 H 1028.79 2.95655 0.373115 0
M  V30 10837 H 1026.32 1.46085 0.172497 0
M  V30 10838 H 1028.28 3.04539 2.85153 0
M  V30 10839 H 1026.91 1.93618 2.58287 0
M  V30 10840 H 1025.96 3.69175 0.917279 0
M  V30 10841 H 1027.27 4.78322 1.41455 0
M  V30 10842 H 1026.43 4.75343 3.77007 0
M  V30 10843 H 1025.17 3.56999 3.3227 0
M  V30 10844 H 1024.17 5.22314 1.71662 0
M  V30 10845 H 1025.4 6.42779 2.19117 0
M  V30 10846 H 1023.34 5.16405 4.04551 0
M  V30 10847 H 1023.26 6.76225 3.38018 0
M  V30 10848 H 1024.53 6.36434 4.5008 0
M  V30 10849 N 1028.76 -0.17846 1.56586 0
M  V30 10850 C 1030 -0.90281 1.83381 0
M  V30 10851 C 1030.36 -1.79738 0.675139 0
M  V30 10852 O 1031.56 -2.55879 0.823368 0
M  V30 10853 C 1029.83 -1.68353 3.15265 0
M  V30 10854 S 1031.39 -2.45762 3.6352 0
M  V30 10855 H 1028.21 -0.302508 0.643436 0
M  V30 10856 H 1030.81 -0.164961 1.94803 0
M  V30 10857 H 1029.52 -1.01725 3.97593 0
M  V30 10858 H 1029.05 -2.46289 3.06766 0
M  V30 10859 H 1031.06 -3.70312 3.30278 0
M  V30 10860 N 1030.24 -1.51135 -0.446768 0
M  V30 10861 C 1031.17 -1.67949 -1.55967 0
M  V30 10862 C 1032.18 -0.560337 -1.52853 0
M  V30 10863 O 1033.37 -0.83435 -1.578 0
M  V30 10864 C 1030.47 -1.6703 -2.9488 0
M  V30 10865 C 1029.64 -2.95377 -3.22601 0
M  V30 10866 C 1028.7 -2.86772 -4.4119 0
M  V30 10867 O 1027.73 -3.60722 -4.40304 0
M  V30 10868 N 1028.93 -2.01979 -5.44228 0
M  V30 10869 H 1031.69 -2.63951 -1.41951 0
M  V30 10870 H 1029.26 -1.48903 -0.635569 0
M  V30 10871 H 1031.25 -1.58854 -3.7222 0
M  V30 10872 H 1029.82 -0.786623 -3.02541 0
M  V30 10873 H 1029.04 -3.17494 -2.33647 0
M  V30 10874 H 1030.33 -3.80356 -3.37945 0
M  V30 10875 H 1029.72 -1.41257 -5.4778 0
M  V30 10876 H 1028.28 -1.99689 -6.20457 0
M  V30 10877 N 1031.71 0.701592 -1.41122 0
M  V30 10878 C 1033.13 1.01143 -1.23459 0
M  V30 10879 C 1033.33 2.01144 -0.11968 0
M  V30 10880 O 1032.39 2.47132 0.517889 0
M  V30 10881 C 1033.7 1.54179 -2.58165 0
M  V30 10882 C 1035.25 1.66093 -2.65296 0
M  V30 10883 C 1035.72 2.22532 -4.00304 0
M  V30 10884 N 1037.21 2.299 -4.0212 0
M  V30 10885 C 1037.95 2.74584 -5.0338 0
M  V30 10886 N 1037.44 3.18917 -6.15032 0
M  V30 10887 N 1039.24 2.74094 -4.90743 0
M  V30 10888 H 1031.39 0.0390087 -2.12364 0
M  V30 10889 H 1033.65 0.0798848 -0.944628 0
M  V30 10890 H 1033.36 0.881587 -3.40472 0
M  V30 10891 H 1033.23 2.52488 -2.80231 0
M  V30 10892 H 1035.62 2.31227 -1.83352 0
M  V30 10893 H 1035.7 0.663461 -2.47046 0
M  V30 10894 H 1035.34 1.58016 -4.82694 0
M  V30 10895 H 1035.27 3.2302 -4.15891 0
M  V30 10896 H 1037.76 1.98607 -3.21502 0
M  V30 10897 H 1038.08 3.5162 -6.88174 0
M  V30 10898 H 1036.42 3.1684 -6.18577 0
M  V30 10899 H 1039.61 2.38804 -4.02604 0
M  V30 10900 H 1039.79 3.086 -5.69798 0
M  V30 10901 N 1033.19 1.2685 0.935242 0
M  V30 10902 C 1034.15 1.08975 2.01636 0
M  V30 10903 C 1035.15 0.0361543 1.60759 0
M  V30 10904 O 1036.34 0.280087 1.71934 0
M  V30 10905 C 1033.48 0.658831 3.34473 0
M  V30 10906 H 1034.67 2.04968 2.18925 0
M  V30 10907 H 1032.22 1.09531 1.11501 0
M  V30 10908 H 1032.96 -0.302824 3.22883 0
M  V30 10909 H 1032.74 1.41967 3.65497 0
M  V30 10910 H 1034.23 0.555783 4.13885 0
M  V30 10911 N 1034.67 -1.14067 1.0875 0
M  V30 10912 C 1035.92 -1.84819 0.817698 0
M  V30 10913 C 1036.24 -1.83545 -0.658488 0
M  V30 10914 O 1035.51 -1.28633 -1.47751 0
M  V30 10915 H 1034.09 -0.68433 0.299502 0
M  V30 10916 H 1036.75 -1.38208 1.37421 0
M  V30 10917 H 1035.85 -2.89541 1.16501 0
M  V30 10918 N 1036.15 -0.873678 -1.31166 0
M  V30 10919 C 1037.4 -0.482577 -1.95842 0
M  V30 10920 C 1037.71 0.970881 -1.69804 0
M  V30 10921 O 1038.92 1.4683 -2.28371 0
M  V30 10922 C 1037.37 -0.812074 -3.50619 0
M  V30 10923 C 1036.98 -2.28254 -3.85492 0
M  V30 10924 C 1038.72 -0.489624 -4.21667 0
M  V30 10925 C 1036.63 -2.55426 -5.33396 0
M  V30 10926 H 1035.56 -0.176736 -0.732994 0
M  V30 10927 H 1038.21 -1.06709 -1.49283 0
M  V30 10928 H 1036.59 -0.156769 -3.9569 0
M  V30 10929 H 1037.77 -2.98122 -3.51369 0
M  V30 10930 H 1036.08 -2.5714 -3.27518 0
M  V30 10931 H 1038.68 -0.669811 -5.30488 0
M  V30 10932 H 1039.02 0.570204 -4.12376 0
M  V30 10933 H 1039.56 -1.10163 -3.82242 0
M  V30 10934 H 1036.3 -3.60106 -5.47726 0
M  V30 10935 H 1035.82 -1.90156 -5.68859 0
M  V30 10936 H 1037.49 -2.40345 -6.00702 0
M  V30 10937 N 1037.63 1.44308 -0.633487 0
M  V30 10938 C 1038.85 2.06384 -0.146063 0
M  V30 10939 C 1039.27 1.47357 1.18031 0
M  V30 10940 O 1038.63 0.597334 1.72448 0
M  V30 10941 C 1038.68 3.61489 -0.0276722 0
M  V30 10942 O 1038.4 4.18318 -1.3016 0
M  V30 10943 C 1039.9 4.40604 0.488168 0
M  V30 10944 H 1037.12 0.666122 -0.0807632 0
M  V30 10945 H 1039.66 1.85139 -0.868557 0
M  V30 10946 H 1037.82 3.81988 0.645273 0
M  V30 10947 H 1038.23 5.11783 -1.14797 0
M  V30 10948 H 1039.71 5.49545 0.520013 0
M  V30 10949 H 1040.18 4.12218 1.51568 0
M  V30 10950 H 1040.79 4.2503 -0.151608 0
M  V30 10951 N 1039.1 0.374177 1.53094 0
M  V30 10952 C 1040.35 -0.213131 2.01677 0
M  V30 10953 C 1040.68 -1.47715 1.26071 0
M  V30 10954 O 1039.96 -1.91199 0.356834 0
M  V30 10955 C 1040.24 -0.496392 3.56662 0
M  V30 10956 C 1040.09 0.781859 4.42953 0
M  V30 10957 C 1041.41 -1.29339 4.20666 0
M  V30 10958 H 1038.53 -0.0759885 0.733072 0
M  V30 10959 H 1041.17 0.500765 1.83282 0
M  V30 10960 H 1039.32 -1.10455 3.72467 0
M  V30 10961 H 1041 1.41914 4.38928 0
M  V30 10962 H 1039.24 1.40041 4.10574 0
M  V30 10963 H 1039.91 0.538508 5.49367 0
M  V30 10964 H 1042.39 -0.778848 4.08746 0
M  V30 10965 H 1041.26 -1.46033 5.29118 0
M  V30 10966 H 1041.52 -2.30435 3.77296 0
M  V30 10967 N 1040.58 -1.57259 0.103575 0
M  V30 10968 C 1042 -1.57581 -0.253062 0
M  V30 10969 C 1042.2 -1.11531 -1.67819 0
M  V30 10970 O 1041.25 -0.795632 -2.39637 0
M  V30 10971 C 1042.57 -3.00681 -0.0337753 0
M  V30 10972 C 1044.12 -3.12837 -0.10087 0
M  V30 10973 C 1044.59 -4.57911 0.0905295 0
M  V30 10974 N 1046.08 -4.63186 0.0359789 0
M  V30 10975 C 1046.82 -5.73179 0.159199 0
M  V30 10976 N 1046.31 -6.91976 0.337728 0
M  V30 10977 N 1048.11 -5.62011 0.0998662 0
M  V30 10978 H 1040.26 -1.85499 1.0346 0
M  V30 10979 H 1042.52 -0.856584 0.406163 0
M  V30 10980 H 1042.23 -3.38602 0.950858 0
M  V30 10981 H 1042.1 -3.69207 -0.772406 0
M  V30 10982 H 1044.49 -2.74783 -1.07601 0
M  V30 10983 H 1044.57 -2.46886 0.66939 0
M  V30 10984 H 1044.21 -4.9666 1.06258 0
M  V30 10985 H 1044.14 -5.21933 -0.699528 0
M  V30 10986 H 1046.63 -3.7777 -0.099121 0
M  V30 10987 H 1046.95 -7.71641 0.423032 0
M  V30 10988 H 1045.29 -6.93996 0.373504 0
M  V30 10989 H 1048.48 -4.68084 -0.0385356 0
M  V30 10990 H 1048.65 -6.47693 0.199342 0
M  V30 10991 N 1042.06 0.170153 -1.56679 0
M  V30 10992 C 1042.99 1.23945 -1.91606 0
M  V30 10993 C 1043.97 1.42725 -0.779004 0
M  V30 10994 O 1045.16 1.57712 -1.03243 0
M  V30 10995 C 1042.28 2.60222 -2.168 0
M  V30 10996 C 1041.33 2.58172 -3.39484 0
M  V30 10997 S 1042.16 2.0714 -4.93815 0
M  V30 10998 C 1043.32 3.45192 -5.22105 0
M  V30 10999 H 1043.55 0.941345 -2.82004 0
M  V30 11000 H 1041.08 0.374771 -1.49783 0
M  V30 11001 H 1043.04 3.38656 -2.31996 0
M  V30 11002 H 1041.7 2.87232 -1.27107 0
M  V30 11003 H 1040.9 3.58435 -3.54317 0
M  V30 11004 H 1040.5 1.87834 -3.2341 0
M  V30 11005 H 1042.79 4.41194 -5.14154 0
M  V30 11006 H 1043.73 3.35233 -6.23718 0
M  V30 11007 H 1044.14 3.41257 -4.49671 0
M  V30 11008 N 1043.54 1.5137 0.438746 0
M  V30 11009 C 1044.78 1.64211 1.19006 0
M  V30 11010 C 1045.12 0.356607 1.90898 0
M  V30 11011 O 1044.39 -0.643722 1.83539 0
M  V30 11012 C 1044.68 2.8445 2.20817 0
M  V30 11013 C 1044.53 4.22972 1.53018 0
M  V30 11014 C 1045.85 3.00207 3.21813 0
M  V30 11015 H 1042.97 0.597628 0.431288 0
M  V30 11016 H 1045.61 1.8385 0.479487 0
M  V30 11017 H 1043.76 2.67836 2.81418 0
M  V30 11018 H 1045.43 4.5125 0.957654 0
M  V30 11019 H 1043.67 4.25736 0.832556 0
M  V30 11020 H 1044.34 5.03094 2.27158 0
M  V30 11021 H 1046.82 3.15522 2.71266 0
M  V30 11022 H 1045.7 3.85904 3.90345 0
M  V30 11023 H 1045.96 2.12216 3.87836 0
M  V30 11024 N 1045.02 -0.694098 1.41492 0
M  V30 11025 C 1046.24 -1.48286 1.44288 0
M  V30 11026 C 1046.66 -1.88737 0.0485783 0
M  V30 11027 O 1046.02 -1.56881 -0.932449 0
M  V30 11028 C 1046.07 -2.74446 2.3529 0
M  V30 11029 O 1045.79 -2.35698 3.69294 0
M  V30 11030 C 1047.29 -3.68175 2.46905 0
M  V30 11031 H 1044.51 -0.45692 0.491391 0
M  V30 11032 H 1047.05 -0.854477 1.85793 0
M  V30 11033 H 1045.21 -3.33518 1.9709 0
M  V30 11034 H 1045.62 -3.17029 4.17843 0
M  V30 11035 H 1047.1 -4.53476 3.14743 0
M  V30 11036 H 1047.57 -4.12763 1.50078 0
M  V30 11037 H 1048.18 -3.15006 2.85747 0
M  V30 11038 N 1046.49 -1.27344 -0.928501 0
M  V30 11039 C 1047.74 -1.13411 -1.67279 0
M  V30 11040 C 1048.06 0.320698 -1.92345 0
M  V30 11041 O 1047.33 1.2245 -1.52915 0
M  V30 11042 H 1045.91 -0.416712 -0.619968 0
M  V30 11043 H 1048.58 -1.5986 -1.11493 0
M  V30 11044 H 1047.67 -1.66256 -2.64131 0
M  V30 11045 N 1047.97 1.13488 -1.09353 0
M  V30 11046 C 1049.25 1.80998 -0.741559 0
M  V30 11047 C 1049.63 1.96418 0.773505 0
M  V30 11048 O 1048.98 1.53168 1.69563 0
M  V30 11049 C 1049.19 3.16078 -1.47972 0
M  V30 11050 C 1050.54 3.91438 -1.64504 0
M  V30 11051 O 1051.56 3.25699 -1.44218 0
M  V30 11052 O 1050.42 5.0935 -1.98054 0
M  V30 11053 H 1047.51 0.782953 -0.266297 0
M  V30 11054 H 1050.06 1.20422 -1.19569 0
M  V30 11055 H 1048.83 3.00076 -2.51137 0
M  V30 11056 H 1048.45 3.84354 -1.01772 0
M  V30 11057 N 1049.45 0.880621 1.30701 0
M  V30 11058 C 1050.4 0.333562 2.30196 0
M  V30 11059 C 1051.39 -0.557092 1.59978 0
M  V30 11060 O 1052.6 -0.442009 1.74489 0
M  V30 11061 H 1048.97 0.0892036 0.746691 0
M  V30 11062 H 1050.95 1.18644 2.73799 0
M  V30 11063 C 1049.69 -0.440731 3.44895 0
M  V30 11064 H 1049.02 0.235353 3.99107 0
M  V30 11065 H 1050.46 -0.788676 4.166 0
M  V30 11066 C 1048.92 -1.63613 2.94504 0
M  V30 11067 O 1049.45 -2.73549 2.94166 0
M  V30 11068 N 1047.65 -1.47183 2.5057 0
M  V30 11069 H 1047.2 -0.577479 2.51044 0
M  V30 11070 H 1047.16 -2.27303 2.17211 0
M  V30 11071 N 1050.93 -1.4397 0.641131 0
M  V30 11072 C 1052.18 -2.01163 0.147026 0
M  V30 11073 C 1052.49 -1.51099 -1.24211 0
M  V30 11074 O 1053.7 -2.00487 -1.83078 0
M  V30 11075 C 1052.15 -3.59275 0.212068 0
M  V30 11076 C 1051.76 -4.18334 1.60314 0
M  V30 11077 C 1053.51 -4.23903 -0.225057 0
M  V30 11078 C 1051.41 -5.68701 1.62276 0
M  V30 11079 H 1050.34 -0.75226 0.051201 0
M  V30 11080 H 1052.99 -1.65075 0.801396 0
M  V30 11081 H 1051.38 -3.92708 -0.509589 0
M  V30 11082 H 1052.55 -3.96422 2.34918 0
M  V30 11083 H 1050.86 -3.66031 1.9852 0
M  V30 11084 H 1053.46 -5.34205 -0.230074 0
M  V30 11085 H 1053.8 -3.96956 -1.25426 0
M  V30 11086 H 1054.34 -3.95309 0.44444 0
M  V30 11087 H 1051.08 -6.00397 2.63066 0
M  V30 11088 H 1050.6 -5.92705 0.919797 0
M  V30 11089 H 1052.28 -6.32521 1.36112 0
M  V30 11090 N 1052.41 -0.382291 -1.52893 0
M  V30 11091 C 1053.36 0.471187 -2.27778 0
M  V30 11092 C 1054.35 1.0691 -1.31402 0
M  V30 11093 O 1055.56 1.01038 -1.48967 0
M  V30 11094 H 1051.93 0.170696 -0.732371 0
M  V30 11095 H 1053.9 -0.181954 -2.97845 0
M  V30 11096 C 1052.65 1.59012 -3.09209 0
M  V30 11097 H 1051.97 1.13935 -3.83222 0
M  V30 11098 H 1053.41 2.16167 -3.64757 0
M  V30 11099 C 1051.87 2.54212 -2.21084 0
M  V30 11100 O 1052.4 3.57447 -1.83288 0
M  V30 11101 N 1050.61 2.23789 -1.85383 0
M  V30 11102 H 1050.16 1.39872 -2.16318 0
M  V30 11103 H 1050.11 2.87737 -1.26708 0
M  V30 11104 N 1053.89 1.57202 -0.111913 0
M  V30 11105 C 1055.11 1.99297 0.555713 0
M  V30 11106 C 1055.53 0.991444 1.60673 0
M  V30 11107 O 1054.89 -0.0166672 1.82492 0
M  V30 11108 C 1054.94 3.41413 1.18826 0
M  V30 11109 O 1054.66 4.37733 0.179261 0
M  V30 11110 C 1056.16 3.98602 1.93989 0
M  V30 11111 H 1053.38 0.654543 0.147695 0
M  V30 11112 H 1055.92 2.03557 -0.196163 0
M  V30 11113 H 1054.08 3.38115 1.89096 0
M  V30 11114 H 1054.49 5.20606 0.637935 0
M  V30 11115 H 1055.97 5.00143 2.33584 0
M  V30 11116 H 1056.44 3.37349 2.81233 0
M  V30 11117 H 1057.05 4.05424 1.28497 0
M  V30 11118 N 1055.36 -0.161842 1.56767 0
M  V30 11119 C 1056.33 -1.18404 1.96247 0
M  V30 11120 C 1057.33 -1.3667 0.84722 0
M  V30 11121 O 1058.52 -1.33915 1.11411 0
M  V30 11122 C 1055.65 -2.54728 2.26553 0
M  V30 11123 H 1056.84 -0.845703 2.87729 0
M  V30 11124 H 1054.39 -0.404645 1.50971 0
M  V30 11125 H 1055.13 -2.93559 1.37816 0
M  V30 11126 H 1054.91 -2.42834 3.07854 0
M  V30 11127 H 1056.4 -3.28378 2.57987 0
M  V30 11128 N 1056.84 -1.516 -0.430713 0
M  V30 11129 C 1058.26 -1.39923 -0.767706 0
M  V30 11130 C 1058.46 -0.486756 -1.95532 0
M  V30 11131 O 1057.51 0.0555965 -2.52439 0
M  V30 11132 C 1058.83 -2.82074 -1.04187 0
M  V30 11133 C 1060.37 -2.9127 -1.1459 0
M  V30 11134 C 1060.85 -4.34342 -1.45295 0
M  V30 11135 N 1062.34 -4.37479 -1.52206 0
M  V30 11136 C 1063.08 -5.45219 -1.77549 0
M  V30 11137 N 1062.57 -6.6311 -2.0064 0
M  V30 11138 N 1064.36 -5.32707 -1.79386 0
M  V30 11139 H 1056.52 -2.09474 0.351351 0
M  V30 11140 H 1058.78 -0.943247 0.0948151 0
M  V30 11141 H 1058.48 -3.50868 -0.241837 0
M  V30 11142 H 1058.36 -3.21805 -1.96777 0
M  V30 11143 H 1060.75 -2.2267 -1.93655 0
M  V30 11144 H 1060.83 -2.55026 -0.198854 0
M  V30 11145 H 1060.47 -5.03494 -0.667559 0
M  V30 11146 H 1060.4 -4.68105 -2.41217 0
M  V30 11147 H 1062.89 -3.52488 -1.36237 0
M  V30 11148 H 1063.2 -7.41012 -2.19366 0
M  V30 11149 H 1061.55 -6.66214 -1.97948 0
M  V30 11150 H 1064.74 -4.39589 -1.60869 0
M  V30 11151 H 1064.91 -6.16752 -1.98799 0
M  V30 11152 N 1058.32 0.686584 -1.41858 0
M  V30 11153 C 1059.28 1.78214 -1.44126 0
M  V30 11154 C 1060.28 1.57366 -0.330541 0
M  V30 11155 O 1061.47 1.63874 -0.590837 0
M  V30 11156 C 1058.6 3.16704 -1.26142 0
M  V30 11157 H 1059.8 1.77594 -2.41661 0
M  V30 11158 H 1057.35 0.895085 -1.28132 0
M  V30 11159 H 1058.09 3.22957 -0.294823 0
M  V30 11160 H 1057.87 3.33238 -2.06627 0
M  V30 11161 H 1059.36 3.96658 -1.30584 0
M  V30 11162 N 1059.8 1.27835 0.921735 0
M  V30 11163 C 1061.05 1.13904 1.6646 0
M  V30 11164 C 1061.36 -0.313379 1.93073 0
M  V30 11165 O 1062.57 -0.573687 2.6537 0
M  V30 11166 C 1061.02 1.99064 2.99836 0
M  V30 11167 C 1060.63 3.48998 2.80899 0
M  V30 11168 C 1062.37 1.93797 3.77681 0
M  V30 11169 C 1060.28 4.26337 4.09867 0
M  V30 11170 H 1059.21 0.422681 0.624385 0
M  V30 11171 H 1061.86 1.52303 1.02352 0
M  V30 11172 H 1060.24 1.53514 3.65034 0
M  V30 11173 H 1061.42 4.02452 2.24431 0
M  V30 11174 H 1059.73 3.55707 2.16476 0
M  V30 11175 H 1062.33 2.48852 4.73262 0
M  V30 11176 H 1062.67 0.912928 4.06167 0
M  V30 11177 H 1063.21 2.37275 3.19289 0
M  V30 11178 H 1059.94 5.2939 3.86557 0
M  V30 11179 H 1059.46 3.77659 4.65976 0
M  V30 11180 H 1061.14 4.3583 4.78185 0
M  V30 11181 N 1061.28 -1.12907 1.09954 0
M  V30 11182 C 1062.24 -2.16673 0.747364 0
M  V30 11183 C 1063.24 -1.59208 -0.225741 0
M  V30 11184 O 1064.43 -1.742 -0.00322482 0
M  V30 11185 C 1061.56 -3.40735 0.106169 0
M  V30 11186 H 1062.75 -2.49341 1.6664 0
M  V30 11187 H 1060.31 -1.27828 0.899421 0
M  V30 11188 H 1061.04 -3.13661 -0.82384 0
M  V30 11189 H 1060.83 -3.83717 0.806434 0
M  V30 11190 H 1062.32 -4.17414 -0.12464 0
M  V30 11191 N 1062.75 -0.88754 -1.30232 0
M  V30 11192 C 1063.98 -0.522306 -2.00199 0
M  V30 11193 C 1064.4 0.889866 -1.66514 0
M  V30 11194 O 1063.75 1.58558 -0.903639 0
M  V30 11195 C 1063.8 -0.690551 -3.54843 0
M  V30 11196 O 1063.53 -2.04713 -3.8733 0
M  V30 11197 C 1065.03 -0.328649 -4.4208 0
M  V30 11198 H 1062.25 -0.201628 -0.63999 0
M  V30 11199 H 1064.79 -1.19355 -1.66056 0
M  V30 11200 H 1062.95 -0.0666493 -3.87343 0
M  V30 11201 H 1063.36 -2.06762 -4.82027 0
M  V30 11202 H 1064.83 -0.497257 -5.49756 0
M  V30 11203 H 1065.31 0.733502 -4.33032 0
M  V30 11204 H 1065.92 -0.928982 -4.1503 0
M  V30 11205 N 1064.23 1.43628 -0.648757 0
M  V30 11206 C 1065.18 2.30755 0.0455536 0
M  V30 11207 C 1066.15 1.44495 0.819168 0
M  V30 11208 O 1067.33 1.73372 0.79667 0
M  V30 11209 C 1064.47 3.30017 1.00908 0
M  V30 11210 C 1063.59 4.31376 0.232039 0
M  V30 11211 C 1062.72 5.17723 1.18897 0
M  V30 11212 C 1061.76 6.10778 0.402096 0
M  V30 11213 N 1060.9 6.89763 1.31038 0
M  V30 11214 H 1065.74 2.89581 -0.70332 0
M  V30 11215 H 1063.28 1.42662 -0.3586 0
M  V30 11216 H 1065.23 3.86072 1.58128 0
M  V30 11217 H 1063.86 2.72851 1.72488 0
M  V30 11218 H 1062.92 3.77652 -0.456373 0
M  V30 11219 H 1064.23 4.9735 -0.380023 0
M  V30 11220 H 1063.38 5.78381 1.83194 0
M  V30 11221 H 1062.12 4.51864 1.83494 0
M  V30 11222 H 1061.13 5.49212 -0.254255 0
M  V30 11223 H 1062.35 6.78678 -0.239411 0
M  V30 11224 H 1060.3 6.26557 1.94324 0
M  V30 11225 H 1060.21 7.52243 0.752774 0
M  V30 11226 H 1061.48 7.54931 1.94164 0
M  V30 11227 N 1065.71 0.390394 1.52688 0
M  V30 11228 C 1066.95 -0.191207 2.03504 0
M  V30 11229 C 1067.31 -1.43952 1.27051 0
M  V30 11230 O 1068.52 -2.09835 1.67996 0
M  V30 11231 C 1066.79 -0.451552 3.54536 0
M  V30 11232 S 1068.35 -1.00328 4.27176 0
M  V30 11233 H 1065.16 -0.0537587 0.708965 0
M  V30 11234 H 1067.77 0.538993 1.87923 0
M  V30 11235 H 1066.47 0.464061 4.07768 0
M  V30 11236 H 1066 -1.21015 3.74325 0
M  V30 11237 H 1068.02 -2.28555 4.40428 0
M  V30 11238 N 1067.19 -1.57141 0.120249 0
M  V30 11239 C 1068.44 -1.94852 -0.536387 0
M  V30 11240 C 1068.76 -1.00452 -1.67136 0
M  V30 11241 O 1068.03 -0.061053 -1.95805 0
M  V30 11242 H 1066.61 -0.719411 -0.201138 0
M  V30 11243 H 1069.27 -1.93977 0.189482 0
M  V30 11244 H 1068.37 -2.97917 -0.930145 0
M  V30 11245 N 1068.67 0.153526 -1.5685 0
M  V30 11246 C 1069.92 0.865628 -1.82181 0
M  V30 11247 C 1070.23 1.82629 -0.700434 0
M  V30 11248 O 1071.43 2.58206 -0.839155 0
M  V30 11249 C 1069.89 1.58993 -3.22877 0
M  V30 11250 C 1069.5 0.672006 -4.42931 0
M  V30 11251 C 1071.24 2.2892 -3.57486 0
M  V30 11252 C 1069.15 1.39755 -5.7465 0
M  V30 11253 H 1068.08 0.326993 -0.679406 0
M  V30 11254 H 1070.73 0.118403 -1.83118 0
M  V30 11255 H 1069.11 2.38255 -3.16308 0
M  V30 11256 H 1070.29 -0.0849226 -4.60722 0
M  V30 11257 H 1068.6 0.0814825 -4.1632 0
M  V30 11258 H 1071.2 2.8383 -4.5315 0
M  V30 11259 H 1071.54 3.05105 -2.83226 0
M  V30 11260 H 1072.07 1.56583 -3.65686 0
M  V30 11261 H 1068.81 0.677686 -6.51987 0
M  V30 11262 H 1068.33 2.12736 -5.60806 0
M  V30 11263 H 1070.01 1.94024 -6.17223 0
M  V30 11264 N 1070.14 1.51827 0.422667 0
M  V30 11265 C 1071.07 1.77152 1.52117 0
M  V30 11266 C 1072.06 0.621895 1.58324 0
M  V30 11267 O 1073.24 0.866118 1.73816 0
M  V30 11268 C 1070.37 1.90991 2.90068 0
M  V30 11269 C 1069.32 3.06516 2.98717 0
M  V30 11270 C 1068.65 3.05559 4.38791 0
M  V30 11271 C 1069.95 4.46223 2.71445 0
M  V30 11272 H 1071.64 2.69135 1.31175 0
M  V30 11273 H 1069.19 1.29507 0.629607 0
M  V30 11274 H 1071.14 2.07291 3.6689 0
M  V30 11275 H 1069.87 0.956688 3.12274 0
M  V30 11276 H 1068.53 2.89945 2.24338 0
M  V30 11277 H 1068.17 2.07985 4.57986 0
M  V30 11278 H 1067.87 3.83144 4.45505 0
M  V30 11279 H 1069.4 3.23971 5.17566 0
M  V30 11280 H 1070.81 4.63069 3.37994 0
M  V30 11281 H 1069.21 5.25623 2.89552 0
M  V30 11282 H 1070.28 4.5525 1.6696 0
M  V30 11283 N 1071.62 -0.679052 1.4222 0
M  V30 11284 C 1072.57 -1.78522 1.41824 0
M  V30 11285 C 1073.56 -1.58262 0.290179 0
M  V30 11286 O 1074.75 -1.68813 0.532092 0
M  V30 11287 C 1071.88 -3.16952 1.31895 0
M  V30 11288 C 1070.96 -3.42849 2.4963 0
M  V30 11289 N 1071.35 -3.39354 3.75063 0
M  V30 11290 C 1069.65 -3.73468 2.43799 0
M  V30 11291 C 1070.35 -3.64617 4.53243 0
M  V30 11292 N 1069.33 -3.85174 3.83591 0
M  V30 11293 H 1073.13 -1.74206 2.36705 0
M  V30 11294 H 1070.65 -0.879719 1.36509 0
M  V30 11295 H 1072.64 -3.96214 1.29693 0
M  V30 11296 H 1071.3 -3.22467 0.380127 0
M  V30 11297 H 1072.31 -3.19354 4.07718 0
M  V30 11298 H 1068.99 -3.86254 1.58474 0
M  V30 11299 H 1070.38 -3.67912 5.62219 0
M  V30 11300 N 1073.1 -1.28322 -0.914942 0
M  V30 11301 C 1074.51 -1.13937 -1.47903 0
M  V30 11302 C 1074.86 0.271072 -1.94318 0
M  V30 11303 O 1073.99 1.16522 -1.8235 0
M  V30 11304 C 1074.58 -2.06221 -2.68809 0
M  V30 11305 C 1073.14 -1.95903 -3.21402 0
M  V30 11306 C 1072.29 -1.98031 -1.94111 0
M  V30 11307 H 1075.24 -1.41029 -0.727772 0
M  V30 11308 H 1075.26 -1.6255 -3.44031 0
M  V30 11309 H 1074.77 -3.08866 -2.34997 0
M  V30 11310 H 1072.87 -0.962907 -3.59943 0
M  V30 11311 H 1072.99 -2.82799 -3.86732 0
M  V30 11312 H 1071.35 -1.42423 -2.11158 0
M  V30 11313 H 1072.13 -3.02354 -1.62595 0
M  V30 11314 N 1074.58 1.12322 -1.10551 0
M  V30 11315 C 1075.83 1.83495 -0.846998 0
M  V30 11316 C 1076.15 1.8457 0.629205 0
M  V30 11317 O 1075.42 1.30968 1.45686 0
M  V30 11318 H 1074 0.679479 -0.310351 0
M  V30 11319 H 1076.66 1.36004 -1.39602 0
M  V30 11320 H 1075.76 2.87651 -1.21092 0
M  V30 11321 N 1076.06 0.894434 1.2976 0
M  V30 11322 C 1076.97 0.372622 2.31622 0
M  V30 11323 C 1077.98 -0.52996 1.65733 0
M  V30 11324 O 1079.16 -0.420807 1.96955 0
M  V30 11325 C 1076.22 -0.396076 3.4443 0
M  V30 11326 C 1075.28 0.537394 4.25923 0
M  V30 11327 C 1074.52 -0.194713 5.33345 0
M  V30 11328 O 1074.74 -1.41943 5.52457 0
M  V30 11329 O 1073.67 0.460055 6.00139 0
M  V30 11330 H 1077.5 1.21756 2.78225 0
M  V30 11331 H 1075.09 0.65858 1.34101 0
M  V30 11332 H 1076.97 -0.830962 4.13126 0
M  V30 11333 H 1075.64 -1.21716 2.99945 0
M  V30 11334 H 1074.55 1.02129 3.5989 0
M  V30 11335 H 1075.88 1.32475 4.74037 0
M  V30 11336 N 1077.53 -1.43282 0.656365 0
M  V30 11337 C 1078.81 -1.9534 0.100816 0
M  V30 11338 C 1079.19 -1.59755 -1.37992 0
M  V30 11339 O 1078.54 -0.884264 -2.10697 0
M  V30 11340 C 1078.75 -3.47237 0.35038 0
M  V30 11341 C 1080.1 -4.23822 0.257001 0
M  V30 11342 O 1081.12 -3.55073 0.283111 0
M  V30 11343 O 1079.98 -5.46192 0.183397 0
M  V30 11344 H 1077.07 -0.826963 -0.00780287 0
M  V30 11345 H 1079.62 -1.53205 0.72982 0
M  V30 11346 H 1078.39 -3.66276 1.37685 0
M  V30 11347 H 1078.02 -3.96378 -0.311539 0
M  V30 11348 N 1079.01 -0.398486 -1.52479 0
M  V30 11349 C 1080.26 0.180752 -2.01692 0
M  V30 11350 C 1080.59 1.46044 -1.28457 0
M  V30 11351 O 1079.84 1.92051 -0.376162 0
M  V30 11352 C 1080.14 0.485909 -3.54081 0
M  V30 11353 C 1079.81 -0.703321 -4.45381 0
M  V30 11354 C 1078.47 -1.02955 -4.70057 0
M  V30 11355 C 1080.82 -1.49848 -4.99194 0
M  V30 11356 C 1078.15 -2.15231 -5.45795 0
M  V30 11357 C 1080.5 -2.61192 -5.76161 0
M  V30 11358 C 1079.17 -2.94313 -5.99113 0
M  V30 11359 H 1078.44 0.0661417 -0.738042 0
M  V30 11360 H 1081.08 -0.53772 -1.83796 0
M  V30 11361 H 1079.39 1.28582 -3.701 0
M  V30 11362 H 1081.09 0.946872 -3.89661 0
M  V30 11363 H 1077.68 -0.439062 -4.26345 0
M  V30 11364 H 1081.86 -1.25968 -4.80048 0
M  V30 11365 H 1077.12 -2.41252 -5.61789 0
M  V30 11366 H 1081.29 -3.23201 -6.16858 0
M  V30 11367 H 1078.92 -3.81431 -6.57583 0
M  V30 11368 N 1080.49 1.57075 -0.12858 0
M  V30 11369 C 1081.42 2.18833 0.814519 0
M  V30 11370 C 1082.4 1.13114 1.2704 0
M  V30 11371 O 1083.59 1.41387 1.33129 0
M  V30 11372 C 1080.72 2.79535 2.06101 0
M  V30 11373 C 1079.67 3.9092 1.74257 0
M  V30 11374 C 1079 4.38473 3.06015 0
M  V30 11375 C 1080.3 5.1257 1.00345 0
M  V30 11376 H 1081.99 2.97895 0.299862 0
M  V30 11377 H 1079.54 1.4329 0.14279 0
M  V30 11378 H 1081.49 3.21401 2.72543 0
M  V30 11379 H 1080.21 1.97777 2.59907 0
M  V30 11380 H 1078.87 3.49645 1.102 0
M  V30 11381 H 1078.52 3.53561 3.57776 0
M  V30 11382 H 1078.22 5.13591 2.85479 0
M  V30 11383 H 1079.75 4.82997 3.7356 0
M  V30 11384 H 1081.16 5.51395 1.56959 0
M  V30 11385 H 1079.56 5.93333 0.898693 0
M  V30 11386 H 1080.63 4.84899 -0.0081335 0
M  V30 11387 N 1081.97 -0.145205 1.5693 0
M  V30 11388 C 1083.21 -0.863709 1.85255 0
M  V30 11389 C 1083.57 -1.78266 0.713112 0
M  V30 11390 O 1084.77 -2.54075 0.877459 0
M  V30 11391 C 1083.05 -1.61628 3.18765 0
M  V30 11392 S 1084.6 -2.37996 3.68651 0
M  V30 11393 H 1081.42 -0.288792 0.649708 0
M  V30 11394 H 1084.02 -0.123603 1.95109 0
M  V30 11395 H 1082.73 -0.932688 3.99661 0
M  V30 11396 H 1082.26 -2.39726 3.11921 0
M  V30 11397 H 1084.27 -3.63223 3.38058 0
M  V30 11398 N 1083.45 -1.52049 -0.414609 0
M  V30 11399 C 1084.38 -1.77956 -1.51175 0
M  V30 11400 C 1085.36 -0.630282 -1.57992 0
M  V30 11401 O 1086.54 -0.875324 -1.73354 0
M  V30 11402 C 1083.67 -1.92527 -2.89051 0
M  V30 11403 C 1082.63 -3.08096 -2.97087 0
M  V30 11404 C 1081.95 -3.07882 -4.37164 0
M  V30 11405 C 1083.25 -4.47656 -2.69075 0
M  V30 11406 H 1084.95 -2.69827 -1.29746 0
M  V30 11407 H 1082.49 -1.29839 -0.62273 0
M  V30 11408 H 1084.45 -2.09234 -3.65786 0
M  V30 11409 H 1083.17 -0.973235 -3.11762 0
M  V30 11410 H 1081.83 -2.91131 -2.22797 0
M  V30 11411 H 1081.48 -2.10411 -4.56877 0
M  V30 11412 H 1081.18 -3.85501 -4.43467 0
M  V30 11413 H 1082.7 -3.26712 -5.15841 0
M  V30 11414 H 1084.12 -4.64855 -3.35534 0
M  V30 11415 H 1082.51 -5.27151 -2.8676 0
M  V30 11416 H 1083.58 -4.56129 -1.64544 0
M  V30 11417 N 1084.93 0.6715 -1.42579 0
M  V30 11418 C 1085.84 1.81435 -1.48723 0
M  V30 11419 C 1086.85 1.69895 -0.375716 0
M  V30 11420 O 1088.03 1.91388 -0.627115 0
M  V30 11421 C 1085.09 3.17599 -1.39038 0
M  V30 11422 C 1084.15 3.41071 -2.60709 0
M  V30 11423 C 1083.39 4.7074 -2.51476 0
M  V30 11424 O 1083.61 5.48868 -1.55243 0
M  V30 11425 O 1082.54 4.95528 -3.41666 0
M  V30 11426 H 1086.37 1.79206 -2.45191 0
M  V30 11427 H 1083.95 0.827666 -1.24379 0
M  V30 11428 H 1085.84 3.98847 -1.3601 0
M  V30 11429 H 1084.51 3.20458 -0.456966 0
M  V30 11430 H 1083.42 2.59659 -2.69311 0
M  V30 11431 H 1084.75 3.43045 -3.5296 0
M  V30 11432 N 1086.4 1.28806 0.908124 0
M  V30 11433 C 1087.65 1.16058 1.65454 0
M  V30 11434 C 1087.97 -0.290057 1.92831 0
M  V30 11435 O 1087.24 -1.20001 1.54843 0
M  V30 11436 H 1085.82 0.426522 0.61326 0
M  V30 11437 H 1088.48 1.61614 1.08936 0
M  V30 11438 H 1087.58 1.70437 2.61453 0
M  V30 11439 N 1087.88 -1.11734 1.11145 0
M  V30 11440 C 1088.83 -2.17683 0.766979 0
M  V30 11441 C 1089.8 -1.64051 -0.260108 0
M  V30 11442 O 1090.98 -1.90302 -0.137723 0
M  V30 11443 C 1088.12 -3.44442 0.212982 0
M  V30 11444 C 1087.24 -4.12094 1.29626 0
M  V30 11445 C 1086.37 -5.26526 0.703127 0
M  V30 11446 C 1085.41 -5.86057 1.76647 0
M  V30 11447 N 1084.55 -6.91889 1.19306 0
M  V30 11448 H 1089.39 -2.46495 1.67465 0
M  V30 11449 H 1086.92 -1.21011 0.836353 0
M  V30 11450 H 1088.88 -4.17009 -0.126162 0
M  V30 11451 H 1087.51 -3.16025 -0.657888 0
M  V30 11452 H 1086.56 -3.37631 1.75241 0
M  V30 11453 H 1087.88 -4.52398 2.10089 0
M  V30 11454 H 1087.03 -6.05888 0.313859 0
M  V30 11455 H 1085.77 -4.87519 -0.132856 0
M  V30 11456 H 1084.77 -5.05375 2.16508 0
M  V30 11457 H 1086 -6.27132 2.60543 0
M  V30 11458 H 1083.95 -6.54906 0.378664 0
M  V30 11459 H 1083.86 -7.30832 1.93443 0
M  V30 11460 H 1085.13 -7.75062 0.830578 0
M  V30 11461 N 1089.36 -0.901303 -1.29284 0
M  V30 11462 C 1090.64 -0.44747 -1.90413 0
M  V30 11463 C 1091.02 1.07298 -1.81797 0
M  V30 11464 O 1090.36 1.91555 -1.24574 0
M  V30 11465 C 1090.57 -0.963849 -3.35427 0
M  V30 11466 C 1091.92 -1.00851 -4.12449 0
M  V30 11467 O 1092.95 -0.91163 -3.44337 0
M  V30 11468 O 1091.81 -1.15426 -5.34171 0
M  V30 11469 H 1088.9 -0.13976 -0.815105 0
M  V30 11470 H 1091.45 -0.991274 -1.37738 0
M  V30 11471 H 1090.22 -2.00782 -3.3586 0
M  V30 11472 H 1089.84 -0.400149 -3.95581 0
M  V30 11473 N 1090.84 1.42931 -0.663954 0
M  V30 11474 C 1092.08 2.01683 -0.181738 0
M  V30 11475 C 1092.41 1.52437 1.20802 0
M  V30 11476 O 1091.67 0.71254 1.82267 0
M  V30 11477 C 1091.97 3.57072 -0.153163 0
M  V30 11478 C 1091.63 4.25706 -1.48612 0
M  V30 11479 C 1090.29 4.4417 -1.85111 0
M  V30 11480 C 1092.65 4.6448 -2.36448 0
M  V30 11481 C 1089.97 4.98677 -3.09092 0
M  V30 11482 C 1092.33 5.20362 -3.5973 0
M  V30 11483 C 1090.99 5.37041 -3.96412 0
M  V30 11484 H 1090.26 0.73801 -0.0665026 0
M  V30 11485 H 1092.91 1.71264 -0.856791 0
M  V30 11486 H 1091.21 3.87095 0.605372 0
M  V30 11487 H 1092.91 4.00299 0.236981 0
M  V30 11488 H 1089.5 4.11686 -1.19215 0
M  V30 11489 H 1093.68 4.49898 -2.09537 0
M  V30 11490 H 1088.94 5.09776 -3.37547 0
M  V30 11491 H 1093.11 5.49352 -4.28001 0
M  V30 11492 H 1090.74 5.79042 -4.92559 0
M  V30 11493 N 1092.32 0.406567 1.52266 0
M  V30 11494 C 1093.26 -0.43489 2.28498 0
M  V30 11495 C 1094.26 -1.04806 1.33086 0
M  V30 11496 O 1095.46 -0.986557 1.50556 0
M  V30 11497 H 1091.84 -0.159023 0.734994 0
M  V30 11498 H 1093.81 0.229316 2.97518 0
M  V30 11499 C 1092.56 -1.54073 3.117 0
M  V30 11500 H 1091.88 -1.07824 3.84986 0
M  V30 11501 H 1093.32 -2.10337 3.6815 0
M  V30 11502 C 1091.78 -2.50662 2.251 0
M  V30 11503 O 1092.31 -3.54486 1.88951 0
M  V30 11504 N 1090.52 -2.20811 1.8892 0
M  V30 11505 H 1090.06 -1.36413 2.18516 0
M  V30 11506 H 1090.02 -2.85684 1.3127 0
M  V30 11507 N 1093.79 -1.57004 0.136909 0
M  V30 11508 C 1095.21 -1.58082 -0.21958 0
M  V30 11509 C 1095.41 -1.15065 -1.65415 0
M  V30 11510 O 1094.47 -0.846284 -2.37896 0
M  V30 11511 C 1095.78 -3.00685 0.0300112 0
M  V30 11512 C 1097.33 -3.12981 -0.0344899 0
M  V30 11513 C 1097.8 -4.57615 0.187639 0
M  V30 11514 N 1099.29 -4.63005 0.134219 0
M  V30 11515 C 1100.03 -5.72712 0.280743 0
M  V30 11516 N 1099.52 -6.91104 0.48443 0
M  V30 11517 N 1101.32 -5.61673 0.219055 0
M  V30 11518 H 1093.47 -1.83262 1.07372 0
M  V30 11519 H 1095.73 -0.847776 0.424241 0
M  V30 11520 H 1095.44 -3.36509 1.02247 0
M  V30 11521 H 1095.31 -3.70762 -0.693918 0
M  V30 11522 H 1097.7 -2.77004 -1.01749 0
M  V30 11523 H 1097.78 -2.45411 0.721608 0
M  V30 11524 H 1097.42 -4.94295 1.16769 0
M  V30 11525 H 1097.35 -5.23299 -0.588661 0
M  V30 11526 H 1099.84 -3.77895 -0.0189681 0
M  V30 11527 H 1100.16 -7.7057 0.586613 0
M  V30 11528 H 1098.5 -6.93047 0.520627 0
M  V30 11529 H 1101.69 -4.68061 0.0607606 0
M  V30 11530 H 1101.87 -6.47125 0.336683 0
M  V30 11531 N 1095.27 0.136881 -1.57004 0
M  V30 11532 C 1096.69 0.489856 -1.51897 0
M  V30 11533 C 1096.89 1.82833 -0.847009 0
M  V30 11534 O 1095.94 2.48952 -0.421792 0
M  V30 11535 C 1097.26 0.490831 -2.96667 0
M  V30 11536 C 1098.81 0.575639 -3.07661 0
M  V30 11537 C 1099.28 0.607178 -4.53957 0
M  V30 11538 N 1100.77 0.66912 -4.58342 0
M  V30 11539 C 1101.51 0.714675 -5.68929 0
M  V30 11540 N 1101 0.718959 -6.89059 0
M  V30 11541 N 1102.8 0.756326 -5.56988 0
M  V30 11542 H 1094.95 -0.740347 -1.99079 0
M  V30 11543 H 1097.21 -0.271116 -0.908405 0
M  V30 11544 H 1096.92 -0.424648 -3.49127 0
M  V30 11545 H 1096.79 1.32512 -3.53158 0
M  V30 11546 H 1099.18 1.48154 -2.55215 0
M  V30 11547 H 1099.26 -0.285991 -2.54196 0
M  V30 11548 H 1098.9 -0.294604 -5.07045 0
M  V30 11549 H 1098.83 1.48544 -5.05215 0
M  V30 11550 H 1101.32 0.672697 -3.71864 0
M  V30 11551 H 1101.64 0.755848 -7.69095 0
M  V30 11552 H 1099.98 0.686671 -6.91599 0
M  V30 11553 H 1103.17 0.750219 -4.62049 0
M  V30 11554 H 1103.34 0.788363 -6.43186 0
M  V30 11555 N 1096.75 1.52266 0.40654 0
M  V30 11556 C 1098 1.6568 1.15035 0
M  V30 11557 C 1098.31 0.394135 1.91588 0
M  V30 11558 O 1099.52 0.408113 2.68415 0
M  V30 11559 C 1097.97 2.92725 2.0938 0
M  V30 11560 C 1097.58 4.26108 1.38332 0
M  V30 11561 C 1099.33 3.15502 2.84004 0
M  V30 11562 C 1097.23 5.44275 2.3134 0
M  V30 11563 H 1096.16 0.61719 0.43312 0
M  V30 11564 H 1098.81 1.78755 0.414598 0
M  V30 11565 H 1097.2 2.73355 2.86519 0
M  V30 11566 H 1098.37 4.55971 0.665396 0
M  V30 11567 H 1096.69 4.09454 0.757384 0
M  V30 11568 H 1099.28 4.00964 3.5374 0
M  V30 11569 H 1099.63 2.29842 3.471 0
M  V30 11570 H 1100.16 3.35357 2.13964 0
M  V30 11571 H 1096.9 6.3229 1.72887 0
M  V30 11572 H 1096.42 5.18749 3.01098 0
M  V30 11573 H 1098.1 5.77457 2.91809 0
M  V30 11574 N 1098.23 -0.663929 1.42933 0
M  V30 11575 C 1099.64 -0.978346 1.26097 0
M  V30 11576 C 1099.84 -2.00756 0.172968 0
M  V30 11577 O 1098.9 -2.48418 -0.452184 0
M  V30 11578 C 1100.21 -1.4728 2.62162 0
M  V30 11579 C 1101.76 -1.59001 2.69606 0
M  V30 11580 C 1102.24 -2.1184 4.06064 0
M  V30 11581 N 1103.73 -2.19158 4.08074 0
M  V30 11582 C 1104.46 -2.61141 5.10483 0
M  V30 11583 N 1103.96 -3.02498 6.23271 0
M  V30 11584 N 1105.75 -2.60986 4.97838 0
M  V30 11585 H 1097.9 0.0173096 2.12393 0
M  V30 11586 H 1100.17 -0.0548116 0.946414 0
M  V30 11587 H 1099.87 -0.791008 3.42689 0
M  V30 11588 H 1099.75 -2.4497 2.86827 0
M  V30 11589 H 1102.13 -2.26284 1.89418 0
M  V30 11590 H 1102.21 -0.597728 2.48718 0
M  V30 11591 H 1101.86 -1.45162 4.86714 0
M  V30 11592 H 1101.79 -3.1188 4.2431 0
M  V30 11593 H 1104.28 -1.90013 3.26655 0
M  V30 11594 H 1104.59 -3.33251 6.97254 0
M  V30 11595 H 1102.94 -3.00328 6.2676 0
M  V30 11596 H 1106.13 -2.28046 4.08794 0
M  V30 11597 H 1106.3 -2.93384 5.7778 0
M  V30 11598 N 1099.71 -1.29285 -0.901281 0
M  V30 11599 C 1100.65 -1.14159 -2.02659 0
M  V30 11600 C 1101.65 -0.0575887 -1.69302 0
M  V30 11601 O 1102.85 -0.217273 -1.78684 0
M  V30 11602 H 1099.23 -0.352584 -0.66422 0
M  V30 11603 H 1101.2 -2.09434 -2.12555 0
M  V30 11604 C 1099.95 -0.833253 -3.37568 0
M  V30 11605 H 1099.27 -1.65939 -3.63737 0
M  V30 11606 H 1100.71 -0.767436 -4.16997 0
M  V30 11607 C 1099.17 0.46344 -3.33697 0
M  V30 11608 O 1099.7 1.48998 -3.73045 0
M  V30 11609 N 1097.91 0.468709 -2.86795 0
M  V30 11610 H 1097.45 -0.36712 -2.54971 0
M  V30 11611 H 1097.41 1.3363 -2.84588 0
M  V30 11612 N 1101.18 1.11143 -1.11736 0
M  V30 11613 C 1102.09 2.20851 -0.791331 0
M  V30 11614 C 1103.11 1.72644 0.216833 0
M  V30 11615 O 1104.29 2.01332 0.0522401 0
M  V30 11616 C 1101.35 3.4585 -0.242694 0
M  V30 11617 C 1100.41 4.08829 -1.30986 0
M  V30 11618 C 1099.65 5.27861 -0.787305 0
M  V30 11619 O 1099.87 5.69122 0.381549 0
M  V30 11620 O 1098.8 5.81506 -1.55352 0
M  V30 11621 H 1102.63 2.51158 -1.70744 0
M  V30 11622 H 1100.21 1.19739 -0.893478 0
M  V30 11623 H 1102.1 4.21359 0.0587472 0
M  V30 11624 H 1100.77 3.17187 0.646079 0
M  V30 11625 H 1099.68 3.35037 -1.66436 0
M  V30 11626 H 1101.01 4.41678 -2.17213 0
M  V30 11627 N 1102.66 0.908147 1.28804 0
M  V30 11628 C 1103.61 0.390734 2.27468 0
M  V30 11629 C 1104.58 -0.531765 1.57358 0
M  V30 11630 O 1105.76 -0.455177 1.85291 0
M  V30 11631 C 1102.9 -0.368159 3.43131 0
M  V30 11632 C 1102.02 0.586202 4.28004 0
M  V30 11633 C 1101.15 -0.190581 5.30858 0
M  V30 11634 C 1100.19 0.757758 6.07391 0
M  V30 11635 N 1099.33 0.0148488 7.02098 0
M  V30 11636 H 1104.17 1.23717 2.71105 0
M  V30 11637 H 1101.71 0.621382 1.33331 0
M  V30 11638 H 1103.66 -0.824289 4.08976 0
M  V30 11639 H 1102.29 -1.17898 3.00499 0
M  V30 11640 H 1101.35 1.16086 3.62254 0
M  V30 11641 H 1102.66 1.31177 4.81242 0
M  V30 11642 H 1101.81 -0.707528 6.0256 0
M  V30 11643 H 1100.55 -0.949234 4.78373 0
M  V30 11644 H 1099.56 1.28613 5.34545 0
M  V30 11645 H 1100.78 1.51588 6.61965 0
M  V30 11646 H 1098.73 -0.725916 6.51971 0
M  V30 11647 H 1098.64 0.680347 7.52932 0
M  V30 11648 H 1099.91 -0.482086 7.78008 0
M  V30 11649 N 1104.14 -1.42577 0.671525 0
M  V30 11650 C 1105.39 -2.01185 0.192051 0
M  V30 11651 C 1105.71 -1.53349 -1.20454 0
M  V30 11652 O 1104.98 -0.753781 -1.80817 0
M  V30 11653 H 1103.56 -0.743898 0.0680106 0
M  V30 11654 H 1106.22 -1.74539 0.8673 0
M  V30 11655 H 1105.32 -3.11516 0.190796 0
M  V30 11656 N 1105.62 -0.414636 -1.52048 0
M  V30 11657 C 1106.53 0.414861 -2.30903 0
M  V30 11658 C 1107.54 1.04855 -1.38858 0
M  V30 11659 O 1108.72 1.04886 -1.71933 0
M  V30 11660 C 1105.79 1.51356 -3.11917 0
M  V30 11661 C 1104.85 0.902359 -4.19709 0
M  V30 11662 C 1104.08 1.9487 -4.96852 0
M  V30 11663 O 1104.3 3.16766 -4.74358 0
M  V30 11664 O 1103.24 1.55186 -5.8155 0
M  V30 11665 H 1107.06 -0.228251 -3.02841 0
M  V30 11666 H 1104.65 -0.177704 -1.48339 0
M  V30 11667 H 1106.53 2.15127 -3.62351 0
M  V30 11668 H 1105.2 2.14117 -2.42767 0
M  V30 11669 H 1104.11 0.22721 -3.73409 0
M  V30 11670 H 1105.44 0.318587 -4.91168 0
M  V30 11671 N 1107.1 1.56929 -0.145233 0
M  V30 11672 C 1108.35 1.95243 0.506273 0
M  V30 11673 C 1108.66 1.0325 1.66129 0
M  V30 11674 O 1109.86 1.31135 2.37731 0
M  V30 11675 C 1108.32 3.47079 0.952042 0
M  V30 11676 C 1107.93 4.47654 -0.175947 0
M  V30 11677 C 1109.67 3.94263 1.57344 0
M  V30 11678 C 1107.58 5.90698 0.287993 0
M  V30 11679 H 1106.51 0.728906 0.192903 0
M  V30 11680 H 1109.16 1.82062 -0.229295 0
M  V30 11681 H 1107.54 3.55587 1.74282 0
M  V30 11682 H 1108.72 4.50841 -0.952848 0
M  V30 11683 H 1107.03 4.10377 -0.70564 0
M  V30 11684 H 1109.63 4.9857 1.93214 0
M  V30 11685 H 1109.97 3.35714 2.46174 0
M  V30 11686 H 1110.5 3.88665 0.847593 0
M  V30 11687 H 1107.24 6.53061 -0.564889 0
M  V30 11688 H 1106.76 5.90876 1.03081 0
M  V30 11689 H 1108.44 6.42747 0.740586 0
M  V30 11690 N 1108.58 -0.128553 1.57075 0
M  V30 11691 C 1109.49 -1.17718 2.02927 0
M  V30 11692 C 1110.5 -1.45912 0.947932 0
M  V30 11693 O 1111.68 -1.57217 1.25876 0
M  V30 11694 C 1108.74 -2.48625 2.41633 0
M  V30 11695 C 1107.8 -2.27914 3.63804 0
M  V30 11696 C 1107.04 -3.52579 4.00654 0
M  V30 11697 O 1107.26 -4.59505 3.37952 0
M  V30 11698 O 1106.19 -3.44147 4.93808 0
M  V30 11699 H 1110.02 -0.817846 2.92481 0
M  V30 11700 H 1107.6 -0.338649 1.45511 0
M  V30 11701 H 1109.49 -3.2577 2.67305 0
M  V30 11702 H 1108.16 -2.84052 1.55229 0
M  V30 11703 H 1107.07 -1.4866 3.43294 0
M  V30 11704 H 1108.4 -1.97395 4.50883 0
M  V30 11705 N 1110.05 -1.5248 -0.398459 0
M  V30 11706 C 1110.99 -1.72826 -1.50545 0
M  V30 11707 C 1112 -0.608683 -1.50993 0
M  V30 11708 O 1113.19 -0.88413 -1.55066 0
M  V30 11709 C 1110.29 -1.76327 -2.89417 0
M  V30 11710 C 1109.46 -3.05491 -3.1304 0
M  V30 11711 C 1108.52 -3.00663 -4.31843 0
M  V30 11712 O 1107.55 -3.74548 -4.28605 0
M  V30 11713 N 1108.75 -2.19191 -5.37527 0
M  V30 11714 H 1111.51 -2.68333 -1.33482 0
M  V30 11715 H 1109.07 -1.5085 -0.587875 0
M  V30 11716 H 1111.07 -1.70616 -3.66977 0
M  V30 11717 H 1109.64 -0.882476 -2.99885 0
M  V30 11718 H 1108.86 -3.24767 -2.23428 0
M  V30 11719 H 1110.14 -3.90915 -3.25673 0
M  V30 11720 H 1109.54 -1.58613 -5.43009 0
M  V30 11721 H 1108.1 -2.19328 -6.1379 0
M  V30 11722 N 1111.53 0.65634 -1.43283 0
M  V30 11723 C 1112.44 1.79847 -1.50639 0
M  V30 11724 C 1113.46 1.69487 -0.393714 0
M  V30 11725 O 1114.63 1.90712 -0.647379 0
M  V30 11726 C 1111.7 3.16107 -1.42398 0
M  V30 11727 C 1110.76 3.38287 -2.64312 0
M  V30 11728 C 1109.99 4.68046 -2.56454 0
M  V30 11729 O 1110.22 5.4719 -1.61056 0
M  V30 11730 O 1109.15 4.91877 -3.46902 0
M  V30 11731 H 1112.98 1.76596 -2.47078 0
M  V30 11732 H 1110.56 0.814428 -1.25249 0
M  V30 11733 H 1112.44 3.97382 -1.40233 0
M  V30 11734 H 1111.12 3.19956 -0.490929 0
M  V30 11735 H 1110.02 2.56788 -2.72049 0
M  V30 11736 H 1111.36 3.39282 -3.56579 0
M  V30 11737 N 1113.01 1.29761 0.894412 0
M  V30 11738 C 1114.43 1.07888 1.17611 0
M  V30 11739 C 1114.63 -0.16644 2.00811 0
M  V30 11740 O 1113.68 -0.86272 2.37304 0
M  V30 11741 C 1114.99 2.33723 1.89193 0
M  V30 11742 C 1116.54 2.39095 2.01997 0
M  V30 11743 C 1117.02 3.64747 2.7699 0
M  V30 11744 N 1118.51 3.65501 2.84541 0
M  V30 11745 C 1119.24 4.59411 3.43117 0
M  V30 11746 N 1118.74 5.63657 4.02818 0
M  V30 11747 N 1120.53 4.46971 3.40842 0
M  V30 11748 H 1112.68 2.0967 0.339421 0
M  V30 11749 H 1114.95 0.923788 0.212882 0
M  V30 11750 H 1114.65 3.24551 1.35496 0
M  V30 11751 H 1114.53 2.41642 2.89636 0
M  V30 11752 H 1116.91 1.48751 2.54867 0
M  V30 11753 H 1116.99 2.35158 1.0067 0
M  V30 11754 H 1116.64 4.55445 2.24794 0
M  V30 11755 H 1116.57 3.65944 3.78672 0
M  V30 11756 H 1119.06 2.90129 2.42144 0
M  V30 11757 H 1119.37 6.31429 4.45552 0
M  V30 11758 H 1117.72 5.67461 4.01265 0
M  V30 11759 H 1120.91 3.64719 2.93424 0
M  V30 11760 H 1121.08 5.20341 3.86198 0
M  V30 11761 N 1114.49 -1.10549 1.12324 0
M  V30 11762 C 1115.74 -1.81851 0.872531 0
M  V30 11763 C 1116.05 -1.86058 -0.603468 0
M  V30 11764 O 1117.26 -2.53553 -0.970736 0
M  V30 11765 C 1115.71 -3.26631 1.51131 0
M  V30 11766 C 1115.32 -3.30725 3.02201 0
M  V30 11767 C 1117.06 -4.02768 1.34082 0
M  V30 11768 C 1114.97 -4.69957 3.59018 0
M  V30 11769 H 1113.9 -0.681422 0.322769 0
M  V30 11770 H 1116.55 -1.24332 1.34959 0
M  V30 11771 H 1114.93 -3.8414 0.961913 0
M  V30 11772 H 1116.11 -2.83046 3.63623 0
M  V30 11773 H 1114.42 -2.68072 3.18632 0
M  V30 11774 H 1117.02 -5.05612 1.73955 0
M  V30 11775 H 1117.36 -4.15328 0.284369 0
M  V30 11776 H 1117.9 -3.51671 1.85937 0
M  V30 11777 H 1114.63 -4.62597 4.64418 0
M  V30 11778 H 1114.15 -5.18008 3.02371 0
M  V30 11779 H 1115.83 -5.38925 3.58007 0
M  V30 11780 N 1115.97 -0.914965 -1.28321 0
M  V30 11781 C 1117.24 -0.46764 -1.89928 0
M  V30 11782 C 1117.62 1.05364 -1.82925 0
M  V30 11783 O 1116.97 1.90223 -1.26599 0
M  V30 11784 C 1117.18 -0.999372 -3.34385 0
M  V30 11785 C 1118.53 -1.0522 -4.11356 0
M  V30 11786 O 1119.55 -0.9481 -3.4335 0
M  V30 11787 O 1118.41 -1.21085 -5.32917 0
M  V30 11788 H 1115.51 -0.148398 -0.813577 0
M  V30 11789 H 1118.05 -1.00583 -1.36679 0
M  V30 11790 H 1116.82 -2.04333 -3.33712 0
M  V30 11791 H 1116.45 -0.442083 -3.95135 0
M  V30 11792 N 1117.44 1.42219 -0.679077 0
M  V30 11793 C 1118.39 2.308 -0.00340316 0
M  V30 11794 C 1119.36 1.462 0.788334 0
M  V30 11795 O 1120.55 1.75023 0.759716 0
M  V30 11796 C 1117.69 3.32084 0.938854 0
M  V30 11797 C 1116.8 4.31772 0.140485 0
M  V30 11798 C 1115.93 5.20128 1.07888 0
M  V30 11799 C 1114.97 6.11493 0.27245 0
M  V30 11800 N 1114.11 6.92388 1.16378 0
M  V30 11801 H 1118.95 2.88024 -0.764587 0
M  V30 11802 H 1116.49 1.41869 -0.38878 0
M  V30 11803 H 1118.44 3.89339 1.49903 0
M  V30 11804 H 1117.07 2.76448 1.66662 0
M  V30 11805 H 1116.13 3.76599 -0.536376 0
M  V30 11806 H 1117.44 4.96432 -0.485433 0
M  V30 11807 H 1116.59 5.82137 1.70884 0
M  V30 11808 H 1115.33 4.55655 1.73868 0
M  V30 11809 H 1114.34 5.48549 -0.370693 0
M  V30 11810 H 1115.56 6.78017 -0.383315 0
M  V30 11811 H 1113.51 6.30538 1.8099 0
M  V30 11812 H 1113.42 7.5367 0.593043 0
M  V30 11813 H 1114.69 7.58879 1.78107 0
M  V30 11814 N 1118.92 0.422693 1.51826 0
M  V30 11815 C 1120.17 -0.150066 2.01141 0
M  V30 11816 C 1120.48 -1.45059 1.31214 0
M  V30 11817 O 1121.69 -2.10542 1.71419 0
M  V30 11818 C 1120.15 -0.317985 3.58492 0
M  V30 11819 C 1119.75 0.971244 4.37345 0
M  V30 11820 C 1121.5 -0.845303 4.15999 0
M  V30 11821 C 1119.4 0.769769 5.86369 0
M  V30 11822 H 1118.33 -0.0598567 0.75162 0
M  V30 11823 H 1120.99 0.550217 1.75057 0
M  V30 11824 H 1119.37 -1.08092 3.80962 0
M  V30 11825 H 1120.54 1.74138 4.26629 0
M  V30 11826 H 1118.86 1.42599 3.91222 0
M  V30 11827 H 1121.45 -1.01229 5.2503 0
M  V30 11828 H 1121.8 -1.82375 3.74226 0
M  V30 11829 H 1122.33 -0.141067 3.9755 0
M  V30 11830 H 1119.07 1.72017 6.32527 0
M  V30 11831 H 1118.59 0.0391717 5.99787 0
M  V30 11832 H 1120.27 0.417225 6.45653 0
M  V30 11833 N 1120.4 -1.5685 0.153553 0
M  V30 11834 C 1121.65 -1.97404 -0.490227 0
M  V30 11835 C 1122 -1.03725 -1.62046 0
M  V30 11836 O 1121.29 -0.0735247 -1.91459 0
M  V30 11837 C 1121.49 -3.42022 -1.0371 0
M  V30 11838 C 1121.32 -4.49683 0.038616 0
M  V30 11839 C 1120.09 -5.02993 0.482267 0
M  V30 11840 C 1122.28 -5.07517 0.832507 0
M  V30 11841 N 1120.27 -5.94267 1.54014 0
M  V30 11842 C 1121.64 -5.95062 1.74072 0
M  V30 11843 C 1123.69 -4.90069 0.879566 0
M  V30 11844 C 1122.4 -6.67027 2.69198 0
M  V30 11845 C 1124.42 -5.62741 1.81868 0
M  V30 11846 C 1123.78 -6.5 2.71441 0
M  V30 11847 H 1119.88 -0.767866 -0.148005 0
M  V30 11848 H 1122.47 -1.93093 0.24967 0
M  V30 11849 H 1120.64 -3.46914 -1.74658 0
M  V30 11850 H 1122.37 -3.69624 -1.64804 0
M  V30 11851 H 1119.12 -4.73527 0.0832885 0
M  V30 11852 H 1119.55 -6.44608 2.06903 0
M  V30 11853 H 1124.19 -4.22321 0.201123 0
M  V30 11854 H 1121.91 -7.34 3.38039 0
M  V30 11855 H 1125.49 -5.51234 1.86098 0
M  V30 11856 H 1124.37 -7.05246 3.42926 0
M  V30 11857 N 1121.88 0.120221 -1.57141 0
M  V30 11858 C 1123.29 0.677497 -1.73974 0
M  V30 11859 C 1123.64 1.80371 -0.772055 0
M  V30 11860 O 1122.76 2.16329 0.0553062 0
M  V30 11861 C 1123.36 1.23575 -3.1546 0
M  V30 11862 C 1121.92 1.73933 -3.33803 0
M  V30 11863 C 1121.07 0.638542 -2.69848 0
M  V30 11864 H 1124.02 -0.105685 -1.58348 0
M  V30 11865 H 1124.04 2.10542 -3.16942 0
M  V30 11866 H 1123.55 0.415851 -3.85866 0
M  V30 11867 H 1121.65 2.58404 -2.68437 0
M  V30 11868 H 1121.76 1.84961 -4.41957 0
M  V30 11869 H 1120.13 1.07185 -2.31049 0
M  V30 11870 H 1120.91 -0.170356 -3.42877 0
M  V30 11871 N 1123.36 1.52689 0.390367 0
M  V30 11872 C 1124.3 1.7737 1.47677 0
M  V30 11873 C 1125.27 0.616864 1.54221 0
M  V30 11874 O 1126.46 0.856437 1.70499 0
M  V30 11875 C 1123.6 1.94715 2.84921 0
M  V30 11876 C 1122.71 3.22405 2.8754 0
M  V30 11877 C 1121.85 3.30074 4.16202 0
M  V30 11878 C 1120.89 4.51893 4.12867 0
M  V30 11879 N 1120.02 4.56851 5.33134 0
M  V30 11880 H 1124.86 2.70084 1.25932 0
M  V30 11881 H 1122.4 1.33813 0.610943 0
M  V30 11882 H 1124.36 2.02755 3.64618 0
M  V30 11883 H 1122.99 1.05363 3.0512 0
M  V30 11884 H 1122.04 3.23442 2.00223 0
M  V30 11885 H 1123.35 4.12156 2.80943 0
M  V30 11886 H 1122.51 3.3729 5.04302 0
M  V30 11887 H 1121.24 2.38295 4.25519 0
M  V30 11888 H 1120.25 4.44803 3.23156 0
M  V30 11889 H 1121.47 5.44987 4.05174 0
M  V30 11890 H 1119.42 3.67963 5.43083 0
M  V30 11891 H 1119.34 5.40472 5.28607 0
M  V30 11892 H 1120.61 4.6832 6.23134 0
M  V30 11893 N 1124.83 -0.648732 1.43629 0
M  V30 11894 C 1125.76 -1.77298 1.51947 0
M  V30 11895 C 1126.75 -1.65942 0.373785 0
M  V30 11896 O 1127.93 -1.8497 0.591596 0
M  V30 11897 C 1125.06 -3.15749 1.44638 0
M  V30 11898 C 1124.01 -3.41872 2.57502 0
M  V30 11899 C 1123.34 -4.8017 2.35246 0
M  V30 11900 C 1124.64 -3.36173 3.99731 0
M  V30 11901 H 1126.33 -1.70594 2.46045 0
M  V30 11902 H 1123.88 -0.819306 1.1842 0
M  V30 11903 H 1125.83 -3.94156 1.4906 0
M  V30 11904 H 1124.56 -3.23194 0.470466 0
M  V30 11905 H 1123.22 -2.65838 2.5244 0
M  V30 11906 H 1122.86 -4.84297 1.35887 0
M  V30 11907 H 1122.56 -4.9861 3.10906 0
M  V30 11908 H 1124.09 -5.6083 2.41459 0
M  V30 11909 H 1125.5 -4.0451 4.06257 0
M  V30 11910 H 1123.9 -3.66148 4.75453 0
M  V30 11911 H 1124.97 -2.34277 4.24549 0
M  V30 11912 N 1126.31 -1.30234 -0.887518 0
M  V30 11913 C 1127.73 -1.0851 -1.17037 0
M  V30 11914 C 1127.93 0.155788 -2.00897 0
M  V30 11915 O 1126.98 0.850123 -2.37759 0
M  V30 11916 C 1128.3 -2.34723 -1.87951 0
M  V30 11917 C 1129.85 -2.40163 -2.00726 0
M  V30 11918 C 1130.32 -3.66211 -2.75051 0
M  V30 11919 N 1131.81 -3.67004 -2.82599 0
M  V30 11920 C 1132.55 -4.61224 -3.40676 0
M  V30 11921 N 1132.04 -5.65786 -3.99823 0
M  V30 11922 N 1133.84 -4.48772 -3.38467 0
M  V30 11923 H 1125.99 -2.09847 -0.328297 0
M  V30 11924 H 1128.25 -0.924904 -0.20798 0
M  V30 11925 H 1127.96 -3.25265 -1.33773 0
M  V30 11926 H 1127.83 -2.43175 -2.8835 0
M  V30 11927 H 1130.22 -1.50101 -2.54074 0
M  V30 11928 H 1130.3 -2.35688 -0.994218 0
M  V30 11929 H 1129.94 -4.56631 -2.22376 0
M  V30 11930 H 1129.87 -3.67947 -3.76726 0
M  V30 11931 H 1132.36 -2.91409 -2.40602 0
M  V30 11932 H 1132.68 -6.33783 -4.42197 0
M  V30 11933 H 1131.02 -5.69581 -3.9825 0
M  V30 11934 H 1134.21 -3.6627 -2.91485 0
M  V30 11935 H 1134.38 -5.22382 -3.83433 0
M  V30 11936 N 1127.79 1.09952 -1.12909 0
M  V30 11937 C 1129.04 1.82286 -0.888797 0
M  V30 11938 C 1129.37 1.85218 0.58379 0
M  V30 11939 O 1128.64 1.31645 1.43177 0
M  V30 11940 C 1128.93 3.28706 -1.47053 0
M  V30 11941 C 1128.78 3.34078 -3.01184 0
M  V30 11942 C 1130.1 4.25233 -1.13424 0
M  V30 11943 H 1127.22 0.661803 -0.324324 0
M  V30 11944 H 1129.86 1.28833 -1.3965 0
M  V30 11945 H 1128.01 3.74356 -1.03874 0
M  V30 11946 H 1129.68 2.96871 -3.5308 0
M  V30 11947 H 1127.93 2.73825 -3.36455 0
M  V30 11948 H 1128.6 4.37202 -3.36984 0
M  V30 11949 H 1131.07 3.87841 -1.50726 0
M  V30 11950 H 1129.95 5.26033 -1.56783 0
M  V30 11951 H 1130.21 4.42075 -0.0471496 0
M  V30 11952 N 1129.27 0.921757 1.27833 0
M  V30 11953 C 1130.2 0.433466 2.29441 0
M  V30 11954 C 1131.18 -0.503133 1.62489 0
M  V30 11955 O 1132.36 -0.409156 1.89841 0
M  V30 11956 C 1129.49 -0.320029 3.45822 0
M  V30 11957 C 1128.45 0.528178 4.24728 0
M  V30 11958 C 1127.77 -0.354132 5.33526 0
M  V30 11959 C 1129.07 1.78959 4.90684 0
M  V30 11960 H 1130.77 1.28263 2.70535 0
M  V30 11961 H 1128.31 0.618197 1.30055 0
M  V30 11962 H 1130.27 -0.672526 4.15999 0
M  V30 11963 H 1128.99 -1.20317 3.0363 0
M  V30 11964 H 1127.65 0.863302 3.5629 0
M  V30 11965 H 1127.3 -1.23605 4.87576 0
M  V30 11966 H 1127 0.209855 5.87225 0
M  V30 11967 H 1128.52 -0.702333 6.06547 0
M  V30 11968 H 1129.94 1.50552 5.53179 0
M  V30 11969 H 1128.33 2.29661 5.54415 0
M  V30 11970 H 1129.4 2.51265 4.14721 0
M  V30 11971 N 1130.75 -1.41857 0.686609 0
M  V30 11972 C 1131.71 -2.29187 0.0247022 0
M  V30 11973 C 1132.71 -1.43926 -0.717069 0
M  V30 11974 O 1133.9 -1.65179 -0.5533 0
M  V30 11975 C 1131.03 -3.26644 -0.975537 0
M  V30 11976 H 1132.22 -2.89212 0.793503 0
M  V30 11977 H 1129.78 -1.49694 0.449605 0
M  V30 11978 H 1130.51 -2.7158 -1.77242 0
M  V30 11979 H 1130.3 -3.89545 -0.446892 0
M  V30 11980 H 1131.79 -3.92107 -1.43673 0
M  V30 11981 N 1132.22 -0.430739 -1.51599 0
M  V30 11982 C 1133.64 -0.0826902 -1.59386 0
M  V30 11983 C 1133.84 1.40729 -1.44214 0
M  V30 11984 O 1132.9 2.1765 -1.28002 0
M  V30 11985 C 1134.21 -0.59691 -2.94716 0
M  V30 11986 C 1135.76 -0.556772 -3.08008 0
M  V30 11987 C 1136.23 -1.04786 -4.45852 0
M  V30 11988 N 1137.72 -1.00557 -4.52153 0
M  V30 11989 C 1138.46 -1.35649 -5.57124 0
M  V30 11990 N 1137.95 -1.77994 -6.69545 0
M  V30 11991 N 1139.75 -1.27508 -5.47447 0
M  V30 11992 H 1131.9 -1.40027 -1.59707 0
M  V30 11993 H 1134.16 -0.576606 -0.752482 0
M  V30 11994 H 1133.87 -1.63914 -3.11167 0
M  V30 11995 H 1133.74 -0.0182342 -3.77196 0
M  V30 11996 H 1136.13 0.476457 -2.91228 0
M  V30 11997 H 1136.21 -1.17177 -2.27383 0
M  V30 11998 H 1135.85 -2.07952 -4.63377 0
M  V30 11999 H 1135.78 -0.409461 -5.25006 0
M  V30 12000 H 1138.27 -0.694518 -3.71463 0
M  V30 12001 H 1138.59 -2.03026 -7.45654 0
M  V30 12002 H 1136.93 -1.81916 -6.70769 0
M  V30 12003 H 1140.12 -0.942969 -4.58504 0
M  V30 12004 H 1140.3 -1.55185 -6.29143 0
M  V30 12005 N 1133.7 1.56767 -0.161869 0
M  V30 12006 C 1134.93 2.01401 0.49523 0
M  V30 12007 C 1135.35 1.04133 1.56646 0
M  V30 12008 O 1134.71 0.0193747 1.8129 0
M  V30 12009 C 1134.76 3.44695 1.05913 0
M  V30 12010 O 1133.86 3.50475 2.1735 0
M  V30 12011 H 1133.2 0.65314 0.1196 0
M  V30 12012 H 1135.73 2.02903 -0.26298 0
M  V30 12013 H 1135.74 3.83805 1.3841 0
M  V30 12014 H 1134.42 4.14991 0.274749 0
M  V30 12015 H 1133 3.23218 1.85969 0
M  V30 12016 N 1135.18 -0.111886 1.57202 0
M  V30 12017 C 1136.41 -0.836317 1.89791 0
M  V30 12018 C 1136.83 -1.72304 0.754513 0
M  V30 12019 O 1136.19 -1.78889 -0.294672 0
M  V30 12020 C 1136.24 -1.63971 3.21164 0
M  V30 12021 O 1135.34 -2.74726 3.0757 0
M  V30 12022 H 1134.68 -0.230833 0.622585 0
M  V30 12023 H 1137.21 -0.0921478 2.04392 0
M  V30 12024 H 1137.22 -2.02746 3.54059 0
M  V30 12025 H 1135.9 -0.98882 4.03974 0
M  V30 12026 H 1134.47 -2.39101 2.86156 0
M  V30 12027 N 1136.66 -1.52894 -0.382264 0
M  V30 12028 C 1138.07 -1.60135 -0.959887 0
M  V30 12029 C 1138.42 -0.458363 -1.90771 0
M  V30 12030 O 1137.55 0.417614 -2.12332 0
M  V30 12031 C 1138.14 -2.90243 -1.74769 0
M  V30 12032 C 1136.7 -2.99874 -2.27491 0
M  V30 12033 C 1135.85 -2.55302 -1.0824 0
M  V30 12034 H 1138.8 -1.57875 -0.161589 0
M  V30 12035 H 1138.82 -2.77108 -2.60751 0
M  V30 12036 H 1138.33 -3.73412 -1.0576 0
M  V30 12037 H 1136.43 -2.21258 -2.99793 0
M  V30 12038 H 1136.54 -4.04643 -2.56516 0
M  V30 12039 H 1134.91 -2.09781 -1.44444 0
M  V30 12040 H 1135.69 -3.40872 -0.407553 0
M  V30 12041 N 1138.14 0.641106 -1.43971 0
M  V30 12042 C 1139.37 1.42829 -1.49692 0
M  V30 12043 C 1139.78 1.88427 -0.118594 0
M  V30 12044 O 1139.14 1.60234 0.873581 0
M  V30 12045 C 1139.19 2.65524 -2.45314 0
M  V30 12046 O 1138.91 2.2183 -3.77787 0
M  V30 12047 C 1140.41 3.58758 -2.60399 0
M  V30 12048 H 1137.63 0.438367 -0.508011 0
M  V30 12049 H 1140.17 0.784933 -1.88836 0
M  V30 12050 H 1138.33 3.25973 -2.09332 0
M  V30 12051 H 1138.74 3.01303 -4.29321 0
M  V30 12052 H 1140.22 4.41483 -3.31357 0
M  V30 12053 H 1140.69 4.06909 -1.65294 0
M  V30 12054 H 1141.3 3.04184 -2.97241 0
M  V30 12055 N 1139.62 1.30703 0.880598 0
M  V30 12056 C 1140.89 1.1043 1.61445 0
M  V30 12057 C 1141.27 -0.344837 2.08264 0
M  V30 12058 O 1140.62 -1.33711 1.85293 0
M  V30 12059 C 1140.83 2.10908 2.78063 0
M  V30 12060 C 1142.18 2.42861 3.48287 0
M  V30 12061 O 1143.2 2.09252 2.88257 0
M  V30 12062 O 1142.06 3.00369 4.56553 0
M  V30 12063 H 1139.16 0.424419 0.709787 0
M  V30 12064 H 1141.7 1.42144 0.926991 0
M  V30 12065 H 1140.47 3.08431 2.40803 0
M  V30 12066 H 1140.1 1.80036 3.54503 0
M  V30 12067 N 1141.09 -1.09351 1.1349 0
M  V30 12068 C 1142.04 -2.16008 0.812981 0
M  V30 12069 C 1143.01 -1.64566 -0.225252 0
M  V30 12070 O 1144.2 -1.90552 -0.0973261 0
M  V30 12071 C 1141.34 -3.43913 0.285996 0
M  V30 12072 C 1140.45 -4.09251 1.38338 0
M  V30 12073 C 1139.58 -5.24916 0.814652 0
M  V30 12074 C 1138.62 -5.82178 1.89038 0
M  V30 12075 N 1137.76 -6.89203 1.33955 0
M  V30 12076 H 1142.6 -2.42887 1.72655 0
M  V30 12077 H 1140.14 -1.19209 0.861833 0
M  V30 12078 H 1142.09 -4.17183 -0.0376794 0
M  V30 12079 H 1140.72 -3.17349 -0.590707 0
M  V30 12080 H 1139.78 -3.33838 1.82363 0
M  V30 12081 H 1141.09 -4.4784 2.19638 0
M  V30 12082 H 1140.24 -6.05086 0.442306 0
M  V30 12083 H 1138.98 -4.87691 -0.029416 0
M  V30 12084 H 1137.99 -5.00669 2.27179 0
M  V30 12085 H 1139.21 -6.21464 2.73787 0
M  V30 12086 H 1137.16 -6.53956 0.517494 0
M  V30 12087 H 1137.07 -7.26565 2.08902 0
M  V30 12088 H 1138.34 -7.73126 0.994793 0
M  V30 12089 N 1142.57 -0.928524 -1.27343 0
M  V30 12090 C 1143.52 -0.399267 -2.24477 0
M  V30 12091 C 1144.51 0.496927 -1.53034 0
M  V30 12092 O 1145.7 0.334237 -1.73816 0
M  V30 12093 C 1142.83 0.346059 -3.41551 0
M  V30 12094 C 1141.91 -0.566699 -4.20297 0
M  V30 12095 N 1142.3 -1.6869 -4.76841 0
M  V30 12096 C 1140.6 -0.369865 -4.44464 0
M  V30 12097 C 1141.3 -2.25466 -5.36228 0
M  V30 12098 N 1140.28 -1.54414 -5.21207 0
M  V30 12099 H 1144.08 -1.25456 -2.65778 0
M  V30 12100 H 1141.59 -0.782894 -1.42283 0
M  V30 12101 H 1143.59 0.742171 -4.10241 0
M  V30 12102 H 1142.25 1.19827 -3.01781 0
M  V30 12103 H 1143.26 -2.06926 -4.74765 0
M  V30 12104 H 1139.94 0.441619 -4.15158 0
M  V30 12105 H 1141.33 -3.19779 -5.90924 0
M  V30 12106 N 1144.05 1.41491 -0.694123 0
M  V30 12107 C 1145.28 2.05579 -0.233466 0
M  V30 12108 C 1145.69 1.5223 1.11675 0
M  V30 12109 O 1145.05 0.669937 1.69759 0
M  V30 12110 C 1145.1 3.61047 -0.180967 0
M  V30 12111 O 1144.82 4.12421 -1.47785 0
M  V30 12112 C 1146.32 4.42278 0.300853 0
M  V30 12113 H 1143.54 0.662097 -0.108943 0
M  V30 12114 H 1146.09 1.81288 -0.946299 0
M  V30 12115 H 1144.24 3.84381 0.482678 0
M  V30 12116 H 1144.66 5.06454 -1.364 0
M  V30 12117 H 1146.13 5.51256 0.286464 0
M  V30 12118 H 1146.61 4.18276 1.33948 0
M  V30 12119 H 1147.21 4.24004 -0.331741 0
M  V30 12120 N 1145.53 0.438773 1.51369 0
M  V30 12121 C 1146.46 -0.362467 2.3067 0
M  V30 12122 C 1147.44 -1.01973 1.36145 0
M  V30 12123 O 1148.62 -1.0231 1.65065 0
M  V30 12124 C 1145.75 -1.46313 3.14976 0
M  V30 12125 C 1144.71 -0.929272 4.1779 0
M  V30 12126 C 1144.03 -2.12579 4.90627 0
M  V30 12127 C 1145.33 0.0372782 5.22287 0
M  V30 12128 H 1147.03 0.29931 2.979 0
M  V30 12129 H 1144.57 0.14539 1.43264 0
M  V30 12130 H 1146.53 -2.03088 3.69233 0
M  V30 12131 H 1145.25 -2.15321 2.45569 0
M  V30 12132 H 1143.91 -0.383722 3.64586 0
M  V30 12133 H 1143.56 -2.8021 4.17722 0
M  V30 12134 H 1143.26 -1.77496 5.60151 0
M  V30 12135 H 1144.78 -2.69905 5.47708 0
M  V30 12136 H 1146.2 -0.44022 5.71607 0
M  V30 12137 H 1144.59 0.300748 5.99346 0
M  V30 12138 H 1145.66 0.973503 4.75027 0
M  V30 12139 N 1147.01 -1.56678 0.170181 0
M  V30 12140 C 1148.25 -1.9714 -0.475767 0
M  V30 12141 C 1148.58 -1.05611 -1.62972 0
M  V30 12142 O 1147.86 -0.103017 -1.94227 0
M  V30 12143 C 1148.14 -3.47072 -0.959828 0
M  V30 12144 C 1148 -4.4938 0.194225 0
M  V30 12145 C 1149.31 -4.00071 -1.83387 0
M  V30 12146 H 1146.43 -0.716776 -0.171466 0
M  V30 12147 H 1149.08 -1.88266 0.256086 0
M  V30 12148 H 1147.23 -3.54766 -1.58346 0
M  V30 12149 H 1148.9 -4.53748 0.83128 0
M  V30 12150 H 1147.14 -4.25393 0.849893 0
M  V30 12151 H 1147.81 -5.51685 -0.186575 0
M  V30 12152 H 1150.29 -3.95002 -1.30815 0
M  V30 12153 H 1149.16 -5.05398 -2.14159 0
M  V30 12154 H 1149.42 -3.43819 -2.77923 0
M  V30 12155 N 1148.48 0.103547 -1.57259 0
M  V30 12156 C 1149.43 1.12621 -2.01458 0
M  V30 12157 C 1150.4 1.40282 -0.889391 0
M  V30 12158 O 1151.59 1.51887 -1.15477 0
M  V30 12159 C 1148.73 2.44352 -2.43692 0
M  V30 12160 C 1147.84 2.23495 -3.69695 0
M  V30 12161 C 1146.97 3.48565 -4.00844 0
M  V30 12162 C 1146.01 3.22932 -5.19982 0
M  V30 12163 N 1145.15 4.40246 -5.46926 0
M  V30 12164 H 1149.99 0.742315 -2.88606 0
M  V30 12165 H 1147.53 0.355016 -1.42752 0
M  V30 12166 H 1149.48 3.2122 -2.66221 0
M  V30 12167 H 1148.11 2.80605 -1.59565 0
M  V30 12168 H 1147.17 1.3747 -3.54692 0
M  V30 12169 H 1148.48 2.0054 -4.56711 0
M  V30 12170 H 1147.63 4.33844 -4.24104 0
M  V30 12171 H 1146.37 3.74565 -3.12333 0
M  V30 12172 H 1145.38 2.36045 -4.96551 0
M  V30 12173 H 1146.6 2.98286 -6.10084 0
M  V30 12174 H 1144.55 4.66338 -4.61373 0
M  V30 12175 H 1144.46 4.20452 -6.28296 0
M  V30 12176 H 1145.73 5.26614 -5.74716 0
M  V30 12177 N 1149.96 1.53094 0.37415 0
M  V30 12178 C 1151.21 1.68527 1.11548 0
M  V30 12179 C 1151.53 0.435253 1.9008 0
M  V30 12180 O 1150.8 -0.550594 1.88003 0
M  V30 12181 H 1149.38 0.621255 0.41479 0
M  V30 12182 H 1152.04 1.90258 0.422844 0
M  V30 12183 H 1151.14 2.54248 1.81009 0
M  V30 12184 N 1151.44 -0.633461 1.44309 0
M  V30 12185 C 1152.69 -1.38902 1.4625 0
M  V30 12186 C 1153 -1.95354 0.0980699 0
M  V30 12187 O 1154.21 -2.715 -0.0049983 0
M  V30 12188 C 1152.66 -2.51477 2.57463 0
M  V30 12189 C 1152.27 -2.01549 4.00103 0
M  V30 12190 C 1154.02 -3.28698 2.68622 0
M  V30 12191 C 1151.92 -3.11452 5.02744 0
M  V30 12192 H 1150.85 -0.521976 0.544112 0
M  V30 12193 H 1153.5 -0.681725 1.70367 0
M  V30 12194 H 1151.89 -3.24771 2.26582 0
M  V30 12195 H 1153.06 -1.35135 4.4054 0
M  V30 12196 H 1151.37 -1.3715 3.93165 0
M  V30 12197 H 1153.97 -4.10624 3.42479 0
M  V30 12198 H 1154.31 -3.78027 1.7436 0
M  V30 12199 H 1154.85 -2.62494 2.98901 0
M  V30 12200 H 1151.59 -2.6707 5.98627 0
M  V30 12201 H 1151.11 -3.76514 4.66902 0
M  V30 12202 H 1152.79 -3.76265 5.2634 0
M  V30 12203 N 1152.92 -1.31168 -0.873655 0
M  V30 12204 C 1154.17 -1.20003 -1.62118 0
M  V30 12205 C 1154.48 0.241505 -1.94103 0
M  V30 12206 O 1155.69 0.474801 -2.67316 0
M  V30 12207 C 1154.14 -2.10055 -2.92241 0
M  V30 12208 C 1153.75 -3.59183 -2.67752 0
M  V30 12209 C 1155.49 -2.07681 -3.70228 0
M  V30 12210 C 1153.4 -4.41255 -3.93761 0
M  V30 12211 H 1152.33 -0.445564 -0.608267 0
M  V30 12212 H 1154.98 -1.55997 -0.966287 0
M  V30 12213 H 1153.36 -1.66956 -3.59085 0
M  V30 12214 H 1154.54 -4.10504 -2.09339 0
M  V30 12215 H 1152.85 -3.63496 -2.03125 0
M  V30 12216 H 1155.45 -2.66246 -4.637 0
M  V30 12217 H 1155.79 -1.06304 -4.02499 0
M  V30 12218 H 1156.33 -2.48961 -3.10263 0
M  V30 12219 H 1153.07 -5.43372 -3.66643 0
M  V30 12220 H 1152.59 -3.94694 -4.51638 0
M  V30 12221 H 1154.26 -4.53278 -4.6168 0
M  V30 12222 N 1154.4 1.08748 -1.14068 0
M  V30 12223 C 1155.67 1.7769 -0.81766 0
M  V30 12224 C 1156.05 1.99522 0.689501 0
M  V30 12225 O 1155.4 1.60222 1.62914 0
M  V30 12226 C 1155.61 3.09517 -1.61245 0
M  V30 12227 C 1156.96 3.84108 -1.80958 0
M  V30 12228 O 1157.98 3.19289 -1.57902 0
M  V30 12229 O 1156.84 5.00491 -2.19479 0
M  V30 12230 H 1153.94 0.770953 -0.299265 0
M  V30 12231 H 1156.48 1.15242 -1.24569 0
M  V30 12232 H 1155.25 2.89155 -2.63638 0
M  V30 12233 H 1154.88 3.79692 -1.17982 0
M  V30 12234 N 1155.87 0.935264 1.26849 0
M  V30 12235 C 1157.1 0.595704 1.98661 0
M  V30 12236 C 1157.52 -0.821001 1.69237 0
M  V30 12237 O 1156.88 -1.55211 0.936982 0
M  V30 12238 C 1156.93 0.837275 3.50745 0
M  V30 12239 O 1156.03 -0.0934914 4.12294 0
M  V30 12240 H 1155.38 0.228512 0.623441 0
M  V30 12241 H 1157.91 1.25658 1.61466 0
M  V30 12242 H 1157.92 0.755827 4.00938 0
M  V30 12243 H 1156.59 1.86993 3.71492 0
M  V30 12244 H 1155.17 0.0385124 3.7288 0
M  V30 12245 N 1157.35 -1.41121 0.701616 0
M  V30 12246 C 1158.58 -2.05452 0.244365 0
M  V30 12247 C 1159 -1.5282 -1.10866 0
M  V30 12248 O 1158.35 -0.67893 -1.69401 0
M  V30 12249 C 1158.4 -3.60946 0.200112 0
M  V30 12250 O 1158.12 -4.11632 1.4997 0
M  V30 12251 C 1159.63 -4.42431 -0.277394 0
M  V30 12252 H 1156.85 -0.66151 0.112453 0
M  V30 12253 H 1159.39 -1.80784 0.9559 0
M  V30 12254 H 1157.54 -3.84632 -0.462287 0
M  V30 12255 H 1157.96 -5.05723 1.39084 0
M  V30 12256 H 1159.43 -5.514 -0.257225 0
M  V30 12257 H 1159.91 -4.1898 -1.31728 0
M  V30 12258 H 1160.52 -4.23822 0.354223 0
M  V30 12259 N 1158.83 -0.446794 -1.51134 0
M  V30 12260 C 1160.08 0.116666 -2.02464 0
M  V30 12261 C 1160.41 1.41532 -1.32975 0
M  V30 12262 O 1159.68 1.89278 -0.447651 0
M  V30 12263 C 1159.97 0.325659 -3.58624 0
M  V30 12264 C 1159.82 -0.992307 -4.38718 0
M  V30 12265 C 1161.14 1.09121 -4.26357 0
M  V30 12266 H 1158.26 0.0409262 -0.735863 0
M  V30 12267 H 1160.9 -0.587641 -1.80684 0
M  V30 12268 H 1159.05 0.925585 -3.77313 0
M  V30 12269 H 1160.72 -1.62694 -4.31658 0
M  V30 12270 H 1158.97 -1.5947 -4.03425 0
M  V30 12271 H 1159.64 -0.800005 -5.46172 0
M  V30 12272 H 1162.11 0.582944 -4.11996 0
M  V30 12273 H 1160.99 1.20621 -5.35483 0
M  V30 12274 H 1161.25 2.12171 -3.87861 0
M  V30 12275 N 1160.31 1.56586 -0.178487 0
M  V30 12276 C 1161.53 2.01915 0.473841 0
M  V30 12277 C 1161.96 1.05789 1.55533 0
M  V30 12278 O 1161.32 0.0386018 1.81259 0
M  V30 12279 C 1161.36 3.45799 1.02251 0
M  V30 12280 O 1160.47 3.52761 2.1362 0
M  V30 12281 H 1159.81 0.654372 0.112666 0
M  V30 12282 H 1162.34 2.02613 -0.284486 0
M  V30 12283 H 1162.35 3.85252 1.34332 0
M  V30 12284 H 1161.02 4.1526 0.230719 0
M  V30 12285 H 1159.6 3.25172 1.8253 0
M  V30 12286 N 1161.79 -0.095206 1.57312 0
M  V30 12287 C 1163.06 -0.830388 1.77099 0
M  V30 12288 C 1163.44 -1.9694 0.760121 0
M  V30 12289 O 1162.79 -2.2752 -0.211403 0
M  V30 12290 C 1163 -1.32507 3.22867 0
M  V30 12291 C 1164.35 -1.7679 3.86045 0
M  V30 12292 O 1165.37 -1.42131 3.26615 0
M  V30 12293 O 1164.23 -2.40876 4.90552 0
M  V30 12294 H 1161.33 -0.396083 0.72598 0
M  V30 12295 H 1163.87 -0.0770965 1.69525 0
M  V30 12296 H 1162.64 -0.508992 3.87975 0
M  V30 12297 H 1162.27 -2.14037 3.35073 0
M  V30 12298 N 1163.26 -1.53291 -0.366026 0
M  V30 12299 C 1164.2 -1.75981 -1.46845 0
M  V30 12300 C 1165.21 -0.640574 -1.49668 0
M  V30 12301 O 1166.4 -0.916823 -1.53155 0
M  V30 12302 C 1163.5 -1.82426 -2.85611 0
M  V30 12303 C 1162.67 -3.12062 -3.0649 0
M  V30 12304 C 1161.73 -3.09755 -4.25368 0
M  V30 12305 O 1160.76 -3.83555 -4.20564 0
M  V30 12306 N 1161.96 -2.30544 -5.32757 0
M  V30 12307 H 1164.72 -2.71104 -1.2776 0
M  V30 12308 H 1162.28 -1.52063 -0.555745 0
M  V30 12309 H 1164.28 -1.78361 -3.63276 0
M  V30 12310 H 1162.85 -0.945888 -2.97946 0
M  V30 12311 H 1162.07 -3.29433 -2.16489 0
M  V30 12312 H 1163.35 -3.97735 -3.17308 0
M  V30 12313 H 1162.75 -1.70095 -5.39522 0
M  V30 12314 H 1161.31 -2.32298 -6.09 0
M  V30 12315 N 1164.74 0.6258 -1.44643 0
M  V30 12316 C 1166.16 0.944569 -1.28647 0
M  V30 12317 C 1166.36 2.00227 -0.226134 0
M  V30 12318 O 1165.41 2.4953 0.386161 0
M  V30 12319 C 1166.73 1.40278 -2.65975 0
M  V30 12320 C 1168.28 1.51797 -2.73727 0
M  V30 12321 C 1168.75 2.01 -4.11537 0
M  V30 12322 N 1170.24 2.08262 -4.13741 0
M  V30 12323 C 1170.98 2.47515 -5.17227 0
M  V30 12324 N 1170.47 2.85867 -6.31072 0
M  V30 12325 N 1172.27 2.47695 -5.04583 0
M  V30 12326 H 1164.42 -0.0736157 -2.12272 0
M  V30 12327 H 1166.68 0.0296998 -0.947535 0
M  V30 12328 H 1166.39 0.699871 -3.44666 0
M  V30 12329 H 1166.26 2.37279 -2.93221 0
M  V30 12330 H 1168.65 2.21183 -1.95351 0
M  V30 12331 H 1168.73 0.531574 -2.50216 0
M  V30 12332 H 1168.37 1.32207 -4.90391 0
M  V30 12333 H 1168.3 3.0052 -4.32429 0
M  V30 12334 H 1170.79 1.81286 -3.31578 0
M  V30 12335 H 1171.11 3.14647 -7.05845 0
M  V30 12336 H 1169.45 2.83605 -6.34502 0
M  V30 12337 H 1172.64 2.17127 -4.14697 0
M  V30 12338 H 1172.81 2.77962 -5.85356 0
M  V30 12339 N 1166.22 1.31629 0.866686 0
M  V30 12340 C 1167.15 1.15377 1.98042 0
M  V30 12341 C 1168.17 0.0919633 1.6254 0
M  V30 12342 O 1169.35 0.339775 1.75236 0
M  V30 12343 C 1166.45 0.741295 3.30693 0
M  V30 12344 C 1165.63 1.88882 3.94516 0
M  V30 12345 C 1164.69 1.46186 5.05486 0
M  V30 12346 O 1163.71 2.17202 5.26129 0
M  V30 12347 N 1164.91 0.351096 5.79437 0
M  V30 12348 H 1167.68 2.11309 2.12529 0
M  V30 12349 H 1165.24 1.24007 1.04085 0
M  V30 12350 H 1167.23 0.438313 4.02319 0
M  V30 12351 H 1165.8 -0.12651 3.12344 0
M  V30 12352 H 1165.02 2.35894 3.15828 0
M  V30 12353 H 1166.31 2.65734 4.33892 0
M  V30 12354 H 1165.71 -0.240245 5.6519 0
M  V30 12355 H 1164.27 0.107663 6.51711 0
M  V30 12356 N 1167.7 -1.08142 1.14644 0
M  V30 12357 C 1168.95 -1.80849 0.917685 0
M  V30 12358 C 1169.28 -1.86123 -0.554249 0
M  V30 12359 O 1168.55 -1.33907 -1.41065 0
M  V30 12360 C 1168.84 -3.26325 1.52264 0
M  V30 12361 C 1168.69 -3.29244 3.06461 0
M  V30 12362 C 1170.01 -4.23375 1.20175 0
M  V30 12363 H 1167.13 -0.656559 0.334812 0
M  V30 12364 H 1169.77 -1.26595 1.41682 0
M  V30 12365 H 1167.92 -3.72656 1.09817 0
M  V30 12366 H 1169.59 -2.91216 3.57758 0
M  V30 12367 H 1167.83 -2.68438 3.40769 0
M  V30 12368 H 1168.51 -4.31785 3.43897 0
M  V30 12369 H 1170.98 -3.85394 1.56877 0
M  V30 12370 H 1169.86 -5.23472 1.65132 0
M  V30 12371 H 1170.12 -4.41944 0.117474 0
M  V30 12372 N 1169.18 -0.941978 -1.26351 0
M  V30 12373 C 1170.42 -0.590845 -1.94002 0
M  V30 12374 C 1170.76 0.868004 -1.73722 0
M  V30 12375 O 1170.03 1.62111 -1.07472 0
M  V30 12376 C 1170.31 -0.934901 -3.47752 0
M  V30 12377 C 1170.17 -2.44855 -3.77314 0
M  V30 12378 C 1171.49 -0.450888 -4.37784 0
M  V30 12379 H 1168.61 -0.21613 -0.704597 0
M  V30 12380 H 1171.25 -1.17634 -1.49205 0
M  V30 12381 H 1169.4 -0.436648 -3.86038 0
M  V30 12382 H 1171.07 -3.01959 -3.48738 0
M  V30 12383 H 1169.31 -2.89169 -3.23363 0
M  V30 12384 H 1169.98 -2.6398 -4.84787 0
M  V30 12385 H 1172.46 -0.878107 -4.06729 0
M  V30 12386 H 1171.34 -0.720439 -5.44152 0
M  V30 12387 H 1171.6 0.649162 -4.37308 0
M  V30 12388 N 1170.66 1.40747 -0.709091 0
M  V30 12389 C 1171.62 2.29118 -0.0611607 0
M  V30 12390 C 1172.62 1.45049 0.694081 0
M  V30 12391 O 1173.81 1.66039 0.526952 0
M  V30 12392 C 1170.94 3.28154 0.923447 0
M  V30 12393 H 1172.13 2.87913 -0.839413 0
M  V30 12394 H 1169.69 1.4896 -0.473363 0
M  V30 12395 H 1170.42 2.74366 1.72899 0
M  V30 12396 H 1170.21 3.90207 0.384862 0
M  V30 12397 H 1171.7 3.94343 1.37417 0
M  V30 12398 N 1172.13 0.454803 1.50895 0
M  V30 12399 C 1173.38 -0.105927 2.02523 0
M  V30 12400 C 1173.71 -1.40825 1.33724 0
M  V30 12401 O 1172.99 -1.89038 0.457683 0
M  V30 12402 C 1173.27 -0.306635 3.58792 0
M  V30 12403 C 1173.12 1.01556 4.38185 0
M  V30 12404 C 1174.44 -1.06858 4.2693 0
M  V30 12405 H 1171.56 -0.0370232 0.736069 0
M  V30 12406 H 1174.2 0.597215 1.8037 0
M  V30 12407 H 1172.35 -0.905563 3.77799 0
M  V30 12408 H 1174.03 1.64981 4.30789 0
M  V30 12409 H 1172.27 1.61608 4.02574 0
M  V30 12410 H 1172.94 0.828959 5.4574 0
M  V30 12411 H 1175.42 -0.561086 4.123 0
M  V30 12412 H 1174.29 -1.1778 5.36115 0
M  V30 12413 H 1174.55 -2.10111 3.8898 0
M  V30 12414 N 1173.61 -1.56489 0.186789 0
M  V30 12415 C 1174.84 -2.01722 -0.459993 0
M  V30 12416 C 1175.25 -1.06697 -1.5576 0
M  V30 12417 O 1174.61 -0.0704212 -1.82364 0
M  V30 12418 C 1174.66 -3.46693 -1.02401 0
M  V30 12419 O 1174.38 -4.3809 0.0297916 0
M  V30 12420 C 1175.88 -4.07403 -1.7475 0
M  V30 12421 H 1173.1 -0.660845 -0.116298 0
M  V30 12422 H 1175.65 -2.02389 0.293059 0
M  V30 12423 H 1173.8 -3.46752 -1.72749 0
M  V30 12424 H 1174.22 -5.23057 -0.388821 0
M  V30 12425 H 1175.69 -5.10718 -2.09455 0
M  V30 12426 H 1176.17 -3.50383 -2.64818 0
M  V30 12427 H 1176.77 -4.11093 -1.09007 0
M  V30 12428 N 1175.09 0.086862 -1.5736 0
M  V30 12429 C 1176.34 0.787281 -1.86135 0
M  V30 12430 C 1176.66 1.78866 -0.776667 0
M  V30 12431 O 1175.93 1.94915 0.19625 0
M  V30 12432 H 1174.51 0.293744 -0.686821 0
M  V30 12433 H 1177.17 0.0665326 -1.94786 0
M  V30 12434 H 1176.27 1.3128 -2.83147 0
M  V30 12435 N 1176.57 1.53483 0.357892 0
M  V30 12436 C 1177.84 1.60649 1.11585 0
M  V30 12437 C 1178.22 0.418789 2.06904 0
M  V30 12438 O 1177.57 -0.590279 2.20744 0
M  V30 12439 C 1177.78 2.96046 1.84818 0
M  V30 12440 C 1179.13 3.50895 2.39076 0
M  V30 12441 O 1180.15 2.98126 1.94934 0
M  V30 12442 O 1179.01 4.43163 3.19794 0
M  V30 12443 H 1176.11 0.649202 0.512315 0
M  V30 12444 H 1178.65 1.65826 0.360537 0
M  V30 12445 H 1177.43 3.73929 1.15296 0
M  V30 12446 H 1177.05 2.94395 2.6724 0
M  V30 12447 N 1178.05 -0.61812 1.44973 0
M  V30 12448 C 1179.29 -1.37468 1.48145 0
M  V30 12449 C 1179.61 -1.94628 0.120366 0
M  V30 12450 O 1178.88 -1.76548 -0.848982 0
M  V30 12451 H 1177.46 -0.510293 0.545536 0
M  V30 12452 H 1180.13 -0.726598 1.8085 0
M  V30 12453 H 1179.22 -2.19944 2.2143 0
M  V30 12454 N 1179.52 -1.32087 -0.859693 0
M  V30 12455 C 1180.75 -1.25348 -1.64607 0
M  V30 12456 C 1181.17 0.179425 -1.87945 0
M  V30 12457 O 1180.52 1.11487 -1.44489 0
M  V30 12458 C 1180.57 -2.0047 -3.00822 0
M  V30 12459 O 1180.3 -3.38169 -2.7852 0
M  V30 12460 C 1181.8 -2.00694 -3.95268 0
M  V30 12461 H 1179.02 -0.432692 -0.512854 0
M  V30 12462 H 1181.56 -1.7413 -1.07234 0
M  V30 12463 H 1179.72 -1.55423 -3.54855 0
M  V30 12464 H 1180.13 -3.76553 -3.65113 0
M  V30 12465 H 1181.6 -2.57748 -4.88129 0
M  V30 12466 H 1182.08 -0.99196 -4.27851 0
M  V30 12467 H 1182.69 -2.45666 -3.47172 0
M  V30 12468 N 1181 1.07532 -1.15215 0
M  V30 12469 C 1181.95 2.16785 -0.843022 0
M  V30 12470 C 1182.94 1.68411 0.182802 0
M  V30 12471 O 1184.15 1.7996 0.0380164 0
M  V30 12472 H 1180.52 0.707465 -0.254945 0
M  V30 12473 H 1182.5 2.40078 -1.77215 0
M  V30 12474 C 1181.24 3.45967 -0.346699 0
M  V30 12475 H 1180.57 3.83574 -1.12744 0
M  V30 12476 H 1182.01 4.23663 -0.169039 0
M  V30 12477 C 1180.47 3.23768 0.931437 0
M  V30 12478 O 1181 3.48179 2.00336 0
M  V30 12479 N 1179.2 2.77264 0.870217 0
M  V30 12480 H 1178.75 2.576 -0.00226223 0
M  V30 12481 H 1178.71 2.6279 1.72594 0
M  V30 12482 N 1182.48 0.948665 1.2585 0
M  V30 12483 C 1183.76 0.517832 1.88621 0
M  V30 12484 C 1184.14 -1.00477 1.85654 0
M  V30 12485 O 1183.49 -1.868 1.31598 0
M  V30 12486 C 1183.7 1.08768 3.31618 0
M  V30 12487 C 1185.04 1.16089 4.08422 0
M  V30 12488 O 1186.07 1.0388 3.40716 0
M  V30 12489 O 1184.93 1.35172 5.29519 0
M  V30 12490 H 1182.02 0.169916 0.809356 0
M  V30 12491 H 1184.57 1.04171 1.33964 0
M  V30 12492 H 1183.34 2.13109 3.28177 0
M  V30 12493 H 1182.96 0.54669 3.93824 0
M  V30 12494 N 1183.96 -1.40369 0.716545 0
M  V30 12495 C 1185.21 -2.00473 0.255959 0
M  V30 12496 C 1185.53 -1.57104 -1.15514 0
M  V30 12497 O 1184.8 -0.810925 -1.78328 0
M  V30 12498 H 1183.38 -0.741357 0.0916427 0
M  V30 12499 H 1186.04 -1.71692 0.922389 0
M  V30 12500 H 1185.14 -3.10752 0.289806 0
M  V30 12501 N 1185.44 -0.462799 -1.50652 0
M  V30 12502 C 1186.85 -0.00568907 -1.86699 0
M  V30 12503 C 1187.2 1.39641 -1.37822 0
M  V30 12504 O 1186.32 2.03366 -0.739679 0
M  V30 12505 C 1186.92 -0.00354783 -3.388 0
M  V30 12506 C 1185.48 0.398061 -3.74289 0
M  V30 12507 C 1184.62 -0.392574 -2.74507 0
M  V30 12508 H 1187.58 -0.677469 -1.43513 0
M  V30 12509 H 1187.6 0.800456 -3.71985 0
M  V30 12510 H 1187.11 -1.02414 -3.74344 0
M  V30 12511 H 1185.21 1.42331 -3.44344 0
M  V30 12512 H 1185.32 0.105168 -4.78985 0
M  V30 12513 H 1183.69 0.152608 -2.54242 0
M  V30 12514 H 1184.47 -1.41252 -3.12894 0
M  V30 12515 N 1186.91 1.56388 -0.195085 0
M  V30 12516 C 1187.88 2.17859 0.712053 0
M  V30 12517 C 1188.88 1.13304 1.141 0
M  V30 12518 O 1190.07 1.38689 1.05409 0
M  V30 12519 C 1187.2 2.78065 1.97213 0
M  V30 12520 H 1188.39 2.9938 0.176529 0
M  V30 12521 H 1185.95 1.56205 0.0545322 0
M  V30 12522 H 1186.68 2.00342 2.55017 0
M  V30 12523 H 1186.47 3.54603 1.67329 0
M  V30 12524 H 1187.96 3.25266 2.619 0
M  V30 12525 N 1188.39 -0.0785156 1.57404 0
M  V30 12526 C 1189.32 -1.09446 2.06262 0
M  V30 12527 C 1190.3 -1.40777 0.954772 0
M  V30 12528 O 1191.49 -1.5052 1.22708 0
M  V30 12529 C 1188.62 -2.40979 2.50093 0
M  V30 12530 C 1187.57 -2.24017 3.64692 0
M  V30 12531 C 1186.9 -3.60873 3.94556 0
M  V30 12532 C 1188.2 -1.66696 4.94985 0
M  V30 12533 H 1189.89 -0.687928 2.9139 0
M  V30 12534 H 1187.44 -0.329466 1.4018 0
M  V30 12535 H 1189.39 -3.12337 2.82884 0
M  V30 12536 H 1188.12 -2.83599 1.61985 0
M  V30 12537 H 1186.77 -1.55101 3.32174 0
M  V30 12538 H 1186.42 -4.01051 3.0359 0
M  V30 12539 H 1186.12 -3.50365 4.71718 0
M  V30 12540 H 1187.65 -4.33673 4.29837 0
M  V30 12541 H 1189.06 -2.27913 5.2605 0
M  V30 12542 H 1187.46 -1.66902 5.76423 0
M  V30 12543 H 1188.53 -0.627827 4.80818 0
M  V30 12544 N 1189.87 -1.5367 -0.349747 0
M  V30 12545 C 1190.82 -1.81223 -1.42922 0
M  V30 12546 C 1191.79 -0.657536 -1.52531 0
M  V30 12547 O 1192.97 -0.90134 -1.68168 0
M  V30 12548 C 1190.11 -2.022 -2.79659 0
M  V30 12549 C 1189.23 -3.29915 -2.78891 0
M  V30 12550 C 1188.36 -3.40993 -4.07305 0
M  V30 12551 C 1187.4 -4.6268 -4.00741 0
M  V30 12552 N 1186.54 -4.70826 -5.20833 0
M  V30 12553 H 1191.38 -2.73328 -1.18727 0
M  V30 12554 H 1188.91 -1.35386 -0.57525 0
M  V30 12555 H 1190.87 -2.12351 -3.59114 0
M  V30 12556 H 1189.5 -1.13416 -3.0222 0
M  V30 12557 H 1188.55 -3.28637 -1.91577 0
M  V30 12558 H 1189.87 -4.19459 -2.69917 0
M  V30 12559 H 1189.02 -3.50542 -4.95182 0
M  V30 12560 H 1187.76 -2.49493 -4.19052 0
M  V30 12561 H 1186.76 -4.53215 -3.11249 0
M  V30 12562 H 1187.99 -5.55538 -3.90582 0
M  V30 12563 H 1185.93 -3.82233 -5.33136 0
M  V30 12564 H 1185.85 -5.54297 -5.14092 0
M  V30 12565 H 1187.12 -4.84677 -6.10499 0
M  V30 12566 N 1191.35 0.610423 -1.45298 0
M  V30 12567 C 1192.3 1.7213 -1.53753 0
M  V30 12568 C 1193.27 1.61609 -0.383632 0
M  V30 12569 O 1194.45 1.8123 -0.596694 0
M  V30 12570 C 1191.59 3.10433 -1.50749 0
M  V30 12571 C 1190.7 3.3178 -2.76669 0
M  V30 12572 C 1189.84 4.60173 -2.65356 0
M  V30 12573 C 1188.88 4.74769 -3.86343 0
M  V30 12574 N 1188.01 5.94459 -3.73581 0
M  V30 12575 H 1192.85 1.64239 -2.48655 0
M  V30 12576 H 1190.39 0.800879 -1.23387 0
M  V30 12577 H 1192.35 3.90446 -1.46996 0
M  V30 12578 H 1190.98 3.17288 -0.593998 0
M  V30 12579 H 1190.03 2.45563 -2.90522 0
M  V30 12580 H 1191.34 3.38439 -3.66416 0
M  V30 12581 H 1190.5 5.48377 -2.59553 0
M  V30 12582 H 1189.24 4.55907 -1.73204 0
M  V30 12583 H 1188.24 3.8499 -3.92509 0
M  V30 12584 H 1189.47 4.80834 -4.79557 0
M  V30 12585 H 1187.41 5.91243 -2.84196 0
M  V30 12586 H 1187.33 6.02265 -4.5696 0
M  V30 12587 H 1188.6 6.85168 -3.71705 0
M  V30 12588 N 1192.83 1.32541 0.852676 0
M  V30 12589 C 1193.79 1.21578 1.94297 0
M  V30 12590 C 1194.79 0.138318 1.60204 0
M  V30 12591 O 1195.98 0.388864 1.69804 0
M  V30 12592 C 1193.11 0.870209 3.29606 0
M  V30 12593 H 1194.3 2.18476 2.05446 0
M  V30 12594 H 1191.86 1.16401 1.0431 0
M  V30 12595 H 1192.59 -0.0968698 3.24155 0
M  V30 12596 H 1192.38 1.64924 3.55728 0
M  V30 12597 H 1193.87 0.817874 4.09513 0
M  V30 12598 N 1194.3 -1.0692 1.15784 0
M  V30 12599 C 1195.58 -1.76367 0.845825 0
M  V30 12600 C 1195.96 -2.00594 -0.657672 0
M  V30 12601 O 1195.31 -1.62794 -1.60345 0
M  V30 12602 C 1195.52 -3.06913 1.66149 0
M  V30 12603 C 1196.87 -3.81181 1.87046 0
M  V30 12604 O 1197.89 -3.16737 1.62961 0
M  V30 12605 O 1196.75 -4.96936 2.27413 0
M  V30 12606 H 1193.84 -0.766095 0.311493 0
M  V30 12607 H 1196.39 -1.13246 1.26386 0
M  V30 12608 H 1195.16 -2.84924 2.68205 0
M  V30 12609 H 1194.79 -3.77767 1.24007 0
M  V30 12610 N 1195.78 -0.955326 -1.25345 0
M  V30 12611 C 1197.03 -0.611388 -1.93365 0
M  V30 12612 C 1197.36 0.84953 -1.74633 0
M  V30 12613 O 1196.64 1.60962 -1.09185 0
M  V30 12614 C 1196.92 -0.971732 -3.46741 0
M  V30 12615 C 1196.77 -2.48843 -3.74696 0
M  V30 12616 C 1198.09 -0.497295 -4.37281 0
M  V30 12617 H 1195.21 -0.223591 -0.702265 0
M  V30 12618 H 1197.85 -1.1921 -1.47949 0
M  V30 12619 H 1196 -0.477568 -3.85554 0
M  V30 12620 H 1197.67 -3.05641 -3.45516 0
M  V30 12621 H 1195.92 -2.92582 -3.20278 0
M  V30 12622 H 1196.59 -2.69107 -4.8196 0
M  V30 12623 H 1199.06 -0.921196 -4.05775 0
M  V30 12624 H 1197.94 -0.778113 -5.43357 0
M  V30 12625 H 1198.2 0.602743 -4.37972 0
M  V30 12626 N 1197.26 1.39987 -0.723979 0
M  V30 12627 C 1198.51 2.00334 -0.266587 0
M  V30 12628 C 1198.83 1.57714 1.14679 0
M  V30 12629 O 1198.1 0.82037 1.77895 0
M  V30 12630 H 1196.68 0.740861 -0.095573 0
M  V30 12631 H 1199.34 1.712 -0.931481 0
M  V30 12632 H 1198.44 3.10594 -0.306282 0
M  V30 12633 N 1198.74 0.470782 1.50404 0
M  V30 12634 C 1199.99 -0.084316 2.02324 0
M  V30 12635 C 1200.31 -1.39749 1.35279 0
M  V30 12636 O 1199.57 -1.90037 0.467364 0
M  V30 12637 C 1199.87 -0.316419 3.55997 0
M  V30 12638 C 1199.53 0.915017 4.41518 0
M  V30 12639 C 1198.2 1.25265 4.6461 0
M  V30 12640 C 1200.55 1.73494 4.91477 0
M  V30 12641 C 1197.88 2.41027 5.34905 0
M  V30 12642 C 1200.23 2.88384 5.63043 0
M  V30 12643 C 1198.89 3.22562 5.84389 0
M  V30 12644 H 1198.16 -0.0308534 0.740357 0
M  V30 12645 H 1200.81 0.624799 1.81021 0
M  V30 12646 H 1199.11 -1.10778 3.75813 0
M  V30 12647 H 1200.81 -0.759882 3.93734 0
M  V30 12648 H 1197.4 0.641977 4.23765 0
M  V30 12649 H 1201.59 1.48728 4.73491 0
M  V30 12650 H 1196.84 2.67781 5.49639 0
M  V30 12651 H 1201.02 3.52264 6.00735 0
M  V30 12652 H 1198.64 4.1237 6.38635 0
M  V30 12653 N 1200.22 -1.56282 0.203376 0
M  V30 12654 C 1201.18 -2.18233 -0.700489 0
M  V30 12655 C 1202.18 -1.13908 -1.13497 0
M  V30 12656 O 1203.37 -1.39246 -1.04672 0
M  V30 12657 C 1200.5 -2.79107 -1.95735 0
M  V30 12658 H 1201.7 -2.99469 -0.160649 0
M  V30 12659 H 1199.25 -1.56232 -0.0462475 0
M  V30 12660 H 1199.98 -2.01691 -2.53951 0
M  V30 12661 H 1199.77 -3.55486 -1.65446 0
M  V30 12662 H 1201.26 -3.2665 -2.60172 0
M  V30 12663 N 1201.7 0.070167 -1.57444 0
M  V30 12664 C 1202.63 1.11509 -1.991 0
M  V30 12665 C 1203.61 1.37481 -0.868194 0
M  V30 12666 O 1204.79 1.50827 -1.13064 0
M  V30 12667 C 1201.92 2.45908 -2.3291 0
M  V30 12668 C 1200.96 2.36059 -3.55216 0
M  V30 12669 S 1201.8 1.75316 -5.05989 0
M  V30 12670 C 1202.95 3.11289 -5.43001 0
M  V30 12671 H 1203.19 0.760096 -2.87419 0
M  V30 12672 H 1200.72 0.278756 -1.51863 0
M  V30 12673 H 1202.68 3.23217 -2.53063 0
M  V30 12674 H 1201.34 2.78567 -1.45117 0
M  V30 12675 H 1200.53 3.35176 -3.76395 0
M  V30 12676 H 1200.13 1.66886 -3.34701 0
M  V30 12677 H 1202.42 4.07603 -5.41171 0
M  V30 12678 H 1203.37 2.94888 -6.43775 0
M  V30 12679 H 1203.78 3.11969 -4.70463 0
M  V30 12680 N 1203.17 1.53854 0.341593 0
M  V30 12681 C 1204.42 1.70856 1.07948 0
M  V30 12682 C 1204.74 0.475474 1.89114 0
M  V30 12683 O 1204.01 -0.510592 1.89129 0
M  V30 12684 H 1202.59 0.629914 0.401519 0
M  V30 12685 H 1205.25 1.91112 0.382393 0
M  V30 12686 H 1204.35 2.5803 1.75575 0
M  V30 12687 N 1204.65 -0.602709 1.4562 0
M  V30 12688 C 1205.9 -1.35769 1.49163 0
M  V30 12689 C 1206.21 -1.95102 0.139485 0
M  V30 12690 O 1207.42 -2.71449 0.0525919 0
M  V30 12691 C 1205.88 -2.45959 2.62739 0
M  V30 12692 C 1205.48 -1.93017 4.04288 0
M  V30 12693 C 1207.23 -3.22926 2.75534 0
M  V30 12694 C 1205.13 -3.00718 5.09237 0
M  V30 12695 H 1204.06 -0.510317 0.555061 0
M  V30 12696 H 1206.72 -0.645434 1.71774 0
M  V30 12697 H 1205.1 -3.19892 2.3342 0
M  V30 12698 H 1206.27 -1.2576 4.43307 0
M  V30 12699 H 1204.59 -1.2878 3.95986 0
M  V30 12700 H 1207.18 -4.03267 3.51112 0
M  V30 12701 H 1207.53 -3.74243 1.82339 0
M  V30 12702 H 1208.06 -2.56095 3.04402 0
M  V30 12703 H 1204.8 -2.54312 6.04157 0
M  V30 12704 H 1204.32 -3.66526 4.74783 0
M  V30 12705 H 1206 -3.65016 5.34202 0
M  V30 12706 N 1206.13 -1.32992 -0.845635 0
M  V30 12707 C 1207.09 -1.22607 -1.9365 0
M  V30 12708 C 1208.09 -0.146812 -1.60128 0
M  V30 12709 O 1209.28 -0.397863 -1.69596 0
M  V30 12710 C 1206.41 -0.887677 -3.2914 0
M  V30 12711 H 1207.61 -2.19563 -2.04285 0
M  V30 12712 H 1205.16 -1.16952 -1.03691 0
M  V30 12713 H 1205.9 0.0796777 -3.24202 0
M  V30 12714 H 1205.68 -1.66808 -3.54849 0
M  V30 12715 H 1207.17 -0.83958 -4.09073 0
M  V30 12716 N 1207.61 1.06304 -1.1635 0
M  V30 12717 C 1208.86 1.78747 -0.943074 0
M  V30 12718 C 1209.18 1.87646 0.530483 0
M  V30 12719 O 1208.45 1.38506 1.38538 0
M  V30 12720 H 1207.03 0.662072 -0.345932 0
M  V30 12721 H 1209.69 1.28413 -1.46615 0
M  V30 12722 H 1208.78 2.80828 -1.3617 0
M  V30 12723 N 1209.09 0.96196 1.24836 0
M  V30 12724 C 1210.31 0.63814 1.96813 0
M  V30 12725 C 1210.73 -0.79127 1.71419 0
M  V30 12726 O 1210.09 -1.5302 0.994546 0
M  V30 12727 C 1210.14 0.89626 3.50213 0
M  V30 12728 O 1209.86 2.26947 3.74735 0
M  V30 12729 C 1211.36 0.585836 4.39412 0
M  V30 12730 H 1208.58 0.238598 0.627146 0
M  V30 12731 H 1211.12 1.28833 1.58815 0
M  V30 12732 H 1209.28 0.292368 3.86295 0
M  V30 12733 H 1209.69 2.34514 4.69152 0
M  V30 12734 H 1211.17 0.816935 5.45921 0
M  V30 12735 H 1211.64 -0.479784 4.36572 0
M  V30 12736 H 1212.25 1.16938 4.08908 0
M  V30 12737 N 1210.56 -1.39601 0.731392 0
M  V30 12738 C 1211.84 -1.94531 0.20422 0
M  V30 12739 C 1212.22 -1.66845 -1.29329 0
M  V30 12740 O 1211.57 -0.994706 -2.05713 0
M  V30 12741 C 1211.78 -3.44891 0.53395 0
M  V30 12742 C 1213.13 -4.21863 0.481298 0
M  V30 12743 O 1214.15 -3.53073 0.470929 0
M  V30 12744 O 1213.01 -5.44452 0.472663 0
M  V30 12745 H 1210.1 -0.826214 0.0360436 0
M  V30 12746 H 1212.65 -1.49121 0.810005 0
M  V30 12747 H 1211.42 -3.58463 1.56907 0
M  V30 12748 H 1211.04 -3.97472 -0.10099 0
M  V30 12749 N 1212.04 -0.478751 -1.50152 0
M  V30 12750 C 1213.29 0.073694 -2.02666 0
M  V30 12751 C 1213.62 1.38679 -1.35947 0
M  V30 12752 O 1212.9 1.88286 -0.4877 0
M  V30 12753 C 1213.18 0.249516 -3.59235 0
M  V30 12754 C 1213.03 -1.08514 -4.36514 0
M  V30 12755 C 1214.35 1.00053 -4.28576 0
M  V30 12756 H 1211.47 0.0253082 -0.736565 0
M  V30 12757 H 1214.11 -0.625834 -1.79397 0
M  V30 12758 H 1212.26 0.845343 -3.79192 0
M  V30 12759 H 1213.93 -1.71814 -4.28109 0
M  V30 12760 H 1212.18 -1.67992 -3.99952 0
M  V30 12761 H 1212.85 -0.915676 -5.44352 0
M  V30 12762 H 1215.32 0.495422 -4.1314 0
M  V30 12763 H 1214.2 1.09236 -5.37921 0
M  V30 12764 H 1214.46 2.03896 -3.92274 0
M  V30 12765 N 1213.52 1.56172 -0.211661 0
M  V30 12766 C 1214.48 2.18602 0.688906 0
M  V30 12767 C 1215.48 1.14508 1.12892 0
M  V30 12768 O 1216.67 1.39799 1.03932 0
M  V30 12769 C 1213.81 2.80141 1.94253 0
M  V30 12770 H 1215 2.9955 0.144765 0
M  V30 12771 H 1212.55 1.56254 0.0379615 0
M  V30 12772 H 1213.29 2.03035 2.52878 0
M  V30 12773 H 1213.07 3.56358 1.63558 0
M  V30 12774 H 1214.56 3.28026 2.58436 0
M  V30 12775 N 1215 -0.0618163 1.57479 0
M  V30 12776 C 1215.95 -1.0724 2.04373 0
M  V30 12777 C 1216.92 -1.37875 0.926271 0
M  V30 12778 O 1218.1 -1.48772 1.19463 0
M  V30 12779 C 1215.24 -2.37805 2.50085 0
M  V30 12780 C 1214.35 -2.13614 3.7549 0
M  V30 12781 C 1213.49 -3.37814 4.09945 0
M  V30 12782 C 1212.53 -3.09032 5.28361 0
M  V30 12783 N 1211.66 -4.25591 5.58406 0
M  V30 12784 H 1216.5 -0.665536 2.90473 0
M  V30 12785 H 1214.04 -0.317043 1.43643 0
M  V30 12786 H 1216 -3.14048 2.74644 0
M  V30 12787 H 1214.63 -2.76275 1.66948 0
M  V30 12788 H 1213.68 -1.28017 3.58212 0
M  V30 12789 H 1214.99 -1.88361 4.61867 0
M  V30 12790 H 1214.15 -4.22447 4.35458 0
M  V30 12791 H 1212.89 -3.66153 3.22154 0
M  V30 12792 H 1211.89 -2.22797 5.02635 0
M  V30 12793 H 1213.12 -2.82006 6.17778 0
M  V30 12794 H 1211.06 -4.53941 4.73575 0
M  V30 12795 H 1210.98 -4.03646 6.39223 0
M  V30 12796 H 1212.25 -5.11191 5.88476 0
M  V30 12797 N 1216.48 -1.54033 -0.333429 0
M  V30 12798 C 1217.39 -1.85737 -1.43314 0
M  V30 12799 C 1218.4 -0.748398 -1.57083 0
M  V30 12800 O 1219.58 -1.04171 -1.72367 0
M  V30 12801 C 1216.64 -2.06942 -2.78165 0
M  V30 12802 C 1215.7 -3.30774 -2.73655 0
M  V30 12803 C 1214.94 -3.50957 -4.02075 0
M  V30 12804 O 1215.16 -2.74774 -4.99855 0
M  V30 12805 O 1214.09 -4.44412 -4.05933 0
M  V30 12806 H 1217.92 -2.7923 -1.19434 0
M  V30 12807 H 1215.51 -1.39814 -0.526546 0
M  V30 12808 H 1217.39 -2.22276 -3.58011 0
M  V30 12809 H 1216.06 -1.16638 -3.01956 0
M  V30 12810 H 1214.97 -3.20835 -1.92395 0
M  V30 12811 H 1216.3 -4.21103 -2.54819 0
M  V30 12812 N 1217.95 0.594978 -1.45938 0
M  V30 12813 C 1218.92 1.68688 -1.55168 0
M  V30 12814 C 1219.92 1.54945 -0.429951 0
M  V30 12815 O 1221.11 1.59785 -0.693859 0
M  V30 12816 C 1218.24 3.0804 -1.46027 0
M  V30 12817 H 1219.43 1.61866 -2.52467 0
M  V30 12818 H 1216.99 0.811785 -1.33565 0
M  V30 12819 H 1217.72 3.20428 -0.499614 0
M  V30 12820 H 1217.51 3.19423 -2.27401 0
M  V30 12821 H 1219 3.8755 -1.55546 0
M  V30 12822 N 1219.43 1.33438 0.838571 0
M  V30 12823 C 1220.66 1.28097 1.63113 0
M  V30 12824 C 1221.08 -0.145197 1.87539 0
M  V30 12825 O 1220.44 -1.10191 1.43971 0
M  V30 12826 C 1220.49 2.06201 2.95827 0
M  V30 12827 O 1219.59 1.42082 3.87152 0
M  V30 12828 H 1218.93 0.440685 0.496681 0
M  V30 12829 H 1221.46 1.76004 1.04325 0
M  V30 12830 H 1221.47 2.16977 3.45521 0
M  V30 12831 H 1220.15 3.099 2.77371 0
M  V30 12832 H 1218.73 1.39953 3.45641 0
M  V30 12833 N 1220.91 -1.05686 1.16912 0
M  V30 12834 C 1222.19 -1.7546 0.864483 0
M  V30 12835 C 1222.57 -2.0128 -0.636359 0
M  V30 12836 O 1221.92 -1.64485 -1.58609 0
M  V30 12837 C 1222.13 -3.05134 1.69395 0
M  V30 12838 C 1223.47 -3.79176 1.91079 0
M  V30 12839 O 1224.5 -3.1499 1.66312 0
M  V30 12840 O 1223.36 -4.94496 2.32671 0
M  V30 12841 H 1220.45 -0.762748 0.319601 0
M  V30 12842 H 1223 -1.11899 1.27581 0
M  V30 12843 H 1221.77 -2.82063 2.71212 0
M  V30 12844 H 1221.39 -3.76431 1.28007 0
M  V30 12845 N 1222.39 -0.968567 -1.24324 0
M  V30 12846 C 1223.64 -0.626519 -1.91723 0
M  V30 12847 C 1223.95 0.84225 -1.76538 0
M  V30 12848 O 1225.16 1.29486 -2.38633 0
M  V30 12849 C 1223.61 -1.06992 -3.43629 0
M  V30 12850 C 1223.22 -2.5622 -3.67499 0
M  V30 12851 C 1224.96 -0.801057 -4.16873 0
M  V30 12852 C 1222.87 -2.94288 -5.1298 0
M  V30 12853 H 1221.8 -0.23062 -0.717865 0
M  V30 12854 H 1224.45 -1.17489 -1.40956 0
M  V30 12855 H 1222.83 -0.44985 -3.93437 0
M  V30 12856 H 1224.01 -3.23364 -3.28287 0
M  V30 12857 H 1222.32 -2.80726 -3.07542 0
M  V30 12858 H 1224.92 -1.06147 -5.24058 0
M  V30 12859 H 1225.26 0.262742 -4.1547 0
M  V30 12860 H 1225.8 -1.38213 -3.73017 0
M  V30 12861 H 1222.54 -3.99743 -5.19506 0
M  V30 12862 H 1222.06 -2.31829 -5.53187 0
M  V30 12863 H 1223.73 -2.84242 -5.81219 0
M  V30 12864 N 1223.87 1.39211 -0.738786 0
M  V30 12865 C 1225.12 1.99673 -0.285254 0
M  V30 12866 C 1225.43 1.59297 1.13507 0
M  V30 12867 O 1226.63 2.12622 1.68832 0
M  V30 12868 C 1225.09 3.5696 -0.45906 0
M  V30 12869 C 1224.7 4.06297 -1.88751 0
M  V30 12870 C 1226.44 4.24446 -0.0674954 0
M  V30 12871 C 1224.35 5.56171 -2.01067 0
M  V30 12872 H 1223.28 0.746945 -0.102901 0
M  V30 12873 H 1225.93 1.59163 -0.913209 0
M  V30 12874 H 1224.31 3.95285 0.23785 0
M  V30 12875 H 1225.49 3.79297 -2.61669 0
M  V30 12876 H 1223.8 3.51486 -2.23264 0
M  V30 12877 H 1226.4 5.34521 -0.138475 0
M  V30 12878 H 1226.74 4.04653 0.977823 0
M  V30 12879 H 1227.27 3.91309 -0.715704 0
M  V30 12880 H 1224.01 5.80849 -3.03801 0
M  V30 12881 H 1223.53 5.84961 -1.32591 0
M  V30 12882 H 1225.21 6.21642 -1.79362 0
M  V30 12883 N 1225.34 0.486708 1.49896 0
M  V30 12884 C 1226.27 -0.288898 2.31706 0
M  V30 12885 C 1227.26 -0.975901 1.3932 0
M  V30 12886 O 1228.44 -0.970065 1.68236 0
M  V30 12887 C 1225.57 -1.36218 3.19471 0
M  V30 12888 C 1224.52 -0.795884 4.20535 0
M  V30 12889 C 1223.85 -1.96862 4.97141 0
M  V30 12890 C 1225.15 0.203421 5.21904 0
M  V30 12891 H 1226.84 0.393934 2.96797 0
M  V30 12892 H 1224.39 0.190894 1.42729 0
M  V30 12893 H 1226.34 -1.91238 3.75508 0
M  V30 12894 H 1225.07 -2.074 2.52295 0
M  V30 12895 H 1223.73 -0.267538 3.65622 0
M  V30 12896 H 1223.37 -2.66779 4.26425 0
M  V30 12897 H 1223.07 -1.59585 5.65514 0
M  V30 12898 H 1224.6 -2.52343 5.56017 0
M  V30 12899 H 1226.01 -0.258144 5.72719 0
M  V30 12900 H 1224.41 0.491273 5.98086 0
M  V30 12901 H 1225.48 1.12414 4.7169 0
M  V30 12902 N 1226.82 -1.56058 0.219941 0
M  V30 12903 C 1228.05 -2.02652 -0.417101 0
M  V30 12904 C 1228.47 -1.09977 -1.53461 0
M  V30 12905 O 1227.82 -0.109088 -1.82174 0
M  V30 12906 C 1227.87 -3.48787 -0.950244 0
M  V30 12907 O 1227.6 -4.37928 0.12271 0
M  V30 12908 C 1229.1 -4.11018 -1.66069 0
M  V30 12909 H 1226.32 -0.663163 -0.102254 0
M  V30 12910 H 1228.86 -2.01722 0.335923 0
M  V30 12911 H 1227.02 -3.50338 -1.65355 0
M  V30 12912 H 1227.43 -5.23764 -0.277785 0
M  V30 12913 H 1228.9 -5.15046 -1.98575 0
M  V30 12914 H 1229.38 -3.55921 -2.57326 0
M  V30 12915 H 1229.99 -4.13313 -1.00263 0
M  V30 12916 N 1228.3 0.053464 -1.57509 0
M  V30 12917 C 1229.58 0.783141 -1.79238 0
M  V30 12918 C 1229.96 1.94855 -0.812069 0
M  V30 12919 O 1229.31 2.28 0.151006 0
M  V30 12920 C 1229.52 1.239 -3.26266 0
M  V30 12921 C 1230.86 1.66492 -3.90596 0
M  V30 12922 O 1231.89 1.33421 -3.30269 0
M  V30 12923 O 1230.75 2.27785 -4.96766 0
M  V30 12924 H 1227.84 0.376696 -0.736226 0
M  V30 12925 H 1230.39 0.0321229 -1.6967 0
M  V30 12926 H 1229.16 0.405948 -3.89189 0
M  V30 12927 H 1228.78 2.05078 -3.4063 0
M  V30 12928 N 1229.78 1.54207 0.325255 0
M  V30 12929 C 1231.06 1.6298 1.08153 0
M  V30 12930 C 1231.44 0.462583 2.05969 0
M  V30 12931 O 1230.78 -0.543323 2.21947 0
M  V30 12932 C 1230.99 2.999 1.78497 0
M  V30 12933 C 1232.34 3.55888 2.3158 0
M  V30 12934 O 1233.37 3.02194 1.88566 0
M  V30 12935 O 1232.23 4.49847 3.10322 0
M  V30 12936 H 1229.32 0.659923 0.498429 0
M  V30 12937 H 1231.87 1.66553 0.325282 0
M  V30 12938 H 1230.64 3.7629 1.07338 0
M  V30 12939 H 1230.26 2.99997 2.60936 0
M  V30 12940 N 1231.26 -0.58723 1.46251 0
M  V30 12941 C 1232.21 -1.71771 1.56836 0
M  V30 12942 C 1233.2 -1.63664 0.437096 0
M  V30 12943 O 1234.41 -1.69212 0.613797 0
M  V30 12944 H 1230.78 -0.567841 0.493012 0
M  V30 12945 H 1232.75 -1.59974 2.51895 0
M  V30 12946 C 1231.5 -3.10159 1.57152 0
M  V30 12947 H 1230.82 -3.17066 2.43535 0
M  V30 12948 H 1232.26 -3.89032 1.68613 0
M  V30 12949 C 1230.72 -3.35567 0.299374 0
M  V30 12950 O 1231.25 -3.97006 -0.612291 0
M  V30 12951 N 1229.46 -2.89987 0.188695 0
M  V30 12952 H 1229.01 -2.4017 0.93147 0
M  V30 12953 H 1228.96 -3.0736 -0.661612 0
M  V30 12954 N 1232.74 -1.33881 -0.831482 0
M  V30 12955 C 1233.98 -1.25755 -1.58719 0
M  V30 12956 C 1234.31 0.174746 -1.93713 0
M  V30 12957 O 1233.57 1.13384 -1.59507 0
M  V30 12958 C 1233.86 -2.08544 -2.90249 0
M  V30 12959 C 1233.53 -3.57651 -2.74585 0
M  V30 12960 C 1232.19 -3.983 -2.7002 0
M  V30 12961 C 1234.54 -4.52369 -2.58866 0
M  V30 12962 C 1231.87 -5.31872 -2.47647 0
M  V30 12963 C 1234.22 -5.86112 -2.38025 0
M  V30 12964 C 1232.89 -6.25934 -2.31867 0
M  V30 12965 H 1232.16 -0.460171 -0.580796 0
M  V30 12966 H 1234.81 -1.6554 -0.96274 0
M  V30 12967 H 1233.11 -1.6156 -3.56939 0
M  V30 12968 H 1234.81 -1.99609 -3.47789 0
M  V30 12969 H 1231.4 -3.2538 -2.78973 0
M  V30 12970 H 1235.58 -4.21868 -2.61421 0
M  V30 12971 H 1230.84 -5.61756 -2.41331 0
M  V30 12972 H 1235.01 -6.59103 -2.24847 0
M  V30 12973 H 1232.64 -7.29372 -2.14291 0
M  V30 12974 N 1234.21 1.05064 -1.1747 0
M  V30 12975 C 1235.44 1.81761 -0.988464 0
M  V30 12976 C 1235.86 1.83028 0.463272 0
M  V30 12977 O 1235.21 1.25846 1.32171 0
M  V30 12978 C 1235.26 3.2782 -1.5237 0
M  V30 12979 O 1234.99 3.26726 -2.91859 0
M  V30 12980 C 1236.49 4.212 -1.38223 0
M  V30 12981 H 1233.71 0.572712 -0.349631 0
M  V30 12982 H 1236.25 1.32477 -1.55789 0
M  V30 12983 H 1234.41 3.7437 -0.996272 0
M  V30 12984 H 1234.82 4.18151 -3.16623 0
M  V30 12985 H 1236.29 5.2166 -1.80485 0
M  V30 12986 H 1236.77 4.37962 -0.329491 0
M  V30 12987 H 1237.38 3.80506 -1.89988 0
M  V30 12988 N 1235.69 0.975146 1.23809 0
M  V30 12989 C 1236.92 0.658605 1.96665 0
M  V30 12990 C 1237.34 -0.766744 1.71763 0
M  V30 12991 O 1236.7 -1.52151 0.985887 0
M  V30 12992 C 1236.75 0.948438 3.47904 0
M  V30 12993 O 1235.85 0.0377241 4.12383 0
M  V30 12994 H 1235.19 0.248231 0.615855 0
M  V30 12995 H 1237.72 1.30732 1.57386 0
M  V30 12996 H 1237.73 0.883 3.9833 0
M  V30 12997 H 1236.41 1.98717 3.65355 0
M  V30 12998 H 1234.98 0.157122 3.72569 0
M  V30 12999 N 1237.17 -1.38817 0.746158 0
M  V30 13000 C 1238.42 -1.99519 0.295839 0
M  V30 13001 C 1238.73 -1.59897 -1.12661 0
M  V30 13002 O 1239.94 -2.13514 -1.67702 0
M  V30 13003 C 1238.39 -3.56712 0.477984 0
M  V30 13004 C 1238 -4.0529 1.90904 0
M  V30 13005 C 1239.75 -4.24405 0.0900039 0
M  V30 13006 C 1237.65 -5.55097 2.04014 0
M  V30 13007 H 1236.58 -0.746389 0.106861 0
M  V30 13008 H 1239.23 -1.58676 0.921637 0
M  V30 13009 H 1237.62 -3.95406 -0.216884 0
M  V30 13010 H 1238.79 -3.77904 2.63677 0
M  V30 13011 H 1237.1 -3.50297 2.25125 0
M  V30 13012 H 1239.7 -5.3444 0.16682 0
M  V30 13013 H 1240.04 -4.05166 -0.956349 0
M  V30 13014 H 1240.58 -3.90924 0.736446 0
M  V30 13015 H 1237.32 -5.7923 3.06877 0
M  V30 13016 H 1236.84 -5.8425 1.35692 0
M  V30 13017 H 1238.52 -6.20682 1.82656 0
M  V30 13018 N 1238.65 -0.49465 -1.49636 0
M  V30 13019 C 1239.89 0.0521945 -2.02733 0
M  V30 13020 C 1240.23 1.3723 -1.37411 0
M  V30 13021 O 1239.5 1.87758 -0.507642 0
M  V30 13022 C 1239.78 0.2114 -3.59479 0
M  V30 13023 C 1239.64 -1.13138 -4.35339 0
M  V30 13024 C 1240.96 0.955015 -4.29613 0
M  V30 13025 H 1238.08 0.0174946 -0.736792 0
M  V30 13026 H 1240.72 -0.644827 -1.78723 0
M  V30 13027 H 1238.87 0.805078 -3.80067 0
M  V30 13028 H 1240.54 -1.76345 -4.26263 0
M  V30 13029 H 1238.78 -1.72224 -3.98147 0
M  V30 13030 H 1239.45 -0.97336 -5.4335 0
M  V30 13031 H 1241.93 0.451575 -4.13642 0
M  V30 13032 H 1240.81 1.03524 -5.39049 0
M  V30 13033 H 1241.07 1.99724 -3.94414 0
M  V30 13034 N 1240.13 1.55939 -0.228214 0
M  V30 13035 C 1241.07 2.20581 0.679157 0
M  V30 13036 C 1242.04 1.16355 1.18536 0
M  V30 13037 O 1243.23 1.44735 1.24324 0
M  V30 13038 C 1240.37 2.89477 1.87875 0
M  V30 13039 C 1239.48 4.08313 1.41083 0
M  V30 13040 C 1238.62 4.64974 2.56851 0
M  V30 13041 C 1237.65 5.76098 2.06828 0
M  V30 13042 N 1236.79 6.27021 3.15894 0
M  V30 13043 H 1241.63 2.97753 0.121203 0
M  V30 13044 H 1239.17 1.47021 0.0480688 0
M  V30 13045 H 1241.13 3.2761 2.58317 0
M  V30 13046 H 1239.76 2.14811 2.40948 0
M  V30 13047 H 1238.81 3.75621 0.601102 0
M  V30 13048 H 1240.12 4.8859 1.00408 0
M  V30 13049 H 1239.27 5.05584 3.35365 0
M  V30 13050 H 1238.01 3.83875 3.00818 0
M  V30 13051 H 1237.02 5.34984 1.26778 0
M  V30 13052 H 1238.24 6.59037 1.63852 0
M  V30 13053 H 1236.19 5.48833 3.5933 0
M  V30 13054 H 1236.11 7.02439 2.79491 0
M  V30 13055 H 1237.37 6.72289 3.94523 0
M  V30 13056 N 1241.6 -0.0451101 1.57535 0
M  V30 13057 C 1242.57 -1.03521 2.0449 0
M  V30 13058 C 1243.57 -1.30009 0.946265 0
M  V30 13059 O 1244.76 -1.25282 1.21038 0
M  V30 13060 C 1241.89 -2.37221 2.44824 0
M  V30 13061 H 1243.08 -0.629943 2.93209 0
M  V30 13062 H 1240.64 -0.291544 1.53557 0
M  V30 13063 H 1241.37 -2.82528 1.59212 0
M  V30 13064 H 1241.16 -2.19329 3.25018 0
M  V30 13065 H 1242.65 -3.08337 2.81635 0
M  V30 13066 N 1243.08 -1.54377 -0.317073 0
M  V30 13067 C 1244.33 -1.73149 -1.05581 0
M  V30 13068 C 1244.66 -0.507176 -1.8746 0
M  V30 13069 O 1243.94 0.495837 -1.88074 0
M  V30 13070 C 1244.22 -3.01098 -1.97515 0
M  V30 13071 C 1244.07 -4.33794 -1.18922 0
M  V30 13072 C 1245.39 -3.24831 -2.9694 0
M  V30 13073 H 1242.51 -0.630011 -0.382434 0
M  V30 13074 H 1245.15 -1.87079 -0.331873 0
M  V30 13075 H 1243.3 -2.89352 -2.59244 0
M  V30 13076 H 1244.97 -4.57433 -0.596039 0
M  V30 13077 H 1243.22 -4.31005 -0.491612 0
M  V30 13078 H 1243.89 -5.19554 -1.86462 0
M  V30 13079 H 1246.36 -3.3608 -2.45335 0
M  V30 13080 H 1245.24 -4.15702 -3.58445 0
M  V30 13081 H 1245.5 -2.42365 -3.69745 0
M  V30 13082 N 1244.56 0.579466 -1.4656 0
M  V30 13083 C 1245.49 1.7031 -1.51887 0
M  V30 13084 C 1246.47 1.58271 -0.372721 0
M  V30 13085 O 1247.66 1.79441 -0.577336 0
M  V30 13086 C 1244.78 3.0839 -1.40048 0
M  V30 13087 C 1243.83 3.3894 -2.58886 0
M  V30 13088 S 1244.66 3.30652 -4.21224 0
M  V30 13089 C 1245.82 4.71264 -4.119 0
M  V30 13090 H 1246.05 1.65533 -2.46954 0
M  V30 13091 H 1243.58 0.758477 -1.34486 0
M  V30 13092 H 1245.54 3.88046 -1.33905 0
M  V30 13093 H 1244.2 3.10653 -0.464048 0
M  V30 13094 H 1243.4 4.39547 -2.46605 0
M  V30 13095 H 1243 2.66858 -2.62036 0
M  V30 13096 H 1245.29 5.61722 -3.7878 0
M  V30 13097 H 1246.23 4.88602 -5.12517 0
M  V30 13098 H 1246.64 4.48266 -3.43101 0
M  V30 13099 N 1246.04 1.3432 0.824371 0
M  V30 13100 C 1247.28 1.27792 1.58243 0
M  V30 13101 C 1247.64 -0.151189 1.91805 0
M  V30 13102 O 1246.93 -1.09708 1.57082 0
M  V30 13103 C 1247.13 2.1008 2.89139 0
M  V30 13104 C 1246.96 3.60848 2.68363 0
M  V30 13105 C 1245.73 4.3013 2.65172 0
M  V30 13106 C 1247.92 4.54878 2.39979 0
M  V30 13107 N 1245.91 5.66756 2.35927 0
M  V30 13108 C 1247.28 5.79497 2.20415 0
M  V30 13109 C 1249.33 4.43809 2.25695 0
M  V30 13110 C 1248.03 6.94293 1.88015 0
M  V30 13111 C 1250.06 5.58435 1.9469 0
M  V30 13112 C 1249.42 6.82071 1.75948 0
M  V30 13113 H 1245.52 0.522853 0.581505 0
M  V30 13114 H 1248.11 1.69017 0.96651 0
M  V30 13115 H 1246.28 1.71154 3.48656 0
M  V30 13116 H 1248.01 1.95208 3.54508 0
M  V30 13117 H 1244.76 3.82554 2.79194 0
M  V30 13118 H 1245.19 6.38817 2.24148 0
M  V30 13119 H 1249.83 3.48842 2.38891 0
M  V30 13120 H 1247.55 7.89242 1.73557 0
M  V30 13121 H 1251.13 5.51814 1.84372 0
M  V30 13122 H 1250.01 7.69268 1.52304 0
M  V30 13123 N 1247.52 -1.0444 1.18026 0
M  V30 13124 C 1248.76 -1.77224 0.971391 0
M  V30 13125 C 1249.09 -1.88466 -0.500564 0
M  V30 13126 O 1248.36 -1.40692 -1.36317 0
M  V30 13127 H 1246.94 -0.656485 0.356422 0
M  V30 13128 H 1249.6 -1.26064 1.4864 0
M  V30 13129 H 1248.69 -2.78626 1.4062 0
M  V30 13130 N 1248.99 -0.981699 -1.2329 0
M  V30 13131 C 1250.41 -0.690539 -1.43888 0
M  V30 13132 C 1250.61 0.742816 -1.87309 0
M  V30 13133 O 1249.67 1.5151 -2.01993 0
M  V30 13134 C 1250.98 -1.68657 -2.48948 0
M  V30 13135 C 1252.53 -1.70076 -2.62761 0
M  V30 13136 C 1253 -2.68513 -3.71032 0
M  V30 13137 N 1254.49 -2.67039 -3.78476 0
M  V30 13138 C 1255.23 -3.39874 -4.61815 0
M  V30 13139 N 1254.72 -4.22273 -5.49233 0
M  V30 13140 N 1256.52 -3.28633 -4.56023 0
M  V30 13141 H 1248.67 -1.90758 -0.934077 0
M  V30 13142 H 1250.93 -0.822058 -0.472149 0
M  V30 13143 H 1250.64 -2.7117 -2.23964 0
M  V30 13144 H 1250.51 -1.47045 -3.47358 0
M  V30 13145 H 1252.9 -0.682673 -2.87095 0
M  V30 13146 H 1252.98 -1.95754 -1.64663 0
M  V30 13147 H 1252.62 -3.70464 -3.47446 0
M  V30 13148 H 1252.55 -2.40109 -4.68674 0
M  V30 13149 H 1255.04 -2.07241 -3.16006 0
M  V30 13150 H 1255.36 -4.74702 -6.09818 0
M  V30 13151 H 1253.7 -4.26364 -5.48852 0
M  V30 13152 H 1256.89 -2.6371 -3.86749 0
M  V30 13153 H 1257.07 -3.85656 -5.20743 0
M  V30 13154 N 1250.47 1.3842 -0.753509 0
M  V30 13155 C 1251.42 2.32315 -0.115107 0
M  V30 13156 C 1252.41 1.54015 0.705398 0
M  V30 13157 O 1253.62 1.69546 0.604505 0
M  V30 13158 H 1250 0.751774 -0.0184276 0
M  V30 13159 H 1251.97 2.83763 -0.923094 0
M  V30 13160 C 1250.72 3.39206 0.763849 0
M  V30 13161 H 1250.04 3.99548 0.14187 0
M  V30 13162 H 1251.48 4.07312 1.17783 0
M  V30 13163 C 1249.94 2.77771 1.90643 0
M  V30 13164 O 1250.47 2.67073 3.00058 0
M  V30 13165 N 1248.67 2.35582 1.70145 0
M  V30 13166 H 1248.22 2.44483 0.811528 0
M  V30 13167 H 1248.18 1.9482 2.46764 0
M  V30 13168 N 1251.95 0.502579 1.49372 0
M  V30 13169 C 1253.2 -0.0414423 2.02758 0
M  V30 13170 C 1253.53 -1.36499 1.38136 0
M  V30 13171 O 1252.8 -1.87487 0.517593 0
M  V30 13172 C 1253.09 -0.192333 3.59586 0
M  V30 13173 C 1252.94 1.15445 4.34733 0
M  V30 13174 C 1254.26 -0.932218 4.30114 0
M  V30 13175 H 1251.38 -0.0135869 0.736875 0
M  V30 13176 H 1254.02 0.654296 1.78379 0
M  V30 13177 H 1252.17 -0.78491 3.80488 0
M  V30 13178 H 1253.84 1.78603 4.25322 0
M  V30 13179 H 1252.09 1.74333 3.97228 0
M  V30 13180 H 1252.76 1.00216 5.42827 0
M  V30 13181 H 1255.23 -0.429632 4.13876 0
M  V30 13182 H 1254.11 -1.00664 5.39591 0
M  V30 13183 H 1254.37 -1.9763 3.95468 0
M  V30 13184 N 1253.43 -1.55816 0.23648 0
M  V30 13185 C 1254.66 -2.02789 -0.39501 0
M  V30 13186 C 1255.07 -1.1153 -1.52832 0
M  V30 13187 O 1254.41 -0.120084 -1.83307 0
M  V30 13188 C 1254.47 -3.46052 -0.974066 0
M  V30 13189 C 1254.14 -4.56993 0.0256825 0
M  V30 13190 C 1255.13 -5.13208 0.831477 0
M  V30 13191 C 1252.82 -5.0208 0.148759 0
M  V30 13192 C 1254.81 -6.12994 1.74691 0
M  V30 13193 C 1252.5 -6.017 1.0677 0
M  V30 13194 C 1253.5 -6.57035 1.86531 0
M  V30 13195 O 1253.18 -7.54714 2.76878 0
M  V30 13196 H 1252.92 -0.668672 -0.0992687 0
M  V30 13197 H 1255.47 -2.02312 0.354826 0
M  V30 13198 H 1253.7 -3.43645 -1.77327 0
M  V30 13199 H 1255.39 -3.76586 -1.51453 0
M  V30 13200 H 1256.16 -4.79214 0.746922 0
M  V30 13201 H 1252.03 -4.58679 -0.461976 0
M  V30 13202 H 1255.58 -6.56111 2.36989 0
M  V30 13203 H 1251.48 -6.35115 1.15322 0
M  V30 13204 H 1252.24 -7.72292 2.71122 0
M  V30 13205 N 1254.91 0.036755 -1.57557 0
M  V30 13206 C 1256.18 0.764087 -1.80059 0
M  V30 13207 C 1256.56 1.93983 -0.83269 0
M  V30 13208 O 1255.91 2.28148 0.126815 0
M  V30 13209 C 1256.12 1.20433 -3.27562 0
M  V30 13210 C 1257.47 1.6234 -3.9234 0
M  V30 13211 O 1258.49 1.29911 -3.31665 0
M  V30 13212 O 1257.35 2.22504 -4.99154 0
M  V30 13213 H 1254.45 0.368866 -0.74018 0
M  V30 13214 H 1256.99 0.0141254 -1.69694 0
M  V30 13215 H 1255.76 0.364646 -3.89597 0
M  V30 13216 H 1255.39 2.01454 -3.42786 0
M  V30 13217 N 1256.39 1.54543 0.308881 0
M  V30 13218 C 1257.61 1.77753 1.06857 0
M  V30 13219 C 1258.04 0.531616 1.80431 0
M  V30 13220 O 1257.39 -0.517513 1.73757 0
M  V30 13221 C 1257.44 2.97968 2.03094 0
M  V30 13222 O 1256.55 2.70541 3.11257 0
M  V30 13223 H 1255.89 0.588576 0.307368 0
M  V30 13224 H 1258.42 2.01607 0.348703 0
M  V30 13225 H 1258.43 3.25722 2.45702 0
M  V30 13226 H 1257.1 3.88314 1.48948 0
M  V30 13227 H 1255.68 2.53781 2.7322 0
M  V30 13228 N 1257.86 -0.571685 1.46866 0
M  V30 13229 C 1259.11 -1.32574 1.5201 0
M  V30 13230 C 1259.43 -1.94762 0.180838 0
M  V30 13231 O 1260.63 -2.71276 0.110158 0
M  V30 13232 C 1259.09 -2.40331 2.67897 0
M  V30 13233 C 1258.7 -1.84398 4.08291 0
M  V30 13234 C 1260.44 -3.17009 2.82321 0
M  V30 13235 C 1258.35 -2.89849 5.15501 0
M  V30 13236 H 1257.28 -0.498428 0.565761 0
M  V30 13237 H 1259.93 -0.608853 1.73105 0
M  V30 13238 H 1258.31 -3.14869 2.40153 0
M  V30 13239 H 1259.48 -1.16329 4.45875 0
M  V30 13240 H 1257.8 -1.20351 3.98628 0
M  V30 13241 H 1260.4 -3.95729 3.59587 0
M  V30 13242 H 1260.74 -3.70292 1.90236 0
M  V30 13243 H 1261.27 -2.4958 3.09765 0
M  V30 13244 H 1258.01 -2.4144 6.09415 0
M  V30 13245 H 1257.53 -3.56372 4.82451 0
M  V30 13246 H 1259.21 -3.53603 5.41825 0
M  V30 13247 N 1259.34 -1.34755 -0.817236 0
M  V30 13248 C 1260.57 -1.30676 -1.61054 0
M  V30 13249 C 1260.99 0.115343 -1.87746 0
M  V30 13250 O 1260.35 1.07887 -1.45705 0
M  V30 13251 C 1260.4 -2.10881 -2.92509 0
M  V30 13252 O 1259.5 -1.48223 -3.84842 0
M  V30 13253 H 1258.84 -0.448531 -0.489608 0
M  V30 13254 H 1261.37 -1.77642 -1.01512 0
M  V30 13255 H 1261.38 -2.22446 -3.42026 0
M  V30 13256 H 1260.06 -3.14274 -2.72406 0
M  V30 13257 H 1258.63 -1.45434 -3.4337 0
M  V30 13258 N 1260.82 1.03812 -1.18578 0
M  V30 13259 C 1261.77 2.11883 -0.915115 0
M  V30 13260 C 1262.74 1.65453 0.146479 0
M  V30 13261 O 1263.92 1.90799 0.00630058 0
M  V30 13262 C 1261.06 3.42157 -0.449755 0
M  V30 13263 C 1260.17 4.02185 -1.57706 0
M  V30 13264 C 1259.31 5.20431 -1.06417 0
M  V30 13265 C 1258.35 5.72496 -2.16599 0
M  V30 13266 N 1257.49 6.82027 -1.66685 0
M  V30 13267 H 1262.33 2.34373 -1.84047 0
M  V30 13268 H 1259.86 1.14962 -0.917728 0
M  V30 13269 H 1261.82 4.16888 -0.161407 0
M  V30 13270 H 1260.45 3.19806 0.438622 0
M  V30 13271 H 1259.5 3.24757 -1.98083 0
M  V30 13272 H 1260.81 4.36851 -2.40754 0
M  V30 13273 H 1259.97 6.02286 -0.730497 0
M  V30 13274 H 1258.71 4.87276 -0.203301 0
M  V30 13275 H 1257.71 4.8926 -2.50808 0
M  V30 13276 H 1258.94 6.07694 -3.03126 0
M  V30 13277 H 1256.88 6.50742 -0.828916 0
M  V30 13278 H 1256.8 7.1577 -2.43329 0
M  V30 13279 H 1258.07 7.67499 -1.36253 0
M  V30 13280 N 1262.3 0.988223 1.22768 0
M  V30 13281 C 1263.54 0.661461 1.91392 0
M  V30 13282 C 1263.87 -0.805942 1.77016 0
M  V30 13283 O 1263.13 -1.5978 1.12999 0
M  V30 13284 C 1263.43 1.00744 3.42907 0
M  V30 13285 C 1263.09 2.46634 3.77469 0
M  V30 13286 C 1261.75 2.86503 3.86613 0
M  V30 13287 C 1264.11 3.41217 3.9398 0
M  V30 13288 C 1261.43 4.19954 4.09702 0
M  V30 13289 C 1263.79 4.74321 4.18572 0
M  V30 13290 C 1262.45 5.13938 4.25939 0
M  V30 13291 H 1261.72 0.242046 0.700353 0
M  V30 13292 H 1264.37 1.24354 1.45631 0
M  V30 13293 H 1262.67 0.34338 3.90292 0
M  V30 13294 H 1264.37 0.732714 3.94249 0
M  V30 13295 H 1260.96 2.14729 3.70931 0
M  V30 13296 H 1265.14 3.11589 3.86298 0
M  V30 13297 H 1260.4 4.50243 4.13631 0
M  V30 13298 H 1264.57 5.47561 4.30291 0
M  V30 13299 H 1262.2 6.17364 4.43583 0
M  V30 13300 N 1263.78 -1.38018 0.760839 0
M  V30 13301 C 1264.71 -2.32995 0.153557 0
M  V30 13302 C 1265.69 -1.55234 -0.695448 0
M  V30 13303 O 1266.87 -1.8352 -0.635148 0
M  V30 13304 C 1264 -3.39437 -0.734811 0
M  V30 13305 C 1262.96 -4.27998 0.0120287 0
M  V30 13306 C 1262.28 -5.25359 -0.995067 0
M  V30 13307 C 1263.58 -5.08687 1.18468 0
M  V30 13308 H 1265.28 -2.8403 0.946956 0
M  V30 13309 H 1262.82 -1.36562 0.456816 0
M  V30 13310 H 1264.77 -4.0485 -1.16938 0
M  V30 13311 H 1263.5 -2.86901 -1.56061 0
M  V30 13312 H 1262.16 -3.64102 0.427254 0
M  V30 13313 H 1261.81 -4.69108 -1.81512 0
M  V30 13314 H 1261.51 -5.85469 -0.499969 0
M  V30 13315 H 1263.03 -5.93648 -1.4288 0
M  V30 13316 H 1264.44 -5.67299 0.8273 0
M  V30 13317 H 1262.84 -5.78068 1.61112 0
M  V30 13318 H 1263.91 -4.42 1.99409 0
M  V30 13319 N 1265.25 -0.510493 -1.49103 0
M  V30 13320 C 1266.19 0.299697 -2.27232 0
M  V30 13321 C 1267.2 0.922102 -1.34168 0
M  V30 13322 O 1268.39 0.803836 -1.59376 0
M  V30 13323 C 1265.49 1.43778 -3.06889 0
M  V30 13324 C 1264.66 0.920927 -4.27595 0
M  V30 13325 C 1263.72 1.93777 -4.89221 0
M  V30 13326 O 1262.75 1.5025 -5.49011 0
M  V30 13327 N 1263.95 3.2688 -4.79718 0
M  V30 13328 H 1266.71 -0.37028 -2.97404 0
M  V30 13329 H 1264.27 -0.343617 -1.58212 0
M  V30 13330 H 1266.27 2.11577 -3.44988 0
M  V30 13331 H 1264.84 2.01175 -2.39264 0
M  V30 13332 H 1264.06 0.0675358 -3.94142 0
M  V30 13333 H 1265.34 0.554168 -5.05773 0
M  V30 13334 H 1264.74 3.64924 -4.32258 0
M  V30 13335 H 1263.3 3.90366 -5.21974 0
M  V30 13336 N 1266.73 1.55688 -0.24474 0
M  V30 13337 C 1267.98 1.98891 0.380603 0
M  V30 13338 C 1268.31 1.13283 1.58105 0
M  V30 13339 O 1267.56 0.183141 1.94841 0
M  V30 13340 C 1267.86 3.47487 0.835923 0
M  V30 13341 C 1267.53 4.5017 -0.256528 0
M  V30 13342 C 1266.19 4.7797 -0.556573 0
M  V30 13343 C 1268.54 5.1163 -0.994174 0
M  V30 13344 C 1265.87 5.64508 -1.59838 0
M  V30 13345 C 1268.22 5.99297 -2.02548 0
M  V30 13346 C 1266.88 6.25432 -2.3322 0
M  V30 13347 H 1266.15 0.727794 0.139273 0
M  V30 13348 H 1268.8 1.88235 -0.352113 0
M  V30 13349 H 1267.11 3.55464 1.64781 0
M  V30 13350 H 1268.8 3.78301 1.33001 0
M  V30 13351 H 1265.39 4.28598 -0.0125284 0
M  V30 13352 H 1269.58 4.90202 -0.775617 0
M  V30 13353 H 1264.83 5.83012 -1.84138 0
M  V30 13354 H 1269.01 6.45964 -2.60198 0
M  V30 13355 H 1266.63 6.92282 -3.14085 0
M  V30 13356 N 1268.21 -0.0283989 1.57574 0
M  V30 13357 C 1269.14 -1.05641 2.03403 0
M  V30 13358 C 1270.15 -1.32426 0.946953 0
M  V30 13359 O 1271.34 -1.29902 1.22425 0
M  V30 13360 C 1268.44 -2.39788 2.39489 0
M  V30 13361 C 1267.62 -2.32348 3.70585 0
M  V30 13362 C 1266.68 -3.4895 3.93853 0
M  V30 13363 O 1265.7 -3.28414 4.64901 0
M  V30 13364 N 1266.9 -4.7084 3.39543 0
M  V30 13365 H 1269.67 -0.665788 2.92211 0
M  V30 13366 H 1267.23 -0.21633 1.60448 0
M  V30 13367 H 1269.22 -3.16514 2.52193 0
M  V30 13368 H 1267.79 -2.70692 1.56348 0
M  V30 13369 H 1267.01 -1.40717 3.68229 0
M  V30 13370 H 1268.3 -2.24521 4.56582 0
M  V30 13371 H 1267.7 -4.90425 2.81956 0
M  V30 13372 H 1266.25 -5.44929 3.57625 0
M  V30 13373 N 1269.69 -1.54705 -0.300681 0
M  V30 13374 C 1270.62 -1.88679 -1.37559 0
M  V30 13375 C 1271.6 -0.74574 -1.52881 0
M  V30 13376 O 1272.78 -1.0015 -1.66384 0
M  V30 13377 C 1269.91 -2.13438 -2.73974 0
M  V30 13378 C 1268.87 -3.29284 -2.73415 0
M  V30 13379 C 1268.19 -3.39462 -4.13122 0
M  V30 13380 C 1269.49 -4.66382 -2.35128 0
M  V30 13381 H 1271.19 -2.78707 -1.09373 0
M  V30 13382 H 1268.73 -1.341 -0.524704 0
M  V30 13383 H 1270.69 -2.35791 -3.49257 0
M  V30 13384 H 1269.41 -1.20181 -3.03684 0
M  V30 13385 H 1268.07 -3.06855 -2.00588 0
M  V30 13386 H 1267.72 -2.43721 -4.4001 0
M  V30 13387 H 1267.42 -4.17334 -4.1365 0
M  V30 13388 H 1268.94 -3.64075 -4.90185 0
M  V30 13389 H 1270.36 -4.88463 -3.00128 0
M  V30 13390 H 1268.75 -5.4697 -2.46867 0
M  V30 13391 H 1269.82 -4.67078 -1.30256 0
M  V30 13392 N 1271.17 0.563888 -1.47167 0
M  V30 13393 C 1272.39 1.34693 -1.57052 0
M  V30 13394 C 1272.81 1.87534 -0.218308 0
M  V30 13395 O 1272.17 1.64639 0.787416 0
M  V30 13396 C 1272.22 2.52148 -2.59044 0
M  V30 13397 O 1271.94 2.01492 -3.89015 0
M  V30 13398 C 1273.44 3.4445 -2.7905 0
M  V30 13399 H 1270.66 0.410822 -0.530534 0
M  V30 13400 H 1273.2 0.683731 -1.92731 0
M  V30 13401 H 1271.36 3.14419 -2.26317 0
M  V30 13402 H 1271.77 2.78122 -4.44689 0
M  V30 13403 H 1273.25 4.23297 -3.54293 0
M  V30 13404 H 1273.72 3.97575 -1.86631 0
M  V30 13405 H 1274.33 2.88 -3.12948 0
M  V30 13406 N 1272.64 1.35187 0.810078 0
M  V30 13407 C 1273.89 1.28454 1.56931 0
M  V30 13408 C 1274.22 -0.141747 1.93682 0
M  V30 13409 O 1273.5 -1.09028 1.61069 0
M  V30 13410 C 1273.78 2.18771 2.86027 0
M  V30 13411 C 1273.63 3.69999 2.55774 0
M  V30 13412 C 1274.95 2.08265 3.87703 0
M  V30 13413 H 1272.07 0.467959 0.569371 0
M  V30 13414 H 1274.71 1.65556 0.932262 0
M  V30 13415 H 1272.86 1.8726 3.40391 0
M  V30 13416 H 1274.54 4.11936 2.07621 0
M  V30 13417 H 1272.78 3.90453 1.89021 0
M  V30 13418 H 1273.45 4.28577 3.47888 0
M  V30 13419 H 1275.93 2.35958 3.42729 0
M  V30 13420 H 1274.8 2.73663 4.75815 0
M  V30 13421 H 1275.06 1.06352 4.29117 0
M  V30 13422 N 1274.12 -1.03182 1.19127 0
M  V30 13423 C 1275.07 -2.13507 0.922899 0
M  V30 13424 C 1276.06 -1.68973 -0.120171 0
M  V30 13425 O 1277.27 -1.79977 0.0288007 0
M  V30 13426 H 1273.65 -0.697516 0.281027 0
M  V30 13427 H 1275.62 -2.33335 1.86003 0
M  V30 13428 C 1274.37 -3.44442 0.474864 0
M  V30 13429 H 1273.69 -3.79125 1.26902 0
M  V30 13430 H 1275.13 -4.22744 0.326162 0
M  V30 13431 C 1273.59 -3.27002 -0.81063 0
M  V30 13432 O 1274.12 -3.55374 -1.87276 0
M  V30 13433 N 1272.32 -2.80303 -0.766713 0
M  V30 13434 H 1271.87 -2.57414 0.0978672 0
M  V30 13435 H 1271.83 -2.69015 -1.62721 0
M  V30 13436 N 1275.6 -0.99472 -1.22242 0
M  V30 13437 C 1276.85 -0.672596 -1.91322 0
M  V30 13438 C 1277.18 0.793542 -1.77247 0
M  V30 13439 O 1276.45 1.57407 -1.14251 0
M  V30 13440 C 1276.74 -1.08155 -3.43474 0
M  V30 13441 C 1276.59 -2.60638 -3.6659 0
M  V30 13442 C 1277.91 -0.636161 -4.35478 0
M  V30 13443 H 1275.03 -0.24582 -0.694796 0
M  V30 13444 H 1277.67 -1.23857 -1.44082 0
M  V30 13445 H 1275.82 -0.599987 -3.83839 0
M  V30 13446 H 1277.49 -3.16479 -3.35617 0
M  V30 13447 H 1275.74 -3.02624 -3.10808 0
M  V30 13448 H 1276.41 -2.84304 -4.73155 0
M  V30 13449 H 1278.88 -1.04982 -4.02639 0
M  V30 13450 H 1277.76 -0.950584 -5.40606 0
M  V30 13451 H 1278.02 0.4631 -4.39668 0
M  V30 13452 N 1277.08 1.37613 -0.768148 0
M  V30 13453 C 1278.32 2.00075 -0.331331 0
M  V30 13454 C 1278.66 1.60839 1.08833 0
M  V30 13455 O 1277.93 0.852849 1.74805 0
M  V30 13456 C 1278.22 3.57009 -0.470789 0
M  V30 13457 C 1278.07 4.06166 -1.9326 0
M  V30 13458 C 1279.39 4.39916 0.127111 0
M  V30 13459 H 1276.51 0.726855 -0.121864 0
M  V30 13460 H 1279.15 1.63343 -0.970518 0
M  V30 13461 H 1277.3 3.88431 0.0733688 0
M  V30 13462 H 1278.97 3.85325 -2.53618 0
M  V30 13463 H 1277.21 3.58492 -2.44266 0
M  V30 13464 H 1277.88 5.15219 -1.98125 0
M  V30 13465 H 1280.36 4.14732 -0.337144 0
M  V30 13466 H 1279.24 5.489 -0.000624226 0
M  V30 13467 H 1279.5 4.25018 1.21704 0
M  V30 13468 N 1278.56 0.518393 1.4883 0
M  V30 13469 C 1279.52 -0.23983 2.27942 0
M  V30 13470 C 1280.52 -0.878302 1.34694 0
M  V30 13471 O 1281.71 -0.740142 1.57694 0
M  V30 13472 C 1278.84 -1.34581 3.1321 0
M  V30 13473 H 1280.03 0.454599 2.96434 0
M  V30 13474 H 1277.59 0.273932 1.53881 0
M  V30 13475 H 1278.32 -2.07385 2.49323 0
M  V30 13476 H 1278.11 -0.893251 3.8179 0
M  V30 13477 H 1279.6 -1.87944 3.72917 0
M  V30 13478 N 1280.03 -1.55556 0.252993 0
M  V30 13479 C 1281.28 -1.99385 -0.370599 0
M  V30 13480 C 1281.61 -1.14101 -1.57145 0
M  V30 13481 O 1280.89 -0.205828 -1.93408 0
M  V30 13482 C 1281.17 -3.51672 -0.774503 0
M  V30 13483 C 1281.02 -4.47719 0.432159 0
M  V30 13484 C 1282.34 -4.0923 -1.61923 0
M  V30 13485 H 1279.46 -0.724858 -0.133231 0
M  V30 13486 H 1282.1 -1.86644 0.355522 0
M  V30 13487 H 1280.25 -3.62661 -1.39318 0
M  V30 13488 H 1281.93 -4.48704 1.07063 0
M  V30 13489 H 1280.17 -4.2029 1.07419 0
M  V30 13490 H 1280.84 -5.51898 0.106123 0
M  V30 13491 H 1283.32 -4.01381 -1.09693 0
M  V30 13492 H 1282.19 -5.16039 -1.87068 0
M  V30 13493 H 1282.45 -3.58067 -2.59307 0
M  V30 13494 N 1281.51 0.0200419 -1.57587 0
M  V30 13495 C 1282.76 0.708115 -1.88861 0
M  V30 13496 C 1283.07 1.76036 -0.852693 0
M  V30 13497 O 1284.28 2.50165 -1.05497 0
M  V30 13498 C 1282.74 1.31057 -3.3519 0
M  V30 13499 C 1282.34 0.294202 -4.47033 0
M  V30 13500 C 1284.09 1.97799 -3.756 0
M  V30 13501 C 1282 0.905508 -5.84427 0
M  V30 13502 H 1280.93 0.268236 -0.704674 0
M  V30 13503 H 1283.58 -0.0372162 -1.83462 0
M  V30 13504 H 1281.96 2.1059 -3.35362 0
M  V30 13505 H 1283.13 -0.475081 -4.58344 0
M  V30 13506 H 1281.45 -0.271644 -4.15513 0
M  V30 13507 H 1284.04 2.44404 -4.75574 0
M  V30 13508 H 1284.39 2.80004 -3.08064 0
M  V30 13509 H 1284.92 1.25028 -3.77641 0
M  V30 13510 H 1281.66 0.122685 -6.55385 0
M  V30 13511 H 1281.18 1.64442 -5.76818 0
M  V30 13512 H 1282.86 1.41016 -6.31446 0
M  V30 13513 N 1282.99 1.54862 0.292472 0
M  V30 13514 C 1284.24 1.74807 1.02813 0
M  V30 13515 C 1284.57 0.536935 1.8663 0
M  V30 13516 O 1283.84 -0.465854 1.88839 0
M  V30 13517 C 1284.13 3.04202 1.927 0
M  V30 13518 C 1283.98 4.35631 1.12006 0
M  V30 13519 C 1285.3 3.29514 2.91734 0
M  V30 13520 H 1282.42 0.636015 0.372362 0
M  V30 13521 H 1285.06 1.87583 0.302069 0
M  V30 13522 H 1283.21 2.9344 2.54608 0
M  V30 13523 H 1284.88 4.58323 0.52319 0
M  V30 13524 H 1283.13 4.31733 0.42298 0
M  V30 13525 H 1283.8 5.22454 1.78172 0
M  V30 13526 H 1286.27 3.39941 2.39957 0
M  V30 13527 H 1285.15 4.21352 3.51786 0
M  V30 13528 H 1285.41 2.48216 3.65843 0
M  V30 13529 N 1284.47 -0.556076 1.47464 0
M  V30 13530 C 1285.43 -1.64515 1.59586 0
M  V30 13531 C 1286.43 -1.53751 0.470881 0
M  V30 13532 O 1287.62 -1.57889 0.735979 0
M  V30 13533 C 1284.75 -3.0406 1.54143 0
M  V30 13534 H 1285.95 -1.55116 2.56669 0
M  V30 13535 H 1283.5 -0.776087 1.35671 0
M  V30 13536 H 1284.23 -3.18991 0.584395 0
M  V30 13537 H 1284.02 -3.13282 2.3579 0
M  V30 13538 H 1285.51 -3.8329 1.65766 0
M  V30 13539 N 1285.95 -1.35615 -0.802897 0
M  V30 13540 C 1287.19 -1.29094 -1.56016 0
M  V30 13541 C 1287.52 0.133617 -1.9404 0
M  V30 13542 O 1286.78 1.09975 -1.61876 0
M  V30 13543 C 1287.08 -2.14653 -2.8576 0
M  V30 13544 C 1286.74 -3.63395 -2.66936 0
M  V30 13545 C 1285.4 -4.03937 -2.61511 0
M  V30 13546 C 1287.76 -4.57758 -2.49212 0
M  V30 13547 C 1285.08 -5.37006 -2.36309 0
M  V30 13548 C 1287.44 -5.91029 -2.25539 0
M  V30 13549 C 1286.1 -6.30712 -2.18538 0
M  V30 13550 H 1285.37 -0.472387 -0.570904 0
M  V30 13551 H 1288.02 -1.67545 -0.92741 0
M  V30 13552 H 1286.32 -1.69095 -3.53432 0
M  V30 13553 H 1288.02 -2.06941 -3.43477 0
M  V30 13554 H 1284.61 -3.31224 -2.72009 0
M  V30 13555 H 1288.79 -4.27318 -2.52414 0
M  V30 13556 H 1284.05 -5.66748 -2.29361 0
M  V30 13557 H 1288.22 -6.63724 -2.10816 0
M  V30 13558 H 1285.85 -7.33753 -1.98772 0
M  V30 13559 N 1287.43 1.02549 -1.19673 0
M  V30 13560 C 1288.65 1.79623 -1.0268 0
M  V30 13561 C 1289.07 1.83969 0.424345 0
M  V30 13562 O 1288.43 1.28621 1.29472 0
M  V30 13563 C 1288.48 3.24514 -1.59289 0
M  V30 13564 O 1288.2 3.20462 -2.98723 0
M  V30 13565 C 1289.7 4.18173 -1.47126 0
M  V30 13566 H 1286.92 0.565167 -0.3617 0
M  V30 13567 H 1289.46 1.29143 -1.58564 0
M  V30 13568 H 1287.62 3.72173 -1.07546 0
M  V30 13569 H 1288.03 4.11341 -3.25421 0
M  V30 13570 H 1289.51 5.17714 -1.9151 0
M  V30 13571 H 1289.98 4.37165 -0.422315 0
M  V30 13572 H 1290.59 3.7639 -1.98017 0
M  V30 13573 N 1288.9 1.00119 1.21713 0
M  V30 13574 C 1290.15 0.680377 1.90303 0
M  V30 13575 C 1290.47 -0.790927 1.7824 0
M  V30 13576 O 1289.74 -1.5676 1.17486 0
M  V30 13577 H 1288.32 0.248665 0.704397 0
M  V30 13578 H 1290.98 1.26948 1.47886 0
M  V30 13579 H 1290.08 0.950188 2.97284 0
M  V30 13580 N 1290.38 -1.37203 0.775435 0
M  V30 13581 C 1291.34 -2.28566 0.170406 0
M  V30 13582 C 1292.34 -1.48195 -0.624085 0
M  V30 13583 O 1293.53 -1.68364 -0.447132 0
M  V30 13584 C 1290.67 -3.32186 -0.765829 0
M  V30 13585 H 1291.86 -2.8358 0.975824 0
M  V30 13586 H 1289.41 -1.46531 0.543895 0
M  V30 13587 H 1290.15 -2.82303 -1.59611 0
M  V30 13588 H 1289.93 -3.91598 -0.198251 0
M  V30 13589 H 1291.42 -4.0045 -1.18446 0
M  V30 13590 N 1291.86 -0.526279 -1.48553 0
M  V30 13591 C 1293.1 0.00720852 -2.04399 0
M  V30 13592 C 1293.46 1.31928 -1.39495 0
M  V30 13593 O 1294.66 1.93857 -1.86206 0
M  V30 13594 C 1292.94 0.130517 -3.57162 0
M  V30 13595 S 1294.49 0.614604 -4.34474 0
M  V30 13596 H 1291.31 -0.0102902 -0.710926 0
M  V30 13597 H 1293.91 -0.705998 -1.82307 0
M  V30 13598 H 1292.62 -0.829304 -4.01934 0
M  V30 13599 H 1292.15 0.868213 -3.837 0
M  V30 13600 H 1294.16 1.87973 -4.59217 0
M  V30 13601 N 1293.34 1.5542 -0.261239 0
M  V30 13602 C 1294.59 1.9846 0.360052 0
M  V30 13603 C 1294.9 1.15288 1.58013 0
M  V30 13604 O 1296.11 1.48408 2.27348 0
M  V30 13605 C 1294.56 3.53185 0.691964 0
M  V30 13606 C 1294.17 4.45116 -0.507521 0
M  V30 13607 C 1295.91 4.04848 1.27665 0
M  V30 13608 C 1293.82 5.91207 -0.150966 0
M  V30 13609 H 1292.75 0.741207 0.138303 0
M  V30 13610 H 1295.4 1.79859 -0.363712 0
M  V30 13611 H 1293.78 3.67535 1.47425 0
M  V30 13612 H 1294.96 4.42531 -1.28465 0
M  V30 13613 H 1293.27 4.04013 -1.0081 0
M  V30 13614 H 1295.87 5.11529 1.55699 0
M  V30 13615 H 1296.21 3.5305 2.20593 0
M  V30 13616 H 1296.75 3.93882 0.556955 0
M  V30 13617 H 1293.48 6.47072 -1.04776 0
M  V30 13618 H 1293 5.96894 0.589671 0
M  V30 13619 H 1294.68 6.4647 0.261772 0
M  V30 13620 N 1294.82 -0.0116844 1.57596 0
M  V30 13621 C 1296.04 -0.71026 1.94327 0
M  V30 13622 C 1296.46 -1.67952 0.862418 0
M  V30 13623 O 1295.82 -1.818 -0.159698 0
M  V30 13624 C 1295.87 -1.45228 3.31045 0
M  V30 13625 O 1295.59 -0.52191 4.3498 0
M  V30 13626 C 1297.09 -2.24644 3.82165 0
M  V30 13627 H 1294.31 -0.198559 0.640949 0
M  V30 13628 H 1296.85 0.0359615 2.04468 0
M  V30 13629 H 1295.01 -2.15023 3.22248 0
M  V30 13630 H 1295.42 -1.04415 5.14002 0
M  V30 13631 H 1296.9 -2.72078 4.80289 0
M  V30 13632 H 1297.37 -3.06817 3.14261 0
M  V30 13633 H 1297.98 -1.59888 3.94101 0
M  V30 13634 N 1296.29 -1.55015 -0.284256 0
M  V30 13635 C 1297.23 -1.83517 -1.3731 0
M  V30 13636 C 1298.24 -0.719009 -1.46062 0
M  V30 13637 O 1299.43 -0.996719 -1.4808 0
M  V30 13638 C 1296.53 -1.97309 -2.7554 0
M  V30 13639 C 1295.7 -3.2787 -2.89517 0
M  V30 13640 C 1294.76 -3.31868 -4.08351 0
M  V30 13641 O 1293.79 -4.05309 -3.99642 0
M  V30 13642 N 1294.99 -2.5846 -5.19787 0
M  V30 13643 H 1297.75 -2.77495 -1.1321 0
M  V30 13644 H 1295.31 -1.54795 -0.474359 0
M  V30 13645 H 1297.31 -1.97367 -3.53311 0
M  V30 13646 H 1295.88 -1.10249 -2.92513 0
M  V30 13647 H 1295.1 -3.40445 -1.98722 0
M  V30 13648 H 1296.38 -4.13996 -2.95779 0
M  V30 13649 H 1295.78 -1.98455 -5.29747 0
M  V30 13650 H 1294.34 -2.64253 -5.9583 0
M  V30 13651 N 1297.77 0.548248 -1.47757 0
M  V30 13652 C 1299.05 1.3092 -1.45325 0
M  V30 13653 C 1299.43 2.1053 -0.155008 0
M  V30 13654 O 1298.78 2.11558 0.863455 0
M  V30 13655 C 1298.99 2.20614 -2.70426 0
M  V30 13656 C 1300.33 2.81345 -3.18009 0
M  V30 13657 O 1301.36 2.30911 -2.71216 0
M  V30 13658 O 1300.22 3.73036 -3.99383 0
M  V30 13659 H 1297.31 0.58996 -0.579548 0
M  V30 13660 H 1299.86 0.56641 -1.59968 0
M  V30 13661 H 1298.63 1.61449 -3.56441 0
M  V30 13662 H 1298.25 3.02173 -2.58413 0
M  V30 13663 N 1299.25 1.36039 0.795694 0
M  V30 13664 C 1300.47 1.33222 1.58955 0
M  V30 13665 C 1300.9 -0.0854596 1.87906 0
M  V30 13666 O 1300.26 -1.05555 1.47403 0
M  V30 13667 C 1300.31 2.15508 2.89117 0
M  V30 13668 O 1299.41 1.54327 3.82436 0
M  V30 13669 H 1298.75 0.456264 0.48241 0
M  V30 13670 H 1301.28 1.79234 0.986726 0
M  V30 13671 H 1301.29 2.2786 3.38444 0
M  V30 13672 H 1299.97 3.18568 2.67371 0
M  V30 13673 H 1298.54 1.50879 3.41013 0
M  V30 13674 N 1300.73 -1.01913 1.20215 0
M  V30 13675 C 1302.14 -1.5692 1.01159 0
M  V30 13676 C 1302.49 -1.91368 -0.432746 0
M  V30 13677 O 1301.62 -1.71959 -1.31374 0
M  V30 13678 C 1302.21 -2.85125 1.83001 0
M  V30 13679 C 1300.77 -3.36669 1.68318 0
M  V30 13680 C 1299.92 -2.10003 1.81091 0
M  V30 13681 H 1302.87 -0.843246 1.34443 0
M  V30 13682 H 1302.89 -3.56428 1.33188 0
M  V30 13683 H 1302.4 -2.60021 2.88116 0
M  V30 13684 H 1300.5 -3.66739 0.658292 0
M  V30 13685 H 1300.61 -4.09042 2.49442 0
M  V30 13686 H 1298.98 -2.22337 1.24252 0
M  V30 13687 H 1299.76 -1.87329 2.87685 0
M  V30 13688 N 1302.21 -1.00763 -1.2118 0
M  V30 13689 C 1303.14 -0.590493 -2.2591 0
M  V30 13690 C 1304.12 0.390002 -1.65569 0
M  V30 13691 O 1305.3 0.277406 -1.92208 0
M  V30 13692 C 1302.43 0.0810388 -3.47205 0
M  V30 13693 C 1301.39 -0.81951 -4.20081 0
M  V30 13694 C 1300.71 -0.014244 -5.34698 0
M  V30 13695 C 1302.01 -2.12336 -4.7719 0
M  V30 13696 H 1303.71 -1.46595 -2.61056 0
M  V30 13697 H 1301.25 -0.706321 -1.25487 0
M  V30 13698 H 1303.21 0.384355 -4.19644 0
M  V30 13699 H 1301.93 0.991145 -3.11197 0
M  V30 13700 H 1300.59 -1.10669 -3.49497 0
M  V30 13701 H 1300.24 0.897233 -4.94933 0
M  V30 13702 H 1299.94 -0.613883 -5.84384 0
M  V30 13703 H 1301.46 0.282827 -6.09945 0
M  V30 13704 H 1302.87 -1.88301 -5.41494 0
M  V30 13705 H 1301.27 -2.67308 -5.37277 0
M  V30 13706 H 1302.34 -2.79238 -3.96427 0
M  V30 13707 N 1303.68 1.3679 -0.7827 0
M  V30 13708 C 1304.63 2.30139 -0.174595 0
M  V30 13709 C 1305.6 1.51645 0.677714 0
M  V30 13710 O 1306.79 1.80176 0.627796 0
M  V30 13711 C 1303.93 3.38133 0.689936 0
M  V30 13712 C 1303.04 4.31624 -0.180179 0
M  V30 13713 C 1302.17 5.26698 0.69009 0
M  V30 13714 C 1301.21 6.1183 -0.181891 0
M  V30 13715 N 1300.35 6.99113 0.646977 0
M  V30 13716 H 1305.19 2.81559 -0.97613 0
M  V30 13717 H 1302.73 1.38595 -0.492944 0
M  V30 13718 H 1304.69 3.99386 1.2061 0
M  V30 13719 H 1303.32 2.88049 1.45696 0
M  V30 13720 H 1302.37 3.71583 -0.81425 0
M  V30 13721 H 1303.68 4.91464 -0.852337 0
M  V30 13722 H 1302.83 5.93209 1.27232 0
M  V30 13723 H 1301.57 4.67297 1.3959 0
M  V30 13724 H 1300.58 5.44288 -0.776572 0
M  V30 13725 H 1301.8 6.73306 -0.885195 0
M  V30 13726 H 1299.75 6.42227 1.3372 0
M  V30 13727 H 1299.67 7.55993 0.0323547 0
M  V30 13728 H 1300.93 7.7 1.21325 0
M  V30 13729 N 1305.16 0.53415 1.48272 0
M  V30 13730 C 1306.13 -0.215641 2.28183 0
M  V30 13731 C 1307.13 -0.863966 1.35618 0
M  V30 13732 O 1308.32 -0.723375 1.58471 0
M  V30 13733 C 1305.45 -1.31251 3.1462 0
M  V30 13734 H 1306.64 0.486014 2.95936 0
M  V30 13735 H 1304.19 0.290237 1.53582 0
M  V30 13736 H 1304.93 -2.04729 2.51508 0
M  V30 13737 H 1304.71 -0.852706 3.82716 0
M  V30 13738 H 1306.2 -1.83978 3.74889 0
M  V30 13739 N 1306.64 -1.55279 0.269478 0
M  V30 13740 C 1307.89 -1.99767 -0.34943 0
M  V30 13741 C 1308.22 -1.15762 -1.55926 0
M  V30 13742 O 1307.49 -0.22633 -1.93179 0
M  V30 13743 C 1307.78 -3.52474 -0.73716 0
M  V30 13744 C 1307.63 -4.47236 0.479621 0
M  V30 13745 C 1308.95 -4.10924 -1.57573 0
M  V30 13746 H 1306.07 -0.72623 -0.125535 0
M  V30 13747 H 1308.71 -1.86257 0.375298 0
M  V30 13748 H 1306.86 -3.64118 -1.35464 0
M  V30 13749 H 1308.53 -4.47543 1.11816 0
M  V30 13750 H 1306.78 -4.19127 1.11871 0
M  V30 13751 H 1307.45 -5.51754 0.164653 0
M  V30 13752 H 1309.92 -4.02522 -1.05429 0
M  V30 13753 H 1308.8 -5.17995 -1.81584 0
M  V30 13754 H 1309.06 -3.60798 -2.55495 0
M  V30 13755 N 1308.12 0.00332656 -1.576 0
M  V30 13756 C 1309.05 1.02391 -2.05058 0
M  V30 13757 C 1310.06 1.30903 -0.967901 0
M  V30 13758 O 1311.25 1.27937 -1.24476 0
M  V30 13759 C 1308.35 2.35947 -2.43274 0
M  V30 13760 C 1307.53 2.26423 -3.74234 0
M  V30 13761 C 1306.58 3.4264 -3.99355 0
M  V30 13762 O 1305.61 3.20977 -4.70067 0
M  V30 13763 N 1306.81 4.65379 -3.46991 0
M  V30 13764 H 1309.58 0.619216 -2.93233 0
M  V30 13765 H 1307.14 0.190777 -1.60772 0
M  V30 13766 H 1309.13 3.12462 -2.57196 0
M  V30 13767 H 1307.7 2.6817 -1.60635 0
M  V30 13768 H 1306.92 1.34841 -3.70421 0
M  V30 13769 H 1308.21 2.17229 -4.60097 0
M  V30 13770 H 1307.61 4.85878 -2.89723 0
M  V30 13771 H 1306.16 5.39171 -3.66249 0
M  V30 13772 N 1309.6 1.55164 0.276031 0
M  V30 13773 C 1310.53 1.82758 1.36656 0
M  V30 13774 C 1311.51 0.680405 1.4768 0
M  V30 13775 O 1312.69 0.923078 1.64352 0
M  V30 13776 C 1309.82 1.98651 2.74328 0
M  V30 13777 C 1308.86 3.21192 2.80603 0
M  V30 13778 S 1309.7 4.78628 2.40156 0
M  V30 13779 C 1310.85 4.9749 3.79809 0
M  V30 13780 H 1311.09 2.74969 1.13045 0
M  V30 13781 H 1308.62 1.46896 0.4755 0
M  V30 13782 H 1310.58 2.08492 3.53612 0
M  V30 13783 H 1309.24 1.07333 2.95192 0
M  V30 13784 H 1308.43 3.29189 3.81642 0
M  V30 13785 H 1308.03 3.09926 2.09337 0
M  V30 13786 H 1310.33 4.83045 4.75051 0
M  V30 13787 H 1311.27 5.99544 3.76765 0
M  V30 13788 H 1311.68 4.25489 3.70971 0
M  V30 13789 N 1311.07 -0.540404 1.48045 0
M  V30 13790 C 1312 -1.65538 1.6468 0
M  V30 13791 C 1312.99 -1.62713 0.495847 0
M  V30 13792 O 1314.17 -1.80072 0.727172 0
M  V30 13793 C 1311.3 -3.0415 1.67661 0
M  V30 13794 C 1310.25 -3.2183 2.82152 0
M  V30 13795 C 1309.58 -4.61397 2.70216 0
M  V30 13796 C 1310.88 -3.05596 4.23567 0
M  V30 13797 H 1312.57 -1.51873 2.58021 0
M  V30 13798 H 1310.12 -0.729208 1.24171 0
M  V30 13799 H 1312.07 -3.82013 1.77887 0
M  V30 13800 H 1310.8 -3.18814 0.708907 0
M  V30 13801 H 1309.46 -2.4638 2.71463 0
M  V30 13802 H 1309.1 -4.72883 1.71437 0
M  V30 13803 H 1308.8 -4.74174 3.47035 0
M  V30 13804 H 1310.33 -5.41374 2.82395 0
M  V30 13805 H 1311.74 -3.73261 4.35143 0
M  V30 13806 H 1310.14 -3.29871 5.01303 0
M  V30 13807 H 1311.21 -2.0214 4.40758 0
M  V30 13808 N 1312.55 -1.36459 -0.788468 0
M  V30 13809 C 1313.8 -1.31942 -1.54799 0
M  V30 13810 C 1314.15 0.100282 -1.92138 0
M  V30 13811 O 1313.45 1.05505 -1.59935 0
M  V30 13812 C 1313.64 -2.17672 -2.83467 0
M  V30 13813 C 1313.47 -3.67836 -2.58702 0
M  V30 13814 C 1312.24 -4.37009 -2.53675 0
M  V30 13815 C 1314.44 -4.61081 -2.27835 0
M  V30 13816 N 1312.42 -5.72811 -2.20817 0
M  V30 13817 C 1313.79 -5.85137 -2.04973 0
M  V30 13818 C 1315.85 -4.49636 -2.13849 0
M  V30 13819 C 1314.55 -6.99034 -1.69541 0
M  V30 13820 C 1316.57 -5.63401 -1.79816 0
M  V30 13821 C 1315.94 -6.86497 -1.57803 0
M  V30 13822 H 1312.04 -0.538087 -0.567438 0
M  V30 13823 H 1314.62 -1.7152 -0.921358 0
M  V30 13824 H 1312.79 -1.80338 -3.43995 0
M  V30 13825 H 1314.52 -2.04539 -3.49208 0
M  V30 13826 H 1311.28 -3.89822 -2.68953 0
M  V30 13827 H 1311.7 -6.44535 -2.07132 0
M  V30 13828 H 1316.34 -3.55054 -2.29558 0
M  V30 13829 H 1314.06 -7.93567 -1.52571 0
M  V30 13830 H 1317.65 -5.56508 -1.69677 0
M  V30 13831 H 1316.53 -7.73036 -1.31855 0
M  V30 13832 N 1314.03 1.01274 -1.20754 0
M  V30 13833 C 1315.28 1.75191 -1.02156 0
M  V30 13834 C 1315.61 1.89038 0.444791 0
M  V30 13835 O 1314.88 1.41903 1.33018 0
M  V30 13836 C 1315.17 3.16892 -1.71031 0
M  V30 13837 C 1315.02 3.10816 -3.25136 0
M  V30 13838 C 1316.34 4.15648 -1.44654 0
M  V30 13839 H 1313.46 0.635922 -0.372521 0
M  V30 13840 H 1316.1 1.18119 -1.48822 0
M  V30 13841 H 1314.25 3.6562 -1.31357 0
M  V30 13842 H 1315.92 2.69863 -3.74128 0
M  V30 13843 H 1314.17 2.48113 -3.5584 0
M  V30 13844 H 1314.84 4.11001 -3.68487 0
M  V30 13845 H 1317.31 3.75592 -1.7908 0
M  V30 13846 H 1316.19 5.12954 -1.95371 0
M  V30 13847 H 1316.45 4.40507 -0.37494 0
M  V30 13848 N 1315.51 1.01404 1.20644 0
M  V30 13849 C 1316.46 0.575388 2.25371 0
M  V30 13850 C 1317.45 -0.384598 1.64976 0
M  V30 13851 O 1318.66 -0.2548 1.78187 0
M  V30 13852 H 1315.03 0.167752 0.733051 0
M  V30 13853 H 1317 1.46964 2.597 0
M  V30 13854 C 1315.75 -0.0731257 3.47623 0
M  V30 13855 H 1315.08 0.656551 3.94372 0
M  V30 13856 H 1316.52 -0.343203 4.22609 0
M  V30 13857 C 1314.97 -1.31515 3.1017 0
M  V30 13858 O 1315.5 -2.40869 3.21473 0
M  V30 13859 N 1313.71 -1.19829 2.64744 0
M  V30 13860 H 1313.26 -0.308463 2.55746 0
M  V30 13861 H 1313.22 -2.0303 2.40054 0
M  V30 13862 N 1316.99 -1.36373 0.789944 0
M  V30 13863 C 1317.92 -2.32616 0.202944 0
M  V30 13864 C 1318.9 -1.56674 -0.662364 0
M  V30 13865 O 1320.08 -1.84826 -0.596078 0
M  V30 13866 C 1317.21 -3.4092 -0.662646 0
M  V30 13867 C 1316.17 -4.27877 0.102811 0
M  V30 13868 C 1315.49 -5.27352 -0.883407 0
M  V30 13869 C 1316.79 -5.0606 1.29231 0
M  V30 13870 H 1318.49 -2.81958 1.00699 0
M  V30 13871 H 1316.03 -1.35562 0.48568 0
M  V30 13872 H 1317.99 -4.07239 -1.08324 0
M  V30 13873 H 1316.71 -2.90147 -1.4994 0
M  V30 13874 H 1315.37 -3.63114 0.504389 0
M  V30 13875 H 1315.02 -4.72853 -1.71521 0
M  V30 13876 H 1314.72 -5.86398 -0.375669 0
M  V30 13877 H 1316.24 -5.96545 -1.30256 0
M  V30 13878 H 1317.66 -5.65417 0.947446 0
M  V30 13879 H 1316.05 -5.74521 1.73338 0
M  V30 13880 H 1317.12 -4.37671 2.08739 0
M  V30 13881 N 1318.47 -0.542005 -1.47987 0
M  V30 13882 C 1319.71 -0.010246 -2.01697 0
M  V30 13883 C 1320.03 1.34173 -1.42327 0
M  V30 13884 O 1321.23 1.96254 -1.87607 0
M  V30 13885 C 1319.69 0.0321032 -3.59886 0
M  V30 13886 C 1319.3 -1.31571 -4.28244 0
M  V30 13887 C 1321.04 0.512056 -4.214 0
M  V30 13888 C 1318.95 -1.23329 -5.78398 0
M  V30 13889 H 1317.88 -6.02097e-05 -0.754 0
M  V30 13890 H 1320.53 -0.687586 -1.70131 0
M  V30 13891 H 1318.91 0.774774 -3.88347 0
M  V30 13892 H 1320.09 -2.07489 -4.11442 0
M  V30 13893 H 1318.4 -1.73237 -3.78653 0
M  V30 13894 H 1321 0.591875 -5.31414 0
M  V30 13895 H 1321.34 1.52061 -3.87535 0
M  V30 13896 H 1321.87 -0.175293 -3.97414 0
M  V30 13897 H 1318.61 -2.21737 -6.16857 0
M  V30 13898 H 1318.13 -0.51567 -5.97579 0
M  V30 13899 H 1319.81 -0.928975 -6.40296 0
M  V30 13900 N 1319.94 1.55134 -0.277709 0
M  V30 13901 C 1320.88 2.18745 0.650058 0
M  V30 13902 C 1321.85 1.14922 1.15029 0
M  V30 13903 O 1323.04 1.43458 1.22278 0
M  V30 13904 C 1320.17 2.81277 1.88683 0
M  V30 13905 C 1319.21 3.98425 1.52185 0
M  V30 13906 S 1320.04 5.32153 0.597782 0
M  V30 13907 C 1321.2 5.98155 1.84287 0
M  V30 13908 H 1321.43 2.97098 0.109571 0
M  V30 13909 H 1318.97 1.54276 -0.0619536 0
M  V30 13910 H 1320.92 3.17934 2.59669 0
M  V30 13911 H 1319.59 2.02813 2.39845 0
M  V30 13912 H 1318.78 4.40877 2.4422 0
M  V30 13913 H 1318.38 3.63203 0.892146 0
M  V30 13914 H 1320.67 6.17546 2.78646 0
M  V30 13915 H 1321.62 6.92857 1.46131 0
M  V30 13916 H 1322.02 5.27541 2.00899 0
M  V30 13917 N 1321.42 0.00503138 1.57599 0
M  V30 13918 C 1322.7 -0.716079 1.82021 0
M  V30 13919 C 1323.08 -1.91707 0.883829 0
M  V30 13920 O 1322.43 -2.28404 -0.0662812 0
M  V30 13921 C 1322.64 -1.11706 3.3064 0
M  V30 13922 C 1323.98 -1.51881 3.96506 0
M  V30 13923 O 1325.01 -1.21071 3.34993 0
M  V30 13924 O 1323.87 -2.09191 5.04877 0
M  V30 13925 H 1320.96 -0.349112 0.7497 0
M  V30 13926 H 1323.51 0.030871 1.69672 0
M  V30 13927 H 1322.28 -0.261223 3.90427 0
M  V30 13928 H 1321.9 -1.92295 3.48006 0
M  V30 13929 N 1322.9 -1.55308 -0.267798 0
M  V30 13930 C 1324.13 -1.80191 -1.01681 0
M  V30 13931 C 1324.54 -0.57783 -1.7974 0
M  V30 13932 O 1323.9 0.4532 -1.76783 0
M  V30 13933 C 1323.95 -3.03023 -1.97127 0
M  V30 13934 O 1323.67 -4.20704 -1.22229 0
M  V30 13935 C 1325.17 -3.40549 -2.83798 0
M  V30 13936 H 1322.39 -0.60013 -0.300142 0
M  V30 13937 H 1324.94 -2.02332 -0.297007 0
M  V30 13938 H 1323.09 -2.82993 -2.64563 0
M  V30 13939 H 1323.51 -4.90181 -1.86608 0
M  V30 13940 H 1324.98 -4.29653 -3.46557 0
M  V30 13941 H 1325.46 -2.60186 -3.53836 0
M  V30 13942 H 1326.06 -3.62856 -2.21846 0
M  V30 13943 N 1324.38 0.532545 -1.4833 0
M  V30 13944 C 1325.31 1.64662 -1.65555 0
M  V30 13945 C 1326.29 1.62447 -0.50447 0
M  V30 13946 O 1327.47 1.79684 -0.736712 0
M  V30 13947 C 1324.6 3.03256 -1.69272 0
M  V30 13948 C 1323.56 3.20329 -2.83854 0
M  V30 13949 C 1322.88 4.59958 -2.72659 0
M  V30 13950 C 1324.18 3.03345 -4.25181 0
M  V30 13951 H 1325.88 1.50502 -2.58823 0
M  V30 13952 H 1323.42 0.722612 -1.24556 0
M  V30 13953 H 1325.38 3.81064 -1.79911 0
M  V30 13954 H 1324.1 3.18433 -0.725805 0
M  V30 13955 H 1322.76 2.44937 -2.72766 0
M  V30 13956 H 1322.41 4.71967 -1.73942 0
M  V30 13957 H 1322.11 4.72327 -3.49544 0
M  V30 13958 H 1323.63 5.39869 -2.85262 0
M  V30 13959 H 1325.05 3.70948 -4.37116 0
M  V30 13960 H 1323.44 3.27208 -5.03045 0
M  V30 13961 H 1324.51 1.998 -4.41824 0
M  V30 13962 N 1325.86 1.36875 0.78122 0
M  V30 13963 C 1326.82 1.31706 1.8758 0
M  V30 13964 C 1327.82 0.223044 1.59246 0
M  V30 13965 O 1329.01 0.478327 1.67504 0
M  V30 13966 C 1326.14 1.0437 3.2453 0
M  V30 13967 H 1327.33 2.29059 1.93576 0
M  V30 13968 H 1324.89 1.21766 0.979931 0
M  V30 13969 H 1325.62 0.0750941 3.24213 0
M  V30 13970 H 1325.41 1.83548 3.46486 0
M  V30 13971 H 1326.9 1.0338 4.04602 0
M  V30 13972 N 1327.33 -1.00632 1.21289 0
M  V30 13973 C 1328.56 -1.78503 1.05601 0
M  V30 13974 C 1328.98 -1.84015 -0.389879 0
M  V30 13975 O 1328.34 -1.28277 -1.2812 0
M  V30 13976 C 1328.39 -3.20313 1.65626 0
M  V30 13977 O 1327.49 -4.02441 0.900841 0
M  V30 13978 H 1326.83 -0.550183 0.371746 0
M  V30 13979 H 1329.36 -1.26505 1.60803 0
M  V30 13980 H 1329.37 -3.70992 1.69792 0
M  V30 13981 H 1328.05 -3.15616 2.7085 0
M  V30 13982 H 1326.63 -3.61009 0.934178 0
M  V30 13983 N 1328.81 -1.02043 -1.20104 0
M  V30 13984 C 1329.74 -0.614421 -2.25271 0
M  V30 13985 C 1330.72 0.37242 -1.65973 0
M  V30 13986 O 1331.91 0.257005 -1.92492 0
M  V30 13987 C 1329.04 0.0442085 -3.47272 0
M  V30 13988 C 1327.99 -0.864019 -4.19188 0
M  V30 13989 C 1327.32 -0.0709551 -5.34653 0
M  V30 13990 C 1328.62 -2.17385 -4.74912 0
M  V30 13991 H 1330.31 -1.49355 -2.59487 0
M  V30 13992 H 1327.86 -0.719591 -1.24731 0
M  V30 13993 H 1329.81 0.339825 -4.20028 0
M  V30 13994 H 1328.53 0.958082 -3.12231 0
M  V30 13995 H 1327.19 -1.1437 -3.48303 0
M  V30 13996 H 1326.84 0.844688 -4.95857 0
M  V30 13997 H 1326.54 -0.67583 -5.83701 0
M  V30 13998 H 1328.07 0.218118 -6.1021 0
M  V30 13999 H 1329.48 -1.94034 -5.39466 0
M  V30 14000 H 1327.88 -2.72991 -5.34412 0
M  V30 14001 H 1328.95 -2.83427 -3.93443 0
M  V30 14002 N 1330.29 1.35952 -0.797165 0
M  V30 14003 C 1331.25 2.28266 -0.206748 0
M  V30 14004 C 1332.25 1.49169 0.60043 0
M  V30 14005 O 1333.44 1.69054 0.42029 0
M  V30 14006 C 1330.58 3.33363 0.712884 0
M  V30 14007 H 1331.77 2.81992 -1.02082 0
M  V30 14008 H 1329.32 1.45648 -0.567138 0
M  V30 14009 H 1330.06 2.84806 1.551 0
M  V30 14010 H 1329.84 3.91864 0.135926 0
M  V30 14011 H 1331.33 4.02284 1.1206 0
M  V30 14012 N 1331.77 0.549846 1.47697 0
M  V30 14013 C 1332.7 -0.190364 2.32723 0
M  V30 14014 C 1333.68 -0.915933 1.43334 0
M  V30 14015 O 1334.86 -0.897838 1.72199 0
M  V30 14016 C 1331.99 -1.22545 3.24961 0
M  V30 14017 C 1330.95 -0.616805 4.23532 0
M  V30 14018 C 1330.27 -1.75599 5.05044 0
M  V30 14019 C 1331.57 0.424595 5.20571 0
M  V30 14020 H 1333.27 0.519461 2.94859 0
M  V30 14021 H 1330.81 0.251259 1.41791 0
M  V30 14022 H 1332.77 -1.75139 3.83281 0
M  V30 14023 H 1331.49 -1.96512 2.60865 0
M  V30 14024 H 1330.15 -0.112224 3.66428 0
M  V30 14025 H 1329.8 -2.48453 4.37356 0
M  V30 14026 H 1329.5 -1.35456 5.71774 0
M  V30 14027 H 1331.02 -2.28533 5.6622 0
M  V30 14028 H 1332.44 -0.0150025 5.73298 0
M  V30 14029 H 1330.83 0.7445 5.95464 0
M  V30 14030 H 1331.9 1.32318 4.66497 0
M  V30 14031 N 1333.25 -1.54984 0.285932 0
M  V30 14032 C 1334.21 -2.2164 -0.583824 0
M  V30 14033 C 1335.21 -1.19764 -1.073 0
M  V30 14034 O 1336.4 -1.44598 -0.971439 0
M  V30 14035 C 1333.53 -2.8909 -1.80665 0
M  V30 14036 H 1334.72 -2.999 -0.00168109 0
M  V30 14037 H 1332.28 -1.56257 0.0366325 0
M  V30 14038 H 1333.01 -2.14869 -2.42903 0
M  V30 14039 H 1332.8 -3.63756 -1.4637 0
M  V30 14040 H 1334.29 -3.39982 -2.42491 0
M  V30 14041 N 1334.72 -0.0133892 -1.57594 0
M  V30 14042 C 1335.95 0.679255 -1.95432 0
M  V30 14043 C 1336.37 1.66558 -0.889028 0
M  V30 14044 O 1335.72 1.82031 0.130755 0
M  V30 14045 C 1335.78 1.39943 -3.33314 0
M  V30 14046 O 1335.5 0.452643 -4.35755 0
M  V30 14047 C 1337 2.18535 -3.85691 0
M  V30 14048 H 1334.22 0.188337 -0.644026 0
M  V30 14049 H 1336.76 -0.0684861 -2.04385 0
M  V30 14050 H 1334.92 2.0987 -3.25628 0
M  V30 14051 H 1335.33 0.962243 -5.15598 0
M  V30 14052 H 1336.8 2.64403 -4.84557 0
M  V30 14053 H 1337.28 3.01779 -3.19102 0
M  V30 14054 H 1337.89 1.53598 -3.96595 0
M  V30 14055 N 1336.2 1.55448 0.259558 0
M  V30 14056 C 1337.11 1.92364 1.34289 0
M  V30 14057 C 1338.13 0.822492 1.53333 0
M  V30 14058 O 1339.3 1.12277 1.672 0
M  V30 14059 C 1336.37 2.19978 2.67975 0
M  V30 14060 C 1335.43 3.43454 2.57562 0
M  V30 14061 C 1334.66 3.69741 3.84873 0
M  V30 14062 O 1334.89 2.9831 4.86176 0
M  V30 14063 O 1333.82 4.63274 3.84267 0
M  V30 14064 H 1337.65 2.8461 1.05975 0
M  V30 14065 H 1335.23 1.42167 0.459239 0
M  V30 14066 H 1337.11 2.39104 3.46998 0
M  V30 14067 H 1335.79 1.30912 2.96047 0
M  V30 14068 H 1334.7 3.29649 1.76869 0
M  V30 14069 H 1336.03 4.32782 2.34437 0
M  V30 14070 N 1337.68 -0.524672 1.4861 0
M  V30 14071 C 1339.09 -1.10655 1.50374 0
M  V30 14072 C 1339.44 -1.94242 0.276512 0
M  V30 14073 O 1338.57 -2.07451 -0.615887 0
M  V30 14074 C 1339.16 -2.01348 2.72478 0
M  V30 14075 C 1337.72 -2.54743 2.77097 0
M  V30 14076 C 1336.87 -1.31822 2.43964 0
M  V30 14077 H 1339.82 -0.309674 1.55649 0
M  V30 14078 H 1339.84 -2.85709 2.51297 0
M  V30 14079 H 1339.35 -1.40485 3.61781 0
M  V30 14080 H 1337.45 -3.19313 1.92016 0
M  V30 14081 H 1337.57 -2.93514 3.78664 0
M  V30 14082 H 1335.93 -1.63574 1.95233 0
M  V30 14083 H 1336.71 -0.727026 3.35513 0
M  V30 14084 N 1339.16 -1.37287 -0.77395 0
M  V30 14085 C 1340.57 -1.28954 -1.3501 0
M  V30 14086 C 1340.92 0.0638301 -1.96096 0
M  V30 14087 O 1340.05 0.965624 -1.93661 0
M  V30 14088 C 1340.64 -2.3352 -2.45467 0
M  V30 14089 C 1339.2 -2.28828 -2.98856 0
M  V30 14090 C 1338.35 -2.17468 -1.72055 0
M  V30 14091 H 1341.3 -1.47941 -0.57438 0
M  V30 14092 H 1341.32 -1.98058 -3.24889 0
M  V30 14093 H 1340.83 -3.32009 -2.00977 0
M  V30 14094 H 1338.93 -1.33855 -3.47726 0
M  V30 14095 H 1339.04 -3.22152 -3.54619 0
M  V30 14096 H 1337.41 -1.63977 -1.94894 0
M  V30 14097 H 1338.19 -3.17868 -1.29672 0
M  V30 14098 N 1340.64 0.999871 -1.21821 0
M  V30 14099 C 1341.86 1.77405 -1.06467 0
M  V30 14100 C 1342.28 1.84828 0.385227 0
M  V30 14101 O 1341.64 1.31338 1.26714 0
M  V30 14102 C 1341.69 3.21062 -1.66137 0
M  V30 14103 O 1341.41 3.14054 -3.05454 0
M  V30 14104 C 1342.91 4.14958 -1.55963 0
M  V30 14105 H 1340.13 0.557368 -0.373607 0
M  V30 14106 H 1342.67 1.2575 -1.61267 0
M  V30 14107 H 1340.83 3.69808 -1.15416 0
M  V30 14108 H 1341.24 4.04346 -3.34073 0
M  V30 14109 H 1342.72 5.13536 -2.02448 0
M  V30 14110 H 1343.19 4.36171 -0.514949 0
M  V30 14111 H 1343.8 3.72105 -2.05956 0
M  V30 14112 N 1342.11 1.02678 1.19562 0
M  V30 14113 C 1343.02 0.615738 2.26375 0
M  V30 14114 C 1344.04 -0.351525 1.70412 0
M  V30 14115 O 1345.22 -0.209932 2.00303 0
M  V30 14116 C 1342.28 -0.0292135 3.46688 0
M  V30 14117 C 1341.34 0.985284 4.1784 0
M  V30 14118 C 1340.58 0.371016 5.32409 0
M  V30 14119 O 1340.8 -0.826591 5.64379 0
M  V30 14120 O 1339.73 1.09282 5.91896 0
M  V30 14121 H 1343.56 1.50526 2.63772 0
M  V30 14122 H 1341.14 0.796847 1.26375 0
M  V30 14123 H 1343.03 -0.38893 4.19601 0
M  V30 14124 H 1341.7 -0.892778 3.11145 0
M  V30 14125 H 1340.61 1.39655 3.47055 0
M  V30 14126 H 1341.94 1.81915 4.57349 0
M  V30 14127 N 1343.59 -1.35528 0.804364 0
M  V30 14128 C 1344.82 -2.03604 0.395013 0
M  V30 14129 C 1345.24 -1.60225 -0.985371 0
M  V30 14130 O 1344.6 -0.777844 -1.63766 0
M  V30 14131 C 1344.65 -3.57337 0.484011 0
M  V30 14132 O 1343.75 -4.09316 -0.503395 0
M  V30 14133 H 1343.09 -0.643089 0.165325 0
M  V30 14134 H 1345.62 -1.73171 1.08963 0
M  V30 14135 H 1345.63 -4.0647 0.353009 0
M  V30 14136 H 1344.31 -3.8826 1.49088 0
M  V30 14137 H 1342.89 -3.71412 -0.332817 0
M  V30 14138 N 1345.07 -0.557671 -1.47404 0
M  V30 14139 C 1346 0.178019 -2.3282 0
M  V30 14140 C 1346.98 0.908318 -1.43818 0
M  V30 14141 O 1348.17 0.888693 -1.72673 0
M  V30 14142 C 1345.3 1.2082 -3.25607 0
M  V30 14143 C 1344.25 0.594335 -4.23853 0
M  V30 14144 C 1343.58 1.72919 -5.05968 0
M  V30 14145 C 1344.88 -0.452196 -5.20339 0
M  V30 14146 H 1346.57 -0.535091 -2.9458 0
M  V30 14147 H 1344.12 -0.258775 -1.41656 0
M  V30 14148 H 1346.07 1.73104 -3.84204 0
M  V30 14149 H 1344.79 1.95126 -2.61903 0
M  V30 14150 H 1343.45 0.0927898 -3.66483 0
M  V30 14151 H 1343.1 2.4613 -4.38668 0
M  V30 14152 H 1342.8 1.32422 -5.72484 0
M  V30 14153 H 1344.33 2.25527 -5.67424 0
M  V30 14154 H 1345.74 -0.0154011 -5.73298 0
M  V30 14155 H 1344.14 -0.776068 -5.95061 0
M  V30 14156 H 1345.21 -1.34791 -4.65789 0
M  V30 14157 N 1346.55 1.54831 -0.294147 0
M  V30 14158 C 1347.48 2.26226 0.57827 0
M  V30 14159 C 1348.46 1.25928 1.14351 0
M  V30 14160 O 1349.65 1.54687 1.17412 0
M  V30 14161 C 1346.78 2.99783 1.75349 0
M  V30 14162 C 1345.73 4.07171 1.31892 0
M  V30 14163 C 1345.06 4.68406 2.57876 0
M  V30 14164 C 1346.36 5.20313 0.455167 0
M  V30 14165 H 1348.05 2.99395 -0.0171936 0
M  V30 14166 H 1345.6 1.43997 -0.00970944 0
M  V30 14167 H 1347.55 3.48448 2.36986 0
M  V30 14168 H 1346.27 2.24181 2.37509 0
M  V30 14169 H 1344.93 3.59346 0.725653 0
M  V30 14170 H 1344.58 3.89451 3.18335 0
M  V30 14171 H 1344.28 5.40927 2.29502 0
M  V30 14172 H 1345.8 5.1983 3.20327 0
M  V30 14173 H 1347.22 5.64913 0.977026 0
M  V30 14174 H 1345.61 5.99512 0.265501 0
M  V30 14175 H 1346.68 4.82088 -0.521434 0
M  V30 14176 N 1348.03 0.0217466 1.57585 0
M  V30 14177 C 1348.96 -0.961069 2.12804 0
M  V30 14178 C 1349.94 -1.3442 1.04237 0
M  V30 14179 O 1351.12 -1.42412 1.32032 0
M  V30 14180 C 1348.25 -2.24586 2.64912 0
M  V30 14181 C 1347.21 -2.0037 3.78201 0
M  V30 14182 C 1346.53 -3.35051 4.16708 0
M  V30 14183 C 1347.83 -1.34879 5.04584 0
M  V30 14184 H 1349.53 -0.501222 2.95175 0
M  V30 14185 H 1347.07 -0.239649 1.41992 0
M  V30 14186 H 1349.03 -2.93715 3.02175 0
M  V30 14187 H 1347.75 -2.72723 1.79693 0
M  V30 14188 H 1346.41 -1.33662 3.41365 0
M  V30 14189 H 1346.06 -3.80932 3.28481 0
M  V30 14190 H 1345.76 -3.19656 4.93045 0
M  V30 14191 H 1347.28 -4.05459 4.56547 0
M  V30 14192 H 1348.7 -1.93997 5.3948 0
M  V30 14193 H 1347.09 -1.29906 5.85871 0
M  V30 14194 H 1348.16 -0.320774 4.83838 0
M  V30 14195 N 1349.51 -1.55583 -0.251311 0
M  V30 14196 C 1350.92 -1.47908 -0.599606 0
M  V30 14197 C 1351.12 -0.711061 -1.88537 0
M  V30 14198 O 1350.18 -0.238639 -2.5137 0
M  V30 14199 C 1351.49 -2.92284 -0.706429 0
M  V30 14200 C 1353.04 -3.02629 -0.799049 0
M  V30 14201 C 1353.51 -4.48303 -0.93747 0
M  V30 14202 N 1355 -4.52222 -1.00245 0
M  V30 14203 C 1355.74 -5.62181 -1.12874 0
M  V30 14204 N 1355.24 -6.81958 -1.22085 0
M  V30 14205 N 1357.03 -5.49968 -1.16155 0
M  V30 14206 H 1349.18 -2.0396 0.592806 0
M  V30 14207 H 1351.44 -0.925797 0.203971 0
M  V30 14208 H 1351.15 -3.51297 0.168243 0
M  V30 14209 H 1351.02 -3.42524 -1.57979 0
M  V30 14210 H 1353.41 -2.43699 -1.66418 0
M  V30 14211 H 1353.49 -2.55607 0.099367 0
M  V30 14212 H 1353.13 -5.07842 -0.0769166 0
M  V30 14213 H 1353.06 -4.93002 -1.85086 0
M  V30 14214 H 1355.56 -3.65951 -0.94279 0
M  V30 14215 H 1355.87 -7.6151 -1.31616 0
M  V30 14216 H 1354.21 -6.84728 -1.1905 0
M  V30 14217 H 1357.4 -4.55327 -1.08604 0
M  V30 14218 H 1357.58 -6.35701 -1.25653 0
M  V30 14219 N 1350.98 0.516783 -1.48886 0
M  V30 14220 C 1351.93 1.62003 -1.64389 0
M  V30 14221 C 1352.9 1.58842 -0.485633 0
M  V30 14222 O 1354.09 1.77068 -0.710742 0
M  V30 14223 C 1351.23 3.00218 -1.70186 0
M  V30 14224 C 1350.34 3.13513 -2.97209 0
M  V30 14225 C 1349.47 4.42366 -2.94084 0
M  V30 14226 C 1348.51 4.49238 -4.15754 0
M  V30 14227 N 1347.65 5.69497 -4.10631 0
M  V30 14228 H 1352.49 1.48093 -2.58597 0
M  V30 14229 H 1350.03 0.720788 -1.2823 0
M  V30 14230 H 1351.98 3.80307 -1.71529 0
M  V30 14231 H 1350.61 3.12868 -0.794578 0
M  V30 14232 H 1349.67 2.26589 -3.05551 0
M  V30 14233 H 1350.98 3.14451 -3.87197 0
M  V30 14234 H 1350.13 5.3076 -2.93902 0
M  V30 14235 H 1348.87 4.43969 -2.01847 0
M  V30 14236 H 1347.88 3.59248 -4.16198 0
M  V30 14237 H 1349.1 4.49363 -5.09166 0
M  V30 14238 H 1347.05 5.71973 -3.21222 0
M  V30 14239 H 1346.96 5.71985 -4.94337 0
M  V30 14240 H 1348.23 6.60142 -4.14527 0
M  V30 14241 N 1352.46 1.37696 0.766659 0
M  V30 14242 C 1353.87 1.29668 1.34324 0
M  V30 14243 C 1354.22 -0.0534297 1.96127 0
M  V30 14244 O 1353.35 -0.95534 1.94171 0
M  V30 14245 C 1353.94 2.34818 2.44225 0
M  V30 14246 C 1352.5 2.3041 2.97638 0
M  V30 14247 C 1351.65 2.18378 1.70899 0
M  V30 14248 H 1354.6 1.48244 0.566526 0
M  V30 14249 H 1354.62 1.99778 3.23835 0
M  V30 14250 H 1354.13 3.3307 1.99214 0
M  V30 14251 H 1352.23 1.35698 3.47011 0
M  V30 14252 H 1352.35 3.24028 3.52906 0
M  V30 14253 H 1350.71 1.65008 1.94021 0
M  V30 14254 H 1351.49 3.18551 1.27985 0
M  V30 14255 N 1353.94 -0.993397 1.22349 0
M  V30 14256 C 1355.17 -1.76581 1.0725 0
M  V30 14257 C 1355.58 -1.85346 -0.379923 0
M  V30 14258 O 1354.92 -1.3224 -1.27508 0
M  V30 14259 C 1354.98 -3.21519 1.60829 0
M  V30 14260 C 1354.65 -3.363 3.09437 0
M  V30 14261 C 1355.64 -3.23655 4.0687 0
M  V30 14262 C 1353.33 -3.61368 3.48882 0
M  V30 14263 C 1355.32 -3.3586 5.41735 0
M  V30 14264 C 1353.01 -3.73214 4.83895 0
M  V30 14265 C 1354.01 -3.60468 5.80131 0
M  V30 14266 O 1353.7 -3.7192 7.12693 0
M  V30 14267 H 1353.43 -0.561407 0.376561 0
M  V30 14268 H 1355.98 -1.25768 1.62393 0
M  V30 14269 H 1354.21 -3.73521 1.00093 0
M  V30 14270 H 1355.9 -3.80475 1.41399 0
M  V30 14271 H 1356.67 -3.04201 3.77739 0
M  V30 14272 H 1352.55 -3.70365 2.74501 0
M  V30 14273 H 1356.09 -3.25829 6.16832 0
M  V30 14274 H 1351.99 -3.92175 5.12707 0
M  V30 14275 H 1352.75 -3.88796 7.20264 0
M  V30 14276 N 1355.42 -1.03311 -1.19015 0
M  V30 14277 C 1356.67 -0.730593 -1.88432 0
M  V30 14278 C 1356.99 0.743392 -1.80274 0
M  V30 14279 O 1356.26 1.5359 -1.21601 0
M  V30 14280 H 1354.84 -0.267253 -0.697556 0
M  V30 14281 H 1357.5 -1.30824 -1.44468 0
M  V30 14282 H 1356.59 -1.02867 -2.9466 0
M  V30 14283 N 1356.9 1.35099 -0.81154 0
M  V30 14284 C 1358.31 1.51701 -0.495883 0
M  V30 14285 C 1358.51 1.7595 0.982035 0
M  V30 14286 O 1357.57 1.8038 1.7669 0
M  V30 14287 C 1358.88 2.68916 -1.34554 0
M  V30 14288 C 1360.43 2.82795 -1.34149 0
M  V30 14289 C 1360.9 4.0304 -2.17538 0
M  V30 14290 N 1362.39 4.10227 -2.151 0
M  V30 14291 C 1363.13 5.02397 -2.76377 0
M  V30 14292 N 1362.63 5.99866 -3.46601 0
M  V30 14293 N 1364.42 4.95181 -2.65992 0
M  V30 14294 H 1356.57 1.17617 -1.76862 0
M  V30 14295 H 1358.83 0.575875 -0.753042 0
M  V30 14296 H 1358.54 2.57591 -2.39458 0
M  V30 14297 H 1358.41 3.63641 -1.00223 0
M  V30 14298 H 1360.8 2.93568 -0.300285 0
M  V30 14299 H 1360.88 1.88912 -1.7247 0
M  V30 14300 H 1360.52 3.93027 -3.21702 0
M  V30 14301 H 1360.45 4.96114 -1.76574 0
M  V30 14302 H 1362.95 3.40454 -1.6401 0
M  V30 14303 H 1363.26 6.66803 -3.90632 0
M  V30 14304 H 1361.6 6.00025 -3.50706 0
M  V30 14305 H 1364.79 4.17991 -2.10715 0
M  V30 14306 H 1364.97 5.6682 -3.14036 0
M  V30 14307 N 1358.37 0.56548 1.47106 0
M  V30 14308 C 1359.32 -0.190542 2.31818 0
M  V30 14309 C 1360.32 -0.901279 1.43434 0
M  V30 14310 O 1361.52 -0.821625 1.60154 0
M  V30 14311 H 1357.9 -0.0803183 0.747698 0
M  V30 14312 H 1359.87 0.542999 2.93418 0
M  V30 14313 C 1358.62 -1.20208 3.2626 0
M  V30 14314 H 1357.94 -0.664608 3.94237 0
M  V30 14315 H 1359.38 -1.7018 3.88349 0
M  V30 14316 C 1357.84 -2.25423 2.50372 0
M  V30 14317 O 1358.37 -3.3249 2.25418 0
M  V30 14318 N 1356.57 -1.9957 2.11235 0
M  V30 14319 H 1356.12 -1.12513 2.31729 0
M  V30 14320 H 1356.08 -2.70182 1.60777 0
M  V30 14321 N 1359.85 -1.54672 0.302354 0
M  V30 14322 C 1360.8 -2.2357 -0.573141 0
M  V30 14323 C 1361.77 -1.21878 -1.12849 0
M  V30 14324 O 1362.95 -1.50502 -1.17277 0
M  V30 14325 C 1360.09 -2.98111 -1.7385 0
M  V30 14326 C 1359.21 -4.14579 -1.21441 0
M  V30 14327 C 1358.34 -4.76699 -2.34374 0
M  V30 14328 C 1357.38 -5.8531 -1.79106 0
M  V30 14329 N 1356.52 -6.41379 -2.85618 0
M  V30 14330 H 1361.36 -2.97993 0.0209969 0
M  V30 14331 H 1358.9 -1.47083 0.0221318 0
M  V30 14332 H 1360.85 -3.39561 -2.42392 0
M  V30 14333 H 1359.48 -2.26063 -2.30425 0
M  V30 14334 H 1358.54 -3.78061 -0.421204 0
M  V30 14335 H 1359.85 -4.92824 -0.769821 0
M  V30 14336 H 1359 -5.21009 -3.10861 0
M  V30 14337 H 1357.74 -3.9779 -2.8216 0
M  V30 14338 H 1356.75 -5.40423 -1.01109 0
M  V30 14339 H 1357.97 -6.66104 -1.32222 0
M  V30 14340 H 1355.92 -5.65352 -3.32735 0
M  V30 14341 H 1355.83 -7.14974 -2.45659 0
M  V30 14342 H 1357.1 -6.90346 -3.61998 0
M  V30 14343 N 1361.33 -0.0301034 -1.57571 0
M  V30 14344 C 1362.74 0.508591 -1.79639 0
M  V30 14345 C 1363.09 1.72191 -0.940458 0
M  V30 14346 O 1362.22 2.15872 -0.151138 0
M  V30 14347 C 1362.81 0.929446 -3.25802 0
M  V30 14348 C 1361.37 1.41325 -3.48861 0
M  V30 14349 C 1360.52 0.378433 -2.74706 0
M  V30 14350 H 1363.47 -0.256131 -1.56619 0
M  V30 14351 H 1363.49 1.79374 -3.35567 0
M  V30 14352 H 1363 0.0461738 -3.88073 0
M  V30 14353 H 1361.1 2.31641 -2.91844 0
M  V30 14354 H 1361.22 1.41995 -4.57574 0
M  V30 14355 H 1359.58 0.846744 -2.40213 0
M  V30 14356 H 1360.36 -0.49639 -3.39692 0
M  V30 14357 N 1362.81 1.55714 0.243056 0
M  V30 14358 C 1363.74 1.93655 1.30461 0
M  V30 14359 C 1364.72 0.801968 1.50008 0
M  V30 14360 O 1365.9 1.06256 1.62552 0
M  V30 14361 C 1363.03 2.23459 2.65863 0
M  V30 14362 C 1361.99 3.39205 2.61006 0
M  V30 14363 C 1361.31 3.5456 4.00239 0
M  V30 14364 C 1362.61 4.74787 2.17656 0
M  V30 14365 H 1364.31 2.82575 0.98954 0
M  V30 14366 H 1361.85 1.35955 0.474572 0
M  V30 14367 H 1363.81 2.48591 3.40266 0
M  V30 14368 H 1362.53 1.31369 2.99014 0
M  V30 14369 H 1361.19 3.14088 1.89061 0
M  V30 14370 H 1360.84 2.59884 4.30661 0
M  V30 14371 H 1360.54 4.32399 3.97876 0
M  V30 14372 H 1362.06 3.82017 4.76335 0
M  V30 14373 H 1363.48 4.99266 2.81792 0
M  V30 14374 H 1361.87 5.55756 2.26397 0
M  V30 14375 H 1362.94 4.7159 1.12831 0
M  V30 14376 N 1364.29 -0.50888 1.49158 0
M  V30 14377 C 1365.54 -1.26008 1.57496 0
M  V30 14378 C 1365.85 -1.9382 0.263281 0
M  V30 14379 O 1367.05 -2.70565 0.225117 0
M  V30 14380 C 1365.51 -2.28752 2.7785 0
M  V30 14381 C 1365.12 -1.66915 4.15744 0
M  V30 14382 C 1366.86 -3.0475 2.95513 0
M  V30 14383 C 1364.77 -2.67724 5.27331 0
M  V30 14384 H 1363.7 -0.473984 0.586392 0
M  V30 14385 H 1366.35 -0.534886 1.75531 0
M  V30 14386 H 1364.73 -3.044 2.53292 0
M  V30 14387 H 1365.91 -0.973131 4.50407 0
M  V30 14388 H 1364.22 -1.03336 4.03374 0
M  V30 14389 H 1366.82 -3.80121 3.76048 0
M  V30 14390 H 1367.16 -3.6189 2.05771 0
M  V30 14391 H 1367.69 -2.36217 3.20072 0
M  V30 14392 H 1364.43 -2.15375 6.19107 0
M  V30 14393 H 1363.95 -3.35589 4.97132 0
M  V30 14394 H 1365.63 -3.30304 5.56335 0
M  V30 14395 N 1365.76 -1.381 -0.759346 0
M  V30 14396 C 1366.99 -1.37389 -1.55367 0
M  V30 14397 C 1367.41 0.0356097 -1.88066 0
M  V30 14398 O 1366.77 1.0161 -1.5015 0
M  V30 14399 C 1366.82 -2.23098 -2.83302 0
M  V30 14400 O 1365.92 -1.64412 -3.7821 0
M  V30 14401 H 1365.27 -0.468894 -0.470143 0
M  V30 14402 H 1367.8 -1.81787 -0.938858 0
M  V30 14403 H 1367.81 -2.36753 -3.32283 0
M  V30 14404 H 1366.48 -3.25544 -2.58831 0
M  V30 14405 H 1365.06 -1.59867 -3.36893 0
M  V30 14406 N 1367.24 0.986894 -1.22875 0
M  V30 14407 C 1368.66 1.25185 -0.989997 0
M  V30 14408 C 1368.86 1.99057 0.31282 0
M  V30 14409 O 1367.91 2.30361 1.03392 0
M  V30 14410 C 1369.23 2.05775 -2.19265 0
M  V30 14411 C 1370.78 2.18938 -2.23686 0
M  V30 14412 C 1371.25 3.02917 -3.43519 0
M  V30 14413 N 1372.74 3.10503 -3.43718 0
M  V30 14414 C 1373.48 3.75789 -4.33094 0
M  V30 14415 N 1372.97 4.42952 -5.32696 0
M  V30 14416 N 1374.77 3.72611 -4.20854 0
M  V30 14417 H 1366.92 0.491816 -2.06628 0
M  V30 14418 H 1369.18 0.279856 -0.905751 0
M  V30 14419 H 1368.89 1.58864 -3.13776 0
M  V30 14420 H 1368.76 3.06529 -2.19818 0
M  V30 14421 H 1371.15 2.65061 -1.29718 0
M  V30 14422 H 1371.23 1.17595 -2.27168 0
M  V30 14423 H 1370.87 2.57493 -4.3779 0
M  V30 14424 H 1370.8 4.04415 -3.37277 0
M  V30 14425 H 1373.29 2.62709 -2.71647 0
M  V30 14426 H 1373.61 4.90527 -5.97162 0
M  V30 14427 H 1371.95 4.41681 -5.36603 0
M  V30 14428 H 1375.14 3.19305 -3.42289 0
M  V30 14429 H 1375.31 4.2321 -4.90711 0
M  V30 14430 N 1368.72 1.0394 1.18466 0
M  V30 14431 C 1369.95 0.762014 1.92356 0
M  V30 14432 C 1370.36 -0.680652 1.76104 0
M  V30 14433 O 1369.72 -1.46385 1.08985 0
M  V30 14434 C 1369.77 1.11717 3.43805 0
M  V30 14435 O 1369.49 2.50319 3.59544 0
M  V30 14436 C 1370.99 0.864099 4.34797 0
M  V30 14437 H 1368.21 0.277999 0.610702 0
M  V30 14438 H 1370.76 1.38672 1.503 0
M  V30 14439 H 1368.91 0.537445 3.83654 0
M  V30 14440 H 1369.33 2.63875 4.53288 0
M  V30 14441 H 1370.8 1.16247 5.39621 0
M  V30 14442 H 1371.28 -0.20117 4.38739 0
M  V30 14443 H 1371.88 1.42706 4.00643 0
M  V30 14444 N 1370.2 -1.34667 0.818693 0
M  V30 14445 C 1371.13 -2.27466 0.182904 0
M  V30 14446 C 1372.11 -1.48682 -0.65821 0
M  V30 14447 O 1373.29 -1.77912 -0.622868 0
M  V30 14448 C 1370.42 -3.30406 -0.744971 0
M  V30 14449 C 1369.47 -4.26496 0.018069 0
M  V30 14450 S 1370.3 -5.1788 1.36236 0
M  V30 14451 C 1371.46 -6.24357 0.43925 0
M  V30 14452 H 1371.69 -2.81042 0.969668 0
M  V30 14453 H 1369.22 -1.4165 0.614372 0
M  V30 14454 H 1371.18 -3.90205 -1.27478 0
M  V30 14455 H 1369.84 -2.75684 -1.50522 0
M  V30 14456 H 1369.03 -4.99294 -0.687141 0
M  V30 14457 H 1368.64 -3.70929 0.478291 0
M  V30 14458 H 1370.93 -6.76484 -0.370837 0
M  V30 14459 H 1371.87 -6.98916 1.13678 0
M  V30 14460 H 1372.28 -5.64492 0.0295605 0
M  V30 14461 N 1371.68 -0.573274 -1.46804 0
M  V30 14462 C 1372.61 0.213527 -2.27199 0
M  V30 14463 C 1373.59 0.905598 -1.35047 0
M  V30 14464 O 1374.77 0.921377 -1.64447 0
M  V30 14465 C 1371.9 1.30556 -3.12527 0
M  V30 14466 C 1370.94 0.720331 -4.20373 0
M  V30 14467 S 1371.78 -0.445518 -5.33644 0
M  V30 14468 C 1372.93 0.64794 -6.22537 0
M  V30 14469 H 1373.17 -0.468642 -2.93583 0
M  V30 14470 H 1370.7 -0.359949 -1.50146 0
M  V30 14471 H 1372.66 1.93086 -3.62254 0
M  V30 14472 H 1371.32 1.95963 -2.45474 0
M  V30 14473 H 1370.51 1.54089 -4.79867 0
M  V30 14474 H 1370.11 0.170885 -3.73609 0
M  V30 14475 H 1372.41 1.53602 -6.59858 0
M  V30 14476 H 1373.35 0.0899764 -7.08043 0
M  V30 14477 H 1373.76 0.94784 -5.56486 0
M  V30 14478 N 1373.15 1.5451 -0.310553 0
M  V30 14479 C 1374.1 2.23871 0.561277 0
M  V30 14480 C 1375.07 1.22475 1.12202 0
M  V30 14481 O 1376.26 1.51121 1.16477 0
M  V30 14482 C 1373.4 2.99029 1.72267 0
M  V30 14483 C 1372.51 4.15218 1.19241 0
M  V30 14484 C 1371.64 4.77935 2.31843 0
M  V30 14485 C 1370.68 5.86251 1.75999 0
M  V30 14486 N 1369.82 6.42885 2.82212 0
M  V30 14487 H 1374.66 2.97977 -0.0367998 0
M  V30 14488 H 1372.2 1.4707 -0.0299317 0
M  V30 14489 H 1374.16 3.40842 2.40588 0
M  V30 14490 H 1372.79 2.27281 2.29223 0
M  V30 14491 H 1371.84 3.78279 0.401148 0
M  V30 14492 H 1373.15 4.93225 0.743675 0
M  V30 14493 H 1372.3 5.2265 3.08094 0
M  V30 14494 H 1371.04 3.99281 2.80047 0
M  V30 14495 H 1370.05 5.40952 0.982415 0
M  V30 14496 H 1371.27 6.66795 1.28688 0
M  V30 14497 H 1369.22 5.67109 3.29732 0
M  V30 14498 H 1369.14 7.16267 2.41864 0
M  V30 14499 H 1370.4 6.92256 3.58332 0
M  V30 14500 N 1374.63 0.0384594 1.57553 0
M  V30 14501 C 1375.58 -0.958199 2.11946 0
M  V30 14502 C 1376.58 -1.33073 1.04823 0
M  V30 14503 O 1377.78 -1.31187 1.23247 0
M  V30 14504 H 1374.16 -0.326819 0.677269 0
M  V30 14505 H 1376.13 -0.474211 2.94608 0
M  V30 14506 C 1374.88 -2.22821 2.6692 0
M  V30 14507 H 1374.2 -1.95032 3.49002 0
M  V30 14508 H 1375.64 -2.90746 3.08614 0
M  V30 14509 C 1374.1 -2.96429 1.60098 0
M  V30 14510 O 1374.63 -3.88892 1.00628 0
M  V30 14511 N 1372.83 -2.58931 1.3192 0
M  V30 14512 H 1372.38 -1.83818 1.80468 0
M  V30 14513 H 1372.34 -3.0849 0.60674 0
M  V30 14514 N 1376.11 -1.55841 -0.234795 0
M  V30 14515 C 1377.36 -1.77438 -0.959094 0
M  V30 14516 C 1377.67 -0.604621 -1.86021 0
M  V30 14517 O 1378.88 -0.703897 -2.62217 0
M  V30 14518 C 1377.34 -3.14182 -1.7555 0
M  V30 14519 C 1376.94 -4.38843 -0.90118 0
M  V30 14520 C 1378.69 -3.45112 -2.47181 0
M  V30 14521 C 1376.59 -5.66614 -1.69417 0
M  V30 14522 H 1375.52 -0.661503 -0.361843 0
M  V30 14523 H 1378.18 -1.82255 -0.213364 0
M  V30 14524 H 1376.56 -3.03505 -2.54364 0
M  V30 14525 H 1377.73 -4.60541 -0.154515 0
M  V30 14526 H 1376.05 -4.15335 -0.297631 0
M  V30 14527 H 1378.64 -4.37794 -3.06986 0
M  V30 14528 H 1378.99 -2.66995 -3.19405 0
M  V30 14529 H 1379.52 -3.57059 -1.75368 0
M  V30 14530 H 1376.26 -6.47587 -1.01545 0
M  V30 14531 H 1375.78 -5.48998 -2.4158 0
M  V30 14532 H 1377.46 -6.06311 -2.25824 0
M  V30 14533 N 1377.59 0.500963 -1.49426 0
M  V30 14534 C 1378.52 1.61114 -1.69011 0
M  V30 14535 C 1379.5 1.61341 -0.538813 0
M  V30 14536 O 1380.69 1.78081 -0.77466 0
M  V30 14537 C 1377.82 2.99598 -1.75666 0
M  V30 14538 C 1376.77 3.14236 -2.90585 0
M  V30 14539 C 1376.1 4.54071 -2.82354 0
M  V30 14540 C 1377.4 2.94258 -4.3152 0
M  V30 14541 H 1379.09 1.44978 -2.61957 0
M  V30 14542 H 1376.64 0.69603 -1.26061 0
M  V30 14543 H 1378.59 3.77163 -1.87953 0
M  V30 14544 H 1377.31 3.16822 -0.793186 0
M  V30 14545 H 1375.97 2.39096 -2.779 0
M  V30 14546 H 1375.62 4.68172 -1.83914 0
M  V30 14547 H 1375.32 4.64806 -3.59485 0
M  V30 14548 H 1376.84 5.33696 -2.96649 0
M  V30 14549 H 1378.26 3.61592 -4.44886 0
M  V30 14550 H 1376.65 3.16464 -5.09873 0
M  V30 14551 H 1377.72 1.90383 -4.45962 0
M  V30 14552 N 1379.07 1.38501 0.752011 0
M  V30 14553 C 1380.32 1.34529 1.50819 0
M  V30 14554 C 1380.64 -0.0636155 1.94896 0
M  V30 14555 O 1379.91 -1.01161 1.6776 0
M  V30 14556 H 1378.49 0.49501 0.559441 0
M  V30 14557 H 1381.15 1.73196 0.893822 0
M  V30 14558 H 1380.24 1.99713 2.39835 0
M  V30 14559 N 1380.55 -0.980364 1.23396 0
M  V30 14560 C 1381.5 -2.05753 0.982323 0
M  V30 14561 C 1382.48 -1.6074 -0.0716939 0
M  V30 14562 O 1383.67 -1.76442 0.140438 0
M  V30 14563 C 1380.8 -3.38442 0.575481 0
M  V30 14564 C 1379.89 -3.90054 1.6649 0
M  V30 14565 N 1380.28 -4.14744 2.89519 0
M  V30 14566 C 1378.58 -4.18588 1.53949 0
M  V30 14567 C 1379.28 -4.56877 3.60053 0
M  V30 14568 N 1378.25 -4.61309 2.87567 0
M  V30 14569 H 1382.05 -2.22801 1.91669 0
M  V30 14570 H 1379.57 -1.16314 1.13335 0
M  V30 14571 H 1381.57 -4.15197 0.376477 0
M  V30 14572 H 1380.23 -3.22788 -0.351844 0
M  V30 14573 H 1381.24 -4.02566 3.25824 0
M  V30 14574 H 1377.91 -4.11937 0.679275 0
M  V30 14575 H 1379.3 -4.84498 4.65523 0
M  V30 14576 N 1382.02 -1.04567 -1.17913 0
M  V30 14577 C 1382.99 -0.645476 -2.19923 0
M  V30 14578 C 1383.99 0.299763 -1.57981 0
M  V30 14579 O 1385.18 0.0844825 -1.73995 0
M  V30 14580 C 1382.31 0.0528935 -3.40859 0
M  V30 14581 H 1383.5 -1.54828 -2.56843 0
M  V30 14582 H 1381.05 -0.838812 -1.31885 0
M  V30 14583 H 1381.79 0.969261 -3.09477 0
M  V30 14584 H 1381.57 -0.626558 -3.87062 0
M  V30 14585 H 1383.06 0.319221 -4.16378 0
M  V30 14586 N 1383.5 1.34231 -0.825823 0
M  V30 14587 C 1384.75 1.98196 -0.415276 0
M  V30 14588 C 1385.08 1.65463 1.02236 0
M  V30 14589 O 1384.33 0.919868 1.72734 0
M  V30 14590 C 1384.63 3.52861 -0.56778 0
M  V30 14591 C 1384.3 4.05512 -1.97157 0
M  V30 14592 C 1382.96 4.19602 -2.35557 0
M  V30 14593 C 1385.31 4.33798 -2.88909 0
M  V30 14594 C 1382.64 4.59307 -3.6504 0
M  V30 14595 C 1384.99 4.74949 -4.17859 0
M  V30 14596 C 1383.65 4.87245 -4.56233 0
M  V30 14597 H 1382.92 0.725251 -0.15196 0
M  V30 14598 H 1385.57 1.60126 -1.05033 0
M  V30 14599 H 1383.88 3.9151 0.15065 0
M  V30 14600 H 1385.57 4.00336 -0.230608 0
M  V30 14601 H 1382.16 3.9501 -1.66328 0
M  V30 14602 H 1386.35 4.22448 -2.60483 0
M  V30 14603 H 1381.6 4.67017 -3.94594 0
M  V30 14604 H 1385.78 4.95795 -4.8904 0
M  V30 14605 H 1383.4 5.17768 -5.56615 0
M  V30 14606 N 1384.98 0.581051 1.46498 0
M  V30 14607 C 1386.21 0.0714615 2.06476 0
M  V30 14608 C 1386.62 -1.23815 1.43061 0
M  V30 14609 O 1385.96 -1.75903 0.529504 0
M  V30 14610 C 1386.02 -0.170353 3.59096 0
M  V30 14611 C 1385.69 1.05341 4.44694 0
M  V30 14612 C 1386.68 1.96503 4.81334 0
M  V30 14613 C 1384.37 1.27479 4.85854 0
M  V30 14614 C 1386.36 3.08154 5.57961 0
M  V30 14615 C 1384.05 2.39434 5.62241 0
M  V30 14616 C 1385.05 3.29601 5.98207 0
M  V30 14617 O 1384.74 4.39612 6.7305 0
M  V30 14618 H 1384.47 0.0537502 0.67386 0
M  V30 14619 H 1387.02 0.800993 1.89138 0
M  V30 14620 H 1385.25 -0.954477 3.74735 0
M  V30 14621 H 1386.94 -0.628248 4.01009 0
M  V30 14622 H 1387.71 1.80615 4.50115 0
M  V30 14623 H 1383.59 0.582051 4.57311 0
M  V30 14624 H 1387.13 3.78557 5.85953 0
M  V30 14625 H 1383.03 2.55286 5.92874 0
M  V30 14626 H 1383.79 4.37959 6.91473 0
M  V30 14627 N 1386.46 -1.54343 0.318742 0
M  V30 14628 C 1387.39 -2.21652 -0.583351 0
M  V30 14629 C 1388.4 -1.21494 -1.08366 0
M  V30 14630 O 1389.59 -1.4799 -0.998064 0
M  V30 14631 C 1386.69 -2.86349 -1.81266 0
M  V30 14632 C 1385.86 -4.12601 -1.45186 0
M  V30 14633 C 1384.92 -4.60937 -2.53818 0
M  V30 14634 O 1383.95 -5.25731 -2.18164 0
M  V30 14635 N 1385.15 -4.34755 -3.84667 0
M  V30 14636 H 1387.92 -2.99699 -0.00703539 0
M  V30 14637 H 1385.48 -1.61278 0.141728 0
M  V30 14638 H 1387.47 -3.15611 -2.53321 0
M  V30 14639 H 1386.04 -2.12037 -2.29693 0
M  V30 14640 H 1385.26 -3.90157 -0.563143 0
M  V30 14641 H 1386.55 -4.94774 -1.18642 0
M  V30 14642 H 1385.95 -3.82883 -4.16434 0
M  V30 14643 H 1384.5 -4.68683 -4.52967 0
M  V30 14644 N 1387.94 -0.0468143 -1.5753 0
M  V30 14645 C 1388.87 0.927092 -2.14306 0
M  V30 14646 C 1389.85 1.32745 -1.06362 0
M  V30 14647 O 1391.03 1.40293 -1.34281 0
M  V30 14648 C 1388.16 2.20343 -2.68452 0
M  V30 14649 C 1387.12 1.94328 -3.81341 0
M  V30 14650 C 1386.44 3.28379 -4.21985 0
M  V30 14651 C 1387.74 1.26835 -5.06666 0
M  V30 14652 H 1389.44 0.454199 -2.95935 0
M  V30 14653 H 1386.98 0.217029 -1.42355 0
M  V30 14654 H 1388.93 2.8887 -3.0681 0
M  V30 14655 H 1387.66 2.6983 -1.84009 0
M  V30 14656 H 1386.32 1.28214 -3.43448 0
M  V30 14657 H 1385.97 3.75658 -3.34499 0
M  V30 14658 H 1385.67 3.11772 -4.98068 0
M  V30 14659 H 1387.19 3.98145 -4.6294 0
M  V30 14660 H 1388.6 1.85389 -5.42498 0
M  V30 14661 H 1387 1.20569 -5.87863 0
M  V30 14662 H 1388.07 0.243759 -4.84287 0
M  V30 14663 N 1389.41 1.55964 0.226527 0
M  V30 14664 C 1390.66 1.7901 0.95306 0
M  V30 14665 C 1390.99 0.615608 1.84184 0
M  V30 14666 O 1390.27 -0.385341 1.90645 0
M  V30 14667 C 1390.55 3.12101 1.79624 0
M  V30 14668 C 1390.4 4.3999 0.934286 0
M  V30 14669 C 1391.72 3.4159 2.77496 0
M  V30 14670 H 1388.84 0.651236 0.345052 0
M  V30 14671 H 1391.48 1.88696 0.222236 0
M  V30 14672 H 1389.63 3.03975 2.41933 0
M  V30 14673 H 1391.31 4.6013 0.328328 0
M  V30 14674 H 1389.55 4.33138 0.239487 0
M  V30 14675 H 1390.22 5.29541 1.55853 0
M  V30 14676 H 1392.7 3.49812 2.25323 0
M  V30 14677 H 1391.57 4.35894 3.33599 0
M  V30 14678 H 1391.83 2.6351 3.54986 0
M  V30 14679 N 1390.89 -0.493031 1.4969 0
M  V30 14680 C 1392.14 -1.24849 1.59814 0
M  V30 14681 C 1392.47 -1.92059 0.287555 0
M  V30 14682 O 1391.75 -1.81099 -0.709471 0
M  V30 14683 C 1392.03 -2.30929 2.76304 0
M  V30 14684 C 1391.88 -1.68167 4.17181 0
M  V30 14685 C 1393.2 -3.32427 2.8841 0
M  V30 14686 H 1390.32 -0.452553 0.581691 0
M  V30 14687 H 1392.96 -0.545455 1.82002 0
M  V30 14688 H 1391.11 -2.9089 2.57517 0
M  V30 14689 H 1392.78 -1.11971 4.47504 0
M  V30 14690 H 1391.03 -0.985496 4.22458 0
M  V30 14691 H 1391.7 -2.45148 4.94577 0
M  V30 14692 H 1394.17 -2.82464 3.05537 0
M  V30 14693 H 1393.05 -4.04004 3.71581 0
M  V30 14694 H 1393.31 -3.95234 1.98097 0
M  V30 14695 N 1392.37 -1.38898 -0.744656 0
M  V30 14696 C 1393.62 -1.35795 -1.50623 0
M  V30 14697 C 1393.95 0.0491775 -1.94138 0
M  V30 14698 O 1393.22 1.01219 -1.66087 0
M  V30 14699 C 1393.51 -2.32168 -2.75263 0
M  V30 14700 C 1393.36 -3.81781 -2.3783 0
M  V30 14701 C 1394.68 -2.26526 -3.77325 0
M  V30 14702 H 1391.8 -0.494591 -0.546396 0
M  V30 14703 H 1394.44 -1.69816 -0.852211 0
M  V30 14704 H 1392.59 -2.03287 -3.31069 0
M  V30 14705 H 1394.26 -4.21373 -1.8773 0
M  V30 14706 H 1392.51 -3.99027 -1.70176 0
M  V30 14707 H 1393.18 -4.44687 -3.27044 0
M  V30 14708 H 1395.65 -2.52041 -3.31081 0
M  V30 14709 H 1394.53 -2.96053 -4.62216 0
M  V30 14710 H 1394.79 -1.26705 -4.23554 0
M  V30 14711 N 1393.85 0.973806 -1.23914 0
M  V30 14712 C 1395.1 1.71598 -1.07519 0
M  V30 14713 C 1395.42 1.90613 0.386926 0
M  V30 14714 O 1394.68 1.46056 1.30254 0
M  V30 14715 C 1394.98 3.11441 -1.75326 0
M  V30 14716 C 1394.64 3.12286 -3.25251 0
M  V30 14717 C 1393.31 3.12224 -3.66155 0
M  V30 14718 C 1395.66 3.0709 -4.21124 0
M  V30 14719 C 1392.99 3.0469 -5.01379 0
M  V30 14720 C 1395.34 3.01098 -5.56348 0
M  V30 14721 C 1394 2.99362 -5.96606 0
M  V30 14722 H 1393.27 0.627922 -0.39344 0
M  V30 14723 H 1395.92 1.13912 -1.53936 0
M  V30 14724 H 1394.22 3.72555 -1.21286 0
M  V30 14725 H 1395.92 3.67649 -1.60111 0
M  V30 14726 H 1392.51 3.13096 -2.92693 0
M  V30 14727 H 1396.69 3.06272 -3.90527 0
M  V30 14728 H 1391.95 3.01703 -5.31776 0
M  V30 14729 H 1396.12 2.96036 -6.30346 0
M  V30 14730 H 1393.75 2.93279 -7.0135 0
M  V30 14731 N 1395.33 1.05191 1.17357 0
M  V30 14732 C 1396.55 0.782373 1.91537 0
M  V30 14733 C 1396.97 -0.661935 1.76816 0
M  V30 14734 O 1396.33 -1.45221 1.10531 0
M  V30 14735 C 1396.38 1.15357 3.426 0
M  V30 14736 O 1396.1 2.54119 3.56869 0
M  V30 14737 C 1397.6 0.910167 4.33856 0
M  V30 14738 H 1394.82 0.284461 0.607719 0
M  V30 14739 H 1397.36 1.40259 1.48821 0
M  V30 14740 H 1395.52 0.578107 3.83062 0
M  V30 14741 H 1395.93 2.68668 4.50464 0
M  V30 14742 H 1397.41 1.21964 5.38358 0
M  V30 14743 H 1397.88 -0.154624 4.38928 0
M  V30 14744 H 1398.49 1.46947 3.99107 0
M  V30 14745 N 1396.8 -1.33791 0.83293 0
M  V30 14746 C 1397.73 -2.31853 0.276846 0
M  V30 14747 C 1398.72 -1.58702 -0.612184 0
M  V30 14748 O 1399.9 -1.86629 -0.536975 0
M  V30 14749 C 1397.03 -3.42855 -0.55385 0
M  V30 14750 C 1395.98 -4.27333 0.238884 0
M  V30 14751 C 1395.31 -5.29895 -0.715187 0
M  V30 14752 C 1396.61 -5.01692 1.45265 0
M  V30 14753 H 1398.3 -2.78611 1.09618 0
M  V30 14754 H 1395.85 -1.33949 0.528562 0
M  V30 14755 H 1397.8 -4.10479 -0.953133 0
M  V30 14756 H 1396.53 -2.94771 -1.40634 0
M  V30 14757 H 1395.19 -3.61325 0.619656 0
M  V30 14758 H 1394.83 -4.7807 -1.56391 0
M  V30 14759 H 1394.53 -5.87296 -0.188921 0
M  V30 14760 H 1396.06 -6.00387 -1.11211 0
M  V30 14761 H 1397.47 -5.62117 1.12685 0
M  V30 14762 H 1395.87 -5.68715 1.91528 0
M  V30 14763 H 1396.94 -4.30809 2.22558 0
M  V30 14764 N 1398.28 -0.588812 -1.46187 0
M  V30 14765 C 1399.21 0.128595 -2.33146 0
M  V30 14766 C 1400.19 0.877608 -1.45712 0
M  V30 14767 O 1401.38 0.851866 -1.74519 0
M  V30 14768 C 1398.51 1.13886 -3.28096 0
M  V30 14769 C 1397.46 0.504296 -4.25019 0
M  V30 14770 C 1396.79 1.62147 -5.09522 0
M  V30 14771 C 1398.09 -0.562466 -5.19263 0
M  V30 14772 H 1399.78 -0.597455 -2.93378 0
M  V30 14773 H 1397.33 -0.288764 -1.41075 0
M  V30 14774 H 1399.28 1.64916 -3.8779 0
M  V30 14775 H 1398.01 1.89527 -2.65983 0
M  V30 14776 H 1396.66 0.0150325 -3.66597 0
M  V30 14777 H 1396.31 2.36769 -4.4379 0
M  V30 14778 H 1396.01 1.20249 -5.75164 0
M  V30 14779 H 1397.54 2.13441 -5.7208 0
M  V30 14780 H 1398.95 -0.137003 -5.73136 0
M  V30 14781 H 1397.35 -0.902115 -5.93281 0
M  V30 14782 H 1398.42 -1.4464 -4.62825 0
M  V30 14783 N 1399.76 1.54172 -0.326923 0
M  V30 14784 C 1401.01 2.00629 0.274641 0
M  V30 14785 C 1401.34 1.21505 1.51878 0
M  V30 14786 O 1400.59 0.286164 1.93596 0
M  V30 14787 C 1400.89 3.51429 0.650553 0
M  V30 14788 C 1400.56 4.48177 -0.494792 0
M  V30 14789 C 1399.22 4.74348 -0.809153 0
M  V30 14790 C 1401.57 5.05641 -1.26398 0
M  V30 14791 C 1398.9 5.55241 -1.89536 0
M  V30 14792 C 1401.25 5.87718 -2.34031 0
M  V30 14793 C 1399.91 6.1219 -2.66045 0
M  V30 14794 H 1399.18 0.734153 0.100498 0
M  V30 14795 H 1401.83 1.86104 -0.451397 0
M  V30 14796 H 1400.14 3.63699 1.45706 0
M  V30 14797 H 1401.83 3.84819 1.12761 0
M  V30 14798 H 1398.42 4.27929 -0.239701 0
M  V30 14799 H 1402.61 4.85401 -1.03437 0
M  V30 14800 H 1397.86 5.72432 -2.14783 0
M  V30 14801 H 1402.04 6.31264 -2.94074 0
M  V30 14802 H 1399.66 6.7466 -3.5034 0
M  V30 14803 N 1401.24 0.0551678 1.57503 0
M  V30 14804 C 1402.2 -0.903065 2.10659 0
M  V30 14805 C 1403.2 -1.23728 1.02703 0
M  V30 14806 O 1404.39 -1.17331 1.2876 0
M  V30 14807 C 1401.52 -2.21171 2.59415 0
M  V30 14808 H 1402.72 -0.442197 2.96622 0
M  V30 14809 H 1400.27 -0.193297 1.551 0
M  V30 14810 H 1401 -2.71831 1.76858 0
M  V30 14811 H 1400.79 -1.98216 3.38309 0
M  V30 14812 H 1402.28 -2.89802 3.00674 0
M  V30 14813 N 1402.72 -1.56081 -0.218252 0
M  V30 14814 C 1403.96 -1.78893 -0.940296 0
M  V30 14815 C 1404.29 -0.62425 -1.84738 0
M  V30 14816 O 1403.56 0.358686 -1.92588 0
M  V30 14817 H 1402.14 -0.659828 -0.350193 0
M  V30 14818 H 1404.8 -1.93546 -0.229316 0
M  V30 14819 H 1403.89 -2.71167 -1.54516 0
M  V30 14820 N 1404.2 0.485086 -1.49949 0
M  V30 14821 C 1405.11 1.61089 -1.70551 0
M  V30 14822 C 1406.12 1.63752 -0.588333 0
M  V30 14823 O 1407.3 1.81879 -0.86498 0
M  V30 14824 C 1404.36 2.97382 -1.78227 0
M  V30 14825 C 1403.42 3.05219 -3.01894 0
M  V30 14826 C 1402.66 4.35011 -3.09195 0
M  V30 14827 O 1402.88 5.24722 -2.23658 0
M  V30 14828 O 1401.81 4.48151 -4.01802 0
M  V30 14829 H 1405.64 1.46633 -2.65956 0
M  V30 14830 H 1403.22 0.663091 -1.33879 0
M  V30 14831 H 1405.11 3.78356 -1.85538 0
M  V30 14832 H 1403.78 3.12066 -0.860043 0
M  V30 14833 H 1402.69 2.23373 -3.00092 0
M  V30 14834 H 1404.02 2.95467 -3.93649 0
M  V30 14835 N 1405.67 1.39291 0.737279 0
M  V30 14836 C 1406.62 1.37829 1.85127 0
M  V30 14837 C 1407.59 0.238321 1.64381 0
M  V30 14838 O 1408.78 0.433081 1.8582 0
M  V30 14839 C 1405.92 1.22531 3.22615 0
M  V30 14840 C 1405.03 2.46052 3.55081 0
M  V30 14841 C 1404.16 2.2336 4.81958 0
M  V30 14842 C 1403.2 3.42569 5.0726 0
M  V30 14843 N 1402.34 3.19209 6.2534 0
M  V30 14844 H 1407.18 2.33056 1.85712 0
M  V30 14845 H 1404.72 1.15772 0.907484 0
M  V30 14846 H 1406.67 1.11673 4.01976 0
M  V30 14847 H 1405.3 0.30934 3.21314 0
M  V30 14848 H 1404.36 2.67521 2.70438 0
M  V30 14849 H 1405.67 3.3485 3.69698 0
M  V30 14850 H 1404.82 2.09732 5.69295 0
M  V30 14851 H 1403.56 1.31953 4.6951 0
M  V30 14852 H 1402.57 3.56698 4.18386 0
M  V30 14853 H 1403.79 4.34874 5.21595 0
M  V30 14854 H 1401.74 2.30464 6.14184 0
M  V30 14855 H 1401.65 4.01562 6.40534 0
M  V30 14856 H 1402.92 3.09269 7.15523 0
M  V30 14857 N 1407.15 -0.967221 1.24429 0
M  V30 14858 C 1408.4 -1.71026 1.08427 0
M  V30 14859 C 1408.73 -1.90815 -0.376812 0
M  V30 14860 O 1407.98 -1.46745 -1.29477 0
M  V30 14861 C 1408.28 -3.10507 1.76975 0
M  V30 14862 C 1407.95 -3.10557 3.26902 0
M  V30 14863 C 1406.61 -3.10278 3.67806 0
M  V30 14864 C 1408.96 -3.04852 4.22746 0
M  V30 14865 C 1406.29 -3.02027 5.02988 0
M  V30 14866 C 1408.64 -2.98143 5.57937 0
M  V30 14867 C 1407.3 -2.96193 5.98185 0
M  V30 14868 H 1406.57 -0.625827 0.396764 0
M  V30 14869 H 1409.22 -1.13094 1.54538 0
M  V30 14870 H 1407.53 -3.71906 1.2326 0
M  V30 14871 H 1409.22 -3.66794 1.62058 0
M  V30 14872 H 1405.81 -3.11539 2.94349 0
M  V30 14873 H 1410 -3.04197 3.92145 0
M  V30 14874 H 1405.25 -2.98878 5.33368 0
M  V30 14875 H 1409.43 -2.92688 6.31907 0
M  V30 14876 H 1407.05 -2.89555 7.02895 0
M  V30 14877 N 1408.63 -1.05812 -1.16797 0
M  V30 14878 C 1409.88 -0.771923 -1.8721 0
M  V30 14879 C 1410.2 0.701365 -1.81414 0
M  V30 14880 O 1409.46 1.5292 -1.22122 0
M  V30 14881 C 1409.76 -1.20565 -3.3645 0
M  V30 14882 C 1409.42 -2.68222 -3.62447 0
M  V30 14883 C 1408.09 -3.08556 -3.69251 0
M  V30 14884 C 1410.44 -3.63607 -3.73416 0
M  V30 14885 C 1407.77 -4.43126 -3.84521 0
M  V30 14886 C 1410.12 -4.97918 -3.90205 0
M  V30 14887 C 1408.78 -5.37897 -3.9525 0
M  V30 14888 H 1408.05 -0.282467 -0.68505 0
M  V30 14889 H 1410.7 -1.32633 -1.38133 0
M  V30 14890 H 1409 -0.570347 -3.87626 0
M  V30 14891 H 1410.7 -0.961326 -3.89306 0
M  V30 14892 H 1407.29 -2.3599 -3.5778 0
M  V30 14893 H 1411.48 -3.33581 -3.67474 0
M  V30 14894 H 1406.73 -4.73593 -3.86677 0
M  V30 14895 H 1410.91 -5.71716 -3.97635 0
M  V30 14896 H 1408.53 -6.42176 -4.06834 0
M  V30 14897 N 1410.11 1.33347 -0.840014 0
M  V30 14898 C 1411.38 1.92293 -0.358158 0
M  V30 14899 C 1411.76 1.76594 1.15662 0
M  V30 14900 O 1411.11 1.15503 1.97158 0
M  V30 14901 C 1411.32 3.39558 -0.806329 0
M  V30 14902 C 1412.67 4.16705 -0.81501 0
M  V30 14903 O 1413.69 3.48214 -0.75001 0
M  V30 14904 O 1412.55 5.38974 -0.903818 0
M  V30 14905 H 1409.65 0.820737 -0.101585 0
M  V30 14906 H 1412.19 1.42213 -0.925942 0
M  V30 14907 H 1410.97 3.44861 -1.84897 0
M  V30 14908 H 1410.59 3.97017 -0.215181 0
M  V30 14909 N 1411.59 0.596556 1.45873 0
M  V30 14910 C 1412.83 0.0850976 2.0152 0
M  V30 14911 C 1413.15 -1.28799 1.47208 0
M  V30 14912 O 1414.35 -1.89156 1.94762 0
M  V30 14913 C 1412.81 0.101488 3.59757 0
M  V30 14914 C 1412.42 1.47374 4.23066 0
M  V30 14915 C 1414.16 -0.355303 4.2301 0
M  V30 14916 C 1412.07 1.44711 5.73422 0
M  V30 14917 H 1411 0.0280444 0.753478 0
M  V30 14918 H 1413.65 0.750255 1.67462 0
M  V30 14919 H 1412.03 -0.630108 3.90955 0
M  V30 14920 H 1413.21 2.22617 4.03458 0
M  V30 14921 H 1411.52 1.87171 3.71962 0
M  V30 14922 H 1414.12 -0.394236 5.33245 0
M  V30 14923 H 1414.46 -1.37573 3.92911 0
M  V30 14924 H 1414.99 0.32267 3.96489 0
M  V30 14925 H 1411.73 2.44479 6.08203 0
M  V30 14926 H 1411.25 0.737102 5.95254 0
M  V30 14927 H 1412.93 1.16598 6.36407 0
M  V30 14928 N 1413.06 -1.53996 0.335095 0
M  V30 14929 C 1414.34 -1.92984 -0.318848 0
M  V30 14930 C 1414.72 -1.26585 -1.68936 0
M  V30 14931 O 1414.07 -0.413702 -2.24724 0
M  V30 14932 C 1414.28 -3.46705 -0.399568 0
M  V30 14933 C 1415.63 -4.19527 -0.654411 0
M  V30 14934 O 1416.65 -3.52923 -0.482026 0
M  V30 14935 O 1415.51 -5.37499 -0.987756 0
M  V30 14936 H 1412.6 -0.806202 -0.1843 0
M  V30 14937 H 1415.15 -1.6526 0.385653 0
M  V30 14938 H 1413.92 -3.87235 0.56253 0
M  V30 14939 H 1413.54 -3.8057 -1.15119 0
M  V30 14940 N 1414.54 -0.0635198 -1.57472 0
M  V30 14941 C 1415.77 0.620205 -1.9791 0
M  V30 14942 C 1416.19 1.62851 -0.941335 0
M  V30 14943 O 1415.55 1.81056 0.0940313 0
M  V30 14944 C 1415.6 1.27261 -3.37397 0
M  V30 14945 O 1414.7 2.38841 -3.36197 0
M  V30 14946 H 1414.04 0.16021 -0.644382 0
M  V30 14947 H 1416.57 -0.135582 -2.0415 0
M  V30 14948 H 1416.58 1.6214 -3.74399 0
M  V30 14949 H 1415.26 0.533723 -4.12461 0
M  V30 14950 H 1413.83 2.05817 -3.10956 0
M  V30 14951 N 1416.02 1.56195 0.209972 0
M  V30 14952 C 1417.27 1.7939 0.930796 0
M  V30 14953 C 1417.59 0.634038 1.84404 0
M  V30 14954 O 1416.86 -0.348467 1.92776 0
M  V30 14955 H 1415.44 0.661676 0.346689 0
M  V30 14956 H 1418.1 1.93665 0.219049 0
M  V30 14957 H 1417.2 2.71982 1.53075 0
M  V30 14958 N 1417.5 -0.477127 1.50204 0
M  V30 14959 C 1418.91 -0.81037 1.37496 0
M  V30 14960 C 1419.11 -1.96937 0.426399 0
M  V30 14961 O 1418.17 -2.52148 -0.133197 0
M  V30 14962 C 1419.48 -1.12811 2.78737 0
M  V30 14963 C 1421.03 -1.23492 2.87608 0
M  V30 14964 C 1421.51 -1.58583 4.29669 0
M  V30 14965 N 1423 -1.65586 4.32591 0
M  V30 14966 C 1423.73 -1.94231 5.39502 0
M  V30 14967 N 1423.23 -2.20936 6.56627 0
M  V30 14968 N 1425.02 -1.95682 5.26939 0
M  V30 14969 H 1417.17 0.286771 2.10455 0
M  V30 14970 H 1419.43 0.0657649 0.945716 0
M  V30 14971 H 1419.14 -0.349616 3.49958 0
M  V30 14972 H 1419.01 -2.0658 3.15602 0
M  V30 14973 H 1421.4 -2.0041 2.1661 0
M  V30 14974 H 1421.48 -0.277182 2.54294 0
M  V30 14975 H 1421.13 -0.822071 5.01203 0
M  V30 14976 H 1421.06 -2.55497 4.60466 0
M  V30 14977 H 1423.55 -1.47012 3.48132 0
M  V30 14978 H 1423.86 -2.42049 7.33916 0
M  V30 14979 H 1422.21 -2.18341 6.59812 0
M  V30 14980 H 1425.4 -1.74311 4.34434 0
M  V30 14981 H 1425.57 -2.1767 6.10347 0
M  V30 14982 N 1418.98 -1.3968 -0.729882 0
M  V30 14983 C 1419.92 -1.3896 -1.86528 0
M  V30 14984 C 1420.92 -0.272027 -1.67202 0
M  V30 14985 O 1422.12 -0.442328 -1.74481 0
M  V30 14986 H 1418.5 -0.434045 -0.614092 0
M  V30 14987 H 1420.47 -2.34721 -1.84252 0
M  V30 14988 C 1419.22 -1.255 -3.24261 0
M  V30 14989 H 1418.54 -2.10767 -3.39731 0
M  V30 14990 H 1419.98 -1.29054 -4.03882 0
M  V30 14991 C 1418.44 0.0361127 -3.36881 0
M  V30 14992 O 1418.97 1.0044 -3.8894 0
M  V30 14993 N 1417.18 0.100874 -2.90425 0
M  V30 14994 H 1416.72 -0.687797 -2.48248 0
M  V30 14995 H 1416.68 0.964251 -2.99248 0
M  V30 14996 N 1420.45 0.960609 -1.2494 0
M  V30 14997 C 1421.42 2.03791 -1.04891 0
M  V30 14998 C 1422.42 1.608 -0.00375792 0
M  V30 14999 O 1423.61 1.72463 -0.24539 0
M  V30 15000 C 1420.74 3.35733 -0.591309 0
M  V30 15001 H 1421.93 2.2301 -2.00516 0
M  V30 15002 H 1419.49 1.13686 -1.07263 0
M  V30 15003 H 1420.22 3.22207 0.367816 0
M  V30 15004 H 1420.01 3.68283 -1.34574 0
M  V30 15005 H 1421.5 4.14921 -0.472283 0
M  V30 15006 N 1421.93 1.0643 1.16234 0
M  V30 15007 C 1423.34 0.806012 1.68405 0
M  V30 15008 C 1423.69 -0.670197 1.84398 0
M  V30 15009 O 1422.82 -1.51975 1.54054 0
M  V30 15010 C 1423.41 1.45654 3.05893 0
M  V30 15011 C 1421.97 1.24599 3.55179 0
M  V30 15012 C 1421.12 1.53216 2.31128 0
M  V30 15013 H 1424.07 1.22759 1.00578 0
M  V30 15014 H 1424.09 0.872616 3.70359 0
M  V30 15015 H 1423.6 2.53092 2.94221 0
M  V30 15016 H 1421.71 0.191407 3.72108 0
M  V30 15017 H 1421.82 1.95967 4.37188 0
M  V30 15018 H 1420.18 0.952755 2.36209 0
M  V30 15019 H 1420.97 2.61816 2.22052 0
M  V30 15020 N 1423.41 -1.329 0.847073 0
M  V30 15021 C 1424.34 -2.31546 0.301422 0
M  V30 15022 C 1425.32 -1.59342 -0.595317 0
M  V30 15023 O 1426.51 -1.87188 -0.517151 0
M  V30 15024 C 1423.64 -3.43423 -0.517454 0
M  V30 15025 C 1422.59 -4.27055 0.284195 0
M  V30 15026 C 1421.92 -5.30624 -0.658944 0
M  V30 15027 C 1423.22 -5.00123 1.50578 0
M  V30 15028 H 1424.91 -2.77433 1.12567 0
M  V30 15029 H 1422.46 -1.3338 0.542739 0
M  V30 15030 H 1424.41 -4.11467 -0.909543 0
M  V30 15031 H 1423.13 -2.96246 -1.37499 0
M  V30 15032 H 1421.79 -3.60648 0.657944 0
M  V30 15033 H 1421.44 -4.79702 -1.51311 0
M  V30 15034 H 1421.14 -5.87464 -0.12662 0
M  V30 15035 H 1422.66 -6.01533 -1.04837 0
M  V30 15036 H 1424.08 -5.6089 1.18641 0
M  V30 15037 H 1422.48 -5.66652 1.97549 0
M  V30 15038 H 1423.55 -4.28424 2.27115 0
M  V30 15039 N 1424.89 -0.604284 -1.45555 0
M  V30 15040 C 1425.84 0.137842 -2.27583 0
M  V30 15041 C 1426.82 0.841681 -1.3713 0
M  V30 15042 O 1428.01 0.732216 -1.61145 0
M  V30 15043 C 1425.14 1.13675 -3.23934 0
M  V30 15044 C 1424.23 0.433916 -4.21874 0
M  V30 15045 N 1424.62 -0.522599 -5.03093 0
M  V30 15046 C 1422.92 0.681898 -4.40756 0
M  V30 15047 C 1423.62 -0.935401 -5.7413 0
M  V30 15048 N 1422.6 -0.279863 -5.42879 0
M  V30 15049 H 1426.4 -0.596862 -2.87776 0
M  V30 15050 H 1423.91 -0.427701 -1.56667 0
M  V30 15051 H 1425.91 1.68278 -3.81429 0
M  V30 15052 H 1424.57 1.87204 -2.65301 0
M  V30 15053 H 1425.58 -0.899187 -5.10034 0
M  V30 15054 H 1422.26 1.40212 -3.93252 0
M  V30 15055 H 1423.65 -1.72412 -6.49403 0
M  V30 15056 N 1426.37 1.53816 -0.343257 0
M  V30 15057 C 1427.33 2.23654 0.501161 0
M  V30 15058 C 1428.33 1.23664 1.02781 0
M  V30 15059 O 1429.52 1.48104 0.917103 0
M  V30 15060 C 1426.65 2.95596 1.69812 0
M  V30 15061 H 1427.84 2.997 -0.109626 0
M  V30 15062 H 1425.4 1.56013 -0.0946011 0
M  V30 15063 H 1426.13 2.23736 2.34761 0
M  V30 15064 H 1425.92 3.68938 1.32768 0
M  V30 15065 H 1427.41 3.48748 2.29706 0
M  V30 15066 N 1427.84 0.0718701 1.57436 0
M  V30 15067 C 1429.26 -0.460784 1.80924 0
M  V30 15068 C 1429.61 -1.69637 0.985781 0
M  V30 15069 O 1428.73 -2.15395 0.208319 0
M  V30 15070 C 1429.33 -0.842738 3.28151 0
M  V30 15071 C 1427.89 -1.32026 3.52486 0
M  V30 15072 C 1427.03 -0.305466 2.75612 0
M  V30 15073 H 1429.98 0.297566 1.55885 0
M  V30 15074 H 1430 -1.70414 3.40205 0
M  V30 15075 H 1429.52 0.056733 3.88059 0
M  V30 15076 H 1427.62 -2.23822 2.97883 0
M  V30 15077 H 1427.73 -1.29813 4.61178 0
M  V30 15078 H 1426.09 -0.782758 2.42374 0
M  V30 15079 H 1426.88 0.586279 3.38257 0
M  V30 15080 N 1429.32 -1.56304 -0.201686 0
M  V30 15081 C 1430.73 -1.7022 -0.766953 0
M  V30 15082 C 1431.08 -0.677318 -1.84138 0
M  V30 15083 O 1430.21 0.167604 -2.1575 0
M  V30 15084 C 1430.8 -3.08615 -1.39795 0
M  V30 15085 C 1429.36 -3.24317 -1.91037 0
M  V30 15086 C 1428.51 -2.66167 -0.777853 0
M  V30 15087 H 1431.46 -1.58683 0.0232884 0
M  V30 15088 H 1431.48 -3.05578 -2.26721 0
M  V30 15089 H 1430.99 -3.83185 -0.615728 0
M  V30 15090 H 1429.1 -2.54652 -2.71999 0
M  V30 15091 H 1429.21 -4.31753 -2.07669 0
M  V30 15092 H 1427.57 -2.25169 -1.19042 0
M  V30 15093 H 1428.36 -3.43299 -0.00798179 0
M  V30 15094 N 1430.8 0.469154 -1.50455 0
M  V30 15095 C 1432.03 1.24899 -1.65575 0
M  V30 15096 C 1432.45 1.85009 -0.339581 0
M  V30 15097 O 1431.81 1.67376 0.696774 0
M  V30 15098 C 1431.86 2.33205 -2.75041 0
M  V30 15099 O 1430.96 3.37898 -2.36429 0
M  V30 15100 H 1430.3 0.367362 -0.553119 0
M  V30 15101 H 1432.83 0.558083 -1.96842 0
M  V30 15102 H 1432.84 2.78487 -2.98176 0
M  V30 15103 H 1431.52 1.88826 -3.70564 0
M  V30 15104 H 1430.09 2.98314 -2.23748 0
M  V30 15105 N 1432.28 1.40065 0.722464 0
M  V30 15106 C 1433.19 1.42086 1.86678 0
M  V30 15107 C 1434.2 0.314223 1.71139 0
M  V30 15108 O 1435.38 0.55771 1.93524 0
M  V30 15109 C 1432.45 1.27498 3.22405 0
M  V30 15110 C 1431.51 2.48243 3.50248 0
M  V30 15111 C 1430.74 2.34342 4.79499 0
M  V30 15112 O 1430.96 1.35355 5.54108 0
M  V30 15113 O 1429.9 3.23579 5.07523 0
M  V30 15114 H 1433.72 2.38571 1.87929 0
M  V30 15115 H 1431.31 1.21314 0.871968 0
M  V30 15116 H 1433.19 1.21543 4.03491 0
M  V30 15117 H 1431.86 0.341141 3.21897 0
M  V30 15118 H 1430.77 2.59775 2.69199 0
M  V30 15119 H 1432.1 3.40364 3.55547 0
M  V30 15120 N 1433.76 -0.95397 1.25448 0
M  V30 15121 C 1434.71 -2.03623 1.02575 0
M  V30 15122 C 1435.69 -1.60856 -0.0375824 0
M  V30 15123 O 1436.88 -1.76104 0.177833 0
M  V30 15124 C 1434.01 -3.37145 0.64714 0
M  V30 15125 C 1433.1 -3.86434 1.74726 0
M  V30 15126 N 1433.49 -4.08509 2.98251 0
M  V30 15127 C 1431.79 -4.15228 1.62793 0
M  V30 15128 C 1432.49 -4.49137 3.69663 0
M  V30 15129 N 1431.46 -4.55106 2.97287 0
M  V30 15130 H 1435.27 -2.18685 1.96352 0
M  V30 15131 H 1432.78 -1.13884 1.15777 0
M  V30 15132 H 1434.78 -4.14305 0.464462 0
M  V30 15133 H 1433.44 -3.23462 -0.283296 0
M  V30 15134 H 1434.45 -3.95564 3.3429 0
M  V30 15135 H 1431.13 -4.10403 0.766501 0
M  V30 15136 H 1432.52 -4.74515 4.75695 0
M  V30 15137 N 1435.24 -1.07045 -1.15668 0
M  V30 15138 C 1436.47 -0.811567 -1.89992 0
M  V30 15139 C 1436.87 0.638628 -1.78096 0
M  V30 15140 O 1436.22 1.44953 -1.12846 0
M  V30 15141 C 1436.28 -1.13665 -3.41058 0
M  V30 15142 C 1435.94 -2.58681 -3.7674 0
M  V30 15143 C 1436.94 -3.56923 -3.78023 0
M  V30 15144 C 1434.62 -2.94178 -4.07142 0
M  V30 15145 C 1436.62 -4.88699 -4.09209 0
M  V30 15146 C 1434.31 -4.26152 -4.37993 0
M  V30 15147 C 1435.3 -5.23222 -4.39007 0
M  V30 15148 O 1434.99 -6.52826 -4.6912 0
M  V30 15149 H 1434.72 -0.293243 -0.609085 0
M  V30 15150 H 1437.28 -1.42941 -1.47502 0
M  V30 15151 H 1435.51 -0.461762 -3.83933 0
M  V30 15152 H 1437.2 -0.860808 -3.96667 0
M  V30 15153 H 1437.96 -3.30842 -3.54639 0
M  V30 15154 H 1433.84 -2.19272 -4.05513 0
M  V30 15155 H 1437.39 -5.6446 -4.09915 0
M  V30 15156 H 1433.28 -4.51988 -4.60844 0
M  V30 15157 H 1434.05 -6.5793 -4.86898 0
M  V30 15158 N 1436.71 1.32449 -0.85411 0
M  V30 15159 C 1437.94 2.01463 -0.471188 0
M  V30 15160 C 1438.36 1.64195 0.931954 0
M  V30 15161 O 1437.71 0.862994 1.60806 0
M  V30 15162 C 1437.76 3.56486 -0.600022 0
M  V30 15163 O 1437.49 3.92414 -1.94789 0
M  V30 15164 C 1438.99 4.42773 -0.216036 0
M  V30 15165 H 1436.21 0.644914 -0.185275 0
M  V30 15166 H 1438.75 1.6904 -1.1509 0
M  V30 15167 H 1436.91 3.87387 0.0319488 0
M  V30 15168 H 1437.32 4.87133 -1.94427 0
M  V30 15169 H 1438.79 5.50843 -0.357186 0
M  V30 15170 H 1439.27 4.31025 0.843468 0
M  V30 15171 H 1439.88 4.1726 -0.823058 0
M  V30 15172 N 1438.19 0.611994 1.45232 0
M  V30 15173 C 1439.44 0.106467 2.01419 0
M  V30 15174 C 1439.75 -1.2723 1.48566 0
M  V30 15175 O 1440.96 -1.8708 1.96757 0
M  V30 15176 C 1439.42 0.139639 3.59629 0
M  V30 15177 C 1439.02 1.51853 4.21479 0
M  V30 15178 C 1440.77 -0.310417 4.23364 0
M  V30 15179 C 1438.67 1.50785 5.71855 0
M  V30 15180 H 1437.6 0.0360345 0.753138 0
M  V30 15181 H 1440.26 0.767974 1.66657 0
M  V30 15182 H 1438.64 -0.588606 3.91601 0
M  V30 15183 H 1439.81 2.26884 4.01074 0
M  V30 15184 H 1438.13 1.91105 3.69956 0
M  V30 15185 H 1440.72 -0.337656 5.33633 0
M  V30 15186 H 1441.07 -1.33398 3.94348 0
M  V30 15187 H 1441.6 0.364704 3.96125 0
M  V30 15188 H 1438.34 2.50916 6.05575 0
M  V30 15189 H 1437.86 0.800195 5.94438 0
M  V30 15190 H 1439.54 1.23341 6.35135 0
M  V30 15191 N 1439.67 -1.53632 0.351409 0
M  V30 15192 C 1440.92 -2.01338 -0.243047 0
M  V30 15193 C 1441.25 -1.23864 -1.4957 0
M  V30 15194 O 1440.52 -0.328412 -1.91707 0
M  V30 15195 C 1440.81 -3.55886 -0.549284 0
M  V30 15196 C 1440.66 -4.44064 0.716016 0
M  V30 15197 C 1441.98 -4.18699 -1.35569 0
M  V30 15198 H 1439.1 -0.731863 -0.0868627 0
M  V30 15199 H 1441.74 -1.84005 0.473501 0
M  V30 15200 H 1439.89 -3.70787 -1.15972 0
M  V30 15201 H 1441.56 -4.40987 1.35383 0
M  V30 15202 H 1439.8 -4.12608 1.3393 0
M  V30 15203 H 1440.48 -5.50106 0.456895 0
M  V30 15204 H 1442.95 -4.07545 -0.839441 0
M  V30 15205 H 1441.83 -5.26892 -1.53871 0
M  V30 15206 H 1442.09 -3.73834 -2.3601 0
M  V30 15207 N 1441.15 -0.0802183 -1.57396 0
M  V30 15208 C 1442.39 0.586962 -1.93807 0
M  V30 15209 C 1442.72 1.69107 -0.960887 0
M  V30 15210 O 1441.98 1.95688 0.0220779 0
M  V30 15211 C 1442.28 1.19551 -3.36812 0
M  V30 15212 C 1441.94 0.216701 -4.50379 0
M  V30 15213 C 1440.6 -0.0525552 -4.81171 0
M  V30 15214 C 1442.96 -0.452467 -5.19232 0
M  V30 15215 C 1440.28 -0.997923 -5.78151 0
M  V30 15216 C 1442.64 -1.38621 -6.17225 0
M  V30 15217 C 1441.3 -1.66385 -6.4643 0
M  V30 15218 H 1440.57 0.214785 -0.709189 0
M  V30 15219 H 1443.22 -0.152888 -1.90889 0
M  V30 15220 H 1441.52 2.01129 -3.36236 0
M  V30 15221 H 1443.22 1.71918 -3.62278 0
M  V30 15222 H 1439.81 0.436747 -4.26369 0
M  V30 15223 H 1443.99 -0.257573 -4.95631 0
M  V30 15224 H 1439.25 -1.22019 -5.991 0
M  V30 15225 H 1443.42 -1.91063 -6.69677 0
M  V30 15226 H 1441.05 -2.39799 -7.21388 0
M  V30 15227 N 1442.63 1.56409 0.193394 0
M  V30 15228 C 1443.57 1.95572 1.25914 0
M  V30 15229 C 1444.57 0.841384 1.47028 0
M  V30 15230 O 1445.77 1.0264 1.47868 0
M  V30 15231 H 1442.15 0.621914 0.422761 0
M  V30 15232 H 1444.12 2.84446 0.901827 0
M  V30 15233 C 1442.87 2.31293 2.59613 0
M  V30 15234 H 1442.19 3.16568 2.44182 0
M  V30 15235 H 1443.63 2.62558 3.32926 0
M  V30 15236 C 1442.09 1.14818 3.16731 0
M  V30 15237 O 1442.62 0.424105 3.99455 0
M  V30 15238 N 1440.83 0.924536 2.75501 0
M  V30 15239 H 1440.37 1.51509 2.08334 0
M  V30 15240 H 1440.33 0.147006 3.14056 0
M  V30 15241 N 1444.1 -0.461169 1.50702 0
M  V30 15242 C 1445.33 -1.23554 1.65958 0
M  V30 15243 C 1445.75 -1.85584 0.346977 0
M  V30 15244 O 1445.1 -1.69672 -0.672129 0
M  V30 15245 C 1445.15 -2.33704 2.75799 0
M  V30 15246 O 1444.88 -1.74215 4.01971 0
M  V30 15247 C 1446.38 -3.24409 3.02116 0
M  V30 15248 H 1443.6 -0.373299 0.557574 0
M  V30 15249 H 1446.14 -0.549338 1.96984 0
M  V30 15250 H 1444.3 -2.98081 2.47439 0
M  V30 15251 H 1444.71 -2.46827 4.62792 0
M  V30 15252 H 1446.18 -3.97885 3.82611 0
M  V30 15253 H 1446.66 -3.83774 2.13576 0
M  V30 15254 H 1447.27 -2.65757 3.32044 0
M  V30 15255 N 1445.58 -1.40446 -0.715026 0
M  V30 15256 C 1446.83 -1.38754 -1.47491 0
M  V30 15257 C 1447.16 0.0099443 -1.94497 0
M  V30 15258 O 1446.41 0.99458 -1.68543 0
M  V30 15259 C 1446.71 -2.32392 -2.7153 0
M  V30 15260 C 1446.38 -3.79635 -2.43286 0
M  V30 15261 C 1445.04 -4.19751 -2.35293 0
M  V30 15262 C 1447.39 -4.72681 -2.19596 0
M  V30 15263 C 1444.72 -5.50947 -2.01679 0
M  V30 15264 C 1447.07 -6.04176 -1.87495 0
M  V30 15265 C 1445.73 -6.43333 -1.77985 0
M  V30 15266 H 1445 -0.507738 -0.539706 0
M  V30 15267 H 1447.65 -1.73104 -0.81898 0
M  V30 15268 H 1445.96 -1.91229 -3.41963 0
M  V30 15269 H 1447.65 -2.28366 -3.29621 0
M  V30 15270 H 1444.24 -3.47852 -2.50393 0
M  V30 15271 H 1448.43 -4.42506 -2.24727 0
M  V30 15272 H 1443.68 -5.80187 -1.92854 0
M  V30 15273 H 1447.86 -6.75788 -1.68179 0
M  V30 15274 H 1445.48 -7.44909 -1.51706 0
M  V30 15275 N 1447.06 0.947303 -1.25952 0
M  V30 15276 C 1448.31 1.6953 -1.11299 0
M  V30 15277 C 1448.64 1.9113 0.343961 0
M  V30 15278 O 1447.91 1.48755 1.25309 0
M  V30 15279 C 1448.2 3.0738 -1.87588 0
M  V30 15280 C 1448.05 2.93145 -3.41154 0
M  V30 15281 C 1449.37 4.07396 -1.66483 0
M  V30 15282 H 1446.49 0.615281 -0.405707 0
M  V30 15283 H 1449.13 1.10064 -1.54874 0
M  V30 15284 H 1447.28 3.58143 -1.50553 0
M  V30 15285 H 1448.95 2.49651 -3.87907 0
M  V30 15286 H 1447.19 2.28902 -3.68492 0
M  V30 15287 H 1447.87 3.9089 -3.89755 0
M  V30 15288 H 1450.34 3.65572 -1.98738 0
M  V30 15289 H 1449.22 5.01876 -2.22287 0
M  V30 15290 H 1449.48 4.379 -0.607916 0
M  V30 15291 N 1448.54 1.07657 1.15099 0
M  V30 15292 C 1449.47 0.721201 2.22083 0
M  V30 15293 C 1450.45 -0.292808 1.67561 0
M  V30 15294 O 1451.63 -0.164872 1.93499 0
M  V30 15295 C 1448.76 0.12153 3.47087 0
M  V30 15296 C 1447.72 1.06303 4.14588 0
M  V30 15297 C 1447.04 0.325964 5.33706 0
M  V30 15298 C 1448.34 2.39796 4.63999 0
M  V30 15299 H 1450.04 1.61566 2.52065 0
M  V30 15300 H 1447.58 0.778282 1.21156 0
M  V30 15301 H 1449.54 -0.139037 4.21171 0
M  V30 15302 H 1448.26 -0.808022 3.16447 0
M  V30 15303 H 1446.92 1.30858 3.4245 0
M  V30 15304 H 1446.57 -0.607147 4.99322 0
M  V30 15305 H 1446.27 0.953552 5.79811 0
M  V30 15306 H 1447.79 0.0732695 6.10556 0
M  V30 15307 H 1449.21 2.19552 5.29594 0
M  V30 15308 H 1447.6 2.98178 5.20778 0
M  V30 15309 H 1448.67 3.01876 3.79472 0
M  V30 15310 N 1450.02 -1.31994 0.861122 0
M  V30 15311 C 1450.95 -2.26769 0.255177 0
M  V30 15312 C 1451.93 -1.50701 -0.610574 0
M  V30 15313 O 1453.11 -1.79803 -0.565952 0
M  V30 15314 C 1450.24 -3.32608 -0.639478 0
M  V30 15315 C 1449.28 -4.26223 0.153746 0
M  V30 15316 S 1450.12 -5.13284 1.52643 0
M  V30 15317 C 1451.27 -6.22643 0.637662 0
M  V30 15318 H 1451.51 -2.77815 1.05859 0
M  V30 15319 H 1449.04 -1.39624 0.659126 0
M  V30 15320 H 1451 -3.94063 -1.14999 0
M  V30 15321 H 1449.66 -2.80334 -1.41675 0
M  V30 15322 H 1448.85 -5.01227 -0.527946 0
M  V30 15323 H 1448.45 -3.6922 0.596058 0
M  V30 15324 H 1450.75 -6.77322 -0.155431 0
M  V30 15325 H 1451.69 -6.94945 1.35856 0
M  V30 15326 H 1452.1 -5.64112 0.209134 0
M  V30 15327 N 1451.49 -0.619688 -1.44906 0
M  V30 15328 C 1452.43 0.130316 -2.28829 0
M  V30 15329 C 1453.44 0.820039 -1.40639 0
M  V30 15330 O 1454.63 0.683401 -1.649 0
M  V30 15331 C 1451.73 1.20618 -3.16709 0
M  V30 15332 C 1450.9 0.60121 -4.33248 0
M  V30 15333 C 1449.96 1.56954 -5.02247 0
M  V30 15334 O 1448.99 1.09112 -5.58644 0
M  V30 15335 N 1450.19 2.90395 -5.02644 0
M  V30 15336 H 1452.95 -0.589867 -2.93838 0
M  V30 15337 H 1450.51 -0.460028 -1.55227 0
M  V30 15338 H 1452.51 1.85404 -3.59732 0
M  V30 15339 H 1451.08 1.82873 -2.53528 0
M  V30 15340 H 1450.3 -0.225015 -3.93557 0
M  V30 15341 H 1451.58 0.177471 -5.0849 0
M  V30 15342 H 1450.98 3.31855 -4.58136 0
M  V30 15343 H 1449.54 3.50572 -5.49493 0
M  V30 15344 N 1452.97 1.53444 -0.359552 0
M  V30 15345 C 1453.9 2.28475 0.4818 0
M  V30 15346 C 1454.88 1.30664 1.08908 0
M  V30 15347 O 1456.07 1.59527 1.10746 0
M  V30 15348 C 1453.2 3.06951 1.62477 0
M  V30 15349 C 1452.15 4.12399 1.14504 0
M  V30 15350 C 1451.48 4.78922 2.37777 0
M  V30 15351 C 1452.78 5.21775 0.234075 0
M  V30 15352 H 1454.47 2.99053 -0.144162 0
M  V30 15353 H 1452.02 1.43826 -0.0707746 0
M  V30 15354 H 1453.97 3.58186 2.21993 0
M  V30 15355 H 1452.7 2.34053 2.27787 0
M  V30 15356 H 1451.35 3.62101 0.572589 0
M  V30 15357 H 1451 4.02602 3.0153 0
M  V30 15358 H 1450.7 5.50175 2.06353 0
M  V30 15359 H 1452.23 5.32948 2.97991 0
M  V30 15360 H 1453.64 5.68549 0.736548 0
M  V30 15361 H 1452.04 6.00099 0.0109887 0
M  V30 15362 H 1453.11 4.79443 -0.725435 0
M  V30 15363 N 1454.45 0.0885642 1.57351 0
M  V30 15364 C 1455.7 -0.576675 1.94115 0
M  V30 15365 C 1456.03 -1.68595 0.969842 0
M  V30 15366 O 1455.28 -1.95697 -0.0116998 0
M  V30 15367 C 1455.58 -1.17764 3.37441 0
M  V30 15368 C 1455.25 -0.192813 4.50488 0
M  V30 15369 C 1453.91 0.0780722 4.81137 0
M  V30 15370 C 1456.26 0.479997 5.18985 0
M  V30 15371 C 1453.59 1.02857 5.77613 0
M  V30 15372 C 1455.94 1.41892 6.16481 0
M  V30 15373 C 1454.6 1.69811 6.45539 0
M  V30 15374 H 1453.87 -0.21102 0.710318 0
M  V30 15375 H 1456.52 0.163009 1.90805 0
M  V30 15376 H 1454.83 -1.99343 3.37298 0
M  V30 15377 H 1456.52 -1.69994 3.63185 0
M  V30 15378 H 1453.11 -0.41413 4.26595 0
M  V30 15379 H 1457.3 0.283854 4.95488 0
M  V30 15380 H 1452.55 1.25194 5.98445 0
M  V30 15381 H 1456.73 1.94612 6.68655 0
M  V30 15382 H 1454.35 2.43621 7.20106 0
M  V30 15383 N 1455.93 -1.56509 -0.185096 0
M  V30 15384 C 1456.88 -1.96237 -1.24875 0
M  V30 15385 C 1457.87 -0.849169 -1.46579 0
M  V30 15386 O 1459.08 -1.03422 -1.47322 0
M  V30 15387 H 1455.45 -0.624147 -0.419457 0
M  V30 15388 H 1457.42 -2.8492 -0.88673 0
M  V30 15389 C 1456.17 -2.32667 -2.58382 0
M  V30 15390 H 1455.49 -3.17858 -2.425 0
M  V30 15391 H 1456.93 -2.6432 -3.31528 0
M  V30 15392 C 1455.39 -1.16496 -3.16118 0
M  V30 15393 O 1455.92 -0.445283 -3.99224 0
M  V30 15394 N 1454.13 -0.939133 -2.75007 0
M  V30 15395 H 1453.68 -1.52611 -2.07527 0
M  V30 15396 H 1453.63 -0.163659 -3.13974 0
M  V30 15397 N 1457.41 0.45317 -1.50944 0
M  V30 15398 C 1458.32 1.57435 -1.73929 0
M  V30 15399 C 1459.33 1.62467 -0.622935 0
M  V30 15400 O 1460.51 1.80004 -0.903365 0
M  V30 15401 C 1457.57 2.93534 -1.84495 0
M  V30 15402 C 1456.63 2.98747 -3.083 0
M  V30 15403 C 1455.87 4.28354 -3.18352 0
M  V30 15404 O 1456.09 5.1986 -2.34738 0
M  V30 15405 O 1455.02 4.39527 -4.11217 0
M  V30 15406 H 1458.85 1.40959 -2.69006 0
M  V30 15407 H 1456.44 0.634545 -1.35255 0
M  V30 15408 H 1458.32 3.74336 -1.93522 0
M  V30 15409 H 1456.99 3.10171 -0.926044 0
M  V30 15410 H 1455.9 2.16958 -3.04762 0
M  V30 15411 H 1457.23 2.87051 -3.99828 0
M  V30 15412 N 1458.88 1.40823 0.707568 0
M  V30 15413 C 1460.13 1.38837 1.46312 0
M  V30 15414 C 1460.45 -0.00353939 1.956 0
M  V30 15415 O 1461.65 -0.146022 2.71107 0
M  V30 15416 C 1460.11 2.44052 2.64512 0
M  V30 15417 C 1459.72 3.89093 2.2206 0
M  V30 15418 C 1461.46 2.51185 3.42208 0
M  V30 15419 C 1459.37 4.85887 3.37147 0
M  V30 15420 H 1458.3 0.516263 0.549535 0
M  V30 15421 H 1460.95 1.66595 0.769302 0
M  V30 15422 H 1459.33 2.09406 3.36103 0
M  V30 15423 H 1460.5 4.32925 1.57837 0
M  V30 15424 H 1458.82 3.8551 1.57388 0
M  V30 15425 H 1461.42 3.20687 4.2786 0
M  V30 15426 H 1461.76 1.54488 3.86574 0
M  V30 15427 H 1462.29 2.84862 2.77666 0
M  V30 15428 H 1459.03 5.83946 2.97805 0
M  V30 15429 H 1458.55 4.46713 4.00259 0
M  V30 15430 H 1460.23 5.06084 4.03098 0
M  V30 15431 N 1460.36 -0.94061 1.26453 0
M  V30 15432 C 1461.31 -2.06073 1.07873 0
M  V30 15433 C 1462.3 -1.69399 0.0055001 0
M  V30 15434 O 1463.51 -1.79267 0.162224 0
M  V30 15435 H 1459.89 -0.674748 0.331993 0
M  V30 15436 H 1461.86 -2.18895 2.02799 0
M  V30 15437 C 1460.61 -3.39971 0.729054 0
M  V30 15438 H 1459.93 -3.68667 1.54675 0
M  V30 15439 H 1461.37 -4.1916 0.638844 0
M  V30 15440 C 1459.83 -3.32114 -0.565835 0
M  V30 15441 O 1460.36 -3.68287 -1.60399 0
M  V30 15442 N 1458.56 -2.85218 -0.556679 0
M  V30 15443 H 1458.11 -2.55979 0.288541 0
M  V30 15444 H 1458.07 -2.80344 -1.42318 0
M  V30 15445 N 1461.84 -1.08266 -1.14527 0
M  V30 15446 C 1462.8 -0.715117 -2.17758 0
M  V30 15447 C 1463.8 0.24935 -1.58855 0
M  V30 15448 O 1464.99 0.0290846 -1.74176 0
M  V30 15449 C 1462.13 -0.055575 -3.40855 0
M  V30 15450 H 1463.32 -1.62921 -2.51787 0
M  V30 15451 H 1460.87 -0.880346 -1.2915 0
M  V30 15452 H 1461.61 0.870312 -3.12404 0
M  V30 15453 H 1461.39 -0.749382 -3.84872 0
M  V30 15454 H 1462.88 0.186592 -4.17183 0
M  V30 15455 N 1463.32 1.31536 -0.86811 0
M  V30 15456 C 1464.74 1.49461 -0.559778 0
M  V30 15457 C 1464.94 1.79957 0.906525 0
M  V30 15458 O 1463.99 1.87711 1.68881 0
M  V30 15459 C 1465.3 2.62967 -1.45839 0
M  V30 15460 C 1466.85 2.76851 -1.46023 0
M  V30 15461 C 1467.33 3.93451 -2.34436 0
M  V30 15462 N 1468.82 4.00735 -2.32306 0
M  V30 15463 C 1469.55 4.90223 -2.97437 0
M  V30 15464 N 1469.05 5.84626 -3.71731 0
M  V30 15465 N 1470.84 4.83454 -2.86755 0
M  V30 15466 H 1462.99 1.1001 -1.81691 0
M  V30 15467 H 1465.26 0.543418 -0.776789 0
M  V30 15468 H 1464.96 2.47203 -2.50168 0
M  V30 15469 H 1464.84 3.59063 -1.15556 0
M  V30 15470 H 1467.22 2.9203 -0.424527 0
M  V30 15471 H 1467.3 1.81427 -1.80327 0
M  V30 15472 H 1466.95 3.79029 -3.38082 0
M  V30 15473 H 1466.88 4.88179 -1.97457 0
M  V30 15474 H 1469.37 3.33191 -1.78303 0
M  V30 15475 H 1469.68 6.49635 -4.18562 0
M  V30 15476 H 1468.03 5.84611 -3.75839 0
M  V30 15477 H 1471.22 4.08678 -2.28254 0
M  V30 15478 H 1471.39 5.52991 -3.37795 0
M  V30 15479 N 1464.8 0.627364 1.44575 0
M  V30 15480 C 1465.74 -0.0798044 2.30662 0
M  V30 15481 C 1466.71 -0.840528 1.43263 0
M  V30 15482 O 1467.9 -0.82232 1.7217 0
M  V30 15483 C 1465.04 -1.05796 3.28483 0
M  V30 15484 C 1464.15 -0.296052 4.30984 0
M  V30 15485 C 1463.29 -1.26569 5.15901 0
M  V30 15486 C 1462.33 -0.492722 6.10114 0
M  V30 15487 N 1461.46 -1.41263 6.87742 0
M  V30 15488 H 1466.3 0.660254 2.90594 0
M  V30 15489 H 1463.84 0.337382 1.43179 0
M  V30 15490 H 1465.8 -1.63842 3.83682 0
M  V30 15491 H 1464.43 -1.7652 2.7026 0
M  V30 15492 H 1463.48 0.400259 3.78288 0
M  V30 15493 H 1464.79 0.306149 4.9786 0
M  V30 15494 H 1463.95 -1.9176 5.75598 0
M  V30 15495 H 1462.69 -1.90182 4.4909 0
M  V30 15496 H 1461.69 0.172696 5.49529 0
M  V30 15497 H 1462.92 0.138634 6.78958 0
M  V30 15498 H 1460.86 -2.03604 6.23604 0
M  V30 15499 H 1460.78 -0.864362 7.51042 0
M  V30 15500 H 1462.05 -2.0535 7.51965 0
M  V30 15501 N 1466.28 -1.53251 0.367684 0
M  V30 15502 C 1467.52 -2.00469 -0.222481 0
M  V30 15503 C 1467.84 -1.259 -1.49695 0
M  V30 15504 O 1469.04 -1.63717 -2.16585 0
M  V30 15505 C 1467.5 -3.57113 -0.447018 0
M  V30 15506 C 1467.11 -4.40562 0.812946 0
M  V30 15507 C 1468.85 -4.12681 -0.994725 0
M  V30 15508 C 1466.76 -5.88763 0.557877 0
M  V30 15509 H 1465.69 -0.748974 -0.0869144 0
M  V30 15510 H 1468.34 -1.76927 0.48675 0
M  V30 15511 H 1466.72 -3.76818 -1.21756 0
M  V30 15512 H 1467.9 -4.3263 1.58644 0
M  V30 15513 H 1466.21 -3.96108 1.28403 0
M  V30 15514 H 1468.81 -5.2104 -1.20091 0
M  V30 15515 H 1469.15 -3.67408 -1.95748 0
M  V30 15516 H 1469.68 -3.96783 -0.284295 0
M  V30 15517 H 1466.42 -6.38317 1.49102 0
M  V30 15518 H 1465.94 -5.99539 -0.177082 0
M  V30 15519 H 1467.62 -6.46738 0.18419 0
M  V30 15520 N 1467.75 -0.0969077 -1.57302 0
M  V30 15521 C 1468.7 0.872039 -2.10664 0
M  V30 15522 C 1469.69 1.24265 -1.02211 0
M  V30 15523 O 1470.88 1.21743 -1.28482 0
M  V30 15524 C 1468.01 2.13042 -2.69199 0
M  V30 15525 C 1467.09 1.78517 -3.84698 0
M  V30 15526 N 1467.49 1.14558 -4.92656 0
M  V30 15527 C 1465.78 2.08115 -3.94467 0
M  V30 15528 C 1466.48 0.986837 -5.73268 0
M  V30 15529 N 1465.46 1.50473 -5.22359 0
M  V30 15530 H 1469.26 0.373625 -2.91515 0
M  V30 15531 H 1466.78 0.10625 -1.62052 0
M  V30 15532 H 1468.77 2.83403 -3.05759 0
M  V30 15533 H 1467.43 2.63448 -1.89803 0
M  V30 15534 H 1468.44 0.812179 -5.11492 0
M  V30 15535 H 1465.12 2.60722 -3.26083 0
M  V30 15536 H 1466.51 0.48651 -6.70136 0
M  V30 15537 N 1469.23 1.56605 0.176793 0
M  V30 15538 C 1470.48 1.81324 0.892535 0
M  V30 15539 C 1470.8 0.67301 1.83018 0
M  V30 15540 O 1470.07 -0.307498 1.93472 0
M  V30 15541 H 1468.65 0.668881 0.332576 0
M  V30 15542 H 1471.31 1.94086 0.17792 0
M  V30 15543 H 1470.41 2.75168 1.47272 0
M  V30 15544 N 1470.71 -0.445159 1.51182 0
M  V30 15545 C 1471.62 -1.5651 1.74762 0
M  V30 15546 C 1472.64 -1.62134 0.631542 0
M  V30 15547 O 1473.81 -1.79522 0.912898 0
M  V30 15548 C 1470.88 -2.92552 1.86049 0
M  V30 15549 C 1469.94 -2.97108 3.0988 0
M  V30 15550 C 1469.17 -4.2666 3.2062 0
M  V30 15551 O 1469.39 -5.18608 2.37491 0
M  V30 15552 O 1468.33 -4.3734 4.13542 0
M  V30 15553 H 1472.15 -1.3953 2.6975 0
M  V30 15554 H 1469.74 -0.627363 1.3559 0
M  V30 15555 H 1471.62 -3.73304 1.95504 0
M  V30 15556 H 1470.3 -3.09676 0.94248 0
M  V30 15557 H 1469.2 -2.15338 3.05909 0
M  V30 15558 H 1470.54 -2.84927 4.01345 0
M  V30 15559 N 1472.19 -1.41197 -0.700089 0
M  V30 15560 C 1473.6 -1.23567 -1.01012 0
M  V30 15561 C 1473.8 -0.121821 -2.01131 0
M  V30 15562 O 1472.86 0.515258 -2.47187 0
M  V30 15563 C 1474.17 -2.58329 -1.53904 0
M  V30 15564 C 1475.72 -2.65473 -1.65811 0
M  V30 15565 C 1476.2 -4.00541 -2.22106 0
M  V30 15566 N 1477.69 -4.02364 -2.29472 0
M  V30 15567 C 1478.42 -5.03672 -2.74048 0
M  V30 15568 N 1477.92 -6.15371 -3.18262 0
M  V30 15569 N 1479.71 -4.91035 -2.73571 0
M  V30 15570 H 1471.86 -2.12368 -0.0367488 0
M  V30 15571 H 1474.12 -0.944713 -0.0788795 0
M  V30 15572 H 1473.83 -3.40565 -0.877964 0
M  V30 15573 H 1473.7 -2.805 -2.5219 0
M  V30 15574 H 1476.09 -1.83598 -2.31032 0
M  V30 15575 H 1476.17 -2.47117 -0.660831 0
M  V30 15576 H 1475.82 -4.82862 -1.57502 0
M  V30 15577 H 1475.75 -4.16235 -3.22577 0
M  V30 15578 H 1478.24 -3.21713 -1.98265 0
M  V30 15579 H 1478.55 -6.88548 -3.50888 0
M  V30 15580 H 1476.9 -6.18914 -3.16182 0
M  V30 15581 H 1480.09 -4.02858 -2.38376 0
M  V30 15582 H 1480.26 -5.70127 -3.07993 0
M  V30 15583 N 1473.67 0.933891 -1.2695 0
M  V30 15584 C 1474.61 2.05498 -1.08964 0
M  V30 15585 C 1475.61 1.69394 -0.0144837 0
M  V30 15586 O 1476.81 1.79179 -0.171729 0
M  V30 15587 H 1473.19 0.672978 -0.335566 0
M  V30 15588 H 1475.16 2.17817 -2.03957 0
M  V30 15589 C 1473.91 3.39579 -0.747074 0
M  V30 15590 H 1473.23 3.67842 -1.56628 0
M  V30 15591 H 1474.67 4.18815 -0.661064 0
M  V30 15592 C 1473.13 3.3241 0.548214 0
M  V30 15593 O 1473.66 3.69132 1.58443 0
M  V30 15594 N 1471.87 2.85509 0.541545 0
M  V30 15595 H 1471.41 2.55822 -0.302112 0
M  V30 15596 H 1471.37 2.81095 1.4083 0
M  V30 15597 N 1475.14 1.08871 1.13951 0
M  V30 15598 C 1476.39 0.822504 1.85372 0
M  V30 15599 C 1476.72 -0.650183 1.82993 0
M  V30 15600 O 1476 -1.4783 1.26398 0
M  V30 15601 C 1476.28 1.35107 3.33793 0
M  V30 15602 C 1476.13 2.88945 3.44719 0
M  V30 15603 C 1477.45 0.980203 4.29045 0
M  V30 15604 H 1474.57 0.300255 0.673065 0
M  V30 15605 H 1477.21 1.34914 1.33784 0
M  V30 15606 H 1475.36 0.903108 3.77857 0
M  V30 15607 H 1477.04 3.42148 3.09407 0
M  V30 15608 H 1475.28 3.26365 2.85777 0
M  V30 15609 H 1475.95 3.21004 4.49066 0
M  V30 15610 H 1478.43 1.36646 3.93023 0
M  V30 15611 H 1477.3 1.37717 5.31343 0
M  V30 15612 H 1477.56 -0.112253 4.41957 0
M  V30 15613 N 1476.62 -1.31073 0.875073 0
M  V30 15614 C 1477.87 -1.96518 0.488549 0
M  V30 15615 C 1478.2 -1.69144 -0.960243 0
M  V30 15616 O 1477.45 -0.983344 -1.69201 0
M  V30 15617 C 1477.75 -3.50511 0.698351 0
M  V30 15618 C 1477.42 -3.97915 2.12071 0
M  V30 15619 C 1476.08 -4.10571 2.50968 0
M  V30 15620 C 1478.43 -4.22777 3.0481 0
M  V30 15621 C 1475.76 -4.45442 3.81836 0
M  V30 15622 C 1478.11 -4.59114 4.35198 0
M  V30 15623 C 1476.77 -4.69977 4.74002 0
M  V30 15624 H 1476.04 -0.719111 0.178773 0
M  V30 15625 H 1478.69 -1.56117 1.10904 0
M  V30 15626 H 1477 -3.918 -0.00523937 0
M  V30 15627 H 1478.69 -3.99205 0.379031 0
M  V30 15628 H 1475.28 -3.88565 1.80874 0
M  V30 15629 H 1479.47 -4.12489 2.75983 0
M  V30 15630 H 1474.72 -4.52051 4.11655 0
M  V30 15631 H 1478.9 -4.77303 5.07105 0
M  V30 15632 H 1476.52 -4.96753 5.75448 0
M  V30 15633 N 1478.1 -0.635022 -1.4424 0
M  V30 15634 C 1479.01 0.0686832 -2.34499 0
M  V30 15635 C 1480.03 0.831574 -1.52843 0
M  V30 15636 O 1481.2 0.782954 -1.85558 0
M  V30 15637 C 1478.27 1.03543 -3.30877 0
M  V30 15638 C 1477.33 0.271484 -4.28441 0
M  V30 15639 C 1476.56 1.19218 -5.20214 0
M  V30 15640 O 1476.78 2.43101 -5.16002 0
M  V30 15641 O 1475.72 0.6744 -5.9811 0
M  V30 15642 H 1479.54 -0.673781 -2.96132 0
M  V30 15643 H 1477.13 -0.395211 -1.44078 0
M  V30 15644 H 1479.01 1.59151 -3.90191 0
M  V30 15645 H 1477.69 1.75844 -2.71773 0
M  V30 15646 H 1476.59 -0.327736 -3.72662 0
M  V30 15647 H 1477.93 -0.411584 -4.90476 0
M  V30 15648 N 1479.58 1.53054 -0.375806 0
M  V30 15649 C 1480.83 2.01003 0.210257 0
M  V30 15650 C 1481.15 1.26451 1.48442 0
M  V30 15651 O 1480.42 0.380687 1.92166 0
M  V30 15652 H 1479 0.74263 0.0806861 0
M  V30 15653 H 1481.66 1.8826 -0.504393 0
M  V30 15654 H 1480.76 3.09123 0.430027 0
M  V30 15655 N 1481.06 0.105248 1.57248 0
M  V30 15656 C 1482.31 -0.555797 1.93891 0
M  V30 15657 C 1482.62 -1.68703 0.989883 0
M  V30 15658 O 1483.82 -2.40991 1.25043 0
M  V30 15659 C 1482.28 -1.04006 3.44544 0
M  V30 15660 C 1481.89 0.0619641 4.47957 0
M  V30 15661 C 1483.63 -1.67327 3.90131 0
M  V30 15662 C 1481.54 -0.438229 5.89774 0
M  V30 15663 H 1480.47 -0.211391 0.723761 0
M  V30 15664 H 1483.12 0.182887 1.82586 0
M  V30 15665 H 1481.5 -1.83275 3.51036 0
M  V30 15666 H 1482.68 0.837803 4.5312 0
M  V30 15667 H 1480.99 0.600973 4.1204 0
M  V30 15668 H 1483.59 -2.0584 4.93492 0
M  V30 15669 H 1483.93 -2.54638 3.29341 0
M  V30 15670 H 1484.46 -0.946231 3.86382 0
M  V30 15671 H 1481.2 0.398506 6.54288 0
M  V30 15672 H 1480.72 -1.18085 5.88061 0
M  V30 15673 H 1482.4 -0.903922 6.40655 0
M  V30 15674 N 1482.53 -1.56697 -0.168486 0
M  V30 15675 C 1483.78 -1.82154 -0.884654 0
M  V30 15676 C 1484.11 -0.682778 -1.82122 0
M  V30 15677 O 1483.36 0.32977 -1.92902 0
M  V30 15678 C 1483.66 -3.138 -1.71068 0
M  V30 15679 C 1483.33 -4.41356 -0.922793 0
M  V30 15680 C 1481.99 -4.76002 -0.705352 0
M  V30 15681 C 1484.34 -5.19883 -0.370323 0
M  V30 15682 C 1481.67 -5.86651 0.0756121 0
M  V30 15683 C 1484.02 -6.31349 0.397568 0
M  V30 15684 C 1482.69 -6.6456 0.625782 0
M  V30 15685 H 1481.96 -0.666549 -0.323718 0
M  V30 15686 H 1484.6 -1.90916 -0.149432 0
M  V30 15687 H 1482.91 -3.00393 -2.51538 0
M  V30 15688 H 1484.61 -3.30708 -2.2679 0
M  V30 15689 H 1481.2 -4.14182 -1.10231 0
M  V30 15690 H 1485.38 -4.93509 -0.525646 0
M  V30 15691 H 1480.64 -6.10838 0.262137 0
M  V30 15692 H 1484.81 -6.91401 0.832902 0
M  V30 15693 H 1482.44 -7.50137 1.23281 0
M  V30 15694 N 1484.01 0.437135 -1.51416 0
M  V30 15695 C 1484.96 1.55124 -1.73319 0
M  V30 15696 C 1485.95 1.58437 -0.599511 0
M  V30 15697 O 1487.16 1.62179 -0.780896 0
M  V30 15698 H 1483.54 0.515368 -0.547632 0
M  V30 15699 H 1485.51 1.33824 -2.66709 0
M  V30 15700 C 1484.26 2.92778 -1.87554 0
M  V30 15701 H 1483.58 2.9096 -2.74194 0
M  V30 15702 H 1485.02 3.70097 -2.06891 0
M  V30 15703 C 1483.48 3.30854 -0.635408 0
M  V30 15704 O 1484.01 4.01152 0.20983 0
M  V30 15705 N 1482.21 2.86618 -0.47944 0
M  V30 15706 H 1481.76 2.29582 -1.16834 0
M  V30 15707 H 1481.72 3.12456 0.349078 0
M  V30 15708 N 1485.49 1.41566 0.692592 0
M  V30 15709 C 1486.44 1.43857 1.82779 0
M  V30 15710 C 1487.43 0.316262 1.66422 0
M  V30 15711 O 1488.64 0.488433 1.73246 0
M  V30 15712 H 1485.01 0.450174 0.602368 0
M  V30 15713 H 1486.98 2.39524 1.77964 0
M  V30 15714 C 1485.73 1.34054 3.20819 0
M  V30 15715 H 1485.06 2.19701 3.34023 0
M  V30 15716 H 1486.5 1.39717 4.00319 0
M  V30 15717 C 1484.96 0.053218 3.36858 0
M  V30 15718 O 1485.49 -0.900928 3.91467 0
M  V30 15719 N 1483.69 -0.0238376 2.9059 0
M  V30 15720 H 1483.24 0.753374 2.46337 0
M  V30 15721 H 1483.2 -0.884571 3.017 0
M  V30 15722 N 1486.97 -0.927146 1.27443 0
M  V30 15723 C 1487.93 -2.00938 1.10257 0
M  V30 15724 C 1488.93 -1.60733 0.0463898 0
M  V30 15725 O 1490.12 -1.71752 0.291029 0
M  V30 15726 C 1487.25 -3.34047 0.680115 0
M  V30 15727 H 1488.45 -2.17615 2.06358 0
M  V30 15728 H 1486 -1.10802 1.10239 0
M  V30 15729 H 1486.73 -3.23069 -0.282259 0
M  V30 15730 H 1486.52 -3.64585 1.44291 0
M  V30 15731 H 1488.01 -4.13523 0.582126 0
M  V30 15732 N 1488.45 -1.09474 -1.13372 0
M  V30 15733 C 1489.7 -0.825968 -1.84013 0
M  V30 15734 C 1490.01 0.650623 -1.84462 0
M  V30 15735 O 1491.21 1.03495 -2.51 0
M  V30 15736 C 1489.67 -1.42769 -3.30371 0
M  V30 15737 C 1489.28 -2.93686 -3.38308 0
M  V30 15738 C 1491.02 -1.23788 -4.0605 0
M  V30 15739 C 1488.93 -3.46942 -4.78942 0
M  V30 15740 H 1487.86 -0.305322 -0.689416 0
M  V30 15741 H 1490.51 -1.31751 -1.27726 0
M  V30 15742 H 1488.89 -0.86384 -3.86463 0
M  V30 15743 H 1490.07 -3.56302 -2.92208 0
M  V30 15744 H 1488.38 -3.11706 -2.76094 0
M  V30 15745 H 1490.98 -1.61031 -5.09876 0
M  V30 15746 H 1491.32 -0.178578 -4.15917 0
M  V30 15747 H 1491.85 -1.76927 -3.56289 0
M  V30 15748 H 1488.59 -4.52495 -4.74267 0
M  V30 15749 H 1488.11 -2.8909 -5.25535 0
M  V30 15750 H 1489.79 -3.44176 -5.47861 0
M  V30 15751 N 1489.92 1.30607 -0.882012 0
M  V30 15752 C 1491.17 1.96256 -0.498964 0
M  V30 15753 C 1491.5 1.69651 0.951259 0
M  V30 15754 O 1490.75 0.992303 1.68677 0
M  V30 15755 C 1491.05 3.50136 -0.716929 0
M  V30 15756 C 1490.72 3.96785 -2.14178 0
M  V30 15757 C 1489.38 4.09234 -2.53142 0
M  V30 15758 C 1491.73 4.21154 -3.07048 0
M  V30 15759 C 1489.06 4.43411 -3.84192 0
M  V30 15760 C 1491.41 4.56799 -4.37627 0
M  V30 15761 C 1490.08 4.67456 -4.76488 0
M  V30 15762 H 1489.35 0.718153 -0.182584 0
M  V30 15763 H 1491.99 1.55527 -1.1173 0
M  V30 15764 H 1490.3 3.91797 -0.0155388 0
M  V30 15765 H 1492 3.98998 -0.400196 0
M  V30 15766 H 1488.59 3.876 -1.82932 0
M  V30 15767 H 1492.77 4.1102 -2.78167 0
M  V30 15768 H 1488.03 4.49861 -4.14047 0
M  V30 15769 H 1492.2 4.74607 -5.09629 0
M  V30 15770 H 1489.83 4.93694 -5.78074 0
M  V30 15771 N 1491.4 0.642663 1.43901 0
M  V30 15772 C 1492.64 0.15524 2.0381 0
M  V30 15773 C 1493.01 -1.20426 1.49538 0
M  V30 15774 O 1494.21 -1.78447 2.01022 0
M  V30 15775 C 1492.48 0.153714 3.57069 0
M  V30 15776 S 1494.04 -0.267404 4.37984 0
M  V30 15777 H 1490.86 0.0667514 0.70786 0
M  V30 15778 H 1493.46 0.848636 1.7612 0
M  V30 15779 H 1492.16 1.14608 3.94073 0
M  V30 15780 H 1491.69 -0.56056 3.89386 0
M  V30 15781 H 1493.71 -1.50887 4.72702 0
M  V30 15782 N 1492.88 -1.52852 0.383918 0
M  V30 15783 C 1494.11 -2.05929 -0.200216 0
M  V30 15784 C 1494.52 -1.25606 -1.40956 0
M  V30 15785 O 1493.88 -0.301336 -1.79995 0
M  V30 15786 C 1493.93 -3.56887 -0.575655 0
M  V30 15787 O 1493.65 -4.34168 0.58564 0
M  V30 15788 C 1495.15 -4.2629 -1.21623 0
M  V30 15789 H 1492.37 -0.670261 -0.0314727 0
M  V30 15790 H 1494.92 -1.97032 0.547591 0
M  V30 15791 H 1493.07 -3.65875 -1.27336 0
M  V30 15792 H 1493.49 -5.23761 0.278267 0
M  V30 15793 H 1494.96 -5.33174 -1.42933 0
M  V30 15794 H 1495.44 -3.81163 -2.182 0
M  V30 15795 H 1496.04 -4.21605 -0.559435 0
M  V30 15796 N 1494.36 -0.113586 -1.5719 0
M  V30 15797 C 1495.61 0.545507 -1.94183 0
M  V30 15798 C 1495.92 1.68176 -0.998816 0
M  V30 15799 O 1497.13 2.40324 -1.26319 0
M  V30 15800 C 1495.58 1.02178 -3.45091 0
M  V30 15801 C 1495.19 -0.0857195 -4.47918 0
M  V30 15802 C 1496.94 1.65255 -3.91013 0
M  V30 15803 C 1494.84 0.406946 -5.89998 0
M  V30 15804 H 1493.77 0.20755 -0.724872 0
M  V30 15805 H 1496.42 -0.192567 -1.82487 0
M  V30 15806 H 1494.81 1.81411 -3.52003 0
M  V30 15807 H 1495.98 -0.861821 -4.52669 0
M  V30 15808 H 1494.29 -0.622816 -4.11716 0
M  V30 15809 H 1496.89 2.0322 -4.94576 0
M  V30 15810 H 1497.23 2.52888 -3.30687 0
M  V30 15811 H 1497.77 0.925727 -3.86879 0
M  V30 15812 H 1494.51 -0.433199 -6.54067 0
M  V30 15813 H 1494.03 1.14965 -5.88679 0
M  V30 15814 H 1495.71 0.869934 -6.41125 0
M  V30 15815 N 1495.84 1.56784 0.160173 0
M  V30 15816 C 1497.08 1.82891 0.876278 0
M  V30 15817 C 1497.42 0.693173 1.81408 0
M  V30 15818 O 1496.69 -0.304136 1.92107 0
M  V30 15819 C 1496.97 3.19439 1.66226 0
M  V30 15820 C 1496.83 4.43557 0.746831 0
M  V30 15821 C 1498.15 3.53053 2.62758 0
M  V30 15822 H 1495.27 0.665285 0.31712 0
M  V30 15823 H 1497.91 1.89469 0.142004 0
M  V30 15824 H 1496.06 3.13962 2.28823 0
M  V30 15825 H 1497.73 4.61109 0.132876 0
M  V30 15826 H 1495.97 4.33764 0.0555625 0
M  V30 15827 H 1496.64 5.35675 1.33253 0
M  V30 15828 H 1499.12 3.59054 2.10284 0
M  V30 15829 H 1498 4.4965 3.14811 0
M  V30 15830 H 1498.26 2.78329 3.4349 0
M  V30 15831 N 1497.32 -0.429099 1.51646 0
M  V30 15832 C 1498.25 -1.52867 1.76505 0
M  V30 15833 C 1499.23 -1.58586 0.615178 0
M  V30 15834 O 1500.41 -1.74182 0.858742 0
M  V30 15835 C 1497.54 -2.90875 1.8976 0
M  V30 15836 C 1496.5 -3.00014 3.05247 0
M  V30 15837 C 1495.82 -4.40082 3.03696 0
M  V30 15838 C 1497.12 -2.73334 4.45068 0
M  V30 15839 H 1498.82 -1.32315 2.68576 0
M  V30 15840 H 1496.36 -0.635091 1.29238 0
M  V30 15841 H 1498.31 -3.67765 2.05734 0
M  V30 15842 H 1497.04 -3.12677 0.943442 0
M  V30 15843 H 1495.7 -2.25565 2.88991 0
M  V30 15844 H 1495.35 -4.58864 2.06042 0
M  V30 15845 H 1495.05 -4.47125 3.81252 0
M  V30 15846 H 1496.57 -5.18935 3.21774 0
M  V30 15847 H 1497.98 -3.39954 4.61632 0
M  V30 15848 H 1496.38 -2.91777 5.24391 0
M  V30 15849 H 1497.45 -1.68889 4.54538 0
M  V30 15850 N 1498.79 -1.41931 -0.685074 0
M  V30 15851 C 1500.04 -1.41571 -1.44229 0
M  V30 15852 C 1500.36 -0.0294445 -1.94978 0
M  V30 15853 O 1499.63 0.930414 -1.72395 0
M  V30 15854 H 1498.21 -0.521138 -0.535186 0
M  V30 15855 H 1500.87 -1.77263 -0.81017 0
M  V30 15856 H 1499.97 -2.10929 -2.30034 0
M  V30 15857 N 1500.27 0.920374 -1.27933 0
M  V30 15858 C 1501.5 1.70275 -1.17533 0
M  V30 15859 C 1501.91 1.86904 0.266903 0
M  V30 15860 O 1501.27 1.39131 1.18105 0
M  V30 15861 C 1501.32 3.09847 -1.86219 0
M  V30 15862 O 1501.04 2.93992 -3.24808 0
M  V30 15863 C 1502.54 4.042 -1.82037 0
M  V30 15864 H 1499.76 0.53248 -0.408297 0
M  V30 15865 H 1502.31 1.1524 -1.68938 0
M  V30 15866 H 1500.46 3.61719 -1.38701 0
M  V30 15867 H 1500.88 3.82281 -3.59112 0
M  V30 15868 H 1502.35 4.99621 -2.34697 0
M  V30 15869 H 1502.83 4.32013 -0.791295 0
M  V30 15870 H 1503.43 3.58254 -2.29203 0
M  V30 15871 N 1501.75 1.10074 1.1279 0
M  V30 15872 C 1503 0.840873 1.84216 0
M  V30 15873 C 1503.32 -0.633551 1.83892 0
M  V30 15874 O 1502.58 -1.48283 1.27714 0
M  V30 15875 C 1502.88 1.32969 3.31744 0
M  V30 15876 C 1502.54 2.81489 3.52242 0
M  V30 15877 C 1501.21 3.22048 3.57545 0
M  V30 15878 C 1503.56 3.77216 3.59664 0
M  V30 15879 C 1500.89 4.57092 3.67809 0
M  V30 15880 C 1503.24 5.12057 3.71457 0
M  V30 15881 C 1501.9 5.52196 3.75014 0
M  V30 15882 H 1501.17 0.307697 0.674095 0
M  V30 15883 H 1503.82 1.37669 1.33115 0
M  V30 15884 H 1502.12 0.713819 3.85243 0
M  V30 15885 H 1503.82 1.10515 3.8547 0
M  V30 15886 H 1500.41 2.49106 3.48775 0
M  V30 15887 H 1504.6 3.4699 3.5484 0
M  V30 15888 H 1499.85 4.87618 3.68834 0
M  V30 15889 H 1504.03 5.86081 3.76142 0
M  V30 15890 H 1501.65 6.56833 3.8272 0
M  V30 15891 N 1503.23 -1.30138 0.888926 0
M  V30 15892 C 1504.47 -1.96279 0.51012 0
M  V30 15893 C 1504.81 -1.69984 -0.939096 0
M  V30 15894 O 1504.08 -1.00677 -1.66416 0
M  V30 15895 C 1504.36 -3.51321 0.790305 0
M  V30 15896 C 1504.22 -3.87116 2.29044 0
M  V30 15897 C 1505.54 -4.39274 0.269477 0
M  V30 15898 H 1502.66 -0.712931 0.18681 0
M  V30 15899 H 1505.3 -1.53942 1.11364 0
M  V30 15900 H 1503.45 -3.87514 0.276647 0
M  V30 15901 H 1505.12 -3.60926 2.87281 0
M  V30 15902 H 1503.36 -3.35044 2.7555 0
M  V30 15903 H 1504.03 -4.95288 2.43708 0
M  V30 15904 H 1506.51 -4.10012 0.709173 0
M  V30 15905 H 1505.39 -5.46665 0.494815 0
M  V30 15906 H 1505.65 -4.3425 -0.829434 0
M  V30 15907 N 1504.71 -0.650285 -1.43559 0
M  V30 15908 C 1505.95 -0.162725 -2.02146 0
M  V30 15909 C 1506.28 1.21911 -1.51166 0
M  V30 15910 O 1505.56 1.81329 -0.703563 0
M  V30 15911 C 1505.84 -0.170356 -3.59697 0
M  V30 15912 C 1505.7 -1.5859 -4.20915 0
M  V30 15913 C 1507.01 0.494831 -4.37309 0
M  V30 15914 H 1504.13 -0.0606055 -0.734504 0
M  V30 15915 H 1506.78 -0.830411 -1.70892 0
M  V30 15916 H 1504.93 0.39819 -3.86454 0
M  V30 15917 H 1506.6 -2.20481 -4.05199 0
M  V30 15918 H 1504.84 -2.13407 -3.77677 0
M  V30 15919 H 1505.51 -1.54312 -5.29992 0
M  V30 15920 H 1507.99 0.0111281 -4.16099 0
M  V30 15921 H 1506.86 0.458753 -5.4698 0
M  V30 15922 H 1507.12 1.56846 -4.13342 0
M  V30 15923 N 1506.18 1.52647 -0.392018 0
M  V30 15924 C 1507.12 2.24183 0.476934 0
M  V30 15925 C 1508.13 1.26526 1.02446 0
M  V30 15926 O 1509.32 1.52583 0.92632 0
M  V30 15927 C 1506.42 2.94672 1.67397 0
M  V30 15928 C 1505.59 4.19058 1.25335 0
M  V30 15929 C 1504.65 4.72522 2.31537 0
M  V30 15930 O 1503.68 5.35541 1.92833 0
M  V30 15931 N 1504.88 4.52613 3.63486 0
M  V30 15932 H 1507.64 2.99391 -0.135963 0
M  V30 15933 H 1505.2 1.60419 -0.218514 0
M  V30 15934 H 1507.2 3.27338 2.37975 0
M  V30 15935 H 1505.77 2.22755 2.19315 0
M  V30 15936 H 1504.99 3.92399 0.376352 0
M  V30 15937 H 1506.27 4.99871 0.94901 0
M  V30 15938 H 1505.67 4.02316 3.97692 0
M  V30 15939 H 1504.23 4.89761 4.3009 0
M  V30 15940 N 1507.66 0.121921 1.57128 0
M  V30 15941 C 1508.91 -0.535201 1.9447 0
M  V30 15942 C 1509.22 -1.67644 1.00772 0
M  V30 15943 O 1510.43 -2.39651 1.27592 0
M  V30 15944 C 1508.89 -1.00346 3.45628 0
M  V30 15945 C 1508.49 0.109473 4.47866 0
M  V30 15946 C 1510.24 -1.63179 3.91884 0
M  V30 15947 C 1508.15 -0.375651 5.90206 0
M  V30 15948 H 1507.08 -0.203702 0.725962 0
M  V30 15949 H 1509.73 0.202243 1.82382 0
M  V30 15950 H 1508.11 -1.79541 3.5296 0
M  V30 15951 H 1509.28 0.885815 4.52206 0
M  V30 15952 H 1507.6 0.644642 4.1138 0
M  V30 15953 H 1510.19 -2.00594 4.95647 0
M  V30 15954 H 1510.54 -2.5113 3.32023 0
M  V30 15955 H 1511.07 -0.905197 3.87364 0
M  V30 15956 H 1507.81 0.46788 6.53828 0
M  V30 15957 H 1507.33 -1.11841 5.89281 0
M  V30 15958 H 1509.01 -0.835921 6.41577 0
M  V30 15959 N 1509.14 -1.56867 -0.151857 0
M  V30 15960 C 1510.39 -1.82273 -0.863689 0
M  V30 15961 C 1510.7 -0.702377 -1.82554 0
M  V30 15962 O 1511.91 -0.841903 -2.58117 0
M  V30 15963 C 1510.36 -3.23046 -1.58649 0
M  V30 15964 C 1509.97 -4.43003 -0.667292 0
M  V30 15965 C 1511.72 -3.57729 -2.28539 0
M  V30 15966 C 1509.62 -5.74798 -1.39144 0
M  V30 15967 H 1508.55 -0.679753 -0.326269 0
M  V30 15968 H 1511.2 -1.8313 -0.116454 0
M  V30 15969 H 1509.59 -3.16561 -2.37918 0
M  V30 15970 H 1510.76 -4.60712 0.0898254 0
M  V30 15971 H 1509.08 -4.16329 -0.0770521 0
M  V30 15972 H 1511.67 -4.53451 -2.83348 0
M  V30 15973 H 1512.02 -2.8355 -3.04803 0
M  V30 15974 H 1512.55 -3.65853 -1.56194 0
M  V30 15975 H 1509.29 -6.52059 -0.670747 0
M  V30 15976 H 1508.81 -5.61032 -2.12139 0
M  V30 15977 H 1510.49 -6.17429 -1.93367 0
M  V30 15978 N 1510.62 0.421051 -1.51871 0
M  V30 15979 C 1511.87 1.16611 -1.64574 0
M  V30 15980 C 1512.18 1.91955 -0.375835 0
M  V30 15981 O 1513.39 2.68792 -0.382481 0
M  V30 15982 C 1511.84 2.12164 -2.90714 0
M  V30 15983 C 1511.45 1.42392 -4.24769 0
M  V30 15984 C 1513.19 2.87002 -3.12778 0
M  V30 15985 C 1511.1 2.36523 -5.42043 0
M  V30 15986 H 1510.03 0.438989 -0.613029 0
M  V30 15987 H 1512.68 0.431636 -1.78351 0
M  V30 15988 H 1511.06 2.89114 -2.70608 0
M  V30 15989 H 1512.24 0.708875 -4.55315 0
M  V30 15990 H 1510.55 0.796421 -4.08713 0
M  V30 15991 H 1513.15 3.5755 -3.9757 0
M  V30 15992 H 1513.49 3.49277 -2.2652 0
M  V30 15993 H 1514.03 2.17154 -3.333 0
M  V30 15994 H 1510.77 1.78913 -6.30611 0
M  V30 15995 H 1510.29 3.06034 -5.15852 0
M  V30 15996 H 1511.96 2.97306 -5.74646 0
M  V30 15997 N 1512.1 1.42293 0.677538 0
M  V30 15998 C 1513.34 1.42827 1.43973 0
M  V30 15999 C 1513.68 0.0435041 1.94151 0
M  V30 16000 O 1512.95 -0.931794 1.70727 0
M  V30 16001 C 1513.23 2.45037 2.63873 0
M  V30 16002 C 1513.09 3.92694 2.19344 0
M  V30 16003 C 1514.41 2.4427 3.66087 0
M  V30 16004 H 1511.52 0.520097 0.522176 0
M  V30 16005 H 1514.17 1.73688 0.770219 0
M  V30 16006 H 1512.32 2.18851 3.20993 0
M  V30 16007 H 1513.99 4.2985 1.67412 0
M  V30 16008 H 1512.23 4.06692 1.50944 0
M  V30 16009 H 1512.9 4.59784 3.05455 0
M  V30 16010 H 1515.38 2.67551 3.18678 0
M  V30 16011 H 1514.25 3.17769 4.47564 0
M  V30 16012 H 1514.52 1.46769 4.17027 0
M  V30 16013 N 1513.57 -0.913576 1.28419 0
M  V30 16014 C 1514.51 -2.02073 1.08163 0
M  V30 16015 C 1515.52 -1.62766 0.0333064 0
M  V30 16016 O 1516.71 -1.76347 0.27638 0
M  V30 16017 C 1513.81 -3.33151 0.621596 0
M  V30 16018 C 1512.98 -4.01068 1.74536 0
M  V30 16019 C 1512.04 -5.10428 1.27868 0
M  V30 16020 O 1511.07 -5.33617 1.98094 0
M  V30 16021 N 1512.27 -5.80326 0.141976 0
M  V30 16022 H 1515.03 -2.20009 2.0351 0
M  V30 16023 H 1512.59 -1.08488 1.20174 0
M  V30 16024 H 1514.59 -4.03638 0.292989 0
M  V30 16025 H 1513.16 -3.11685 -0.239031 0
M  V30 16026 H 1512.38 -3.24127 2.24355 0
M  V30 16027 H 1513.66 -4.4319 2.49919 0
M  V30 16028 H 1513.06 -5.63956 -0.443845 0
M  V30 16029 H 1511.62 -6.51676 -0.127354 0
M  V30 16030 N 1515.05 -1.1067 -1.12204 0
M  V30 16031 C 1516.3 -0.85063 -1.83768 0
M  V30 16032 C 1516.63 0.62379 -1.84226 0
M  V30 16033 O 1515.88 1.47603 -1.28498 0
M  V30 16034 C 1516.18 -1.34727 -3.31034 0
M  V30 16035 C 1515.85 -2.83353 -3.50745 0
M  V30 16036 C 1514.51 -3.2394 -3.55832 0
M  V30 16037 C 1516.86 -3.79118 -3.57658 0
M  V30 16038 C 1514.19 -4.59036 -3.6538 0
M  V30 16039 C 1516.54 -5.1402 -3.68736 0
M  V30 16040 C 1515.21 -5.54177 -3.72081 0
M  V30 16041 H 1514.48 -0.311268 -0.672453 0
M  V30 16042 H 1517.12 -1.38373 -1.32383 0
M  V30 16043 H 1515.43 -0.73424 -3.84859 0
M  V30 16044 H 1517.12 -1.12558 -3.84879 0
M  V30 16045 H 1513.71 -2.50952 -3.47449 0
M  V30 16046 H 1517.9 -3.48867 -3.52995 0
M  V30 16047 H 1513.15 -4.89568 -3.66243 0
M  V30 16048 H 1517.33 -5.88067 -3.73028 0
M  V30 16049 H 1514.96 -6.58853 -3.79232 0
M  V30 16050 N 1516.53 1.29665 -0.895815 0
M  V30 16051 C 1517.78 1.9533 -0.518725 0
M  V30 16052 C 1518.1 1.70995 0.937322 0
M  V30 16053 O 1517.37 1.03955 1.66043 0
M  V30 16054 H 1515.95 0.722736 -0.188841 0
M  V30 16055 H 1518.61 1.57991 -1.14126 0
M  V30 16056 H 1517.71 3.04193 -0.698057 0
M  V30 16057 N 1518.01 0.657889 1.43212 0
M  V30 16058 C 1519.26 0.172845 2.0136 0
M  V30 16059 C 1519.58 -1.21911 1.52193 0
M  V30 16060 O 1518.85 -1.81529 0.736492 0
M  V30 16061 H 1517.43 0.0609091 0.744513 0
M  V30 16062 H 1520.09 0.850605 1.75359 0
M  V30 16063 H 1519.19 0.161062 3.11684 0
M  V30 16064 N 1519.49 -1.52437 0.400108 0
M  V30 16065 C 1520.43 -2.26763 -0.429799 0
M  V30 16066 C 1521.4 -1.28808 -1.0487 0
M  V30 16067 O 1522.59 -1.57655 -1.07468 0
M  V30 16068 C 1519.73 -3.08564 -1.54539 0
M  V30 16069 C 1518.84 -4.21463 -0.948294 0
M  V30 16070 C 1517.98 -4.9064 -2.03584 0
M  V30 16071 C 1517.02 -5.95515 -1.4152 0
M  V30 16072 N 1516.15 -6.58245 -2.4425 0
M  V30 16073 H 1520.99 -2.97256 0.210467 0
M  V30 16074 H 1518.53 -1.46645 0.115627 0
M  V30 16075 H 1520.49 -3.54289 -2.20307 0
M  V30 16076 H 1519.12 -2.40259 -2.15582 0
M  V30 16077 H 1518.17 -3.79974 -0.179918 0
M  V30 16078 H 1519.48 -4.96722 -0.454845 0
M  V30 16079 H 1518.64 -5.39724 -2.77097 0
M  V30 16080 H 1517.37 -4.14929 -2.56291 0
M  V30 16081 H 1516.38 -5.45759 -0.665354 0
M  V30 16082 H 1517.6 -6.73164 -0.89593 0
M  V30 16083 H 1515.55 -5.85369 -2.96107 0
M  V30 16084 H 1515.47 -7.2915 -1.99692 0
M  V30 16085 H 1516.74 -7.1197 -3.17362 0
M  V30 16086 N 1520.96 -0.130252 -1.57061 0
M  V30 16087 C 1522.38 0.393318 -1.8251 0
M  V30 16088 C 1522.73 1.65862 -1.04806 0
M  V30 16089 O 1521.85 2.14473 -0.288118 0
M  V30 16090 C 1522.45 0.720366 -3.31053 0
M  V30 16091 C 1521.01 1.18852 -3.57143 0
M  V30 16092 C 1520.15 0.202964 -2.76556 0
M  V30 16093 H 1523.1 -0.355217 -1.54674 0
M  V30 16094 H 1523.12 1.57671 -3.46295 0
M  V30 16095 H 1522.64 -0.200719 -3.87581 0
M  V30 16096 H 1520.74 2.12612 -3.05985 0
M  V30 16097 H 1520.85 1.12607 -4.65678 0
M  V30 16098 H 1519.21 0.692264 -2.45112 0
M  V30 16099 H 1520 -0.711417 -3.35848 0
M  V30 16100 N 1522.44 1.56945 0.143535 0
M  V30 16101 C 1523.69 1.83538 0.855563 0
M  V30 16102 C 1524.02 0.711666 1.81013 0
M  V30 16103 O 1523.27 -0.299039 1.93402 0
M  V30 16104 C 1523.57 3.16482 1.66054 0
M  V30 16105 C 1523.24 4.42768 0.85246 0
M  V30 16106 C 1521.9 4.77064 0.629535 0
M  V30 16107 C 1524.25 5.20406 0.287567 0
M  V30 16108 C 1521.58 5.86457 -0.168934 0
M  V30 16109 C 1523.93 6.30637 -0.49796 0
M  V30 16110 C 1522.6 6.6348 -0.731429 0
M  V30 16111 H 1521.87 0.671615 0.313073 0
M  V30 16112 H 1524.51 1.9113 0.11904 0
M  V30 16113 H 1522.82 3.04357 2.46727 0
M  V30 16114 H 1524.52 3.34274 2.215 0
M  V30 16115 H 1521.11 4.15884 1.03628 0
M  V30 16116 H 1525.29 4.94282 0.447066 0
M  V30 16117 H 1520.55 6.10343 -0.359283 0
M  V30 16118 H 1524.72 6.89989 -0.942792 0
M  V30 16119 H 1522.35 7.48081 -1.35199 0
M  V30 16120 N 1523.92 -0.412991 1.52093 0
M  V30 16121 C 1525.15 -1.18667 1.70096 0
M  V30 16122 C 1525.57 -1.83622 0.408012 0
M  V30 16123 O 1524.93 -1.69847 -0.634174 0
M  V30 16124 C 1524.98 -2.22837 2.83507 0
M  V30 16125 O 1524.08 -3.2889 2.48807 0
M  V30 16126 H 1523.42 -0.346581 0.566373 0
M  V30 16127 H 1525.95 -0.484642 1.98777 0
M  V30 16128 H 1525.96 -2.67229 3.08306 0
M  V30 16129 H 1524.64 -1.74942 3.77317 0
M  V30 16130 H 1523.21 -2.89804 2.34665 0
M  V30 16131 N 1525.4 -1.4265 -0.669982 0
M  V30 16132 C 1526.64 -1.44866 -1.44199 0
M  V30 16133 C 1527 -0.0647049 -1.91891 0
M  V30 16134 O 1528.2 0.0384187 -2.68773 0
M  V30 16135 C 1526.48 -2.44846 -2.60356 0
M  V30 16136 S 1528.03 -2.65803 -3.49134 0
M  V30 16137 H 1524.85 -0.512859 -0.49244 0
M  V30 16138 H 1527.45 -1.7929 -0.779442 0
M  V30 16139 H 1526.16 -3.44161 -2.23565 0
M  V30 16140 H 1525.69 -2.11863 -3.31478 0
M  V30 16141 H 1527.7 -1.94466 -4.56506 0
M  V30 16142 N 1526.88 0.906753 -1.28902 0
M  V30 16143 C 1528.1 1.69547 -1.19452 0
M  V30 16144 C 1528.53 1.86531 0.242418 0
M  V30 16145 O 1527.89 1.38052 1.17521 0
M  V30 16146 C 1527.93 3.06139 -1.90556 0
M  V30 16147 O 1527.04 3.9401 -1.21779 0
M  V30 16148 H 1526.38 0.518902 -0.41429 0
M  V30 16149 H 1528.91 1.13327 -1.70347 0
M  V30 16150 H 1528.92 3.56326 -1.98736 0
M  V30 16151 H 1527.59 2.93094 -2.95074 0
M  V30 16152 H 1526.17 3.52444 -1.2181 0
M  V30 16153 N 1528.36 1.11264 1.11616 0
M  V30 16154 C 1529.27 0.781961 2.21184 0
M  V30 16155 C 1530.28 -0.224149 1.7255 0
M  V30 16156 O 1531.46 -0.0607743 2.01308 0
M  V30 16157 C 1528.52 0.228031 3.45949 0
M  V30 16158 C 1527.58 1.29251 4.09381 0
M  V30 16159 C 1526.82 0.764921 5.2819 0
M  V30 16160 O 1527.04 -0.405671 5.68956 0
M  V30 16161 O 1525.97 1.52886 5.82159 0
M  V30 16162 H 1529.8 1.69678 2.51879 0
M  V30 16163 H 1527.38 0.888394 1.20116 0
M  V30 16164 H 1529.27 -0.0766085 4.2133 0
M  V30 16165 H 1527.94 -0.659519 3.1691 0
M  V30 16166 H 1526.85 1.65014 3.3574 0
M  V30 16167 H 1528.18 2.15339 4.42595 0
M  V30 16168 N 1529.83 -1.29188 0.902679 0
M  V30 16169 C 1530.76 -2.3006 0.399357 0
M  V30 16170 C 1531.74 -1.61724 -0.527199 0
M  V30 16171 O 1532.93 -1.89213 -0.437293 0
M  V30 16172 C 1530.06 -3.45309 -0.371331 0
M  V30 16173 C 1529.01 -4.25466 0.465068 0
M  V30 16174 C 1528.34 -5.32941 -0.433295 0
M  V30 16175 C 1529.64 -4.93287 1.71655 0
M  V30 16176 H 1531.33 -2.72409 1.24233 0
M  V30 16177 H 1528.88 -1.30958 0.598822 0
M  V30 16178 H 1530.83 -4.14955 -0.734207 0
M  V30 16179 H 1529.56 -3.01811 -1.24811 0
M  V30 16180 H 1528.22 -3.57532 0.810315 0
M  V30 16181 H 1527.86 -4.85688 -1.3083 0
M  V30 16182 H 1527.56 -5.87472 0.122657 0
M  V30 16183 H 1529.09 -6.05438 -0.792298 0
M  V30 16184 H 1530.5 -5.55353 1.42323 0
M  V30 16185 H 1528.9 -5.57763 2.21405 0
M  V30 16186 H 1529.97 -4.18406 2.45081 0
M  V30 16187 N 1531.31 -0.665475 -1.42861 0
M  V30 16188 C 1532.54 -0.190399 -2.06524 0
M  V30 16189 C 1532.96 1.13995 -1.49622 0
M  V30 16190 O 1532.32 1.70695 -0.610981 0
M  V30 16191 C 1532.37 -0.12594 -3.6038 0
M  V30 16192 O 1531.47 0.908299 -4.02273 0
M  V30 16193 H 1530.81 -0.100495 -0.656351 0
M  V30 16194 H 1533.34 -0.911858 -1.83156 0
M  V30 16195 H 1533.35 0.0533153 -4.07965 0
M  V30 16196 H 1532.03 -1.09703 -4.01171 0
M  V30 16197 H 1530.6 0.700841 -3.66255 0
M  V30 16198 N 1532.79 1.52222 -0.408187 0
M  V30 16199 C 1534.04 2.00989 0.169252 0
M  V30 16200 C 1534.35 1.29824 1.46305 0
M  V30 16201 O 1535.56 1.69402 2.12168 0
M  V30 16202 C 1534.01 3.58173 0.352179 0
M  V30 16203 C 1533.62 4.38252 -0.929468 0
M  V30 16204 C 1535.37 4.15173 0.88496 0
M  V30 16205 C 1533.27 5.87077 -0.713781 0
M  V30 16206 H 1532.2 0.751015 0.0670261 0
M  V30 16207 H 1534.85 1.75574 -0.533487 0
M  V30 16208 H 1533.24 3.79913 1.11723 0
M  V30 16209 H 1534.41 4.28272 -1.70059 0
M  V30 16210 H 1532.72 3.92565 -1.38859 0
M  V30 16211 H 1535.32 5.2404 1.06235 0
M  V30 16212 H 1535.66 3.72468 1.85938 0
M  V30 16213 H 1536.2 3.97397 0.178995 0
M  V30 16214 H 1532.94 6.3414 -1.65974 0
M  V30 16215 H 1532.46 5.99797 0.0180631 0
M  V30 16216 H 1534.14 6.46022 -0.355596 0
M  V30 16217 N 1534.27 0.138579 1.5699 0
M  V30 16218 C 1535.18 -0.817548 2.19894 0
M  V30 16219 C 1536.19 -1.27806 1.18075 0
M  V30 16220 O 1537.37 -1.33699 1.5062 0
M  V30 16221 C 1534.43 -2.04244 2.80152 0
M  V30 16222 C 1533.5 -1.63197 3.97071 0
M  V30 16223 C 1532.73 -2.79847 4.54446 0
M  V30 16224 O 1532.95 -3.95827 4.10703 0
M  V30 16225 O 1531.89 -2.55804 5.44838 0
M  V30 16226 H 1535.71 -0.312123 3.02092 0
M  V30 16227 H 1533.3 -0.0880281 1.4914 0
M  V30 16228 H 1535.18 -2.75945 3.18485 0
M  V30 16229 H 1533.85 -2.53755 2.00973 0
M  V30 16230 H 1532.76 -0.885448 3.6347 0
M  V30 16231 H 1534.09 -1.1841 4.77745 0
M  V30 16232 N 1535.75 -1.57019 -0.13521 0
M  V30 16233 C 1536.68 -1.95769 -1.19193 0
M  V30 16234 C 1537.69 -0.854953 -1.38544 0
M  V30 16235 O 1538.88 -1.13332 -1.37906 0
M  V30 16236 C 1535.98 -2.22674 -2.55479 0
M  V30 16237 C 1535.15 -3.53972 -2.56949 0
M  V30 16238 C 1534.21 -3.69278 -3.7486 0
M  V30 16239 O 1533.24 -4.41555 -3.59191 0
M  V30 16240 N 1534.44 -3.06826 -4.92786 0
M  V30 16241 H 1537.2 -2.87022 -0.862451 0
M  V30 16242 H 1534.77 -1.58611 -0.324658 0
M  V30 16243 H 1536.76 -2.30144 -3.3289 0
M  V30 16244 H 1535.33 -1.37628 -2.80673 0
M  V30 16245 H 1534.55 -3.57836 -1.65368 0
M  V30 16246 H 1535.84 -4.40303 -2.54973 0
M  V30 16247 H 1535.23 -2.48043 -5.0842 0
M  V30 16248 H 1533.79 -3.19841 -5.67931 0
M  V30 16249 N 1537.22 0.404919 -1.52309 0
M  V30 16250 C 1538.47 1.1499 -1.67776 0
M  V30 16251 C 1538.83 1.88094 -0.404753 0
M  V30 16252 O 1538.12 1.81931 0.600975 0
M  V30 16253 C 1538.31 2.16817 -2.84121 0
M  V30 16254 C 1538.14 1.53712 -4.22614 0
M  V30 16255 C 1536.91 1.30802 -4.88077 0
M  V30 16256 C 1539.11 0.995747 -5.04569 0
M  V30 16257 N 1537.09 0.636344 -6.10593 0
M  V30 16258 C 1538.46 0.451225 -6.18356 0
M  V30 16259 C 1540.52 0.890617 -4.8987 0
M  V30 16260 C 1539.22 -0.188129 -7.19054 0
M  V30 16261 C 1541.25 0.26511 -5.90805 0
M  V30 16262 C 1540.61 -0.268716 -7.03887 0
M  V30 16263 H 1536.71 0.407302 -0.667554 0
M  V30 16264 H 1539.29 0.441678 -1.89624 0
M  V30 16265 H 1537.46 2.84993 -2.63882 0
M  V30 16266 H 1539.19 2.83707 -2.88604 0
M  V30 16267 H 1535.95 1.57869 -4.46513 0
M  V30 16268 H 1536.37 0.317008 -6.76257 0
M  V30 16269 H 1541.02 1.28915 -4.02667 0
M  V30 16270 H 1538.73 -0.598717 -8.05879 0
M  V30 16271 H 1542.32 0.185229 -5.81505 0
M  V30 16272 H 1541.2 -0.745099 -7.80652 0
M  V30 16273 N 1538.7 1.43003 0.662408 0
M  V30 16274 C 1539.63 1.50248 1.78739 0
M  V30 16275 C 1540.61 0.357934 1.66291 0
M  V30 16276 O 1541.8 0.573919 1.85526 0
M  V30 16277 C 1538.93 1.41618 3.17114 0
M  V30 16278 C 1537.88 2.54228 3.44314 0
M  V30 16279 C 1537.21 2.30653 4.82393 0
M  V30 16280 C 1538.51 3.96505 3.39972 0
M  V30 16281 H 1540.2 2.44406 1.72934 0
M  V30 16282 H 1537.75 1.17633 0.830569 0
M  V30 16283 H 1539.7 1.45293 3.9556 0
M  V30 16284 H 1538.43 0.439605 3.23628 0
M  V30 16285 H 1537.08 2.49891 2.68235 0
M  V30 16286 H 1536.73 1.3126 4.85572 0
M  V30 16287 H 1536.43 3.06134 5.01554 0
M  V30 16288 H 1537.96 2.36096 5.63108 0
M  V30 16289 H 1539.37 4.02378 4.08368 0
M  V30 16290 H 1537.77 4.71937 3.70668 0
M  V30 16291 H 1538.84 4.22295 2.38318 0
M  V30 16292 N 1540.18 -0.899904 1.29381 0
M  V30 16293 C 1541.43 -1.65298 1.18524 0
M  V30 16294 C 1541.78 -1.90625 -0.260731 0
M  V30 16295 O 1541.07 -1.50544 -1.1852 0
M  V30 16296 C 1541.27 -3.0069 1.93185 0
M  V30 16297 C 1541.1 -2.88578 3.44895 0
M  V30 16298 C 1539.87 -2.89358 4.14246 0
M  V30 16299 C 1542.07 -2.65623 4.40396 0
M  V30 16300 N 1540.05 -2.67981 5.52322 0
M  V30 16301 C 1541.42 -2.53225 5.6593 0
M  V30 16302 C 1543.47 -2.50729 4.30162 0
M  V30 16303 C 1542.18 -2.27449 6.82393 0
M  V30 16304 C 1544.2 -2.26336 5.46375 0
M  V30 16305 C 1543.56 -2.14702 6.70882 0
M  V30 16306 H 1539.66 -0.61048 0.48871 0
M  V30 16307 H 1542.25 -1.06167 1.63207 0
M  V30 16308 H 1540.42 -3.57881 1.50916 0
M  V30 16309 H 1542.15 -3.65101 1.74596 0
M  V30 16310 H 1538.91 -3.00634 3.65946 0
M  V30 16311 H 1539.33 -2.60346 6.24939 0
M  V30 16312 H 1543.97 -2.58467 3.34596 0
M  V30 16313 H 1541.69 -2.18449 7.78014 0
M  V30 16314 H 1545.28 -2.15656 5.40355 0
M  V30 16315 H 1544.16 -1.96088 7.59289 0
M  V30 16316 N 1541.66 -1.11854 -1.11024 0
M  V30 16317 C 1542.88 -0.892999 -1.8719 0
M  V30 16318 C 1543.31 0.552058 -1.79816 0
M  V30 16319 O 1542.67 1.39025 -1.16369 0
M  V30 16320 C 1542.71 -1.3647 -3.33779 0
M  V30 16321 O 1541.82 -0.539202 -4.0886 0
M  V30 16322 H 1541.16 -0.321319 -0.581076 0
M  V30 16323 H 1543.69 -1.4891 -1.4031 0
M  V30 16324 H 1543.7 -1.3611 -3.84627 0
M  V30 16325 H 1542.37 -2.41694 -3.38462 0
M  V30 16326 H 1540.95 -0.60927 -3.67889 0
M  V30 16327 N 1543.14 1.28707 -0.909517 0
M  V30 16328 C 1544.39 1.94437 -0.536401 0
M  V30 16329 C 1544.7 1.72416 0.923685 0
M  V30 16330 O 1545.9 2.32333 1.40477 0
M  V30 16331 C 1544.36 3.48246 -0.908455 0
M  V30 16332 C 1543.97 3.79051 -2.38798 0
M  V30 16333 C 1545.71 4.20156 -0.605721 0
M  V30 16334 C 1543.62 5.2615 -2.70038 0
M  V30 16335 H 1542.55 0.727842 -0.196882 0
M  V30 16336 H 1545.2 1.46283 -1.10786 0
M  V30 16337 H 1543.58 3.95107 -0.265829 0
M  V30 16338 H 1544.76 3.43014 -3.07698 0
M  V30 16339 H 1543.07 3.20303 -2.66074 0
M  V30 16340 H 1545.67 5.28439 -0.815849 0
M  V30 16341 H 1546.01 4.13792 0.456266 0
M  V30 16342 H 1546.54 3.79059 -1.20662 0
M  V30 16343 H 1543.28 5.37587 -3.75073 0
M  V30 16344 H 1542.8 5.63399 -2.05771 0
M  V30 16345 H 1544.48 5.93846 -2.56819 0
M  V30 16346 N 1544.61 0.673042 1.42506 0
M  V30 16347 C 1545.86 0.194576 2.01563 0
M  V30 16348 C 1546.19 -1.19829 1.53203 0
M  V30 16349 O 1545.44 -1.8181 0.724131 0
M  V30 16350 C 1545.74 0.175896 3.56967 0
M  V30 16351 C 1545.41 1.51319 4.24751 0
M  V30 16352 C 1544.07 1.87936 4.42983 0
M  V30 16353 C 1546.42 2.394 4.62965 0
M  V30 16354 C 1543.75 3.12261 4.96699 0
M  V30 16355 C 1546.1 3.63036 5.18061 0
M  V30 16356 C 1544.77 3.99824 5.34506 0
M  V30 16357 H 1544.04 0.0712004 0.737571 0
M  V30 16358 H 1546.68 0.867679 1.70715 0
M  V30 16359 H 1544.99 -0.580712 3.87473 0
M  V30 16360 H 1546.69 -0.211488 4.00442 0
M  V30 16361 H 1543.28 1.21834 4.10919 0
M  V30 16362 H 1547.46 2.12397 4.48555 0
M  V30 16363 H 1542.72 3.40787 5.07617 0
M  V30 16364 H 1546.89 4.31491 5.46616 0
M  V30 16365 H 1544.52 4.96236 5.75894 0
M  V30 16366 N 1546.09 -1.52004 0.416254 0
M  V30 16367 C 1547.02 -2.30106 -0.396671 0
M  V30 16368 C 1548 -1.34616 -1.03983 0
M  V30 16369 O 1549.19 -1.63528 -1.04749 0
M  V30 16370 C 1546.32 -3.12769 -1.50972 0
M  V30 16371 C 1545.27 -4.16365 -0.99119 0
M  V30 16372 C 1544.6 -4.87417 -2.19838 0
M  V30 16373 C 1545.9 -5.22284 -0.0402599 0
M  V30 16374 H 1547.59 -2.98312 0.255054 0
M  V30 16375 H 1545.14 -1.43464 0.124106 0
M  V30 16376 H 1547.09 -3.66178 -2.08547 0
M  V30 16377 H 1545.82 -2.42346 -2.18943 0
M  V30 16378 H 1544.47 -3.63976 -0.437803 0
M  V30 16379 H 1544.12 -4.13516 -2.8638 0
M  V30 16380 H 1543.82 -5.57454 -1.85792 0
M  V30 16381 H 1545.35 -5.43641 -2.78006 0
M  V30 16382 H 1546.76 -5.70891 -0.525027 0
M  V30 16383 H 1545.16 -5.99726 0.211742 0
M  V30 16384 H 1546.23 -4.7642 0.902877 0
M  V30 16385 N 1547.57 -0.146903 -1.56914 0
M  V30 16386 C 1548.82 0.503237 -1.95734 0
M  V30 16387 C 1549.14 1.65407 -1.03275 0
M  V30 16388 O 1548.41 1.95673 -0.0942784 0
M  V30 16389 H 1546.99 0.188899 -0.722721 0
M  V30 16390 H 1549.65 -0.222379 -1.93627 0
M  V30 16391 H 1548.75 0.879445 -2.99453 0
M  V30 16392 N 1549.05 1.57088 0.126881 0
M  V30 16393 C 1549.98 1.94951 1.18614 0
M  V30 16394 C 1550.96 0.818067 1.40522 0
M  V30 16395 O 1552.14 1.07553 1.54805 0
M  V30 16396 C 1549.27 2.23893 2.54144 0
M  V30 16397 C 1548.32 3.46475 2.48712 0
M  V30 16398 S 1549.15 4.9934 1.93443 0
M  V30 16399 C 1550.31 5.31426 3.30662 0
M  V30 16400 H 1550.54 2.84492 0.863219 0
M  V30 16401 H 1548.07 1.50759 0.333323 0
M  V30 16402 H 1550.03 2.41247 3.3213 0
M  V30 16403 H 1548.69 1.3498 2.83618 0
M  V30 16404 H 1547.88 3.64067 3.48528 0
M  V30 16405 H 1547.49 3.28467 1.78844 0
M  V30 16406 H 1549.78 5.26125 4.26847 0
M  V30 16407 H 1550.72 6.32726 3.17905 0
M  V30 16408 H 1551.13 4.5891 3.28727 0
M  V30 16409 N 1550.53 -0.396836 1.52522 0
M  V30 16410 C 1551.77 -1.14037 1.66853 0
M  V30 16411 C 1552.1 -1.90706 0.406987 0
M  V30 16412 O 1551.37 -1.87165 -0.578443 0
M  V30 16413 H 1549.95 -0.423967 0.615029 0
M  V30 16414 H 1552.61 -0.451042 1.89609 0
M  V30 16415 H 1551.7 -1.84763 2.51533 0
M  V30 16416 N 1552.01 -1.43353 -0.654814 0
M  V30 16417 C 1553.23 -1.48322 -1.4425 0
M  V30 16418 C 1553.65 -0.100608 -1.88532 0
M  V30 16419 O 1553.01 0.888831 -1.59393 0
M  V30 16420 C 1553.06 -2.42769 -2.67853 0
M  V30 16421 O 1552.78 -3.75653 -2.25424 0
M  V30 16422 C 1554.28 -2.56964 -3.61226 0
M  V30 16423 H 1551.5 -0.503805 -0.443195 0
M  V30 16424 H 1554.04 -1.88078 -0.802916 0
M  V30 16425 H 1552.2 -2.06212 -3.27956 0
M  V30 16426 H 1552.61 -4.26427 -3.05386 0
M  V30 16427 H 1554.09 -3.27129 -4.44624 0
M  V30 16428 H 1554.56 -1.61404 -4.08467 0
M  V30 16429 H 1555.17 -2.94325 -3.07006 0
M  V30 16430 N 1553.48 0.89303 -1.29857 0
M  V30 16431 C 1554.41 2.01422 -1.18117 0
M  V30 16432 C 1555.39 1.6994 -0.0737487 0
M  V30 16433 O 1556.58 1.92527 -0.254387 0
M  V30 16434 C 1553.71 3.36385 -0.863842 0
M  V30 16435 C 1552.66 3.821 -1.92831 0
M  V30 16436 C 1551.99 5.14263 -1.46415 0
M  V30 16437 C 1553.29 4.01699 -3.33819 0
M  V30 16438 H 1554.98 2.11502 -2.11913 0
M  V30 16439 H 1552.53 1.01622 -1.02024 0
M  V30 16440 H 1554.48 4.14335 -0.768397 0
M  V30 16441 H 1553.21 3.26415 0.109816 0
M  V30 16442 H 1551.87 3.06372 -2.01325 0
M  V30 16443 H 1551.51 5.00714 -0.478983 0
M  V30 16444 H 1551.21 5.45821 -2.17609 0
M  V30 16445 H 1552.74 5.94747 -1.38234 0
M  V30 16446 H 1554.15 4.70111 -3.28129 0
M  V30 16447 H 1552.55 4.44621 -4.03029 0
M  V30 16448 H 1553.62 3.05816 -3.76304 0
M  V30 16449 N 1554.96 1.12442 1.10429 0
M  V30 16450 C 1555.89 0.814745 2.18824 0
M  V30 16451 C 1556.87 -0.221476 1.68652 0
M  V30 16452 O 1558.06 -0.0826537 1.94024 0
M  V30 16453 C 1555.19 0.268632 3.4626 0
M  V30 16454 C 1554.14 1.23792 4.09707 0
M  V30 16455 C 1553.47 0.552034 5.31843 0
M  V30 16456 C 1554.77 2.5926 4.53411 0
M  V30 16457 H 1556.46 1.72111 2.44986 0
M  V30 16458 H 1554.01 0.828968 1.17746 0
M  V30 16459 H 1555.96 0.0397207 4.21381 0
M  V30 16460 H 1554.68 -0.673079 3.19589 0
M  V30 16461 H 1553.34 1.45264 3.36592 0
M  V30 16462 H 1552.99 -0.394821 5.01448 0
M  V30 16463 H 1552.69 1.19861 5.75245 0
M  V30 16464 H 1554.22 0.332161 6.09696 0
M  V30 16465 H 1555.63 2.41816 5.19806 0
M  V30 16466 H 1554.03 3.19997 5.07663 0
M  V30 16467 H 1555.1 3.17699 3.66327 0
M  V30 16468 N 1556.44 -1.28223 0.91633 0
M  V30 16469 C 1557.69 -1.95508 0.561095 0
M  V30 16470 C 1558.04 -1.70789 -0.885932 0
M  V30 16471 O 1557.33 -1.01983 -1.62204 0
M  V30 16472 C 1557.53 -3.48112 0.809509 0
M  V30 16473 C 1557.36 -3.87667 2.27913 0
M  V30 16474 C 1556.13 -4.11698 2.92973 0
M  V30 16475 C 1558.32 -3.98127 3.25576 0
M  V30 16476 N 1556.31 -4.37946 4.30205 0
M  V30 16477 C 1557.68 -4.28618 4.4798 0
M  V30 16478 C 1559.73 -3.8066 3.2094 0
M  V30 16479 C 1558.44 -4.43462 5.66334 0
M  V30 16480 C 1560.46 -3.96723 4.38594 0
M  V30 16481 C 1559.82 -4.2759 5.59773 0
M  V30 16482 H 1555.92 -0.739174 0.255237 0
M  V30 16483 H 1558.51 -1.54823 1.18059 0
M  V30 16484 H 1556.68 -3.87781 0.219261 0
M  V30 16485 H 1558.41 -4.02535 0.418046 0
M  V30 16486 H 1555.16 -4.06093 2.43691 0
M  V30 16487 H 1555.59 -4.55148 5.01168 0
M  V30 16488 H 1560.23 -3.55846 2.28328 0
M  V30 16489 H 1557.95 -4.67107 6.59421 0
M  V30 16490 H 1561.53 -3.84641 4.36512 0
M  V30 16491 H 1560.41 -4.39755 6.49296 0
M  V30 16492 N 1557.92 -0.68059 -1.42147 0
M  V30 16493 C 1559.17 -0.204857 -2.01059 0
M  V30 16494 C 1559.49 1.19475 -1.54113 0
M  V30 16495 O 1558.76 1.80334 -0.765279 0
M  V30 16496 H 1557.34 -0.0727459 -0.743449 0
M  V30 16497 H 1560 -0.878396 -1.73983 0
M  V30 16498 H 1559.09 -0.210628 -3.11388 0
M  V30 16499 N 1559.4 1.51781 -0.424309 0
M  V30 16500 C 1560.33 2.25144 0.429274 0
M  V30 16501 C 1561.34 1.2867 0.997389 0
M  V30 16502 O 1562.53 1.54514 0.893746 0
M  V30 16503 C 1559.63 2.98156 1.61109 0
M  V30 16504 C 1558.8 4.21623 1.16417 0
M  V30 16505 C 1557.86 4.77327 2.21462 0
M  V30 16506 O 1556.89 5.39511 1.8143 0
M  V30 16507 N 1558.09 4.60221 3.53803 0
M  V30 16508 H 1560.85 2.99036 -0.199438 0
M  V30 16509 H 1558.42 1.59919 -0.252492 0
M  V30 16510 H 1560.41 3.32312 2.30978 0
M  V30 16511 H 1558.98 2.27356 2.14541 0
M  V30 16512 H 1558.2 3.93109 0.293034 0
M  V30 16513 H 1559.49 5.01772 0.842767 0
M  V30 16514 H 1558.88 4.10661 3.89068 0
M  V30 16515 H 1557.44 4.98774 4.19604 0
M  V30 16516 N 1560.87 0.155222 1.56834 0
M  V30 16517 C 1561.8 -0.777258 2.20184 0
M  V30 16518 C 1562.78 -1.25102 1.15254 0
M  V30 16519 O 1563.97 -1.3071 1.43627 0
M  V30 16520 C 1561.1 -2.01326 2.82993 0
M  V30 16521 C 1560.05 -1.67596 3.93822 0
M  V30 16522 C 1559.38 -2.98529 4.43604 0
M  V30 16523 C 1560.68 -0.916302 5.142 0
M  V30 16524 H 1562.37 -0.249257 2.98361 0
M  V30 16525 H 1559.92 -0.118448 1.43512 0
M  V30 16526 H 1561.87 -2.67048 3.2598 0
M  V30 16527 H 1560.6 -2.56513 2.0216 0
M  V30 16528 H 1559.26 -1.0425 3.51465 0
M  V30 16529 H 1558.9 -3.51723 3.59583 0
M  V30 16530 H 1558.6 -2.76721 5.18362 0
M  V30 16531 H 1560.13 -3.65308 4.89267 0
M  V30 16532 H 1561.54 -1.47577 5.5398 0
M  V30 16533 H 1559.94 -0.797856 5.94772 0
M  V30 16534 H 1561.01 0.0904351 4.84816 0
M  V30 16535 N 1562.35 -1.57153 -0.118549 0
M  V30 16536 C 1563.6 -1.84064 -0.824832 0
M  V30 16537 C 1563.91 -0.740941 -1.81023 0
M  V30 16538 O 1565.12 -0.896464 -2.56273 0
M  V30 16539 C 1563.58 -3.26338 -1.51761 0
M  V30 16540 C 1563.18 -4.44318 -0.573174 0
M  V30 16541 C 1564.93 -3.62496 -2.209 0
M  V30 16542 C 1562.83 -5.7762 -1.2692 0
M  V30 16543 H 1561.76 -0.686521 -0.311777 0
M  V30 16544 H 1564.42 -1.83336 -0.0775833 0
M  V30 16545 H 1562.8 -3.21537 -2.3115 0
M  V30 16546 H 1563.97 -4.60418 0.187529 0
M  V30 16547 H 1562.29 -4.16398 0.0112747 0
M  V30 16548 H 1564.88 -4.5936 -2.73666 0
M  V30 16549 H 1565.23 -2.89952 -2.9872 0
M  V30 16550 H 1565.76 -3.69084 -1.48399 0
M  V30 16551 H 1562.5 -6.53335 -0.532285 0
M  V30 16552 H 1562.02 -5.65406 -2.00191 0
M  V30 16553 H 1563.7 -6.21391 -1.80227 0
M  V30 16554 N 1563.83 0.388742 -1.5273 0
M  V30 16555 C 1565.05 1.15946 -1.71963 0
M  V30 16556 C 1565.48 1.82949 -0.437173 0
M  V30 16557 O 1564.84 1.70834 0.607072 0
M  V30 16558 C 1564.89 2.18298 -2.87016 0
M  V30 16559 O 1563.99 3.24891 -2.54008 0
M  V30 16560 H 1563.33 0.337526 -0.571815 0
M  V30 16561 H 1565.86 0.452957 -1.99523 0
M  V30 16562 H 1565.87 2.6229 -3.12519 0
M  V30 16563 H 1564.55 1.68917 -3.80052 0
M  V30 16564 H 1563.12 2.86034 -2.39246 0
M  V30 16565 N 1565.31 1.43698 0.647203 0
M  V30 16566 C 1566.54 1.49085 1.43462 0
M  V30 16567 C 1566.95 0.110605 1.88476 0
M  V30 16568 O 1566.31 -0.880365 1.59862 0
M  V30 16569 C 1566.36 2.44186 2.66562 0
M  V30 16570 O 1566.08 3.76844 2.23429 0
M  V30 16571 C 1567.58 2.58876 3.59858 0
M  V30 16572 H 1564.8 0.506148 0.440517 0
M  V30 16573 H 1567.34 1.88502 0.792931 0
M  V30 16574 H 1565.5 2.07949 3.26858 0
M  V30 16575 H 1565.91 4.2804 3.0312 0
M  V30 16576 H 1567.39 3.29482 4.42883 0
M  V30 16577 H 1567.86 1.63567 4.07606 0
M  V30 16578 H 1568.47 2.95949 3.05441 0
M  V30 16579 N 1566.79 -0.886131 1.30328 0
M  V30 16580 C 1568.04 -1.63255 1.18451 0
M  V30 16581 C 1568.35 -1.93864 -0.260016 0
M  V30 16582 O 1569.55 -2.66851 -0.500288 0
M  V30 16583 C 1568.01 -2.94232 2.07257 0
M  V30 16584 C 1567.62 -2.71168 3.56612 0
M  V30 16585 C 1569.36 -3.72193 2.04139 0
M  V30 16586 C 1567.27 -3.97954 4.37478 0
M  V30 16587 H 1566.2 -0.612491 0.439739 0
M  V30 16588 H 1568.85 -0.981129 1.55068 0
M  V30 16589 H 1567.23 -3.60661 1.63522 0
M  V30 16590 H 1568.41 -2.13247 4.08488 0
M  V30 16591 H 1566.72 -2.06584 3.61541 0
M  V30 16592 H 1569.32 -4.66219 2.61809 0
M  V30 16593 H 1569.66 -4.03495 1.02459 0
M  V30 16594 H 1570.19 -3.12624 2.45989 0
M  V30 16595 H 1566.93 -3.71811 5.39849 0
M  V30 16596 H 1566.45 -4.55384 3.90366 0
M  V30 16597 H 1568.13 -4.65984 4.48852 0
M  V30 16598 N 1568.26 -1.13026 -1.09832 0
M  V30 16599 C 1569.68 -0.902826 -1.6342 0
M  V30 16600 C 1570.03 0.561547 -1.87992 0
M  V30 16601 O 1569.15 1.42735 -1.62652 0
M  V30 16602 C 1569.75 -1.6324 -2.96881 0
M  V30 16603 C 1568.31 -1.45095 -3.4731 0
M  V30 16604 C 1567.45 -1.66431 -2.21802 0
M  V30 16605 H 1570.4 -1.28414 -0.932492 0
M  V30 16606 H 1570.42 -1.08706 -3.64641 0
M  V30 16607 H 1569.94 -2.69816 -2.78964 0
M  V30 16608 H 1568.04 -0.408031 -3.70359 0
M  V30 16609 H 1568.15 -2.21123 -4.25019 0
M  V30 16610 H 1566.51 -1.08885 -2.30252 0
M  V30 16611 H 1567.3 -2.74317 -2.0641 0
M  V30 16612 N 1569.74 1.27735 -0.923117 0
M  V30 16613 C 1570.97 1.98682 -0.577317 0
M  V30 16614 C 1571.39 1.68904 0.843608 0
M  V30 16615 O 1570.74 0.947021 1.56006 0
M  V30 16616 C 1570.79 3.52804 -0.788144 0
M  V30 16617 O 1570.51 3.81537 -2.15316 0
M  V30 16618 C 1572.02 4.41006 -0.450437 0
M  V30 16619 H 1569.24 0.634186 -0.2192 0
M  V30 16620 H 1571.78 1.62702 -1.23888 0
M  V30 16621 H 1569.93 3.87012 -0.173441 0
M  V30 16622 H 1570.35 4.76142 -2.19976 0
M  V30 16623 H 1571.82 5.48175 -0.648674 0
M  V30 16624 H 1572.3 4.3489 0.613806 0
M  V30 16625 H 1572.91 4.1231 -1.04308 0
M  V30 16626 N 1571.22 0.688118 1.41784 0
M  V30 16627 C 1572.45 0.223231 2.06195 0
M  V30 16628 C 1572.87 -1.11601 1.51416 0
M  V30 16629 O 1572.23 -1.69701 0.638059 0
M  V30 16630 C 1572.28 0.183257 3.60134 0
M  V30 16631 O 1571.38 -0.844186 4.03667 0
M  V30 16632 H 1570.72 0.110925 0.654669 0
M  V30 16633 H 1573.25 0.940882 1.81683 0
M  V30 16634 H 1573.26 0.0115951 4.07998 0
M  V30 16635 H 1571.94 1.16072 3.99375 0
M  V30 16636 H 1570.51 -0.642484 3.67323 0
M  V30 16637 N 1572.7 -1.51554 0.432352 0
M  V30 16638 C 1574.11 -1.59377 0.0843863 0
M  V30 16639 C 1574.31 -1.44364 -1.40575 0
M  V30 16640 O 1573.37 -1.28234 -2.17514 0
M  V30 16641 C 1574.68 -2.94652 0.600046 0
M  V30 16642 C 1576.23 -3.07949 0.560049 0
M  V30 16643 C 1576.71 -4.4574 1.0526 0
M  V30 16644 N 1578.2 -4.52046 1.01038 0
M  V30 16645 C 1578.93 -5.56979 1.36242 0
M  V30 16646 N 1578.43 -6.69355 1.78707 0
M  V30 16647 N 1580.22 -5.47311 1.2809 0
M  V30 16648 H 1572.37 -1.59558 1.40197 0
M  V30 16649 H 1574.64 -0.751868 0.577406 0
M  V30 16650 H 1574.34 -3.10993 1.64245 0
M  V30 16651 H 1574.22 -3.77193 0.0222482 0
M  V30 16652 H 1576.6 -2.91279 -0.473357 0
M  V30 16653 H 1576.68 -2.27259 1.17419 0
M  V30 16654 H 1576.33 -4.63156 2.08445 0
M  V30 16655 H 1576.26 -5.24962 0.415047 0
M  V30 16656 H 1578.75 -3.71389 0.69847 0
M  V30 16657 H 1579.06 -7.45438 2.03819 0
M  V30 16658 H 1577.41 -6.70576 1.82629 0
M  V30 16659 H 1580.6 -4.58403 0.947848 0
M  V30 16660 H 1580.77 -6.28978 1.55855 0
M  V30 16661 N 1574.18 -0.163538 -1.56749 0
M  V30 16662 C 1575.11 0.765571 -2.20593 0
M  V30 16663 C 1576.09 1.24489 -1.15916 0
M  V30 16664 O 1577.27 1.29946 -1.44318 0
M  V30 16665 C 1574.4 1.99823 -2.84057 0
M  V30 16666 C 1573.36 1.65506 -3.94705 0
M  V30 16667 C 1572.68 2.96172 -4.45181 0
M  V30 16668 C 1573.98 0.88902 -5.14678 0
M  V30 16669 H 1575.68 0.233431 -2.98489 0
M  V30 16670 H 1573.22 0.110836 -1.43573 0
M  V30 16671 H 1575.18 2.65316 -3.27392 0
M  V30 16672 H 1573.9 2.55437 -2.03517 0
M  V30 16673 H 1572.56 1.02384 -3.52013 0
M  V30 16674 H 1572.21 3.49811 -3.61443 0
M  V30 16675 H 1571.91 2.73968 -5.19823 0
M  V30 16676 H 1573.43 3.62708 -4.91198 0
M  V30 16677 H 1574.84 1.44637 -5.54755 0
M  V30 16678 H 1573.24 0.766302 -5.95187 0
M  V30 16679 H 1574.31 -0.116145 -4.84761 0
M  V30 16680 N 1575.65 1.57214 0.110213 0
M  V30 16681 C 1576.6 2.00978 1.13474 0
M  V30 16682 C 1577.57 0.883436 1.40658 0
M  V30 16683 O 1578.76 1.14832 1.52376 0
M  V30 16684 C 1575.9 2.42654 2.45383 0
M  V30 16685 C 1575.01 3.68744 2.2506 0
M  V30 16686 C 1574.14 3.99363 3.50261 0
M  V30 16687 C 1573.18 5.18608 3.25133 0
M  V30 16688 N 1572.32 5.45055 4.42561 0
M  V30 16689 H 1577.16 2.88289 0.754543 0
M  V30 16690 H 1574.7 1.426 0.361064 0
M  V30 16691 H 1576.66 2.64857 3.22345 0
M  V30 16692 H 1575.29 1.58374 2.81278 0
M  V30 16693 H 1574.34 3.54106 1.38972 0
M  V30 16694 H 1575.65 4.55857 2.02475 0
M  V30 16695 H 1574.8 4.22261 4.35638 0
M  V30 16696 H 1573.54 3.10743 3.75886 0
M  V30 16697 H 1572.55 4.95546 2.38148 0
M  V30 16698 H 1573.77 6.08814 3.0087 0
M  V30 16699 H 1571.72 4.59392 4.6829 0
M  V30 16700 H 1571.64 6.26508 4.23111 0
M  V30 16701 H 1572.9 5.72478 5.29046 0
M  V30 16702 N 1577.13 -0.380637 1.52934 0
M  V30 16703 C 1578.38 -1.12483 1.68386 0
M  V30 16704 C 1578.71 -1.89733 0.427993 0
M  V30 16705 O 1577.96 -1.86601 -0.589795 0
M  V30 16706 C 1578.26 -2.1227 2.87535 0
M  V30 16707 C 1577.93 -1.51615 4.24645 0
M  V30 16708 C 1576.59 -1.348 4.61933 0
M  V30 16709 C 1578.94 -1.07595 5.09973 0
M  V30 16710 C 1576.27 -0.725254 5.822 0
M  V30 16711 C 1578.62 -0.467273 6.30872 0
M  V30 16712 C 1577.29 -0.286488 6.66885 0
M  V30 16713 H 1576.56 -0.411606 0.616167 0
M  V30 16714 H 1579.2 -0.408435 1.87094 0
M  V30 16715 H 1577.51 -2.90159 2.63277 0
M  V30 16716 H 1579.2 -2.69777 2.96684 0
M  V30 16717 H 1575.79 -1.65693 3.95277 0
M  V30 16718 H 1579.98 -1.19385 4.81727 0
M  V30 16719 H 1575.23 -0.573461 6.08705 0
M  V30 16720 H 1579.41 -0.117914 6.963 0
M  V30 16721 H 1577.04 0.198141 7.59942 0
M  V30 16722 N 1578.61 -1.44039 -0.639573 0
M  V30 16723 C 1579.54 -1.53073 -1.76327 0
M  V30 16724 C 1580.52 -0.384344 -1.65701 0
M  V30 16725 O 1581.71 -0.603362 -1.84589 0
M  V30 16726 C 1578.84 -1.46646 -3.14821 0
M  V30 16727 C 1577.79 -2.59673 -3.40226 0
M  V30 16728 C 1577.12 -2.38298 -4.78663 0
M  V30 16729 C 1578.42 -4.01864 -3.33621 0
M  V30 16730 H 1580.11 -2.47126 -1.69023 0
M  V30 16731 H 1577.66 -1.1894 -0.811749 0
M  V30 16732 H 1579.61 -1.51567 -3.93199 0
M  V30 16733 H 1578.33 -0.491035 -3.22888 0
M  V30 16734 H 1576.99 -2.54127 -2.64225 0
M  V30 16735 H 1576.64 -1.38968 -4.83422 0
M  V30 16736 H 1576.34 -3.14074 -4.9662 0
M  V30 16737 H 1577.86 -2.45025 -5.59281 0
M  V30 16738 H 1579.28 -4.08824 -4.01915 0
M  V30 16739 H 1577.68 -4.77775 -3.63113 0
M  V30 16740 H 1578.75 -4.26033 -2.31569 0
M  V30 16741 N 1580.09 0.879207 -1.30796 0
M  V30 16742 C 1581.04 1.98553 -1.17667 0
M  V30 16743 C 1582.01 1.65974 -0.0647231 0
M  V30 16744 O 1583.19 1.89336 -0.235941 0
M  V30 16745 C 1580.33 3.3368 -0.880434 0
M  V30 16746 C 1579.44 3.78913 -2.07482 0
M  V30 16747 C 1578.58 5.02714 -1.71617 0
M  V30 16748 C 1577.62 5.40371 -2.87517 0
M  V30 16749 N 1576.75 6.55352 -2.5191 0
M  V30 16750 H 1581.59 2.09115 -2.12309 0
M  V30 16751 H 1579.13 1.02382 -1.05623 0
M  V30 16752 H 1581.09 4.11467 -0.689278 0
M  V30 16753 H 1579.72 3.22787 0.0291283 0
M  V30 16754 H 1578.77 2.96987 -2.37704 0
M  V30 16755 H 1580.08 4.02757 -2.94259 0
M  V30 16756 H 1579.24 5.88142 -1.4891 0
M  V30 16757 H 1577.98 4.80754 -0.820181 0
M  V30 16758 H 1576.98 4.53466 -3.10883 0
M  V30 16759 H 1578.21 5.64301 -3.77811 0
M  V30 16760 H 1576.15 6.34956 -1.64823 0
M  V30 16761 H 1576.07 6.79093 -3.32217 0
M  V30 16762 H 1577.34 7.43996 -2.32573 0
M  V30 16763 N 1581.57 1.13606 1.09231 0
M  V30 16764 C 1582.48 0.828702 2.19476 0
M  V30 16765 C 1583.49 -0.187499 1.72987 0
M  V30 16766 O 1584.67 -0.0180602 2.01392 0
M  V30 16767 C 1581.73 0.301361 3.45388 0
M  V30 16768 C 1580.8 1.37906 4.06547 0
M  V30 16769 C 1580.03 0.876786 5.26449 0
M  V30 16770 O 1580.25 -0.284896 5.69688 0
M  V30 16771 O 1579.19 1.652 5.78785 0
M  V30 16772 H 1583.01 1.74982 2.48223 0
M  V30 16773 H 1580.6 0.913673 1.18205 0
M  V30 16774 H 1582.48 0.0127792 4.21398 0
M  V30 16775 H 1581.15 -0.592149 3.18238 0
M  V30 16776 H 1580.06 1.72098 3.32164 0
M  V30 16777 H 1581.39 2.24678 4.37927 0
M  V30 16778 N 1583.05 -1.27244 0.929878 0
M  V30 16779 C 1584.01 -2.25028 0.435315 0
M  V30 16780 C 1585.01 -1.54453 -0.447332 0
M  V30 16781 O 1586.2 -1.72424 -0.248105 0
M  V30 16782 C 1583.33 -3.38843 -0.373933 0
M  V30 16783 H 1584.52 -2.70293 1.2993 0
M  V30 16784 H 1582.08 -1.39204 0.710771 0
M  V30 16785 H 1582.81 -2.98963 -1.25664 0
M  V30 16786 H 1582.6 -3.91244 0.258946 0
M  V30 16787 H 1584.09 -4.11516 -0.710255 0
M  V30 16788 N 1584.52 -0.695628 -1.41417 0
M  V30 16789 C 1585.77 -0.226171 -2.0083 0
M  V30 16790 C 1586.09 1.17833 -1.55371 0
M  V30 16791 O 1585.36 1.79512 -0.784362 0
M  V30 16792 H 1583.94 -0.0806271 -0.742636 0
M  V30 16793 H 1586.6 -0.8968 -1.73042 0
M  V30 16794 H 1585.7 -0.243643 -3.11148 0
M  V30 16795 N 1586 1.51322 -0.440383 0
M  V30 16796 C 1586.95 2.24682 0.38753 0
M  V30 16797 C 1587.94 1.27031 0.98752 0
M  V30 16798 O 1589.13 1.52105 0.905156 0
M  V30 16799 C 1586.26 3.09451 1.48643 0
M  V30 16800 C 1585.34 4.14534 0.895682 0
M  V30 16801 N 1585.73 5.05788 0.0343863 0
M  V30 16802 C 1584.03 4.30571 1.16294 0
M  V30 16803 C 1584.73 5.80938 -0.297709 0
M  V30 16804 N 1583.71 5.42661 0.319444 0
M  V30 16805 H 1587.51 2.92597 -0.276449 0
M  V30 16806 H 1585.02 1.60423 -0.252641 0
M  V30 16807 H 1587.02 3.60587 2.09244 0
M  V30 16808 H 1585.68 2.43081 2.15271 0
M  V30 16809 H 1586.69 5.16833 -0.332271 0
M  V30 16810 H 1583.37 3.75427 1.82649 0
M  V30 16811 H 1584.76 6.64435 -0.99877 0
M  V30 16812 N 1587.48 0.171848 1.5666 0
M  V30 16813 C 1588.73 -0.472034 1.9651 0
M  V30 16814 C 1589.05 -1.63743 1.05893 0
M  V30 16815 O 1588.32 -1.95498 0.125396 0
M  V30 16816 H 1586.9 -0.177377 0.725635 0
M  V30 16817 H 1589.56 0.253155 1.93249 0
M  V30 16818 H 1588.66 -0.831693 3.00814 0
M  V30 16819 N 1588.96 -1.5727 -0.101874 0
M  V30 16820 C 1590.19 -1.89943 -0.820329 0
M  V30 16821 C 1590.6 -0.764867 -1.72613 0
M  V30 16822 O 1589.96 0.263499 -1.80588 0
M  V30 16823 C 1590.01 -3.2219 -1.63939 0
M  V30 16824 O 1589.73 -4.31279 -0.770039 0
M  V30 16825 C 1591.23 -3.6868 -2.46151 0
M  V30 16826 H 1588.45 -0.628532 -0.234922 0
M  V30 16827 H 1590.99 -2.04339 -0.0811362 0
M  V30 16828 H 1589.15 -3.09411 -2.33117 0
M  V30 16829 H 1589.56 -5.07182 -1.33665 0
M  V30 16830 H 1591.04 -4.63928 -2.99124 0
M  V30 16831 H 1591.51 -2.96183 -3.24303 0
M  V30 16832 H 1592.12 -3.84303 -1.82185 0
M  V30 16833 N 1590.44 0.372521 -1.53134 0
M  V30 16834 C 1591.37 1.4759 -1.75357 0
M  V30 16835 C 1592.38 1.49938 -0.634223 0
M  V30 16836 O 1593.57 1.53543 -0.910322 0
M  V30 16837 C 1590.67 2.86382 -1.81214 0
M  V30 16838 C 1589.84 3.0781 -3.1076 0
M  V30 16839 C 1588.9 4.26677 -3.07949 0
M  V30 16840 O 1587.93 4.22186 -3.81769 0
M  V30 16841 N 1589.13 5.33729 -2.28283 0
M  V30 16842 H 1591.89 1.28908 -2.7056 0
M  V30 16843 H 1589.46 0.562186 -1.51826 0
M  V30 16844 H 1591.45 3.64029 -1.7682 0
M  V30 16845 H 1590.02 2.98344 -0.933249 0
M  V30 16846 H 1589.24 2.17884 -3.28512 0
M  V30 16847 H 1590.53 3.18991 -3.96386 0
M  V30 16848 H 1589.92 5.40238 -1.67806 0
M  V30 16849 H 1588.48 6.09979 -2.29714 0
M  V30 16850 N 1591.91 1.44376 0.631925 0
M  V30 16851 C 1592.86 1.51181 1.74393 0
M  V30 16852 C 1593.83 0.359599 1.62161 0
M  V30 16853 O 1595.02 0.569725 1.82096 0
M  V30 16854 C 1592.16 1.46124 3.12637 0
M  V30 16855 C 1591.27 2.71714 3.35851 0
M  V30 16856 C 1590.4 2.58496 4.64062 0
M  V30 16857 C 1589.44 3.79252 4.80452 0
M  V30 16858 N 1588.58 3.64715 5.99939 0
M  V30 16859 H 1593.42 2.4619 1.67912 0
M  V30 16860 H 1590.96 1.22184 0.819108 0
M  V30 16861 H 1592.91 1.41183 3.92585 0
M  V30 16862 H 1591.54 0.546831 3.18135 0
M  V30 16863 H 1590.6 2.86845 2.49848 0
M  V30 16864 H 1591.91 3.61351 3.43841 0
M  V30 16865 H 1591.06 2.51383 5.5217 0
M  V30 16866 H 1589.8 1.66417 4.58428 0
M  V30 16867 H 1588.81 3.8675 3.90774 0
M  V30 16868 H 1590.03 4.72367 4.879 0
M  V30 16869 H 1587.98 2.75388 5.95397 0
M  V30 16870 H 1587.89 4.47969 6.08982 0
M  V30 16871 H 1589.16 3.61493 6.90611 0
M  V30 16872 N 1593.39 -0.872258 1.31261 0
M  V30 16873 C 1594.3 -2.01185 1.20673 0
M  V30 16874 C 1595.32 -1.73558 0.123921 0
M  V30 16875 O 1596.49 -1.98487 0.341288 0
M  V30 16876 C 1593.56 -3.34481 0.91232 0
M  V30 16877 C 1592.62 -3.75446 2.08179 0
M  V30 16878 C 1591.85 -5.02382 1.80134 0
M  V30 16879 O 1592.08 -5.6564 0.735358 0
M  V30 16880 O 1591.01 -5.40059 2.65744 0
M  V30 16881 H 1594.84 -2.13049 2.16434 0
M  V30 16882 H 1592.42 -1.00021 1.10978 0
M  V30 16883 H 1594.3 -4.14419 0.763879 0
M  V30 16884 H 1592.98 -3.23696 -0.0152802 0
M  V30 16885 H 1591.88 -2.96159 2.28562 0
M  V30 16886 H 1593.22 -3.90853 2.99156 0
M  V30 16887 N 1594.87 -1.14184 -1.08627 0
M  V30 16888 C 1595.78 -0.84033 -2.19033 0
M  V30 16889 C 1596.8 0.178322 -1.73084 0
M  V30 16890 O 1597.97 0.00737963 -2.01399 0
M  V30 16891 C 1595.04 -0.319674 -3.45223 0
M  V30 16892 C 1594.1 -1.4006 -4.0581 0
M  V30 16893 C 1593.33 -0.904693 -5.25976 0
M  V30 16894 O 1593.55 0.25468 -5.69831 0
M  V30 16895 O 1592.49 -1.68267 -5.77901 0
M  V30 16896 H 1596.31 -1.76296 -2.47292 0
M  V30 16897 H 1593.9 -0.919929 -1.17719 0
M  V30 16898 H 1595.78 -0.0351268 -4.21385 0
M  V30 16899 H 1594.46 0.575264 -3.18547 0
M  V30 16900 H 1593.36 -1.73858 -3.31247 0
M  V30 16901 H 1594.7 -2.26998 -4.3673 0
M  V30 16902 N 1596.35 1.26749 -0.936613 0
M  V30 16903 C 1597.6 1.93255 -0.577524 0
M  V30 16904 C 1597.91 1.74337 0.886905 0
M  V30 16905 O 1599.12 2.3526 1.35517 0
M  V30 16906 C 1597.57 3.4624 -0.982119 0
M  V30 16907 C 1597.18 3.739 -2.46784 0
M  V30 16908 C 1598.92 4.18777 -0.694706 0
M  V30 16909 C 1596.83 5.20303 -2.81138 0
M  V30 16910 H 1595.76 0.723502 -0.212276 0
M  V30 16911 H 1598.41 1.43901 -1.13863 0
M  V30 16912 H 1596.79 3.94454 -0.349577 0
M  V30 16913 H 1597.97 3.3641 -3.14905 0
M  V30 16914 H 1596.28 3.14587 -2.72808 0
M  V30 16915 H 1598.88 5.2659 -0.927756 0
M  V30 16916 H 1599.22 4.14667 0.368392 0
M  V30 16917 H 1599.76 3.76414 -1.28676 0
M  V30 16918 H 1596.5 5.29511 -3.86392 0
M  V30 16919 H 1596.02 5.58907 -2.17675 0
M  V30 16920 H 1597.69 5.88265 -2.69358 0
M  V30 16921 N 1597.83 0.703118 1.41046 0
M  V30 16922 C 1599.24 0.311167 1.84089 0
M  V30 16923 C 1599.59 -1.15202 1.58818 0
M  V30 16924 O 1598.71 -1.88518 1.06254 0
M  V30 16925 C 1599.31 0.557986 3.34174 0
M  V30 16926 C 1597.87 0.219875 3.75757 0
M  V30 16927 C 1597.01 0.836543 2.64381 0
M  V30 16928 H 1599.97 0.903211 1.30491 0
M  V30 16929 H 1599.99 -0.180865 3.8007 0
M  V30 16930 H 1599.5 1.62298 3.52535 0
M  V30 16931 H 1597.6 -0.840559 3.62995 0
M  V30 16932 H 1597.71 0.680165 4.74247 0
M  V30 16933 H 1596.08 0.265547 2.53312 0
M  V30 16934 H 1596.86 1.90556 2.85558 0
M  V30 16935 N 1599.3 -1.51086 0.448402 0
M  V30 16936 C 1600.21 -2.3177 -0.363323 0
M  V30 16937 C 1601.23 -1.41159 -1.01736 0
M  V30 16938 O 1602.41 -1.74226 -1.01031 0
M  V30 16939 C 1599.47 -3.15211 -1.4437 0
M  V30 16940 C 1598.53 -4.21615 -0.808643 0
M  V30 16941 C 1597.77 -5.01069 -1.83754 0
M  V30 16942 O 1597.99 -4.81296 -3.06121 0
M  V30 16943 O 1596.92 -5.84863 -1.42193 0
M  V30 16944 H 1600.75 -3.02257 0.295653 0
M  V30 16945 H 1598.33 -1.47907 0.210703 0
M  V30 16946 H 1600.22 -3.67053 -2.07002 0
M  V30 16947 H 1598.89 -2.47476 -2.08656 0
M  V30 16948 H 1597.8 -3.73823 -0.143975 0
M  V30 16949 H 1599.13 -4.91756 -0.209098 0
M  V30 16950 N 1600.78 -0.180154 -1.56567 0
M  V30 16951 C 1601.69 0.758959 -2.21984 0
M  V30 16952 C 1602.71 1.24631 -1.21422 0
M  V30 16953 O 1603.88 1.29659 -1.54112 0
M  V30 16954 C 1600.95 1.96744 -2.85469 0
M  V30 16955 C 1600.01 1.52612 -4.01258 0
M  V30 16956 C 1599.24 2.677 -4.61706 0
M  V30 16957 O 1599.47 3.84799 -4.21054 0
M  V30 16958 O 1598.4 2.41269 -5.51428 0
M  V30 16959 H 1602.23 0.231919 -3.02813 0
M  V30 16960 H 1599.81 0.0484552 -1.49321 0
M  V30 16961 H 1601.69 2.67404 -3.25689 0
M  V30 16962 H 1600.37 2.48337 -2.0763 0
M  V30 16963 H 1599.28 0.78877 -3.6569 0
M  V30 16964 H 1600.61 1.05701 -4.80716 0
M  V30 16965 N 1602.26 1.57322 0.0935319 0
M  V30 16966 C 1603.17 2.05499 1.13169 0
M  V30 16967 C 1604.19 0.980199 1.43764 0
M  V30 16968 O 1605.36 1.29347 1.54374 0
M  V30 16969 C 1602.43 2.47111 2.43181 0
M  V30 16970 C 1601.49 3.68791 2.19754 0
M  V30 16971 C 1600.72 4.08408 3.43567 0
M  V30 16972 O 1600.94 3.48104 4.51863 0
M  V30 16973 O 1599.88 5.01351 3.33062 0
M  V30 16974 H 1603.7 2.9423 0.752491 0
M  V30 16975 H 1601.29 1.4623 0.306151 0
M  V30 16976 H 1603.17 2.74495 3.19735 0
M  V30 16977 H 1601.85 1.61518 2.80524 0
M  V30 16978 H 1600.75 3.46521 1.40976 0
M  V30 16979 H 1602.09 4.55169 1.87303 0
M  V30 16980 N 1603.74 -0.364395 1.53329 0
M  V30 16981 C 1604.67 -1.45243 1.8283 0
M  V30 16982 C 1605.65 -1.55834 0.681886 0
M  V30 16983 O 1606.83 -1.70383 0.931845 0
M  V30 16984 C 1603.96 -2.82565 2.01926 0
M  V30 16985 C 1602.92 -2.86797 3.17697 0
M  V30 16986 C 1602.24 -4.26806 3.22089 0
M  V30 16987 C 1603.54 -2.54212 4.56261 0
M  V30 16988 H 1605.24 -1.20804 2.73946 0
M  V30 16989 H 1602.78 -0.579705 1.31816 0
M  V30 16990 H 1604.74 -3.58709 2.21147 0
M  V30 16991 H 1603.46 -3.08394 1.07521 0
M  V30 16992 H 1602.12 -2.13105 2.98298 0
M  V30 16993 H 1601.77 -4.49712 2.25318 0
M  V30 16994 H 1601.47 -4.30553 3.99873 0
M  V30 16995 H 1602.99 -5.04821 3.43495 0
M  V30 16996 H 1604.41 -3.20069 4.75635 0
M  V30 16997 H 1602.8 -2.69273 5.36295 0
M  V30 16998 H 1603.87 -1.49458 4.61292 0
M  V30 16999 N 1605.22 -1.44709 -0.62426 0
M  V30 17000 C 1606.18 -1.51738 -1.7178 0
M  V30 17001 C 1607.18 -0.398646 -1.5578 0
M  V30 17002 O 1608.37 -0.661525 -1.61151 0
M  V30 17003 C 1605.5 -1.39792 -3.1092 0
M  V30 17004 H 1606.69 -2.49154 -1.6692 0
M  V30 17005 H 1604.25 -1.31903 -0.838531 0
M  V30 17006 H 1604.98 -0.434955 -3.2137 0
M  V30 17007 H 1604.77 -2.20919 -3.2394 0
M  V30 17008 H 1606.26 -1.47706 -3.90606 0
M  V30 17009 N 1606.69 0.865285 -1.31722 0
M  V30 17010 C 1607.6 2.00542 -1.21738 0
M  V30 17011 C 1608.62 1.7349 -0.133124 0
M  V30 17012 O 1609.8 1.98303 -0.351809 0
M  V30 17013 C 1606.86 3.33993 -0.930045 0
M  V30 17014 C 1605.92 3.74337 -2.10167 0
M  V30 17015 C 1605.16 5.0142 -1.82795 0
M  V30 17016 O 1605.38 5.65242 -0.765345 0
M  V30 17017 O 1604.31 5.38642 -2.68604 0
M  V30 17018 H 1608.14 2.11898 -2.17561 0
M  V30 17019 H 1605.72 0.994313 -1.11507 0
M  V30 17020 H 1607.61 4.14008 -0.785846 0
M  V30 17021 H 1606.28 3.237 -0.00188642 0
M  V30 17022 H 1605.19 2.94943 -2.3013 0
M  V30 17023 H 1606.52 3.89261 -3.01225 0
M  V30 17024 N 1608.17 1.14759 1.0802 0
M  V30 17025 C 1609.45 0.828957 1.77166 0
M  V30 17026 C 1609.83 -0.676783 1.99957 0
M  V30 17027 O 1609.18 -1.61891 1.61256 0
M  V30 17028 C 1609.39 1.63213 3.08484 0
M  V30 17029 C 1610.74 1.834 3.82948 0
M  V30 17030 O 1611.76 1.59932 3.18277 0
M  V30 17031 O 1610.62 2.22661 4.99083 0
M  V30 17032 H 1607.71 0.304168 0.769032 0
M  V30 17033 H 1610.26 1.253 1.14446 0
M  V30 17034 H 1609.03 2.65474 2.8747 0
M  V30 17035 H 1608.65 1.20397 3.78933 0
M  V30 17036 N 1609.65 -1.26251 0.943322 0
M  V30 17037 C 1610.9 -1.93939 0.592909 0
M  V30 17038 C 1611.23 -1.73814 -0.866155 0
M  V30 17039 O 1610.5 -1.07645 -1.61997 0
M  V30 17040 C 1610.79 -3.47653 0.938601 0
M  V30 17041 C 1610.64 -3.77053 2.45257 0
M  V30 17042 C 1611.96 -4.37736 0.455546 0
M  V30 17043 H 1609.08 -0.704367 0.21688 0
M  V30 17044 H 1611.72 -1.4908 1.17793 0
M  V30 17045 H 1609.87 -3.85992 0.440756 0
M  V30 17046 H 1611.54 -3.48417 3.0233 0
M  V30 17047 H 1609.79 -3.23055 2.89513 0
M  V30 17048 H 1610.46 -4.84506 2.64495 0
M  V30 17049 H 1612.93 -4.06635 0.882435 0
M  V30 17050 H 1611.81 -5.44075 0.72623 0
M  V30 17051 H 1612.07 -4.37377 -0.644508 0
M  V30 17052 N 1611.13 -0.710588 -1.40671 0
M  V30 17053 C 1612.04 -0.0557164 -2.34534 0
M  V30 17054 C 1613.06 0.749387 -1.57036 0
M  V30 17055 O 1614.23 0.683493 -1.89447 0
M  V30 17056 C 1611.3 0.858583 -3.35901 0
M  V30 17057 C 1610.36 0.043995 -4.29277 0
M  V30 17058 C 1609.59 0.91475 -5.25802 0
M  V30 17059 O 1609.81 2.15407 -5.28163 0
M  V30 17060 O 1608.75 0.356407 -6.00844 0
M  V30 17061 H 1612.57 -0.829807 -2.92144 0
M  V30 17062 H 1610.16 -0.471028 -1.4178 0
M  V30 17063 H 1612.04 1.38244 -3.98079 0
M  V30 17064 H 1610.72 1.61191 -2.80712 0
M  V30 17065 H 1609.62 -0.524815 -3.704 0
M  V30 17066 H 1610.96 -0.670996 -4.87605 0
M  V30 17067 N 1612.61 1.50847 -0.456408 0
M  V30 17068 C 1613.52 2.31959 0.351027 0
M  V30 17069 C 1614.53 1.41697 1.00986 0
M  V30 17070 O 1615.71 1.7476 1.00105 0
M  V30 17071 C 1612.77 3.15973 1.42696 0
M  V30 17072 C 1611.84 4.22038 0.786272 0
M  V30 17073 C 1611.07 5.02036 1.81094 0
M  V30 17074 O 1611.29 4.82913 3.03564 0
M  V30 17075 O 1610.23 5.85609 1.3909 0
M  V30 17076 H 1614.05 3.02096 -0.311678 0
M  V30 17077 H 1611.64 1.47793 -0.218544 0
M  V30 17078 H 1613.52 3.68146 2.05053 0
M  V30 17079 H 1612.19 2.48579 2.0734 0
M  V30 17080 H 1611.1 3.73894 0.124148 0
M  V30 17081 H 1612.43 4.9186 0.183016 0
M  V30 17082 N 1614.09 0.188454 1.56469 0
M  V30 17083 C 1615.33 -0.452238 1.96565 0
M  V30 17084 C 1615.65 -1.63219 1.07792 0
M  V30 17085 O 1616.85 -2.34024 1.37641 0
M  V30 17086 C 1615.31 -0.855966 3.49573 0
M  V30 17087 C 1614.92 0.299329 4.46999 0
M  V30 17088 C 1616.66 -1.46411 3.98452 0
M  V30 17089 C 1614.57 -0.124987 5.91268 0
M  V30 17090 H 1613.5 -0.172729 0.733949 0
M  V30 17091 H 1616.15 0.279415 1.8136 0
M  V30 17092 H 1614.53 -1.64409 3.60258 0
M  V30 17093 H 1615.71 1.07681 4.48042 0
M  V30 17094 H 1614.02 0.818542 4.08275 0
M  V30 17095 H 1616.62 -1.79392 5.03709 0
M  V30 17096 H 1616.96 -2.36822 3.42376 0
M  V30 17097 H 1617.49 -0.740088 3.90855 0
M  V30 17098 H 1614.23 0.744769 6.51255 0
M  V30 17099 H 1613.75 -0.86747 5.93494 0
M  V30 17100 H 1615.43 -0.563054 6.44545 0
M  V30 17101 N 1615.56 -1.5737 -0.0851874 0
M  V30 17102 C 1616.84 -1.77624 -0.819094 0
M  V30 17103 C 1617.22 -0.772645 -1.96452 0
M  V30 17104 O 1616.57 0.196912 -2.2765 0
M  V30 17105 C 1616.78 -3.23704 -1.30449 0
M  V30 17106 C 1618.13 -3.87163 -1.74328 0
M  V30 17107 O 1619.15 -3.27513 -1.40048 0
M  V30 17108 O 1618.01 -4.92075 -2.37748 0
M  V30 17109 H 1615.1 -0.728487 -0.391453 0
M  V30 17110 H 1617.65 -1.6957 -0.0663006 0
M  V30 17111 H 1616.42 -3.88292 -0.484277 0
M  V30 17112 H 1616.04 -3.36429 -2.119 0
M  V30 17113 N 1617.04 0.356258 -1.53521 0
M  V30 17114 C 1617.99 1.43723 -1.76996 0
M  V30 17115 C 1618.98 1.48275 -0.624756 0
M  V30 17116 O 1620.17 1.53359 -0.883734 0
M  V30 17117 C 1617.3 2.81036 -1.97164 0
M  V30 17118 C 1616.38 2.80925 -3.17713 0
M  V30 17119 N 1616.77 2.50454 -4.39439 0
M  V30 17120 C 1615.07 3.12081 -3.18625 0
M  V30 17121 C 1615.77 2.58257 -5.21228 0
M  V30 17122 N 1614.75 2.93354 -4.57651 0
M  V30 17123 H 1618.55 1.19041 -2.68712 0
M  V30 17124 H 1616.06 0.564522 -1.52272 0
M  V30 17125 H 1618.06 3.58906 -2.12113 0
M  V30 17126 H 1616.72 3.06674 -1.06682 0
M  V30 17127 H 1617.73 2.23879 -4.6701 0
M  V30 17128 H 1614.41 3.42973 -2.38067 0
M  V30 17129 H 1615.8 2.37965 -6.28349 0
M  V30 17130 N 1618.52 1.45038 0.616577 0
M  V30 17131 C 1619.48 1.52647 1.70973 0
M  V30 17132 C 1620.48 0.406902 1.55567 0
M  V30 17133 O 1621.67 0.670062 1.60797 0
M  V30 17134 C 1618.8 1.41438 3.10174 0
M  V30 17135 H 1620 2.50036 1.65596 0
M  V30 17136 H 1617.55 1.32346 0.831524 0
M  V30 17137 H 1618.29 0.451991 3.21135 0
M  V30 17138 H 1618.07 2.22634 3.22764 0
M  V30 17139 H 1619.56 1.49776 3.89817 0
M  V30 17140 N 1620 -0.858287 1.32179 0
M  V30 17141 C 1620.91 -1.99894 1.228 0
M  V30 17142 C 1621.92 -1.73417 0.142323 0
M  V30 17143 O 1623.1 -1.98114 0.362321 0
M  V30 17144 C 1620.16 -3.33495 0.947745 0
M  V30 17145 C 1619.23 -3.73217 2.12149 0
M  V30 17146 C 1618.46 -5.00443 1.85452 0
M  V30 17147 O 1618.68 -5.64828 0.79531 0
M  V30 17148 O 1617.62 -5.3721 2.71457 0
M  V30 17149 H 1621.44 -2.10742 2.18682 0
M  V30 17150 H 1619.03 -0.988385 1.12033 0
M  V30 17151 H 1620.91 -4.13585 0.807791 0
M  V30 17152 H 1619.58 -3.23694 0.019053 0
M  V30 17153 H 1618.49 -2.93718 2.3169 0
M  V30 17154 H 1619.82 -3.87659 3.03285 0
M  V30 17155 N 1621.48 -1.1533 -1.07409 0
M  V30 17156 C 1622.89 -0.895817 -1.32088 0
M  V30 17157 C 1623.09 0.457526 -1.96237 0
M  V30 17158 O 1622.15 1.19958 -2.22185 0
M  V30 17159 C 1623.46 -2.03632 -2.21256 0
M  V30 17160 C 1625.01 -2.07079 -2.34707 0
M  V30 17161 C 1625.48 -3.20451 -3.27223 0
M  V30 17162 N 1626.97 -3.20095 -3.34804 0
M  V30 17163 C 1627.71 -4.04458 -4.0645 0
M  V30 17164 N 1627.21 -4.98883 -4.80715 0
M  V30 17165 N 1629 -3.92483 -4.02385 0
M  V30 17166 H 1621.15 -2.02478 -0.641578 0
M  V30 17167 H 1623.41 -0.882864 -0.345332 0
M  V30 17168 H 1623.12 -3.0132 -1.81381 0
M  V30 17169 H 1622.99 -1.96817 -3.21781 0
M  V30 17170 H 1625.38 -1.09991 -2.73836 0
M  V30 17171 H 1625.46 -2.17962 -1.3389 0
M  V30 17172 H 1625.1 -4.17791 -2.88813 0
M  V30 17173 H 1625.03 -3.06805 -4.27993 0
M  V30 17174 H 1627.53 -2.51712 -2.81868 0
M  V30 17175 H 1627.84 -5.59698 -5.32877 0
M  V30 17176 H 1626.18 -5.02872 -4.79734 0
M  V30 17177 H 1629.37 -3.18026 -3.43478 0
M  V30 17178 H 1629.55 -4.58454 -4.57956 0
M  V30 17179 N 1622.95 1.25748 -0.950004 0
M  V30 17180 C 1623.86 2.29783 -0.472971 0
M  V30 17181 C 1624.88 1.6788 0.457403 0
M  V30 17182 O 1626.06 1.98598 0.334779 0
M  V30 17183 C 1623.12 3.45826 0.245955 0
M  V30 17184 C 1622.18 4.23184 -0.722063 0
M  V30 17185 C 1621.41 5.33687 -0.0373517 0
M  V30 17186 O 1621.64 5.58105 1.1779 0
M  V30 17187 O 1620.57 5.97572 -0.72054 0
M  V30 17188 H 1624.4 2.72668 -1.33737 0
M  V30 17189 H 1621.98 1.31111 -0.71626 0
M  V30 17190 H 1623.86 4.16348 0.650563 0
M  V30 17191 H 1622.54 3.04953 1.0856 0
M  V30 17192 H 1621.45 3.55109 -1.17679 0
M  V30 17193 H 1622.78 4.67829 -1.52959 0
M  V30 17194 N 1624.43 0.718038 1.40292 0
M  V30 17195 C 1625.36 0.0818367 2.33357 0
M  V30 17196 C 1626.34 -0.742854 1.53022 0
M  V30 17197 O 1627.53 -0.691281 1.8148 0
M  V30 17198 C 1624.66 -0.838843 3.37017 0
M  V30 17199 C 1623.61 -0.119589 4.27833 0
M  V30 17200 C 1622.94 -1.15615 5.22051 0
M  V30 17201 C 1624.24 1.02769 5.1209 0
M  V30 17202 H 1625.93 0.859167 2.86808 0
M  V30 17203 H 1623.48 0.414606 1.37902 0
M  V30 17204 H 1625.43 -1.29332 4.01063 0
M  V30 17205 H 1624.15 -1.6481 2.81967 0
M  V30 17206 H 1622.81 0.315088 3.65243 0
M  V30 17207 H 1622.46 -1.95852 4.63304 0
M  V30 17208 H 1622.16 -0.679767 5.83655 0
M  V30 17209 H 1623.69 -1.61068 5.88973 0
M  V30 17210 H 1625.1 0.652461 5.69575 0
M  V30 17211 H 1623.5 1.4326 5.82749 0
M  V30 17212 H 1624.57 1.85723 4.47923 0
M  V30 17213 N 1625.91 -1.50602 0.464402 0
M  V30 17214 C 1627.33 -1.59162 0.118173 0
M  V30 17215 C 1627.53 -1.47313 -1.37481 0
M  V30 17216 O 1626.58 -1.32819 -2.14745 0
M  V30 17217 C 1627.9 -2.93313 0.662411 0
M  V30 17218 C 1629.44 -3.06692 0.625244 0
M  V30 17219 C 1629.92 -4.43407 1.14691 0
M  V30 17220 N 1631.41 -4.49801 1.10604 0
M  V30 17221 C 1632.14 -5.53964 1.48026 0
M  V30 17222 N 1631.64 -6.65413 1.92865 0
M  V30 17223 N 1633.43 -5.44471 1.39671 0
M  V30 17224 H 1625.58 -1.56548 1.4355 0
M  V30 17225 H 1627.85 -0.739451 0.593225 0
M  V30 17226 H 1627.55 -3.07439 1.70805 0
M  V30 17227 H 1627.43 -3.77061 0.102251 0
M  V30 17228 H 1629.81 -2.92217 -0.411466 0
M  V30 17229 H 1629.9 -2.24717 1.22213 0
M  V30 17230 H 1629.54 -4.5863 2.18222 0
M  V30 17231 H 1629.47 -5.23963 0.526306 0
M  V30 17232 H 1631.96 -3.69824 0.77709 0
M  V30 17233 H 1632.27 -7.40947 2.19585 0
M  V30 17234 H 1630.62 -6.66551 1.96812 0
M  V30 17235 H 1633.81 -4.56289 1.04487 0
M  V30 17236 H 1633.98 -6.25531 1.69161 0
M  V30 17237 N 1627.39 -0.19675 -1.56367 0
M  V30 17238 C 1628.8 0.159068 -1.58805 0
M  V30 17239 C 1629 1.60902 -1.21297 0
M  V30 17240 O 1628.06 2.34491 -0.93649 0
M  V30 17241 C 1629.37 -0.144784 -3.00351 0
M  V30 17242 C 1630.92 -0.0850243 -3.12884 0
M  V30 17243 C 1631.4 -0.362209 -4.56565 0
M  V30 17244 N 1632.89 -0.310887 -4.62156 0
M  V30 17245 C 1633.62 -0.499187 -5.71223 0
M  V30 17246 N 1633.12 -0.747925 -6.88751 0
M  V30 17247 N 1634.91 -0.433329 -5.60427 0
M  V30 17248 H 1627.06 -1.1429 -1.79029 0
M  V30 17249 H 1629.33 -0.456298 -0.830961 0
M  V30 17250 H 1629.03 -1.15019 -3.3236 0
M  V30 17251 H 1628.91 0.551864 -3.73141 0
M  V30 17252 H 1631.29 0.910992 -2.80687 0
M  V30 17253 H 1631.37 -0.814774 -2.42477 0
M  V30 17254 H 1631.02 -1.35555 -4.89477 0
M  V30 17255 H 1630.95 0.388448 -5.25165 0
M  V30 17256 H 1633.44 -0.125318 -3.77692 0
M  V30 17257 H 1633.75 -0.880372 -7.67769 0
M  V30 17258 H 1632.1 -0.784838 -6.90554 0
M  V30 17259 H 1635.29 -0.239411 -4.67487 0
M  V30 17260 H 1635.46 -0.583495 -6.45368 0
M  V30 17261 N 1628.87 1.57413 0.0768405 0
M  V30 17262 C 1630.11 1.86633 0.775414 0
M  V30 17263 C 1630.44 0.788041 1.78367 0
M  V30 17264 O 1629.71 -0.183835 1.95036 0
M  V30 17265 H 1628.29 0.688678 0.289365 0
M  V30 17266 H 1630.95 1.94825 0.0541285 0
M  V30 17267 H 1630.04 2.83977 1.29474 0
M  V30 17268 N 1630.34 -0.348112 1.53707 0
M  V30 17269 C 1631.28 -1.44781 1.77682 0
M  V30 17270 C 1632.29 -1.4891 0.657997 0
M  V30 17271 O 1633.48 -1.52075 0.934635 0
M  V30 17272 C 1630.58 -2.83463 1.85747 0
M  V30 17273 C 1629.75 -3.02827 3.15618 0
M  V30 17274 C 1628.81 -4.21724 3.14698 0
M  V30 17275 O 1627.84 -4.16059 3.88437 0
M  V30 17276 N 1629.04 -5.3003 2.36746 0
M  V30 17277 H 1631.8 -1.24587 2.72577 0
M  V30 17278 H 1629.36 -0.537961 1.52701 0
M  V30 17279 H 1631.36 -3.6117 1.82589 0
M  V30 17280 H 1629.93 -2.96822 0.980595 0
M  V30 17281 H 1629.15 -2.1263 3.31937 0
M  V30 17282 H 1630.43 -3.12645 4.01411 0
M  V30 17283 H 1629.83 -5.375 1.7638 0
M  V30 17284 H 1628.39 -6.06247 2.39389 0
M  V30 17285 N 1631.82 -1.45363 -0.608876 0
M  V30 17286 C 1633.07 -1.48586 -1.364 0
M  V30 17287 C 1633.38 -0.131213 -1.95159 0
M  V30 17288 O 1634.59 -0.0410845 -2.71469 0
M  V30 17289 C 1633.05 -2.61694 -2.47071 0
M  V30 17290 C 1632.65 -4.03466 -1.94729 0
M  V30 17291 C 1634.4 -2.74162 -3.24091 0
M  V30 17292 C 1632.31 -5.07958 -3.02874 0
M  V30 17293 H 1631.24 -0.552893 -0.512665 0
M  V30 17294 H 1633.89 -1.71499 -0.65271 0
M  V30 17295 H 1632.27 -2.32062 -3.20879 0
M  V30 17296 H 1633.44 -4.4277 -1.27638 0
M  V30 17297 H 1631.76 -3.95436 -1.30457 0
M  V30 17298 H 1634.35 -3.494 -4.04752 0
M  V30 17299 H 1634.7 -1.80751 -3.75013 0
M  V30 17300 H 1635.23 -3.03313 -2.57383 0
M  V30 17301 H 1631.97 -6.03073 -2.56871 0
M  V30 17302 H 1631.49 -4.73225 -3.68535 0
M  V30 17303 H 1633.17 -5.3265 -3.67277 0
M  V30 17304 N 1633.3 0.851265 -1.32632 0
M  V30 17305 C 1634.23 1.97562 -1.24465 0
M  V30 17306 C 1635.21 1.69619 -0.127777 0
M  V30 17307 O 1636.4 1.9162 -0.315509 0
M  V30 17308 C 1633.53 3.33467 -0.970423 0
M  V30 17309 C 1632.48 3.75772 -2.0489 0
M  V30 17310 C 1631.81 5.09345 -1.62702 0
M  V30 17311 C 1633.11 3.90876 -3.4643 0
M  V30 17312 H 1634.8 2.04653 -2.18535 0
M  V30 17313 H 1632.35 0.983252 -1.05205 0
M  V30 17314 H 1634.3 4.11681 -0.899825 0
M  V30 17315 H 1633.02 3.26599 0.00591373 0
M  V30 17316 H 1631.68 2.99812 -2.1097 0
M  V30 17317 H 1631.33 4.98937 -0.638039 0
M  V30 17318 H 1631.03 5.38621 -2.34864 0
M  V30 17319 H 1632.55 5.90048 -1.57085 0
M  V30 17320 H 1633.97 4.59434 -3.42919 0
M  V30 17321 H 1632.37 4.31574 -4.1697 0
M  V30 17322 H 1633.44 2.93689 -3.85843 0
M  V30 17323 N 1634.78 1.15898 1.06796 0
M  V30 17324 C 1636.02 0.94871 1.7992 0
M  V30 17325 C 1636.38 -0.518297 1.85287 0
M  V30 17326 O 1635.67 -1.37946 1.32972 0
M  V30 17327 C 1635.87 1.50368 3.24229 0
M  V30 17328 C 1635.7 3.02311 3.32923 0
M  V30 17329 C 1634.47 3.70908 3.43155 0
M  V30 17330 C 1636.66 4.00051 3.23209 0
M  V30 17331 N 1634.65 5.10609 3.4081 0
M  V30 17332 C 1636.02 5.26103 3.28048 0
M  V30 17333 C 1638.07 3.91944 3.07058 0
M  V30 17334 C 1636.77 6.44993 3.18397 0
M  V30 17335 C 1638.8 5.10398 2.98743 0
M  V30 17336 C 1638.16 6.35328 3.042 0
M  V30 17337 H 1634.26 0.400877 0.671433 0
M  V30 17338 H 1636.85 1.47202 1.27436 0
M  V30 17339 H 1635.02 1.00693 3.75121 0
M  V30 17340 H 1636.75 1.23166 3.85502 0
M  V30 17341 H 1633.5 3.21521 3.47737 0
M  V30 17342 H 1633.93 5.83589 3.43151 0
M  V30 17343 H 1638.57 2.96216 3.01688 0
M  V30 17344 H 1636.29 7.40948 3.22524 0
M  V30 17345 H 1639.87 5.05891 2.87342 0
M  V30 17346 H 1638.75 7.25448 2.97818 0
M  V30 17347 N 1636.26 -1.25243 0.956659 0
M  V30 17348 C 1637.5 -1.93014 0.612538 0
M  V30 17349 C 1637.83 -1.74908 -0.85073 0
M  V30 17350 O 1637.09 -1.08896 -1.62604 0
M  V30 17351 C 1637.39 -3.4536 0.919849 0
M  V30 17352 C 1637.05 -3.83623 2.36948 0
M  V30 17353 C 1635.71 -3.93779 2.76571 0
M  V30 17354 C 1638.07 -4.02536 3.3108 0
M  V30 17355 C 1635.39 -4.20257 4.09391 0
M  V30 17356 C 1637.75 -4.30507 4.63515 0
M  V30 17357 C 1636.41 -4.3888 5.02932 0
M  V30 17358 H 1635.68 -0.706286 0.224144 0
M  V30 17359 H 1638.33 -1.48748 1.20608 0
M  V30 17360 H 1636.63 -3.9104 0.243941 0
M  V30 17361 H 1638.33 -3.95986 0.632143 0
M  V30 17362 H 1634.92 -3.76275 2.05219 0
M  V30 17363 H 1639.1 -3.94102 3.01657 0
M  V30 17364 H 1634.36 -4.24956 4.39571 0
M  V30 17365 H 1638.53 -4.44087 5.36433 0
M  V30 17366 H 1636.16 -4.59151 6.05875 0
M  V30 17367 N 1637.73 -0.725468 -1.3991 0
M  V30 17368 C 1639.15 -0.400048 -1.54505 0
M  V30 17369 C 1639.35 1.09014 -1.69464 0
M  V30 17370 O 1638.41 1.87624 -1.68977 0
M  V30 17371 C 1639.72 -1.17474 -2.76804 0
M  V30 17372 C 1641.27 -1.16202 -2.9063 0
M  V30 17373 C 1641.74 -1.91908 -4.15855 0
M  V30 17374 N 1643.23 -1.89026 -4.22875 0
M  V30 17375 C 1643.97 -2.4442 -5.18697 0
M  V30 17376 N 1643.46 -3.0841 -6.20367 0
M  V30 17377 N 1645.26 -2.34506 -5.10846 0
M  V30 17378 H 1637.41 -1.6916 -1.28447 0
M  V30 17379 H 1639.67 -0.715556 -0.621839 0
M  V30 17380 H 1639.38 -2.22881 -2.72061 0
M  V30 17381 H 1639.25 -0.772871 -3.69197 0
M  V30 17382 H 1641.64 -0.116116 -2.94871 0
M  V30 17383 H 1641.72 -1.60319 -1.99327 0
M  V30 17384 H 1641.36 -2.96494 -4.12375 0
M  V30 17385 H 1641.29 -1.45204 -5.06185 0
M  V30 17386 H 1643.78 -1.42399 -3.50044 0
M  V30 17387 H 1644.1 -3.48169 -6.89926 0
M  V30 17388 H 1642.44 -3.12497 -6.20782 0
M  V30 17389 H 1645.63 -1.84164 -4.3035 0
M  V30 17390 H 1645.81 -2.77976 -5.85349 0
M  V30 17391 N 1639.21 1.50354 -0.472382 0
M  V30 17392 C 1640.46 2.01934 0.0820006 0
M  V30 17393 C 1640.78 1.35636 1.401 0
M  V30 17394 O 1640.05 0.502127 1.89355 0
M  V30 17395 H 1638.63 0.746258 0.0332943 0
M  V30 17396 H 1641.29 1.84671 -0.623099 0
M  V30 17397 H 1640.39 3.11232 0.232565 0
M  V30 17398 N 1640.69 0.205039 1.56261 0
M  V30 17399 C 1641.62 -0.706815 2.22545 0
M  V30 17400 C 1642.6 -1.21372 1.19176 0
M  V30 17401 O 1643.79 -1.26074 1.47712 0
M  V30 17402 C 1640.92 -1.92221 2.89255 0
M  V30 17403 C 1639.87 -1.54982 3.98954 0
M  V30 17404 C 1639.2 -2.84265 4.52877 0
M  V30 17405 C 1640.5 -0.75225 5.16854 0
M  V30 17406 H 1642.19 -0.15421 2.99003 0
M  V30 17407 H 1639.74 -0.0727309 1.43816 0
M  V30 17408 H 1641.69 -2.56542 3.34311 0
M  V30 17409 H 1640.41 -2.49952 2.10218 0
M  V30 17410 H 1639.07 -0.930155 3.54604 0
M  V30 17411 H 1638.72 -3.40105 3.70591 0
M  V30 17412 H 1638.42 -2.60089 5.26904 0
M  V30 17413 H 1639.95 -3.49557 5.00642 0
M  V30 17414 H 1641.36 -1.29878 5.58395 0
M  V30 17415 H 1639.76 -0.60823 5.9701 0
M  V30 17416 H 1640.83 0.24463 4.84283 0
M  V30 17417 N 1642.17 -1.57451 -0.0684915 0
M  V30 17418 C 1643.12 -2.04959 -1.09975 0
M  V30 17419 C 1644.11 -0.955558 -1.39877 0
M  V30 17420 O 1645.32 -1.14066 -1.39245 0
M  V30 17421 H 1641.69 -0.653542 -0.372003 0
M  V30 17422 H 1643.66 -2.90713 -0.67294 0
M  V30 17423 C 1642.41 -2.51192 -2.40412 0
M  V30 17424 H 1641.74 -3.3497 -2.18254 0
M  V30 17425 H 1643.18 -2.88183 -3.11008 0
M  V30 17426 C 1641.63 -1.39624 -3.06605 0
M  V30 17427 O 1642.16 -0.740191 -3.94822 0
M  V30 17428 N 1640.37 -1.14054 -2.67283 0
M  V30 17429 H 1639.92 -1.67585 -1.95635 0
M  V30 17430 H 1639.88 -0.396106 -3.11895 0
M  V30 17431 N 1643.65 0.339955 -1.5389 0
M  V30 17432 C 1645.06 0.683287 -1.44234 0
M  V30 17433 C 1645.26 1.92298 -0.601976 0
M  V30 17434 O 1644.32 2.52324 -0.0943623 0
M  V30 17435 C 1645.63 0.872576 -2.87761 0
M  V30 17436 C 1647.18 0.970965 -2.97559 0
M  V30 17437 C 1647.66 1.19254 -4.42202 0
M  V30 17438 N 1649.15 1.25966 -4.45743 0
M  V30 17439 C 1649.88 1.44869 -5.54798 0
M  V30 17440 N 1649.38 1.6092 -6.73852 0
M  V30 17441 N 1651.17 1.47445 -5.42417 0
M  V30 17442 H 1643.32 -0.475086 -2.07019 0
M  V30 17443 H 1645.58 -0.150644 -0.935954 0
M  V30 17444 H 1645.29 0.033117 -3.51684 0
M  V30 17445 H 1645.16 1.77326 -3.32919 0
M  V30 17446 H 1647.55 1.80094 -2.33774 0
M  V30 17447 H 1647.63 0.0471065 -2.55757 0
M  V30 17448 H 1647.28 0.367482 -5.06569 0
M  V30 17449 H 1647.21 2.13002 -4.81599 0
M  V30 17450 H 1649.7 1.15072 -3.59954 0
M  V30 17451 H 1650.01 1.74989 -7.52727 0
M  V30 17452 H 1648.36 1.58049 -6.7679 0
M  V30 17453 H 1651.55 1.34489 -4.48364 0
M  V30 17454 H 1651.72 1.61834 -6.27466 0
M  V30 17455 N 1645.13 1.45684 0.601159 0
M  V30 17456 C 1646.37 1.49308 1.3561 0
M  V30 17457 C 1646.69 0.141561 1.95087 0
M  V30 17458 O 1647.89 0.0554805 2.71443 0
M  V30 17459 C 1646.35 2.63001 2.4568 0
M  V30 17460 C 1645.96 4.04493 1.92586 0
M  V30 17461 C 1647.7 2.75877 3.22633 0
M  V30 17462 C 1645.61 5.09557 3.00176 0
M  V30 17463 H 1644.54 0.555604 0.509726 0
M  V30 17464 H 1647.19 1.71843 0.643606 0
M  V30 17465 H 1645.57 2.33761 3.19643 0
M  V30 17466 H 1646.75 4.4344 1.25289 0
M  V30 17467 H 1645.06 3.96123 1.28358 0
M  V30 17468 H 1647.66 3.51541 4.02893 0
M  V30 17469 H 1648 1.82737 3.74049 0
M  V30 17470 H 1648.53 3.04674 2.5577 0
M  V30 17471 H 1645.27 6.04427 2.53669 0
M  V30 17472 H 1644.79 4.75173 3.6602 0
M  V30 17473 H 1646.47 5.34591 3.64447 0
M  V30 17474 N 1646.6 -0.84422 1.33082 0
M  V30 17475 C 1647.54 -1.96055 1.18722 0
M  V30 17476 C 1648.55 -1.62361 0.119538 0
M  V30 17477 O 1649.74 -1.74634 0.369469 0
M  V30 17478 C 1646.84 -3.29387 0.797318 0
M  V30 17479 C 1646.01 -3.91253 1.95551 0
M  V30 17480 C 1645.07 -5.02932 1.54745 0
M  V30 17481 O 1644.1 -5.22367 2.26101 0
M  V30 17482 N 1645.3 -5.78758 0.449394 0
M  V30 17483 H 1648.06 -2.08912 2.14886 0
M  V30 17484 H 1645.62 -1.01966 1.25756 0
M  V30 17485 H 1647.62 -4.01517 0.506536 0
M  V30 17486 H 1646.19 -3.12514 -0.0734775 0
M  V30 17487 H 1645.41 -3.11779 2.41221 0
M  V30 17488 H 1646.69 -4.2932 2.73061 0
M  V30 17489 H 1646.09 -5.65516 -0.14428 0
M  V30 17490 H 1644.65 -6.51434 0.218264 0
M  V30 17491 N 1648.08 -1.16463 -1.0618 0
M  V30 17492 C 1649.31 -0.971075 -1.82696 0
M  V30 17493 C 1649.72 0.480716 -1.82578 0
M  V30 17494 O 1649.08 1.33366 -1.24579 0
M  V30 17495 C 1649.13 -1.49235 -3.29259 0
M  V30 17496 O 1648.85 -2.88728 -3.29496 0
M  V30 17497 C 1650.35 -1.34197 -4.225 0
M  V30 17498 H 1647.57 -0.34415 -0.576023 0
M  V30 17499 H 1650.12 -1.54517 -1.33958 0
M  V30 17500 H 1648.27 -0.960503 -3.75304 0
M  V30 17501 H 1648.69 -3.12618 -4.21153 0
M  V30 17502 H 1650.16 -1.75499 -5.23358 0
M  V30 17503 H 1650.64 -0.287685 -4.38257 0
M  V30 17504 H 1651.24 -1.86349 -3.82301 0
M  V30 17505 N 1649.56 1.24734 -0.963288 0
M  V30 17506 C 1650.49 2.24785 -0.447722 0
M  V30 17507 C 1651.5 1.5671 0.44113 0
M  V30 17508 O 1652.69 1.76769 0.248015 0
M  V30 17509 C 1649.79 3.36837 0.373368 0
M  V30 17510 C 1648.97 4.3448 -0.504532 0
M  V30 17511 C 1648.03 5.25558 0.25981 0
M  V30 17512 O 1647.05 5.68155 -0.344754 0
M  V30 17513 N 1648.25 5.59408 1.55058 0
M  V30 17514 H 1651.02 2.69654 -1.30792 0
M  V30 17515 H 1648.58 1.38729 -0.834614 0
M  V30 17516 H 1650.57 3.94733 0.892631 0
M  V30 17517 H 1649.14 2.91288 1.13447 0
M  V30 17518 H 1648.36 3.75337 -1.20481 0
M  V30 17519 H 1649.65 4.96691 -1.10343 0
M  V30 17520 H 1649.05 5.2672 2.06355 0
M  V30 17521 H 1647.6 6.19851 2.01563 0
M  V30 17522 N 1651.04 0.732878 1.39523 0
M  V30 17523 C 1652.29 0.276787 1.99792 0
M  V30 17524 C 1652.6 -1.14181 1.58814 0
M  V30 17525 O 1653.81 -1.69731 2.11905 0
M  V30 17526 C 1652.26 0.443924 3.57152 0
M  V30 17527 C 1651.87 1.87027 4.07093 0
M  V30 17528 C 1653.61 0.0495022 4.24471 0
M  V30 17529 C 1651.52 1.98708 5.57018 0
M  V30 17530 H 1650.45 0.0997337 0.747375 0
M  V30 17531 H 1653.1 0.906454 1.59548 0
M  V30 17532 H 1651.48 -0.254605 3.95181 0
M  V30 17533 H 1652.66 2.60059 3.80403 0
M  V30 17534 H 1650.97 2.21772 3.52429 0
M  V30 17535 H 1653.57 0.115815 5.34575 0
M  V30 17536 H 1653.91 -0.994967 4.04235 0
M  V30 17537 H 1654.45 0.69911 3.91609 0
M  V30 17538 H 1651.18 3.01336 5.82131 0
M  V30 17539 H 1650.7 1.30111 5.85518 0
M  V30 17540 H 1652.38 1.76725 6.22396 0
M  V30 17541 N 1652.52 -1.50101 0.480349 0
M  V30 17542 C 1653.93 -1.59028 0.135048 0
M  V30 17543 C 1654.13 -1.48763 -1.35911 0
M  V30 17544 O 1653.19 -1.35089 -2.13324 0
M  V30 17545 C 1654.5 -2.92594 0.693483 0
M  V30 17546 C 1656.05 -3.06011 0.657737 0
M  V30 17547 C 1656.52 -4.42166 1.19388 0
M  V30 17548 N 1658.01 -4.48603 1.15368 0
M  V30 17549 C 1658.75 -5.52363 1.53893 0
M  V30 17550 N 1658.25 -6.6333 1.99911 0
M  V30 17551 N 1660.04 -5.42959 1.45438 0
M  V30 17552 H 1652.19 -1.55017 1.45202 0
M  V30 17553 H 1654.45 -0.733118 0.601034 0
M  V30 17554 H 1654.16 -3.0561 1.74056 0
M  V30 17555 H 1654.03 -3.76932 0.142238 0
M  V30 17556 H 1656.42 -2.92637 -0.38045 0
M  V30 17557 H 1656.5 -2.23408 1.24589 0
M  V30 17558 H 1656.14 -4.5629 2.23074 0
M  V30 17559 H 1656.07 -5.23376 0.58185 0
M  V30 17560 H 1658.57 -3.68979 0.816271 0
M  V30 17561 H 1658.88 -7.38576 2.27431 0
M  V30 17562 H 1657.22 -6.64426 2.03871 0
M  V30 17563 H 1660.41 -4.55156 1.09321 0
M  V30 17564 H 1660.59 -6.23701 1.75786 0
M  V30 17565 N 1653.99 -0.213323 -1.5615 0
M  V30 17566 C 1655.24 0.421221 -1.98377 0
M  V30 17567 C 1655.57 1.59998 -1.10065 0
M  V30 17568 O 1654.85 1.93869 -0.15654 0
M  V30 17569 C 1655.13 0.86375 -3.49587 0
M  V30 17570 C 1654.98 -0.318077 -4.48674 0
M  V30 17571 C 1656.3 1.72285 -4.04976 0
M  V30 17572 H 1653.42 0.151635 -0.721232 0
M  V30 17573 H 1656.06 -0.307907 -1.87488 0
M  V30 17574 H 1654.21 1.48503 -3.58998 0
M  V30 17575 H 1655.89 -0.956094 -4.51283 0
M  V30 17576 H 1654.13 -0.966881 -4.22888 0
M  V30 17577 H 1654.8 0.0343662 -5.51989 0
M  V30 17578 H 1657.28 1.19872 -3.98459 0
M  V30 17579 H 1656.15 2.0014 -5.11112 0
M  V30 17580 H 1656.41 2.68336 -3.51352 0
M  V30 17581 N 1655.47 1.57485 0.0601405 0
M  V30 17582 C 1656.72 1.88094 0.758192 0
M  V30 17583 C 1657.05 0.807138 1.76632 0
M  V30 17584 O 1656.33 -0.181347 1.93653 0
M  V30 17585 C 1656.61 3.29363 1.45574 0
M  V30 17586 C 1656.46 4.47408 0.463233 0
M  V30 17587 C 1657.78 3.69048 2.39773 0
M  V30 17588 H 1654.9 0.684106 0.274169 0
M  V30 17589 H 1657.54 1.89988 0.0212215 0
M  V30 17590 H 1655.69 3.27879 2.08393 0
M  V30 17591 H 1657.36 4.6102 -0.160641 0
M  V30 17592 H 1655.61 4.3324 -0.220408 0
M  V30 17593 H 1656.28 5.43065 0.989164 0
M  V30 17594 H 1658.75 3.71701 1.87024 0
M  V30 17595 H 1657.63 4.68761 2.85577 0
M  V30 17596 H 1657.89 2.9961 3.25094 0
M  V30 17597 N 1656.95 -0.331789 1.54068 0
M  V30 17598 C 1657.9 -1.42815 1.83593 0
M  V30 17599 C 1658.89 -1.53931 0.707231 0
M  V30 17600 O 1660.1 -1.56414 0.890763 0
M  V30 17601 H 1656.47 -0.476418 0.581833 0
M  V30 17602 H 1658.44 -1.15133 2.75294 0
M  V30 17603 C 1657.19 -2.79162 2.07277 0
M  V30 17604 H 1656.52 -2.7138 2.93586 0
M  V30 17605 H 1657.96 -3.54966 2.31895 0
M  V30 17606 C 1656.42 -3.25691 0.861816 0
M  V30 17607 O 1656.95 -4.01644 0.0670133 0
M  V30 17608 N 1655.15 -2.82634 0.675746 0
M  V30 17609 H 1654.7 -2.20988 1.32371 0
M  V30 17610 H 1654.66 -3.14119 -0.133004 0
M  V30 17611 N 1658.43 -1.46001 -0.593424 0
M  V30 17612 C 1659.39 -1.55347 -1.68523 0
M  V30 17613 C 1660.39 -0.431599 -1.549 0
M  V30 17614 O 1661.58 -0.695559 -1.59711 0
M  V30 17615 C 1658.71 -1.46355 -3.07885 0
M  V30 17616 H 1659.91 -2.52639 -1.61597 0
M  V30 17617 H 1657.46 -1.33652 -0.810363 0
M  V30 17618 H 1658.19 -0.503024 -3.20375 0
M  V30 17619 H 1657.98 -2.27741 -3.19181 0
M  V30 17620 H 1659.47 -1.55958 -3.87385 0
M  V30 17621 N 1659.91 0.83715 -1.33527 0
M  V30 17622 C 1661.15 1.59251 -1.25081 0
M  V30 17623 C 1661.48 1.93638 0.182956 0
M  V30 17624 O 1660.74 1.59025 1.14059 0
M  V30 17625 C 1661.04 2.9113 -2.07312 0
M  V30 17626 C 1660.7 2.76098 -3.56484 0
M  V30 17627 C 1659.36 2.71706 -3.97151 0
M  V30 17628 C 1661.72 2.60781 -4.51268 0
M  V30 17629 C 1659.04 2.49899 -5.30818 0
M  V30 17630 C 1661.4 2.40507 -5.85097 0
M  V30 17631 C 1660.06 2.34519 -6.24946 0
M  V30 17632 H 1659.33 0.582741 -0.457705 0
M  V30 17633 H 1661.98 0.969749 -1.65131 0
M  V30 17634 H 1660.28 3.57621 -1.60045 0
M  V30 17635 H 1661.98 3.48632 -1.98133 0
M  V30 17636 H 1658.57 2.8035 -3.24194 0
M  V30 17637 H 1662.75 2.63207 -4.20756 0
M  V30 17638 H 1658.01 2.4371 -5.60728 0
M  V30 17639 H 1662.18 2.27639 -6.58144 0
M  V30 17640 H 1659.81 2.17381 -7.28457 0
M  V30 17641 N 1661.38 1.17024 1.05561 0
M  V30 17642 C 1662.8 0.916718 1.30646 0
M  V30 17643 C 1663 -0.426248 1.9694 0
M  V30 17644 O 1662.06 -1.16408 2.24065 0
M  V30 17645 C 1663.37 2.07126 2.17989 0
M  V30 17646 C 1664.92 2.10787 2.31383 0
M  V30 17647 C 1665.39 3.25616 3.22084 0
M  V30 17648 N 1666.88 3.25381 3.29669 0
M  V30 17649 C 1667.62 4.10873 3.99964 0
M  V30 17650 N 1667.11 5.06468 4.72718 0
M  V30 17651 N 1668.91 3.98835 3.9609 0
M  V30 17652 H 1661.06 2.03474 0.609284 0
M  V30 17653 H 1663.32 0.888247 0.331243 0
M  V30 17654 H 1663.03 3.04168 1.76564 0
M  V30 17655 H 1662.9 2.01912 3.18609 0
M  V30 17656 H 1665.29 1.14333 2.72051 0
M  V30 17657 H 1665.37 2.20064 1.30405 0
M  V30 17658 H 1665.01 4.22333 2.8213 0
M  V30 17659 H 1664.94 3.13575 4.23058 0
M  V30 17660 H 1667.43 2.56164 2.77828 0
M  V30 17661 H 1667.75 5.68105 5.23905 0
M  V30 17662 H 1666.09 5.10441 4.71673 0
M  V30 17663 H 1669.28 3.23451 3.38375 0
M  V30 17664 H 1669.46 4.65682 4.50604 0
M  V30 17665 N 1662.86 -1.24221 0.969889 0
M  V30 17666 C 1664.09 -1.96943 0.650262 0
M  V30 17667 C 1664.51 -1.71437 -0.774018 0
M  V30 17668 O 1663.87 -0.979428 -1.52568 0
M  V30 17669 C 1663.92 -3.48303 0.933682 0
M  V30 17670 O 1663.02 -4.12395 0.0202425 0
M  V30 17671 H 1662.36 -0.616902 0.245618 0
M  V30 17672 H 1664.89 -1.57939 1.30063 0
M  V30 17673 H 1664.9 -3.98701 0.866106 0
M  V30 17674 H 1663.58 -3.66194 1.97166 0
M  V30 17675 H 1662.16 -3.72632 0.141327 0
M  V30 17676 N 1664.34 -0.740267 -1.39132 0
M  V30 17677 C 1665.57 -0.299605 -2.05225 0
M  V30 17678 C 1665.99 1.05904 -1.55454 0
M  V30 17679 O 1665.35 1.67216 -0.700603 0
M  V30 17680 C 1665.4 -0.316792 -3.59206 0
M  V30 17681 O 1664.5 0.693786 -4.06522 0
M  V30 17682 H 1663.84 -0.135146 -0.650101 0
M  V30 17683 H 1666.37 -1.00766 -1.78065 0
M  V30 17684 H 1666.38 -0.163013 -4.07674 0
M  V30 17685 H 1665.06 -1.30814 -3.94792 0
M  V30 17686 H 1663.63 0.505712 -3.69455 0
M  V30 17687 N 1665.82 1.49844 -0.488302 0
M  V30 17688 C 1666.75 2.31737 0.286432 0
M  V30 17689 C 1667.73 1.39424 0.974418 0
M  V30 17690 O 1668.91 1.68339 0.968274 0
M  V30 17691 C 1666.04 3.19616 1.35878 0
M  V30 17692 C 1665 4.20619 0.791409 0
M  V30 17693 C 1664.32 4.9735 1.96333 0
M  V30 17694 C 1665.62 5.21882 -0.208975 0
M  V30 17695 H 1667.32 2.96755 -0.397092 0
M  V30 17696 H 1664.86 1.42709 -0.192413 0
M  V30 17697 H 1666.82 3.75711 1.90838 0
M  V30 17698 H 1665.54 2.52516 2.07131 0
M  V30 17699 H 1664.2 3.65651 0.263647 0
M  V30 17700 H 1663.85 4.26708 2.66325 0
M  V30 17701 H 1663.55 5.65684 1.58983 0
M  V30 17702 H 1665.07 5.56286 2.51751 0
M  V30 17703 H 1666.49 5.72746 0.252049 0
M  V30 17704 H 1664.88 5.98033 -0.497638 0
M  V30 17705 H 1665.95 4.7157 -1.12916 0
M  V30 17706 N 1667.3 0.221601 1.56034 0
M  V30 17707 C 1668.53 -0.414343 2.02402 0
M  V30 17708 C 1668.93 -1.5389 1.10066 0
M  V30 17709 O 1668.28 -1.83413 0.102587 0
M  V30 17710 C 1668.34 -1.00704 3.45107 0
M  V30 17711 C 1668 -0.0179259 4.56996 0
M  V30 17712 C 1669 0.782467 5.13978 0
M  V30 17713 C 1666.69 0.100842 5.02199 0
M  V30 17714 C 1668.68 1.68833 6.14633 0
M  V30 17715 C 1666.37 1.01024 6.02692 0
M  V30 17716 C 1667.36 1.80253 6.58785 0
M  V30 17717 O 1667.05 2.69664 7.57322 0
M  V30 17718 H 1666.78 -0.105645 0.667694 0
M  V30 17719 H 1669.34 0.335505 2.02641 0
M  V30 17720 H 1667.57 -1.80598 3.41937 0
M  V30 17721 H 1669.26 -1.5504 3.75123 0
M  V30 17722 H 1670.02 0.70116 4.79905 0
M  V30 17723 H 1665.9 -0.505723 4.58218 0
M  V30 17724 H 1669.45 2.30718 6.58343 0
M  V30 17725 H 1665.34 1.09256 6.36187 0
M  V30 17726 H 1666.11 2.6374 7.74844 0
M  V30 17727 N 1668.77 -1.57515 -0.0517878 0
M  V30 17728 C 1669.68 -2.08427 -1.07681 0
M  V30 17729 C 1670.7 -1.01797 -1.41115 0
M  V30 17730 O 1671.88 -1.33394 -1.50891 0
M  V30 17731 C 1668.94 -2.53472 -2.36544 0
M  V30 17732 C 1668 -3.74488 -2.09899 0
M  V30 17733 C 1667.24 -4.17374 -3.32618 0
M  V30 17734 O 1667.46 -3.59962 -4.42475 0
M  V30 17735 O 1666.39 -5.10006 -3.19653 0
M  V30 17736 H 1670.22 -2.96122 -0.674217 0
M  V30 17737 H 1667.8 -1.4699 -0.267274 0
M  V30 17738 H 1669.69 -2.82876 -3.12345 0
M  V30 17739 H 1668.36 -1.68899 -2.76143 0
M  V30 17740 H 1667.27 -3.50137 -1.31739 0
M  V30 17741 H 1668.6 -4.59975 -1.75169 0
M  V30 17742 N 1670.25 0.323614 -1.54242 0
M  V30 17743 C 1671.5 1.05947 -1.72104 0
M  V30 17744 C 1671.82 1.88547 -0.497512 0
M  V30 17745 O 1671.09 1.89712 0.488485 0
M  V30 17746 H 1669.67 0.394141 -0.634557 0
M  V30 17747 H 1672.33 0.360063 -1.91545 0
M  V30 17748 H 1671.43 1.72552 -2.60062 0
M  V30 17749 N 1671.73 1.46313 0.585673 0
M  V30 17750 C 1672.66 1.59511 1.70524 0
M  V30 17751 C 1673.64 0.445578 1.6416 0
M  V30 17752 O 1674.83 0.671455 1.82223 0
M  V30 17753 C 1671.96 1.58229 3.09162 0
M  V30 17754 C 1670.91 2.72122 3.30354 0
M  V30 17755 C 1670.24 2.559 4.69489 0
M  V30 17756 C 1671.54 4.13969 3.18476 0
M  V30 17757 H 1673.23 2.53229 1.59735 0
M  V30 17758 H 1670.78 1.2187 0.767046 0
M  V30 17759 H 1672.73 1.66056 3.87303 0
M  V30 17760 H 1671.45 0.610535 3.20843 0
M  V30 17761 H 1670.11 2.63759 2.54611 0
M  V30 17762 H 1669.76 1.56814 4.77931 0
M  V30 17763 H 1669.46 3.32289 4.84621 0
M  V30 17764 H 1670.99 2.65613 5.49802 0
M  V30 17765 H 1672.4 4.23459 3.86465 0
M  V30 17766 H 1670.8 4.90922 3.45131 0
M  V30 17767 H 1671.87 4.34334 2.15598 0
M  V30 17768 N 1673.21 -0.830057 1.33969 0
M  V30 17769 C 1674.12 -1.97244 1.27012 0
M  V30 17770 C 1675.14 -1.73076 0.179075 0
M  V30 17771 O 1676.31 -1.97301 0.404262 0
M  V30 17772 C 1673.38 -3.31409 1.01827 0
M  V30 17773 C 1672.44 -3.68633 2.20018 0
M  V30 17774 C 1671.67 -4.96397 1.96025 0
M  V30 17775 O 1671.89 -5.63014 0.91494 0
M  V30 17776 O 1670.83 -5.31331 2.82791 0
M  V30 17777 H 1674.65 -2.06056 2.23103 0
M  V30 17778 H 1672.24 -0.964399 1.14104 0
M  V30 17779 H 1674.12 -4.11779 0.895337 0
M  V30 17780 H 1672.8 -3.23581 0.0877091 0
M  V30 17781 H 1671.7 -2.88738 2.37869 0
M  V30 17782 H 1673.04 -3.81138 3.11439 0
M  V30 17783 N 1674.69 -1.17582 -1.04939 0
M  V30 17784 C 1675.63 -0.894855 -2.12746 0
M  V30 17785 C 1676.6 0.162261 -1.65306 0
M  V30 17786 O 1677.79 0.0245068 -1.90784 0
M  V30 17787 C 1674.93 -0.417085 -3.4257 0
M  V30 17788 C 1674.04 -1.53861 -4.03672 0
M  V30 17789 C 1673.18 -1.01446 -5.21423 0
M  V30 17790 C 1672.22 -2.11127 -5.74536 0
M  V30 17791 N 1671.35 -1.60169 -6.83586 0
M  V30 17792 H 1676.19 -1.81802 -2.36118 0
M  V30 17793 H 1673.73 -0.906716 -1.15832 0
M  V30 17794 H 1675.69 -0.121619 -4.17023 0
M  V30 17795 H 1674.32 0.469119 -3.19373 0
M  V30 17796 H 1673.37 -1.94975 -3.26633 0
M  V30 17797 H 1674.68 -2.36575 -4.39128 0
M  V30 17798 H 1673.84 -0.672992 -6.02956 0
M  V30 17799 H 1672.58 -0.156795 -4.87448 0
M  V30 17800 H 1671.58 -2.46128 -4.91631 0
M  V30 17801 H 1672.81 -2.97313 -6.10559 0
M  V30 17802 H 1670.75 -0.766783 -6.51503 0
M  V30 17803 H 1670.67 -2.36488 -7.18059 0
M  V30 17804 H 1671.94 -1.28923 -7.68765 0
M  V30 17805 N 1676.17 1.23705 -0.976463 0
M  V30 17806 C 1677.58 1.73848 -0.680723 0
M  V30 17807 C 1677.93 1.79005 0.803228 0
M  V30 17808 O 1677.05 1.42529 1.62832 0
M  V30 17809 C 1677.65 3.15724 -1.22898 0
M  V30 17810 C 1676.21 3.63338 -0.982963 0
M  V30 17811 C 1675.35 2.41712 -1.35906 0
M  V30 17812 H 1678.3 1.09284 -1.15077 0
M  V30 17813 H 1678.33 3.75748 -0.599487 0
M  V30 17814 H 1677.84 3.11938 -2.30903 0
M  V30 17815 H 1675.94 3.72512 0.0811766 0
M  V30 17816 H 1676.05 4.50347 -1.63477 0
M  V30 17817 H 1674.42 2.42543 -0.777498 0
M  V30 17818 H 1675.2 2.40601 -2.4488 0
M  V30 17819 N 1677.64 0.747635 1.38738 0
M  V30 17820 C 1678.55 0.117879 2.34304 0
M  V30 17821 C 1679.57 -0.707488 1.58967 0
M  V30 17822 O 1680.75 -0.633025 1.91193 0
M  V30 17823 C 1677.81 -0.769223 3.38059 0
M  V30 17824 C 1676.87 0.0698358 4.29243 0
M  V30 17825 C 1676.1 -0.775021 5.28043 0
M  V30 17826 O 1676.33 -2.01328 5.33688 0
M  V30 17827 O 1675.26 -0.196978 6.01578 0
M  V30 17828 H 1679.09 0.906972 2.89841 0
M  V30 17829 H 1676.67 0.508453 1.40482 0
M  V30 17830 H 1678.55 -1.27641 4.01604 0
M  V30 17831 H 1677.23 -1.53691 2.84887 0
M  V30 17832 H 1676.14 0.622836 3.68879 0
M  V30 17833 H 1677.47 0.80004 4.85654 0
M  V30 17834 N 1679.12 -1.49583 0.496242 0
M  V30 17835 C 1680.35 -2.07342 -0.0490986 0
M  V30 17836 C 1680.77 -1.35474 -1.30493 0
M  V30 17837 O 1680.13 -0.410005 -1.76603 0
M  V30 17838 C 1680.18 -3.59427 -0.290601 0
M  V30 17839 O 1679.28 -3.89111 -1.36626 0
M  V30 17840 H 1678.62 -0.663562 0.0241141 0
M  V30 17841 H 1681.15 -1.92452 0.6945 0
M  V30 17842 H 1681.16 -4.04627 -0.523549 0
M  V30 17843 H 1679.84 -4.11147 0.626959 0
M  V30 17844 H 1678.41 -3.55726 -1.11864 0
M  V30 17845 N 1680.6 -0.229873 -1.55915 0
M  V30 17846 C 1682.02 0.125347 -1.59107 0
M  V30 17847 C 1682.22 1.58293 -1.24682 0
M  V30 17848 O 1681.27 2.32452 -0.986018 0
M  V30 17849 C 1682.58 -0.208461 -2.99977 0
M  V30 17850 C 1684.13 -0.151373 -3.12634 0
M  V30 17851 C 1684.61 -0.458972 -4.55694 0
M  V30 17852 N 1686.1 -0.408847 -4.61392 0
M  V30 17853 C 1686.83 -0.620239 -5.70036 0
M  V30 17854 N 1686.33 -0.893851 -6.8701 0
M  V30 17855 N 1688.12 -0.552107 -5.59382 0
M  V30 17856 H 1680.27 -1.18062 -1.76565 0
M  V30 17857 H 1682.54 -0.473821 -0.821095 0
M  V30 17858 H 1682.24 -1.22043 -3.29846 0
M  V30 17859 H 1682.12 0.472591 -3.74228 0
M  V30 17860 H 1684.5 0.851249 -2.82556 0
M  V30 17861 H 1684.58 -0.866024 -2.40694 0
M  V30 17862 H 1684.23 -1.45907 -4.86491 0
M  V30 17863 H 1684.16 0.276965 -5.25871 0
M  V30 17864 H 1686.65 -0.205404 -3.77341 0
M  V30 17865 H 1686.96 -1.04303 -7.65729 0
M  V30 17866 H 1685.31 -0.931138 -6.88734 0
M  V30 17867 H 1688.5 -0.338518 -4.66874 0
M  V30 17868 H 1688.67 -0.720256 -6.43985 0
M  V30 17869 N 1682.08 1.5754 0.0434337 0
M  V30 17870 C 1683.3 1.93247 0.753012 0
M  V30 17871 C 1683.73 0.828712 1.68861 0
M  V30 17872 O 1683.09 -0.216618 1.80001 0
M  V30 17873 C 1683.13 3.27989 1.49852 0
M  V30 17874 O 1682.24 3.19223 2.61094 0
M  V30 17875 H 1681.58 0.632032 0.203547 0
M  V30 17876 H 1684.11 2.046 0.00319776 0
M  V30 17877 H 1684.12 3.62539 1.87161 0
M  V30 17878 H 1682.79 4.07891 0.812251 0
M  V30 17879 H 1681.37 2.9628 2.26434 0
M  V30 17880 N 1683.56 -0.31543 1.54411 0
M  V30 17881 C 1684.78 -1.0761 1.77299 0
M  V30 17882 C 1685.21 -1.80655 0.523963 0
M  V30 17883 O 1684.56 -1.73536 -0.524874 0
M  V30 17884 C 1684.61 -2.04355 2.97105 0
M  V30 17885 O 1683.72 -3.12401 2.69219 0
M  V30 17886 H 1683.06 -0.30986 0.587267 0
M  V30 17887 H 1685.59 -0.357246 2.01457 0
M  V30 17888 H 1685.6 -2.47081 3.24677 0
M  V30 17889 H 1684.27 -1.50592 3.87679 0
M  V30 17890 H 1682.85 -2.74294 2.52621 0
M  V30 17891 N 1685.03 -1.46622 -0.577906 0
M  V30 17892 C 1686.28 -1.51446 -1.33218 0
M  V30 17893 C 1686.6 -0.17258 -1.94837 0
M  V30 17894 O 1687.8 -0.0986578 -2.71321 0
M  V30 17895 C 1686.26 -2.66876 -2.41465 0
M  V30 17896 C 1685.87 -4.07506 -1.86127 0
M  V30 17897 C 1687.61 -2.80975 -3.18203 0
M  V30 17898 C 1685.52 -5.14268 -2.92031 0
M  V30 17899 H 1684.45 -0.563643 -0.500822 0
M  V30 17900 H 1687.1 -1.72845 -0.616186 0
M  V30 17901 H 1685.48 -2.38816 -3.15884 0
M  V30 17902 H 1686.65 -4.45378 -1.18218 0
M  V30 17903 H 1684.97 -3.98115 -1.2204 0
M  V30 17904 H 1687.57 -3.57906 -3.97249 0
M  V30 17905 H 1687.91 -1.88665 -3.71095 0
M  V30 17906 H 1688.44 -3.08705 -2.50891 0
M  V30 17907 H 1685.18 -6.08386 -2.44021 0
M  V30 17908 H 1684.7 -4.80936 -3.58414 0
M  V30 17909 H 1686.38 -5.40321 -3.55896 0
M  V30 17910 N 1686.51 0.822941 -1.34408 0
M  V30 17911 C 1687.46 1.92272 -1.22537 0
M  V30 17912 C 1688.45 1.60418 -0.124416 0
M  V30 17913 O 1689.64 1.73422 -0.354077 0
M  V30 17914 C 1686.77 3.28926 -0.982998 0
M  V30 17915 C 1685.85 3.66898 -2.12712 0
M  V30 17916 N 1686.24 3.76436 -3.37831 0
M  V30 17917 C 1684.54 3.96746 -2.03736 0
M  V30 17918 C 1685.24 4.09674 -4.12968 0
M  V30 17919 N 1684.22 4.22893 -3.41559 0
M  V30 17920 H 1688.02 1.97824 -2.17354 0
M  V30 17921 H 1685.54 1.0166 -1.26645 0
M  V30 17922 H 1687.53 4.07531 -0.878862 0
M  V30 17923 H 1686.19 3.24671 -0.0435162 0
M  V30 17924 H 1687.2 3.59931 -3.72384 0
M  V30 17925 H 1683.88 4.00611 -1.17544 0
M  V30 17926 H 1685.27 4.24257 -5.21014 0
M  V30 17927 N 1687.99 1.18137 1.04314 0
M  V30 17928 C 1688.94 0.902484 2.14378 0
M  V30 17929 C 1689.93 -0.136289 1.68851 0
M  V30 17930 O 1691.14 0.0116256 1.79996 0
M  V30 17931 H 1687.51 0.274358 0.700165 0
M  V30 17932 H 1689.48 1.83768 2.35099 0
M  V30 17933 C 1688.23 0.441975 3.4488 0
M  V30 17934 H 1687.56 1.23279 3.80319 0
M  V30 17935 H 1689 0.285808 4.23036 0
M  V30 17936 C 1687.46 -0.841797 3.26214 0
M  V30 17937 O 1687.99 -1.90658 3.53571 0
M  V30 17938 N 1686.19 -0.793425 2.79559 0
M  V30 17939 H 1685.74 0.0732997 2.57496 0
M  V30 17940 H 1685.7 -1.65281 2.6745 0
M  V30 17941 N 1689.47 -1.23186 0.98301 0
M  V30 17942 C 1690.72 -1.91671 0.653342 0
M  V30 17943 C 1691.04 -1.76673 -0.813438 0
M  V30 17944 O 1690.3 -1.1232 -1.60258 0
M  V30 17945 C 1690.6 -3.43331 0.992898 0
M  V30 17946 C 1690.26 -3.78511 2.45032 0
M  V30 17947 C 1688.93 -3.87824 2.84861 0
M  V30 17948 C 1691.28 -3.95423 3.39544 0
M  V30 17949 C 1688.61 -4.11479 4.18213 0
M  V30 17950 C 1690.96 -4.20579 4.72543 0
M  V30 17951 C 1689.62 -4.28114 5.12128 0
M  V30 17952 H 1688.89 -0.701373 0.239075 0
M  V30 17953 H 1691.54 -1.46157 1.23736 0
M  V30 17954 H 1689.84 -3.90434 0.326832 0
M  V30 17955 H 1691.54 -3.94556 0.715995 0
M  V30 17956 H 1688.13 -3.71838 2.13154 0
M  V30 17957 H 1692.31 -3.87615 3.09949 0
M  V30 17958 H 1687.57 -4.15536 4.48486 0
M  V30 17959 H 1691.74 -4.32608 5.45732 0
M  V30 17960 H 1689.37 -4.46196 6.15478 0
M  V30 17961 N 1690.95 -0.754982 -1.38339 0
M  V30 17962 C 1691.88 -0.0765954 -2.28071 0
M  V30 17963 C 1692.86 0.726851 -1.4545 0
M  V30 17964 O 1694.04 0.705183 -1.74813 0
M  V30 17965 C 1691.17 0.898289 -3.26571 0
M  V30 17966 C 1690.21 0.180904 -4.26116 0
M  V30 17967 S 1691.05 -1.11929 -5.23672 0
M  V30 17968 C 1692.2 -0.147519 -6.25726 0
M  V30 17969 H 1692.44 -0.837511 -2.8526 0
M  V30 17970 H 1689.97 -0.547625 -1.44362 0
M  V30 17971 H 1691.93 1.45541 -3.83833 0
M  V30 17972 H 1690.59 1.63219 -2.68363 0
M  V30 17973 H 1689.78 0.919305 -4.95545 0
M  V30 17974 H 1689.38 -0.304739 -3.72756 0
M  V30 17975 H 1691.68 0.686001 -6.74018 0
M  V30 17976 H 1692.62 -0.809506 -7.03458 0
M  V30 17977 H 1693.03 0.233798 -5.64016 0
M  V30 17978 N 1692.42 1.49318 -0.504168 0
M  V30 17979 C 1693.65 2.06869 0.0359415 0
M  V30 17980 C 1694.07 1.3641 1.30529 0
M  V30 17981 O 1693.42 0.443416 1.77031 0
M  V30 17982 C 1693.48 3.60333 0.290233 0
M  V30 17983 O 1693.2 4.28141 -0.928801 0
M  V30 17984 C 1694.7 4.34606 0.873628 0
M  V30 17985 H 1691.92 0.670643 -0.0218893 0
M  V30 17986 H 1694.46 1.92058 -0.702432 0
M  V30 17987 H 1692.62 3.74836 0.978594 0
M  V30 17988 H 1693.03 5.19894 -0.693595 0
M  V30 17989 H 1694.5 5.42846 1.00112 0
M  V30 17990 H 1694.98 3.97297 1.87221 0
M  V30 17991 H 1695.59 4.24717 0.222638 0
M  V30 17992 N 1693.9 0.238138 1.5579 0
M  V30 17993 C 1694.85 -0.678829 2.1766 0
M  V30 17994 C 1695.84 -1.14558 1.12984 0
M  V30 17995 O 1697.03 -1.09681 1.38921 0
M  V30 17996 C 1694.16 -1.8794 2.87286 0
M  V30 17997 C 1693.24 -1.43156 3.99208 0
M  V30 17998 N 1693.63 -0.697374 5.00969 0
M  V30 17999 C 1691.93 -1.71755 4.11602 0
M  V30 18000 C 1692.63 -0.466696 5.79825 0
M  V30 18001 N 1691.61 -1.02832 5.33785 0
M  V30 18002 H 1695.41 -0.109646 2.93695 0
M  V30 18003 H 1692.93 0.0400828 1.62351 0
M  V30 18004 H 1694.92 -2.54724 3.30033 0
M  V30 18005 H 1693.58 -2.45289 2.12752 0
M  V30 18006 H 1694.59 -0.348366 5.16727 0
M  V30 18007 H 1691.27 -2.30305 3.48232 0
M  V30 18008 H 1692.66 0.118813 6.71795 0
M  V30 18009 N 1695.38 -1.57561 -0.0350783 0
M  V30 18010 C 1696.79 -1.77383 -0.582437 0
M  V30 18011 C 1697.14 -0.868453 -1.75933 0
M  V30 18012 O 1696.27 -0.061745 -2.16312 0
M  V30 18013 C 1696.86 -3.2168 -1.06337 0
M  V30 18014 C 1695.42 -3.42719 -1.55629 0
M  V30 18015 C 1694.57 -2.72906 -0.4917 0
M  V30 18016 H 1697.52 -1.57545 0.19115 0
M  V30 18017 H 1697.54 -3.27863 -1.93097 0
M  V30 18018 H 1697.05 -3.8755 -0.206603 0
M  V30 18019 H 1695.15 -2.82016 -2.43511 0
M  V30 18020 H 1695.27 -4.51312 -1.60794 0
M  V30 18021 H 1693.63 -2.36506 -0.945349 0
M  V30 18022 H 1694.41 -3.41454 0.355502 0
M  V30 18023 N 1696.86 0.307236 -1.54576 0
M  V30 18024 C 1697.77 1.4014 -1.88143 0
M  V30 18025 C 1698.78 1.5579 -0.774952 0
M  V30 18026 O 1699.96 1.70574 -1.07082 0
M  V30 18027 C 1697.03 2.74613 -2.11633 0
M  V30 18028 C 1696.09 2.68001 -3.35371 0
M  V30 18029 C 1695.32 3.96061 -3.57731 0
M  V30 18030 O 1695.54 4.95119 -2.83219 0
M  V30 18031 O 1694.48 3.98331 -4.51238 0
M  V30 18032 H 1698.3 1.14677 -2.81217 0
M  V30 18033 H 1695.89 0.502739 -1.40687 0
M  V30 18034 H 1697.77 3.54186 -2.2832 0
M  V30 18035 H 1696.44 2.99933 -1.21746 0
M  V30 18036 H 1695.35 1.86922 -3.24054 0
M  V30 18037 H 1696.68 2.47635 -4.25368 0
M  V30 18038 N 1698.34 1.46926 0.570122 0
M  V30 18039 C 1699.58 1.52887 1.32785 0
M  V30 18040 C 1699.91 0.185754 1.93611 0
M  V30 18041 O 1699.17 -0.819995 1.77692 0
M  V30 18042 C 1699.47 2.58527 2.46776 0
M  V30 18043 C 1699.13 4.02182 2.03863 0
M  V30 18044 C 1697.79 4.4129 1.91876 0
M  V30 18045 C 1700.15 4.92373 1.70935 0
M  V30 18046 C 1697.47 5.6844 1.45235 0
M  V30 18047 C 1699.83 6.19972 1.25769 0
M  V30 18048 C 1698.49 6.57974 1.12368 0
M  V30 18049 H 1697.76 0.559453 0.485895 0
M  V30 18050 H 1700.41 1.80464 0.640698 0
M  V30 18051 H 1698.71 2.24658 3.20992 0
M  V30 18052 H 1700.41 2.60365 3.04977 0
M  V30 18053 H 1697 3.71275 2.14132 0
M  V30 18054 H 1701.18 4.62867 1.79075 0
M  V30 18055 H 1696.44 5.96644 1.33513 0
M  V30 18056 H 1700.61 6.89277 0.993475 0
M  V30 18057 H 1698.24 7.56391 0.760046 0
M  V30 18058 N 1699.82 -0.815801 1.34842 0
M  V30 18059 C 1701.23 -1.10999 1.1468 0
M  V30 18060 C 1701.43 -2.01445 -0.0469339 0
M  V30 18061 O 1700.49 -2.42007 -0.720322 0
M  V30 18062 C 1701.8 -1.74984 2.44543 0
M  V30 18063 C 1703.35 -1.87447 2.50665 0
M  V30 18064 C 1703.82 -2.54848 3.80548 0
M  V30 18065 N 1705.31 -2.62341 3.81748 0
M  V30 18066 C 1706.05 -3.15239 4.7897 0
M  V30 18067 N 1705.55 -3.68646 5.86577 0
M  V30 18068 N 1707.34 -3.13706 4.66417 0
M  V30 18069 H 1699.49 -0.214351 2.11316 0
M  V30 18070 H 1701.75 -0.157666 0.934797 0
M  V30 18071 H 1701.46 -1.1599 3.32023 0
M  V30 18072 H 1701.33 -2.7478 2.5841 0
M  V30 18073 H 1703.72 -2.45587 1.63619 0
M  V30 18074 H 1703.8 -0.865325 2.40719 0
M  V30 18075 H 1703.44 -1.9736 4.67987 0
M  V30 18076 H 1703.37 -3.5628 3.87778 0
M  V30 18077 H 1705.87 -2.24493 3.03992 0
M  V30 18078 H 1706.18 -4.07281 6.56766 0
M  V30 18079 H 1704.52 -3.6687 5.90281 0
M  V30 18080 H 1707.71 -2.71255 3.81495 0
M  V30 18081 H 1707.89 -3.54626 5.4235 0
M  V30 18082 N 1701.29 -1.18689 -1.03686 0
M  V30 18083 C 1702.54 -0.978948 -1.7635 0
M  V30 18084 C 1702.86 0.49195 -1.89312 0
M  V30 18085 O 1704.06 0.818501 -2.58868 0
M  V30 18086 C 1702.52 -1.70255 -3.17083 0
M  V30 18087 C 1702.13 -3.21301 -3.12201 0
M  V30 18088 C 1703.87 -1.57756 -3.94098 0
M  V30 18089 C 1701.78 -3.86284 -4.47815 0
M  V30 18090 H 1700.71 -0.362652 -0.661059 0
M  V30 18091 H 1703.36 -1.42102 -1.161 0
M  V30 18092 H 1701.74 -1.18826 -3.77752 0
M  V30 18093 H 1702.91 -3.79785 -2.6096 0
M  V30 18094 H 1701.23 -3.33984 -2.48684 0
M  V30 18095 H 1703.83 -2.03664 -4.94394 0
M  V30 18096 H 1704.17 -0.530427 -4.12907 0
M  V30 18097 H 1704.7 -2.06486 -3.40012 0
M  V30 18098 H 1701.44 -4.91061 -4.34211 0
M  V30 18099 H 1700.96 -3.32589 -4.99144 0
M  V30 18100 H 1702.64 -3.89369 -5.16721 0
M  V30 18101 N 1702.77 1.22662 -0.989529 0
M  V30 18102 C 1703.68 2.28162 -0.545835 0
M  V30 18103 C 1704.7 1.69251 0.403762 0
M  V30 18104 O 1705.87 1.99563 0.271428 0
M  V30 18105 C 1702.94 3.46434 0.135808 0
M  V30 18106 C 1702 4.20673 -0.85633 0
M  V30 18107 C 1701.23 5.33298 -0.207121 0
M  V30 18108 O 1701.46 5.6157 0.99975 0
M  V30 18109 O 1700.39 5.94977 -0.910288 0
M  V30 18110 H 1704.22 2.68276 -1.42344 0
M  V30 18111 H 1701.8 1.28766 -0.757609 0
M  V30 18112 H 1703.68 4.18207 0.517776 0
M  V30 18113 H 1702.36 3.08252 0.988035 0
M  V30 18114 H 1701.26 3.51186 -1.28917 0
M  V30 18115 H 1702.6 4.62726 -1.67765 0
M  V30 18116 N 1704.25 0.762308 1.37937 0
M  V30 18117 C 1705.53 0.247502 1.94028 0
M  V30 18118 C 1705.91 -1.25581 1.69684 0
M  V30 18119 O 1705.25 -2.03446 1.04028 0
M  V30 18120 C 1705.46 0.610643 3.43616 0
M  V30 18121 C 1706.81 0.57515 4.20687 0
M  V30 18122 O 1707.84 0.549461 3.51937 0
M  V30 18123 O 1706.7 0.593825 5.43264 0
M  V30 18124 H 1703.79 0.0544389 0.825206 0
M  V30 18125 H 1706.34 0.843021 1.47279 0
M  V30 18126 H 1705.11 1.64853 3.54879 0
M  V30 18127 H 1704.73 -0.0124265 3.97598 0
M  V30 18128 N 1705.73 -1.49049 0.51208 0
M  V30 18129 C 1706.95 -2.07382 -0.0271044 0
M  V30 18130 C 1707.38 -1.3685 -1.29049 0
M  V30 18131 O 1706.74 -0.428713 -1.76158 0
M  V30 18132 C 1706.78 -3.59715 -0.252462 0
M  V30 18133 O 1705.89 -3.90538 -1.32491 0
M  V30 18134 H 1705.23 -0.663269 0.0311507 0
M  V30 18135 H 1707.76 -1.91705 0.714873 0
M  V30 18136 H 1707.77 -4.05159 -0.480603 0
M  V30 18137 H 1706.44 -4.10459 0.670531 0
M  V30 18138 H 1705.02 -3.56892 -1.08085 0
M  V30 18139 N 1707.21 -0.246397 -1.55662 0
M  V30 18140 C 1708.12 0.664125 -2.25003 0
M  V30 18141 C 1709.13 1.19368 -1.26598 0
M  V30 18142 O 1710.31 1.23006 -1.59473 0
M  V30 18143 C 1707.37 1.8446 -2.93557 0
M  V30 18144 C 1706.43 1.35456 -4.0737 0
M  V30 18145 C 1705.67 2.47877 -4.72645 0
M  V30 18146 O 1705.89 3.66594 -4.36995 0
M  V30 18147 O 1704.82 2.17663 -5.61165 0
M  V30 18148 H 1708.65 0.103277 -3.03524 0
M  V30 18149 H 1706.23 -0.0149207 -1.49393 0
M  V30 18150 H 1708.12 2.53349 -3.36737 0
M  V30 18151 H 1706.79 2.39308 -2.17976 0
M  V30 18152 H 1705.7 0.632958 -3.68706 0
M  V30 18153 H 1707.03 0.852175 -4.84767 0
M  V30 18154 N 1708.68 1.57577 0.026722 0
M  V30 18155 C 1710.09 1.77689 0.573022 0
M  V30 18156 C 1710.45 0.877771 1.7547 0
M  V30 18157 O 1709.57 0.0732156 2.16276 0
M  V30 18158 C 1710.17 3.22239 1.0463 0
M  V30 18159 C 1708.72 3.4354 1.5381 0
M  V30 18160 C 1707.87 2.73163 0.47722 0
M  V30 18161 H 1710.82 1.57441 -0.199502 0
M  V30 18162 H 1710.84 3.28882 1.91355 0
M  V30 18163 H 1710.36 3.87654 0.186047 0
M  V30 18164 H 1708.46 2.83304 2.42012 0
M  V30 18165 H 1708.57 4.52158 1.58398 0
M  V30 18166 H 1706.93 2.37004 0.932793 0
M  V30 18167 H 1707.72 3.41261 -0.373605 0
M  V30 18168 N 1710.16 -0.299034 1.54737 0
M  V30 18169 C 1711.11 -1.37055 1.82208 0
M  V30 18170 C 1712.1 -1.45855 0.679357 0
M  V30 18171 O 1713.29 -1.49974 0.940044 0
M  V30 18172 C 1710.42 -2.73525 2.07459 0
M  V30 18173 C 1709.5 -2.6894 3.27921 0
M  V30 18174 N 1709.89 -2.33972 4.48432 0
M  V30 18175 C 1708.19 -3.0004 3.29988 0
M  V30 18176 C 1708.89 -2.38734 5.30454 0
M  V30 18177 N 1707.87 -2.76167 4.68223 0
M  V30 18178 H 1711.67 -1.08986 2.72945 0
M  V30 18179 H 1709.18 -0.507618 1.54263 0
M  V30 18180 H 1711.18 -3.50787 2.25287 0
M  V30 18181 H 1709.84 -3.02503 1.1799 0
M  V30 18182 H 1710.85 -2.06392 4.74998 0
M  V30 18183 H 1707.53 -3.33901 2.50632 0
M  V30 18184 H 1708.92 -2.1448 6.36748 0
M  V30 18185 N 1711.64 -1.47227 -0.562322 0
M  V30 18186 C 1712.89 -1.52851 -1.31604 0
M  V30 18187 C 1713.2 -0.193236 -1.94643 0
M  V30 18188 O 1714.41 -0.127429 -2.71201 0
M  V30 18189 C 1712.86 -2.69422 -2.3862 0
M  V30 18190 C 1712.47 -4.09457 -1.81794 0
M  V30 18191 C 1714.22 -2.84334 -3.15205 0
M  V30 18192 C 1712.12 -5.17337 -2.8656 0
M  V30 18193 H 1711.05 -0.568923 -0.494816 0
M  V30 18194 H 1713.7 -1.73489 -0.597819 0
M  V30 18195 H 1712.09 -2.42153 -3.13333 0
M  V30 18196 H 1713.26 -4.46606 -1.13487 0
M  V30 18197 H 1711.57 -3.99387 -1.17811 0
M  V30 18198 H 1714.17 -3.621 -3.93431 0
M  V30 18199 H 1714.51 -1.9259 -3.69073 0
M  V30 18200 H 1715.05 -3.11348 -2.47603 0
M  V30 18201 H 1711.79 -6.1094 -2.37554 0
M  V30 18202 H 1711.31 -4.8471 -3.53293 0
M  V30 18203 H 1712.99 -5.44065 -3.50146 0
M  V30 18204 N 1713.12 0.808639 -1.35273 0
M  V30 18205 C 1714.53 1.38248 -1.25477 0
M  V30 18206 C 1714.88 1.9587 0.113715 0
M  V30 18207 O 1714 1.91141 1.0146 0
M  V30 18208 C 1714.6 2.5133 -2.27197 0
M  V30 18209 C 1713.16 3.04582 -2.21148 0
M  V30 18210 C 1712.31 1.77534 -2.13019 0
M  V30 18211 H 1715.26 0.611844 -1.46431 0
M  V30 18212 H 1715.28 3.29825 -1.89726 0
M  V30 18213 H 1714.79 2.09362 -3.26786 0
M  V30 18214 H 1712.89 3.5102 -1.24963 0
M  V30 18215 H 1713 3.62703 -3.13023 0
M  V30 18216 H 1711.37 1.99004 -1.58964 0
M  V30 18217 H 1712.15 1.3772 -3.14465 0
M  V30 18218 N 1714.6 1.19237 1.03055 0
M  V30 18219 C 1715.53 0.95226 2.132 0
M  V30 18220 C 1716.51 -0.113771 1.69719 0
M  V30 18221 O 1717.69 0.0409057 1.94157 0
M  V30 18222 C 1714.82 0.488296 3.4385 0
M  V30 18223 C 1713.78 1.49597 4.01005 0
M  V30 18224 C 1713.1 0.889148 5.27255 0
M  V30 18225 C 1714.4 2.87571 4.36005 0
M  V30 18226 H 1716.1 1.87343 2.33544 0
M  V30 18227 H 1713.64 0.902172 1.12236 0
M  V30 18228 H 1715.6 0.307623 4.20276 0
M  V30 18229 H 1714.32 -0.468469 3.23223 0
M  V30 18230 H 1712.98 1.66376 3.26672 0
M  V30 18231 H 1712.63 -0.0751191 5.02944 0
M  V30 18232 H 1712.33 1.56202 5.66458 0
M  V30 18233 H 1713.85 0.719233 6.06349 0
M  V30 18234 H 1715.26 2.74384 5.03375 0
M  V30 18235 H 1713.66 3.51635 4.86285 0
M  V30 18236 H 1714.73 3.40353 3.45381 0
M  V30 18237 N 1716.07 -1.22136 0.99602 0
M  V30 18238 C 1717.32 -1.9028 0.66907 0
M  V30 18239 C 1717.64 -1.7837 -0.802717 0
M  V30 18240 O 1718.84 -2.41458 -1.24138 0
M  V30 18241 C 1717.3 -3.4116 1.1462 0
M  V30 18242 C 1716.91 -3.617 2.64343 0
M  V30 18243 C 1718.65 -4.14985 0.893718 0
M  V30 18244 C 1716.56 -5.06297 3.05642 0
M  V30 18245 H 1715.49 -0.71255 0.246554 0
M  V30 18246 H 1718.14 -1.38304 1.20599 0
M  V30 18247 H 1716.52 -3.92337 0.537378 0
M  V30 18248 H 1717.69 -3.21002 3.30597 0
M  V30 18249 H 1716.01 -3.01212 2.87507 0
M  V30 18250 H 1718.61 -5.21564 1.17794 0
M  V30 18251 H 1718.95 -4.15952 -0.17013 0
M  V30 18252 H 1719.48 -3.69846 1.46488 0
M  V30 18253 H 1716.22 -5.10472 4.11216 0
M  V30 18254 H 1715.74 -5.47885 2.44094 0
M  V30 18255 H 1717.42 -5.74743 2.97118 0
M  V30 18256 N 1717.55 -0.769612 -1.37531 0
M  V30 18257 C 1718.83 -0.257788 -1.93894 0
M  V30 18258 C 1719.21 1.24679 -1.70348 0
M  V30 18259 O 1718.56 2.02892 -1.05106 0
M  V30 18260 C 1718.77 -0.628857 -3.43288 0
M  V30 18261 C 1720.12 -0.597452 -4.20376 0
M  V30 18262 O 1721.14 -0.568117 -3.5164 0
M  V30 18263 O 1720 -0.622627 -5.42942 0
M  V30 18264 H 1717.09 -0.0588144 -0.824906 0
M  V30 18265 H 1719.64 -0.85082 -1.4683 0
M  V30 18266 H 1718.41 -1.66733 -3.54 0
M  V30 18267 H 1718.03 -0.00865929 -3.97599 0
M  V30 18268 N 1719.03 1.48775 -0.519977 0
M  V30 18269 C 1720.31 1.95429 0.0816701 0
M  V30 18270 C 1720.69 1.46199 1.52279 0
M  V30 18271 O 1720.04 0.684057 2.1802 0
M  V30 18272 C 1720.25 3.48991 -0.0252472 0
M  V30 18273 C 1721.59 4.24372 0.139099 0
M  V30 18274 O 1722.62 3.56166 0.0490322 0
M  V30 18275 O 1721.48 5.45524 0.326426 0
M  V30 18276 H 1718.57 0.822637 0.0848378 0
M  V30 18277 H 1721.12 1.5934 -0.583865 0
M  V30 18278 H 1719.89 3.77514 -1.02951 0
M  V30 18279 H 1719.51 3.91749 0.679588 0
M  V30 18280 N 1720.51 0.254649 1.55529 0
M  V30 18281 C 1721.74 -0.371856 2.03531 0
M  V30 18282 C 1722.15 -1.50974 1.13368 0
M  V30 18283 O 1721.51 -1.81885 0.14964 0
M  V30 18284 C 1721.56 -0.872314 3.50818 0
M  V30 18285 O 1721.28 0.22023 4.37546 0
M  V30 18286 C 1722.78 -1.56872 4.14616 0
M  V30 18287 H 1720 -0.0874565 0.665276 0
M  V30 18288 H 1722.55 0.380774 2.00924 0
M  V30 18289 H 1720.7 -1.5751 3.53934 0
M  V30 18290 H 1721.11 -0.161046 5.24253 0
M  V30 18291 H 1722.59 -1.87053 5.19341 0
M  V30 18292 H 1723.07 -2.49334 3.61565 0
M  V30 18293 H 1723.67 -0.910314 4.15444 0
M  V30 18294 N 1721.99 -1.57589 -0.0183649 0
M  V30 18295 C 1723.26 -1.80938 -0.743021 0
M  V30 18296 C 1723.64 -0.855272 -1.92998 0
M  V30 18297 O 1722.99 0.100181 -2.2828 0
M  V30 18298 C 1723.2 -3.28945 -1.16602 0
M  V30 18299 C 1724.55 -3.94208 -1.5775 0
M  V30 18300 O 1725.57 -3.33159 -1.26031 0
M  V30 18301 O 1724.43 -5.01716 -2.16663 0
M  V30 18302 H 1721.53 -0.744435 -0.360203 0
M  V30 18303 H 1724.07 -1.69699 0.00567963 0
M  V30 18304 H 1722.84 -3.89996 -0.319154 0
M  V30 18305 H 1722.47 -3.45113 -1.9744 0
M  V30 18306 N 1723.46 0.290824 -1.54893 0
M  V30 18307 C 1724.43 1.34215 -1.85793 0
M  V30 18308 C 1725.43 1.43204 -0.731393 0
M  V30 18309 O 1726.62 1.42663 -0.999647 0
M  V30 18310 C 1723.75 2.72577 -2.0473 0
M  V30 18311 H 1724.94 1.08056 -2.79757 0
M  V30 18312 H 1722.5 0.528008 -1.47111 0
M  V30 18313 H 1723.23 3.03943 -1.13088 0
M  V30 18314 H 1723.02 2.67442 -2.86736 0
M  V30 18315 H 1724.51 3.48573 -2.29971 0
M  V30 18316 N 1724.94 1.47523 0.554506 0
M  V30 18317 C 1725.85 1.62851 1.68869 0
M  V30 18318 C 1726.87 0.511305 1.66318 0
M  V30 18319 O 1728.04 0.779195 1.85716 0
M  V30 18320 C 1725.11 1.64161 3.05372 0
M  V30 18321 C 1724.17 2.87327 3.1897 0
M  V30 18322 C 1723.4 2.88566 4.48961 0
M  V30 18323 O 1723.63 1.98937 5.34584 0
M  V30 18324 O 1722.56 3.80459 4.66406 0
M  V30 18325 H 1726.39 2.58826 1.5888 0
M  V30 18326 H 1723.97 1.3064 0.724822 0
M  V30 18327 H 1725.85 1.67686 3.866 0
M  V30 18328 H 1724.53 0.713534 3.15738 0
M  V30 18329 H 1723.44 2.89345 2.37129 0
M  V30 18330 H 1724.77 3.79438 3.13509 0
M  V30 18331 N 1726.42 -0.801453 1.357 0
M  V30 18332 C 1727.7 -1.54605 1.19819 0
M  V30 18333 C 1728.08 -2.09944 -0.220593 0
M  V30 18334 O 1727.43 -1.92904 -1.22475 0
M  V30 18335 C 1727.64 -2.65052 2.27043 0
M  V30 18336 C 1728.98 -3.33255 2.63109 0
M  V30 18337 O 1730.01 -2.75326 2.25995 0
M  V30 18338 O 1728.87 -4.37917 3.26942 0
M  V30 18339 H 1725.96 -0.68334 0.465807 0
M  V30 18340 H 1728.51 -0.840972 1.47397 0
M  V30 18341 H 1727.28 -2.22068 3.22182 0
M  V30 18342 H 1726.9 -3.4319 2.00764 0
M  V30 18343 N 1727.9 -1.19782 -1.02421 0
M  V30 18344 C 1729.18 -0.912541 -1.73009 0
M  V30 18345 C 1729.56 0.58061 -2.02958 0
M  V30 18346 O 1728.9 1.54013 -1.68797 0
M  V30 18347 C 1729.11 -1.77745 -3.00346 0
M  V30 18348 C 1730.46 -2.01462 -3.73762 0
M  V30 18349 O 1731.49 -1.74935 -3.10284 0
M  V30 18350 O 1730.34 -2.46219 -4.87892 0
M  V30 18351 H 1727.44 -0.340513 -0.753644 0
M  V30 18352 H 1729.98 -1.30618 -1.08338 0
M  V30 18353 H 1728.76 -2.78887 -2.74477 0
M  V30 18354 H 1728.38 -1.38339 -3.72757 0
M  V30 18355 N 1729.38 1.21606 -1.00248 0
M  V30 18356 C 1730.34 2.22107 -0.565772 0
M  V30 18357 C 1731.34 1.56798 0.356521 0
M  V30 18358 O 1732.53 1.73577 0.147154 0
M  V30 18359 C 1729.66 3.40447 0.175742 0
M  V30 18360 H 1730.86 2.62258 -1.45468 0
M  V30 18361 H 1728.41 1.34823 -0.790721 0
M  V30 18362 H 1729.14 3.05781 1.0802 0
M  V30 18363 H 1728.93 3.89069 -0.486612 0
M  V30 18364 H 1730.42 4.14957 0.469122 0
M  V30 18365 N 1730.86 0.776895 1.37121 0
M  V30 18366 C 1732.27 0.408311 1.8218 0
M  V30 18367 C 1732.62 -1.06621 1.64701 0
M  V30 18368 O 1731.74 -1.82621 1.16097 0
M  V30 18369 C 1732.34 0.734339 3.30746 0
M  V30 18370 C 1730.9 0.418746 3.74063 0
M  V30 18371 C 1730.04 0.97551 2.59575 0
M  V30 18372 H 1732.99 0.971111 1.25519 0
M  V30 18373 H 1733.02 0.0208557 3.80494 0
M  V30 18374 H 1732.53 1.80757 3.43436 0
M  V30 18375 H 1730.63 -0.646961 3.6694 0
M  V30 18376 H 1730.74 0.930597 4.69975 0
M  V30 18377 H 1729.11 0.399449 2.51548 0
M  V30 18378 H 1729.89 2.05425 2.75056 0
M  V30 18379 N 1732.33 -1.48497 0.527859 0
M  V30 18380 C 1733.56 -2.069 -0.00302594 0
M  V30 18381 C 1733.98 -1.38469 -1.28342 0
M  V30 18382 O 1733.33 -0.471524 -1.76303 0
M  V30 18383 C 1733.38 -3.60749 -0.232871 0
M  V30 18384 O 1733.11 -4.26609 0.996797 0
M  V30 18385 C 1734.61 -4.35941 -0.804376 0
M  V30 18386 H 1731.83 -0.67021 0.0325559 0
M  V30 18387 H 1734.37 -1.90916 0.732897 0
M  V30 18388 H 1732.53 -3.76346 -0.918837 0
M  V30 18389 H 1732.94 -5.18725 0.776217 0
M  V30 18390 H 1734.41 -5.4437 -0.914635 0
M  V30 18391 H 1734.89 -4.00225 -1.80876 0
M  V30 18392 H 1735.5 -4.25017 -0.155041 0
M  V30 18393 N 1733.81 -0.262893 -1.55392 0
M  V30 18394 C 1734.76 0.629853 -2.22039 0
M  V30 18395 C 1735.73 1.15915 -1.18966 0
M  V30 18396 O 1736.91 1.21069 -1.47468 0
M  V30 18397 C 1734.05 1.8138 -2.9359 0
M  V30 18398 C 1733.17 1.31952 -4.11355 0
M  V30 18399 C 1732.3 2.4643 -4.7058 0
M  V30 18400 C 1731.34 1.93944 -5.80562 0
M  V30 18401 N 1730.48 3.01848 -6.33902 0
M  V30 18402 H 1735.32 0.0548473 -2.9795 0
M  V30 18403 H 1732.85 0.0153072 -1.47092 0
M  V30 18404 H 1734.81 2.50955 -3.33283 0
M  V30 18405 H 1733.44 2.36103 -2.20125 0
M  V30 18406 H 1732.49 0.517281 -3.76866 0
M  V30 18407 H 1733.81 0.894993 -4.90705 0
M  V30 18408 H 1732.96 3.2402 -5.12929 0
M  V30 18409 H 1731.7 2.92193 -3.9048 0
M  V30 18410 H 1730.7 1.1483 -5.37675 0
M  V30 18411 H 1731.93 1.49132 -6.62523 0
M  V30 18412 H 1729.88 3.47015 -5.56701 0
M  V30 18413 H 1729.79 2.63775 -7.08491 0
M  V30 18414 H 1731.06 3.79449 -6.8091 0
M  V30 18415 N 1735.29 1.57597 0.0100073 0
M  V30 18416 C 1736.71 1.55348 0.365949 0
M  V30 18417 C 1736.91 0.991487 1.75419 0
M  V30 18418 O 1735.96 0.620894 2.44747 0
M  V30 18419 C 1737.27 2.99656 0.250343 0
M  V30 18420 C 1738.82 3.11297 0.326023 0
M  V30 18421 C 1739.3 4.57373 0.239653 0
M  V30 18422 N 1740.79 4.62241 0.297863 0
M  V30 18423 C 1741.52 5.72836 0.254219 0
M  V30 18424 N 1741.02 6.92611 0.161753 0
M  V30 18425 N 1742.81 5.6127 0.30535 0
M  V30 18426 H 1734.96 1.92471 -0.898253 0
M  V30 18427 H 1737.23 0.883623 -0.343386 0
M  V30 18428 H 1736.93 3.44574 -0.704407 0
M  V30 18429 H 1736.81 3.62682 1.03643 0
M  V30 18430 H 1739.19 2.66316 1.27121 0
M  V30 18431 H 1739.27 2.51068 -0.489756 0
M  V30 18432 H 1738.92 5.03026 -0.70195 0
M  V30 18433 H 1738.85 5.15536 1.07379 0
M  V30 18434 H 1741.34 3.76074 0.371065 0
M  V30 18435 H 1741.65 7.72684 0.134073 0
M  V30 18436 H 1740 6.94883 0.127524 0
M  V30 18437 H 1743.19 4.6659 0.375713 0
M  V30 18438 H 1743.36 6.47446 0.267871 0
M  V30 18439 N 1736.77 -0.282606 1.55045 0
M  V30 18440 C 1737.72 -1.36902 1.88044 0
M  V30 18441 C 1738.71 -1.51603 0.755845 0
M  V30 18442 O 1739.92 -1.53501 0.940074 0
M  V30 18443 H 1736.29 -0.457666 0.596696 0
M  V30 18444 H 1738.26 -1.06317 2.78818 0
M  V30 18445 C 1737.01 -2.72426 2.16054 0
M  V30 18446 H 1736.33 -2.61903 3.02071 0
M  V30 18447 H 1737.77 -3.47409 2.43071 0
M  V30 18448 C 1736.23 -3.22784 0.964996 0
M  V30 18449 O 1736.76 -4.01228 0.194759 0
M  V30 18450 N 1734.97 -2.80341 0.765322 0
M  V30 18451 H 1734.52 -2.16665 1.39335 0
M  V30 18452 H 1734.47 -3.14383 -0.0330026 0
M  V30 18453 N 1738.25 -1.47815 -0.546675 0
M  V30 18454 C 1739.47 -1.58864 -1.33331 0
M  V30 18455 C 1739.9 -0.24302 -1.86524 0
M  V30 18456 O 1739.25 0.782777 -1.63531 0
M  V30 18457 C 1739.3 -2.62556 -2.47177 0
M  V30 18458 O 1738.41 -2.18558 -3.49723 0
M  V30 18459 H 1737.75 -0.53329 -0.395598 0
M  V30 18460 H 1740.28 -1.93677 -0.659579 0
M  V30 18461 H 1740.29 -2.83307 -2.936 0
M  V30 18462 H 1738.96 -3.60255 -2.0782 0
M  V30 18463 H 1737.54 -2.0795 -3.09534 0
M  V30 18464 N 1739.72 0.794246 -1.36123 0
M  V30 18465 C 1740.95 1.58813 -1.33391 0
M  V30 18466 C 1741.37 1.87915 0.0834599 0
M  V30 18467 O 1740.73 1.47516 1.05398 0
M  V30 18468 C 1740.78 2.88887 -2.15816 0
M  V30 18469 O 1739.88 3.82271 -1.54734 0
M  V30 18470 H 1739.22 0.481924 -0.456777 0
M  V30 18471 H 1741.75 0.984818 -1.79339 0
M  V30 18472 H 1741.76 3.38201 -2.2822 0
M  V30 18473 H 1740.44 2.67032 -3.18852 0
M  V30 18474 H 1739.02 3.40852 -1.51242 0
M  V30 18475 N 1741.2 1.20323 1.01785 0
M  V30 18476 C 1742.61 1.01326 1.56812 0
M  V30 18477 C 1742.96 -0.430709 1.91414 0
M  V30 18478 O 1742.09 -1.31191 1.72098 0
M  V30 18479 C 1742.68 1.83304 2.8493 0
M  V30 18480 C 1741.24 1.68676 3.3649 0
M  V30 18481 C 1740.39 1.81315 2.0981 0
M  V30 18482 H 1743.34 1.34533 0.841815 0
M  V30 18483 H 1743.36 1.33567 3.56286 0
M  V30 18484 H 1742.87 2.88392 2.59714 0
M  V30 18485 H 1740.97 0.662195 3.66668 0
M  V30 18486 H 1741.09 2.49877 4.08777 0
M  V30 18487 H 1739.45 1.24488 2.22204 0
M  V30 18488 H 1740.23 2.87885 1.87022 0
M  V30 18489 N 1742.68 -1.21073 1.00892 0
M  V30 18490 C 1744.09 -1.71982 0.726576 0
M  V30 18491 C 1744.44 -1.81071 -0.755486 0
M  V30 18492 O 1743.57 -1.46797 -1.58996 0
M  V30 18493 C 1744.16 -3.12354 1.31226 0
M  V30 18494 C 1742.72 -3.60605 1.07895 0
M  V30 18495 C 1741.87 -2.38024 1.42267 0
M  V30 18496 H 1744.82 -1.06195 1.17934 0
M  V30 18497 H 1744.84 -3.74026 0.6989 0
M  V30 18498 H 1744.35 -3.05707 2.39092 0
M  V30 18499 H 1742.45 -3.72596 0.0176168 0
M  V30 18500 H 1742.57 -4.45854 1.7536 0
M  V30 18501 H 1740.93 -2.40396 0.841531 0
M  V30 18502 H 1741.71 -2.34024 2.51173 0
M  V30 18503 N 1744.16 -0.784156 -1.36707 0
M  V30 18504 C 1745.57 -0.417967 -1.81961 0
M  V30 18505 C 1745.92 1.05746 -1.65264 0
M  V30 18506 O 1745.05 1.82003 -1.17064 0
M  V30 18507 C 1745.64 -0.751869 -3.30352 0
M  V30 18508 C 1744.2 -0.438578 -3.73836 0
M  V30 18509 C 1743.35 -0.989262 -2.59054 0
M  V30 18510 H 1746.3 -0.977754 -1.25003 0
M  V30 18511 H 1746.32 -0.041034 -3.80478 0
M  V30 18512 H 1745.83 -1.82576 -3.42473 0
M  V30 18513 H 1743.93 0.627493 -3.67278 0
M  V30 18514 H 1744.04 -0.955508 -4.69475 0
M  V30 18515 H 1742.41 -0.412783 -2.51333 0
M  V30 18516 H 1743.19 -2.06881 -2.73962 0
M  V30 18517 N 1745.64 1.48215 -0.535727 0
M  V30 18518 C 1746.86 2.07399 -0.00589172 0
M  V30 18519 C 1747.29 1.38886 1.26856 0
M  V30 18520 O 1746.64 0.456684 1.75454 0
M  V30 18521 C 1746.69 3.60071 0.195203 0
M  V30 18522 O 1745.8 3.92596 1.26261 0
M  V30 18523 H 1745.14 0.662689 -0.0416988 0
M  V30 18524 H 1747.67 1.90543 -0.745281 0
M  V30 18525 H 1747.68 4.05873 0.416085 0
M  V30 18526 H 1746.35 4.0934 -0.735747 0
M  V30 18527 H 1744.93 3.58567 1.02393 0
M  V30 18528 N 1747.11 0.27113 1.5525 0
M  V30 18529 C 1748.53 -0.2274 1.8531 0
M  V30 18530 C 1748.88 -1.55752 1.19314 0
M  V30 18531 O 1748 -2.11008 0.480046 0
M  V30 18532 C 1748.6 -0.419382 3.36194 0
M  V30 18533 C 1747.16 -0.862149 3.66393 0
M  V30 18534 C 1746.3 0.0468534 2.7726 0
M  V30 18535 H 1749.25 0.493032 1.50847 0
M  V30 18536 H 1749.27 -1.25852 3.59084 0
M  V30 18537 H 1748.79 0.548856 3.84199 0
M  V30 18538 H 1746.89 -1.842 3.23884 0
M  V30 18539 H 1747 -0.702231 4.73926 0
M  V30 18540 H 1745.36 -0.468769 2.50349 0
M  V30 18541 H 1746.15 1.0109 3.28079 0
M  V30 18542 N 1748.59 -1.576 -0.00164943 0
M  V30 18543 C 1749.54 -2.09439 -1.01183 0
M  V30 18544 C 1750.53 -1.01402 -1.35698 0
M  V30 18545 O 1751.74 -1.19869 -1.34281 0
M  V30 18546 H 1748.12 -0.668732 -0.34395 0
M  V30 18547 H 1750.09 -2.93306 -0.549033 0
M  V30 18548 C 1748.84 -2.61163 -2.29542 0
M  V30 18549 H 1748.16 -3.43926 -2.0385 0
M  V30 18550 H 1749.6 -3.01115 -2.98506 0
M  V30 18551 C 1748.06 -1.52502 -3.00408 0
M  V30 18552 O 1748.59 -0.906982 -3.91327 0
M  V30 18553 N 1746.79 -1.25288 -2.62205 0
M  V30 18554 H 1746.34 -1.75731 -1.88351 0
M  V30 18555 H 1746.3 -0.528035 -3.09934 0
M  V30 18556 N 1750.07 0.274379 -1.55193 0
M  V30 18557 C 1751.02 1.33913 -1.87978 0
M  V30 18558 C 1751.99 1.49142 -0.731149 0
M  V30 18559 O 1753.17 1.63572 -0.98229 0
M  V30 18560 C 1750.31 2.69464 -2.156 0
M  V30 18561 C 1749.43 2.62468 -3.43125 0
M  V30 18562 C 1748.56 3.90188 -3.60453 0
M  V30 18563 C 1747.6 3.77697 -4.81675 0
M  V30 18564 N 1746.74 4.97249 -4.95669 0
M  V30 18565 H 1751.58 1.05254 -2.78793 0
M  V30 18566 H 1749.11 0.508532 -1.3803 0
M  V30 18567 H 1751.07 3.48329 -2.29614 0
M  V30 18568 H 1749.7 2.96328 -1.28021 0
M  V30 18569 H 1748.75 1.7532 -3.3759 0
M  V30 18570 H 1750.07 2.49137 -4.32125 0
M  V30 18571 H 1749.22 4.77495 -3.74277 0
M  V30 18572 H 1747.96 4.06384 -2.69635 0
M  V30 18573 H 1746.96 2.88774 -4.67857 0
M  V30 18574 H 1748.19 3.63022 -5.73927 0
M  V30 18575 H 1746.13 5.13858 -4.07781 0
M  V30 18576 H 1746.05 4.86444 -5.78712 0
M  V30 18577 H 1747.32 5.86132 -5.13877 0
M  V30 18578 N 1751.55 1.48103 0.538828 0
M  V30 18579 C 1752.5 1.62398 1.66522 0
M  V30 18580 C 1753.49 0.490669 1.62138 0
M  V30 18581 O 1754.7 0.669098 1.67102 0
M  V30 18582 H 1751.07 0.511415 0.551324 0
M  V30 18583 H 1753.04 2.57018 1.51606 0
M  V30 18584 C 1751.79 1.67264 3.04824 0
M  V30 18585 H 1751.11 2.53828 3.08887 0
M  V30 18586 H 1752.55 1.81312 3.83278 0
M  V30 18587 C 1751.01 0.409539 3.34402 0
M  V30 18588 O 1751.54 -0.481433 3.98805 0
M  V30 18589 N 1749.75 0.283934 2.8921 0
M  V30 18590 H 1749.3 1.00993 2.36977 0
M  V30 18591 H 1749.25 -0.560201 3.09369 0
M  V30 18592 N 1753.03 -0.787016 1.36542 0
M  V30 18593 C 1753.97 -1.92115 1.31128 0
M  V30 18594 C 1754.97 -1.68183 0.202656 0
M  V30 18595 O 1756.17 -1.7616 0.369802 0
M  V30 18596 H 1752.55 -0.631514 0.408281 0
M  V30 18597 H 1754.52 -1.938 2.26901 0
M  V30 18598 C 1753.27 -3.29173 1.11985 0
M  V30 18599 H 1752.59 -3.48156 1.96539 0
M  V30 18600 H 1754.03 -4.08873 1.12243 0
M  V30 18601 C 1752.49 -3.36443 -0.175383 0
M  V30 18602 O 1753.02 -3.84455 -1.16437 0
M  V30 18603 N 1751.23 -2.89759 -0.220879 0
M  V30 18604 H 1750.77 -2.5088 0.584558 0
M  V30 18605 H 1750.73 -2.95005 -1.08717 0
M  V30 18606 N 1754.5 -1.20861 -1.01145 0
M  V30 18607 C 1755.45 -0.959005 -2.1191 0
M  V30 18608 C 1756.45 0.0914738 -1.69153 0
M  V30 18609 O 1757.65 -0.0593443 -1.79902 0
M  V30 18610 H 1754.03 -0.292825 -0.692645 0
M  V30 18611 H 1756 -1.89937 -2.30145 0
M  V30 18612 C 1754.75 -0.533258 -3.43586 0
M  V30 18613 H 1754.07 -1.33319 -3.76917 0
M  V30 18614 H 1755.51 -0.397868 -4.22129 0
M  V30 18615 C 1753.97 0.755011 -3.28331 0
M  V30 18616 O 1754.5 1.81217 -3.58502 0
M  V30 18617 N 1752.71 0.719026 -2.81564 0
M  V30 18618 H 1752.25 -0.141544 -2.57211 0
M  V30 18619 H 1752.21 1.58132 -2.71738 0
M  V30 18620 N 1755.98 1.20536 -1.01532 0
M  V30 18621 C 1756.95 2.21495 -0.589298 0
M  V30 18622 C 1757.95 1.57167 0.339871 0
M  V30 18623 O 1759.14 1.73724 0.128736 0
M  V30 18624 C 1756.27 3.40614 0.139623 0
M  V30 18625 H 1757.46 2.607 -1.48241 0
M  V30 18626 H 1755.01 1.33977 -0.804977 0
M  V30 18627 H 1755.75 3.0691 1.04771 0
M  V30 18628 H 1755.53 3.88531 -0.52785 0
M  V30 18629 H 1757.02 4.15431 0.425083 0
M  V30 18630 N 1757.46 0.791395 1.36289 0
M  V30 18631 C 1758.71 0.365242 1.99484 0
M  V30 18632 C 1759.04 -1.06087 1.62663 0
M  V30 18633 O 1758.31 -1.73332 0.882396 0
M  V30 18634 C 1758.6 0.531317 3.56159 0
M  V30 18635 C 1758.45 2.00126 4.02827 0
M  V30 18636 C 1759.77 -0.0524248 4.40069 0
M  V30 18637 H 1756.89 0.134183 0.724682 0
M  V30 18638 H 1759.53 0.998102 1.61672 0
M  V30 18639 H 1757.68 -0.0074293 3.88499 0
M  V30 18640 H 1759.35 2.60122 3.80965 0
M  V30 18641 H 1757.6 2.50316 3.54294 0
M  V30 18642 H 1758.27 2.06842 5.11782 0
M  V30 18643 H 1760.74 0.407489 4.141 0
M  V30 18644 H 1759.62 0.0937898 5.4882 0
M  V30 18645 H 1759.88 -1.14472 4.27023 0
M  V30 18646 N 1758.94 -1.47929 0.54358 0
M  V30 18647 C 1760.22 -1.95535 -0.0505687 0
M  V30 18648 C 1760.6 -1.48603 -1.49934 0
M  V30 18649 O 1759.94 -0.718655 -2.16905 0
M  V30 18650 C 1760.15 -3.48907 0.0807654 0
M  V30 18651 C 1761.5 -4.2454 -0.0715671 0
M  V30 18652 O 1762.53 -3.56199 0.007637 0
M  V30 18653 O 1761.39 -5.45975 -0.239596 0
M  V30 18654 H 1758.48 -0.823883 -0.0717396 0
M  V30 18655 H 1761.03 -1.58391 0.60914 0
M  V30 18656 H 1759.8 -3.75828 1.08944 0
M  V30 18657 H 1759.42 -3.92781 -0.617178 0
M  V30 18658 N 1760.42 -0.27936 -1.55104 0
M  V30 18659 C 1761.64 0.342295 -2.04556 0
M  V30 18660 C 1762.07 1.48367 -1.15624 0
M  V30 18661 O 1761.43 1.8063 -0.15572 0
M  V30 18662 C 1761.47 0.796785 -3.51687 0
M  V30 18663 O 1760.58 1.90364 -3.65835 0
M  V30 18664 H 1759.92 0.07012 -0.660287 0
M  V30 18665 H 1762.45 -0.414896 -2.00349 0
M  V30 18666 H 1762.46 1.09141 -3.93131 0
M  V30 18667 H 1761.13 -0.0382637 -4.15882 0
M  V30 18668 H 1759.71 1.61123 -3.36294 0
M  V30 18669 N 1761.9 1.57599 -0.0067085 0
M  V30 18670 C 1763.14 1.90481 0.675393 0
M  V30 18671 C 1763.46 0.881481 1.73939 0
M  V30 18672 O 1762.73 -0.0801928 1.95736 0
M  V30 18673 H 1761.31 0.703048 0.252452 0
M  V30 18674 H 1763.98 1.94838 -0.04922 0
M  V30 18675 H 1763.07 2.90441 1.14239 0
M  V30 18676 N 1763.37 -0.266145 1.55336 0
M  V30 18677 C 1764.62 -0.994648 1.7547 0
M  V30 18678 C 1764.94 -1.87201 0.56702 0
M  V30 18679 O 1766.14 -2.63582 0.650924 0
M  V30 18680 C 1764.6 -1.81844 3.10581 0
M  V30 18681 C 1764.21 -0.989413 4.36938 0
M  V30 18682 C 1765.95 -2.54084 3.40061 0
M  V30 18683 C 1763.86 -1.80799 5.63086 0
M  V30 18684 H 1762.79 -0.375097 0.654078 0
M  V30 18685 H 1765.44 -0.25004 1.81788 0
M  V30 18686 H 1763.82 -2.60427 2.98318 0
M  V30 18687 H 1764.99 -0.247271 4.60136 0
M  V30 18688 H 1763.31 -0.38125 4.14651 0
M  V30 18689 H 1765.91 -3.15744 4.3152 0
M  V30 18690 H 1766.25 -3.2472 2.60505 0
M  V30 18691 H 1766.78 -1.82526 3.53453 0
M  V30 18692 H 1763.52 -1.14571 6.4541 0
M  V30 18693 H 1763.04 -2.52592 5.4402 0
M  V30 18694 H 1764.72 -2.37994 6.01638 0
M  V30 18695 N 1764.85 -1.48386 -0.530967 0
M  V30 18696 C 1765.8 -1.59236 -1.6318 0
M  V30 18697 C 1766.79 -0.449549 -1.54492 0
M  V30 18698 O 1767.98 -0.700935 -1.6253 0
M  V30 18699 C 1765.11 -1.6343 -3.01903 0
M  V30 18700 C 1764.19 -2.83188 -3.15699 0
M  V30 18701 N 1764.58 -4.07616 -2.99471 0
M  V30 18702 C 1762.88 -2.80499 -3.46751 0
M  V30 18703 C 1763.58 -4.87959 -3.16657 0
M  V30 18704 N 1762.56 -4.20757 -3.44186 0
M  V30 18705 H 1766.36 -2.53187 -1.49243 0
M  V30 18706 H 1763.87 -1.44744 -0.7364 0
M  V30 18707 H 1765.87 -1.69297 -3.80978 0
M  V30 18708 H 1764.53 -0.705948 -3.16933 0
M  V30 18709 H 1765.54 -4.38068 -2.76255 0
M  V30 18710 H 1762.22 -1.96916 -3.68145 0
M  V30 18711 H 1763.61 -5.96705 -3.08857 0
M  V30 18712 N 1766.33 0.779763 -1.36958 0
M  V30 18713 C 1767.26 1.90687 -1.34762 0
M  V30 18714 C 1768.24 1.68704 -0.217508 0
M  V30 18715 O 1769.43 1.89678 -0.416639 0
M  V30 18716 C 1766.56 3.27854 -1.14582 0
M  V30 18717 C 1765.51 3.64383 -2.2452 0
M  V30 18718 C 1764.84 5.00004 -1.89473 0
M  V30 18719 C 1766.14 3.71963 -3.66662 0
M  V30 18720 H 1767.83 1.92781 -2.29076 0
M  V30 18721 H 1765.38 0.926102 -1.10269 0
M  V30 18722 H 1767.33 4.06332 -1.11678 0
M  V30 18723 H 1766.05 3.26172 -0.167218 0
M  V30 18724 H 1764.71 2.88207 -2.26566 0
M  V30 18725 H 1764.36 4.94853 -0.901617 0
M  V30 18726 H 1764.06 5.25414 -2.63085 0
M  V30 18727 H 1765.58 5.80892 -1.88141 0
M  V30 18728 H 1767 4.40611 -3.6679 0
M  V30 18729 H 1765.39 4.08864 -4.39261 0
M  V30 18730 H 1766.46 2.72824 -4.00868 0
M  V30 18731 N 1767.81 1.21396 1.00503 0
M  V30 18732 C 1769.04 1.05714 1.77855 0
M  V30 18733 C 1769.45 -0.393058 1.84663 0
M  V30 18734 O 1768.81 -1.2727 1.308 0
M  V30 18735 C 1768.86 1.64774 3.21763 0
M  V30 18736 O 1768.58 3.0412 3.15346 0
M  V30 18737 C 1770.08 1.54202 4.15616 0
M  V30 18738 H 1767.3 0.371241 0.558947 0
M  V30 18739 H 1769.84 1.60733 1.26433 0
M  V30 18740 H 1768 1.13847 3.70294 0
M  V30 18741 H 1768.41 3.32356 4.05758 0
M  V30 18742 H 1769.89 2.00269 5.14389 0
M  V30 18743 H 1770.36 0.496455 4.36385 0
M  V30 18744 H 1770.97 2.04377 3.72975 0
M  V30 18745 N 1769.29 -1.19996 1.0217 0
M  V30 18746 C 1770.53 -1.88818 0.709281 0
M  V30 18747 C 1770.85 -1.80032 -0.764702 0
M  V30 18748 O 1772.05 -2.44037 -1.18988 0
M  V30 18749 C 1770.51 -3.38652 1.2183 0
M  V30 18750 C 1770.12 -3.56012 2.71955 0
M  V30 18751 C 1771.86 -4.12996 0.981542 0
M  V30 18752 C 1769.77 -4.997 3.16313 0
M  V30 18753 H 1768.7 -0.70716 0.261613 0
M  V30 18754 H 1771.35 -1.35715 1.23506 0
M  V30 18755 H 1769.73 -3.91109 0.620478 0
M  V30 18756 H 1770.91 -3.13918 3.37331 0
M  V30 18757 H 1769.22 -2.95046 2.93831 0
M  V30 18758 H 1771.82 -5.18948 1.28831 0
M  V30 18759 H 1772.16 -4.1622 -0.0818616 0
M  V30 18760 H 1772.69 -3.66656 1.543 0
M  V30 18761 H 1769.43 -5.01635 4.21951 0
M  V30 18762 H 1768.95 -5.42585 2.5566 0
M  V30 18763 H 1770.63 -5.68312 3.09242 0
M  V30 18764 N 1770.76 -0.798611 -1.35867 0
M  V30 18765 C 1771.67 -0.204758 -2.33705 0
M  V30 18766 C 1772.69 0.648001 -1.61484 0
M  V30 18767 O 1773.87 0.561628 -1.93411 0
M  V30 18768 C 1770.93 0.643225 -3.40681 0
M  V30 18769 C 1769.99 -0.229099 -4.28688 0
M  V30 18770 C 1769.22 0.578508 -5.30555 0
M  V30 18771 O 1769.45 1.81382 -5.40793 0
M  V30 18772 O 1768.38 -0.0264291 -6.01894 0
M  V30 18773 H 1772.21 -1.01392 -2.86275 0
M  V30 18774 H 1769.79 -0.560242 -1.38498 0
M  V30 18775 H 1771.67 1.12648 -4.06065 0
M  V30 18776 H 1770.35 1.43012 -2.90395 0
M  V30 18777 H 1769.26 -0.759314 -3.66313 0
M  V30 18778 H 1770.59 -0.979736 -4.82351 0
M  V30 18779 N 1772.24 1.47639 -0.551417 0
M  V30 18780 C 1773.17 2.26857 0.247231 0
M  V30 18781 C 1774.15 1.33688 0.925546 0
M  V30 18782 O 1775.34 1.63061 0.945688 0
M  V30 18783 C 1772.46 3.10554 1.35181 0
M  V30 18784 C 1771.51 4.19257 0.782657 0
M  V30 18785 S 1772.34 5.34246 -0.366249 0
M  V30 18786 C 1773.5 6.21507 0.740284 0
M  V30 18787 H 1773.73 2.94246 -0.425008 0
M  V30 18788 H 1771.26 1.50663 -0.33762 0
M  V30 18789 H 1773.22 3.59348 1.98442 0
M  V30 18790 H 1771.88 2.42537 1.99586 0
M  V30 18791 H 1771.08 4.77527 1.61196 0
M  V30 18792 H 1770.68 3.73315 0.226329 0
M  V30 18793 H 1772.97 6.57505 1.6338 0
M  V30 18794 H 1773.91 7.07831 0.195076 0
M  V30 18795 H 1774.32 5.55017 1.03035 0
M  V30 18796 N 1773.72 0.287581 1.54954 0
M  V30 18797 C 1774.67 -0.610315 2.2445 0
M  V30 18798 C 1775.66 -1.14786 1.24582 0
M  V30 18799 O 1776.87 -1.10005 1.42474 0
M  V30 18800 H 1773.24 -0.215394 0.720493 0
M  V30 18801 H 1775.21 -0.00148121 2.984 0
M  V30 18802 C 1773.96 -1.77719 2.9885 0
M  V30 18803 H 1773.29 -1.37277 3.75493 0
M  V30 18804 H 1774.73 -2.38181 3.50779 0
M  V30 18805 C 1773.19 -2.67321 2.05039 0
M  V30 18806 O 1773.72 -3.68038 1.60968 0
M  V30 18807 N 1771.92 -2.34761 1.71276 0
M  V30 18808 H 1771.47 -1.52905 2.07311 0
M  V30 18809 H 1771.43 -2.94981 1.08781 0
M  V30 18810 N 1775.2 -1.57593 0.0150662 0
M  V30 18811 C 1776.15 -2.0936 -0.971443 0
M  V30 18812 C 1777.12 -0.992416 -1.33193 0
M  V30 18813 O 1778.3 -1.26577 -1.42769 0
M  V30 18814 C 1775.44 -2.61386 -2.25324 0
M  V30 18815 C 1774.55 -3.85462 -1.95046 0
M  V30 18816 C 1773.69 -4.25934 -3.17418 0
M  V30 18817 C 1772.73 -5.42805 -2.82894 0
M  V30 18818 N 1771.86 -5.78499 -3.97848 0
M  V30 18819 H 1776.7 -2.93373 -0.523068 0
M  V30 18820 H 1774.24 -1.45018 -0.246605 0
M  V30 18821 H 1776.2 -2.89635 -3.00279 0
M  V30 18822 H 1774.83 -1.80225 -2.67804 0
M  V30 18823 H 1773.88 -3.64029 -1.10394 0
M  V30 18824 H 1775.19 -4.70505 -1.6561 0
M  V30 18825 H 1774.35 -4.55544 -4.00705 0
M  V30 18826 H 1773.09 -3.3963 -3.50004 0
M  V30 18827 H 1772.09 -5.12903 -1.98016 0
M  V30 18828 H 1773.32 -6.30797 -2.51539 0
M  V30 18829 H 1771.26 -4.95152 -4.30303 0
M  V30 18830 H 1771.18 -6.5815 -3.71988 0
M  V30 18831 H 1772.45 -6.12708 -4.8188 0
M  V30 18832 N 1776.68 0.257904 -1.55475 0
M  V30 18833 C 1777.9 1.00955 -1.81171 0
M  V30 18834 C 1778.33 1.78586 -0.590651 0
M  V30 18835 O 1777.68 1.75365 0.460105 0
M  V30 18836 C 1777.73 1.93188 -3.04485 0
M  V30 18837 O 1776.84 3.02194 -2.80628 0
M  V30 18838 H 1776.18 0.28785 -0.598363 0
M  V30 18839 H 1778.71 0.28223 -2.02644 0
M  V30 18840 H 1778.72 2.3486 -3.33624 0
M  V30 18841 H 1777.39 1.361 -3.93001 0
M  V30 18842 H 1775.97 2.64729 -2.62627 0
M  V30 18843 N 1778.15 1.48666 0.52309 0
M  V30 18844 C 1779.12 1.63211 1.60919 0
M  V30 18845 C 1780.12 0.505012 1.52664 0
M  V30 18846 O 1781.31 0.770967 1.56211 0
M  V30 18847 C 1778.44 1.60878 3.00551 0
M  V30 18848 H 1779.63 2.60061 1.4936 0
M  V30 18849 H 1777.19 1.37366 0.745674 0
M  V30 18850 H 1777.92 0.655306 3.1761 0
M  V30 18851 H 1777.71 2.4271 3.07952 0
M  V30 18852 H 1779.2 1.74263 3.79502 0
M  V30 18853 N 1779.63 -0.772489 1.37369 0
M  V30 18854 C 1780.86 -1.56158 1.35729 0
M  V30 18855 C 1781.28 -1.88712 -0.0575274 0
M  V30 18856 O 1780.63 -1.51395 -1.01911 0
M  V30 18857 C 1780.68 -2.87231 2.19501 0
M  V30 18858 O 1780.4 -2.56072 3.5547 0
M  V30 18859 C 1781.91 -3.81464 2.25831 0
M  V30 18860 H 1779.13 -0.483803 0.464947 0
M  V30 18861 H 1781.67 -0.957502 1.80699 0
M  V30 18862 H 1779.82 -3.44063 1.78042 0
M  V30 18863 H 1780.24 -3.40002 3.99373 0
M  V30 18864 H 1781.71 -4.70442 2.8877 0
M  V30 18865 H 1782.19 -4.20542 1.26653 0
M  V30 18866 H 1782.8 -3.30561 2.67599 0
M  V30 18867 N 1781.11 -1.21927 -0.998575 0
M  V30 18868 C 1782.34 -1.06735 -1.77827 0
M  V30 18869 C 1782.76 0.378154 -1.8426 0
M  V30 18870 O 1782.12 1.27301 -1.2909 0
M  V30 18871 C 1782.17 -1.67662 -3.19252 0
M  V30 18872 O 1781.27 -0.926448 -4.01859 0
M  V30 18873 H 1780.61 -0.375241 -0.547805 0
M  V30 18874 H 1783.14 -1.61605 -1.25478 0
M  V30 18875 H 1783.15 -1.72151 -3.69903 0
M  V30 18876 H 1781.83 -2.72854 -3.13885 0
M  V30 18877 H 1780.4 -0.957145 -3.60407 0
M  V30 18878 N 1782.59 1.19452 -1.02805 0
M  V30 18879 C 1783.81 1.93616 -0.743485 0
M  V30 18880 C 1784.24 1.74934 0.691342 0
M  V30 18881 O 1783.6 1.05111 1.47721 0
M  V30 18882 C 1783.64 3.43451 -1.0988 0
M  V30 18883 O 1782.75 4.11829 -0.216978 0
M  V30 18884 H 1782.09 0.60448 -0.274771 0
M  V30 18885 H 1784.62 1.51554 -1.37451 0
M  V30 18886 H 1784.63 3.94115 -1.05535 0
M  V30 18887 H 1783.3 3.5637 -2.14413 0
M  V30 18888 H 1781.88 3.71533 -0.318954 0
M  V30 18889 N 1784.07 0.805805 1.35442 0
M  V30 18890 C 1785.29 0.397179 2.03561 0
M  V30 18891 C 1785.72 -0.983665 1.6033 0
M  V30 18892 O 1785.07 -1.63683 0.779586 0
M  V30 18893 C 1785.12 0.487813 3.57285 0
M  V30 18894 O 1784.23 -0.499039 4.09369 0
M  V30 18895 H 1783.57 0.166009 0.642913 0
M  V30 18896 H 1786.1 1.09147 1.73055 0
M  V30 18897 H 1786.11 0.357334 4.06432 0
M  V30 18898 H 1784.78 1.49501 3.88101 0
M  V30 18899 H 1783.36 -0.328864 3.71447 0
M  V30 18900 N 1785.54 -1.47344 0.559239 0
M  V30 18901 C 1786.96 -1.86272 0.126394 0
M  V30 18902 C 1787.31 -1.46563 -1.30437 0
M  V30 18903 O 1786.43 -0.869624 -1.98158 0
M  V30 18904 C 1787.03 -3.38068 0.222602 0
M  V30 18905 C 1785.59 -3.7608 -0.155219 0
M  V30 18906 C 1784.73 -2.71394 0.569244 0
M  V30 18907 H 1787.68 -1.38833 0.768845 0
M  V30 18908 H 1787.7 -3.76382 -0.558262 0
M  V30 18909 H 1787.22 -3.66938 1.26404 0
M  V30 18910 H 1785.32 -3.52826 -1.19768 0
M  V30 18911 H 1785.43 -4.78662 0.204756 0
M  V30 18912 H 1783.79 -2.54697 0.0120996 0
M  V30 18913 H 1784.58 -3.03107 1.61187 0
M  V30 18914 N 1787.02 -0.295795 -1.54799 0
M  V30 18915 C 1788.27 0.314384 -1.9964 0
M  V30 18916 C 1788.59 1.5481 -1.1857 0
M  V30 18917 O 1787.86 1.93884 -0.280353 0
M  V30 18918 H 1786.44 0.119153 -0.737436 0
M  V30 18919 H 1789.1 -0.40592 -1.90626 0
M  V30 18920 H 1788.2 0.59002 -3.06472 0
M  V30 18921 N 1788.5 1.57583 -0.0234236 0
M  V30 18922 C 1789.73 1.96267 0.670371 0
M  V30 18923 C 1790.15 0.899586 1.65194 0
M  V30 18924 O 1789.51 -0.140079 1.80758 0
M  V30 18925 C 1789.56 3.34049 1.35806 0
M  V30 18926 O 1788.66 3.3001 2.4732 0
M  V30 18927 H 1788 0.640097 0.176557 0
M  V30 18928 H 1790.53 2.04429 -0.0835829 0
M  V30 18929 H 1790.54 3.70151 1.71616 0
M  V30 18930 H 1789.22 4.10969 0.63852 0
M  V30 18931 H 1787.79 3.05618 2.13664 0
M  V30 18932 N 1789.98 -0.249655 1.5561 0
M  V30 18933 C 1791.39 -0.818934 1.67781 0
M  V30 18934 C 1791.74 -1.86134 0.620374 0
M  V30 18935 O 1790.87 -2.15133 -0.233869 0
M  V30 18936 C 1791.46 -1.49219 3.0417 0
M  V30 18937 C 1790.02 -2.0092 3.18289 0
M  V30 18938 C 1789.17 -0.859333 2.63649 0
M  V30 18939 H 1792.12 -0.0255186 1.58679 0
M  V30 18940 H 1792.14 -2.36011 2.98461 0
M  V30 18941 H 1791.65 -0.733268 3.8111 0
M  V30 18942 H 1789.75 -2.79701 2.46167 0
M  V30 18943 H 1789.87 -2.20848 4.25163 0
M  V30 18944 H 1788.23 -1.2591 2.21402 0
M  V30 18945 H 1789.01 -0.113545 3.43112 0
M  V30 18946 N 1791.46 -1.48941 -0.515198 0
M  V30 18947 C 1792.39 -1.67466 -1.62719 0
M  V30 18948 C 1793.37 -0.523393 -1.61847 0
M  V30 18949 O 1794.55 -0.757631 -1.78812 0
M  V30 18950 C 1791.68 -1.72799 -3.0126 0
M  V30 18951 C 1790.64 -2.87574 -3.16994 0
M  V30 18952 C 1789.96 -2.78008 -4.56745 0
M  V30 18953 C 1791.26 -4.28693 -2.98362 0
M  V30 18954 H 1792.96 -2.60562 -1.47471 0
M  V30 18955 H 1790.5 -1.25391 -0.708027 0
M  V30 18956 H 1792.46 -1.84346 -3.78939 0
M  V30 18957 H 1791.18 -0.762918 -3.17564 0
M  V30 18958 H 1789.84 -2.75606 -2.41737 0
M  V30 18959 H 1789.49 -1.79438 -4.69905 0
M  V30 18960 H 1789.19 -3.55033 -4.68215 0
M  V30 18961 H 1790.71 -2.91543 -5.36503 0
M  V30 18962 H 1792.13 -4.41416 -3.65821 0
M  V30 18963 H 1790.52 -5.0683 -3.21315 0
M  V30 18964 H 1791.59 -4.44125 -1.9463 0
M  V30 18965 N 1792.94 0.765193 -1.37777 0
M  V30 18966 C 1793.89 1.86902 -1.30582 0
M  V30 18967 C 1794.87 1.59746 -0.192343 0
M  V30 18968 O 1796.06 1.71764 -0.427313 0
M  V30 18969 C 1793.19 3.2446 -1.12162 0
M  V30 18970 C 1792.28 3.57546 -2.28082 0
M  V30 18971 N 1792.67 3.61769 -3.53493 0
M  V30 18972 C 1790.97 3.87748 -2.2038 0
M  V30 18973 C 1791.67 3.9179 -4.29972 0
M  V30 18974 N 1790.64 4.08025 -3.59188 0
M  V30 18975 H 1794.44 1.88428 -2.25549 0
M  V30 18976 H 1791.96 0.96197 -1.30843 0
M  V30 18977 H 1793.96 4.03437 -1.05092 0
M  V30 18978 H 1792.62 3.24194 -0.181181 0
M  V30 18979 H 1793.63 3.43813 -3.87315 0
M  V30 18980 H 1790.3 3.95266 -1.3443 0
M  V30 18981 H 1791.69 4.01777 -5.3854 0
M  V30 18982 N 1794.41 1.22455 0.992094 0
M  V30 18983 C 1795.64 1.07677 1.77258 0
M  V30 18984 C 1796.06 -0.368377 1.84458 0
M  V30 18985 O 1795.42 -1.26614 1.29763 0
M  V30 18986 C 1795.47 1.69353 3.18358 0
M  V30 18987 O 1794.57 0.947746 4.01362 0
M  V30 18988 H 1793.91 0.378141 0.545807 0
M  V30 18989 H 1796.44 1.62269 1.2462 0
M  V30 18990 H 1796.45 1.7411 3.68985 0
M  V30 18991 H 1795.13 2.74515 3.12433 0
M  V30 18992 H 1793.71 0.976245 3.59894 0
M  V30 18993 N 1795.89 -1.18905 1.03437 0
M  V30 18994 C 1796.82 -2.24539 0.640669 0
M  V30 18995 C 1797.8 -1.66396 -0.353024 0
M  V30 18996 O 1798.99 -1.92779 -0.234522 0
M  V30 18997 C 1796.12 -3.473 -0.00367731 0
M  V30 18998 C 1795.07 -4.18151 0.912881 0
M  V30 18999 C 1794.4 -5.34534 0.133347 0
M  V30 19000 C 1795.7 -4.72342 2.22913 0
M  V30 19001 H 1797.39 -2.57726 1.52374 0
M  V30 19002 H 1794.94 -1.23883 0.734098 0
M  V30 19003 H 1796.89 -4.20396 -0.290783 0
M  V30 19004 H 1795.61 -3.13328 -0.921578 0
M  V30 19005 H 1794.27 -3.46945 1.18427 0
M  V30 19006 H 1793.92 -4.96809 -0.786762 0
M  V30 19007 H 1793.62 -5.82872 0.743905 0
M  V30 19008 H 1795.15 -6.10423 -0.146889 0
M  V30 19009 H 1796.56 -5.37165 2.00317 0
M  V30 19010 H 1794.96 -5.31189 2.79209 0
M  V30 19011 H 1796.03 -3.90108 2.87999 0
M  V30 19012 N 1797.37 -0.812977 -1.35013 0
M  V30 19013 C 1798.28 -0.229534 -2.33474 0
M  V30 19014 C 1799.3 0.630837 -1.62162 0
M  V30 19015 O 1800.47 0.541083 -1.93995 0
M  V30 19016 C 1797.54 0.607055 -3.41344 0
M  V30 19017 C 1796.6 -0.274554 -4.28421 0
M  V30 19018 C 1795.83 0.522202 -5.31139 0
M  V30 19019 O 1796.05 1.75636 -5.42686 0
M  V30 19020 O 1794.99 -0.0902666 -6.01832 0
M  V30 19021 H 1798.81 -1.04423 -2.85183 0
M  V30 19022 H 1796.4 -0.5749 -1.37896 0
M  V30 19023 H 1798.28 1.08335 -4.07236 0
M  V30 19024 H 1796.96 1.39924 -2.91895 0
M  V30 19025 H 1795.86 -0.798124 -3.65487 0
M  V30 19026 H 1797.2 -1.03084 -4.81284 0
M  V30 19027 N 1798.85 1.47045 -0.567045 0
M  V30 19028 C 1800.08 2.06835 -0.0518309 0
M  V30 19029 C 1800.49 1.41823 1.24626 0
M  V30 19030 O 1799.85 0.518102 1.74991 0
M  V30 19031 C 1799.9 3.6124 0.137142 0
M  V30 19032 O 1799.62 4.23817 -1.10955 0
M  V30 19033 C 1801.12 4.37921 0.688511 0
M  V30 19034 H 1798.34 0.669111 -0.0503138 0
M  V30 19035 H 1800.88 1.88906 -0.783258 0
M  V30 19036 H 1799.04 3.7865 0.818733 0
M  V30 19037 H 1799.45 5.16484 -0.913475 0
M  V30 19038 H 1800.93 5.46603 0.769984 0
M  V30 19039 H 1801.4 4.0488 1.70201 0
M  V30 19040 H 1802.01 4.25279 0.0423004 0
M  V30 19041 N 1800.33 0.304 1.5464 0
M  V30 19042 C 1801.55 -0.309709 2.05075 0
M  V30 19043 C 1801.98 -1.46509 1.1797 0
M  V30 19044 O 1801.33 -1.80359 0.184437 0
M  V30 19045 C 1801.38 -0.740734 3.5291 0
M  V30 19046 O 1800.49 -1.8452 3.68817 0
M  V30 19047 H 1799.83 -0.0596065 0.661319 0
M  V30 19048 H 1802.36 0.446718 1.99664 0
M  V30 19049 H 1802.37 -1.02873 3.94818 0
M  V30 19050 H 1801.04 0.104422 4.15769 0
M  V30 19051 H 1799.62 -1.55753 3.38815 0
M  V30 19052 N 1801.8 -1.57568 0.0317802 0
M  V30 19053 C 1802.73 -2.13412 -0.947499 0
M  V30 19054 C 1803.71 -1.05091 -1.33753 0
M  V30 19055 O 1804.9 -1.32936 -1.41568 0
M  V30 19056 C 1802.03 -2.66337 -2.22895 0
M  V30 19057 C 1800.98 -3.79469 -1.97958 0
M  V30 19058 C 1800.31 -4.18833 -3.3239 0
M  V30 19059 C 1801.61 -5.05432 -1.31664 0
M  V30 19060 H 1803.3 -2.95488 -0.482417 0
M  V30 19061 H 1800.85 -1.42142 -0.230603 0
M  V30 19062 H 1802.8 -3.04039 -2.91784 0
M  V30 19063 H 1801.53 -1.81426 -2.71574 0
M  V30 19064 H 1800.19 -3.42209 -1.31485 0
M  V30 19065 H 1799.83 -3.30899 -3.78833 0
M  V30 19066 H 1799.53 -4.95071 -3.16511 0
M  V30 19067 H 1801.06 -4.5912 -4.02544 0
M  V30 19068 H 1802.47 -5.40704 -1.90558 0
M  V30 19069 H 1800.87 -5.86686 -1.26173 0
M  V30 19070 H 1801.94 -4.84032 -0.28996 0
M  V30 19071 O 1803.32 0.109795 -1.61126 0
M  V30 19072 H 1804.01 0.740073 -1.79004 0
M  V30 END ATOM
M  V30 BEGIN BOND
M  V30 END BOND
M  V30 END CTAB
M  END
$$$$
