drugbank_target|P20138 Myeloid cell surface antigen CD33 (DB00056; DB06318)
 OpenBabel12092119363D

  0  0  0     0  0            999 V3000
M  V30 BEGIN CTAB
M  V30 COUNTS 5571 5643 0 0 0
M  V30 BEGIN ATOM
M  V30 1 H -0.908 1.98254 -0.117106 0
M  V30 2 N 0 1.576 0 0
M  V30 3 C 0.933 2.03868 1.02534 0
M  V30 4 C 1.911 0.928543 1.3348 0
M  V30 5 O 3.095 1.19667 1.45644 0
M  V30 6 C 0.222 2.43627 2.35294 0
M  V30 7 C -0.732 3.65373 2.2001 0
M  V30 8 S 0.101 5.13292 1.52614 0
M  V30 9 C 1.257 5.56322 2.86805 0
M  V30 10 H 1.49 2.90518 0.631377 0
M  V30 11 H -0.977 1.52953 0.210867 0
M  V30 12 H 0.981 2.67203 3.11629 0
M  V30 13 H -0.358 1.57376 2.7183 0
M  V30 14 H -1.165 3.90944 3.18086 0
M  V30 15 H -1.563 3.418 1.51819 0
M  V30 16 H 0.729 5.58782 3.83104 0
M  V30 17 H 1.672 6.56266 2.65933 0
M  V30 18 H 2.08 4.83886 2.90714 0
M  V30 19 N 1.4781 -0.272755 1.55222 0
M  V30 20 C 2.8891 -0.84378 1.66545 0
M  V30 21 C 3.2401 -1.87035 0.592641 0
M  V30 22 O 2.3651 -2.14761 -0.265818 0
M  V30 23 C 2.9601 -1.53723 3.01918 0
M  V30 24 C 1.5191 -2.05628 3.15268 0
M  V30 25 C 0.6661 -0.898424 2.62343 0
M  V30 26 H 3.6171 -0.0490998 1.58624 0
M  V30 27 H 3.6381 -2.40421 2.94921 0
M  V30 28 H 3.1501 -0.78983 3.79978 0
M  V30 29 H 1.2511 -2.83329 2.41983 0
M  V30 30 H 1.3641 -2.27142 4.21833 0
M  V30 31 H -0.2719 -1.29186 2.19506 0
M  V30 32 H 0.5111 -0.164528 3.42906 0
M  V30 33 N 2.9562 -1.48159 -0.537278 0
M  V30 34 C 3.8862 -1.65029 -1.6519 0
M  V30 35 C 4.8672 -0.499281 -1.62607 0
M  V30 36 O 6.0522 -0.730972 -1.79918 0
M  V30 37 C 3.1822 -1.68303 -3.03795 0
M  V30 38 C 2.1362 -2.8283 -3.21234 0
M  V30 39 C 1.4622 -2.71189 -4.60826 0
M  V30 40 C 2.7622 -4.24211 -3.04701 0
M  V30 41 H 4.4562 -2.58341 -1.51328 0
M  V30 42 H 2.0022 -1.24325 -0.726585 0
M  V30 43 H 3.9552 -1.78693 -3.81637 0
M  V30 44 H 2.6792 -0.715635 -3.18663 0
M  V30 45 H 1.3382 -2.71983 -2.45807 0
M  V30 46 H 0.9862 -1.72435 -4.7252 0
M  V30 47 H 0.6862 -3.48035 -4.7344 0
M  V30 48 H 2.2102 -2.83537 -5.40777 0
M  V30 49 H 3.6242 -4.3593 -3.72341 0
M  V30 50 H 2.0212 -5.01998 -3.28813 0
M  V30 51 H 3.0912 -4.41184 -2.01209 0
M  V30 52 N 4.4343 0.785586 -1.36625 0
M  V30 53 C 5.3643 1.91259 -1.33949 0
M  V30 54 C 6.3453 1.68795 -0.210325 0
M  V30 55 O 7.5303 1.89854 -0.408561 0
M  V30 56 C 4.6603 3.28339 -1.13186 0
M  V30 57 C 3.6143 3.65335 -2.22967 0
M  V30 58 C 2.9403 5.00806 -1.87342 0
M  V30 59 C 4.2403 3.7352 -3.65075 0
M  V30 60 H 5.9343 1.93755 -2.28253 0
M  V30 61 H 3.4803 0.930788 -1.09874 0
M  V30 62 H 5.4333 4.06804 -1.09948 0
M  V30 63 H 4.1573 3.2624 -0.153332 0
M  V30 64 H 2.8163 2.89169 -2.25337 0
M  V30 65 H 2.4643 4.95233 -0.880545 0
M  V30 66 H 2.1643 5.26529 -2.60846 0
M  V30 67 H 3.6883 5.81687 -1.85667 0
M  V30 68 H 5.1023 4.42168 -3.64911 0
M  V30 69 H 3.4993 4.10731 -4.37516 0
M  V30 70 H 4.5693 2.74527 -3.99703 0
M  V30 71 N 5.9124 1.20967 1.01018 0
M  V30 72 C 6.8424 0.988272 2.11555 0
M  V30 73 C 7.8234 -0.0849778 1.69888 0
M  V30 74 O 9.0084 0.0738202 1.9406 0
M  V30 75 C 6.1384 0.546528 3.42973 0
M  V30 76 C 5.0924 1.56375 3.9841 0
M  V30 77 C 4.4184 0.97842 5.25672 0
M  V30 78 C 5.7184 2.94922 4.31066 0
M  V30 79 H 7.4124 1.91276 2.30334 0
M  V30 80 H 4.9584 0.921073 1.1069 0
M  V30 81 H 6.9114 0.378839 4.19694 0
M  V30 82 H 5.6354 -0.413598 3.23971 0
M  V30 83 H 4.2944 1.71891 3.23804 0
M  V30 84 H 3.9424 0.0101688 5.02999 0
M  V30 85 H 3.6424 1.65784 5.63728 0
M  V30 86 H 5.1664 0.821939 6.05043 0
M  V30 87 H 6.5804 2.8288 4.9865 0
M  V30 88 H 4.9774 3.5983 4.80253 0
M  V30 89 H 6.0474 3.4616 3.39561 0
M  V30 90 N 7.3905 -1.2043 1.01659 0
M  V30 91 C 8.3205 -2.25466 0.607226 0
M  V30 92 C 9.3015 -1.65853 -0.377716 0
M  V30 93 O 10.4865 -1.92409 -0.263149 0
M  V30 94 C 7.6165 -3.47256 -0.0552949 0
M  V30 95 C 6.5705 -4.19462 0.850632 0
M  V30 96 C 5.8965 -5.34673 0.0538859 0
M  V30 97 C 7.1965 -4.75603 2.15868 0
M  V30 98 H 8.8905 -2.59962 1.48526 0
M  V30 99 H 6.4365 -1.2496 0.715605 0
M  V30 100 H 8.3895 -4.19917 -0.353233 0
M  V30 101 H 7.1135 -3.11924 -0.968045 0
M  V30 102 H 5.7725 -3.48667 1.13257 0
M  V30 103 H 5.4205 -4.95585 -0.860514 0
M  V30 104 H 5.1205 -5.83913 0.657192 0
M  V30 105 H 6.6445 -6.10138 -0.237598 0
M  V30 106 H 8.0585 -5.40083 1.92311 0
M  V30 107 H 6.4555 -5.3528 2.71284 0
M  V30 108 H 7.5255 -3.94346 2.82169 0
M  V30 109 N 8.8686 -0.792821 -1.36206 0
M  V30 110 C 9.7986 -0.207853 -2.32573 0
M  V30 111 C 10.7796 0.659055 -1.56813 0
M  V30 112 O 11.9646 0.592176 -1.84951 0
M  V30 113 C 9.0946 0.655449 -3.41059 0
M  V30 114 C 8.0486 -0.111842 -4.27854 0
M  V30 115 C 7.3746 0.872274 -5.27537 0
M  V30 116 C 8.6746 -1.30299 -5.05786 0
M  V30 117 H 10.3686 -1.01294 -2.81744 0
M  V30 118 H 7.9146 -0.48854 -1.3546 0
M  V30 119 H 9.8676 1.07464 -4.07467 0
M  V30 120 H 8.5916 1.49328 -2.90463 0
M  V30 121 H 7.2506 -0.512053 -3.63006 0
M  V30 122 H 6.8986 1.70523 -4.73214 0
M  V30 123 H 6.5986 0.363291 -5.86476 0
M  V30 124 H 8.1226 1.28996 -5.96818 0
M  V30 125 H 9.5366 -0.959379 -5.65216 0
M  V30 126 H 7.9336 -1.7455 -5.74154 0
M  V30 127 H 9.0036 -2.09663 -4.37229 0
M  V30 128 N 10.3467 1.47872 -0.545128 0
M  V30 129 C 11.7577 1.86384 -0.108581 0
M  V30 130 C 12.1087 1.45309 1.31832 0
M  V30 131 O 11.2337 0.850641 1.9898 0
M  V30 132 C 11.8287 3.38265 -0.190274 0
M  V30 133 C 10.3877 3.75914 0.191164 0
M  V30 134 C 9.5347 2.71926 -0.543273 0
M  V30 135 H 12.4857 1.39561 -0.755537 0
M  V30 136 H 12.5067 3.75831 0.594217 0
M  V30 137 H 12.0187 3.6813 -1.2289 0
M  V30 138 H 10.1197 3.51665 1.23136 0
M  V30 139 H 10.2327 4.78836 -0.158987 0
M  V30 140 H 8.5967 2.54697 0.0122495 0
M  V30 141 H 9.3797 3.04634 -1.58282 0
M  V30 142 N 11.8248 0.280983 1.55075 0
M  V30 143 C 12.7548 -0.597469 2.25727 0
M  V30 144 C 13.7358 -1.15417 1.24952 0
M  V30 145 O 14.9208 -1.18722 1.53684 0
M  V30 146 C 12.0508 -1.7789 2.98283 0
M  V30 147 C 11.0048 -1.35347 4.06036 0
M  V30 148 C 10.3308 -2.61846 4.66198 0
M  V30 149 C 11.6308 -0.499354 5.19907 0
M  V30 150 H 13.3248 -0.00824265 2.99399 0
M  V30 151 H 10.8708 -0.0025244 1.44 0
M  V30 152 H 12.8238 -2.39937 3.46422 0
M  V30 153 H 11.5478 -2.39405 2.22155 0
M  V30 154 H 10.2068 -0.756156 3.58717 0
M  V30 155 H 9.8548 -3.21632 3.86732 0
M  V30 156 H 9.5548 -2.3409 5.38958 0
M  V30 157 H 11.0788 -3.24732 5.1709 0
M  V30 158 H 12.4928 -1.02498 5.64063 0
M  V30 159 H 10.8898 -0.316424 5.99265 0
M  V30 160 H 11.9598 0.480459 4.82514 0
M  V30 161 N 13.3029 -1.57598 0.00835791 0
M  V30 162 C 14.2329 -2.1198 -0.979113 0
M  V30 163 C 15.2139 -1.03091 -1.35301 0
M  V30 164 O 16.3989 -1.30818 -1.43528 0
M  V30 165 C 13.5289 -2.62995 -2.26828 0
M  V30 166 C 12.4829 -3.76485 -2.03576 0
M  V30 167 C 11.8089 -4.13846 -3.38579 0
M  V30 168 C 13.1089 -5.0342 -1.39161 0
M  V30 169 H 14.8029 -2.94738 -0.526281 0
M  V30 170 H 12.3489 -1.41783 -0.251704 0
M  V30 171 H 14.3019 -2.99669 -2.96271 0
M  V30 172 H 13.0259 -1.7737 -2.7424 0
M  V30 173 H 11.6849 -3.40217 -1.36557 0
M  V30 174 H 11.3329 -3.25232 -3.83709 0
M  V30 175 H 11.0329 -4.90312 -3.23834 0
M  V30 176 H 12.5569 -4.53086 -4.09323 0
M  V30 177 H 13.9709 -5.37812 -1.98573 0
M  V30 178 H 12.3679 -5.84746 -1.34878 0
M  V30 179 H 13.4379 -4.83548 -0.361868 0
M  V30 180 N 14.781 0.264519 -1.55364 0
M  V30 181 C 16.027 0.992314 -1.77552 0
M  V30 182 C 16.382 1.83626 -0.574379 0
M  V30 183 O 15.675 1.86648 0.432782 0
M  V30 184 C 15.869 1.9004 -3.02687 0
M  V30 185 C 15.698 1.14583 -4.34857 0
M  V30 186 C 14.468 0.858068 -4.97961 0
M  V30 187 C 16.666 0.532069 -5.1154 0
M  V30 188 N 14.648 0.0775974 -6.13851 0
M  V30 189 C 16.019 -0.113823 -6.19896 0
M  V30 190 C 18.074 0.440763 -4.95945 0
M  V30 191 C 16.777 -0.842231 -7.14352 0
M  V30 192 C 18.803 -0.274072 -5.90765 0
M  V30 193 C 18.165 -0.90867 -6.98515 0
M  V30 194 H 14.264 0.344811 -0.701875 0
M  V30 195 H 16.848 0.267141 -1.92859 0
M  V30 196 H 15.019 2.59775 -2.88741 0
M  V30 197 H 16.751 2.56243 -3.13243 0
M  V30 198 H 13.506 1.16547 -4.59036 0
M  V30 199 H 13.93 -0.300216 -6.76334 0
M  V30 200 H 18.572 0.917064 -4.12735 0
M  V30 201 H 16.29 -1.33019 -7.97077 0
M  V30 202 H 19.876 -0.345151 -5.80775 0
M  V30 203 H 18.756 -1.45299 -7.70622 0
M  V30 204 N 16.2591 1.48442 0.529413 0
M  V30 205 C 17.2221 1.62524 1.61612 0
M  V30 206 C 18.2221 0.498509 1.52877 0
M  V30 207 O 19.4121 0.76431 1.56537 0
M  V30 208 C 16.5441 1.59597 3.01233 0
M  V30 209 H 17.7371 2.59423 1.50465 0
M  V30 210 H 15.2901 1.37047 0.751514 0
M  V30 211 H 16.0251 0.641781 3.17886 0
M  V30 212 H 15.8101 2.41397 3.08982 0
M  V30 213 H 17.3001 1.72646 3.80241 0
M  V30 214 N 17.7372 -0.778329 1.37039 0
M  V30 215 C 18.9852 -1.53361 1.31623 0
M  V30 216 C 19.3062 -1.94739 -0.100831 0
M  V30 217 O 18.5762 -1.65797 -1.04347 0
M  V30 218 H 17.1562 -0.568794 0.484234 0
M  V30 219 H 19.8182 -0.926742 1.71457 0
M  V30 220 H 18.9142 -2.43606 1.95096 0
M  V30 221 N 19.2153 -1.21501 -1.00376 0
M  V30 222 C 20.1783 -0.976927 -2.07337 0
M  V30 223 C 21.1783 0.0525322 -1.60714 0
M  V30 224 O 22.3683 -0.184869 -1.73216 0
M  V30 225 C 19.5003 -0.473423 -3.37597 0
M  V30 226 H 20.6933 -1.92587 -2.29892 0
M  V30 227 H 18.2463 -1.03217 -1.17371 0
M  V30 228 H 18.9813 0.480379 -3.20722 0
M  V30 229 H 18.7663 -1.216 -3.72768 0
M  V30 230 H 20.2563 -0.32675 -4.1632 0
M  V30 231 N 20.6934 1.19889 -1.02296 0
M  V30 232 C 21.6234 2.25141 -0.619174 0
M  V30 233 C 22.6044 1.66051 0.368915 0
M  V30 234 O 23.7894 1.92546 0.252941 0
M  V30 235 C 20.9194 3.4728 0.0368783 0
M  V30 236 C 19.8734 4.19005 -0.872865 0
M  V30 237 C 19.1994 5.34637 -0.0822402 0
M  V30 238 C 20.4994 4.74452 -2.18387 0
M  V30 239 H 22.1934 2.59171 -1.49903 0
M  V30 240 H 19.7394 1.24579 -0.722222 0
M  V30 241 H 21.6924 4.20098 0.330958 0
M  V30 242 H 20.4164 3.12433 0.95149 0
M  V30 243 H 19.0754 3.48061 -1.15105 0
M  V30 244 H 18.7234 4.96034 0.83422 0
M  V30 245 H 18.4234 5.83557 -0.688149 0
M  V30 246 H 19.9474 6.10255 0.205238 0
M  V30 247 H 21.3614 5.39055 -1.95172 0
M  V30 248 H 19.7584 5.33834 -2.74119 0
M  V30 249 H 20.8284 3.92844 -2.84257 0
M  V30 250 N 22.1715 0.800033 1.35784 0
M  V30 251 C 23.1345 0.211565 2.28221 0
M  V30 252 C 24.1345 -0.59728 1.49296 0
M  V30 253 O 25.3245 -0.416721 1.69142 0
M  V30 254 C 22.4565 -0.705846 3.33513 0
M  V30 255 H 23.6495 1.02677 2.81776 0
M  V30 256 H 21.2025 0.570211 1.45528 0
M  V30 257 H 21.9375 -1.54498 2.85133 0
M  V30 258 H 21.7225 -0.127655 3.91892 0
M  V30 259 H 23.2125 -1.11211 4.02519 0
M  V30 260 N 23.6496 -1.47581 0.552962 0
M  V30 261 C 24.5826 -2.26883 -0.244857 0
M  V30 262 C 25.5606 -1.33784 -0.924147 0
M  V30 263 O 26.7446 -1.6316 -0.943981 0
M  V30 264 C 23.8716 -3.10695 -1.34856 0
M  V30 265 C 22.9176 -4.19339 -0.778268 0
M  V30 266 S 23.7506 -5.34207 0.37184 0
M  V30 267 C 24.9066 -6.21584 -0.733779 0
M  V30 268 H 25.1396 -2.94202 0.428087 0
M  V30 269 H 22.6726 -1.50628 0.339197 0
M  V30 270 H 24.6306 -3.59555 -1.98066 0
M  V30 271 H 23.2916 -2.42746 -1.99332 0
M  V30 272 H 22.4846 -4.77695 -1.60696 0
M  V30 273 H 22.0866 -3.73338 -0.222422 0
M  V30 274 H 24.3786 -6.57676 -1.62692 0
M  V30 275 H 25.3216 -7.07851 -0.187668 0
M  V30 276 H 25.7296 -5.55125 -1.02454 0
M  V30 277 N 25.1277 -0.289203 -1.54924 0
M  V30 278 C 26.4047 0.376032 -1.91951 0
M  V30 279 C 26.7847 1.72622 -1.21511 0
M  V30 280 O 26.1327 2.25853 -0.346767 0
M  V30 281 C 26.3427 0.502378 -3.45365 0
M  V30 282 C 27.6907 0.778741 -4.17398 0
M  V30 283 O 28.7147 0.586647 -3.51336 0
M  V30 284 O 27.5737 1.14698 -5.34328 0
M  V30 285 H 24.6677 0.208167 -0.800372 0
M  V30 286 H 27.2137 -0.336394 -1.66332 0
M  V30 287 H 25.9857 -0.447255 -3.88736 0
M  V30 288 H 25.6087 1.26373 -3.76982 0
M  V30 289 N 26.6058 1.57591 -0.0167156 0
M  V30 290 C 28.0168 1.79201 0.523834 0
M  V30 291 C 28.3678 0.925796 1.72984 0
M  V30 292 O 27.4928 0.132792 2.15992 0
M  V30 293 C 28.0878 3.25 0.957091 0
M  V30 294 C 26.6468 3.47648 1.44283 0
M  V30 295 C 25.7938 2.74374 0.401757 0
M  V30 296 H 28.7448 1.56831 -0.242816 0
M  V30 297 H 28.7658 3.34031 1.82219 0
M  V30 298 H 28.2778 3.88019 0.0791415 0
M  V30 299 H 26.3788 2.89866 2.34113 0
M  V30 300 H 26.4918 4.56352 1.45877 0
M  V30 301 H 24.8558 2.39485 0.867121 0
M  V30 302 H 25.6388 3.40102 -0.467513 0
M  V30 303 N 28.0839 -0.256276 1.55502 0
M  V30 304 C 29.0319 -1.33694 1.90338 0
M  V30 305 C 30.0259 -1.50299 0.781441 0
M  V30 306 O 31.2319 -1.51885 0.965966 0
M  V30 307 H 27.6069 -0.447483 0.60437 0
M  V30 308 H 29.5779 -1.01574 2.8058 0
M  V30 309 C 28.3269 -2.68724 2.20642 0
M  V30 310 H 27.6499 -2.56743 3.06469 0
M  V30 311 H 29.0899 -3.43237 2.48926 0
M  V30 312 C 27.5489 -3.21101 1.01959 0
M  V30 313 O 28.0789 -4.0084 0.262762 0
M  V30 314 N 26.2849 -2.79003 0.812746 0
M  V30 315 H 25.8319 -2.14271 1.42989 0
M  V30 316 H 25.7899 -3.14393 0.0203076 0
M  V30 317 N 29.562 -1.4872 -0.521534 0
M  V30 318 C 30.809 -1.57168 -1.27689 0
M  V30 319 C 31.137 -0.249275 -1.92896 0
M  V30 320 O 30.392 0.761162 -1.80291 0
M  V30 321 C 30.691 -2.66497 -2.38148 0
M  V30 322 C 30.357 -4.08664 -1.90538 0
M  V30 323 C 29.019 -4.47357 -1.77271 0
M  V30 324 C 31.371 -4.97724 -1.54663 0
M  V30 325 C 28.699 -5.72905 -1.26478 0
M  V30 326 C 31.051 -6.2377 -1.05329 0
M  V30 327 C 29.715 -6.61311 -0.906861 0
M  V30 328 H 28.985 -0.575117 -0.467249 0
M  V30 329 H 31.632 -1.82472 -0.581051 0
M  V30 330 H 29.937 -2.35085 -3.13437 0
M  V30 331 H 31.634 -2.70246 -2.96257 0
M  V30 332 H 28.224 -3.78111 -2.01816 0
M  V30 333 H 32.408 -4.68501 -1.63768 0
M  V30 334 H 27.664 -6.00709 -1.13835 0
M  V30 335 H 31.838 -6.9217 -0.76644 0
M  V30 336 H 29.465 -7.5848 -0.511083 0
M  V30 337 N 31.0401 0.771051 -1.3745 0
M  V30 338 C 32.2861 1.53109 -1.339 0
M  V30 339 C 32.6411 1.9225 0.0758401 0
M  V30 340 O 31.9341 1.61264 1.03463 0
M  V30 341 C 32.1281 2.80676 -2.2126 0
M  V30 342 C 31.9571 2.54003 -3.71096 0
M  V30 343 C 30.7271 2.48097 -4.402 0
M  V30 344 C 32.9251 2.21953 -4.63941 0
M  V30 345 N 30.9071 2.13515 -5.75573 0
M  V30 346 C 32.2781 1.97516 -5.87697 0
M  V30 347 C 34.3331 2.08114 -4.5232 0
M  V30 348 C 33.0361 1.60638 -7.01133 0
M  V30 349 C 35.0621 1.72636 -5.65642 0
M  V30 350 C 34.4241 1.4906 -6.88448 0
M  V30 351 H 30.5231 0.56055 -0.54526 0
M  V30 352 H 33.1071 0.899472 -1.72678 0
M  V30 353 H 31.2781 3.41674 -1.84698 0
M  V30 354 H 33.0101 3.46578 -2.08963 0
M  V30 355 H 29.7651 2.63974 -3.93211 0
M  V30 356 H 30.1891 1.98919 -6.47117 0
M  V30 357 H 34.8311 2.25024 -3.57944 0
M  V30 358 H 32.5491 1.42467 -7.95443 0
M  V30 359 H 36.1351 1.62586 -5.58621 0
M  V30 360 H 35.0151 1.22014 -7.7465 0
M  V30 361 N 32.5182 1.22032 0.997298 0
M  V30 362 C 33.4482 1.01065 2.10495 0
M  V30 363 C 34.4292 -0.0669542 1.69968 0
M  V30 364 O 35.6142 0.0943987 1.9397 0
M  V30 365 C 32.7442 0.582874 3.42374 0
M  V30 366 C 31.6982 1.60592 3.96729 0
M  V30 367 C 31.0242 1.03412 5.24605 0
M  V30 368 C 32.3242 2.99478 4.27914 0
M  V30 369 H 34.0182 1.93708 2.28292 0
M  V30 370 H 31.5642 0.932761 1.09707 0
M  V30 371 H 33.5172 0.423332 4.19268 0
M  V30 372 H 32.2412 -0.379213 3.24391 0
M  V30 373 H 30.9002 1.75316 3.21963 0
M  V30 374 H 30.5482 0.063518 5.0296 0
M  V30 375 H 30.2482 1.71754 5.61938 0
M  V30 376 H 31.7722 0.886066 6.04137 0
M  V30 377 H 33.1862 2.88153 4.95622 0
M  V30 378 H 31.5832 3.64903 4.76409 0
M  V30 379 H 32.6532 3.49742 3.3587 0
M  V30 380 N 33.9963 -1.19345 1.0293 0
M  V30 381 C 34.9283 -2.22036 0.56857 0
M  V30 382 C 35.9413 -1.58865 -0.355779 0
M  V30 383 O 37.1303 -1.77851 -0.152103 0
M  V30 384 C 34.2303 -3.38363 -0.190752 0
M  V30 385 C 33.4033 -4.31118 0.738643 0
M  V30 386 C 32.4623 -5.26194 0.0246497 0
M  V30 387 O 31.4883 -5.65461 0.651354 0
M  V30 388 N 32.6903 -5.66971 -1.24594 0
M  V30 389 H 35.4553 -2.6219 1.45177 0
M  V30 390 H 33.0163 -1.34015 0.908381 0
M  V30 391 H 35.0083 -3.98981 -0.677961 0
M  V30 392 H 33.5783 -2.96994 -0.975366 0
M  V30 393 H 32.7983 -3.68276 1.40593 0
M  V30 394 H 34.0863 -4.90001 1.37029 0
M  V30 395 H 33.4843 -5.37104 -1.77583 0
M  V30 396 H 32.0413 -6.2984 -1.67764 0
M  V30 397 N 35.4744 -0.807222 -1.35358 0
M  V30 398 C 36.7204 -0.388463 -1.99045 0
M  V30 399 C 37.0534 1.04184 -1.63888 0
M  V30 400 O 36.3284 1.72292 -0.902535 0
M  V30 401 C 36.6114 -0.572783 -3.55515 0
M  V30 402 C 36.4644 -2.04807 -4.00468 0
M  V30 403 C 37.7834 0.00114064 -4.401 0
M  V30 404 H 34.9024 -0.142619 -0.723069 0
M  V30 405 H 37.5444 -1.01687 -1.60498 0
M  V30 406 H 35.6944 -0.0378425 -3.88482 0
M  V30 407 H 37.3664 -2.64544 -3.77908 0
M  V30 408 H 35.6094 -2.54427 -3.51353 0
M  V30 409 H 36.2804 -2.12792 -5.09337 0
M  V30 410 H 38.7564 -0.455716 -4.13597 0
M  V30 411 H 37.6324 -0.157737 -5.48673 0
M  V30 412 H 37.8934 1.09488 -4.28328 0
M  V30 413 N 36.9525 1.47285 -0.560781 0
M  V30 414 C 37.8845 2.28118 0.222438 0
M  V30 415 C 38.8975 1.37219 0.876056 0
M  V30 416 O 40.0865 1.62011 0.749307 0
M  V30 417 C 37.1865 3.1159 1.33285 0
M  V30 418 C 36.3595 4.30473 0.77534 0
M  V30 419 C 35.4185 4.95513 1.77069 0
M  V30 420 O 34.4445 5.53792 1.31539 0
M  V30 421 N 35.6465 4.90531 3.10418 0
M  V30 422 H 38.4115 2.95976 -0.470958 0
M  V30 423 H 35.9725 1.56955 -0.39709 0
M  V30 424 H 37.9645 3.51967 1.99752 0
M  V30 425 H 36.5345 2.45951 1.92943 0
M  V30 426 H 35.7545 3.94144 -0.0662113 0
M  V30 427 H 37.0425 5.07362 0.382272 0
M  V30 428 H 36.4405 4.44389 3.5005 0
M  V30 429 H 34.9975 5.34917 3.72434 0
M  V30 430 N 38.4306 0.297415 1.54768 0
M  V30 431 C 39.3406 -0.58983 2.27064 0
M  V30 432 C 40.3566 -1.15144 1.30453 0
M  V30 433 O 41.5326 -1.17699 1.63428 0
M  V30 434 C 38.5976 -1.74714 2.9946 0
M  V30 435 C 37.6586 -1.21997 4.11601 0
M  V30 436 C 36.8916 -2.32212 4.80535 0
M  V30 437 O 37.1146 -3.52036 4.48806 0
M  V30 438 O 36.0486 -1.99106 5.68014 0
M  V30 439 H 39.8746 -0.00348199 3.037 0
M  V30 440 H 37.4596 0.0640035 1.49263 0
M  V30 441 H 39.3416 -2.42147 3.44881 0
M  V30 442 H 38.0166 -2.32016 2.25722 0
M  V30 443 H 36.9236 -0.511458 3.70587 0
M  V30 444 H 38.2566 -0.692419 4.87305 0
M  V30 445 N 39.9087 -1.5758 0.0250728 0
M  V30 446 C 41.1337 -1.96337 -0.668317 0
M  V30 447 C 41.5587 -0.901314 -1.651 0
M  V30 448 O 40.9167 0.138187 -1.80773 0
M  V30 449 C 40.9647 -3.34191 -1.35457 0
M  V30 450 O 40.0687 -3.30269 -2.46974 0
M  V30 451 H 39.4097 -0.640281 -0.175887 0
M  V30 452 H 41.9397 -2.0442 0.0857224 0
M  V30 453 H 41.9497 -3.70331 -1.71228 0
M  V30 454 H 40.6247 -4.11036 -0.634218 0
M  V30 455 H 39.2017 -3.05841 -2.13344 0
M  V30 456 N 41.3868 0.248026 -1.55636 0
M  V30 457 C 42.6328 0.97767 -1.77678 0
M  V30 458 C 42.9658 1.85016 -0.590135 0
M  V30 459 O 42.2408 1.90095 0.411611 0
M  V30 460 C 42.5238 1.83914 -3.09593 0
M  V30 461 C 42.3768 0.99491 -4.38659 0
M  V30 462 C 43.6958 2.82183 -3.37729 0
M  V30 463 H 40.8148 0.354005 -0.646413 0
M  V30 464 H 43.4568 0.248253 -1.88371 0
M  V30 465 H 41.6068 2.46104 -3.00608 0
M  V30 466 H 43.2788 0.391789 -4.59633 0
M  V30 467 H 41.5218 0.299231 -4.32767 0
M  V30 468 H 42.1928 1.63145 -5.2734 0
M  V30 469 H 44.6688 2.30129 -3.4667 0
M  V30 470 H 43.5448 3.39582 -4.31249 0
M  V30 471 H 43.8058 3.58588 -2.58586 0
M  V30 472 N 42.8649 1.48995 0.513639 0
M  V30 473 C 44.0929 1.61531 1.29288 0
M  V30 474 C 44.5079 0.281801 1.86685 0
M  V30 475 O 43.8649 -0.731111 1.67215 0
M  V30 476 C 43.9159 2.67449 2.43215 0
M  V30 477 O 43.6369 3.95626 1.88179 0
M  V30 478 C 45.1379 2.90575 3.34785 0
M  V30 479 H 42.3579 0.544165 0.392588 0
M  V30 480 H 44.9019 1.9494 0.617956 0
M  V30 481 H 43.0569 2.36853 3.0656 0
M  V30 482 H 43.4709 4.53868 2.62876 0
M  V30 483 H 44.9449 3.68449 4.11035 0
M  V30 484 H 45.4219 2.00011 3.91015 0
M  V30 485 H 46.0279 3.22538 2.77218 0
M  V30 486 N 44.343 -0.763751 1.37857 0
M  V30 487 C 45.589 -1.52483 1.33704 0
M  V30 488 C 45.922 -1.94051 -0.0759612 0
M  V30 489 O 45.197 -1.64675 -1.03501 0
M  V30 490 C 45.48 -2.78441 2.28348 0
M  V30 491 C 45.333 -2.43075 3.78463 0
M  V30 492 C 46.652 -3.80415 2.21298 0
M  V30 493 H 43.771 -0.553169 0.487005 0
M  V30 494 H 46.413 -0.875562 1.68624 0
M  V30 495 H 44.563 -3.33842 1.987 0
M  V30 496 H 46.235 -1.93527 4.18742 0
M  V30 497 H 44.478 -1.75666 3.96641 0
M  V30 498 H 45.149 -3.33149 4.40132 0
M  V30 499 H 47.625 -3.34527 2.47449 0
M  V30 500 H 46.501 -4.66257 2.89647 0
M  V30 501 H 46.762 -4.25262 1.20849 0
M  V30 502 N 45.8211 -1.22559 -0.990812 0
M  V30 503 C 46.7531 -0.955325 -2.08342 0
M  V30 504 C 47.7661 0.0668408 -1.62663 0
M  V30 505 O 48.9551 -0.167421 -1.77713 0
M  V30 506 C 46.0551 -0.415566 -3.36342 0
M  V30 507 C 45.2281 -1.49544 -4.11042 0
M  V30 508 C 44.2871 -0.962399 -5.17324 0
M  V30 509 O 43.3131 -1.64907 -5.44788 0
M  V30 510 N 44.5151 0.215134 -5.80101 0
M  V30 511 H 47.2801 -1.89596 -2.32106 0
M  V30 512 H 44.8411 -1.13276 -1.15673 0
M  V30 513 H 46.8331 -0.0442386 -4.04676 0
M  V30 514 H 45.4031 0.430232 -3.09625 0
M  V30 515 H 44.6231 -2.04 -3.37309 0
M  V30 516 H 45.9111 -2.22195 -4.57719 0
M  V30 517 H 45.3091 0.789779 -5.6016 0
M  V30 518 H 43.8661 0.527826 -6.49659 0
M  V30 519 N 47.2992 1.18797 -1.03562 0
M  V30 520 C 48.2092 2.25913 -0.632505 0
M  V30 521 C 49.2252 1.70668 0.338882 0
M  V30 522 O 50.4012 2.00453 0.195076 0
M  V30 523 C 47.4662 3.467 0.00350942 0
M  V30 524 C 46.5272 4.17098 -1.01624 0
M  V30 525 C 45.7602 5.32119 -0.410478 0
M  V30 526 O 45.9832 5.64976 0.784725 0
M  V30 527 O 44.9172 5.9107 -1.13667 0
M  V30 528 H 48.7432 2.62648 -1.52478 0
M  V30 529 H 46.3282 1.25781 -0.806195 0
M  V30 530 H 48.2102 4.19878 0.35781 0
M  V30 531 H 46.8852 3.11798 0.869686 0
M  V30 532 H 45.7922 3.4601 -1.42224 0
M  V30 533 H 47.1252 4.55987 -1.85301 0
M  V30 534 N 48.7773 0.814389 1.34928 0
M  V30 535 C 50.0253 0.397636 1.9815 0
M  V30 536 C 50.3463 -1.04069 1.64908 0
M  V30 537 O 49.6163 -1.72121 0.93548 0
M  V30 538 H 48.1963 0.144043 0.732981 0
M  V30 539 H 50.8583 1.04195 1.6471 0
M  V30 540 H 49.9543 0.509688 3.0791 0
M  V30 541 N 50.2554 -1.46986 0.568584 0
M  V30 542 C 51.1854 -2.32946 -0.160753 0
M  V30 543 C 52.1664 -1.44487 -0.897631 0
M  V30 544 O 53.3514 -1.73327 -0.875867 0
M  V30 545 C 50.4814 -3.26494 -1.18403 0
M  V30 546 C 49.4354 -4.24282 -0.562895 0
M  V30 547 C 48.7614 -5.07236 -1.69163 0
M  V30 548 C 50.0614 -5.19989 0.490761 0
M  V30 549 H 51.7554 -2.94175 0.556916 0
M  V30 550 H 49.3014 -1.4146 0.26927 0
M  V30 551 H 51.2544 -3.85477 -1.70251 0
M  V30 552 H 49.9784 -2.63343 -1.93179 0
M  V30 553 H 48.6374 -3.66541 -0.0656164 0
M  V30 554 H 48.2854 -4.4048 -2.42871 0
M  V30 555 H 47.9854 -5.7345 -1.28174 0
M  V30 556 H 49.5094 -5.6908 -2.21314 0
M  V30 557 H 50.9234 -5.73271 0.0579047 0
M  V30 558 H 49.3204 -5.94469 0.820165 0
M  V30 559 H 50.3904 -4.64777 1.3824 0
M  V30 560 N 51.7335 -0.305618 -1.54608 0
M  V30 561 C 52.9735 0.303114 -2.0214 0
M  V30 562 C 53.3375 1.50737 -1.18921 0
M  V30 563 O 54.5385 2.18778 -1.56172 0
M  V30 564 C 52.8095 0.646332 -3.51507 0
M  V30 565 S 54.3685 1.23727 -4.20995 0
M  V30 566 H 51.1865 0.0927643 -0.704923 0
M  V30 567 H 53.7885 -0.434566 -1.90609 0
M  V30 568 H 52.4925 -0.238541 -4.09706 0
M  V30 569 H 52.0235 1.41468 -3.67084 0
M  V30 570 H 54.0385 2.52489 -4.27158 0
M  V30 571 N 53.2116 1.57565 -0.0334293 0
M  V30 572 C 54.4576 1.92262 0.645226 0
M  V30 573 C 54.7906 0.910543 1.71531 0
M  V30 574 O 54.0656 -0.066099 1.94388 0
M  V30 575 C 54.3486 3.37422 1.2577 0
M  V30 576 C 54.2016 4.49369 0.196891 0
M  V30 577 C 55.5206 3.82628 2.17449 0
M  V30 578 H 52.6396 0.699171 0.233085 0
M  V30 579 H 55.2816 1.89779 -0.0915694 0
M  V30 580 H 53.4316 3.39669 1.88566 0
M  V30 581 H 55.1036 4.59254 -0.433962 0
M  V30 582 H 53.3466 4.31168 -0.477137 0
M  V30 583 H 54.0176 5.47978 0.665124 0
M  V30 584 H 56.4936 3.82145 1.64634 0
M  V30 585 H 55.3696 4.84883 2.57254 0
M  V30 586 H 55.6306 3.18376 3.0674 0
M  V30 587 N 54.6897 -0.239769 1.55765 0
M  V30 588 C 55.6197 -1.30052 1.9393 0
M  V30 589 C 56.6007 -1.49839 0.805132 0
M  V30 590 O 57.7857 -1.62328 1.06599 0
M  V30 591 C 54.9157 -2.65391 2.2402 0
M  V30 592 C 53.8697 -2.60289 3.39755 0
M  V30 593 C 53.1957 -3.99489 3.55405 0
M  V30 594 C 54.4957 -2.16654 4.75246 0
M  V30 595 H 56.1897 -0.983573 2.82783 0
M  V30 596 H 53.7357 -0.471701 1.36055 0
M  V30 597 H 55.6887 -3.3974 2.49308 0
M  V30 598 H 54.4127 -2.98736 1.32 0
M  V30 599 H 53.0717 -1.88398 3.14487 0
M  V30 600 H 52.7197 -4.30112 2.60793 0
M  V30 601 H 52.4197 -3.96962 4.33238 0
M  V30 602 H 53.9437 -4.75528 3.83022 0
M  V30 603 H 55.3577 -2.80737 4.99859 0
M  V30 604 H 53.7547 -2.25223 5.56232 0
M  V30 605 H 54.8247 -1.11835 4.71827 0
M  V30 606 N 56.1678 -1.49265 -0.50573 0
M  V30 607 C 57.4138 -1.58748 -1.26202 0
M  V30 608 C 57.7468 -0.271227 -1.92297 0
M  V30 609 O 57.0218 0.724831 -1.80489 0
M  V30 610 C 57.3048 -2.74332 -2.33268 0
M  V30 611 C 57.1578 -4.15737 -1.71705 0
M  V30 612 C 58.4768 -2.85576 -3.34865 0
M  V30 613 H 55.5958 -0.577826 -0.457478 0
M  V30 614 H 58.2378 -1.81532 -0.560897 0
M  V30 615 H 56.3878 -2.55036 -2.93068 0
M  V30 616 H 58.0598 -4.46537 -1.15769 0
M  V30 617 H 56.3028 -4.21605 -1.02135 0
M  V30 618 H 56.9738 -4.92477 -2.49341 0
M  V30 619 H 59.4498 -3.03127 -2.8505 0
M  V30 620 H 58.3258 -3.68135 -4.07146 0
M  V30 621 H 58.5868 -1.94732 -3.96903 0
M  V30 622 N 57.6459 0.756429 -1.3826 0
M  V30 623 C 59.0569 1.33359 -1.30661 0
M  V30 624 C 59.4079 1.96161 0.0388875 0
M  V30 625 O 58.5329 1.94874 0.940918 0
M  V30 626 C 59.1279 2.42477 -2.36622 0
M  V30 627 C 57.6869 2.95922 -2.3261 0
M  V30 628 C 56.8339 1.69275 -2.19639 0
M  V30 629 H 59.7849 0.55552 -1.4866 0
M  V30 630 H 59.8059 3.22345 -2.02174 0
M  V30 631 H 59.3179 1.96739 -3.34538 0
M  V30 632 H 57.4189 3.45996 -1.38267 0
M  V30 633 H 57.5319 3.50494 -3.26636 0
M  V30 634 H 55.8959 1.92793 -1.66442 0
M  V30 635 H 56.6789 1.25619 -3.19491 0
M  V30 636 N 59.124 1.23083 0.984299 0
M  V30 637 C 60.364 1.07226 1.74017 0
M  V30 638 C 60.728 -0.384766 1.88105 0
M  V30 639 O 61.929 -0.664411 2.60459 0
M  V30 640 C 60.2 1.77348 3.10294 0
M  V30 641 S 61.759 1.77014 4.01512 0
M  V30 642 H 58.577 0.383819 0.598502 0
M  V30 643 H 61.179 1.56158 1.17622 0
M  V30 644 H 59.883 2.82506 2.97689 0
M  V30 645 H 59.414 1.28682 3.71759 0
M  V30 646 H 61.429 0.825956 4.89277 0
M  V30 647 N 60.6021 -1.18246 1.0419 0
M  V30 648 C 61.8301 -1.92195 0.766072 0
M  V30 649 C 62.2451 -1.76247 -0.676933 0
M  V30 650 O 61.6021 -1.09293 -1.46155 0
M  V30 651 C 61.6531 -3.43568 1.12442 0
M  V30 652 O 61.3741 -3.59015 2.51078 0
M  V30 653 C 62.8751 -4.34613 0.873275 0
M  V30 654 H 60.0951 -0.610114 0.279288 0
M  V30 655 H 62.6391 -1.50007 1.38989 0
M  V30 656 H 60.7941 -3.8354 0.545542 0
M  V30 657 H 61.2081 -4.5273 2.64831 0
M  V30 658 H 62.6821 -5.39374 1.17385 0
M  V30 659 H 63.1591 -4.38781 -0.191909 0
M  V30 660 H 63.7651 -4.00341 1.43551 0
M  V30 661 N 62.0802 -0.821533 -1.34494 0
M  V30 662 C 63.3272 -0.408946 -1.98328 0
M  V30 663 C 63.6552 1.02764 -1.65136 0
M  V30 664 O 62.9102 1.73026 -0.914349 0
M  V30 665 C 63.2092 -0.556512 -3.53041 0
M  V30 666 C 62.8752 -1.95861 -4.0614 0
M  V30 667 C 61.5372 -2.34217 -4.20352 0
M  V30 668 C 63.8892 -2.87523 -4.34718 0
M  V30 669 C 61.2172 -3.63572 -4.6047 0
M  V30 670 C 63.5692 -4.1634 -4.76281 0
M  V30 671 C 62.2332 -4.54675 -4.88699 0
M  V30 672 H 61.5032 -0.149644 -0.725732 0
M  V30 673 H 64.1502 -1.04521 -1.6046 0
M  V30 674 H 62.4552 0.163148 -3.9146 0
M  V30 675 H 64.1522 -0.217826 -4.00408 0
M  V30 676 H 60.7422 -1.65066 -3.95539 0
M  V30 677 H 64.9262 -2.59133 -4.23277 0
M  V30 678 H 60.1822 -3.93101 -4.68275 0
M  V30 679 H 64.3562 -4.87455 -4.97354 0
M  V30 680 H 61.9832 -5.54959 -5.19542 0
M  V30 681 N 63.5583 1.46682 -0.576371 0
M  V30 682 C 64.8053 2.02412 -0.0595339 0
M  V30 683 C 65.1333 1.44859 1.29793 0
M  V30 684 O 64.3883 0.601099 1.8624 0
M  V30 685 C 64.6873 3.57345 0.062886 0
M  V30 686 C 64.3533 4.33908 -1.22616 0
M  V30 687 C 63.0153 4.54544 -1.57933 0
M  V30 688 C 65.3673 4.77919 -2.07948 0
M  V30 689 C 62.6953 5.16444 -2.78393 0
M  V30 690 C 65.0473 5.41149 -3.27629 0
M  V30 691 C 63.7113 5.60014 -3.63236 0
M  V30 692 H 62.9813 0.74068 -0.021785 0
M  V30 693 H 65.6283 1.76128 -0.751735 0
M  V30 694 H 63.9333 3.82729 0.838178 0
M  V30 695 H 65.6303 3.98136 0.478439 0
M  V30 696 H 62.2203 4.18138 -0.941202 0
M  V30 697 H 66.4043 4.61738 -1.81967 0
M  V30 698 H 61.6603 5.29242 -3.06126 0
M  V30 699 H 65.8343 5.74211 -3.94023 0
M  V30 700 H 63.4613 6.07748 -4.56669 0
M  V30 701 N 65.0364 0.313813 1.54444 0
M  V30 702 C 65.9864 -0.571898 2.20711 0
M  V30 703 C 66.9704 -1.08913 1.18435 0
M  V30 704 O 68.1624 -1.02777 1.44104 0
M  V30 705 C 65.2914 -1.7371 2.96108 0
M  V30 706 C 64.3774 -1.23522 4.05713 0
M  V30 707 N 64.7684 -0.452288 5.03774 0
M  V30 708 C 63.0664 -1.51482 4.19487 0
M  V30 709 C 63.7674 -0.183438 5.81411 0
M  V30 710 N 62.7434 -0.766845 5.38164 0
M  V30 711 H 66.5454 0.0336802 2.93881 0
M  V30 712 H 64.0594 0.119192 1.61962 0
M  V30 713 H 66.0564 -2.38329 3.4206 0
M  V30 714 H 64.7164 -2.34625 2.24458 0
M  V30 715 H 65.7274 -0.0960131 5.17811 0
M  V30 716 H 62.4044 -2.13053 3.59047 0
M  V30 717 H 63.7944 0.446216 6.70417 0
M  V30 718 N 66.5145 -1.57545 0.0417849 0
M  V30 719 C 67.9255 -1.80011 -0.495259 0
M  V30 720 C 68.2765 -0.953199 -1.71489 0
M  V30 721 O 67.4015 -0.167138 -2.15754 0
M  V30 722 C 67.9965 -3.26482 -0.905265 0
M  V30 723 C 66.5555 -3.499 -1.38734 0
M  V30 724 C 65.7025 -2.74979 -0.358056 0
M  V30 725 H 68.6535 -1.56425 0.267736 0
M  V30 726 H 68.6745 -3.36887 -1.76882 0
M  V30 727 H 68.1865 -3.88096 -0.017401 0
M  V30 728 H 66.2875 -2.93553 -2.29471 0
M  V30 729 H 66.4005 -4.58615 -1.38598 0
M  V30 730 H 64.7645 -2.40834 -0.828912 0
M  V30 731 H 65.5475 -3.39315 0.521561 0
M  V30 732 N 67.9926 0.231505 -1.5589 0
M  V30 733 C 69.2416 0.955346 -1.7764 0
M  V30 734 C 69.5546 1.85893 -0.608546 0
M  V30 735 O 70.7606 2.62067 -0.70943 0
M  V30 736 C 69.2166 1.74886 -3.14552 0
M  V30 737 C 68.8246 0.891915 -4.39032 0
M  V30 738 C 70.5686 2.46452 -3.45633 0
M  V30 739 C 68.4756 1.68221 -5.66971 0
M  V30 740 H 67.4056 0.360446 -0.662265 0
M  V30 741 H 70.0566 0.209516 -1.823 0
M  V30 742 H 68.4386 2.53723 -3.04041 0
M  V30 743 H 69.6126 0.144793 -4.60572 0
M  V30 744 H 67.9276 0.288863 -4.15397 0
M  V30 745 H 70.5246 3.06061 -4.38441 0
M  V30 746 H 70.8676 3.18841 -2.67668 0
M  V30 747 H 71.4006 1.74613 -3.57428 0
M  V30 748 H 68.1396 1.00178 -6.478 0
M  V30 749 H 67.6596 2.4042 -5.49507 0
M  V30 750 H 69.3386 2.24544 -6.06786 0
M  V30 751 N 69.4707 1.49531 0.497807 0
M  V30 752 C 70.8817 1.52344 1.07927 0
M  V30 753 C 71.2327 0.311469 1.93712 0
M  V30 754 O 70.3577 -0.578405 2.08527 0
M  V30 755 C 70.9527 2.76062 1.96405 0
M  V30 756 C 69.5117 2.81643 2.49709 0
M  V30 757 C 68.6587 2.46299 1.27404 0
M  V30 758 H 71.6097 1.56182 0.281576 0
M  V30 759 H 71.6307 2.56405 2.81135 0
M  V30 760 H 71.1427 3.64254 1.33943 0
M  V30 761 H 69.2437 1.97739 3.15801 0
M  V30 762 H 69.3567 3.83891 2.86643 0
M  V30 763 H 67.7207 1.98148 1.60029 0
M  V30 764 H 68.5037 3.36769 0.66645 0
M  V30 765 N 70.9488 -0.749086 1.3866 0
M  V30 766 C 72.1788 -1.53611 1.38157 0
M  V30 767 C 72.5868 -1.89177 -0.0293595 0
M  V30 768 O 71.9298 -1.53606 -1.00752 0
M  V30 769 C 71.9918 -2.86087 2.17702 0
M  V30 770 C 71.6558 -2.73034 3.66472 0
M  V30 771 C 72.6528 -2.42526 4.59866 0
M  V30 772 C 70.3378 -2.90345 4.09884 0
M  V30 773 C 72.3318 -2.29492 5.94653 0
M  V30 774 C 70.0188 -2.7693 5.4475 0
M  V30 775 C 71.0168 -2.46547 6.36949 0
M  V30 776 O 70.7048 -2.33199 7.69333 0
M  V30 777 H 70.4368 -0.481773 0.474205 0
M  V30 778 H 72.9908 -0.934465 1.82912 0
M  V30 779 H 71.2208 -3.48458 1.67672 0
M  V30 780 H 72.9098 -3.47625 2.09551 0
M  V30 781 H 73.6758 -2.28816 4.27631 0
M  V30 782 H 69.5548 -3.1299 3.38464 0
M  V30 783 H 73.0988 -2.05698 6.66584 0
M  V30 784 H 68.9958 -2.90215 5.76581 0
M  V30 785 H 69.7638 -2.48376 7.79905 0
M  V30 786 N 72.4269 -1.23603 -0.977757 0
M  V30 787 C 73.6569 -1.09487 -1.75203 0
M  V30 788 C 74.0649 0.356321 -1.85814 0
M  V30 789 O 73.4079 1.25816 -1.33851 0
M  V30 790 C 73.4699 -1.64905 -3.19447 0
M  V30 791 C 73.1339 -3.13688 -3.32338 0
M  V30 792 C 74.1309 -4.10953 -3.18455 0
M  V30 793 C 71.8159 -3.53449 -3.56902 0
M  V30 794 C 73.8099 -5.45962 -3.28944 0
M  V30 795 C 71.4969 -4.88602 -3.6703 0
M  V30 796 C 72.4949 -5.84668 -3.53062 0
M  V30 797 O 72.1829 -7.17365 -3.62826 0
M  V30 798 H 71.9149 -0.38367 -0.556573 0
M  V30 799 H 74.4689 -1.6398 -1.23693 0
M  V30 800 H 72.6989 -1.04835 -3.72218 0
M  V30 801 H 74.3879 -1.46226 -3.78646 0
M  V30 802 H 75.1539 -3.81577 -2.99372 0
M  V30 803 H 71.0329 -2.79188 -3.66844 0
M  V30 804 H 74.5769 -6.20925 -3.17958 0
M  V30 805 H 70.4739 -5.17653 -3.85623 0
M  V30 806 H 71.2419 -7.2515 -3.79605 0
M  V30 807 N 73.905 1.17692 -1.04816 0
M  V30 808 C 75.182 1.83768 -0.669963 0
M  V30 809 C 75.562 1.93232 0.849986 0
M  V30 810 O 74.91 1.46397 1.75443 0
M  V30 811 C 75.12 3.21641 -1.35455 0
M  V30 812 C 76.468 3.97592 -1.49017 0
M  V30 813 O 77.492 3.31107 -1.31326 0
M  V30 814 O 76.351 5.16729 -1.77914 0
M  V30 815 H 73.445 0.792799 -0.235368 0
M  V30 816 H 75.991 1.25021 -1.14751 0
M  V30 817 H 74.763 3.097 -2.39168 0
M  V30 818 H 74.386 3.88052 -0.866107 0
M  V30 819 N 75.3831 0.828654 1.34056 0
M  V30 820 C 76.3301 0.252567 2.29414 0
M  V30 821 C 77.3001 -0.62588 1.53857 0
M  V30 822 O 78.4851 -0.566312 1.82202 0
M  V30 823 C 75.6251 -0.574831 3.40279 0
M  V30 824 C 74.7381 0.326499 4.30764 0
M  V30 825 C 73.8731 -0.511016 5.28736 0
M  V30 826 C 72.9121 0.389342 6.1086 0
M  V30 827 N 72.0491 -0.409439 7.00905 0
M  V30 828 H 76.8891 1.07108 2.78086 0
M  V30 829 H 74.4261 0.539677 1.36843 0
M  V30 830 H 76.3841 -1.06992 4.03248 0
M  V30 831 H 75.0141 -1.35841 2.92826 0
M  V30 832 H 74.0661 0.939837 3.68607 0
M  V30 833 H 75.3781 1.01857 4.88289 0
M  V30 834 H 74.5321 -1.07035 5.97184 0
M  V30 835 H 73.2711 -1.23657 4.71763 0
M  V30 836 H 72.2761 0.960769 5.4134 0
M  V30 837 H 73.5011 1.1131 6.69916 0
M  V30 838 H 71.4471 -1.11856 6.46393 0
M  V30 839 H 71.3641 0.224126 7.55668 0
M  V30 840 H 72.6321 -0.951336 7.73673 0
M  V30 841 N 76.8612 -1.46375 0.584142 0
M  V30 842 C 77.8092 -2.32042 -0.161047 0
M  V30 843 C 78.8032 -1.44569 -0.882966 0
M  V30 844 O 80.0092 -1.61186 -0.801191 0
M  V30 845 H 76.3842 -0.748659 -0.0708033 0
M  V30 846 H 78.3552 -2.92704 0.580269 0
M  V30 847 C 77.1042 -3.27762 -1.1605 0
M  V30 848 H 76.4272 -3.95051 -0.614419 0
M  V30 849 H 77.8672 -3.90481 -1.65228 0
M  V30 850 C 76.3262 -2.53218 -2.22221 0
M  V30 851 O 76.8562 -2.29628 -3.29597 0
M  V30 852 N 75.0622 -2.13756 -1.96868 0
M  V30 853 H 74.6092 -2.33142 -1.09557 0
M  V30 854 H 74.5672 -1.642 -2.68115 0
M  V30 855 N 78.3393 -0.321999 -1.54275 0
M  V30 856 C 79.5643 0.285791 -2.05422 0
M  V30 857 C 79.9893 1.45124 -1.19669 0
M  V30 858 O 79.3473 1.80132 -0.205441 0
M  V30 859 C 79.3953 0.69956 -3.53749 0
M  V30 860 O 78.4993 1.8021 -3.70942 0
M  V30 861 H 77.8403 0.0518962 -0.661969 0
M  V30 862 H 80.3703 -0.469954 -1.9913 0
M  V30 863 H 80.3803 0.982649 -3.9599 0
M  V30 864 H 79.0553 -0.152864 -4.15619 0
M  V30 865 H 77.6323 1.51794 -3.40607 0
M  V30 866 N 79.8174 1.5752 -0.0501392 0
M  V30 867 C 81.2284 1.80271 0.485705 0
M  V30 868 C 81.5794 0.96228 1.70981 0
M  V30 869 O 80.7044 0.178578 2.15662 0
M  V30 870 C 81.2994 3.26957 0.887938 0
M  V30 871 C 79.8584 3.5063 1.36877 0
M  V30 872 C 79.0054 2.75165 0.343468 0
M  V30 873 H 81.9564 1.56281 -0.276028 0
M  V30 874 H 81.9774 3.37821 1.75093 0
M  V30 875 H 81.4894 3.881 -0.0031809 0
M  V30 876 H 79.5904 2.94766 2.27911 0
M  V30 877 H 79.7034 4.59343 1.36164 0
M  V30 878 H 78.0674 2.4127 0.816128 0
M  V30 879 H 78.8504 3.39034 -0.539548 0
M  V30 880 N 81.2955 -0.223234 1.56011 0
M  V30 881 C 82.5415 -0.949279 1.79211 0
M  V30 882 C 82.8745 -1.84054 0.619494 0
M  V30 883 O 82.1495 -1.90726 -0.381317 0
M  V30 884 C 82.4325 -1.78965 3.12479 0
M  V30 885 C 82.2855 -0.924997 4.40186 0
M  V30 886 C 83.6045 -2.76774 3.42175 0
M  V30 887 H 80.7235 -0.343676 0.651963 0
M  V30 888 H 83.3655 -0.218253 1.88742 0
M  V30 889 H 81.5155 -2.41291 3.04485 0
M  V30 890 H 83.1875 -0.318615 4.60198 0
M  V30 891 H 81.4305 -0.230344 4.33188 0
M  V30 892 H 82.1015 -1.54735 5.29869 0
M  V30 893 H 84.5775 -2.24584 3.50287 0
M  V30 894 H 83.4535 -3.32678 4.36597 0
M  V30 895 H 83.7145 -3.54429 2.64258 0
M  V30 896 N 82.7736 -1.49793 -0.48987 0
M  V30 897 C 83.7236 -1.63673 -1.5873 0
M  V30 898 C 84.7076 -0.491956 -1.53195 0
M  V30 899 O 85.8996 -0.745461 -1.60536 0
M  V30 900 C 83.0286 -1.71689 -2.97284 0
M  V30 901 C 82.1146 -2.91781 -3.07774 0
M  V30 902 N 82.5056 -4.15714 -2.88124 0
M  V30 903 C 80.8036 -2.89949 -3.38889 0
M  V30 904 C 81.5046 -4.965 -3.03088 0
M  V30 905 N 80.4806 -4.30083 -3.3246 0
M  V30 906 H 84.2826 -2.57204 -1.42208 0
M  V30 907 H 81.7966 -1.46719 -0.69623 0
M  V30 908 H 83.7936 -1.79732 -3.76168 0
M  V30 909 H 82.4536 -0.793024 -3.14867 0
M  V30 910 H 83.4646 -4.45515 -2.64077 0
M  V30 911 H 80.1416 -2.06987 -3.62578 0
M  V30 912 H 81.5316 -6.04991 -2.92294 0
M  V30 913 N 84.2517 0.741722 -1.39055 0
M  V30 914 C 85.4997 1.49818 -1.35643 0
M  V30 915 C 85.8207 1.94938 0.0491642 0
M  V30 916 O 85.0907 1.68505 0.999141 0
M  V30 917 H 83.6707 0.555755 -0.499144 0
M  V30 918 H 86.3327 0.880957 -1.73854 0
M  V30 919 H 85.4287 2.38348 -2.01486 0
M  V30 920 N 85.7298 1.2412 0.971189 0
M  V30 921 C 86.9598 1.10415 1.7462 0
M  V30 922 C 87.3678 -0.346462 1.86001 0
M  V30 923 O 86.7108 -1.25104 1.34517 0
M  V30 924 C 86.7728 1.66596 3.18568 0
M  V30 925 C 86.4368 3.15446 3.3067 0
M  V30 926 C 87.4338 4.12636 3.16271 0
M  V30 927 C 85.1188 3.55337 3.55022 0
M  V30 928 C 87.1128 5.47699 3.26044 0
M  V30 929 C 84.7998 4.90542 3.64434 0
M  V30 930 C 85.7978 5.86532 3.49956 0
M  V30 931 O 85.4858 7.19279 3.59017 0
M  V30 932 H 85.2178 0.386616 0.55453 0
M  V30 933 H 87.7718 1.64633 1.22821 0
M  V30 934 H 86.0018 1.06808 3.71657 0
M  V30 935 H 87.6908 1.48232 3.77865 0
M  V30 936 H 88.4568 3.8316 2.97344 0
M  V30 937 H 84.3358 2.8113 3.65359 0
M  V30 938 H 87.8798 6.22603 3.14661 0
M  V30 939 H 83.7768 5.19691 3.82873 0
M  V30 940 H 84.5448 7.27153 3.75754 0
M  V30 941 N 87.2079 -1.17134 1.05439 0
M  V30 942 C 88.4539 -1.87979 0.776872 0
M  V30 943 C 88.8089 -1.7965 -0.688751 0
M  V30 944 O 88.1019 -1.19535 -1.4974 0
M  V30 945 C 88.2959 -3.36833 1.19491 0
M  V30 946 C 88.1249 -3.59653 2.69963 0
M  V30 947 C 86.8949 -3.76234 3.37307 0
M  V30 948 C 89.0929 -3.59091 3.68182 0
M  V30 949 N 87.0749 -3.86922 4.76618 0
M  V30 950 C 88.4459 -3.75659 4.93235 0
M  V30 951 C 90.5009 -3.42255 3.61616 0
M  V30 952 C 89.2039 -3.77133 6.12506 0
M  V30 953 C 91.2299 -3.45018 4.8033 0
M  V30 954 C 90.5919 -3.62096 6.04207 0
M  V30 955 H 86.6909 -0.705876 0.336546 0
M  V30 956 H 89.2749 -1.40602 1.34682 0
M  V30 957 H 87.4459 -3.82873 0.652884 0
M  V30 958 H 89.1779 -3.95305 0.866966 0
M  V30 959 H 85.9329 -3.76193 2.87708 0
M  V30 960 H 86.3569 -3.96055 5.49062 0
M  V30 961 H 90.9989 -3.27986 2.66805 0
M  V30 962 H 88.7169 -3.90186 7.07659 0
M  V30 963 H 92.3029 -3.33246 4.76905 0
M  V30 964 H 91.1829 -3.64142 6.94529 0
M  V30 965 N 88.686 -0.835752 -1.33615 0
M  V30 966 C 89.933 -0.429959 -1.97883 0
M  V30 967 C 90.261 1.01006 -1.66217 0
M  V30 968 O 89.516 1.72047 -0.93265 0
M  V30 969 C 89.815 -0.593925 -3.52431 0
M  V30 970 C 89.481 -2.00158 -4.04039 0
M  V30 971 C 88.143 -2.38662 -4.17844 0
M  V30 972 C 90.495 -2.92117 -4.31644 0
M  V30 973 C 87.823 -3.68435 -4.56588 0
M  V30 974 C 90.175 -4.21368 -4.71838 0
M  V30 975 C 88.839 -4.59833 -4.83849 0
M  V30 976 H 88.109 -0.157333 -0.724104 0
M  V30 977 H 90.756 -1.06217 -1.59343 0
M  V30 978 H 89.061 0.121619 -3.91611 0
M  V30 979 H 90.758 -0.260282 -4.00154 0
M  V30 980 H 87.348 -1.69252 -3.93766 0
M  V30 981 H 91.532 -2.63608 -4.20505 0
M  V30 982 H 86.788 -3.98046 -4.64079 0
M  V30 983 H 90.962 -4.92703 -4.92155 0
M  V30 984 H 88.589 -5.60438 -5.13627 0
M  V30 985 N 90.1641 1.46063 -0.591896 0
M  V30 986 C 91.5801 1.57561 -0.254288 0
M  V30 987 C 91.7801 1.58565 1.24336 0
M  V30 988 O 90.8361 1.50753 2.02558 0
M  V30 989 C 92.1491 2.86549 -0.911611 0
M  V30 990 C 93.6971 3.00197 -0.886059 0
M  V30 991 C 94.1721 4.31933 -1.5231 0
M  V30 992 N 95.6631 4.38654 -1.48786 0
M  V30 993 C 96.3981 5.39222 -1.95006 0
M  V30 994 N 95.8941 6.46414 -2.49241 0
M  V30 995 N 97.6871 5.3048 -1.85868 0
M  V30 996 H 89.8381 1.43655 -1.56451 0
M  V30 997 H 92.1011 0.68583 -0.654478 0
M  V30 998 H 91.8071 2.91651 -1.96551 0
M  V30 999 H 91.6811 3.74794 -0.425368 0
M  V30 1000 H 94.0681 2.9467 0.159246 0
M  V30 1001 H 94.1491 2.13403 -1.41041 0
M  V30 1002 H 93.7931 4.38217 -2.56765 0
M  V30 1003 H 93.7231 5.17516 -0.973891 0
M  V30 1004 H 96.2141 3.61793 -1.09151 0
M  V30 1005 H 96.5271 7.19376 -2.82344 0
M  V30 1006 H 94.8721 6.47208 -2.53272 0
M  V30 1007 H 98.0631 4.45643 -1.43248 0
M  V30 1008 H 98.2361 6.08711 -2.22204 0
M  V30 1009 N 91.6422 0.330177 1.54103 0
M  V30 1010 C 92.5522 -0.541534 2.28264 0
M  V30 1011 C 93.5682 -1.12351 1.32866 0
M  V30 1012 O 94.7442 -1.14206 1.65888 0
M  V30 1013 C 91.8092 -1.68322 3.03098 0
M  V30 1014 C 90.8702 -1.13238 4.14096 0
M  V30 1015 C 90.1032 -2.21966 4.85352 0
M  V30 1016 O 90.3262 -3.42437 4.56172 0
M  V30 1017 O 89.2602 -1.87013 5.7211 0
M  V30 1018 H 93.0862 0.060938 3.03639 0
M  V30 1019 H 90.6712 0.09565 1.49093 0
M  V30 1020 H 92.5532 -2.34777 3.49939 0
M  V30 1021 H 91.2282 -2.27176 2.30593 0
M  V30 1022 H 90.1352 -0.432736 3.71589 0
M  V30 1023 H 91.4682 -0.588898 4.88664 0
M  V30 1024 N 93.1203 -1.57491 0.0584922 0
M  V30 1025 C 94.3683 -1.92597 -0.612436 0
M  V30 1026 C 94.6893 -0.938162 -1.70949 0
M  V30 1027 O 93.9593 0.0158301 -1.95894 0
M  V30 1028 H 92.5393 -0.710964 -0.229214 0
M  V30 1029 H 95.2013 -1.94571 0.113218 0
M  V30 1030 H 94.2973 -2.94038 -1.04633 0
M  V30 1031 N 94.5984 0.214957 -1.56127 0
M  V30 1032 C 95.5614 1.24997 -1.92116 0
M  V30 1033 C 96.5614 1.39467 -0.800344 0
M  V30 1034 O 97.7514 1.37619 -1.06802 0
M  V30 1035 C 94.8834 2.62271 -2.17777 0
M  V30 1036 H 96.0764 0.942875 -2.84693 0
M  V30 1037 H 93.6294 0.455654 -1.49511 0
M  V30 1038 H 94.3644 2.98068 -1.27773 0
M  V30 1039 H 94.1494 2.53143 -2.99434 0
M  V30 1040 H 95.6394 3.36946 -2.46693 0
M  V30 1041 N 96.0765 1.50051 0.48192 0
M  V30 1042 C 97.3255 1.59741 1.23149 0
M  V30 1043 C 97.6385 0.298163 1.93314 0
M  V30 1044 O 98.8445 0.273835 2.70116 0
M  V30 1045 C 97.3005 2.81926 2.23708 0
M  V30 1046 C 96.9085 4.18685 1.59396 0
M  V30 1047 C 98.6525 3.00956 2.99375 0
M  V30 1048 C 96.5595 5.3207 2.58178 0
M  V30 1049 H 95.4895 0.594838 0.46334 0
M  V30 1050 H 98.1405 1.76467 0.503169 0
M  V30 1051 H 96.5225 2.58736 2.99786 0
M  V30 1052 H 97.6965 4.52088 0.891811 0
M  V30 1053 H 96.0115 4.05171 0.960503 0
M  V30 1054 H 98.6085 3.82836 3.73283 0
M  V30 1055 H 98.9515 2.12258 3.58123 0
M  V30 1056 H 99.4845 3.24277 2.30411 0
M  V30 1057 H 96.2235 6.22888 2.04184 0
M  V30 1058 H 95.7435 5.03098 3.26577 0
M  V30 1059 H 97.4225 5.62196 3.20225 0
M  V30 1060 N 97.5546 -0.734337 1.39446 0
M  V30 1061 C 98.8036 -1.48937 1.36017 0
M  V30 1062 C 99.1166 -1.95557 -0.0409005 0
M  V30 1063 O 100.323 -2.70779 -0.19778 0
M  V30 1064 C 98.7786 -2.69125 2.38955 0
M  V30 1065 C 98.3866 -2.29452 3.8478 0
M  V30 1066 C 100.131 -3.46944 2.44603 0
M  V30 1067 C 98.0376 -3.46366 4.79358 0
M  V30 1068 H 96.9676 -0.559296 0.505672 0
M  V30 1069 H 99.6186 -0.800983 1.65095 0
M  V30 1070 H 98.0006 -3.40041 2.02948 0
M  V30 1071 H 99.1746 -1.66077 4.29831 0
M  V30 1072 H 97.4896 -1.64723 3.82433 0
M  V30 1073 H 100.087 -4.33907 3.12456 0
M  V30 1074 H 100.43 -3.89454 1.47076 0
M  V30 1075 H 100.963 -2.83056 2.79507 0
M  V30 1076 H 97.7016 -3.08905 5.78151 0
M  V30 1077 H 97.2216 -4.08719 4.38986 0
M  V30 1078 H 98.9006 -4.12691 4.98292 0
M  V30 1079 N 99.0327 -1.24633 -0.964593 0
M  V30 1080 C 100.258 -1.11596 -1.74818 0
M  V30 1081 C 100.683 0.32723 -1.85232 0
M  V30 1082 O 100.041 1.23695 -1.32549 0
M  V30 1083 C 100.089 -1.76397 -3.1451 0
M  V30 1084 O 99.1927 -1.03685 -3.99153 0
M  V30 1085 H 98.5337 -0.390196 -0.537255 0
M  V30 1086 H 101.064 -1.65002 -1.20977 0
M  V30 1087 H 101.074 -1.8228 -3.65018 0
M  V30 1088 H 99.7487 -2.81401 -3.06246 0
M  V30 1089 H 98.3257 -1.05611 -3.57632 0
M  V30 1090 N 100.511 1.16574 -1.06058 0
M  V30 1091 C 101.927 1.3904 -0.783585 0
M  V30 1092 C 102.127 1.91784 0.618145 0
M  V30 1093 O 101.183 2.11511 1.37911 0
M  V30 1094 C 102.496 2.37329 -1.84649 0
M  V30 1095 C 104.044 2.51018 -1.86973 0
M  V30 1096 C 104.519 3.52588 -2.92311 0
M  V30 1097 N 106.01 3.60113 -2.91329 0
M  V30 1098 C 106.745 4.38486 -3.69482 0
M  V30 1099 N 106.241 5.20302 -4.57447 0
M  V30 1100 N 108.034 4.33446 -3.57885 0
M  V30 1101 H 100.185 0.806725 -1.96483 0
M  V30 1102 H 102.448 0.417117 -0.851303 0
M  V30 1103 H 102.154 2.05663 -2.85299 0
M  V30 1104 H 102.028 3.36946 -1.6955 0
M  V30 1105 H 104.415 2.81989 -0.869827 0
M  V30 1106 H 104.496 1.51445 -2.0615 0
M  V30 1107 H 104.14 3.22354 -3.92492 0
M  V30 1108 H 104.07 4.51886 -2.70383 0
M  V30 1109 H 106.561 3.01707 -2.27555 0
M  V30 1110 H 106.874 5.77311 -5.13743 0
M  V30 1111 H 105.219 5.19653 -4.61503 0
M  V30 1112 H 108.41 3.68586 -2.88551 0
M  V30 1113 H 108.583 4.94279 -4.19037 0
M  V30 1114 N 101.989 0.842826 1.3317 0
M  V30 1115 C 103.266 0.362216 1.92217 0
M  V30 1116 C 103.646 -1.15289 1.76838 0
M  V30 1117 O 102.994 -1.96914 1.15919 0
M  V30 1118 C 103.204 0.813495 3.39387 0
M  V30 1119 C 104.552 0.823804 4.16532 0
M  V30 1120 O 105.576 0.757358 3.48055 0
M  V30 1121 O 104.435 0.915193 5.38782 0
M  V30 1122 H 101.529 0.103317 0.820521 0
M  V30 1123 H 104.075 0.928942 1.42017 0
M  V30 1124 H 102.847 1.85624 3.4447 0
M  V30 1125 H 102.47 0.223561 3.96971 0
M  V30 1126 N 103.467 -1.45747 0.599634 0
M  V30 1127 C 104.692 -2.07178 0.0960198 0
M  V30 1128 C 105.117 -1.44268 -1.207 0
M  V30 1129 O 104.475 -0.532503 -1.73303 0
M  V30 1130 C 104.523 -3.60579 -0.0385348 0
M  V30 1131 O 103.627 -3.97713 -1.0908 0
M  V30 1132 H 102.968 -0.660251 0.0704593 0
M  V30 1133 H 105.498 -1.87124 0.827385 0
M  V30 1134 H 105.508 -4.07298 -0.239304 0
M  V30 1135 H 104.183 -4.05756 0.912947 0
M  V30 1136 H 102.76 -3.62678 -0.867135 0
M  V30 1137 N 104.945 -0.338344 -1.53925 0
M  V30 1138 C 106.356 0.146651 -1.86123 0
M  V30 1139 C 106.707 1.5042 -1.2597 0
M  V30 1140 O 105.832 2.08723 -0.571294 0
M  V30 1141 C 106.427 0.272879 -3.37699 0
M  V30 1142 C 104.986 0.702103 -3.69794 0
M  V30 1143 C 104.133 -0.167304 -2.76795 0
M  V30 1144 H 107.084 -0.558123 -1.48562 0
M  V30 1145 H 107.105 1.10128 -3.64214 0
M  V30 1146 H 106.617 -0.715307 -3.81451 0
M  V30 1147 H 104.718 1.6995 -3.31584 0
M  V30 1148 H 104.831 0.495604 -4.7653 0
M  V30 1149 H 103.195 0.359527 -2.5215 0
M  V30 1150 H 103.978 -1.15253 -3.23375 0
M  V30 1151 N 106.423 1.57458 -0.0668435 0
M  V30 1152 C 107.669 1.93587 0.6043 0
M  V30 1153 C 108.002 0.946722 1.69561 0
M  V30 1154 O 107.277 -0.0248516 1.94484 0
M  V30 1155 C 107.56 3.40014 1.18585 0
M  V30 1156 C 107.413 4.49685 0.101529 0
M  V30 1157 C 108.732 3.87154 2.09284 0
M  V30 1158 H 105.851 0.703958 0.218202 0
M  V30 1159 H 108.493 1.89542 -0.131804 0
M  V30 1160 H 106.643 3.43592 1.81319 0
M  V30 1161 H 108.315 4.5823 -0.531279 0
M  V30 1162 H 106.558 4.30059 -0.568487 0
M  V30 1163 H 107.229 5.49266 0.54874 0
M  V30 1164 H 109.705 3.85551 1.56491 0
M  V30 1165 H 108.581 4.90231 2.46911 0
M  V30 1166 H 108.842 3.2481 2.99918 0
M  V30 1167 N 107.901 -0.206675 1.56239 0
M  V30 1168 C 108.864 -1.23976 1.92776 0
M  V30 1169 C 109.864 -1.39041 0.807729 0
M  V30 1170 O 111.054 -1.37051 1.0753 0
M  V30 1171 C 108.186 -2.61112 2.19165 0
M  V30 1172 H 109.379 -0.927764 2.85189 0
M  V30 1173 H 106.932 -0.447718 1.4975 0
M  V30 1174 H 107.667 -2.97386 1.29352 0
M  V30 1175 H 107.452 -2.51552 3.00772 0
M  V30 1176 H 108.942 -3.35633 2.48476 0
M  V30 1177 N 109.379 -1.50304 -0.473955 0
M  V30 1178 C 110.607 -1.64902 -1.24959 0
M  V30 1179 C 111.022 -0.331198 -1.85872 0
M  V30 1180 O 110.379 0.68652 -1.69095 0
M  V30 1181 C 110.43 -2.73803 -2.36038 0
M  V30 1182 O 110.151 -4.00477 -1.77624 0
M  V30 1183 C 111.652 -2.99349 -3.26964 0
M  V30 1184 H 108.872 -0.554383 -0.378022 0
M  V30 1185 H 111.416 -1.9651 -0.566054 0
M  V30 1186 H 109.571 -2.44898 -3.00173 0
M  V30 1187 H 109.985 -4.60678 -2.5075 0
M  V30 1188 H 111.459 -3.79217 -4.01121 0
M  V30 1189 H 111.936 -2.10307 -3.85574 0
M  V30 1190 H 112.542 -3.29774 -2.68569 0
M  V30 1191 N 110.857 0.726932 -1.39834 0
M  V30 1192 C 111.805 1.86235 -1.39353 0
M  V30 1193 C 112.799 1.67144 -0.275555 0
M  V30 1194 O 114.005 1.74387 -0.44601 0
M  V30 1195 H 110.38 0.613174 -0.43534 0
M  V30 1196 H 112.351 1.83756 -2.35109 0
M  V30 1197 C 111.1 3.23995 -1.26185 0
M  V30 1198 H 110.423 3.39285 -2.11484 0
M  V30 1199 H 111.863 4.03609 -1.29907 0
M  V30 1200 C 110.322 3.36888 0.0290018 0
M  V30 1201 O 110.852 3.89152 0.99619 0
M  V30 1202 N 109.058 2.90446 0.0947437 0
M  V30 1203 H 108.605 2.48102 -0.693035 0
M  V30 1204 H 108.563 2.99451 0.957932 0
M  V30 1205 N 112.336 1.25143 0.95797 0
M  V30 1206 C 113.283 1.05235 2.05412 0
M  V30 1207 C 114.253 -0.0374561 1.66058 0
M  V30 1208 O 115.438 0.119073 1.90428 0
M  V30 1209 C 112.578 0.673589 3.38462 0
M  V30 1210 C 111.691 1.8379 3.90954 0
M  V30 1211 C 110.826 1.40381 5.12315 0
M  V30 1212 C 109.865 2.53746 5.57027 0
M  V30 1213 N 109.002 2.11136 6.69601 0
M  V30 1214 H 113.842 1.99048 2.21774 0
M  V30 1215 H 111.379 0.991277 1.08683 0
M  V30 1216 H 113.337 0.434964 4.14926 0
M  V30 1217 H 111.967 -0.227554 3.21997 0
M  V30 1218 H 111.019 2.18992 3.11041 0
M  V30 1219 H 112.331 2.68937 4.20089 0
M  V30 1220 H 111.485 1.12464 5.96185 0
M  V30 1221 H 110.224 0.523015 4.84887 0
M  V30 1222 H 109.229 2.82412 4.71724 0
M  V30 1223 H 110.454 3.42398 5.86464 0
M  V30 1224 H 108.4 1.25468 6.4389 0
M  V30 1225 H 108.317 2.89832 6.98236 0
M  V30 1226 H 109.585 1.86385 7.56889 0
M  V30 1227 N 113.814 -1.1601 1.06675 0
M  V30 1228 C 114.744 -2.22688 0.702307 0
M  V30 1229 C 115.725 -1.67306 -0.307032 0
M  V30 1230 O 116.91 -1.93352 -0.181305 0
M  V30 1231 C 114.04 -3.47178 0.092038 0
M  V30 1232 C 112.994 -4.15477 1.02777 0
M  V30 1233 C 112.32 -5.33963 0.28061 0
M  V30 1234 C 113.62 -4.66019 2.35846 0
M  V30 1235 H 115.314 -2.53429 1.59419 0
M  V30 1236 H 112.86 -1.21813 0.767961 0
M  V30 1237 H 114.813 -4.21037 -0.174814 0
M  V30 1238 H 113.537 -3.15749 -0.834877 0
M  V30 1239 H 112.196 -3.43549 1.27944 0
M  V30 1240 H 111.844 -4.98788 -0.649545 0
M  V30 1241 H 111.544 -5.806 0.904258 0
M  V30 1242 H 113.068 -6.10596 0.021396 0
M  V30 1243 H 114.482 -5.3144 2.15045 0
M  V30 1244 H 112.879 -5.23293 2.93743 0
M  V30 1245 H 113.949 -3.82023 2.98641 0
M  V30 1246 N 115.292 -0.849877 -1.32721 0
M  V30 1247 C 116.569 -0.372405 -1.92022 0
M  V30 1248 C 116.949 1.1435 -1.77447 0
M  V30 1249 O 116.297 1.96296 -1.16962 0
M  V30 1250 C 116.507 -0.831482 -3.3895 0
M  V30 1251 C 117.855 -0.845882 -4.16089 0
M  V30 1252 O 118.879 -0.775806 -3.47649 0
M  V30 1253 O 117.738 -0.943753 -5.38289 0
M  V30 1254 H 114.832 -0.107667 -0.819961 0
M  V30 1255 H 117.378 -0.93646 -1.41522 0
M  V30 1256 H 116.15 -1.87448 -3.4348 0
M  V30 1257 H 115.773 -0.24461 -3.96847 0
M  V30 1258 N 116.77 1.45427 -0.607355 0
M  V30 1259 C 117.702 2.2871 0.149752 0
M  V30 1260 C 118.715 1.39937 0.831958 0
M  V30 1261 O 119.904 1.64313 0.697385 0
M  V30 1262 C 117.004 3.15673 1.23304 0
M  V30 1263 C 116.177 4.32722 0.637996 0
M  V30 1264 C 115.236 5.00895 1.61215 0
M  V30 1265 O 114.262 5.57697 1.13854 0
M  V30 1266 N 115.464 5.00159 2.94655 0
M  V30 1267 H 118.229 2.94328 -0.564882 0
M  V30 1268 H 115.79 1.55612 -0.446823 0
M  V30 1269 H 117.782 3.58144 1.88454 0
M  V30 1270 H 116.352 2.51965 1.8502 0
M  V30 1271 H 115.572 3.93734 -0.191572 0
M  V30 1272 H 116.86 5.08321 0.220665 0
M  V30 1273 H 116.258 4.553 3.35735 0
M  V30 1274 H 114.815 5.46495 3.55228 0
M  V30 1275 N 118.248 0.346503 1.53744 0
M  V30 1276 C 119.158 -0.517293 2.28826 0
M  V30 1277 C 120.174 -1.10935 1.3405 0
M  V30 1278 O 121.35 -1.1244 1.6709 0
M  V30 1279 C 118.415 -1.65098 3.04866 0
M  V30 1280 C 117.476 -1.0884 4.15274 0
M  V30 1281 C 116.709 -2.16806 4.87679 0
M  V30 1282 O 116.932 -3.3758 4.59778 0
M  V30 1283 O 115.866 -1.80934 5.74061 0
M  V30 1284 H 119.692 0.0931396 3.03557 0
M  V30 1285 H 117.277 0.111458 1.48984 0
M  V30 1286 H 119.159 -2.31053 3.5241 0
M  V30 1287 H 117.834 -2.24717 2.32989 0
M  V30 1288 H 116.741 -0.3933 3.72027 0
M  V30 1289 H 118.074 -0.537036 4.89261 0
M  V30 1290 N 119.726 -1.57421 0.075193 0
M  V30 1291 C 120.972 -1.93905 -0.594025 0
M  V30 1292 C 121.305 -0.955701 -1.69056 0
M  V30 1293 O 120.58 0.0145373 -1.94495 0
M  V30 1294 C 120.863 -3.40638 -1.1678 0
M  V30 1295 C 120.716 -4.49733 -0.0776792 0
M  V30 1296 C 122.035 -3.88259 -2.07228 0
M  V30 1297 H 119.154 -0.705105 -0.214466 0
M  V30 1298 H 121.796 -1.8947 0.141854 0
M  V30 1299 H 119.946 -3.44549 -1.79494 0
M  V30 1300 H 121.618 -4.57942 0.555573 0
M  V30 1301 H 119.861 -4.29751 0.591286 0
M  V30 1302 H 120.532 -5.49549 -0.519603 0
M  V30 1303 H 123.008 -3.86376 -1.54445 0
M  V30 1304 H 121.884 -4.91533 -2.44308 0
M  V30 1305 H 122.145 -3.26396 -2.98191 0
M  V30 1306 N 121.204 0.198386 -1.56346 0
M  V30 1307 C 122.136 1.26987 -1.90806 0
M  V30 1308 C 123.149 1.41877 -0.798419 0
M  V30 1309 O 124.338 1.42362 -1.07682 0
M  V30 1310 C 121.438 2.64246 -2.12196 0
M  V30 1311 C 120.611 2.71007 -3.43328 0
M  V30 1312 C 119.67 3.89439 -3.5387 0
M  V30 1313 O 118.696 3.76695 -4.26719 0
M  V30 1314 N 119.898 5.04752 -2.86715 0
M  V30 1315 H 122.663 0.977433 -2.83313 0
M  V30 1316 H 120.224 0.388322 -1.57174 0
M  V30 1317 H 122.216 3.41896 -2.1654 0
M  V30 1318 H 120.786 2.85992 -1.26204 0
M  V30 1319 H 120.006 1.79657 -3.50881 0
M  V30 1320 H 121.294 2.72512 -4.29668 0
M  V30 1321 H 120.692 5.18004 -2.2735 0
M  V30 1322 H 119.249 5.8036 -2.96691 0
M  V30 1323 N 122.682 1.50554 0.465978 0
M  V30 1324 C 123.592 1.72585 1.58907 0
M  V30 1325 C 124.608 0.60911 1.6299 0
M  V30 1326 O 125.784 0.88804 1.80765 0
M  V30 1327 C 122.849 1.81995 2.95091 0
M  V30 1328 C 121.91 3.05751 3.01355 0
M  V30 1329 C 121.143 3.14702 4.31043 0
M  V30 1330 O 121.366 2.30313 5.21835 0
M  V30 1331 O 120.3 4.07468 4.43005 0
M  V30 1332 H 124.126 2.67799 1.43239 0
M  V30 1333 H 121.711 1.34711 0.646013 0
M  V30 1334 H 123.593 1.90335 3.75966 0
M  V30 1335 H 122.268 0.899659 3.10947 0
M  V30 1336 H 121.175 3.02908 2.19539 0
M  V30 1337 H 122.508 3.97375 2.90437 0
M  V30 1338 N 124.16 -0.719506 1.40217 0
M  V30 1339 C 125.07 -1.86378 1.42479 0
M  V30 1340 C 126.086 -1.71073 0.317834 0
M  V30 1341 O 127.262 -1.93406 0.561794 0
M  V30 1342 C 124.327 -3.22136 1.28178 0
M  V30 1343 C 123.388 -3.49723 2.48982 0
M  V30 1344 C 122.621 -4.79004 2.35353 0
M  V30 1345 O 122.844 -5.53821 1.36524 0
M  V30 1346 O 121.778 -5.06839 3.2465 0
M  V30 1347 H 125.604 -1.87425 2.38968 0
M  V30 1348 H 123.189 -0.869405 1.21498 0
M  V30 1349 H 125.071 -4.03234 1.22395 0
M  V30 1350 H 123.746 -3.21825 0.347934 0
M  V30 1351 H 122.653 -2.6865 2.60342 0
M  V30 1352 H 123.986 -3.54828 3.41113 0
M  V30 1353 N 125.638 -1.25649 -0.95132 0
M  V30 1354 C 126.866 -1.13343 -1.73092 0
M  V30 1355 C 127.281 0.312434 -1.86197 0
M  V30 1356 O 126.638 1.21465 -1.36207 0
M  V30 1357 C 126.689 -1.78602 -3.14299 0
M  V30 1358 O 126.41 -3.17537 -3.01831 0
M  V30 1359 C 127.911 -1.72119 -4.08522 0
M  V30 1360 H 125.131 -0.395181 -0.542285 0
M  V30 1361 H 127.675 -1.66076 -1.19328 0
M  V30 1362 H 125.83 -1.29832 -3.64996 0
M  V30 1363 H 126.244 -3.49676 -3.90931 0
M  V30 1364 H 127.718 -2.22435 -5.052 0
M  V30 1365 H 128.195 -0.685635 -4.33815 0
M  V30 1366 H 128.801 -2.20393 -3.63741 0
M  V30 1367 N 127.117 1.15442 -1.07289 0
M  V30 1368 C 128.049 2.19773 -0.650585 0
M  V30 1369 C 129.062 1.60076 0.296572 0
M  V30 1370 O 130.251 1.78293 0.0859905 0
M  V30 1371 C 127.351 3.38838 0.0650398 0
M  V30 1372 C 126.524 4.2808 -0.898141 0
M  V30 1373 C 125.583 5.2574 -0.219926 0
M  V30 1374 O 124.609 5.62654 -0.860773 0
M  V30 1375 N 125.811 5.71205 1.03466 0
M  V30 1376 H 128.576 2.56622 -1.54808 0
M  V30 1377 H 126.137 1.30551 -0.957494 0
M  V30 1378 H 128.129 4.01222 0.529415 0
M  V30 1379 H 126.699 3.00409 0.864466 0
M  V30 1380 H 125.919 3.62804 -1.54165 0
M  V30 1381 H 127.207 4.84577 -1.5512 0
M  V30 1382 H 126.605 5.43325 1.57526 0
M  V30 1383 H 125.162 6.35633 1.44272 0
M  V30 1384 N 128.595 0.856903 1.32268 0
M  V30 1385 C 129.843 0.460474 1.96784 0
M  V30 1386 C 130.164 -0.987701 1.68135 0
M  V30 1387 O 129.434 -1.69058 0.989765 0
M  V30 1388 H 128.014 0.167289 0.728027 0
M  V30 1389 H 130.676 1.09383 1.61312 0
M  V30 1390 H 129.772 0.60739 3.06133 0
M  V30 1391 N 130.073 -1.45103 0.615059 0
M  V30 1392 C 131.489 -1.57137 0.279322 0
M  V30 1393 C 131.689 -1.60523 -1.21797 0
M  V30 1394 O 130.745 -1.53956 -2.00134 0
M  V30 1395 C 132.058 -2.85062 0.957083 0
M  V30 1396 C 133.606 -2.98749 0.933706 0
M  V30 1397 C 134.081 -4.29455 1.59162 0
M  V30 1398 N 135.572 -4.36231 1.55746 0
M  V30 1399 C 136.307 -5.36051 2.0356 0
M  V30 1400 N 135.803 -6.42367 2.59494 0
M  V30 1401 N 137.596 -5.27456 1.94284 0
M  V30 1402 H 129.747 -1.41148 1.58717 0
M  V30 1403 H 132.01 -0.675331 0.665306 0
M  V30 1404 H 131.716 -2.88488 2.01166 0
M  V30 1405 H 131.59 -3.7407 0.48494 0
M  V30 1406 H 133.977 -2.94886 -0.112347 0
M  V30 1407 H 134.058 -2.11132 1.44419 0
M  V30 1408 H 133.702 -4.34077 2.63704 0
M  V30 1409 H 133.632 -5.15901 1.0561 0
M  V30 1410 H 136.123 -3.60011 1.14893 0
M  V30 1411 H 136.436 -7.14793 2.93752 0
M  V30 1412 H 134.781 -6.43097 2.63537 0
M  V30 1413 H 137.972 -4.43308 1.5032 0
M  V30 1414 H 138.145 -6.05099 2.3186 0
M  V30 1415 N 131.551 -0.354651 -1.53558 0
M  V30 1416 C 132.798 0.238443 -2.01091 0
M  V30 1417 C 133.126 1.49663 -1.24222 0
M  V30 1418 O 132.381 1.93049 -0.321003 0
M  V30 1419 C 132.68 0.587121 -3.52545 0
M  V30 1420 C 132.346 -0.575472 -4.47213 0
M  V30 1421 C 131.008 -0.894497 -4.72813 0
M  V30 1422 C 133.36 -1.35489 -5.03281 0
M  V30 1423 C 130.688 -1.99511 -5.51736 0
M  V30 1424 C 133.04 -2.44583 -5.83405 0
M  V30 1425 C 131.704 -2.77033 -6.07296 0
M  V30 1426 H 130.974 0.0872526 -0.735845 0
M  V30 1427 H 133.621 -0.484859 -1.8526 0
M  V30 1428 H 131.926 1.39129 -3.66265 0
M  V30 1429 H 133.623 1.05809 -3.86789 0
M  V30 1430 H 130.213 -0.316774 -4.27428 0
M  V30 1431 H 134.397 -1.12167 -4.83459 0
M  V30 1432 H 129.653 -2.25063 -5.68469 0
M  V30 1433 H 133.827 -3.05401 -6.25862 0
M  V30 1434 H 131.454 -3.6244 -6.68237 0
M  V30 1435 N 133.029 1.57378 -0.0835403 0
M  V30 1436 C 134.445 1.57246 0.273109 0
M  V30 1437 C 134.645 1.09385 1.69225 0
M  V30 1438 O 133.701 0.765051 2.40631 0
M  V30 1439 C 135.014 3.00614 0.0720628 0
M  V30 1440 C 136.562 3.12684 0.1407 0
M  V30 1441 C 137.037 4.57989 -0.0322094 0
M  V30 1442 N 138.528 4.63194 0.0230085 0
M  V30 1443 C 139.263 5.73335 -0.0861941 0
M  V30 1444 N 138.759 6.9235 -0.24958 0
M  V30 1445 N 140.552 5.62093 -0.0282886 0
M  V30 1446 H 132.703 1.86801 -1.0109 0
M  V30 1447 H 134.966 0.861687 -0.395222 0
M  V30 1448 H 134.672 3.39786 -0.907662 0
M  V30 1449 H 134.546 3.68193 0.81936 0
M  V30 1450 H 136.933 2.73391 1.11092 0
M  V30 1451 H 137.014 2.47719 -0.637896 0
M  V30 1452 H 136.658 4.97973 -0.999247 0
M  V30 1453 H 136.588 5.21 0.765937 0
M  V30 1454 H 139.079 3.77613 0.14722 0
M  V30 1455 H 139.392 7.72117 -0.324733 0
M  V30 1456 H 137.737 6.94415 -0.285097 0
M  V30 1457 H 140.928 4.67997 0.0981408 0
M  V30 1458 H 141.101 6.47895 -0.116845 0
M  V30 1459 N 134.507 -0.190092 1.56449 0
M  V30 1460 C 135.437 -1.23816 1.97969 0
M  V30 1461 C 136.418 -1.47201 0.852395 0
M  V30 1462 O 137.603 -1.58854 1.1171 0
M  V30 1463 C 134.733 -2.5813 2.3235 0
M  V30 1464 C 133.687 -2.49348 3.47864 0
M  V30 1465 C 133.013 -3.8798 3.67934 0
M  V30 1466 C 134.313 -2.01424 4.81898 0
M  V30 1467 H 136.007 -0.89311 2.85769 0
M  V30 1468 H 133.553 -0.428177 1.37487 0
M  V30 1469 H 135.506 -3.31637 2.59991 0
M  V30 1470 H 134.23 -2.94386 1.41438 0
M  V30 1471 H 132.889 -1.78297 3.20321 0
M  V30 1472 H 132.537 -4.21597 2.74344 0
M  V30 1473 H 132.237 -3.82978 4.45648 0
M  V30 1474 H 133.761 -4.63101 3.97957 0
M  V30 1475 H 135.175 -2.64693 5.08538 0
M  V30 1476 H 133.572 -2.07413 5.63116 0
M  V30 1477 H 134.642 -0.967677 4.75146 0
M  V30 1478 N 135.985 -1.50799 -0.457987 0
M  V30 1479 C 136.915 -1.73553 -1.5621 0
M  V30 1480 C 137.896 -0.584774 -1.59732 0
M  V30 1481 O 139.081 -0.825314 -1.7579 0
M  V30 1482 C 136.211 -1.84169 -2.94447 0
M  V30 1483 C 135.165 -2.99461 -3.0579 0
M  V30 1484 C 134.491 -2.95235 -4.45803 0
M  V30 1485 C 135.791 -4.39766 -2.81786 0
M  V30 1486 H 137.485 -2.66 -1.37421 0
M  V30 1487 H 135.031 -1.28002 -0.659662 0
M  V30 1488 H 136.984 -1.98672 -3.71628 0
M  V30 1489 H 135.708 -0.883545 -3.14422 0
M  V30 1490 H 134.367 -2.8463 -2.31044 0
M  V30 1491 H 134.015 -1.97239 -4.62715 0
M  V30 1492 H 133.715 -3.72642 -4.54326 0
M  V30 1493 H 135.239 -3.11803 -5.24987 0
M  V30 1494 H 136.653 -4.55054 -3.4871 0
M  V30 1495 H 135.05 -5.18722 -3.0174 0
M  V30 1496 H 136.12 -4.51229 -1.7754 0
M  V30 1497 N 137.463 0.71206 -1.40597 0
M  V30 1498 C 138.711 1.46907 -1.38791 0
M  V30 1499 C 139.032 1.94998 0.00780391 0
M  V30 1500 O 138.302 1.70587 0.963174 0
M  V30 1501 H 136.882 0.545043 -0.51082 0
M  V30 1502 H 139.544 0.843882 -1.75683 0
M  V30 1503 H 138.64 2.34021 -2.06496 0
M  V30 1504 N 138.941 1.26152 0.944643 0
M  V30 1505 C 140.218 1.02247 1.66748 0
M  V30 1506 C 140.598 -0.448202 2.06287 0
M  V30 1507 O 139.946 -1.42779 1.78399 0
M  V30 1508 C 140.156 1.96788 2.88228 0
M  V30 1509 C 141.504 2.25201 3.59958 0
M  V30 1510 O 142.528 1.94626 2.98327 0
M  V30 1511 O 141.387 2.77242 4.70956 0
M  V30 1512 H 138.481 0.388517 0.730057 0
M  V30 1513 H 141.027 1.37348 0.99668 0
M  V30 1514 H 139.799 2.96047 2.55875 0
M  V30 1515 H 139.422 1.62145 3.63035 0
M  V30 1516 N 140.419 -1.14872 1.07899 0
M  V30 1517 C 141.83 -1.67367 0.827363 0
M  V30 1518 C 142.181 -1.85236 -0.646693 0
M  V30 1519 O 141.306 -1.55974 -1.50004 0
M  V30 1520 C 141.901 -3.04016 1.49532 0
M  V30 1521 C 140.46 -3.53566 1.29106 0
M  V30 1522 C 139.607 -2.29161 1.56143 0
M  V30 1523 H 142.558 -0.990083 1.24028 0
M  V30 1524 H 142.579 -3.69219 0.919643 0
M  V30 1525 H 142.091 -2.90978 2.56814 0
M  V30 1526 H 140.192 -3.71835 0.238713 0
M  V30 1527 H 140.305 -4.34661 2.01511 0
M  V30 1528 H 138.669 -2.34978 0.982717 0
M  V30 1529 H 139.452 -2.18705 2.64619 0
M  V30 1530 N 141.898 -0.863906 -1.31812 0
M  V30 1531 C 143.123 -0.48527 -2.01643 0
M  V30 1532 C 143.548 0.913058 -1.64453 0
M  V30 1533 O 142.906 1.6014 -0.849985 0
M  V30 1534 C 142.954 -0.642625 -3.54828 0
M  V30 1535 O 142.058 0.320659 -4.11151 0
M  V30 1536 H 141.399 -0.193793 -0.635091 0
M  V30 1537 H 143.929 -1.16565 -1.68148 0
M  V30 1538 H 143.939 -0.533628 -4.04495 0
M  V30 1539 H 142.614 -1.66227 -3.81237 0
M  V30 1540 H 141.191 0.167126 -3.72525 0
M  V30 1541 N 143.376 1.44774 -0.622745 0
M  V30 1542 C 144.792 1.56986 -0.287652 0
M  V30 1543 C 144.992 1.61167 1.20944 0
M  V30 1544 O 144.048 1.55015 1.99315 0
M  V30 1545 C 145.361 2.84551 -0.972188 0
M  V30 1546 C 146.909 2.9825 -0.949536 0
M  V30 1547 C 147.384 4.28605 -1.61437 0
M  V30 1548 N 148.875 4.35399 -1.58057 0
M  V30 1549 C 149.61 5.34964 -2.064 0
M  V30 1550 N 149.106 6.40981 -2.62897 0
M  V30 1551 N 150.899 5.26419 -1.97078 0
M  V30 1552 H 143.05 1.40304 -1.59463 0
M  V30 1553 H 145.313 0.671794 -0.668878 0
M  V30 1554 H 145.019 2.87417 -2.02693 0
M  V30 1555 H 144.893 3.73807 -0.504771 0
M  V30 1556 H 147.28 2.94941 0.0967067 0
M  V30 1557 H 147.361 2.10364 -1.45536 0
M  V30 1558 H 147.005 4.32672 -2.66002 0
M  V30 1559 H 146.935 5.15334 -1.08344 0
M  V30 1560 H 149.426 3.59397 -1.16801 0
M  V30 1561 H 149.739 7.13225 -2.97539 0
M  V30 1562 H 148.084 6.4169 -2.66943 0
M  V30 1563 H 151.275 4.42504 -1.52669 0
M  V30 1564 H 151.448 6.03861 -2.35066 0
M  V30 1565 N 144.854 0.36279 1.53368 0
M  V30 1566 C 145.802 -0.500155 2.27159 0
M  V30 1567 C 146.796 -1.08575 1.3003 0
M  V30 1568 O 148.002 -1.02927 1.47668 0
M  V30 1569 H 144.377 -0.180009 0.730138 0
M  V30 1570 H 146.348 0.14401 2.98052 0
M  V30 1571 C 145.097 -1.62937 3.07159 0
M  V30 1572 H 144.42 -1.18806 3.8174 0
M  V30 1573 H 145.86 -2.20795 3.61975 0
M  V30 1574 C 144.319 -2.57007 2.17829 0
M  V30 1575 O 144.849 -3.59752 1.78721 0
M  V30 1576 N 143.055 -2.26131 1.82518 0
M  V30 1577 H 142.602 -1.42616 2.14519 0
M  V30 1578 H 142.56 -2.89327 1.23034 0
M  V30 1579 N 146.332 -1.57332 0.0918853 0
M  V30 1580 C 147.28 -2.15075 -0.885747 0
M  V30 1581 C 148.274 -1.09277 -1.29441 0
M  V30 1582 O 149.48 -1.27627 -1.26931 0
M  V30 1583 H 145.855 -0.687966 -0.303656 0
M  V30 1584 H 147.826 -2.96047 -0.373995 0
M  V30 1585 C 146.575 -2.74325 -2.13638 0
M  V30 1586 H 145.898 -3.55418 -1.8308 0
M  V30 1587 H 147.338 -3.183 -2.80109 0
M  V30 1588 C 145.797 -1.70062 -2.90827 0
M  V30 1589 O 146.327 -1.13763 -3.85254 0
M  V30 1590 N 144.533 -1.40628 -2.54307 0
M  V30 1591 H 144.08 -1.866 -1.7759 0
M  V30 1592 H 144.038 -0.711043 -3.06254 0
M  V30 1593 N 147.81 0.181792 -1.56548 0
M  V30 1594 C 149.05 0.906711 -1.83189 0
M  V30 1595 C 149.414 1.79882 -0.671312 0
M  V30 1596 O 150.615 2.56054 -0.81792 0
M  V30 1597 C 148.886 1.69023 -3.14906 0
M  V30 1598 S 150.445 2.46535 -3.62996 0
M  V30 1599 H 147.263 0.303877 -0.642791 0
M  V30 1600 H 149.865 0.169107 -1.94767 0
M  V30 1601 H 148.569 1.02571 -3.97376 0
M  V30 1602 H 148.1 2.46941 -3.06241 0
M  V30 1603 H 150.115 3.71014 -3.29489 0
M  V30 1604 N 149.288 1.51039 0.449983 0
M  V30 1605 C 150.513 1.6715 1.22783 0
M  V30 1606 C 150.938 0.363081 1.84563 0
M  V30 1607 O 150.296 -0.675433 1.68249 0
M  V30 1608 C 150.344 2.77985 2.29689 0
M  V30 1609 O 149.448 2.40707 3.34864 0
M  V30 1610 H 148.789 0.557746 0.360299 0
M  V30 1611 H 151.319 1.97535 0.533005 0
M  V30 1612 H 151.329 3.01693 2.74673 0
M  V30 1613 H 150.004 3.72935 1.84098 0
M  V30 1614 H 148.581 2.27523 2.95445 0
M  V30 1615 N 150.766 -0.704594 1.40972 0
M  V30 1616 C 151.696 -1.83124 1.44872 0
M  V30 1617 C 152.677 -1.67281 0.30838 0
M  V30 1618 O 153.862 -1.87149 0.518556 0
M  V30 1619 C 150.992 -3.21181 1.32136 0
M  V30 1620 C 149.946 -3.51714 2.43888 0
M  V30 1621 C 149.272 -4.89032 2.16222 0
M  V30 1622 C 150.572 -3.516 3.86232 0
M  V30 1623 H 152.266 -1.80117 2.39161 0
M  V30 1624 H 149.812 -0.865145 1.15114 0
M  V30 1625 H 151.765 -3.99702 1.33479 0
M  V30 1626 H 150.489 -3.24791 0.343279 0
M  V30 1627 H 149.148 -2.75539 2.41813 0
M  V30 1628 H 148.796 -4.89256 1.16778 0
M  V30 1629 H 148.496 -5.10426 2.911 0
M  V30 1630 H 150.02 -5.69873 2.19265 0
M  V30 1631 H 151.434 -4.2014 3.9007 0
M  V30 1632 H 149.831 -3.84523 4.60719 0
M  V30 1633 H 150.901 -2.50757 4.15029 0
M  V30 1634 N 152.244 -1.26651 -0.937939 0
M  V30 1635 C 153.469 -1.15279 -1.72411 0
M  V30 1636 C 153.894 0.287866 -1.85884 0
M  V30 1637 O 153.252 1.20855 -1.35143 0
M  V30 1638 C 153.3 -1.83028 -3.10698 0
M  V30 1639 O 152.404 -1.12128 -3.96864 0
M  V30 1640 H 151.745 -0.401504 -0.528858 0
M  V30 1641 H 154.275 -1.67531 -1.1745 0
M  V30 1642 H 154.285 -1.89981 -3.6107 0
M  V30 1643 H 152.96 -2.87833 -3.00208 0
M  V30 1644 H 151.537 -1.13173 -3.55312 0
M  V30 1645 N 153.722 1.14298 -1.08507 0
M  V30 1646 C 154.971 1.84708 -0.810305 0
M  V30 1647 C 155.284 1.83903 0.666271 0
M  V30 1648 O 156.49 2.50112 1.05624 0
M  V30 1649 C 154.946 3.31572 -1.39957 0
M  V30 1650 C 154.554 3.40791 -2.90801 0
M  V30 1651 C 156.298 4.07087 -1.20334 0
M  V30 1652 C 154.205 4.81872 -3.4286 0
M  V30 1653 H 153.135 0.691985 -0.299454 0
M  V30 1654 H 155.786 1.28841 -1.30661 0
M  V30 1655 H 154.168 3.87183 -0.830976 0
M  V30 1656 H 155.342 2.95225 -3.53806 0
M  V30 1657 H 153.657 2.78732 -3.0935 0
M  V30 1658 H 156.254 5.11225 -1.56693 0
M  V30 1659 H 156.597 4.16054 -0.143237 0
M  V30 1660 H 157.13 3.57779 -1.73893 0
M  V30 1661 H 153.869 4.78094 -4.48449 0
M  V30 1662 H 153.389 5.27972 -2.84615 0
M  V30 1663 H 155.068 5.50765 -3.39509 0
M  V30 1664 N 155.201 0.870884 1.31352 0
M  V30 1665 C 156.447 0.482987 1.96965 0
M  V30 1666 C 156.78 -0.962462 1.68672 0
M  V30 1667 O 156.055 -1.6779 0.98371 0
M  V30 1668 C 156.338 0.741752 3.52378 0
M  V30 1669 C 156.191 2.2368 3.9024 0
M  V30 1670 C 157.51 0.208838 4.39604 0
M  V30 1671 H 154.629 0.176955 0.715441 0
M  V30 1672 H 157.271 1.09229 1.55464 0
M  V30 1673 H 155.421 0.223149 3.87859 0
M  V30 1674 H 157.093 2.82273 3.64856 0
M  V30 1675 H 155.336 2.70901 3.38814 0
M  V30 1676 H 156.007 2.3685 4.98604 0
M  V30 1677 H 158.483 0.652529 4.10952 0
M  V30 1678 H 157.359 0.419336 5.47296 0
M  V30 1679 H 157.62 -0.889275 4.33064 0
M  V30 1680 N 156.679 -1.44442 0.630414 0
M  V30 1681 C 157.956 -1.9549 0.0655657 0
M  V30 1682 C 158.336 -1.5724 -1.40851 0
M  V30 1683 O 157.684 -0.846116 -2.12257 0
M  V30 1684 C 157.894 -3.47812 0.287691 0
M  V30 1685 C 159.242 -4.24216 0.180513 0
M  V30 1686 O 160.266 -3.55526 0.219019 0
M  V30 1687 O 159.125 -5.46434 0.0848493 0
M  V30 1688 H 156.219 -0.826688 -0.0227177 0
M  V30 1689 H 158.765 -1.54496 0.702068 0
M  V30 1690 H 157.537 -3.687 1.31056 0
M  V30 1691 H 157.16 -3.95751 -0.382984 0
M  V30 1692 N 158.157 -0.370918 -1.53173 0
M  V30 1693 C 159.12 0.460778 -2.24521 0
M  V30 1694 C 160.12 1.00536 -1.25496 0
M  V30 1695 O 161.31 0.890266 -1.49733 0
M  V30 1696 C 158.442 1.64457 -2.98608 0
M  V30 1697 H 159.635 -0.163613 -2.99453 0
M  V30 1698 H 157.188 -0.122699 -1.55818 0
M  V30 1699 H 157.923 2.30691 -2.2793 0
M  V30 1700 H 157.708 1.26099 -3.7127 0
M  V30 1701 H 159.198 2.23384 -3.5283 0
M  V30 1702 N 159.635 1.57281 -0.100228 0
M  V30 1703 C 161.051 1.57527 0.256416 0
M  V30 1704 C 161.251 1.11173 1.68056 0
M  V30 1705 O 160.307 0.79053 2.39806 0
M  V30 1706 C 161.62 3.00673 0.0401747 0
M  V30 1707 C 163.168 3.12815 0.107528 0
M  V30 1708 C 163.643 4.57929 -0.0807834 0
M  V30 1709 N 165.134 4.63193 -0.0261207 0
M  V30 1710 C 165.869 5.73212 -0.146999 0
M  V30 1711 N 165.365 6.92047 -0.322999 0
M  V30 1712 N 167.158 5.62031 -0.0879044 0
M  V30 1713 H 159.309 1.85718 -1.03065 0
M  V30 1714 H 161.572 0.857446 -0.404339 0
M  V30 1715 H 161.278 3.38804 -0.943649 0
M  V30 1716 H 161.152 3.69042 0.780262 0
M  V30 1717 H 163.539 2.74554 1.08186 0
M  V30 1718 H 163.62 2.47028 -0.664134 0
M  V30 1719 H 163.264 4.96886 -1.05201 0
M  V30 1720 H 163.194 5.21783 0.710635 0
M  V30 1721 H 165.685 3.77748 0.107161 0
M  V30 1722 H 165.998 7.7173 -0.406608 0
M  V30 1723 H 164.343 6.94074 -0.358733 0
M  V30 1724 H 167.534 4.68075 0.048498 0
M  V30 1725 H 167.707 6.47734 -0.185557 0
M  V30 1726 N 161.113 -0.173488 1.56642 0
M  V30 1727 C 162.529 -0.525174 1.50712 0
M  V30 1728 C 162.729 -1.8476 0.804107 0
M  V30 1729 O 161.785 -2.49869 0.363574 0
M  V30 1730 C 163.098 -0.559937 2.95441 0
M  V30 1731 C 164.646 -0.647288 3.06234 0
M  V30 1732 C 165.121 -0.712963 4.52417 0
M  V30 1733 N 166.612 -0.775911 4.56655 0
M  V30 1734 C 167.347 -0.847264 5.67106 0
M  V30 1735 N 166.843 -0.879585 6.87194 0
M  V30 1736 N 168.636 -0.886117 5.55071 0
M  V30 1737 H 160.787 0.693681 2.00753 0
M  V30 1738 H 163.05 0.249841 0.914485 0
M  V30 1739 H 162.756 0.343049 3.50023 0
M  V30 1740 H 162.63 -1.40718 3.49969 0
M  V30 1741 H 165.017 -1.5407 2.51687 0
M  V30 1742 H 165.098 0.226586 2.54794 0
M  V30 1743 H 164.742 0.176183 5.07594 0
M  V30 1744 H 164.672 -1.60295 5.0161 0
M  V30 1745 H 167.163 -0.759304 3.70193 0
M  V30 1746 H 167.476 -0.935144 7.67121 0
M  V30 1747 H 165.821 -0.847898 6.89808 0
M  V30 1748 H 169.012 -0.857853 4.60172 0
M  V30 1749 H 169.185 -0.938263 6.41171 0
M  V30 1750 N 162.591 -1.51276 -0.441967 0
M  V30 1751 C 164.007 -1.39349 -0.778083 0
M  V30 1752 C 164.207 -0.472212 -1.95889 0
M  V30 1753 O 163.263 0.0743551 -2.5239 0
M  V30 1754 C 164.576 -2.81292 -1.0628 0
M  V30 1755 C 166.124 -2.9041 -1.16751 0
M  V30 1756 C 166.599 -4.33251 -1.48519 0
M  V30 1757 N 168.09 -4.36336 -1.55453 0
M  V30 1758 C 168.825 -5.43885 -1.81596 0
M  V30 1759 N 168.321 -6.61601 -2.05562 0
M  V30 1760 N 170.114 -5.3136 -1.8334 0
M  V30 1761 H 162.265 -2.09729 0.335774 0
M  V30 1762 H 164.528 -0.943925 0.0878028 0
M  V30 1763 H 164.234 -3.50678 -0.267905 0
M  V30 1764 H 164.108 -3.20334 -1.99163 0
M  V30 1765 H 166.495 -2.21225 -1.95304 0
M  V30 1766 H 166.576 -2.54871 -0.217801 0
M  V30 1767 H 166.22 -5.02984 -0.704958 0
M  V30 1768 H 166.15 -4.66299 -2.44689 0
M  V30 1769 H 168.641 -3.51466 -1.38853 0
M  V30 1770 H 168.954 -7.39361 -2.24867 0
M  V30 1771 H 167.299 -6.64725 -2.02894 0
M  V30 1772 H 170.49 -4.38382 -1.64132 0
M  V30 1773 H 170.663 -6.15258 -2.03377 0
M  V30 1774 N 164.069 0.697108 -1.41344 0
M  V30 1775 C 165.346 1.45154 -1.31109 0
M  V30 1776 C 165.726 2.11009 0.0620449 0
M  V30 1777 O 165.074 2.01571 1.07618 0
M  V30 1778 C 165.284 2.47223 -2.46337 0
M  V30 1779 C 166.632 3.1252 -2.87431 0
M  V30 1780 O 167.656 2.57547 -2.46065 0
M  V30 1781 O 166.515 4.12083 -3.58957 0
M  V30 1782 H 163.609 0.646365 -0.515889 0
M  V30 1783 H 166.155 0.727716 -1.53305 0
M  V30 1784 H 164.927 1.97204 -3.37974 0
M  V30 1785 H 164.55 3.27116 -2.2601 0
M  V30 1786 N 165.547 1.27147 0.931209 0
M  V30 1787 C 166.495 1.09398 2.05268 0
M  V30 1788 C 167.489 0.0180591 1.6939 0
M  V30 1789 O 168.695 0.17551 1.79142 0
M  V30 1790 H 165.07 0.336986 0.672268 0
M  V30 1791 H 167.041 2.04416 2.17386 0
M  V30 1792 C 165.79 0.75424 3.39421 0
M  V30 1793 H 165.113 1.57404 3.67511 0
M  V30 1794 H 166.553 0.669903 4.18674 0
M  V30 1795 C 165.012 -0.541197 3.32525 0
M  V30 1796 O 165.542 -1.57664 3.69466 0
M  V30 1797 N 163.748 -0.535517 2.85623 0
M  V30 1798 H 163.295 0.307511 2.55758 0
M  V30 1799 H 163.253 -1.40236 2.81392 0
M  V30 1800 N 167.025 -1.13721 1.09112 0
M  V30 1801 C 168.273 -1.84559 0.823562 0
M  V30 1802 C 168.594 -1.83754 -0.652658 0
M  V30 1803 O 167.864 -1.29102 -1.47342 0
M  V30 1804 H 166.444 -0.683376 0.301673 0
M  V30 1805 H 169.106 -1.37771 1.37859 0
M  V30 1806 H 168.202 -2.8917 1.17419 0
M  V30 1807 N 168.503 -0.877838 -1.30888 0
M  V30 1808 C 169.728 -0.506629 -2.01117 0
M  V30 1809 C 170.153 0.895564 -1.65412 0
M  V30 1810 O 169.511 1.5923 -0.866922 0
M  V30 1811 C 169.559 -0.680223 -3.54126 0
M  V30 1812 O 168.663 0.277033 -4.11468 0
M  V30 1813 H 168.004 -0.200518 -0.633 0
M  V30 1814 H 170.534 -1.18342 -1.66902 0
M  V30 1815 H 170.544 -0.5765 -4.03907 0
M  V30 1816 H 169.219 -1.70261 -3.79452 0
M  V30 1817 H 167.796 0.127606 -3.72682 0
M  V30 1818 N 169.982 1.44106 -0.638065 0
M  V30 1819 C 171.212 2.06037 -0.152394 0
M  V30 1820 C 171.62 1.47808 1.18108 0
M  V30 1821 O 170.963 0.598092 1.73691 0
M  V30 1822 C 171.025 3.59488 0.0293714 0
M  V30 1823 C 170.689 4.4022 -1.22702 0
M  V30 1824 C 171.686 4.73256 -2.15232 0
M  V30 1825 C 169.371 4.8048 -1.46437 0
M  V30 1826 C 171.365 5.45444 -3.29802 0
M  V30 1827 C 169.052 5.52417 -2.61303 0
M  V30 1828 C 170.05 5.84819 -3.52811 0
M  V30 1829 O 169.738 6.55289 -4.65673 0
M  V30 1830 H 169.47 0.671233 -0.0801401 0
M  V30 1831 H 172.024 1.85851 -0.874563 0
M  V30 1832 H 170.254 3.78191 0.806758 0
M  V30 1833 H 171.943 4.03164 0.470475 0
M  V30 1834 H 172.709 4.42684 -1.98131 0
M  V30 1835 H 168.588 4.54676 -0.760977 0
M  V30 1836 H 172.132 5.70653 -4.01249 0
M  V30 1837 H 168.029 5.82404 -2.78344 0
M  V30 1838 H 168.797 6.73762 -4.64744 0
M  V30 1839 N 171.46 0.379036 1.52974 0
M  V30 1840 C 172.707 -0.206421 2.01445 0
M  V30 1841 C 173.035 -1.47668 1.26587 0
M  V30 1842 O 172.29 -1.92514 0.351675 0
M  V30 1843 C 172.589 -0.53096 3.53434 0
M  V30 1844 C 172.255 0.646546 4.46241 0
M  V30 1845 C 170.917 0.969604 4.7133 0
M  V30 1846 C 173.269 1.43479 5.01062 0
M  V30 1847 C 170.597 2.08263 5.48492 0
M  V30 1848 C 172.949 2.53834 5.7944 0
M  V30 1849 C 171.613 2.86659 6.02812 0
M  V30 1850 H 170.883 -0.0755349 0.73714 0
M  V30 1851 H 173.53 0.514271 1.84465 0
M  V30 1852 H 171.835 -1.33285 3.68432 0
M  V30 1853 H 173.532 -0.996417 3.88423 0
M  V30 1854 H 170.122 0.384734 4.2687 0
M  V30 1855 H 174.306 1.19844 4.81613 0
M  V30 1856 H 169.562 2.34078 5.64816 0
M  V30 1857 H 173.736 3.15319 6.20924 0
M  V30 1858 H 171.363 3.73026 6.62387 0
M  V30 1859 N 172.938 -1.57226 0.108567 0
M  V30 1860 C 174.185 -1.94833 -0.551943 0
M  V30 1861 C 174.513 -0.991204 -1.67348 0
M  V30 1862 O 173.768 -0.0131878 -1.95696 0
M  V30 1863 C 174.067 -3.38911 -1.13463 0
M  V30 1864 C 173.733 -4.50696 -0.135509 0
M  V30 1865 C 172.395 -4.80998 0.139252 0
M  V30 1866 C 174.747 -5.18333 0.545957 0
M  V30 1867 C 172.075 -5.76259 1.10194 0
M  V30 1868 C 174.427 -6.14627 1.49721 0
M  V30 1869 C 173.091 -6.43327 1.78006 0
M  V30 1870 H 172.361 -0.712944 -0.20197 0
M  V30 1871 H 175.008 -1.90582 0.18726 0
M  V30 1872 H 173.313 -3.39805 -1.95037 0
M  V30 1873 H 175.01 -3.65317 -1.65362 0
M  V30 1874 H 171.6 -4.27087 -0.359846 0
M  V30 1875 H 175.784 -4.95087 0.346842 0
M  V30 1876 H 171.04 -5.96804 1.32795 0
M  V30 1877 H 175.214 -6.66126 2.03099 0
M  V30 1878 H 172.841 -7.1695 2.52759 0
M  V30 1879 N 174.416 0.165178 -1.56732 0
M  V30 1880 C 175.832 0.517174 -1.50988 0
M  V30 1881 C 176.032 1.84331 -0.813894 0
M  V30 1882 O 175.088 2.49672 -0.37682 0
M  V30 1883 C 176.401 0.544261 -2.95733 0
M  V30 1884 C 177.949 0.631039 -3.06573 0
M  V30 1885 C 178.424 0.68896 -4.52788 0
M  V30 1886 N 179.915 0.751683 -4.5706 0
M  V30 1887 C 180.65 0.817177 -5.67547 0
M  V30 1888 N 180.146 0.843129 -6.8765 0
M  V30 1889 N 181.939 0.856668 -5.55534 0
M  V30 1890 H 174.09 -0.704318 -2.00382 0
M  V30 1891 H 176.353 -0.254687 -0.913148 0
M  V30 1892 H 176.059 -0.361607 -3.49836 0
M  V30 1893 H 175.933 1.3886 -3.5071 0
M  V30 1894 H 178.32 1.52733 -2.52501 0
M  V30 1895 H 178.401 -0.240095 -2.54671 0
M  V30 1896 H 178.045 -0.2031 -5.07494 0
M  V30 1897 H 177.975 1.57633 -5.02454 0
M  V30 1898 H 180.466 0.739661 -3.70591 0
M  V30 1899 H 180.779 0.894448 -7.67606 0
M  V30 1900 H 179.124 0.811304 -6.90248 0
M  V30 1901 H 182.315 0.833437 -4.60621 0
M  V30 1902 H 182.488 0.904247 -6.4166 0
M  V30 1903 N 175.894 1.51508 0.433938 0
M  V30 1904 C 176.827 1.67756 1.54704 0
M  V30 1905 C 177.805 0.525127 1.53887 0
M  V30 1906 O 178.989 0.749393 1.72963 0
M  V30 1907 C 176.116 1.69424 2.9328 0
M  V30 1908 C 175.162 2.90673 3.12108 0
M  V30 1909 S 175.995 4.51431 2.88046 0
M  V30 1910 C 177.151 4.55849 4.28897 0
M  V30 1911 H 177.384 2.61904 1.40689 0
M  V30 1912 H 174.917 1.41235 0.62386 0
M  V30 1913 H 176.875 1.7107 3.73156 0
M  V30 1914 H 175.536 0.764464 3.04655 0
M  V30 1915 H 174.729 2.88251 4.13434 0
M  V30 1916 H 174.331 2.86786 2.40062 0
M  V30 1917 H 176.623 4.31699 5.22152 0
M  V30 1918 H 177.566 5.57676 4.36351 0
M  V30 1919 H 177.974 3.85137 4.12711 0
M  V30 1920 N 177.372 -0.689602 1.41712 0
M  V30 1921 C 178.282 -1.83314 1.46401 0
M  V30 1922 C 179.298 -1.7036 0.35405 0
M  V30 1923 O 180.474 -1.92171 0.602692 0
M  V30 1924 C 177.539 -3.19344 1.34982 0
M  V30 1925 C 176.6 -3.44363 2.56344 0
M  V30 1926 C 175.833 -4.73904 2.45461 0
M  V30 1927 O 176.056 -5.508 1.48241 0
M  V30 1928 O 174.99 -4.99839 3.35328 0
M  V30 1929 H 178.816 -1.82314 2.42889 0
M  V30 1930 H 176.401 -0.843438 1.23315 0
M  V30 1931 H 178.283 -4.00547 1.3092 0
M  V30 1932 H 176.958 -3.21014 0.41612 0
M  V30 1933 H 175.865 -2.63067 2.65982 0
M  V30 1934 H 177.198 -3.47512 3.48563 0
M  V30 1935 N 178.85 -1.27639 -0.924453 0
M  V30 1936 C 180.266 -1.05113 -1.20097 0
M  V30 1937 C 180.466 0.213262 -2.00368 0
M  V30 1938 O 179.522 0.91787 -2.35226 0
M  V30 1939 C 180.835 -2.29244 -1.94596 0
M  V30 1940 C 182.383 -2.34315 -2.07522 0
M  V30 1941 C 182.858 -3.58183 -2.85427 0
M  V30 1942 N 184.349 -3.5876 -2.92994 0
M  V30 1943 C 185.084 -4.51277 -3.53746 0
M  V30 1944 N 184.58 -5.54102 -4.15863 0
M  V30 1945 N 186.373 -4.38894 -3.51181 0
M  V30 1946 H 178.524 -2.08821 -0.388264 0
M  V30 1947 H 180.787 -0.918568 -0.234385 0
M  V30 1948 H 180.493 -3.21301 -1.43034 0
M  V30 1949 H 180.367 -2.34816 -2.95197 0
M  V30 1950 H 182.754 -1.42762 -2.58269 0
M  V30 1951 H 182.835 -2.32744 -1.06131 0
M  V30 1952 H 182.479 -4.50074 -2.35363 0
M  V30 1953 H 182.409 -3.57006 -3.8711 0
M  V30 1954 H 184.9 -2.84398 -2.4885 0
M  V30 1955 H 185.213 -6.20859 -4.60168 0
M  V30 1956 H 183.558 -5.57941 -4.144 0
M  V30 1957 H 186.749 -3.57772 -3.01856 0
M  V30 1958 H 186.922 -5.11186 -3.98237 0
M  V30 1959 N 180.328 1.1314 -1.09713 0
M  V30 1960 C 181.576 1.84119 -0.833338 0
M  V30 1961 C 181.897 1.84097 0.642904 0
M  V30 1962 O 181.167 1.29881 1.46655 0
M  V30 1963 H 179.747 0.681766 -0.305293 0
M  V30 1964 H 182.409 1.37038 -1.38588 0
M  V30 1965 H 181.505 2.88543 -1.18951 0
M  V30 1966 N 181.806 0.884767 1.30421 0
M  V30 1967 C 183.031 0.517288 2.00845 0
M  V30 1968 C 183.456 -0.886779 1.65885 0
M  V30 1969 O 182.814 -1.58768 0.875354 0
M  V30 1970 C 182.862 0.698994 3.5376 0
M  V30 1971 O 181.966 -0.255208 4.1161 0
M  V30 1972 H 181.307 0.203872 0.631927 0
M  V30 1973 H 183.837 1.19225 1.66272 0
M  V30 1974 H 183.847 0.597912 4.03595 0
M  V30 1975 H 182.522 1.72271 3.78544 0
M  V30 1976 H 181.099 -0.10784 3.72744 0
M  V30 1977 N 183.284 -1.43765 0.645699 0
M  V30 1978 C 184.512 -2.06253 0.163556 0
M  V30 1979 C 184.927 -1.48352 -1.16778 0
M  V30 1980 O 184.284 -0.611932 -1.71935 0
M  V30 1981 C 184.335 -3.61453 0.0583186 0
M  V30 1982 O 184.056 -4.172 1.33702 0
M  V30 1983 C 185.557 -4.41002 -0.450795 0
M  V30 1984 H 182.777 -0.665413 0.0864077 0
M  V30 1985 H 185.321 -1.84396 0.884222 0
M  V30 1986 H 183.476 -3.82522 -0.612865 0
M  V30 1987 H 183.89 -5.10791 1.19131 0
M  V30 1988 H 185.364 -5.49966 -0.473403 0
M  V30 1989 H 185.841 -4.13488 -1.48068 0
M  V30 1990 H 186.447 -4.24886 0.187637 0
M  V30 1991 N 184.763 -0.387143 -1.52771 0
M  V30 1992 C 185.71 0.449048 -2.26389 0
M  V30 1993 C 186.68 1.05961 -1.27912 0
M  V30 1994 O 187.865 1.08804 -1.56737 0
M  V30 1995 C 185.005 1.57155 -3.0724 0
M  V30 1996 C 184.118 0.984066 -4.20643 0
M  V30 1997 C 183.253 2.07745 -4.88892 0
M  V30 1998 C 182.292 1.46574 -5.94292 0
M  V30 1999 N 181.429 2.49834 -6.56146 0
M  V30 2000 H 186.269 -0.185205 -2.97424 0
M  V30 2001 H 183.806 -0.103164 -1.46738 0
M  V30 2002 H 185.764 2.23309 -3.52405 0
M  V30 2003 H 184.394 2.17615 -2.38419 0
M  V30 2004 H 183.446 0.212193 -3.79808 0
M  V30 2005 H 184.758 0.497029 -4.96318 0
M  V30 2006 H 183.912 2.81673 -5.3735 0
M  V30 2007 H 182.651 2.59807 -4.12737 0
M  V30 2008 H 181.656 0.711696 -5.45174 0
M  V30 2009 H 182.881 0.953088 -6.72379 0
M  V30 2010 H 180.827 3.0107 -5.82832 0
M  V30 2011 H 180.744 2.05879 -7.27427 0
M  V30 2012 H 182.012 3.23399 -7.09249 0
M  V30 2013 N 186.241 1.57166 -0.116904 0
M  V30 2014 C 187.471 1.99184 0.548586 0
M  V30 2015 C 187.879 0.995436 1.60897 0
M  V30 2016 O 187.222 -0.0201293 1.83689 0
M  V30 2017 C 187.284 3.37611 1.23526 0
M  V30 2018 C 186.948 4.55857 0.323077 0
M  V30 2019 C 187.945 5.18056 -0.437476 0
M  V30 2020 C 185.63 5.01751 0.234761 0
M  V30 2021 C 187.624 6.24536 -1.2741 0
M  V30 2022 C 185.311 6.08093 -0.605496 0
M  V30 2023 C 186.309 6.69352 -1.35856 0
M  V30 2024 O 185.997 7.7364 -2.18487 0
M  V30 2025 H 185.729 0.659148 0.149999 0
M  V30 2026 H 188.283 2.0443 -0.199428 0
M  V30 2027 H 186.513 3.29113 2.0303 0
M  V30 2028 H 188.202 3.63932 1.79745 0
M  V30 2029 H 188.968 4.83516 -0.379105 0
M  V30 2030 H 184.847 4.53817 0.810601 0
M  V30 2031 H 188.391 6.72281 -1.86237 0
M  V30 2032 H 184.288 6.42063 -0.665268 0
M  V30 2033 H 185.056 7.90727 -2.11406 0
M  V30 2034 N 187.719 -0.156864 1.56817 0
M  V30 2035 C 188.944 -0.890331 1.87318 0
M  V30 2036 C 189.369 -1.74394 0.704855 0
M  V30 2037 O 188.727 -1.77972 -0.345786 0
M  V30 2038 C 188.775 -1.73102 3.16336 0
M  V30 2039 O 187.879 -2.83422 2.99576 0
M  V30 2040 H 187.22 -0.24857 0.615718 0
M  V30 2041 H 189.75 -0.150649 2.04045 0
M  V30 2042 H 189.76 -2.12803 3.48107 0
M  V30 2043 H 188.435 -1.10412 4.00976 0
M  V30 2044 H 187.012 -2.47199 2.7919 0
M  V30 2045 N 189.197 -1.51736 -0.425897 0
M  V30 2046 C 190.427 -1.68549 -1.19476 0
M  V30 2047 C 190.835 -0.387288 -1.85194 0
M  V30 2048 O 190.178 0.645142 -1.71999 0
M  V30 2049 C 190.24 -2.75275 -2.31223 0
M  V30 2050 C 189.904 -4.17534 -1.8578 0
M  V30 2051 C 190.901 -5.01936 -1.35485 0
M  V30 2052 C 188.586 -4.6369 -1.93123 0
M  V30 2053 C 190.58 -6.30559 -0.931347 0
M  V30 2054 C 188.267 -5.92307 -1.50384 0
M  V30 2055 C 189.265 -6.75569 -1.00473 0
M  V30 2056 O 188.953 -8.0178 -0.583452 0
M  V30 2057 H 188.685 -0.568525 -0.365725 0
M  V30 2058 H 191.239 -1.98982 -0.509444 0
M  V30 2059 H 189.469 -2.40182 -3.03067 0
M  V30 2060 H 191.158 -2.80853 -2.93047 0
M  V30 2061 H 191.924 -4.67475 -1.29197 0
M  V30 2062 H 187.803 -3.98997 -2.30916 0
M  V30 2063 H 191.347 -6.95498 -0.541084 0
M  V30 2064 H 187.244 -6.2628 -1.56346 0
M  V30 2065 H 188.012 -8.1543 -0.708275 0
M  V30 2066 N 190.675 0.682077 -1.42076 0
M  V30 2067 C 191.622 1.79578 -1.44984 0
M  V30 2068 C 192.592 1.6332 -0.302614 0
M  V30 2069 O 193.777 1.83978 -0.505633 0
M  V30 2070 C 190.917 3.1756 -1.35091 0
M  V30 2071 C 190.03 3.45156 -2.59791 0
M  V30 2072 C 189.165 4.72826 -2.42093 0
M  V30 2073 C 188.204 4.93433 -3.62202 0
M  V30 2074 N 187.341 6.12338 -3.43491 0
M  V30 2075 H 192.181 1.76427 -2.40161 0
M  V30 2076 H 189.718 0.861376 -1.19242 0
M  V30 2077 H 191.676 3.97287 -1.27354 0
M  V30 2078 H 190.306 3.19854 -0.435133 0
M  V30 2079 H 189.358 2.59736 -2.77923 0
M  V30 2080 H 190.67 3.5628 -3.49094 0
M  V30 2081 H 189.824 5.60631 -2.319 0
M  V30 2082 H 188.563 4.63973 -1.50268 0
M  V30 2083 H 187.568 4.04073 -3.72834 0
M  V30 2084 H 188.793 5.04136 -4.54998 0
M  V30 2085 H 186.739 6.04672 -2.54377 0
M  V30 2086 H 186.656 6.2429 -4.26377 0
M  V30 2087 H 187.924 7.02841 -3.37097 0
M  V30 2088 N 192.153 1.28127 0.917671 0
M  V30 2089 C 193.378 1.18007 1.70555 0
M  V30 2090 C 193.803 -0.258257 1.86319 0
M  V30 2091 O 193.161 -1.1869 1.37049 0
M  V30 2092 C 193.209 1.87948 3.07746 0
M  V30 2093 O 192.313 1.18427 3.9503 0
M  V30 2094 H 191.654 0.409867 0.522403 0
M  V30 2095 H 194.184 1.69379 1.1477 0
M  V30 2096 H 194.194 1.95701 3.58001 0
M  V30 2097 H 192.869 2.92573 2.95591 0
M  V30 2098 H 191.446 1.18811 3.53466 0
M  V30 2099 N 193.631 -1.12557 1.10312 0
M  V30 2100 C 195.042 -1.65574 0.862678 0
M  V30 2101 C 195.393 -1.86566 -0.607256 0
M  V30 2102 O 194.518 -1.59121 -1.46662 0
M  V30 2103 C 195.113 -3.00776 1.55947 0
M  V30 2104 C 193.672 -3.50748 1.36576 0
M  V30 2105 C 192.819 -2.25797 1.60968 0
M  V30 2106 H 195.77 -0.963552 1.26101 0
M  V30 2107 H 195.791 -3.67185 0.997753 0
M  V30 2108 H 195.303 -2.85465 2.62928 0
M  V30 2109 H 193.404 -3.71245 0.317531 0
M  V30 2110 H 193.517 -4.30289 2.10686 0
M  V30 2111 H 191.881 -2.32841 1.03234 0
M  V30 2112 H 192.664 -2.13043 2.69198 0
M  V30 2113 N 195.109 -0.891671 -1.2995 0
M  V30 2114 C 196.041 -0.320695 -2.26945 0
M  V30 2115 C 197.054 0.528497 -1.53983 0
M  V30 2116 O 198.243 0.346959 -1.75096 0
M  V30 2117 C 195.343 0.562066 -3.34207 0
M  V30 2118 C 194.516 -0.259576 -4.36629 0
M  V30 2119 C 193.575 0.554739 -5.23268 0
M  V30 2120 O 192.601 -0.0249311 -5.69195 0
M  V30 2121 N 193.803 1.8625 -5.4981 0
M  V30 2122 H 196.568 -1.15432 -2.76578 0
M  V30 2123 H 194.129 -0.755336 -1.432 0
M  V30 2124 H 196.121 1.11304 -3.89093 0
M  V30 2125 H 194.691 1.29637 -2.84452 0
M  V30 2126 H 193.911 -0.991986 -3.81514 0
M  V30 2127 H 195.199 -0.822564 -5.02107 0
M  V30 2128 H 194.597 2.35628 -5.14292 0
M  V30 2129 H 193.154 2.36078 -6.07545 0
M  V30 2130 N 196.587 1.43421 -0.653314 0
M  V30 2131 C 197.517 2.33487 0.0246656 0
M  V30 2132 C 198.498 1.49475 0.811863 0
M  V30 2133 O 199.683 1.78139 0.773322 0
M  V30 2134 C 196.813 3.32841 0.99166 0
M  V30 2135 C 195.767 4.26842 0.314568 0
M  V30 2136 C 195.093 5.16236 1.39302 0
M  V30 2137 C 196.393 5.16243 -0.793095 0
M  V30 2138 H 198.087 2.90427 -0.727481 0
M  V30 2139 H 195.633 1.39649 -0.351287 0
M  V30 2140 H 197.586 3.94747 1.47487 0
M  V30 2141 H 196.31 2.74158 1.77497 0
M  V30 2142 H 194.969 3.663 -0.148199 0
M  V30 2143 H 194.617 4.53891 2.16776 0
M  V30 2144 H 194.317 5.79948 0.945223 0
M  V30 2145 H 195.841 5.81015 1.87759 0
M  V30 2146 H 197.255 5.71958 -0.392039 0
M  V30 2147 H 195.652 5.88676 -1.16536 0
M  V30 2148 H 196.722 4.55927 -1.65103 0
M  V30 2149 N 198.065 0.39524 1.52563 0
M  V30 2150 C 199.29 -0.187456 2.06551 0
M  V30 2151 C 199.715 -1.39249 1.26457 0
M  V30 2152 O 199.073 -1.78947 0.291151 0
M  V30 2153 C 199.121 -0.529985 3.56684 0
M  V30 2154 O 198.225 -1.62307 3.79118 0
M  V30 2155 H 197.566 -0.0202537 0.663691 0
M  V30 2156 H 200.096 0.564426 1.96661 0
M  V30 2157 H 200.106 -0.792598 4.00227 0
M  V30 2158 H 198.781 0.350987 4.14416 0
M  V30 2159 H 197.358 -1.3537 3.47461 0
M  V30 2160 N 199.544 -1.57102 0.125237 0
M  V30 2161 C 200.79 -1.95697 -0.532035 0
M  V30 2162 C 201.123 -1.009 -1.6593 0
M  V30 2163 O 200.398 -0.047347 -1.94442 0
M  V30 2164 C 200.681 -3.44181 -1.05884 0
M  V30 2165 C 200.534 -4.49752 0.0654392 0
M  V30 2166 C 201.853 -3.94655 -1.9477 0
M  V30 2167 H 198.972 -0.711571 -0.191925 0
M  V30 2168 H 201.614 -1.88923 0.20206 0
M  V30 2169 H 199.764 -3.50085 -1.68442 0
M  V30 2170 H 201.436 -4.55943 0.700982 0
M  V30 2171 H 199.679 -4.27653 0.727709 0
M  V30 2172 H 200.35 -5.50924 -0.344505 0
M  V30 2173 H 202.826 -3.91094 -1.42074 0
M  V30 2174 H 201.702 -4.99057 -2.28546 0
M  V30 2175 H 201.963 -3.35718 -2.87656 0
M  V30 2176 N 201.022 0.148545 -1.56898 0
M  V30 2177 C 201.972 1.1886 -1.94567 0
M  V30 2178 C 202.956 1.3863 -0.816735 0
M  V30 2179 O 204.148 1.40218 -1.08018 0
M  V30 2180 C 201.277 2.52262 -2.32849 0
M  V30 2181 C 200.363 2.36092 -3.52309 0
M  V30 2182 N 200.754 1.89674 -4.6889 0
M  V30 2183 C 199.052 2.66848 -3.57363 0
M  V30 2184 C 199.753 1.86511 -5.50989 0
M  V30 2185 N 198.729 2.29766 -4.92655 0
M  V30 2186 H 202.531 0.821793 -2.82177 0
M  V30 2187 H 200.045 0.356615 -1.58436 0
M  V30 2188 H 202.042 3.27447 -2.58039 0
M  V30 2189 H 200.702 2.89727 -1.46589 0
M  V30 2190 H 201.713 1.59663 -4.92674 0
M  V30 2191 H 198.39 3.08198 -2.81639 0
M  V30 2192 H 199.78 1.52128 -6.54452 0
M  V30 2193 N 202.5 1.5196 0.417844 0
M  V30 2194 C 203.746 1.65836 1.16732 0
M  V30 2195 C 204.079 0.382881 1.90388 0
M  V30 2196 O 203.354 -0.618368 1.84408 0
M  V30 2197 C 203.637 2.87466 2.16876 0
M  V30 2198 C 203.49 4.25041 1.47174 0
M  V30 2199 C 204.809 3.04613 3.17646 0
M  V30 2200 H 201.928 0.603515 0.423011 0
M  V30 2201 H 204.57 1.84494 0.454105 0
M  V30 2202 H 202.72 2.71689 2.777 0
M  V30 2203 H 204.392 4.52527 0.895376 0
M  V30 2204 H 202.635 4.26843 0.773806 0
M  V30 2205 H 203.306 5.06176 2.20204 0
M  V30 2206 H 205.782 3.1923 2.66892 0
M  V30 2207 H 204.658 3.91247 3.8499 0
M  V30 2208 H 204.919 2.17541 3.84874 0
M  V30 2209 N 203.978 -0.674533 1.42435 0
M  V30 2210 C 205.206 -1.46283 1.46317 0
M  V30 2211 C 205.621 -1.88653 0.0745836 0
M  V30 2212 O 204.978 -1.58151 -0.91074 0
M  V30 2213 C 205.029 -2.71178 2.3905 0
M  V30 2214 O 204.75 -2.30586 3.72507 0
M  V30 2215 C 206.251 -3.64738 2.51955 0
M  V30 2216 H 203.471 -0.450104 0.497642 0
M  V30 2217 H 206.015 -0.828792 1.86953 0
M  V30 2218 H 204.17 -3.3077 2.01667 0
M  V30 2219 H 204.584 -3.11241 4.22172 0
M  V30 2220 H 206.058 -4.49096 3.20962 0
M  V30 2221 H 206.535 -4.10656 1.55752 0
M  V30 2222 H 207.141 -3.11038 2.90061 0
M  V30 2223 N 205.456 -1.28612 -0.910864 0
M  V30 2224 C 206.733 -1.06632 -1.63979 0
M  V30 2225 C 207.113 0.393351 -2.07403 0
M  V30 2226 O 206.461 1.37999 -1.82122 0
M  V30 2227 C 206.671 -2.0436 -2.8291 0
M  V30 2228 C 208.019 -2.34666 -3.5386 0
M  V30 2229 O 209.043 -2.02467 -2.93062 0
M  V30 2230 O 207.902 -2.89631 -4.63439 0
M  V30 2231 H 204.996 -0.407737 -0.7195 0
M  V30 2232 H 207.542 -1.39942 -0.959914 0
M  V30 2233 H 206.314 -3.02727 -2.47936 0
M  V30 2234 H 205.937 -1.71714 -3.58609 0
M  V30 2235 N 206.934 1.1197 -1.10907 0
M  V30 2236 C 207.864 2.19928 -0.784473 0
M  V30 2237 C 208.845 1.6833 0.244726 0
M  V30 2238 O 210.03 1.93892 0.109418 0
M  V30 2239 C 207.16 3.46597 -0.220827 0
M  V30 2240 C 206.114 4.11376 -1.18127 0
M  V30 2241 C 205.44 5.32554 -0.478594 0
M  V30 2242 C 206.74 4.56945 -2.52979 0
M  V30 2243 H 208.434 2.47337 -1.68715 0
M  V30 2244 H 205.98 1.18879 -0.812642 0
M  V30 2245 H 207.933 4.21396 0.0184278 0
M  V30 2246 H 206.657 3.1863 0.717113 0
M  V30 2247 H 205.316 3.38564 -1.40606 0
M  V30 2248 H 204.964 5.00856 0.463976 0
M  V30 2249 H 204.664 5.76844 -1.11912 0
M  V30 2250 H 206.188 6.10096 -0.248 0
M  V30 2251 H 207.602 5.23093 -2.3462 0
M  V30 2252 H 205.999 5.1203 -3.12962 0
M  V30 2253 H 207.069 3.70676 -3.12614 0
M  V30 2254 N 208.412 0.89855 1.29475 0
M  V30 2255 C 209.64 0.539261 1.99749 0
M  V30 2256 C 210.055 -0.875716 1.67262 0
M  V30 2257 O 209.412 -1.57786 0.917049 0
M  V30 2258 C 209.463 0.72061 3.54245 0
M  V30 2259 O 209.184 2.07989 3.8558 0
M  V30 2260 C 210.685 0.366118 4.41786 0
M  V30 2261 H 207.905 0.207047 0.638258 0
M  V30 2262 H 210.449 1.20758 1.65039 0
M  V30 2263 H 208.604 0.0994862 3.87272 0
M  V30 2264 H 209.018 2.10841 4.80257 0
M  V30 2265 H 210.492 0.543848 5.49314 0
M  V30 2266 H 210.969 -0.696763 4.33638 0
M  V30 2267 H 211.575 0.964135 4.14228 0
M  V30 2268 N 209.89 -1.43072 0.660911 0
M  V30 2269 C 210.84 -2.27948 -0.04847 0
M  V30 2270 C 211.824 -1.40325 -0.787246 0
M  V30 2271 O 213.016 -1.63893 -0.668446 0
M  V30 2272 C 210.145 -3.28143 -1.00881 0
M  V30 2273 C 209.231 -4.23252 -0.268108 0
M  V30 2274 N 209.622 -5.00656 0.719528 0
M  V30 2275 C 207.92 -4.43092 -0.508493 0
M  V30 2276 C 208.621 -5.70019 1.15988 0
M  V30 2277 N 207.597 -5.41364 0.492584 0
M  V30 2278 H 211.399 -2.85213 0.709279 0
M  V30 2279 H 208.913 -1.54869 0.488822 0
M  V30 2280 H 210.91 -3.87736 -1.53188 0
M  V30 2281 H 209.57 -2.7244 -1.76654 0
M  V30 2282 H 210.581 -5.06115 1.09855 0
M  V30 2283 H 207.258 -3.98449 -1.24679 0
M  V30 2284 H 208.648 -6.4214 1.97751 0
M  V30 2285 N 211.368 -0.403325 -1.52352 0
M  V30 2286 C 212.784 -0.0539281 -1.59509 0
M  V30 2287 C 212.984 1.43307 -1.41652 0
M  V30 2288 O 212.04 2.19924 -1.24056 0
M  V30 2289 C 213.353 -0.543654 -2.95745 0
M  V30 2290 C 214.901 -0.501125 -3.08962 0
M  V30 2291 C 215.376 -0.967267 -4.47669 0
M  V30 2292 N 216.867 -0.923849 -4.53893 0
M  V30 2293 C 217.602 -1.25578 -5.5948 0
M  V30 2294 N 217.098 -1.65889 -6.72646 0
M  V30 2295 N 218.891 -1.17613 -5.49658 0
M  V30 2296 H 211.042 -1.37123 -1.62206 0
M  V30 2297 H 213.305 -0.56294 -0.76276 0
M  V30 2298 H 213.011 -1.58275 -3.14073 0
M  V30 2299 H 212.885 0.0498042 -3.77167 0
M  V30 2300 H 215.272 0.528909 -2.90321 0
M  V30 2301 H 215.353 -1.13056 -2.2946 0
M  V30 2302 H 214.997 -1.9956 -4.67053 0
M  V30 2303 H 214.927 -0.314698 -5.25659 0
M  V30 2304 H 217.418 -0.627403 -3.72655 0
M  V30 2305 H 217.731 -1.89543 -7.49195 0
M  V30 2306 H 216.076 -1.69787 -6.73942 0
M  V30 2307 H 219.267 -0.860115 -4.6013 0
M  V30 2308 H 219.44 -1.43812 -6.3184 0
M  V30 2309 N 212.846 1.57033 -0.133567 0
M  V30 2310 C 214.257 1.82593 0.389464 0
M  V30 2311 C 214.608 1.05156 1.6564 0
M  V30 2312 O 213.733 0.292644 2.14412 0
M  V30 2313 C 214.328 3.31204 0.713377 0
M  V30 2314 C 212.887 3.57393 1.18098 0
M  V30 2315 C 212.034 2.76598 0.197126 0
M  V30 2316 H 214.985 1.54598 -0.358481 0
M  V30 2317 H 215.006 3.46627 1.56939 0
M  V30 2318 H 214.518 3.87537 -0.2089 0
M  V30 2319 H 212.619 3.06433 2.11966 0
M  V30 2320 H 212.732 4.65915 1.11624 0
M  V30 2321 H 211.096 2.45257 0.687088 0
M  V30 2322 H 211.879 3.35697 -0.718504 0
M  V30 2323 N 214.325 -0.140222 1.56975 0
M  V30 2324 C 215.272 -1.17292 1.98774 0
M  V30 2325 C 216.242 -1.4232 0.856408 0
M  V30 2326 O 217.427 -1.54541 1.119 0
M  V30 2327 C 214.567 -2.49973 2.37923 0
M  V30 2328 C 213.68 -2.32062 3.64378 0
M  V30 2329 C 212.815 -3.57825 3.926 0
M  V30 2330 C 211.854 -3.3498 5.12303 0
M  V30 2331 N 210.991 -4.52891 5.36502 0
M  V30 2332 H 215.831 -0.809472 2.86795 0
M  V30 2333 H 213.368 -0.388237 1.41884 0
M  V30 2334 H 215.326 -3.27346 2.58652 0
M  V30 2335 H 213.956 -2.84252 1.52972 0
M  V30 2336 H 213.008 -1.45711 3.51387 0
M  V30 2337 H 214.32 -2.11145 4.51906 0
M  V30 2338 H 213.474 -4.43624 4.13863 0
M  V30 2339 H 212.213 -3.81753 3.03506 0
M  V30 2340 H 211.218 -2.4757 4.90906 0
M  V30 2341 H 212.443 -3.12444 6.02956 0
M  V30 2342 H 210.389 -4.76979 4.50363 0
M  V30 2343 H 210.306 -4.35001 6.18312 0
M  V30 2344 H 211.574 -5.39884 5.62268 0
M  V30 2345 N 215.803 -1.52179 -0.40978 0
M  V30 2346 C 217.052 -1.65434 -1.15388 0
M  V30 2347 C 217.365 -0.390056 -1.91671 0
M  V30 2348 O 218.571 -0.402399 -2.68501 0
M  V30 2349 C 217.027 -2.92279 -2.10003 0
M  V30 2350 C 216.635 -4.25813 -1.39239 0
M  V30 2351 C 218.379 -3.14897 -2.84675 0
M  V30 2352 C 216.286 -5.43782 -2.32498 0
M  V30 2353 H 215.216 -0.616267 -0.434432 0
M  V30 2354 H 217.867 -1.78666 -0.418401 0
M  V30 2355 H 216.249 -2.72744 -2.871 0
M  V30 2356 H 217.423 -4.55828 -0.675099 0
M  V30 2357 H 215.738 -4.09292 -0.766097 0
M  V30 2358 H 218.335 -4.0021 -3.54593 0
M  V30 2359 H 218.678 -2.29103 -3.47588 0
M  V30 2360 H 219.211 -3.34901 -2.14677 0
M  V30 2361 H 215.95 -6.3192 -1.74233 0
M  V30 2362 H 215.47 -5.18106 -3.02201 0
M  V30 2363 H 217.149 -5.76834 -2.93038 0
M  V30 2364 N 217.281 0.66697 -1.42791 0
M  V30 2365 C 218.211 1.79218 -1.49677 0
M  V30 2366 C 219.192 1.66405 -0.352623 0
M  V30 2367 O 220.377 1.85708 -0.567993 0
M  V30 2368 C 217.507 3.17565 -1.40605 0
M  V30 2369 C 216.461 3.45124 -2.53127 0
M  V30 2370 C 215.787 4.83127 -2.29112 0
M  V30 2371 C 217.087 3.41236 -3.95418 0
M  V30 2372 H 218.781 1.73713 -2.43853 0
M  V30 2373 H 216.327 0.83432 -1.17367 0
M  V30 2374 H 218.28 3.96022 -1.44029 0
M  V30 2375 H 217.004 3.23767 -0.429271 0
M  V30 2376 H 215.663 2.69031 -2.49034 0
M  V30 2377 H 215.311 4.85988 -1.29709 0
M  V30 2378 H 215.011 5.02528 -3.04531 0
M  V30 2379 H 216.535 5.63859 -2.34297 0
M  V30 2380 H 217.949 4.09651 -4.01073 0
M  V30 2381 H 216.346 3.72173 -4.70752 0
M  V30 2382 H 217.416 2.39665 -4.21532 0
M  V30 2383 N 218.759 1.29093 0.90403 0
M  V30 2384 C 220.008 1.16187 1.64874 0
M  V30 2385 C 220.321 -0.286742 1.93487 0
M  V30 2386 O 221.527 -0.537062 2.66135 0
M  V30 2387 C 219.983 2.03177 2.97064 0
M  V30 2388 C 219.591 3.52836 2.76062 0
M  V30 2389 C 221.335 1.98984 3.74974 0
M  V30 2390 C 219.242 4.31945 4.03952 0
M  V30 2391 H 218.172 0.431246 0.618501 0
M  V30 2392 H 220.823 1.53699 1.00243 0
M  V30 2393 H 219.205 1.5853 3.62883 0
M  V30 2394 H 220.379 4.05507 2.18863 0
M  V30 2395 H 218.694 3.58656 2.11553 0
M  V30 2396 H 221.291 2.55351 4.69787 0
M  V30 2397 H 221.634 0.968815 4.0487 0
M  V30 2398 H 222.167 2.41652 3.15989 0
M  V30 2399 H 218.906 5.34667 3.79225 0
M  V30 2400 H 218.426 3.84045 4.60727 0
M  V30 2401 H 220.105 4.42379 4.72133 0
M  V30 2402 N 220.237 -1.11381 1.11499 0
M  V30 2403 C 221.648 -1.6465 0.880191 0
M  V30 2404 C 221.999 -1.87199 -0.587434 0
M  V30 2405 O 221.124 -1.60667 -1.44966 0
M  V30 2406 C 221.719 -2.99105 1.59128 0
M  V30 2407 C 220.278 -3.49279 1.40289 0
M  V30 2408 C 219.425 -2.24077 1.63354 0
M  V30 2409 H 222.376 -0.950123 1.27116 0
M  V30 2410 H 222.397 -3.66107 1.03664 0
M  V30 2411 H 221.909 -2.82661 2.65941 0
M  V30 2412 H 220.01 -3.70887 0.356888 0
M  V30 2413 H 220.123 -4.2803 2.15238 0
M  V30 2414 H 218.487 -2.31733 1.05698 0
M  V30 2415 H 219.27 -2.10175 2.71443 0
M  V30 2416 N 221.715 -0.905404 -1.28997 0
M  V30 2417 C 222.963 -0.533192 -1.9494 0
M  V30 2418 C 223.284 0.924618 -1.71685 0
M  V30 2419 O 222.554 1.65268 -1.05183 0
M  V30 2420 H 221.134 -0.194194 -0.721317 0
M  V30 2421 H 223.796 -1.15294 -1.57141 0
M  V30 2422 H 222.892 -0.72059 -3.03667 0
M  V30 2423 N 223.193 1.4272 -0.668489 0
M  V30 2424 C 224.421 2.05966 -0.196348 0
M  V30 2425 C 224.836 1.50191 1.14403 0
M  V30 2426 O 224.193 0.639208 1.7094 0
M  V30 2427 C 224.244 3.61314 -0.115815 0
M  V30 2428 O 223.965 4.1502 -1.40322 0
M  V30 2429 C 225.466 4.41663 0.380579 0
M  V30 2430 H 222.686 0.663954 -0.0969829 0
M  V30 2431 H 225.23 1.82966 -0.913446 0
M  V30 2432 H 223.385 3.83448 0.551931 0
M  V30 2433 H 223.799 5.08832 -1.27243 0
M  V30 2434 H 225.273 5.5065 0.385848 0
M  V30 2435 H 225.75 4.15792 1.41471 0
M  V30 2436 H 226.356 4.24534 -0.255209 0
M  V30 2437 N 224.671 0.411399 1.52136 0
M  V30 2438 C 225.601 -0.404015 2.29978 0
M  V30 2439 C 226.582 -1.04412 1.34284 0
M  V30 2440 O 227.767 -1.0527 1.63192 0
M  V30 2441 C 224.897 -1.5197 3.12286 0
M  V30 2442 C 223.851 -1.00448 4.16046 0
M  V30 2443 C 223.177 -2.21393 4.86712 0
M  V30 2444 C 224.477 -0.0569336 5.22269 0
M  V30 2445 H 226.171 0.245529 2.98392 0
M  V30 2446 H 223.717 0.119525 1.43503 0
M  V30 2447 H 225.67 -2.09715 3.6551 0
M  V30 2448 H 224.394 -2.19716 2.41646 0
M  V30 2449 H 223.053 -0.449421 3.63835 0
M  V30 2450 H 222.701 -2.87699 4.12599 0
M  V30 2451 H 222.401 -1.87571 5.56858 0
M  V30 2452 H 223.925 -2.7974 5.4275 0
M  V30 2453 H 225.339 -0.54325 5.7072 0
M  V30 2454 H 223.736 0.192594 5.99791 0
M  V30 2455 H 224.806 0.887663 4.76706 0
M  V30 2456 N 226.149 -1.5696 0.141893 0
M  V30 2457 C 227.059 -2.20066 -0.812905 0
M  V30 2458 C 228.075 -1.18344 -1.27557 0
M  V30 2459 O 229.251 -1.50902 -1.33381 0
M  V30 2460 C 226.316 -2.80583 -2.03652 0
M  V30 2461 C 225.377 -3.97414 -1.62359 0
M  V30 2462 C 224.61 -4.55036 -2.78887 0
M  V30 2463 O 224.833 -4.11538 -3.94959 0
M  V30 2464 O 223.767 -5.45376 -2.54653 0
M  V30 2465 H 227.593 -3.02157 -0.305746 0
M  V30 2466 H 225.178 -1.49159 -0.0848799 0
M  V30 2467 H 227.06 -3.19067 -2.75272 0
M  V30 2468 H 225.735 -2.01508 -2.5333 0
M  V30 2469 H 224.642 -3.63656 -0.877775 0
M  V30 2470 H 225.975 -4.77994 -1.17401 0
M  V30 2471 N 227.627 0.131896 -1.57047 0
M  V30 2472 C 229.038 0.690407 -1.73465 0
M  V30 2473 C 229.389 1.8094 -0.758629 0
M  V30 2474 O 228.514 2.16282 0.0713813 0
M  V30 2475 C 229.109 1.25916 -3.14532 0
M  V30 2476 C 227.668 1.76409 -3.32501 0
M  V30 2477 C 226.815 0.658579 -2.69366 0
M  V30 2478 H 229.766 -0.0939144 -1.58422 0
M  V30 2479 H 229.787 2.12892 -3.15369 0
M  V30 2480 H 229.299 0.444515 -3.85546 0
M  V30 2481 H 227.4 2.60391 -2.66509 0
M  V30 2482 H 227.513 1.88241 -4.4057 0
M  V30 2483 H 225.877 1.08899 -2.30246 0
M  V30 2484 H 226.66 -0.14487 -3.42994 0
M  V30 2485 N 229.106 1.52395 0.401703 0
M  V30 2486 C 230.354 1.66488 1.14569 0
M  V30 2487 C 230.675 0.400897 1.90835 0
M  V30 2488 O 229.945 -0.584415 1.8698 0
M  V30 2489 H 228.525 0.613672 0.425929 0
M  V30 2490 H 231.187 1.89464 0.457093 0
M  V30 2491 H 230.283 2.50942 1.85566 0
M  V30 2492 N 230.584 -0.659388 1.43143 0
M  V30 2493 C 231.534 -1.7655 1.44271 0
M  V30 2494 C 232.518 -1.57847 0.311961 0
M  V30 2495 O 233.71 -1.68064 0.555306 0
M  V30 2496 C 230.839 -3.15104 1.36251 0
M  V30 2497 C 229.925 -3.39377 2.54331 0
M  V30 2498 N 230.316 -3.34153 3.79704 0
M  V30 2499 C 228.614 -3.70072 2.48922 0
M  V30 2500 C 229.315 -3.58337 4.58225 0
M  V30 2501 N 228.291 -3.79851 3.88863 0
M  V30 2502 H 232.093 -1.70928 2.39083 0
M  V30 2503 H 229.607 -0.860823 1.37708 0
M  V30 2504 H 231.604 -3.94389 1.35141 0
M  V30 2505 H 230.264 -3.21913 0.424531 0
M  V30 2506 H 231.275 -3.13704 4.1208 0
M  V30 2507 H 227.952 -3.84034 1.63781 0
M  V30 2508 H 229.342 -3.60129 5.67236 0
M  V30 2509 N 232.062 -1.29571 -0.897171 0
M  V30 2510 C 233.287 -1.20705 -1.68656 0
M  V30 2511 C 233.712 0.228582 -1.86706 0
M  V30 2512 O 233.07 1.16494 -1.3892 0
M  V30 2513 C 233.118 -1.9282 -3.04717 0
M  V30 2514 O 232.222 -1.24697 -3.93096 0
M  V30 2515 H 231.563 -0.418126 -0.515816 0
M  V30 2516 H 234.093 -1.71183 -1.12061 0
M  V30 2517 H 234.103 -2.01372 -3.54843 0
M  V30 2518 H 232.778 -2.97239 -2.90899 0
M  V30 2519 H 231.355 -1.2442 -3.51531 0
M  V30 2520 N 233.54 1.10788 -1.12088 0
M  V30 2521 C 234.487 2.17025 -0.785407 0
M  V30 2522 C 235.457 1.64265 0.246191 0
M  V30 2523 O 236.642 1.90412 0.121584 0
M  V30 2524 C 233.782 3.44249 -0.242177 0
M  V30 2525 C 232.895 4.1098 -1.33115 0
M  V30 2526 C 232.03 5.25911 -0.747741 0
M  V30 2527 C 231.069 5.84538 -1.81609 0
M  V30 2528 N 230.206 6.90853 -1.25167 0
M  V30 2529 H 235.046 2.45066 -1.69548 0
M  V30 2530 H 232.583 1.20297 -0.846582 0
M  V30 2531 H 234.541 4.17101 0.0908026 0
M  V30 2532 H 233.171 3.16571 0.631072 0
M  V30 2533 H 232.223 3.36133 -1.78097 0
M  V30 2534 H 233.535 4.50601 -2.13917 0
M  V30 2535 H 232.689 6.056 -0.365216 0
M  V30 2536 H 231.428 4.87614 0.0915188 0
M  V30 2537 H 230.433 5.03522 -2.20785 0
M  V30 2538 H 231.658 6.249 -2.6585 0
M  V30 2539 H 229.604 6.54562 -0.434174 0
M  V30 2540 H 229.521 7.29166 -1.99633 0
M  V30 2541 H 230.789 7.7433 -0.896259 0
M  V30 2542 N 235.018 0.912232 1.28515 0
M  V30 2543 C 235.966 0.389597 2.29314 0
M  V30 2544 C 236.96 -0.517915 1.61289 0
M  V30 2545 O 238.166 -0.399328 1.75515 0
M  V30 2546 H 234.541 0.107386 0.744293 0
M  V30 2547 H 236.512 1.25286 2.70825 0
M  V30 2548 C 235.261 -0.356496 3.45868 0
M  V30 2549 H 234.584 0.332608 3.98414 0
M  V30 2550 H 236.024 -0.686851 4.184 0
M  V30 2551 C 234.483 -1.56383 2.98406 0
M  V30 2552 O 235.013 -2.66294 3.00749 0
M  V30 2553 N 233.219 -1.41029 2.54085 0
M  V30 2554 H 232.766 -0.516089 2.52377 0
M  V30 2555 H 232.724 -2.21939 2.22689 0
M  V30 2556 N 236.496 -1.42363 0.676048 0
M  V30 2557 C 237.426 -2.33497 0.0124832 0
M  V30 2558 C 238.407 -1.50748 -0.787981 0
M  V30 2559 O 239.592 -1.79346 -0.744884 0
M  V30 2560 C 236.722 -3.34377 -0.938582 0
M  V30 2561 C 235.676 -4.27289 -0.246622 0
M  V30 2562 C 235.002 -5.18386 -1.31071 0
M  V30 2563 C 236.302 -5.14916 0.875125 0
M  V30 2564 H 237.996 -2.89233 0.773593 0
M  V30 2565 H 235.542 -1.39073 0.37346 0
M  V30 2566 H 237.495 -3.97044 -1.41188 0
M  V30 2567 H 236.219 -2.76947 -1.73113 0
M  V30 2568 H 234.878 -3.66018 0.206456 0
M  V30 2569 H 234.526 -4.57282 -2.09528 0
M  V30 2570 H 234.226 -5.81378 -0.852839 0
M  V30 2571 H 235.75 -5.83929 -1.78492 0
M  V30 2572 H 237.164 -5.71262 0.482983 0
M  V30 2573 H 235.561 -5.86747 1.25887 0
M  V30 2574 H 236.631 -4.53242 1.72335 0
M  V30 2575 N 237.974 -0.419461 -1.51915 0
M  V30 2576 C 239.202 0.152136 -2.0634 0
M  V30 2577 C 239.617 1.37988 -1.28859 0
M  V30 2578 O 238.974 1.79243 -0.343232 0
M  V30 2579 C 239.025 0.492266 -3.58133 0
M  V30 2580 O 238.746 -0.686736 -4.32684 0
M  V30 2581 C 240.247 1.11648 -4.2901 0
M  V30 2582 H 237.467 0.0158325 -0.670813 0
M  V30 2583 H 240.011 -0.593394 -1.95702 0
M  V30 2584 H 238.166 1.18769 -3.68745 0
M  V30 2585 H 238.58 -0.400341 -5.2297 0
M  V30 2586 H 240.054 1.3046 -5.36362 0
M  V30 2587 H 240.531 2.09251 -3.86148 0
M  V30 2588 H 241.137 0.460958 -4.22795 0
M  V30 2589 N 239.452 1.56882 -0.150215 0
M  V30 2590 C 240.692 1.98119 0.502804 0
M  V30 2591 C 241.056 1.03327 1.61826 0
M  V30 2592 O 242.257 1.33621 2.33236 0
M  V30 2593 C 240.528 3.43329 0.992988 0
M  V30 2594 S 242.087 4.0659 1.65015 0
M  V30 2595 H 238.905 0.692189 0.162467 0
M  V30 2596 H 241.507 1.93988 -0.242689 0
M  V30 2597 H 240.211 4.10046 0.170436 0
M  V30 2598 H 239.742 3.5118 1.77303 0
M  V30 2599 H 241.757 3.99906 2.93752 0
M  V30 2600 N 240.93 -0.123565 1.57115 0
M  V30 2601 C 242.155 -0.850398 1.89164 0
M  V30 2602 C 242.58 -1.7286 0.741688 0
M  V30 2603 O 241.938 -1.78665 -0.307958 0
M  V30 2604 C 241.986 -1.66353 3.19936 0
M  V30 2605 O 241.09 -2.77004 3.0552 0
M  V30 2606 H 240.431 -0.235454 0.620852 0
M  V30 2607 H 242.961 -0.107335 2.04318 0
M  V30 2608 H 242.971 -2.05372 3.52543 0
M  V30 2609 H 241.646 -1.01881 4.03228 0
M  V30 2610 H 240.223 -2.41221 2.84371 0
M  V30 2611 N 242.408 -1.52605 -0.393616 0
M  V30 2612 C 243.654 -1.67672 -1.14079 0
M  V30 2613 C 243.987 -0.413121 -1.89755 0
M  V30 2614 O 243.262 0.588952 -1.85369 0
M  V30 2615 C 243.545 -2.9088 -2.12276 0
M  V30 2616 C 243.398 -4.27329 -1.40394 0
M  V30 2617 C 244.717 -3.09628 -3.12759 0
M  V30 2618 H 241.836 -0.610168 -0.413356 0
M  V30 2619 H 244.478 -1.85193 -0.424696 0
M  V30 2620 H 242.628 -2.76073 -2.73342 0
M  V30 2621 H 244.3 -4.53894 -0.82327 0
M  V30 2622 H 242.543 -4.2802 -0.705801 0
M  V30 2623 H 243.214 -5.09615 -2.12123 0
M  V30 2624 H 245.69 -3.23436 -2.61779 0
M  V30 2625 H 244.566 -3.97322 -3.78717 0
M  V30 2626 H 244.827 -2.23637 -3.81365 0
M  V30 2627 N 243.887 0.651787 -1.4349 0
M  V30 2628 C 245.112 1.44434 -1.48841 0
M  V30 2629 C 245.537 1.8779 -0.107955 0
M  V30 2630 O 244.895 1.57464 0.898602 0
M  V30 2631 C 244.943 2.65458 -2.44059 0
M  V30 2632 O 244.047 3.64566 -1.92784 0
M  V30 2633 H 243.388 0.433005 -0.503391 0
M  V30 2634 H 245.918 0.797451 -1.88419 0
M  V30 2635 H 245.928 3.13255 -2.6141 0
M  V30 2636 H 244.603 2.33244 -3.4434 0
M  V30 2637 H 243.18 3.23716 -1.851 0
M  V30 2638 N 245.365 1.30045 0.890287 0
M  V30 2639 C 246.611 1.19747 1.64415 0
M  V30 2640 C 246.966 -0.246591 1.90813 0
M  V30 2641 O 246.259 -1.174 1.51419 0
M  V30 2642 C 246.453 1.95409 2.99249 0
M  V30 2643 C 246.282 3.47025 2.86013 0
M  V30 2644 C 245.052 4.1638 2.86279 0
M  V30 2645 C 247.25 4.42353 2.62351 0
M  V30 2646 N 245.232 5.54293 2.63879 0
M  V30 2647 C 246.603 5.67792 2.49022 0
M  V30 2648 C 248.658 4.32009 2.47533 0
M  V30 2649 C 247.361 6.8406 2.22383 0
M  V30 2650 C 249.387 5.48038 2.22279 0
M  V30 2651 C 248.749 6.72455 2.09722 0
M  V30 2652 H 244.848 0.493223 0.60684 0
M  V30 2653 H 247.432 1.6399 1.04954 0
M  V30 2654 H 245.603 1.53565 3.56752 0
M  V30 2655 H 247.335 1.77298 3.63796 0
M  V30 2656 H 244.09 3.68164 2.97913 0
M  V30 2657 H 244.514 6.26852 2.55706 0
M  V30 2658 H 249.156 3.36503 2.55979 0
M  V30 2659 H 246.874 7.79612 2.12675 0
M  V30 2660 H 250.46 5.41939 2.11643 0
M  V30 2661 H 249.34 7.60722 1.90453 0
M  V30 2662 N 246.843 -1.10192 1.12674 0
M  V30 2663 C 247.806 -2.14786 0.799979 0
M  V30 2664 C 248.806 -1.59711 -0.18685 0
M  V30 2665 O 249.996 -1.74156 0.0392558 0
M  V30 2666 C 247.128 -3.40374 0.189228 0
M  V30 2667 H 248.321 -2.45203 1.72671 0
M  V30 2668 H 245.874 -1.25597 0.930326 0
M  V30 2669 H 246.609 -3.15577 -0.747107 0
M  V30 2670 H 246.394 -3.81637 0.899766 0
M  V30 2671 H 247.884 -4.17594 -0.0228143 0
M  V30 2672 N 248.321 -0.919034 -1.28029 0
M  V30 2673 C 249.561 -0.562107 -1.96519 0
M  V30 2674 C 249.925 0.878784 -1.70708 0
M  V30 2675 O 251.126 1.34355 -2.32813 0
M  V30 2676 C 249.397 -0.868953 -3.46676 0
M  V30 2677 S 250.956 -0.619237 -4.34409 0
M  V30 2678 H 247.774 -0.2078 -0.679956 0
M  V30 2679 H 250.376 -1.18562 -1.55446 0
M  V30 2680 H 249.08 -1.91547 -3.62957 0
M  V30 2681 H 248.611 -0.234301 -3.92702 0
M  V30 2682 H 250.626 0.526995 -4.93394 0
M  V30 2683 N 249.799 1.42003 -0.683588 0
M  V30 2684 C 250.709 2.34597 -0.0109075 0
M  V30 2685 C 251.725 1.55576 0.779245 0
M  V30 2686 O 252.901 1.88107 0.719555 0
M  V30 2687 C 249.966 3.34199 0.922588 0
M  V30 2688 C 249.027 4.29115 0.125984 0
M  V30 2689 C 248.26 5.23959 1.01502 0
M  V30 2690 O 248.483 5.23952 2.25456 0
M  V30 2691 O 247.417 6.00053 0.47111 0
M  V30 2692 H 251.243 2.93675 -0.773853 0
M  V30 2693 H 248.828 1.42654 -0.443861 0
M  V30 2694 H 250.71 3.95365 1.45823 0
M  V30 2695 H 249.385 2.77582 1.66523 0
M  V30 2696 H 248.292 3.71335 -0.453969 0
M  V30 2697 H 249.625 4.88798 -0.577736 0
M  V30 2698 N 251.277 0.427512 1.51691 0
M  V30 2699 C 252.209 -0.424521 2.25234 0
M  V30 2700 C 253.222 -0.994671 1.2888 0
M  V30 2701 O 254.411 -0.890483 1.54702 0
M  V30 2702 C 251.511 -1.60479 2.98496 0
M  V30 2703 C 250.684 -1.15527 4.21868 0
M  V30 2704 C 249.743 -2.20454 4.77793 0
M  V30 2705 O 248.769 -1.8029 5.39893 0
M  V30 2706 N 249.971 -3.52831 4.60967 0
M  V30 2707 H 252.736 0.205749 2.98993 0
M  V30 2708 H 250.297 0.255867 1.59865 0
M  V30 2709 H 252.289 -2.30276 3.32799 0
M  V30 2710 H 250.859 -2.14061 2.27809 0
M  V30 2711 H 250.079 -0.284736 3.9317 0
M  V30 2712 H 251.367 -0.832173 5.01949 0
M  V30 2713 H 250.765 -3.88201 4.11481 0
M  V30 2714 H 249.322 -4.18551 4.99658 0
M  V30 2715 N 252.755 -1.56801 0.158532 0
M  V30 2716 C 254.003 -1.96102 -0.488712 0
M  V30 2717 C 254.324 -1.04498 -1.64636 0
M  V30 2718 O 253.594 -0.108783 -1.95598 0
M  V30 2719 H 252.174 -0.724102 -0.183535 0
M  V30 2720 H 254.836 -1.93457 0.236728 0
M  V30 2721 H 253.932 -3.00097 -0.857219 0
M  V30 2722 N 254.233 0.115231 -1.57178 0
M  V30 2723 C 255.461 0.836437 -1.89239 0
M  V30 2724 C 255.876 1.73256 -0.750175 0
M  V30 2725 O 255.233 1.80357 0.278832 0
M  V30 2726 C 255.284 1.66671 -3.20785 0
M  V30 2727 O 255.005 0.806652 -4.3061 0
M  V30 2728 C 256.506 2.49274 -3.66575 0
M  V30 2729 H 253.726 0.240253 -0.626514 0
M  V30 2730 H 256.27 0.0984932 -2.04263 0
M  V30 2731 H 254.425 2.35737 -3.0742 0
M  V30 2732 H 254.839 1.37969 -5.06028 0
M  V30 2733 H 256.313 3.03055 -4.6137 0
M  V30 2734 H 256.79 3.26807 -2.93417 0
M  V30 2735 H 257.396 1.85443 -3.82741 0
M  V30 2736 N 255.711 1.52812 0.385517 0
M  V30 2737 C 257.122 1.5993 0.963293 0
M  V30 2738 C 257.473 0.454302 1.90868 0
M  V30 2739 O 256.598 -0.422132 2.12243 0
M  V30 2740 C 257.193 2.89871 1.75387 0
M  V30 2741 C 255.752 2.99389 2.28129 0
M  V30 2742 C 254.899 2.55071 1.08783 0
M  V30 2743 H 257.85 1.5784 0.164948 0
M  V30 2744 H 257.871 2.76553 2.61341 0
M  V30 2745 H 257.383 3.73186 1.06554 0
M  V30 2746 H 255.484 2.20619 3.00263 0
M  V30 2747 H 255.597 4.04096 2.57377 0
M  V30 2748 H 253.961 2.09473 1.4489 0
M  V30 2749 H 254.744 3.40785 0.414807 0
M  V30 2750 N 257.189 -0.644168 1.43834 0
M  V30 2751 C 258.6 -1.22554 1.40845 0
M  V30 2752 C 258.951 -1.9585 0.117115 0
M  V30 2753 O 258.076 -2.01734 -0.783086 0
M  V30 2754 C 258.671 -2.22907 2.55143 0
M  V30 2755 C 257.23 -2.76501 2.5539 0
M  V30 2756 C 256.377 -1.51287 2.32396 0
M  V30 2757 H 259.328 -0.43563 1.52604 0
M  V30 2758 H 259.349 -3.05259 2.2715 0
M  V30 2759 H 258.861 -1.69533 3.49114 0
M  V30 2760 H 256.962 -3.33914 1.65324 0
M  V30 2761 H 257.075 -3.23429 3.53455 0
M  V30 2762 H 255.439 -1.78957 1.81236 0
M  V30 2763 H 256.222 -0.998336 3.28463 0
M  V30 2764 N 258.668 -1.30515 -0.883378 0
M  V30 2765 C 259.917 -1.18795 -1.63005 0
M  V30 2766 C 260.23 0.255923 -1.93919 0
M  V30 2767 O 261.436 0.494654 -2.66956 0
M  V30 2768 C 259.892 -2.07878 -2.93794 0
M  V30 2769 C 259.5 -3.57184 -2.70414 0
M  V30 2770 C 261.244 -2.04924 -3.71761 0
M  V30 2771 C 259.151 -4.38317 -3.97029 0
M  V30 2772 H 258.081 -0.441031 -0.611562 0
M  V30 2773 H 260.732 -1.55275 -0.977854 0
M  V30 2774 H 259.114 -1.64283 -3.60315 0
M  V30 2775 H 260.288 -4.08937 -2.12384 0
M  V30 2776 H 258.603 -3.61976 -2.0582 0
M  V30 2777 H 261.2 -2.62792 -4.65665 0
M  V30 2778 H 261.543 -1.0331 -4.03277 0
M  V30 2779 H 262.076 -2.46649 -3.12104 0
M  V30 2780 H 258.815 -5.40632 -3.70671 0
M  V30 2781 H 258.335 -3.91326 -4.54559 0
M  V30 2782 H 260.014 -4.49834 -4.65036 0
M  V30 2783 N 260.146 1.09593 -1.13257 0
M  V30 2784 C 261.393 1.81734 -0.893257 0
M  V30 2785 C 261.721 1.8563 0.580656 0
M  V30 2786 O 260.976 1.31906 1.44566 0
M  V30 2787 C 261.275 3.27802 -1.42411 0
M  V30 2788 C 260.941 3.44041 -2.91456 0
M  V30 2789 C 259.603 3.48181 -3.3215 0
M  V30 2790 C 261.955 3.48719 -3.87356 0
M  V30 2791 C 259.283 3.54575 -4.67433 0
M  V30 2792 C 261.635 3.56648 -5.2248 0
M  V30 2793 C 260.299 3.59055 -5.62704 0
M  V30 2794 H 259.569 0.665011 -0.326866 0
M  V30 2795 H 262.216 1.2912 -1.41422 0
M  V30 2796 H 260.521 3.83042 -0.823795 0
M  V30 2797 H 262.218 3.82149 -1.21503 0
M  V30 2798 H 258.808 3.41502 -2.58987 0
M  V30 2799 H 262.992 3.44763 -3.57004 0
M  V30 2800 H 258.248 3.54725 -4.97976 0
M  V30 2801 H 262.422 3.59212 -5.96607 0
M  V30 2802 H 260.049 3.63763 -6.67518 0
M  V30 2803 N 261.624 0.925811 1.2754 0
M  V30 2804 C 262.849 0.580924 1.99098 0
M  V30 2805 C 263.274 -0.833555 1.68622 0
M  V30 2806 O 262.632 -1.55903 0.925422 0
M  V30 2807 C 262.68 0.811186 3.51358 0
M  V30 2808 O 261.784 -0.124129 4.12213 0
M  V30 2809 H 261.125 0.223873 0.625122 0
M  V30 2810 H 263.655 1.24455 1.62395 0
M  V30 2811 H 263.665 0.72601 4.01489 0
M  V30 2812 H 262.34 1.84227 3.72872 0
M  V30 2813 H 260.917 0.0108006 3.72898 0
M  V30 2814 N 263.102 -1.41638 0.69111 0
M  V30 2815 C 264.348 -2.02104 0.229258 0
M  V30 2816 C 264.703 -1.53741 -1.15678 0
M  V30 2817 O 263.996 -0.736849 -1.76865 0
M  V30 2818 C 264.19 -3.56714 0.221277 0
M  V30 2819 C 264.019 -4.20083 1.605 0
M  V30 2820 C 262.789 -4.54566 2.20676 0
M  V30 2821 C 264.987 -4.46587 2.55078 0
M  V30 2822 N 262.969 -5.03199 3.5166 0
M  V30 2823 C 264.34 -4.96946 3.70735 0
M  V30 2824 C 266.395 -4.28593 2.53401 0
M  V30 2825 C 265.098 -5.31203 4.8499 0
M  V30 2826 C 267.124 -4.63936 3.66765 0
M  V30 2827 C 266.486 -5.14463 4.81152 0
M  V30 2828 H 262.585 -0.771256 0.12918 0
M  V30 2829 H 265.169 -1.72251 0.907626 0
M  V30 2830 H 263.34 -3.86051 -0.426562 0
M  V30 2831 H 265.072 -4.03896 -0.254983 0
M  V30 2832 H 261.827 -4.4087 1.73005 0
M  V30 2833 H 262.251 -5.31926 4.18789 0
M  V30 2834 H 266.893 -3.88771 1.66184 0
M  V30 2835 H 264.611 -5.69951 5.72871 0
M  V30 2836 H 268.197 -4.51677 3.66714 0
M  V30 2837 H 267.077 -5.41299 5.67419 0
M  V30 2838 N 264.58 -0.43555 -1.51462 0
M  V30 2839 C 265.51 0.367376 -2.30592 0
M  V30 2840 C 266.491 1.02263 -1.35928 0
M  V30 2841 O 267.676 1.02661 -1.64847 0
M  V30 2842 C 264.806 1.46983 -3.14664 0
M  V30 2843 C 263.76 0.938161 -4.17591 0
M  V30 2844 C 263.086 2.13622 -4.90173 0
M  V30 2845 C 264.386 -0.0261621 -5.22293 0
M  V30 2846 H 266.08 -0.292969 -2.97963 0
M  V30 2847 H 263.626 -0.14234 -1.43295 0
M  V30 2848 H 265.579 2.03873 -3.688 0
M  V30 2849 H 264.303 2.15843 -2.4511 0
M  V30 2850 H 262.962 0.391481 -3.64504 0
M  V30 2851 H 262.61 2.81098 -4.17124 0
M  V30 2852 H 262.31 1.78688 -5.59772 0
M  V30 2853 H 263.834 2.7107 -5.47132 0
M  V30 2854 H 265.248 0.452384 -5.71512 0
M  V30 2855 H 263.645 -0.287992 -5.99409 0
M  V30 2856 H 264.715 -0.963391 -4.75233 0
M  V30 2857 N 266.058 1.56714 -0.166846 0
M  V30 2858 C 267.283 2.01557 0.488833 0
M  V30 2859 C 267.708 1.0463 1.56314 0
M  V30 2860 O 267.066 0.0251304 1.81283 0
M  V30 2861 C 267.114 3.4503 1.04818 0
M  V30 2862 O 266.218 3.51163 2.16236 0
M  V30 2863 H 265.559 0.653516 0.117526 0
M  V30 2864 H 268.089 2.02818 -0.269421 0
M  V30 2865 H 268.099 3.84243 1.37191 0
M  V30 2866 H 266.774 4.15077 0.261572 0
M  V30 2867 H 265.351 3.23807 1.84942 0
M  V30 2868 N 267.536 -0.106894 1.57237 0
M  V30 2869 C 268.499 -1.11466 2.0027 0
M  V30 2870 C 269.499 -1.33623 0.894519 0
M  V30 2871 O 270.689 -1.29935 1.16028 0
M  V30 2872 C 267.821 -2.46646 2.35327 0
M  V30 2873 H 269.014 -0.744516 2.90512 0
M  V30 2874 H 266.567 -0.351576 1.52295 0
M  V30 2875 H 267.302 -2.88558 1.48003 0
M  V30 2876 H 267.087 -2.31915 3.16161 0
M  V30 2877 H 268.577 -3.19151 2.69318 0
M  V30 2878 N 269.014 -1.53014 -0.377408 0
M  V30 2879 C 269.977 -1.77957 -1.44444 0
M  V30 2880 C 270.977 -0.649763 -1.47087 0
M  V30 2881 O 272.167 -0.917897 -1.48055 0
M  V30 2882 C 269.299 -1.89089 -2.83651 0
M  V30 2883 H 270.492 -2.73243 -1.23606 0
M  V30 2884 H 268.045 -1.43912 -0.609844 0
M  V30 2885 H 268.78 -0.958293 -3.09818 0
M  V30 2886 H 268.565 -2.71254 -2.83132 0
M  V30 2887 H 270.055 -2.1002 -3.60945 0
M  V30 2888 N 270.492 0.636531 -1.44174 0
M  V30 2889 C 271.903 1.21806 -1.41493 0
M  V30 2890 C 272.254 1.95785 -0.1275 0
M  V30 2891 O 271.379 2.02147 0.772376 0
M  V30 2892 C 271.974 2.21551 -2.56321 0
M  V30 2893 C 270.533 2.75143 -2.56853 0
M  V30 2894 C 269.68 1.50052 -2.33195 0
M  V30 2895 H 272.631 0.427531 -1.52833 0
M  V30 2896 H 272.652 3.0405 -2.28765 0
M  V30 2897 H 272.164 1.67679 -3.50008 0
M  V30 2898 H 270.265 3.33033 -1.67093 0
M  V30 2899 H 270.378 3.2155 -3.55165 0
M  V30 2900 H 268.742 1.77993 -1.82183 0
M  V30 2901 H 269.525 0.980903 -3.28988 0
M  V30 2902 N 271.97 1.30982 0.876444 0
M  V30 2903 C 273.198 1.23242 1.6619 0
M  V30 2904 C 273.613 -0.203345 1.87702 0
M  V30 2905 O 272.97 -1.13317 1.43057 0
M  V30 2906 C 273.021 1.96623 3.03351 0
M  V30 2907 O 272.742 3.34594 2.82804 0
M  V30 2908 C 274.243 1.95644 3.97792 0
M  V30 2909 H 271.463 0.426126 0.518322 0
M  V30 2910 H 274.007 1.7275 1.09442 0
M  V30 2911 H 272.162 1.50892 3.56806 0
M  V30 2912 H 272.576 3.71873 3.69879 0
M  V30 2913 H 274.05 2.51511 4.91372 0
M  V30 2914 H 274.527 0.937395 4.2908 0
M  V30 2915 H 275.133 2.41225 3.50272 0
M  V30 2916 N 273.449 -1.08991 1.13837 0
M  V30 2917 C 274.674 -1.85551 0.926585 0
M  V30 2918 C 275.099 -1.80782 -0.519566 0
M  V30 2919 O 274.457 -1.18855 -1.36906 0
M  V30 2920 C 274.505 -3.31266 1.42462 0
M  V30 2921 O 273.609 -4.07822 0.612789 0
M  V30 2922 H 272.95 -0.575192 0.331738 0
M  V30 2923 H 275.48 -1.37604 1.51414 0
M  V30 2924 H 275.49 -3.82112 1.43019 0
M  V30 2925 H 274.165 -3.34052 2.47754 0
M  V30 2926 H 272.742 -3.66731 0.675463 0
M  V30 2927 N 274.927 -0.932562 -1.27047 0
M  V30 2928 C 275.857 -0.452902 -2.29066 0
M  V30 2929 C 276.838 0.489338 -1.62909 0
M  V30 2930 O 278.023 0.393046 -1.90181 0
M  V30 2931 C 275.153 0.290698 -3.46081 0
M  V30 2932 C 274.107 -0.564168 -4.24265 0
M  V30 2933 C 273.433 0.308886 -5.33807 0
M  V30 2934 C 274.733 -1.83112 -4.89149 0
M  V30 2935 H 276.427 -1.30552 -2.69437 0
M  V30 2936 H 273.973 -0.629201 -1.29526 0
M  V30 2937 H 275.926 0.637233 -4.16554 0
M  V30 2938 H 274.65 1.17738 -3.0464 0
M  V30 2939 H 273.309 -0.893477 -3.55545 0
M  V30 2940 H 272.957 1.19467 -4.88607 0
M  V30 2941 H 272.657 -0.259633 -5.87026 0
M  V30 2942 H 274.181 0.650884 -6.07121 0
M  V30 2943 H 275.595 -1.55236 -5.51883 0
M  V30 2944 H 273.992 -2.34353 -5.52448 0
M  V30 2945 H 275.062 -2.54772 -4.12576 0
M  V30 2946 N 276.405 1.4127 -0.698611 0
M  V30 2947 C 277.653 2.00782 -0.230409 0
M  V30 2948 C 277.974 1.5562 1.17505 0
M  V30 2949 O 277.244 0.78815 1.79346 0
M  V30 2950 H 275.824 0.742464 -0.0821944 0
M  V30 2951 H 278.486 1.72852 -0.90045 0
M  V30 2952 H 277.582 3.11095 -0.25021 0
M  V30 2953 N 277.883 0.443576 1.51229 0
M  V30 2954 C 279.294 -0.0180867 1.86691 0
M  V30 2955 C 279.645 -1.41384 1.36033 0
M  V30 2956 O 278.77 -2.04291 0.713722 0
M  V30 2957 C 279.365 -0.039597 3.38777 0
M  V30 2958 C 277.924 -0.445692 3.73752 0
M  V30 2959 C 277.071 0.357584 2.74985 0
M  V30 2960 H 280.022 0.659138 1.44364 0
M  V30 2961 H 280.043 -0.847761 3.70936 0
M  V30 2962 H 279.555 0.976382 3.75617 0
M  V30 2963 H 277.656 -1.46704 3.42503 0
M  V30 2964 H 277.769 -0.166155 4.78812 0
M  V30 2965 H 276.133 -0.184973 2.54027 0
M  V30 2966 H 276.916 1.37256 3.14668 0
M  V30 2967 N 279.361 -1.56624 0.175154 0
M  V30 2968 C 280.777 -1.58571 -0.180966 0
M  V30 2969 C 280.977 -1.19065 -1.6256 0
M  V30 2970 O 280.033 -0.904044 -2.35761 0
M  V30 2971 C 281.346 -3.00522 0.103326 0
M  V30 2972 C 282.894 -3.12972 0.0418426 0
M  V30 2973 C 283.369 -4.57022 0.299175 0
M  V30 2974 N 284.86 -4.62541 0.247086 0
M  V30 2975 C 285.595 -5.71857 0.420318 0
M  V30 2976 N 285.091 -6.89717 0.652816 0
M  V30 2977 N 286.884 -5.60972 0.355957 0
M  V30 2978 H 279.035 -1.80589 1.11809 0
M  V30 2979 H 281.298 -0.837178 0.444788 0
M  V30 2980 H 281.004 -3.33916 1.10422 0
M  V30 2981 H 280.878 -3.72344 -0.603299 0
M  V30 2982 H 283.265 -2.79403 -0.949636 0
M  V30 2983 H 283.346 -2.43578 0.781238 0
M  V30 2984 H 282.99 -4.913 1.28788 0
M  V30 2985 H 282.92 -5.24579 -0.460876 0
M  V30 2986 H 285.411 -3.77829 0.0731895 0
M  V30 2987 H 285.724 -7.68911 0.774347 0
M  V30 2988 H 284.069 -6.91572 0.689476 0
M  V30 2989 H 287.26 -4.67773 0.174882 0
M  V30 2990 H 287.433 -6.46111 0.494388 0
M  V30 2991 N 280.839 0.0985539 -1.57292 0
M  V30 2992 C 282.067 0.816318 -1.90115 0
M  V30 2993 C 282.482 1.72451 -0.768509 0
M  V30 2994 O 281.839 1.80643 0.259687 0
M  V30 2995 C 281.89 1.63259 -3.22535 0
M  V30 2996 O 281.611 0.760934 -4.31441 0
M  V30 2997 C 283.112 2.45372 -3.69199 0
M  V30 2998 H 280.332 0.233595 -0.629027 0
M  V30 2999 H 282.876 0.0768229 -2.04356 0
M  V30 3000 H 281.031 2.32463 -3.09903 0
M  V30 3001 H 281.445 1.32595 -5.07463 0
M  V30 3002 H 282.919 2.98144 -4.64558 0
M  V30 3003 H 283.396 3.23677 -2.96867 0
M  V30 3004 H 284.002 1.81373 -3.84687 0
M  V30 3005 N 282.317 1.53212 0.369288 0
M  V30 3006 C 283.545 1.73119 1.13303 0
M  V30 3007 C 283.96 0.458455 1.83149 0
M  V30 3008 O 283.317 -0.568403 1.73423 0
M  V30 3009 C 283.368 2.89413 2.16616 0
M  V30 3010 O 283.089 4.11761 1.49614 0
M  V30 3011 C 284.59 3.21161 3.05566 0
M  V30 3012 H 281.81 0.579107 0.338934 0
M  V30 3013 H 284.354 1.99942 0.429338 0
M  V30 3014 H 282.509 2.64994 2.82589 0
M  V30 3015 H 282.923 4.76858 2.18419 0
M  V30 3016 H 284.397 4.05949 3.74045 0
M  V30 3017 H 284.874 2.36369 3.70171 0
M  V30 3018 H 285.48 3.47492 2.45213 0
M  V30 3019 N 283.795 -0.628877 1.44509 0
M  V30 3020 C 284.745 -1.7345 1.47983 0
M  V30 3021 C 285.729 -1.5715 0.345373 0
M  V30 3022 O 286.921 -1.66848 0.590829 0
M  V30 3023 C 284.05 -3.12143 1.42904 0
M  V30 3024 C 283.136 -3.33906 2.61472 0
M  V30 3025 N 283.527 -3.26024 3.86706 0
M  V30 3026 C 281.825 -3.64709 2.56716 0
M  V30 3027 C 282.526 -3.48536 4.65722 0
M  V30 3028 N 281.502 -3.71517 3.96832 0
M  V30 3029 H 285.304 -1.65818 2.42655 0
M  V30 3030 H 282.818 -0.831419 1.39503 0
M  V30 3031 H 284.815 -3.91433 1.43476 0
M  V30 3032 H 283.475 -3.2094 0.492717 0
M  V30 3033 H 284.486 -3.04893 4.18641 0
M  V30 3034 H 281.163 -3.80473 1.71891 0
M  V30 3035 H 282.553 -3.48016 5.74747 0
M  V30 3036 N 285.273 -1.31445 -0.869486 0
M  V30 3037 C 286.498 -1.24256 -1.66058 0
M  V30 3038 C 286.923 0.188928 -1.87149 0
M  V30 3039 O 286.281 1.13522 -1.4136 0
M  V30 3040 C 286.329 -1.9924 -3.00559 0
M  V30 3041 O 285.433 -1.33007 -3.90362 0
M  V30 3042 H 284.774 -0.428973 -0.506831 0
M  V30 3043 H 287.304 -1.73521 -1.08404 0
M  V30 3044 H 287.314 -2.08854 -3.50491 0
M  V30 3045 H 285.989 -3.03342 -2.84528 0
M  V30 3046 H 284.566 -1.31848 -3.48813 0
M  V30 3047 N 286.751 1.08385 -1.14413 0
M  V30 3048 C 287.976 1.85057 -0.936413 0
M  V30 3049 C 288.401 1.81055 0.509971 0
M  V30 3050 O 287.759 1.1958 1.36273 0
M  V30 3051 C 287.807 3.30505 -1.44217 0
M  V30 3052 O 286.911 4.07491 -0.634409 0
M  V30 3053 H 286.252 0.573425 -0.334784 0
M  V30 3054 H 288.782 1.36799 -1.52142 0
M  V30 3055 H 288.792 3.81348 -1.45043 0
M  V30 3056 H 287.467 3.32734 -2.49522 0
M  V30 3057 H 286.044 3.66368 -0.694902 0
M  V30 3058 N 288.23 0.939286 1.26551 0
M  V30 3059 C 289.476 0.586715 1.94128 0
M  V30 3060 C 289.809 -0.8717 1.73537 0
M  V30 3061 O 289.084 -1.62339 1.07127 0
M  V30 3062 C 289.367 0.927497 3.4795 0
M  V30 3063 C 289.22 2.44052 3.77834 0
M  V30 3064 C 290.539 0.441569 4.37879 0
M  V30 3065 H 287.658 0.21463 0.705055 0
M  V30 3066 H 290.3 1.17316 1.49455 0
M  V30 3067 H 288.45 0.428431 3.8613 0
M  V30 3068 H 290.122 3.01216 3.4938 0
M  V30 3069 H 288.365 2.8848 3.23978 0
M  V30 3070 H 289.036 2.62947 4.85348 0
M  V30 3071 H 291.512 0.869448 4.06915 0
M  V30 3072 H 290.388 0.708856 5.44304 0
M  V30 3073 H 290.649 -0.658467 4.37169 0
M  V30 3074 N 289.708 -1.40897 0.706093 0
M  V30 3075 C 290.638 -2.33418 0.0620085 0
M  V30 3076 C 291.619 -1.52385 -0.755827 0
M  V30 3077 O 292.804 -1.80886 -0.706674 0
M  V30 3078 C 289.934 -3.36293 -0.867445 0
M  V30 3079 C 288.888 -4.27716 -0.155932 0
M  V30 3080 C 288.214 -5.2105 -1.20046 0
M  V30 3081 C 289.514 -5.12944 0.984149 0
M  V30 3082 H 291.208 -2.87527 0.83477 0
M  V30 3083 H 288.754 -1.38249 0.402875 0
M  V30 3084 H 290.707 -3.99949 -1.32735 0
M  V30 3085 H 289.431 -2.80556 -1.67199 0
M  V30 3086 H 288.09 -3.65498 0.284047 0
M  V30 3087 H 287.738 -4.61624 -1.99781 0
M  V30 3088 H 287.438 -5.83056 -0.729328 0
M  V30 3089 H 288.962 -5.87584 -1.66066 0
M  V30 3090 H 290.376 -5.70109 0.604048 0
M  V30 3091 H 288.773 -5.83945 1.38304 0
M  V30 3092 H 289.843 -4.49485 1.81911 0
M  V30 3093 N 291.186 -0.45159 -1.50991 0
M  V30 3094 C 292.435 0.111653 -2.01391 0
M  V30 3095 C 292.748 1.42529 -1.33959 0
M  V30 3096 O 293.954 2.07232 -1.75405 0
M  V30 3097 C 292.41 0.249514 -3.59034 0
M  V30 3098 C 292.018 -1.05453 -4.35412 0
M  V30 3099 C 293.762 0.765762 -4.17536 0
M  V30 3100 C 291.669 -0.881529 -5.84793 0
M  V30 3101 H 290.599 0.0455022 -0.752626 0
M  V30 3102 H 293.25 -0.583524 -1.73975 0
M  V30 3103 H 291.632 1.00803 -3.82955 0
M  V30 3104 H 292.806 -1.82248 -4.23229 0
M  V30 3105 H 291.121 -1.50039 -3.88429 0
M  V30 3106 H 293.718 0.911913 -5.26866 0
M  V30 3107 H 294.061 1.75201 -3.77638 0
M  V30 3108 H 294.594 0.0651744 -3.97747 0
M  V30 3109 H 291.333 -1.84057 -6.29129 0
M  V30 3110 H 290.853 -0.153625 -5.99603 0
M  V30 3111 H 292.532 -0.540363 -6.4474 0
M  V30 3112 N 292.664 1.56529 -0.183458 0
M  V30 3113 C 293.913 1.96419 0.458511 0
M  V30 3114 C 294.226 1.0727 1.63562 0
M  V30 3115 O 295.432 1.36893 2.34462 0
M  V30 3116 C 293.888 3.49298 0.867122 0
M  V30 3117 C 293.496 4.47092 -0.285057 0
M  V30 3118 C 295.24 3.97983 1.47683 0
M  V30 3119 C 293.147 5.91225 0.143862 0
M  V30 3120 H 292.077 0.733394 0.175071 0
M  V30 3121 H 294.728 1.81448 -0.273624 0
M  V30 3122 H 293.11 3.59731 1.65559 0
M  V30 3123 H 294.284 4.48383 -1.0625 0
M  V30 3124 H 292.599 4.08535 -0.805503 0
M  V30 3125 H 295.196 5.03134 1.80999 0
M  V30 3126 H 295.539 3.41618 2.37914 0
M  V30 3127 H 296.072 3.90617 0.752562 0
M  V30 3128 H 292.811 6.5149 -0.723974 0
M  V30 3129 H 292.331 5.93214 0.886413 0
M  V30 3130 H 294.01 6.44362 0.583628 0
M  V30 3131 N 294.142 -0.090211 1.57342 0
M  V30 3132 C 295.37 -0.806224 1.90546 0
M  V30 3133 C 295.785 -1.72041 0.777644 0
M  V30 3134 O 295.142 -1.80778 -0.250103 0
M  V30 3135 C 295.193 -1.61546 3.23396 0
M  V30 3136 O 294.914 -0.738043 4.31839 0
M  V30 3137 C 296.415 -2.4341 3.70495 0
M  V30 3138 H 293.635 -0.230256 0.630257 0
M  V30 3139 H 296.179 -0.0659843 2.04394 0
M  V30 3140 H 294.334 -2.30816 3.11131 0
M  V30 3141 H 294.748 -1.29901 5.08159 0
M  V30 3142 H 296.222 -2.95676 4.66133 0
M  V30 3143 H 296.699 -3.22098 2.98579 0
M  V30 3144 H 297.305 -1.79331 3.85643 0
M  V30 3145 N 295.62 -1.53406 -0.361157 0
M  V30 3146 C 297.031 -1.61442 -0.937728 0
M  V30 3147 C 297.382 -0.48461 -1.90121 0
M  V30 3148 O 296.507 0.388312 -2.12888 0
M  V30 3149 C 297.102 -2.92624 -1.70753 0
M  V30 3150 C 295.661 -3.02981 -2.23337 0
M  V30 3151 C 294.808 -2.5677 -1.04712 0
M  V30 3152 H 297.759 -1.58083 -0.139816 0
M  V30 3153 H 297.78 -2.80675 -2.56908 0
M  V30 3154 H 297.292 -3.74834 -1.00604 0
M  V30 3155 H 295.393 -2.25368 -2.96715 0
M  V30 3156 H 295.506 -4.0814 -2.50916 0
M  V30 3157 H 293.87 -2.11752 -1.41539 0
M  V30 3158 H 294.653 -3.41402 -0.360539 0
M  V30 3159 N 297.098 0.621204 -1.44841 0
M  V30 3160 C 298.514 0.94048 -1.28946 0
M  V30 3161 C 298.714 2.00154 -0.23249 0
M  V30 3162 O 297.77 2.49651 0.378237 0
M  V30 3163 C 299.083 1.39433 -2.66419 0
M  V30 3164 C 300.631 1.50927 -2.74208 0
M  V30 3165 C 301.106 1.99692 -4.12174 0
M  V30 3166 N 302.597 2.06947 -4.144 0
M  V30 3167 C 303.332 2.45871 -5.1801 0
M  V30 3168 N 302.828 2.83862 -6.31977 0
M  V30 3169 N 304.621 2.46092 -5.05366 0
M  V30 3170 H 296.772 -0.0803548 -2.12248 0
M  V30 3171 H 299.035 0.0266913 -0.947624 0
M  V30 3172 H 298.741 0.688925 -3.44887 0
M  V30 3173 H 298.615 2.36347 -2.93973 0
M  V30 3174 H 301.002 2.20561 -1.96053 0
M  V30 3175 H 301.083 0.523627 -2.50383 0
M  V30 3176 H 300.727 1.30649 -4.90809 0
M  V30 3177 H 300.657 2.99146 -4.33381 0
M  V30 3178 H 303.148 1.80232 -3.32152 0
M  V30 3179 H 303.461 3.12405 -7.0684 0
M  V30 3180 H 301.806 2.8159 -6.35399 0
M  V30 3181 H 304.997 2.1581 -4.15384 0
M  V30 3182 H 305.17 2.76102 -5.86235 0
M  V30 3183 N 298.576 1.31904 0.862503 0
M  V30 3184 C 299.987 1.19803 1.43193 0
M  V30 3185 C 300.338 -0.192567 1.95253 0
M  V30 3186 O 299.463 -1.09081 1.86896 0
M  V30 3187 C 300.058 2.16883 2.60283 0
M  V30 3188 C 298.617 2.08692 3.13248 0
M  V30 3189 C 297.764 2.05691 1.85975 0
M  V30 3190 H 300.715 1.43846 0.670365 0
M  V30 3191 H 300.736 1.76278 3.37204 0
M  V30 3192 H 300.248 3.18083 2.22363 0
M  V30 3193 H 298.349 1.10713 3.55771 0
M  V30 3194 H 298.462 2.9815 3.75025 0
M  V30 3195 H 296.826 1.50814 2.05249 0
M  V30 3196 H 297.609 3.08659 1.50282 0
M  V30 3197 N 300.054 -1.07777 1.14986 0
M  V30 3198 C 300.986 -2.14769 0.800436 0
M  V30 3199 C 301.999 -1.61739 -0.185595 0
M  V30 3200 O 303.188 -1.78462 0.0370358 0
M  V30 3201 C 300.288 -3.38481 0.168533 0
M  V30 3202 C 299.461 -4.20876 1.1909 0
M  V30 3203 C 298.52 -5.22976 0.581575 0
M  V30 3204 O 297.546 -5.55388 1.24633 0
M  V30 3205 N 298.748 -5.76976 -0.638706 0
M  V30 3206 H 301.513 -2.45348 1.72118 0
M  V30 3207 H 299.074 -1.23645 1.04515 0
M  V30 3208 H 301.066 -4.03916 -0.251764 0
M  V30 3209 H 299.636 -3.05651 -0.655467 0
M  V30 3210 H 298.856 -3.51322 1.78791 0
M  V30 3211 H 300.144 -4.7274 1.88133 0
M  V30 3212 H 299.542 -5.52886 -1.19723 0
M  V30 3213 H 298.099 -6.44061 -1.00142 0
M  V30 3214 N 301.532 -0.945985 -1.26051 0
M  V30 3215 C 302.809 -0.513816 -1.88731 0
M  V30 3216 C 303.189 1.00872 -1.8544 0
M  V30 3217 O 302.537 1.8708 -1.312 0
M  V30 3218 C 302.747 -1.08062 -3.31849 0
M  V30 3219 C 304.095 -1.1522 -4.08668 0
M  V30 3220 O 305.119 -1.03155 -3.40936 0
M  V30 3221 O 303.978 -1.34044 -5.29806 0
M  V30 3222 H 301.072 -0.168193 -0.809716 0
M  V30 3223 H 303.618 -1.03886 -1.34186 0
M  V30 3224 H 302.39 -2.1241 -3.2863 0
M  V30 3225 H 302.013 -0.538307 -3.93939 0
M  V30 3226 N 303.011 1.40521 -0.713556 0
M  V30 3227 C 303.961 2.27971 -0.036165 0
M  V30 3228 C 304.945 1.43151 0.734623 0
M  V30 3229 O 306.137 1.66261 0.607158 0
M  V30 3230 C 303.266 3.31661 0.886331 0
M  V30 3231 C 302.352 4.23955 0.110836 0
M  V30 3232 N 302.743 4.97641 -0.904847 0
M  V30 3233 C 301.041 4.44674 0.343692 0
M  V30 3234 C 301.742 5.65322 -1.37064 0
M  V30 3235 N 300.718 5.39162 -0.693168 0
M  V30 3236 H 304.52 2.82384 -0.814645 0
M  V30 3237 H 302.034 1.52948 -0.545963 0
M  V30 3238 H 304.031 3.93154 1.38692 0
M  V30 3239 H 302.691 2.78808 1.66421 0
M  V30 3240 H 303.702 5.01689 -1.28563 0
M  V30 3241 H 300.379 4.02801 1.09805 0
M  V30 3242 H 301.769 6.34359 -2.21447 0
M  V30 3243 N 304.489 0.459591 1.5075 0
M  V30 3244 C 305.737 -0.0991532 2.01857 0
M  V30 3245 C 306.058 -1.41247 1.34441 0
M  V30 3246 O 305.328 -1.89775 0.486022 0
M  V30 3247 H 303.908 -0.039633 0.745948 0
M  V30 3248 H 306.57 0.607387 1.85194 0
M  V30 3249 H 305.666 -0.258998 3.11023 0
M  V30 3250 N 305.967 -1.56429 0.191757 0
M  V30 3251 C 307.195 -2.01867 -0.453586 0
M  V30 3252 C 307.61 -1.07191 -1.5542 0
M  V30 3253 O 306.967 -0.0762108 -1.82341 0
M  V30 3254 C 307.018 -3.47017 -1.013 0
M  V30 3255 O 306.739 -4.38078 0.0437005 0
M  V30 3256 C 308.24 -4.07956 -1.73456 0
M  V30 3257 H 305.46 -0.661211 -0.114199 0
M  V30 3258 H 308.004 -2.02295 0.299483 0
M  V30 3259 H 306.159 -3.47298 -1.71647 0
M  V30 3260 H 306.573 -5.23178 -0.372212 0
M  V30 3261 H 308.047 -5.1138 -2.07833 0
M  V30 3262 H 308.524 -3.51222 -2.63704 0
M  V30 3263 H 309.13 -4.11437 -1.07702 0
M  V30 3264 N 307.445 0.0818655 -1.57387 0
M  V30 3265 C 308.393 1.11712 -2.04018 0
M  V30 3266 C 309.387 1.40683 -0.94364 0
M  V30 3267 O 310.593 1.40209 -1.12878 0
M  V30 3268 H 306.968 0.377542 -0.650358 0
M  V30 3269 H 308.939 0.697614 -2.90131 0
M  V30 3270 C 307.688 2.42537 -2.49141 0
M  V30 3271 H 307.011 2.21092 -3.33104 0
M  V30 3272 H 308.451 3.13446 -2.85531 0
M  V30 3273 C 306.91 3.0778 -1.37014 0
M  V30 3274 O 307.44 3.95436 -0.706621 0
M  V30 3275 N 305.646 2.68242 -1.11779 0
M  V30 3276 H 305.193 1.97052 -1.65917 0
M  V30 3277 H 305.151 3.1222 -0.369594 0
M  V30 3278 N 308.923 1.53595 0.353017 0
M  V30 3279 C 309.853 1.83902 1.43883 0
M  V30 3280 C 310.834 0.693421 1.55324 0
M  V30 3281 O 312.019 0.944452 1.69687 0
M  V30 3282 C 309.149 2.04016 2.8106 0
M  V30 3283 C 308.103 3.19814 2.84434 0
M  V30 3284 C 307.429 3.25244 4.24406 0
M  V30 3285 C 308.729 4.58133 2.50822 0
M  V30 3286 H 310.423 2.74835 1.1877 0
M  V30 3287 H 307.969 1.32242 0.569917 0
M  V30 3288 H 309.922 2.238 3.57059 0
M  V30 3289 H 308.646 1.09804 3.07588 0
M  V30 3290 H 307.305 2.9987 2.10887 0
M  V30 3291 H 306.953 2.28646 4.48029 0
M  V30 3292 H 306.653 4.03054 4.27576 0
M  V30 3293 H 308.177 3.47228 5.0226 0
M  V30 3294 H 309.591 4.77995 3.16534 0
M  V30 3295 H 307.988 5.38276 2.6529 0
M  V30 3296 H 309.058 4.62387 1.46034 0
M  V30 3297 N 310.401 -0.613514 1.45168 0
M  V30 3298 C 311.629 -1.39946 1.5239 0
M  V30 3299 C 312.044 -1.88167 0.154531 0
M  V30 3300 O 311.401 -1.61872 -0.842843 0
M  V30 3301 C 311.452 -2.60795 2.50337 0
M  V30 3302 O 311.173 -2.1458 3.81952 0
M  V30 3303 C 312.674 -3.53723 2.67198 0
M  V30 3304 H 309.894 -0.428593 0.516284 0
M  V30 3305 H 312.438 -0.748753 1.903 0
M  V30 3306 H 310.593 -3.21919 2.15515 0
M  V30 3307 H 311.007 -2.93055 4.34993 0
M  V30 3308 H 312.481 -4.35079 3.39721 0
M  V30 3309 H 312.958 -4.0368 1.73029 0
M  V30 3310 H 313.564 -2.98456 3.02992 0
M  V30 3311 N 311.879 -1.3236 -0.855495 0
M  V30 3312 C 313.119 -1.24187 -1.62348 0
M  V30 3313 C 313.483 0.193597 -1.91021 0
M  V30 3314 O 314.684 0.39904 -2.65822 0
M  V30 3315 C 312.955 -2.07661 -2.90881 0
M  V30 3316 S 314.514 -2.16505 -3.81669 0
M  V30 3317 H 311.332 -0.442076 -0.556857 0
M  V30 3318 H 313.934 -1.67198 -1.01317 0
M  V30 3319 H 312.638 -3.11018 -2.67761 0
M  V30 3320 H 312.169 -1.65425 -3.56929 0
M  V30 3321 H 314.184 -1.31394 -4.78487 0
M  V30 3322 N 313.357 1.07166 -1.15556 0
M  V30 3323 C 314.289 2.14341 -0.811815 0
M  V30 3324 C 315.302 1.61835 0.177015 0
M  V30 3325 O 316.491 1.78439 -0.0464996 0
M  V30 3326 C 313.591 3.38387 -0.186481 0
M  V30 3327 C 312.764 4.20238 -1.21321 0
M  V30 3328 C 311.823 5.2266 -0.609302 0
M  V30 3329 O 310.849 5.54719 -1.27576 0
M  V30 3330 N 312.051 5.77306 0.608099 0
M  V30 3331 H 314.816 2.44431 -1.73417 0
M  V30 3332 H 312.377 1.23089 -1.0517 0
M  V30 3333 H 314.369 4.04044 0.230339 0
M  V30 3334 H 312.939 3.05994 0.639249 0
M  V30 3335 H 312.159 3.50369 -1.80652 0
M  V30 3336 H 313.447 4.71736 -1.90638 0
M  V30 3337 H 312.845 5.53513 1.1679 0
M  V30 3338 H 311.402 6.44583 0.96725 0
M  V30 3339 N 314.835 0.952656 1.25548 0
M  V30 3340 C 316.081 0.607272 1.93494 0
M  V30 3341 C 316.414 -0.853245 1.74452 0
M  V30 3342 O 315.689 -1.61194 1.08843 0
M  V30 3343 C 315.972 0.96435 3.46947 0
M  V30 3344 C 315.825 2.48045 3.75225 0
M  V30 3345 C 317.144 0.487987 4.37386 0
M  V30 3346 H 314.263 0.222096 0.702739 0
M  V30 3347 H 316.905 1.18895 1.48203 0
M  V30 3348 H 315.055 0.469361 3.85654 0
M  V30 3349 H 316.727 3.04905 3.46166 0
M  V30 3350 H 314.97 2.919 3.209 0
M  V30 3351 H 315.641 2.6808 4.82532 0
M  V30 3352 H 318.117 0.912558 4.0597 0
M  V30 3353 H 316.993 0.766547 5.43521 0
M  V30 3354 H 317.254 -0.612063 4.37843 0
M  V30 3355 N 316.313 -1.40141 0.720998 0
M  V30 3356 C 317.26 -2.30688 0.071919 0
M  V30 3357 C 318.23 -1.48476 -0.744584 0
M  V30 3358 O 319.415 -1.77201 -0.707423 0
M  V30 3359 C 316.555 -3.34724 -0.839855 0
M  V30 3360 C 315.668 -4.31998 -0.0122438 0
M  V30 3361 C 314.803 -5.23102 -0.923995 0
M  V30 3362 C 313.842 -6.12033 -0.0907969 0
M  V30 3363 N 312.979 -6.95537 -0.957718 0
M  V30 3364 H 317.819 -2.85628 0.849755 0
M  V30 3365 H 315.356 -1.40653 0.430726 0
M  V30 3366 H 317.314 -3.93618 -1.38279 0
M  V30 3367 H 315.944 -2.81274 -1.58381 0
M  V30 3368 H 314.996 -3.74841 0.64794 0
M  V30 3369 H 316.308 -4.94772 0.632595 0
M  V30 3370 H 315.462 -5.86953 -1.53527 0
M  V30 3371 H 314.201 -4.60615 -1.60264 0
M  V30 3372 H 313.206 -5.47207 0.533377 0
M  V30 3373 H 314.431 -6.76581 0.584428 0
M  V30 3374 H 312.377 -6.35633 -1.62192 0
M  V30 3375 H 312.294 -7.55099 -0.36904 0
M  V30 3376 H 313.562 -7.63832 -1.555 0
M  V30 3377 N 317.792 -0.46758 -1.50504 0
M  V30 3378 C 319.039 0.0886219 -2.02306 0
M  V30 3379 C 319.367 1.40037 -1.34981 0
M  V30 3380 O 318.622 1.90136 -0.463318 0
M  V30 3381 C 318.921 0.323995 -3.55928 0
M  V30 3382 C 318.587 -0.905618 -4.41712 0
M  V30 3383 C 317.249 -1.24275 -4.64875 0
M  V30 3384 C 319.601 -1.72448 -4.91845 0
M  V30 3385 C 316.929 -2.39888 -5.35417 0
M  V30 3386 C 319.281 -2.87185 -5.63656 0
M  V30 3387 C 317.945 -3.21317 -5.85074 0
M  V30 3388 H 317.215 0.0324291 -0.74029 0
M  V30 3389 H 319.862 -0.620945 -1.81153 0
M  V30 3390 H 318.167 1.11577 -3.75577 0
M  V30 3391 H 319.864 0.76826 -3.93572 0
M  V30 3392 H 316.454 -0.632956 -4.239 0
M  V30 3393 H 320.638 -1.4772 -4.73806 0
M  V30 3394 H 315.894 -2.66611 -5.50208 0
M  V30 3395 H 320.068 -3.50985 -6.01484 0
M  V30 3396 H 317.695 -4.1101 -6.39511 0
M  V30 3397 N 319.27 1.56325 -0.20005 0
M  V30 3398 C 320.233 2.18084 0.705132 0
M  V30 3399 C 321.233 1.13666 1.1374 0
M  V30 3400 O 322.423 1.39023 1.04968 0
M  V30 3401 C 319.555 2.78689 1.96329 0
M  V30 3402 H 320.748 2.99435 0.167023 0
M  V30 3403 H 318.301 1.56221 0.0495725 0
M  V30 3404 H 319.036 2.0115 2.5438 0
M  V30 3405 H 318.821 3.55133 1.66202 0
M  V30 3406 H 320.311 3.26096 2.60866 0
M  V30 3407 N 320.748 -0.0735177 1.57428 0
M  V30 3408 C 321.996 -0.771472 1.86796 0
M  V30 3409 C 322.317 -1.78201 0.791804 0
M  V30 3410 O 321.587 -1.95074 -0.179718 0
M  V30 3411 H 320.167 -0.28791 0.689287 0
M  V30 3412 H 322.829 -0.0500161 1.94836 0
M  V30 3413 H 321.925 -1.28874 2.8425 0
M  V30 3414 N 322.226 -1.5378 -0.344866 0
M  V30 3415 C 323.189 -1.80981 -1.40637 0
M  V30 3416 C 324.189 -0.680816 -1.45676 0
M  V30 3417 O 325.379 -0.949095 -1.46075 0
M  V30 3418 C 322.511 -1.95063 -2.79577 0
M  V30 3419 H 323.704 -2.75803 -1.17783 0
M  V30 3420 H 321.257 -1.45173 -0.579181 0
M  V30 3421 H 321.992 -1.02379 -3.07716 0
M  V30 3422 H 321.777 -2.77198 -2.77315 0
M  V30 3423 H 323.267 -2.17629 -3.56409 0
M  V30 3424 N 323.704 0.605807 -1.45491 0
M  V30 3425 C 324.952 1.36207 -1.49305 0
M  V30 3426 C 325.273 1.94519 -0.136863 0
M  V30 3427 O 324.543 1.77261 0.833983 0
M  V30 3428 H 323.123 0.50565 -0.549843 0
M  V30 3429 H 325.785 0.711239 -1.81459 0
M  V30 3430 H 324.881 2.18058 -2.23287 0
M  V30 3431 N 325.182 1.32811 0.848464 0
M  V30 3432 C 326.428 1.23907 1.60546 0
M  V30 3433 C 326.761 -0.197161 1.93197 0
M  V30 3434 O 326.036 -1.13596 1.5788 0
M  V30 3435 C 326.319 2.10489 2.92175 0
M  V30 3436 C 326.172 3.62522 2.66266 0
M  V30 3437 C 327.491 1.97075 3.93509 0
M  V30 3438 H 324.61 0.451459 0.58254 0
M  V30 3439 H 327.252 1.62818 0.979296 0
M  V30 3440 H 325.402 1.77434 3.45614 0
M  V30 3441 H 327.074 4.05821 2.19334 0
M  V30 3442 H 325.317 3.84879 2.00126 0
M  V30 3443 H 325.988 4.18437 3.6002 0
M  V30 3444 H 328.464 2.26045 3.49346 0
M  V30 3445 H 327.34 2.59923 4.83457 0
M  V30 3446 H 327.601 0.940186 4.31987 0
M  V30 3447 N 326.66 -1.06551 1.16123 0
M  V30 3448 C 327.888 -1.83005 0.965237 0
M  V30 3449 C 328.303 -1.82423 -0.486542 0
M  V30 3450 O 327.66 -1.24152 -1.33763 0
M  V30 3451 C 327.711 -3.29733 1.48183 0
M  V30 3452 O 327.432 -3.30416 2.87674 0
M  V30 3453 C 328.933 -4.22926 1.32848 0
M  V30 3454 H 326.153 -0.577118 0.342309 0
M  V30 3455 H 328.697 -1.3445 1.54089 0
M  V30 3456 H 326.852 -3.75609 0.948517 0
M  V30 3457 H 327.266 -4.22149 3.11272 0
M  V30 3458 H 328.74 -5.23916 1.73827 0
M  V30 3459 H 329.217 -4.38346 0.273692 0
M  V30 3460 H 329.823 -3.82894 1.85127 0
M  V30 3461 N 328.138 -0.959301 -1.25041 0
M  V30 3462 C 329.366 -0.633949 -1.96948 0
M  V30 3463 C 329.781 0.794916 -1.7125 0
M  V30 3464 O 329.138 1.53231 -0.991287 0
M  V30 3465 C 329.189 -0.888805 -3.50403 0
M  V30 3466 O 328.91 -2.26149 -3.75218 0
M  V30 3467 C 330.411 -0.576482 -4.39536 0
M  V30 3468 H 327.631 -0.237263 -0.627652 0
M  V30 3469 H 330.175 -1.28495 -1.59089 0
M  V30 3470 H 328.33 -0.284145 -3.86357 0
M  V30 3471 H 328.744 -2.33514 -4.6965 0
M  V30 3472 H 330.218 -0.805314 -5.46094 0
M  V30 3473 H 330.695 0.489075 -4.36468 0
M  V30 3474 H 331.301 -1.16067 -4.09156 0
M  V30 3475 N 329.616 1.39756 -0.72842 0
M  V30 3476 C 330.526 2.34444 -0.0855374 0
M  V30 3477 C 331.542 1.57976 0.729356 0
M  V30 3478 O 332.718 1.90301 0.659346 0
M  V30 3479 C 329.783 3.36965 0.815798 0
M  V30 3480 C 328.844 4.29299 -0.0105996 0
M  V30 3481 C 328.077 5.26923 0.84781 0
M  V30 3482 O 328.3 5.30859 2.08673 0
M  V30 3483 O 327.234 6.01249 0.279969 0
M  V30 3484 H 331.06 2.91065 -0.866892 0
M  V30 3485 H 328.645 1.4117 -0.48902 0
M  V30 3486 H 330.527 3.99804 1.33171 0
M  V30 3487 H 329.202 2.82739 1.57608 0
M  V30 3488 H 328.109 3.69703 -0.571877 0
M  V30 3489 H 329.442 4.86712 -0.73295 0
M  V30 3490 N 331.094 0.475555 1.50254 0
M  V30 3491 C 332.51 0.12997 1.5907 0
M  V30 3492 C 332.71 -1.36385 1.48328 0
M  V30 3493 O 331.766 -2.13754 1.34407 0
M  V30 3494 C 333.079 0.684139 2.92814 0
M  V30 3495 C 334.627 0.647965 3.0622 0
M  V30 3496 C 335.102 1.17975 4.42545 0
M  V30 3497 N 336.593 1.13936 4.48969 0
M  V30 3498 C 337.328 1.52129 5.52851 0
M  V30 3499 N 336.824 1.97793 6.63965 0
M  V30 3500 N 338.617 1.43704 5.4342 0
M  V30 3501 H 330.768 1.44706 1.55479 0
M  V30 3502 H 333.031 0.598691 0.735033 0
M  V30 3503 H 332.737 1.73079 3.06164 0
M  V30 3504 H 332.611 0.130204 3.76975 0
M  V30 3505 H 334.998 -0.38979 2.92514 0
M  V30 3506 H 335.079 1.23876 2.23805 0
M  V30 3507 H 334.723 2.21616 4.57 0
M  V30 3508 H 334.653 0.565138 5.23559 0
M  V30 3509 H 337.144 0.804488 3.69238 0
M  V30 3510 H 337.457 2.25072 7.39299 0
M  V30 3511 H 335.802 2.01749 6.65073 0
M  V30 3512 H 338.993 1.07867 4.55502 0
M  V30 3513 H 339.166 1.73794 6.24259 0
M  V30 3514 N 332.573 -1.56217 0.208337 0
M  V30 3515 C 333.801 -2.02337 -0.43215 0
M  V30 3516 C 334.216 -1.08834 -1.54275 0
M  V30 3517 O 333.573 -0.0955462 -1.8225 0
M  V30 3518 C 333.624 -3.48072 -0.976138 0
M  V30 3519 O 333.345 -4.38007 0.0901621 0
M  V30 3520 C 334.846 -4.09773 -1.69119 0
M  V30 3521 H 332.066 -0.662385 -0.10718 0
M  V30 3522 H 334.61 -2.01966 0.320923 0
M  V30 3523 H 332.765 -3.49099 -1.67954 0
M  V30 3524 H 333.179 -5.23543 -0.316701 0
M  V30 3525 H 334.653 -5.13556 -2.02397 0
M  V30 3526 H 335.13 -3.53999 -2.59964 0
M  V30 3527 H 335.736 -4.12556 -1.03332 0
M  V30 3528 N 334.051 0.0651679 -1.57465 0
M  V30 3529 C 335.3 0.761916 -1.86756 0
M  V30 3530 C 335.613 1.78406 -0.801925 0
M  V30 3531 O 336.819 2.53084 -0.982885 0
M  V30 3532 C 335.275 1.40603 -3.31299 0
M  V30 3533 C 334.883 0.422115 -4.46007 0
M  V30 3534 C 336.627 2.08476 -3.69781 0
M  V30 3535 C 334.534 1.07252 -5.81593 0
M  V30 3536 H 333.464 0.288308 -0.696702 0
M  V30 3537 H 336.115 0.015344 -1.83494 0
M  V30 3538 H 334.497 2.20109 -3.29193 0
M  V30 3539 H 335.671 -0.343613 -4.59517 0
M  V30 3540 H 333.986 -0.152527 -4.16121 0
M  V30 3541 H 336.583 2.57925 -4.68379 0
M  V30 3542 H 336.926 2.88712 -2.99919 0
M  V30 3543 H 337.459 1.35792 -3.73905 0
M  V30 3544 H 334.198 0.310342 -6.54765 0
M  V30 3545 H 333.718 1.80895 -5.71872 0
M  V30 3546 H 335.397 1.59043 -6.27148 0
M  V30 3547 N 335.529 1.53961 0.336706 0
M  V30 3548 C 336.461 1.78751 1.4346 0
M  V30 3549 C 337.474 0.669019 1.48418 0
M  V30 3550 O 338.663 0.945884 1.51378 0
M  V30 3551 C 335.763 1.87844 2.82078 0
M  V30 3552 C 334.936 3.17854 3.00479 0
M  V30 3553 C 333.995 3.17816 4.19379 0
M  V30 3554 O 333.021 3.91511 4.13168 0
M  V30 3555 N 334.223 2.40669 5.2826 0
M  V30 3556 H 336.988 2.73493 1.22563 0
M  V30 3557 H 334.549 1.53096 0.526625 0
M  V30 3558 H 336.541 1.85261 3.59806 0
M  V30 3559 H 335.111 1.00257 2.96086 0
M  V30 3560 H 334.331 3.33504 2.10163 0
M  V30 3561 H 335.619 4.03718 3.0966 0
M  V30 3562 H 335.017 1.8036 5.36178 0
M  V30 3563 H 333.574 2.43877 6.04456 0
M  V30 3564 N 337.007 -0.598083 1.45811 0
M  V30 3565 C 337.937 -1.71873 1.58057 0
M  V30 3566 C 338.918 -1.64533 0.431615 0
M  V30 3567 O 340.103 -1.82787 0.65595 0
M  V30 3568 C 337.233 -3.10495 1.55597 0
M  V30 3569 C 336.187 -3.32654 2.69305 0
M  V30 3570 C 335.513 -4.71646 2.51902 0
M  V30 3571 C 336.813 -3.21981 4.11248 0
M  V30 3572 H 338.507 -1.61881 2.51863 0
M  V30 3573 H 336.053 -0.777372 1.21214 0
M  V30 3574 H 338.006 -3.88699 1.6276 0
M  V30 3575 H 336.73 -3.2135 0.583255 0
M  V30 3576 H 335.389 -2.56843 2.61586 0
M  V30 3577 H 335.037 -4.79246 1.52748 0
M  V30 3578 H 334.737 -4.87426 3.2816 0
M  V30 3579 H 336.261 -5.52038 2.60933 0
M  V30 3580 H 337.675 -3.90049 4.20161 0
M  V30 3581 H 336.072 -3.49289 4.87972 0
M  V30 3582 H 337.142 -2.1928 4.32486 0
M  V30 3583 N 338.485 -1.33259 -0.841409 0
M  V30 3584 C 339.433 -1.23279 -1.97244 0
M  V30 3585 C 340.427 -0.134706 -1.68864 0
M  V30 3586 O 341.633 -0.298501 -1.77508 0
M  V30 3587 H 338.008 -0.382497 -0.647457 0
M  V30 3588 H 339.979 -2.18906 -2.02787 0
M  V30 3589 C 338.728 -0.986268 -3.33419 0
M  V30 3590 H 338.051 -1.82347 -3.55794 0
M  V30 3591 H 339.491 -0.956728 -4.13065 0
M  V30 3592 C 337.95 0.310842 -3.35463 0
M  V30 3593 O 338.48 1.31838 -3.79449 0
M  V30 3594 N 336.686 0.337485 -2.88634 0
M  V30 3595 H 336.233 -0.482967 -2.53032 0
M  V30 3596 H 336.191 1.20518 -2.90384 0
M  V30 3597 N 339.963 1.05934 -1.16686 0
M  V30 3598 C 341.209 1.79065 -0.95203 0
M  V30 3599 C 341.542 1.87147 0.518629 0
M  V30 3600 O 340.817 1.36574 1.38484 0
M  V30 3601 C 341.1 3.23359 -1.58464 0
M  V30 3602 C 340.953 3.23336 -3.12689 0
M  V30 3603 C 342.272 4.21004 -1.28232 0
M  V30 3604 H 339.391 0.65005 -0.34728 0
M  V30 3605 H 342.033 1.23868 -1.44072 0
M  V30 3606 H 340.183 3.70493 -1.16908 0
M  V30 3607 H 341.855 2.84336 -3.6325 0
M  V30 3608 H 340.098 2.61886 -3.4583 0
M  V30 3609 H 340.769 4.25144 -3.52075 0
M  V30 3610 H 343.245 3.8233 -1.64203 0
M  V30 3611 H 342.121 5.20225 -1.75092 0
M  V30 3612 H 342.382 4.41639 -0.201791 0
M  V30 3613 N 341.441 0.965919 1.2453 0
M  V30 3614 C 342.669 0.644385 1.96609 0
M  V30 3615 C 343.084 -0.785823 1.71669 0
M  V30 3616 O 342.441 -1.52703 0.999399 0
M  V30 3617 C 342.492 0.907375 3.49927 0
M  V30 3618 O 342.213 2.28136 3.74013 0
M  V30 3619 C 343.714 0.599784 4.39224 0
M  V30 3620 H 340.934 0.240588 0.626385 0
M  V30 3621 H 343.478 1.29337 1.58405 0
M  V30 3622 H 341.633 0.304631 3.862 0
M  V30 3623 H 342.047 2.36002 4.68405 0
M  V30 3624 H 343.521 0.834263 5.45659 0
M  V30 3625 H 343.998 -0.465921 4.36722 0
M  V30 3626 H 344.604 1.18235 4.08535 0
M  V30 3627 N 342.919 -1.39368 0.735821 0
M  V30 3628 C 344.149 -2.04498 0.293967 0
M  V30 3629 C 344.557 -1.55593 -1.07645 0
M  V30 3630 O 343.9 -0.716324 -1.69158 0
M  V30 3631 C 343.962 -3.58836 0.218342 0
M  V30 3632 C 343.626 -4.30721 1.52736 0
M  V30 3633 C 344.623 -4.57305 2.47322 0
M  V30 3634 C 342.308 -4.69251 1.79189 0
M  V30 3635 C 344.302 -5.21429 3.66593 0
M  V30 3636 C 341.989 -5.33104 2.98737 0
M  V30 3637 C 342.987 -5.59125 3.9226 0
M  V30 3638 O 342.675 -6.21653 5.09708 0
M  V30 3639 H 342.407 -0.664118 0.126189 0
M  V30 3640 H 344.961 -1.79385 1.00051 0
M  V30 3641 H 343.191 -3.8285 -0.544314 0
M  V30 3642 H 344.88 -4.05447 -0.191626 0
M  V30 3643 H 345.646 -4.27983 2.28156 0
M  V30 3644 H 341.525 -4.48354 1.07239 0
M  V30 3645 H 345.069 -5.41656 4.39607 0
M  V30 3646 H 340.966 -5.61846 3.17803 0
M  V30 3647 H 341.734 -6.40146 5.10054 0
M  V30 3648 N 344.397 -0.483516 -1.5 0
M  V30 3649 C 345.643 0.0672592 -2.02688 0
M  V30 3650 C 345.976 1.38247 -1.36387 0
M  V30 3651 O 345.251 1.88131 -0.493675 0
M  V30 3652 C 345.534 0.238109 -3.59312 0
M  V30 3653 C 345.387 -1.099 -4.36168 0
M  V30 3654 C 346.706 0.986916 -4.28892 0
M  V30 3655 H 343.825 0.0229696 -0.736642 0
M  V30 3656 H 346.467 -0.631527 -1.79197 0
M  V30 3657 H 344.617 0.8333 -3.79458 0
M  V30 3658 H 346.289 -1.73172 -4.27562 0
M  V30 3659 H 344.532 -1.69261 -3.99416 0
M  V30 3660 H 345.203 -0.932954 -5.44059 0
M  V30 3661 H 347.679 0.482302 -4.13295 0
M  V30 3662 H 346.555 1.07527 -5.38265 0
M  V30 3663 H 346.816 2.0265 -3.92919 0
M  V30 3664 N 345.875 1.56104 -0.216619 0
M  V30 3665 C 347.286 1.844 0.292128 0
M  V30 3666 C 347.637 1.13788 1.59833 0
M  V30 3667 O 346.762 0.405888 2.12559 0
M  V30 3668 C 347.357 3.3452 0.53681 0
M  V30 3669 C 345.916 3.63151 0.989876 0
M  V30 3670 C 345.063 2.77255 0.0502302 0
M  V30 3671 H 348.014 1.52481 -0.439926 0
M  V30 3672 H 348.035 3.54459 1.38345 0
M  V30 3673 H 347.547 3.85885 -0.414031 0
M  V30 3674 H 345.648 3.17238 1.95425 0
M  V30 3675 H 345.761 4.71177 0.867698 0
M  V30 3676 H 344.125 2.48555 0.556117 0
M  V30 3677 H 344.908 3.31416 -0.89544 0
M  V30 3678 N 347.353 -0.0568162 1.57498 0
M  V30 3679 C 348.285 -1.09292 2.01464 0
M  V30 3680 C 349.298 -1.34112 0.922913 0
M  V30 3681 O 350.487 -1.32089 1.20062 0
M  V30 3682 C 347.587 -2.44068 2.35125 0
M  V30 3683 C 346.76 -2.38995 3.66333 0
M  V30 3684 C 345.819 -3.55997 3.87495 0
M  V30 3685 O 344.845 -3.36746 4.58901 0
M  V30 3686 N 346.047 -4.76888 3.30996 0
M  V30 3687 H 348.812 -0.718386 2.90963 0
M  V30 3688 H 346.373 -0.245235 1.60032 0
M  V30 3689 H 348.365 -3.21011 2.46443 0
M  V30 3690 H 346.935 -2.73468 1.5144 0
M  V30 3691 H 346.155 -1.47336 3.65631 0
M  V30 3692 H 347.443 -2.3272 4.52458 0
M  V30 3693 H 346.841 -4.95431 2.73065 0
M  V30 3694 H 345.398 -5.51291 3.47738 0
M  V30 3695 N 348.832 -1.54138 -0.328536 0
M  V30 3696 C 349.78 -1.83894 -1.42428 0
M  V30 3697 C 350.774 -0.710478 -1.53781 0
M  V30 3698 O 351.98 -0.894062 -1.56226 0
M  V30 3699 H 348.355 -0.582837 -0.475189 0
M  V30 3700 H 350.326 -2.75537 -1.14552 0
M  V30 3701 C 349.075 -2.07866 -2.78724 0
M  V30 3702 H 348.398 -2.94158 -2.7076 0
M  V30 3703 H 349.838 -2.32644 -3.54476 0
M  V30 3704 C 348.297 -0.868689 -3.25508 0
M  V30 3705 O 348.827 -0.0754908 -4.01629 0
M  V30 3706 N 347.033 -0.681711 -2.82491 0
M  V30 3707 H 346.58 -1.32838 -2.20708 0
M  V30 3708 H 346.538 0.126374 -3.14146 0
M  V30 3709 N 350.31 0.590341 -1.46126 0
M  V30 3710 C 351.721 1.17243 -1.45296 0
M  V30 3711 C 352.072 1.95281 -0.189723 0
M  V30 3712 O 351.197 2.04502 0.707674 0
M  V30 3713 C 351.792 2.13284 -2.6324 0
M  V30 3714 C 350.351 2.66832 -2.65476 0
M  V30 3715 C 349.498 1.42557 -2.3785 0
M  V30 3716 H 352.449 0.378692 -1.54116 0
M  V30 3717 H 352.47 2.96619 -2.38323 0
M  V30 3718 H 351.982 1.56459 -3.55165 0
M  V30 3719 H 350.083 3.27548 -1.77603 0
M  V30 3720 H 350.196 3.10088 -3.65215 0
M  V30 3721 H 348.56 1.72107 -1.87753 0
M  V30 3722 H 349.343 0.875741 -3.31942 0
M  V30 3723 N 351.788 1.33704 0.83433 0
M  V30 3724 C 353.016 1.28467 1.62185 0
M  V30 3725 C 353.431 -0.143526 1.88254 0
M  V30 3726 O 352.788 -1.08709 1.4659 0
M  V30 3727 C 352.839 2.06174 2.96942 0
M  V30 3728 O 352.56 3.43422 2.72016 0
M  V30 3729 C 354.061 2.08201 3.91366 0
M  V30 3730 H 351.281 0.4424 0.504503 0
M  V30 3731 H 353.825 1.76145 1.03891 0
M  V30 3732 H 351.98 1.62167 3.51825 0
M  V30 3733 H 352.394 3.83453 3.57861 0
M  V30 3734 H 353.868 2.67017 4.83121 0
M  V30 3735 H 354.345 1.07343 4.2588 0
M  V30 3736 H 354.951 2.52246 3.42421 0
M  V30 3737 N 353.266 -1.05314 1.17247 0
M  V30 3738 C 354.494 -1.81971 0.984593 0
M  V30 3739 C 354.909 -1.82929 -0.467166 0
M  V30 3740 O 354.266 -1.25564 -1.32438 0
M  V30 3741 C 354.317 -3.28143 1.51672 0
M  V30 3742 O 354.038 -3.27347 2.91163 0
M  V30 3743 C 355.539 -4.21493 1.37326 0
M  V30 3744 H 352.759 -0.573455 0.348411 0
M  V30 3745 H 355.303 -1.32808 1.55506 0
M  V30 3746 H 353.458 -3.74582 0.988302 0
M  V30 3747 H 353.872 -4.18824 3.15732 0
M  V30 3748 H 355.346 -5.22043 1.79375 0
M  V30 3749 H 355.823 -4.38031 0.320169 0
M  V30 3750 H 356.429 -3.80909 1.89178 0
M  V30 3751 N 354.744 -0.972509 -1.24016 0
M  V30 3752 C 355.992 -0.635776 -1.91839 0
M  V30 3753 C 356.313 0.832312 -1.76345 0
M  V30 3754 O 355.583 1.5946 -1.13795 0
M  V30 3755 H 354.163 -0.232157 -0.710009 0
M  V30 3756 H 356.825 -1.23462 -1.50809 0
M  V30 3757 H 355.921 -0.880545 -2.99421 0
M  V30 3758 N 356.222 1.38976 -0.743202 0
M  V30 3759 C 357.471 1.99581 -0.291592 0
M  V30 3760 C 357.784 1.59656 1.13001 0
M  V30 3761 O 358.99 2.13157 1.68156 0
M  V30 3762 C 357.446 3.56813 -0.470391 0
M  V30 3763 C 357.054 4.05695 -1.90041 0
M  V30 3764 C 358.798 4.24423 -0.0809709 0
M  V30 3765 C 356.705 5.5553 -2.02832 0
M  V30 3766 H 355.635 0.746615 -0.105272 0
M  V30 3767 H 358.286 1.58872 -0.918258 0
M  V30 3768 H 356.668 3.95359 0.225299 0
M  V30 3769 H 357.842 3.78464 -2.62872 0
M  V30 3770 H 356.157 3.50775 -2.24379 0
M  V30 3771 H 358.754 5.34474 -0.155445 0
M  V30 3772 H 359.097 4.04962 0.96497 0
M  V30 3773 H 359.63 3.9108 -0.728124 0
M  V30 3774 H 356.369 5.79881 -3.05643 0
M  V30 3775 H 355.889 5.84537 -1.34448 0
M  V30 3776 H 357.568 6.21069 -1.81335 0
M  V30 3777 N 357.7 0.491464 1.49741 0
M  V30 3778 C 358.947 -0.0564256 2.02421 0
M  V30 3779 C 359.275 -1.37872 1.37192 0
M  V30 3780 O 358.53 -1.89375 0.493508 0
M  V30 3781 C 358.829 -0.267329 3.56399 0
M  V30 3782 C 358.495 0.975775 4.40215 0
M  V30 3783 C 357.157 1.31655 4.62839 0
M  V30 3784 C 359.509 1.80251 4.89039 0
M  V30 3785 C 356.837 2.48375 5.31532 0
M  V30 3786 C 359.189 2.96116 5.59015 0
M  V30 3787 C 357.853 3.30585 5.79888 0
M  V30 3788 H 357.123 -0.0206476 0.740712 0
M  V30 3789 H 359.77 0.649686 1.80143 0
M  V30 3790 H 358.075 -1.05588 3.77304 0
M  V30 3791 H 359.772 -0.705549 3.94744 0
M  V30 3792 H 356.362 0.700315 4.2284 0
M  V30 3793 H 360.546 1.55239 4.71396 0
M  V30 3794 H 355.802 2.7533 5.45897 0
M  V30 3795 H 359.976 3.60509 5.95824 0
M  V30 3796 H 357.603 4.21132 6.32892 0
M  V30 3797 N 359.178 -1.55987 0.224894 0
M  V30 3798 C 360.589 -1.84553 -0.282345 0
M  V30 3799 C 360.94 -1.14634 -1.59227 0
M  V30 3800 O 360.065 -0.417155 -2.12341 0
M  V30 3801 C 360.66 -3.348 -0.519062 0
M  V30 3802 C 359.219 -3.63671 -0.970604 0
M  V30 3803 C 358.366 -2.77277 -0.0355261 0
M  V30 3804 H 361.317 -1.52245 0.448006 0
M  V30 3805 H 361.338 -3.55187 -1.36463 0
M  V30 3806 H 360.85 -3.8566 0.43449 0
M  V30 3807 H 358.951 -3.1827 -1.9374 0
M  V30 3808 H 359.064 -4.71631 -0.842698 0
M  V30 3809 H 357.428 -2.48846 -0.542927 0
M  V30 3810 H 358.211 -3.30937 0.913003 0
M  V30 3811 N 360.656 0.0484629 -1.57525 0
M  V30 3812 C 361.904 0.741657 -1.88 0
M  V30 3813 C 362.225 1.76918 -0.820054 0
M  V30 3814 O 361.495 1.95335 0.148661 0
M  V30 3815 H 360.075 0.276908 -0.69378 0
M  V30 3816 H 362.737 0.019013 -1.94891 0
M  V30 3817 H 361.833 1.24336 -2.86264 0
M  V30 3818 N 362.134 1.5431 0.320358 0
M  V30 3819 C 363.411 1.63322 1.07635 0
M  V30 3820 C 363.791 0.46912 2.05821 0
M  V30 3821 O 363.139 -0.536274 2.22118 0
M  V30 3822 C 363.349 3.00465 1.77544 0
M  V30 3823 C 364.697 3.56621 2.30449 0
M  V30 3824 O 365.721 3.02791 1.87606 0
M  V30 3825 O 364.58 4.5083 3.08892 0
M  V30 3826 H 361.674 0.661502 0.496331 0
M  V30 3827 H 364.22 1.66656 0.319992 0
M  V30 3828 H 362.992 3.76629 1.06143 0
M  V30 3829 H 362.615 3.00824 2.59982 0
M  V30 3830 N 363.613 -0.582584 1.46437 0
M  V30 3831 C 364.861 -1.33814 1.51453 0
M  V30 3832 C 365.182 -1.94277 0.167792 0
M  V30 3833 O 364.452 -1.78566 -0.805677 0
M  V30 3834 H 363.032 -0.496838 0.557818 0
M  V30 3835 H 365.694 -0.682281 1.82568 0
M  V30 3836 H 364.79 -2.14479 2.26728 0
M  V30 3837 N 365.091 -1.34144 -0.827227 0
M  V30 3838 C 366.316 -1.29476 -1.62021 0
M  V30 3839 C 366.741 0.129292 -1.87655 0
M  V30 3840 O 366.099 1.08967 -1.449 0
M  V30 3841 C 366.147 -2.08702 -2.94068 0
M  V30 3842 O 365.251 -1.45359 -3.85933 0
M  V30 3843 H 364.592 -0.444881 -0.492927 0
M  V30 3844 H 367.122 -1.76882 -1.02829 0
M  V30 3845 H 367.132 -2.19898 -3.43669 0
M  V30 3846 H 365.807 -3.12241 -2.74734 0
M  V30 3847 H 364.384 -1.42879 -3.44442 0
M  V30 3848 N 366.569 1.04691 -1.17803 0
M  V30 3849 C 367.817 1.7743 -0.967617 0
M  V30 3850 C 368.138 1.88359 0.504574 0
M  V30 3851 O 367.408 1.40402 1.36617 0
M  V30 3852 H 365.988 0.657242 -0.355024 0
M  V30 3853 H 368.65 1.2638 -1.48371 0
M  V30 3854 H 367.746 2.78924 -1.40027 0
M  V30 3855 N 368.047 0.979072 1.23499 0
M  V30 3856 C 368.994 0.517904 2.24914 0
M  V30 3857 C 369.964 -0.442525 1.60097 0
M  V30 3858 O 371.149 -0.350365 1.87556 0
M  V30 3859 C 368.289 -0.174813 3.44657 0
M  V30 3860 C 367.402 0.825721 4.24035 0
M  V30 3861 C 366.537 0.107946 5.3109 0
M  V30 3862 C 365.576 1.09778 6.02175 0
M  V30 3863 N 364.713 0.40925 7.00906 0
M  V30 3864 H 369.553 1.38751 2.63727 0
M  V30 3865 H 367.09 0.695303 1.2963 0
M  V30 3866 H 369.048 -0.593233 4.12961 0
M  V30 3867 H 367.678 -1.0083 3.06648 0
M  V30 3868 H 366.73 1.36253 3.55161 0
M  V30 3869 H 368.042 1.58005 4.73113 0
M  V30 3870 H 367.196 -0.367904 6.05583 0
M  V30 3871 H 365.935 -0.678994 4.8295 0
M  V30 3872 H 364.94 1.5844 5.26476 0
M  V30 3873 H 366.165 1.88536 6.52404 0
M  V30 3874 H 364.111 -0.358506 6.5502 0
M  V30 3875 H 364.028 1.10226 7.47921 0
M  V30 3876 H 365.296 -0.0442557 7.79487 0
M  V30 3877 N 369.525 -1.3858 0.750561 0
M  V30 3878 C 370.457 -2.29057 0.0810714 0
M  V30 3879 C 371.47 -1.47596 -0.686973 0
M  V30 3880 O 372.659 -1.70495 -0.528563 0
M  V30 3881 C 369.759 -3.26475 -0.909247 0
M  V30 3882 C 368.932 -4.36945 -0.199478 0
M  V30 3883 C 367.991 -5.14572 -1.10011 0
M  V30 3884 O 367.017 -5.66321 -0.57177 0
M  V30 3885 N 368.219 -5.27262 -2.42849 0
M  V30 3886 H 370.984 -2.87153 0.858087 0
M  V30 3887 H 368.545 -1.50328 0.60109 0
M  V30 3888 H 370.537 -3.75285 -1.51471 0
M  V30 3889 H 369.107 -2.69298 -1.58736 0
M  V30 3890 H 368.327 -3.8981 0.586664 0
M  V30 3891 H 369.615 -5.07963 0.291783 0
M  V30 3892 H 369.013 -4.86763 -2.88233 0
M  V30 3893 H 367.57 -5.79456 -2.98453 0
M  V30 3894 N 371.003 -0.499398 -1.49478 0
M  V30 3895 C 371.913 0.284489 -2.32869 0
M  V30 3896 C 372.929 0.968885 -1.44529 0
M  V30 3897 O 374.105 0.95062 -1.77553 0
M  V30 3898 C 371.17 1.33594 -3.19928 0
M  V30 3899 C 370.231 0.665149 -4.24116 0
M  V30 3900 C 369.464 1.6665 -5.07014 0
M  V30 3901 O 369.687 2.89618 -4.91404 0
M  V30 3902 O 368.621 1.22271 -5.8935 0
M  V30 3903 H 372.447 -0.39802 -3.01081 0
M  V30 3904 H 370.032 -0.260758 -1.47107 0
M  V30 3905 H 371.914 1.94431 -3.73864 0
M  V30 3906 H 370.589 2.0014 -2.54412 0
M  V30 3907 H 369.496 0.0170769 -3.74096 0
M  V30 3908 H 370.829 0.0421555 -4.92182 0
M  V30 3909 N 372.481 1.55866 -0.233164 0
M  V30 3910 C 373.709 2.02998 0.399905 0
M  V30 3911 C 374.124 1.11274 1.52524 0
M  V30 3912 O 373.481 0.124528 1.82075 0
M  V30 3913 C 373.532 3.4958 0.920639 0
M  V30 3914 O 373.253 4.37808 -0.159834 0
M  V30 3915 C 374.754 4.12411 1.62578 0
M  V30 3916 H 371.974 0.664006 0.0966281 0
M  V30 3917 H 374.518 2.0143 -0.353013 0
M  V30 3918 H 372.673 3.51727 1.62379 0
M  V30 3919 H 373.087 5.23981 0.23337 0
M  V30 3920 H 374.561 5.16711 1.94201 0
M  V30 3921 H 375.038 3.5809 2.54299 0
M  V30 3922 H 375.644 4.14148 0.967553 0
M  V30 3923 N 373.959 -0.0401083 1.57549 0
M  V30 3924 C 375.375 -0.395556 1.54621 0
M  V30 3925 C 375.575 -1.77281 0.957799 0
M  V30 3926 O 374.631 -2.45888 0.574031 0
M  V30 3927 C 375.944 -0.307535 2.99123 0
M  V30 3928 C 377.492 -0.385425 3.10618 0
M  V30 3929 C 377.967 -0.326973 4.56831 0
M  V30 3930 N 379.458 -0.386102 4.61588 0
M  V30 3931 C 380.193 -0.363591 5.72246 0
M  V30 3932 N 379.689 -0.29402 6.92176 0
M  V30 3933 N 381.482 -0.412503 5.60584 0
M  V30 3934 H 373.633 0.861325 1.94152 0
M  V30 3935 H 375.896 0.326445 0.890021 0
M  V30 3936 H 375.602 0.638461 3.45856 0
M  V30 3937 H 375.476 -1.10552 3.60636 0
M  V30 3938 H 377.863 -1.32185 2.63839 0
M  V30 3939 H 377.944 0.44171 2.51957 0
M  V30 3940 H 377.588 0.605738 5.04275 0
M  V30 3941 H 377.518 -1.17207 5.13391 0
M  V30 3942 H 380.009 -0.442832 3.75296 0
M  V30 3943 H 380.322 -0.28164 7.72287 0
M  V30 3944 H 378.667 -0.260232 6.94513 0
M  V30 3945 H 381.858 -0.464769 4.65787 0
M  V30 3946 H 382.031 -0.391492 6.46816 0
M  V30 3947 N 375.437 -1.54477 -0.31217 0
M  V30 3948 C 376.4 -1.83923 -1.36766 0
M  V30 3949 C 377.4 -0.711563 -1.44199 0
M  V30 3950 O 378.59 -0.979866 -1.44029 0
M  V30 3951 C 375.722 -2.0095 -2.75376 0
M  V30 3952 H 376.915 -2.78239 -1.11906 0
M  V30 3953 H 374.468 -1.46369 -0.548257 0
M  V30 3954 H 375.203 -1.08883 -3.05475 0
M  V30 3955 H 374.988 -2.83018 -2.71373 0
M  V30 3956 H 376.478 -2.2514 -3.51713 0
M  V30 3957 N 376.915 0.57481 -1.46744 0
M  V30 3958 C 378.163 1.33009 -1.52161 0
M  V30 3959 C 378.484 1.94185 -0.178092 0
M  V30 3960 O 377.754 1.7899 0.796196 0
M  V30 3961 H 376.334 0.493873 -0.560445 0
M  V30 3962 H 378.996 0.672589 -1.82927 0
M  V30 3963 H 378.092 2.13273 -2.27862 0
M  V30 3964 N 378.394 1.34581 0.820102 0
M  V30 3965 C 379.64 1.27285 1.57881 0
M  V30 3966 C 379.973 -0.156137 1.93571 0
M  V30 3967 O 379.248 -1.10222 1.60254 0
M  V30 3968 C 379.531 2.16639 2.87645 0
M  V30 3969 C 379.384 3.68088 2.58517 0
M  V30 3970 C 380.703 2.05378 3.8924 0
M  V30 3971 H 377.822 0.463714 0.572833 0
M  V30 3972 H 380.464 1.64859 0.944539 0
M  V30 3973 H 378.614 1.84725 3.41773 0
M  V30 3974 H 380.286 4.10382 2.10676 0
M  V30 3975 H 378.529 3.89038 1.91917 0
M  V30 3976 H 379.2 4.2598 3.51063 0
M  V30 3977 H 381.676 2.33404 3.44473 0
M  V30 3978 H 380.552 2.7012 4.77835 0
M  V30 3979 H 380.813 1.0316 4.29896 0
M  V30 3980 N 379.872 -1.04064 1.18357 0
M  V30 3981 C 381.118 -1.77528 0.980397 0
M  V30 3982 C 381.451 -1.87948 -0.48879 0
M  V30 3983 O 380.726 -1.3876 -1.36293 0
M  V30 3984 C 381.009 -3.20797 1.63588 0
M  V30 3985 C 380.862 -3.1832 3.17793 0
M  V30 3986 C 382.181 -4.18911 1.34914 0
M  V30 3987 H 379.3 -0.644443 0.357578 0
M  V30 3988 H 381.942 -1.2156 1.46024 0
M  V30 3989 H 380.092 -3.68586 1.22788 0
M  V30 3990 H 381.764 -2.78521 3.67728 0
M  V30 3991 H 380.007 -2.56351 3.49952 0
M  V30 3992 H 380.678 -4.19489 3.58794 0
M  V30 3993 H 383.154 -3.7967 1.70265 0
M  V30 3994 H 382.03 -5.17374 1.83346 0
M  V30 3995 H 382.291 -4.41262 0.272027 0
M  V30 3996 N 381.35 -0.985608 -1.22978 0
M  V30 3997 C 382.3 -0.50118 -2.22423 0
M  V30 3998 C 383.284 0.426649 -1.5514 0
M  V30 3999 O 384.476 0.254656 -1.75159 0
M  V30 4000 C 381.605 0.190003 -3.42774 0
M  V30 4001 C 380.691 -0.757703 -4.17276 0
M  V30 4002 N 381.082 -1.90251 -4.68656 0
M  V30 4003 C 379.38 -0.57209 -4.42316 0
M  V30 4004 C 380.081 -2.49676 -5.25392 0
M  V30 4005 N 379.057 -1.78013 -5.13627 0
M  V30 4006 H 382.859 -1.37441 -2.59783 0
M  V30 4007 H 380.373 -0.846941 -1.38567 0
M  V30 4008 H 382.37 0.55439 -4.13197 0
M  V30 4009 H 381.03 1.05946 -3.06929 0
M  V30 4010 H 382.041 -2.28354 -4.64839 0
M  V30 4011 H 378.718 0.251909 -4.16739 0
M  V30 4012 H 380.108 -3.46384 -5.75732 0
M  V30 4013 N 382.828 1.3818 -0.7579 0
M  V30 4014 C 384.076 1.99624 -0.315361 0
M  V30 4015 C 384.397 1.60464 1.10799 0
M  V30 4016 O 383.667 0.863507 1.75842 0
M  V30 4017 H 382.247 0.73831 -0.113611 0
M  V30 4018 H 384.909 1.68878 -0.972952 0
M  V30 4019 H 384.005 3.09754 -0.381931 0
M  V30 4020 N 384.306 0.507319 1.49211 0
M  V30 4021 C 385.269 -0.256763 2.27757 0
M  V30 4022 C 386.269 -0.888287 1.34038 0
M  V30 4023 O 387.459 -0.751841 1.5714 0
M  V30 4024 C 384.591 -1.36905 3.12202 0
M  V30 4025 H 385.784 0.432557 2.96764 0
M  V30 4026 H 383.337 0.262488 1.5408 0
M  V30 4027 H 384.072 -2.09233 2.47775 0
M  V30 4028 H 383.857 -0.921599 3.81115 0
M  V30 4029 H 385.347 -1.9071 3.7151 0
M  V30 4030 N 385.784 -1.5574 0.241426 0
M  V30 4031 C 387.033 -1.97986 -0.385295 0
M  V30 4032 C 387.346 -1.13267 -1.59468 0
M  V30 4033 O 388.552 -1.45501 -2.2922 0
M  V30 4034 C 387.008 -3.52275 -0.736884 0
M  V30 4035 C 386.616 -4.45726 0.450796 0
M  V30 4036 C 388.36 -4.03189 -1.3281 0
M  V30 4037 C 386.267 -5.91352 0.0756662 0
M  V30 4038 H 385.197 -0.739386 -0.147731 0
M  V30 4039 H 387.848 -1.80308 0.340779 0
M  V30 4040 H 386.23 -3.65628 -1.52094 0
M  V30 4041 H 387.404 -4.44131 1.22819 0
M  V30 4042 H 385.719 -4.05264 0.956573 0
M  V30 4043 H 388.316 -5.09505 -1.62201 0
M  V30 4044 H 388.659 -3.50212 -2.25071 0
M  V30 4045 H 389.192 -3.93141 -0.607069 0
M  V30 4046 H 385.931 -6.48354 0.965272 0
M  V30 4047 H 385.451 -5.96095 -0.665635 0
M  V30 4048 H 387.13 -6.46084 -0.344075 0
M  V30 4049 N 387.262 0.0317525 -1.57568 0
M  V30 4050 C 388.51 0.721676 -1.88776 0
M  V30 4051 C 388.831 1.76039 -0.838772 0
M  V30 4052 O 388.101 1.95482 0.127935 0
M  V30 4053 H 386.681 0.269534 -0.696678 0
M  V30 4054 H 389.343 -0.00165879 -1.949 0
M  V30 4055 H 388.439 1.21293 -2.87566 0
M  V30 4056 N 388.74 1.54641 0.303973 0
M  V30 4057 C 389.988 1.73437 1.0375 0
M  V30 4058 C 390.309 0.521449 1.87899 0
M  V30 4059 O 389.579 -0.46432 1.90318 0
M  V30 4060 H 388.159 0.639518 0.386039 0
M  V30 4061 H 390.821 1.91988 0.335675 0
M  V30 4062 H 389.917 2.62235 1.69231 0
M  V30 4063 N 390.218 -0.567019 1.47046 0
M  V30 4064 C 391.181 -1.65696 1.58359 0
M  V30 4065 C 392.181 -1.54097 0.459441 0
M  V30 4066 O 393.371 -1.58432 0.724225 0
M  V30 4067 C 390.503 -3.05197 1.51879 0
M  V30 4068 H 391.696 -1.57019 2.5551 0
M  V30 4069 H 389.249 -0.786148 1.3509 0
M  V30 4070 H 389.984 -3.19417 0.560673 0
M  V30 4071 H 389.769 -3.15025 2.33455 0
M  V30 4072 H 391.259 -3.84511 1.62913 0
M  V30 4073 N 391.696 -1.35014 -0.812953 0
M  V30 4074 C 392.944 -1.27678 -1.56661 0
M  V30 4075 C 393.265 0.150359 -1.94419 0
M  V30 4076 O 392.535 1.08532 -1.63088 0
M  V30 4077 H 391.115 -0.469602 -0.580933 0
M  V30 4078 H 393.777 -1.69043 -0.970076 0
M  V30 4079 H 392.873 -1.88833 -2.48492 0
M  V30 4080 N 393.175 1.03435 -1.18907 0
M  V30 4081 C 394.421 1.77005 -0.989798 0
M  V30 4082 C 394.754 1.88205 0.478816 0
M  V30 4083 O 394.029 1.39481 1.35556 0
M  V30 4084 C 394.312 3.19925 -1.65287 0
M  V30 4085 C 394.165 3.1663 -3.19477 0
M  V30 4086 C 395.484 4.18189 -1.37134 0
M  V30 4087 H 392.603 0.642538 -0.360991 0
M  V30 4088 H 395.245 1.20784 -1.46667 0
M  V30 4089 H 393.395 3.67929 -1.24741 0
M  V30 4090 H 395.067 2.76567 -3.692 0
M  V30 4091 H 393.31 2.54491 -3.51307 0
M  V30 4092 H 393.981 4.1758 -3.61013 0
M  V30 4093 H 396.457 3.78761 -1.72276 0
M  V30 4094 H 395.333 5.16394 -1.86087 0
M  V30 4095 H 395.594 4.41112 -0.295424 0
M  V30 4096 N 394.653 0.992116 1.22453 0
M  V30 4097 C 395.881 0.685944 1.95198 0
M  V30 4098 C 396.296 -0.749233 1.73297 0
M  V30 4099 O 395.653 -1.50549 1.03156 0
M  V30 4100 C 395.704 0.981395 3.47924 0
M  V30 4101 O 395.425 2.36018 3.6909 0
M  V30 4102 C 396.926 0.692815 4.37853 0
M  V30 4103 H 394.146 0.253821 0.621141 0
M  V30 4104 H 396.69 1.32668 1.55626 0
M  V30 4105 H 394.845 0.386481 3.85467 0
M  V30 4106 H 395.259 2.45884 4.63294 0
M  V30 4107 H 396.733 0.949818 5.43767 0
M  V30 4108 H 397.21 -0.373181 4.37612 0
M  V30 4109 H 397.816 1.26874 4.05935 0
M  V30 4110 N 396.131 -1.37776 0.765217 0
M  V30 4111 C 397.094 -2.28686 0.153416 0
M  V30 4112 C 398.094 -1.47727 -0.635081 0
M  V30 4113 O 399.284 -1.68027 -0.459632 0
M  V30 4114 C 396.416 -3.31608 -0.790495 0
M  V30 4115 H 397.609 -2.84297 0.954723 0
M  V30 4116 H 395.162 -1.46932 0.53299 0
M  V30 4117 H 395.897 -2.81109 -1.61705 0
M  V30 4118 H 395.682 -3.9144 -0.227348 0
M  V30 4119 H 397.172 -3.99559 -1.21419 0
M  V30 4120 N 397.609 -0.515225 -1.4894 0
M  V30 4121 C 398.539 0.244628 -2.32215 0
M  V30 4122 C 399.52 0.949136 -1.41157 0
M  V30 4123 O 400.705 0.937783 -1.70057 0
M  V30 4124 C 397.835 1.30096 -3.22013 0
M  V30 4125 C 396.789 0.715486 -4.21977 0
M  V30 4126 C 396.115 1.87339 -5.00808 0
M  V30 4127 C 397.415 -0.302982 -5.2142 0
M  V30 4128 H 399.109 -0.450501 -2.95991 0
M  V30 4129 H 396.655 -0.218098 -1.42339 0
M  V30 4130 H 398.608 1.84037 -3.79089 0
M  V30 4131 H 397.332 2.02547 -2.56207 0
M  V30 4132 H 395.991 0.197715 -3.66066 0
M  V30 4133 H 395.639 2.58592 -4.31438 0
M  V30 4134 H 395.339 1.48764 -5.68457 0
M  V30 4135 H 396.863 2.41686 -5.60732 0
M  V30 4136 H 398.277 0.148802 -5.73107 0
M  V30 4137 H 396.674 -0.60532 -5.97039 0
M  V30 4138 H 397.744 -1.21395 -4.69459 0
M  V30 4139 N 399.087 1.5561 -0.249682 0
M  V30 4140 C 400.017 2.24477 0.642826 0
M  V30 4141 C 400.998 1.22601 1.17911 0
M  V30 4142 O 402.183 1.5126 1.21795 0
M  V30 4143 C 399.313 2.94638 1.83863 0
M  V30 4144 C 398.267 4.03227 1.435 0
M  V30 4145 C 397.593 4.60828 2.71186 0
M  V30 4146 C 398.893 5.18796 0.604002 0
M  V30 4147 H 400.587 2.99321 0.0685625 0
M  V30 4148 H 398.133 1.43965 0.0315363 0
M  V30 4149 H 400.086 3.41517 2.46868 0
M  V30 4150 H 398.81 2.17287 2.43832 0
M  V30 4151 H 397.469 3.57121 0.828275 0
M  V30 4152 H 397.117 3.80174 3.29358 0
M  V30 4153 H 396.817 5.34132 2.44901 0
M  V30 4154 H 398.341 5.10442 3.35084 0
M  V30 4155 H 399.755 5.61883 1.13842 0
M  V30 4156 H 398.152 5.98506 0.437097 0
M  V30 4157 H 399.222 4.83384 -0.383147 0
M  V30 4158 N 400.565 -0.0233959 1.57583 0
M  V30 4159 C 401.528 -1.00693 2.05897 0
M  V30 4160 C 402.528 -1.28693 0.964092 0
M  V30 4161 O 403.718 -1.23602 1.22753 0
M  V30 4162 C 400.85 -2.33825 2.4807 0
M  V30 4163 H 402.043 -0.589476 2.9405 0
M  V30 4164 H 399.596 -0.270354 1.53944 0
M  V30 4165 H 400.331 -2.80307 1.6309 0
M  V30 4166 H 400.116 -2.1483 3.2801 0
M  V30 4167 H 401.606 -3.04426 2.85857 0
M  V30 4168 N 402.043 -1.548 -0.295768 0
M  V30 4169 C 402.973 -1.89115 -1.36959 0
M  V30 4170 C 403.954 -0.75059 -1.52644 0
M  V30 4171 O 405.139 -1.00678 -1.66065 0
M  V30 4172 C 402.269 -2.14307 -2.73295 0
M  V30 4173 C 401.223 -3.30151 -2.72368 0
M  V30 4174 C 400.549 -3.40772 -4.12042 0
M  V30 4175 C 401.849 -4.67126 -2.33646 0
M  V30 4176 H 403.543 -2.79053 -1.08488 0
M  V30 4177 H 401.089 -1.34266 -0.520443 0
M  V30 4178 H 403.042 -2.36898 -3.48507 0
M  V30 4179 H 401.766 -1.21145 -3.03301 0
M  V30 4180 H 400.425 -3.0749 -1.99613 0
M  V30 4181 H 400.073 -2.45117 -4.39234 0
M  V30 4182 H 399.773 -4.18645 -4.12322 0
M  V30 4183 H 401.297 -3.6563 -4.89027 0
M  V30 4184 H 402.711 -4.89414 -2.98575 0
M  V30 4185 H 401.108 -5.47751 -2.45129 0
M  V30 4186 H 402.178 -4.67489 -1.28772 0
M  V30 4187 N 403.521 0.559213 -1.47345 0
M  V30 4188 C 404.761 1.32728 -1.55444 0
M  V30 4189 C 405.125 1.90838 -0.210895 0
M  V30 4190 O 406.326 2.68282 -0.166719 0
M  V30 4191 C 404.597 2.4092 -2.63993 0
M  V30 4192 S 406.156 3.2784 -2.91661 0
M  V30 4193 H 402.974 0.451883 -0.548929 0
M  V30 4194 H 405.576 0.640404 -1.84714 0
M  V30 4195 H 404.28 1.9666 -3.60212 0
M  V30 4196 H 403.811 3.14351 -2.36531 0
M  V30 4197 H 405.826 4.40341 -2.28722 0
M  V30 4198 N 404.999 1.35443 0.805782 0
M  V30 4199 C 405.929 1.31095 1.93226 0
M  V30 4200 C 406.91 0.185244 1.69088 0
M  V30 4201 O 408.095 0.380332 1.90439 0
M  V30 4202 C 405.225 1.08299 3.29983 0
M  V30 4203 C 404.179 2.17519 3.68605 0
M  V30 4204 C 403.505 1.79887 5.03532 0
M  V30 4205 C 404.805 3.5949 3.78898 0
M  V30 4206 H 406.499 2.25352 1.97122 0
M  V30 4207 H 404.045 1.0848 0.946996 0
M  V30 4208 H 405.998 1.03897 4.08391 0
M  V30 4209 H 404.722 0.104885 3.26432 0
M  V30 4210 H 403.381 2.2102 2.92482 0
M  V30 4211 H 403.029 0.80693 4.96485 0
M  V30 4212 H 402.729 2.53001 5.30344 0
M  V30 4213 H 404.253 1.77011 5.84379 0
M  V30 4214 H 405.667 3.58307 4.47536 0
M  V30 4215 H 404.064 4.31371 4.1718 0
M  V30 4216 H 405.134 3.95584 2.80431 0
M  V30 4217 N 406.477 -1.02803 1.19454 0
M  V30 4218 C 407.717 -1.77769 1.00883 0
M  V30 4219 C 408.081 -1.86596 -0.45233 0
M  V30 4220 O 409.282 -2.57895 -0.757877 0
M  V30 4221 C 407.553 -3.16486 1.66046 0
M  V30 4222 S 409.112 -4.07632 1.62424 0
M  V30 4223 H 405.93 -0.611949 0.361993 0
M  V30 4224 H 408.532 -1.23175 1.51816 0
M  V30 4225 H 407.236 -3.0768 2.7159 0
M  V30 4226 H 406.767 -3.76156 1.15196 0
M  V30 4227 H 408.782 -4.91937 0.64903 0
M  V30 4228 N 407.956 -0.998596 -1.21925 0
M  V30 4229 C 408.886 -0.573688 -2.26343 0
M  V30 4230 C 409.867 0.402296 -1.65274 0
M  V30 4231 O 411.052 0.291683 -1.91997 0
M  V30 4232 C 408.182 0.106839 -3.47136 0
M  V30 4233 C 407.136 -0.788269 -4.20678 0
M  V30 4234 C 406.462 0.0254927 -5.34694 0
M  V30 4235 C 407.762 -2.08784 -4.78755 0
M  V30 4236 H 409.456 -1.44651 -2.62138 0
M  V30 4237 H 407.002 -0.696975 -1.26009 0
M  V30 4238 H 408.955 0.415531 -4.19346 0
M  V30 4239 H 407.679 1.01424 -3.10452 0
M  V30 4240 H 406.338 -1.08069 -3.50309 0
M  V30 4241 H 405.986 0.933989 -4.94253 0
M  V30 4242 H 405.686 -0.570437 -5.84825 0
M  V30 4243 H 407.21 0.328147 -6.09718 0
M  V30 4244 H 408.624 -1.84272 -5.42878 0
M  V30 4245 H 407.021 -2.63307 -5.39249 0
M  V30 4246 H 408.091 -2.76284 -3.98491 0
M  V30 4247 N 409.434 1.37368 -0.772513 0
M  V30 4248 C 410.683 1.98918 -0.333861 0
M  V30 4249 C 410.996 1.62017 1.09589 0
M  V30 4250 O 412.202 2.16676 1.63596 0
M  V30 4251 C 410.658 3.55735 -0.545971 0
M  V30 4252 C 410.266 4.01573 -1.98603 0
M  V30 4253 C 412.01 4.24156 -0.170979 0
M  V30 4254 C 409.917 5.51102 -2.1457 0
M  V30 4255 H 408.847 0.744214 -0.121085 0
M  V30 4256 H 411.498 1.56888 -0.95175 0
M  V30 4257 H 409.88 3.95748 0.141387 0
M  V30 4258 H 411.054 3.72803 -2.7084 0
M  V30 4259 H 409.369 3.45937 -2.31769 0
M  V30 4260 H 411.966 5.34024 -0.26878 0
M  V30 4261 H 412.309 4.06917 0.878855 0
M  V30 4262 H 412.842 3.89447 -0.810914 0
M  V30 4263 H 409.581 5.73268 -3.17875 0
M  V30 4264 H 409.101 5.81554 -1.46817 0
M  V30 4265 H 410.78 6.17083 -1.94468 0
M  V30 4266 N 410.912 0.523116 1.48665 0
M  V30 4267 C 412.159 -0.0134763 2.02496 0
M  V30 4268 C 412.487 -1.3493 1.40086 0
M  V30 4269 O 411.742 -1.88286 0.533567 0
M  V30 4270 C 412.041 -0.191671 3.56886 0
M  V30 4271 C 411.707 1.06893 4.38046 0
M  V30 4272 C 410.369 1.41443 4.59943 0
M  V30 4273 C 412.721 1.90584 4.85106 0
M  V30 4274 C 410.049 2.59594 5.26144 0
M  V30 4275 C 412.401 3.07907 5.52609 0
M  V30 4276 C 411.065 3.42811 5.72745 0
M  V30 4277 H 410.335 -0.00493133 0.740984 0
M  V30 4278 H 412.982 0.687751 1.78724 0
M  V30 4279 H 411.287 -0.97561 3.79459 0
M  V30 4280 H 412.984 -0.621659 3.96152 0
M  V30 4281 H 409.574 0.789848 4.21259 0
M  V30 4282 H 413.758 1.65203 4.67997 0
M  V30 4283 H 409.014 2.86847 5.39934 0
M  V30 4284 H 413.188 3.73066 5.88043 0
M  V30 4285 H 410.815 4.34462 6.23816 0
M  V30 4286 N 412.39 -1.55475 0.257931 0
M  V30 4287 C 413.637 -1.99207 -0.363728 0
M  V30 4288 C 413.965 -1.1462 -1.57139 0
M  V30 4289 O 413.22 -0.199653 -1.94679 0
M  V30 4290 C 413.519 -3.48183 -0.806433 0
M  V30 4291 C 413.185 -4.49936 0.294684 0
M  V30 4292 C 411.847 -4.77481 0.597076 0
M  V30 4293 C 414.199 -5.10769 1.03751 0
M  V30 4294 C 411.527 -5.63132 1.64618 0
M  V30 4295 C 413.879 -5.97558 2.07622 0
M  V30 4296 C 412.543 -6.23432 2.38514 0
M  V30 4297 H 411.813 -0.728949 -0.133097 0
M  V30 4298 H 414.46 -1.8793 0.368059 0
M  V30 4299 H 412.765 -3.56848 -1.61761 0
M  V30 4300 H 414.462 -3.79415 -1.29789 0
M  V30 4301 H 411.052 -4.28572 0.0488649 0
M  V30 4302 H 415.236 -4.89527 0.817149 0
M  V30 4303 H 410.492 -5.8143 1.89074 0
M  V30 4304 H 414.666 -6.43735 2.65666 0
M  V30 4305 H 412.293 -6.89594 3.19943 0
M  V30 4306 N 413.868 0.0150385 -1.57593 0
M  V30 4307 C 415.117 0.702115 -1.89085 0
M  V30 4308 C 415.43 1.75764 -0.858277 0
M  V30 4309 O 416.636 2.49829 -1.0629 0
M  V30 4310 C 415.092 1.29992 -3.35604 0
M  V30 4311 C 414.7 0.280007 -4.47124 0
M  V30 4312 C 416.444 1.96606 -3.76227 0
M  V30 4313 C 414.351 0.886949 -5.84711 0
M  V30 4314 H 413.281 0.265997 -0.705522 0
M  V30 4315 H 415.932 -0.0430408 -1.8345 0
M  V30 4316 H 414.314 2.09525 -3.36029 0
M  V30 4317 H 415.488 -0.489631 -4.58191 0
M  V30 4318 H 413.803 -0.284835 -4.15425 0
M  V30 4319 H 416.4 2.42893 -4.76347 0
M  V30 4320 H 416.743 2.79024 -3.08952 0
M  V30 4321 H 417.276 1.23828 -3.78036 0
M  V30 4322 H 414.015 0.101876 -6.55421 0
M  V30 4323 H 413.535 1.6261 -5.77337 0
M  V30 4324 H 415.214 1.39011 -6.3189 0
M  V30 4325 N 415.346 1.54954 0.287554 0
M  V30 4326 C 416.592 1.75132 1.02257 0
M  V30 4327 C 416.925 0.542858 1.86458 0
M  V30 4328 O 416.2 -0.459856 1.88986 0
M  V30 4329 C 416.483 3.04812 1.91733 0
M  V30 4330 C 416.336 4.35985 1.10622 0
M  V30 4331 C 417.655 3.30438 2.90687 0
M  V30 4332 H 414.774 0.637194 0.370341 0
M  V30 4333 H 417.416 1.87678 0.296111 0
M  V30 4334 H 415.566 2.94247 2.53675 0
M  V30 4335 H 417.238 4.58487 0.508636 0
M  V30 4336 H 415.481 4.31865 0.409271 0
M  V30 4337 H 416.152 5.23017 1.76513 0
M  V30 4338 H 418.628 3.40701 2.38877 0
M  V30 4339 H 417.504 4.22467 3.50447 0
M  V30 4340 H 417.765 2.49377 3.65053 0
M  V30 4341 N 416.824 -0.551391 1.4764 0
M  V30 4342 C 417.771 -1.65796 1.60563 0
M  V30 4343 C 418.741 -1.59932 0.448428 0
M  V30 4344 O 419.926 -1.78679 0.669222 0
M  V30 4345 C 417.066 -3.04108 1.63133 0
M  V30 4346 C 416.179 -3.20365 2.89811 0
M  V30 4347 C 415.314 -4.49109 2.8368 0
M  V30 4348 C 414.353 -4.58819 4.05156 0
M  V30 4349 N 413.49 -5.78926 3.97227 0
M  V30 4350 H 418.33 -1.54088 2.5507 0
M  V30 4351 H 415.867 -0.75052 1.26513 0
M  V30 4352 H 417.825 -3.84207 1.62606 0
M  V30 4353 H 416.455 -3.14637 0.721341 0
M  V30 4354 H 415.507 -2.33659 3.00179 0
M  V30 4355 H 416.819 -3.23402 3.79753 0
M  V30 4356 H 415.973 -5.37475 2.81434 0
M  V30 4357 H 414.712 -4.4856 1.91431 0
M  V30 4358 H 413.717 -3.68864 4.077 0
M  V30 4359 H 414.942 -4.61124 4.98539 0
M  V30 4360 H 412.888 -5.79314 3.07785 0
M  V30 4361 H 412.805 -5.83367 4.80853 0
M  V30 4362 H 414.073 -6.69637 3.99007 0
M  V30 4363 N 418.302 -1.35869 -0.798587 0
M  V30 4364 C 419.53 -1.32722 -1.58722 0
M  V30 4365 C 419.945 0.0935631 -1.88568 0
M  V30 4366 O 419.302 1.04784 -1.49421 0
M  V30 4367 C 419.353 -2.13974 -2.91371 0
M  V30 4368 O 419.074 -3.50514 -2.62815 0
M  V30 4369 C 420.575 -2.18504 -3.85708 0
M  V30 4370 H 417.795 -0.45562 -0.492596 0
M  V30 4371 H 420.339 -1.78837 -0.991843 0
M  V30 4372 H 418.494 -1.71438 -3.47402 0
M  V30 4373 H 418.908 -3.92806 -3.47568 0
M  V30 4374 H 420.382 -2.79732 -4.75872 0
M  V30 4375 H 420.859 -1.18597 -4.22885 0
M  V30 4376 H 421.465 -2.61236 -3.35612 0
M  V30 4377 N 419.78 1.02168 -1.19998 0
M  V30 4378 C 420.73 2.08969 -0.911921 0
M  V30 4379 C 421.714 1.60404 0.12621 0
M  V30 4380 O 422.906 1.76817 -0.0804706 0
M  V30 4381 C 420.035 3.402 -0.460277 0
M  V30 4382 C 419.121 3.9548 -1.53155 0
M  V30 4383 N 419.512 4.24332 -2.75275 0
M  V30 4384 C 417.81 4.23572 -1.39653 0
M  V30 4385 C 418.511 4.68834 -3.44339 0
M  V30 4386 N 417.487 4.70804 -2.71744 0
M  V30 4387 H 421.289 2.29178 -1.83997 0
M  V30 4388 H 418.803 1.20094 -1.09322 0
M  V30 4389 H 420.8 4.16235 -0.235337 0
M  V30 4390 H 419.46 3.21408 0.4612 0
M  V30 4391 H 420.471 4.13393 -3.11973 0
M  V30 4392 H 417.148 4.14005 -0.539067 0
M  V30 4393 H 418.538 5.00019 -4.4881 0
M  V30 4394 N 421.258 1.00505 1.21394 0
M  V30 4395 C 422.674 0.717873 1.42544 0
M  V30 4396 C 422.874 -0.706936 1.88692 0
M  V30 4397 O 421.93 -1.47627 2.04847 0
M  V30 4398 C 423.243 1.73377 2.45684 0
M  V30 4399 C 424.791 1.75059 2.59467 0
M  V30 4400 C 425.266 2.75545 3.6584 0
M  V30 4401 N 426.757 2.74213 3.73311 0
M  V30 4402 C 427.492 3.48626 4.55245 0
M  V30 4403 N 426.988 4.32678 5.41075 0
M  V30 4404 N 428.781 3.37276 4.49668 0
M  V30 4405 H 420.932 1.92506 0.897503 0
M  V30 4406 H 423.195 0.830919 0.456375 0
M  V30 4407 H 422.901 2.75395 2.18748 0
M  V30 4408 H 422.775 1.53647 3.44489 0
M  V30 4409 H 425.162 0.737337 2.8574 0
M  V30 4410 H 425.243 1.98861 1.60897 0
M  V30 4411 H 424.887 3.77028 3.40313 0
M  V30 4412 H 424.817 2.49009 4.64007 0
M  V30 4413 H 427.308 2.13234 3.11993 0
M  V30 4414 H 427.621 4.86253 6.00648 0
M  V30 4415 H 425.966 4.3676 5.40616 0
M  V30 4416 H 429.157 2.71043 3.81646 0
M  V30 4417 H 429.33 3.95524 5.13288 0
M  V30 4418 N 422.737 -1.36956 0.779787 0
M  V30 4419 C 424.153 -1.52817 0.460342 0
M  V30 4420 C 424.353 -1.7361 -1.02283 0
M  V30 4421 O 423.409 -1.76207 -1.80852 0
M  V30 4422 C 424.722 -2.71983 1.28241 0
M  V30 4423 C 426.27 -2.85849 1.27512 0
M  V30 4424 C 426.745 -4.08008 2.08072 0
M  V30 4425 N 428.236 -4.15135 2.05467 0
M  V30 4426 C 428.971 -5.08711 2.64577 0
M  V30 4427 N 428.467 -6.07792 3.32506 0
M  V30 4428 N 430.26 -5.01254 2.54363 0
M  V30 4429 H 422.411 -1.21713 1.74068 0
M  V30 4430 H 424.674 -0.593294 0.739396 0
M  V30 4431 H 424.38 -2.63109 2.33381 0
M  V30 4432 H 424.254 -3.65882 0.917088 0
M  V30 4433 H 426.641 -2.94189 0.231686 0
M  V30 4434 H 426.722 -1.92886 1.68014 0
M  V30 4435 H 426.366 -4.00429 3.12441 0
M  V30 4436 H 426.296 -5.001 1.64947 0
M  V30 4437 H 428.787 -3.44189 1.5602 0
M  V30 4438 H 429.1 -6.75739 3.74963 0
M  V30 4439 H 427.445 -6.08047 3.36606 0
M  V30 4440 H 430.636 -4.22795 2.00902 0
M  V30 4441 H 430.809 -5.73995 3.00722 0
M  V30 4442 N 424.215 -0.530993 -1.48385 0
M  V30 4443 C 425.162 0.231223 -2.29639 0
M  V30 4444 C 426.132 0.932864 -1.37429 0
M  V30 4445 O 427.317 0.933692 -1.66394 0
M  V30 4446 C 424.457 1.27155 -3.2082 0
M  V30 4447 C 423.57 0.578655 -4.28107 0
M  V30 4448 C 422.705 1.602 -5.06467 0
M  V30 4449 C 421.744 0.892625 -6.05556 0
M  V30 4450 N 420.881 1.86157 -6.76971 0
M  V30 4451 H 425.721 -0.467848 -2.94305 0
M  V30 4452 H 423.258 -0.242556 -1.45086 0
M  V30 4453 H 425.216 1.88703 -3.72085 0
M  V30 4454 H 423.846 1.939 -2.58075 0
M  V30 4455 H 422.898 -0.150782 -3.80101 0
M  V30 4456 H 424.21 0.0217065 -4.98795 0
M  V30 4457 H 423.364 2.29173 -5.61751 0
M  V30 4458 H 422.103 2.19285 -4.35621 0
M  V30 4459 H 421.108 0.188829 -5.49476 0
M  V30 4460 H 422.333 0.307878 -6.78402 0
M  V30 4461 H 420.279 2.44147 -6.08875 0
M  V30 4462 H 420.196 1.35608 -7.43738 0
M  V30 4463 H 421.464 2.54325 -7.36844 0
M  V30 4464 N 425.693 1.55336 -0.266172 0
M  V30 4465 C 426.656 2.20878 0.612001 0
M  V30 4466 C 427.656 1.18388 1.08816 0
M  V30 4467 O 428.846 1.4335 0.989774 0
M  V30 4468 C 425.978 2.86765 1.84332 0
M  V30 4469 H 427.171 2.99873 0.0398718 0
M  V30 4470 H 424.724 1.56291 -0.0167309 0
M  V30 4471 H 425.459 2.11759 2.45619 0
M  V30 4472 H 425.244 3.61862 1.5099 0
M  V30 4473 H 426.734 3.36867 2.46801 0
M  V30 4474 N 427.171 -0.0066808 1.57599 0
M  V30 4475 C 428.134 -0.985035 2.06953 0
M  V30 4476 C 429.134 -1.27663 0.977687 0
M  V30 4477 O 430.324 -1.22293 1.24057 0
M  V30 4478 C 427.456 -2.3118 2.50536 0
M  V30 4479 H 428.649 -0.558255 2.94658 0
M  V30 4480 H 426.202 -0.254011 1.54222 0
M  V30 4481 H 426.937 -2.78561 1.66054 0
M  V30 4482 H 426.722 -2.11338 3.3027 0
M  V30 4483 H 428.212 -3.01377 2.8907 0
M  V30 4484 N 428.649 -1.55105 -0.279332 0
M  V30 4485 C 430.065 -1.46803 -0.626187 0
M  V30 4486 C 430.265 -0.676939 -1.89789 0
M  V30 4487 O 429.321 -0.19326 -2.51759 0
M  V30 4488 C 430.634 -2.90962 -0.759034 0
M  V30 4489 C 432.182 -3.01138 -0.853504 0
M  V30 4490 C 432.657 -4.46539 -1.01818 0
M  V30 4491 N 434.148 -4.50341 -1.08386 0
M  V30 4492 C 434.883 -5.60053 -1.22996 0
M  V30 4493 N 434.379 -6.79645 -1.34366 0
M  V30 4494 N 436.172 -5.47783 -1.26056 0
M  V30 4495 H 428.323 -2.04996 0.555921 0
M  V30 4496 H 430.586 -0.929325 0.187239 0
M  V30 4497 H 430.292 -3.51544 0.104852 0
M  V30 4498 H 430.166 -3.39619 -1.64131 0
M  V30 4499 H 432.553 -2.40658 -1.70786 0
M  V30 4500 H 432.634 -2.55745 0.0532466 0
M  V30 4501 H 432.278 -5.0762 -0.168504 0
M  V30 4502 H 432.208 -4.89583 -1.93948 0
M  V30 4503 H 434.699 -3.64191 -1.00864 0
M  V30 4504 H 435.012 -7.59012 -1.4533 0
M  V30 4505 H 433.357 -6.82469 -1.31382 0
M  V30 4506 H 436.548 -4.53294 -1.168 0
M  V30 4507 H 436.721 -6.33331 -1.37098 0
M  V30 4508 N 430.127 0.543554 -1.4793 0
M  V30 4509 C 431.355 1.32516 -1.58894 0
M  V30 4510 C 431.77 1.87215 -0.244131 0
M  V30 4511 O 431.127 1.65709 0.764652 0
M  V30 4512 C 431.178 2.48554 -2.62494 0
M  V30 4513 O 430.899 1.96112 -3.91755 0
M  V30 4514 C 432.4 3.40572 -2.8377 0
M  V30 4515 H 429.62 0.403472 -0.536145 0
M  V30 4516 H 432.164 0.657106 -1.93655 0
M  V30 4517 H 430.319 3.1127 -2.30629 0
M  V30 4518 H 430.733 2.71967 -4.4848 0
M  V30 4519 H 432.207 4.18375 -3.60093 0
M  V30 4520 H 432.684 3.94965 -1.92092 0
M  V30 4521 H 433.29 2.8366 -3.16887 0
M  V30 4522 N 431.605 1.3629 0.791371 0
M  V30 4523 C 432.568 1.30309 1.88553 0
M  V30 4524 C 433.568 0.211204 1.59407 0
M  V30 4525 O 434.758 0.465865 1.67855 0
M  V30 4526 C 431.89 1.01956 3.25297 0
M  V30 4527 H 433.083 2.27614 1.95273 0
M  V30 4528 H 430.636 1.21035 0.988953 0
M  V30 4529 H 431.371 0.050998 3.2426 0
M  V30 4530 H 431.156 1.80968 3.4784 0
M  V30 4531 H 432.646 1.0037 4.05359 0
M  V30 4532 N 433.083 -1.0153 1.20538 0
M  V30 4533 C 434.329 -1.75408 1.01783 0
M  V30 4534 C 434.662 -1.88943 -0.448814 0
M  V30 4535 O 433.937 -1.4162 -1.33319 0
M  V30 4536 C 434.22 -3.17255 1.70356 0
M  V30 4537 C 434.073 -3.11508 3.24473 0
M  V30 4538 C 435.392 -4.15955 1.43769 0
M  V30 4539 H 432.511 -0.636713 0.371167 0
M  V30 4540 H 435.153 -1.18436 1.4857 0
M  V30 4541 H 433.303 -3.65898 1.30578 0
M  V30 4542 H 434.975 -2.70658 3.73553 0
M  V30 4543 H 433.218 -2.4887 3.55311 0
M  V30 4544 H 433.889 -4.11784 3.67611 0
M  V30 4545 H 436.365 -3.75973 1.7828 0
M  V30 4546 H 435.241 -5.13368 1.94279 0
M  V30 4547 H 435.502 -4.40586 0.365564 0
M  V30 4548 N 434.561 -1.01147 -1.20859 0
M  V30 4549 C 435.809 -0.696486 -1.89719 0
M  V30 4550 C 436.13 0.775788 -1.78904 0
M  V30 4551 O 435.4 1.55759 -1.18811 0
M  V30 4552 H 433.98 -0.254628 -0.702263 0
M  V30 4553 H 436.642 -1.28197 -1.46804 0
M  V30 4554 H 435.738 -0.975357 -2.96468 0
M  V30 4555 N 436.039 1.36541 -0.78704 0
M  V30 4556 C 437.455 1.52571 -0.46844 0
M  V30 4557 C 437.655 1.7415 1.01361 0
M  V30 4558 O 436.711 1.77163 1.79915 0
M  V30 4559 C 438.024 2.71299 -1.29682 0
M  V30 4560 C 439.572 2.85169 -1.29027 0
M  V30 4561 C 440.047 4.06898 -2.10233 0
M  V30 4562 N 441.538 4.1404 -2.07666 0
M  V30 4563 C 442.273 5.07301 -2.67271 0
M  V30 4564 N 441.769 6.06021 -3.35724 0
M  V30 4565 N 443.562 4.99898 -2.57018 0
M  V30 4566 H 435.713 1.20788 -1.74711 0
M  V30 4567 H 437.976 0.589364 -0.742532 0
M  V30 4568 H 437.682 2.61868 -2.34773 0
M  V30 4569 H 437.556 3.6539 -0.936479 0
M  V30 4570 H 439.943 2.94062 -0.247284 0
M  V30 4571 H 440.024 1.91992 -1.69035 0
M  V30 4572 H 439.668 3.98766 -3.1456 0
M  V30 4573 H 439.598 4.99218 -1.67597 0
M  V30 4574 H 442.089 3.43357 -1.57843 0
M  V30 4575 H 442.402 6.73741 -3.78541 0
M  V30 4576 H 440.747 6.06253 -3.39826 0
M  V30 4577 H 443.938 4.21724 -2.03142 0
M  V30 4578 H 444.111 5.72392 -3.03761 0
M  V30 4579 N 437.518 0.538854 1.48102 0
M  V30 4580 C 438.466 -0.232325 2.31437 0
M  V30 4581 C 439.46 -0.927004 1.41785 0
M  V30 4582 O 440.666 -0.850378 1.58646 0
M  V30 4583 H 437.041 -0.0937916 0.746128 0
M  V30 4584 H 439.012 0.489986 2.9435 0
M  V30 4585 C 437.761 -1.26074 3.24038 0
M  V30 4586 H 437.084 -0.735609 3.92974 0
M  V30 4587 H 438.524 -1.77157 3.85216 0
M  V30 4588 C 436.983 -2.29902 2.46265 0
M  V30 4589 O 437.513 -3.36502 2.19384 0
M  V30 4590 N 435.719 -2.03348 2.07601 0
M  V30 4591 H 435.266 -1.16675 2.29662 0
M  V30 4592 H 435.224 -2.73038 1.55877 0
M  V30 4593 N 438.996 -1.55193 0.274407 0
M  V30 4594 C 440.273 -1.91584 -0.394331 0
M  V30 4595 C 440.653 -1.19858 -1.73774 0
M  V30 4596 O 440.001 -0.3252 -2.26174 0
M  V30 4597 C 440.211 -3.4487 -0.535311 0
M  V30 4598 C 441.559 -4.16636 -0.818534 0
M  V30 4599 O 442.583 -3.5076 -0.620146 0
M  V30 4600 O 441.442 -5.33209 -1.19792 0
M  V30 4601 H 438.536 -0.798349 -0.215794 0
M  V30 4602 H 441.082 -1.66646 0.320507 0
M  V30 4603 H 439.854 -3.89145 0.410141 0
M  V30 4604 H 439.477 -3.75759 -1.29964 0
M  V30 4605 N 440.474 -0.00167713 -1.576 0
M  V30 4606 C 441.702 0.693759 -1.94922 0
M  V30 4607 C 442.117 1.67215 -0.876626 0
M  V30 4608 O 441.474 1.81929 0.144279 0
M  V30 4609 C 441.525 1.42416 -3.32265 0
M  V30 4610 O 441.246 0.485014 -4.35407 0
M  V30 4611 C 442.747 2.21395 -3.84056 0
M  V30 4612 H 439.967 0.193118 -0.642609 0
M  V30 4613 H 442.511 -0.0532952 -2.04431 0
M  V30 4614 H 440.666 2.12284 -3.24059 0
M  V30 4615 H 441.08 1.00053 -5.14868 0
M  V30 4616 H 442.554 2.67996 -4.82578 0
M  V30 4617 H 443.031 3.04142 -3.16851 0
M  V30 4618 H 443.637 1.56542 -3.95443 0
M  V30 4619 N 441.952 1.55251 0.271103 0
M  V30 4620 C 442.902 1.84649 1.33749 0
M  V30 4621 C 443.886 0.705529 1.44607 0
M  V30 4622 O 445.078 0.966916 1.48256 0
M  V30 4623 C 442.207 2.12354 2.69742 0
M  V30 4624 C 441.293 3.32714 2.62988 0
M  V30 4625 N 441.684 4.52575 2.25853 0
M  V30 4626 C 439.982 3.35341 2.94045 0
M  V30 4627 C 440.683 5.34669 2.29136 0
M  V30 4628 N 439.659 4.73123 2.67685 0
M  V30 4629 H 443.461 2.74865 1.0405 0
M  V30 4630 H 440.975 1.55152 0.479738 0
M  V30 4631 H 442.972 2.31572 3.4667 0
M  V30 4632 H 441.632 1.23422 3.00328 0
M  V30 4633 H 442.643 4.78639 1.978 0
M  V30 4634 H 439.32 2.56608 3.2933 0
M  V30 4635 H 440.71 6.40509 2.02971 0
M  V30 4636 N 443.43 -0.535701 1.48216 0
M  V30 4637 C 444.841 -1.11769 1.49548 0
M  V30 4638 C 445.192 -1.94442 0.26207 0
M  V30 4639 O 444.317 -2.06987 -0.631287 0
M  V30 4640 C 444.912 -2.03367 2.70975 0
M  V30 4641 C 443.471 -2.56795 2.75196 0
M  V30 4642 C 442.618 -1.33631 2.42977 0
M  V30 4643 H 445.569 -0.321232 1.55415 0
M  V30 4644 H 445.59 -2.87569 2.49167 0
M  V30 4645 H 445.102 -1.43169 3.60727 0
M  V30 4646 H 443.203 -3.20731 1.89638 0
M  V30 4647 H 443.316 -2.9632 3.76472 0
M  V30 4648 H 441.68 -1.6502 1.94012 0
M  V30 4649 H 442.463 -0.75194 3.34964 0
M  V30 4650 N 444.908 -1.36708 -0.784132 0
M  V30 4651 C 446.136 -1.34398 -1.57305 0
M  V30 4652 C 446.551 0.0735577 -1.88657 0
M  V30 4653 O 445.908 1.03193 -1.50524 0
M  V30 4654 C 445.959 -2.17053 -2.89085 0
M  V30 4655 O 445.68 -3.53281 -2.59083 0
M  V30 4656 C 447.181 -2.22583 -3.83369 0
M  V30 4657 H 444.401 -0.460819 -0.487736 0
M  V30 4658 H 446.945 -1.79879 -0.972819 0
M  V30 4659 H 445.1 -1.75113 -3.45564 0
M  V30 4660 H 445.514 -3.9647 -3.43383 0
M  V30 4661 H 446.988 -2.84763 -4.72878 0
M  V30 4662 H 447.465 -1.23075 -4.21603 0
M  V30 4663 H 448.071 -2.64781 -3.32823 0
M  V30 4664 N 446.386 1.0089 -1.21074 0
M  V30 4665 C 447.614 1.78191 -1.05145 0
M  V30 4666 C 448.029 1.84537 0.398952 0
M  V30 4667 O 447.386 1.30393 1.27687 0
M  V30 4668 C 447.437 3.22288 -1.63746 0
M  V30 4669 O 447.158 3.16315 -3.03111 0
M  V30 4670 C 448.659 4.16106 -1.52875 0
M  V30 4671 H 445.879 0.560129 -0.369454 0
M  V30 4672 H 448.423 1.26945 -1.60328 0
M  V30 4673 H 446.578 3.70655 -1.12664 0
M  V30 4674 H 446.992 4.06817 -3.31059 0
M  V30 4675 H 448.466 5.15026 -1.98626 0
M  V30 4676 H 448.943 4.36541 -0.482521 0
M  V30 4677 H 449.549 3.73625 -2.03185 0
M  V30 4678 N 447.864 1.01787 1.20321 0
M  V30 4679 C 449.112 0.706538 1.89347 0
M  V30 4680 C 449.433 -0.766289 1.79313 0
M  V30 4681 O 448.703 -1.55126 1.19635 0
M  V30 4682 H 447.283 0.258348 0.700903 0
M  V30 4683 H 449.945 1.28974 1.46122 0
M  V30 4684 H 449.041 0.991066 2.95946 0
M  V30 4685 N 449.342 -1.36122 0.79427 0
M  V30 4686 C 450.567 -2.03891 0.379871 0
M  V30 4687 C 450.992 -1.59488 -0.997251 0
M  V30 4688 O 450.35 -0.765652 -1.64339 0
M  V30 4689 C 450.398 -3.57687 0.457442 0
M  V30 4690 O 449.502 -4.08931 -0.5338 0
M  V30 4691 H 448.843 -0.6443 0.160541 0
M  V30 4692 H 451.373 -1.73976 1.07673 0
M  V30 4693 H 451.383 -4.06721 0.322792 0
M  V30 4694 H 450.058 -3.89357 1.46199 0
M  V30 4695 H 448.635 -3.71154 -0.360409 0
M  V30 4696 N 450.82 -0.546701 -1.47814 0
M  V30 4697 C 451.783 0.196287 -2.28358 0
M  V30 4698 C 452.783 0.852437 -1.36346 0
M  V30 4699 O 453.973 0.709913 -1.59078 0
M  V30 4700 C 451.105 1.28579 -3.15722 0
M  V30 4701 H 452.298 -0.511086 -2.95513 0
M  V30 4702 H 449.851 -0.303248 -1.5333 0
M  V30 4703 H 450.586 2.0259 -2.53235 0
M  V30 4704 H 450.371 0.820229 -3.83425 0
M  V30 4705 H 451.861 1.80793 -3.76435 0
M  V30 4706 N 452.299 1.55045 -0.282633 0
M  V30 4707 C 453.524 2.04628 0.337977 0
M  V30 4708 C 453.949 1.15937 1.48123 0
M  V30 4709 O 453.307 0.159532 1.80597 0
M  V30 4710 C 453.355 3.51854 0.78936 0
M  V30 4711 O 452.459 3.66236 1.89592 0
M  V30 4712 H 451.8 0.660434 0.0687261 0
M  V30 4713 H 454.33 2.00261 -0.419124 0
M  V30 4714 H 454.34 3.93361 1.08311 0
M  V30 4715 H 453.015 4.15873 -0.0470419 0
M  V30 4716 H 451.592 3.36633 1.60413 0
M  V30 4717 N 453.777 0.010035 1.57597 0
M  V30 4718 C 455.188 -0.531426 1.78977 0
M  V30 4719 C 455.539 -1.73375 0.918454 0
M  V30 4720 O 454.664 -2.16047 0.123635 0
M  V30 4721 C 455.259 -0.97086 3.24592 0
M  V30 4722 C 453.818 -1.45756 3.47033 0
M  V30 4723 C 452.965 -0.413384 2.74201 0
M  V30 4724 H 455.916 0.236166 1.56933 0
M  V30 4725 H 455.937 -1.83633 3.33255 0
M  V30 4726 H 455.449 -0.0955893 3.87982 0
M  V30 4727 H 453.55 -2.35339 2.88871 0
M  V30 4728 H 453.663 -1.4781 4.55729 0
M  V30 4729 H 452.027 -0.877266 2.39115 0
M  V30 4730 H 452.81 0.453092 3.40297 0
M  V30 4731 N 455.255 -1.55392 -0.262866 0
M  V30 4732 C 456.202 -1.88966 -1.32516 0
M  V30 4733 C 457.172 -0.742187 -1.48596 0
M  V30 4734 O 458.357 -0.99439 -1.62839 0
M  V30 4735 C 455.497 -2.17592 -2.67858 0
M  V30 4736 C 454.61 -3.45061 -2.59917 0
M  V30 4737 C 453.745 -3.63336 -3.87505 0
M  V30 4738 C 452.784 -4.84462 -3.74116 0
M  V30 4739 N 451.921 -4.99342 -4.93561 0
M  V30 4740 H 456.761 -2.79566 -1.03184 0
M  V30 4741 H 454.298 -1.38404 -0.498285 0
M  V30 4742 H 456.256 -2.3219 -3.46617 0
M  V30 4743 H 454.886 -1.30215 -2.95371 0
M  V30 4744 H 453.938 -3.38881 -1.72812 0
M  V30 4745 H 455.25 -4.3396 -2.45926 0
M  V30 4746 H 454.404 -3.77807 -4.74707 0
M  V30 4747 H 453.143 -2.72641 -4.04374 0
M  V30 4748 H 452.148 -4.69985 -2.85297 0
M  V30 4749 H 453.373 -5.76603 -3.58757 0
M  V30 4750 H 451.319 -4.1158 -5.10821 0
M  V30 4751 H 451.236 -5.82303 -4.82141 0
M  V30 4752 H 452.504 -5.18208 -5.82306 0
M  V30 4753 N 456.733 0.527833 -1.48498 0
M  V30 4754 C 457.683 1.62844 -1.5958 0
M  V30 4755 C 458.667 1.54397 -0.452809 0
M  V30 4756 O 459.859 1.62381 -0.704364 0
M  V30 4757 C 456.988 3.01557 -1.64067 0
M  V30 4758 C 456.074 3.151 -2.83853 0
M  V30 4759 N 456.465 2.9861 -4.08247 0
M  V30 4760 C 454.763 3.46158 -2.8123 0
M  V30 4761 C 455.464 3.15626 -4.88626 0
M  V30 4762 N 454.44 3.43298 -4.21483 0
M  V30 4763 H 458.242 1.48708 -2.53502 0
M  V30 4764 H 455.756 0.733343 -1.44899 0
M  V30 4765 H 457.753 3.8062 -1.70101 0
M  V30 4766 H 456.413 3.16783 -0.712636 0
M  V30 4767 H 457.424 2.75329 -4.3865 0
M  V30 4768 H 454.101 3.67728 -1.97692 0
M  V30 4769 H 455.491 3.07596 -5.97356 0
M  V30 4770 N 458.211 1.37122 0.776871 0
M  V30 4771 C 459.143 1.28342 1.89897 0
M  V30 4772 C 460.156 0.200277 1.61563 0
M  V30 4773 O 461.345 0.456012 1.72577 0
M  V30 4774 C 458.445 0.960427 3.25006 0
M  V30 4775 C 457.618 2.148 3.81025 0
M  V30 4776 C 456.677 1.79608 4.94598 0
M  V30 4777 O 455.703 2.51845 5.10454 0
M  V30 4778 N 456.905 0.737171 5.758 0
M  V30 4779 H 459.67 2.25027 1.97947 0
M  V30 4780 H 457.231 1.3068 0.955739 0
M  V30 4781 H 459.223 0.705942 3.98495 0
M  V30 4782 H 457.793 0.0823066 3.12492 0
M  V30 4783 H 457.013 2.56454 2.99374 0
M  V30 4784 H 458.301 2.9411 4.15183 0
M  V30 4785 H 457.699 0.137637 5.65533 0
M  V30 4786 H 456.256 0.542534 6.49538 0
M  V30 4787 N 459.689 -1.00246 1.21608 0
M  V30 4788 C 460.636 -2.09073 0.977613 0
M  V30 4789 C 461.606 -1.65815 -0.097297 0
M  V30 4790 O 462.791 -1.90734 0.0503445 0
M  V30 4791 C 459.931 -3.40671 0.551133 0
M  V30 4792 C 459.044 -3.97326 1.69576 0
M  V30 4793 C 458.179 -5.17043 1.2182 0
M  V30 4794 C 457.218 -5.65813 2.335 0
M  V30 4795 N 456.355 -6.76778 1.86859 0
M  V30 4796 H 461.195 -2.28806 1.90924 0
M  V30 4797 H 458.732 -1.12186 0.951452 0
M  V30 4798 H 460.69 -4.16225 0.285097 0
M  V30 4799 H 459.32 -3.20967 -0.343489 0
M  V30 4800 H 458.372 -3.18734 2.07637 0
M  V30 4801 H 459.684 -4.29511 2.53617 0
M  V30 4802 H 458.838 -5.99852 0.908975 0
M  V30 4803 H 457.577 -4.86458 0.347869 0
M  V30 4804 H 456.582 -4.81599 2.65222 0
M  V30 4805 H 457.807 -5.98427 3.21033 0
M  V30 4806 H 455.753 -6.47994 1.02174 0
M  V30 4807 H 455.67 -7.08231 2.64471 0
M  V30 4808 H 456.938 -7.63116 1.58978 0
M  V30 4809 N 461.167 -1.02423 -1.1978 0
M  V30 4810 C 462.114 -0.601023 -2.22837 0
M  V30 4811 C 463.084 0.382801 -1.61629 0
M  V30 4812 O 464.269 0.280514 -1.88727 0
M  V30 4813 C 461.409 0.0467755 -3.45068 0
M  V30 4814 C 460.522 -0.98253 -4.20678 0
M  V30 4815 C 459.657 -0.304982 -5.30324 0
M  V30 4816 C 458.696 -1.32052 -5.97686 0
M  V30 4817 N 457.833 -0.669105 -6.98904 0
M  V30 4818 H 462.673 -1.48444 -2.58396 0
M  V30 4819 H 460.21 -0.742936 -1.2696 0
M  V30 4820 H 462.168 0.439556 -4.14878 0
M  V30 4821 H 460.798 0.893796 -3.10179 0
M  V30 4822 H 459.85 -1.49341 -3.49859 0
M  V30 4823 H 461.162 -1.75455 -4.66923 0
M  V30 4824 H 460.316 0.142893 -6.06532 0
M  V30 4825 H 459.055 0.499283 -4.85138 0
M  V30 4826 H 458.06 -1.7787 -5.20233 0
M  V30 4827 H 459.285 -2.1262 -6.44957 0
M  V30 4828 H 457.231 0.115152 -6.55899 0
M  V30 4829 H 457.148 -1.37908 -7.43315 0
M  V30 4830 H 458.416 -0.245076 -7.79115 0
M  V30 4831 N 462.645 1.35699 -0.801477 0
M  V30 4832 C 463.87 2.03687 -0.390678 0
M  V30 4833 C 464.295 1.60015 0.988778 0
M  V30 4834 O 463.653 0.774357 1.63931 0
M  V30 4835 C 463.701 3.57439 -0.476404 0
M  V30 4836 O 462.805 4.09208 0.512106 0
M  V30 4837 H 462.146 0.64344 -0.163956 0
M  V30 4838 H 464.676 1.73403 -1.08594 0
M  V30 4839 H 464.686 4.06544 -0.344357 0
M  V30 4840 H 463.361 3.88576 -1.48262 0
M  V30 4841 H 461.938 3.7134 0.340721 0
M  V30 4842 N 464.123 0.554532 1.47522 0
M  V30 4843 C 465.07 -0.19466 2.29978 0
M  V30 4844 C 466.04 -0.910882 1.38896 0
M  V30 4845 O 467.225 -0.907102 1.67858 0
M  V30 4846 C 464.365 -1.22035 3.22802 0
M  V30 4847 C 463.478 -0.510474 4.28973 0
M  V30 4848 C 462.613 -1.52123 5.08952 0
M  V30 4849 C 461.652 -0.796173 6.069 0
M  V30 4850 N 460.789 -1.75363 6.79847 0
M  V30 4851 H 465.629 0.51461 2.93523 0
M  V30 4852 H 463.166 0.265607 1.44682 0
M  V30 4853 H 465.124 -1.8276 3.7504 0
M  V30 4854 H 463.754 -1.89769 2.61127 0
M  V30 4855 H 462.806 0.211234 3.79813 0
M  V30 4856 H 464.118 0.0576503 4.98767 0
M  V30 4857 H 463.272 -2.20207 5.65326 0
M  V30 4858 H 462.011 -2.12327 4.39054 0
M  V30 4859 H 461.016 -0.101388 5.49707 0
M  V30 4860 H 462.241 -0.199911 6.78806 0
M  V30 4861 H 460.187 -2.3443 6.12682 0
M  V30 4862 H 460.104 -1.23759 7.45801 0
M  V30 4863 H 461.372 -2.4257 7.40797 0
M  V30 4864 N 465.601 -1.54893 0.290851 0
M  V30 4865 C 466.531 -2.26103 -0.583084 0
M  V30 4866 C 467.512 -1.25684 -1.14619 0
M  V30 4867 O 468.697 -1.54436 -1.17741 0
M  V30 4868 C 465.827 -2.99409 -1.75987 0
M  V30 4869 C 464.781 -4.0689 -1.32758 0
M  V30 4870 C 464.107 -4.67856 -2.58872 0
M  V30 4871 C 465.407 -5.20215 -0.46624 0
M  V30 4872 H 467.101 -2.99398 0.0108214 0
M  V30 4873 H 464.647 -1.43998 0.00664468 0
M  V30 4874 H 466.6 -3.47943 -2.37727 0
M  V30 4875 H 465.324 -2.23675 -2.37985 0
M  V30 4876 H 463.983 -3.59191 -0.733299 0
M  V30 4877 H 463.631 -3.88772 -3.19163 0
M  V30 4878 H 463.331 -5.40438 -2.30653 0
M  V30 4879 H 464.855 -5.19147 -3.21433 0
M  V30 4880 H 466.269 -5.64704 -0.989047 0
M  V30 4881 H 464.666 -5.99455 -0.27826 0
M  V30 4882 H 465.736 -4.82198 0.511173 0
M  V30 4883 N 467.08 -0.0183926 -1.57589 0
M  V30 4884 C 468.03 0.975944 -2.06057 0
M  V30 4885 C 469.014 1.29204 -0.958908 0
M  V30 4886 O 470.206 1.27995 -1.22255 0
M  V30 4887 C 467.335 2.26194 -2.58247 0
M  V30 4888 C 466.421 1.97467 -3.75323 0
M  V30 4889 N 466.812 1.38968 -4.86335 0
M  V30 4890 C 465.11 2.27515 -3.83605 0
M  V30 4891 C 465.811 1.27131 -5.67638 0
M  V30 4892 N 464.787 1.76319 -5.14211 0
M  V30 4893 H 468.589 0.518444 -2.89291 0
M  V30 4894 H 466.103 0.18688 -1.61321 0
M  V30 4895 H 468.1 2.98289 -2.91255 0
M  V30 4896 H 466.76 2.7258 -1.76438 0
M  V30 4897 H 467.771 1.06608 -5.06809 0
M  V30 4898 H 464.448 2.76649 -3.12684 0
M  V30 4899 H 465.838 0.819882 -6.66879 0
M  V30 4900 N 468.558 1.5553 0.254621 0
M  V30 4901 C 469.806 1.7665 0.981793 0
M  V30 4902 C 470.127 0.580963 1.86145 0
M  V30 4903 O 469.397 -0.403537 1.91699 0
M  V30 4904 H 467.977 0.651475 0.365498 0
M  V30 4905 H 470.639 1.92958 0.274426 0
M  V30 4906 H 469.735 2.67486 1.60802 0
M  V30 4907 N 470.036 -0.519951 1.48776 0
M  V30 4908 C 471.447 -1.10177 1.50725 0
M  V30 4909 C 471.798 -1.94153 0.282678 0
M  V30 4910 O 470.923 -2.07645 -0.609298 0
M  V30 4911 C 471.518 -2.00482 2.73116 0
M  V30 4912 C 470.077 -2.53862 2.77905 0
M  V30 4913 C 469.224 -1.31047 2.44381 0
M  V30 4914 H 472.175 -0.30473 1.55747 0
M  V30 4915 H 472.196 -2.8491 2.52203 0
M  V30 4916 H 471.708 -1.39335 3.62225 0
M  V30 4917 H 469.809 -3.18702 1.93029 0
M  V30 4918 H 469.922 -2.9231 3.79594 0
M  V30 4919 H 468.286 -1.62953 1.95751 0
M  V30 4920 H 469.069 -0.71637 3.35743 0
M  V30 4921 N 471.514 -1.37532 -0.769588 0
M  V30 4922 C 472.742 -1.36059 -1.55871 0
M  V30 4923 C 473.157 0.053544 -1.88724 0
M  V30 4924 O 472.514 1.01591 -1.5161 0
M  V30 4925 C 472.565 -2.20107 -2.86767 0
M  V30 4926 O 472.286 -3.56009 -2.55321 0
M  V30 4927 C 473.787 -2.26636 -3.80987 0
M  V30 4928 H 471.007 -0.465967 -0.482821 0
M  V30 4929 H 473.551 -1.80901 -0.953686 0
M  V30 4930 H 471.706 -1.78768 -3.43687 0
M  V30 4931 H 472.12 -4.0009 -3.39158 0
M  V30 4932 H 473.594 -2.89763 -4.69831 0
M  V30 4933 H 474.071 -1.2754 -4.20274 0
M  V30 4934 H 474.677 -2.68296 -3.29996 0
M  V30 4935 N 472.992 0.995999 -1.22138 0
M  V30 4936 C 473.902 2.11985 -1.00496 0
M  V30 4937 C 474.918 1.7394 0.0457701 0
M  V30 4938 O 476.094 2.00868 -0.146273 0
M  V30 4939 C 473.159 3.41779 -0.582086 0
M  V30 4940 C 472.22 3.93943 -1.70608 0
M  V30 4941 C 471.453 5.17542 -1.30328 0
M  V30 4942 O 471.676 5.70114 -0.180743 0
M  V30 4943 O 470.61 5.63382 -2.11861 0
M  V30 4944 H 474.436 2.33123 -1.94647 0
M  V30 4945 H 472.021 1.10358 -1.00705 0
M  V30 4946 H 473.903 4.1989 -0.356467 0
M  V30 4947 H 472.578 3.22007 0.330592 0
M  V30 4948 H 471.485 3.17019 -1.98619 0
M  V30 4949 H 472.818 4.18141 -2.59651 0
M  V30 4950 N 474.47 1.03057 1.19235 0
M  V30 4951 C 475.698 0.747697 1.92917 0
M  V30 4952 C 476.113 -0.69372 1.75593 0
M  V30 4953 O 475.47 -1.47191 1.07894 0
M  V30 4954 C 475.521 1.09159 3.44625 0
M  V30 4955 O 475.242 2.47641 3.61394 0
M  V30 4956 C 476.743 0.831763 4.35427 0
M  V30 4957 H 473.963 0.273453 0.612751 0
M  V30 4958 H 476.507 1.37552 1.51327 0
M  V30 4959 H 474.662 0.508919 3.84043 0
M  V30 4960 H 475.076 2.60499 4.55237 0
M  V30 4961 H 476.55 1.12233 5.4047 0
M  V30 4962 H 477.027 -0.233769 4.38577 0
M  V30 4963 H 477.633 1.39725 4.01693 0
M  V30 4964 N 475.948 -1.35272 0.808662 0
M  V30 4965 C 477.173 -2.03477 0.401475 0
M  V30 4966 C 477.598 -1.60537 -0.980279 0
M  V30 4967 O 476.956 -0.78304 -1.63518 0
M  V30 4968 C 477.004 -3.57181 0.495354 0
M  V30 4969 O 476.108 -4.09474 -0.490397 0
M  V30 4970 H 475.449 -0.642561 0.167366 0
M  V30 4971 H 477.979 -1.72824 1.09512 0
M  V30 4972 H 477.989 -4.06356 0.365912 0
M  V30 4973 H 476.664 -3.87784 1.5032 0
M  V30 4974 H 475.241 -3.71516 -0.321023 0
M  V30 4975 N 477.426 -0.562348 -1.47226 0
M  V30 4976 C 478.651 -0.0432632 -2.07355 0
M  V30 4977 C 479.076 1.24332 -1.41149 0
M  V30 4978 O 478.434 1.74603 -0.488226 0
M  V30 4979 C 478.482 0.130288 -3.60365 0
M  V30 4980 O 477.586 1.19166 -3.94808 0
M  V30 4981 H 476.927 -0.0536334 -0.66183 0
M  V30 4982 H 479.457 -0.779495 -1.89169 0
M  V30 4983 H 479.467 0.342881 -4.06557 0
M  V30 4984 H 478.142 -0.809389 -4.07948 0
M  V30 4985 H 476.719 0.959153 -3.60354 0
M  V30 4986 N 478.904 1.54736 -0.299062 0
M  V30 4987 C 480.144 2.0201 0.31168 0
M  V30 4988 C 480.508 1.18281 1.5124 0
M  V30 4989 O 481.709 1.55243 2.19438 0
M  V30 4990 C 479.98 3.5123 0.661227 0
M  V30 4991 S 481.539 4.20467 1.2551 0
M  V30 4992 H 478.357 0.704523 0.0957517 0
M  V30 4993 H 480.959 1.90791 -0.426482 0
M  V30 4994 H 479.663 4.09804 -0.221171 0
M  V30 4995 H 479.194 3.66481 1.43023 0
M  V30 4996 H 481.209 4.26083 2.54298 0
M  V30 4997 N 480.382 0.0267497 1.57577 0
M  V30 4998 C 481.607 -0.666227 1.96408 0
M  V30 4999 C 482.032 -1.65004 0.903071 0
M  V30 5000 O 481.39 -1.80787 -0.136263 0
M  V30 5001 C 481.438 -1.35101 3.34335 0
M  V30 5002 O 480.542 -2.46623 3.30531 0
M  V30 5003 H 479.883 -0.175206 0.640468 0
M  V30 5004 H 482.413 0.0878977 2.04411 0
M  V30 5005 H 482.423 -1.70834 3.70513 0
M  V30 5006 H 481.098 -0.629844 4.11103 0
M  V30 5007 H 479.675 -2.13019 3.06068 0
M  V30 5008 N 481.861 -1.55662 -0.24637 0
M  V30 5009 C 483.109 -1.77168 -0.972411 0
M  V30 5010 C 483.43 -0.590827 -1.85834 0
M  V30 5011 O 482.7 0.393365 -1.9191 0
M  V30 5012 H 481.28 -0.653405 -0.362038 0
M  V30 5013 H 483.942 -1.93101 -0.264189 0
M  V30 5014 H 483.038 -2.68335 -1.59382 0
M  V30 5015 N 483.339 0.512053 -1.4905 0
M  V30 5016 C 484.302 1.59704 -1.64399 0
M  V30 5017 C 485.302 1.52285 -0.516317 0
M  V30 5018 O 486.492 1.55635 -0.782527 0
M  V30 5019 C 483.624 2.9935 -1.63102 0
M  V30 5020 H 484.817 1.47428 -2.61161 0
M  V30 5021 H 482.37 0.735469 -1.37915 0
M  V30 5022 H 483.105 3.17116 -0.678836 0
M  V30 5023 H 482.89 3.06144 -2.44986 0
M  V30 5024 H 484.38 3.782 -1.77072 0
M  V30 5025 N 484.817 1.37938 0.762283 0
M  V30 5026 C 485.78 1.34279 1.85747 0
M  V30 5027 C 486.78 0.244969 1.58923 0
M  V30 5028 O 487.97 0.501365 1.66829 0
M  V30 5029 C 485.102 1.08833 3.23061 0
M  V30 5030 H 486.295 2.31705 1.90401 0
M  V30 5031 H 483.848 1.23105 0.963057 0
M  V30 5032 H 484.583 0.119767 3.24079 0
M  V30 5033 H 484.368 1.88306 3.43923 0
M  V30 5034 H 485.858 1.08946 4.03138 0
M  V30 5035 N 486.295 -0.989507 1.22664 0
M  V30 5036 C 487.706 -1.54406 1.04955 0
M  V30 5037 C 488.057 -1.92366 -0.385951 0
M  V30 5038 O 487.182 -1.75111 -1.27142 0
M  V30 5039 C 487.777 -2.80578 1.89899 0
M  V30 5040 C 486.336 -3.32464 1.76478 0
M  V30 5041 C 485.483 -2.05524 1.86159 0
M  V30 5042 H 488.434 -0.810211 1.3646 0
M  V30 5043 H 488.455 -3.53075 1.4184 0
M  V30 5044 H 487.967 -2.52918 2.94371 0
M  V30 5045 H 486.068 -3.65024 0.747528 0
M  V30 5046 H 486.181 -4.02838 2.59342 0
M  V30 5047 H 484.545 -2.19241 1.29636 0
M  V30 5048 H 485.328 -1.80258 2.92168 0
M  V30 5049 N 487.773 -1.03688 -1.18687 0
M  V30 5050 C 489.001 -0.757918 -1.92518 0
M  V30 5051 C 489.416 0.684398 -1.75959 0
M  V30 5052 O 488.773 1.46617 -1.08673 0
M  V30 5053 C 488.824 -1.10985 -3.44042 0
M  V30 5054 O 488.545 -2.49554 -3.60076 0
M  V30 5055 C 490.046 -0.854844 -4.3498 0
M  V30 5056 H 487.266 -0.276699 -0.611293 0
M  V30 5057 H 489.81 -1.38352 -1.50595 0
M  V30 5058 H 487.965 -0.529279 -3.83767 0
M  V30 5059 H 488.379 -2.6291 -4.53849 0
M  V30 5060 H 489.853 -1.15098 -5.39867 0
M  V30 5061 H 490.33 0.210507 -4.38695 0
M  V30 5062 H 490.936 -1.41853 -4.00946 0
M  V30 5063 N 489.251 1.34841 -0.815825 0
M  V30 5064 C 490.497 1.98793 -0.401129 0
M  V30 5065 C 490.83 1.64548 1.03139 0
M  V30 5066 O 490.105 0.913487 1.71714 0
M  V30 5067 C 490.388 3.55143 -0.595409 0
M  V30 5068 C 490.241 3.99155 -2.07352 0
M  V30 5069 C 491.56 4.40092 -0.0268823 0
M  V30 5070 H 488.679 0.722146 -0.14722 0
M  V30 5071 H 491.321 1.59847 -1.02707 0
M  V30 5072 H 489.471 3.8845 -0.0625779 0
M  V30 5073 H 491.143 3.76216 -2.66945 0
M  V30 5074 H 489.386 3.49726 -2.56659 0
M  V30 5075 H 490.057 5.07971 -2.1603 0
M  V30 5076 H 492.533 4.13298 -0.482042 0
M  V30 5077 H 491.409 5.48562 -0.19267 0
M  V30 5078 H 491.67 4.29016 1.06759 0
M  V30 5079 N 490.729 0.570148 1.46925 0
M  V30 5080 C 491.639 -0.173061 2.33961 0
M  V30 5081 C 492.655 -0.898825 1.48987 0
M  V30 5082 O 493.831 -0.864825 1.81887 0
M  V30 5083 C 490.896 -1.18177 3.25937 0
M  V30 5084 C 489.957 -0.462041 4.26806 0
M  V30 5085 C 489.19 -1.4227 5.14388 0
M  V30 5086 O 489.413 -2.65842 5.04662 0
M  V30 5087 O 488.347 -0.940127 5.94513 0
M  V30 5088 H 492.173 0.541216 2.98839 0
M  V30 5089 H 489.758 0.330647 1.45695 0
M  V30 5090 H 491.64 -1.76372 3.82715 0
M  V30 5091 H 490.315 -1.87774 2.63671 0
M  V30 5092 H 489.222 0.161429 3.73752 0
M  V30 5093 H 490.555 0.192719 4.91823 0
M  V30 5094 N 492.207 -1.54576 0.307264 0
M  V30 5095 C 493.14 -2.19946 -0.608195 0
M  V30 5096 C 494.118 -1.17096 -1.12815 0
M  V30 5097 O 495.302 -1.45766 -1.19518 0
M  V30 5098 C 492.429 -2.84826 -1.8328 0
M  V30 5099 C 491.475 -4.01256 -1.44554 0
M  V30 5100 S 492.308 -5.33197 -0.49612 0
M  V30 5101 C 493.464 -6.01563 -1.72838 0
M  V30 5102 H 493.697 -2.97253 -0.0528544 0
M  V30 5103 H 491.23 -1.54129 0.0913837 0
M  V30 5104 H 493.188 -3.22832 -2.53554 0
M  V30 5105 H 491.849 -2.07353 -2.35931 0
M  V30 5106 H 491.042 -4.45457 -2.35762 0
M  V30 5107 H 490.644 -3.6484 -0.822671 0
M  V30 5108 H 492.936 -6.22751 -2.6681 0
M  V30 5109 H 493.879 -6.9552 -1.32882 0
M  V30 5110 H 494.287 -5.31279 -1.90795 0
M  V30 5111 N 493.685 -0.035106 -1.57561 0
M  V30 5112 C 494.962 0.681212 -1.83354 0
M  V30 5113 C 495.342 1.89986 -0.920252 0
M  V30 5114 O 494.69 2.28489 0.0226815 0
M  V30 5115 C 494.9 1.05376 -3.32712 0
M  V30 5116 C 496.248 1.44286 -3.99333 0
M  V30 5117 O 497.272 1.14656 -3.37242 0
M  V30 5118 O 496.131 1.99518 -5.08778 0
M  V30 5119 H 493.225 0.334741 -0.756226 0
M  V30 5120 H 495.771 -0.0632448 -1.69582 0
M  V30 5121 H 494.543 0.186668 -3.90854 0
M  V30 5122 H 494.166 1.85619 -3.51613 0
M  V30 5123 N 495.163 1.55791 0.238111 0
M  V30 5124 C 496.073 1.94196 1.31625 0
M  V30 5125 C 497.089 0.843545 1.52185 0
M  V30 5126 O 498.265 1.1457 1.65637 0
M  V30 5127 C 495.33 2.2365 2.64918 0
M  V30 5128 C 494.391 3.46971 2.52804 0
M  V30 5129 C 493.624 3.7501 3.79741 0
M  V30 5130 O 493.847 3.04982 4.82019 0
M  V30 5131 O 492.781 4.68525 3.77846 0
M  V30 5132 H 496.607 2.86044 1.02043 0
M  V30 5133 H 494.192 1.42786 0.439603 0
M  V30 5134 H 496.074 2.43863 3.4367 0
M  V30 5135 H 494.749 1.34979 2.94215 0
M  V30 5136 H 493.656 3.32055 1.72309 0
M  V30 5137 H 494.989 4.35971 2.28451 0
M  V30 5138 N 496.642 -0.504142 1.49319 0
M  V30 5139 C 497.552 -1.63248 1.68486 0
M  V30 5140 C 498.568 -1.64488 0.567432 0
M  V30 5141 O 499.744 -1.82966 0.841749 0
M  V30 5142 C 496.809 -2.99627 1.74426 0
M  V30 5143 C 495.87 -3.09039 2.97982 0
M  V30 5144 C 495.103 -4.38913 3.0363 0
M  V30 5145 O 495.326 -5.27528 2.16958 0
M  V30 5146 O 494.26 -4.53231 3.96062 0
M  V30 5147 H 498.086 -1.50008 2.64067 0
M  V30 5148 H 495.671 -0.680086 1.33023 0
M  V30 5149 H 497.553 -3.80689 1.80705 0
M  V30 5150 H 496.228 -3.13136 0.820233 0
M  V30 5151 H 495.135 -2.27177 2.97223 0
M  V30 5152 H 496.468 -3.00456 3.89855 0
M  V30 5153 N 498.12 -1.38341 -0.754957 0
M  V30 5154 C 499.05 -1.38176 -1.88227 0
M  V30 5155 C 500.031 -0.247873 -1.68284 0
M  V30 5156 O 501.216 -0.45075 -1.88896 0
M  V30 5157 C 498.346 -1.20471 -3.25736 0
M  V30 5158 C 497.3 -2.3105 -3.60278 0
M  V30 5159 C 496.626 -1.98452 -4.96509 0
M  V30 5160 C 497.926 -3.73305 -3.65295 0
M  V30 5161 H 499.62 -2.32512 -1.88622 0
M  V30 5162 H 497.166 -1.1192 -0.906082 0
M  V30 5163 H 499.119 -1.18982 -4.04254 0
M  V30 5164 H 497.843 -0.225965 -3.25817 0
M  V30 5165 H 496.502 -2.31723 -2.84078 0
M  V30 5166 H 496.15 -0.990641 -4.93148 0
M  V30 5167 H 495.85 -2.7251 -5.20588 0
M  V30 5168 H 497.374 -1.98578 -5.77407 0
M  V30 5169 H 498.788 -3.7467 -4.3393 0
M  V30 5170 H 497.185 -4.46557 -4.00883 0
M  V30 5171 H 498.255 -4.05719 -2.65556 0
M  V30 5172 N 499.598 0.982988 -1.23187 0
M  V30 5173 C 500.548 2.05962 -0.977942 0
M  V30 5174 C 501.532 1.60725 0.0751148 0
M  V30 5175 O 502.724 1.76471 -0.136683 0
M  V30 5176 C 499.853 3.38564 -0.568276 0
M  V30 5177 C 498.939 3.90407 -1.6566 0
M  V30 5178 N 499.33 4.15359 -2.88635 0
M  V30 5179 C 497.628 4.18915 -1.53058 0
M  V30 5180 C 498.329 4.57642 -3.5908 0
M  V30 5181 N 497.305 4.6192 -2.86584 0
M  V30 5182 H 501.107 2.23208 -1.91195 0
M  V30 5183 H 498.621 1.16555 -1.13087 0
M  V30 5184 H 500.618 4.15276 -0.36764 0
M  V30 5185 H 499.278 3.22712 0.358713 0
M  V30 5186 H 500.289 4.03258 -3.24966 0
M  V30 5187 H 496.966 4.12081 -0.670506 0
M  V30 5188 H 498.356 4.85488 -4.6449 0
M  V30 5189 N 501.076 1.04316 1.18135 0
M  V30 5190 C 502.306 0.767003 1.91835 0
M  V30 5191 C 502.714 -0.68002 1.76557 0
M  V30 5192 O 502.057 -1.47548 1.09432 0
M  V30 5193 C 502.119 1.05674 3.43618 0
M  V30 5194 C 501.783 2.49818 3.82675 0
M  V30 5195 C 502.78 3.48003 3.86251 0
M  V30 5196 C 500.465 2.84596 4.13897 0
M  V30 5197 C 502.459 4.79016 4.20503 0
M  V30 5198 C 500.146 4.15813 4.4782 0
M  V30 5199 C 501.144 5.12834 4.51099 0
M  V30 5200 O 500.832 6.41699 4.84229 0
M  V30 5201 H 500.564 0.278948 0.615763 0
M  V30 5202 H 503.118 1.3946 1.50798 0
M  V30 5203 H 501.348 0.372029 3.84906 0
M  V30 5204 H 503.037 0.767994 3.98568 0
M  V30 5205 H 503.803 3.22475 3.62264 0
M  V30 5206 H 499.682 2.09748 4.1052 0
M  V30 5207 H 503.226 5.54739 4.22978 0
M  V30 5208 H 499.123 4.41109 4.71268 0
M  V30 5209 H 499.891 6.46387 5.02121 0
M  V30 5210 N 502.554 -1.34406 0.822964 0
M  V30 5211 C 503.517 -2.2783 0.250271 0
M  V30 5212 C 504.517 -1.50288 -0.571854 0
M  V30 5213 O 505.707 -1.69825 -0.387952 0
M  V30 5214 C 502.839 -3.34663 -0.649137 0
M  V30 5215 H 504.032 -2.79992 1.07444 0
M  V30 5216 H 501.585 -1.44539 0.594829 0
M  V30 5217 H 502.32 -2.87714 -1.49637 0
M  V30 5218 H 502.105 -3.92052 -0.0611199 0
M  V30 5219 H 503.595 -4.04349 -1.04363 0
M  V30 5220 N 504.032 -0.577932 -1.46621 0
M  V30 5221 C 505.257 -0.0652536 -2.07297 0
M  V30 5222 C 505.682 1.22828 -1.4246 0
M  V30 5223 O 505.04 1.74075 -0.506718 0
M  V30 5224 C 505.088 0.0920589 -3.60482 0
M  V30 5225 O 504.192 1.14972 -3.96049 0
M  V30 5226 H 503.533 -0.06065 -0.661224 0
M  V30 5227 H 506.063 -0.799515 -1.88332 0
M  V30 5228 H 506.073 0.299741 -4.06897 0
M  V30 5229 H 504.748 -0.852612 -4.07067 0
M  V30 5230 H 503.325 0.920879 -3.61351 0
M  V30 5231 N 505.51 1.54411 -0.315457 0
M  V30 5232 C 506.44 2.27002 0.547039 0
M  V30 5233 C 507.421 1.27492 1.12605 0
M  V30 5234 O 508.606 1.5629 1.15269 0
M  V30 5235 C 505.736 3.02171 1.71201 0
M  V30 5236 C 504.69 4.0895 1.26268 0
M  V30 5237 C 504.016 4.71915 2.51396 0
M  V30 5238 C 505.316 5.20891 0.383419 0
M  V30 5239 H 507.01 2.99343 -0.0584517 0
M  V30 5240 H 504.556 1.4397 -0.0295527 0
M  V30 5241 H 506.509 3.51681 2.32161 0
M  V30 5242 H 505.233 2.27433 2.34397 0
M  V30 5243 H 503.892 3.60312 0.676062 0
M  V30 5244 H 503.54 3.93801 3.12937 0
M  V30 5245 H 503.24 5.44039 2.22026 0
M  V30 5246 H 504.764 5.24195 3.13133 0
M  V30 5247 H 506.178 5.66206 0.899082 0
M  V30 5248 H 504.575 5.99821 0.182857 0
M  V30 5249 H 505.645 4.81324 -0.587821 0
M  V30 5250 N 506.988 0.0434614 1.5754 0
M  V30 5251 C 507.936 -0.951465 2.1225 0
M  V30 5252 C 508.93 -1.3274 1.05245 0
M  V30 5253 O 510.136 -1.30795 1.23663 0
M  V30 5254 H 506.511 -0.324667 0.678303 0
M  V30 5255 H 508.482 -0.464855 2.94757 0
M  V30 5256 C 507.231 -2.21972 2.67626 0
M  V30 5257 H 506.554 -1.93923 3.4962 0
M  V30 5258 H 507.994 -2.89765 3.09536 0
M  V30 5259 C 506.453 -2.95919 1.61038 0
M  V30 5260 O 506.983 -3.8857 1.01862 0
M  V30 5261 N 505.189 -2.58511 1.32741 0
M  V30 5262 H 504.736 -1.83244 1.81051 0
M  V30 5263 H 504.694 -3.08296 0.616531 0
M  V30 5264 N 508.466 -1.55915 -0.229846 0
M  V30 5265 C 509.713 -1.78542 -0.955452 0
M  V30 5266 C 510.041 -0.610785 -1.84661 0
M  V30 5267 O 509.296 0.405213 -1.91459 0
M  V30 5268 C 509.595 -3.06845 -1.8325 0
M  V30 5269 C 509.261 -4.37395 -1.09528 0
M  V30 5270 C 507.923 -4.72868 -0.891598 0
M  V30 5271 C 510.275 -5.18029 -0.574046 0
M  V30 5272 C 507.603 -5.86496 -0.154655 0
M  V30 5273 C 509.955 -6.32423 0.149513 0
M  V30 5274 C 508.619 -6.66504 0.364519 0
M  V30 5275 H 507.889 -0.653333 -0.349625 0
M  V30 5276 H 510.536 -1.90183 -0.224235 0
M  V30 5277 H 508.841 -2.90291 -2.63132 0
M  V30 5278 H 510.538 -3.21553 -2.39592 0
M  V30 5279 H 507.128 -4.09538 -1.26399 0
M  V30 5280 H 511.312 -4.91066 -0.718899 0
M  V30 5281 H 506.568 -6.11396 0.0222356 0
M  V30 5282 H 510.742 -6.94137 0.560947 0
M  V30 5283 H 508.369 -7.54397 0.937495 0
M  V30 5284 N 509.944 0.496216 -1.49584 0
M  V30 5285 C 510.894 1.59422 -1.62999 0
M  V30 5286 C 511.878 1.53402 -0.485457 0
M  V30 5287 O 513.07 1.60851 -0.738649 0
M  V30 5288 C 510.199 2.98009 -1.70427 0
M  V30 5289 C 509.285 3.09008 -2.90473 0
M  V30 5290 N 509.676 2.89884 -4.14489 0
M  V30 5291 C 507.974 3.40115 -2.8851 0
M  V30 5292 C 508.675 3.0519 -4.95211 0
M  V30 5293 N 507.651 3.3428 -4.2867 0
M  V30 5294 H 511.453 1.43297 -2.56599 0
M  V30 5295 H 508.967 0.702443 -1.46422 0
M  V30 5296 H 510.964 3.76926 -1.78136 0
M  V30 5297 H 509.624 3.152 -0.77967 0
M  V30 5298 H 510.635 2.65963 -4.44392 0
M  V30 5299 H 507.312 3.63452 -2.05448 0
M  V30 5300 H 508.702 2.94856 -6.03746 0
M  V30 5301 N 511.423 1.38739 0.74761 0
M  V30 5302 C 512.671 1.35007 1.50391 0
M  V30 5303 C 512.992 -0.0574274 1.94915 0
M  V30 5304 O 512.262 -1.00628 1.6808 0
M  V30 5305 H 510.842 0.496784 0.557866 0
M  V30 5306 H 513.504 1.73479 0.888319 0
M  V30 5307 H 512.6 2.00474 2.392 0
M  V30 5308 N 512.901 -0.976442 1.23707 0
M  V30 5309 C 513.834 -2.06793 0.964973 0
M  V30 5310 C 514.812 -1.62304 -0.0981472 0
M  V30 5311 O 515.996 -1.88464 0.0369477 0
M  V30 5312 C 513.123 -3.35636 0.454522 0
M  V30 5313 C 512.169 -3.99069 1.50485 0
M  V30 5314 S 513.002 -4.37814 3.0835 0
M  V30 5315 C 514.158 -5.69805 2.58985 0
M  V30 5316 H 514.391 -2.29556 1.88922 0
M  V30 5317 H 511.924 -1.11317 1.06995 0
M  V30 5318 H 513.882 -4.10162 0.166626 0
M  V30 5319 H 512.543 -3.10876 -0.448871 0
M  V30 5320 H 511.736 -4.91896 1.09792 0
M  V30 5321 H 511.338 -3.30938 1.7423 0
M  V30 5322 H 513.63 -6.46919 2.01252 0
M  V30 5323 H 514.573 -6.15345 3.50366 0
M  V30 5324 H 514.981 -5.27994 1.99705 0
M  V30 5325 N 514.379 -1.04941 -1.1758 0
M  V30 5326 C 515.327 -0.64204 -2.23563 0
M  V30 5327 C 516.321 0.335453 -1.66045 0
M  V30 5328 O 517.527 0.20179 -1.78865 0
M  V30 5329 H 513.902 -0.18944 -0.727748 0
M  V30 5330 H 515.873 -1.54609 -2.55223 0
M  V30 5331 C 514.622 -0.0301051 -3.47687 0
M  V30 5332 H 513.945 -0.773339 -3.92249 0
M  V30 5333 H 515.385 0.217592 -4.23441 0
M  V30 5334 C 513.844 1.2225 -3.13937 0
M  V30 5335 O 514.374 2.3122 -3.28482 0
M  V30 5336 N 512.58 1.11917 -2.68185 0
M  V30 5337 H 512.127 0.232403 -2.5655 0
M  V30 5338 H 512.085 1.95814 -2.45976 0
M  V30 5339 N 515.857 1.33968 -0.830081 0
M  V30 5340 C 517.268 1.80439 -0.479455 0
M  V30 5341 C 517.619 1.68756 1.00079 0
M  V30 5342 O 516.744 1.23171 1.77927 0
M  V30 5343 C 517.339 3.27611 -0.863505 0
M  V30 5344 C 515.898 3.72133 -0.565145 0
M  V30 5345 C 515.045 2.55549 -1.07657 0
M  V30 5346 H 517.996 1.21614 -1.0196 0
M  V30 5347 H 518.017 3.8012 -0.170083 0
M  V30 5348 H 517.529 3.36082 -1.94089 0
M  V30 5349 H 515.63 3.69196 0.502536 0
M  V30 5350 H 515.743 4.65963 -1.11422 0
M  V30 5351 H 514.107 2.49788 -0.497807 0
M  V30 5352 H 514.89 2.66786 -2.16055 0
M  V30 5353 N 517.335 0.585699 1.46312 0
M  V30 5354 C 518.56 0.0762461 2.0726 0
M  V30 5355 C 518.985 -1.22071 1.43109 0
M  V30 5356 O 518.343 -1.73804 0.515942 0
M  V30 5357 C 518.391 -0.0729404 3.60526 0
M  V30 5358 O 517.495 -1.1287 3.96654 0
M  V30 5359 H 516.836 0.0641558 0.660893 0
M  V30 5360 H 519.366 0.809492 1.87905 0
M  V30 5361 H 519.376 -0.278158 4.07051 0
M  V30 5362 H 518.051 0.874188 4.06609 0
M  V30 5363 H 516.628 -0.901703 3.61834 0
M  V30 5364 N 518.813 -1.54241 0.323641 0
M  V30 5365 C 519.76 -2.24339 -0.542277 0
M  V30 5366 C 520.73 -1.23421 -1.11159 0
M  V30 5367 O 521.915 -1.52104 -1.15192 0
M  V30 5368 C 519.055 -3.00479 -1.69725 0
M  V30 5369 C 518.168 -4.16214 -1.15716 0
M  V30 5370 C 517.303 -4.79884 -2.27783 0
M  V30 5371 C 516.342 -5.87722 -1.71023 0
M  V30 5372 N 515.479 -6.45254 -2.76752 0
M  V30 5373 H 520.319 -2.97935 0.0620613 0
M  V30 5374 H 517.856 -1.47039 0.0423993 0
M  V30 5375 H 519.814 -3.42869 -2.3769 0
M  V30 5376 H 518.444 -2.29217 -2.27288 0
M  V30 5377 H 517.496 -3.78605 -0.369063 0
M  V30 5378 H 518.808 -4.93838 -0.701832 0
M  V30 5379 H 517.962 -5.25243 -3.03651 0
M  V30 5380 H 516.701 -4.01641 -2.76652 0
M  V30 5381 H 515.706 -5.41765 -0.936518 0
M  V30 5382 H 516.931 -6.67863 -1.2303 0
M  V30 5383 H 514.877 -5.69884 -3.24912 0
M  V30 5384 H 514.794 -7.18292 -2.35782 0
M  V30 5385 H 516.062 -6.95269 -3.5245 0
M  V30 5386 N 520.291 -0.0518155 -1.57515 0
M  V30 5387 C 521.568 0.661727 -1.84067 0
M  V30 5388 C 521.948 1.88999 -0.940351 0
M  V30 5389 O 521.296 2.285 -0.00155404 0
M  V30 5390 C 521.506 1.01841 -3.3381 0
M  V30 5391 C 522.854 1.40043 -4.00841 0
M  V30 5392 O 523.878 1.11073 -3.38439 0
M  V30 5393 O 522.737 1.94111 -5.10865 0
M  V30 5394 H 519.831 0.326702 -0.759733 0
M  V30 5395 H 522.377 -0.0812277 -1.69505 0
M  V30 5396 H 521.149 0.145202 -3.91031 0
M  V30 5397 H 520.772 1.81879 -3.53562 0
M  V30 5398 N 521.769 1.56035 0.221574 0
M  V30 5399 C 522.997 1.8313 0.962864 0
M  V30 5400 C 523.412 0.630934 1.77946 0
M  V30 5401 O 522.769 -0.400519 1.78051 0
M  V30 5402 C 522.82 3.08742 1.88045 0
M  V30 5403 O 522.541 4.24147 1.09686 0
M  V30 5404 C 524.042 3.48824 2.73563 0
M  V30 5405 H 521.262 0.608775 0.282194 0
M  V30 5406 H 523.806 2.03124 0.23681 0
M  V30 5407 H 521.961 2.90723 2.56045 0
M  V30 5408 H 522.375 4.95505 1.71974 0
M  V30 5409 H 523.849 4.39752 3.3365 0
M  V30 5410 H 524.326 2.70575 3.45956 0
M  V30 5411 H 524.932 3.69282 2.10976 0
M  V30 5412 N 523.247 -0.488276 1.49845 0
M  V30 5413 C 524.472 -1.26997 1.63971 0
M  V30 5414 C 524.897 -1.85427 0.315994 0
M  V30 5415 O 524.255 -1.66475 -0.718032 0
M  V30 5416 C 524.303 -2.36689 2.72049 0
M  V30 5417 O 523.407 -3.40882 2.32107 0
M  V30 5418 H 522.748 -0.374376 0.548396 0
M  V30 5419 H 525.278 -0.583104 1.96115 0
M  V30 5420 H 525.288 -2.82262 2.94605 0
M  V30 5421 H 523.963 -1.93529 3.68129 0
M  V30 5422 H 522.54 -3.01139 2.19931 0
M  V30 5423 N 524.725 -1.39134 -0.740242 0
M  V30 5424 C 525.953 -1.39334 -1.5295 0
M  V30 5425 C 526.368 0.0135008 -1.88795 0
M  V30 5426 O 525.725 0.983524 -1.5373 0
M  V30 5427 C 525.776 -2.2614 -2.82034 0
M  V30 5428 O 525.497 -3.61345 -2.47712 0
M  V30 5429 C 526.998 -2.34666 -3.76094 0
M  V30 5430 H 524.218 -0.476103 -0.472828 0
M  V30 5431 H 526.762 -1.82883 -0.9151 0
M  V30 5432 H 524.917 -1.86018 -3.39818 0
M  V30 5433 H 525.331 -4.07194 -3.30595 0
M  V30 5434 H 526.805 -2.99663 -4.63579 0
M  V30 5435 H 527.282 -1.36426 -4.17474 0
M  V30 5436 H 527.888 -2.75236 -3.2423 0
M  V30 5437 N 526.204 0.969867 -1.24223 0
M  V30 5438 C 527.114 2.09806 -1.0497 0
M  V30 5439 C 528.13 1.73998 0.00886455 0
M  V30 5440 O 529.306 2.00513 -0.188848 0
M  V30 5441 C 526.371 3.40467 -0.654452 0
M  V30 5442 C 525.432 3.90236 -1.78926 0
M  V30 5443 C 524.665 5.14662 -1.41277 0
M  V30 5444 O 524.888 5.69602 -0.301632 0
M  V30 5445 O 523.822 5.58761 -2.23763 0
M  V30 5446 H 527.648 2.28942 -1.99548 0
M  V30 5447 H 525.233 1.08197 -1.03023 0
M  V30 5448 H 527.115 4.19039 -0.445452 0
M  V30 5449 H 525.79 3.22636 0.262216 0
M  V30 5450 H 524.697 3.12735 -2.05299 0
M  V30 5451 H 526.03 4.1254 -2.68462 0
M  V30 5452 N 527.682 1.05563 1.17022 0
M  V30 5453 C 528.912 0.787307 1.91011 0
M  V30 5454 C 529.32 -0.661256 1.77268 0
M  V30 5455 O 528.663 -1.46379 1.10991 0
M  V30 5456 C 528.725 1.09313 3.42478 0
M  V30 5457 C 528.389 2.53863 3.80004 0
M  V30 5458 C 529.386 3.52081 3.82538 0
M  V30 5459 C 527.071 2.88969 4.10855 0
M  V30 5460 C 529.065 4.83449 4.15399 0
M  V30 5461 C 526.752 4.2054 4.43384 0
M  V30 5462 C 527.75 5.17589 4.45635 0
M  V30 5463 O 527.438 6.46799 4.77395 0
M  V30 5464 H 527.17 0.285463 0.61277 0
M  V30 5465 H 529.724 1.41051 1.49311 0
M  V30 5466 H 527.954 0.412833 3.8449 0
M  V30 5467 H 529.643 0.810224 3.97731 0
M  V30 5468 H 530.409 3.26299 3.58823 0
M  V30 5469 H 526.288 2.1409 4.08272 0
M  V30 5470 H 529.832 5.59194 4.1707 0
M  V30 5471 H 525.729 4.46083 4.66563 0
M  V30 5472 H 526.497 6.51677 4.95237 0
M  V30 5473 N 529.16 -1.33526 0.837174 0
M  V30 5474 C 530.385 -2.0258 0.444545 0
M  V30 5475 C 530.81 -1.6258 -0.946006 0
M  V30 5476 O 530.168 -0.817548 -1.6182 0
M  V30 5477 C 530.216 -3.5605 0.571006 0
M  V30 5478 O 529.32 -4.10422 -0.403431 0
M  V30 5479 H 528.661 -0.638866 0.180958 0
M  V30 5480 H 531.191 -1.70462 1.13154 0
M  V30 5481 H 531.201 -4.05488 0.452024 0
M  V30 5482 H 529.876 -3.84509 1.58512 0
M  V30 5483 H 528.453 -3.72113 -0.242147 0
M  V30 5484 N 530.638 -0.59345 -1.46 0
M  V30 5485 C 531.548 0.135817 -2.34207 0
M  V30 5486 C 532.564 0.875008 -1.50398 0
M  V30 5487 O 533.74 0.835778 -1.83239 0
M  V30 5488 C 530.805 1.12977 -3.27776 0
M  V30 5489 C 529.866 0.394081 -4.27487 0
M  V30 5490 C 529.099 1.34068 -5.16586 0
M  V30 5491 O 529.322 2.5778 -5.08828 0
M  V30 5492 O 528.256 0.845426 -5.95933 0
M  V30 5493 H 532.082 -0.588691 -2.9794 0
M  V30 5494 H 529.667 -0.353784 -1.45151 0
M  V30 5495 H 531.549 1.70261 -3.85473 0
M  V30 5496 H 530.224 1.83556 -2.66625 0
M  V30 5497 H 529.131 -0.220869 -3.73447 0
M  V30 5498 H 530.464 -0.270939 -4.91454 0
M  V30 5499 N 532.116 1.54067 -0.331816 0
M  V30 5500 C 533.362 2.01012 0.268667 0
M  V30 5501 C 533.695 1.2195 1.51136 0
M  V30 5502 O 532.97 0.303972 1.9211 0
M  V30 5503 C 533.253 3.55158 0.59456 0
M  V30 5504 C 533.106 4.4494 -0.659409 0
M  V30 5505 C 534.425 4.16939 1.4089 0
M  V30 5506 H 531.544 0.730698 0.0961756 0
M  V30 5507 H 534.186 1.84593 -0.450031 0
M  V30 5508 H 532.336 3.6928 1.20685 0
M  V30 5509 H 534.008 4.42675 -1.29756 0
M  V30 5510 H 532.251 4.1428 -1.28665 0
M  V30 5511 H 532.922 5.50643 -0.386804 0
M  V30 5512 H 535.398 4.06443 0.891272 0
M  V30 5513 H 534.274 5.24889 1.60569 0
M  V30 5514 H 534.535 3.70798 2.40752 0
M  V30 5515 N 533.594 0.0601682 1.57485 0
M  V30 5516 C 535.01 -0.296422 1.56823 0
M  V30 5517 C 535.21 -1.70831 1.0686 0
M  V30 5518 O 534.266 -2.4174 0.729245 0
M  V30 5519 C 535.579 -0.116681 3.00474 0
M  V30 5520 C 537.127 -0.187103 3.1244 0
M  V30 5521 C 537.602 -0.035783 4.57986 0
M  V30 5522 N 539.093 -0.0917676 4.63109 0
M  V30 5523 C 539.828 0.00107251 5.734 0
M  V30 5524 N 539.324 0.146773 6.92645 0
M  V30 5525 N 541.117 -0.0551577 5.62073 0
M  V30 5526 H 533.268 0.983055 1.88281 0
M  V30 5527 H 535.531 0.382386 0.867459 0
M  V30 5528 H 535.237 0.85712 3.41096 0
M  V30 5529 H 535.111 -0.873929 3.66936 0
M  V30 5530 H 537.498 -1.15138 2.71712 0
M  V30 5531 H 537.579 0.601052 2.48638 0
M  V30 5532 H 537.223 0.925212 4.99402 0
M  V30 5533 H 537.153 -0.843196 5.19806 0
M  V30 5534 H 539.644 -0.203261 3.77353 0
M  V30 5535 H 539.957 0.210076 7.72514 0
M  V30 5536 H 538.302 0.181979 6.94762 0
M  V30 5537 H 541.493 -0.167605 4.678 0
M  V30 5538 H 541.666 0.020652 6.47997 0
M  V30 5539 N 535.072 -1.5615 -0.213296 0
M  V30 5540 C 536.3 -1.83638 -0.953139 0
M  V30 5541 C 536.715 -0.640362 -1.77609 0
M  V30 5542 O 536.072 0.391071 -1.78261 0
M  V30 5543 C 536.123 -3.09735 -1.86405 0
M  V30 5544 O 535.844 -4.24723 -1.07435 0
M  V30 5545 C 537.345 -3.5027 -2.71709 0
M  V30 5546 H 534.565 -0.610263 -0.278962 0
M  V30 5547 H 537.109 -2.03247 -0.226035 0
M  V30 5548 H 535.264 -2.92077 -2.545 0
M  V30 5549 H 535.678 -4.9641 -1.69343 0
M  V30 5550 H 537.152 -4.41515 -3.31313 0
M  V30 5551 H 537.629 -2.72406 -3.44516 0
M  V30 5552 H 538.235 -3.70396 -2.09015 0
M  V30 5553 N 536.55 0.480323 -1.50102 0
M  V30 5554 C 537.482 1.59669 -1.64433 0
M  V30 5555 C 538.495 1.54063 -0.52615 0
M  V30 5556 O 539.684 1.59619 -0.798992 0
M  V30 5557 C 536.784 2.98527 -1.6042 0
M  V30 5558 C 535.957 3.291 -2.88117 0
M  V30 5559 C 535.016 4.47468 -2.76873 0
M  V30 5560 O 534.042 4.4823 -3.50825 0
M  V30 5561 N 535.244 5.48593 -1.89806 0
M  V30 5562 H 538.009 1.47795 -2.60723 0
M  V30 5563 H 535.57 0.66858 -1.4745 0
M  V30 5564 H 537.562 3.75666 -1.50523 0
M  V30 5565 H 536.132 3.04218 -0.719036 0
M  V30 5566 H 535.352 2.40662 -3.12211 0
M  V30 5567 H 536.64 3.46334 -3.72734 0
M  V30 5568 H 536.038 5.50791 -1.2902 0
M  V30 5569 H 534.595 6.24752 -1.85819 0
M  V30 5570 O 538.067 1.48883 0.625791 0
M  V30 5571 H 538.758 1.45381 1.28 0
M  V30 END ATOM
M  V30 BEGIN BOND
M  V30 END BOND
M  V30 END CTAB
M  END
$$$$
