drugbank_target|P20231 Tryptase beta-2 (DB02018; DB04654; DB04764; DB06962)
 OpenBabel12092119543D

  0  0  0     0  0            999 V3000
M  V30 BEGIN CTAB
M  V30 COUNTS 4270 4340 0 0 0
M  V30 BEGIN ATOM
M  V30 1 H -0.908 1.98254 -0.117106 0
M  V30 2 N 0 1.576 0 0
M  V30 3 C 0.933 2.03868 1.02534 0
M  V30 4 C 1.911 0.928543 1.3348 0
M  V30 5 O 3.095 1.19667 1.45644 0
M  V30 6 C 0.222 2.43627 2.35294 0
M  V30 7 C -0.732 3.65373 2.2001 0
M  V30 8 S 0.101 5.13292 1.52614 0
M  V30 9 C 1.257 5.56322 2.86805 0
M  V30 10 H 1.49 2.90518 0.631377 0
M  V30 11 H -0.977 1.52953 0.210867 0
M  V30 12 H 0.981 2.67203 3.11629 0
M  V30 13 H -0.358 1.57376 2.7183 0
M  V30 14 H -1.165 3.90944 3.18086 0
M  V30 15 H -1.563 3.418 1.51819 0
M  V30 16 H 0.729 5.58782 3.83104 0
M  V30 17 H 1.672 6.56266 2.65933 0
M  V30 18 H 2.08 4.83886 2.90714 0
M  V30 19 N 1.4781 -0.272755 1.55222 0
M  V30 20 C 2.4081 -1.34136 1.91127 0
M  V30 21 C 3.3891 -1.51513 0.773168 0
M  V30 22 O 4.5741 -1.64552 1.03132 0
M  V30 23 C 1.7041 -2.70083 2.1834 0
M  V30 24 C 0.6581 -2.67437 3.34158 0
M  V30 25 C -0.0159 -4.06938 3.46851 0
M  V30 26 C 1.2841 -2.26686 4.70543 0
M  V30 27 H 2.9781 -1.04333 2.80633 0
M  V30 28 H 0.5241 -0.500454 1.35024 0
M  V30 29 H 2.4771 -3.44952 2.42046 0
M  V30 30 H 1.2011 -3.01469 1.25634 0
M  V30 31 H -0.1399 -1.95026 3.1042 0
M  V30 32 H -0.4919 -4.35547 2.51611 0
M  V30 33 H -0.7919 -4.06062 4.2472 0
M  V30 34 H 0.7321 -4.83545 3.72849 0
M  V30 35 H 2.1461 -2.91277 4.93792 0
M  V30 36 H 0.5431 -2.36971 5.5133 0
M  V30 37 H 1.6131 -1.21818 4.69349 0
M  V30 38 N 2.9562 -1.48159 -0.537278 0
M  V30 39 C 3.9042 -1.62573 -1.66352 0
M  V30 40 C 4.8982 -0.492366 -1.62087 0
M  V30 41 O 6.1042 -0.670847 -1.67032 0
M  V30 42 H 2.4792 -0.511992 -0.550789 0
M  V30 43 H 4.4502 -2.57176 -1.51337 0
M  V30 44 C 3.1992 -1.67583 -3.04649 0
M  V30 45 H 2.5222 -2.54151 -3.08622 0
M  V30 46 H 3.9622 -1.81713 -3.83088 0
M  V30 47 C 2.4212 -0.413039 -3.34358 0
M  V30 48 O 2.9512 0.477259 -3.98855 0
M  V30 49 N 1.1572 -0.286961 -2.8918 0
M  V30 50 H 0.7042 -1.01241 -2.36871 0
M  V30 51 H 0.6622 0.556963 -3.09427 0
M  V30 52 N 4.4343 0.785586 -1.36625 0
M  V30 53 C 5.3643 1.91259 -1.33949 0
M  V30 54 C 6.3453 1.68795 -0.210325 0
M  V30 55 O 7.5303 1.89854 -0.408561 0
M  V30 56 C 4.6603 3.28339 -1.13186 0
M  V30 57 C 3.6143 3.65335 -2.22967 0
M  V30 58 C 2.9403 5.00806 -1.87342 0
M  V30 59 C 4.2403 3.7352 -3.65075 0
M  V30 60 H 5.9343 1.93755 -2.28253 0
M  V30 61 H 3.4803 0.930788 -1.09874 0
M  V30 62 H 5.4333 4.06804 -1.09948 0
M  V30 63 H 4.1573 3.2624 -0.153332 0
M  V30 64 H 2.8163 2.89169 -2.25337 0
M  V30 65 H 2.4643 4.95233 -0.880545 0
M  V30 66 H 2.1643 5.26529 -2.60846 0
M  V30 67 H 3.6883 5.81687 -1.85667 0
M  V30 68 H 5.1023 4.42168 -3.64911 0
M  V30 69 H 3.4993 4.10731 -4.37516 0
M  V30 70 H 4.5693 2.74527 -3.99703 0
M  V30 71 N 5.9124 1.20967 1.01018 0
M  V30 72 C 6.8424 0.988272 2.11555 0
M  V30 73 C 7.8234 -0.0849778 1.69888 0
M  V30 74 O 9.0084 0.0738202 1.9406 0
M  V30 75 C 6.1384 0.546528 3.42973 0
M  V30 76 C 5.0924 1.56375 3.9841 0
M  V30 77 C 4.4184 0.97842 5.25672 0
M  V30 78 C 5.7184 2.94922 4.31066 0
M  V30 79 H 7.4124 1.91276 2.30334 0
M  V30 80 H 4.9584 0.921073 1.1069 0
M  V30 81 H 6.9114 0.378839 4.19694 0
M  V30 82 H 5.6354 -0.413598 3.23971 0
M  V30 83 H 4.2944 1.71891 3.23804 0
M  V30 84 H 3.9424 0.0101688 5.02999 0
M  V30 85 H 3.6424 1.65784 5.63728 0
M  V30 86 H 5.1664 0.821939 6.05043 0
M  V30 87 H 6.5804 2.8288 4.9865 0
M  V30 88 H 4.9774 3.5983 4.80253 0
M  V30 89 H 6.0474 3.4616 3.39561 0
M  V30 90 N 7.3905 -1.2043 1.01659 0
M  V30 91 C 8.3205 -2.25466 0.607226 0
M  V30 92 C 9.3015 -1.65853 -0.377716 0
M  V30 93 O 10.4865 -1.92409 -0.263149 0
M  V30 94 C 7.6165 -3.47256 -0.0552949 0
M  V30 95 C 6.5705 -4.19462 0.850632 0
M  V30 96 C 5.8965 -5.34673 0.0538859 0
M  V30 97 C 7.1965 -4.75603 2.15868 0
M  V30 98 H 8.8905 -2.59962 1.48526 0
M  V30 99 H 6.4365 -1.2496 0.715605 0
M  V30 100 H 8.3895 -4.19917 -0.353233 0
M  V30 101 H 7.1135 -3.11924 -0.968045 0
M  V30 102 H 5.7725 -3.48667 1.13257 0
M  V30 103 H 5.4205 -4.95585 -0.860514 0
M  V30 104 H 5.1205 -5.83913 0.657192 0
M  V30 105 H 6.6445 -6.10138 -0.237598 0
M  V30 106 H 8.0585 -5.40083 1.92311 0
M  V30 107 H 6.4555 -5.3528 2.71284 0
M  V30 108 H 7.5255 -3.94346 2.82169 0
M  V30 109 N 8.8686 -0.792821 -1.36206 0
M  V30 110 C 9.7986 -0.207853 -2.32573 0
M  V30 111 C 10.7796 0.659055 -1.56813 0
M  V30 112 O 11.9646 0.592176 -1.84951 0
M  V30 113 C 9.0946 0.655449 -3.41059 0
M  V30 114 C 8.0486 -0.111842 -4.27854 0
M  V30 115 C 7.3746 0.872274 -5.27537 0
M  V30 116 C 8.6746 -1.30299 -5.05786 0
M  V30 117 H 10.3686 -1.01294 -2.81744 0
M  V30 118 H 7.9146 -0.48854 -1.3546 0
M  V30 119 H 9.8676 1.07464 -4.07467 0
M  V30 120 H 8.5916 1.49328 -2.90463 0
M  V30 121 H 7.2506 -0.512053 -3.63006 0
M  V30 122 H 6.8986 1.70523 -4.73214 0
M  V30 123 H 6.5986 0.363291 -5.86476 0
M  V30 124 H 8.1226 1.28996 -5.96818 0
M  V30 125 H 9.5366 -0.959379 -5.65216 0
M  V30 126 H 7.9336 -1.7455 -5.74154 0
M  V30 127 H 9.0036 -2.09663 -4.37229 0
M  V30 128 N 10.3467 1.47872 -0.545128 0
M  V30 129 C 11.3097 2.28337 0.198717 0
M  V30 130 C 12.3097 1.36255 0.853888 0
M  V30 131 O 13.4997 1.59003 0.711606 0
M  V30 132 C 10.6317 3.15585 1.28915 0
M  V30 133 H 11.8247 2.95567 -0.507941 0
M  V30 134 H 9.3777 1.53362 -0.301616 0
M  V30 135 H 10.1127 2.53019 2.02859 0
M  V30 136 H 9.8977 3.83337 0.824309 0
M  V30 137 H 11.3877 3.76243 1.81194 0
M  V30 138 N 11.8248 0.280983 1.55075 0
M  V30 139 C 12.7548 -0.597469 2.25727 0
M  V30 140 C 13.7358 -1.15417 1.24952 0
M  V30 141 O 14.9208 -1.18722 1.53684 0
M  V30 142 C 12.0508 -1.7789 2.98283 0
M  V30 143 C 11.0048 -1.35347 4.06036 0
M  V30 144 C 10.3308 -2.61846 4.66198 0
M  V30 145 C 11.6308 -0.499354 5.19907 0
M  V30 146 H 13.3248 -0.00824265 2.99399 0
M  V30 147 H 10.8708 -0.0025244 1.44 0
M  V30 148 H 12.8238 -2.39937 3.46422 0
M  V30 149 H 11.5478 -2.39405 2.22155 0
M  V30 150 H 10.2068 -0.756156 3.58717 0
M  V30 151 H 9.8548 -3.21632 3.86732 0
M  V30 152 H 9.5548 -2.3409 5.38958 0
M  V30 153 H 11.0788 -3.24732 5.1709 0
M  V30 154 H 12.4928 -1.02498 5.64063 0
M  V30 155 H 10.8898 -0.316424 5.99265 0
M  V30 156 H 11.9598 0.480459 4.82514 0
M  V30 157 N 13.3029 -1.57598 0.00835791 0
M  V30 158 C 14.7139 -1.7892 -0.53333 0
M  V30 159 C 15.0649 -0.916609 -1.73473 0
M  V30 160 O 14.1899 -0.121336 -2.1606 0
M  V30 161 C 14.7849 -3.24488 -0.974313 0
M  V30 162 C 13.3439 -3.46878 -1.46125 0
M  V30 163 C 12.4909 -2.74157 -0.416302 0
M  V30 164 H 15.4419 -1.56958 0.234495 0
M  V30 165 H 15.4629 -3.3306 -1.83988 0
M  V30 166 H 14.9749 -3.87972 -0.099718 0
M  V30 167 H 13.0759 -2.8862 -2.35646 0
M  V30 168 H 13.1889 -4.55572 -1.48295 0
M  V30 169 H 11.5529 -2.39022 -0.87981 0
M  V30 170 H 12.3359 -3.40345 0.44947 0
M  V30 171 N 14.781 0.264519 -1.55364 0
M  V30 172 C 16.027 0.99646 -1.76631 0
M  V30 173 C 16.36 1.85632 -0.570478 0
M  V30 174 O 15.635 1.89647 0.43175 0
M  V30 175 C 15.918 1.87187 -3.07625 0
M  V30 176 C 15.771 1.04138 -4.37579 0
M  V30 177 C 17.09 2.85749 -3.34717 0
M  V30 178 H 14.209 0.360841 -0.642622 0
M  V30 179 H 16.851 0.268218 -1.88097 0
M  V30 180 H 15.001 2.49279 -2.9798 0
M  V30 181 H 16.673 0.440517 -4.59192 0
M  V30 182 H 14.916 0.345115 -4.32425 0
M  V30 183 H 15.587 1.68729 -5.2558 0
M  V30 184 H 18.063 2.33793 -3.4421 0
M  V30 185 H 16.939 3.44136 -4.27623 0
M  V30 186 H 17.2 3.61311 -2.54768 0
M  V30 187 N 16.2591 1.48442 0.529413 0
M  V30 188 C 17.1891 1.65902 1.64313 0
M  V30 189 C 18.1701 0.507897 1.6234 0
M  V30 190 O 19.3551 0.740503 1.79528 0
M  V30 191 C 16.4851 1.69911 3.02898 0
M  V30 192 C 15.4391 2.8453 3.19729 0
M  V30 193 C 14.7651 2.73629 4.59381 0
M  V30 194 C 16.0651 4.25821 3.02447 0
M  V30 195 H 17.7591 2.5914 1.49955 0
M  V30 196 H 15.3051 1.24709 0.719982 0
M  V30 197 H 17.2581 1.80715 3.80684 0
M  V30 198 H 15.9821 0.732524 3.18279 0
M  V30 199 H 14.6411 2.73283 2.44361 0
M  V30 200 H 14.2891 1.74938 4.71599 0
M  V30 201 H 13.9891 3.50541 4.71588 0
M  V30 202 H 15.5131 2.86401 5.39265 0
M  V30 203 H 16.9271 4.37898 3.70024 0
M  V30 204 H 15.3241 5.03735 3.26146 0
M  V30 205 H 16.3941 4.42244 1.98867 0
M  V30 206 N 17.7372 -0.778329 1.37039 0
M  V30 207 C 18.7002 -1.87301 1.32102 0
M  V30 208 C 19.7002 -1.59198 0.226405 0
M  V30 209 O 20.8902 -1.67403 0.481861 0
M  V30 210 C 18.0222 -3.24309 1.05055 0
M  V30 211 H 19.2152 -1.93093 2.29467 0
M  V30 212 H 16.7682 -0.977358 1.21973 0
M  V30 213 H 17.5032 -3.24196 0.0819373 0
M  V30 214 H 17.2882 -3.46098 1.84279 0
M  V30 215 H 18.7782 -4.04382 1.04234 0
M  V30 216 N 19.2153 -1.21501 -1.00376 0
M  V30 217 C 20.4403 -1.05977 -1.78279 0
M  V30 218 C 20.8653 0.385994 -1.84097 0
M  V30 219 O 20.2233 1.27849 -1.28547 0
M  V30 220 C 20.2713 -1.66302 -3.19963 0
M  V30 221 O 19.3753 -0.909333 -4.0225 0
M  V30 222 H 18.7163 -0.372906 -0.549397 0
M  V30 223 H 21.2463 -1.6107 -1.26165 0
M  V30 224 H 21.2563 -1.70574 -3.70632 0
M  V30 225 H 19.9313 -2.71515 -3.15043 0
M  V30 226 H 18.5083 -0.941795 -3.60811 0
M  V30 227 N 20.6934 1.19889 -1.02296 0
M  V30 228 C 22.1094 1.41462 -0.738954 0
M  V30 229 C 22.3094 1.89721 0.678846 0
M  V30 230 O 21.3654 2.07016 1.4457 0
M  V30 231 C 22.6784 2.43083 -1.77005 0
M  V30 232 C 24.2264 2.5684 -1.78892 0
M  V30 233 C 24.7014 3.61709 -2.80945 0
M  V30 234 N 26.1924 3.69199 -2.79725 0
M  V30 235 C 26.9274 4.50019 -3.55345 0
M  V30 236 N 26.4234 5.34592 -4.40662 0
M  V30 237 N 28.2164 4.44612 -3.43914 0
M  V30 238 H 20.3674 0.868827 -1.93817 0
M  V30 239 H 22.6304 0.44399 -0.837602 0
M  V30 240 H 22.3364 2.14636 -2.78612 0
M  V30 241 H 22.2104 3.4217 -1.58744 0
M  V30 242 H 24.5974 2.84614 -0.779674 0
M  V30 243 H 24.6784 1.57927 -2.01228 0
M  V30 244 H 24.3224 3.34678 -3.82038 0
M  V30 245 H 24.2524 4.60259 -2.5587 0
M  V30 246 H 26.7434 3.08794 -2.17842 0
M  V30 247 H 27.0564 5.93363 -4.95116 0
M  V30 248 H 25.4014 5.34073 -4.44737 0
M  V30 249 H 28.5924 3.7758 -2.76679 0
M  V30 250 H 28.7654 5.0736 -4.031 0
M  V30 251 N 22.1715 0.800033 1.35784 0
M  V30 252 C 23.1345 0.211565 2.28221 0
M  V30 253 C 24.1345 -0.59728 1.49296 0
M  V30 254 O 25.3245 -0.416721 1.69142 0
M  V30 255 C 22.4565 -0.705846 3.33513 0
M  V30 256 H 23.6495 1.02677 2.81776 0
M  V30 257 H 21.2025 0.570211 1.45528 0
M  V30 258 H 21.9375 -1.54498 2.85133 0
M  V30 259 H 21.7225 -0.127655 3.91892 0
M  V30 260 H 23.2125 -1.11211 4.02519 0
M  V30 261 N 23.6496 -1.47581 0.552962 0
M  V30 262 C 24.8796 -2.06575 0.0320091 0
M  V30 263 C 25.2876 -1.4067 -1.26525 0
M  V30 264 O 24.6306 -0.495808 -1.76883 0
M  V30 265 C 24.6926 -3.58705 -0.238913 0
M  V30 266 C 24.3566 -4.46625 0.968272 0
M  V30 267 C 25.3536 -4.85 1.87274 0
M  V30 268 C 23.0386 -4.88201 1.18175 0
M  V30 269 C 25.0326 -5.63745 2.9744 0
M  V30 270 C 22.7196 -5.66712 2.28651 0
M  V30 271 C 23.7176 -6.04394 3.18114 0
M  V30 272 O 23.4056 -6.81324 4.26676 0
M  V30 273 H 23.1376 -0.674763 0.0408689 0
M  V30 274 H 25.6916 -1.90634 0.764719 0
M  V30 275 H 23.9216 -3.72844 -1.02588 0
M  V30 276 H 25.6106 -3.99735 -0.704731 0
M  V30 277 H 26.3766 -4.53482 1.71984 0
M  V30 278 H 22.2556 -4.58339 0.494593 0
M  V30 279 H 25.7996 -5.93077 3.67296 0
M  V30 280 H 21.6966 -5.97642 2.43915 0
M  V30 281 H 22.4646 -6.99712 4.24671 0
M  V30 282 N 25.1277 -0.289203 -1.54924 0
M  V30 283 C 26.0907 0.579144 -2.21762 0
M  V30 284 C 27.0907 1.07047 -1.1999 0
M  V30 285 O 28.2807 0.968384 -1.44803 0
M  V30 286 C 25.4127 1.80055 -2.8947 0
M  V30 287 H 26.6057 -0.00464908 -2.999 0
M  V30 288 H 24.1587 -0.0399306 -1.56249 0
M  V30 289 H 24.8937 2.42449 -2.15381 0
M  V30 290 H 24.6787 1.45602 -3.64064 0
M  V30 291 H 26.1687 2.41773 -3.40493 0
M  V30 292 N 26.6058 1.57591 -0.0167156 0
M  V30 293 C 27.5688 2.08393 0.954204 0
M  V30 294 C 28.5688 0.996531 1.26198 0
M  V30 295 O 29.7588 1.25858 1.20438 0
M  V30 296 C 26.8908 2.5394 2.27436 0
M  V30 297 H 28.0838 2.95455 0.514451 0
M  V30 298 H 25.6368 1.54582 0.231089 0
M  V30 299 H 26.3718 1.70171 2.76066 0
M  V30 300 H 26.1568 3.33371 2.06412 0
M  V30 301 H 27.6468 2.93512 2.97053 0
M  V30 302 N 28.0839 -0.256276 1.55502 0
M  V30 303 C 29.4949 -0.826068 1.67431 0
M  V30 304 C 29.8459 -1.86396 0.612446 0
M  V30 305 O 28.9709 -2.15031 -0.243025 0
M  V30 306 C 29.5659 -1.50512 3.03532 0
M  V30 307 C 28.1249 -2.02273 3.17431 0
M  V30 308 C 27.2719 -0.870548 2.63281 0
M  V30 309 H 30.2229 -0.0322728 1.58667 0
M  V30 310 H 30.2439 -2.37279 2.97454 0
M  V30 311 H 29.7559 -0.749484 3.80794 0
M  V30 312 H 27.8569 -2.80746 2.44974 0
M  V30 313 H 27.9699 -2.22655 4.24219 0
M  V30 314 H 26.3339 -1.26851 2.20864 0
M  V30 315 H 27.1169 -0.128149 3.43061 0
M  V30 316 N 29.562 -1.4872 -0.521534 0
M  V30 317 C 30.525 -1.63379 -1.60748 0
M  V30 318 C 31.525 -0.50661 -1.52611 0
M  V30 319 O 32.715 -0.772601 -1.5613 0
M  V30 320 C 29.847 -1.61192 -3.00383 0
M  V30 321 H 31.04 -2.60217 -1.49087 0
M  V30 322 H 28.593 -1.37444 -0.744235 0
M  V30 323 H 29.328 -0.65863 -3.17541 0
M  V30 324 H 29.113 -2.43032 -3.07698 0
M  V30 325 H 30.603 -1.7466 -3.7932 0
M  V30 326 N 31.0401 0.771051 -1.3745 0
M  V30 327 C 32.4511 1.34737 -1.29239 0
M  V30 328 C 32.8021 1.96109 0.0596908 0
M  V30 329 O 31.9271 1.93865 0.961534 0
M  V30 330 C 32.5221 2.44973 -2.34037 0
M  V30 331 C 31.0811 2.98372 -2.29458 0
M  V30 332 C 30.2281 1.71595 -2.17831 0
M  V30 333 H 33.1791 0.571256 -1.48062 0
M  V30 334 H 33.2001 3.24471 -1.98744 0
M  V30 335 H 32.7121 2.00276 -3.32432 0
M  V30 336 H 30.8131 3.47443 -1.34589 0
M  V30 337 H 30.9261 3.53939 -3.229 0
M  V30 338 H 29.2901 1.94547 -1.64388 0
M  V30 339 H 30.0731 1.29001 -3.18141 0
M  V30 340 N 32.5182 1.22032 0.997298 0
M  V30 341 C 33.7662 1.04016 1.73278 0
M  V30 342 C 34.0872 -0.426255 1.90284 0
M  V30 343 O 33.3572 -1.30694 1.45931 0
M  V30 344 H 31.9372 0.381897 0.642 0
M  V30 345 H 34.5992 1.5347 1.20137 0
M  V30 346 H 33.6952 1.51441 2.72896 0
M  V30 347 N 33.9963 -1.19345 1.0293 0
M  V30 348 C 34.9283 -2.22036 0.56857 0
M  V30 349 C 35.9413 -1.58865 -0.355779 0
M  V30 350 O 37.1303 -1.77851 -0.152103 0
M  V30 351 C 34.2303 -3.38363 -0.190752 0
M  V30 352 C 33.4033 -4.31118 0.738643 0
M  V30 353 C 32.4623 -5.26194 0.0246497 0
M  V30 354 O 31.4883 -5.65461 0.651354 0
M  V30 355 N 32.6903 -5.66971 -1.24594 0
M  V30 356 H 35.4553 -2.6219 1.45177 0
M  V30 357 H 33.0163 -1.34015 0.908381 0
M  V30 358 H 35.0083 -3.98981 -0.677961 0
M  V30 359 H 33.5783 -2.96994 -0.975366 0
M  V30 360 H 32.7983 -3.68276 1.40593 0
M  V30 361 H 34.0863 -4.90001 1.37029 0
M  V30 362 H 33.4843 -5.37104 -1.77583 0
M  V30 363 H 32.0413 -6.2984 -1.67764 0
M  V30 364 N 35.4744 -0.807222 -1.35358 0
M  V30 365 C 36.4374 -0.223665 -2.28106 0
M  V30 366 C 37.4374 0.589354 -1.4961 0
M  V30 367 O 38.6274 0.407745 -1.69361 0
M  V30 368 C 35.7594 0.688149 -3.33882 0
M  V30 369 H 36.9524 -1.04169 -2.81227 0
M  V30 370 H 34.5054 -0.577921 -1.45223 0
M  V30 371 H 35.2404 1.52984 -2.85948 0
M  V30 372 H 35.0254 0.10687 -3.91954 0
M  V30 373 H 36.5154 1.09075 -4.03104 0
M  V30 374 N 36.9525 1.47285 -0.560781 0
M  V30 375 C 37.8825 2.32857 0.173105 0
M  V30 376 C 38.8635 1.44009 0.905281 0
M  V30 377 O 40.0485 1.7286 0.885046 0
M  V30 378 C 37.1785 3.25861 1.20133 0
M  V30 379 C 36.1325 4.23978 0.585388 0
M  V30 380 C 35.4585 5.06332 1.7185 0
M  V30 381 C 36.7585 5.20242 -0.463178 0
M  V30 382 H 38.4525 2.94466 -0.541307 0
M  V30 383 H 35.9985 1.41601 -0.261764 0
M  V30 384 H 37.9515 3.84569 1.72293 0
M  V30 385 H 36.6755 2.62315 1.94573 0
M  V30 386 H 35.3345 3.66501 0.085054 0
M  V30 387 H 34.9825 4.39186 2.45203 0
M  V30 388 H 34.6825 5.72762 1.31213 0
M  V30 389 H 36.2065 5.67899 2.24329 0
M  V30 390 H 37.6205 5.73293 -0.027502 0
M  V30 391 H 36.0175 5.94896 -0.788627 0
M  V30 392 H 37.0875 4.65504 -1.35773 0
M  V30 393 N 38.4306 0.297415 1.54768 0
M  V30 394 C 39.3626 -0.613881 2.20826 0
M  V30 395 C 40.3756 -1.10032 1.19987 0
M  V30 396 O 41.5646 -1.01839 1.46598 0
M  V30 397 C 38.6646 -1.852 2.83821 0
M  V30 398 C 37.8376 -1.50865 4.10559 0
M  V30 399 C 36.8966 -2.60154 4.57391 0
M  V30 400 O 35.9226 -2.25398 5.2267 0
M  V30 401 N 37.1246 -3.90629 4.29406 0
M  V30 402 H 39.8896 -0.048389 2.99661 0
M  V30 403 H 37.4506 0.11946 1.61459 0
M  V30 404 H 39.4426 -2.57652 3.12086 0
M  V30 405 H 38.0126 -2.32597 2.08847 0
M  V30 406 H 37.2326 -0.616925 3.89343 0
M  V30 407 H 38.5206 -1.25458 4.9309 0
M  V30 408 H 37.9186 -4.21677 3.77101 0
M  V30 409 H 36.4756 -4.59391 4.62388 0
M  V30 410 N 39.9087 -1.5758 0.0250728 0
M  V30 411 C 41.3247 -1.56124 -0.331282 0
M  V30 412 C 41.5247 -1.03029 -1.73169 0
M  V30 413 O 40.5807 -0.675215 -2.43305 0
M  V30 414 C 41.8937 -3.00139 -0.183584 0
M  V30 415 C 43.4417 -3.11946 -0.256654 0
M  V30 416 C 43.9167 -4.57793 -0.137792 0
M  V30 417 N 45.4077 -4.6279 -0.194904 0
M  V30 418 C 46.1427 -5.7326 -0.126655 0
M  V30 419 N 45.6387 -6.928 -0.00755288 0
M  V30 420 N 47.4317 -5.61811 -0.180348 0
M  V30 421 H 39.5827 -1.90424 0.94087 0
M  V30 422 H 41.8457 -0.875761 0.362968 0
M  V30 423 H 41.5517 -3.4292 0.780927 0
M  V30 424 H 41.4257 -3.64899 -0.955448 0
M  V30 425 H 43.8127 -2.69079 -1.21162 0
M  V30 426 H 43.8937 -2.49915 0.545517 0
M  V30 427 H 43.5377 -5.01339 0.813739 0
M  V30 428 H 43.4677 -5.17798 -0.958775 0
M  V30 429 H 45.9587 -3.76807 -0.287267 0
M  V30 430 H 46.2717 -7.72791 0.0379428 0
M  V30 431 H 44.6167 -6.94995 0.0271731 0
M  V30 432 H 47.8077 -4.6731 -0.271767 0
M  V30 433 H 47.9807 -6.47882 -0.123697 0
M  V30 434 N 41.3868 0.248026 -1.55636 0
M  V30 435 C 42.6328 0.97767 -1.77678 0
M  V30 436 C 42.9658 1.85016 -0.590135 0
M  V30 437 O 42.2408 1.90095 0.411611 0
M  V30 438 C 42.5238 1.83914 -3.09593 0
M  V30 439 C 42.3768 0.99491 -4.38659 0
M  V30 440 C 43.6958 2.82183 -3.37729 0
M  V30 441 H 40.8148 0.354005 -0.646413 0
M  V30 442 H 43.4568 0.248253 -1.88371 0
M  V30 443 H 41.6068 2.46104 -3.00608 0
M  V30 444 H 43.2788 0.391789 -4.59633 0
M  V30 445 H 41.5218 0.299231 -4.32767 0
M  V30 446 H 42.1928 1.63145 -5.2734 0
M  V30 447 H 44.6688 2.30129 -3.4667 0
M  V30 448 H 43.5448 3.39582 -4.31249 0
M  V30 449 H 43.8058 3.58588 -2.58586 0
M  V30 450 N 42.8649 1.48995 0.513639 0
M  V30 451 C 44.1129 1.57531 1.26604 0
M  V30 452 C 44.4339 0.258236 1.93283 0
M  V30 453 O 43.7039 -0.721502 1.8213 0
M  V30 454 H 42.2839 0.580387 0.470276 0
M  V30 455 H 44.9459 1.85552 0.596373 0
M  V30 456 H 44.0419 2.36486 2.03669 0
M  V30 457 N 44.343 -0.763751 1.37857 0
M  V30 458 C 45.592 -1.51789 1.32827 0
M  V30 459 C 45.905 -1.95426 -0.0823719 0
M  V30 460 O 47.111 -2.70298 -0.255172 0
M  V30 461 C 45.567 -2.74133 2.33193 0
M  V30 462 C 45.175 -2.37562 3.79827 0
M  V30 463 C 46.919 -3.52054 2.37188 0
M  V30 464 C 44.826 -3.56456 4.71904 0
M  V30 465 H 43.756 -0.569896 0.493695 0
M  V30 466 H 46.407 -0.835822 1.63359 0
M  V30 467 H 44.789 -3.4427 1.9569 0
M  V30 468 H 45.963 -1.75157 4.26212 0
M  V30 469 H 44.278 -1.72798 3.78853 0
M  V30 470 H 46.875 -4.40437 3.03182 0
M  V30 471 H 47.218 -3.92486 1.38782 0
M  V30 472 H 47.751 -2.88921 2.7344 0
M  V30 473 H 44.49 -3.21099 5.71468 0
M  V30 474 H 44.01 -4.17938 4.30218 0
M  V30 475 H 45.689 -4.23168 4.89426 0
M  V30 476 N 45.8211 -1.22559 -0.990812 0
M  V30 477 C 47.0671 -1.05297 -1.73322 0
M  V30 478 C 47.4001 0.410655 -1.89808 0
M  V30 479 O 46.6751 1.30439 -1.44277 0
M  V30 480 C 46.9581 -1.76713 -3.13759 0
M  V30 481 C 46.8111 -3.30684 -3.04907 0
M  V30 482 C 48.1301 -1.52121 -4.12974 0
M  V30 483 H 45.2491 -0.38392 -0.629106 0
M  V30 484 H 47.8911 -1.50926 -1.15418 0
M  V30 485 H 46.0411 -1.37924 -3.63193 0
M  V30 486 H 47.7131 -3.7893 -2.63077 0
M  V30 487 H 45.9561 -3.60253 -2.41661 0
M  V30 488 H 46.6271 -3.75833 -4.04294 0
M  V30 489 H 49.1031 -1.85819 -3.72304 0
M  V30 490 H 47.9791 -2.04582 -5.0935 0
M  V30 491 H 48.2401 -0.454257 -4.3976 0
M  V30 492 N 47.2992 1.18797 -1.03562 0
M  V30 493 C 48.5472 1.88278 -0.734569 0
M  V30 494 C 48.8682 1.8043 0.739586 0
M  V30 495 O 48.1382 1.21925 1.53333 0
M  V30 496 H 46.7182 0.696991 -0.268725 0
M  V30 497 H 49.3802 1.44192 -1.31129 0
M  V30 498 H 48.4762 2.94443 -1.03489 0
M  V30 499 N 48.7773 0.814389 1.34928 0
M  V30 500 C 50.0253 0.397636 1.9815 0
M  V30 501 C 50.3463 -1.04069 1.64908 0
M  V30 502 O 49.6163 -1.72121 0.93548 0
M  V30 503 H 48.1963 0.144043 0.732981 0
M  V30 504 H 50.8583 1.04195 1.6471 0
M  V30 505 H 49.9543 0.509688 3.0791 0
M  V30 506 N 50.2554 -1.46986 0.568584 0
M  V30 507 C 51.1874 -2.28233 -0.210337 0
M  V30 508 C 52.2004 -1.37682 -0.868767 0
M  V30 509 O 53.3894 -1.62406 -0.740705 0
M  V30 510 C 50.4894 -3.12293 -1.3163 0
M  V30 511 C 49.6624 -4.30878 -0.7525 0
M  V30 512 C 48.7214 -4.96445 -1.74439 0
M  V30 513 O 47.7474 -5.54482 -1.286 0
M  V30 514 N 48.9494 -4.92171 -3.07812 0
M  V30 515 H 51.7144 -2.95723 0.486648 0
M  V30 516 H 49.2754 -1.56742 0.405409 0
M  V30 517 H 51.2674 -3.53022 -1.97883 0
M  V30 518 H 49.8374 -2.46971 -1.91636 0
M  V30 519 H 49.0574 -3.94104 0.0871128 0
M  V30 520 H 50.3454 -5.07558 -0.35536 0
M  V30 521 H 49.7434 -4.46239 -3.47688 0
M  V30 522 H 48.3004 -5.36884 -3.69592 0
M  V30 523 N 51.7335 -0.305618 -1.54608 0
M  V30 524 C 52.6435 0.57778 -2.27374 0
M  V30 525 C 53.6595 1.14451 -1.31061 0
M  V30 526 O 54.8355 1.16831 -1.6405 0
M  V30 527 C 51.9005 1.73123 -3.00382 0
M  V30 528 C 50.9615 1.19812 -4.12242 0
M  V30 529 C 50.1945 2.2966 -4.81759 0
M  V30 530 O 50.4175 3.49651 -4.50666 0
M  V30 531 O 49.3515 1.96091 -5.69062 0
M  V30 532 H 53.1775 -0.012624 -3.03697 0
M  V30 533 H 50.7625 -0.0719184 -1.49227 0
M  V30 534 H 52.6445 2.40315 -3.4616 0
M  V30 535 H 51.3195 2.30815 -2.26949 0
M  V30 536 H 50.2265 0.491798 -3.70853 0
M  V30 537 H 51.5595 0.666566 -4.87666 0
M  V30 538 N 53.2116 1.57565 -0.0334293 0
M  V30 539 C 54.1746 2.09393 0.932048 0
M  V30 540 C 55.1746 1.00986 1.25134 0
M  V30 541 O 56.3646 1.27129 1.19096 0
M  V30 542 C 53.4966 2.56338 2.2473 0
M  V30 543 H 54.6896 2.95984 0.483085 0
M  V30 544 H 52.2426 1.54819 0.21468 0
M  V30 545 H 52.9776 1.7309 2.74245 0
M  V30 546 H 52.7626 3.35542 2.02865 0
M  V30 547 H 54.2526 2.96646 2.93923 0
M  V30 548 N 54.6897 -0.239769 1.55765 0
M  V30 549 C 56.1007 -0.808263 1.68297 0
M  V30 550 C 56.4517 -1.85736 0.632181 0
M  V30 551 O 55.5767 -2.15277 -0.220204 0
M  V30 552 C 56.1717 -1.47284 3.05111 0
M  V30 553 C 54.7307 -1.98895 3.19559 0
M  V30 554 C 53.8777 -0.842575 2.64189 0
M  V30 555 H 56.8287 -0.0154422 1.58692 0
M  V30 556 H 56.8497 -2.34111 2.99954 0
M  V30 557 H 56.3617 -0.709053 3.81568 0
M  V30 558 H 54.4627 -2.78132 2.47938 0
M  V30 559 H 54.5757 -2.18143 4.26556 0
M  V30 560 H 52.9397 -1.24501 2.22197 0
M  V30 561 H 53.7227 -0.0917552 3.43177 0
M  V30 562 N 56.1678 -1.49265 -0.50573 0
M  V30 563 C 57.5838 -1.35923 -0.836486 0
M  V30 564 C 57.7838 -0.388704 -1.97715 0
M  V30 565 O 56.8398 0.181336 -2.51848 0
M  V30 566 C 58.1528 -2.76531 -1.18115 0
M  V30 567 C 59.7008 -2.85197 -1.28964 0
M  V30 568 C 60.1758 -4.26561 -1.66761 0
M  V30 569 N 61.6668 -4.2935 -1.73819 0
M  V30 570 C 62.4018 -5.35693 -2.045 0
M  V30 571 N 61.8978 -6.52287 -2.33438 0
M  V30 572 N 63.6908 -5.23105 -2.05711 0
M  V30 573 H 55.8418 -2.10965 0.246519 0
M  V30 574 H 58.1048 -0.9468 0.0476887 0
M  V30 575 H 57.8108 -3.49226 -0.416398 0
M  V30 576 H 57.6848 -3.11599 -2.1257 0
M  V30 577 H 60.0718 -2.12742 -2.04511 0
M  V30 578 H 60.1528 -2.53718 -0.325704 0
M  V30 579 H 59.7968 -4.99541 -0.917656 0
M  V30 580 H 59.7268 -4.55502 -2.64246 0
M  V30 581 H 62.2178 -3.4526 -1.53635 0
M  V30 582 H 62.5308 -7.29158 -2.56024 0
M  V30 583 H 60.8758 -6.55521 -2.30905 0
M  V30 584 H 64.0668 -4.31026 -1.82577 0
M  V30 585 H 64.2398 -6.06078 -2.29289 0
M  V30 586 N 57.6459 0.756429 -1.3826 0
M  V30 587 C 58.8709 1.55077 -1.37717 0
M  V30 588 C 59.2959 1.88073 0.03164 0
M  V30 589 O 58.6539 1.50364 1.01293 0
M  V30 590 C 58.7019 2.8283 -2.23695 0
M  V30 591 O 57.8059 3.77862 -1.6521 0
M  V30 592 H 57.1469 0.469152 -0.469885 0
M  V30 593 H 59.6769 0.935019 -1.81985 0
M  V30 594 H 59.6869 3.31783 -2.37453 0
M  V30 595 H 58.3619 2.58144 -3.2609 0
M  V30 596 H 56.9389 3.36555 -1.60578 0
M  V30 597 N 59.124 1.23083 0.984299 0
M  V30 598 C 60.071 1.00854 2.07598 0
M  V30 599 C 61.041 -0.0726709 1.65941 0
M  V30 600 O 62.226 0.0786535 1.90638 0
M  V30 601 C 59.366 0.601645 3.39815 0
M  V30 602 C 58.479 1.75456 3.94765 0
M  V30 603 C 57.614 1.29482 5.15177 0
M  V30 604 C 56.653 2.41873 5.62284 0
M  V30 605 N 55.79 1.96885 6.73929 0
M  V30 606 H 60.63 1.943 2.25946 0
M  V30 607 H 58.167 0.968001 1.10762 0
M  V30 608 H 60.125 0.346854 4.15756 0
M  V30 609 H 58.755 -0.295803 3.21442 0
M  V30 610 H 57.807 2.12346 3.15616 0
M  V30 611 H 59.119 2.59965 4.25699 0
M  V30 612 H 58.273 0.997923 5.98437 0
M  V30 613 H 57.012 0.420046 4.85888 0
M  V30 614 H 56.017 2.72342 4.77608 0
M  V30 615 H 57.242 3.29881 5.93595 0
M  V30 616 H 55.188 1.11782 6.46406 0
M  V30 617 H 55.105 2.74956 7.04227 0
M  V30 618 H 56.373 1.70289 7.60672 0
M  V30 619 N 60.6021 -1.18246 1.0419 0
M  V30 620 C 61.8481 -1.88793 0.75689 0
M  V30 621 C 62.2031 -1.78909 -0.707767 0
M  V30 622 O 61.4961 -1.1794 -1.50999 0
M  V30 623 C 61.6901 -3.38082 1.15911 0
M  V30 624 C 61.5191 -3.62496 2.66133 0
M  V30 625 C 60.2891 -3.7979 3.33298 0
M  V30 626 C 62.4871 -3.62976 3.64353 0
M  V30 627 N 60.4691 -3.91955 4.72487 0
M  V30 628 C 61.8401 -3.80869 4.89222 0
M  V30 629 C 63.8951 -3.46071 3.57965 0
M  V30 630 C 62.5981 -3.83608 6.08471 0
M  V30 631 C 64.6241 -3.50093 4.76643 0
M  V30 632 C 63.9861 -3.68484 6.00332 0
M  V30 633 H 60.0851 -0.709406 0.32904 0
M  V30 634 H 62.6691 -1.42022 1.33183 0
M  V30 635 H 60.8401 -3.83544 0.612238 0
M  V30 636 H 62.5721 -3.96202 0.824989 0
M  V30 637 H 59.3271 -3.79224 2.83701 0
M  V30 638 H 59.7511 -4.01857 5.44831 0
M  V30 639 H 64.3931 -3.30797 2.63311 0
M  V30 640 H 62.1111 -3.97669 7.0348 0
M  V30 641 H 65.6971 -3.38285 4.73344 0
M  V30 642 H 64.5771 -3.71488 6.90627 0
M  V30 643 N 62.0802 -0.821533 -1.34494 0
M  V30 644 C 63.4912 -0.467956 -1.8074 0
M  V30 645 C 63.8422 1.01151 -1.68116 0
M  V30 646 O 62.9672 1.78707 -1.22036 0
M  V30 647 C 63.5622 -0.842627 -3.28154 0
M  V30 648 C 62.1212 -0.541439 -3.72485 0
M  V30 649 C 61.2682 -1.06028 -2.56229 0
M  V30 650 H 64.2192 -1.01183 -1.22261 0
M  V30 651 H 64.2402 -0.145876 -3.8022 0
M  V30 652 H 63.7522 -1.91945 -3.37311 0
M  V30 653 H 61.8532 0.526034 -3.68868 0
M  V30 654 H 61.9662 -1.08453 -4.66663 0
M  V30 655 H 60.3302 -0.481892 -2.501 0
M  V30 656 H 61.1132 -2.14352 -2.68157 0
M  V30 657 N 63.5583 1.46682 -0.576371 0
M  V30 658 C 64.8043 2.03287 -0.0679305 0
M  V30 659 C 65.1593 1.44063 1.27529 0
M  V30 660 O 64.4523 0.593973 1.82161 0
M  V30 661 C 64.6463 3.57345 0.062886 0
M  V30 662 C 64.4753 4.31509 -1.26611 0
M  V30 663 C 63.2453 4.70664 -1.83856 0
M  V30 664 C 65.4433 4.65444 -2.18783 0
M  V30 665 N 63.4253 5.29552 -3.10561 0
M  V30 666 C 64.7963 5.24835 -3.30072 0
M  V30 667 C 66.8513 4.47375 -2.18542 0
M  V30 668 C 65.5543 5.68063 -4.41244 0
M  V30 669 C 67.5803 4.91614 -3.28739 0
M  V30 670 C 66.9423 5.51071 -4.38748 0
M  V30 671 H 63.0413 0.779083 -0.0674836 0
M  V30 672 H 65.6253 1.78918 -0.767877 0
M  V30 673 H 63.7963 3.8144 0.731988 0
M  V30 674 H 65.5283 4.00592 0.575134 0
M  V30 675 H 62.2833 4.53224 -1.37424 0
M  V30 676 H 62.7073 5.63523 -3.75195 0
M  V30 677 H 67.3493 4.00747 -1.34765 0
M  V30 678 H 65.0673 6.13672 -5.25768 0
M  V30 679 H 68.6533 4.79389 -3.29662 0
M  V30 680 H 67.5333 5.84678 -5.22611 0
M  V30 681 N 65.0364 0.313813 1.54444 0
M  V30 682 C 65.9684 -0.590425 2.21465 0
M  V30 683 C 66.9814 -1.08753 1.21147 0
M  V30 684 O 68.1704 -1.00278 1.4767 0
M  V30 685 C 65.2704 -1.82179 2.85769 0
M  V30 686 C 64.4434 -1.46502 4.12136 0
M  V30 687 C 63.5024 -2.55288 4.60124 0
M  V30 688 O 62.5284 -2.19842 5.25032 0
M  V30 689 N 63.7304 -3.86053 4.33525 0
M  V30 690 H 66.4954 -0.0166033 2.99695 0
M  V30 691 H 64.0564 0.136578 1.61323 0
M  V30 692 H 66.0484 -2.54328 3.14801 0
M  V30 693 H 64.6184 -2.30369 2.11303 0
M  V30 694 H 63.8384 -0.575595 3.89975 0
M  V30 695 H 65.1264 -1.20221 4.94393 0
M  V30 696 H 64.5244 -4.17654 3.81552 0
M  V30 697 H 63.0814 -4.54461 4.67235 0
M  V30 698 N 66.5145 -1.57545 0.0417849 0
M  V30 699 C 67.7605 -1.92601 -0.635021 0
M  V30 700 C 68.0935 -0.919627 -1.71045 0
M  V30 701 O 67.3685 0.0557892 -1.9442 0
M  V30 702 C 67.6515 -3.38085 -1.23979 0
M  V30 703 C 67.5045 -4.49467 -0.173057 0
M  V30 704 C 68.8235 -3.83776 -2.15416 0
M  V30 705 H 65.9425 -0.700397 -0.229374 0
M  V30 706 H 68.5845 -1.89728 0.101633 0
M  V30 707 H 66.7345 -3.40664 -1.86762 0
M  V30 708 H 68.4065 -4.59018 0.458312 0
M  V30 709 H 66.6495 -4.30909 0.499996 0
M  V30 710 H 67.3205 -5.48323 -0.636054 0
M  V30 711 H 69.7965 -3.83013 -1.62605 0
M  V30 712 H 68.6725 -4.8624 -2.54679 0
M  V30 713 H 68.9335 -3.19998 -3.05047 0
M  V30 714 N 67.9926 0.231505 -1.5589 0
M  V30 715 C 69.2176 0.978689 -1.82856 0
M  V30 716 C 69.6426 1.77559 -0.620846 0
M  V30 717 O 69.0006 1.76119 0.430305 0
M  V30 718 C 69.0486 1.87997 -3.07716 0
M  V30 719 O 68.1526 2.97393 -2.85712 0
M  V30 720 H 67.4936 0.277663 -0.603158 0
M  V30 721 H 70.0236 0.24783 -2.03093 0
M  V30 722 H 70.0336 2.2917 -3.37558 0
M  V30 723 H 68.7086 1.29417 -3.95252 0
M  V30 724 H 67.2856 2.60238 -2.67078 0
M  V30 725 N 69.4707 1.49531 0.497807 0
M  V30 726 C 70.4007 1.6935 1.60757 0
M  V30 727 C 71.3817 0.542218 1.61227 0
M  V30 728 O 72.5667 0.778417 1.77917 0
M  V30 729 C 69.6967 1.76298 2.99226 0
M  V30 730 C 68.6507 2.91248 3.13622 0
M  V30 731 C 67.9767 2.83312 4.53474 0
M  V30 732 C 69.2767 4.3214 2.93346 0
M  V30 733 H 70.9707 2.62263 1.44425 0
M  V30 734 H 68.5167 1.26208 0.693367 0
M  V30 735 H 70.4697 1.88749 3.76765 0
M  V30 736 H 69.1937 0.799871 3.16654 0
M  V30 737 H 67.8527 2.78404 2.38509 0
M  V30 738 H 67.5007 1.84902 4.67782 0
M  V30 739 H 67.2007 3.60465 4.64046 0
M  V30 740 H 68.7247 2.97775 5.33069 0
M  V30 741 H 70.1387 4.45649 3.60652 0
M  V30 742 H 68.5357 5.1054 3.15387 0
M  V30 743 H 69.6057 4.46363 1.89441 0
M  V30 744 N 70.9488 -0.749086 1.3866 0
M  V30 745 C 72.3648 -1.05276 1.19955 0
M  V30 746 C 72.5648 -2.01435 0.05134 0
M  V30 747 O 71.6208 -2.45232 -0.60147 0
M  V30 748 C 72.9338 -1.62853 2.52783 0
M  V30 749 C 74.4818 -1.75002 2.59506 0
M  V30 750 C 74.9568 -2.35991 3.92521 0
M  V30 751 N 76.4478 -2.43416 3.94085 0
M  V30 752 C 77.1828 -2.91511 4.9377 0
M  V30 753 N 76.6788 -3.39608 6.03853 0
M  V30 754 N 78.4718 -2.90592 4.81157 0
M  V30 755 H 70.6228 -0.111066 2.12109 0
M  V30 756 H 72.8858 -0.111901 0.941373 0
M  V30 757 H 72.5918 -0.99664 3.37283 0
M  V30 758 H 72.4658 -2.61854 2.715 0
M  V30 759 H 74.8528 -2.37317 1.75398 0
M  V30 760 H 74.9338 -0.74693 2.44652 0
M  V30 761 H 74.5778 -1.74308 4.77053 0
M  V30 762 H 74.5078 -3.3695 4.04688 0
M  V30 763 H 76.9988 -2.09405 3.14576 0
M  V30 764 H 77.3118 -3.74775 6.75843 0
M  V30 765 H 75.6568 -3.37653 6.07466 0
M  V30 766 H 78.8478 -2.52332 3.94267 0
M  V30 767 H 79.0208 -3.27762 5.58996 0
M  V30 768 N 72.4269 -1.23603 -0.977757 0
M  V30 769 C 73.6729 -1.07129 -1.72195 0
M  V30 770 C 74.0059 0.390501 -1.90233 0
M  V30 771 O 73.2809 1.28902 -1.45653 0
M  V30 772 C 73.5639 -1.80031 -3.11867 0
M  V30 773 C 73.4169 -3.33899 -3.01383 0
M  V30 774 C 74.7359 -1.56492 -4.11337 0
M  V30 775 H 71.8549 -0.390571 -0.624999 0
M  V30 776 H 74.4969 -1.52142 -1.13811 0
M  V30 777 H 72.6469 -1.41768 -3.6171 0
M  V30 778 H 74.3189 -3.81699 -2.59043 0
M  V30 779 H 72.5619 -3.62796 -2.37827 0
M  V30 780 H 73.2329 -3.801 -4.00285 0
M  V30 781 H 75.7089 -1.89757 -3.70313 0
M  V30 782 H 74.5849 -2.09973 -5.07151 0
M  V30 783 H 74.8459 -0.500874 -4.39254 0
M  V30 784 N 73.905 1.17692 -1.04816 0
M  V30 785 C 74.855 2.1952 -0.616042 0
M  V30 786 C 75.839 1.57147 0.345485 0
M  V30 787 O 77.031 1.76245 0.163325 0
M  V30 788 C 74.16 3.43298 0.0116917 0
M  V30 789 C 73.246 4.12777 -0.973435 0
M  V30 790 N 73.637 4.5814 -2.14339 0
M  V30 791 C 71.935 4.38747 -0.80108 0
M  V30 792 C 72.636 5.11713 -2.7663 0
M  V30 793 N 71.612 5.03686 -2.04453 0
M  V30 794 H 75.414 2.52293 -1.5075 0
M  V30 795 H 72.928 1.3398 -0.917776 0
M  V30 796 H 74.925 4.15519 0.339006 0
M  V30 797 H 73.585 3.12018 0.898593 0
M  V30 798 H 74.596 4.52349 -2.52191 0
M  V30 799 H 71.273 4.17485 0.0350934 0
M  V30 800 H 72.663 5.56962 -3.75823 0
M  V30 801 N 75.3831 0.828654 1.34056 0
M  V30 802 C 76.6311 0.41863 1.97717 0
M  V30 803 C 76.9521 -1.02314 1.66002 0
M  V30 804 O 76.2221 -1.71119 0.953683 0
M  V30 805 H 74.8021 0.151809 0.731412 0
M  V30 806 H 77.4641 1.05936 1.63596 0
M  V30 807 H 76.5601 0.542318 3.07352 0
M  V30 808 N 76.8612 -1.46375 0.584142 0
M  V30 809 C 78.2722 -1.86031 0.157959 0
M  V30 810 C 78.6232 -1.48753 -1.27933 0
M  V30 811 O 77.7482 -0.903098 -1.96655 0
M  V30 812 C 78.3432 -3.37642 0.279892 0
M  V30 813 C 76.9022 -3.76289 -0.09143 0
M  V30 814 C 76.0492 -2.7039 0.615178 0
M  V30 815 H 79.0002 -1.37509 0.792274 0
M  V30 816 H 79.0212 -3.77275 -0.494364 0
M  V30 817 H 78.5332 -3.64742 1.32607 0
M  V30 818 H 76.6342 -3.54806 -1.13769 0
M  V30 819 H 76.7472 -4.78246 0.285886 0
M  V30 820 H 75.1112 -2.5464 0.0552833 0
M  V30 821 H 75.8942 -3.0033 1.66303 0
M  V30 822 N 78.3393 -0.321999 -1.54275 0
M  V30 823 C 79.5693 0.282642 -2.04658 0
M  V30 824 C 79.9773 1.46453 -1.19784 0
M  V30 825 O 79.3203 1.82367 -0.220932 0
M  V30 826 C 79.3823 0.781857 -3.50895 0
M  V30 827 C 79.0463 -0.277517 -4.56157 0
M  V30 828 C 80.0433 -1.11307 -5.07845 0
M  V30 829 C 77.7283 -0.425256 -5.00497 0
M  V30 830 C 79.7223 -2.08211 -6.02434 0
M  V30 831 C 77.4093 -1.39771 -5.94901 0
M  V30 832 C 78.4073 -2.2246 -6.45756 0
M  V30 833 O 78.0953 -3.18054 -7.38307 0
M  V30 834 H 77.8273 0.0622636 -0.673126 0
M  V30 835 H 80.3813 -0.465792 -2.00049 0
M  V30 836 H 78.6113 1.58118 -3.52896 0
M  V30 837 H 80.3003 1.30467 -3.84361 0
M  V30 838 H 81.0663 -1.00991 -4.74369 0
M  V30 839 H 76.9453 0.20847 -4.60528 0
M  V30 840 H 80.4893 -2.72791 -6.42052 0
M  V30 841 H 76.3863 -1.50152 -6.27794 0
M  V30 842 H 77.1543 -3.13275 -7.56175 0
M  V30 843 N 79.8174 1.5752 -0.0501392 0
M  V30 844 C 81.0634 1.93755 0.618901 0
M  V30 845 C 81.4184 0.928514 1.68512 0
M  V30 846 O 80.7114 -0.0524613 1.91528 0
M  V30 847 C 80.9054 3.34467 1.25963 0
M  V30 848 C 80.7344 4.48965 0.257 0
M  V30 849 C 79.5044 5.05075 -0.150656 0
M  V30 850 C 81.7024 5.11891 -0.497166 0
M  V30 851 N 79.6844 6.03104 -1.14626 0
M  V30 852 C 81.0554 6.05216 -1.34588 0
M  V30 853 C 83.1104 4.9479 -0.55559 0
M  V30 854 C 81.8134 6.83277 -2.24778 0
M  V30 855 C 83.8394 5.73477 -1.44492 0
M  V30 856 C 83.2014 6.66433 -2.28136 0
M  V30 857 H 79.3004 0.756479 0.198149 0
M  V30 858 H 81.8844 1.94316 -0.122229 0
M  V30 859 H 80.0554 3.34685 1.97079 0
M  V30 860 H 81.7874 3.57994 1.88739 0
M  V30 861 H 78.5424 4.7305 0.228094 0
M  V30 862 H 78.9664 6.56813 -1.64092 0
M  V30 863 H 83.6084 4.2273 0.0768625 0
M  V30 864 H 81.3264 7.54629 -2.89069 0
M  V30 865 H 84.9124 5.62273 -1.49468 0
M  V30 866 H 83.7924 7.26258 -2.95835 0
M  V30 867 N 81.2955 -0.223234 1.56011 0
M  V30 868 C 82.2285 -1.30377 1.87289 0
M  V30 869 C 83.2065 -1.45286 0.730112 0
M  V30 870 O 84.3905 -1.61126 0.978302 0
M  V30 871 C 81.5175 -2.67431 2.07843 0
M  V30 872 C 80.5635 -2.69546 3.30526 0
M  V30 873 S 81.3965 -2.23781 4.865 0
M  V30 874 C 82.5525 -3.62714 5.10088 0
M  V30 875 H 82.7855 -1.03652 2.78646 0
M  V30 876 H 80.3185 -0.425393 1.48424 0
M  V30 877 H 82.2765 -3.46336 2.20368 0
M  V30 878 H 80.9375 -2.91381 1.17285 0
M  V30 879 H 80.1305 -3.70255 3.41947 0
M  V30 880 H 79.7325 -1.98703 3.16849 0
M  V30 881 H 82.0245 -4.58391 4.98883 0
M  V30 882 H 82.9675 -3.5621 6.11981 0
M  V30 883 H 83.3755 -3.56323 4.37829 0
M  V30 884 N 82.7736 -1.49793 -0.48987 0
M  V30 885 C 83.7236 -1.63673 -1.5873 0
M  V30 886 C 84.7076 -0.491956 -1.53195 0
M  V30 887 O 85.8996 -0.745461 -1.60536 0
M  V30 888 C 83.0286 -1.71689 -2.97284 0
M  V30 889 C 82.1146 -2.91781 -3.07774 0
M  V30 890 N 82.5056 -4.15714 -2.88124 0
M  V30 891 C 80.8036 -2.89949 -3.38889 0
M  V30 892 C 81.5046 -4.965 -3.03088 0
M  V30 893 N 80.4806 -4.30083 -3.3246 0
M  V30 894 H 84.2826 -2.57204 -1.42208 0
M  V30 895 H 81.7966 -1.46719 -0.69623 0
M  V30 896 H 83.7936 -1.79732 -3.76168 0
M  V30 897 H 82.4536 -0.793024 -3.14867 0
M  V30 898 H 83.4646 -4.45515 -2.64077 0
M  V30 899 H 80.1416 -2.06987 -3.62578 0
M  V30 900 H 81.5316 -6.04991 -2.92294 0
M  V30 901 N 84.2517 0.741722 -1.39055 0
M  V30 902 C 85.4987 1.50114 -1.35912 0
M  V30 903 C 85.8267 1.94443 0.0470937 0
M  V30 904 O 85.0817 1.66612 1.02659 0
M  V30 905 C 85.3807 2.7592 -2.27163 0
M  V30 906 C 85.0467 2.50493 -3.74919 0
M  V30 907 C 83.7087 2.43267 -4.1518 0
M  V30 908 C 86.0607 2.28585 -4.684 0
M  V30 909 C 83.3887 2.12166 -5.46994 0
M  V30 910 C 85.7407 1.99002 -6.00484 0
M  V30 911 C 84.4047 1.90241 -6.39816 0
M  V30 912 H 83.6747 0.549306 -0.497336 0
M  V30 913 H 86.3217 0.851896 -1.71508 0
M  V30 914 H 84.6267 3.45553 -1.84663 0
M  V30 915 H 86.3237 3.33923 -2.22028 0
M  V30 916 H 82.9137 2.56992 -3.43006 0
M  V30 917 H 87.0977 2.33139 -4.38132 0
M  V30 918 H 82.3537 2.03901 -5.76398 0
M  V30 919 H 86.5277 1.81057 -6.72452 0
M  V30 920 H 84.1547 1.65907 -7.41875 0
M  V30 921 N 85.7298 1.2412 0.971189 0
M  V30 922 C 86.9698 1.09066 1.7287 0
M  V30 923 C 87.3338 -0.364794 1.88503 0
M  V30 924 O 88.5348 -0.636748 2.61149 0
M  V30 925 C 86.8058 1.80629 3.08396 0
M  V30 926 S 88.3648 1.81263 3.99611 0
M  V30 927 H 85.1828 0.390145 0.594397 0
M  V30 928 H 87.7848 1.57397 1.15959 0
M  V30 929 H 86.4888 2.85647 2.94676 0
M  V30 930 H 86.0198 1.32617 3.70373 0
M  V30 931 H 88.0348 0.877804 4.88374 0
M  V30 932 N 87.2079 -1.17134 1.05439 0
M  V30 933 C 88.4559 -1.87085 0.764429 0
M  V30 934 C 88.7769 -1.81584 -0.710787 0
M  V30 935 O 88.0469 -1.24349 -1.51374 0
M  V30 936 H 86.6269 -0.692627 0.279779 0
M  V30 937 H 89.2889 -1.42087 1.33406 0
M  V30 938 H 88.3849 -2.92759 1.0816 0
M  V30 939 N 88.686 -0.835752 -1.33615 0
M  V30 940 C 89.934 -0.429109 -1.97492 0
M  V30 941 C 90.255 1.01433 -1.66543 0
M  V30 942 O 89.525 1.70611 -0.962744 0
M  V30 943 H 88.105 -0.155686 -0.730596 0
M  V30 944 H 90.767 -1.06802 -1.63031 0
M  V30 945 H 89.863 -0.55861 -3.0706 0
M  V30 946 N 90.1641 1.46063 -0.591896 0
M  V30 947 C 91.3891 2.07226 -0.0850314 0
M  V30 948 C 91.8141 1.43625 1.21463 0
M  V30 949 O 91.1721 0.523305 1.73583 0
M  V30 950 C 91.2201 3.60554 0.0576567 0
M  V30 951 O 90.3241 3.97128 1.11188 0
M  V30 952 H 89.6651 0.660615 -0.0669568 0
M  V30 953 H 92.1951 1.8756 -0.81745 0
M  V30 954 H 92.2051 4.07165 0.2609 0
M  V30 955 H 90.8801 4.06235 -0.891416 0
M  V30 956 H 89.4571 3.62213 0.886356 0
M  V30 957 N 91.6422 0.330177 1.54103 0
M  V30 958 C 92.5722 -0.525353 2.27513 0
M  V30 959 C 93.5532 -1.11383 1.2856 0
M  V30 960 O 94.7382 -1.13773 1.57383 0
M  V30 961 C 91.8682 -1.6831 3.03791 0
M  V30 962 C 90.8222 -1.2236 4.10137 0
M  V30 963 C 90.1482 -2.46882 4.74293 0
M  V30 964 C 91.4482 -0.333697 5.21233 0
M  V30 965 H 93.1422 0.087013 2.99274 0
M  V30 966 H 90.6882 0.0432893 1.43935 0
M  V30 967 H 92.6412 -2.28795 3.5388 0
M  V30 968 H 91.3652 -2.32216 2.29659 0
M  V30 969 H 90.0242 -0.64165 3.60941 0
M  V30 970 H 89.6722 -3.09165 3.96769 0
M  V30 971 H 89.3722 -2.16825 5.46133 0
M  V30 972 H 90.8962 -3.08117 5.27159 0
M  V30 973 H 92.3102 -0.845013 5.67038 0
M  V30 974 H 90.7072 -0.125612 5.99969 0
M  V30 975 H 91.7772 0.633724 4.80741 0
M  V30 976 N 93.1203 -1.57491 0.0584922 0
M  V30 977 C 94.3693 -1.92155 -0.613146 0
M  V30 978 C 94.6823 -0.939334 -1.71569 0
M  V30 979 O 95.8883 -1.17829 -2.44599 0
M  V30 980 C 94.3443 -3.41303 -1.14195 0
M  V30 981 C 93.9523 -4.47944 -0.0711265 0
M  V30 982 C 95.6963 -3.84988 -1.78841 0
M  V30 983 C 93.6033 -5.88212 -0.613225 0
M  V30 984 H 92.5333 -0.717162 -0.232796 0
M  V30 985 H 95.1843 -1.83049 0.12857 0
M  V30 986 H 93.5663 -3.45437 -1.93621 0
M  V30 987 H 94.7403 -4.55408 0.702836 0
M  V30 988 H 93.0553 -4.13644 0.478313 0
M  V30 989 H 95.6523 -4.87159 -2.20408 0
M  V30 990 H 95.9953 -3.21632 -2.64308 0
M  V30 991 H 96.5283 -3.83401 -1.06059 0
M  V30 992 H 93.2673 -6.55183 0.203978 0
M  V30 993 H 92.7873 -5.84294 -1.35501 0
M  V30 994 H 94.4663 -6.37687 -1.09383 0
M  V30 995 N 94.5984 0.214957 -1.56127 0
M  V30 996 C 95.5484 1.27006 -1.8935 0
M  V30 997 C 96.5324 1.41969 -0.757202 0
M  V30 998 O 97.7244 1.44673 -1.01973 0
M  V30 999 C 94.8534 2.61911 -2.2194 0
M  V30 1000 C 93.9394 2.50822 -3.41978 0
M  V30 1001 N 94.3304 2.09391 -4.60423 0
M  V30 1002 C 92.6284 2.81765 -3.45723 0
M  V30 1003 C 93.3294 2.09712 -5.42582 0
M  V30 1004 N 92.3054 2.50454 -4.82466 0
M  V30 1005 H 96.1074 0.940734 -2.78437 0
M  V30 1006 H 93.6214 0.423492 -1.56781 0
M  V30 1007 H 95.6184 3.38096 -2.43919 0
M  V30 1008 H 94.2784 2.95684 -1.34169 0
M  V30 1009 H 95.2894 1.80416 -4.85459 0
M  V30 1010 H 91.9664 3.19865 -2.68314 0
M  V30 1011 H 93.3564 1.79748 -6.4741 0
M  V30 1012 N 96.0765 1.50051 0.48192 0
M  V30 1013 C 97.4875 1.5348 1.06305 0
M  V30 1014 C 97.8385 0.331997 1.93371 0
M  V30 1015 O 96.9635 -0.556256 2.09129 0
M  V30 1016 C 97.5585 2.7813 1.93466 0
M  V30 1017 C 96.1175 2.84275 2.46707 0
M  V30 1018 C 95.2645 2.47637 1.24785 0
M  V30 1019 H 98.2155 1.56472 0.264995 0
M  V30 1020 H 98.2365 2.59372 2.78399 0
M  V30 1021 H 97.7485 3.65654 1.30072 0
M  V30 1022 H 95.8495 2.01077 3.13686 0
M  V30 1023 H 95.9625 3.8691 2.82555 0
M  V30 1024 H 94.3265 1.99835 1.57918 0
M  V30 1025 H 95.1095 3.37457 0.630694 0
M  V30 1026 N 97.5546 -0.734337 1.39446 0
M  V30 1027 C 98.4866 -1.85861 1.34121 0
M  V30 1028 C 99.4996 -1.60871 0.249864 0
M  V30 1029 O 100.689 -1.71093 0.508865 0
M  V30 1030 C 97.7886 -3.21899 1.05991 0
M  V30 1031 C 96.9616 -3.74239 2.26415 0
M  V30 1032 C 96.0206 -4.88841 1.94733 0
M  V30 1033 O 95.0466 -5.02468 2.67422 0
M  V30 1034 N 96.2486 -5.73261 0.913884 0
M  V30 1035 H 99.0136 -1.90934 2.31007 0
M  V30 1036 H 96.5746 -0.915102 1.33557 0
M  V30 1037 H 98.5666 -3.96136 0.828147 0
M  V30 1038 H 97.1366 -3.12091 0.178361 0
M  V30 1039 H 96.3566 -2.91347 2.65539 0
M  V30 1040 H 97.6446 -4.05942 3.06738 0
M  V30 1041 H 97.0426 -5.64842 0.311476 0
M  V30 1042 H 95.5996 -6.47563 0.742015 0
M  V30 1043 N 99.0327 -1.24633 -0.964593 0
M  V30 1044 C 100.279 -1.09957 -1.71117 0
M  V30 1045 C 100.634 0.357422 -1.89051 0
M  V30 1046 O 99.9267 1.26029 -1.44317 0
M  V30 1047 C 100.121 -1.7763 -3.10133 0
M  V30 1048 C 99.9497 -3.29759 -3.05759 0
M  V30 1049 C 98.7197 -3.98981 -3.10068 0
M  V30 1050 C 100.918 -4.26305 -2.87695 0
M  V30 1051 N 98.8997 -5.37966 -2.95747 0
M  V30 1052 C 100.271 -5.52308 -2.81702 0
M  V30 1053 C 102.326 -4.16842 -2.72299 0
M  V30 1054 C 101.029 -6.69931 -2.61887 0
M  V30 1055 C 103.055 -5.34147 -2.53853 0
M  V30 1056 C 102.417 -6.59084 -2.48572 0
M  V30 1057 H 98.5157 -0.457003 -0.634564 0
M  V30 1058 H 101.1 -1.57592 -1.14337 0
M  V30 1059 H 99.2707 -1.32504 -3.65099 0
M  V30 1060 H 101.003 -1.55786 -3.73514 0
M  V30 1061 H 97.7577 -3.50169 -3.18871 0
M  V30 1062 H 98.1817 -6.10877 -2.91818 0
M  V30 1063 H 102.824 -3.21007 -2.75163 0
M  V30 1064 H 100.542 -7.65886 -2.57767 0
M  V30 1065 H 104.128 -5.28678 -2.4288 0
M  V30 1066 H 103.008 -7.48324 -2.34481 0
M  V30 1067 N 100.511 1.16574 -1.06058 0
M  V30 1068 C 101.757 1.87324 -0.777022 0
M  V30 1069 C 102.09 1.81351 0.694645 0
M  V30 1070 O 101.365 1.22753 1.50871 0
M  V30 1071 C 101.648 3.36991 -1.26922 0
M  V30 1072 C 101.501 3.51667 -2.80447 0
M  V30 1073 C 102.82 4.3131 -0.87521 0
M  V30 1074 H 99.9388 0.680191 -0.28374 0
M  V30 1075 H 102.581 1.37036 -1.3161 0
M  V30 1076 H 100.731 3.79949 -0.81063 0
M  V30 1077 H 102.403 3.17664 -3.34495 0
M  V30 1078 H 100.646 2.93656 -3.19294 0
M  V30 1079 H 101.317 4.56766 -3.0995 0
M  V30 1080 H 103.793 3.9624 -1.27014 0
M  V30 1081 H 102.669 5.34545 -1.2471 0
M  V30 1082 H 102.93 4.41552 0.220071 0
M  V30 1083 N 101.989 0.842826 1.3317 0
M  V30 1084 C 102.919 0.294028 2.31641 0
M  V30 1085 C 103.9 -0.600401 1.59151 0
M  V30 1086 O 105.085 -0.523124 1.87022 0
M  V30 1087 C 102.215 -0.528416 3.43257 0
M  V30 1088 C 101.169 0.27056 4.27144 0
M  V30 1089 C 100.495 -0.675881 5.30411 0
M  V30 1090 C 101.795 1.48981 5.00602 0
M  V30 1091 H 103.489 1.11681 2.77791 0
M  V30 1092 H 101.035 0.538478 1.33553 0
M  V30 1093 H 102.988 -0.922674 4.11175 0
M  V30 1094 H 101.712 -1.38445 2.95805 0
M  V30 1095 H 100.371 0.646427 3.60856 0
M  V30 1096 H 100.019 -1.52842 4.79216 0
M  V30 1097 H 99.7189 -0.145374 5.8742 0
M  V30 1098 H 101.243 -1.06757 6.01195 0
M  V30 1099 H 102.657 1.16849 5.61266 0
M  V30 1100 H 101.054 1.95739 5.6728 0
M  V30 1101 H 102.124 2.25746 4.29147 0
M  V30 1102 N 103.467 -1.45747 0.599634 0
M  V30 1103 C 104.695 -2.06668 0.0978551 0
M  V30 1104 C 105.11 -1.44562 -1.21439 0
M  V30 1105 O 104.467 -0.556923 -1.73795 0
M  V30 1106 C 104.518 -3.61456 -0.0567044 0
M  V30 1107 O 104.239 -4.21242 1.20361 0
M  V30 1108 C 105.74 -4.39345 -0.590869 0
M  V30 1109 H 102.96 -0.667825 0.0651943 0
M  V30 1110 H 105.504 -1.87115 0.82511 0
M  V30 1111 H 103.659 -3.80378 -0.734251 0
M  V30 1112 H 104.073 -5.14323 1.02821 0
M  V30 1113 H 105.547 -5.48182 -0.648131 0
M  V30 1114 H 106.024 -4.08568 -1.61147 0
M  V30 1115 H 106.63 -4.25268 0.0523679 0
M  V30 1116 N 104.945 -0.338344 -1.53925 0
M  V30 1117 C 105.908 0.508299 -2.23493 0
M  V30 1118 C 106.908 1.03175 -1.23335 0
M  V30 1119 O 108.098 0.921826 -1.47811 0
M  V30 1120 C 105.23 1.70754 -2.95052 0
M  V30 1121 H 106.423 -0.100058 -2.99733 0
M  V30 1122 H 103.976 -0.0896198 -1.56043 0
M  V30 1123 H 104.711 2.35474 -2.22986 0
M  V30 1124 H 104.496 1.33946 -3.68512 0
M  V30 1125 H 105.986 2.30818 -3.48013 0
M  V30 1126 N 106.423 1.57458 -0.0668435 0
M  V30 1127 C 107.386 2.11323 0.887422 0
M  V30 1128 C 108.386 1.03618 1.22964 0
M  V30 1129 O 109.576 1.29626 1.16373 0
M  V30 1130 C 106.708 2.61048 2.19242 0
M  V30 1131 H 107.901 2.96942 0.420194 0
M  V30 1132 H 105.454 1.55239 0.181793 0
M  V30 1133 H 106.189 1.78868 2.70512 0
M  V30 1134 H 105.974 3.39769 1.95702 0
M  V30 1135 H 107.464 3.02814 2.87565 0
M  V30 1136 N 107.901 -0.206675 1.56239 0
M  V30 1137 C 108.851 -1.26 1.90021 0
M  V30 1138 C 109.835 -1.41566 0.764721 0
M  V30 1139 O 111.027 -1.44131 1.02739 0
M  V30 1140 C 108.156 -2.6073 2.23326 0
M  V30 1141 C 107.242 -2.49005 3.43304 0
M  V30 1142 N 107.633 -2.06946 4.61527 0
M  V30 1143 C 105.931 -2.79927 3.47213 0
M  V30 1144 C 106.632 -2.06832 5.43687 0
M  V30 1145 N 105.608 -2.47892 4.83788 0
M  V30 1146 H 109.41 -0.925955 2.78932 0
M  V30 1147 H 106.924 -0.415172 1.57003 0
M  V30 1148 H 108.921 -3.36798 2.45708 0
M  V30 1149 H 107.581 -2.94968 1.35735 0
M  V30 1150 H 108.592 -1.77839 4.86409 0
M  V30 1151 H 105.269 -3.18438 2.70006 0
M  V30 1152 H 106.659 -1.76312 6.48354 0
M  V30 1153 N 109.379 -1.50304 -0.473955 0
M  V30 1154 C 110.619 -1.62786 -1.23612 0
M  V30 1155 C 110.983 -0.319786 -1.89318 0
M  V30 1156 O 112.184 -0.320012 -2.66888 0
M  V30 1157 C 110.455 -2.77351 -2.25414 0
M  V30 1158 S 112.014 -3.09948 -3.10608 0
M  V30 1159 H 108.832 -0.573895 -0.419721 0
M  V30 1160 H 111.434 -1.88076 -0.533623 0
M  V30 1161 H 110.138 -3.70879 -1.75719 0
M  V30 1162 H 109.669 -2.54137 -3.00296 0
M  V30 1163 H 111.684 -2.53553 -4.26527 0
M  V30 1164 N 110.857 0.726932 -1.39834 0
M  V30 1165 C 112.103 1.48884 -1.377 0
M  V30 1166 C 112.436 1.94185 0.0244852 0
M  V30 1167 O 111.711 1.67361 0.990986 0
M  V30 1168 C 111.994 2.72288 -2.3565 0
M  V30 1169 C 111.847 2.32956 -3.84775 0
M  V30 1170 C 113.166 3.74414 -2.31306 0
M  V30 1171 H 110.285 0.540062 -0.5015 0
M  V30 1172 H 112.927 0.830547 -1.70886 0
M  V30 1173 H 111.077 3.28457 -2.07481 0
M  V30 1174 H 112.749 1.82356 -4.23726 0
M  V30 1175 H 110.992 1.65088 -4.01159 0
M  V30 1176 H 111.663 3.21362 -4.4881 0
M  V30 1177 H 114.139 3.27849 -2.56231 0
M  V30 1178 H 113.015 4.58414 -3.01907 0
M  V30 1179 H 113.276 4.21909 -1.32081 0
M  V30 1180 N 112.336 1.25143 0.95797 0
M  V30 1181 C 113.584 1.09476 1.69881 0
M  V30 1182 C 113.905 -0.365502 1.91544 0
M  V30 1183 O 113.175 -1.25985 1.50015 0
M  V30 1184 H 111.755 0.402128 0.629525 0
M  V30 1185 H 114.417 1.57214 1.15194 0
M  V30 1186 H 113.513 1.60046 2.6794 0
M  V30 1187 N 113.814 -1.1601 1.06675 0
M  V30 1188 C 115.225 -1.68235 0.809565 0
M  V30 1189 C 115.576 -1.8454 -0.666303 0
M  V30 1190 O 114.701 -1.54374 -1.5165 0
M  V30 1191 C 115.296 -3.05585 1.46299 0
M  V30 1192 C 113.855 -3.54915 1.25349 0
M  V30 1193 C 113.002 -2.30804 1.53703 0
M  V30 1194 H 115.953 -1.00318 1.22971 0
M  V30 1195 H 115.974 -3.70174 0.880431 0
M  V30 1196 H 115.486 -2.93686 2.53713 0
M  V30 1197 H 113.587 -3.72067 0.199261 0
M  V30 1198 H 113.7 -4.36774 1.9689 0
M  V30 1199 H 112.064 -2.36007 0.957739 0
M  V30 1200 H 112.847 -2.21499 2.62284 0
M  V30 1201 N 115.292 -0.849877 -1.32721 0
M  V30 1202 C 116.569 -0.372405 -1.92022 0
M  V30 1203 C 116.949 1.1435 -1.77447 0
M  V30 1204 O 116.297 1.96296 -1.16962 0
M  V30 1205 C 116.507 -0.831482 -3.3895 0
M  V30 1206 C 117.855 -0.845882 -4.16089 0
M  V30 1207 O 118.879 -0.775806 -3.47649 0
M  V30 1208 O 117.738 -0.943753 -5.38289 0
M  V30 1209 H 114.832 -0.107667 -0.819961 0
M  V30 1210 H 117.378 -0.93646 -1.41522 0
M  V30 1211 H 116.15 -1.87448 -3.4348 0
M  V30 1212 H 115.773 -0.24461 -3.96847 0
M  V30 1213 N 116.77 1.45427 -0.607355 0
M  V30 1214 C 118.016 2.0254 -0.102607 0
M  V30 1215 C 118.349 1.47478 1.26348 0
M  V30 1216 O 117.624 0.64939 1.83339 0
M  V30 1217 C 117.907 3.60044 -0.0634347 0
M  V30 1218 C 117.76 4.2544 -1.46017 0
M  V30 1219 C 119.079 4.35646 0.624514 0
M  V30 1220 H 116.198 0.73598 -0.0387607 0
M  V30 1221 H 118.84 1.73284 -0.779282 0
M  V30 1222 H 116.99 3.85101 0.512808 0
M  V30 1223 H 118.662 4.11569 -2.08347 0
M  V30 1224 H 116.905 3.83849 -2.02094 0
M  V30 1225 H 117.576 5.34342 -1.385 0
M  V30 1226 H 120.052 4.15882 0.134723 0
M  V30 1227 H 118.928 5.45376 0.621028 0
M  V30 1228 H 119.189 4.08501 1.69055 0
M  V30 1229 N 118.248 0.346503 1.53744 0
M  V30 1230 C 119.195 -0.508914 2.25119 0
M  V30 1231 C 120.165 -1.09315 1.25058 0
M  V30 1232 O 121.35 -1.12921 1.53797 0
M  V30 1233 C 118.49 -1.65246 3.02965 0
M  V30 1234 C 117.603 -1.09525 4.17886 0
M  V30 1235 C 116.738 -2.20634 4.83212 0
M  V30 1236 C 115.777 -1.62279 5.90196 0
M  V30 1237 N 114.914 -2.67143 6.49291 0
M  V30 1238 H 119.754 0.106283 2.9781 0
M  V30 1239 H 117.291 0.0642227 1.4696 0
M  V30 1240 H 119.249 -2.32574 3.4636 0
M  V30 1241 H 117.879 -2.2386 2.32565 0
M  V30 1242 H 116.931 -0.312818 3.79112 0
M  V30 1243 H 118.243 -0.628444 4.94825 0
M  V30 1244 H 117.397 -2.95821 5.29693 0
M  V30 1245 H 116.136 -2.70659 4.05703 0
M  V30 1246 H 115.141 -0.855989 5.43096 0
M  V30 1247 H 116.366 -1.13102 6.69615 0
M  V30 1248 H 114.312 -3.16417 5.74645 0
M  V30 1249 H 114.229 -2.25093 7.21713 0
M  V30 1250 H 115.497 -3.4209 7.00425 0
M  V30 1251 N 119.726 -1.57421 0.075193 0
M  V30 1252 C 121.003 -1.85029 -0.634329 0
M  V30 1253 C 121.383 -0.968305 -1.87582 0
M  V30 1254 O 120.731 -0.0354749 -2.28472 0
M  V30 1255 C 120.941 -3.35286 -0.968742 0
M  V30 1256 C 122.289 -4.02875 -1.34077 0
M  V30 1257 O 123.313 -3.40051 -1.06037 0
M  V30 1258 O 122.172 -5.13691 -1.86506 0
M  V30 1259 H 119.266 -0.7645 -0.315387 0
M  V30 1260 H 121.812 -1.69366 0.106382 0
M  V30 1261 H 120.584 -3.91203 -0.0871376 0
M  V30 1262 H 120.207 -3.56223 -1.7661 0
M  V30 1263 N 121.204 0.198386 -1.56346 0
M  V30 1264 C 122.134 1.24865 -1.9731 0
M  V30 1265 C 123.115 1.47651 -0.844576 0
M  V30 1266 O 124.3 1.59444 -1.10866 0
M  V30 1267 C 121.43 2.59358 -2.30977 0
M  V30 1268 C 120.384 2.5119 -3.46537 0
M  V30 1269 C 119.71 3.89926 -3.65871 0
M  V30 1270 C 121.01 2.03977 -4.80823 0
M  V30 1271 H 122.704 0.908252 -2.85291 0
M  V30 1272 H 120.25 0.435462 -1.37258 0
M  V30 1273 H 122.203 3.33011 -2.58228 0
M  V30 1274 H 120.927 2.95132 -1.39874 0
M  V30 1275 H 119.586 1.79993 -3.19371 0
M  V30 1276 H 119.234 4.23046 -2.72105 0
M  V30 1277 H 118.934 3.85336 -4.4361 0
M  V30 1278 H 120.458 4.65205 -3.95495 0
M  V30 1279 H 121.872 2.67386 -5.07127 0
M  V30 1280 H 120.269 2.10397 -5.62008 0
M  V30 1281 H 121.339 0.992861 -4.74626 0
M  V30 1282 N 122.682 1.50554 0.465978 0
M  V30 1283 C 123.645 1.69233 1.54574 0
M  V30 1284 C 124.645 0.562901 1.50626 0
M  V30 1285 O 125.835 0.830016 1.53155 0
M  V30 1286 C 122.967 1.7223 2.94193 0
M  V30 1287 H 124.16 2.65571 1.39327 0
M  V30 1288 H 121.713 1.40111 0.692711 0
M  V30 1289 H 122.448 0.77603 3.14878 0
M  V30 1290 H 122.233 2.54285 2.98466 0
M  V30 1291 H 123.723 1.88618 3.72576 0
M  V30 1292 N 124.16 -0.719506 1.40217 0
M  V30 1293 C 125.123 -1.8153 1.39927 0
M  V30 1294 C 126.123 -1.58095 0.293723 0
M  V30 1295 O 127.313 -1.65209 0.552429 0
M  V30 1296 C 124.445 -3.19561 1.18716 0
M  V30 1297 H 125.638 -1.83186 2.37451 0
M  V30 1298 H 123.191 -0.924746 1.26008 0
M  V30 1299 H 123.926 -3.23557 0.219366 0
M  V30 1300 H 123.711 -3.3797 1.98793 0
M  V30 1301 H 125.201 -3.99598 1.21291 0
M  V30 1302 N 125.638 -1.25649 -0.95132 0
M  V30 1303 C 126.568 -1.08808 -2.06599 0
M  V30 1304 C 127.549 0.00382547 -1.701 0
M  V30 1305 O 128.734 -0.166325 -1.93486 0
M  V30 1306 C 125.864 -0.709542 -3.39975 0
M  V30 1307 C 124.818 -1.75206 -3.90496 0
M  V30 1308 C 124.144 -1.22811 -5.20405 0
M  V30 1309 C 125.444 -3.15153 -4.16504 0
M  V30 1310 H 127.138 -2.02048 -2.20946 0
M  V30 1311 H 124.684 -0.972835 -1.06169 0
M  V30 1312 H 126.637 -0.578649 -4.17408 0
M  V30 1313 H 125.361 0.258556 -3.25575 0
M  V30 1314 H 124.02 -1.87145 -3.15234 0
M  V30 1315 H 123.668 -0.250145 -5.02378 0
M  V30 1316 H 123.368 -1.92492 -5.55176 0
M  V30 1317 H 124.892 -1.10968 -6.00432 0
M  V30 1318 H 126.306 -3.06349 -4.84586 0
M  V30 1319 H 124.703 -3.82333 -4.62538 0
M  V30 1320 H 125.773 -3.61966 -3.22658 0
M  V30 1321 N 127.117 1.15442 -1.07289 0
M  V30 1322 C 128.533 1.38201 -0.798288 0
M  V30 1323 C 128.733 1.92429 0.597769 0
M  V30 1324 O 127.789 2.12962 1.3566 0
M  V30 1325 C 129.102 2.35357 -1.87156 0
M  V30 1326 C 130.65 2.49021 -1.89624 0
M  V30 1327 C 131.125 3.49468 -2.96034 0
M  V30 1328 N 132.616 3.57003 -2.95132 0
M  V30 1329 C 133.351 4.34543 -3.74112 0
M  V30 1330 N 132.847 5.15421 -4.6294 0
M  V30 1331 N 134.64 4.29625 -3.62462 0
M  V30 1332 H 126.791 0.78584 -1.97328 0
M  V30 1333 H 129.054 0.408065 -0.855679 0
M  V30 1334 H 128.76 2.02626 -2.87464 0
M  V30 1335 H 128.634 3.35129 -1.73114 0
M  V30 1336 H 131.021 2.81051 -0.899687 0
M  V30 1337 H 131.102 1.4925 -2.07745 0
M  V30 1338 H 130.746 3.18173 -3.95889 0
M  V30 1339 H 130.676 4.48992 -2.75161 0
M  V30 1340 H 133.167 2.99276 -2.30743 0
M  V30 1341 H 133.48 5.7183 -5.19837 0
M  V30 1342 H 131.825 5.14729 -4.66989 0
M  V30 1343 H 135.016 3.65505 -2.92444 0
M  V30 1344 H 135.189 4.89807 -4.24256 0
M  V30 1345 N 128.595 0.856903 1.32268 0
M  V30 1346 C 129.841 0.462069 1.97466 0
M  V30 1347 C 130.174 -0.980298 1.67642 0
M  V30 1348 O 129.449 -1.68824 0.965858 0
M  V30 1349 C 129.732 0.704336 3.53145 0
M  V30 1350 C 129.585 2.19529 3.9259 0
M  V30 1351 C 130.904 0.1622 4.39801 0
M  V30 1352 H 128.023 0.169357 0.717278 0
M  V30 1353 H 130.665 1.07574 1.56614 0
M  V30 1354 H 128.815 0.181999 3.88073 0
M  V30 1355 H 130.487 2.78387 3.67829 0
M  V30 1356 H 128.73 2.67292 3.41668 0
M  V30 1357 H 129.401 2.31549 5.01088 0
M  V30 1358 H 131.877 0.608905 4.11621 0
M  V30 1359 H 130.753 0.361265 5.4771 0
M  V30 1360 H 131.014 -0.935158 4.32096 0
M  V30 1361 N 130.073 -1.45103 0.615059 0
M  V30 1362 C 131.005 -2.28786 -0.13762 0
M  V30 1363 C 132.018 -1.40376 -0.824525 0
M  V30 1364 O 133.207 -1.64681 -0.688662 0
M  V30 1365 C 130.307 -3.16322 -1.21628 0
M  V30 1366 C 129.48 -4.33054 -0.615039 0
M  V30 1367 C 128.539 -5.01743 -1.58556 0
M  V30 1368 O 127.565 -5.58293 -1.10895 0
M  V30 1369 N 128.767 -5.01714 -2.91998 0
M  V30 1370 H 131.532 -2.94025 0.580483 0
M  V30 1371 H 129.093 -1.55373 0.45507 0
M  V30 1372 H 131.085 -3.59139 -1.86552 0
M  V30 1373 H 129.655 -2.52943 -1.83681 0
M  V30 1374 H 128.875 -3.93627 0.21245 0
M  V30 1375 H 130.163 -5.08431 -0.193704 0
M  V30 1376 H 129.561 -4.57075 -3.33316 0
M  V30 1377 H 128.118 -5.48371 -3.52325 0
M  V30 1378 N 131.551 -0.354651 -1.53558 0
M  V30 1379 C 132.481 0.489091 -2.2832 0
M  V30 1380 C 133.462 1.09324 -1.30316 0
M  V30 1381 O 134.647 1.11255 -1.59173 0
M  V30 1382 C 131.777 1.63456 -3.0643 0
M  V30 1383 C 130.731 1.1582 -4.12031 0
M  V30 1384 C 130.057 2.39305 -4.7816 0
M  V30 1385 C 131.357 0.250731 -5.21698 0
M  V30 1386 H 133.051 -0.134614 -2.99097 0
M  V30 1387 H 130.597 -0.0661826 -1.43848 0
M  V30 1388 H 132.55 2.23136 -3.57475 0
M  V30 1389 H 131.274 2.28533 -2.33325 0
M  V30 1390 H 129.933 0.584146 -3.61916 0
M  V30 1391 H 129.581 3.02814 -4.01637 0
M  V30 1392 H 129.281 2.08109 -5.49513 0
M  V30 1393 H 130.805 2.99691 -5.31994 0
M  V30 1394 H 132.219 0.754695 -5.68311 0
M  V30 1395 H 130.616 0.0301468 -6.00092 0
M  V30 1396 H 131.686 -0.710125 -4.79672 0
M  V30 1397 N 133.029 1.57378 -0.0835403 0
M  V30 1398 C 134.445 1.57246 0.273109 0
M  V30 1399 C 134.645 1.09385 1.69225 0
M  V30 1400 O 133.701 0.765051 2.40631 0
M  V30 1401 C 135.014 3.00614 0.0720628 0
M  V30 1402 C 136.562 3.12684 0.1407 0
M  V30 1403 C 137.037 4.57989 -0.0322094 0
M  V30 1404 N 138.528 4.63194 0.0230085 0
M  V30 1405 C 139.263 5.73335 -0.0861941 0
M  V30 1406 N 138.759 6.9235 -0.24958 0
M  V30 1407 N 140.552 5.62093 -0.0282886 0
M  V30 1408 H 132.703 1.86801 -1.0109 0
M  V30 1409 H 134.966 0.861687 -0.395222 0
M  V30 1410 H 134.672 3.39786 -0.907662 0
M  V30 1411 H 134.546 3.68193 0.81936 0
M  V30 1412 H 136.933 2.73391 1.11092 0
M  V30 1413 H 137.014 2.47719 -0.637896 0
M  V30 1414 H 136.658 4.97973 -0.999247 0
M  V30 1415 H 136.588 5.21 0.765937 0
M  V30 1416 H 139.079 3.77613 0.14722 0
M  V30 1417 H 139.392 7.72117 -0.324733 0
M  V30 1418 H 137.737 6.94415 -0.285097 0
M  V30 1419 H 140.928 4.67997 0.0981408 0
M  V30 1420 H 141.101 6.47895 -0.116845 0
M  V30 1421 N 134.507 -0.190092 1.56449 0
M  V30 1422 C 135.417 -1.25591 1.98152 0
M  V30 1423 C 136.433 -1.49519 0.889944 0
M  V30 1424 O 137.609 -1.62036 1.19609 0
M  V30 1425 C 134.674 -2.57916 2.3169 0
M  V30 1426 C 133.735 -2.42015 3.5458 0
M  V30 1427 C 132.968 -3.6803 3.8651 0
M  V30 1428 O 133.191 -4.72413 3.1966 0
M  V30 1429 O 132.125 -3.6326 4.79923 0
M  V30 1430 H 135.951 -0.931988 2.89046 0
M  V30 1431 H 133.536 -0.395488 1.4407 0
M  V30 1432 H 135.418 -3.36008 2.54316 0
M  V30 1433 H 134.093 -2.89925 1.43963 0
M  V30 1434 H 133 -1.62017 3.37196 0
M  V30 1435 H 134.333 -2.14937 4.4279 0
M  V30 1436 N 135.985 -1.50799 -0.457987 0
M  V30 1437 C 136.917 -1.66786 -1.57211 0
M  V30 1438 C 137.93 -0.548962 -1.53265 0
M  V30 1439 O 139.119 -0.8226 -1.58416 0
M  V30 1440 C 136.219 -1.64834 -2.96113 0
M  V30 1441 C 135.392 -2.92971 -3.24787 0
M  V30 1442 C 134.451 -2.83485 -4.43309 0
M  V30 1443 O 133.477 -3.5744 -4.42973 0
M  V30 1444 N 134.679 -1.97929 -5.45714 0
M  V30 1445 H 137.444 -2.62889 -1.43909 0
M  V30 1446 H 135.005 -1.48427 -0.646617 0
M  V30 1447 H 136.997 -1.56084 -3.7339 0
M  V30 1448 H 135.567 -0.764118 -3.03117 0
M  V30 1449 H 134.787 -3.15749 -2.36 0
M  V30 1450 H 136.075 -3.77834 -3.40762 0
M  V30 1451 H 135.473 -1.37182 -5.48815 0
M  V30 1452 H 134.03 -1.95073 -6.21924 0
M  V30 1453 N 137.463 0.71206 -1.40597 0
M  V30 1454 C 138.413 1.81783 -1.37619 0
M  V30 1455 C 139.397 1.58896 -0.253162 0
M  V30 1456 O 140.589 1.70009 -0.492547 0
M  V30 1457 C 137.718 3.19944 -1.24462 0
M  V30 1458 C 136.804 3.48582 -2.4156 0
M  V30 1459 N 137.195 3.48016 -3.67041 0
M  V30 1460 C 135.493 3.79056 -2.35016 0
M  V30 1461 C 136.194 3.75096 -4.44609 0
M  V30 1462 N 135.17 3.94022 -3.74497 0
M  V30 1463 H 138.972 1.79683 -2.32575 0
M  V30 1464 H 136.486 0.91134 -1.34419 0
M  V30 1465 H 138.483 3.99133 -1.20411 0
M  V30 1466 H 137.143 3.23267 -0.304762 0
M  V30 1467 H 138.154 3.28782 -4.00153 0
M  V30 1468 H 134.831 3.89848 -1.49415 0
M  V30 1469 H 136.221 3.80934 -5.53479 0
M  V30 1470 N 138.941 1.26152 0.944643 0
M  V30 1471 C 139.871 1.09902 2.06019 0
M  V30 1472 C 140.852 0.00519538 1.70099 0
M  V30 1473 O 142.037 0.176583 1.93396 0
M  V30 1474 C 139.167 0.727562 3.39594 0
M  V30 1475 C 138.121 1.77274 3.89561 0
M  V30 1476 C 137.447 1.25569 5.19747 0
M  V30 1477 C 138.747 3.17357 4.14827 0
M  V30 1478 H 140.441 2.03217 2.19871 0
M  V30 1479 H 137.987 0.978452 1.05652 0
M  V30 1480 H 139.94 0.600777 4.17095 0
M  V30 1481 H 138.664 -0.241287 3.25707 0
M  V30 1482 H 137.323 1.88814 3.14237 0
M  V30 1483 H 136.971 0.276783 5.02238 0
M  V30 1484 H 136.671 1.95433 5.54148 0
M  V30 1485 H 138.195 1.1415 5.99835 0
M  V30 1486 H 139.609 3.08914 4.82954 0
M  V30 1487 H 138.006 3.84781 4.60504 0
M  V30 1488 H 139.076 3.63673 3.20734 0
M  V30 1489 N 140.419 -1.14872 1.07899 0
M  V30 1490 C 141.649 -1.89386 0.825631 0
M  V30 1491 C 142.057 -1.78565 -0.625406 0
M  V30 1492 O 141.4 -1.13918 -1.44113 0
M  V30 1493 C 141.462 -3.40206 1.16191 0
M  V30 1494 C 141.126 -3.74812 2.61467 0
M  V30 1495 C 142.123 -3.75367 3.59716 0
M  V30 1496 C 139.808 -4.0495 2.97189 0
M  V30 1497 C 141.802 -4.05574 4.9172 0
M  V30 1498 C 139.489 -4.34821 4.29388 0
M  V30 1499 C 140.487 -4.35116 5.26463 0
M  V30 1500 O 140.175 -4.64267 6.56286 0
M  V30 1501 H 139.907 -0.606894 0.297751 0
M  V30 1502 H 142.461 -1.46438 1.44031 0
M  V30 1503 H 140.691 -3.8358 0.490214 0
M  V30 1504 H 142.38 -3.96018 0.890193 0
M  V30 1505 H 143.146 -3.52176 3.33462 0
M  V30 1506 H 139.025 -4.03876 2.22273 0
M  V30 1507 H 142.569 -4.05719 5.67484 0
M  V30 1508 H 138.466 -4.5748 4.55392 0
M  V30 1509 H 139.234 -4.82007 6.61522 0
M  V30 1510 N 141.898 -0.863906 -1.31812 0
M  V30 1511 C 143.128 -0.485406 -2.00817 0
M  V30 1512 C 143.536 0.925007 -1.65046 0
M  V30 1513 O 142.879 1.61653 -0.872574 0
M  V30 1514 C 142.941 -0.555589 -3.55181 0
M  V30 1515 C 142.605 -1.92654 -4.14407 0
M  V30 1516 C 143.602 -2.89324 -4.31958 0
M  V30 1517 C 141.287 -2.2262 -4.50273 0
M  V30 1518 C 143.281 -4.14108 -4.84555 0
M  V30 1519 C 140.968 -3.47654 -5.02573 0
M  V30 1520 C 141.966 -4.43214 -5.19664 0
M  V30 1521 O 141.654 -5.66033 -5.70843 0
M  V30 1522 H 141.386 -0.188224 -0.649267 0
M  V30 1523 H 143.94 -1.16514 -1.69156 0
M  V30 1524 H 142.17 0.181037 -3.86276 0
M  V30 1525 H 143.859 -0.19138 -4.05449 0
M  V30 1526 H 144.625 -2.6748 -4.04573 0
M  V30 1527 H 140.504 -1.4902 -4.3625 0
M  V30 1528 H 144.048 -4.88703 -4.9781 0
M  V30 1529 H 139.945 -3.69345 -5.29391 0
M  V30 1530 H 140.713 -5.6812 -5.89222 0
M  V30 1531 N 143.376 1.44774 -0.622745 0
M  V30 1532 C 144.308 2.28856 0.125485 0
M  V30 1533 C 145.321 1.40811 0.817069 0
M  V30 1534 O 146.51 1.65044 0.679918 0
M  V30 1535 C 143.61 3.16963 1.19949 0
M  V30 1536 C 142.783 4.33374 0.592064 0
M  V30 1537 C 141.842 5.02577 1.55893 0
M  V30 1538 O 140.868 5.58873 1.07933 0
M  V30 1539 N 142.07 5.03256 2.89334 0
M  V30 1540 H 144.835 2.93713 -0.596068 0
M  V30 1541 H 142.396 1.55129 -0.463303 0
M  V30 1542 H 144.388 3.60123 1.84644 0
M  V30 1543 H 142.958 2.53913 1.82337 0
M  V30 1544 H 142.178 3.93509 -0.233322 0
M  V30 1545 H 143.466 5.08527 0.166738 0
M  V30 1546 H 142.864 4.58836 3.30887 0
M  V30 1547 H 141.421 5.50232 3.49412 0
M  V30 1548 N 144.854 0.36279 1.53368 0
M  V30 1549 C 146.131 -0.284021 1.93527 0
M  V30 1550 C 146.511 -1.66628 1.29608 0
M  V30 1551 O 145.859 -2.23942 0.45413 0
M  V30 1552 C 146.069 -0.337028 3.47369 0
M  V30 1553 C 147.417 -0.578708 4.20638 0
M  V30 1554 O 148.441 -0.418352 3.53735 0
M  V30 1555 O 147.3 -0.89074 5.39192 0
M  V30 1556 H 144.394 -0.169743 0.809393 0
M  V30 1557 H 146.94 0.41537 1.64538 0
M  V30 1558 H 145.712 0.632217 3.86159 0
M  V30 1559 H 145.335 -1.08243 3.82582 0
M  V30 1560 N 146.332 -1.57332 0.0918853 0
M  V30 1561 C 147.264 -2.10869 -0.898168 0
M  V30 1562 C 148.277 -1.04521 -1.24817 0
M  V30 1563 O 149.466 -1.31977 -1.20184 0
M  V30 1564 C 146.566 -2.57083 -2.2082 0
M  V30 1565 C 145.739 -3.87229 -2.03402 0
M  V30 1566 C 144.798 -4.19324 -3.17889 0
M  V30 1567 O 143.824 -4.88598 -2.91994 0
M  V30 1568 N 145.026 -3.74471 -4.43567 0
M  V30 1569 H 147.791 -2.96439 -0.440943 0
M  V30 1570 H 145.352 -1.61631 -0.0933064 0
M  V30 1571 H 147.344 -2.75602 -2.96354 0
M  V30 1572 H 145.914 -1.76541 -2.57977 0
M  V30 1573 H 145.134 -3.7789 -1.12218 0
M  V30 1574 H 146.422 -4.72379 -1.89038 0
M  V30 1575 H 145.82 -3.18546 -4.67488 0
M  V30 1576 H 144.377 -3.98151 -5.16061 0
M  V30 1577 N 147.81 0.181792 -1.56548 0
M  V30 1578 C 148.74 1.22765 -1.98623 0
M  V30 1579 C 149.721 1.46747 -0.860189 0
M  V30 1580 O 150.906 1.58259 -1.12551 0
M  V30 1581 C 148.036 2.56894 -2.33715 0
M  V30 1582 C 146.99 2.475 -3.49182 0
M  V30 1583 C 146.316 3.86023 -3.69986 0
M  V30 1584 C 147.616 1.98866 -4.82959 0
M  V30 1585 H 149.31 0.877942 -2.86239 0
M  V30 1586 H 146.856 0.42088 -1.37712 0
M  V30 1587 H 148.809 3.30253 -2.61746 0
M  V30 1588 H 147.533 2.93632 -1.42997 0
M  V30 1589 H 146.192 1.76596 -3.21262 0
M  V30 1590 H 145.84 4.20136 -2.76576 0
M  V30 1591 H 145.54 3.80609 -4.47672 0
M  V30 1592 H 147.064 4.60984 -4.00407 0
M  V30 1593 H 148.478 2.61992 -5.09934 0
M  V30 1594 H 146.875 2.04424 -5.64208 0
M  V30 1595 H 147.945 0.942465 -4.75653 0
M  V30 1596 N 149.288 1.51039 0.449983 0
M  V30 1597 C 150.218 1.74379 1.55288 0
M  V30 1598 C 151.199 0.593236 1.5942 0
M  V30 1599 O 152.384 0.834625 1.7535 0
M  V30 1600 C 149.514 1.85728 2.93466 0
M  V30 1601 C 148.468 3.01078 3.04197 0
M  V30 1602 C 147.794 2.97595 4.44231 0
M  V30 1603 C 149.094 4.41254 2.7945 0
M  V30 1604 H 150.788 2.66725 1.36008 0
M  V30 1605 H 148.334 1.2835 0.652864 0
M  V30 1606 H 150.287 2.0064 3.70569 0
M  V30 1607 H 149.011 0.900207 3.13949 0
M  V30 1608 H 147.67 2.85851 2.29531 0
M  V30 1609 H 147.318 1.99691 4.61663 0
M  V30 1610 H 147.018 3.75046 4.52343 0
M  V30 1611 H 148.542 3.14583 5.23326 0
M  V30 1612 H 149.956 4.56897 3.46292 0
M  V30 1613 H 148.353 5.20315 2.98985 0
M  V30 1614 H 149.423 4.52164 1.75144 0
M  V30 1615 N 150.766 -0.704594 1.40972 0
M  V30 1616 C 152.177 -1.28418 1.3552 0
M  V30 1617 C 152.528 -1.96171 0.0339434 0
M  V30 1618 O 151.653 -1.98231 -0.867944 0
M  V30 1619 C 152.248 -2.33528 2.45459 0
M  V30 1620 C 150.807 -2.87085 2.43433 0
M  V30 1621 C 149.954 -1.61007 2.2577 0
M  V30 1622 H 152.905 -0.499963 1.50619 0
M  V30 1623 H 152.926 -3.14619 2.13998 0
M  V30 1624 H 152.438 -1.84187 3.41609 0
M  V30 1625 H 150.539 -3.40626 1.51013 0
M  V30 1626 H 150.652 -3.3813 3.39419 0
M  V30 1627 H 149.016 -1.86482 1.73483 0
M  V30 1628 H 149.799 -1.13675 3.23933 0
M  V30 1629 N 152.244 -1.26651 -0.937939 0
M  V30 1630 C 153.49 -1.12553 -1.687 0
M  V30 1631 C 153.823 0.329782 -1.91379 0
M  V30 1632 O 153.098 1.24202 -1.4968 0
M  V30 1633 C 153.381 -1.89862 -3.05981 0
M  V30 1634 C 153.234 -3.43318 -2.90607 0
M  V30 1635 C 154.553 -1.69499 -4.0615 0
M  V30 1636 H 151.672 -0.410257 -0.612257 0
M  V30 1637 H 154.314 -1.55685 -1.08913 0
M  V30 1638 H 152.464 -1.53204 -3.57017 0
M  V30 1639 H 154.136 -3.89747 -2.46769 0
M  V30 1640 H 152.379 -3.70179 -2.26164 0
M  V30 1641 H 153.05 -3.92642 -3.8799 0
M  V30 1642 H 155.526 -2.01442 -3.64088 0
M  V30 1643 H 154.402 -2.26002 -5.00214 0
M  V30 1644 H 154.663 -0.640365 -4.37438 0
M  V30 1645 N 153.722 1.14298 -1.08507 0
M  V30 1646 C 154.947 1.8976 -0.837001 0
M  V30 1647 C 155.372 1.78097 0.605228 0
M  V30 1648 O 154.73 1.12188 1.4242 0
M  V30 1649 C 154.778 3.37685 -1.26495 0
M  V30 1650 O 153.882 4.10281 -0.417514 0
M  V30 1651 H 153.223 0.590365 -0.303917 0
M  V30 1652 H 155.753 1.44672 -1.44676 0
M  V30 1653 H 155.763 3.88501 -1.24625 0
M  V30 1654 H 154.438 3.45492 -2.31534 0
M  V30 1655 H 153.015 3.69536 -0.499722 0
M  V30 1656 N 155.201 0.870884 1.31352 0
M  V30 1657 C 156.617 0.562932 1.49343 0
M  V30 1658 C 156.817 -0.902725 1.80148 0
M  V30 1659 O 155.873 -1.68484 1.88067 0
M  V30 1660 C 157.186 1.46393 2.62659 0
M  V30 1661 C 158.734 1.46607 2.76542 0
M  V30 1662 C 159.209 2.35266 3.92955 0
M  V30 1663 N 160.7 2.33151 4.00243 0
M  V30 1664 C 161.435 2.98471 4.89594 0
M  V30 1665 N 160.931 3.72964 5.8384 0
M  V30 1666 N 162.724 2.87775 4.82848 0
M  V30 1667 H 154.875 1.81923 1.09626 0
M  V30 1668 H 157.138 0.777934 0.541777 0
M  V30 1669 H 156.844 2.50689 2.46674 0
M  V30 1670 H 156.718 1.16314 3.58819 0
M  V30 1671 H 159.105 0.43069 2.9194 0
M  V30 1672 H 159.186 1.8071 1.81046 0
M  V30 1673 H 158.83 3.38881 3.78315 0
M  V30 1674 H 158.76 1.98487 4.87761 0
M  V30 1675 H 161.251 1.79006 3.32814 0
M  V30 1676 H 161.564 4.19932 6.4875 0
M  V30 1677 H 159.909 3.77073 5.83816 0
M  V30 1678 H 163.1 2.29116 4.08195 0
M  V30 1679 H 163.273 3.38961 5.52277 0
M  V30 1680 N 156.679 -1.44442 0.630414 0
M  V30 1681 C 157.928 -2.01267 0.132073 0
M  V30 1682 C 158.241 -1.50172 -1.25331 0
M  V30 1683 O 159.447 -1.9912 -1.84562 0
M  V30 1684 C 157.903 -3.59422 0.185362 0
M  V30 1685 C 157.511 -4.19514 1.57201 0
M  V30 1686 C 159.255 -4.23724 -0.256553 0
M  V30 1687 C 157.162 -5.69891 1.58045 0
M  V30 1688 H 156.092 -0.752619 0.0456092 0
M  V30 1689 H 158.743 -1.65666 0.789106 0
M  V30 1690 H 157.125 -3.92318 -0.538759 0
M  V30 1691 H 158.299 -3.98156 2.31966 0
M  V30 1692 H 156.614 -3.67496 1.95795 0
M  V30 1693 H 159.211 -5.34019 -0.269767 0
M  V30 1694 H 159.554 -3.96013 -1.28372 0
M  V30 1695 H 160.087 -3.95629 0.41505 0
M  V30 1696 H 156.826 -6.02336 2.58597 0
M  V30 1697 H 156.346 -5.93373 0.875725 0
M  V30 1698 H 158.025 -6.33515 1.31408 0
M  V30 1699 N 158.157 -0.370918 -1.53173 0
M  V30 1700 C 159.406 0.218249 -2.00516 0
M  V30 1701 C 159.719 1.49429 -1.26215 0
M  V30 1702 O 160.925 2.16239 -1.64174 0
M  V30 1703 C 159.381 0.43948 -3.57207 0
M  V30 1704 C 158.989 -0.822244 -4.4039 0
M  V30 1705 C 160.733 0.986012 -4.1289 0
M  V30 1706 C 158.64 -0.570304 -5.88644 0
M  V30 1707 H 157.57 0.0853333 -0.749156 0
M  V30 1708 H 160.221 -0.490483 -1.76823 0
M  V30 1709 H 158.603 1.20961 -3.77074 0
M  V30 1710 H 159.777 -1.59557 -4.32294 0
M  V30 1711 H 158.092 -1.29238 -3.95836 0
M  V30 1712 H 160.689 1.18991 -5.21292 0
M  V30 1713 H 161.032 1.94972 -3.6782 0
M  V30 1714 H 161.565 0.27592 -3.96842 0
M  V30 1715 H 158.304 -1.50449 -6.38001 0
M  V30 1716 H 157.824 0.164427 -5.99575 0
M  V30 1717 H 159.503 -0.19784 -6.46697 0
M  V30 1718 N 159.635 1.57281 -0.100228 0
M  V30 1719 C 160.881 1.94826 0.563101 0
M  V30 1720 C 161.214 0.982475 1.67514 0
M  V30 1721 O 160.489 0.0164069 1.94493 0
M  V30 1722 C 160.772 3.42453 1.11346 0
M  V30 1723 C 160.625 4.498 0.00612081 0
M  V30 1724 C 161.944 3.91506 2.01024 0
M  V30 1725 H 159.063 0.708428 0.203221 0
M  V30 1726 H 161.705 1.8922 -0.171979 0
M  V30 1727 H 159.855 3.47361 1.7399 0
M  V30 1728 H 161.527 4.57 -0.628357 0
M  V30 1729 H 159.77 4.28756 -0.659581 0
M  V30 1730 H 160.441 5.50306 0.432109 0
M  V30 1731 H 162.917 3.88784 1.48278 0
M  V30 1732 H 161.793 4.95358 2.36457 0
M  V30 1733 H 162.054 3.31099 2.92961 0
M  V30 1734 N 161.113 -0.173488 1.56642 0
M  V30 1735 C 162.063 -1.21941 1.92651 0
M  V30 1736 C 163.047 -1.39912 0.794577 0
M  V30 1737 O 164.239 -1.41919 1.05773 0
M  V30 1738 C 161.368 -2.55935 2.28806 0
M  V30 1739 C 160.454 -2.41667 3.48508 0
M  V30 1740 N 160.845 -1.9711 4.65813 0
M  V30 1741 C 159.143 -2.72499 3.53072 0
M  V30 1742 C 159.844 -1.95253 5.47952 0
M  V30 1743 N 158.82 -2.37575 4.88937 0
M  V30 1744 H 162.622 -0.866581 2.80834 0
M  V30 1745 H 160.136 -0.381776 1.57849 0
M  V30 1746 H 162.133 -3.31511 2.52797 0
M  V30 1747 H 160.793 -2.92022 1.41961 0
M  V30 1748 H 161.804 -1.67481 4.90072 0
M  V30 1749 H 158.481 -3.12639 2.767 0
M  V30 1750 H 159.871 -1.6252 6.51948 0
M  V30 1751 N 162.591 -1.51276 -0.441967 0
M  V30 1752 C 164.002 -1.56244 -1.02199 0
M  V30 1753 C 164.353 -0.383149 -1.92422 0
M  V30 1754 O 163.478 0.500613 -2.1053 0
M  V30 1755 C 164.073 -2.83162 -1.86024 0
M  V30 1756 C 162.632 -2.90716 -2.39084 0
M  V30 1757 C 161.779 -2.50858 -1.18175 0
M  V30 1758 H 164.73 -1.5712 -0.223416 0
M  V30 1759 H 164.751 -2.66663 -2.71425 0
M  V30 1760 H 164.263 -3.68974 -1.20331 0
M  V30 1761 H 162.364 -2.09323 -3.08244 0
M  V30 1762 H 162.477 -3.94266 -2.72198 0
M  V30 1763 H 160.841 -2.03951 -1.52565 0
M  V30 1764 H 161.624 -3.3901 -0.541001 0
M  V30 1765 N 164.069 0.697108 -1.41344 0
M  V30 1766 C 165.001 1.8224 -1.39001 0
M  V30 1767 C 166.014 1.60152 -0.292428 0
M  V30 1768 O 167.203 1.69684 -0.554048 0
M  V30 1769 C 164.303 3.18976 -1.14489 0
M  V30 1770 C 163.476 3.68105 -2.36258 0
M  V30 1771 C 162.535 4.83506 -2.07625 0
M  V30 1772 O 161.561 4.95201 -2.8065 0
M  V30 1773 N 162.763 5.70637 -1.06555 0
M  V30 1774 H 165.528 1.84742 -2.35988 0
M  V30 1775 H 163.089 0.87937 -1.35936 0
M  V30 1776 H 165.081 3.93801 -0.932885 0
M  V30 1777 H 163.651 3.11508 -0.261043 0
M  V30 1778 H 162.871 2.84204 -2.7317 0
M  V30 1779 H 164.159 3.97667 -3.17393 0
M  V30 1780 H 163.557 5.63817 -0.461125 0
M  V30 1781 H 162.114 6.45368 -0.913444 0
M  V30 1782 N 165.547 1.27147 0.931209 0
M  V30 1783 C 166.794 1.13278 1.67852 0
M  V30 1784 C 167.122 -0.32204 1.91815 0
M  V30 1785 O 166.377 -1.25224 1.50391 0
M  V30 1786 C 166.676 1.8579 3.05314 0
M  V30 1787 C 166.342 3.35657 3.01073 0
M  V30 1788 C 165.004 3.76536 2.99623 0
M  V30 1789 C 167.356 4.31299 2.92627 0
M  V30 1790 C 164.684 5.11426 2.87506 0
M  V30 1791 C 167.036 5.66242 2.82051 0
M  V30 1792 C 165.7 6.06418 2.7895 0
M  V30 1793 H 164.97 0.414515 0.614214 0
M  V30 1794 H 167.617 1.57712 1.08624 0
M  V30 1795 H 165.922 1.33854 3.68226 0
M  V30 1796 H 167.619 1.72491 3.62005 0
M  V30 1797 H 164.209 3.03146 3.02986 0
M  V30 1798 H 168.393 4.00692 2.92848 0
M  V30 1799 H 163.649 5.41705 2.83489 0
M  V30 1800 H 167.823 6.40026 2.74481 0
M  V30 1801 H 165.45 7.10895 2.69318 0
M  V30 1802 N 167.025 -1.13721 1.09112 0
M  V30 1803 C 168.255 -1.88499 0.845671 0
M  V30 1804 C 168.663 -1.79218 -0.606432 0
M  V30 1805 O 168.006 -1.1544 -1.42896 0
M  V30 1806 C 168.068 -3.38954 1.19793 0
M  V30 1807 C 167.732 -3.72018 2.65428 0
M  V30 1808 C 168.729 -3.7153 3.63677 0
M  V30 1809 C 166.414 -4.01775 3.01467 0
M  V30 1810 C 168.408 -4.00336 4.95994 0
M  V30 1811 C 166.095 -4.30243 4.33975 0
M  V30 1812 C 167.093 -4.29508 5.31048 0
M  V30 1813 O 166.781 -4.5728 6.61173 0
M  V30 1814 H 166.513 -0.603702 0.304171 0
M  V30 1815 H 169.067 -1.44903 1.45576 0
M  V30 1816 H 167.297 -3.83039 0.530871 0
M  V30 1817 H 168.986 -3.95052 0.932146 0
M  V30 1818 H 169.752 -3.4862 3.37179 0
M  V30 1819 H 165.631 -4.01496 2.26544 0
M  V30 1820 H 169.175 -3.99678 5.71755 0
M  V30 1821 H 165.072 -4.52625 4.60219 0
M  V30 1822 H 165.84 -4.74964 6.66597 0
M  V30 1823 N 168.503 -0.877838 -1.30888 0
M  V30 1824 C 169.731 -0.507414 -2.00581 0
M  V30 1825 C 170.146 0.902216 -1.65848 0
M  V30 1826 O 169.503 1.59225 -0.891831 0
M  V30 1827 C 169.554 -0.664162 -3.55347 0
M  V30 1828 O 169.275 -2.01829 -3.8884 0
M  V30 1829 C 170.776 -0.295787 -4.42312 0
M  V30 1830 H 167.996 -0.196866 -0.641471 0
M  V30 1831 H 170.54 -1.18117 -1.66939 0
M  V30 1832 H 168.695 -0.0378619 -3.87381 0
M  V30 1833 H 169.109 -2.03174 -4.8355 0
M  V30 1834 H 170.583 -0.456388 -5.5011 0
M  V30 1835 H 171.06 0.765663 -4.32475 0
M  V30 1836 H 171.666 -0.898113 -4.15709 0
M  V30 1837 N 169.982 1.44106 -0.638065 0
M  V30 1838 C 170.945 2.29138 0.0531013 0
M  V30 1839 C 171.945 1.41409 0.765506 0
M  V30 1840 O 173.135 1.63206 0.609046 0
M  V30 1841 C 170.267 3.23144 1.08584 0
M  V30 1842 H 171.46 2.91739 -0.694883 0
M  V30 1843 H 169.013 1.51134 -0.398538 0
M  V30 1844 H 169.748 2.65408 1.86357 0
M  V30 1845 H 169.533 3.87804 0.578852 0
M  V30 1846 H 171.023 3.87004 1.56899 0
M  V30 1847 N 171.46 0.379036 1.52974 0
M  V30 1848 C 172.392 -0.495963 2.2377 0
M  V30 1849 C 173.405 -1.03517 1.25651 0
M  V30 1850 O 174.594 -0.939249 1.51791 0
M  V30 1851 C 171.694 -1.69894 2.93239 0
M  V30 1852 C 170.867 -1.2889 4.17979 0
M  V30 1853 C 169.926 -2.35543 4.70538 0
M  V30 1854 O 168.952 -1.97375 5.33883 0
M  V30 1855 N 170.154 -3.67318 4.49508 0
M  V30 1856 H 172.919 0.110523 2.99496 0
M  V30 1857 H 170.48 0.204878 1.60598 0
M  V30 1858 H 172.472 -2.40747 3.25304 0
M  V30 1859 H 171.042 -2.212 2.20883 0
M  V30 1860 H 170.262 -0.409676 3.92065 0
M  V30 1861 H 171.55 -0.991443 4.99047 0
M  V30 1862 H 170.948 -4.01095 3.98923 0
M  V30 1863 H 169.505 -4.34235 4.8609 0
M  V30 1864 N 172.938 -1.57226 0.108567 0
M  V30 1865 C 174.187 -1.94008 -0.551703 0
M  V30 1866 C 174.5 -0.993442 -1.68494 0
M  V30 1867 O 175.706 -1.25551 -2.40726 0
M  V30 1868 C 174.162 -3.44763 -1.03279 0
M  V30 1869 C 173.77 -4.47943 0.0714193 0
M  V30 1870 C 175.514 -3.90483 -1.66503 0
M  V30 1871 C 173.421 -5.89865 -0.425779 0
M  V30 1872 H 172.351 -0.724206 -0.209863 0
M  V30 1873 H 175.002 -1.82547 0.186741 0
M  V30 1874 H 173.384 -3.51422 -1.82533 0
M  V30 1875 H 174.558 -4.52942 0.847365 0
M  V30 1876 H 172.873 -4.11913 0.609669 0
M  V30 1877 H 175.47 -4.93925 -2.04798 0
M  V30 1878 H 175.813 -3.29877 -2.53942 0
M  V30 1879 H 176.346 -3.86581 -0.938074 0
M  V30 1880 H 173.085 -6.54202 0.412316 0
M  V30 1881 H 172.605 -5.88309 -1.16843 0
M  V30 1882 H 174.284 -6.40844 -0.890397 0
M  V30 1883 N 174.416 0.165178 -1.56732 0
M  V30 1884 C 175.664 0.879068 -1.8198 0
M  V30 1885 C 175.985 1.82514 -0.686561 0
M  V30 1886 O 175.255 1.93694 0.293146 0
M  V30 1887 H 173.835 0.327608 -0.671329 0
M  V30 1888 H 176.497 0.163526 -1.94213 0
M  V30 1889 H 175.593 1.45228 -2.76252 0
M  V30 1890 N 175.894 1.51508 0.433938 0
M  V30 1891 C 176.857 1.72473 1.50949 0
M  V30 1892 C 177.857 0.594725 1.49398 0
M  V30 1893 O 179.047 0.862315 1.5136 0
M  V30 1894 C 176.179 1.78431 2.90474 0
M  V30 1895 H 177.372 2.68467 1.33662 0
M  V30 1896 H 174.925 1.41549 0.662836 0
M  V30 1897 H 175.66 0.842645 3.13161 0
M  V30 1898 H 175.445 2.60558 2.93005 0
M  V30 1899 H 176.935 1.96479 3.68491 0
M  V30 1900 N 177.372 -0.689602 1.41712 0
M  V30 1901 C 178.649 -1.44457 1.31877 0
M  V30 1902 C 179.029 -2.11039 -0.0508537 0
M  V30 1903 O 178.377 -2.02138 -1.06547 0
M  V30 1904 C 178.587 -2.45913 2.47645 0
M  V30 1905 C 179.935 -3.10991 2.89084 0
M  V30 1906 O 180.959 -2.56238 2.47428 0
M  V30 1907 O 179.818 -4.10174 3.61137 0
M  V30 1908 H 176.912 -0.64362 0.519309 0
M  V30 1909 H 179.458 -0.719576 1.53689 0
M  V30 1910 H 178.23 -1.95409 3.39015 0
M  V30 1911 H 177.853 -3.25913 2.27742 0
M  V30 1912 N 178.85 -1.27639 -0.924453 0
M  V30 1913 C 180.099 -1.13549 -1.66702 0
M  V30 1914 C 180.412 0.317487 -1.93006 0
M  V30 1915 O 181.618 0.579333 -2.65247 0
M  V30 1916 C 180.074 -1.98426 -3.00259 0
M  V30 1917 C 179.682 -3.484 -2.81641 0
M  V30 1918 C 181.426 -1.92993 -3.78092 0
M  V30 1919 C 179.333 -4.25464 -4.10773 0
M  V30 1920 H 178.263 -0.421351 -0.625283 0
M  V30 1921 H 180.914 -1.52085 -1.02676 0
M  V30 1922 H 179.296 -1.52736 -3.6536 0
M  V30 1923 H 180.47 -4.01973 -2.25287 0
M  V30 1924 H 178.785 -3.55245 -2.17232 0
M  V30 1925 H 181.382 -2.47844 -4.7379 0
M  V30 1926 H 181.725 -0.904281 -4.0636 0
M  V30 1927 H 182.258 -2.36595 -3.19793 0
M  V30 1928 H 178.997 -5.28566 -3.87683 0
M  V30 1929 H 178.517 -3.76667 -4.66779 0
M  V30 1930 H 180.196 -4.34812 -4.79111 0
M  V30 1931 N 180.328 1.1314 -1.09713 0
M  V30 1932 C 181.291 2.16831 -0.742751 0
M  V30 1933 C 182.291 1.59159 0.229129 0
M  V30 1934 O 183.481 1.74199 0.00693237 0
M  V30 1935 C 180.613 3.40756 -0.0989168 0
M  V30 1936 H 181.806 2.49695 -1.66109 0
M  V30 1937 H 179.359 1.2802 -0.896699 0
M  V30 1938 H 180.094 3.13485 0.830514 0
M  V30 1939 H 179.879 3.83888 -0.798265 0
M  V30 1940 H 181.369 4.17386 0.133524 0
M  V30 1941 N 181.806 0.884767 1.30421 0
M  V30 1942 C 182.736 0.367574 2.30589 0
M  V30 1943 C 183.717 -0.549464 1.60981 0
M  V30 1944 O 184.902 -0.46336 1.88591 0
M  V30 1945 C 182.032 -0.418944 3.44764 0
M  V30 1946 C 180.986 0.406316 4.26067 0
M  V30 1947 C 180.312 -0.506793 5.32293 0
M  V30 1948 C 181.612 1.64832 4.95608 0
M  V30 1949 H 183.306 1.20462 2.74097 0
M  V30 1950 H 180.852 0.580695 1.31772 0
M  V30 1951 H 182.805 -0.791395 4.13902 0
M  V30 1952 H 181.529 -1.28964 3.0006 0
M  V30 1953 H 180.188 0.760903 3.58617 0
M  V30 1954 H 179.836 -1.37519 4.83836 0
M  V30 1955 H 179.536 0.0415828 5.87585 0
M  V30 1956 H 181.06 -0.875764 6.04287 0
M  V30 1957 H 182.474 1.34646 5.57264 0
M  V30 1958 H 180.871 2.13688 5.60765 0
M  V30 1959 H 181.941 2.39284 4.21748 0
M  V30 1960 N 183.284 -1.43765 0.645699 0
M  V30 1961 C 184.214 -2.33471 -0.0370477 0
M  V30 1962 C 185.195 -1.49042 -0.819779 0
M  V30 1963 O 186.38 -1.77726 -0.782758 0
M  V30 1964 C 183.51 -3.32311 -1.0093 0
M  V30 1965 C 182.464 -4.2667 -0.337201 0
M  V30 1966 C 181.79 -5.1549 -1.42037 0
M  V30 1967 C 183.09 -5.16657 0.765706 0
M  V30 1968 H 184.784 -2.90809 0.712069 0
M  V30 1969 H 182.33 -1.39834 0.343876 0
M  V30 1970 H 184.283 -3.9396 -1.49578 0
M  V30 1971 H 183.007 -2.73213 -1.78948 0
M  V30 1972 H 181.666 -3.66374 0.128771 0
M  V30 1973 H 181.314 -4.52735 -2.1918 0
M  V30 1974 H 181.014 -5.79438 -0.975966 0
M  V30 1975 H 182.538 -5.80012 -1.90838 0
M  V30 1976 H 183.952 -5.72158 0.361702 0
M  V30 1977 H 182.349 -5.89286 1.13413 0
M  V30 1978 H 183.419 -4.56796 1.62683 0
M  V30 1979 N 184.763 -0.387143 -1.52771 0
M  V30 1980 C 185.673 0.456442 -2.30117 0
M  V30 1981 C 186.689 1.07342 -1.36944 0
M  V30 1982 O 187.865 1.07971 -1.70013 0
M  V30 1983 C 184.93 1.56957 -3.09136 0
M  V30 1984 C 183.991 0.977916 -4.18014 0
M  V30 1985 C 183.224 2.038 -4.93256 0
M  V30 1986 O 183.447 3.25271 -4.68567 0
M  V30 1987 O 182.381 1.6565 -5.78657 0
M  V30 1988 H 186.207 -0.17359 -3.03203 0
M  V30 1989 H 183.792 -0.150919 -1.48636 0
M  V30 1990 H 185.674 2.21628 -3.58412 0
M  V30 1991 H 184.349 2.18461 -2.38865 0
M  V30 1992 H 183.256 0.294525 -3.72939 0
M  V30 1993 H 184.589 0.407128 -4.90513 0
M  V30 1994 N 186.241 1.57166 -0.116904 0
M  V30 1995 C 187.171 2.18222 0.830759 0
M  V30 1996 C 188.152 1.12167 1.27877 0
M  V30 1997 O 189.337 1.40394 1.34176 0
M  V30 1998 C 186.467 2.77996 2.08172 0
M  V30 1999 C 185.421 3.89614 1.77157 0
M  V30 2000 C 184.747 4.36187 3.09265 0
M  V30 2001 C 186.047 5.1181 1.04151 0
M  V30 2002 H 187.741 2.97664 0.321992 0
M  V30 2003 H 185.287 1.4318 0.153434 0
M  V30 2004 H 187.24 3.19366 2.74924 0
M  V30 2005 H 185.964 1.9584 2.6137 0
M  V30 2006 H 184.623 3.48816 1.12796 0
M  V30 2007 H 184.271 3.50893 3.60393 0
M  V30 2008 H 183.971 5.11455 2.89288 0
M  V30 2009 H 185.495 4.80207 3.77139 0
M  V30 2010 H 186.909 5.50214 1.61052 0
M  V30 2011 H 185.306 5.92648 0.942762 0
M  V30 2012 H 186.376 4.84892 0.0279022 0
M  V30 2013 N 187.719 -0.156864 1.56817 0
M  V30 2014 C 188.629 -1.2136 2.00771 0
M  V30 2015 C 189.645 -1.47598 0.921459 0
M  V30 2016 O 190.821 -1.59462 1.2302 0
M  V30 2017 C 187.886 -2.52943 2.37109 0
M  V30 2018 C 186.947 -2.34439 3.59634 0
M  V30 2019 C 186.18 -3.59748 3.94229 0
M  V30 2020 O 186.403 -4.65526 3.29609 0
M  V30 2021 O 185.337 -3.52998 4.8752 0
M  V30 2022 H 189.163 -0.870468 2.90958 0
M  V30 2023 H 186.748 -0.36484 1.44877 0
M  V30 2024 H 188.63 -3.30538 2.61386 0
M  V30 2025 H 187.305 -2.86806 1.5008 0
M  V30 2026 H 186.212 -1.54828 3.40557 0
M  V30 2027 H 187.545 -2.05496 4.4725 0
M  V30 2028 N 189.197 -1.51736 -0.425897 0
M  V30 2029 C 190.107 -1.76738 -1.54275 0
M  V30 2030 C 191.123 -0.65211 -1.61318 0
M  V30 2031 O 192.299 -0.935654 -1.78346 0
M  V30 2032 C 189.364 -1.89755 -2.90162 0
M  V30 2033 C 188.425 -3.13633 -2.93143 0
M  V30 2034 C 187.658 -3.2602 -4.22548 0
M  V30 2035 O 187.881 -2.44067 -5.15546 0
M  V30 2036 O 186.815 -4.19071 -4.32046 0
M  V30 2037 H 190.641 -2.71502 -1.36089 0
M  V30 2038 H 188.226 -1.36376 -0.610069 0
M  V30 2039 H 190.108 -2.00236 -3.70788 0
M  V30 2040 H 188.783 -0.981785 -3.08452 0
M  V30 2041 H 187.69 -3.08622 -2.11431 0
M  V30 2042 H 189.023 -4.04936 -2.798 0
M  V30 2043 N 190.675 0.682077 -1.42076 0
M  V30 2044 C 192.086 1.26246 -1.37546 0
M  V30 2045 C 192.437 1.96092 -0.0651481 0
M  V30 2046 O 191.562 1.99587 0.836297 0
M  V30 2047 C 192.157 2.29594 -2.49143 0
M  V30 2048 C 190.716 2.83175 -2.47969 0
M  V30 2049 C 189.863 1.57395 -2.28303 0
M  V30 2050 H 192.814 0.475937 -1.51395 0
M  V30 2051 H 192.835 3.11175 -2.18976 0
M  V30 2052 H 192.347 1.78729 -3.44496 0
M  V30 2053 H 190.448 3.3818 -1.56413 0
M  V30 2054 H 190.561 3.32687 -3.44755 0
M  V30 2055 H 188.925 1.83699 -1.76428 0
M  V30 2056 H 189.708 1.08507 -3.25701 0
M  V30 2057 N 192.153 1.28127 0.917671 0
M  V30 2058 C 193.399 1.15223 1.66888 0
M  V30 2059 C 193.732 -0.299293 1.9188 0
M  V30 2060 O 193.007 -1.21805 1.51637 0
M  V30 2061 C 193.29 1.94706 3.02922 0
M  V30 2062 C 193.143 3.47898 2.85109 0
M  V30 2063 C 194.462 1.75939 4.03402 0
M  V30 2064 H 191.581 0.419946 0.605652 0
M  V30 2065 H 194.223 1.57398 1.06423 0
M  V30 2066 H 192.373 1.58864 3.54534 0
M  V30 2067 H 194.045 3.93624 2.40537 0
M  V30 2068 H 192.288 3.7373 2.20246 0
M  V30 2069 H 192.959 3.98765 3.81694 0
M  V30 2070 H 195.435 2.07209 3.60837 0
M  V30 2071 H 194.311 2.33931 4.96556 0
M  V30 2072 H 194.572 0.709877 4.36364 0
M  V30 2073 N 193.631 -1.12557 1.10312 0
M  V30 2074 C 194.579 -2.20325 0.745629 0
M  V30 2075 C 195.573 -1.67429 -0.25763 0
M  V30 2076 O 196.779 -1.79612 -0.118132 0
M  V30 2077 H 193.154 -0.718118 0.223182 0
M  V30 2078 H 195.125 -2.47733 1.66346 0
M  V30 2079 C 193.874 -3.47168 0.192262 0
M  V30 2080 H 193.197 -3.88215 0.955475 0
M  V30 2081 H 194.637 -4.23995 -0.0198274 0
M  V30 2082 C 193.096 -3.19298 -1.07472 0
M  V30 2083 O 193.626 -3.3891 -2.15645 0
M  V30 2084 N 191.832 -2.73113 -0.992847 0
M  V30 2085 H 191.379 -2.57354 -0.112474 0
M  V30 2086 H 191.337 -2.54842 -1.84127 0
M  V30 2087 N 195.109 -0.891671 -1.2995 0
M  V30 2088 C 196.355 -0.514261 -1.96171 0
M  V30 2089 C 196.688 0.935506 -1.70182 0
M  V30 2090 O 195.963 1.66204 -1.01028 0
M  V30 2091 C 196.246 -0.797719 -3.51153 0
M  V30 2092 C 196.099 -2.2986 -3.86632 0
M  V30 2093 C 197.418 -0.278749 -4.39216 0
M  V30 2094 H 194.537 -0.188314 -0.712535 0
M  V30 2095 H 197.179 -1.11689 -1.53706 0
M  V30 2096 H 195.329 -0.284826 -3.87455 0
M  V30 2097 H 197.001 -2.88042 -3.60319 0
M  V30 2098 H 195.244 -2.76257 -3.34462 0
M  V30 2099 H 195.915 -2.44753 -4.94773 0
M  V30 2100 H 198.391 -0.717825 -4.09862 0
M  V30 2101 H 197.267 -0.506353 -5.46559 0
M  V30 2102 H 197.528 0.820266 -4.34424 0
M  V30 2103 N 196.587 1.43421 -0.653314 0
M  V30 2104 C 197.812 2.06678 -0.172846 0
M  V30 2105 C 198.237 1.48648 1.15262 0
M  V30 2106 O 197.595 0.596457 1.71208 0
M  V30 2107 C 197.643 3.60474 -0.0953184 0
M  V30 2108 O 196.747 4.01487 0.942442 0
M  V30 2109 H 196.088 0.657181 -0.0949155 0
M  V30 2110 H 198.618 1.83925 -0.896265 0
M  V30 2111 H 198.628 4.07905 0.0879728 0
M  V30 2112 H 197.303 4.02088 -1.06291 0
M  V30 2113 H 195.88 3.65646 0.731932 0
M  V30 2114 N 198.065 0.39524 1.52563 0
M  V30 2115 C 199.29 -0.187456 2.06551 0
M  V30 2116 C 199.715 -1.39249 1.26457 0
M  V30 2117 O 199.073 -1.78947 0.291151 0
M  V30 2118 C 199.121 -0.529985 3.56684 0
M  V30 2119 O 198.225 -1.62307 3.79118 0
M  V30 2120 H 197.566 -0.0202537 0.663691 0
M  V30 2121 H 200.096 0.564426 1.96661 0
M  V30 2122 H 200.106 -0.792598 4.00227 0
M  V30 2123 H 198.781 0.350987 4.14416 0
M  V30 2124 H 197.358 -1.3537 3.47461 0
M  V30 2125 N 199.544 -1.57102 0.125237 0
M  V30 2126 C 200.494 -2.12202 -0.833936 0
M  V30 2127 C 201.478 -1.04433 -1.22403 0
M  V30 2128 O 202.67 -1.30655 -1.19408 0
M  V30 2129 C 199.799 -2.72994 -2.08157 0
M  V30 2130 C 198.885 -3.87852 -1.71556 0
M  V30 2131 N 199.276 -4.9464 -1.05662 0
M  V30 2132 C 197.574 -3.98153 -2.00973 0
M  V30 2133 C 198.275 -5.74953 -0.883376 0
M  V30 2134 N 197.251 -5.24985 -1.41036 0
M  V30 2135 H 201.053 -2.92141 -0.321035 0
M  V30 2136 H 198.567 -1.62217 -0.0770315 0
M  V30 2137 H 200.564 -3.10816 -2.77847 0
M  V30 2138 H 199.224 -1.9452 -2.59985 0
M  V30 2139 H 200.235 -5.12872 -0.719878 0
M  V30 2140 H 196.912 -3.30728 -2.54804 0
M  V30 2141 H 198.302 -6.70904 -0.365675 0
M  V30 2142 N 201.022 0.148545 -1.56898 0
M  V30 2143 C 202.268 0.862694 -1.83536 0
M  V30 2144 C 202.601 1.80889 -0.706604 0
M  V30 2145 O 201.876 1.92328 0.289885 0
M  V30 2146 C 202.159 1.63853 -3.20662 0
M  V30 2147 C 202.012 0.713925 -4.44098 0
M  V30 2148 C 203.331 2.60133 -3.54991 0
M  V30 2149 H 200.45 0.312179 -0.667618 0
M  V30 2150 H 203.092 0.127953 -1.89569 0
M  V30 2151 H 201.242 2.26489 -3.1565 0
M  V30 2152 H 202.914 0.098686 -4.61194 0
M  V30 2153 H 201.157 0.0234019 -4.33794 0
M  V30 2154 H 201.828 1.29278 -5.36648 0
M  V30 2155 H 204.304 2.07616 -3.60603 0
M  V30 2156 H 203.18 3.11468 -4.51972 0
M  V30 2157 H 203.441 3.41417 -2.80868 0
M  V30 2158 N 202.5 1.5196 0.417844 0
M  V30 2159 C 203.45 1.7106 1.5074 0
M  V30 2160 C 204.434 0.564487 1.50673 0
M  V30 2161 O 205.626 0.821206 1.56797 0
M  V30 2162 C 202.755 1.85677 2.88754 0
M  V30 2163 C 201.841 3.06133 2.93502 0
M  V30 2164 N 202.232 4.28987 2.67962 0
M  V30 2165 C 200.53 3.05787 3.24669 0
M  V30 2166 C 201.231 5.10395 2.79055 0
M  V30 2167 N 200.207 4.45455 3.11561 0
M  V30 2168 H 204.009 2.63696 1.29775 0
M  V30 2169 H 201.523 1.49873 0.625436 0
M  V30 2170 H 203.52 1.97475 3.67164 0
M  V30 2171 H 202.18 0.942348 3.10725 0
M  V30 2172 H 203.191 4.57607 2.4252 0
M  V30 2173 H 199.868 2.2405 3.52289 0
M  V30 2174 H 201.258 6.18247 2.63097 0
M  V30 2175 N 203.978 -0.674533 1.42435 0
M  V30 2176 C 205.206 -1.46283 1.46317 0
M  V30 2177 C 205.621 -1.88653 0.0745836 0
M  V30 2178 O 204.978 -1.58151 -0.91074 0
M  V30 2179 C 205.029 -2.71178 2.3905 0
M  V30 2180 O 204.75 -2.30586 3.72507 0
M  V30 2181 C 206.251 -3.64738 2.51955 0
M  V30 2182 H 203.471 -0.450104 0.497642 0
M  V30 2183 H 206.015 -0.828792 1.86953 0
M  V30 2184 H 204.17 -3.3077 2.01667 0
M  V30 2185 H 204.584 -3.11241 4.22172 0
M  V30 2186 H 206.058 -4.49096 3.20962 0
M  V30 2187 H 206.535 -4.10656 1.55752 0
M  V30 2188 H 207.141 -3.11038 2.90061 0
M  V30 2189 N 205.456 -1.28612 -0.910864 0
M  V30 2190 C 206.702 -1.16106 -1.66274 0
M  V30 2191 C 207.035 0.289113 -1.92036 0
M  V30 2192 O 206.31 1.21 -1.52281 0
M  V30 2193 C 206.593 -1.96309 -3.01885 0
M  V30 2194 C 206.446 -3.49405 -2.8326 0
M  V30 2195 C 207.765 -1.78076 -4.02463 0
M  V30 2196 H 204.884 -0.423152 -0.603417 0
M  V30 2197 H 207.526 -1.57961 -1.05586 0
M  V30 2198 H 205.676 -1.60742 -3.53687 0
M  V30 2199 H 207.348 -3.94894 -2.38446 0
M  V30 2200 H 205.591 -3.74893 -2.18261 0
M  V30 2201 H 206.262 -4.00784 -3.79574 0
M  V30 2202 H 208.738 -2.0912 -3.59733 0
M  V30 2203 H 207.614 -2.36561 -4.95308 0
M  V30 2204 H 207.875 -0.733008 -4.35981 0
M  V30 2205 N 206.934 1.1197 -1.10907 0
M  V30 2206 C 208.162 1.87402 -0.876824 0
M  V30 2207 C 208.577 1.79894 0.573025 0
M  V30 2208 O 207.934 1.17629 1.39534 0
M  V30 2209 C 207.985 3.36428 -1.32282 0
M  V30 2210 O 207.706 3.43765 -2.71582 0
M  V30 2211 C 209.207 4.28783 -1.12518 0
M  V30 2212 H 206.427 0.592793 -0.314384 0
M  V30 2213 H 208.971 1.41649 -1.47499 0
M  V30 2214 H 207.126 3.79706 -0.768229 0
M  V30 2215 H 207.54 4.3652 -2.90776 0
M  V30 2216 H 209.014 5.31613 -1.48633 0
M  V30 2217 H 209.491 4.39153 -0.0642394 0
M  V30 2218 H 210.097 3.91291 -1.66648 0
M  V30 2219 N 208.412 0.89855 1.29475 0
M  V30 2220 C 209.342 0.39201 2.30186 0
M  V30 2221 C 210.323 -0.532359 1.61555 0
M  V30 2222 O 211.508 -0.443331 1.89072 0
M  V30 2223 C 208.638 -0.382353 3.45189 0
M  V30 2224 C 207.592 0.451483 4.25612 0
M  V30 2225 C 206.918 -0.450307 5.328 0
M  V30 2226 C 208.218 1.70079 4.93832 0
M  V30 2227 H 209.912 1.23362 2.72804 0
M  V30 2228 H 207.458 0.594638 1.31149 0
M  V30 2229 H 209.411 -0.747451 4.14718 0
M  V30 2230 H 208.135 -1.25774 3.01411 0
M  V30 2231 H 206.794 0.798897 3.57789 0
M  V30 2232 H 206.442 -1.32379 4.85268 0
M  V30 2233 H 206.142 0.103902 5.87508 0
M  V30 2234 H 207.666 -0.811623 6.05182 0
M  V30 2235 H 209.08 1.40549 5.55805 0
M  V30 2236 H 207.477 2.19623 5.58467 0
M  V30 2237 H 208.547 2.43744 4.19186 0
M  V30 2238 N 209.89 -1.43072 0.660911 0
M  V30 2239 C 211.301 -1.84932 0.256348 0
M  V30 2240 C 211.652 -1.55325 -1.19868 0
M  V30 2241 O 210.777 -1.00607 -1.91591 0
M  V30 2242 C 211.372 -3.35684 0.458475 0
M  V30 2243 C 209.931 -3.76245 0.108161 0
M  V30 2244 C 209.078 -2.66749 0.757641 0
M  V30 2245 H 212.029 -1.33116 0.864051 0
M  V30 2246 H 212.05 -3.79365 -0.293683 0
M  V30 2247 H 211.562 -3.572 1.51755 0
M  V30 2248 H 209.663 -3.60338 -0.948014 0
M  V30 2249 H 209.776 -4.76058 0.538992 0
M  V30 2250 H 208.14 -2.53989 0.190185 0
M  V30 2251 H 208.923 -2.91092 1.81989 0
M  V30 2252 N 211.368 -0.403325 -1.52352 0
M  V30 2253 C 212.779 0.0675782 -1.86578 0
M  V30 2254 C 213.13 1.44941 -1.32236 0
M  V30 2255 O 212.255 2.06112 -0.659307 0
M  V30 2256 C 212.85 0.129404 -3.38553 0
M  V30 2257 C 211.409 0.544629 -3.72439 0
M  V30 2258 C 210.556 -0.284551 -2.75836 0
M  V30 2259 H 213.507 -0.620631 -1.46061 0
M  V30 2260 H 213.528 0.94581 -3.68558 0
M  V30 2261 H 213.04 -0.87645 -3.78074 0
M  V30 2262 H 211.141 1.55734 -3.38493 0
M  V30 2263 H 211.254 0.293046 -4.78203 0
M  V30 2264 H 209.618 0.252258 -2.53448 0
M  V30 2265 H 210.401 -1.28865 -3.18196 0
M  V30 2266 N 212.846 1.57033 -0.133567 0
M  V30 2267 C 213.809 2.14897 0.796995 0
M  V30 2268 C 214.809 1.0874 1.18458 0
M  V30 2269 O 215.999 1.34446 1.1077 0
M  V30 2270 C 213.131 2.70112 2.07973 0
M  V30 2271 H 214.324 2.98457 0.293873 0
M  V30 2272 H 211.877 1.55871 0.115787 0
M  V30 2273 H 212.612 1.9018 2.62682 0
M  V30 2274 H 212.397 3.47764 1.81115 0
M  V30 2275 H 213.887 3.14738 2.74462 0
M  V30 2276 N 214.325 -0.140222 1.56975 0
M  V30 2277 C 215.55 -0.870414 1.88251 0
M  V30 2278 C 215.975 -1.73637 0.723312 0
M  V30 2279 O 215.333 -1.78329 -0.32689 0
M  V30 2280 C 215.381 -1.69737 3.18154 0
M  V30 2281 O 214.485 -2.80229 3.02565 0
M  V30 2282 H 213.826 -0.242025 0.61832 0
M  V30 2283 H 216.356 -0.128999 2.04193 0
M  V30 2284 H 216.366 -2.09099 3.50345 0
M  V30 2285 H 215.041 -1.06152 4.02125 0
M  V30 2286 H 213.618 -2.44224 2.81796 0
M  V30 2287 N 215.803 -1.52179 -0.40978 0
M  V30 2288 C 216.713 -1.78364 -1.52392 0
M  V30 2289 C 217.729 -0.669183 -1.60617 0
M  V30 2290 O 218.905 -0.954518 -1.77344 0
M  V30 2291 C 215.97 -1.92822 -2.88133 0
M  V30 2292 C 215.031 -3.16725 -2.898 0
M  V30 2293 C 214.264 -3.30483 -4.19067 0
M  V30 2294 O 214.487 -2.49522 -5.12928 0
M  V30 2295 O 213.421 -4.2363 -4.27576 0
M  V30 2296 H 217.247 -2.72931 -1.33201 0
M  V30 2297 H 214.832 -1.37016 -0.59557 0
M  V30 2298 H 216.714 -2.04157 -3.68643 0
M  V30 2299 H 215.389 -1.01444 -3.07393 0
M  V30 2300 H 214.296 -3.10848 -2.08146 0
M  V30 2301 H 215.629 -4.07881 -2.75489 0
M  V30 2302 N 217.281 0.66697 -1.42791 0
M  V30 2303 C 218.509 1.45505 -1.47091 0
M  V30 2304 C 218.924 1.8861 -0.0845873 0
M  V30 2305 O 218.281 1.58632 0.90234 0
M  V30 2306 C 218.332 2.69906 -2.40485 0
M  V30 2307 O 218.053 2.28608 -3.73725 0
M  V30 2308 C 219.554 3.63396 -2.53886 0
M  V30 2309 H 216.774 0.447459 -0.500022 0
M  V30 2310 H 219.318 0.818866 -1.8739 0
M  V30 2311 H 217.473 3.29696 -2.03419 0
M  V30 2312 H 217.887 3.08997 -4.23817 0
M  V30 2313 H 219.361 4.47387 -3.2334 0
M  V30 2314 H 219.838 4.09824 -1.57927 0
M  V30 2315 H 220.444 3.09495 -2.91706 0
M  V30 2316 N 218.759 1.29093 0.90403 0
M  V30 2317 C 220.006 1.16813 1.65411 0
M  V30 2318 C 220.334 -0.28128 1.92455 0
M  V30 2319 O 219.589 -1.22006 1.53013 0
M  V30 2320 C 219.888 1.92224 3.01305 0
M  V30 2321 C 219.554 3.41968 2.93885 0
M  V30 2322 C 218.216 3.82807 2.91569 0
M  V30 2323 C 220.568 4.37409 2.83413 0
M  V30 2324 C 217.896 5.1741 2.76594 0
M  V30 2325 C 220.248 5.72097 2.69977 0
M  V30 2326 C 218.912 6.12199 2.66024 0
M  V30 2327 H 218.182 0.42745 0.605283 0
M  V30 2328 H 220.829 1.59981 1.05254 0
M  V30 2329 H 219.134 1.41635 3.65304 0
M  V30 2330 H 220.831 1.80131 3.58265 0
M  V30 2331 H 217.421 3.09504 2.96488 0
M  V30 2332 H 221.605 4.06813 2.84283 0
M  V30 2333 H 216.861 5.47596 2.71935 0
M  V30 2334 H 221.035 6.45704 2.60844 0
M  V30 2335 H 218.662 7.16448 2.54178 0
M  V30 2336 N 220.237 -1.11381 1.11499 0
M  V30 2337 C 221.648 -1.6465 0.880191 0
M  V30 2338 C 221.999 -1.87199 -0.587434 0
M  V30 2339 O 221.124 -1.60667 -1.44966 0
M  V30 2340 C 221.719 -2.99105 1.59128 0
M  V30 2341 C 220.278 -3.49279 1.40289 0
M  V30 2342 C 219.425 -2.24077 1.63354 0
M  V30 2343 H 222.376 -0.950123 1.27116 0
M  V30 2344 H 222.397 -3.66107 1.03664 0
M  V30 2345 H 221.909 -2.82661 2.65941 0
M  V30 2346 H 220.01 -3.70887 0.356888 0
M  V30 2347 H 220.123 -4.2803 2.15238 0
M  V30 2348 H 218.487 -2.31733 1.05698 0
M  V30 2349 H 219.27 -2.10175 2.71443 0
M  V30 2350 N 221.715 -0.905404 -1.28997 0
M  V30 2351 C 223.126 -0.581953 -1.77398 0
M  V30 2352 C 223.477 0.902552 -1.74208 0
M  V30 2353 O 222.602 1.70584 -1.33154 0
M  V30 2354 C 223.197 -1.04961 -3.22131 0
M  V30 2355 C 221.756 -0.777229 -3.68288 0
M  V30 2356 C 220.903 -1.22109 -2.48967 0
M  V30 2357 H 223.854 -1.08754 -1.15578 0
M  V30 2358 H 223.875 -0.387387 -3.78523 0
M  V30 2359 H 223.387 -2.13008 -3.24421 0
M  V30 2360 H 221.488 0.290383 -3.71467 0
M  V30 2361 H 221.601 -1.37911 -4.58822 0
M  V30 2362 H 219.965 -0.639971 -2.46529 0
M  V30 2363 H 220.748 -2.30972 -2.53982 0
M  V30 2364 N 223.193 1.4272 -0.668489 0
M  V30 2365 C 224.441 2.01226 -0.187769 0
M  V30 2366 C 224.762 1.53092 1.2078 0
M  V30 2367 O 224.032 0.74993 1.80977 0
M  V30 2368 H 222.612 0.744041 -0.0664272 0
M  V30 2369 H 225.274 1.74723 -0.863583 0
M  V30 2370 H 224.37 3.11556 -0.184166 0
M  V30 2371 N 224.671 0.411399 1.52136 0
M  V30 2372 C 225.604 -0.457614 2.23565 0
M  V30 2373 C 226.582 -1.04613 1.24478 0
M  V30 2374 O 227.766 -1.09356 1.53536 0
M  V30 2375 C 224.893 -1.6354 2.96602 0
M  V30 2376 C 223.939 -1.17005 4.10137 0
M  V30 2377 S 224.772 -0.13333 5.35334 0
M  V30 2378 C 225.928 -1.31638 6.119 0
M  V30 2379 H 226.161 0.148883 2.96927 0
M  V30 2380 H 223.694 0.195713 1.53155 0
M  V30 2381 H 225.652 -2.31074 3.39286 0
M  V30 2382 H 224.313 -2.21324 2.22878 0
M  V30 2383 H 223.506 -2.05005 4.60422 0
M  V30 2384 H 223.108 -0.573319 3.6958 0
M  V30 2385 H 225.4 -2.23957 6.39413 0
M  V30 2386 H 226.343 -0.854014 7.02931 0
M  V30 2387 H 226.751 -1.54321 5.42997 0
M  V30 2388 N 226.149 -1.5696 0.141893 0
M  V30 2389 C 227.56 -1.82797 -0.379776 0
M  V30 2390 C 227.911 -1.06033 -1.6508 0
M  V30 2391 O 227.036 -0.304011 -2.14254 0
M  V30 2392 C 227.631 -3.31578 -0.695802 0
M  V30 2393 C 226.19 -3.58014 -1.16201 0
M  V30 2394 C 225.337 -2.76699 -0.182455 0
M  V30 2395 H 228.288 -1.54406 0.366675 0
M  V30 2396 H 228.309 -3.47454 -1.55099 0
M  V30 2397 H 227.821 -3.87421 0.229449 0
M  V30 2398 H 225.922 -3.07553 -2.10338 0
M  V30 2399 H 226.035 -4.66501 -1.09151 0
M  V30 2400 H 224.399 -2.45618 -0.674072 0
M  V30 2401 H 225.182 -3.35311 0.736297 0
M  V30 2402 N 227.627 0.131896 -1.57047 0
M  V30 2403 C 228.867 0.847972 -1.85981 0
M  V30 2404 C 229.231 1.77655 -0.7282 0
M  V30 2405 O 230.432 2.53322 -0.898968 0
M  V30 2406 C 228.703 1.58919 -3.20124 0
M  V30 2407 S 230.262 2.34862 -3.70655 0
M  V30 2408 H 227.08 0.283273 -0.652133 0
M  V30 2409 H 229.682 0.107057 -1.95207 0
M  V30 2410 H 228.386 0.898771 -4.00438 0
M  V30 2411 H 227.917 2.37073 -3.13942 0
M  V30 2412 H 229.932 3.60344 -3.41126 0
M  V30 2413 N 229.106 1.52395 0.401703 0
M  V30 2414 C 230.352 1.68019 1.14635 0
M  V30 2415 C 230.707 0.408722 1.88009 0
M  V30 2416 O 230 -0.597133 1.82057 0
M  V30 2417 C 230.194 2.84578 2.16217 0
M  V30 2418 C 230.023 4.22938 1.5282 0
M  V30 2419 C 228.793 4.88352 1.29772 0
M  V30 2420 C 230.991 5.04778 0.985094 0
M  V30 2421 N 228.973 6.10726 0.623455 0
M  V30 2422 C 230.344 6.1845 0.438172 0
M  V30 2423 C 232.399 4.90057 0.880275 0
M  V30 2424 C 231.102 7.19013 -0.203306 0
M  V30 2425 C 233.128 5.9086 0.252639 0
M  V30 2426 C 232.49 7.03829 -0.283573 0
M  V30 2427 H 228.589 0.668413 0.405892 0
M  V30 2428 H 231.173 1.89717 0.437674 0
M  V30 2429 H 229.344 2.64483 2.84435 0
M  V30 2430 H 231.076 2.89202 2.83098 0
M  V30 2431 H 227.831 4.46846 1.56926 0
M  V30 2432 H 228.255 6.76323 0.302733 0
M  V30 2433 H 232.897 4.02938 1.28065 0
M  V30 2434 H 230.615 8.05751 -0.615726 0
M  V30 2435 H 234.201 5.81543 0.172954 0
M  V30 2436 H 233.081 7.80493 -0.761575 0
M  V30 2437 N 230.584 -0.659388 1.43143 0
M  V30 2438 C 231.83 -1.42145 1.44647 0
M  V30 2439 C 232.163 -1.9408 0.0681907 0
M  V30 2440 O 231.438 -1.71899 -0.910007 0
M  V30 2441 C 231.721 -2.60735 2.48373 0
M  V30 2442 C 231.574 -2.14332 3.95451 0
M  V30 2443 C 232.893 -3.62951 2.48906 0
M  V30 2444 H 230.012 -0.51552 0.526696 0
M  V30 2445 H 232.654 -0.748069 1.74654 0
M  V30 2446 H 230.804 -3.18184 2.22916 0
M  V30 2447 H 232.476 -1.61932 4.31944 0
M  V30 2448 H 230.719 -1.4576 4.08578 0
M  V30 2449 H 231.39 -2.99583 4.63631 0
M  V30 2450 H 233.866 -3.1525 2.71582 0
M  V30 2451 H 232.742 -4.43487 3.23435 0
M  V30 2452 H 233.003 -4.15126 1.52061 0
M  V30 2453 N 232.062 -1.29571 -0.897171 0
M  V30 2454 C 233.29 -1.20583 -1.68129 0
M  V30 2455 C 233.705 0.233181 -1.87354 0
M  V30 2456 O 233.062 1.15579 -1.41236 0
M  V30 2457 C 233.113 -1.91772 -3.06441 0
M  V30 2458 O 232.834 -3.30053 -2.88091 0
M  V30 2459 C 234.335 -1.89291 -4.00854 0
M  V30 2460 H 231.555 -0.417826 -0.525036 0
M  V30 2461 H 234.099 -1.70987 -1.12177 0
M  V30 2462 H 232.254 -1.45196 -3.59161 0
M  V30 2463 H 232.668 -3.65942 -3.75748 0
M  V30 2464 H 234.142 -2.43662 -4.95311 0
M  V30 2465 H 234.619 -0.869014 -4.30517 0
M  V30 2466 H 235.225 -2.35622 -3.54066 0
M  V30 2467 N 233.54 1.10788 -1.12088 0
M  V30 2468 C 234.788 1.8231 -0.872205 0
M  V30 2469 C 235.109 1.85419 0.603709 0
M  V30 2470 O 234.379 1.32963 1.43867 0
M  V30 2471 H 232.959 0.675137 -0.319686 0
M  V30 2472 H 235.621 1.34068 -1.41463 0
M  V30 2473 H 234.717 2.85955 -1.25045 0
M  V30 2474 N 235.018 0.912232 1.28515 0
M  V30 2475 C 236.264 0.554851 1.95686 0
M  V30 2476 C 236.619 -0.89138 1.70506 0
M  V30 2477 O 235.912 -1.62529 1.01464 0
M  V30 2478 C 236.106 0.798392 3.48368 0
M  V30 2479 C 235.935 2.26674 3.88393 0
M  V30 2480 C 234.705 2.91657 4.12631 0
M  V30 2481 C 236.903 3.24303 3.99164 0
M  V30 2482 N 234.885 4.28805 4.39317 0
M  V30 2483 C 236.256 4.4661 4.30046 0
M  V30 2484 C 238.311 3.19723 3.81683 0
M  V30 2485 C 237.014 5.64915 4.45268 0
M  V30 2486 C 239.04 4.37325 3.98121 0
M  V30 2487 C 238.402 5.58406 4.29375 0
M  V30 2488 H 234.501 0.252876 0.739985 0
M  V30 2489 H 237.085 1.17565 1.55199 0
M  V30 2490 H 235.256 0.20688 3.87849 0
M  V30 2491 H 236.988 0.405193 4.02666 0
M  V30 2492 H 233.743 2.42393 4.06869 0
M  V30 2493 H 234.167 4.99712 4.56746 0
M  V30 2494 H 238.809 2.27191 3.56573 0
M  V30 2495 H 236.527 6.57927 4.6921 0
M  V30 2496 H 240.113 4.35282 3.86033 0
M  V30 2497 H 238.993 6.47889 4.41825 0
M  V30 2498 N 236.496 -1.42363 0.676048 0
M  V30 2499 C 237.744 -2.01123 0.198437 0
M  V30 2500 C 238.065 -1.53731 -1.19966 0
M  V30 2501 O 237.335 -0.759518 -1.80577 0
M  V30 2502 H 235.915 -0.743678 0.0703721 0
M  V30 2503 H 238.577 -1.74263 0.872837 0
M  V30 2504 H 237.673 -3.11454 0.200686 0
M  V30 2505 N 237.974 -0.419461 -1.51915 0
M  V30 2506 C 239.251 0.211999 -1.94448 0
M  V30 2507 C 239.631 1.61703 -1.35703 0
M  V30 2508 O 238.979 2.22102 -0.536931 0
M  V30 2509 C 239.189 0.207872 -3.4838 0
M  V30 2510 C 240.537 0.422192 -4.22496 0
M  V30 2511 O 241.561 0.286778 -3.55044 0
M  V30 2512 O 240.42 0.690009 -5.42126 0
M  V30 2513 H 237.514 0.139586 -0.815135 0
M  V30 2514 H 240.06 -0.476151 -1.62883 0
M  V30 2515 H 238.832 -0.775102 -3.83546 0
M  V30 2516 H 238.455 0.939688 -3.86336 0
M  V30 2517 N 239.452 1.56882 -0.150215 0
M  V30 2518 C 240.698 1.96518 0.500834 0
M  V30 2519 C 241.031 1.03527 1.64304 0
M  V30 2520 O 240.306 0.0782751 1.94342 0
M  V30 2521 C 240.589 3.45822 1.00395 0
M  V30 2522 C 240.442 4.49591 -0.136983 0
M  V30 2523 C 241.761 3.97704 1.88467 0
M  V30 2524 H 238.88 0.714535 0.18058 0
M  V30 2525 H 241.522 1.88577 -0.232091 0
M  V30 2526 H 239.672 3.5272 1.62851 0
M  V30 2527 H 241.344 4.5477 -0.77343 0
M  V30 2528 H 239.587 4.26441 -0.795652 0
M  V30 2529 H 240.258 5.51402 0.256815 0
M  V30 2530 H 242.734 3.93304 1.35834 0
M  V30 2531 H 241.61 5.0263 2.20578 0
M  V30 2532 H 241.871 3.40252 2.82279 0
M  V30 2533 N 240.93 -0.123565 1.57115 0
M  V30 2534 C 242.207 -0.862196 1.75572 0
M  V30 2535 C 242.587 -1.98279 0.724475 0
M  V30 2536 O 241.935 -2.27102 -0.252407 0
M  V30 2537 C 242.145 -1.38309 3.20424 0
M  V30 2538 C 243.493 -1.83724 3.82793 0
M  V30 2539 O 244.517 -1.47999 3.23998 0
M  V30 2540 O 243.376 -2.49685 4.86127 0
M  V30 2541 H 240.47 -0.409113 0.718718 0
M  V30 2542 H 243.016 -0.107661 1.69358 0
M  V30 2543 H 241.788 -0.578889 3.86994 0
M  V30 2544 H 241.411 -2.20046 3.31158 0
M  V30 2545 N 242.408 -1.52605 -0.393616 0
M  V30 2546 C 243.356 -1.77688 -1.50099 0
M  V30 2547 C 244.35 -0.644615 -1.56656 0
M  V30 2548 O 245.556 -0.826997 -1.59877 0
M  V30 2549 H 241.931 -0.562159 -0.499481 0
M  V30 2550 H 243.902 -2.7043 -1.26135 0
M  V30 2551 C 242.651 -1.95858 -2.87289 0
M  V30 2552 H 241.974 -2.8241 -2.82992 0
M  V30 2553 H 243.414 -2.174 -3.64024 0
M  V30 2554 C 241.873 -0.729848 -3.28899 0
M  V30 2555 O 242.403 0.0949217 -4.01588 0
M  V30 2556 N 240.609 -0.561283 -2.85128 0
M  V30 2557 H 240.156 -1.23357 -2.26143 0
M  V30 2558 H 240.114 0.2595 -3.13327 0
M  V30 2559 N 243.887 0.651787 -1.4349 0
M  V30 2560 C 245.164 1.40909 -1.35661 0
M  V30 2561 C 245.544 2.11099 -0.00511733 0
M  V30 2562 O 244.892 2.04892 1.0115 0
M  V30 2563 C 245.102 2.3926 -2.54078 0
M  V30 2564 C 246.45 3.03217 -2.97228 0
M  V30 2565 O 247.474 2.49588 -2.54135 0
M  V30 2566 O 246.333 4.00455 -3.71885 0
M  V30 2567 H 243.427 0.629625 -0.536191 0
M  V30 2568 H 245.973 0.678575 -1.55542 0
M  V30 2569 H 244.745 1.86352 -3.44076 0
M  V30 2570 H 244.368 3.1976 -2.36303 0
M  V30 2571 N 245.365 1.30045 0.890287 0
M  V30 2572 C 246.275 1.17885 2.02831 0
M  V30 2573 C 247.291 0.0999609 1.73713 0
M  V30 2574 O 248.467 0.313867 1.98939 0
M  V30 2575 C 245.532 0.866079 3.35708 0
M  V30 2576 C 244.593 2.02979 3.78283 0
M  V30 2577 C 243.826 1.73184 5.0482 0
M  V30 2578 O 244.049 0.657237 5.66601 0
M  V30 2579 O 242.983 2.58267 5.43674 0
M  V30 2580 H 246.809 2.13474 2.16015 0
M  V30 2581 H 244.394 1.09587 1.01543 0
M  V30 2582 H 246.276 0.706623 4.15433 0
M  V30 2583 H 244.951 -0.0599443 3.23644 0
M  V30 2584 H 243.858 2.24454 2.99285 0
M  V30 2585 H 245.191 2.93734 3.94944 0
M  V30 2586 N 246.843 -1.10192 1.12674 0
M  V30 2587 C 248.259 -1.34235 0.863317 0
M  V30 2588 C 248.459 -1.95062 -0.505277 0
M  V30 2589 O 247.515 -2.19192 -1.25345 0
M  V30 2590 C 248.828 -2.2616 1.98172 0
M  V30 2591 C 250.376 -2.3969 2.0129 0
M  V30 2592 C 250.851 -3.34946 3.1237 0
M  V30 2593 N 252.342 -3.42515 3.11829 0
M  V30 2594 C 253.077 -4.16199 3.94419 0
M  V30 2595 N 252.573 -4.92747 4.87004 0
M  V30 2596 N 254.366 -4.11843 3.82547 0
M  V30 2597 H 246.517 -0.690798 2.00853 0
M  V30 2598 H 248.78 -0.366774 0.874174 0
M  V30 2599 H 248.486 -1.8868 2.96804 0
M  V30 2600 H 248.36 -3.26488 1.88906 0
M  V30 2601 H 250.747 -2.76438 1.03276 0
M  V30 2602 H 250.828 -1.39169 2.14629 0
M  V30 2603 H 250.472 -2.98923 4.10619 0
M  V30 2604 H 250.402 -4.35353 2.96269 0
M  V30 2605 H 252.893 -2.87926 2.44759 0
M  V30 2606 H 253.206 -5.46376 5.46528 0
M  V30 2607 H 251.551 -4.91862 4.91016 0
M  V30 2608 H 254.742 -3.51136 3.0955 0
M  V30 2609 H 254.915 -4.69007 4.47142 0
M  V30 2610 N 248.321 -0.919034 -1.28029 0
M  V30 2611 C 249.251 -0.428581 -2.29533 0
M  V30 2612 C 250.232 0.50659 -1.62381 0
M  V30 2613 O 251.417 0.413195 -1.89753 0
M  V30 2614 C 248.547 0.327388 -3.45753 0
M  V30 2615 C 247.501 -0.519137 -4.2484 0
M  V30 2616 C 246.827 0.365486 -5.33449 0
M  V30 2617 C 248.127 -1.77914 -4.91064 0
M  V30 2618 H 249.821 -1.27687 -2.70807 0
M  V30 2619 H 247.367 -0.615428 -1.30186 0
M  V30 2620 H 249.32 0.681378 -4.15855 0
M  V30 2621 H 248.044 1.20963 -3.03374 0
M  V30 2622 H 246.703 -0.855717 -3.56473 0
M  V30 2623 H 246.351 1.24642 -4.87312 0
M  V30 2624 H 246.051 -0.197356 -5.87268 0
M  V30 2625 H 247.575 0.715241 -6.06396 0
M  V30 2626 H 248.989 -1.49374 -5.53498 0
M  V30 2627 H 247.386 -2.2848 -5.54903 0
M  V30 2628 H 248.456 -2.50382 -4.15255 0
M  V30 2629 N 249.799 1.42003 -0.683588 0
M  V30 2630 C 251.21 1.84501 -0.285736 0
M  V30 2631 C 251.561 1.57213 1.17382 0
M  V30 2632 O 250.686 1.03642 1.89966 0
M  V30 2633 C 251.281 3.34912 -0.511821 0
M  V30 2634 C 249.84 3.76025 -0.168005 0
M  V30 2635 C 248.987 2.6551 -0.799983 0
M  V30 2636 H 251.938 1.31724 -0.885119 0
M  V30 2637 H 251.959 3.79784 0.233292 0
M  V30 2638 H 251.471 3.54741 -1.57418 0
M  V30 2639 H 249.572 3.61801 0.890567 0
M  V30 2640 H 249.685 4.75141 -0.614661 0
M  V30 2641 H 248.049 2.53654 -0.230568 0
M  V30 2642 H 248.832 2.8816 -1.86597 0
M  V30 2643 N 251.277 0.427512 1.51691 0
M  V30 2644 C 252.688 -0.0378867 1.86662 0
M  V30 2645 C 253.039 -1.42819 1.34525 0
M  V30 2646 O 252.164 -2.05037 0.692014 0
M  V30 2647 C 252.759 -0.0755266 3.38716 0
M  V30 2648 C 251.318 -0.485309 3.73258 0
M  V30 2649 C 250.465 0.328399 2.75349 0
M  V30 2650 H 253.416 0.64379 1.45055 0
M  V30 2651 H 253.437 -0.887056 3.70016 0
M  V30 2652 H 252.949 0.936487 3.76632 0
M  V30 2653 H 251.05 -1.50329 3.40928 0
M  V30 2654 H 251.163 -0.21693 4.78609 0
M  V30 2655 H 249.527 -0.211905 2.53817 0
M  V30 2656 H 250.31 1.3391 3.16106 0
M  V30 2657 N 252.755 -1.56801 0.158532 0
M  V30 2658 C 254.166 -1.83189 -0.360366 0
M  V30 2659 C 254.517 -1.07778 -1.63946 0
M  V30 2660 O 253.642 -0.326718 -2.13919 0
M  V30 2661 C 254.237 -3.32297 -0.660595 0
M  V30 2662 C 252.796 -3.59227 -1.12398 0
M  V30 2663 C 251.943 -2.76877 -0.153097 0
M  V30 2664 H 254.894 -1.54008 0.383031 0
M  V30 2665 H 254.915 -3.4908 -1.51405 0
M  V30 2666 H 254.427 -3.87156 0.270527 0
M  V30 2667 H 252.528 -3.09766 -2.07064 0
M  V30 2668 H 252.641 -4.67632 -1.04197 0
M  V30 2669 H 251.005 -2.46319 -0.647983 0
M  V30 2670 H 251.788 -3.34511 0.77182 0
M  V30 2671 N 254.233 0.115231 -1.57178 0
M  V30 2672 C 255.48 0.822351 -1.8505 0
M  V30 2673 C 255.808 1.79701 -0.744168 0
M  V30 2674 O 255.063 1.93909 0.26414 0
M  V30 2675 C 255.362 1.60324 -3.19423 0
M  V30 2676 C 255.028 0.772536 -4.44233 0
M  V30 2677 C 253.69 0.543468 -4.78121 0
M  V30 2678 C 256.042 0.193746 -5.2084 0
M  V30 2679 C 253.37 -0.274583 -5.86057 0
M  V30 2680 C 255.722 -0.611517 -6.29637 0
M  V30 2681 C 254.386 -0.850867 -6.62055 0
M  V30 2682 H 253.656 0.30092 -0.677147 0
M  V30 2683 H 256.303 0.0845802 -1.91313 0
M  V30 2684 H 254.608 2.41203 -3.08753 0
M  V30 2685 H 256.305 2.1544 -3.38211 0
M  V30 2686 H 252.895 0.96117 -4.17683 0
M  V30 2687 H 257.079 0.357926 -4.95008 0
M  V30 2688 H 252.335 -0.469206 -6.09597 0
M  V30 2689 H 256.509 -1.06697 -6.88178 0
M  V30 2690 H 254.136 -1.48657 -7.45523 0
M  V30 2691 N 255.711 1.52812 0.385517 0
M  V30 2692 C 257.122 1.5993 0.963293 0
M  V30 2693 C 257.473 0.454302 1.90868 0
M  V30 2694 O 256.598 -0.422132 2.12243 0
M  V30 2695 C 257.193 2.89871 1.75387 0
M  V30 2696 C 255.752 2.99389 2.28129 0
M  V30 2697 C 254.899 2.55071 1.08783 0
M  V30 2698 H 257.85 1.5784 0.164948 0
M  V30 2699 H 257.871 2.76553 2.61341 0
M  V30 2700 H 257.383 3.73186 1.06554 0
M  V30 2701 H 255.484 2.20619 3.00263 0
M  V30 2702 H 255.597 4.04096 2.57377 0
M  V30 2703 H 253.961 2.09473 1.4489 0
M  V30 2704 H 254.744 3.40785 0.414807 0
M  V30 2705 N 257.189 -0.644168 1.43834 0
M  V30 2706 C 258.119 -1.76814 1.52509 0
M  V30 2707 C 259.1 -1.65823 0.379052 0
M  V30 2708 O 260.285 -1.84781 0.597466 0
M  V30 2709 C 257.415 -3.15288 1.4564 0
M  V30 2710 C 256.369 -3.41053 2.58586 0
M  V30 2711 C 255.695 -4.79421 2.36769 0
M  V30 2712 C 256.995 -3.34902 4.00797 0
M  V30 2713 H 258.689 -1.69812 2.46586 0
M  V30 2714 H 256.235 -0.815542 1.1868 0
M  V30 2715 H 258.188 -3.93681 1.50311 0
M  V30 2716 H 256.912 -3.23043 0.480725 0
M  V30 2717 H 255.571 -2.65035 2.53282 0
M  V30 2718 H 255.219 -4.83863 1.37424 0
M  V30 2719 H 254.919 -4.9762 3.12487 0
M  V30 2720 H 256.443 -5.6006 2.43238 0
M  V30 2721 H 257.857 -4.03218 4.07539 0
M  V30 2722 H 256.254 -3.64637 4.76613 0
M  V30 2723 H 257.324 -2.32928 4.25291 0
M  V30 2724 N 258.668 -1.30515 -0.883378 0
M  V30 2725 C 259.615 -1.17032 -1.98927 0
M  V30 2726 C 260.585 -0.0594241 -1.65994 0
M  V30 2727 O 261.77 -0.229895 -1.8941 0
M  V30 2728 C 258.91 -0.869777 -3.33959 0
M  V30 2729 C 258.023 -2.06271 -3.79574 0
M  V30 2730 C 257.158 -1.70011 -5.03259 0
M  V30 2731 C 256.197 -2.8579 -5.41286 0
M  V30 2732 N 255.334 -2.49816 -6.56153 0
M  V30 2733 H 260.174 -2.1164 -2.09792 0
M  V30 2734 H 257.711 -1.05296 -1.02719 0
M  V30 2735 H 259.669 -0.676138 -4.11685 0
M  V30 2736 H 258.299 0.0394332 -3.22776 0
M  V30 2737 H 257.351 -2.36755 -2.97744 0
M  V30 2738 H 258.663 -2.92971 -4.03694 0
M  V30 2739 H 257.817 -1.47032 -5.88614 0
M  V30 2740 H 256.556 -0.804829 -4.81013 0
M  V30 2741 H 255.561 -3.09434 -4.54456 0
M  V30 2742 H 256.786 -3.76008 -5.65504 0
M  V30 2743 H 254.732 -1.62795 -6.35479 0
M  V30 2744 H 254.649 -3.30048 -6.8015 0
M  V30 2745 H 255.917 -2.30197 -7.44735 0
M  V30 2746 N 260.146 1.09593 -1.13257 0
M  V30 2747 C 261.078 2.16015 -0.766167 0
M  V30 2748 C 262.091 1.61423 0.211303 0
M  V30 2749 O 263.28 1.78498 -0.00863946 0
M  V30 2750 C 260.38 3.38706 -0.114662 0
M  V30 2751 C 259.553 4.22717 -1.12379 0
M  V30 2752 C 258.612 5.23835 -0.498301 0
M  V30 2753 O 257.638 5.573 -1.15781 0
M  V30 2754 N 258.84 5.75886 0.730417 0
M  V30 2755 H 261.605 2.48055 -1.68193 0
M  V30 2756 H 259.166 1.25292 -1.02535 0
M  V30 2757 H 261.158 4.03464 0.315991 0
M  V30 2758 H 259.728 3.04569 0.704011 0
M  V30 2759 H 258.948 3.54122 -1.73179 0
M  V30 2760 H 260.236 4.75673 -1.80589 0
M  V30 2761 H 259.634 5.50911 1.28504 0
M  V30 2762 H 258.191 6.42387 1.10376 0
M  V30 2763 N 261.624 0.925811 1.2754 0
M  V30 2764 C 262.87 0.566092 1.94739 0
M  V30 2765 C 263.203 -0.890057 1.72603 0
M  V30 2766 O 262.478 -1.63467 1.05399 0
M  V30 2767 C 262.761 0.89054 3.48915 0
M  V30 2768 C 262.614 2.4003 3.80402 0
M  V30 2769 C 263.933 0.395101 4.38323 0
M  V30 2770 H 261.052 0.20714 0.707292 0
M  V30 2771 H 263.694 1.15725 1.50691 0
M  V30 2772 H 261.844 0.387452 3.86563 0
M  V30 2773 H 263.516 2.97494 3.52555 0
M  V30 2774 H 261.759 2.85028 3.2702 0
M  V30 2775 H 262.43 2.57785 4.8811 0
M  V30 2776 H 264.906 0.826241 4.07814 0
M  V30 2777 H 263.782 0.651086 5.45025 0
M  V30 2778 H 264.043 -0.704798 4.36446 0
M  V30 2779 N 263.102 -1.41638 0.69111 0
M  V30 2780 C 264.049 -2.30789 0.0229705 0
M  V30 2781 C 265.019 -1.46863 -0.775911 0
M  V30 2782 O 266.204 -1.75661 -0.74485 0
M  V30 2783 C 263.344 -3.32868 -0.910666 0
M  V30 2784 C 262.457 -4.31875 -0.103874 0
M  V30 2785 C 261.592 -5.21024 -1.03475 0
M  V30 2786 C 260.631 -6.11702 -0.220598 0
M  V30 2787 N 259.768 -6.93349 -1.10504 0
M  V30 2788 H 264.608 -2.87366 0.788978 0
M  V30 2789 H 262.145 -1.41535 0.400794 0
M  V30 2790 H 264.103 -3.90596 -1.46597 0
M  V30 2791 H 262.733 -2.77851 -1.64312 0
M  V30 2792 H 261.785 -3.76131 0.568285 0
M  V30 2793 H 263.097 -4.96003 0.527504 0
M  V30 2794 H 262.251 -5.83565 -1.65943 0
M  V30 2795 H 260.99 -4.57112 -1.69999 0
M  V30 2796 H 259.995 -5.48215 0.417187 0
M  V30 2797 H 261.22 -6.77668 0.440784 0
M  V30 2798 H 259.166 -6.3205 -1.75638 0
M  V30 2799 H 259.083 -7.54146 -0.529125 0
M  V30 2800 H 260.351 -7.60362 -1.71667 0
M  V30 2801 N 264.58 -0.43555 -1.51462 0
M  V30 2802 C 265.826 0.131709 -2.02372 0
M  V30 2803 C 266.159 1.42516 -1.3192 0
M  V30 2804 O 265.434 1.89606 -0.433573 0
M  V30 2805 C 265.717 0.352301 -3.58373 0
M  V30 2806 C 265.57 -0.959676 -4.39443 0
M  V30 2807 C 266.889 1.12286 -4.25535 0
M  V30 2808 H 264.008 0.0463936 -0.735538 0
M  V30 2809 H 266.65 -0.574197 -1.81116 0
M  V30 2810 H 264.8 0.9536 -3.76615 0
M  V30 2811 H 266.472 -1.59482 -4.32855 0
M  V30 2812 H 264.715 -1.56468 -4.04599 0
M  V30 2813 H 265.386 -0.759394 -5.46752 0
M  V30 2814 H 267.862 0.613545 -4.11552 0
M  V30 2815 H 266.738 1.24598 -5.34571 0
M  V30 2816 H 266.999 2.15048 -3.86273 0
M  V30 2817 N 266.058 1.56714 -0.166846 0
M  V30 2818 C 267.469 1.83378 0.350646 0
M  V30 2819 C 267.82 1.08646 1.63372 0
M  V30 2820 O 266.945 0.338058 2.13743 0
M  V30 2821 C 267.54 3.32643 0.642963 0
M  V30 2822 C 266.099 3.59818 1.10491 0
M  V30 2823 C 265.246 2.76954 0.138411 0
M  V30 2824 H 268.197 1.53803 -0.391193 0
M  V30 2825 H 268.218 3.49878 1.49551 0
M  V30 2826 H 267.73 3.87007 -0.291055 0
M  V30 2827 H 265.831 3.1086 2.05418 0
M  V30 2828 H 265.944 4.68178 1.01716 0
M  V30 2829 H 264.308 2.4666 0.634911 0
M  V30 2830 H 265.091 3.34097 -0.789549 0
M  V30 2831 N 267.536 -0.106894 1.57237 0
M  V30 2832 C 268.785 -0.811163 1.8467 0
M  V30 2833 C 269.098 -1.80469 0.754342 0
M  V30 2834 O 270.304 -2.55601 0.915439 0
M  V30 2835 C 268.76 -1.49337 3.27454 0
M  V30 2836 C 268.368 -0.540217 4.44731 0
M  V30 2837 C 270.112 -2.18206 3.64124 0
M  V30 2838 C 268.019 -1.22634 5.78545 0
M  V30 2839 H 266.949 -0.306679 0.688813 0
M  V30 2840 H 269.6 -0.0639887 1.83388 0
M  V30 2841 H 267.982 -2.2876 3.23241 0
M  V30 2842 H 269.156 0.221659 4.60267 0
M  V30 2843 H 267.471 0.042146 4.16379 0
M  V30 2844 H 270.068 -2.70253 4.61376 0
M  V30 2845 H 270.411 -2.96562 2.92158 0
M  V30 2846 H 270.944 -1.45658 3.70174 0
M  V30 2847 H 267.683 -0.483832 6.53712 0
M  V30 2848 H 267.203 -1.95993 5.66874 0
M  V30 2849 H 268.882 -1.75615 6.2271 0
M  V30 2850 N 269.014 -1.53014 -0.377408 0
M  V30 2851 C 269.947 -1.73382 -1.48371 0
M  V30 2852 C 270.925 -0.581879 -1.51832 0
M  V30 2853 O 272.109 -0.81307 -1.70063 0
M  V30 2854 C 269.236 -1.80192 -2.8679 0
M  V30 2855 C 268.282 -3.02056 -3.01105 0
M  V30 2856 S 269.115 -4.61811 -2.71093 0
M  V30 2857 C 270.271 -4.71453 -4.11683 0
M  V30 2858 H 270.504 -2.66946 -1.30872 0
M  V30 2859 H 268.037 -1.43453 -0.571012 0
M  V30 2860 H 269.995 -1.84802 -3.6655 0
M  V30 2861 H 268.656 -0.877008 -3.01608 0
M  V30 2862 H 267.849 -3.03396 -4.02451 0
M  V30 2863 H 267.451 -2.95498 -2.29253 0
M  V30 2864 H 269.743 -4.50781 -5.0577 0
M  V30 2865 H 270.686 -5.73487 -4.15353 0
M  V30 2866 H 271.094 -4.00189 -3.98132 0
M  V30 2867 N 270.492 0.636531 -1.44174 0
M  V30 2868 C 271.402 1.77754 -1.53103 0
M  V30 2869 C 272.418 1.68928 -0.417034 0
M  V30 2870 O 273.594 1.89801 -0.6736 0
M  V30 2871 C 270.659 3.14115 -1.46741 0
M  V30 2872 C 269.72 3.34612 -2.68948 0
M  V30 2873 C 268.953 4.64467 -2.6288 0
M  V30 2874 O 269.176 5.44919 -1.68581 0
M  V30 2875 O 268.11 4.87049 -3.53648 0
M  V30 2876 H 271.936 1.73174 -2.49489 0
M  V30 2877 H 269.521 0.79709 -1.2636 0
M  V30 2878 H 271.403 3.95412 -1.45696 0
M  V30 2879 H 270.078 3.19249 -0.534975 0
M  V30 2880 H 268.985 2.53014 -2.75562 0
M  V30 2881 H 270.318 3.34336 -3.61221 0
M  V30 2882 N 271.97 1.30982 0.876444 0
M  V30 2883 C 272.918 1.18006 2.00443 0
M  V30 2884 C 273.912 0.0898871 1.69161 0
M  V30 2885 O 275.118 0.251333 1.78237 0
M  V30 2886 H 271.493 0.365196 0.65737 0
M  V30 2887 H 273.464 2.13453 2.0852 0
M  V30 2888 C 272.213 0.897521 3.35916 0
M  V30 2889 H 271.536 1.7285 3.60504 0
M  V30 2890 H 272.976 0.846874 4.15456 0
M  V30 2891 C 271.435 -0.399674 3.34521 0
M  V30 2892 O 271.965 -1.41852 3.7582 0
M  V30 2893 N 270.171 -0.413893 2.87637 0
M  V30 2894 H 269.718 0.41571 2.54224 0
M  V30 2895 H 269.676 -1.28175 2.87086 0
M  V30 2896 N 273.449 -1.08991 1.13837 0
M  V30 2897 C 274.399 -2.1393 0.788535 0
M  V30 2898 C 275.383 -1.59396 -0.219516 0
M  V30 2899 O 276.575 -1.76985 -0.0227557 0
M  V30 2900 C 273.704 -3.42305 0.261147 0
M  V30 2901 C 272.79 -4.03736 1.29837 0
M  V30 2902 N 273.181 -4.39659 2.50067 0
M  V30 2903 C 271.479 -4.30993 1.1472 0
M  V30 2904 C 272.18 -4.88113 3.16419 0
M  V30 2905 N 271.156 -4.85846 2.43832 0
M  V30 2906 H 274.958 -2.39516 1.70322 0
M  V30 2907 H 272.472 -1.26263 1.02134 0
M  V30 2908 H 274.469 -4.16899 -0.0077405 0
M  V30 2909 H 273.129 -3.18172 -0.647805 0
M  V30 2910 H 274.14 -4.30878 2.8734 0
M  V30 2911 H 270.817 -4.16444 0.296773 0
M  V30 2912 H 272.207 -5.25336 4.18894 0
M  V30 2913 N 274.927 -0.932562 -1.27047 0
M  V30 2914 C 276.176 -0.571351 -1.93439 0
M  V30 2915 C 276.489 0.892467 -1.74053 0
M  V30 2916 O 277.695 1.36267 -2.34826 0
M  V30 2917 C 276.151 -0.97106 -3.46552 0
M  V30 2918 C 275.759 -2.4559 -3.74686 0
M  V30 2919 C 277.503 -0.681333 -4.18997 0
M  V30 2920 C 275.41 -2.79475 -5.21198 0
M  V30 2921 H 274.34 -0.209966 -0.724176 0
M  V30 2922 H 276.991 -1.13403 -1.44263 0
M  V30 2923 H 275.373 -0.336983 -3.94564 0
M  V30 2924 H 276.547 -3.13829 -3.37414 0
M  V30 2925 H 274.862 -2.71802 -3.15456 0
M  V30 2926 H 277.459 -0.910939 -5.26883 0
M  V30 2927 H 277.802 0.381628 -4.14547 0
M  V30 2928 H 278.335 -1.27473 -3.76823 0
M  V30 2929 H 275.074 -3.847 -5.30741 0
M  V30 2930 H 274.594 -2.1589 -5.596 0
M  V30 2931 H 276.273 -2.67478 -5.89122 0
M  V30 2932 N 276.405 1.4127 -0.698611 0
M  V30 2933 C 277.645 2.03044 -0.235062 0
M  V30 2934 C 278.009 1.54146 1.14468 0
M  V30 2935 O 279.21 2.07867 1.70425 0
M  V30 2936 C 277.481 3.56192 -0.293651 0
M  V30 2937 S 279.04 4.38696 0.0954053 0
M  V30 2938 H 275.858 0.704697 -0.0944648 0
M  V30 2939 H 278.46 1.72656 -0.917064 0
M  V30 2940 H 277.164 3.89274 -1.29977 0
M  V30 2941 H 276.695 3.91285 0.407397 0
M  V30 2942 H 278.71 4.78257 1.3223 0
M  V30 2943 N 277.883 0.443576 1.51229 0
M  V30 2944 C 279.16 -0.181038 1.9476 0
M  V30 2945 C 279.54 -1.59523 1.38259 0
M  V30 2946 O 278.888 -2.2122 0.572198 0
M  V30 2947 C 279.098 -0.152422 3.48667 0
M  V30 2948 C 280.446 -0.354923 4.23114 0
M  V30 2949 O 281.47 -0.230257 3.55455 0
M  V30 2950 O 280.329 -0.603674 5.43156 0
M  V30 2951 H 277.423 -0.1266 0.817252 0
M  V30 2952 H 279.969 0.502004 1.62105 0
M  V30 2953 H 278.741 0.836022 3.82265 0
M  V30 2954 H 278.364 -0.878107 3.87782 0
M  V30 2955 N 279.361 -1.56624 0.175154 0
M  V30 2956 C 280.324 -2.16934 -0.739738 0
M  V30 2957 C 281.324 -1.11842 -1.15533 0
M  V30 2958 O 282.514 -1.37335 -1.07167 0
M  V30 2959 C 279.646 -2.75531 -2.00738 0
M  V30 2960 H 280.839 -2.99131 -0.214639 0
M  V30 2961 H 278.392 -1.56123 -0.0744197 0
M  V30 2962 H 279.127 -1.97078 -2.57548 0
M  V30 2963 H 278.912 -3.52444 -1.71831 0
M  V30 2964 H 280.402 -3.21904 -2.66021 0
M  V30 2965 N 280.839 0.0985539 -1.57292 0
M  V30 2966 C 281.786 1.11981 -2.01814 0
M  V30 2967 C 282.756 1.39999 -0.89384 0
M  V30 2968 O 283.941 1.5152 -1.15958 0
M  V30 2969 C 281.081 2.43577 -2.44467 0
M  V30 2970 C 280.194 2.2232 -3.70402 0
M  V30 2971 C 279.329 3.4729 -4.01949 0
M  V30 2972 C 278.368 3.2128 -5.21005 0
M  V30 2973 N 277.505 4.38507 -5.48321 0
M  V30 2974 H 282.345 0.733149 -2.88841 0
M  V30 2975 H 279.882 0.350482 -1.42864 0
M  V30 2976 H 281.84 3.20373 -2.6724 0
M  V30 2977 H 280.47 2.80097 -1.60455 0
M  V30 2978 H 279.522 1.36343 -3.55126 0
M  V30 2979 H 280.834 1.99089 -4.57345 0
M  V30 2980 H 279.988 4.32495 -4.25479 0
M  V30 2981 H 278.727 3.73572 -3.13521 0
M  V30 2982 H 277.732 2.34468 -4.97298 0
M  V30 2983 H 278.957 2.96348 -6.11028 0
M  V30 2984 H 276.903 4.64871 -4.62851 0
M  V30 2985 H 276.82 4.18455 -6.29628 0
M  V30 2986 H 278.088 5.24787 -5.76385 0
M  V30 2987 N 282.317 1.53212 0.369288 0
M  V30 2988 C 283.547 1.72868 1.13139 0
M  V30 2989 C 283.955 0.455754 1.83629 0
M  V30 2990 O 283.298 -0.580861 1.74275 0
M  V30 2991 C 283.36 2.83667 2.20847 0
M  V30 2992 C 283.024 4.24142 1.70155 0
M  V30 2993 C 284.021 5.06619 1.16763 0
M  V30 2994 C 281.706 4.70539 1.7578 0
M  V30 2995 C 283.7 6.33581 0.696678 0
M  V30 2996 C 281.387 5.97481 1.28297 0
M  V30 2997 C 282.385 6.78833 0.753307 0
M  V30 2998 O 282.073 8.03393 0.285475 0
M  V30 2999 H 281.805 0.581707 0.344373 0
M  V30 3000 H 284.359 2.00736 0.435243 0
M  V30 3001 H 282.589 2.51265 2.93944 0
M  V30 3002 H 284.278 2.91536 2.82421 0
M  V30 3003 H 285.044 4.71948 1.11758 0
M  V30 3004 H 280.923 4.07293 2.15949 0
M  V30 3005 H 284.467 6.97027 0.282581 0
M  V30 3006 H 280.364 6.31651 1.32994 0
M  V30 3007 H 281.132 8.17497 0.405145 0
M  V30 3008 N 283.795 -0.628877 1.44509 0
M  V30 3009 C 284.745 -1.7345 1.47983 0
M  V30 3010 C 285.729 -1.5715 0.345373 0
M  V30 3011 O 286.921 -1.66848 0.590829 0
M  V30 3012 C 284.05 -3.12143 1.42904 0
M  V30 3013 C 283.136 -3.33906 2.61472 0
M  V30 3014 N 283.527 -3.26024 3.86706 0
M  V30 3015 C 281.825 -3.64709 2.56716 0
M  V30 3016 C 282.526 -3.48536 4.65722 0
M  V30 3017 N 281.502 -3.71517 3.96832 0
M  V30 3018 H 285.304 -1.65818 2.42655 0
M  V30 3019 H 282.818 -0.831419 1.39503 0
M  V30 3020 H 284.815 -3.91433 1.43476 0
M  V30 3021 H 283.475 -3.2094 0.492717 0
M  V30 3022 H 284.486 -3.04893 4.18641 0
M  V30 3023 H 281.163 -3.80473 1.71891 0
M  V30 3024 H 282.553 -3.48016 5.74747 0
M  V30 3025 N 285.273 -1.31445 -0.869486 0
M  V30 3026 C 286.203 -1.21727 -1.99261 0
M  V30 3027 C 287.184 -0.104359 -1.6978 0
M  V30 3028 O 288.369 -0.289038 -1.92037 0
M  V30 3029 C 285.499 -0.924317 -3.34774 0
M  V30 3030 C 284.453 -1.99685 -3.78563 0
M  V30 3031 C 283.779 -1.55658 -5.11541 0
M  V30 3032 C 285.079 -3.41003 -3.95619 0
M  V30 3033 H 286.773 -2.1569 -2.07649 0
M  V30 3034 H 284.319 -1.03839 -0.997675 0
M  V30 3035 H 286.272 -0.842934 -4.12883 0
M  V30 3036 H 284.996 0.0509793 -3.2656 0
M  V30 3037 H 283.655 -2.06813 -3.02694 0
M  V30 3038 H 283.303 -0.569132 -4.9977 0
M  V30 3039 H 283.003 -2.27409 -5.41811 0
M  V30 3040 H 284.527 -1.48928 -5.92159 0
M  V30 3041 H 285.941 -3.36547 -4.64122 0
M  V30 3042 H 284.338 -4.10975 -4.37286 0
M  V30 3043 H 285.408 -3.81754 -2.98985 0
M  V30 3044 N 286.751 1.08385 -1.14413 0
M  V30 3045 C 287.999 1.80419 -0.910679 0
M  V30 3046 C 288.32 1.86658 0.564243 0
M  V30 3047 O 287.59 1.35985 1.41014 0
M  V30 3048 H 286.17 0.668204 -0.333934 0
M  V30 3049 H 288.832 1.31037 -1.44275 0
M  V30 3050 H 287.928 2.83238 -1.31082 0
M  V30 3051 N 288.23 0.939286 1.26551 0
M  V30 3052 C 289.193 0.451987 2.24699 0
M  V30 3053 C 290.193 -0.435869 1.5478 0
M  V30 3054 O 291.383 -0.235314 1.72603 0
M  V30 3055 C 288.515 -0.348801 3.39111 0
M  V30 3056 H 289.708 1.3193 2.69322 0
M  V30 3057 H 287.261 0.721072 1.38673 0
M  V30 3058 H 287.996 -1.23444 2.99887 0
M  V30 3059 H 287.781 0.287945 3.91041 0
M  V30 3060 H 289.271 -0.679726 4.12031 0
M  V30 3061 N 289.708 -1.40897 0.706093 0
M  V30 3062 C 290.938 -2.05075 0.250523 0
M  V30 3063 C 291.346 -1.53275 -1.10921 0
M  V30 3064 O 290.689 -0.680281 -1.7064 0
M  V30 3065 C 290.751 -3.59219 0.142178 0
M  V30 3066 C 290.415 -4.33864 1.43566 0
M  V30 3067 C 291.412 -4.62448 2.37566 0
M  V30 3068 C 289.097 -4.72946 1.69195 0
M  V30 3069 C 291.091 -5.29088 3.5545 0
M  V30 3070 C 288.778 -5.3932 2.87362 0
M  V30 3071 C 289.776 -5.6732 3.80312 0
M  V30 3072 O 289.464 -6.32325 4.96408 0
M  V30 3073 H 289.196 -0.666645 0.112074 0
M  V30 3074 H 291.75 -1.81467 0.962239 0
M  V30 3075 H 289.98 -3.81609 -0.6254 0
M  V30 3076 H 291.669 -4.0495 -0.277584 0
M  V30 3077 H 292.435 -4.32727 2.19027 0
M  V30 3078 H 288.314 -4.50527 0.977042 0
M  V30 3079 H 291.858 -5.50859 4.28018 0
M  V30 3080 H 287.755 -5.68461 3.05814 0
M  V30 3081 H 288.523 -6.50821 4.9636 0
M  V30 3082 N 291.186 -0.45159 -1.50991 0
M  V30 3083 C 292.414 0.108334 -2.06616 0
M  V30 3084 C 292.829 1.35224 -1.31757 0
M  V30 3085 O 292.186 1.78475 -0.381174 0
M  V30 3086 C 292.237 0.41619 -3.59096 0
M  V30 3087 O 291.958 -0.778361 -4.3113 0
M  V30 3088 C 293.459 1.02523 -4.31282 0
M  V30 3089 H 290.679 0.00159995 -0.670998 0
M  V30 3090 H 293.223 -0.634771 -1.94399 0
M  V30 3091 H 291.378 1.10921 -3.71181 0
M  V30 3092 H 291.792 -0.511181 -5.22003 0
M  V30 3093 H 293.266 1.19053 -5.39009 0
M  V30 3094 H 293.743 2.01013 -3.905 0
M  V30 3095 H 294.349 0.371173 -4.23677 0
M  V30 3096 N 292.664 1.56529 -0.183458 0
M  V30 3097 C 293.912 1.96855 0.457452 0
M  V30 3098 C 294.233 1.07104 1.62953 0
M  V30 3099 O 293.503 0.139887 1.954 0
M  V30 3100 H 292.083 0.72693 0.171992 0
M  V30 3101 H 294.745 1.93056 -0.267476 0
M  V30 3102 H 293.841 3.01423 0.809368 0
M  V30 3103 N 294.142 -0.090211 1.57342 0
M  V30 3104 C 295.419 -0.824761 1.77361 0
M  V30 3105 C 295.799 -1.96698 0.76637 0
M  V30 3106 O 295.147 -2.27586 -0.204179 0
M  V30 3107 C 295.357 -1.31481 3.23286 0
M  V30 3108 C 296.705 -1.75563 3.86604 0
M  V30 3109 O 297.729 -1.41093 3.27065 0
M  V30 3110 O 296.588 -2.39317 4.91314 0
M  V30 3111 H 293.682 -0.393776 0.727234 0
M  V30 3112 H 296.228 -0.0717138 1.69548 0
M  V30 3113 H 295 -0.496671 3.88135 0
M  V30 3114 H 294.623 -2.12973 3.35751 0
M  V30 3115 N 295.62 -1.53406 -0.361157 0
M  V30 3116 C 296.897 -1.60411 -1.11927 0
M  V30 3117 C 297.277 -0.414385 -2.06993 0
M  V30 3118 O 296.625 0.594976 -2.20618 0
M  V30 3119 C 296.835 -2.95652 -1.85448 0
M  V30 3120 C 298.183 -3.50386 -2.39823 0
M  V30 3121 O 299.207 -2.97711 -1.95568 0
M  V30 3122 O 298.066 -4.42482 -3.20737 0
M  V30 3123 H 295.16 -0.64811 -0.513695 0
M  V30 3124 H 297.706 -1.65749 -0.364065 0
M  V30 3125 H 296.478 -3.73682 -1.16091 0
M  V30 3126 H 296.101 -2.93825 -2.67866 0
M  V30 3127 N 297.098 0.621204 -1.44841 0
M  V30 3128 C 298.344 1.3826 -1.48365 0
M  V30 3129 C 298.677 1.93831 -0.119624 0
M  V30 3130 O 297.952 1.74251 0.864111 0
M  V30 3131 C 298.235 2.54058 -2.55199 0
M  V30 3132 C 298.088 2.03772 -4.00995 0
M  V30 3133 C 299.407 3.56225 -2.58442 0
M  V30 3134 H 296.526 0.501374 -0.540179 0
M  V30 3135 H 299.168 0.7015 -1.76576 0
M  V30 3136 H 297.318 3.12162 -2.31274 0
M  V30 3137 H 298.99 1.50423 -4.36086 0
M  V30 3138 H 297.233 1.34876 -4.12299 0
M  V30 3139 H 297.904 2.87185 -4.71411 0
M  V30 3140 H 300.38 3.07939 -2.79844 0
M  V30 3141 H 299.256 4.34756 -3.3508 0
M  V30 3142 H 299.517 4.10949 -1.63013 0
M  V30 3143 N 298.576 1.31904 0.862503 0
M  V30 3144 C 299.992 1.10724 1.14945 0
M  V30 3145 C 300.192 -0.117421 2.01158 0
M  V30 3146 O 299.248 -0.804595 2.39338 0
M  V30 3147 C 300.561 2.38267 1.83437 0
M  V30 3148 C 302.109 2.43949 1.96106 0
M  V30 3149 C 302.584 3.71394 2.68013 0
M  V30 3150 N 304.075 3.72331 2.75543 0
M  V30 3151 C 304.81 4.67641 3.31812 0
M  V30 3152 N 304.306 5.73313 3.88953 0
M  V30 3153 N 306.099 4.5515 3.29841 0
M  V30 3154 H 298.25 2.10436 0.288191 0
M  V30 3155 H 300.513 0.928705 0.190292 0
M  V30 3156 H 300.219 3.27759 1.27542 0
M  V30 3157 H 300.093 2.48633 2.83657 0
M  V30 3158 H 302.48 1.54922 2.51164 0
M  V30 3159 H 302.561 2.37543 0.949059 0
M  V30 3160 H 302.205 4.60791 2.13621 0
M  V30 3161 H 302.135 3.75069 3.69636 0
M  V30 3162 H 304.626 2.95947 2.34997 0
M  V30 3163 H 304.939 6.42107 4.30022 0
M  V30 3164 H 303.284 5.77077 3.87308 0
M  V30 3165 H 306.475 3.71766 2.84443 0
M  V30 3166 H 306.648 5.29604 3.73394 0
M  V30 3167 N 300.054 -1.07777 1.14986 0
M  V30 3168 C 301.303 -1.79669 0.916617 0
M  V30 3169 C 301.616 -1.87474 -0.557917 0
M  V30 3170 O 302.822 -2.55845 -0.908617 0
M  V30 3171 C 301.278 -3.22848 1.59051 0
M  V30 3172 C 300.886 -3.23257 3.10176 0
M  V30 3173 C 302.63 -3.99379 1.43864 0
M  V30 3174 C 300.537 -4.61063 3.70372 0
M  V30 3175 H 299.467 -0.673349 0.33929 0
M  V30 3176 H 302.118 -1.21003 1.37951 0
M  V30 3177 H 300.5 -3.8168 1.0553 0
M  V30 3178 H 301.674 -2.74095 3.70417 0
M  V30 3179 H 299.989 -2.60222 3.25074 0
M  V30 3180 H 302.586 -5.0122 1.86232 0
M  V30 3181 H 302.929 -4.14511 0.385564 0
M  V30 3182 H 303.462 -3.47032 1.94457 0
M  V30 3183 H 300.201 -4.51135 4.7556 0
M  V30 3184 H 299.721 -5.1048 3.14913 0
M  V30 3185 H 301.4 -5.30034 3.71043 0
M  V30 3186 N 301.532 -0.945985 -1.26051 0
M  V30 3187 C 302.778 -0.597002 -1.93814 0
M  V30 3188 C 303.111 0.862484 -1.73997 0
M  V30 3189 O 302.386 1.61769 -1.07986 0
M  V30 3190 C 302.669 -0.945937 -3.47454 0
M  V30 3191 C 302.522 -2.46052 -3.76535 0
M  V30 3192 C 303.841 -0.464785 -4.37639 0
M  V30 3193 H 300.96 -0.218366 -0.703907 0
M  V30 3194 H 303.602 -1.18107 -1.48831 0
M  V30 3195 H 301.752 -0.448902 -3.85898 0
M  V30 3196 H 303.424 -3.03065 -3.47778 0
M  V30 3197 H 301.667 -2.90194 -3.22444 0
M  V30 3198 H 302.338 -2.65517 -4.83947 0
M  V30 3199 H 304.814 -0.891016 -4.06448 0
M  V30 3200 H 303.69 -0.737712 -5.4392 0
M  V30 3201 H 303.951 0.635274 -4.37512 0
M  V30 3202 N 303.011 1.40521 -0.713556 0
M  V30 3203 C 304.427 1.54839 -0.386907 0
M  V30 3204 C 304.627 1.68532 1.1045 0
M  V30 3205 O 303.683 1.67377 1.89053 0
M  V30 3206 C 304.996 2.77792 -1.15118 0
M  V30 3207 C 306.544 2.91607 -1.13729 0
M  V30 3208 C 307.019 4.1747 -1.88368 0
M  V30 3209 N 308.51 4.24466 -1.85427 0
M  V30 3210 C 309.245 5.20755 -2.40004 0
M  V30 3211 N 308.741 6.22965 -3.03129 0
M  V30 3212 N 310.534 5.1282 -2.30158 0
M  V30 3213 H 302.685 1.29879 -1.68063 0
M  V30 3214 H 304.948 0.627896 -0.710247 0
M  V30 3215 H 304.654 2.73944 -2.20561 0
M  V30 3216 H 304.528 3.6984 -0.741477 0
M  V30 3217 H 306.915 2.94959 -0.0910608 0
M  V30 3218 H 306.996 2.00682 -1.5862 0
M  V30 3219 H 306.64 4.1488 -2.9298 0
M  V30 3220 H 306.57 5.074 -1.40898 0
M  V30 3221 H 309.061 3.51241 -1.3942 0
M  V30 3222 H 309.374 6.92859 -3.42295 0
M  V30 3223 H 307.719 6.23415 -3.07212 0
M  V30 3224 H 310.91 4.31899 -1.80501 0
M  V30 3225 H 311.083 5.87689 -2.72993 0
M  V30 3226 N 304.489 0.459591 1.5075 0
M  V30 3227 C 305.766 -0.160371 1.94941 0
M  V30 3228 C 306.146 -1.58048 1.39943 0
M  V30 3229 O 305.494 -2.206 0.595629 0
M  V30 3230 C 305.704 -0.115432 3.48809 0
M  V30 3231 C 307.052 -0.310026 4.23467 0
M  V30 3232 O 308.076 -0.192543 3.55679 0
M  V30 3233 O 306.935 -0.546031 5.43765 0
M  V30 3234 H 304.029 -0.117925 0.818549 0
M  V30 3235 H 306.575 0.519169 1.61563 0
M  V30 3236 H 305.347 0.87652 3.81357 0
M  V30 3237 H 304.97 -0.836928 3.88692 0
M  V30 3238 N 305.967 -1.56429 0.191757 0
M  V30 3239 C 307.244 -1.89224 -0.495332 0
M  V30 3240 C 307.624 -1.10478 -1.79883 0
M  V30 3241 O 306.972 -0.204852 -2.2758 0
M  V30 3242 C 307.182 -3.41548 -0.717367 0
M  V30 3243 C 308.53 -4.11711 -1.03823 0
M  V30 3244 O 309.554 -3.4698 -0.805204 0
M  V30 3245 O 308.413 -5.2611 -1.47887 0
M  V30 3246 H 305.507 -0.785788 -0.25781 0
M  V30 3247 H 308.053 -1.68111 0.231721 0
M  V30 3248 H 306.825 -3.90772 0.203287 0
M  V30 3249 H 306.448 -3.68342 -1.497 0
M  V30 3250 N 307.445 0.0818655 -1.57387 0
M  V30 3251 C 308.378 1.12986 -1.98266 0
M  V30 3252 C 309.356 1.38123 -0.857954 0
M  V30 3253 O 310.54 1.51663 -1.1194 0
M  V30 3254 C 307.667 2.47632 -2.31076 0
M  V30 3255 C 306.713 2.38693 -3.53452 0
M  V30 3256 S 307.546 1.79071 -5.04672 0
M  V30 3257 C 308.702 3.15316 -5.40673 0
M  V30 3258 H 308.935 0.781435 -2.86846 0
M  V30 3259 H 306.468 0.290034 -1.51651 0
M  V30 3260 H 308.426 3.25089 -2.50654 0
M  V30 3261 H 307.087 2.79638 -1.43043 0
M  V30 3262 H 306.28 3.37964 -3.73893 0
M  V30 3263 H 305.882 1.69369 -3.33452 0
M  V30 3264 H 308.174 4.11613 -5.38127 0
M  V30 3265 H 309.117 2.99664 -6.41566 0
M  V30 3266 H 309.525 3.15457 -4.68132 0
M  V30 3267 N 308.923 1.53595 0.353017 0
M  V30 3268 C 309.853 1.83902 1.43883 0
M  V30 3269 C 310.834 0.693421 1.55324 0
M  V30 3270 O 312.019 0.944452 1.69687 0
M  V30 3271 C 309.149 2.04016 2.8106 0
M  V30 3272 C 308.103 3.19814 2.84434 0
M  V30 3273 C 307.429 3.25244 4.24406 0
M  V30 3274 C 308.729 4.58133 2.50822 0
M  V30 3275 H 310.423 2.74835 1.1877 0
M  V30 3276 H 307.969 1.32242 0.569917 0
M  V30 3277 H 309.922 2.238 3.57059 0
M  V30 3278 H 308.646 1.09804 3.07588 0
M  V30 3279 H 307.305 2.9987 2.10887 0
M  V30 3280 H 306.953 2.28646 4.48029 0
M  V30 3281 H 306.653 4.03054 4.27576 0
M  V30 3282 H 308.177 3.47228 5.0226 0
M  V30 3283 H 309.591 4.77995 3.16534 0
M  V30 3284 H 307.988 5.38276 2.6529 0
M  V30 3285 H 309.058 4.62387 1.46034 0
M  V30 3286 N 310.401 -0.613514 1.45168 0
M  V30 3287 C 311.641 -1.38405 1.5041 0
M  V30 3288 C 312.005 -1.91489 0.139922 0
M  V30 3289 O 313.206 -2.68716 0.067033 0
M  V30 3290 C 311.477 -2.50552 2.5487 0
M  V30 3291 S 313.036 -3.38439 2.79292 0
M  V30 3292 H 309.854 -0.471945 0.531779 0
M  V30 3293 H 312.456 -0.708518 1.82209 0
M  V30 3294 H 311.16 -2.09894 3.52665 0
M  V30 3295 H 310.691 -3.22913 2.24701 0
M  V30 3296 H 312.706 -4.48527 2.12222 0
M  V30 3297 N 311.879 -1.3236 -0.855495 0
M  V30 3298 C 312.842 -1.21164 -1.94556 0
M  V30 3299 C 313.842 -0.134908 -1.60233 0
M  V30 3300 O 315.032 -0.385249 -1.69887 0
M  V30 3301 C 312.164 -0.863192 -3.29791 0
M  V30 3302 H 313.357 -2.18038 -2.05911 0
M  V30 3303 H 310.91 -1.16179 -1.04557 0
M  V30 3304 H 311.645 0.103769 -3.24134 0
M  V30 3305 H 311.43 -1.64166 -3.56078 0
M  V30 3306 H 312.92 -0.809156 -4.09686 0
M  V30 3307 N 313.357 1.07166 -1.15556 0
M  V30 3308 C 314.605 1.79443 -0.929764 0
M  V30 3309 C 314.926 1.87246 0.544414 0
M  V30 3310 O 314.196 1.37473 1.39564 0
M  V30 3311 H 312.776 0.664625 -0.341003 0
M  V30 3312 H 315.438 1.29499 -1.45657 0
M  V30 3313 H 314.534 2.81832 -1.34079 0
M  V30 3314 N 314.835 0.952656 1.25548 0
M  V30 3315 C 315.783 0.462354 2.27958 0
M  V30 3316 C 316.777 -0.46634 1.62855 0
M  V30 3317 O 317.983 -0.343287 1.76696 0
M  V30 3318 H 314.358 0.13101 0.7405 0
M  V30 3319 H 316.329 1.33839 2.66702 0
M  V30 3320 C 315.078 -0.24628 3.46827 0
M  V30 3321 H 314.401 0.459192 3.97154 0
M  V30 3322 H 315.841 -0.553393 4.20373 0
M  V30 3323 C 314.3 -1.4681 3.0323 0
M  V30 3324 O 314.83 -2.56591 3.09069 0
M  V30 3325 N 313.036 -1.32874 2.58443 0
M  V30 3326 H 312.583 -0.435536 2.53891 0
M  V30 3327 H 312.541 -2.14742 2.29637 0
M  V30 3328 N 316.313 -1.40141 0.720998 0
M  V30 3329 C 317.541 -2.05096 0.272656 0
M  V30 3330 C 317.956 -1.54334 -1.0875 0
M  V30 3331 O 317.313 -0.702211 -1.6845 0
M  V30 3332 C 317.364 -3.60636 0.249835 0
M  V30 3333 O 317.085 -4.09526 1.55629 0
M  V30 3334 C 318.586 -4.42772 -0.216396 0
M  V30 3335 H 315.806 -0.659897 0.121558 0
M  V30 3336 H 318.35 -1.79449 0.980723 0
M  V30 3337 H 316.505 -3.85232 -0.409237 0
M  V30 3338 H 316.919 -5.03758 1.4604 0
M  V30 3339 H 318.393 -5.51702 -0.181212 0
M  V30 3340 H 318.87 -4.20756 -1.25941 0
M  V30 3341 H 319.476 -4.23294 0.412596 0
M  V30 3342 N 317.792 -0.46758 -1.50504 0
M  V30 3343 C 319.208 -0.121533 -1.59137 0
M  V30 3344 C 319.408 1.3717 -1.47603 0
M  V30 3345 O 318.464 2.14464 -1.33272 0
M  V30 3346 C 319.777 -0.6686 -2.93173 0
M  V30 3347 C 321.325 -0.631716 -3.06559 0
M  V30 3348 C 321.8 -1.15627 -4.43164 0
M  V30 3349 N 323.291 -1.11553 -4.49567 0
M  V30 3350 C 324.026 -1.49195 -5.5365 0
M  V30 3351 N 323.522 -1.94269 -6.65005 0
M  V30 3352 N 325.315 -1.4082 -5.44175 0
M  V30 3353 H 317.466 -1.4388 -1.56245 0
M  V30 3354 H 319.729 -0.594784 -0.738198 0
M  V30 3355 H 319.435 -1.71453 -3.07078 0
M  V30 3356 H 319.309 -0.11021 -3.77039 0
M  V30 3357 H 321.696 0.405297 -2.92304 0
M  V30 3358 H 321.777 -1.22687 -2.24458 0
M  V30 3359 H 321.421 -2.1919 -4.58168 0
M  V30 3360 H 321.351 -0.537365 -5.23851 0
M  V30 3361 H 323.842 -0.784895 -3.69659 0
M  V30 3362 H 324.155 -2.21148 -7.40482 0
M  V30 3363 H 322.5 -1.98219 -6.66134 0
M  V30 3364 H 325.691 -1.0545 -4.56068 0
M  V30 3365 H 325.864 -1.70481 -6.25172 0
M  V30 3366 N 319.27 1.56325 -0.20005 0
M  V30 3367 C 320.686 1.58839 0.155716 0
M  V30 3368 C 320.886 1.21636 1.60645 0
M  V30 3369 O 319.942 0.941437 2.34293 0
M  V30 3370 C 321.255 3.0032 -0.151124 0
M  V30 3371 C 322.803 3.12866 -0.0916284 0
M  V30 3372 C 323.278 4.56488 -0.371845 0
M  V30 3373 N 324.769 4.62089 -0.320641 0
M  V30 3374 C 325.504 5.71116 -0.511243 0
M  V30 3375 N 325 6.88592 -0.762461 0
M  V30 3376 N 326.793 5.60335 -0.445157 0
M  V30 3377 H 318.944 1.78788 -1.14668 0
M  V30 3378 H 321.207 0.829996 -0.458051 0
M  V30 3379 H 320.913 3.32117 -1.15721 0
M  V30 3380 H 320.787 3.73257 0.543986 0
M  V30 3381 H 323.174 2.80878 0.905065 0
M  V30 3382 H 323.255 2.42304 -0.81989 0
M  V30 3383 H 322.899 4.89189 -1.36588 0
M  V30 3384 H 322.829 5.25246 0.377362 0
M  V30 3385 H 325.32 3.77665 -0.13329 0
M  V30 3386 H 325.633 7.67581 -0.896576 0
M  V30 3387 H 323.978 6.90387 -0.799412 0
M  V30 3388 H 327.169 4.67436 -0.249278 0
M  V30 3389 H 327.342 6.45243 -0.597116 0
M  V30 3390 N 320.748 -0.0735177 1.57428 0
M  V30 3391 C 322.025 -0.805903 1.78226 0
M  V30 3392 C 322.405 -1.95874 0.787189 0
M  V30 3393 O 321.753 -2.2779 -0.180029 0
M  V30 3394 C 321.963 -1.28045 3.24662 0
M  V30 3395 C 323.311 -1.71453 3.88444 0
M  V30 3396 O 324.335 -1.37616 3.28543 0
M  V30 3397 O 323.194 -2.34093 4.93825 0
M  V30 3398 H 320.288 -0.386041 0.73137 0
M  V30 3399 H 322.834 -0.0537269 1.69615 0
M  V30 3400 H 321.606 -0.455476 3.8864 0
M  V30 3401 H 321.229 -2.094 3.37991 0
M  V30 3402 N 322.226 -1.5378 -0.344866 0
M  V30 3403 C 323.451 -1.75211 -1.10977 0
M  V30 3404 C 323.876 -0.48936 -1.81623 0
M  V30 3405 O 323.234 0.557925 -1.72502 0
M  V30 3406 C 323.282 -2.93147 -2.09993 0
M  V30 3407 O 322.386 -2.63203 -3.17487 0
M  V30 3408 H 321.727 -0.581241 -0.321021 0
M  V30 3409 H 324.257 -2.00738 -0.395661 0
M  V30 3410 H 324.267 -3.19898 -2.53237 0
M  V30 3411 H 322.942 -3.84731 -1.5797 0
M  V30 3412 H 321.519 -2.47336 -2.79069 0
M  V30 3413 N 323.704 0.605807 -1.45491 0
M  V30 3414 C 324.944 1.37606 -1.51142 0
M  V30 3415 C 325.308 1.91413 -0.150075 0
M  V30 3416 O 326.509 2.68677 -0.0812828 0
M  V30 3417 C 324.78 2.49197 -2.56195 0
M  V30 3418 S 326.339 3.36953 -2.81083 0
M  V30 3419 H 323.157 0.469118 -0.534275 0
M  V30 3420 H 325.759 0.698845 -1.82583 0
M  V30 3421 H 324.463 2.0802 -3.53773 0
M  V30 3422 H 323.994 3.21717 -2.26411 0
M  V30 3423 H 326.009 4.47395 -2.14598 0
M  V30 3424 N 325.182 1.32811 0.848464 0
M  V30 3425 C 326.114 1.18095 1.96433 0
M  V30 3426 C 327.127 0.114354 1.62398 0
M  V30 3427 O 328.316 0.363892 1.74751 0
M  V30 3428 C 325.416 0.786798 3.2964 0
M  V30 3429 C 324.589 1.943 3.91875 0
M  V30 3430 C 323.648 1.53138 5.03423 0
M  V30 3431 O 322.674 2.24432 5.23086 0
M  V30 3432 N 323.876 0.430915 5.78898 0
M  V30 3433 H 326.641 2.14218 2.09597 0
M  V30 3434 H 324.202 1.2543 1.02367 0
M  V30 3435 H 326.194 0.493715 4.01677 0
M  V30 3436 H 324.764 -0.0834541 3.12489 0
M  V30 3437 H 323.984 2.40224 3.12547 0
M  V30 3438 H 325.272 2.71689 4.30189 0
M  V30 3439 H 324.67 -0.162333 5.65467 0
M  V30 3440 H 323.227 0.197466 6.51501 0
M  V30 3441 N 326.66 -1.06551 1.16123 0
M  V30 3442 C 327.908 -1.78947 0.939267 0
M  V30 3443 C 328.229 -1.87532 -0.534476 0
M  V30 3444 O 327.499 -1.38211 -1.38833 0
M  V30 3445 H 326.079 -0.662807 0.344523 0
M  V30 3446 H 328.741 -1.28725 1.46342 0
M  V30 3447 H 327.837 -2.81117 1.35572 0
M  V30 3448 N 328.138 -0.959301 -1.25041 0
M  V30 3449 C 329.415 -0.533805 -1.88175 0
M  V30 3450 C 329.795 0.988994 -1.865 0
M  V30 3451 O 329.143 1.85677 -1.33177 0
M  V30 3452 C 329.353 -1.11575 -3.30684 0
M  V30 3453 C 330.701 -1.19548 -4.07423 0
M  V30 3454 O 331.725 -1.06765 -3.39823 0
M  V30 3455 O 330.584 -1.39656 -5.28354 0
M  V30 3456 H 327.678 -0.176772 -0.807887 0
M  V30 3457 H 330.224 -1.05303 -1.33076 0
M  V30 3458 H 328.996 -2.15884 -3.26358 0
M  V30 3459 H 328.619 -0.580059 -3.93346 0
M  V30 3460 N 329.616 1.39756 -0.72842 0
M  V30 3461 C 330.841 2.05472 -0.282159 0
M  V30 3462 C 331.266 1.54549 1.07221 0
M  V30 3463 O 330.624 0.686372 1.67805 0
M  V30 3464 C 330.672 3.59462 -0.286264 0
M  V30 3465 O 329.776 4.05918 0.728298 0
M  V30 3466 H 329.117 0.651226 -0.129618 0
M  V30 3467 H 331.647 1.78915 -0.992499 0
M  V30 3468 H 331.657 4.07798 -0.128373 0
M  V30 3469 H 330.332 3.95889 -1.27456 0
M  V30 3470 H 328.909 3.69012 0.537081 0
M  V30 3471 N 331.094 0.475555 1.50254 0
M  V30 3472 C 332.342 -0.077738 2.0195 0
M  V30 3473 C 332.663 -1.39813 1.35931 0
M  V30 3474 O 331.933 -1.89249 0.506123 0
M  V30 3475 H 330.513 -0.031719 0.746326 0
M  V30 3476 H 333.175 0.626995 1.84539 0
M  V30 3477 H 332.271 -0.225995 3.11281 0
M  V30 3478 N 332.573 -1.56217 0.208337 0
M  V30 3479 C 333.821 -1.97558 -0.426076 0
M  V30 3480 C 334.142 -1.09683 -1.61229 0
M  V30 3481 O 333.412 -0.170956 -1.95153 0
M  V30 3482 H 331.992 -0.729575 -0.160405 0
M  V30 3483 H 334.654 -1.92606 0.298155 0
M  V30 3484 H 333.75 -3.02672 -0.761312 0
M  V30 3485 N 334.051 0.0651679 -1.57465 0
M  V30 3486 C 335.462 0.616213 -1.76238 0
M  V30 3487 C 335.813 1.7756 -0.834689 0
M  V30 3488 O 334.938 2.1639 -0.0204156 0
M  V30 3489 C 335.533 1.12462 -3.1959 0
M  V30 3490 C 334.092 1.62147 -3.39684 0
M  V30 3491 C 333.239 0.543739 -2.71917 0
M  V30 3492 H 336.19 -0.161022 -1.57881 0
M  V30 3493 H 336.211 1.99324 -3.24114 0
M  V30 3494 H 335.723 0.280592 -3.87084 0
M  V30 3495 H 333.824 2.48854 -2.77313 0
M  V30 3496 H 333.937 1.69385 -4.48158 0
M  V30 3497 H 332.301 0.990352 -2.34657 0
M  V30 3498 H 333.084 -0.290216 -3.42071 0
M  V30 3499 N 335.529 1.53961 0.336706 0
M  V30 3500 C 336.459 1.85417 1.41925 0
M  V30 3501 C 337.44 0.709856 1.5458 0
M  V30 3502 O 338.625 0.962396 1.68676 0
M  V30 3503 C 335.755 2.06985 2.78881 0
M  V30 3504 C 334.709 3.22813 2.81026 0
M  V30 3505 C 334.035 3.29727 4.20932 0
M  V30 3506 C 335.335 4.60767 2.45949 0
M  V30 3507 H 337.029 2.76079 1.15848 0
M  V30 3508 H 334.575 1.32839 0.555859 0
M  V30 3509 H 336.528 2.27575 3.54665 0
M  V30 3510 H 335.252 1.13061 3.06406 0
M  V30 3511 H 333.911 3.0209 2.07695 0
M  V30 3512 H 333.559 2.33385 4.45579 0
M  V30 3513 H 333.259 4.07566 4.23277 0
M  V30 3514 H 334.783 3.52536 4.98549 0
M  V30 3515 H 336.197 4.81325 3.11446 0
M  V30 3516 H 334.594 5.4106 2.59566 0
M  V30 3517 H 335.664 4.6391 1.41122 0
M  V30 3518 N 337.007 -0.598083 1.45811 0
M  V30 3519 C 338.253 -1.35882 1.50545 0
M  V30 3520 C 338.586 -1.93616 0.150445 0
M  V30 3521 O 337.861 -1.75604 -0.83628 0
M  V30 3522 C 338.144 -2.49966 2.59208 0
M  V30 3523 C 337.997 -1.97367 4.04186 0
M  V30 3524 C 339.316 -3.52068 2.64076 0
M  V30 3525 H 336.435 -0.492717 0.548087 0
M  V30 3526 H 339.077 -0.673319 1.77669 0
M  V30 3527 H 337.227 -3.08443 2.3621 0
M  V30 3528 H 338.899 -1.43466 4.38423 0
M  V30 3529 H 337.142 -1.283 4.14393 0
M  V30 3530 H 337.813 -2.79649 4.75921 0
M  V30 3531 H 340.289 -3.03448 2.84708 0
M  V30 3532 H 339.165 -4.2937 3.41954 0
M  V30 3533 H 339.426 -4.08304 1.69531 0
M  V30 3534 N 338.485 -1.33259 -0.841409 0
M  V30 3535 C 339.725 -1.25902 -1.61022 0
M  V30 3536 C 340.089 0.173325 -1.91216 0
M  V30 3537 O 341.29 0.370824 -2.6623 0
M  V30 3538 C 339.561 -2.10735 -2.88662 0
M  V30 3539 S 341.12 -2.20541 -3.79351 0
M  V30 3540 H 337.938 -0.447958 -0.552137 0
M  V30 3541 H 340.54 -1.68263 -0.995382 0
M  V30 3542 H 339.244 -3.1384 -2.64448 0
M  V30 3543 H 338.775 -1.69201 -3.55154 0
M  V30 3544 H 340.79 -1.36462 -4.77067 0
M  V30 3545 N 339.963 1.05934 -1.16686 0
M  V30 3546 C 340.91 2.13499 -0.876748 0
M  V30 3547 C 341.88 1.65162 0.176299 0
M  V30 3548 O 343.065 1.90757 0.0407143 0
M  V30 3549 C 340.205 3.42912 -0.387967 0
M  V30 3550 C 339.318 4.04964 -1.50426 0
M  V30 3551 C 338.453 5.22266 -0.970125 0
M  V30 3552 C 337.492 5.76309 -2.06238 0
M  V30 3553 N 336.629 6.84922 -1.54356 0
M  V30 3554 H 341.469 2.37654 -1.7979 0
M  V30 3555 H 339.006 1.16598 -0.896843 0
M  V30 3556 H 340.964 4.17111 -0.086186 0
M  V30 3557 H 339.594 3.18963 0.496235 0
M  V30 3558 H 338.646 3.28277 -1.92193 0
M  V30 3559 H 339.958 4.41122 -2.32836 0
M  V30 3560 H 339.112 6.03506 -0.621743 0
M  V30 3561 H 337.851 4.87564 -0.115377 0
M  V30 3562 H 336.856 4.93704 -2.41942 0
M  V30 3563 H 338.081 6.13062 -2.92115 0
M  V30 3564 H 336.027 6.52131 -0.711406 0
M  V30 3565 H 335.944 7.20043 -2.30379 0
M  V30 3566 H 337.212 7.69832 -1.22387 0
M  V30 3567 N 341.441 0.965919 1.2453 0
M  V30 3568 C 342.687 0.62776 1.92839 0
M  V30 3569 C 343.02 -0.834694 1.75347 0
M  V30 3570 O 342.295 -1.60031 1.10546 0
M  V30 3571 C 342.578 1.00109 3.45905 0
M  V30 3572 C 342.431 2.52011 3.72573 0
M  V30 3573 C 343.75 0.53435 4.36844 0
M  V30 3574 H 340.869 0.229537 0.700344 0
M  V30 3575 H 343.511 1.2046 1.46933 0
M  V30 3576 H 341.661 0.510238 3.85135 0
M  V30 3577 H 343.333 3.08559 3.42912 0
M  V30 3578 H 341.576 2.95287 3.17786 0
M  V30 3579 H 342.247 2.73183 4.79661 0
M  V30 3580 H 344.723 0.955565 4.04979 0
M  V30 3581 H 343.599 0.824152 5.42678 0
M  V30 3582 H 343.86 -0.565589 4.38467 0
M  V30 3583 N 342.919 -1.39368 0.735821 0
M  V30 3584 C 343.867 -2.32443 0.0855131 0
M  V30 3585 C 344.861 -1.53104 -0.724954 0
M  V30 3586 O 346.067 -1.68762 -0.626047 0
M  V30 3587 H 342.442 -0.751948 0.00885257 0
M  V30 3588 H 344.413 -2.84916 0.886883 0
M  V30 3589 C 343.162 -3.38206 -0.806983 0
M  V30 3590 H 342.485 -3.99335 -0.19274 0
M  V30 3591 H 343.925 -4.05779 -1.2296 0
M  V30 3592 C 342.384 -2.75321 -1.94165 0
M  V30 3593 O 342.914 -2.63231 -3.03435 0
M  V30 3594 N 341.12 -2.33396 -1.73132 0
M  V30 3595 H 340.667 -2.4343 -0.842596 0
M  V30 3596 H 340.625 -1.91661 -2.49225 0
M  V30 3597 N 344.397 -0.483516 -1.5 0
M  V30 3598 C 345.645 0.067027 -2.01989 0
M  V30 3599 C 345.966 1.3909 -1.36671 0
M  V30 3600 O 345.236 1.88978 -0.516152 0
M  V30 3601 H 343.816 0.0277606 -0.746484 0
M  V30 3602 H 346.478 -0.636773 -1.84204 0
M  V30 3603 H 345.574 0.209484 -3.11396 0
M  V30 3604 N 345.875 1.56104 -0.216619 0
M  V30 3605 C 347.103 2.02563 0.421413 0
M  V30 3606 C 347.518 1.0965 1.53695 0
M  V30 3607 O 346.875 0.10521 1.82196 0
M  V30 3608 C 346.926 3.48584 0.957665 0
M  V30 3609 O 346.647 4.37953 -0.113389 0
M  V30 3610 C 348.148 4.10664 1.66943 0
M  V30 3611 H 345.368 0.662944 0.103665 0
M  V30 3612 H 347.912 2.01793 -0.331629 0
M  V30 3613 H 346.067 3.49985 1.661 0
M  V30 3614 H 346.481 5.23704 0.288932 0
M  V30 3615 H 347.955 5.14622 1.99671 0
M  V30 3616 H 348.432 3.55373 2.58083 0
M  V30 3617 H 349.038 4.13098 1.01142 0
M  V30 3618 N 347.353 -0.0568162 1.57498 0
M  V30 3619 C 348.599 -0.748893 1.89111 0
M  V30 3620 C 348.954 -1.74422 0.81208 0
M  V30 3621 O 348.247 -1.90731 -0.182247 0
M  V30 3622 C 348.441 -1.48359 3.25153 0
M  V30 3623 C 348.27 -0.560924 4.46188 0
M  V30 3624 C 347.04 -0.192264 5.04934 0
M  V30 3625 C 349.238 0.148824 5.14085 0
M  V30 3626 N 347.22 0.734555 6.0949 0
M  V30 3627 C 348.591 0.932286 6.12951 0
M  V30 3628 C 350.646 0.218713 4.97419 0
M  V30 3629 C 349.349 1.77917 6.96949 0
M  V30 3630 C 351.375 1.05262 5.81957 0
M  V30 3631 C 350.737 1.82409 6.80372 0
M  V30 3632 H 346.836 -0.249002 0.741298 0
M  V30 3633 H 349.42 -0.00984926 1.94698 0
M  V30 3634 H 347.591 -2.19326 3.20547 0
M  V30 3635 H 349.323 -2.12586 3.44368 0
M  V30 3636 H 346.078 -0.548421 4.70414 0
M  V30 3637 H 346.502 1.19165 6.6643 0
M  V30 3638 H 351.144 -0.363407 4.21235 0
M  V30 3639 H 348.862 2.3722 7.72497 0
M  V30 3640 H 352.448 1.10987 5.71116 0
M  V30 3641 H 351.328 2.45895 7.44651 0
M  V30 3642 N 348.832 -1.54138 -0.328536 0
M  V30 3643 C 349.762 -1.86167 -1.40939 0
M  V30 3644 C 350.743 -0.718044 -1.54202 0
M  V30 3645 O 351.928 -0.971328 -1.68163 0
M  V30 3646 C 349.058 -2.08461 -2.77779 0
M  V30 3647 C 348.012 -3.24299 -2.7931 0
M  V30 3648 C 347.338 -3.31955 -4.19178 0
M  V30 3649 C 348.638 -4.62065 -2.43502 0
M  V30 3650 H 350.332 -2.76689 -1.14383 0
M  V30 3651 H 347.878 -1.33132 -0.548806 0
M  V30 3652 H 349.831 -2.29453 -3.53454 0
M  V30 3653 H 348.555 -1.14684 -3.05802 0
M  V30 3654 H 347.214 -3.03187 -2.0609 0
M  V30 3655 H 346.862 -2.35745 -4.44335 0
M  V30 3656 H 346.562 -4.09805 -4.2111 0
M  V30 3657 H 348.086 -3.55175 -4.96672 0
M  V30 3658 H 349.5 -4.8297 -3.08889 0
M  V30 3659 H 347.897 -5.42429 -2.56693 0
M  V30 3660 H 348.967 -4.64652 -1.38659 0
M  V30 3661 N 350.31 0.590341 -1.46126 0
M  V30 3662 C 351.242 1.71427 -1.52136 0
M  V30 3663 C 352.255 1.57542 -0.41042 0
M  V30 3664 O 353.444 1.65106 -0.678389 0
M  V30 3665 C 350.544 3.09605 -1.37834 0
M  V30 3666 C 349.717 3.49566 -2.62912 0
M  V30 3667 C 348.776 4.66773 -2.42918 0
M  V30 3668 O 347.802 4.73019 -3.1661 0
M  V30 3669 N 349.004 5.61161 -1.4859 0
M  V30 3670 H 351.769 1.66728 -2.49042 0
M  V30 3671 H 349.33 0.776113 -1.42085 0
M  V30 3672 H 351.322 3.85796 -1.22243 0
M  V30 3673 H 349.892 3.08714 -0.491393 0
M  V30 3674 H 349.112 2.63158 -2.93499 0
M  V30 3675 H 350.4 3.73028 -3.46017 0
M  V30 3676 H 349.798 5.58844 -0.87808 0
M  V30 3677 H 348.355 6.36814 -1.38965 0
M  V30 3678 N 351.788 1.33704 0.83433 0
M  V30 3679 C 352.751 1.24244 1.92603 0
M  V30 3680 C 353.751 0.160383 1.59998 0
M  V30 3681 O 354.941 0.412228 1.69252 0
M  V30 3682 C 352.073 0.91555 3.28376 0
M  V30 3683 H 353.266 2.21287 2.02416 0
M  V30 3684 H 350.819 1.17827 1.02696 0
M  V30 3685 H 351.554 -0.0521886 3.24258 0
M  V30 3686 H 351.339 1.69811 3.53422 0
M  V30 3687 H 352.829 0.874231 4.08347 0
M  V30 3688 N 353.266 -1.05314 1.17247 0
M  V30 3689 C 354.514 -1.77941 0.958194 0
M  V30 3690 C 354.835 -1.88089 -0.514556 0
M  V30 3691 O 354.105 -1.39676 -1.37359 0
M  V30 3692 H 352.685 -0.659116 0.351533 0
M  V30 3693 H 355.347 -1.27166 1.47699 0
M  V30 3694 H 354.443 -2.79663 1.38546 0
M  V30 3695 N 354.744 -0.972509 -1.24016 0
M  V30 3696 C 355.99 -0.637978 -1.92504 0
M  V30 3697 C 356.323 0.825383 -1.75787 0
M  V30 3698 O 355.598 1.59442 -1.11393 0
M  V30 3699 C 355.881 -1.01942 -3.45369 0
M  V30 3700 C 355.734 -2.53983 -3.71231 0
M  V30 3701 C 357.053 -0.55751 -4.36555 0
M  V30 3702 H 354.172 -0.233248 -0.699117 0
M  V30 3703 H 356.814 -1.21238 -1.46292 0
M  V30 3704 H 354.964 -0.530656 -3.84859 0
M  V30 3705 H 356.636 -3.10374 -3.41271 0
M  V30 3706 H 354.879 -2.96968 -3.16216 0
M  V30 3707 H 355.55 -2.75723 -4.78206 0
M  V30 3708 H 358.026 -0.977029 -4.04467 0
M  V30 3709 H 356.902 -0.85292 -5.42233 0
M  V30 3710 H 357.163 0.542328 -4.38761 0
M  V30 3711 N 356.222 1.38976 -0.743202 0
M  V30 3712 C 357.468 2.0064 -0.295189 0
M  V30 3713 C 357.801 1.5885 1.11716 0
M  V30 3714 O 357.076 0.821181 1.76315 0
M  V30 3715 C 357.359 3.578 -0.406318 0
M  V30 3716 C 357.212 4.09586 -1.85903 0
M  V30 3717 C 358.531 4.39616 0.206439 0
M  V30 3718 H 355.65 0.728935 -0.108733 0
M  V30 3719 H 358.292 1.65067 -0.940897 0
M  V30 3720 H 356.442 3.88235 0.143419 0
M  V30 3721 H 358.114 3.89837 -2.46627 0
M  V30 3722 H 356.357 3.6284 -2.3776 0
M  V30 3723 H 357.028 5.18708 -1.888 0
M  V30 3724 H 359.504 4.15273 -0.262283 0
M  V30 3725 H 358.38 5.48812 0.0983819 0
M  V30 3726 H 358.641 4.22754 1.2935 0
M  V30 3727 N 357.7 0.491464 1.49741 0
M  V30 3728 C 358.925 -0.0557177 2.07325 0
M  V30 3729 C 359.35 -1.30925 1.35056 0
M  V30 3730 O 358.708 -1.76733 0.404365 0
M  V30 3731 C 358.756 -0.302074 3.59333 0
M  V30 3732 O 357.86 -1.37868 3.88672 0
M  V30 3733 H 357.201 0.0219956 0.663636 0
M  V30 3734 H 359.731 0.688352 1.92673 0
M  V30 3735 H 359.741 -0.536464 4.04458 0
M  V30 3736 H 358.416 0.61383 4.11345 0
M  V30 3737 H 356.993 -1.12999 3.55367 0
M  V30 3738 N 359.178 -1.55987 0.224894 0
M  V30 3739 C 360.424 -1.99433 -0.39973 0
M  V30 3740 C 360.779 -1.11004 -1.57149 0
M  V30 3741 O 360.072 -0.160725 -1.90925 0
M  V30 3742 C 360.266 -3.46394 -0.880106 0
M  V30 3743 C 360.095 -4.4904 0.243565 0
M  V30 3744 C 358.865 -5.00272 0.711056 0
M  V30 3745 C 361.063 -5.03195 1.06299 0
M  V30 3746 N 359.045 -5.86628 1.80944 0
M  V30 3747 C 360.416 -5.86508 2.01017 0
M  V30 3748 C 362.471 -4.8555 1.10205 0
M  V30 3749 C 361.174 -6.54062 2.99324 0
M  V30 3750 C 363.2 -5.53866 2.07332 0
M  V30 3751 C 362.562 -6.3695 3.00789 0
M  V30 3752 H 358.661 -0.773815 -0.112847 0
M  V30 3753 H 361.245 -1.91754 0.337432 0
M  V30 3754 H 359.416 -3.54515 -1.58662 0
M  V30 3755 H 361.148 -3.76752 -1.47783 0
M  V30 3756 H 357.903 -4.72655 0.29906 0
M  V30 3757 H 358.327 -6.34507 2.36073 0
M  V30 3758 H 362.969 -4.20966 0.39343 0
M  V30 3759 H 360.687 -7.17827 3.71147 0
M  V30 3760 H 364.273 -5.42178 2.11032 0
M  V30 3761 H 363.153 -6.8888 3.74718 0
M  V30 3762 N 360.656 0.0484629 -1.57525 0
M  V30 3763 C 361.904 0.741657 -1.88 0
M  V30 3764 C 362.225 1.76918 -0.820054 0
M  V30 3765 O 361.495 1.95335 0.148661 0
M  V30 3766 H 360.075 0.276908 -0.69378 0
M  V30 3767 H 362.737 0.019013 -1.94891 0
M  V30 3768 H 361.833 1.24336 -2.86264 0
M  V30 3769 N 362.134 1.5431 0.320358 0
M  V30 3770 C 363.044 1.86946 1.41734 0
M  V30 3771 C 364.06 0.761689 1.56443 0
M  V30 3772 O 365.236 1.05629 1.71477 0
M  V30 3773 C 362.301 2.09293 2.76401 0
M  V30 3774 C 361.362 3.33082 2.70841 0
M  V30 3775 C 360.595 3.54353 3.99086 0
M  V30 3776 O 360.818 2.79002 4.97508 0
M  V30 3777 O 359.752 4.47838 4.0215 0
M  V30 3778 H 363.578 2.80232 1.17062 0
M  V30 3779 H 361.163 1.40255 0.514673 0
M  V30 3780 H 363.045 2.25303 3.56113 0
M  V30 3781 H 361.72 1.19194 3.00956 0
M  V30 3782 H 360.627 3.22454 1.89668 0
M  V30 3783 H 361.96 4.23249 2.5124 0
M  V30 3784 N 363.613 -0.582584 1.46437 0
M  V30 3785 C 364.861 -1.33814 1.51453 0
M  V30 3786 C 365.182 -1.94277 0.167792 0
M  V30 3787 O 364.452 -1.78566 -0.805677 0
M  V30 3788 H 363.032 -0.496838 0.557818 0
M  V30 3789 H 365.694 -0.682281 1.82568 0
M  V30 3790 H 364.79 -2.14479 2.26728 0
M  V30 3791 N 365.091 -1.34144 -0.827227 0
M  V30 3792 C 366.331 -1.27603 -1.59677 0
M  V30 3793 C 366.695 0.153035 -1.91389 0
M  V30 3794 O 367.896 0.342566 -2.66608 0
M  V30 3795 C 366.167 -2.13784 -2.86411 0
M  V30 3796 S 367.726 -2.24552 -3.76991 0
M  V30 3797 H 364.544 -0.453789 -0.547354 0
M  V30 3798 H 367.146 -1.69309 -0.977479 0
M  V30 3799 H 365.85 -3.16627 -2.61104 0
M  V30 3800 H 365.381 -1.72959 -3.5334 0
M  V30 3801 H 367.396 -1.41514 -4.75593 0
M  V30 3802 N 366.569 1.04691 -1.17803 0
M  V30 3803 C 367.532 2.10724 -0.901545 0
M  V30 3804 C 368.532 1.6042 0.110437 0
M  V30 3805 O 369.722 1.7377 -0.122303 0
M  V30 3806 C 366.854 3.39084 -0.351409 0
M  V30 3807 H 368.047 2.36686 -1.84174 0
M  V30 3808 H 365.6 1.21015 -0.98919 0
M  V30 3809 H 366.335 3.18782 0.59569 0
M  V30 3810 H 366.12 3.76909 -1.08083 0
M  V30 3811 H 367.61 4.17227 -0.176451 0
M  V30 3812 N 368.047 0.979072 1.23499 0
M  V30 3813 C 368.979 0.476271 2.24197 0
M  V30 3814 C 369.992 -0.421166 1.57258 0
M  V30 3815 O 371.181 -0.225515 1.7707 0
M  V30 3816 C 368.281 -0.330503 3.37285 0
M  V30 3817 C 367.454 0.559744 4.33804 0
M  V30 3818 C 366.513 -0.192954 5.25846 0
M  V30 3819 O 365.539 0.416978 5.67671 0
M  V30 3820 N 366.741 -1.47932 5.61334 0
M  V30 3821 H 369.506 1.34211 2.67969 0
M  V30 3822 H 367.067 0.852189 1.37657 0
M  V30 3823 H 369.059 -0.842361 3.95836 0
M  V30 3824 H 367.629 -1.09734 2.92707 0
M  V30 3825 H 366.849 1.25245 3.73775 0
M  V30 3826 H 368.137 1.1665 4.95248 0
M  V30 3827 H 367.535 -1.9964 5.29302 0
M  V30 3828 H 366.092 -1.93664 6.22364 0
M  V30 3829 N 369.525 -1.3858 0.750561 0
M  V30 3830 C 370.936 -1.82927 0.373438 0
M  V30 3831 C 371.287 -1.62634 -1.09748 0
M  V30 3832 O 370.412 -1.12588 -1.84805 0
M  V30 3833 C 371.007 -3.32088 0.671029 0
M  V30 3834 C 369.566 -3.74795 0.34722 0
M  V30 3835 C 368.713 -2.61391 0.92575 0
M  V30 3836 H 371.664 -1.27351 0.946958 0
M  V30 3837 H 371.685 -3.80465 -0.0518269 0
M  V30 3838 H 371.197 -3.46826 1.74164 0
M  V30 3839 H 369.298 -3.65638 -0.716933 0
M  V30 3840 H 369.411 -4.71667 0.840656 0
M  V30 3841 H 367.775 -2.52265 0.351327 0
M  V30 3842 H 368.558 -2.78929 2.00133 0
M  V30 3843 N 371.003 -0.499398 -1.49478 0
M  V30 3844 C 371.951 0.293604 -2.3074 0
M  V30 3845 C 372.945 0.96427 -1.39277 0
M  V30 3846 O 374.151 0.892141 -1.56336 0
M  V30 3847 H 370.526 0.113541 -0.743379 0
M  V30 3848 H 372.497 -0.411772 -2.95545 0
M  V30 3849 C 371.246 1.3462 -3.20582 0
M  V30 3850 H 370.569 0.83954 -3.90886 0
M  V30 3851 H 372.009 1.87308 -3.80384 0
M  V30 3852 C 370.468 2.36351 -2.40083 0
M  V30 3853 O 370.998 3.422 -2.10385 0
M  V30 3854 N 369.204 2.0878 -2.02137 0
M  V30 3855 H 368.751 1.22723 -2.26488 0
M  V30 3856 H 368.709 2.77075 -1.48583 0
M  V30 3857 N 372.481 1.55866 -0.233164 0
M  V30 3858 C 373.897 1.59133 0.121988 0
M  V30 3859 C 374.097 1.25016 1.58029 0
M  V30 3860 O 373.153 0.990922 2.32243 0
M  V30 3861 C 374.466 2.99932 -0.214792 0
M  V30 3862 C 376.014 3.12601 -0.157971 0
M  V30 3863 C 376.489 4.55597 -0.46859 0
M  V30 3864 N 377.98 4.61305 -0.418585 0
M  V30 3865 C 378.715 5.69903 -0.63227 0
M  V30 3866 N 378.211 6.86819 -0.90835 0
M  V30 3867 N 380.004 5.59264 -0.563913 0
M  V30 3868 H 372.155 1.76315 -1.18434 0
M  V30 3869 H 374.418 0.820093 -0.475553 0
M  V30 3870 H 374.124 3.29588 -1.22739 0
M  V30 3871 H 373.998 3.74327 0.464691 0
M  V30 3872 H 376.385 2.82735 0.845283 0
M  V30 3873 H 376.466 2.40511 -0.871102 0
M  V30 3874 H 376.11 4.86182 -1.46934 0
M  V30 3875 H 376.04 5.25928 0.265865 0
M  V30 3876 H 378.531 3.77297 -0.213368 0
M  V30 3877 H 378.844 7.65507 -1.05919 0
M  V30 3878 H 377.189 6.88536 -0.945673 0
M  V30 3879 H 380.38 4.66802 -0.348372 0
M  V30 3880 H 380.553 6.43831 -0.733847 0
M  V30 3881 N 373.959 -0.0401083 1.57549 0
M  V30 3882 C 375.37 -0.588097 1.77196 0
M  V30 3883 C 375.721 -1.76209 0.862832 0
M  V30 3884 O 374.846 -2.16331 0.0548389 0
M  V30 3885 C 375.441 -1.07363 3.21339 0
M  V30 3886 C 374 -1.56723 3.42221 0
M  V30 3887 C 373.147 -0.50041 2.72747 0
M  V30 3888 H 376.098 0.186119 1.57605 0
M  V30 3889 H 376.119 -1.94143 3.27244 0
M  V30 3890 H 375.631 -0.218975 3.87482 0
M  V30 3891 H 373.732 -2.4441 2.81237 0
M  V30 3892 H 373.845 -1.62234 4.50796 0
M  V30 3893 H 372.209 -0.952894 2.36203 0
M  V30 3894 H 372.992 0.344599 3.41566 0
M  V30 3895 N 375.437 -1.54477 -0.31217 0
M  V30 3896 C 376.685 -1.72884 -1.04668 0
M  V30 3897 C 377.006 -0.511477 -1.88173 0
M  V30 3898 O 376.276 0.474407 -1.90069 0
M  V30 3899 H 374.856 -0.637461 -0.389425 0
M  V30 3900 H 377.518 -1.91807 -0.345852 0
M  V30 3901 H 376.614 -2.61334 -1.70619 0
M  V30 3902 N 376.915 0.57481 -1.46744 0
M  V30 3903 C 378.164 1.32898 -1.51727 0
M  V30 3904 C 378.477 1.948 -0.176692 0
M  V30 3905 O 379.683 2.71299 -0.104385 0
M  V30 3906 C 378.139 2.40901 -2.67385 0
M  V30 3907 C 377.747 1.85266 -4.07898 0
M  V30 3908 C 379.491 3.17609 -2.81646 0
M  V30 3909 C 377.398 2.90945 -5.14883 0
M  V30 3910 H 376.328 0.499631 -0.564699 0
M  V30 3911 H 378.979 0.612536 -1.72975 0
M  V30 3912 H 377.361 3.15379 -2.39483 0
M  V30 3913 H 378.535 1.17278 -4.45626 0
M  V30 3914 H 376.85 1.21199 -3.98371 0
M  V30 3915 H 379.447 3.96493 -3.58744 0
M  V30 3916 H 379.79 3.70696 -1.89448 0
M  V30 3917 H 380.323 2.50239 -3.09233 0
M  V30 3918 H 377.062 2.42736 -6.089 0
M  V30 3919 H 376.582 3.57398 -4.81691 0
M  V30 3920 H 378.261 3.54755 -5.41071 0
M  V30 3921 N 378.394 1.34581 0.820102 0
M  V30 3922 C 379.624 1.29991 1.6058 0
M  V30 3923 C 380.032 -0.127588 1.88769 0
M  V30 3924 O 379.375 -1.08595 1.48165 0
M  V30 3925 C 379.437 2.02548 2.9701 0
M  V30 3926 C 379.101 3.51794 2.91701 0
M  V30 3927 C 380.098 4.46647 2.66087 0
M  V30 3928 C 377.783 3.94249 3.11245 0
M  V30 3929 C 379.777 5.81929 2.60071 0
M  V30 3930 C 377.464 5.2963 3.04853 0
M  V30 3931 C 378.462 6.23282 2.793 0
M  V30 3932 O 378.15 7.56181 2.72847 0
M  V30 3933 H 377.882 0.448539 0.505756 0
M  V30 3934 H 380.436 1.77811 1.02822 0
M  V30 3935 H 378.666 1.49345 3.56697 0
M  V30 3936 H 380.355 1.91211 3.58041 0
M  V30 3937 H 381.121 4.15168 2.5072 0
M  V30 3938 H 377 3.21749 3.30149 0
M  V30 3939 H 380.544 6.54999 2.40046 0
M  V30 3940 H 376.441 5.60727 3.19774 0
M  V30 3941 H 377.209 7.6595 2.88553 0
M  V30 3942 N 379.872 -1.04064 1.18357 0
M  V30 3943 C 381.1 -1.80916 1.00384 0
M  V30 3944 C 381.515 -1.83414 -0.447738 0
M  V30 3945 O 380.872 -1.26962 -1.31099 0
M  V30 3946 C 380.923 -3.26516 1.55144 0
M  V30 3947 O 380.644 -3.2424 2.94618 0
M  V30 3948 C 382.145 -4.20013 1.41789 0
M  V30 3949 H 379.365 -0.569728 0.354474 0
M  V30 3950 H 381.909 -1.31151 1.56906 0
M  V30 3951 H 380.064 -3.73512 1.02798 0
M  V30 3952 H 380.478 -4.15452 3.20156 0
M  V30 3953 H 381.952 -5.20111 1.84901 0
M  V30 3954 H 382.429 -4.37667 0.36661 0
M  V30 3955 H 383.035 -3.78881 1.93207 0
M  V30 3956 N 381.35 -0.985608 -1.22978 0
M  V30 3957 C 382.766 -0.695104 -1.43668 0
M  V30 3958 C 382.966 0.736866 -1.87543 0
M  V30 3959 O 382.022 1.50868 -2.02473 0
M  V30 3960 C 383.335 -1.69447 -2.48412 0
M  V30 3961 C 384.883 -1.70909 -2.62219 0
M  V30 3962 C 385.358 -2.6969 -3.70178 0
M  V30 3963 N 386.849 -2.6824 -3.77626 0
M  V30 3964 C 387.584 -3.41339 -4.60733 0
M  V30 3965 N 387.08 -4.24015 -5.4789 0
M  V30 3966 N 388.873 -3.30079 -4.54977 0
M  V30 3967 H 381.024 -1.91054 -0.928016 0
M  V30 3968 H 383.287 -0.823553 -0.469536 0
M  V30 3969 H 382.993 -2.7188 -2.23102 0
M  V30 3970 H 382.867 -1.48147 -3.46889 0
M  V30 3971 H 385.254 -0.691785 -2.86877 0
M  V30 3972 H 385.335 -1.96276 -1.6404 0
M  V30 3973 H 384.979 -3.71566 -3.46268 0
M  V30 3974 H 384.909 -2.41595 -4.67909 0
M  V30 3975 H 387.4 -2.08243 -3.15346 0
M  V30 3976 H 387.713 -4.76636 -6.08308 0
M  V30 3977 H 386.058 -4.28104 -5.47496 0
M  V30 3978 H 389.249 -2.64937 -3.85909 0
M  V30 3979 H 389.422 -3.87308 -5.19516 0
M  V30 3980 N 382.828 1.3818 -0.7579 0
M  V30 3981 C 384.074 2.00316 -0.316453 0
M  V30 3982 C 384.407 1.60026 1.10025 0
M  V30 3983 O 383.682 0.839835 1.75434 0
M  V30 3984 C 383.965 3.57349 -0.444245 0
M  V30 3985 C 383.818 4.07591 -1.90236 0
M  V30 3986 C 385.137 4.3981 0.1598 0
M  V30 3987 H 382.256 0.727741 -0.116459 0
M  V30 3988 H 384.898 1.6406 -0.958352 0
M  V30 3989 H 383.048 3.88365 0.102233 0
M  V30 3990 H 384.72 3.87199 -2.50748 0
M  V30 3991 H 382.963 3.60297 -2.41595 0
M  V30 3992 H 383.634 5.16677 -1.94291 0
M  V30 3993 H 386.11 4.14971 -0.306314 0
M  V30 3994 H 384.986 5.48885 0.0401675 0
M  V30 3995 H 385.247 4.24102 1.24859 0
M  V30 3996 N 384.306 0.507319 1.49211 0
M  V30 3997 C 385.534 -0.0315749 2.06876 0
M  V30 3998 C 385.949 -1.30241 1.36685 0
M  V30 3999 O 385.306 -1.76937 0.447152 0
M  V30 4000 C 385.357 -0.282627 3.60393 0
M  V30 4001 O 385.078 0.937835 4.27944 0
M  V30 4002 C 386.579 -0.864453 4.3479 0
M  V30 4003 H 383.799 0.0233048 0.670595 0
M  V30 4004 H 386.343 0.706484 1.91909 0
M  V30 4005 H 384.498 -0.97068 3.75042 0
M  V30 4006 H 384.912 0.704567 5.19746 0
M  V30 4007 H 386.386 -0.989664 5.43056 0
M  V30 4008 H 386.863 -1.86382 3.97692 0
M  V30 4009 H 387.469 -0.213672 4.24763 0
M  V30 4010 N 385.784 -1.5574 0.241426 0
M  V30 4011 C 387.014 -2.02913 -0.38857 0
M  V30 4012 C 387.422 -1.12014 -1.52478 0
M  V30 4013 O 386.765 -0.125903 -1.83268 0
M  V30 4014 C 386.827 -3.4636 -0.963075 0
M  V30 4015 C 386.491 -4.56982 0.0401916 0
M  V30 4016 C 387.488 -5.12941 0.847766 0
M  V30 4017 C 385.173 -5.0203 0.164699 0
M  V30 4018 C 387.167 -6.12437 1.76636 0
M  V30 4019 C 384.854 -6.01358 1.0868 0
M  V30 4020 C 385.852 -6.5644 1.88616 0
M  V30 4021 O 385.54 -7.53831 2.79273 0
M  V30 4022 H 385.272 -0.668983 -0.0971452 0
M  V30 4023 H 387.826 -2.02198 0.361248 0
M  V30 4024 H 386.056 -3.44206 -1.76235 0
M  V30 4025 H 387.745 -3.77065 -1.50257 0
M  V30 4026 H 388.511 -4.78974 0.762133 0
M  V30 4027 H 384.39 -4.58824 -0.447411 0
M  V30 4028 H 387.934 -6.55355 2.39071 0
M  V30 4029 H 383.831 -6.34746 1.17338 0
M  V30 4030 H 384.599 -7.71428 2.73572 0
M  V30 4031 N 387.262 0.0317525 -1.57568 0
M  V30 4032 C 388.492 0.733884 -1.93126 0
M  V30 4033 C 388.9 1.69563 -0.839352 0
M  V30 4034 O 388.243 1.82681 0.193175 0
M  V30 4035 C 388.305 1.54798 -3.24465 0
M  V30 4036 C 387.969 0.751304 -4.50782 0
M  V30 4037 C 388.966 0.0527632 -5.19873 0
M  V30 4038 C 386.651 0.706639 -4.97305 0
M  V30 4039 C 388.645 -0.679774 -6.33765 0
M  V30 4040 C 386.332 -0.0296449 -6.11093 0
M  V30 4041 C 387.33 -0.721614 -6.79177 0
M  V30 4042 O 387.018 -1.44595 -7.90789 0
M  V30 4043 H 386.75 0.211459 -0.642076 0
M  V30 4044 H 389.304 -0.00585615 -2.05399 0
M  V30 4045 H 387.534 2.33147 -3.08512 0
M  V30 4046 H 389.223 2.13247 -3.4537 0
M  V30 4047 H 389.989 0.0783188 -4.84937 0
M  V30 4048 H 385.868 1.23474 -4.44157 0
M  V30 4049 H 389.412 -1.22042 -6.86842 0
M  V30 4050 H 385.309 -0.0571331 -6.45475 0
M  V30 4051 H 386.077 -1.35935 -8.07133 0
M  V30 4052 N 388.74 1.54641 0.303973 0
M  V30 4053 C 389.67 1.88386 1.3796 0
M  V30 4054 C 390.651 0.742485 1.5304 0
M  V30 4055 O 391.836 0.997959 1.66597 0
M  V30 4056 C 388.966 2.12854 2.74427 0
M  V30 4057 C 387.92 3.28702 2.74115 0
M  V30 4058 C 387.246 3.38582 4.13844 0
M  V30 4059 C 388.546 4.65881 2.3612 0
M  V30 4060 H 390.24 2.78474 1.09966 0
M  V30 4061 H 387.786 1.33988 0.527556 0
M  V30 4062 H 389.739 2.35047 3.49758 0
M  V30 4063 H 388.463 1.19535 3.03939 0
M  V30 4064 H 387.122 3.06428 2.0124 0
M  V30 4065 H 386.77 2.42784 4.40528 0
M  V30 4066 H 386.47 4.16453 4.14537 0
M  V30 4067 H 387.994 3.63031 4.90959 0
M  V30 4068 H 389.408 4.87823 3.01167 0
M  V30 4069 H 387.805 5.46444 2.48031 0
M  V30 4070 H 388.875 4.66799 1.3125 0
M  V30 4071 N 390.218 -0.567019 1.47046 0
M  V30 4072 C 391.495 -1.3276 1.43646 0
M  V30 4073 C 391.875 -2.1071 0.128186 0
M  V30 4074 O 391.223 -2.10441 -0.890326 0
M  V30 4075 C 391.433 -2.2404 2.67595 0
M  V30 4076 C 392.781 -2.85372 3.14401 0
M  V30 4077 O 393.805 -2.34346 2.68254 0
M  V30 4078 O 392.664 -3.78091 3.946 0
M  V30 4079 H 389.758 -0.597293 0.571988 0
M  V30 4080 H 392.304 -0.586735 1.59234 0
M  V30 4081 H 391.076 -1.65975 3.54356 0
M  V30 4082 H 390.699 -3.05439 2.54544 0
M  V30 4083 N 391.696 -1.35014 -0.812953 0
M  V30 4084 C 392.942 -1.29129 -1.57154 0
M  V30 4085 C 393.297 0.134922 -1.91926 0
M  V30 4086 O 392.59 1.08373 -1.58006 0
M  V30 4087 C 392.784 -2.12524 -2.87347 0
M  V30 4088 C 392.613 -3.6311 -2.65294 0
M  V30 4089 C 391.383 -4.32363 -2.61516 0
M  V30 4090 C 393.581 -4.56897 -2.36114 0
M  V30 4091 N 391.563 -5.68735 -2.31113 0
M  V30 4092 C 392.934 -5.81345 -2.15494 0
M  V30 4093 C 394.989 -4.45706 -2.21925 0
M  V30 4094 C 393.692 -6.95862 -1.82122 0
M  V30 4095 C 395.718 -5.60066 -1.89948 0
M  V30 4096 C 395.08 -6.83539 -1.7016 0
M  V30 4097 H 391.179 -0.527764 -0.577052 0
M  V30 4098 H 393.763 -1.6983 -0.952146 0
M  V30 4099 H 391.934 -1.74104 -3.47192 0
M  V30 4100 H 393.666 -1.98207 -3.5284 0
M  V30 4101 H 390.421 -3.84907 -2.75941 0
M  V30 4102 H 390.845 -6.40694 -2.18724 0
M  V30 4103 H 395.487 -3.50855 -2.35925 0
M  V30 4104 H 393.205 -7.90685 -1.6686 0
M  V30 4105 H 396.791 -5.53357 -1.79687 0
M  V30 4106 H 395.671 -7.70531 -1.45777 0
M  V30 4107 N 393.175 1.03435 -1.18907 0
M  V30 4108 C 394.424 1.76143 -0.982669 0
M  V30 4109 C 394.737 1.89416 0.487953 0
M  V30 4110 O 395.943 2.59041 0.813036 0
M  V30 4111 C 394.399 3.16722 -1.70924 0
M  V30 4112 C 394.007 3.11522 -3.21959 0
M  V30 4113 C 395.751 3.93764 -1.58588 0
M  V30 4114 C 393.658 4.46999 -3.87228 0
M  V30 4115 H 392.588 0.660292 -0.364047 0
M  V30 4116 H 395.239 1.158 -1.42347 0
M  V30 4117 H 393.621 3.775 -1.19623 0
M  V30 4118 H 394.795 2.60158 -3.80335 0
M  V30 4119 H 393.11 2.47978 -3.34508 0
M  V30 4120 H 395.707 4.93963 -2.04707 0
M  V30 4121 H 396.05 4.12794 -0.539142 0
M  V30 4122 H 396.583 3.39576 -2.07203 0
M  V30 4123 H 393.322 4.33174 -4.91976 0
M  V30 4124 H 392.842 4.98441 -3.33642 0
M  V30 4125 H 394.521 5.15898 -3.90459 0
M  V30 4126 N 394.653 0.992116 1.22453 0
M  V30 4127 C 395.603 0.512969 2.22155 0
M  V30 4128 C 396.587 -0.418416 1.55364 0
M  V30 4129 O 397.779 -0.245363 1.75291 0
M  V30 4130 C 394.908 -0.171822 3.4287 0
M  V30 4131 C 393.994 0.779822 4.16869 0
M  V30 4132 N 394.385 1.92734 4.6764 0
M  V30 4133 C 392.683 0.59554 4.42006 0
M  V30 4134 C 393.384 2.52458 5.24061 0
M  V30 4135 N 392.36 1.80735 5.12675 0
M  V30 4136 H 396.162 1.38817 2.5905 0
M  V30 4137 H 393.676 0.854277 1.38115 0
M  V30 4138 H 395.673 -0.532469 4.13486 0
M  V30 4139 H 394.333 -1.04317 3.07487 0
M  V30 4140 H 395.344 2.30816 4.63621 0
M  V30 4141 H 392.021 -0.229805 4.16867 0
M  V30 4142 H 393.411 3.49433 5.73887 0
M  V30 4143 N 396.131 -1.37776 0.765217 0
M  V30 4144 C 397.081 -2.2768 0.12075 0
M  V30 4145 C 398.065 -1.45778 -0.680988 0
M  V30 4146 O 399.257 -1.684 -0.545033 0
M  V30 4147 C 396.386 -3.34722 -0.762626 0
M  V30 4148 C 395.472 -4.24074 0.0465881 0
M  V30 4149 N 395.863 -4.93939 1.08892 0
M  V30 4150 C 394.161 -4.45643 -0.178418 0
M  V30 4151 C 394.862 -5.59845 1.57951 0
M  V30 4152 N 393.838 -5.36218 0.892797 0
M  V30 4153 H 397.64 -2.79166 0.918889 0
M  V30 4154 H 395.154 -1.50816 0.602353 0
M  V30 4155 H 397.151 -3.98031 -1.24005 0
M  V30 4156 H 395.811 -2.84793 -1.55959 0
M  V30 4157 H 396.822 -4.96572 1.47095 0
M  V30 4158 H 393.499 -4.06599 -0.9478 0
M  V30 4159 H 394.889 -6.25703 2.44838 0
M  V30 4160 N 397.609 -0.515225 -1.4894 0
M  V30 4161 C 398.839 0.0205735 -2.0659 0
M  V30 4162 C 399.247 1.30064 -1.37405 0
M  V30 4163 O 398.59 1.78087 -0.450632 0
M  V30 4164 C 398.652 0.330124 -3.57981 0
M  V30 4165 C 398.316 -0.854295 -4.48944 0
M  V30 4166 C 399.313 -1.7487 -4.89609 0
M  V30 4167 C 396.998 -1.05712 -4.9105 0
M  V30 4168 C 398.992 -2.82996 -5.71132 0
M  V30 4169 C 396.679 -2.14154 -5.72347 0
M  V30 4170 C 397.677 -3.0263 -6.12294 0
M  V30 4171 O 397.365 -4.09198 -6.91962 0
M  V30 4172 H 397.097 -0.0236833 -0.675585 0
M  V30 4173 H 399.651 -0.715956 -1.92518 0
M  V30 4174 H 397.881 1.12044 -3.70112 0
M  V30 4175 H 399.57 0.806233 -3.97812 0
M  V30 4176 H 400.336 -1.60388 -4.57712 0
M  V30 4177 H 396.215 -0.377788 -4.59449 0
M  V30 4178 H 399.759 -3.52083 -6.02232 0
M  V30 4179 H 395.656 -2.28626 -6.03656 0
M  V30 4180 H 396.424 -4.06726 -7.10293 0
M  V30 4181 N 399.087 1.5561 -0.249682 0
M  V30 4182 C 400.333 1.99306 0.374841 0
M  V30 4183 C 400.666 1.13767 1.57387 0
M  V30 4184 O 399.941 0.201711 1.93451 0
M  V30 4185 C 400.224 3.51507 0.781986 0
M  V30 4186 C 400.077 4.4781 -0.422629 0
M  V30 4187 C 401.396 4.08884 1.62793 0
M  V30 4188 H 398.515 0.724572 0.134773 0
M  V30 4189 H 401.157 1.86719 -0.351549 0
M  V30 4190 H 399.307 3.62363 1.4009 0
M  V30 4191 H 400.979 4.48931 -1.06108 0
M  V30 4192 H 399.222 4.20518 -1.06524 0
M  V30 4193 H 399.893 5.51919 -0.0943766 0
M  V30 4194 H 402.369 4.01147 1.10547 0
M  V30 4195 H 401.245 5.1564 1.88166 0
M  V30 4196 H 401.506 3.57515 2.60068 0
M  V30 4197 N 400.565 -0.0233959 1.57583 0
M  V30 4198 C 401.976 -0.56927 1.77809 0
M  V30 4199 C 402.327 -1.75284 0.881472 0
M  V30 4200 O 401.452 -2.1626 0.0777805 0
M  V30 4201 C 402.047 -1.03949 3.22459 0
M  V30 4202 C 400.606 -1.53084 3.43864 0
M  V30 4203 C 399.753 -0.471454 2.73263 0
M  V30 4204 H 402.704 0.202825 1.57399 0
M  V30 4205 H 402.725 -1.90661 3.29285 0
M  V30 4206 H 402.237 -0.177865 3.87692 0
M  V30 4207 H 400.338 -2.41414 2.83814 0
M  V30 4208 H 400.451 -1.57443 4.52491 0
M  V30 4209 H 398.815 -0.927788 2.37201 0
M  V30 4210 H 399.598 0.380808 3.41181 0
M  V30 4211 N 402.043 -1.548 -0.295768 0
M  V30 4212 C 402.99 -1.86113 -1.36494 0
M  V30 4213 C 403.96 -0.7105 -1.50137 0
M  V30 4214 O 405.145 -0.959626 -1.64912 0
M  V30 4215 C 402.285 -2.11861 -2.72413 0
M  V30 4216 C 401.398 -3.39471 -2.67177 0
M  V30 4217 C 400.533 -3.55035 -3.95125 0
M  V30 4218 C 399.572 -4.76418 -3.84308 0
M  V30 4219 N 398.709 -4.8876 -5.04042 0
M  V30 4220 H 403.549 -2.77314 -1.09091 0
M  V30 4221 H 401.086 -1.37315 -0.52753 0
M  V30 4222 H 403.044 -2.24786 -3.51464 0
M  V30 4223 H 401.674 -1.2392 -2.98066 0
M  V30 4224 H 400.726 -3.35139 -1.79962 0
M  V30 4225 H 402.038 -4.28646 -2.55076 0
M  V30 4226 H 401.192 -3.67653 -4.82614 0
M  V30 4227 H 399.931 -2.64002 -4.10066 0
M  V30 4228 H 398.936 -4.63827 -2.95202 0
M  V30 4229 H 400.161 -5.68863 -3.70906 0
M  V30 4230 H 398.107 -4.00652 -5.19436 0
M  V30 4231 H 398.024 -5.71945 -4.94384 0
M  V30 4232 H 399.292 -5.0574 -5.93167 0
M  V30 4233 N 403.521 0.559213 -1.47345 0
M  V30 4234 C 404.468 1.66645 -1.59682 0
M  V30 4235 C 405.438 1.60168 -0.43994 0
M  V30 4236 O 406.623 1.79031 -0.659736 0
M  V30 4237 C 403.763 3.04969 -1.61518 0
M  V30 4238 C 402.876 3.21897 -2.88108 0
M  V30 4239 C 402.011 4.50608 -2.81294 0
M  V30 4240 C 401.05 4.60961 -4.02717 0
M  V30 4241 N 400.187 5.81024 -3.94151 0
M  V30 4242 H 405.027 1.55439 -2.54249 0
M  V30 4243 H 402.564 0.757219 -1.26113 0
M  V30 4244 H 404.522 3.85064 -1.60566 0
M  V30 4245 H 403.152 3.15015 -0.704645 0
M  V30 4246 H 402.204 2.35248 -2.98936 0
M  V30 4247 H 403.516 3.25412 -3.78032 0
M  V30 4248 H 402.67 5.3896 -2.7858 0
M  V30 4249 H 401.409 4.49568 -1.89049 0
M  V30 4250 H 400.414 3.71021 -4.05738 0
M  V30 4251 H 401.639 4.63761 -4.96087 0
M  V30 4252 H 399.585 5.80938 -3.04708 0
M  V30 4253 H 399.502 5.85909 -4.77752 0
M  V30 4254 H 400.77 6.71744 -3.9545 0
M  V30 4255 N 404.999 1.35443 0.805782 0
M  V30 4256 C 406.41 1.25768 1.37983 0
M  V30 4257 C 406.761 -0.10958 1.95894 0
M  V30 4258 O 405.886 -1.01056 1.91355 0
M  V30 4259 C 406.481 2.27727 2.5085 0
M  V30 4260 C 405.04 2.2179 3.04115 0
M  V30 4261 C 404.187 2.13393 1.77084 0
M  V30 4262 H 407.138 1.4656 0.608752 0
M  V30 4263 H 407.159 1.90422 3.29424 0
M  V30 4264 H 406.671 3.27227 2.08671 0
M  V30 4265 H 404.772 1.25703 3.50756 0
M  V30 4266 H 404.885 3.13788 3.62042 0
M  V30 4267 H 403.249 1.59384 1.98668 0
M  V30 4268 H 404.032 3.14755 1.37056 0
M  V30 4269 O 406.516 -0.944775 1.30982 0
M  V30 4270 H 407.207 -1.57432 1.12848 0
M  V30 END ATOM
M  V30 BEGIN BOND
M  V30 END BOND
M  V30 END CTAB
M  END
$$$$
