drugbank_target|P20276 50S ribosomal protein L2 (DB04865)
 OpenBabel12092120583D

  0  0  0     0  0            999 V3000
M  V30 BEGIN CTAB
M  V30 COUNTS 3566 3599 0 0 0
M  V30 BEGIN ATOM
M  V30 1 H -0.908 1.98254 -0.117106 0
M  V30 2 N 0 1.576 0 0
M  V30 3 C 0.933 2.03868 1.02534 0
M  V30 4 C 1.911 0.928543 1.3348 0
M  V30 5 O 3.095 1.19667 1.45644 0
M  V30 6 C 0.222 2.43627 2.35294 0
M  V30 7 C -0.732 3.65373 2.2001 0
M  V30 8 S 0.101 5.13292 1.52614 0
M  V30 9 C 1.257 5.56322 2.86805 0
M  V30 10 H 1.49 2.90518 0.631377 0
M  V30 11 H -0.977 1.52953 0.210867 0
M  V30 12 H 0.981 2.67203 3.11629 0
M  V30 13 H -0.358 1.57376 2.7183 0
M  V30 14 H -1.165 3.90944 3.18086 0
M  V30 15 H -1.563 3.418 1.51819 0
M  V30 16 H 0.729 5.58782 3.83104 0
M  V30 17 H 1.672 6.56266 2.65933 0
M  V30 18 H 2.08 4.83886 2.90714 0
M  V30 19 N 1.4781 -0.272755 1.55222 0
M  V30 20 C 2.7261 -1.00234 1.75492 0
M  V30 21 C 3.0471 -1.8681 0.5592 0
M  V30 22 O 2.3171 -1.91215 -0.425882 0
M  V30 23 H 0.8971 -0.373076 0.647166 0
M  V30 24 H 3.5591 -0.296926 1.92625 0
M  V30 25 H 2.6551 -1.63913 2.65592 0
M  V30 26 N 2.9562 -1.48159 -0.537278 0
M  V30 27 C 4.3722 -1.34118 -0.865129 0
M  V30 28 C 4.5722 -0.346678 -1.98495 0
M  V30 29 O 3.6282 0.234715 -2.51407 0
M  V30 30 C 4.9412 -2.73963 -1.23954 0
M  V30 31 C 6.4892 -2.82397 -1.34984 0
M  V30 32 C 6.9642 -4.22928 -1.75772 0
M  V30 33 N 8.4552 -4.25566 -1.82887 0
M  V30 34 C 9.1902 -5.31235 -2.15817 0
M  V30 35 N 8.6862 -6.47189 -2.47222 0
M  V30 36 N 10.4792 -5.18624 -2.16761 0
M  V30 37 H 2.6302 -2.1144 0.201715 0
M  V30 38 H 4.8932 -0.947598 0.0275949 0
M  V30 39 H 4.5992 -3.48264 -0.490381 0
M  V30 40 H 4.4732 -3.0702 -2.19132 0
M  V30 41 H 6.8602 -2.08356 -2.08978 0
M  V30 42 H 6.9412 -2.5297 -0.379448 0
M  V30 43 H 6.5852 -4.97482 -1.02341 0
M  V30 44 H 6.5152 -4.49794 -2.73848 0
M  V30 45 H 9.0062 -3.41924 -1.60924 0
M  V30 46 H 9.3192 -7.23564 -2.71433 0
M  V30 47 H 7.6642 -6.50476 -2.44757 0
M  V30 48 H 10.8552 -4.27056 -1.91679 0
M  V30 49 H 11.0282 -6.01078 -2.42093 0
M  V30 50 N 4.4343 0.785586 -1.36625 0
M  V30 51 C 5.8503 1.08419 -1.17122 0
M  V30 52 C 6.0503 2.015 0.00208491 0
M  V30 53 O 5.1063 2.43551 0.666278 0
M  V30 54 C 6.4193 1.69498 -2.48377 0
M  V30 55 C 7.9673 1.81821 -2.54775 0
M  V30 56 C 8.4423 2.46315 -3.86126 0
M  V30 57 N 9.9333 2.53779 -3.87492 0
M  V30 58 C 10.6683 3.045 -4.85868 0
M  V30 59 N 10.1643 3.55499 -5.94637 0
M  V30 60 N 11.9573 3.03247 -4.73284 0
M  V30 61 H 4.1083 0.167264 -2.1174 0
M  V30 62 H 6.3713 0.13682 -0.938075 0
M  V30 63 H 6.0773 1.08571 -3.34522 0
M  V30 64 H 5.9513 2.6896 -2.64462 0
M  V30 65 H 8.3383 2.41884 -1.69045 0
M  V30 66 H 8.4193 0.811532 -2.42586 0
M  V30 67 H 8.0633 1.86895 -4.72263 0
M  V30 68 H 7.9933 3.47561 -3.95612 0
M  V30 69 H 10.4843 2.17672 -3.08913 0
M  V30 70 H 10.7973 3.92562 -6.65669 0
M  V30 71 H 9.1423 3.5364 -5.98301 0
M  V30 72 H 12.3333 2.62696 -3.87438 0
M  V30 73 H 12.5063 3.42467 -5.50109 0
M  V30 74 N 5.9124 1.20967 1.01018 0
M  V30 75 C 7.1614 1.01796 1.74128 0
M  V30 76 C 7.4744 -0.449691 1.90361 0
M  V30 77 O 8.6804 -0.76068 2.60626 0
M  V30 78 C 7.1364 1.7727 3.13215 0
M  V30 79 C 6.7444 3.28171 3.04972 0
M  V30 80 C 8.4884 1.66489 3.90489 0
M  V30 81 C 6.3954 3.96156 4.39107 0
M  V30 82 H 5.3254 0.377276 0.652824 0
M  V30 83 H 7.9764 1.44651 1.12909 0
M  V30 84 H 6.3584 1.27205 3.75013 0
M  V30 85 H 7.5324 3.85499 2.52443 0
M  V30 86 H 5.8474 3.39437 2.41188 0
M  V30 87 H 8.4444 2.14617 4.89738 0
M  V30 88 H 8.7874 0.6222 4.11624 0
M  V30 89 H 9.3204 2.14003 3.35332 0
M  V30 90 H 6.0594 5.00604 4.23174 0
M  V30 91 H 5.5794 3.43617 4.91617 0
M  V30 92 H 7.2584 4.00774 5.07926 0
M  V30 93 N 7.3905 -1.2043 1.01659 0
M  V30 94 C 8.3225 -2.22626 0.544988 0
M  V30 95 C 9.3355 -1.58479 -0.372609 0
M  V30 96 O 10.5245 -1.77679 -0.170958 0
M  V30 97 C 7.6245 -3.38141 -0.22663 0
M  V30 98 C 6.7975 -4.31877 0.692876 0
M  V30 99 C 5.8565 -5.26191 -0.0311616 0
M  V30 100 O 4.8825 -5.6612 0.591343 0
M  V30 101 N 6.0845 -5.65618 -1.30601 0
M  V30 102 H 8.8495 -2.63716 1.42388 0
M  V30 103 H 6.4105 -1.34971 0.894116 0
M  V30 104 H 8.4025 -3.98239 -0.72024 0
M  V30 105 H 6.9725 -2.95943 -1.00681 0
M  V30 106 H 6.1925 -3.69746 1.36679 0
M  V30 107 H 7.4805 -4.91426 1.31824 0
M  V30 108 H 6.8785 -5.3519 -1.83269 0
M  V30 109 H 5.4355 -6.28025 -1.74435 0
M  V30 110 N 8.8686 -0.792821 -1.36206 0
M  V30 111 C 10.1166 -0.366062 -1.98757 0
M  V30 112 C 10.4376 1.0668 -1.63231 0
M  V30 113 O 9.7076 1.73587 -0.907978 0
M  V30 114 H 8.2876 -0.132364 -0.735179 0
M  V30 115 H 10.9496 -1.01562 -1.66347 0
M  V30 116 H 10.0456 -0.460638 -3.08682 0
M  V30 117 N 10.3467 1.47872 -0.545128 0
M  V30 118 C 11.2787 2.27869 0.246621 0
M  V30 119 C 12.2917 1.36282 0.890561 0
M  V30 120 O 13.4807 1.61207 0.766449 0
M  V30 121 C 10.5807 3.10159 1.36582 0
M  V30 122 C 9.7537 4.29627 0.820954 0
M  V30 123 C 8.8127 4.93607 1.82314 0
M  V30 124 O 7.8387 5.52366 1.37406 0
M  V30 125 N 9.0407 4.87211 3.15603 0
M  V30 126 H 11.8057 2.96459 -0.439539 0
M  V30 127 H 9.3667 1.57367 -0.380421 0
M  V30 128 H 11.3587 3.49829 2.03474 0
M  V30 129 H 9.9287 2.43891 1.9554 0
M  V30 130 H 9.1487 3.94192 -0.0244032 0
M  V30 131 H 10.4367 5.06928 0.436063 0
M  V30 132 H 9.8347 4.40651 3.54744 0
M  V30 133 H 8.3917 5.30937 3.78087 0
M  V30 134 N 11.8248 0.280983 1.55075 0
M  V30 135 C 13.2408 -0.0729964 1.59433 0
M  V30 136 C 13.4408 -1.5411 1.29817 0
M  V30 137 O 12.4968 -2.29086 1.06187 0
M  V30 138 C 13.8098 0.306921 2.9913 0
M  V30 139 C 15.3578 0.254023 3.11968 0
M  V30 140 C 15.8328 0.608467 4.5394 0
M  V30 141 N 17.3238 0.560241 4.59799 0
M  V30 142 C 18.0588 0.80722 5.6769 0
M  V30 143 N 17.5548 1.11912 6.83701 0
M  V30 144 N 19.3478 0.735623 5.57266 0
M  V30 145 H 11.4988 1.238 1.7259 0
M  V30 146 H 13.7618 0.500547 0.805082 0
M  V30 147 H 13.4678 1.32816 3.25657 0
M  V30 148 H 13.3418 -0.349363 3.75579 0
M  V30 149 H 15.7288 -0.75794 2.852 0
M  V30 150 H 15.8098 0.944649 2.37718 0
M  V30 151 H 15.4538 1.61814 4.81434 0
M  V30 152 H 15.3838 -0.104013 5.26497 0
M  V30 153 H 17.8748 0.329288 3.76463 0
M  V30 154 H 18.1878 1.29409 7.61888 0
M  V30 155 H 16.5328 1.15695 6.85303 0
M  V30 156 H 19.7238 0.491752 4.6551 0
M  V30 157 H 19.8968 0.931482 6.4127 0
M  V30 158 N 13.3029 -1.57598 0.00835791 0
M  V30 159 C 14.7189 -1.55764 -0.347822 0
M  V30 160 C 14.9189 -1.01186 -1.74252 0
M  V30 161 O 13.9749 -0.649371 -2.44007 0
M  V30 162 C 15.2879 -2.99927 -0.215407 0
M  V30 163 C 16.8359 -3.11656 -0.289725 0
M  V30 164 C 17.3109 -4.57621 -0.18634 0
M  V30 165 N 18.8019 -4.62557 -0.243978 0
M  V30 166 C 19.5369 -5.73094 -0.18745 0
M  V30 167 N 19.0329 -6.92753 -0.0810331 0
M  V30 168 N 20.8259 -5.61588 -0.239925 0
M  V30 169 H 12.9769 -1.91411 0.92062 0
M  V30 170 H 15.2399 -0.879562 0.353659 0
M  V30 171 H 14.9459 -3.43729 0.744512 0
M  V30 172 H 14.8199 -3.63865 -0.994097 0
M  V30 173 H 17.2069 -2.67779 -1.24009 0
M  V30 174 H 17.2879 -2.5048 0.51898 0
M  V30 175 H 16.9319 -5.02174 0.760519 0
M  V30 176 H 16.8619 -5.16752 -1.01364 0
M  V30 177 H 19.3529 -3.76481 -0.327217 0
M  V30 178 H 19.6659 -7.72787 -0.0440241 0
M  V30 179 H 18.0109 -6.94984 -0.0465419 0
M  V30 180 H 21.2019 -4.66996 -0.321317 0
M  V30 181 H 21.3749 -6.47714 -0.192407 0
M  V30 182 N 14.781 0.264519 -1.55364 0
M  V30 183 C 16.029 0.993021 -1.76021 0
M  V30 184 C 16.35 1.86511 -0.569099 0
M  V30 185 O 15.62 1.91438 0.415735 0
M  V30 186 H 14.2 0.369639 -0.649135 0
M  V30 187 H 16.862 0.286707 -1.9278 0
M  V30 188 H 15.958 1.62502 -2.66457 0
M  V30 189 N 16.2591 1.48442 0.529413 0
M  V30 190 C 17.6751 1.34575 0.858004 0
M  V30 191 C 17.8751 0.3572 1.98309 0
M  V30 192 O 16.9311 -0.221379 2.51528 0
M  V30 193 C 18.2441 2.74617 1.22499 0
M  V30 194 C 19.7921 2.83109 1.33484 0
M  V30 195 C 20.2671 4.23854 1.73526 0
M  V30 196 N 21.7581 4.2653 1.80628 0
M  V30 197 C 22.4931 5.32372 2.12997 0
M  V30 198 N 21.9891 6.48491 2.43786 0
M  V30 199 N 23.7821 5.19766 2.14008 0
M  V30 200 H 15.9331 2.1133 -0.212925 0
M  V30 201 H 18.1961 0.947439 -0.0326199 0
M  V30 202 H 17.9021 3.4852 0.471905 0
M  V30 203 H 17.7761 3.08177 2.17501 0
M  V30 204 H 20.1631 2.09462 2.0787 0
M  V30 205 H 20.2441 2.53168 0.366027 0
M  V30 206 H 19.8881 4.98018 0.997013 0
M  V30 207 H 19.8181 4.5124 2.71459 0
M  V30 208 H 22.3091 3.42772 1.59108 0
M  V30 209 H 22.6221 7.24993 2.67592 0
M  V30 210 H 20.9671 6.51765 2.41304 0
M  V30 211 H 24.1581 4.28066 1.89412 0
M  V30 212 H 24.3311 6.02354 2.38902 0
M  V30 213 N 17.7372 -0.778329 1.37039 0
M  V30 214 C 18.9852 -1.53361 1.31623 0
M  V30 215 C 19.3062 -1.94739 -0.100831 0
M  V30 216 O 18.5762 -1.65797 -1.04347 0
M  V30 217 H 17.1562 -0.568794 0.484234 0
M  V30 218 H 19.8182 -0.926742 1.71457 0
M  V30 219 H 18.9142 -2.43606 1.95096 0
M  V30 220 N 19.2153 -1.21501 -1.00376 0
M  V30 221 C 20.4433 -1.059 -1.77744 0
M  V30 222 C 20.8583 0.391125 -1.84704 0
M  V30 223 O 20.2153 1.27133 -1.30933 0
M  V30 224 C 20.2663 -1.65111 -3.21591 0
M  V30 225 O 19.9873 -3.0445 -3.15027 0
M  V30 226 C 21.4883 -1.54637 -4.15454 0
M  V30 227 H 18.7083 -0.371825 -0.558558 0
M  V30 228 H 21.2523 -1.60865 -1.26264 0
M  V30 229 H 19.4073 -1.14235 -3.70175 0
M  V30 230 H 19.8213 -3.3278 -4.0541 0
M  V30 231 H 21.2953 -2.00808 -5.14179 0
M  V30 232 H 21.7723 -0.501022 -4.36333 0
M  V30 233 H 22.3783 -2.04767 -3.72761 0
M  V30 234 N 20.6934 1.19889 -1.02296 0
M  V30 235 C 21.9184 1.9393 -0.735237 0
M  V30 236 C 22.3434 1.74639 0.698782 0
M  V30 237 O 21.7014 1.04481 1.48167 0
M  V30 238 C 21.7494 3.43916 -1.08417 0
M  V30 239 O 20.8534 4.11917 -0.199446 0
M  V30 240 H 20.1944 0.605645 -0.272196 0
M  V30 241 H 22.7244 1.52137 -1.36804 0
M  V30 242 H 22.7344 3.9456 -1.03856 0
M  V30 243 H 21.4094 3.5728 -2.12894 0
M  V30 244 H 19.9864 3.71666 -0.303136 0
M  V30 245 N 22.1715 0.800033 1.35784 0
M  V30 246 C 23.3995 0.389606 2.03199 0
M  V30 247 C 23.8145 -0.997375 1.60306 0
M  V30 248 O 23.1715 -1.64154 0.797481 0
M  V30 249 C 23.2225 0.455855 3.58614 0
M  V30 250 O 22.9435 1.78815 3.99946 0
M  V30 251 C 24.4445 0.0374032 4.43284 0
M  V30 252 H 21.6645 0.159132 0.651857 0
M  V30 253 H 24.2085 1.08183 1.73541 0
M  V30 254 H 22.3635 -0.188057 3.86943 0
M  V30 255 H 22.7775 1.74636 4.94573 0
M  V30 256 H 24.2515 0.134882 5.51835 0
M  V30 257 H 24.7285 -1.01651 4.27275 0
M  V30 258 H 25.3345 0.654215 4.20238 0
M  V30 259 N 23.6496 -1.47581 0.552962 0
M  V30 260 C 24.8966 -2.02482 0.0273243 0
M  V30 261 C 25.2246 -1.42776 -1.32081 0
M  V30 262 O 24.4796 -0.571393 -1.87173 0
M  V30 263 C 24.7786 -3.57199 -0.119728 0
M  V30 264 C 24.4446 -4.35804 1.15697 0
M  V30 265 C 23.1066 -4.57 1.50681 0
M  V30 266 C 25.4586 -4.81167 2.00319 0
M  V30 267 C 22.7866 -5.20807 2.70142 0
M  V30 268 C 25.1386 -5.46293 3.18978 0
M  V30 269 C 23.8026 -5.65722 3.54281 0
M  V30 270 H 23.0726 -0.740933 0.00999866 0
M  V30 271 H 25.7196 -1.77302 0.72362 0
M  V30 272 H 24.0246 -3.81348 -0.89896 0
M  V30 273 H 25.7216 -3.97324 -0.541718 0
M  V30 274 H 22.3116 -4.19582 0.874561 0
M  V30 275 H 26.4956 -4.64574 1.74599 0
M  V30 276 H 21.7516 -5.34045 2.97668 0
M  V30 277 H 25.9256 -5.80407 3.84838 0
M  V30 278 H 23.5526 -6.14936 4.46942 0
M  V30 279 N 25.1277 -0.289203 -1.54924 0
M  V30 280 C 26.5437 0.0645403 -1.59469 0
M  V30 281 C 26.7437 1.53419 -1.30632 0
M  V30 282 O 25.7997 2.2852 -1.074 0
M  V30 283 C 27.1127 -0.32278 -2.98963 0
M  V30 284 C 28.6607 -0.270564 -3.11828 0
M  V30 285 C 29.1357 -0.632532 -4.53611 0
M  V30 286 N 30.6267 -0.584617 -4.59496 0
M  V30 287 C 31.3617 -0.837314 -5.67254 0
M  V30 288 N 30.8577 -1.15536 -6.83098 0
M  V30 289 N 32.6507 -0.765166 -5.56868 0
M  V30 290 H 24.8017 -1.24714 -1.71931 0
M  V30 291 H 27.0647 -0.504809 -0.802416 0
M  V30 292 H 26.7707 -1.34541 -3.24948 0
M  V30 293 H 26.6447 0.32944 -3.75759 0
M  V30 294 H 29.0317 0.742805 -2.85598 0
M  V30 295 H 29.1127 -0.957242 -2.37214 0
M  V30 296 H 28.7567 -1.64365 -4.80569 0
M  V30 297 H 28.6867 0.07609 -5.26545 0
M  V30 298 H 31.1777 -0.349248 -3.76283 0
M  V30 299 H 31.4907 -1.33447 -7.61191 0
M  V30 300 H 29.8357 -1.19328 -6.84679 0
M  V30 301 H 33.0267 -0.516432 -4.65243 0
M  V30 302 H 33.1997 -0.965477 -6.40767 0
M  V30 303 N 26.6058 1.57591 -0.0167156 0
M  V30 304 C 27.5688 2.08393 0.954204 0
M  V30 305 C 28.5688 0.996531 1.26198 0
M  V30 306 O 29.7588 1.25858 1.20438 0
M  V30 307 C 26.8908 2.5394 2.27436 0
M  V30 308 H 28.0838 2.95455 0.514451 0
M  V30 309 H 25.6368 1.54582 0.231089 0
M  V30 310 H 26.3718 1.70171 2.76066 0
M  V30 311 H 26.1568 3.33371 2.06412 0
M  V30 312 H 27.6468 2.93512 2.97053 0
M  V30 313 N 28.0839 -0.256276 1.55502 0
M  V30 314 C 29.4949 -0.826068 1.67431 0
M  V30 315 C 29.8459 -1.86396 0.612446 0
M  V30 316 O 28.9709 -2.15031 -0.243025 0
M  V30 317 C 29.5659 -1.50512 3.03532 0
M  V30 318 C 28.1249 -2.02273 3.17431 0
M  V30 319 C 27.2719 -0.870548 2.63281 0
M  V30 320 H 30.2229 -0.0322728 1.58667 0
M  V30 321 H 30.2439 -2.37279 2.97454 0
M  V30 322 H 29.7559 -0.749484 3.80794 0
M  V30 323 H 27.8569 -2.80746 2.44974 0
M  V30 324 H 27.9699 -2.22655 4.24219 0
M  V30 325 H 26.3339 -1.26851 2.20864 0
M  V30 326 H 27.1169 -0.128149 3.43061 0
M  V30 327 N 29.562 -1.4872 -0.521534 0
M  V30 328 C 30.787 -1.61101 -1.30618 0
M  V30 329 C 31.212 -0.274611 -1.86085 0
M  V30 330 O 30.57 0.754937 -1.64834 0
M  V30 331 C 30.618 -2.66709 -2.4269 0
M  V30 332 O 29.722 -2.24456 -3.45967 0
M  V30 333 H 29.063 -0.539921 -0.386499 0
M  V30 334 H 31.593 -1.94767 -0.626645 0
M  V30 335 H 31.603 -2.88245 -2.88754 0
M  V30 336 H 30.278 -3.63727 -2.01682 0
M  V30 337 H 28.855 -2.13168 -3.05964 0
M  V30 338 N 31.0401 0.771051 -1.3745 0
M  V30 339 C 31.9901 1.87456 -1.29785 0
M  V30 340 C 32.9741 1.59827 -0.185541 0
M  V30 341 O 34.1661 1.71945 -0.419997 0
M  V30 342 C 31.2951 3.24935 -1.1078 0
M  V30 343 C 30.3811 3.58514 -2.26558 0
M  V30 344 N 30.7721 3.6327 -3.5195 0
M  V30 345 C 29.0701 3.88683 -2.18727 0
M  V30 346 C 29.7711 3.93616 -4.283 0
M  V30 347 N 28.7471 4.09551 -3.57448 0
M  V30 348 H 32.5491 1.89386 -2.24745 0
M  V30 349 H 30.0631 0.967531 -1.30432 0
M  V30 350 H 32.0601 4.03881 -1.03374 0
M  V30 351 H 30.7201 3.24268 -0.16738 0
M  V30 352 H 31.7311 3.45458 -3.85848 0
M  V30 353 H 28.4081 3.95834 -1.32746 0
M  V30 354 H 29.7981 4.04066 -5.36824 0
M  V30 355 N 32.5182 1.22032 0.997298 0
M  V30 356 C 33.9342 0.979326 1.26021 0
M  V30 357 C 34.1342 -0.32972 1.98784 0
M  V30 358 O 33.1902 -1.05345 2.29475 0
M  V30 359 C 34.5032 2.17509 2.07631 0
M  V30 360 C 36.0512 2.21817 2.2083 0
M  V30 361 C 36.5262 3.40933 3.05825 0
M  V30 362 N 38.0172 3.41067 3.13412 0
M  V30 363 C 38.7522 4.29885 3.79455 0
M  V30 364 N 38.2482 5.28914 4.47462 0
M  V30 365 N 40.0412 4.17673 3.76173 0
M  V30 366 H 32.1922 2.06202 0.509352 0
M  V30 367 H 34.4552 0.90334 0.287541 0
M  V30 368 H 34.1612 3.12415 1.61524 0
M  V30 369 H 34.0352 2.17206 3.08385 0
M  V30 370 H 36.4222 1.27462 2.66153 0
M  V30 371 H 36.5032 2.2616 1.1952 0
M  V30 372 H 36.1472 4.35586 2.61203 0
M  V30 373 H 36.0772 3.33829 4.07266 0
M  V30 374 H 38.5682 2.69406 2.65007 0
M  V30 375 H 38.8812 5.92973 4.95583 0
M  V30 376 H 37.2262 5.32831 4.46224 0
M  V30 377 H 40.4172 3.39564 3.22202 0
M  V30 378 H 40.5902 4.87098 4.27363 0
M  V30 379 N 33.9963 -1.19345 1.0293 0
M  V30 380 C 35.2263 -1.92717 0.744563 0
M  V30 381 C 35.6343 -1.75751 -0.700579 0
M  V30 382 O 34.9773 -1.07703 -1.48815 0
M  V30 383 C 35.0393 -3.44828 1.01657 0
M  V30 384 C 34.7033 -3.85564 2.45335 0
M  V30 385 C 35.7003 -3.90286 3.43472 0
M  V30 386 C 33.3853 -4.1719 2.79746 0
M  V30 387 C 35.3793 -4.26065 4.74075 0
M  V30 388 C 33.0663 -4.52642 4.10559 0
M  V30 389 C 34.0643 -4.57054 5.07534 0
M  V30 390 O 33.7523 -4.91685 6.36004 0
M  V30 391 H 33.4843 -0.618977 0.271742 0
M  V30 392 H 36.0383 -1.52415 1.37691 0
M  V30 393 H 34.2683 -3.85314 0.327084 0
M  V30 394 H 35.9573 -3.99437 0.721427 0
M  V30 395 H 36.7233 -3.66002 3.18225 0
M  V30 396 H 32.6023 -4.1294 2.04943 0
M  V30 397 H 36.1463 -4.29423 5.49765 0
M  V30 398 H 32.0433 -4.76383 4.35579 0
M  V30 399 H 32.8113 -5.09631 6.40483 0
M  V30 400 N 35.4744 -0.807222 -1.35358 0
M  V30 401 C 36.4214 -0.216037 -2.29787 0
M  V30 402 C 37.3914 0.650278 -1.52842 0
M  V30 403 O 38.5764 0.595227 -1.81278 0
M  V30 404 C 35.7164 0.628893 -3.39321 0
M  V30 405 C 34.8294 -0.257927 -4.31229 0
M  V30 406 C 33.9644 0.595069 -5.27856 0
M  V30 407 C 33.0034 -0.292111 -6.11403 0
M  V30 408 N 32.1404 0.520895 -7.00165 0
M  V30 409 H 36.9804 -1.02671 -2.79755 0
M  V30 410 H 34.5174 -0.517839 -1.37684 0
M  V30 411 H 36.4754 1.13393 -4.01494 0
M  V30 412 H 35.1054 1.40482 -2.90628 0
M  V30 413 H 34.1574 -0.881076 -3.70056 0
M  V30 414 H 35.4694 -0.940759 -4.89848 0
M  V30 415 H 34.6234 1.16522 -5.95405 0
M  V30 416 H 33.3624 1.31146 -4.69736 0
M  V30 417 H 32.3674 -0.874525 -5.428 0
M  V30 418 H 33.5924 -1.00638 -6.71602 0
M  V30 419 H 31.5384 1.22125 -6.44532 0
M  V30 420 H 31.4554 -0.103877 -7.55929 0
M  V30 421 H 32.7234 1.0743 -7.72062 0
M  V30 422 N 36.9525 1.47285 -0.560781 0
M  V30 423 C 37.9155 2.28535 0.174488 0
M  V30 424 C 38.9155 1.37153 0.839388 0
M  V30 425 O 40.1055 1.59748 0.694702 0
M  V30 426 C 37.2375 3.16934 1.25561 0
M  V30 427 H 38.4305 2.95012 -0.539262 0
M  V30 428 H 35.9835 1.53034 -0.317865 0
M  V30 429 H 36.7185 2.55157 2.00164 0
M  V30 430 H 36.5035 3.8419 0.783604 0
M  V30 431 H 37.9935 3.78143 1.77193 0
M  V30 432 N 38.4306 0.297415 1.54768 0
M  V30 433 C 39.7076 -0.365847 1.92148 0
M  V30 434 C 40.0876 -1.71975 1.22424 0
M  V30 435 O 39.4356 -2.25666 0.358739 0
M  V30 436 C 39.6456 -0.484056 3.45627 0
M  V30 437 C 40.9936 -0.756594 4.17805 0
M  V30 438 O 42.0176 -0.568007 3.51642 0
M  V30 439 O 40.8766 -1.11863 5.34929 0
M  V30 440 H 37.9706 -0.203919 0.801465 0
M  V30 441 H 40.5166 0.34521 1.66152 0
M  V30 442 H 39.2886 0.467865 3.88493 0
M  V30 443 H 38.9116 -1.24372 3.77647 0
M  V30 444 N 39.9087 -1.5758 0.0250728 0
M  V30 445 C 40.8387 -2.13007 -0.956575 0
M  V30 446 C 41.8197 -1.0452 -1.342 0
M  V30 447 O 43.0047 -1.32332 -1.42133 0
M  V30 448 C 40.1347 -2.65386 -2.24026 0
M  V30 449 C 39.0887 -3.78623 -1.99571 0
M  V30 450 C 38.4147 -4.17414 -3.3417 0
M  V30 451 C 39.7147 -5.04867 -1.33814 0
M  V30 452 H 41.4087 -2.9528 -0.494991 0
M  V30 453 H 38.9547 -1.42042 -0.236651 0
M  V30 454 H 40.9077 -3.02794 -2.93076 0
M  V30 455 H 39.6317 -1.80268 -2.72343 0
M  V30 456 H 38.2907 -3.41646 -1.32941 0
M  V30 457 H 37.9387 -3.29284 -3.80238 0
M  V30 458 H 37.6387 -4.93719 -3.18615 0
M  V30 459 H 39.1627 -4.57402 -4.04495 0
M  V30 460 H 40.5767 -5.39888 -1.92857 0
M  V30 461 H 38.9737 -5.86144 -1.28669 0
M  V30 462 H 40.0437 -4.83904 -0.310561 0
M  V30 463 N 41.3868 0.248026 -1.55636 0
M  V30 464 C 42.2968 1.32859 -1.93354 0
M  V30 465 C 43.3128 1.52719 -0.833838 0
M  V30 466 O 44.4888 1.66363 -1.13513 0
M  V30 467 C 41.5538 2.66337 -2.21958 0
M  V30 468 C 40.6148 2.55008 -3.45354 0
M  V30 469 C 39.8478 3.82121 -3.72584 0
M  V30 470 O 40.0708 4.83951 -3.01907 0
M  V30 471 O 39.0048 3.80822 -4.6611 0
M  V30 472 H 42.8308 1.03862 -2.85388 0
M  V30 473 H 40.4158 0.448686 -1.42503 0
M  V30 474 H 42.2978 3.45216 -2.4167 0
M  V30 475 H 40.9728 2.95068 -1.33103 0
M  V30 476 H 39.8798 1.7442 -3.30951 0
M  V30 477 H 41.2128 2.31222 -4.34508 0
M  V30 478 N 42.8649 1.48995 0.513639 0
M  V30 479 C 43.8149 1.61127 1.61314 0
M  V30 480 C 44.7989 0.467521 1.53958 0
M  V30 481 O 45.9909 0.719826 1.61702 0
M  V30 482 C 43.1199 1.66937 2.99978 0
M  V30 483 C 42.2059 2.86847 3.12377 0
M  V30 484 N 42.5969 4.11078 2.94701 0
M  V30 485 C 40.8949 2.84521 3.43459 0
M  V30 486 C 41.5959 4.91615 3.10949 0
M  V30 487 N 40.5719 4.24739 3.3926 0
M  V30 488 H 44.3739 2.54909 1.46282 0
M  V30 489 H 41.8879 1.45593 0.719483 0
M  V30 490 H 43.8849 1.73725 3.78979 0
M  V30 491 H 42.5449 0.742831 3.16089 0
M  V30 492 H 43.5559 4.41258 2.71131 0
M  V30 493 H 40.2329 2.01192 3.65825 0
M  V30 494 H 41.6229 6.00264 3.01882 0
M  V30 495 N 44.343 -0.763751 1.37857 0
M  V30 496 C 45.759 -1.06542 1.18832 0
M  V30 497 C 45.959 -2.01478 0.0299722 0
M  V30 498 O 45.015 -2.4458 -0.627447 0
M  V30 499 C 46.328 -1.65525 2.51042 0
M  V30 500 C 47.876 -1.77745 2.57635 0
M  V30 501 C 48.351 -2.4014 3.89996 0
M  V30 502 N 49.842 -2.47582 3.91481 0
M  V30 503 C 50.577 -2.96732 4.9065 0
M  V30 504 N 50.073 -3.45993 6.00217 0
M  V30 505 N 51.866 -2.95679 4.78048 0
M  V30 506 H 44.017 -0.133556 2.1198 0
M  V30 507 H 46.28 -0.121879 0.940133 0
M  V30 508 H 45.986 -1.03236 3.36207 0
M  V30 509 H 45.86 -2.64719 2.68707 0
M  V30 510 H 48.247 -2.39164 1.72872 0
M  V30 511 H 48.328 -0.772836 2.43846 0
M  V30 512 H 47.972 -1.79358 4.75177 0
M  V30 513 H 47.902 -3.41223 4.01092 0
M  V30 514 H 50.393 -2.1273 3.12337 0
M  V30 515 H 50.706 -3.81922 6.7183 0
M  V30 516 H 49.051 -3.44077 6.03851 0
M  V30 517 H 52.242 -2.56499 3.91568 0
M  V30 518 H 52.415 -3.33672 5.55488 0
M  V30 519 N 45.8211 -1.22559 -0.990812 0
M  V30 520 C 46.7681 -0.997519 -2.0813 0
M  V30 521 C 47.7381 0.0814702 -1.659 0
M  V30 522 O 48.9231 -0.0685424 -1.90677 0
M  V30 523 C 46.0631 -0.583615 -3.40129 0
M  V30 524 C 45.1761 -1.7336 -3.9569 0
M  V30 525 C 44.3111 -1.26748 -5.15857 0
M  V30 526 C 43.3501 -2.38888 -5.63559 0
M  V30 527 N 42.4871 -1.93308 -6.74964 0
M  V30 528 H 47.3271 -1.93099 -2.26973 0
M  V30 529 H 44.8641 -0.962114 -1.11273 0
M  V30 530 H 46.8221 -0.324801 -4.15934 0
M  V30 531 H 45.4521 0.312845 -3.2128 0
M  V30 532 H 44.5041 -2.10669 -3.16738 0
M  V30 533 H 45.8161 -2.57704 -4.27071 0
M  V30 534 H 44.9701 -0.966173 -5.98957 0
M  V30 535 H 43.7091 -0.394272 -4.86104 0
M  V30 536 H 42.7141 -2.69805 -4.79046 0
M  V30 537 H 43.9391 -3.26728 -5.95336 0
M  V30 538 H 41.8851 -1.08352 -6.4699 0
M  V30 539 H 41.8021 -2.71217 -7.05675 0
M  V30 540 H 43.0701 -1.66252 -7.61564 0
M  V30 541 N 47.2992 1.18797 -1.03562 0
M  V30 542 C 48.5452 1.8893 -0.737113 0
M  V30 543 C 48.8782 1.79837 0.732956 0
M  V30 544 O 48.1532 1.19525 1.5344 0
M  V30 545 C 48.4362 3.39607 -1.19745 0
M  V30 546 C 48.2892 3.57537 -2.72924 0
M  V30 547 C 49.6082 4.33069 -0.783526 0
M  V30 548 H 46.7272 0.686057 -0.269249 0
M  V30 549 H 49.3692 1.39797 -1.28673 0
M  V30 550 H 47.5192 3.81583 -0.729855 0
M  V30 551 H 49.1912 3.24688 -3.27682 0
M  V30 552 H 47.4342 3.00363 -3.12993 0
M  V30 553 H 48.1052 4.63238 -3.00191 0
M  V30 554 H 50.5812 3.98846 -1.18581 0
M  V30 555 H 49.4572 5.3707 -1.13343 0
M  V30 556 H 49.7182 4.40986 0.313681 0
M  V30 557 N 48.7773 0.814389 1.34928 0
M  V30 558 C 49.6873 0.231978 2.3345 0
M  V30 559 C 50.7033 -0.629139 1.62228 0
M  V30 560 O 51.8793 -0.539052 1.94052 0
M  V30 561 C 48.9443 -0.603482 3.41407 0
M  V30 562 C 48.0053 0.279037 4.28392 0
M  V30 563 C 47.2383 -0.516643 5.31193 0
M  V30 564 O 47.4613 -1.75068 5.4287 0
M  V30 565 O 46.3953 0.0965652 6.01823 0
M  V30 566 H 50.2213 1.04721 2.85074 0
M  V30 567 H 47.8063 0.576343 1.37836 0
M  V30 568 H 49.6883 -1.07908 4.0735 0
M  V30 569 H 48.3633 -1.39618 2.92042 0
M  V30 570 H 47.2703 0.801948 3.65403 0
M  V30 571 H 48.6033 1.03588 4.81176 0
M  V30 572 N 50.2554 -1.46986 0.568584 0
M  V30 573 C 51.5324 -1.95592 -0.0174074 0
M  V30 574 C 51.9124 -1.51124 -1.47393 0
M  V30 575 O 51.2604 -0.755329 -2.15655 0
M  V30 576 C 51.4704 -3.48719 0.139913 0
M  V30 577 C 52.8184 -4.246 0.000426376 0
M  V30 578 O 53.8424 -3.56135 0.0680316 0
M  V30 579 O 52.7014 -5.46302 -0.146988 0
M  V30 580 H 49.7954 -0.82498 -0.0577599 0
M  V30 581 H 52.3414 -1.57335 0.635909 0
M  V30 582 H 51.1134 -3.73927 1.15301 0
M  V30 583 H 50.7364 -3.93771 -0.550491 0
M  V30 584 N 51.7335 -0.305618 -1.54608 0
M  V30 585 C 52.9815 0.301701 -1.99835 0
M  V30 586 C 53.3025 1.54054 -1.19551 0
M  V30 587 O 52.5725 1.93702 -0.292658 0
M  V30 588 H 51.1525 0.114468 -0.738178 0
M  V30 589 H 53.8145 -0.418016 -1.90364 0
M  V30 590 H 52.9105 0.570548 -3.06841 0
M  V30 591 N 53.2116 1.57565 -0.0334293 0
M  V30 592 C 54.4886 1.83282 0.683163 0
M  V30 593 C 54.8686 0.91823 1.90084 0
M  V30 594 O 54.2166 -0.025113 2.28486 0
M  V30 595 C 54.4266 3.32599 1.0573 0
M  V30 596 C 55.7746 3.99179 1.44711 0
M  V30 597 O 56.7986 3.3712 1.15015 0
M  V30 598 O 55.6576 5.08565 2.0006 0
M  V30 599 H 52.7516 0.755869 0.335546 0
M  V30 600 H 55.2976 1.69589 -0.0614402 0
M  V30 601 H 54.0696 3.90834 0.190828 0
M  V30 602 H 53.6926 3.51415 1.85993 0
M  V30 603 N 54.6897 -0.239769 1.55765 0
M  V30 604 C 55.9357 -0.968234 1.78194 0
M  V30 605 C 56.2687 -1.84701 0.599938 0
M  V30 606 O 55.5437 -1.9031 -0.401524 0
M  V30 607 C 55.8267 -1.8227 3.10564 0
M  V30 608 C 55.6797 -0.971633 4.3918 0
M  V30 609 C 56.9987 -2.80388 3.39221 0
M  V30 610 H 54.1177 -0.350572 0.648281 0
M  V30 611 H 56.7597 -0.238259 1.885 0
M  V30 612 H 54.9097 -2.44507 3.01908 0
M  V30 613 H 56.5817 -0.367408 4.59835 0
M  V30 614 H 54.8247 -0.276276 4.32919 0
M  V30 615 H 55.4957 -1.60346 5.28198 0
M  V30 616 H 57.9717 -2.28287 3.47885 0
M  V30 617 H 56.8477 -3.3729 4.33044 0
M  V30 618 H 57.1087 -3.57212 2.60484 0
M  V30 619 N 56.1678 -1.49265 -0.50573 0
M  V30 620 C 57.4168 -1.57761 -1.25675 0
M  V30 621 C 57.7298 -0.267371 -1.93764 0
M  V30 622 O 58.9358 -0.230827 -2.70517 0
M  V30 623 C 57.3918 -2.78332 -2.28165 0
M  V30 624 C 56.9998 -4.16096 -1.66037 0
M  V30 625 C 58.7438 -2.96155 -3.04125 0
M  V30 626 C 56.6508 -5.27895 -2.6661 0
M  V30 627 H 55.5808 -0.587391 -0.472745 0
M  V30 628 H 58.2318 -1.75644 -0.53118 0
M  V30 629 H 56.6138 -2.53934 -3.03865 0
M  V30 630 H 57.7878 -4.50612 -0.963622 0
M  V30 631 H 56.1028 -4.03591 -1.02484 0
M  V30 632 H 58.6998 -3.76849 -3.79327 0
M  V30 633 H 59.0428 -2.06534 -3.61455 0
M  V30 634 H 59.5758 -3.2057 -2.35541 0
M  V30 635 H 56.3148 -6.1956 -2.14068 0
M  V30 636 H 55.8348 -4.97839 -3.34539 0
M  V30 637 H 57.5138 -5.57031 -3.29129 0
M  V30 638 N 57.6459 0.756429 -1.3826 0
M  V30 639 C 58.6089 1.85176 -1.35065 0
M  V30 640 C 59.6089 1.58818 -0.251703 0
M  V30 641 O 60.7989 1.66615 -0.508433 0
M  V30 642 C 57.9309 3.22596 -1.10201 0
M  V30 643 H 59.1239 1.89417 -2.3251 0
M  V30 644 H 56.6769 0.95783 -1.23512 0
M  V30 645 H 57.4119 3.24025 -0.133504 0
M  V30 646 H 57.1969 3.43122 -1.89762 0
M  V30 647 H 58.6869 4.02673 -1.10654 0
M  V30 648 N 59.124 1.23083 0.984299 0
M  V30 649 C 60.372 1.05848 1.72165 0
M  V30 650 C 60.693 -0.406049 1.90726 0
M  V30 651 O 59.963 -1.29139 1.47309 0
M  V30 652 H 58.543 0.388685 0.637913 0
M  V30 653 H 61.205 1.54736 1.18503 0
M  V30 654 H 60.301 1.54327 2.71274 0
M  V30 655 N 60.6021 -1.18246 1.0419 0
M  V30 656 C 61.8301 -1.92195 0.766072 0
M  V30 657 C 62.2451 -1.76247 -0.676933 0
M  V30 658 O 61.6021 -1.09293 -1.46155 0
M  V30 659 C 61.6531 -3.43568 1.12442 0
M  V30 660 O 61.3741 -3.59015 2.51078 0
M  V30 661 C 62.8751 -4.34613 0.873275 0
M  V30 662 H 60.0951 -0.610114 0.279288 0
M  V30 663 H 62.6391 -1.50007 1.38989 0
M  V30 664 H 60.7941 -3.8354 0.545542 0
M  V30 665 H 61.2081 -4.5273 2.64831 0
M  V30 666 H 62.6821 -5.39374 1.17385 0
M  V30 667 H 63.1591 -4.38781 -0.191909 0
M  V30 668 H 63.7651 -4.00341 1.43551 0
M  V30 669 N 62.0802 -0.821533 -1.34494 0
M  V30 670 C 63.3262 -0.409552 -1.98622 0
M  V30 671 C 63.6592 1.0244 -1.64984 0
M  V30 672 O 62.9342 1.71325 -0.920758 0
M  V30 673 C 63.2172 -0.610458 -3.54888 0
M  V30 674 C 63.0702 -2.09043 -3.98273 0
M  V30 675 C 64.3892 -0.0455379 -4.40076 0
M  V30 676 H 61.5082 -0.15028 -0.721516 0
M  V30 677 H 64.1502 -1.03384 -1.59411 0
M  V30 678 H 62.3002 -0.079044 -3.8842 0
M  V30 679 H 63.9722 -2.68537 -3.75081 0
M  V30 680 H 62.2152 -2.58139 -3.48635 0
M  V30 681 H 62.8862 -2.18182 -5.07051 0
M  V30 682 H 65.3622 -0.499557 -4.1309 0
M  V30 683 H 64.2382 -0.215922 -5.48475 0
M  V30 684 H 64.4992 1.04939 -4.29465 0
M  V30 685 N 63.5583 1.46682 -0.576371 0
M  V30 686 C 64.8043 2.02712 -0.0596221 0
M  V30 687 C 65.1373 1.44765 1.29448 0
M  V30 688 O 64.4123 0.610355 1.84675 0
M  V30 689 C 64.6953 3.60098 0.0129503 0
M  V30 690 C 64.5483 4.28441 -1.3696 0
M  V30 691 C 65.8673 4.34224 0.71678 0
M  V30 692 H 62.9863 0.736637 -0.0231407 0
M  V30 693 H 65.6283 1.74898 -0.742351 0
M  V30 694 H 63.7783 3.83926 0.594378 0
M  V30 695 H 65.4503 4.15896 -1.9957 0
M  V30 696 H 63.6933 3.8805 -1.93907 0
M  V30 697 H 64.3643 5.3716 -1.27135 0
M  V30 698 H 66.8403 4.15503 0.222908 0
M  V30 699 H 65.7163 5.43936 0.73657 0
M  V30 700 H 65.9773 4.04823 1.77682 0
M  V30 701 N 65.0364 0.313813 1.54444 0
M  V30 702 C 66.3134 -0.345447 1.92525 0
M  V30 703 C 66.6934 -1.70667 1.24242 0
M  V30 704 O 66.0414 -2.25273 0.382654 0
M  V30 705 C 66.2514 -0.44737 3.46121 0
M  V30 706 C 67.5994 -0.712238 4.18584 0
M  V30 707 O 68.6234 -0.530678 3.52225 0
M  V30 708 O 67.4824 -1.06183 5.36085 0
M  V30 709 H 64.5764 -0.195407 0.803583 0
M  V30 710 H 67.1224 0.362813 1.65776 0
M  V30 711 H 65.8944 0.509043 3.87975 0
M  V30 712 H 65.5174 -1.20359 3.78945 0
M  V30 713 N 66.5145 -1.57545 0.0417849 0
M  V30 714 C 67.7635 -1.91494 -0.633492 0
M  V30 715 C 68.0765 -0.921084 -1.72556 0
M  V30 716 O 69.2825 -1.15228 -2.45835 0
M  V30 717 C 67.7385 -3.40072 -1.17808 0
M  V30 718 C 67.3465 -4.47843 -0.118633 0
M  V30 719 C 69.0905 -3.8307 -1.82915 0
M  V30 720 C 66.9975 -5.87529 -0.675578 0
M  V30 721 H 65.9275 -0.714653 -0.24039 0
M  V30 722 H 68.5785 -1.83175 0.109148 0
M  V30 723 H 66.9605 -3.43364 -1.97274 0
M  V30 724 H 68.1345 -4.56128 0.654494 0
M  V30 725 H 66.4495 -4.14128 0.434414 0
M  V30 726 H 69.0465 -4.84794 -2.25563 0
M  V30 727 H 69.3895 -3.1881 -2.67705 0
M  V30 728 H 69.9225 -3.82255 -1.10119 0
M  V30 729 H 66.6615 -6.55362 0.134475 0
M  V30 730 H 66.1815 -5.82824 -1.4169 0
M  V30 731 H 67.8605 -6.36491 -1.1614 0
M  V30 732 N 67.9926 0.231505 -1.5589 0
M  V30 733 C 68.9026 1.308 -1.94752 0
M  V30 734 C 69.9186 1.51826 -0.849989 0
M  V30 735 O 71.0946 1.6515 -1.15271 0
M  V30 736 C 68.1596 2.63968 -2.24771 0
M  V30 737 C 67.2206 2.51331 -3.48039 0
M  V30 738 C 66.4536 3.78148 -3.76616 0
M  V30 739 O 66.6766 4.80722 -3.07022 0
M  V30 740 O 65.6106 3.75857 -4.70123 0
M  V30 741 H 69.4366 1.0083 -2.86474 0
M  V30 742 H 67.0216 0.433547 -1.42971 0
M  V30 743 H 68.9036 3.42633 -2.45318 0
M  V30 744 H 67.5786 2.9364 -1.36225 0
M  V30 745 H 66.4856 1.709 -3.32782 0
M  V30 746 H 67.8186 2.26601 -4.36936 0
M  V30 747 N 69.4707 1.49531 0.497807 0
M  V30 748 C 70.4207 1.62829 1.59596 0
M  V30 749 C 71.4047 0.483824 1.53453 0
M  V30 750 O 72.5967 0.736937 1.60929 0
M  V30 751 C 69.7257 1.7011 2.98191 0
M  V30 752 C 68.8117 2.90144 3.09317 0
M  V30 753 N 69.2027 4.1418 2.90324 0
M  V30 754 C 67.5007 2.88148 3.40422 0
M  V30 755 C 68.2017 4.94886 3.05717 0
M  V30 756 N 67.1777 4.28314 3.34736 0
M  V30 757 H 70.9797 2.56446 1.4357 0
M  V30 758 H 68.4937 1.46347 0.704001 0
M  V30 759 H 70.4907 1.77735 3.77115 0
M  V30 760 H 69.1507 0.776315 3.15283 0
M  V30 761 H 70.1617 4.44109 2.66436 0
M  V30 762 H 66.8387 2.05061 3.63671 0
M  V30 763 H 68.2287 6.03432 2.95499 0
M  V30 764 N 70.9488 -0.749086 1.3866 0
M  V30 765 C 72.2258 -1.4992 1.25632 0
M  V30 766 C 72.6058 -2.10633 -0.140317 0
M  V30 767 O 71.9538 -1.97437 -1.15025 0
M  V30 768 C 72.1638 -2.56195 2.36992 0
M  V30 769 C 73.5118 -3.22972 2.75634 0
M  V30 770 O 74.5358 -2.66502 2.36337 0
M  V30 771 O 73.3948 -4.25122 3.43415 0
M  V30 772 H 70.4888 -0.665067 0.491544 0
M  V30 773 H 73.0348 -0.784113 1.50498 0
M  V30 774 H 71.8068 -2.09612 3.30422 0
M  V30 775 H 71.4298 -3.35279 2.13714 0
M  V30 776 N 72.4269 -1.23603 -0.977757 0
M  V30 777 C 73.8379 -1.06424 -1.53398 0
M  V30 778 C 74.1889 0.367578 -1.92726 0
M  V30 779 O 73.3139 1.25465 -1.76316 0
M  V30 780 C 73.9089 -1.92568 -2.78753 0
M  V30 781 C 72.4679 -1.79642 -3.30765 0
M  V30 782 C 71.6149 -1.88111 -2.03739 0
M  V30 783 H 74.5659 -1.37227 -0.797152 0
M  V30 784 H 74.5869 -1.45203 -3.51705 0
M  V30 785 H 74.0989 -2.96771 -2.50098 0
M  V30 786 H 72.1999 -0.782325 -3.64294 0
M  V30 787 H 72.3129 -2.63174 -4.00345 0
M  V30 788 H 70.6769 -1.31723 -2.17994 0
M  V30 789 H 71.4599 -2.93875 -1.77461 0
M  V30 790 N 73.905 1.17692 -1.04816 0
M  V30 791 C 74.868 2.19787 -0.650117 0
M  V30 792 C 75.868 1.58044 0.296427 0
M  V30 793 O 77.058 1.74012 0.0808097 0
M  V30 794 C 74.19 3.40869 0.0456987 0
M  V30 795 H 75.383 2.56516 -1.5537 0
M  V30 796 H 72.936 1.31708 -0.841594 0
M  V30 797 H 73.671 3.09681 0.962726 0
M  V30 798 H 73.456 3.86928 -0.634727 0
M  V30 799 H 74.946 4.16445 0.310432 0
M  V30 800 N 75.3831 0.828654 1.34056 0
M  V30 801 C 76.7991 0.515135 1.51058 0
M  V30 802 C 76.9991 -0.959581 1.77184 0
M  V30 803 O 76.0551 -1.74382 1.82612 0
M  V30 804 C 77.3681 1.37963 2.67183 0
M  V30 805 C 78.9161 1.37735 2.81066 0
M  V30 806 C 79.3911 2.22645 4.00241 0
M  V30 807 N 80.8821 2.203 4.07458 0
M  V30 808 C 81.6171 2.82744 4.98842 0
M  V30 809 N 81.1131 3.54201 5.9541 0
M  V30 810 N 82.9061 2.72268 4.91759 0
M  V30 811 H 75.0571 1.78343 1.15358 0
M  V30 812 H 77.3201 0.760304 0.566252 0
M  V30 813 H 77.0261 2.42714 2.54525 0
M  V30 814 H 76.9001 1.0484 3.62338 0
M  V30 815 H 79.2871 0.337593 2.93163 0
M  V30 816 H 79.3681 1.74859 1.86703 0
M  V30 817 H 79.0121 3.26674 3.88905 0
M  V30 818 H 78.9421 1.82869 4.93829 0
M  V30 819 H 81.4331 1.68327 3.38341 0
M  V30 820 H 81.7461 3.9908 6.61782 0
M  V30 821 H 80.0911 3.58308 5.95517 0
M  V30 822 H 83.2821 2.16014 4.15278 0
M  V30 823 H 83.4551 3.21219 5.62781 0
M  V30 824 N 76.8612 -1.46375 0.584142 0
M  V30 825 C 78.0862 -2.07268 0.0740405 0
M  V30 826 C 78.5112 -1.42979 -1.22223 0
M  V30 827 O 77.8692 -0.514092 -1.73859 0
M  V30 828 C 77.9172 -3.60518 -0.0767769 0
M  V30 829 O 77.0212 -3.96533 -1.13292 0
M  V30 830 H 76.3622 -0.660961 0.0634524 0
M  V30 831 H 78.8922 -1.87991 0.807492 0
M  V30 832 H 78.9022 -4.07021 -0.282489 0
M  V30 833 H 77.5772 -4.06702 0.86986 0
M  V30 834 H 76.1542 -3.61738 -0.905553 0
M  V30 835 N 78.3393 -0.321999 -1.54275 0
M  V30 836 C 79.3023 0.531975 -2.22941 0
M  V30 837 C 80.3023 1.04478 -1.22234 0
M  V30 838 O 81.4923 0.937452 -1.46825 0
M  V30 839 C 78.6243 1.73874 -2.93224 0
M  V30 840 H 79.8173 -0.0682612 -2.99822 0
M  V30 841 H 77.3703 -0.0730644 -1.56129 0
M  V30 842 H 78.1053 2.37825 -2.20476 0
M  V30 843 H 77.8903 1.37847 -3.6707 0
M  V30 844 H 79.3803 2.34496 -3.45545 0
M  V30 845 N 79.8174 1.5752 -0.0501392 0
M  V30 846 C 81.2284 1.80271 0.485705 0
M  V30 847 C 81.5794 0.96228 1.70981 0
M  V30 848 O 80.7044 0.178578 2.15662 0
M  V30 849 C 81.2994 3.26957 0.887938 0
M  V30 850 C 79.8584 3.5063 1.36877 0
M  V30 851 C 79.0054 2.75165 0.343468 0
M  V30 852 H 81.9564 1.56281 -0.276028 0
M  V30 853 H 81.9774 3.37821 1.75093 0
M  V30 854 H 81.4894 3.881 -0.0031809 0
M  V30 855 H 79.5904 2.94766 2.27911 0
M  V30 856 H 79.7034 4.59343 1.36164 0
M  V30 857 H 78.0674 2.4127 0.816128 0
M  V30 858 H 78.8504 3.39034 -0.539548 0
M  V30 859 N 81.2955 -0.223234 1.56011 0
M  V30 860 C 82.5415 -0.949279 1.79211 0
M  V30 861 C 82.8745 -1.84054 0.619494 0
M  V30 862 O 82.1495 -1.90726 -0.381317 0
M  V30 863 C 82.4325 -1.78965 3.12479 0
M  V30 864 C 82.2855 -0.924997 4.40186 0
M  V30 865 C 83.6045 -2.76774 3.42175 0
M  V30 866 H 80.7235 -0.343676 0.651963 0
M  V30 867 H 83.3655 -0.218253 1.88742 0
M  V30 868 H 81.5155 -2.41291 3.04485 0
M  V30 869 H 83.1875 -0.318615 4.60198 0
M  V30 870 H 81.4305 -0.230344 4.33188 0
M  V30 871 H 82.1015 -1.54735 5.29869 0
M  V30 872 H 84.5775 -2.24584 3.50287 0
M  V30 873 H 83.4535 -3.32678 4.36597 0
M  V30 874 H 83.7145 -3.54429 2.64258 0
M  V30 875 N 82.7736 -1.49793 -0.48987 0
M  V30 876 C 83.7366 -1.66752 -1.57246 0
M  V30 877 C 84.7366 -0.538867 -1.51502 0
M  V30 878 O 85.9266 -0.805545 -1.54456 0
M  V30 879 C 83.0586 -1.67528 -2.96896 0
M  V30 880 H 84.2516 -2.63321 -1.43534 0
M  V30 881 H 81.8046 -1.38992 -0.714914 0
M  V30 882 H 82.5396 -0.725837 -3.16073 0
M  V30 883 H 82.3246 -2.49504 -3.02473 0
M  V30 884 H 83.8146 -1.82667 -3.7553 0
M  V30 885 N 84.2517 0.741722 -1.39055 0
M  V30 886 C 85.2147 1.83733 -1.37021 0
M  V30 887 C 86.2147 1.58542 -0.268534 0
M  V30 888 O 87.4047 1.66067 -0.526076 0
M  V30 889 C 84.5367 3.2141 -1.13617 0
M  V30 890 H 85.7297 1.86941 -2.34506 0
M  V30 891 H 83.2827 0.944676 -1.24521 0
M  V30 892 H 84.0177 3.23865 -0.167863 0
M  V30 893 H 83.8027 3.4109 -1.93391 0
M  V30 894 H 85.2927 4.01477 -1.14918 0
M  V30 895 N 85.7298 1.2412 0.971189 0
M  V30 896 C 86.9758 1.08041 1.71625 0
M  V30 897 C 87.3088 -0.380407 1.90438 0
M  V30 898 O 86.5838 -1.28127 1.46334 0
M  V30 899 C 86.8668 1.81682 3.10908 0
M  V30 900 C 86.7198 3.35493 2.99608 0
M  V30 901 C 88.0388 1.58671 4.10501 0
M  V30 902 H 85.1578 0.39388 0.622919 0
M  V30 903 H 87.7998 1.52743 1.13003 0
M  V30 904 H 85.9498 1.43684 3.60953 0
M  V30 905 H 87.6218 3.83068 2.57015 0
M  V30 906 H 85.8648 3.64052 2.35899 0
M  V30 907 H 86.5358 3.82217 3.98264 0
M  V30 908 H 89.0118 1.91719 3.69301 0
M  V30 909 H 87.8878 2.1266 5.06031 0
M  V30 910 H 88.1488 0.524161 4.38982 0
M  V30 911 N 87.2079 -1.17134 1.05439 0
M  V30 912 C 88.1179 -2.24878 0.668365 0
M  V30 913 C 89.1339 -1.71186 -0.311687 0
M  V30 914 O 90.3099 -2.00738 -0.163161 0
M  V30 915 C 87.3749 -3.46662 0.051648 0
M  V30 916 C 86.4359 -4.15429 1.08246 0
M  V30 917 C 85.6689 -5.31399 0.495082 0
M  V30 918 O 85.8919 -5.66153 -0.694743 0
M  V30 919 O 84.8259 -5.89187 1.23056 0
M  V30 920 H 88.6519 -2.60189 1.56637 0
M  V30 921 H 86.2369 -1.24482 0.826104 0
M  V30 922 H 88.1189 -4.20394 -0.290966 0
M  V30 923 H 86.7939 -3.13142 -0.819971 0
M  V30 924 H 85.7009 -3.43704 1.47711 0
M  V30 925 H 87.0339 -4.52982 1.92532 0
M  V30 926 N 88.686 -0.835752 -1.33615 0
M  V30 927 C 89.933 -0.429959 -1.97883 0
M  V30 928 C 90.261 1.01006 -1.66217 0
M  V30 929 O 89.516 1.72047 -0.93265 0
M  V30 930 C 89.815 -0.593925 -3.52431 0
M  V30 931 C 89.481 -2.00158 -4.04039 0
M  V30 932 C 88.143 -2.38662 -4.17844 0
M  V30 933 C 90.495 -2.92117 -4.31644 0
M  V30 934 C 87.823 -3.68435 -4.56588 0
M  V30 935 C 90.175 -4.21368 -4.71838 0
M  V30 936 C 88.839 -4.59833 -4.83849 0
M  V30 937 H 88.109 -0.157333 -0.724104 0
M  V30 938 H 90.756 -1.06217 -1.59343 0
M  V30 939 H 89.061 0.121619 -3.91611 0
M  V30 940 H 90.758 -0.260282 -4.00154 0
M  V30 941 H 87.348 -1.69252 -3.93766 0
M  V30 942 H 91.532 -2.63608 -4.20505 0
M  V30 943 H 86.788 -3.98046 -4.64079 0
M  V30 944 H 90.962 -4.92703 -4.92155 0
M  V30 945 H 88.589 -5.60438 -5.13627 0
M  V30 946 N 90.1641 1.46063 -0.591896 0
M  V30 947 C 91.0741 2.34192 0.13831 0
M  V30 948 C 92.0901 1.50305 0.876608 0
M  V30 949 O 93.2661 1.8315 0.837728 0
M  V30 950 C 90.3311 3.27656 1.13326 0
M  V30 951 C 89.3921 4.27445 0.39863 0
M  V30 952 C 88.6251 5.16443 1.34618 0
M  V30 953 O 88.8481 5.08553 2.58321 0
M  V30 954 O 87.7821 5.95843 0.851768 0
M  V30 955 H 91.6081 2.98002 -0.58552 0
M  V30 956 H 89.1931 1.45188 -0.352239 0
M  V30 957 H 91.0751 3.85291 1.70671 0
M  V30 958 H 89.7501 2.6643 1.83839 0
M  V30 959 H 88.6571 3.73471 -0.216895 0
M  V30 960 H 89.9901 4.91482 -0.265709 0
M  V30 961 N 91.6422 0.330177 1.54103 0
M  V30 962 C 92.9192 -0.325007 1.92881 0
M  V30 963 C 93.2992 -1.6934 1.26045 0
M  V30 964 O 92.6472 -2.24855 0.406526 0
M  V30 965 C 92.8572 -0.410634 3.46576 0
M  V30 966 C 94.2052 -0.667801 4.19316 0
M  V30 967 O 95.2292 -0.49329 3.52768 0
M  V30 968 O 94.0882 -1.00491 5.37181 0
M  V30 969 H 91.1822 -0.186873 0.80561 0
M  V30 970 H 93.7282 0.380376 1.65382 0
M  V30 971 H 92.5002 0.550164 3.87413 0
M  V30 972 H 92.1232 -1.16333 3.802 0
M  V30 973 N 93.1203 -1.57491 0.0584922 0
M  V30 974 C 94.3683 -1.92597 -0.612436 0
M  V30 975 C 94.6893 -0.938162 -1.70949 0
M  V30 976 O 93.9593 0.0158301 -1.95894 0
M  V30 977 H 92.5393 -0.710964 -0.229214 0
M  V30 978 H 95.2013 -1.94571 0.113218 0
M  V30 979 H 94.2973 -2.94038 -1.04633 0
M  V30 980 N 94.5984 0.214957 -1.56127 0
M  V30 981 C 95.8754 0.963093 -1.70247 0
M  V30 982 C 96.2554 2.02166 -0.60764 0
M  V30 983 O 95.6034 2.25244 0.384385 0
M  V30 984 C 95.8134 1.56756 -3.11815 0
M  V30 985 C 97.1614 2.0573 -3.7143 0
M  V30 986 O 98.1854 1.66637 -3.14818 0
M  V30 987 O 97.0444 2.77603 -4.70743 0
M  V30 988 H 94.1384 0.450321 -0.693643 0
M  V30 989 H 96.6844 0.206219 -1.68442 0
M  V30 990 H 95.4564 0.803533 -3.82961 0
M  V30 991 H 95.0794 2.3898 -3.17765 0
M  V30 992 N 96.0765 1.50051 0.48192 0
M  V30 993 C 97.4925 1.37237 0.814756 0
M  V30 994 C 97.6925 0.420109 1.97072 0
M  V30 995 O 96.7485 -0.141246 2.52105 0
M  V30 996 C 98.0615 2.78375 1.13701 0
M  V30 997 C 99.6095 2.87213 1.2441 0
M  V30 998 C 100.084 4.29161 1.59954 0
M  V30 999 N 101.575 4.32061 1.66967 0
M  V30 1000 C 102.31 5.38879 1.95952 0
M  V30 1001 N 101.806 6.55918 2.23031 0
M  V30 1002 N 103.599 5.26312 1.97363 0
M  V30 1003 H 95.7505 2.10546 -0.28005 0
M  V30 1004 H 98.0135 0.945921 -0.0627454 0
M  V30 1005 H 97.7195 3.49845 0.360787 0
M  V30 1006 H 97.5935 3.14941 2.07586 0
M  V30 1007 H 99.9805 2.15969 2.01101 0
M  V30 1008 H 100.061 2.54204 0.285299 0
M  V30 1009 H 99.7055 5.00938 0.838067 0
M  V30 1010 H 99.6355 4.59648 2.56966 0
M  V30 1011 H 102.126 3.47661 1.48123 0
M  V30 1012 H 102.439 7.33139 2.44391 0
M  V30 1013 H 100.784 6.59112 2.20447 0
M  V30 1014 H 103.975 4.33876 1.75697 0
M  V30 1015 H 104.148 6.09649 2.19618 0
M  V30 1016 N 97.5546 -0.734337 1.39446 0
M  V30 1017 C 98.9706 -1.03997 1.21065 0
M  V30 1018 C 99.1706 -2.01369 0.0727019 0
M  V30 1019 O 98.2266 -2.45856 -0.575426 0
M  V30 1020 C 99.5396 -1.60163 2.54496 0
M  V30 1021 C 101.088 -1.7224 2.61347 0
M  V30 1022 C 101.563 -2.31814 3.95002 0
M  V30 1023 N 103.054 -2.39223 3.96644 0
M  V30 1024 C 103.789 -2.86258 4.96834 0
M  V30 1025 N 103.285 -3.33184 6.07421 0
M  V30 1026 N 105.078 -2.85473 4.84213 0
M  V30 1027 H 97.2286 -0.0885624 2.12215 0
M  V30 1028 H 99.4916 -0.10191 0.942506 0
M  V30 1029 H 99.1976 -0.960811 3.38321 0
M  V30 1030 H 99.0716 -2.5896 2.74262 0
M  V30 1031 H 101.459 -2.35443 1.77906 0
M  V30 1032 H 101.54 -0.720939 2.4543 0
M  V30 1033 H 101.184 -1.69238 4.78875 0
M  V30 1034 H 101.114 -3.32638 4.08239 0
M  V30 1035 H 103.605 -2.06057 3.16779 0
M  V30 1036 H 103.918 -3.67586 6.7978 0
M  V30 1037 H 102.263 -3.31191 6.11013 0
M  V30 1038 H 105.454 -2.48136 3.96921 0
M  V30 1039 H 105.627 -3.21814 5.62441 0
M  V30 1040 N 99.0327 -1.24633 -0.964593 0
M  V30 1041 C 99.9627 -1.06611 -2.07741 0
M  V30 1042 C 100.944 0.0218666 -1.70086 0
M  V30 1043 O 102.129 -0.145793 -1.93652 0
M  V30 1044 C 99.2587 -0.673444 -3.40708 0
M  V30 1045 C 98.2127 -1.71054 -3.92332 0
M  V30 1046 C 97.5387 -1.17285 -5.21678 0
M  V30 1047 C 98.8387 -3.10718 -4.19824 0
M  V30 1048 H 100.533 -1.99693 -2.23076 0
M  V30 1049 H 98.0787 -0.96152 -1.07195 0
M  V30 1050 H 100.032 -0.534345 -4.17998 0
M  V30 1051 H 98.7557 0.293073 -3.25282 0
M  V30 1052 H 97.4147 -1.83791 -3.17201 0
M  V30 1053 H 97.0627 -0.196847 -5.02615 0
M  V30 1054 H 96.7627 -1.86592 -5.57187 0
M  V30 1055 H 98.2867 -1.04593 -6.01575 0
M  V30 1056 H 99.7007 -3.01192 -4.87808 0
M  V30 1057 H 98.0977 -3.77406 -4.66567 0
M  V30 1058 H 99.1677 -3.58524 -3.26479 0
M  V30 1059 N 100.511 1.16574 -1.06058 0
M  V30 1060 C 101.76 1.86385 -0.770944 0
M  V30 1061 C 102.073 1.82448 0.705129 0
M  V30 1062 O 103.279 2.47815 1.10905 0
M  V30 1063 C 101.735 3.34466 -1.32893 0
M  V30 1064 C 101.343 3.46883 -2.83507 0
M  V30 1065 C 103.087 4.09548 -1.11672 0
M  V30 1066 C 100.994 4.89036 -3.32562 0
M  V30 1067 H 99.9238 0.698181 -0.284709 0
M  V30 1068 H 102.575 1.31583 -1.27899 0
M  V30 1069 H 100.957 3.88859 -0.748662 0
M  V30 1070 H 102.131 3.02663 -3.47465 0
M  V30 1071 H 100.446 2.85232 -3.03368 0
M  V30 1072 H 103.043 5.14434 -1.45814 0
M  V30 1073 H 103.386 4.16264 -0.0549535 0
M  V30 1074 H 103.919 3.61387 -1.66265 0
M  V30 1075 H 100.658 4.87499 -4.38207 0
M  V30 1076 H 100.178 5.3389 -2.73351 0
M  V30 1077 H 101.857 5.57843 -3.2775 0
M  V30 1078 N 101.989 0.842826 1.3317 0
M  V30 1079 C 102.919 0.294028 2.31641 0
M  V30 1080 C 103.9 -0.600401 1.59151 0
M  V30 1081 O 105.085 -0.523124 1.87022 0
M  V30 1082 C 102.215 -0.528416 3.43257 0
M  V30 1083 C 101.169 0.27056 4.27144 0
M  V30 1084 C 100.495 -0.675881 5.30411 0
M  V30 1085 C 101.795 1.48981 5.00602 0
M  V30 1086 H 103.489 1.11681 2.77791 0
M  V30 1087 H 101.035 0.538478 1.33553 0
M  V30 1088 H 102.988 -0.922674 4.11175 0
M  V30 1089 H 101.712 -1.38445 2.95805 0
M  V30 1090 H 100.371 0.646427 3.60856 0
M  V30 1091 H 100.019 -1.52842 4.79216 0
M  V30 1092 H 99.7189 -0.145374 5.8742 0
M  V30 1093 H 101.243 -1.06757 6.01195 0
M  V30 1094 H 102.657 1.16849 5.61266 0
M  V30 1095 H 101.054 1.95739 5.6728 0
M  V30 1096 H 102.124 2.25746 4.29147 0
M  V30 1097 N 103.467 -1.45747 0.599634 0
M  V30 1098 C 104.43 -2.28917 -0.113835 0
M  V30 1099 C 105.43 -1.3933 -0.802729 0
M  V30 1100 O 106.62 -1.61534 -0.652103 0
M  V30 1101 C 103.752 -3.20152 -1.17114 0
M  V30 1102 H 104.945 -2.93478 0.617289 0
M  V30 1103 H 102.498 -1.52137 0.358327 0
M  V30 1104 H 103.233 -2.60374 -1.93329 0
M  V30 1105 H 103.018 -3.86133 -0.681468 0
M  V30 1106 H 104.508 -3.82708 -1.67105 0
M  V30 1107 N 104.945 -0.338344 -1.53925 0
M  V30 1108 C 106.356 0.146651 -1.86123 0
M  V30 1109 C 106.707 1.5042 -1.2597 0
M  V30 1110 O 105.832 2.08723 -0.571294 0
M  V30 1111 C 106.427 0.272879 -3.37699 0
M  V30 1112 C 104.986 0.702103 -3.69794 0
M  V30 1113 C 104.133 -0.167304 -2.76795 0
M  V30 1114 H 107.084 -0.558123 -1.48562 0
M  V30 1115 H 107.105 1.10128 -3.64214 0
M  V30 1116 H 106.617 -0.715307 -3.81451 0
M  V30 1117 H 104.718 1.6995 -3.31584 0
M  V30 1118 H 104.831 0.495604 -4.7653 0
M  V30 1119 H 103.195 0.359527 -2.5215 0
M  V30 1120 H 103.978 -1.15253 -3.23375 0
M  V30 1121 N 106.423 1.57458 -0.0668435 0
M  V30 1122 C 107.333 2.15937 0.916975 0
M  V30 1123 C 108.349 1.12123 1.33058 0
M  V30 1124 O 109.525 1.44366 1.40429 0
M  V30 1125 C 106.59 2.70547 2.16807 0
M  V30 1126 C 105.651 3.89215 1.81135 0
M  V30 1127 C 104.884 4.41211 3.0028 0
M  V30 1128 O 105.107 3.92225 4.14144 0
M  V30 1129 O 104.041 5.32605 2.80384 0
M  V30 1130 H 107.867 3.00354 0.449561 0
M  V30 1131 H 105.452 1.48584 0.155949 0
M  V30 1132 H 107.334 3.0557 2.90181 0
M  V30 1133 H 106.009 1.89192 2.62656 0
M  V30 1134 H 104.916 3.59054 1.05028 0
M  V30 1135 H 106.249 4.71848 1.40073 0
M  V30 1136 N 107.901 -0.206675 1.56239 0
M  V30 1137 C 109.149 -0.927007 1.79586 0
M  V30 1138 C 109.47 -1.8427 0.637929 0
M  V30 1139 O 108.74 -1.92849 -0.344398 0
M  V30 1140 H 107.32 -0.345292 0.662407 0
M  V30 1141 H 109.982 -0.21496 1.93711 0
M  V30 1142 H 109.078 -1.52501 2.72305 0
M  V30 1143 N 109.379 -1.50304 -0.473955 0
M  V30 1144 C 110.625 -1.61389 -1.22806 0
M  V30 1145 C 110.958 -0.311955 -1.91678 0
M  V30 1146 O 110.233 0.686384 -1.81986 0
M  V30 1147 C 110.516 -2.79219 -2.27396 0
M  V30 1148 C 110.369 -4.19286 -1.62848 0
M  V30 1149 C 111.688 -2.92614 -3.28732 0
M  V30 1150 H 108.807 -0.587399 -0.445119 0
M  V30 1151 H 111.449 -1.82681 -0.522265 0
M  V30 1152 H 109.599 -2.61195 -2.87592 0
M  V30 1153 H 111.271 -4.48892 -1.06271 0
M  V30 1154 H 109.514 -4.23677 -0.931693 0
M  V30 1155 H 110.185 -4.97655 -2.38838 0
M  V30 1156 H 112.661 -3.09105 -2.78556 0
M  V30 1157 H 111.537 -3.76688 -3.99246 0
M  V30 1158 H 111.798 -2.03107 -3.92683 0
M  V30 1159 N 110.857 0.726932 -1.39834 0
M  V30 1160 C 112.105 1.4837 -1.37225 0
M  V30 1161 C 112.426 1.94979 0.0284857 0
M  V30 1162 O 111.696 1.69555 0.981213 0
M  V30 1163 H 110.276 0.55043 -0.505011 0
M  V30 1164 H 112.938 0.862468 -1.74778 0
M  V30 1165 H 112.034 2.36198 -2.04003 0
M  V30 1166 N 112.336 1.25143 0.95797 0
M  V30 1167 C 113.582 1.09855 1.70469 0
M  V30 1168 C 113.915 -0.360187 1.90831 0
M  V30 1169 O 113.19 -1.26568 1.47685 0
M  V30 1170 C 113.473 1.8497 3.08963 0
M  V30 1171 C 113.326 3.38652 2.96032 0
M  V30 1172 C 114.645 1.63016 4.08795 0
M  V30 1173 H 111.764 0.400465 0.618706 0
M  V30 1174 H 114.406 1.53933 1.11376 0
M  V30 1175 H 112.556 1.47505 3.59409 0
M  V30 1176 H 114.228 3.85772 2.52938 0
M  V30 1177 H 112.471 3.66534 2.32025 0
M  V30 1178 H 113.142 3.8642 3.94187 0
M  V30 1179 H 115.618 1.95625 3.67247 0
M  V30 1180 H 114.494 2.18015 5.03747 0
M  V30 1181 H 114.755 0.570692 4.38401 0
M  V30 1182 N 113.814 -1.1601 1.06675 0
M  V30 1183 C 115.062 -1.86264 0.784229 0
M  V30 1184 C 115.383 -1.82328 -0.691488 0
M  V30 1185 O 114.653 -1.25947 -1.50047 0
M  V30 1186 H 113.233 -0.689621 0.28711 0
M  V30 1187 H 115.895 -1.40664 1.34906 0
M  V30 1188 H 114.991 -2.91595 1.11259 0
M  V30 1189 N 115.292 -0.849877 -1.32721 0
M  V30 1190 C 116.569 -0.372405 -1.92022 0
M  V30 1191 C 116.949 1.1435 -1.77447 0
M  V30 1192 O 116.297 1.96296 -1.16962 0
M  V30 1193 C 116.507 -0.831482 -3.3895 0
M  V30 1194 C 117.855 -0.845882 -4.16089 0
M  V30 1195 O 118.879 -0.775806 -3.47649 0
M  V30 1196 O 117.738 -0.943753 -5.38289 0
M  V30 1197 H 114.832 -0.107667 -0.819961 0
M  V30 1198 H 117.378 -0.93646 -1.41522 0
M  V30 1199 H 116.15 -1.87448 -3.4348 0
M  V30 1200 H 115.773 -0.24461 -3.96847 0
M  V30 1201 N 116.77 1.45427 -0.607355 0
M  V30 1202 C 117.68 2.34325 0.113463 0
M  V30 1203 C 118.696 1.51226 0.860617 0
M  V30 1204 O 119.872 1.84029 0.818255 0
M  V30 1205 C 116.937 3.28839 1.09844 0
M  V30 1206 C 115.998 4.27844 0.353271 0
M  V30 1207 C 115.231 5.17842 1.29133 0
M  V30 1208 O 115.454 5.11264 2.52913 0
M  V30 1209 O 114.388 5.96713 0.788523 0
M  V30 1210 H 118.214 2.97364 -0.617094 0
M  V30 1211 H 115.799 1.44807 -0.367619 0
M  V30 1212 H 117.681 3.8708 1.66575 0
M  V30 1213 H 116.356 2.68365 1.81003 0
M  V30 1214 H 115.263 3.7322 -0.256494 0
M  V30 1215 H 116.596 4.91173 -0.317822 0
M  V30 1216 N 118.248 0.346503 1.53744 0
M  V30 1217 C 119.178 -0.501193 2.28058 0
M  V30 1218 C 120.159 -1.10014 1.29734 0
M  V30 1219 O 121.344 -1.12097 1.58581 0
M  V30 1220 C 118.474 -1.65078 3.05559 0
M  V30 1221 C 117.428 -1.18003 4.11411 0
M  V30 1222 C 116.754 -2.41837 4.76884 0
M  V30 1223 C 118.054 -0.278394 5.21558 0
M  V30 1224 H 119.748 0.11875 2.99164 0
M  V30 1225 H 117.294 0.0585531 1.43881 0
M  V30 1226 H 119.247 -2.25028 3.56287 0
M  V30 1227 H 117.971 -2.29767 2.32109 0
M  V30 1228 H 116.63 -0.603331 3.61601 0
M  V30 1229 H 116.278 -3.0494 4.00026 0
M  V30 1230 H 115.978 -2.1102 5.48402 0
M  V30 1231 H 117.502 -3.02508 5.30397 0
M  V30 1232 H 118.916 -0.784823 5.67903 0
M  V30 1233 H 117.313 -0.0619707 6.00068 0
M  V30 1234 H 118.383 0.684677 4.80042 0
M  V30 1235 N 119.726 -1.57421 0.075193 0
M  V30 1236 C 120.658 -2.09904 -0.920483 0
M  V30 1237 C 121.671 -1.03191 -1.25918 0
M  V30 1238 O 122.86 -1.30695 -1.21577 0
M  V30 1239 C 119.96 -2.54726 -2.23534 0
M  V30 1240 C 119.133 -3.8505 -2.07498 0
M  V30 1241 C 118.192 -4.15929 -3.22319 0
M  V30 1242 O 117.218 -4.85474 -2.9716 0
M  V30 1243 N 118.42 -3.69745 -4.47514 0
M  V30 1244 H 121.185 -2.95954 -0.472359 0
M  V30 1245 H 118.746 -1.61523 -0.110444 0
M  V30 1246 H 120.738 -2.72443 -2.9926 0
M  V30 1247 H 119.308 -1.73795 -2.59835 0
M  V30 1248 H 118.528 -3.76679 -1.16219 0
M  V30 1249 H 119.816 -4.70348 -1.94038 0
M  V30 1250 H 119.214 -3.13569 -4.7084 0
M  V30 1251 H 117.771 -3.92655 -5.20255 0
M  V30 1252 N 121.204 0.198386 -1.56346 0
M  V30 1253 C 122.45 0.920648 -1.80698 0
M  V30 1254 C 122.783 1.83045 -0.648697 0
M  V30 1255 O 122.058 1.91308 0.350925 0
M  V30 1256 C 122.341 1.73971 -3.15287 0
M  V30 1257 C 122.194 0.85485 -4.41602 0
M  V30 1258 C 123.513 2.71296 -3.46535 0
M  V30 1259 H 120.632 0.333261 -0.657348 0
M  V30 1260 H 123.274 0.188198 -1.89066 0
M  V30 1261 H 121.424 2.36416 -3.08285 0
M  V30 1262 H 123.096 0.245362 -4.60647 0
M  V30 1263 H 121.339 0.161398 -4.335 0
M  V30 1264 H 122.01 1.46286 -5.32264 0
M  V30 1265 H 124.486 2.18983 -3.53816 0
M  V30 1266 H 123.362 3.2569 -4.41834 0
M  V30 1267 H 123.623 3.5018 -2.69864 0
M  V30 1268 N 122.682 1.50554 0.465978 0
M  V30 1269 C 123.93 1.61479 1.21528 0
M  V30 1270 C 124.251 0.319596 1.92363 0
M  V30 1271 O 123.521 -0.663194 1.84333 0
M  V30 1272 H 122.101 0.595055 0.451573 0
M  V30 1273 H 124.763 1.87355 0.53704 0
M  V30 1274 H 123.859 2.42846 1.96042 0
M  V30 1275 N 124.16 -0.719506 1.40217 0
M  V30 1276 C 125.406 -1.48152 1.38488 0
M  V30 1277 C 125.739 -1.94195 -0.0141867 0
M  V30 1278 O 125.014 -1.67884 -0.982096 0
M  V30 1279 C 125.297 -2.71035 2.37091 0
M  V30 1280 C 125.15 -2.30912 3.86005 0
M  V30 1281 C 126.469 -3.73182 2.33288 0
M  V30 1282 H 123.588 -0.537395 0.504357 0
M  V30 1283 H 126.23 -0.821472 1.71324 0
M  V30 1284 H 124.38 -3.27352 2.0922 0
M  V30 1285 H 126.052 -1.80107 4.24687 0
M  V30 1286 H 124.295 -1.62958 4.02029 0
M  V30 1287 H 124.966 -3.18978 4.50508 0
M  V30 1288 H 127.442 -3.26485 2.57966 0
M  V30 1289 H 126.318 -4.56806 3.04334 0
M  V30 1290 H 126.579 -4.21202 1.34317 0
M  V30 1291 N 125.638 -1.25649 -0.95132 0
M  V30 1292 C 126.863 -1.13443 -1.73624 0
M  V30 1293 C 127.288 0.307565 -1.85568 0
M  V30 1294 O 126.646 1.22282 -1.33854 0
M  V30 1295 C 126.694 -1.79723 -3.12621 0
M  V30 1296 O 125.798 -1.07912 -3.98031 0
M  V30 1297 H 125.139 -0.395872 -0.533086 0
M  V30 1298 H 127.669 -1.66276 -1.1922 0
M  V30 1299 H 127.679 -1.86141 -3.63064 0
M  V30 1300 H 126.354 -2.84633 -3.03244 0
M  V30 1301 H 124.931 -1.09398 -3.56492 0
M  V30 1302 N 127.117 1.15442 -1.07289 0
M  V30 1303 C 128.08 2.18358 -0.696591 0
M  V30 1304 C 129.08 1.58637 0.262837 0
M  V30 1305 O 130.27 1.74145 0.0438809 0
M  V30 1306 C 127.402 3.4089 -0.0266151 0
M  V30 1307 H 128.595 2.53162 -1.60776 0
M  V30 1308 H 126.148 1.29893 -0.869342 0
M  V30 1309 H 126.883 3.11653 0.896822 0
M  V30 1310 H 126.668 3.85495 -0.716657 0
M  V30 1311 H 128.158 4.17009 0.222028 0
M  V30 1312 N 128.595 0.856903 1.32268 0
M  V30 1313 C 129.505 0.306131 2.32594 0
M  V30 1314 C 130.521 -0.577209 1.64147 0
M  V30 1315 O 131.697 -0.477043 1.95669 0
M  V30 1316 C 128.762 -0.494561 3.43154 0
M  V30 1317 C 127.823 0.415186 4.27288 0
M  V30 1318 C 127.056 -0.347387 5.32568 0
M  V30 1319 O 127.279 -1.57708 5.48165 0
M  V30 1320 O 126.213 0.287982 6.01211 0
M  V30 1321 H 130.039 1.13737 2.81598 0
M  V30 1322 H 127.624 0.619902 1.35932 0
M  V30 1323 H 129.506 -0.948944 4.10576 0
M  V30 1324 H 128.181 -1.30257 2.96336 0
M  V30 1325 H 127.088 0.917793 3.62667 0
M  V30 1326 H 128.421 1.18844 4.77637 0
M  V30 1327 N 130.073 -1.45103 0.615059 0
M  V30 1328 C 131.322 -2.01396 0.110718 0
M  V30 1329 C 131.635 -1.48834 -1.26916 0
M  V30 1330 O 132.841 -1.97152 -1.86664 0
M  V30 1331 C 131.297 -3.59599 0.14723 0
M  V30 1332 C 130.905 -4.21158 1.52743 0
M  V30 1333 C 132.649 -4.23428 -0.30148 0
M  V30 1334 C 130.556 -5.71535 1.51992 0
M  V30 1335 H 129.486 -0.753061 0.0376241 0
M  V30 1336 H 132.137 -1.66494 0.77149 0
M  V30 1337 H 130.519 -3.91724 -0.580339 0
M  V30 1338 H 131.693 -4.00594 2.2773 0
M  V30 1339 H 130.008 -3.69552 1.91886 0
M  V30 1340 H 132.605 -5.33703 -0.326392 0
M  V30 1341 H 132.948 -3.94629 -1.32565 0
M  V30 1342 H 133.481 -3.96047 0.373065 0
M  V30 1343 H 130.22 -6.05044 2.52193 0
M  V30 1344 H 129.74 -5.94268 0.81274 0
M  V30 1345 H 131.419 -6.34873 1.24681 0
M  V30 1346 N 131.551 -0.354651 -1.53558 0
M  V30 1347 C 132.514 0.484566 -2.24019 0
M  V30 1348 C 133.514 1.01861 -1.24422 0
M  V30 1349 O 134.704 0.906097 -1.4878 0
M  V30 1350 C 131.836 1.67615 -2.96847 0
M  V30 1351 H 133.029 -0.131843 -2.9961 0
M  V30 1352 H 130.582 -0.106165 -1.55939 0
M  V30 1353 H 131.317 2.33095 -2.25471 0
M  V30 1354 H 131.102 1.30029 -3.69912 0
M  V30 1355 H 132.592 2.27114 -3.50441 0
M  V30 1356 N 133.029 1.57378 -0.0835403 0
M  V30 1357 C 134.44 1.81261 0.447358 0
M  V30 1358 C 134.791 0.998331 1.68902 0
M  V30 1359 O 133.916 0.224282 2.15235 0
M  V30 1360 C 134.511 3.28767 0.818386 0
M  V30 1361 C 133.07 3.53455 1.29409 0
M  V30 1362 C 132.217 2.75831 0.285024 0
M  V30 1363 H 135.168 1.5566 -0.309115 0
M  V30 1364 H 135.189 3.41459 1.67887 0
M  V30 1365 H 134.701 3.88006 -0.0855019 0
M  V30 1366 H 132.802 2.99534 2.21608 0
M  V30 1367 H 132.915 4.62128 1.2639 0
M  V30 1368 H 131.279 2.42947 0.764767 0
M  V30 1369 H 132.062 3.37813 -0.611341 0
M  V30 1370 N 134.507 -0.190092 1.56449 0
M  V30 1371 C 135.755 -0.907908 1.80559 0
M  V30 1372 C 136.076 -1.83583 0.657438 0
M  V30 1373 O 135.346 -1.93203 -0.323924 0
M  V30 1374 H 133.926 -0.338247 0.666032 0
M  V30 1375 H 136.588 -0.194403 1.93928 0
M  V30 1376 H 135.684 -1.49604 2.73907 0
M  V30 1377 N 135.985 -1.50799 -0.457987 0
M  V30 1378 C 136.933 -1.71162 -1.575 0
M  V30 1379 C 137.927 -0.577592 -1.59249 0
M  V30 1380 O 139.133 -0.758443 -1.63241 0
M  V30 1381 H 135.508 -0.540468 -0.522875 0
M  V30 1382 H 137.479 -2.64837 -1.37492 0
M  V30 1383 C 136.228 -1.83496 -2.95338 0
M  V30 1384 H 135.551 -2.70153 -2.94716 0
M  V30 1385 H 136.991 -2.01765 -3.72917 0
M  V30 1386 C 135.45 -0.589694 -3.31699 0
M  V30 1387 O 135.98 0.265163 -4.00824 0
M  V30 1388 N 134.186 -0.439845 -2.87252 0
M  V30 1389 H 133.733 -1.13655 -2.31172 0
M  V30 1390 H 133.691 0.392159 -3.11945 0
M  V30 1391 N 137.463 0.71206 -1.40597 0
M  V30 1392 C 138.691 1.50111 -1.42388 0
M  V30 1393 C 139.106 1.88784 -0.0245395 0
M  V30 1394 O 138.463 1.55681 0.952351 0
M  V30 1395 C 138.514 2.7742 -2.31776 0
M  V30 1396 O 138.235 2.40382 -3.66262 0
M  V30 1397 C 139.736 3.7129 -2.42196 0
M  V30 1398 H 136.956 0.46314 -0.485533 0
M  V30 1399 H 139.5 0.878068 -1.8469 0
M  V30 1400 H 137.655 3.36001 -1.92827 0
M  V30 1401 H 138.069 3.22324 -4.13772 0
M  V30 1402 H 139.543 4.57448 -3.08943 0
M  V30 1403 H 140.02 4.14641 -1.44809 0
M  V30 1404 H 140.626 3.18619 -2.81712 0
M  V30 1405 N 138.941 1.26152 0.944643 0
M  V30 1406 C 139.871 1.09902 2.06019 0
M  V30 1407 C 140.852 0.00519538 1.70099 0
M  V30 1408 O 142.037 0.176583 1.93396 0
M  V30 1409 C 139.167 0.727562 3.39594 0
M  V30 1410 C 138.121 1.77274 3.89561 0
M  V30 1411 C 137.447 1.25569 5.19747 0
M  V30 1412 C 138.747 3.17357 4.14827 0
M  V30 1413 H 140.441 2.03217 2.19871 0
M  V30 1414 H 137.987 0.978452 1.05652 0
M  V30 1415 H 139.94 0.600777 4.17095 0
M  V30 1416 H 138.664 -0.241287 3.25707 0
M  V30 1417 H 137.323 1.88814 3.14237 0
M  V30 1418 H 136.971 0.276783 5.02238 0
M  V30 1419 H 136.671 1.95433 5.54148 0
M  V30 1420 H 138.195 1.1415 5.99835 0
M  V30 1421 H 139.609 3.08914 4.82954 0
M  V30 1422 H 138.006 3.84781 4.60504 0
M  V30 1423 H 139.076 3.63673 3.20734 0
M  V30 1424 N 140.419 -1.14872 1.07899 0
M  V30 1425 C 141.83 -1.67367 0.827363 0
M  V30 1426 C 142.181 -1.85236 -0.646693 0
M  V30 1427 O 141.306 -1.55974 -1.50004 0
M  V30 1428 C 141.901 -3.04016 1.49532 0
M  V30 1429 C 140.46 -3.53566 1.29106 0
M  V30 1430 C 139.607 -2.29161 1.56143 0
M  V30 1431 H 142.558 -0.990083 1.24028 0
M  V30 1432 H 142.579 -3.69219 0.919643 0
M  V30 1433 H 142.091 -2.90978 2.56814 0
M  V30 1434 H 140.192 -3.71835 0.238713 0
M  V30 1435 H 140.305 -4.34661 2.01511 0
M  V30 1436 H 138.669 -2.34978 0.982717 0
M  V30 1437 H 139.452 -2.18705 2.64619 0
M  V30 1438 N 141.898 -0.863906 -1.31812 0
M  V30 1439 C 142.828 -0.330843 -2.31144 0
M  V30 1440 C 143.809 0.575005 -1.60087 0
M  V30 1441 O 144.994 0.493304 -1.8783 0
M  V30 1442 C 142.124 0.47374 -3.44054 0
M  V30 1443 C 141.078 -0.338481 -4.26659 0
M  V30 1444 C 140.404 0.591412 -5.31419 0
M  V30 1445 C 141.704 -1.56926 -4.98168 0
M  V30 1446 H 143.398 -1.16086 -2.75979 0
M  V30 1447 H 140.944 -0.559657 -1.32679 0
M  V30 1448 H 142.897 0.857143 -4.12591 0
M  V30 1449 H 141.621 1.33721 -2.9797 0
M  V30 1450 H 140.28 -0.703754 -3.59782 0
M  V30 1451 H 139.928 1.45199 -4.81587 0
M  V30 1452 H 139.628 0.0519022 -5.87577 0
M  V30 1453 H 141.152 0.97179 -6.02817 0
M  V30 1454 H 142.566 -1.25764 -5.59336 0
M  V30 1455 H 140.963 -2.04739 -5.64094 0
M  V30 1456 H 142.033 -2.32544 -4.25501 0
M  V30 1457 N 143.376 1.44774 -0.622745 0
M  V30 1458 C 144.339 2.29069 0.0774015 0
M  V30 1459 C 145.339 1.4059 0.780461 0
M  V30 1460 O 146.529 1.62551 0.626322 0
M  V30 1461 C 143.661 3.21974 1.12006 0
M  V30 1462 H 144.854 2.92459 -0.663901 0
M  V30 1463 H 142.407 1.51548 -0.382486 0
M  V30 1464 H 143.142 2.63417 1.89162 0
M  V30 1465 H 142.927 3.87168 0.619951 0
M  V30 1466 H 144.417 3.85318 1.60995 0
M  V30 1467 N 144.854 0.36279 1.53368 0
M  V30 1468 C 145.764 -0.492994 2.29362 0
M  V30 1469 C 146.78 -1.09507 1.35219 0
M  V30 1470 O 147.956 -1.10662 1.68273 0
M  V30 1471 C 145.021 -1.61855 3.066 0
M  V30 1472 C 144.082 -1.04429 4.16405 0
M  V30 1473 C 143.315 -2.11621 4.89951 0
M  V30 1474 O 143.538 -3.32684 4.63333 0
M  V30 1475 O 142.472 -1.74835 5.75948 0
M  V30 1476 H 146.298 0.125331 3.03441 0
M  V30 1477 H 143.883 0.127253 1.48857 0
M  V30 1478 H 145.765 -2.27302 3.54841 0
M  V30 1479 H 144.44 -2.22233 2.3536 0
M  V30 1480 H 143.347 -0.353819 3.72423 0
M  V30 1481 H 144.68 -0.485113 4.89804 0
M  V30 1482 N 146.332 -1.57332 0.0918853 0
M  V30 1483 C 147.581 -1.93412 -0.572249 0
M  V30 1484 C 147.894 -0.975515 -1.69538 0
M  V30 1485 O 149.1 -1.22991 -2.42045 0
M  V30 1486 C 147.556 -3.43648 -1.0693 0
M  V30 1487 C 147.164 -4.47994 0.0239049 0
M  V30 1488 C 148.908 -3.88695 -1.70635 0
M  V30 1489 C 146.815 -5.89381 -0.488319 0
M  V30 1490 H 145.745 -0.721939 -0.217532 0
M  V30 1491 H 148.396 -1.82735 0.167369 0
M  V30 1492 H 146.778 -3.49466 -1.8625 0
M  V30 1493 H 147.952 -4.53815 0.799277 0
M  V30 1494 H 146.267 -4.12536 0.565946 0
M  V30 1495 H 148.864 -4.91725 -2.10025 0
M  V30 1496 H 149.207 -3.27166 -2.57426 0
M  V30 1497 H 149.74 -3.85564 -0.979023 0
M  V30 1498 H 146.479 -6.54602 0.342906 0
M  V30 1499 H 145.999 -5.87037 -1.23077 0
M  V30 1500 H 147.678 -6.39863 -0.958317 0
M  V30 1501 N 147.81 0.181792 -1.56548 0
M  V30 1502 C 149.221 0.745244 -1.71181 0
M  V30 1503 C 149.572 1.83262 -0.70068 0
M  V30 1504 O 148.697 2.15946 0.140154 0
M  V30 1505 C 149.292 1.35859 -3.10367 0
M  V30 1506 C 147.851 1.86898 -3.2672 0
M  V30 1507 C 146.998 0.743942 -2.67134 0
M  V30 1508 H 149.949 -0.0434661 -1.5864 0
M  V30 1509 H 149.97 2.22817 -3.08436 0
M  V30 1510 H 149.482 0.566948 -3.83937 0
M  V30 1511 H 147.583 2.68738 -2.5809 0
M  V30 1512 H 147.696 2.02162 -4.34359 0
M  V30 1513 H 146.06 1.16169 -2.26665 0
M  V30 1514 H 146.843 -0.035676 -3.43281 0
M  V30 1515 N 149.288 1.51039 0.449983 0
M  V30 1516 C 150.198 1.74261 1.57067 0
M  V30 1517 C 151.214 0.626363 1.62335 0
M  V30 1518 O 152.39 0.907162 1.79812 0
M  V30 1519 C 149.455 1.85114 2.93144 0
M  V30 1520 C 148.516 3.0893 2.98095 0
M  V30 1521 C 147.749 3.19256 4.27681 0
M  V30 1522 O 147.972 2.35835 5.19363 0
M  V30 1523 O 146.906 4.12144 4.38658 0
M  V30 1524 H 150.732 2.69303 1.40391 0
M  V30 1525 H 148.317 1.35389 0.631688 0
M  V30 1526 H 150.199 1.94311 3.73926 0
M  V30 1527 H 148.874 0.932588 3.09975 0
M  V30 1528 H 147.781 3.0522 2.16314 0
M  V30 1529 H 149.114 4.00433 2.86206 0
M  V30 1530 N 150.766 -0.704594 1.40972 0
M  V30 1531 C 152.014 -1.46169 1.39568 0
M  V30 1532 C 152.335 -1.95 0.00253745 0
M  V30 1533 O 151.605 -1.71095 -0.954114 0
M  V30 1534 H 150.185 -0.542326 0.513704 0
M  V30 1535 H 152.847 -0.834553 1.76128 0
M  V30 1536 H 151.943 -2.32922 2.07735 0
M  V30 1537 N 152.244 -1.26651 -0.937939 0
M  V30 1538 C 153.49 -1.12553 -1.687 0
M  V30 1539 C 153.823 0.329782 -1.91379 0
M  V30 1540 O 153.098 1.24202 -1.4968 0
M  V30 1541 C 153.381 -1.89862 -3.05981 0
M  V30 1542 C 153.234 -3.43318 -2.90607 0
M  V30 1543 C 154.553 -1.69499 -4.0615 0
M  V30 1544 H 151.672 -0.410257 -0.612257 0
M  V30 1545 H 154.314 -1.55685 -1.08913 0
M  V30 1546 H 152.464 -1.53204 -3.57017 0
M  V30 1547 H 154.136 -3.89747 -2.46769 0
M  V30 1548 H 152.379 -3.70179 -2.26164 0
M  V30 1549 H 153.05 -3.92642 -3.8799 0
M  V30 1550 H 155.526 -2.01442 -3.64088 0
M  V30 1551 H 154.402 -2.26002 -5.00214 0
M  V30 1552 H 154.663 -0.640365 -4.37438 0
M  V30 1553 N 153.722 1.14298 -1.08507 0
M  V30 1554 C 155.133 1.66926 -0.836227 0
M  V30 1555 C 155.484 1.85576 0.63686 0
M  V30 1556 O 154.609 1.56767 1.49175 0
M  V30 1557 C 155.204 3.03219 -1.51142 0
M  V30 1558 C 153.763 3.52876 -1.30979 0
M  V30 1559 C 152.91 2.2833 -1.57356 0
M  V30 1560 H 155.861 0.983491 -1.24552 0
M  V30 1561 H 155.882 3.68726 -0.939211 0
M  V30 1562 H 155.394 2.89612 -2.58353 0
M  V30 1563 H 153.495 3.71703 -0.258429 0
M  V30 1564 H 153.608 4.33586 -2.03814 0
M  V30 1565 H 151.972 2.34454 -0.995164 0
M  V30 1566 H 152.755 2.17298 -2.65775 0
M  V30 1567 N 155.201 0.870884 1.31352 0
M  V30 1568 C 156.447 0.482987 1.96965 0
M  V30 1569 C 156.78 -0.962462 1.68672 0
M  V30 1570 O 156.055 -1.6779 0.98371 0
M  V30 1571 C 156.338 0.741752 3.52378 0
M  V30 1572 C 156.191 2.2368 3.9024 0
M  V30 1573 C 157.51 0.208838 4.39604 0
M  V30 1574 H 154.629 0.176955 0.715441 0
M  V30 1575 H 157.271 1.09229 1.55464 0
M  V30 1576 H 155.421 0.223149 3.87859 0
M  V30 1577 H 157.093 2.82273 3.64856 0
M  V30 1578 H 155.336 2.70901 3.38814 0
M  V30 1579 H 156.007 2.3685 4.98604 0
M  V30 1580 H 158.483 0.652529 4.10952 0
M  V30 1581 H 157.359 0.419336 5.47296 0
M  V30 1582 H 157.62 -0.889275 4.33064 0
M  V30 1583 N 156.679 -1.44442 0.630414 0
M  V30 1584 C 157.919 -2.03934 0.137919 0
M  V30 1585 C 158.283 -1.48509 -1.21692 0
M  V30 1586 O 159.484 -1.99499 -1.80149 0
M  V30 1587 C 157.755 -3.57187 0.123373 0
M  V30 1588 S 159.314 -4.37741 -0.304604 0
M  V30 1589 H 156.132 -0.708401 0.0607353 0
M  V30 1590 H 158.734 -1.76835 0.833643 0
M  V30 1591 H 157.438 -3.95032 1.11256 0
M  V30 1592 H 156.969 -3.88895 -0.59362 0
M  V30 1593 H 158.984 -4.71403 -1.54897 0
M  V30 1594 N 158.157 -0.370918 -1.53173 0
M  V30 1595 C 159.105 0.488101 -2.27421 0
M  V30 1596 C 160.099 1.07884 -1.30604 0
M  V30 1597 O 161.305 1.02143 -1.48212 0
M  V30 1598 H 157.68 0.176134 -0.731082 0
M  V30 1599 H 159.651 -0.159815 -2.97972 0
M  V30 1600 C 158.4 1.61306 -3.08019 0
M  V30 1601 H 157.723 1.1678 -3.82364 0
M  V30 1602 H 159.163 2.18872 -3.63141 0
M  V30 1603 C 157.622 2.55848 -2.19188 0
M  V30 1604 O 158.152 3.58799 -1.80626 0
M  V30 1605 N 156.358 2.2516 -1.83715 0
M  V30 1606 H 155.905 1.41476 -2.15273 0
M  V30 1607 H 155.863 2.8867 -1.24567 0
M  V30 1608 N 159.635 1.57281 -0.100228 0
M  V30 1609 C 160.881 1.94826 0.563101 0
M  V30 1610 C 161.214 0.982475 1.67514 0
M  V30 1611 O 160.489 0.0164069 1.94493 0
M  V30 1612 C 160.772 3.42453 1.11346 0
M  V30 1613 C 160.625 4.498 0.00612081 0
M  V30 1614 C 161.944 3.91506 2.01024 0
M  V30 1615 H 159.063 0.708428 0.203221 0
M  V30 1616 H 161.705 1.8922 -0.171979 0
M  V30 1617 H 159.855 3.47361 1.7399 0
M  V30 1618 H 161.527 4.57 -0.628357 0
M  V30 1619 H 159.77 4.28756 -0.659581 0
M  V30 1620 H 160.441 5.50306 0.432109 0
M  V30 1621 H 162.917 3.88784 1.48278 0
M  V30 1622 H 161.793 4.95358 2.36457 0
M  V30 1623 H 162.054 3.31099 2.92961 0
M  V30 1624 N 161.113 -0.173488 1.56642 0
M  V30 1625 C 162.023 -1.23482 1.99473 0
M  V30 1626 C 163.039 -1.48567 0.905752 0
M  V30 1627 O 164.215 -1.60758 1.21321 0
M  V30 1628 C 161.28 -2.55444 2.34413 0
M  V30 1629 C 160.341 -2.38241 3.57127 0
M  V30 1630 C 159.574 -3.63909 3.90392 0
M  V30 1631 O 159.797 -4.68996 3.24653 0
M  V30 1632 O 158.731 -3.58149 4.83749 0
M  V30 1633 H 162.557 -0.901279 2.90018 0
M  V30 1634 H 160.142 -0.380185 1.44482 0
M  V30 1635 H 162.024 -3.33292 2.57865 0
M  V30 1636 H 160.699 -2.88382 1.4703 0
M  V30 1637 H 159.606 -1.58431 3.38896 0
M  V30 1638 H 160.939 -2.10228 4.45045 0
M  V30 1639 N 162.591 -1.51276 -0.441967 0
M  V30 1640 C 163.816 -1.67799 -1.21895 0
M  V30 1641 C 164.241 -0.372864 -1.84367 0
M  V30 1642 O 163.599 0.666501 -1.68604 0
M  V30 1643 C 163.647 -2.79199 -2.28211 0
M  V30 1644 O 162.751 -2.42479 -3.33583 0
M  V30 1645 H 162.092 -0.559649 -0.357336 0
M  V30 1646 H 164.622 -1.97815 -0.522522 0
M  V30 1647 H 164.632 -3.03146 -2.73069 0
M  V30 1648 H 163.307 -3.73906 -1.82118 0
M  V30 1649 H 161.884 -2.29087 -2.94234 0
M  V30 1650 N 164.069 0.697108 -1.41344 0
M  V30 1651 C 165.294 1.49096 -1.44171 0
M  V30 1652 C 165.719 1.88038 -0.0481568 0
M  V30 1653 O 165.077 1.54525 0.948243 0
M  V30 1654 C 165.125 2.73088 -2.3549 0
M  V30 1655 O 164.229 3.70514 -1.81088 0
M  V30 1656 H 163.57 0.448801 -0.489361 0
M  V30 1657 H 166.1 0.856992 -1.85787 0
M  V30 1658 H 166.11 3.21413 -2.51312 0
M  V30 1659 H 164.785 2.44081 -3.36745 0
M  V30 1660 H 163.362 3.29441 -1.74708 0
M  V30 1661 N 165.547 1.27147 0.931209 0
M  V30 1662 C 166.958 1.12044 1.49342 0
M  V30 1663 C 167.309 -0.295795 1.93957 0
M  V30 1664 O 166.434 -1.18835 1.80852 0
M  V30 1665 C 167.029 2.02781 2.71414 0
M  V30 1666 C 165.588 1.91794 3.2387 0
M  V30 1667 C 164.735 1.95543 1.96617 0
M  V30 1668 H 167.686 1.40091 0.745672 0
M  V30 1669 H 167.707 1.58156 3.46074 0
M  V30 1670 H 167.219 3.05848 2.38911 0
M  V30 1671 H 165.32 0.916992 3.6114 0
M  V30 1672 H 165.433 2.77852 3.90302 0
M  V30 1673 H 163.797 1.39722 2.12955 0
M  V30 1674 H 164.58 3.00259 1.66432 0
M  V30 1675 N 167.025 -1.13721 1.09112 0
M  V30 1676 C 168.273 -1.84559 0.823562 0
M  V30 1677 C 168.594 -1.83754 -0.652658 0
M  V30 1678 O 167.864 -1.29102 -1.47342 0
M  V30 1679 H 166.444 -0.683376 0.301673 0
M  V30 1680 H 169.106 -1.37771 1.37859 0
M  V30 1681 H 168.202 -2.8917 1.17419 0
M  V30 1682 N 168.503 -0.877838 -1.30888 0
M  V30 1683 C 169.78 -0.413052 -1.91189 0
M  V30 1684 C 170.16 1.1056 -1.79832 0
M  V30 1685 O 169.508 1.93771 -1.21099 0
M  V30 1686 C 169.718 -0.903191 -3.3711 0
M  V30 1687 C 171.066 -0.93395 -4.14201 0
M  V30 1688 O 172.09 -0.849373 -3.45925 0
M  V30 1689 O 170.949 -1.05772 -5.36167 0
M  V30 1690 H 168.043 -0.125035 -0.817493 0
M  V30 1691 H 170.589 -0.966269 -1.39504 0
M  V30 1692 H 169.361 -1.94692 -3.39427 0
M  V30 1693 H 168.984 -0.328732 -3.96239 0
M  V30 1694 N 169.982 1.44106 -0.638065 0
M  V30 1695 C 171.23 2.01579 -0.145043 0
M  V30 1696 C 171.551 1.50496 1.24 0
M  V30 1697 O 170.821 0.711374 1.82527 0
M  V30 1698 H 169.401 0.745282 -0.05063 0
M  V30 1699 H 172.063 1.76516 -0.826327 0
M  V30 1700 H 171.159 3.11877 -0.118039 0
M  V30 1701 N 171.46 0.379036 1.52974 0
M  V30 1702 C 172.708 -0.206014 2.01047 0
M  V30 1703 C 173.029 -1.48175 1.26765 0
M  V30 1704 O 172.299 -1.92085 0.384743 0
M  V30 1705 H 170.879 -0.0791184 0.742798 0
M  V30 1706 H 173.541 0.508366 1.88153 0
M  V30 1707 H 172.637 -0.423501 3.09213 0
M  V30 1708 N 172.938 -1.57226 0.108567 0
M  V30 1709 C 173.885 -2.14756 -0.845481 0
M  V30 1710 C 174.855 -1.06971 -1.27068 0
M  V30 1711 O 176.04 -1.34827 -1.35005 0
M  V30 1712 C 173.18 -2.74298 -2.09415 0
M  V30 1713 C 172.293 -3.96358 -1.71826 0
M  V30 1714 C 171.428 -4.44021 -2.9158 0
M  V30 1715 C 170.467 -5.58637 -2.50181 0
M  V30 1716 N 169.604 -6.01091 -3.62814 0
M  V30 1717 H 174.444 -2.95961 -0.348035 0
M  V30 1718 H 171.981 -1.46226 -0.160106 0
M  V30 1719 H 173.939 -3.06945 -2.82561 0
M  V30 1720 H 172.569 -1.95801 -2.56636 0
M  V30 1721 H 171.621 -3.69939 -0.885947 0
M  V30 1722 H 172.933 -4.79504 -1.37394 0
M  V30 1723 H 172.087 -4.78522 -3.72963 0
M  V30 1724 H 170.826 -3.59803 -3.29231 0
M  V30 1725 H 169.831 -5.23751 -1.67228 0
M  V30 1726 H 171.056 -6.44613 -2.13659 0
M  V30 1727 H 169.002 -5.19817 -4.00158 0
M  V30 1728 H 168.919 -6.79066 -3.32273 0
M  V30 1729 H 170.187 -6.40227 -4.44668 0
M  V30 1730 N 174.416 0.165178 -1.56732 0
M  V30 1731 C 175.663 0.880807 -1.8234 0
M  V30 1732 C 175.991 1.81977 -0.686621 0
M  V30 1733 O 175.246 1.92971 0.325697 0
M  V30 1734 C 175.545 1.70405 -3.1416 0
M  V30 1735 C 175.211 0.913475 -4.4155 0
M  V30 1736 C 173.873 0.695303 -4.7615 0
M  V30 1737 C 176.225 0.359349 -5.1996 0
M  V30 1738 C 173.553 -0.0879947 -5.86634 0
M  V30 1739 C 175.905 -0.410893 -6.31264 0
M  V30 1740 C 174.569 -0.639808 -6.64427 0
M  V30 1741 H 173.839 0.32231 -0.667231 0
M  V30 1742 H 176.486 0.145402 -1.90947 0
M  V30 1743 H 174.791 2.50903 -3.00923 0
M  V30 1744 H 176.488 2.26091 -3.31186 0
M  V30 1745 H 173.078 1.09357 -4.14414 0
M  V30 1746 H 177.262 0.515228 -4.93618 0
M  V30 1747 H 172.518 -0.27503 -6.10781 0
M  V30 1748 H 176.692 -0.847494 -6.91224 0
M  V30 1749 H 174.319 -1.24864 -7.49875 0
M  V30 1750 N 175.894 1.51508 0.433938 0
M  V30 1751 C 176.857 1.72473 1.50949 0
M  V30 1752 C 177.857 0.594725 1.49398 0
M  V30 1753 O 179.047 0.862315 1.5136 0
M  V30 1754 C 176.179 1.78431 2.90474 0
M  V30 1755 H 177.372 2.68467 1.33662 0
M  V30 1756 H 174.925 1.41549 0.662836 0
M  V30 1757 H 175.66 0.842645 3.13161 0
M  V30 1758 H 175.445 2.60558 2.93005 0
M  V30 1759 H 176.935 1.96479 3.68491 0
M  V30 1760 N 177.372 -0.689602 1.41712 0
M  V30 1761 C 178.788 -1.00093 1.24312 0
M  V30 1762 C 178.988 -2.01036 0.136729 0
M  V30 1763 O 178.044 -2.47562 -0.496918 0
M  V30 1764 C 179.357 -1.51985 2.59463 0
M  V30 1765 C 180.905 -1.63838 2.66695 0
M  V30 1766 C 181.38 -2.1913 4.02177 0
M  V30 1767 N 182.871 -2.26483 4.04054 0
M  V30 1768 C 183.606 -2.70306 5.0569 0
M  V30 1769 N 183.102 -3.13691 6.17713 0
M  V30 1770 N 184.895 -2.69923 4.9305 0
M  V30 1771 H 177.046 -0.0210029 2.1239 0
M  V30 1772 H 179.309 -0.0718733 0.945272 0
M  V30 1773 H 179.015 -0.85269 3.41207 0
M  V30 1774 H 178.889 -2.50103 2.82362 0
M  V30 1775 H 181.276 -2.29664 1.85306 0
M  V30 1776 H 181.357 -0.642492 2.476 0
M  V30 1777 H 181.001 -1.53918 4.84016 0
M  V30 1778 H 180.931 -3.19482 4.18615 0
M  V30 1779 H 183.422 -1.95874 3.23174 0
M  V30 1780 H 183.735 -3.45773 6.9113 0
M  V30 1781 H 182.08 -3.11585 6.21241 0
M  V30 1782 H 185.271 -2.35382 4.04614 0
M  V30 1783 H 185.444 -3.03758 5.72394 0
M  V30 1784 N 178.85 -1.27639 -0.924453 0
M  V30 1785 C 179.813 -1.10681 -2.00705 0
M  V30 1786 C 180.813 -0.0497823 -1.60723 0
M  V30 1787 O 182.003 -0.294654 -1.7169 0
M  V30 1788 C 179.135 -0.687164 -3.33902 0
M  V30 1789 H 180.328 -2.06817 -2.17179 0
M  V30 1790 H 177.881 -1.10473 -1.10569 0
M  V30 1791 H 178.616 0.275439 -3.23128 0
M  V30 1792 H 178.401 -1.45061 -3.6428 0
M  V30 1793 H 179.891 -0.590853 -4.13399 0
M  V30 1794 N 180.328 1.1314 -1.09713 0
M  V30 1795 C 181.553 1.88862 -0.857081 0
M  V30 1796 C 181.978 1.78729 0.586304 0
M  V30 1797 O 181.336 1.13692 1.41222 0
M  V30 1798 C 181.384 3.36325 -1.30069 0
M  V30 1799 O 180.488 4.09815 -0.461007 0
M  V30 1800 H 179.829 0.587108 -0.310162 0
M  V30 1801 H 182.359 1.43129 -1.46203 0
M  V30 1802 H 182.369 3.87157 -1.28738 0
M  V30 1803 H 181.044 3.43017 -2.35185 0
M  V30 1804 H 179.621 3.68986 -0.538888 0
M  V30 1805 N 181.806 0.884767 1.30421 0
M  V30 1806 C 183.054 0.502112 1.95763 0
M  V30 1807 C 183.375 -0.951815 1.70192 0
M  V30 1808 O 182.645 -1.6692 1.0254 0
M  V30 1809 H 181.225 0.182694 0.724315 0
M  V30 1810 H 183.887 1.1278 1.58955 0
M  V30 1811 H 182.983 0.672188 3.04775 0
M  V30 1812 N 183.284 -1.43765 0.645699 0
M  V30 1813 C 184.53 -2.02197 0.156271 0
M  V30 1814 C 184.863 -1.50776 -1.22393 0
M  V30 1815 O 184.138 -0.697771 -1.81553 0
M  V30 1816 C 184.421 -3.59749 0.158872 0
M  V30 1817 C 184.274 -4.21419 1.57245 0
M  V30 1818 C 185.593 -4.37149 -0.50879 0
M  V30 1819 H 182.712 -0.734694 0.0582602 0
M  V30 1820 H 185.354 -1.71157 0.824951 0
M  V30 1821 H 183.504 -3.86325 -0.410525 0
M  V30 1822 H 185.176 -4.059 2.19186 0
M  V30 1823 H 183.419 -3.78356 2.122 0
M  V30 1824 H 184.09 -5.30482 1.52619 0
M  V30 1825 H 186.566 -4.16093 -0.024412 0
M  V30 1826 H 185.442 -5.4683 -0.476213 0
M  V30 1827 H 185.703 -4.12839 -1.58165 0
M  V30 1828 N 184.763 -0.387143 -1.52771 0
M  V30 1829 C 185.711 0.463953 -2.27926 0
M  V30 1830 C 186.705 1.06493 -1.31741 0
M  V30 1831 O 187.911 1.00565 -1.49287 0
M  V30 1832 H 184.286 0.16837 -0.732909 0
M  V30 1833 H 186.257 -0.19141 -2.97785 0
M  V30 1834 C 185.006 1.5803 -3.09713 0
M  V30 1835 H 184.329 1.12718 -3.83581 0
M  V30 1836 H 185.769 2.15008 -3.65442 0
M  V30 1837 C 184.228 2.53509 -2.2189 0
M  V30 1838 O 184.758 3.56863 -1.84422 0
M  V30 1839 N 182.964 2.23199 -1.86093 0
M  V30 1840 H 182.511 1.39185 -2.16761 0
M  V30 1841 H 182.469 2.87333 -1.27621 0
M  V30 1842 N 186.241 1.57166 -0.116904 0
M  V30 1843 C 187.204 2.14039 0.819742 0
M  V30 1844 C 188.204 1.07477 1.19605 0
M  V30 1845 O 189.394 1.33263 1.1219 0
M  V30 1846 C 186.526 2.67891 2.10826 0
M  V30 1847 H 187.719 2.98128 0.325511 0
M  V30 1848 H 185.272 1.55739 0.132312 0
M  V30 1849 H 186.007 1.87384 2.64685 0
M  V30 1850 H 185.792 3.45823 1.84793 0
M  V30 1851 H 187.282 3.11809 2.77785 0
M  V30 1852 N 187.719 -0.156864 1.56817 0
M  V30 1853 C 188.651 -1.21883 1.94106 0
M  V30 1854 C 189.664 -1.3971 0.835754 0
M  V30 1855 O 190.853 -1.39457 1.11418 0
M  V30 1856 C 187.953 -2.58527 2.19127 0
M  V30 1857 C 187.126 -2.61809 3.50393 0
M  V30 1858 C 186.185 -3.7992 3.64071 0
M  V30 1859 O 185.211 -3.65249 4.36557 0
M  V30 1860 N 186.413 -4.96973 2.99997 0
M  V30 1861 H 189.178 -0.901974 2.85805 0
M  V30 1862 H 186.739 -0.346513 1.58148 0
M  V30 1863 H 188.731 -3.36034 2.25529 0
M  V30 1864 H 187.301 -2.82545 1.33742 0
M  V30 1865 H 186.521 -1.7029 3.5552 0
M  V30 1866 H 187.809 -2.61024 4.36742 0
M  V30 1867 H 187.207 -5.11794 2.41004 0
M  V30 1868 H 185.764 -5.7229 3.11974 0
M  V30 1869 N 189.197 -1.51736 -0.425897 0
M  V30 1870 C 190.127 -1.76827 -1.52494 0
M  V30 1871 C 191.108 -0.618524 -1.58456 0
M  V30 1872 O 192.293 -0.862416 -1.74 0
M  V30 1873 C 189.423 -1.90374 -2.90474 0
M  V30 1874 C 188.377 -3.0588 -2.99369 0
M  V30 1875 C 187.703 -3.04625 -4.3944 0
M  V30 1876 C 189.003 -4.45644 -2.72394 0
M  V30 1877 H 190.697 -2.68855 -1.31748 0
M  V30 1878 H 188.243 -1.29372 -0.632362 0
M  V30 1879 H 190.196 -2.0651 -3.6733 0
M  V30 1880 H 188.92 -0.95004 -3.12477 0
M  V30 1881 H 187.579 -2.89467 -2.24954 0
M  V30 1882 H 187.227 -2.0701 -4.58428 0
M  V30 1883 H 186.927 -3.82195 -4.46319 0
M  V30 1884 H 188.451 -3.22869 -5.18255 0
M  V30 1885 H 189.865 -4.62348 -3.38979 0
M  V30 1886 H 188.262 -5.25006 -2.9067 0
M  V30 1887 H 189.332 -4.54893 -1.67929 0
M  V30 1888 N 190.675 0.682077 -1.42076 0
M  V30 1889 C 191.605 1.80796 -1.47767 0
M  V30 1890 C 192.586 1.6677 -0.334954 0
M  V30 1891 O 193.771 1.863 -0.548264 0
M  V30 1892 C 190.901 3.19038 -1.37229 0
M  V30 1893 C 189.855 3.47789 -2.49453 0
M  V30 1894 C 189.181 4.8553 -2.23975 0
M  V30 1895 C 190.481 3.45411 -3.91776 0
M  V30 1896 H 192.175 1.7629 -2.41997 0
M  V30 1897 H 189.721 0.846721 -1.16476 0
M  V30 1898 H 191.674 3.97528 -1.39821 0
M  V30 1899 H 190.398 3.24204 -0.394907 0
M  V30 1900 H 189.057 2.71657 -2.46166 0
M  V30 1901 H 188.705 4.87337 -1.24547 0
M  V30 1902 H 188.405 5.0573 -2.99184 0
M  V30 1903 H 189.929 5.66312 -2.28304 0
M  V30 1904 H 191.343 4.13882 -3.96705 0
M  V30 1905 H 189.74 3.77145 -4.66778 0
M  V30 1906 H 190.81 2.44122 -4.18966 0
M  V30 1907 N 192.153 1.28127 0.917671 0
M  V30 1908 C 193.381 1.17892 1.70026 0
M  V30 1909 C 193.796 -0.262958 1.8696 0
M  V30 1910 O 193.153 -1.17811 1.3938 0
M  V30 1911 C 193.204 1.86872 3.09453 0
M  V30 1912 O 192.925 3.25428 2.93306 0
M  V30 1913 C 194.426 1.8289 4.03815 0
M  V30 1914 H 191.646 0.40942 0.531617 0
M  V30 1915 H 194.19 1.69181 1.14883 0
M  V30 1916 H 192.345 1.39464 3.61426 0
M  V30 1917 H 192.759 3.59918 3.81523 0
M  V30 1918 H 194.233 2.35751 4.99125 0
M  V30 1919 H 194.71 0.800412 4.31845 0
M  V30 1920 H 195.316 2.29959 3.57769 0
M  V30 1921 N 193.631 -1.12557 1.10312 0
M  V30 1922 C 194.581 -2.16331 0.720076 0
M  V30 1923 C 195.565 -1.58616 -0.270115 0
M  V30 1924 O 196.757 -1.76823 -0.0790507 0
M  V30 1925 C 193.886 -3.42963 0.152113 0
M  V30 1926 C 192.972 -4.07663 1.16927 0
M  V30 1927 N 193.363 -4.47392 2.35953 0
M  V30 1928 C 191.661 -4.34425 1.0095 0
M  V30 1929 C 192.362 -4.97932 3.0073 0
M  V30 1930 N 191.338 -4.93358 2.28252 0
M  V30 1931 H 195.14 -2.44813 1.62616 0
M  V30 1932 H 192.654 -1.29449 0.980654 0
M  V30 1933 H 194.651 -4.16664 -0.14037 0
M  V30 1934 H 193.311 -3.1595 -0.748701 0
M  V30 1935 H 194.322 -4.39802 2.73486 0
M  V30 1936 H 190.999 -4.17177 0.164134 0
M  V30 1937 H 192.389 -5.38397 4.01969 0
M  V30 1938 N 195.109 -0.891671 -1.2995 0
M  V30 1939 C 196.386 -0.433307 -1.9074 0
M  V30 1940 C 196.766 1.08646 -1.80995 0
M  V30 1941 O 196.114 1.92476 -1.23147 0
M  V30 1942 C 196.324 -0.938895 -3.36134 0
M  V30 1943 C 197.672 -0.977829 -4.13187 0
M  V30 1944 O 198.696 -0.886015 -3.45005 0
M  V30 1945 O 197.555 -1.11453 -5.35015 0
M  V30 1946 H 194.649 -0.133699 -0.816121 0
M  V30 1947 H 197.195 -0.981011 -1.38471 0
M  V30 1948 H 195.967 -1.98281 -3.37343 0
M  V30 1949 H 195.59 -0.37074 -3.95868 0
M  V30 1950 N 196.587 1.43421 -0.653314 0
M  V30 1951 C 198.003 1.56341 -0.320886 0
M  V30 1952 C 198.203 1.63696 1.17499 0
M  V30 1953 O 197.259 1.59208 1.95982 0
M  V30 1954 C 198.572 2.82424 -1.03233 0
M  V30 1955 C 200.12 2.96168 -1.01259 0
M  V30 1956 C 200.595 4.25084 -1.70492 0
M  V30 1957 N 202.086 4.31948 -1.67257 0
M  V30 1958 C 202.821 5.30466 -2.17701 0
M  V30 1959 N 202.317 6.35261 -2.76434 0
M  V30 1960 N 204.11 5.2212 -2.082 0
M  V30 1961 H 196.261 1.3689 -1.62403 0
M  V30 1962 H 198.524 0.657455 -0.682977 0
M  V30 1963 H 198.23 2.83053 -2.08744 0
M  V30 1964 H 198.104 3.72653 -0.583948 0
M  V30 1965 H 200.491 2.9508 0.0341235 0
M  V30 1966 H 200.572 2.07229 -1.49966 0
M  V30 1967 H 200.216 4.26932 -2.7512 0
M  V30 1968 H 200.146 5.1292 -1.19251 0
M  V30 1969 H 202.637 3.56838 -1.24398 0
M  V30 1970 H 202.95 7.06754 -3.12601 0
M  V30 1971 H 201.295 6.35884 -2.80495 0
M  V30 1972 H 204.486 4.39166 -1.62021 0
M  V30 1973 H 204.659 5.98739 -2.47822 0
M  V30 1974 N 198.065 0.39524 1.52563 0
M  V30 1975 C 199.013 -0.451859 2.28169 0
M  V30 1976 C 200.007 -1.05792 1.32304 0
M  V30 1977 O 201.213 -0.997718 1.49818 0
M  V30 1978 H 197.588 -0.164481 0.733792 0
M  V30 1979 H 199.559 0.207199 2.9768 0
M  V30 1980 C 198.308 -1.56385 3.10546 0
M  V30 1981 H 197.631 -1.10682 3.84174 0
M  V30 1982 H 199.071 -2.13067 3.66577 0
M  V30 1983 C 197.53 -2.52328 2.23231 0
M  V30 1984 O 198.06 -3.5588 1.86312 0
M  V30 1985 N 196.266 -2.22209 1.87274 0
M  V30 1986 H 195.813 -1.38033 2.17496 0
M  V30 1987 H 195.771 -2.86652 1.29143 0
M  V30 1988 N 199.544 -1.57102 0.125237 0
M  V30 1989 C 200.79 -1.95697 -0.532035 0
M  V30 1990 C 201.123 -1.009 -1.6593 0
M  V30 1991 O 200.398 -0.047347 -1.94442 0
M  V30 1992 C 200.681 -3.44181 -1.05884 0
M  V30 1993 C 200.534 -4.49752 0.0654392 0
M  V30 1994 C 201.853 -3.94655 -1.9477 0
M  V30 1995 H 198.972 -0.711571 -0.191925 0
M  V30 1996 H 201.614 -1.88923 0.20206 0
M  V30 1997 H 199.764 -3.50085 -1.68442 0
M  V30 1998 H 201.436 -4.55943 0.700982 0
M  V30 1999 H 199.679 -4.27653 0.727709 0
M  V30 2000 H 200.35 -5.50924 -0.344505 0
M  V30 2001 H 202.826 -3.91094 -1.42074 0
M  V30 2002 H 201.702 -4.99057 -2.28546 0
M  V30 2003 H 201.963 -3.35718 -2.87656 0
M  V30 2004 N 201.022 0.148545 -1.56898 0
M  V30 2005 C 201.985 1.16736 -1.97244 0
M  V30 2006 C 202.985 1.35947 -0.858777 0
M  V30 2007 O 204.175 1.32966 -1.12542 0
M  V30 2008 C 201.307 2.52798 -2.28705 0
M  V30 2009 H 202.5 0.821279 -2.88435 0
M  V30 2010 H 200.053 0.391831 -1.51309 0
M  V30 2011 H 200.788 2.92381 -1.403 0
M  V30 2012 H 200.573 2.40216 -3.09901 0
M  V30 2013 H 202.063 3.26179 -2.60762 0
M  V30 2014 N 202.5 1.5196 0.417844 0
M  V30 2015 C 203.746 1.65836 1.16732 0
M  V30 2016 C 204.079 0.382881 1.90388 0
M  V30 2017 O 203.354 -0.618368 1.84408 0
M  V30 2018 C 203.637 2.87466 2.16876 0
M  V30 2019 C 203.49 4.25041 1.47174 0
M  V30 2020 C 204.809 3.04613 3.17646 0
M  V30 2021 H 201.928 0.603515 0.423011 0
M  V30 2022 H 204.57 1.84494 0.454105 0
M  V30 2023 H 202.72 2.71689 2.777 0
M  V30 2024 H 204.392 4.52527 0.895376 0
M  V30 2025 H 202.635 4.26843 0.773806 0
M  V30 2026 H 203.306 5.06176 2.20204 0
M  V30 2027 H 205.782 3.1923 2.66892 0
M  V30 2028 H 204.658 3.91247 3.8499 0
M  V30 2029 H 204.919 2.17541 3.84874 0
M  V30 2030 N 203.978 -0.674533 1.42435 0
M  V30 2031 C 205.224 -1.43671 1.43131 0
M  V30 2032 C 205.557 -1.94142 0.0476021 0
M  V30 2033 O 204.832 -1.70924 -0.928188 0
M  V30 2034 C 205.115 -2.63355 2.45594 0
M  V30 2035 C 204.968 -2.18514 3.93156 0
M  V30 2036 C 206.287 -3.65571 2.45043 0
M  V30 2037 H 203.406 -0.521077 0.521198 0
M  V30 2038 H 206.048 -0.766551 1.7385 0
M  V30 2039 H 204.198 -3.2053 2.19528 0
M  V30 2040 H 205.87 -1.66504 4.30202 0
M  V30 2041 H 204.113 -1.50086 4.07009 0
M  V30 2042 H 204.784 -3.04484 4.60428 0
M  V30 2043 H 207.26 -3.18113 2.68223 0
M  V30 2044 H 206.136 -4.46893 3.18713 0
M  V30 2045 H 206.397 -4.16716 1.47649 0
M  V30 2046 N 205.456 -1.28612 -0.910864 0
M  V30 2047 C 206.403 -1.12786 -2.01365 0
M  V30 2048 C 207.373 -0.024201 -1.66082 0
M  V30 2049 O 208.558 -0.189667 -1.89855 0
M  V30 2050 C 205.698 -0.798743 -3.35729 0
M  V30 2051 C 204.811 -1.98173 -3.83864 0
M  V30 2052 C 203.946 -1.59298 -5.06752 0
M  V30 2053 C 202.985 -2.74245 -5.47226 0
M  V30 2054 N 202.122 -2.35842 -6.61304 0
M  V30 2055 H 206.962 -2.07142 -2.14234 0
M  V30 2056 H 204.499 -1.03093 -1.0493 0
M  V30 2057 H 206.457 -0.588662 -4.13026 0
M  V30 2058 H 205.087 0.10789 -3.2262 0
M  V30 2059 H 204.139 -2.30386 -3.02699 0
M  V30 2060 H 205.451 -2.84343 -4.09818 0
M  V30 2061 H 204.605 -1.34513 -5.916 0
M  V30 2062 H 203.344 -0.702618 -4.82612 0
M  V30 2063 H 202.349 -2.99725 -4.60918 0
M  V30 2064 H 203.574 -3.63928 -5.73353 0
M  V30 2065 H 201.52 -1.49279 -6.38789 0
M  V30 2066 H 201.437 -3.15546 -6.86998 0
M  V30 2067 H 202.705 -2.14348 -7.4945 0
M  V30 2068 N 206.934 1.1197 -1.10907 0
M  V30 2069 C 207.864 2.19928 -0.784473 0
M  V30 2070 C 208.845 1.6833 0.244726 0
M  V30 2071 O 210.03 1.93892 0.109418 0
M  V30 2072 C 207.16 3.46597 -0.220827 0
M  V30 2073 C 206.114 4.11376 -1.18127 0
M  V30 2074 C 205.44 5.32554 -0.478594 0
M  V30 2075 C 206.74 4.56945 -2.52979 0
M  V30 2076 H 208.434 2.47337 -1.68715 0
M  V30 2077 H 205.98 1.18879 -0.812642 0
M  V30 2078 H 207.933 4.21396 0.0184278 0
M  V30 2079 H 206.657 3.1863 0.717113 0
M  V30 2080 H 205.316 3.38564 -1.40606 0
M  V30 2081 H 204.964 5.00856 0.463976 0
M  V30 2082 H 204.664 5.76844 -1.11912 0
M  V30 2083 H 206.188 6.10096 -0.248 0
M  V30 2084 H 207.602 5.23093 -2.3462 0
M  V30 2085 H 205.999 5.1203 -3.12962 0
M  V30 2086 H 207.069 3.70676 -3.12614 0
M  V30 2087 N 208.412 0.89855 1.29475 0
M  V30 2088 C 209.823 0.572537 1.77705 0
M  V30 2089 C 210.174 -0.911778 1.73727 0
M  V30 2090 O 209.299 -1.71288 1.32247 0
M  V30 2091 C 209.894 1.03252 3.22683 0
M  V30 2092 C 208.453 0.757687 3.68695 0
M  V30 2093 C 207.6 1.20787 2.49612 0
M  V30 2094 H 210.551 1.08139 1.16153 0
M  V30 2095 H 210.572 0.367307 3.78723 0
M  V30 2096 H 210.084 2.11285 3.25546 0
M  V30 2097 H 208.185 -0.310079 3.71308 0
M  V30 2098 H 208.298 1.35476 4.59547 0
M  V30 2099 H 206.662 0.626888 2.46865 0
M  V30 2100 H 207.445 2.29622 2.55203 0
M  V30 2101 N 209.89 -1.43072 0.660911 0
M  V30 2102 C 211.115 -2.06584 0.183805 0
M  V30 2103 C 211.54 -1.49257 -1.14472 0
M  V30 2104 O 210.898 -0.605528 -1.70889 0
M  V30 2105 C 210.946 -3.60418 0.114434 0
M  V30 2106 O 210.05 -4.01981 -0.921137 0
M  V30 2107 H 209.391 -0.656669 0.0983994 0
M  V30 2108 H 211.921 -1.83447 0.906006 0
M  V30 2109 H 211.931 -4.07946 -0.0663394 0
M  V30 2110 H 210.606 -4.01519 1.08422 0
M  V30 2111 H 209.183 -3.66029 -0.71253 0
M  V30 2112 N 211.368 -0.403325 -1.52352 0
M  V30 2113 C 212.616 0.174003 -2.0135 0
M  V30 2114 C 212.937 1.46139 -1.29106 0
M  V30 2115 O 212.207 1.91448 -0.415253 0
M  V30 2116 H 210.787 0.0672911 -0.743963 0
M  V30 2117 H 213.449 -0.538235 -1.87321 0
M  V30 2118 H 212.545 0.374254 -3.09848 0
M  V30 2119 N 212.846 1.57033 -0.133567 0
M  V30 2120 C 213.756 2.19632 0.824564 0
M  V30 2121 C 214.772 1.17666 1.28182 0
M  V30 2122 O 215.948 1.50193 1.3418 0
M  V30 2123 C 213.013 2.79499 2.05137 0
M  V30 2124 C 212.074 3.96548 1.64464 0
M  V30 2125 C 211.307 4.5355 2.81297 0
M  V30 2126 O 211.53 4.09438 3.97136 0
M  V30 2127 O 210.464 5.44018 2.57542 0
M  V30 2128 H 214.29 3.01991 0.321766 0
M  V30 2129 H 211.875 1.49112 0.0927889 0
M  V30 2130 H 213.757 3.17602 2.7696 0
M  V30 2131 H 212.432 2.00162 2.54395 0
M  V30 2132 H 211.339 3.63186 0.897048 0
M  V30 2133 H 212.672 4.77364 1.19934 0
M  V30 2134 N 214.325 -0.140222 1.56975 0
M  V30 2135 C 215.258 -1.20266 1.93936 0
M  V30 2136 C 216.236 -1.41212 0.806099 0
M  V30 2137 O 217.42 -1.55713 1.06234 0
M  V30 2138 C 214.547 -2.56037 2.21726 0
M  V30 2139 C 213.593 -2.51646 3.44349 0
M  V30 2140 S 214.426 -1.97678 4.97678 0
M  V30 2141 C 215.582 -3.35165 5.28597 0
M  V30 2142 H 215.815 -0.887358 2.83749 0
M  V30 2143 H 213.348 -0.346119 1.50471 0
M  V30 2144 H 215.306 -3.34167 2.38416 0
M  V30 2145 H 213.967 -2.84755 1.32566 0
M  V30 2146 H 213.16 -3.51608 3.61092 0
M  V30 2147 H 212.762 -1.81628 3.26936 0
M  V30 2148 H 215.054 -4.31302 5.2248 0
M  V30 2149 H 215.997 -3.23269 6.30002 0
M  V30 2150 H 216.405 -3.32614 4.56101 0
M  V30 2151 N 215.803 -1.52179 -0.40978 0
M  V30 2152 C 216.75 -1.75475 -1.49924 0
M  V30 2153 C 217.72 -0.597175 -1.54994 0
M  V30 2154 O 218.905 -0.834655 -1.71575 0
M  V30 2155 C 216.045 -1.9107 -2.87378 0
M  V30 2156 C 215.158 -3.18717 -2.91622 0
M  V30 2157 C 214.293 -3.24747 -4.20372 0
M  V30 2158 C 213.332 -4.46598 -4.18588 0
M  V30 2159 N 212.469 -4.50025 -5.38908 0
M  V30 2160 H 217.309 -2.68458 -1.29361 0
M  V30 2161 H 214.846 -1.33024 -0.627934 0
M  V30 2162 H 216.804 -1.98096 -3.6717 0
M  V30 2163 H 215.434 -1.01469 -3.06437 0
M  V30 2164 H 214.486 -3.20866 -2.04326 0
M  V30 2165 H 215.798 -4.08544 -2.86169 0
M  V30 2166 H 214.952 -3.30841 -5.08556 0
M  V30 2167 H 213.691 -2.32857 -4.28519 0
M  V30 2168 H 212.696 -4.40652 -3.28794 0
M  V30 2169 H 213.921 -5.39783 -4.12081 0
M  V30 2170 H 211.867 -3.61017 -5.47725 0
M  V30 2171 H 211.784 -5.33697 -5.35447 0
M  V30 2172 H 213.052 -4.60347 -6.29048 0
M  V30 2173 N 217.281 0.66697 -1.42791 0
M  V30 2174 C 218.697 0.981027 -1.25889 0
M  V30 2175 C 218.897 2.00793 -0.168695 0
M  V30 2176 O 217.953 2.48321 0.45747 0
M  V30 2177 C 219.266 1.47838 -2.61848 0
M  V30 2178 C 220.814 1.59575 -2.69267 0
M  V30 2179 C 221.289 2.12704 -4.05612 0
M  V30 2180 N 222.78 2.20026 -4.07606 0
M  V30 2181 C 223.515 2.62227 -5.09926 0
M  V30 2182 N 223.011 3.03824 -6.22626 0
M  V30 2183 N 224.804 2.62045 -4.97281 0
M  V30 2184 H 216.955 -0.0127891 -2.12396 0
M  V30 2185 H 219.218 0.0568258 -0.946295 0
M  V30 2186 H 218.924 0.798299 -3.4252 0
M  V30 2187 H 218.798 2.45579 -2.86305 0
M  V30 2188 H 221.185 2.26687 -1.88936 0
M  V30 2189 H 221.266 0.60302 -2.48591 0
M  V30 2190 H 220.91 1.46198 -4.86404 0
M  V30 2191 H 220.84 3.12782 -4.23645 0
M  V30 2192 H 223.331 1.90708 -3.2625 0
M  V30 2193 H 223.644 3.34734 -6.96544 0
M  V30 2194 H 221.989 3.01662 -6.26119 0
M  V30 2195 H 225.18 2.28916 -4.08308 0
M  V30 2196 H 225.353 2.94613 -5.77154 0
M  V30 2197 N 218.759 1.29093 0.90403 0
M  V30 2198 C 219.689 1.16401 2.02418 0
M  V30 2199 C 220.67 0.0593085 1.69997 0
M  V30 2200 O 221.855 0.238021 1.92736 0
M  V30 2201 C 218.985 0.835233 3.37107 0
M  V30 2202 C 217.939 1.89578 3.83724 0
M  V30 2203 C 217.265 1.42041 5.15489 0
M  V30 2204 C 218.565 3.30394 4.04521 0
M  V30 2205 H 220.259 2.10109 2.13295 0
M  V30 2206 H 217.805 1.01157 1.02486 0
M  V30 2207 H 219.758 0.733169 4.14973 0
M  V30 2208 H 218.482 -0.137543 3.2631 0
M  V30 2209 H 217.141 1.98715 3.08071 0
M  V30 2210 H 216.789 0.436426 5.01103 0
M  V30 2211 H 216.489 2.12964 5.4765 0
M  V30 2212 H 218.013 1.33176 5.959 0
M  V30 2213 H 219.427 3.24123 4.72882 0
M  V30 2214 H 217.824 3.99237 4.48029 0
M  V30 2215 H 218.894 3.73692 3.09002 0
M  V30 2216 N 220.237 -1.11381 1.11499 0
M  V30 2217 C 221.514 -1.7955 0.775965 0
M  V30 2218 C 221.894 -1.97859 -0.73588 0
M  V30 2219 O 221.242 -1.56376 -1.66609 0
M  V30 2220 C 221.452 -3.13196 1.53977 0
M  V30 2221 C 222.8 -3.88227 1.71944 0
M  V30 2222 O 223.824 -3.22887 1.50407 0
M  V30 2223 O 222.683 -5.05477 2.07738 0
M  V30 2224 H 219.777 -0.777728 0.28119 0
M  V30 2225 H 222.323 -1.18118 1.21845 0
M  V30 2226 H 221.095 -2.95229 2.56818 0
M  V30 2227 H 220.718 -3.82342 1.09088 0
M  V30 2228 N 221.715 -0.905404 -1.28997 0
M  V30 2229 C 223.126 -0.581953 -1.77398 0
M  V30 2230 C 223.477 0.902552 -1.74208 0
M  V30 2231 O 222.602 1.70584 -1.33154 0
M  V30 2232 C 223.197 -1.04961 -3.22131 0
M  V30 2233 C 221.756 -0.777229 -3.68288 0
M  V30 2234 C 220.903 -1.22109 -2.48967 0
M  V30 2235 H 223.854 -1.08754 -1.15578 0
M  V30 2236 H 223.875 -0.387387 -3.78523 0
M  V30 2237 H 223.387 -2.13008 -3.24421 0
M  V30 2238 H 221.488 0.290383 -3.71467 0
M  V30 2239 H 221.601 -1.37911 -4.58822 0
M  V30 2240 H 219.965 -0.639971 -2.46529 0
M  V30 2241 H 220.748 -2.30972 -2.53982 0
M  V30 2242 N 223.193 1.4272 -0.668489 0
M  V30 2243 C 224.125 2.2914 0.052613 0
M  V30 2244 C 225.138 1.43339 0.771857 0
M  V30 2245 O 226.327 1.67123 0.627067 0
M  V30 2246 C 223.427 3.20618 1.09804 0
M  V30 2247 C 222.6 4.35039 0.45389 0
M  V30 2248 C 221.659 5.07282 1.39825 0
M  V30 2249 O 220.685 5.62024 0.900978 0
M  V30 2250 N 221.887 5.12206 2.73176 0
M  V30 2251 H 224.652 2.91668 -0.689209 0
M  V30 2252 H 222.213 1.53577 -0.512422 0
M  V30 2253 H 224.205 3.65815 1.73094 0
M  V30 2254 H 222.775 2.59585 1.74167 0
M  V30 2255 H 221.995 3.92567 -0.358396 0
M  V30 2256 H 223.283 5.088 0.00486972 0
M  V30 2257 H 222.681 4.6913 3.16122 0
M  V30 2258 H 221.238 5.61069 3.31729 0
M  V30 2259 N 224.671 0.411399 1.52136 0
M  V30 2260 C 225.911 -0.163143 2.03748 0
M  V30 2261 C 226.275 -1.42187 1.29022 0
M  V30 2262 O 227.476 -2.075 1.70872 0
M  V30 2263 C 225.747 -0.402651 3.55125 0
M  V30 2264 S 227.306 -0.944315 4.28519 0
M  V30 2265 H 224.124 -0.0439833 0.709638 0
M  V30 2266 H 226.726 0.56484 1.87163 0
M  V30 2267 H 225.43 0.520212 4.0709 0
M  V30 2268 H 224.961 -1.15844 3.75957 0
M  V30 2269 H 226.976 -2.22463 4.43536 0
M  V30 2270 N 226.149 -1.5696 0.141893 0
M  V30 2271 C 227.565 -1.58151 -0.21456 0
M  V30 2272 C 227.765 -1.1559 -1.65049 0
M  V30 2273 O 226.821 -0.853832 -2.37626 0
M  V30 2274 C 228.134 -3.00674 0.0395576 0
M  V30 2275 C 229.682 -3.1299 -0.0245529 0
M  V30 2276 C 230.157 -4.57554 0.202167 0
M  V30 2277 N 231.648 -4.62961 0.148919 0
M  V30 2278 C 232.383 -5.7262 0.298924 0
M  V30 2279 N 231.879 -6.90947 0.50637 0
M  V30 2280 N 233.672 -5.61601 0.236886 0
M  V30 2281 H 225.823 -1.8292 1.07953 0
M  V30 2282 H 228.086 -0.846425 0.42693 0
M  V30 2283 H 227.792 -3.36183 1.03315 0
M  V30 2284 H 227.666 -3.70981 -0.682143 0
M  V30 2285 H 230.053 -2.77326 -1.00869 0
M  V30 2286 H 230.134 -2.4518 0.729396 0
M  V30 2287 H 229.778 -4.93922 1.18338 0
M  V30 2288 H 229.708 -5.23484 -0.572044 0
M  V30 2289 H 232.199 -3.77899 -0.00697015 0
M  V30 2290 H 232.512 -7.7038 0.611076 0
M  V30 2291 H 230.857 -6.92878 0.542628 0
M  V30 2292 H 234.048 -4.68039 0.0756209 0
M  V30 2293 H 234.221 -6.47015 0.357227 0
M  V30 2294 N 227.627 0.131896 -1.57047 0
M  V30 2295 C 228.59 1.14638 -1.98471 0
M  V30 2296 C 229.59 1.35029 -0.873148 0
M  V30 2297 O 230.78 1.31764 -1.13946 0
M  V30 2298 C 227.912 2.50358 -2.31373 0
M  V30 2299 H 229.105 0.79064 -2.8929 0
M  V30 2300 H 226.658 0.375761 -1.51716 0
M  V30 2301 H 227.393 2.90876 -1.43393 0
M  V30 2302 H 227.178 2.36915 -3.12432 0
M  V30 2303 H 228.668 3.23395 -2.64207 0
M  V30 2304 N 229.106 1.52395 0.401703 0
M  V30 2305 C 230.334 1.70676 1.16949 0
M  V30 2306 C 230.749 0.419503 1.8408 0
M  V30 2307 O 230.106 -0.605061 1.72178 0
M  V30 2308 C 230.157 2.84753 2.22706 0
M  V30 2309 O 229.878 4.08495 1.58314 0
M  V30 2310 C 231.379 3.14608 3.12309 0
M  V30 2311 H 228.599 0.571787 0.351142 0
M  V30 2312 H 231.143 1.98987 0.471652 0
M  V30 2313 H 229.298 2.58941 2.88147 0
M  V30 2314 H 229.712 4.72117 2.28485 0
M  V30 2315 H 231.186 3.97923 3.82572 0
M  V30 2316 H 231.663 2.28464 3.75101 0
M  V30 2317 H 232.269 3.42212 2.52529 0
M  V30 2318 N 230.584 -0.659388 1.43143 0
M  V30 2319 C 231.833 -1.41518 1.43721 0
M  V30 2320 C 232.146 -1.95499 0.0628176 0
M  V30 2321 O 233.352 -2.71446 -0.0539683 0
M  V30 2322 C 231.808 -2.5608 2.52885 0
M  V30 2323 C 231.416 -2.08733 3.96402 0
M  V30 2324 C 233.16 -3.3349 2.62649 0
M  V30 2325 C 231.067 -3.20469 4.97045 0
M  V30 2326 H 229.997 -0.531705 0.534608 0
M  V30 2327 H 232.648 -0.712343 1.69109 0
M  V30 2328 H 231.03 -3.28805 2.20688 0
M  V30 2329 H 232.204 -1.43059 4.3803 0
M  V30 2330 H 230.519 -1.44219 3.90627 0
M  V30 2331 H 233.116 -4.16734 3.35017 0
M  V30 2332 H 233.459 -3.8111 1.67513 0
M  V30 2333 H 233.992 -2.67842 2.94118 0
M  V30 2334 H 230.731 -2.77824 5.93712 0
M  V30 2335 H 230.251 -3.84874 4.60034 0
M  V30 2336 H 231.93 -3.85698 5.19467 0
M  V30 2337 N 232.062 -1.29571 -0.897171 0
M  V30 2338 C 233.31 -1.17456 -1.64464 0
M  V30 2339 C 233.631 0.273698 -1.9307 0
M  V30 2340 O 232.901 1.18684 -1.55855 0
M  V30 2341 H 231.481 -0.431706 -0.609622 0
M  V30 2342 H 234.143 -1.62531 -1.07562 0
M  V30 2343 H 233.239 -1.72648 -2.59998 0
M  V30 2344 N 233.54 1.10788 -1.12088 0
M  V30 2345 C 234.786 1.82942 -0.875226 0
M  V30 2346 C 235.119 1.84779 0.597538 0
M  V30 2347 O 234.394 1.30578 1.44152 0
M  V30 2348 C 234.677 3.29789 -1.44606 0
M  V30 2349 C 234.53 3.36307 -2.98693 0
M  V30 2350 C 235.849 4.26064 -1.10261 0
M  V30 2351 H 232.968 0.664195 -0.319397 0
M  V30 2352 H 235.61 1.29867 -1.38689 0
M  V30 2353 H 233.76 3.75118 -1.01089 0
M  V30 2354 H 235.432 2.99487 -3.50864 0
M  V30 2355 H 233.675 2.76318 -3.34411 0
M  V30 2356 H 234.346 4.39694 -3.33726 0
M  V30 2357 H 236.822 3.88951 -1.4784 0
M  V30 2358 H 235.698 5.27183 -1.52869 0
M  V30 2359 H 235.959 4.42098 -0.0142953 0
M  V30 2360 N 235.018 0.912232 1.28515 0
M  V30 2361 C 236.264 0.545405 1.95328 0
M  V30 2362 C 236.597 -0.908313 1.71649 0
M  V30 2363 O 235.872 -1.64575 1.03659 0
M  V30 2364 C 236.155 0.853483 3.4984 0
M  V30 2365 C 236.008 2.35982 3.82926 0
M  V30 2366 C 237.327 0.348589 4.38717 0
M  V30 2367 H 234.446 0.199626 0.709449 0
M  V30 2368 H 237.088 1.1412 1.5191 0
M  V30 2369 H 235.238 0.34643 3.86952 0
M  V30 2370 H 236.91 2.93738 3.55691 0
M  V30 2371 H 235.153 2.81543 3.30024 0
M  V30 2372 H 235.824 2.52593 4.90816 0
M  V30 2373 H 238.3 0.78294 4.08668 0
M  V30 2374 H 237.176 0.593242 5.45685 0
M  V30 2375 H 237.437 -0.751049 4.35674 0
M  V30 2376 N 236.496 -1.42363 0.676048 0
M  V30 2377 C 237.459 -2.29199 0.00766941 0
M  V30 2378 C 238.459 -1.43389 -0.727745 0
M  V30 2379 O 239.649 -1.64764 -0.56556 0
M  V30 2380 C 236.781 -3.2591 -0.999785 0
M  V30 2381 H 237.974 -2.89794 0.771988 0
M  V30 2382 H 235.527 -1.50024 0.438468 0
M  V30 2383 H 236.262 -2.70256 -1.79255 0
M  V30 2384 H 236.047 -3.89202 -0.475829 0
M  V30 2385 H 237.537 -3.91028 -1.46583 0
M  V30 2386 N 237.974 -0.419461 -1.51915 0
M  V30 2387 C 239.222 0.152637 -2.01523 0
M  V30 2388 C 239.543 1.44762 -1.30649 0
M  V30 2389 O 238.813 1.90997 -0.435535 0
M  V30 2390 H 237.393 0.0593966 -0.744635 0
M  V30 2391 H 240.055 -0.558073 -1.86739 0
M  V30 2392 H 239.151 0.341369 -3.10227 0
M  V30 2393 N 239.452 1.56882 -0.150215 0
M  V30 2394 C 240.7 1.9584 0.499105 0
M  V30 2395 C 241.021 1.03623 1.65188 0
M  V30 2396 O 240.291 0.0984084 1.95653 0
M  V30 2397 H 238.871 0.723119 0.187373 0
M  V30 2398 H 241.533 1.9358 -0.226466 0
M  V30 2399 H 240.629 2.99638 0.873122 0
M  V30 2400 N 240.93 -0.123565 1.57115 0
M  V30 2401 C 242.178 -0.83051 1.84247 0
M  V30 2402 C 242.499 -1.80629 0.73471 0
M  V30 2403 O 241.769 -1.94403 -0.241688 0
M  V30 2404 H 240.349 -0.309694 0.679778 0
M  V30 2405 H 243.011 -0.111976 1.94578 0
M  V30 2406 H 242.107 -1.37852 2.80006 0
M  V30 2407 N 242.408 -1.52605 -0.393616 0
M  V30 2408 C 243.824 -1.41753 -0.733357 0
M  V30 2409 C 244.024 -0.534293 -1.94287 0
M  V30 2410 O 243.08 -0.0059787 -2.52499 0
M  V30 2411 C 244.393 -2.84531 -0.972772 0
M  V30 2412 C 245.941 -2.93978 -1.07453 0
M  V30 2413 C 246.416 -4.37756 -1.3466 0
M  V30 2414 N 247.907 -4.4106 -1.41492 0
M  V30 2415 C 248.642 -5.49387 -1.642 0
M  V30 2416 N 248.138 -6.67806 -1.8441 0
M  V30 2417 N 249.931 -5.36923 -1.66342 0
M  V30 2418 H 242.082 -2.08555 0.402328 0
M  V30 2419 H 244.345 -0.940654 0.117789 0
M  V30 2420 H 244.051 -3.51353 -0.156204 0
M  V30 2421 H 243.925 -3.26508 -1.88871 0
M  V30 2422 H 246.312 -2.27326 -1.88167 0
M  V30 2423 H 246.393 -2.55435 -0.136605 0
M  V30 2424 H 246.037 -5.04972 -0.544581 0
M  V30 2425 H 245.967 -4.73848 -2.2973 0
M  V30 2426 H 248.458 -3.55705 -1.27601 0
M  V30 2427 H 248.771 -7.46141 -2.01231 0
M  V30 2428 H 247.116 -6.70843 -1.81644 0
M  V30 2429 H 250.307 -4.43381 -1.50102 0
M  V30 2430 H 250.48 -6.21416 -1.837 0
M  V30 2431 N 243.887 0.651787 -1.4349 0
M  V30 2432 C 245.115 1.43937 -1.48626 0
M  V30 2433 C 245.53 1.8851 -0.104587 0
M  V30 2434 O 244.887 1.5958 0.885464 0
M  V30 2435 C 244.938 2.6734 -2.43334 0
M  V30 2436 O 244.659 2.24631 -3.76128 0
M  V30 2437 C 246.16 3.60683 -2.57726 0
M  V30 2438 H 243.38 0.44213 -0.504739 0
M  V30 2439 H 245.924 0.798944 -1.88248 0
M  V30 2440 H 244.079 3.2752 -2.06904 0
M  V30 2441 H 244.493 3.04485 -4.2707 0
M  V30 2442 H 245.967 4.43933 -3.28067 0
M  V30 2443 H 246.444 4.08126 -1.62265 0
M  V30 2444 H 247.05 3.06384 -2.94973 0
M  V30 2445 N 245.365 1.30045 0.890287 0
M  V30 2446 C 246.642 1.09227 1.62262 0
M  V30 2447 C 247.022 -0.360305 2.08002 0
M  V30 2448 O 246.37 -1.35084 1.84295 0
M  V30 2449 C 246.58 2.08835 2.79623 0
M  V30 2450 C 247.928 2.40266 3.50082 0
M  V30 2451 O 248.952 2.07104 2.89804 0
M  V30 2452 O 247.811 2.96967 4.58773 0
M  V30 2453 H 244.905 0.419132 0.712922 0
M  V30 2454 H 247.451 1.41451 0.937529 0
M  V30 2455 H 246.223 3.06633 2.43089 0
M  V30 2456 H 245.846 1.77397 3.55832 0
M  V30 2457 N 246.843 -1.10192 1.12674 0
M  V30 2458 C 247.79 -2.16606 0.796906 0
M  V30 2459 C 248.76 -1.64394 -0.237476 0
M  V30 2460 O 249.945 -1.90474 -0.111484 0
M  V30 2461 C 247.085 -3.44116 0.26043 0
M  V30 2462 C 246.198 -4.10268 1.35293 0
M  V30 2463 C 245.333 -5.25507 0.775621 0
M  V30 2464 C 244.372 -5.83567 1.84706 0
M  V30 2465 N 243.509 -6.90179 1.28829 0
M  V30 2466 H 248.349 -2.44163 1.70846 0
M  V30 2467 H 245.886 -1.19846 0.85295 0
M  V30 2468 H 247.844 -4.17143 -0.0686814 0
M  V30 2469 H 246.474 -3.16901 -0.614274 0
M  V30 2470 H 245.526 -3.35184 1.79877 0
M  V30 2471 H 246.838 -4.4946 2.16303 0
M  V30 2472 H 245.992 -6.05398 0.397327 0
M  V30 2473 H 244.731 -4.87656 -0.0656581 0
M  V30 2474 H 243.736 -5.02344 2.23452 0
M  V30 2475 H 244.961 -6.23482 2.69161 0
M  V30 2476 H 242.907 -6.54322 0.468881 0
M  V30 2477 H 242.824 -7.28097 2.03497 0
M  V30 2478 H 244.092 -7.73844 0.937311 0
M  V30 2479 N 248.321 -0.919034 -1.28029 0
M  V30 2480 C 249.732 -0.600735 -1.76771 0
M  V30 2481 C 250.083 0.884024 -1.75156 0
M  V30 2482 O 249.208 1.69163 -1.34956 0
M  V30 2483 C 249.803 -1.08372 -3.21 0
M  V30 2484 C 248.362 -0.816248 -3.67443 0
M  V30 2485 C 247.509 -1.24742 -2.47658 0
M  V30 2486 H 250.46 -1.09974 -1.14418 0
M  V30 2487 H 250.481 -0.427512 -3.78091 0
M  V30 2488 H 249.993 -2.16437 -3.22144 0
M  V30 2489 H 248.094 0.250968 -3.71754 0
M  V30 2490 H 248.207 -1.4277 -4.57333 0
M  V30 2491 H 246.571 -0.666083 -2.45836 0
M  V30 2492 H 247.354 -2.33653 -2.51518 0
M  V30 2493 N 249.799 1.42003 -0.683588 0
M  V30 2494 C 251.046 2.01413 -0.209514 0
M  V30 2495 C 251.374 1.54088 1.1869 0
M  V30 2496 O 250.629 0.737591 1.81268 0
M  V30 2497 C 250.928 3.56827 -0.202357 0
M  V30 2498 C 250.594 4.23617 -1.54464 0
M  V30 2499 C 249.256 4.41577 -1.91215 0
M  V30 2500 C 251.608 4.61178 -2.42826 0
M  V30 2501 C 248.936 4.9437 -3.15935 0
M  V30 2502 C 251.288 5.15355 -3.66867 0
M  V30 2503 C 249.952 5.31528 -4.03776 0
M  V30 2504 H 249.222 0.737023 -0.0766668 0
M  V30 2505 H 251.869 1.70067 -0.880312 0
M  V30 2506 H 250.174 3.87892 0.551969 0
M  V30 2507 H 251.871 4.00588 0.181793 0
M  V30 2508 H 248.461 4.10004 -1.24877 0
M  V30 2509 H 252.645 4.46968 -2.15717 0
M  V30 2510 H 247.901 5.05076 -3.44541 0
M  V30 2511 H 252.075 5.43402 -4.35531 0
M  V30 2512 H 249.702 5.72199 -5.00492 0
M  V30 2513 N 251.277 0.427512 1.51691 0
M  V30 2514 C 252.523 -0.142439 2.02299 0
M  V30 2515 C 252.856 -1.43214 1.31162 0
M  V30 2516 O 252.131 -1.89833 0.423511 0
M  V30 2517 C 252.414 -0.371301 3.58181 0
M  V30 2518 C 252.267 0.936358 4.39946 0
M  V30 2519 C 253.586 -1.14542 4.24933 0
M  V30 2520 H 250.705 -0.0502937 0.735282 0
M  V30 2521 H 253.347 0.564584 1.81418 0
M  V30 2522 H 251.497 -0.973559 3.76104 0
M  V30 2523 H 253.169 1.57184 4.33694 0
M  V30 2524 H 251.412 1.5432 4.05423 0
M  V30 2525 H 252.083 0.730388 5.47147 0
M  V30 2526 H 254.559 -0.635362 4.11221 0
M  V30 2527 H 253.435 -1.27431 5.33903 0
M  V30 2528 H 253.696 -2.17093 3.85127 0
M  V30 2529 N 252.755 -1.56801 0.158532 0
M  V30 2530 C 253.702 -2.17337 -0.776729 0
M  V30 2531 C 254.672 -1.1096 -1.23601 0
M  V30 2532 O 255.857 -1.39054 -1.30647 0
M  V30 2533 C 252.997 -2.80822 -2.00582 0
M  V30 2534 C 252.11 -4.01624 -1.59129 0
M  V30 2535 C 251.245 -4.53072 -2.77306 0
M  V30 2536 C 250.284 -5.66314 -2.32282 0
M  V30 2537 N 249.421 -6.12329 -3.43508 0
M  V30 2538 H 254.261 -2.96918 -0.253701 0
M  V30 2539 H 251.798 -1.46661 -0.113504 0
M  V30 2540 H 253.756 -3.15779 -2.72652 0
M  V30 2541 H 252.386 -2.03866 -2.50277 0
M  V30 2542 H 251.438 -3.72571 -0.767806 0
M  V30 2543 H 252.75 -4.83633 -1.2207 0
M  V30 2544 H 251.904 -4.90145 -3.57551 0
M  V30 2545 H 250.643 -3.70095 -3.17617 0
M  V30 2546 H 249.648 -5.28806 -1.5048 0
M  V30 2547 H 250.873 -6.51085 -1.93043 0
M  V30 2548 H 248.819 -5.32284 -3.83418 0
M  V30 2549 H 248.736 -6.89293 -3.105 0
M  V30 2550 H 250.004 -6.5405 -4.24075 0
M  V30 2551 N 254.233 0.115231 -1.57178 0
M  V30 2552 C 255.196 1.12526 -1.99676 0
M  V30 2553 C 256.196 1.34095 -0.88742 0
M  V30 2554 O 257.386 1.30548 -1.15337 0
M  V30 2555 C 254.518 2.4789 -2.34015 0
M  V30 2556 H 255.711 0.759912 -2.90113 0
M  V30 2557 H 253.264 0.359648 -1.52106 0
M  V30 2558 H 253.999 2.89339 -1.4647 0
M  V30 2559 H 253.784 2.33588 -3.14927 0
M  V30 2560 H 255.274 3.20575 -2.67622 0
M  V30 2561 N 255.711 1.52812 0.385517 0
M  V30 2562 C 256.959 1.67694 1.12797 0
M  V30 2563 C 257.28 0.421115 1.90399 0
M  V30 2564 O 256.55 -0.564551 1.87589 0
M  V30 2565 H 255.13 0.618155 0.419396 0
M  V30 2566 H 257.792 1.89938 0.436972 0
M  V30 2567 H 256.888 2.52896 1.82894 0
M  V30 2568 N 257.189 -0.644168 1.43834 0
M  V30 2569 C 258.137 -1.77793 1.49974 0
M  V30 2570 C 259.131 -1.65253 0.372536 0
M  V30 2571 O 260.337 -1.7149 0.546924 0
M  V30 2572 H 256.712 -0.58675 0.47035 0
M  V30 2573 H 258.683 -1.69736 2.45423 0
M  V30 2574 C 257.432 -3.16087 1.4486 0
M  V30 2575 H 256.755 -3.26378 2.30905 0
M  V30 2576 H 258.195 -3.95349 1.53217 0
M  V30 2577 C 256.654 -3.36484 0.167463 0
M  V30 2578 O 257.184 -3.94298 -0.767609 0
M  V30 2579 N 255.39 -2.90504 0.0747556 0
M  V30 2580 H 254.937 -2.4364 0.836507 0
M  V30 2581 H 254.895 -3.04527 -0.781714 0
M  V30 2582 N 258.668 -1.30515 -0.883378 0
M  V30 2583 C 259.615 -1.17032 -1.98927 0
M  V30 2584 C 260.585 -0.0594241 -1.65994 0
M  V30 2585 O 261.77 -0.229895 -1.8941 0
M  V30 2586 C 258.91 -0.869777 -3.33959 0
M  V30 2587 C 258.023 -2.06271 -3.79574 0
M  V30 2588 C 257.158 -1.70011 -5.03259 0
M  V30 2589 C 256.197 -2.8579 -5.41286 0
M  V30 2590 N 255.334 -2.49816 -6.56153 0
M  V30 2591 H 260.174 -2.1164 -2.09792 0
M  V30 2592 H 257.711 -1.05296 -1.02719 0
M  V30 2593 H 259.669 -0.676138 -4.11685 0
M  V30 2594 H 258.299 0.0394332 -3.22776 0
M  V30 2595 H 257.351 -2.36755 -2.97744 0
M  V30 2596 H 258.663 -2.92971 -4.03694 0
M  V30 2597 H 257.817 -1.47032 -5.88614 0
M  V30 2598 H 256.556 -0.804829 -4.81013 0
M  V30 2599 H 255.561 -3.09434 -4.54456 0
M  V30 2600 H 256.786 -3.76008 -5.65504 0
M  V30 2601 H 254.732 -1.62795 -6.35479 0
M  V30 2602 H 254.649 -3.30048 -6.8015 0
M  V30 2603 H 255.917 -2.30197 -7.44735 0
M  V30 2604 N 260.146 1.09593 -1.13257 0
M  V30 2605 C 261.096 2.14345 -0.777179 0
M  V30 2606 C 262.08 1.59277 0.227966 0
M  V30 2607 O 263.272 1.76971 0.0321413 0
M  V30 2608 C 260.401 3.42439 -0.242991 0
M  V30 2609 C 259.487 4.04419 -1.27694 0
M  V30 2610 N 259.878 4.40979 -2.47732 0
M  V30 2611 C 258.176 4.31596 -1.12432 0
M  V30 2612 C 258.877 4.89784 -3.13826 0
M  V30 2613 N 257.853 4.87133 -2.41252 0
M  V30 2614 H 261.655 2.40415 -1.69049 0
M  V30 2615 H 259.169 1.26803 -1.01463 0
M  V30 2616 H 261.166 4.16889 0.0298496 0
M  V30 2617 H 259.826 3.17824 0.66467 0
M  V30 2618 H 260.837 4.32396 -2.85051 0
M  V30 2619 H 257.514 4.16595 -0.274684 0
M  V30 2620 H 258.904 5.2755 -4.16102 0
M  V30 2621 N 261.624 0.925811 1.2754 0
M  V30 2622 C 262.574 0.394488 2.24561 0
M  V30 2623 C 263.558 -0.500183 1.52928 0
M  V30 2624 O 264.75 -0.337936 1.73744 0
M  V30 2625 C 261.879 -0.353328 3.41477 0
M  V30 2626 C 260.965 0.557752 4.20416 0
M  V30 2627 N 261.356 1.67674 4.77199 0
M  V30 2628 C 259.654 0.360404 4.44541 0
M  V30 2629 C 260.355 2.24324 5.36706 0
M  V30 2630 N 259.331 1.53305 5.21535 0
M  V30 2631 H 263.133 1.2489 2.66045 0
M  V30 2632 H 260.647 0.779864 1.4245 0
M  V30 2633 H 262.644 -0.7509 4.10082 0
M  V30 2634 H 261.304 -1.20469 3.01525 0
M  V30 2635 H 262.315 2.05915 4.75204 0
M  V30 2636 H 258.992 -0.450454 4.15063 0
M  V30 2637 H 260.382 3.18521 5.91603 0
M  V30 2638 N 263.102 -1.41638 0.69111 0
M  V30 2639 C 264.049 -2.30789 0.0229705 0
M  V30 2640 C 265.019 -1.46863 -0.775911 0
M  V30 2641 O 266.204 -1.75661 -0.74485 0
M  V30 2642 C 263.344 -3.32868 -0.910666 0
M  V30 2643 C 262.457 -4.31875 -0.103874 0
M  V30 2644 C 261.592 -5.21024 -1.03475 0
M  V30 2645 C 260.631 -6.11702 -0.220598 0
M  V30 2646 N 259.768 -6.93349 -1.10504 0
M  V30 2647 H 264.608 -2.87366 0.788978 0
M  V30 2648 H 262.145 -1.41535 0.400794 0
M  V30 2649 H 264.103 -3.90596 -1.46597 0
M  V30 2650 H 262.733 -2.77851 -1.64312 0
M  V30 2651 H 261.785 -3.76131 0.568285 0
M  V30 2652 H 263.097 -4.96003 0.527504 0
M  V30 2653 H 262.251 -5.83565 -1.65943 0
M  V30 2654 H 260.99 -4.57112 -1.69999 0
M  V30 2655 H 259.995 -5.48215 0.417187 0
M  V30 2656 H 261.22 -6.77668 0.440784 0
M  V30 2657 H 259.166 -6.3205 -1.75638 0
M  V30 2658 H 259.083 -7.54146 -0.529125 0
M  V30 2659 H 260.351 -7.60362 -1.71667 0
M  V30 2660 N 264.58 -0.43555 -1.51462 0
M  V30 2661 C 265.513 0.421989 -2.24264 0
M  V30 2662 C 266.491 1.02619 -1.26127 0
M  V30 2663 O 267.675 1.069 -1.55257 0
M  V30 2664 C 264.802 1.588 -2.99166 0
M  V30 2665 C 263.848 1.10465 -4.11946 0
M  V30 2666 S 264.681 0.048146 -5.35478 0
M  V30 2667 C 265.837 1.21887 -6.13917 0
M  V30 2668 H 266.07 -0.196102 -2.96653 0
M  V30 2669 H 263.603 -0.220054 -1.52824 0
M  V30 2670 H 265.561 2.25647 -3.42919 0
M  V30 2671 H 264.222 2.1775 -2.26371 0
M  V30 2672 H 263.415 1.97654 -4.63626 0
M  V30 2673 H 263.017 0.51445 -3.70445 0
M  V30 2674 H 265.309 2.13756 -6.42895 0
M  V30 2675 H 266.252 0.742076 -7.04201 0
M  V30 2676 H 266.66 1.45663 -5.45383 0
M  V30 2677 N 266.058 1.56714 -0.166846 0
M  V30 2678 C 267.005 2.17746 0.765193 0
M  V30 2679 C 267.975 1.11614 1.23011 0
M  V30 2680 O 269.16 1.39745 1.29908 0
M  V30 2681 C 266.3 2.81882 1.9909 0
M  V30 2682 C 265.413 4.02462 1.56997 0
M  V30 2683 C 264.548 4.54537 2.749 0
M  V30 2684 C 263.587 5.67538 2.29275 0
M  V30 2685 N 262.724 6.14142 3.40255 0
M  V30 2686 H 267.564 2.97048 0.237952 0
M  V30 2687 H 265.101 1.4672 0.105725 0
M  V30 2688 H 267.059 3.17221 2.70974 0
M  V30 2689 H 265.689 2.05191 2.49192 0
M  V30 2690 H 264.741 3.72973 0.748037 0
M  V30 2691 H 266.053 4.84273 1.19503 0
M  V30 2692 H 265.207 4.92035 3.54946 0
M  V30 2693 H 263.946 3.71774 3.1565 0
M  V30 2694 H 262.951 5.29597 1.47674 0
M  V30 2695 H 264.176 6.52099 1.89588 0
M  V30 2696 H 262.122 5.3431 3.8059 0
M  V30 2697 H 262.039 6.9093 3.06841 0
M  V30 2698 H 263.307 6.56289 4.206 0
M  V30 2699 N 267.536 -0.106894 1.57237 0
M  V30 2700 C 268.499 -1.11466 2.0027 0
M  V30 2701 C 269.499 -1.33623 0.894519 0
M  V30 2702 O 270.689 -1.29935 1.16028 0
M  V30 2703 C 267.821 -2.46646 2.35327 0
M  V30 2704 H 269.014 -0.744516 2.90512 0
M  V30 2705 H 266.567 -0.351576 1.52295 0
M  V30 2706 H 267.302 -2.88558 1.48003 0
M  V30 2707 H 267.087 -2.31915 3.16161 0
M  V30 2708 H 268.577 -3.19151 2.69318 0
M  V30 2709 N 269.014 -1.53014 -0.377408 0
M  V30 2710 C 270.43 -1.42523 -0.718281 0
M  V30 2711 C 270.63 -0.55487 -1.9371 0
M  V30 2712 O 269.686 -0.0327593 -2.52479 0
M  V30 2713 C 270.999 -2.85546 -0.942539 0
M  V30 2714 C 272.547 -2.95101 -1.04329 0
M  V30 2715 C 273.022 -4.3916 -1.3001 0
M  V30 2716 N 274.513 -4.42536 -1.36806 0
M  V30 2717 C 275.248 -5.51097 -1.58364 0
M  V30 2718 N 274.744 -6.69724 -1.77317 0
M  V30 2719 N 276.537 -5.38657 -1.60638 0
M  V30 2720 H 268.688 -2.08116 0.424426 0
M  V30 2721 H 270.951 -0.939352 0.127759 0
M  V30 2722 H 270.657 -3.51499 -0.118929 0
M  V30 2723 H 270.531 -3.28493 -1.85397 0
M  V30 2724 H 272.918 -2.29309 -1.85745 0
M  V30 2725 H 272.999 -2.55566 -0.109505 0
M  V30 2726 H 272.643 -5.05521 -0.490991 0
M  V30 2727 H 272.573 -4.76258 -2.24691 0
M  V30 2728 H 275.064 -3.57039 -1.23821 0
M  V30 2729 H 275.377 -7.48233 -1.93306 0
M  V30 2730 H 273.722 -6.72732 -1.74518 0
M  V30 2731 H 276.913 -4.44948 -1.45391 0
M  V30 2732 H 277.086 -6.2333 -1.77098 0
M  V30 2733 N 270.492 0.636531 -1.44174 0
M  V30 2734 C 271.74 1.39343 -1.46383 0
M  V30 2735 C 272.061 1.94766 -0.0955715 0
M  V30 2736 O 271.331 1.75452 0.871395 0
M  V30 2737 H 269.911 0.517199 -0.538994 0
M  V30 2738 H 272.573 0.74957 -1.7991 0
M  V30 2739 H 271.669 2.22746 -2.18611 0
M  V30 2740 N 271.97 1.30982 0.876444 0
M  V30 2741 C 273.198 1.23242 1.6619 0
M  V30 2742 C 273.613 -0.203345 1.87702 0
M  V30 2743 O 272.97 -1.13317 1.43057 0
M  V30 2744 C 273.021 1.96623 3.03351 0
M  V30 2745 O 272.742 3.34594 2.82804 0
M  V30 2746 C 274.243 1.95644 3.97792 0
M  V30 2747 H 271.463 0.426126 0.518322 0
M  V30 2748 H 274.007 1.7275 1.09442 0
M  V30 2749 H 272.162 1.50892 3.56806 0
M  V30 2750 H 272.576 3.71873 3.69879 0
M  V30 2751 H 274.05 2.51511 4.91372 0
M  V30 2752 H 274.527 0.937395 4.2908 0
M  V30 2753 H 275.133 2.41225 3.50272 0
M  V30 2754 N 273.449 -1.08991 1.13837 0
M  V30 2755 C 274.396 -2.15748 0.819835 0
M  V30 2756 C 275.366 -1.64636 -0.220026 0
M  V30 2757 O 276.551 -1.90582 -0.0912757 0
M  V30 2758 C 273.691 -3.4382 0.296913 0
M  V30 2759 C 272.804 -4.0881 1.39636 0
M  V30 2760 C 271.939 -5.24655 0.831314 0
M  V30 2761 C 270.978 -5.81575 1.90886 0
M  V30 2762 N 270.115 -6.88774 1.36142 0
M  V30 2763 H 274.955 -2.42338 1.73426 0
M  V30 2764 H 272.492 -1.18935 0.865613 0
M  V30 2765 H 274.45 -4.17193 -0.0244339 0
M  V30 2766 H 273.08 -3.17535 -0.580628 0
M  V30 2767 H 272.132 -3.33258 1.83422 0
M  V30 2768 H 273.444 -4.47141 2.21058 0
M  V30 2769 H 272.598 -6.04942 0.461515 0
M  V30 2770 H 271.337 -4.87698 -0.013932 0
M  V30 2771 H 270.342 -4.99946 2.28767 0
M  V30 2772 H 271.567 -6.20592 2.75758 0
M  V30 2773 H 269.513 -6.53788 0.538254 0
M  V30 2774 H 269.43 -7.25898 2.11208 0
M  V30 2775 H 270.698 -7.72806 1.01933 0
M  V30 2776 N 274.927 -0.932562 -1.27047 0
M  V30 2777 C 276.173 -0.585913 -1.94778 0
M  V30 2778 C 276.528 0.864142 -1.71902 0
M  V30 2779 O 275.821 1.60894 -1.04037 0
M  V30 2780 C 276.015 -0.853713 -3.47054 0
M  V30 2781 C 275.844 -2.32825 -3.84737 0
M  V30 2782 C 274.614 -2.98184 -4.07939 0
M  V30 2783 C 276.812 -3.30612 -3.93954 0
M  V30 2784 N 274.794 -4.3574 -4.3244 0
M  V30 2785 C 276.165 -4.53395 -4.22887 0
M  V30 2786 C 278.22 -3.25755 -3.76548 0
M  V30 2787 C 276.923 -5.71927 -4.36224 0
M  V30 2788 C 278.949 -4.43604 -3.91113 0
M  V30 2789 C 278.311 -5.65166 -4.20437 0
M  V30 2790 H 274.41 -0.264617 -0.735868 0
M  V30 2791 H 276.994 -1.20019 -1.53309 0
M  V30 2792 H 275.165 -0.268557 -3.8747 0
M  V30 2793 H 276.897 -0.469202 -4.01971 0
M  V30 2794 H 273.652 -2.48835 -4.02961 0
M  V30 2795 H 274.076 -5.06915 -4.48738 0
M  V30 2796 H 278.718 -2.32835 -3.52913 0
M  V30 2797 H 276.436 -6.65308 -4.58683 0
M  V30 2798 H 280.022 -4.41368 -3.79059 0
M  V30 2799 H 278.902 -6.54836 -4.31462 0
M  V30 2800 N 276.405 1.4127 -0.698611 0
M  V30 2801 C 277.816 1.84187 -0.305289 0
M  V30 2802 C 278.167 1.58449 1.15708 0
M  V30 2803 O 277.292 1.05651 1.88856 0
M  V30 2804 C 277.887 3.3435 -0.547314 0
M  V30 2805 C 276.446 3.75826 -0.207878 0
M  V30 2806 C 275.593 2.64647 -0.828099 0
M  V30 2807 H 278.544 1.30778 -0.89904 0
M  V30 2808 H 278.565 3.8001 0.192998 0
M  V30 2809 H 278.077 3.53051 -1.61172 0
M  V30 2810 H 276.178 3.62725 0.852143 0
M  V30 2811 H 276.291 4.74462 -0.665021 0
M  V30 2812 H 274.655 2.53395 -0.257458 0
M  V30 2813 H 275.438 2.86165 -1.89643 0
M  V30 2814 N 277.883 0.443576 1.51229 0
M  V30 2815 C 278.831 -0.37904 2.29491 0
M  V30 2816 C 279.825 -1.0153 1.35603 0
M  V30 2817 O 281.031 -0.94955 1.52917 0
M  V30 2818 H 277.406 -0.141053 0.738653 0
M  V30 2819 H 279.377 0.301799 2.9687 0
M  V30 2820 C 278.126 -1.46426 3.15364 0
M  V30 2821 H 277.449 -0.984037 3.87501 0
M  V30 2822 H 278.889 -2.01297 3.7317 0
M  V30 2823 C 277.348 -2.45099 2.31146 0
M  V30 2824 O 277.878 -3.49773 1.9754 0
M  V30 2825 N 276.084 -2.16139 1.94249 0
M  V30 2826 H 275.631 -1.31044 2.21777 0
M  V30 2827 H 275.589 -2.82398 1.38198 0
M  V30 2828 N 279.361 -1.56624 0.175154 0
M  V30 2829 C 280.607 -1.9729 -0.469506 0
M  V30 2830 C 280.94 -1.06128 -1.62636 0
M  V30 2831 O 280.215 -0.109183 -1.94193 0
M  V30 2832 C 280.498 -3.47375 -0.948804 0
M  V30 2833 C 280.351 -4.49317 0.208491 0
M  V30 2834 C 281.67 -4.00652 -1.82116 0
M  V30 2835 H 278.789 -0.717317 -0.16919 0
M  V30 2836 H 281.431 -1.88184 0.262062 0
M  V30 2837 H 279.581 -3.55267 -1.57219 0
M  V30 2838 H 281.253 -4.53482 0.845682 0
M  V30 2839 H 279.496 -4.25121 0.863395 0
M  V30 2840 H 280.167 -5.51741 -0.169059 0
M  V30 2841 H 282.643 -3.95416 -1.2956 0
M  V30 2842 H 281.519 -5.06075 -2.12554 0
M  V30 2843 H 281.78 -3.44699 -2.7683 0
M  V30 2844 N 280.839 0.0985539 -1.57292 0
M  V30 2845 C 282.255 0.45267 -1.53046 0
M  V30 2846 C 282.455 1.80713 -0.891342 0
M  V30 2847 O 281.511 2.4785 -0.482375 0
M  V30 2848 C 282.824 0.418341 -2.97776 0
M  V30 2849 C 284.372 0.500443 -3.08973 0
M  V30 2850 C 284.847 0.496297 -4.55303 0
M  V30 2851 N 286.338 0.557151 -4.59837 0
M  V30 2852 C 287.073 0.575726 -5.70502 0
M  V30 2853 N 286.569 0.550714 -6.90608 0
M  V30 2854 N 288.362 0.620277 -5.58667 0
M  V30 2855 H 280.513 -0.788673 -1.97215 0
M  V30 2856 H 282.776 -0.293188 -0.901524 0
M  V30 2857 H 282.482 -0.509659 -3.47988 0
M  V30 2858 H 282.356 1.2386 -3.56284 0
M  V30 2859 H 284.743 1.41886 -2.58751 0
M  V30 2860 H 284.824 -0.347894 -2.53423 0
M  V30 2861 H 284.468 -0.418162 -5.06176 0
M  V30 2862 H 284.398 1.3618 -5.08687 0
M  V30 2863 H 286.889 0.581816 -3.73394 0
M  V30 2864 H 287.202 0.568075 -7.70709 0
M  V30 2865 H 285.547 0.517816 -6.93068 0
M  V30 2866 H 288.738 0.637322 -4.63741 0
M  V30 2867 H 288.911 0.631283 -6.44918 0
M  V30 2868 N 282.317 1.53212 0.369288 0
M  V30 2869 C 283.565 1.68881 1.11012 0
M  V30 2870 C 283.886 0.441285 1.89941 0
M  V30 2871 O 283.156 -0.544623 1.88177 0
M  V30 2872 H 281.736 0.622569 0.412816 0
M  V30 2873 H 284.398 1.90391 0.416802 0
M  V30 2874 H 283.494 2.54822 1.80201 0
M  V30 2875 N 283.795 -0.628877 1.44509 0
M  V30 2876 C 285.041 -1.39045 1.47629 0
M  V30 2877 C 285.374 -1.93892 0.109343 0
M  V30 2878 O 284.649 -1.7379 -0.87334 0
M  V30 2879 C 284.932 -2.55408 2.53848 0
M  V30 2880 C 284.785 -2.05896 3.99909 0
M  V30 2881 C 286.104 -3.5759 2.56549 0
M  V30 2882 H 283.223 -0.504232 0.537512 0
M  V30 2883 H 285.865 -0.710854 1.76201 0
M  V30 2884 H 284.015 -3.13384 2.29615 0
M  V30 2885 H 285.687 -1.52734 4.35282 0
M  V30 2886 H 283.93 -1.37061 4.11578 0
M  V30 2887 H 284.601 -2.89681 4.69882 0
M  V30 2888 H 287.077 -3.09419 2.78207 0
M  V30 2889 H 285.953 -4.36527 3.32769 0
M  V30 2890 H 286.214 -4.11808 1.60832 0
M  V30 2891 N 285.273 -1.31445 -0.869486 0
M  V30 2892 C 286.236 -1.19094 -1.9583 0
M  V30 2893 C 287.236 -0.117906 -1.60367 0
M  V30 2894 O 288.426 -0.367208 -1.70286 0
M  V30 2895 C 285.558 -0.828165 -3.30688 0
M  V30 2896 H 286.751 -2.15842 -2.08212 0
M  V30 2897 H 284.304 -1.15063 -1.05784 0
M  V30 2898 H 285.039 0.138142 -3.24006 0
M  V30 2899 H 284.824 -1.6038 -3.578 0
M  V30 2900 H 286.314 -0.765658 -4.10521 0
M  V30 2901 N 286.751 1.08385 -1.14413 0
M  V30 2902 C 287.684 2.14642 -0.774871 0
M  V30 2903 C 288.662 1.60761 0.243876 0
M  V30 2904 O 289.846 1.88031 0.132883 0
M  V30 2905 C 286.973 3.38366 -0.150491 0
M  V30 2906 C 286.019 4.10997 -1.13945 0
M  V30 2907 S 286.852 4.63797 -2.67679 0
M  V30 2908 C 288.008 5.90808 -2.06631 0
M  V30 2909 H 288.241 2.45633 -1.67487 0
M  V30 2910 H 285.774 1.20498 -0.96538 0
M  V30 2911 H 287.732 4.09996 0.203334 0
M  V30 2912 H 286.393 3.05572 0.72694 0
M  V30 2913 H 285.586 4.99783 -0.65059 0
M  V30 2914 H 285.188 3.4528 -1.43727 0
M  V30 2915 H 287.48 6.62411 -1.4219 0
M  V30 2916 H 288.423 6.4439 -2.93542 0
M  V30 2917 H 288.831 5.4383 -1.51357 0
M  V30 2918 N 288.23 0.939286 1.26551 0
M  V30 2919 C 289.178 0.43815 2.28436 0
M  V30 2920 C 290.172 -0.483587 1.62351 0
M  V30 2921 O 291.378 -0.362009 1.76322 0
M  V30 2922 H 287.753 0.123149 0.741848 0
M  V30 2923 H 289.724 1.31002 2.68106 0
M  V30 2924 C 288.473 -0.283052 3.46546 0
M  V30 2925 H 287.796 0.417043 3.97619 0
M  V30 2926 H 289.236 -0.597948 4.19763 0
M  V30 2927 C 287.695 -1.50018 3.01656 0
M  V30 2928 O 288.225 -2.59855 3.0633 0
M  V30 2929 N 286.431 -1.35608 2.57019 0
M  V30 2930 H 285.978 -0.46244 2.53415 0
M  V30 2931 H 285.936 -2.17165 2.27347 0
M  V30 2932 N 289.708 -1.40897 0.706093 0
M  V30 2933 C 290.671 -2.29131 0.0562841 0
M  V30 2934 C 291.671 -1.44901 -0.697166 0
M  V30 2935 O 292.861 -1.65926 -0.530484 0
M  V30 2936 C 289.993 -3.27957 -0.93043 0
M  V30 2937 H 291.186 -2.88091 0.833284 0
M  V30 2938 H 288.739 -1.4906 0.470192 0
M  V30 2939 H 289.474 -2.73997 -1.73482 0
M  V30 2940 H 289.259 -3.90124 -0.393166 0
M  V30 2941 H 290.749 -3.94049 -1.38256 0
M  V30 2942 N 291.186 -0.45159 -1.50991 0
M  V30 2943 C 292.432 0.110237 -2.025 0
M  V30 2944 C 292.765 1.41109 -1.33424 0
M  V30 2945 O 292.04 1.89135 -0.453659 0
M  V30 2946 C 292.323 0.314271 -3.58726 0
M  V30 2947 C 292.176 -1.00623 -4.38401 0
M  V30 2948 C 293.495 1.07767 -4.26702 0
M  V30 2949 H 290.614 0.0385897 -0.735989 0
M  V30 2950 H 293.256 -0.593374 -1.80497 0
M  V30 2951 H 291.406 0.913601 -3.77605 0
M  V30 2952 H 293.078 -1.64064 -4.31139 0
M  V30 2953 H 291.321 -1.6075 -4.02917 0
M  V30 2954 H 291.992 -0.817341 -5.45915 0
M  V30 2955 H 294.468 0.56986 -4.12179 0
M  V30 2956 H 293.344 1.18921 -5.35863 0
M  V30 2957 H 293.605 2.10939 -3.88532 0
M  V30 2958 N 292.664 1.56529 -0.183458 0
M  V30 2959 C 293.941 1.88959 0.50536 0
M  V30 2960 C 294.321 1.09523 1.80466 0
M  V30 2961 O 293.669 0.19278 2.27685 0
M  V30 2962 C 293.879 3.41162 0.73547 0
M  V30 2963 C 295.227 4.11155 1.06005 0
M  V30 2964 O 296.251 3.46548 0.823594 0
M  V30 2965 O 295.11 5.25318 1.50675 0
M  V30 2966 H 292.204 0.78441 0.261973 0
M  V30 2967 H 294.75 1.68231 -0.222802 0
M  V30 2968 H 293.522 3.90874 -0.182561 0
M  V30 2969 H 293.145 3.67543 1.51651 0
M  V30 2970 N 294.142 -0.090211 1.57342 0
M  V30 2971 C 295.092 -1.11557 1.98844 0
M  V30 2972 C 296.076 -1.35503 0.867624 0
M  V30 2973 O 297.268 -1.36113 1.13148 0
M  V30 2974 C 294.397 -2.43446 2.42051 0
M  V30 2975 C 293.483 -2.22853 3.60828 0
M  V30 2976 N 293.874 -1.72141 4.75606 0
M  V30 2977 C 292.172 -2.53401 3.67021 0
M  V30 2978 C 292.873 -1.65932 5.57531 0
M  V30 2979 N 291.849 -2.11323 5.00843 0
M  V30 2980 H 295.651 -0.716499 2.85032 0
M  V30 2981 H 293.165 -0.297567 1.59651 0
M  V30 2982 H 295.162 -3.17644 2.70014 0
M  V30 2983 H 293.822 -2.84087 1.57241 0
M  V30 2984 H 294.833 -1.41268 4.98261 0
M  V30 2985 H 291.51 -2.97532 2.92884 0
M  V30 2986 H 292.9 -1.27733 6.59647 0
M  V30 2987 N 295.62 -1.53406 -0.361157 0
M  V30 2988 C 297.031 -1.61442 -0.937728 0
M  V30 2989 C 297.382 -0.48461 -1.90121 0
M  V30 2990 O 296.507 0.388312 -2.12888 0
M  V30 2991 C 297.102 -2.92624 -1.70753 0
M  V30 2992 C 295.661 -3.02981 -2.23337 0
M  V30 2993 C 294.808 -2.5677 -1.04712 0
M  V30 2994 H 297.759 -1.58083 -0.139816 0
M  V30 2995 H 297.78 -2.80675 -2.56908 0
M  V30 2996 H 297.292 -3.74834 -1.00604 0
M  V30 2997 H 295.393 -2.25368 -2.96715 0
M  V30 2998 H 295.506 -4.0814 -2.50916 0
M  V30 2999 H 293.87 -2.11752 -1.41539 0
M  V30 3000 H 294.653 -3.41402 -0.360539 0
M  V30 3001 N 297.098 0.621204 -1.44841 0
M  V30 3002 C 298.345 1.38055 -1.48145 0
M  V30 3003 C 298.673 1.94143 -0.117867 0
M  V30 3004 O 297.928 1.74713 0.881694 0
M  V30 3005 C 298.227 2.55675 -2.4973 0
M  V30 3006 C 297.893 2.17817 -3.94799 0
M  V30 3007 C 296.555 2.07205 -4.34303 0
M  V30 3008 C 298.907 1.88065 -4.86087 0
M  V30 3009 C 296.235 1.65045 -5.63007 0
M  V30 3010 C 298.587 1.47394 -6.15189 0
M  V30 3011 C 297.251 1.35331 -6.53637 0
M  V30 3012 H 296.521 0.505181 -0.542101 0
M  V30 3013 H 299.168 0.703477 -1.78111 0
M  V30 3014 H 297.473 3.2866 -2.13284 0
M  V30 3015 H 299.17 3.13904 -2.4953 0
M  V30 3016 H 295.76 2.26998 -3.63552 0
M  V30 3017 H 299.944 1.95168 -4.56315 0
M  V30 3018 H 295.2 1.54317 -5.91605 0
M  V30 3019 H 299.374 1.23415 -6.85377 0
M  V30 3020 H 297.001 1.02435 -7.53267 0
M  V30 3021 N 298.576 1.31904 0.862503 0
M  V30 3022 C 299.824 1.21776 1.61292 0
M  V30 3023 C 300.145 -0.222413 1.93727 0
M  V30 3024 O 299.415 -1.1451 1.58947 0
M  V30 3025 H 297.995 0.447717 0.597962 0
M  V30 3026 H 300.657 1.65326 1.03215 0
M  V30 3027 H 299.753 1.7948 2.5533 0
M  V30 3028 N 300.054 -1.07777 1.14986 0
M  V30 3029 C 301.302 -1.79934 0.920235 0
M  V30 3030 C 301.623 -1.86955 -0.554336 0
M  V30 3031 O 300.893 -1.36731 -1.40291 0
M  V30 3032 H 299.473 -0.666424 0.337473 0
M  V30 3033 H 302.135 -1.3027 1.44968 0
M  V30 3034 H 301.231 -2.82539 1.32583 0
M  V30 3035 N 301.532 -0.945985 -1.26051 0
M  V30 3036 C 302.78 -0.594941 -1.93145 0
M  V30 3037 C 303.101 0.86953 -1.7454 0
M  V30 3038 O 302.371 1.61838 -1.10387 0
M  V30 3039 H 300.951 -0.217044 -0.714773 0
M  V30 3040 H 303.613 -1.20235 -1.53393 0
M  V30 3041 H 302.709 -0.816835 -3.01221 0
M  V30 3042 N 303.011 1.40521 -0.713556 0
M  V30 3043 C 304.259 2.00527 -0.251692 0
M  V30 3044 C 304.58 1.56857 1.15848 0
M  V30 3045 O 303.85 0.807127 1.785 0
M  V30 3046 H 302.43 0.741551 -0.0900646 0
M  V30 3047 H 305.092 1.71887 -0.918733 0
M  V30 3048 H 304.188 3.10813 -0.283192 0
M  V30 3049 N 304.489 0.459591 1.5075 0
M  V30 3050 C 305.905 0.113092 1.59199 0
M  V30 3051 C 306.105 -1.37951 1.46874 0
M  V30 3052 O 305.161 -2.15168 1.32132 0
M  V30 3053 C 306.474 0.653043 2.93523 0
M  V30 3054 C 308.022 0.615449 3.0689 0
M  V30 3055 C 308.497 1.13275 4.43771 0
M  V30 3056 N 309.988 1.09167 4.50152 0
M  V30 3057 C 310.723 1.46256 5.54434 0
M  V30 3058 N 310.219 1.90739 6.66026 0
M  V30 3059 N 312.012 1.37932 5.44914 0
M  V30 3060 H 304.163 1.43049 1.57005 0
M  V30 3061 H 306.426 0.590861 0.741341 0
M  V30 3062 H 306.132 1.69822 3.07983 0
M  V30 3063 H 306.006 0.0902132 3.77092 0
M  V30 3064 H 308.393 -0.420793 2.92084 0
M  V30 3065 H 308.474 1.21495 2.25106 0
M  V30 3066 H 308.118 2.16757 4.59324 0
M  V30 3067 H 308.048 0.509576 5.24129 0
M  V30 3068 H 310.539 0.76528 3.7007 0
M  V30 3069 H 310.852 2.17218 7.41644 0
M  V30 3070 H 309.197 1.94683 6.67176 0
M  V30 3071 H 312.388 1.0303 4.56621 0
M  V30 3072 H 312.561 1.67164 6.26067 0
M  V30 3073 N 305.967 -1.56429 0.191757 0
M  V30 3074 C 306.899 -2.16154 -0.762245 0
M  V30 3075 C 307.912 -1.12247 -1.17917 0
M  V30 3076 O 309.101 -1.39353 -1.11548 0
M  V30 3077 C 306.201 -2.70606 -2.04024 0
M  V30 3078 C 305.374 -3.99381 -1.78364 0
M  V30 3079 C 304.433 -4.38692 -2.90578 0
M  V30 3080 O 303.459 -5.06179 -2.6033 0
M  V30 3081 N 304.661 -4.01922 -4.18854 0
M  V30 3082 H 307.426 -2.98643 -0.251526 0
M  V30 3083 H 304.987 -1.61897 0.00967373 0
M  V30 3084 H 306.979 -2.93891 -2.78227 0
M  V30 3085 H 305.549 -1.9259 -2.46227 0
M  V30 3086 H 304.769 -3.84262 -0.879581 0
M  V30 3087 H 306.057 -4.83445 -1.58614 0
M  V30 3088 H 305.455 -3.47631 -4.46283 0
M  V30 3089 H 304.012 -4.30165 -4.89695 0
M  V30 3090 N 307.445 0.0818655 -1.57387 0
M  V30 3091 C 308.395 1.10501 -1.99433 0
M  V30 3092 C 309.379 1.35041 -0.874798 0
M  V30 3093 O 310.571 1.35511 -1.13868 0
M  V30 3094 C 307.7 2.42159 -2.43339 0
M  V30 3095 C 306.786 2.20937 -3.62005 0
M  V30 3096 N 307.177 1.69616 -4.76512 0
M  V30 3097 C 305.475 2.51451 -3.68359 0
M  V30 3098 C 306.176 1.62973 -5.58404 0
M  V30 3099 N 305.152 2.08664 -5.01956 0
M  V30 3100 H 308.954 0.701373 -2.85408 0
M  V30 3101 H 306.468 0.289096 -1.59806 0
M  V30 3102 H 308.465 3.16208 -2.71695 0
M  V30 3103 H 307.125 2.83249 -1.58746 0
M  V30 3104 H 308.136 1.38624 -4.99003 0
M  V30 3105 H 304.813 2.95975 -2.94457 0
M  V30 3106 H 306.203 1.24233 -6.60315 0
M  V30 3107 N 308.923 1.53595 0.353017 0
M  V30 3108 C 310.334 1.61937 0.929153 0
M  V30 3109 C 310.685 0.494686 1.89861 0
M  V30 3110 O 309.81 -0.377017 2.1309 0
M  V30 3111 C 310.405 2.93526 1.69199 0
M  V30 3112 C 308.964 3.04161 2.21727 0
M  V30 3113 C 308.111 2.57322 1.03348 0
M  V30 3114 H 311.062 1.58155 0.131431 0
M  V30 3115 H 311.083 2.82034 2.55416 0
M  V30 3116 H 310.595 3.75362 0.986144 0
M  V30 3117 H 308.696 2.26938 2.95516 0
M  V30 3118 H 308.809 4.09465 2.48748 0
M  V30 3119 H 307.173 2.12499 1.40414 0
M  V30 3120 H 307.956 3.41588 0.342428 0
M  V30 3121 N 310.401 -0.613514 1.45168 0
M  V30 3122 C 311.649 -1.36997 1.48581 0
M  V30 3123 C 311.97 -1.94589 0.126545 0
M  V30 3124 O 311.24 -1.76816 -0.843372 0
M  V30 3125 H 309.82 -0.508558 0.547154 0
M  V30 3126 H 312.482 -0.720853 1.81079 0
M  V30 3127 H 311.578 -2.1924 2.22127 0
M  V30 3128 N 311.879 -1.3236 -0.855495 0
M  V30 3129 C 312.826 -1.21225 -1.964 0
M  V30 3130 C 313.796 -0.0946204 -1.6583 0
M  V30 3131 O 314.981 -0.27002 -1.8888 0
M  V30 3132 C 312.121 -0.940419 -3.32039 0
M  V30 3133 C 311.234 -2.14276 -3.75113 0
M  V30 3134 C 310.369 -1.80648 -4.9954 0
M  V30 3135 C 309.408 -2.97208 -5.35102 0
M  V30 3136 N 308.545 -2.63678 -6.50706 0
M  V30 3137 H 313.385 -2.16042 -2.05255 0
M  V30 3138 H 310.922 -1.07451 -1.00463 0
M  V30 3139 H 312.88 -0.763311 -4.10158 0
M  V30 3140 H 311.51 -0.0290413 -3.22787 0
M  V30 3141 H 310.562 -2.43017 -2.92655 0
M  V30 3142 H 311.874 -3.01468 -3.97389 0
M  V30 3143 H 311.028 -1.59484 -5.85363 0
M  V30 3144 H 309.767 -0.906678 -4.79198 0
M  V30 3145 H 308.772 -3.19004 -4.47791 0
M  V30 3146 H 309.997 -3.87918 -5.57401 0
M  V30 3147 H 307.943 -1.76238 -6.31883 0
M  V30 3148 H 307.86 -3.444 -6.72997 0
M  V30 3149 H 309.128 -2.45942 -7.39684 0
M  V30 3150 N 313.357 1.07166 -1.15556 0
M  V30 3151 C 314.768 1.6127 -0.940693 0
M  V30 3152 C 315.119 1.89251 0.517551 0
M  V30 3153 O 314.244 1.65937 1.38903 0
M  V30 3154 C 314.839 2.92993 -1.7012 0
M  V30 3155 C 313.398 3.43832 -1.53156 0
M  V30 3156 C 312.545 2.1786 -1.71558 0
M  V30 3157 H 315.496 0.90229 -1.30554 0
M  V30 3158 H 315.517 3.62007 -1.17181 0
M  V30 3159 H 315.029 2.72596 -2.76248 0
M  V30 3160 H 313.13 3.69307 -0.494294 0
M  V30 3161 H 313.243 4.19747 -2.30975 0
M  V30 3162 H 311.607 2.2765 -1.14225 0
M  V30 3163 H 312.39 1.99956 -2.79056 0
M  V30 3164 N 314.835 0.952656 1.25548 0
M  V30 3165 C 315.782 0.47008 2.25962 0
M  V30 3166 C 316.752 -0.476384 1.59122 0
M  V30 3167 O 317.937 -0.39007 1.8677 0
M  V30 3168 C 315.077 -0.247881 3.44209 0
M  V30 3169 C 314.19 0.735591 4.25691 0
M  V30 3170 C 313.325 -0.0047306 5.312 0
M  V30 3171 C 312.364 0.969805 6.04368 0
M  V30 3172 N 311.501 0.260486 7.01617 0
M  V30 3173 H 316.341 1.33126 2.66611 0
M  V30 3174 H 313.878 0.66765 1.31076 0
M  V30 3175 H 315.836 -0.680695 4.1161 0
M  V30 3176 H 314.466 -1.07312 3.0444 0
M  V30 3177 H 313.518 1.28689 3.57971 0
M  V30 3178 H 314.83 1.47934 4.76358 0
M  V30 3179 H 313.984 -0.496275 6.04667 0
M  V30 3180 H 312.723 -0.781282 4.81401 0
M  V30 3181 H 311.728 1.47237 5.29718 0
M  V30 3182 H 312.953 1.74655 6.56256 0
M  V30 3183 H 310.899 -0.497364 6.54112 0
M  V30 3184 H 310.816 0.943362 7.50091 0
M  V30 3185 H 312.084 -0.209587 7.79218 0
M  V30 3186 N 316.313 -1.40141 0.720998 0
M  V30 3187 C 317.538 -2.05618 0.271258 0
M  V30 3188 C 317.963 -1.53978 -1.08039 0
M  V30 3189 O 317.321 -0.677463 -1.68167 0
M  V30 3190 C 317.369 -3.59609 0.267197 0
M  V30 3191 O 316.473 -4.05526 -0.749814 0
M  V30 3192 H 315.814 -0.651904 0.126162 0
M  V30 3193 H 318.344 -1.79439 0.982997 0
M  V30 3194 H 318.354 -4.0786 0.106744 0
M  V30 3195 H 317.029 -3.96559 1.25354 0
M  V30 3196 H 315.606 -3.68722 -0.556644 0
M  V30 3197 N 317.792 -0.46758 -1.50504 0
M  V30 3198 C 319.041 0.0902868 -2.01498 0
M  V30 3199 C 319.354 1.411 -1.35463 0
M  V30 3200 O 320.56 2.0536 -1.77594 0
M  V30 3201 C 319.016 0.21142 -3.59278 0
M  V30 3202 C 318.624 -1.10065 -4.34269 0
M  V30 3203 C 320.368 0.721433 -4.18325 0
M  V30 3204 C 318.275 -0.943505 -5.83825 0
M  V30 3205 H 317.205 0.037517 -0.753066 0
M  V30 3206 H 319.856 -0.601943 -1.73346 0
M  V30 3207 H 318.238 0.967352 -3.84003 0
M  V30 3208 H 319.412 -1.86726 -4.21272 0
M  V30 3209 H 317.727 -1.5415 -3.86816 0
M  V30 3210 H 320.324 0.85598 -5.27804 0
M  V30 3211 H 320.667 1.71186 -3.79475 0
M  V30 3212 H 321.2 0.0229843 -3.97793 0
M  V30 3213 H 317.939 -1.90719 -6.27141 0
M  V30 3214 H 317.459 -0.217213 -5.99407 0
M  V30 3215 H 319.138 -0.608715 -6.4413 0
M  V30 3216 N 319.27 1.56325 -0.20005 0
M  V30 3217 C 320.495 2.02548 0.44597 0
M  V30 3218 C 320.92 1.07922 1.5406 0
M  V30 3219 O 320.278 0.0635775 1.81188 0
M  V30 3220 C 320.326 3.47175 0.974761 0
M  V30 3221 O 319.43 3.55671 2.08739 0
M  V30 3222 H 318.771 0.655862 0.103638 0
M  V30 3223 H 321.301 2.02201 -0.312381 0
M  V30 3224 H 321.311 3.87067 1.2901 0
M  V30 3225 H 319.986 4.15538 0.17347 0
M  V30 3226 H 318.563 3.27657 1.78032 0
M  V30 3227 N 320.748 -0.0735177 1.57428 0
M  V30 3228 C 322.164 -0.428264 1.53747 0
M  V30 3229 C 322.364 -1.79272 0.91998 0
M  V30 3230 O 321.42 -2.47051 0.521745 0
M  V30 3231 C 322.733 -0.370914 2.98404 0
M  V30 3232 C 324.281 -0.451224 3.0973 0
M  V30 3233 C 324.756 -0.4238 4.56035 0
M  V30 3234 N 326.247 -0.483925 4.60665 0
M  V30 3235 C 326.982 -0.484891 5.71346 0
M  V30 3236 N 326.478 -0.440775 6.91396 0
M  V30 3237 N 328.271 -0.531319 5.59583 0
M  V30 3238 H 320.422 0.819949 1.95935 0
M  V30 3239 H 322.685 0.307493 0.896745 0
M  V30 3240 H 322.391 0.564956 3.47133 0
M  V30 3241 H 322.265 -1.18176 3.5821 0
M  V30 3242 H 324.652 -1.37752 2.60976 0
M  V30 3243 H 324.733 0.388167 2.52838 0
M  V30 3244 H 324.377 0.498638 5.05446 0
M  V30 3245 H 324.307 -1.2807 5.10789 0
M  V30 3246 H 326.798 -0.522338 3.74273 0
M  V30 3247 H 327.111 -0.44539 7.71515 0
M  V30 3248 H 325.456 -0.40749 6.93804 0
M  V30 3249 H 328.647 -0.563464 4.64696 0
M  V30 3250 H 328.82 -0.528603 6.4584 0
M  V30 3251 N 322.226 -1.5378 -0.344866 0
M  V30 3252 C 323.174 -1.82373 -1.4437 0
M  V30 3253 C 324.168 -0.694128 -1.54526 0
M  V30 3254 O 325.374 -0.877442 -1.57165 0
M  V30 3255 H 321.749 -0.577765 -0.481344 0
M  V30 3256 H 323.72 -2.74306 -1.17468 0
M  V30 3257 C 322.469 -2.04898 -2.80913 0
M  V30 3258 H 321.792 -2.9127 -2.73865 0
M  V30 3259 H 323.232 -2.28871 -3.56923 0
M  V30 3260 C 321.691 -0.834116 -3.26411 0
M  V30 3261 O 322.221 -0.0328885 -4.01687 0
M  V30 3262 N 320.427 -0.65171 -2.83198 0
M  V30 3263 H 319.974 -1.30489 -2.22104 0
M  V30 3264 H 319.932 0.159686 -3.13994 0
M  V30 3265 N 323.704 0.605807 -1.45491 0
M  V30 3266 C 324.667 1.69836 -1.5391 0
M  V30 3267 C 325.667 1.55261 -0.418424 0
M  V30 3268 O 326.857 1.60296 -0.681965 0
M  V30 3269 C 323.989 3.09117 -1.43734 0
M  V30 3270 H 325.182 1.63738 -2.51257 0
M  V30 3271 H 322.735 0.821689 -1.32959 0
M  V30 3272 H 323.47 3.20791 -0.475788 0
M  V30 3273 H 323.255 3.21104 -2.25021 0
M  V30 3274 H 324.745 3.88696 -1.52661 0
M  V30 3275 N 325.182 1.32811 0.848464 0
M  V30 3276 C 326.593 1.21315 1.41914 0
M  V30 3277 C 326.944 -0.171847 1.95446 0
M  V30 3278 O 326.069 -1.07093 1.88043 0
M  V30 3279 C 326.664 2.19631 2.57968 0
M  V30 3280 C 325.223 2.12003 3.11017 0
M  V30 3281 C 324.37 2.07651 1.83783 0
M  V30 3282 H 327.321 1.44549 0.655071 0
M  V30 3283 H 327.342 1.79845 3.35315 0
M  V30 3284 H 326.854 3.20423 2.18976 0
M  V30 3285 H 324.955 1.14481 3.54577 0
M  V30 3286 H 325.068 3.02111 3.71841 0
M  V30 3287 H 323.432 1.52983 2.03638 0
M  V30 3288 H 324.215 3.10235 1.47 0
M  V30 3289 N 326.66 -1.06551 1.16123 0
M  V30 3290 C 328.071 -1.60768 0.949232 0
M  V30 3291 C 328.422 -1.89523 -0.507508 0
M  V30 3292 O 327.547 -1.66671 -1.38021 0
M  V30 3293 C 328.142 -2.92086 1.71671 0
M  V30 3294 C 326.701 -3.43015 1.54977 0
M  V30 3295 C 325.848 -2.16947 1.72711 0
M  V30 3296 H 328.799 -0.895354 1.31031 0
M  V30 3297 H 328.82 -3.6138 1.19099 0
M  V30 3298 H 328.332 -2.71127 2.7769 0
M  V30 3299 H 326.433 -3.69039 0.513873 0
M  V30 3300 H 326.546 -4.18516 2.33198 0
M  V30 3301 H 324.91 -2.27041 1.15431 0
M  V30 3302 H 325.693 -1.98473 2.80113 0
M  V30 3303 N 328.138 -0.959301 -1.25041 0
M  V30 3304 C 329.386 -0.615393 -1.92503 0
M  V30 3305 C 329.707 0.850969 -1.75452 0
M  V30 3306 O 328.977 1.60658 -1.12098 0
M  V30 3307 H 327.557 -0.224613 -0.712431 0
M  V30 3308 H 330.219 -1.21855 -1.5211 0
M  V30 3309 H 329.315 -0.848738 -3.00338 0
M  V30 3310 N 329.616 1.39756 -0.72842 0
M  V30 3311 C 331.032 1.5442 -0.403308 0
M  V30 3312 C 331.232 1.69694 1.08656 0
M  V30 3313 O 330.288 1.69373 1.87267 0
M  V30 3314 C 331.601 2.76555 -1.18058 0
M  V30 3315 C 333.149 2.90384 -1.16815 0
M  V30 3316 C 333.624 4.15449 -1.92785 0
M  V30 3317 N 335.115 4.22475 -1.89918 0
M  V30 3318 C 335.85 5.1818 -2.45514 0
M  V30 3319 N 335.346 6.19714 -3.09719 0
M  V30 3320 N 337.139 5.1035 -2.35584 0
M  V30 3321 H 329.29 1.28089 -1.69431 0
M  V30 3322 H 331.553 0.620327 -0.716867 0
M  V30 3323 H 331.259 2.7159 -2.23455 0
M  V30 3324 H 331.133 3.69033 -0.780662 0
M  V30 3325 H 333.52 2.94846 -0.12234 0
M  V30 3326 H 333.601 1.98988 -1.6074 0
M  V30 3327 H 333.245 4.11749 -2.97364 0
M  V30 3328 H 333.175 5.05877 -1.46272 0
M  V30 3329 H 335.666 3.49743 -1.43138 0
M  V30 3330 H 335.979 6.8919 -3.49625 0
M  V30 3331 H 334.324 6.20121 -3.13807 0
M  V30 3332 H 337.515 4.2996 -1.85072 0
M  V30 3333 H 337.688 5.84761 -2.79211 0
M  V30 3334 N 331.094 0.475555 1.50254 0
M  V30 3335 C 332.041 -0.316293 2.28622 0
M  V30 3336 C 333.011 -0.983227 1.33873 0
M  V30 3337 O 334.196 -0.994805 1.62814 0
M  V30 3338 C 331.336 -1.38975 3.1588 0
M  V30 3339 C 330.449 -0.737146 4.25664 0
M  V30 3340 C 329.584 -1.78887 5.00173 0
M  V30 3341 C 328.623 -1.11676 6.01826 0
M  V30 3342 N 327.76 -2.11154 6.69596 0
M  V30 3343 H 332.6 0.358297 2.95838 0
M  V30 3344 H 330.137 0.188541 1.45887 0
M  V30 3345 H 332.095 -2.02383 3.64825 0
M  V30 3346 H 330.725 -2.03344 2.50701 0
M  V30 3347 H 329.777 0.0096065 3.80399 0
M  V30 3348 H 331.089 -0.206816 4.98371 0
M  V30 3349 H 330.243 -2.49865 5.52859 0
M  V30 3350 H 328.982 -2.35302 4.27182 0
M  V30 3351 H 327.987 -0.392633 5.48396 0
M  V30 3352 H 329.212 -0.55945 6.76792 0
M  V30 3353 H 327.158 -2.66577 5.99394 0
M  V30 3354 H 327.075 -1.63118 7.38193 0
M  V30 3355 H 328.343 -2.81497 7.26897 0
M  V30 3356 N 332.573 -1.56217 0.208337 0
M  V30 3357 C 333.819 -1.98242 -0.427552 0
M  V30 3358 C 334.152 -1.09554 -1.60348 0
M  V30 3359 O 333.427 -0.15035 -1.93918 0
M  V30 3360 C 333.71 -3.4931 -0.874907 0
M  V30 3361 C 333.563 -4.48773 0.303751 0
M  V30 3362 C 334.882 -4.04424 -1.73577 0
M  V30 3363 H 332.001 -0.720744 -0.153936 0
M  V30 3364 H 334.643 -1.87586 0.30192 0
M  V30 3365 H 332.793 -3.58522 -1.49648 0
M  V30 3366 H 334.465 -4.51586 0.941682 0
M  V30 3367 H 332.708 -4.23194 0.953375 0
M  V30 3368 H 333.379 -5.51976 -0.0519883 0
M  V30 3369 H 335.855 -3.98075 -1.21143 0
M  V30 3370 H 334.731 -5.1047 -2.01771 0
M  V30 3371 H 334.992 -3.50494 -2.69456 0
M  V30 3372 N 334.051 0.0651679 -1.57465 0
M  V30 3373 C 335.299 0.761555 -1.87202 0
M  V30 3374 C 335.62 1.77778 -0.801243 0
M  V30 3375 O 334.89 1.95166 0.16937 0
M  V30 3376 H 333.47 0.284251 -0.690804 0
M  V30 3377 H 336.132 0.0396827 -1.9486 0
M  V30 3378 H 335.228 1.27365 -2.84929 0
M  V30 3379 N 335.529 1.53961 0.336706 0
M  V30 3380 C 336.806 1.62171 1.09361 0
M  V30 3381 C 337.186 0.447263 2.06307 0
M  V30 3382 O 336.534 -0.559802 2.21537 0
M  V30 3383 C 336.744 2.98565 1.80721 0
M  V30 3384 C 338.092 3.54157 2.34218 0
M  V30 3385 O 339.116 3.00784 1.90807 0
M  V30 3386 O 337.975 4.47528 3.13657 0
M  V30 3387 H 335.069 0.6562 0.503319 0
M  V30 3388 H 337.615 1.66307 0.33765 0
M  V30 3389 H 336.387 3.75482 1.10132 0
M  V30 3390 H 336.01 2.9805 2.63158 0
M  V30 3391 N 337.007 -0.598083 1.45811 0
M  V30 3392 C 338.256 -1.35295 1.49594 0
M  V30 3393 C 338.569 -1.95057 0.145679 0
M  V30 3394 O 339.775 -2.71431 0.0612099 0
M  V30 3395 C 338.231 -2.45124 2.63519 0
M  V30 3396 C 337.839 -1.91732 4.04899 0
M  V30 3397 C 339.583 -3.2205 2.76558 0
M  V30 3398 C 337.49 -2.991 5.1019 0
M  V30 3399 H 336.42 -0.508552 0.556679 0
M  V30 3400 H 339.071 -0.639977 1.71978 0
M  V30 3401 H 337.453 -3.19149 2.34435 0
M  V30 3402 H 338.627 -1.24352 4.43704 0
M  V30 3403 H 336.942 -1.27522 3.96393 0
M  V30 3404 H 339.539 -4.0215 3.52391 0
M  V30 3405 H 339.882 -3.73663 1.83526 0
M  V30 3406 H 340.415 -2.55127 3.05213 0
M  V30 3407 H 337.154 -2.52393 6.04961 0
M  V30 3408 H 336.674 -3.65017 4.75944 0
M  V30 3409 H 338.353 -3.63318 5.35359 0
M  V30 3410 N 338.485 -1.33259 -0.841409 0
M  V30 3411 C 339.448 -1.23221 -1.9326 0
M  V30 3412 C 340.448 -0.151895 -1.60081 0
M  V30 3413 O 341.638 -0.403246 -1.69468 0
M  V30 3414 C 338.77 -0.898123 -3.28856 0
M  V30 3415 H 339.963 -2.2021 -2.03587 0
M  V30 3416 H 337.516 -1.17281 -1.03319 0
M  V30 3417 H 338.251 0.0693841 -3.24226 0
M  V30 3418 H 338.036 -1.67934 -3.54317 0
M  V30 3419 H 339.526 -0.852563 -4.08805 0
M  V30 3420 N 339.963 1.05934 -1.16686 0
M  V30 3421 C 341.188 1.83029 -0.975455 0
M  V30 3422 C 341.613 1.82096 0.471452 0
M  V30 3423 O 340.971 1.22443 1.33706 0
M  V30 3424 C 341.019 3.27372 -1.51195 0
M  V30 3425 O 340.123 4.06054 -0.720701 0
M  V30 3426 H 339.464 0.566194 -0.346872 0
M  V30 3427 H 341.994 1.33541 -1.55009 0
M  V30 3428 H 342.004 3.78186 -1.53099 0
M  V30 3429 H 340.679 3.27366 -2.56523 0
M  V30 3430 H 339.256 3.64812 -0.772458 0
M  V30 3431 N 341.441 0.965919 1.2453 0
M  V30 3432 C 342.388 0.49402 2.25451 0
M  V30 3433 C 343.358 -0.45948 1.59618 0
M  V30 3434 O 344.543 -0.370238 1.87173 0
M  V30 3435 C 341.683 -0.211359 3.44452 0
M  V30 3436 C 340.796 0.7807 4.24887 0
M  V30 3437 C 339.931 0.0516105 5.31175 0
M  V30 3438 C 338.97 1.03385 6.03306 0
M  V30 3439 N 338.107 0.334887 7.01301 0
M  V30 3440 H 342.947 1.35946 2.65184 0
M  V30 3441 H 340.484 0.681515 1.3036 0
M  V30 3442 H 342.442 -0.637 4.12308 0
M  V30 3443 H 341.072 -1.04077 3.05562 0
M  V30 3444 H 340.124 1.32479 3.56586 0
M  V30 3445 H 341.436 1.52978 4.74762 0
M  V30 3446 H 340.59 -0.432114 6.05159 0
M  V30 3447 H 339.329 -0.730179 4.82203 0
M  V30 3448 H 338.334 1.52847 5.28127 0
M  V30 3449 H 339.559 1.81606 6.54367 0
M  V30 3450 H 337.505 -0.427959 6.54603 0
M  V30 3451 H 337.422 1.02287 7.49048 0
M  V30 3452 H 338.69 -0.126928 7.79397 0
M  V30 3453 N 342.919 -1.39368 0.735821 0
M  V30 3454 C 344.335 -1.54204 0.411492 0
M  V30 3455 C 344.535 -1.70268 -1.07755 0
M  V30 3456 O 343.591 -1.70364 -1.86366 0
M  V30 3457 C 344.904 -2.75925 1.19523 0
M  V30 3458 C 346.452 -2.89761 1.18354 0
M  V30 3459 C 346.927 -4.14421 1.94986 0
M  V30 3460 N 348.418 -4.21462 1.92156 0
M  V30 3461 C 349.153 -5.16871 2.48258 0
M  V30 3462 N 348.649 -6.18063 3.13001 0
M  V30 3463 N 350.442 -5.09093 2.38287 0
M  V30 3464 H 342.593 -1.27189 1.70108 0
M  V30 3465 H 344.856 -0.616517 0.720147 0
M  V30 3466 H 344.562 -2.70401 2.24892 0
M  V30 3467 H 344.436 -3.68614 0.800222 0
M  V30 3468 H 346.823 -2.94777 0.137975 0
M  V30 3469 H 346.904 -1.98133 1.61793 0
M  V30 3470 H 346.548 -4.10166 2.99543 0
M  V30 3471 H 346.478 -5.05095 1.48953 0
M  V30 3472 H 348.969 -3.48979 1.44991 0
M  V30 3473 H 349.282 -6.87326 3.53275 0
M  V30 3474 H 347.627 -6.18448 3.17091 0
M  V30 3475 H 350.818 -4.28973 1.8735 0
M  V30 3476 H 350.991 -5.83272 2.82308 0
M  V30 3477 N 344.397 -0.483516 -1.5 0
M  V30 3478 C 345.625 0.0644831 -2.06799 0
M  V30 3479 C 346.04 1.32399 -1.34596 0
M  V30 3480 O 345.397 1.77626 -0.418946 0
M  V30 3481 C 345.448 0.339927 -3.59898 0
M  V30 3482 O 345.169 -0.869635 -4.29382 0
M  V30 3483 C 346.67 0.933515 -4.33359 0
M  V30 3484 H 343.89 -0.0126333 -0.670881 0
M  V30 3485 H 346.434 -0.675864 -1.93009 0
M  V30 3486 H 344.589 1.03022 -3.7345 0
M  V30 3487 H 345.003 -0.62179 -5.20801 0
M  V30 3488 H 346.477 1.07593 -5.41413 0
M  V30 3489 H 346.954 1.92685 -3.94676 0
M  V30 3490 H 347.56 0.281221 -4.24369 0
M  V30 3491 N 345.875 1.56104 -0.216619 0
M  V30 3492 C 347.123 1.97781 0.415593 0
M  V30 3493 C 347.444 1.10536 1.60645 0
M  V30 3494 O 346.714 0.181303 1.95059 0
M  V30 3495 H 345.294 0.730415 0.156534 0
M  V30 3496 H 347.956 1.92445 -0.308366 0
M  V30 3497 H 347.052 3.03072 0.74525 0
M  V30 3498 N 347.353 -0.0568162 1.57498 0
M  V30 3499 C 348.769 -0.411933 1.54192 0
M  V30 3500 C 348.969 -1.78287 0.938942 0
M  V30 3501 O 348.025 -2.46483 0.547919 0
M  V30 3502 C 349.338 -0.339244 2.9878 0
M  V30 3503 C 350.886 -0.418348 3.10192 0
M  V30 3504 C 351.361 -0.375407 4.56459 0
M  V30 3505 N 352.852 -0.435038 4.61153 0
M  V30 3506 C 353.587 -0.424265 5.71828 0
M  V30 3507 N 353.083 -0.367418 6.91825 0
M  V30 3508 N 354.876 -0.471938 5.60115 0
M  V30 3509 H 347.027 0.840684 1.95055 0
M  V30 3510 H 349.29 0.316987 0.893433 0
M  V30 3511 H 348.996 0.601742 3.46514 0
M  V30 3512 H 348.87 -1.14371 3.59443 0
M  V30 3513 H 351.257 -1.34976 2.62422 0
M  V30 3514 H 351.338 0.414962 2.52412 0
M  V30 3515 H 350.982 0.552219 5.04889 0
M  V30 3516 H 350.912 -1.22645 5.12119 0
M  V30 3517 H 353.403 -0.482612 3.74806 0
M  V30 3518 H 353.716 -0.363535 7.71944 0
M  V30 3519 H 352.061 -0.333879 6.94198 0
M  V30 3520 H 355.252 -0.514145 4.65268 0
M  V30 3521 H 355.425 -0.460073 6.46365 0
M  V30 3522 N 348.832 -1.54138 -0.328536 0
M  V30 3523 C 350.08 -1.71765 -1.06496 0
M  V30 3524 C 350.401 -0.49149 -1.88704 0
M  V30 3525 O 349.671 0.494539 -1.89555 0
M  V30 3526 H 348.251 -0.633295 -0.396164 0
M  V30 3527 H 350.913 -1.91429 -0.366176 0
M  V30 3528 H 350.009 -2.5951 -1.73381 0
M  V30 3529 N 350.31 0.590341 -1.46126 0
M  V30 3530 C 351.558 1.34616 -1.50742 0
M  V30 3531 C 351.879 1.94363 -0.157486 0
M  V30 3532 O 351.149 1.78136 0.815136 0
M  V30 3533 H 349.729 0.499789 -0.555175 0
M  V30 3534 H 352.391 0.691953 -1.82203 0
M  V30 3535 H 351.487 2.15678 -2.25587 0
M  V30 3536 N 351.788 1.33704 0.83433 0
M  V30 3537 C 352.736 1.24323 1.96587 0
M  V30 3538 C 353.73 0.143659 1.6879 0
M  V30 3539 O 354.936 0.30791 1.77347 0
M  V30 3540 H 351.311 0.385925 0.645419 0
M  V30 3541 H 353.282 2.19978 2.01624 0
M  V30 3542 C 352.031 1.00394 3.32891 0
M  V30 3543 H 351.354 1.84231 3.54822 0
M  V30 3544 H 352.794 0.97862 4.12552 0
M  V30 3545 C 351.253 -0.293047 3.35623 0
M  V30 3546 O 351.783 -1.29823 3.80143 0
M  V30 3547 N 349.989 -0.322174 2.88809 0
M  V30 3548 H 349.536 0.496379 2.52772 0
M  V30 3549 H 349.494 -1.18977 2.91019 0
M  V30 3550 N 353.266 -1.05314 1.17247 0
M  V30 3551 C 354.176 -2.16538 0.90268 0
M  V30 3552 C 355.192 -1.73523 -0.128707 0
M  V30 3553 O 356.368 -2.01337 0.0502701 0
M  V30 3554 C 353.433 -3.44167 0.418356 0
M  V30 3555 C 352.494 -4.01635 1.51618 0
M  V30 3556 C 351.727 -5.23171 1.05487 0
M  V30 3557 O 351.95 -5.70327 -0.0914715 0
M  V30 3558 O 350.884 -5.72848 1.8474 0
M  V30 3559 H 354.71 -2.42145 1.83302 0
M  V30 3560 H 352.295 -1.15037 0.953246 0
M  V30 3561 H 354.177 -4.21112 0.155726 0
M  V30 3562 H 352.852 -3.20063 -0.48385 0
M  V30 3563 H 351.759 -3.26135 1.83268 0
M  V30 3564 H 353.092 -4.30053 2.39405 0
M  V30 3565 O 354.783 -1.10174 -1.18084 0
M  V30 3566 H 355.474 -0.801769 -1.76327 0
M  V30 END ATOM
M  V30 BEGIN BOND
M  V30 END BOND
M  V30 END CTAB
M  END
$$$$
