drugbank_target|P20333 Tumor necrosis factor receptor superfamily member 1B (DB11626)
 OpenBabel12092119443D

  0  0  0     0  0            999 V3000
M  V30 BEGIN CTAB
M  V30 COUNTS 6634 6710 0 0 0
M  V30 BEGIN ATOM
M  V30 1 H -0.908 1.98254 -0.117106 0
M  V30 2 N 0 1.576 0 0
M  V30 3 C 0.933 2.03868 1.02534 0
M  V30 4 C 1.911 0.928543 1.3348 0
M  V30 5 O 3.095 1.19667 1.45644 0
M  V30 6 C 0.222 2.43627 2.35294 0
M  V30 7 C -0.732 3.65373 2.2001 0
M  V30 8 S 0.101 5.13292 1.52614 0
M  V30 9 C 1.257 5.56322 2.86805 0
M  V30 10 H 1.49 2.90518 0.631377 0
M  V30 11 H -0.977 1.52953 0.210867 0
M  V30 12 H 0.981 2.67203 3.11629 0
M  V30 13 H -0.358 1.57376 2.7183 0
M  V30 14 H -1.165 3.90944 3.18086 0
M  V30 15 H -1.563 3.418 1.51819 0
M  V30 16 H 0.729 5.58782 3.83104 0
M  V30 17 H 1.672 6.56266 2.65933 0
M  V30 18 H 2.08 4.83886 2.90714 0
M  V30 19 N 1.4781 -0.272755 1.55222 0
M  V30 20 C 2.4411 -1.32041 1.87344 0
M  V30 21 C 3.4411 -1.42342 0.74803 0
M  V30 22 O 4.6311 -1.41488 1.0162 0
M  V30 23 C 1.7631 -2.70173 2.07893 0
M  V30 24 H 2.9561 -1.04789 2.80997 0
M  V30 25 H 0.5091 -0.51083 1.47717 0
M  V30 26 H 1.2441 -3.02605 1.16622 0
M  V30 27 H 1.0291 -2.64082 2.89833 0
M  V30 28 H 2.5191 -3.45869 2.34017 0
M  V30 29 N 2.9562 -1.48159 -0.537278 0
M  V30 30 C 4.3672 -1.49429 -1.11928 0
M  V30 31 C 4.7182 -0.26 -1.9447 0
M  V30 32 O 3.8432 0.633489 -2.0692 0
M  V30 33 C 4.4382 -2.70758 -2.03656 0
M  V30 34 C 2.9972 -2.74923 -2.57088 0
M  V30 35 C 2.1442 -2.42835 -1.3389 0
M  V30 36 H 5.0952 -1.55381 -0.322886 0
M  V30 37 H 5.1162 -2.48861 -2.87834 0
M  V30 38 H 4.6282 -3.60575 -1.43553 0
M  V30 39 H 2.7292 -1.89296 -3.20933 0
M  V30 40 H 2.8422 -3.76157 -2.9672 0
M  V30 41 H 1.2062 -1.93836 -1.65226 0
M  V30 42 H 1.9892 -3.34884 -0.755504 0
M  V30 43 N 4.4343 0.785586 -1.36625 0
M  V30 44 C 5.6803 1.54591 -1.31261 0
M  V30 45 C 6.0133 1.93906 0.106823 0
M  V30 46 O 5.2883 1.63007 1.06108 0
M  V30 47 C 5.5713 2.82038 -2.23889 0
M  V30 48 C 5.4243 2.49066 -3.74548 0
M  V30 49 C 6.7433 3.83887 -2.15217 0
M  V30 50 H 3.8623 0.560846 -0.478143 0
M  V30 51 H 6.5043 0.902278 -1.67209 0
M  V30 52 H 4.6543 3.36961 -1.93363 0
M  V30 53 H 6.3263 2.00164 -4.15611 0
M  V30 54 H 4.5693 1.81954 -3.93796 0
M  V30 55 H 5.2403 3.40109 -4.34776 0
M  V30 56 H 7.7163 3.38421 -2.42096 0
M  V30 57 H 6.5923 4.70806 -2.82193 0
M  V30 58 H 6.8533 4.27131 -1.14068 0
M  V30 59 N 5.9124 1.20967 1.01018 0
M  V30 60 C 6.8754 0.965918 2.07853 0
M  V30 61 C 7.8754 -0.0610545 1.60684 0
M  V30 62 O 9.0654 0.175681 1.73312 0
M  V30 63 C 6.1974 0.455513 3.37843 0
M  V30 64 H 7.3904 1.91365 2.3091 0
M  V30 65 H 4.9434 1.02594 1.17916 0
M  V30 66 H 5.6784 -0.497381 3.20463 0
M  V30 67 H 5.4634 1.19622 3.73407 0
M  V30 68 H 6.9534 0.304667 4.16487 0
M  V30 69 N 7.3905 -1.2043 1.01659 0
M  V30 70 C 8.6365 -1.90079 0.706963 0
M  V30 71 C 8.9695 -1.78648 -0.761474 0
M  V30 72 O 8.2445 -1.17069 -1.55323 0
M  V30 73 C 8.5275 -3.41469 1.14327 0
M  V30 74 C 8.3805 -3.61833 2.67201 0
M  V30 75 C 9.6995 -4.34261 0.714529 0
M  V30 76 H 6.8185 -0.690254 0.2583 0
M  V30 77 H 9.4605 -1.41826 1.26433 0
M  V30 78 H 7.6105 -3.82696 0.669056 0
M  V30 79 H 9.2825 -3.2986 3.22475 0
M  V30 80 H 7.5255 -3.05304 3.08175 0
M  V30 81 H 8.1965 -4.67955 2.92783 0
M  V30 82 H 10.6725 -4.00682 1.12221 0
M  V30 83 H 9.5485 -5.38806 1.04784 0
M  V30 84 H 9.8095 -4.40431 -0.383799 0
M  V30 85 N 8.8686 -0.792821 -1.36206 0
M  V30 86 C 10.1146 -0.376415 -1.99887 0
M  V30 87 C 10.4696 1.04127 -1.61788 0
M  V30 88 O 9.7626 1.71004 -0.864193 0
M  V30 89 C 9.9566 -0.481501 -3.54142 0
M  V30 90 C 9.7856 -1.90786 -4.07223 0
M  V30 91 C 8.5556 -2.53322 -4.37214 0
M  V30 92 C 10.7536 -2.87048 -4.26741 0
M  V30 93 N 8.7356 -3.8751 -4.7614 0
M  V30 94 C 10.1066 -4.06077 -4.6851 0
M  V30 95 C 12.1616 -2.8406 -4.08918 0
M  V30 96 C 10.8646 -5.22532 -4.94321 0
M  V30 97 C 12.8906 -3.99705 -4.35878 0
M  V30 98 C 12.2526 -5.1748 -4.77906 0
M  V30 99 H 8.3516 -0.185226 -0.759747 0
M  V30 100 H 10.9356 -1.03114 -1.65153 0
M  V30 101 H 9.1066 0.143154 -3.88136 0
M  V30 102 H 10.8386 -0.0410128 -4.04679 0
M  V30 103 H 7.5936 -2.04777 -4.2704 0
M  V30 104 H 8.0176 -4.5656 -4.99882 0
M  V30 105 H 12.6596 -1.94165 -3.75579 0
M  V30 106 H 10.3776 -6.1301 -5.2654 0
M  V30 107 H 13.9636 -3.98758 -4.23655 0
M  V30 108 H 12.8436 -6.05478 -4.98363 0
M  V30 109 N 10.3467 1.47872 -0.545128 0
M  V30 110 C 11.3097 2.28337 0.198717 0
M  V30 111 C 12.3097 1.36255 0.853888 0
M  V30 112 O 13.4997 1.59003 0.711606 0
M  V30 113 C 10.6317 3.15585 1.28915 0
M  V30 114 H 11.8247 2.95567 -0.507941 0
M  V30 115 H 9.3777 1.53362 -0.301616 0
M  V30 116 H 10.1127 2.53019 2.02859 0
M  V30 117 H 9.8977 3.83337 0.824309 0
M  V30 118 H 11.3877 3.76243 1.81194 0
M  V30 119 N 11.8248 0.280983 1.55075 0
M  V30 120 C 12.7878 -0.590896 2.21452 0
M  V30 121 C 13.7878 -1.07682 1.19421 0
M  V30 122 O 14.9778 -0.97605 1.44288 0
M  V30 123 C 12.1098 -1.81587 2.88511 0
M  V30 124 H 13.3028 -0.0112554 2.99898 0
M  V30 125 H 10.8558 0.0316438 1.56268 0
M  V30 126 H 11.5908 -2.43587 2.14093 0
M  V30 127 H 11.3758 -1.4753 3.63287 0
M  V30 128 H 12.8658 -2.43575 3.39206 0
M  V30 129 N 13.3029 -1.57598 0.00835791 0
M  V30 130 C 14.2329 -2.1198 -0.979113 0
M  V30 131 C 15.2139 -1.03091 -1.35301 0
M  V30 132 O 16.3989 -1.30818 -1.43528 0
M  V30 133 C 13.5289 -2.62995 -2.26828 0
M  V30 134 C 12.4829 -3.76485 -2.03576 0
M  V30 135 C 11.8089 -4.13846 -3.38579 0
M  V30 136 C 13.1089 -5.0342 -1.39161 0
M  V30 137 H 14.8029 -2.94738 -0.526281 0
M  V30 138 H 12.3489 -1.41783 -0.251704 0
M  V30 139 H 14.3019 -2.99669 -2.96271 0
M  V30 140 H 13.0259 -1.7737 -2.7424 0
M  V30 141 H 11.6849 -3.40217 -1.36557 0
M  V30 142 H 11.3329 -3.25232 -3.83709 0
M  V30 143 H 11.0329 -4.90312 -3.23834 0
M  V30 144 H 12.5569 -4.53086 -4.09323 0
M  V30 145 H 13.9709 -5.37812 -1.98573 0
M  V30 146 H 12.3679 -5.84746 -1.34878 0
M  V30 147 H 13.4379 -4.83548 -0.361868 0
M  V30 148 N 14.781 0.264519 -1.55364 0
M  V30 149 C 15.744 1.31046 -1.88042 0
M  V30 150 C 16.744 1.41943 -0.755569 0
M  V30 151 O 17.934 1.40947 -1.02369 0
M  V30 152 C 15.066 2.69067 -2.09323 0
M  V30 153 H 16.259 1.03297 -2.81549 0
M  V30 154 H 13.812 0.502989 -1.47986 0
M  V30 155 H 14.547 3.01982 -1.18226 0
M  V30 156 H 14.332 2.62542 -2.91229 0
M  V30 157 H 15.822 3.44623 -2.35848 0
M  V30 158 N 16.2591 1.48442 0.529413 0
M  V30 159 C 17.5051 1.5672 1.28711 0
M  V30 160 C 17.8381 0.2406 1.92704 0
M  V30 161 O 17.1131 -0.753454 1.79313 0
M  V30 162 C 17.3961 2.70587 2.37603 0
M  V30 163 C 17.2491 4.12953 1.78297 0
M  V30 164 C 18.5681 2.80212 3.39366 0
M  V30 165 H 15.6871 0.570474 0.466613 0
M  V30 166 H 18.3291 1.80617 0.589706 0
M  V30 167 H 16.4791 2.50342 2.97088 0
M  V30 168 H 18.1511 4.44639 1.22858 0
M  V30 169 H 16.3941 4.19927 1.0883 0
M  V30 170 H 17.0651 4.88448 2.57144 0
M  V30 171 H 19.5411 2.98553 2.89836 0
M  V30 172 H 18.4171 3.61611 4.12951 0
M  V30 173 H 18.6781 1.88393 3.99951 0
M  V30 174 N 17.7372 -0.778329 1.37039 0
M  V30 175 C 18.9852 -1.53361 1.31623 0
M  V30 176 C 19.3062 -1.94739 -0.100831 0
M  V30 177 O 18.5762 -1.65797 -1.04347 0
M  V30 178 H 17.1562 -0.568794 0.484234 0
M  V30 179 H 19.8182 -0.926742 1.71457 0
M  V30 180 H 18.9142 -2.43606 1.95096 0
M  V30 181 N 19.2153 -1.21501 -1.00376 0
M  V30 182 C 20.1453 -0.999478 -2.11028 0
M  V30 183 C 21.1263 0.0759671 -1.6993 0
M  V30 184 O 22.3113 -0.0841106 -1.94018 0
M  V30 185 C 19.4413 -0.564709 -3.42678 0
M  V30 186 C 18.3953 -1.58486 -3.97576 0
M  V30 187 C 17.7213 -1.00628 -5.25146 0
M  V30 188 C 19.0213 -2.97204 -4.29496 0
M  V30 189 H 20.7153 -1.92495 -2.29317 0
M  V30 190 H 18.2613 -0.92693 -1.102 0
M  V30 191 H 20.2143 -0.401091 -4.19487 0
M  V30 192 H 18.9383 0.396411 -3.24185 0
M  V30 193 H 17.5973 -1.73606 -3.22888 0
M  V30 194 H 17.2453 -0.0368439 -5.02987 0
M  V30 195 H 16.9453 -1.68771 -5.62841 0
M  V30 196 H 18.4693 -0.854015 -6.04598 0
M  V30 197 H 19.8833 -2.8552 -4.97143 0
M  V30 198 H 18.2803 -3.62372 -4.78338 0
M  V30 199 H 19.3503 -3.47956 -3.3772 0
M  V30 200 N 20.6934 1.19889 -1.02296 0
M  V30 201 C 21.6034 2.26571 -0.608508 0
M  V30 202 C 22.6194 1.70299 0.356964 0
M  V30 203 O 23.7954 2.00235 0.216326 0
M  V30 204 C 20.8604 3.46677 0.0402814 0
M  V30 205 C 19.9214 4.18153 -0.97194 0
M  V30 206 C 19.1544 5.32525 -0.354016 0
M  V30 207 O 19.3774 5.64112 0.844604 0
M  V30 208 O 18.3114 5.92242 -1.07391 0
M  V30 209 H 22.1374 2.64251 -1.49684 0
M  V30 210 H 19.7224 1.26629 -0.792809 0
M  V30 211 H 21.6044 4.19475 0.402324 0
M  V30 212 H 20.2794 3.10858 0.902707 0
M  V30 213 H 19.1864 3.47499 -1.38546 0
M  V30 214 H 20.5194 4.57927 -1.80454 0
M  V30 215 N 22.1715 0.800033 1.35784 0
M  V30 216 C 23.1015 0.220184 2.3246 0
M  V30 217 C 24.0825 -0.65073 1.57161 0
M  V30 218 O 25.2675 -0.582359 1.85263 0
M  V30 219 C 22.3975 -0.637353 3.41402 0
M  V30 220 C 21.3515 0.134531 4.27789 0
M  V30 221 C 20.6775 -0.844285 5.27992 0
M  V30 222 C 21.9775 1.32979 5.05088 0
M  V30 223 H 23.6715 1.02787 2.81203 0
M  V30 224 H 21.2175 0.495717 1.35199 0
M  V30 225 H 23.1705 -1.05302 4.08031 0
M  V30 226 H 21.8945 -1.47785 2.91251 0
M  V30 227 H 20.5535 0.531296 3.6273 0
M  V30 228 H 20.2015 -1.68011 4.74111 0
M  V30 229 H 19.9015 -0.332184 5.8666 0
M  V30 230 H 21.4255 -1.2583 5.97494 0
M  V30 231 H 22.8395 0.98934 5.64699 0
M  V30 232 H 21.2365 1.77593 5.7322 0
M  V30 233 H 22.3065 2.11978 4.36111 0
M  V30 234 N 23.6496 -1.47581 0.552962 0
M  V30 235 C 24.8956 -2.03369 0.0355807 0
M  V30 236 C 25.2506 -1.42016 -1.29805 0
M  V30 237 O 24.5436 -0.564917 -1.83083 0
M  V30 238 C 24.7376 -3.57199 -0.119728 0
M  V30 239 C 24.5666 -4.33468 1.1973 0
M  V30 240 C 23.3366 -4.7353 1.76345 0
M  V30 241 C 25.5346 -4.68866 2.11351 0
M  V30 242 N 23.5166 -5.34426 3.02097 0
M  V30 243 C 24.8876 -5.3002 3.21681 0
M  V30 244 C 26.9426 -4.50795 2.11397 0
M  V30 245 C 25.6456 -5.75011 4.32151 0
M  V30 246 C 27.6716 -4.96782 3.20876 0
M  V30 247 C 27.0336 -5.57981 4.29926 0
M  V30 248 H 23.1326 -0.780058 0.0550806 0
M  V30 249 H 25.7166 -1.80117 0.739315 0
M  V30 250 H 23.8876 -3.80227 -0.792579 0
M  V30 251 H 25.6196 -3.99627 -0.638792 0
M  V30 252 H 22.3746 -4.55352 1.30196 0
M  V30 253 H 22.7986 -5.69421 3.66182 0
M  V30 254 H 27.4406 -4.0284 1.28372 0
M  V30 255 H 25.1586 -6.21959 5.15938 0
M  V30 256 H 28.7446 -4.84573 3.21994 0
M  V30 257 H 27.6246 -5.92918 5.13243 0
M  V30 258 N 25.1277 -0.289203 -1.54924 0
M  V30 259 C 26.0907 0.579144 -2.21762 0
M  V30 260 C 27.0907 1.07047 -1.1999 0
M  V30 261 O 28.2807 0.968384 -1.44803 0
M  V30 262 C 25.4127 1.80055 -2.8947 0
M  V30 263 H 26.6057 -0.00464908 -2.999 0
M  V30 264 H 24.1587 -0.0399306 -1.56249 0
M  V30 265 H 24.8937 2.42449 -2.15381 0
M  V30 266 H 24.6787 1.45602 -3.64064 0
M  V30 267 H 26.1687 2.41773 -3.40493 0
M  V30 268 N 26.6058 1.57591 -0.0167156 0
M  V30 269 C 27.5688 2.08393 0.954204 0
M  V30 270 C 28.5688 0.996531 1.26198 0
M  V30 271 O 29.7588 1.25858 1.20438 0
M  V30 272 C 26.8908 2.5394 2.27436 0
M  V30 273 H 28.0838 2.95455 0.514451 0
M  V30 274 H 25.6368 1.54582 0.231089 0
M  V30 275 H 26.3718 1.70171 2.76066 0
M  V30 276 H 26.1568 3.33371 2.06412 0
M  V30 277 H 27.6468 2.93512 2.97053 0
M  V30 278 N 28.0839 -0.256276 1.55502 0
M  V30 279 C 29.0469 -1.30047 1.88734 0
M  V30 280 C 30.0469 -1.4154 0.763086 0
M  V30 281 O 31.2369 -1.40403 1.03115 0
M  V30 282 C 28.3689 -2.67953 2.10747 0
M  V30 283 H 29.5619 -1.01802 2.82093 0
M  V30 284 H 27.1149 -0.495134 1.4825 0
M  V30 285 H 27.8499 -3.01351 1.19825 0
M  V30 286 H 27.6349 -2.60993 2.92617 0
M  V30 287 H 29.1249 -3.43368 2.37673 0
M  V30 288 N 29.562 -1.4872 -0.521534 0
M  V30 289 C 30.512 -1.60269 -1.62166 0
M  V30 290 C 31.496 -0.45935 -1.54204 0
M  V30 291 O 32.688 -0.711241 -1.62081 0
M  V30 292 C 29.817 -1.65344 -3.00859 0
M  V30 293 C 28.903 -2.85187 -3.13894 0
M  V30 294 N 29.294 -4.09509 -2.96877 0
M  V30 295 C 27.592 -2.82695 -3.44963 0
M  V30 296 C 28.293 -4.89959 -3.13552 0
M  V30 297 N 27.269 -4.22934 -3.41508 0
M  V30 298 H 31.071 -2.5413 -1.47632 0
M  V30 299 H 28.585 -1.45209 -0.727194 0
M  V30 300 H 30.582 -1.71713 -3.79895 0
M  V30 301 H 29.242 -0.726058 -3.16478 0
M  V30 302 H 30.253 -4.39814 -2.73467 0
M  V30 303 H 26.93 -1.99249 -3.66887 0
M  V30 304 H 28.32 -5.98654 -3.05061 0
M  V30 305 N 31.0401 0.771051 -1.3745 0
M  V30 306 C 32.0031 1.86598 -1.33093 0
M  V30 307 C 33.0031 1.59076 -0.234845 0
M  V30 308 O 34.1931 1.67145 -0.490732 0
M  V30 309 C 31.3251 3.23747 -1.06773 0
M  V30 310 H 32.5181 1.91873 -2.30488 0
M  V30 311 H 30.0711 0.970876 -1.2249 0
M  V30 312 H 30.8061 3.24148 -0.099129 0
M  V30 313 H 30.5911 3.45115 -1.86112 0
M  V30 314 H 32.0811 4.03824 -1.06377 0
M  V30 315 N 32.5182 1.22032 0.997298 0
M  V30 316 C 33.4482 1.01065 2.10495 0
M  V30 317 C 34.4292 -0.0669542 1.69968 0
M  V30 318 O 35.6142 0.0943987 1.9397 0
M  V30 319 C 32.7442 0.582874 3.42374 0
M  V30 320 C 31.6982 1.60592 3.96729 0
M  V30 321 C 31.0242 1.03412 5.24605 0
M  V30 322 C 32.3242 2.99478 4.27914 0
M  V30 323 H 34.0182 1.93708 2.28292 0
M  V30 324 H 31.5642 0.932761 1.09707 0
M  V30 325 H 33.5172 0.423332 4.19268 0
M  V30 326 H 32.2412 -0.379213 3.24391 0
M  V30 327 H 30.9002 1.75316 3.21963 0
M  V30 328 H 30.5482 0.063518 5.0296 0
M  V30 329 H 30.2482 1.71754 5.61938 0
M  V30 330 H 31.7722 0.886066 6.04137 0
M  V30 331 H 33.1862 2.88153 4.95622 0
M  V30 332 H 31.5832 3.64903 4.76409 0
M  V30 333 H 32.6532 3.49742 3.3587 0
M  V30 334 N 33.9963 -1.19345 1.0293 0
M  V30 335 C 35.4073 -1.70725 0.755633 0
M  V30 336 C 35.7583 -1.82326 -0.724676 0
M  V30 337 O 34.8833 -1.49471 -1.56484 0
M  V30 338 C 35.4783 -3.10084 1.36503 0
M  V30 339 C 34.0373 -3.58723 1.13994 0
M  V30 340 C 33.1843 -2.35577 1.46283 0
M  V30 341 H 36.1353 -1.0418 1.19718 0
M  V30 342 H 36.1563 -3.72787 0.762217 0
M  V30 343 H 35.6683 -3.01609 2.44241 0
M  V30 344 H 33.7693 -3.72512 0.0807901 0
M  V30 345 H 33.8823 -4.42816 1.82894 0
M  V30 346 H 32.2463 -2.38935 0.88217 0
M  V30 347 H 33.0293 -2.29731 2.55105 0
M  V30 348 N 35.4744 -0.807222 -1.35358 0
M  V30 349 C 36.4374 -0.223665 -2.28106 0
M  V30 350 C 37.4374 0.589354 -1.4961 0
M  V30 351 O 38.6274 0.407745 -1.69361 0
M  V30 352 C 35.7594 0.688149 -3.33882 0
M  V30 353 H 36.9524 -1.04169 -2.81227 0
M  V30 354 H 34.5054 -0.577921 -1.45223 0
M  V30 355 H 35.2404 1.52984 -2.85948 0
M  V30 356 H 35.0254 0.10687 -3.91954 0
M  V30 357 H 36.5154 1.09075 -4.03104 0
M  V30 358 N 36.9525 1.47285 -0.560781 0
M  V30 359 C 37.8845 2.28118 0.222438 0
M  V30 360 C 38.8975 1.37219 0.876056 0
M  V30 361 O 40.0865 1.62011 0.749307 0
M  V30 362 C 37.1865 3.1159 1.33285 0
M  V30 363 C 36.3595 4.30473 0.77534 0
M  V30 364 C 35.4185 4.95513 1.77069 0
M  V30 365 O 34.4445 5.53792 1.31539 0
M  V30 366 N 35.6465 4.90531 3.10418 0
M  V30 367 H 38.4115 2.95976 -0.470958 0
M  V30 368 H 35.9725 1.56955 -0.39709 0
M  V30 369 H 37.9645 3.51967 1.99752 0
M  V30 370 H 36.5345 2.45951 1.92943 0
M  V30 371 H 35.7545 3.94144 -0.0662113 0
M  V30 372 H 37.0425 5.07362 0.382272 0
M  V30 373 H 36.4405 4.44389 3.5005 0
M  V30 374 H 34.9975 5.34917 3.72434 0
M  V30 375 N 38.4306 0.297415 1.54768 0
M  V30 376 C 39.6766 -0.313376 2.00364 0
M  V30 377 C 40.0096 -1.53815 1.18553 0
M  V30 378 O 39.2846 -1.92739 0.261103 0
M  V30 379 C 39.5676 -0.673525 3.53745 0
M  V30 380 C 39.4206 0.560133 4.46299 0
M  V30 381 C 40.7396 -1.50143 4.13697 0
M  V30 382 H 37.8586 -0.112428 0.728374 0
M  V30 383 H 40.5006 0.4088 1.8555 0
M  V30 384 H 38.6506 -1.28881 3.665 0
M  V30 385 H 40.3226 1.19863 4.45455 0
M  V30 386 H 38.5656 1.19405 4.17043 0
M  V30 387 H 39.2366 0.26405 5.51368 0
M  V30 388 H 41.7126 -0.981588 4.04356 0
M  V30 389 H 40.5886 -1.72221 5.21182 0
M  V30 390 H 40.8496 -2.48952 3.65343 0
M  V30 391 N 39.9087 -1.5758 0.0250728 0
M  V30 392 C 40.8717 -2.08896 -0.943139 0
M  V30 393 C 41.8717 -1.00321 -1.25668 0
M  V30 394 O 43.0617 -1.26495 -1.19769 0
M  V30 395 C 40.1937 -2.55143 -2.26086 0
M  V30 396 H 41.3867 -2.95723 -0.498775 0
M  V30 397 H 38.9397 -1.54703 -0.222888 0
M  V30 398 H 39.6747 -1.71633 -2.75159 0
M  V30 399 H 39.4597 -3.34461 -2.04641 0
M  V30 400 H 40.9497 -2.95083 -2.95492 0
M  V30 401 N 41.3868 0.248026 -1.55636 0
M  V30 402 C 42.6338 0.976224 -1.77415 0
M  V30 403 C 42.9618 1.85361 -0.589193 0
M  V30 404 O 42.2168 1.90973 0.427529 0
M  V30 405 C 42.5158 1.86819 -3.04686 0
M  V30 406 C 42.1818 1.14625 -4.36087 0
M  V30 407 C 40.8438 0.946723 -4.71795 0
M  V30 408 C 43.1958 0.634463 -5.17324 0
M  V30 409 C 40.5238 0.223091 -5.86276 0
M  V30 410 C 42.8758 -0.0756959 -6.32555 0
M  V30 411 C 41.5398 -0.286711 -6.66884 0
M  V30 412 H 40.8098 0.357226 -0.649208 0
M  V30 413 H 43.4568 0.246415 -1.89908 0
M  V30 414 H 41.7618 2.66502 -2.872 0
M  V30 415 H 43.4588 2.43329 -3.18735 0
M  V30 416 H 40.0488 1.3117 -4.08035 0
M  V30 417 H 44.2328 0.77616 -4.90193 0
M  V30 418 H 39.4888 0.0491185 -6.1138 0
M  V30 419 H 43.6628 -0.479899 -6.94745 0
M  V30 420 H 41.2898 -0.849389 -7.5544 0
M  V30 421 N 42.8649 1.48995 0.513639 0
M  V30 422 C 44.0929 1.61531 1.29288 0
M  V30 423 C 44.5079 0.281801 1.86685 0
M  V30 424 O 43.8649 -0.731111 1.67215 0
M  V30 425 C 43.9159 2.67449 2.43215 0
M  V30 426 O 43.6369 3.95626 1.88179 0
M  V30 427 C 45.1379 2.90575 3.34785 0
M  V30 428 H 42.3579 0.544165 0.392588 0
M  V30 429 H 44.9019 1.9494 0.617956 0
M  V30 430 H 43.0569 2.36853 3.0656 0
M  V30 431 H 43.4709 4.53868 2.62876 0
M  V30 432 H 44.9449 3.68449 4.11035 0
M  V30 433 H 45.4219 2.00011 3.91015 0
M  V30 434 H 46.0279 3.22538 2.77218 0
M  V30 435 N 44.343 -0.763751 1.37857 0
M  V30 436 C 45.754 -1.3405 1.29952 0
M  V30 437 C 46.105 -1.96138 -0.0492898 0
M  V30 438 O 45.23 -1.94372 -0.951239 0
M  V30 439 C 45.825 -2.43729 2.35333 0
M  V30 440 C 44.384 -2.97151 2.31037 0
M  V30 441 C 43.531 -1.70438 2.18738 0
M  V30 442 H 46.482 -0.563396 1.48363 0
M  V30 443 H 46.503 -3.23412 2.00462 0
M  V30 444 H 46.015 -1.9851 3.33489 0
M  V30 445 H 44.116 -3.46724 1.3643 0
M  V30 446 H 44.229 -3.52221 3.24772 0
M  V30 447 H 42.593 -1.93673 1.65418 0
M  V30 448 H 43.376 -1.27312 3.18821 0
M  V30 449 N 45.8211 -1.22559 -0.990812 0
M  V30 450 C 47.0511 -1.07623 -1.76355 0
M  V30 451 C 47.4591 0.37601 -1.85426 0
M  V30 452 O 46.8021 1.27228 -1.32509 0
M  V30 453 C 46.8641 -1.61507 -3.21179 0
M  V30 454 C 46.5281 -3.10146 -3.35646 0
M  V30 455 C 47.5251 -4.07553 -3.22796 0
M  V30 456 C 45.2101 -3.49644 -3.60631 0
M  V30 457 C 47.2041 -5.42442 -3.34716 0
M  V30 458 C 44.8911 -4.84682 -3.72192 0
M  V30 459 C 45.8891 -5.8089 -3.59243 0
M  V30 460 O 45.5771 -7.13476 -3.70415 0
M  V30 461 H 45.3091 -0.377745 -0.560611 0
M  V30 462 H 47.8631 -1.62658 -1.25425 0
M  V30 463 H 46.0931 -1.00881 -3.73309 0
M  V30 464 H 47.7821 -1.42202 -3.80175 0
M  V30 465 H 48.5481 -3.78381 -3.03403 0
M  V30 466 H 44.4271 -2.75282 -3.69785 0
M  V30 467 H 47.9711 -6.17518 -3.24526 0
M  V30 468 H 43.8681 -5.13534 -3.91092 0
M  V30 469 H 44.6361 -7.21083 -3.87275 0
M  V30 470 N 47.2992 1.18797 -1.03562 0
M  V30 471 C 48.2622 2.20464 -0.626769 0
M  V30 472 C 49.2622 1.57721 0.313173 0
M  V30 473 O 50.4522 1.73917 0.0992615 0
M  V30 474 C 47.5842 3.40802 0.0818498 0
M  V30 475 H 48.7772 2.58149 -1.5264 0
M  V30 476 H 46.3302 1.32593 -0.827578 0
M  V30 477 H 47.0652 3.08642 0.995518 0
M  V30 478 H 46.8502 3.8758 -0.593652 0
M  V30 479 H 48.3402 4.16092 0.354584 0
M  V30 480 N 48.7773 0.814389 1.34928 0
M  V30 481 C 50.1883 0.458364 1.80986 0
M  V30 482 C 50.5393 -1.02042 1.67577 0
M  V30 483 O 49.6643 -1.79352 1.21086 0
M  V30 484 C 50.2593 0.825212 3.28597 0
M  V30 485 C 48.8183 0.521677 3.72767 0
M  V30 486 C 47.9653 1.04668 2.56788 0
M  V30 487 H 50.9163 1.00533 1.22795 0
M  V30 488 H 50.9373 0.12571 3.80292 0
M  V30 489 H 50.4493 1.90154 3.38324 0
M  V30 490 H 48.5503 -0.545589 3.68584 0
M  V30 491 H 48.6633 1.05977 4.67232 0
M  V30 492 H 47.0273 0.468622 2.50352 0
M  V30 493 H 47.8103 2.12927 2.6929 0
M  V30 494 N 50.2554 -1.46986 0.568584 0
M  V30 495 C 51.1654 -2.33942 -0.17555 0
M  V30 496 C 52.1814 -1.48891 -0.90041 0
M  V30 497 O 53.3574 -1.81794 -0.86676 0
M  V30 498 C 50.4224 -3.25811 -1.18524 0
M  V30 499 C 49.4834 -4.26757 -0.466582 0
M  V30 500 C 48.7164 -5.14236 -1.42817 0
M  V30 501 O 48.9394 -5.04379 -2.66379 0
M  V30 502 O 47.8734 -5.94412 -0.946453 0
M  V30 503 H 51.6994 -2.98896 0.538036 0
M  V30 504 H 49.2844 -1.4573 0.329097 0
M  V30 505 H 51.1664 -3.82527 -1.76779 0
M  V30 506 H 49.8414 -2.63471 -1.88055 0
M  V30 507 H 48.7484 -3.73769 0.157451 0
M  V30 508 H 50.0814 -4.91843 0.187485 0
M  V30 509 N 51.7335 -0.305618 -1.54608 0
M  V30 510 C 53.1445 0.186098 -1.8577 0
M  V30 511 C 53.4955 1.53058 -1.22751 0
M  V30 512 O 52.6205 2.09888 -0.526893 0
M  V30 513 C 53.2155 0.344449 -3.37044 0
M  V30 514 C 51.7745 0.780384 -3.68221 0
M  V30 515 C 50.9215 -0.108554 -2.77087 0
M  V30 516 H 53.8725 -0.526485 -1.49712 0
M  V30 517 H 53.8935 1.17828 -3.61796 0
M  V30 518 H 53.4055 -0.634235 -3.82883 0
M  V30 519 H 51.5065 1.76945 -3.27904 0
M  V30 520 H 51.6195 0.596572 -4.75371 0
M  V30 521 H 49.9835 0.412931 -2.5133 0
M  V30 522 H 50.7665 -1.08368 -3.25747 0
M  V30 523 N 53.2116 1.57565 -0.0334293 0
M  V30 524 C 54.4596 1.91598 0.642999 0
M  V30 525 C 54.7806 0.910847 1.7242 0
M  V30 526 O 54.0506 -0.0469931 1.95844 0
M  V30 527 H 52.6306 0.707228 0.240496 0
M  V30 528 H 55.2926 1.94726 -0.0822488 0
M  V30 529 H 54.3886 2.92336 1.09298 0
M  V30 530 N 54.6897 -0.239769 1.55765 0
M  V30 531 C 55.9147 -0.988373 1.82335 0
M  V30 532 C 56.3397 -1.77886 0.611421 0
M  V30 533 O 55.6977 -1.75889 -0.439639 0
M  V30 534 C 55.7457 -1.89627 3.06715 0
M  V30 535 O 54.8497 -2.98904 2.84131 0
M  V30 536 H 54.1907 -0.280858 0.601677 0
M  V30 537 H 56.7207 -0.258597 2.02959 0
M  V30 538 H 56.7307 -2.30957 3.36338 0
M  V30 539 H 55.4057 -1.31511 3.9456 0
M  V30 540 H 53.9827 -2.61651 2.65694 0
M  V30 541 N 56.1678 -1.49265 -0.50573 0
M  V30 542 C 57.3958 -1.62215 -1.28429 0
M  V30 543 C 57.8108 -0.291697 -1.86533 0
M  V30 544 O 57.1678 0.722233 -1.67601 0
M  V30 545 C 57.2188 -2.68735 -2.41793 0
M  V30 546 O 56.9398 -3.96619 -1.86078 0
M  V30 547 C 58.4408 -2.92346 -3.3324 0
M  V30 548 H 55.6608 -0.546239 -0.389697 0
M  V30 549 H 58.2048 -1.95265 -0.607609 0
M  V30 550 H 56.3598 -2.38476 -3.053 0
M  V30 551 H 56.7738 -4.55256 -2.60465 0
M  V30 552 H 58.2478 -3.70623 -4.09075 0
M  V30 553 H 58.7248 -2.02081 -3.89948 0
M  V30 554 H 59.3308 -3.24003 -2.75503 0
M  V30 555 N 57.6459 0.756429 -1.3826 0
M  V30 556 C 58.8859 1.52833 -1.35725 0
M  V30 557 C 59.2499 1.91926 0.0534106 0
M  V30 558 O 60.4509 2.68028 0.203613 0
M  V30 559 C 58.7219 2.74919 -2.28373 0
M  V30 560 S 60.2809 3.64817 -2.43832 0
M  V30 561 H 57.0989 0.523043 -0.481608 0
M  V30 562 H 59.7009 0.888212 -1.74158 0
M  V30 563 H 58.4049 2.44304 -3.29763 0
M  V30 564 H 57.9359 3.43878 -1.91079 0
M  V30 565 H 59.9509 4.676 -1.66027 0
M  V30 566 N 59.124 1.23083 0.984299 0
M  V30 567 C 60.54 0.992637 1.24975 0
M  V30 568 C 60.74 -0.308618 1.99123 0
M  V30 569 O 59.796 -1.02905 2.30579 0
M  V30 570 C 61.109 2.19698 2.05312 0
M  V30 571 C 62.657 2.24147 2.18465 0
M  V30 572 C 63.132 3.44157 3.02192 0
M  V30 573 N 64.623 3.44372 3.09777 0
M  V30 574 C 65.358 4.33886 3.74874 0
M  V30 575 N 64.854 5.3363 4.41827 0
M  V30 576 N 66.647 4.21639 3.71721 0
M  V30 577 H 58.798 2.06731 0.487453 0
M  V30 578 H 61.061 0.906339 0.277944 0
M  V30 579 H 60.767 3.1411 1.58201 0
M  V30 580 H 60.641 2.20465 3.06064 0
M  V30 581 H 63.028 1.30277 2.64786 0
M  V30 582 H 63.109 2.27415 1.17115 0
M  V30 583 H 62.753 4.38332 2.56568 0
M  V30 584 H 62.683 3.3813 4.03702 0
M  V30 585 H 65.174 2.72201 2.62135 0
M  V30 586 H 65.487 5.98196 4.89266 0
M  V30 587 H 63.832 5.37534 4.40548 0
M  V30 588 H 67.023 3.42962 3.18582 0
M  V30 589 H 67.196 4.91604 4.22173 0
M  V30 590 N 60.6021 -1.18246 1.0419 0
M  V30 591 C 61.5321 -2.24127 0.654914 0
M  V30 592 C 62.5131 -1.66617 -0.342451 0
M  V30 593 O 63.6981 -1.92924 -0.222277 0
M  V30 594 C 60.8281 -3.47295 0.0183757 0
M  V30 595 C 59.7821 -4.17563 0.939414 0
M  V30 596 C 59.1081 -5.34438 0.167286 0
M  V30 597 C 60.4081 -4.70917 2.25908 0
M  V30 598 H 62.1021 -2.56753 1.54007 0
M  V30 599 H 59.6481 -1.23414 0.74195 0
M  V30 600 H 61.6011 -4.20572 -0.264082 0
M  V30 601 H 60.3251 -3.13907 -0.901664 0
M  V30 602 H 58.9841 -3.46186 1.20628 0
M  V30 603 H 58.6321 -4.97298 -0.7552 0
M  V30 604 H 58.3321 -5.82388 0.780901 0
M  V30 605 H 59.8561 -6.10504 -0.108125 0
M  V30 606 H 61.2701 -5.35882 2.03724 0
M  V30 607 H 59.6671 -5.29406 2.82577 0
M  V30 608 H 60.7371 -3.88272 2.9047 0
M  V30 609 N 62.0802 -0.821533 -1.34494 0
M  V30 610 C 63.4962 -0.507117 -1.51329 0
M  V30 611 C 63.6962 0.968964 -1.76673 0
M  V30 612 O 62.7522 1.75348 -1.81685 0
M  V30 613 C 64.0652 -1.36544 -2.67911 0
M  V30 614 C 65.6132 -1.36242 -2.81793 0
M  V30 615 C 66.0882 -2.2052 -4.01416 0
M  V30 616 N 67.5792 -2.18136 -4.08621 0
M  V30 617 C 68.3142 -2.80095 -5.00334 0
M  V30 618 N 67.8102 -3.51039 -5.9728 0
M  V30 619 N 69.6032 -2.69656 -4.93196 0
M  V30 620 H 61.7542 -1.77729 -1.16302 0
M  V30 621 H 64.0172 -0.757291 -0.570276 0
M  V30 622 H 63.7232 -2.41361 -2.55808 0
M  V30 623 H 63.5972 -1.02917 -3.62888 0
M  V30 624 H 65.9842 -0.322041 -2.93338 0
M  V30 625 H 66.0652 -1.73866 -1.87628 0
M  V30 626 H 65.7092 -3.24607 -3.90631 0
M  V30 627 H 65.6392 -1.80247 -4.94791 0
M  V30 628 H 68.1302 -1.6653 -3.39229 0
M  V30 629 H 68.4432 -3.95565 -6.63889 0
M  V30 630 H 66.7882 -3.55145 -5.97409 0
M  V30 631 H 69.9792 -2.13808 -4.16418 0
M  V30 632 H 70.1522 -3.1823 -5.64476 0
M  V30 633 N 63.5583 1.46682 -0.576371 0
M  V30 634 C 64.4683 2.34032 0.163141 0
M  V30 635 C 65.4843 1.49367 0.892501 0
M  V30 636 O 66.6603 1.82252 0.857106 0
M  V30 637 C 63.7253 3.26435 1.16795 0
M  V30 638 C 62.7863 4.26998 0.443944 0
M  V30 639 C 62.0193 5.14986 1.40088 0
M  V30 640 O 62.2423 5.05785 2.637 0
M  V30 641 O 61.1763 5.94906 0.914917 0
M  V30 642 H 65.0023 2.98607 -0.55388 0
M  V30 643 H 62.5873 1.45554 -0.336821 0
M  V30 644 H 64.4693 3.83459 1.74748 0
M  V30 645 H 63.1443 2.64465 1.86655 0
M  V30 646 H 62.0513 3.7368 -0.177271 0
M  V30 647 H 63.3843 4.91736 -0.213566 0
M  V30 648 N 65.0364 0.313813 1.54444 0
M  V30 649 C 66.2664 -0.293491 2.04505 0
M  V30 650 C 66.6744 -1.47086 1.19005 0
M  V30 651 O 66.0174 -1.82481 0.211257 0
M  V30 652 C 66.0794 -0.800455 3.50475 0
M  V30 653 C 65.7434 0.253322 4.56297 0
M  V30 654 C 66.7404 1.08612 5.08428 0
M  V30 655 C 64.4254 0.398708 5.00715 0
M  V30 656 C 66.4194 2.05013 6.0353 0
M  V30 657 C 64.1064 1.36614 5.95634 0
M  V30 658 C 65.1044 2.19033 6.46926 0
M  V30 659 O 64.7924 3.14134 7.39983 0
M  V30 660 H 64.5244 -0.0658325 0.672787 0
M  V30 661 H 67.0784 0.455177 2.00293 0
M  V30 662 H 65.3084 -1.59987 3.52053 0
M  V30 663 H 66.9974 -1.32504 3.83663 0
M  V30 664 H 67.7634 0.984736 4.74898 0
M  V30 665 H 63.6424 -0.23289 4.60411 0
M  V30 666 H 67.1864 2.69382 6.4349 0
M  V30 667 H 63.0834 1.4682 6.28581 0
M  V30 668 H 63.8514 3.0926 7.57826 0
M  V30 669 N 66.5145 -1.57545 0.0417849 0
M  V30 670 C 67.7445 -1.96339 -0.642995 0
M  V30 671 C 68.1525 -0.917536 -1.65463 0
M  V30 672 O 67.4955 0.107747 -1.83384 0
M  V30 673 C 67.5575 -3.31333 -1.39494 0
M  V30 674 C 67.2215 -4.53796 -0.540204 0
M  V30 675 C 68.2185 -5.19553 0.189806 0
M  V30 676 C 65.9035 -5.0006 -0.473886 0
M  V30 677 C 67.8975 -6.29904 0.974674 0
M  V30 678 C 65.5845 -6.10289 0.314677 0
M  V30 679 C 66.5825 -6.75072 1.03765 0
M  V30 680 O 66.2705 -7.83183 1.81327 0
M  V30 681 H 66.0025 -0.651241 -0.181277 0
M  V30 682 H 68.5565 -2.05148 0.101665 0
M  V30 683 H 66.7865 -3.19052 -2.18502 0
M  V30 684 H 68.4755 -3.54942 -1.96904 0
M  V30 685 H 69.2415 -4.84774 0.147981 0
M  V30 686 H 65.1205 -4.49433 -1.0262 0
M  V30 687 H 68.6645 -6.80401 1.5395 0
M  V30 688 H 64.5615 -6.44506 0.358174 0
M  V30 689 H 65.3295 -7.99913 1.73438 0
M  V30 690 N 67.9926 0.231505 -1.5589 0
M  V30 691 C 69.2696 0.981096 -1.69215 0
M  V30 692 C 69.6496 2.02799 -0.586164 0
M  V30 693 O 68.9976 2.24823 0.408253 0
M  V30 694 C 69.2076 1.60054 -3.10135 0
M  V30 695 C 70.5556 2.09658 -3.69227 0
M  V30 696 O 71.5796 1.69967 -3.13033 0
M  V30 697 O 70.4386 2.8258 -4.67772 0
M  V30 698 H 67.5326 0.457653 -0.688827 0
M  V30 699 H 70.0786 0.224073 -1.68214 0
M  V30 700 H 68.8506 0.844105 -3.82087 0
M  V30 701 H 68.4736 2.42336 -3.15212 0
M  V30 702 N 69.4707 1.49531 0.497807 0
M  V30 703 C 70.4027 1.62559 1.61578 0
M  V30 704 C 71.4157 0.508134 1.54667 0
M  V30 705 O 72.6047 0.780309 1.60541 0
M  V30 706 C 69.7047 1.56925 3.00379 0
M  V30 707 C 68.8777 2.84257 3.3244 0
M  V30 708 C 67.9367 2.71632 4.50669 0
M  V30 709 O 66.9627 3.4557 4.52294 0
M  V30 710 N 68.1647 1.83391 5.5077 0
M  V30 711 H 70.9297 2.58981 1.50828 0
M  V30 712 H 68.4907 1.4666 0.685743 0
M  V30 713 H 70.4827 1.46129 3.77397 0
M  V30 714 H 69.0527 0.683483 3.05037 0
M  V30 715 H 68.2727 3.09381 2.44289 0
M  V30 716 H 69.5607 3.68666 3.5066 0
M  V30 717 H 68.9587 1.22583 5.52259 0
M  V30 718 H 67.5157 1.78515 6.26878 0
M  V30 719 N 70.9488 -0.749086 1.3866 0
M  V30 720 C 72.1768 -1.53834 1.38358 0
M  V30 721 C 72.5918 -1.88783 -0.0255219 0
M  V30 722 O 71.9488 -1.53101 -0.993292 0
M  V30 723 C 71.9998 -2.83468 2.2434 0
M  V30 724 O 71.7208 -2.50008 3.5976 0
M  V30 725 C 73.2218 -3.7758 2.32267 0
M  V30 726 H 70.4418 -0.47585 0.473083 0
M  V30 727 H 72.9858 -0.926726 1.82297 0
M  V30 728 H 71.1408 -3.40995 1.83851 0
M  V30 729 H 71.5548 -3.33182 4.05081 0
M  V30 730 H 73.0288 -4.65478 2.96706 0
M  V30 731 H 73.5058 -4.18334 1.33765 0
M  V30 732 H 74.1118 -3.25976 2.73166 0
M  V30 733 N 72.4269 -1.23603 -0.977757 0
M  V30 734 C 73.3899 -1.02069 -2.05218 0
M  V30 735 C 74.3899 0.0184305 -1.60789 0
M  V30 736 O 75.5799 -0.221569 -1.72785 0
M  V30 737 C 72.7119 -0.544926 -3.36517 0
M  V30 738 H 73.9049 -1.9742 -2.25755 0
M  V30 739 H 71.4579 -1.05684 -1.15155 0
M  V30 740 H 72.1929 0.412241 -3.21669 0
M  V30 741 H 71.9779 -1.2948 -3.70105 0
M  V30 742 H 73.4679 -0.414985 -4.15533 0
M  V30 743 N 73.905 1.17692 -1.04816 0
M  V30 744 C 74.837 2.21103 -0.603822 0
M  V30 745 C 75.85 1.59411 0.33046 0
M  V30 746 O 77.039 1.7807 0.12379 0
M  V30 747 C 74.139 3.38623 0.136898 0
M  V30 748 C 73.312 4.29888 -0.807137 0
M  V30 749 C 72.371 5.26088 -0.10836 0
M  V30 750 O 71.397 5.64353 -0.741232 0
M  V30 751 N 72.599 5.68882 1.15558 0
M  V30 752 H 75.364 2.59848 -1.49329 0
M  V30 753 H 72.925 1.32553 -0.929587 0
M  V30 754 H 74.917 4.00009 0.614401 0
M  V30 755 H 73.487 2.98508 0.927993 0
M  V30 756 H 72.707 3.65993 -1.46434 0
M  V30 757 H 73.995 4.87759 -1.44807 0
M  V30 758 H 73.393 5.39861 1.69015 0
M  V30 759 H 71.95 6.32429 1.57722 0
M  V30 760 N 75.3831 0.828654 1.34056 0
M  V30 761 C 76.3161 0.199763 2.27324 0
M  V30 762 C 77.2941 -0.647168 1.49166 0
M  V30 763 O 78.4781 -0.609661 1.78369 0
M  V30 764 C 75.6051 -0.720455 3.30949 0
M  V30 765 C 74.6511 0.0496888 4.26471 0
M  V30 766 S 75.4841 1.40072 5.16856 0
M  V30 767 C 76.6401 0.485527 6.24014 0
M  V30 768 H 76.8731 0.990478 2.80316 0
M  V30 769 H 74.4061 0.624857 1.41191 0
M  V30 770 H 76.3641 -1.24581 3.91139 0
M  V30 771 H 75.0251 -1.48474 2.76793 0
M  V30 772 H 74.2181 -0.650104 4.9979 0
M  V30 773 H 73.8201 0.505779 3.70564 0
M  V30 774 H 76.1121 -0.320672 6.76741 0
M  V30 775 H 77.0551 1.18856 6.98054 0
M  V30 776 H 77.4631 0.0714109 5.64455 0
M  V30 777 N 76.8612 -1.46375 0.584142 0
M  V30 778 C 78.1012 -2.0427 0.0729695 0
M  V30 779 C 78.4652 -1.44563 -1.26355 0
M  V30 780 O 79.6662 -1.93667 -1.86405 0
M  V30 781 C 77.9372 -3.57399 0.00967464 0
M  V30 782 S 79.4962 -4.36551 -0.443714 0
M  V30 783 H 76.3142 -0.709975 0.0381673 0
M  V30 784 H 78.9162 -1.79398 0.776962 0
M  V30 785 H 77.6202 -3.98372 0.986319 0
M  V30 786 H 77.1512 -3.8681 -0.717044 0
M  V30 787 H 79.1662 -4.66237 -1.69816 0
M  V30 788 N 78.3393 -0.321999 -1.54275 0
M  V30 789 C 79.5793 0.281657 -2.0245 0
M  V30 790 C 79.9433 1.49468 -1.20513 0
M  V30 791 O 81.1443 2.17109 -1.58484 0
M  V30 792 C 79.4153 0.609014 -3.52173 0
M  V30 793 S 80.9743 1.19255 -4.22284 0
M  V30 794 H 77.7923 0.0852825 -0.705867 0
M  V30 795 H 80.3943 -0.454758 -1.90137 0
M  V30 796 H 79.0983 -0.281982 -4.0943 0
M  V30 797 H 78.6293 1.37567 -3.68563 0
M  V30 798 H 80.6443 2.47944 -4.29812 0
M  V30 799 N 79.8174 1.5752 -0.0501392 0
M  V30 800 C 81.0424 1.97376 0.636997 0
M  V30 801 C 81.4674 0.927466 1.63645 0
M  V30 802 O 80.8254 -0.10941 1.8097 0
M  V30 803 C 80.8734 3.36304 1.30123 0
M  V30 804 O 79.9774 3.34156 2.41689 0
M  V30 805 H 79.3184 0.642998 0.165679 0
M  V30 806 H 81.8484 2.04258 -0.118233 0
M  V30 807 H 81.8584 3.73008 1.65315 0
M  V30 808 H 80.5334 4.11993 0.568746 0
M  V30 809 H 79.1104 3.09196 2.08451 0
M  V30 810 N 81.2955 -0.223234 1.56011 0
M  V30 811 C 82.2425 -1.27664 1.92277 0
M  V30 812 C 83.2125 -1.46659 0.779763 0
M  V30 813 O 84.3975 -1.60256 1.03551 0
M  V30 814 C 81.5375 -2.62234 2.24338 0
M  V30 815 C 80.6505 -2.51051 3.51564 0
M  V30 816 C 79.7855 -3.78133 3.7308 0
M  V30 817 C 78.8245 -3.61665 4.93827 0
M  V30 818 N 77.9615 -4.80693 5.11741 0
M  V30 819 H 82.8015 -0.960358 2.82101 0
M  V30 820 H 80.3385 -0.462901 1.39627 0
M  V30 821 H 82.2965 -3.40596 2.40936 0
M  V30 822 H 80.9265 -2.91961 1.3769 0
M  V30 823 H 79.9785 -1.64132 3.43169 0
M  V30 824 H 81.2905 -2.34803 4.40079 0
M  V30 825 H 80.4445 -4.64938 3.89766 0
M  V30 826 H 79.1835 -3.97304 2.82844 0
M  V30 827 H 78.1885 -2.73244 4.77093 0
M  V30 828 H 79.4135 -3.43966 5.85546 0
M  V30 829 H 77.3595 -5.00181 4.24446 0
M  V30 830 H 77.2765 -4.67165 5.94384 0
M  V30 831 H 78.5445 -5.6893 5.3286 0
M  V30 832 N 82.7736 -1.49793 -0.48987 0
M  V30 833 C 84.0136 -1.61466 -1.25332 0
M  V30 834 C 84.3776 -0.299688 -1.89647 0
M  V30 835 O 85.5786 -0.291687 -2.67213 0
M  V30 836 C 83.8496 -2.74944 -2.28343 0
M  V30 837 S 85.4086 -3.06637 -3.13878 0
M  V30 838 H 82.2266 -0.569411 -0.425784 0
M  V30 839 H 84.8286 -1.875 -0.553541 0
M  V30 840 H 83.5326 -3.68994 -1.79643 0
M  V30 841 H 83.0636 -2.50938 -3.02975 0
M  V30 842 H 85.0786 -2.49015 -4.29192 0
M  V30 843 N 84.2517 0.741722 -1.39055 0
M  V30 844 C 85.4767 1.53607 -1.39354 0
M  V30 845 C 85.9017 1.88096 0.0116905 0
M  V30 846 O 85.2597 1.5143 0.996924 0
M  V30 847 C 85.3077 2.80441 -2.26682 0
M  V30 848 O 84.4117 3.76088 -1.69208 0
M  V30 849 H 83.7527 0.464142 -0.474835 0
M  V30 850 H 86.2827 0.915665 -1.82967 0
M  V30 851 H 86.2927 3.29246 -2.40959 0
M  V30 852 H 84.9677 2.5467 -3.2881 0
M  V30 853 H 83.5447 3.34833 -1.64138 0
M  V30 854 N 85.7298 1.2412 0.971189 0
M  V30 855 C 87.1408 1.07236 1.52831 0
M  V30 856 C 87.4918 -0.357352 1.92918 0
M  V30 857 O 86.6168 -1.24528 1.76979 0
M  V30 858 C 87.2118 1.94043 2.77728 0
M  V30 859 C 85.7708 1.81394 3.29808 0
M  V30 860 C 84.9178 1.89189 2.02738 0
M  V30 861 H 87.8688 1.37648 0.789864 0
M  V30 862 H 87.8898 1.47066 3.5093 0
M  V30 863 H 87.4018 2.98093 2.4852 0
M  V30 864 H 85.5028 0.801634 3.63874 0
M  V30 865 H 85.6158 2.65294 3.98944 0
M  V30 866 H 83.9798 1.32877 2.17292 0
M  V30 867 H 84.7628 2.94812 1.759 0
M  V30 868 N 87.2079 -1.17134 1.05439 0
M  V30 869 C 88.4559 -1.87085 0.764429 0
M  V30 870 C 88.7769 -1.81584 -0.710787 0
M  V30 871 O 88.0469 -1.24349 -1.51374 0
M  V30 872 H 86.6269 -0.692627 0.279779 0
M  V30 873 H 89.2889 -1.42087 1.33406 0
M  V30 874 H 88.3849 -2.92759 1.0816 0
M  V30 875 N 88.686 -0.835752 -1.33615 0
M  V30 876 C 89.618 -0.224151 -2.28101 0
M  V30 877 C 90.631 0.593331 -1.51603 0
M  V30 878 O 91.82 0.420911 -1.73466 0
M  V30 879 C 88.92 0.703309 -3.31522 0
M  V30 880 C 88.093 -0.0741528 -4.37337 0
M  V30 881 C 87.152 0.776176 -5.20444 0
M  V30 882 O 86.178 0.216506 -5.68788 0
M  V30 883 N 87.38 2.09401 -5.41416 0
M  V30 884 H 90.145 -1.03598 -2.81225 0
M  V30 885 H 87.706 -0.69392 -1.46275 0
M  V30 886 H 89.698 1.27707 -3.84022 0
M  V30 887 H 88.268 1.41585 -2.78698 0
M  V30 888 H 87.488 -0.82928 -3.85378 0
M  V30 889 H 88.776 -0.608863 -5.05144 0
M  V30 890 H 88.174 2.57229 -5.03835 0
M  V30 891 H 86.731 2.61633 -5.96985 0
M  V30 892 N 90.1641 1.46063 -0.591896 0
M  V30 893 C 91.1141 2.27458 0.157172 0
M  V30 894 C 92.0981 1.3641 0.853301 0
M  V30 895 O 93.2901 1.60517 0.74588 0
M  V30 896 C 90.4191 3.22956 1.16423 0
M  V30 897 C 89.5051 4.2149 0.469742 0
M  V30 898 N 89.8961 5.03519 -0.479839 0
M  V30 899 C 88.1941 4.40161 0.719319 0
M  V30 900 C 88.8951 5.74904 -0.886591 0
M  V30 901 N 87.8711 5.43097 -0.233731 0
M  V30 902 H 91.6731 2.88272 -0.572392 0
M  V30 903 H 89.1871 1.57024 -0.414375 0
M  V30 904 H 91.1841 3.79986 1.71513 0
M  V30 905 H 89.8441 2.63701 1.89451 0
M  V30 906 H 90.8551 5.1078 -0.855823 0
M  V30 907 H 87.5321 3.92046 1.43548 0
M  V30 908 H 88.9221 6.50844 -1.66888 0
M  V30 909 N 91.6422 0.330177 1.54103 0
M  V30 910 C 92.6052 -0.520144 2.2322 0
M  V30 911 C 93.6052 -1.03828 1.22786 0
M  V30 912 O 94.7952 -0.929652 1.4732 0
M  V30 913 C 91.9272 -1.72317 2.94142 0
M  V30 914 H 93.1202 0.0841605 2.99782 0
M  V30 915 H 90.6732 0.0813433 1.56088 0
M  V30 916 H 91.4082 -2.36653 2.21734 0
M  V30 917 H 91.1932 -1.35898 3.67796 0
M  V30 918 H 92.6832 -2.3266 3.46784 0
M  V30 919 N 93.1203 -1.57491 0.0584922 0
M  V30 920 C 94.0673 -2.11958 -0.913376 0
M  V30 921 C 95.0373 -1.02875 -1.30407 0
M  V30 922 O 96.2223 -1.30464 -1.39226 0
M  V30 923 C 93.3623 -2.67497 -2.18035 0
M  V30 924 C 92.4753 -3.90691 -1.84349 0
M  V30 925 C 91.6103 -4.3452 -3.05559 0
M  V30 926 C 90.6493 -5.50395 -2.67827 0
M  V30 927 N 89.7863 -5.89244 -3.81754 0
M  V30 928 H 94.6263 -2.94704 -0.442017 0
M  V30 929 H 92.1633 -1.45643 -0.206545 0
M  V30 930 H 94.1213 -2.978 -2.92183 0
M  V30 931 H 92.7513 -1.87537 -2.62735 0
M  V30 932 H 91.8033 -3.66934 -1.00319 0
M  V30 933 H 93.1153 -4.7489 -1.5258 0
M  V30 934 H 92.2693 -4.66414 -3.87998 0
M  V30 935 H 91.0083 -3.49147 -3.40511 0
M  V30 936 H 90.0133 -5.18165 -1.83806 0
M  V30 937 H 91.2383 -6.3749 -2.34059 0
M  V30 938 H 89.1843 -5.06823 -4.16493 0
M  V30 939 H 89.1013 -6.68151 -3.53708 0
M  V30 940 H 90.3693 -6.25756 -4.64811 0
M  V30 941 N 94.5984 0.214957 -1.56127 0
M  V30 942 C 95.8444 0.939762 -1.79712 0
M  V30 943 C 96.1774 1.83723 -0.629247 0
M  V30 944 O 95.4524 1.90925 0.371197 0
M  V30 945 C 95.7354 1.77306 -3.13424 0
M  V30 946 C 95.5884 0.90164 -4.40671 0
M  V30 947 C 96.9074 2.74956 -3.43638 0
M  V30 948 H 94.0264 0.340214 -0.653776 0
M  V30 949 H 96.6684 0.20824 -1.88855 0
M  V30 950 H 94.8184 2.39673 -3.0576 0
M  V30 951 H 96.4904 0.294206 -4.60361 0
M  V30 952 H 94.7334 0.207368 -4.33304 0
M  V30 953 H 95.4044 1.51923 -5.30682 0
M  V30 954 H 97.8804 2.22724 -3.51473 0
M  V30 955 H 96.7564 3.30358 -4.38355 0
M  V30 956 H 97.0174 3.53023 -2.66134 0
M  V30 957 N 96.0765 1.50051 0.48192 0
M  V30 958 C 97.3235 1.60498 1.23477 0
M  V30 959 C 97.6515 0.300331 1.92167 0
M  V30 960 O 96.9065 -0.713094 1.82246 0
M  V30 961 C 97.2055 2.72717 2.30998 0
M  V30 962 C 96.8715 4.13572 1.79636 0
M  V30 963 C 95.5335 4.519 1.65348 0
M  V30 964 C 97.8855 5.01649 1.41412 0
M  V30 965 C 95.2135 5.76057 1.11244 0
M  V30 966 C 97.5655 6.26343 0.887538 0
M  V30 967 C 96.2295 6.63483 0.731207 0
M  V30 968 H 95.4995 0.587303 0.451836 0
M  V30 969 H 98.1465 1.83948 0.532468 0
M  V30 970 H 96.4515 2.43312 3.07094 0
M  V30 971 H 98.1485 2.78006 2.88988 0
M  V30 972 H 94.7385 3.83329 1.91721 0
M  V30 973 H 98.9225 4.72679 1.51289 0
M  V30 974 H 94.1785 6.03516 0.978686 0
M  V30 975 H 98.3525 6.93958 0.582654 0
M  V30 976 H 95.9795 7.59568 0.309806 0
M  V30 977 N 97.5546 -0.734337 1.39446 0
M  V30 978 C 98.7946 -1.50655 1.38139 0
M  V30 979 C 99.1586 -1.91986 -0.0228701 0
M  V30 980 O 100.36 -2.68318 -0.160947 0
M  V30 981 C 98.6306 -2.71251 2.32718 0
M  V30 982 S 100.19 -3.60892 2.49605 0
M  V30 983 H 97.0076 -0.515315 0.489869 0
M  V30 984 H 99.6096 -0.860392 1.75549 0
M  V30 985 H 98.3136 -2.39027 3.33608 0
M  V30 986 H 97.8446 -3.40795 1.96526 0
M  V30 987 H 99.8596 -4.64899 1.73446 0
M  V30 988 N 99.0327 -1.24633 -0.964593 0
M  V30 989 C 100.261 -1.11501 -1.74285 0
M  V30 990 C 100.676 0.332165 -1.85855 0
M  V30 991 O 100.033 1.22903 -1.34911 0
M  V30 992 C 100.084 -1.75258 -3.16175 0
M  V30 993 O 99.8047 -3.14318 -3.05182 0
M  V30 994 C 101.306 -1.67776 -4.10324 0
M  V30 995 H 98.5257 -0.389407 -0.546446 0
M  V30 996 H 101.07 -1.64801 -1.21083 0
M  V30 997 H 99.2247 -1.25954 -3.66353 0
M  V30 998 H 99.6387 -3.4551 -3.94618 0
M  V30 999 H 101.113 -2.17064 -5.0753 0
M  V30 1000 H 101.59 -0.639584 -4.34518 0
M  V30 1001 H 102.196 -2.16522 -3.66058 0
M  V30 1002 N 100.511 1.16574 -1.06058 0
M  V30 1003 C 101.458 2.20883 -0.669263 0
M  V30 1004 C 102.428 1.62729 0.332918 0
M  V30 1005 O 103.613 1.895 0.222346 0
M  V30 1006 C 100.753 3.45049 -0.0593572 0
M  V30 1007 C 99.8658 4.17458 -1.11143 0
M  V30 1008 C 99.0008 5.29135 -0.467916 0
M  V30 1009 C 98.0398 5.93343 -1.50369 0
M  V30 1010 N 97.1768 6.96516 -0.883706 0
M  V30 1011 H 102.017 2.53709 -1.5632 0
M  V30 1012 H 99.5538 1.24616 -0.781625 0
M  V30 1013 H 101.512 4.16033 0.311771 0
M  V30 1014 H 100.142 3.12781 0.797992 0
M  V30 1015 H 99.1938 3.45101 -1.60029 0
M  V30 1016 H 100.506 4.61307 -1.89731 0
M  V30 1017 H 99.6598 6.06684 -0.0436871 0
M  V30 1018 H 98.3988 4.86443 0.349864 0
M  V30 1019 H 97.4038 5.14517 -1.93784 0
M  V30 1020 H 98.6288 6.38114 -2.32352 0
M  V30 1021 H 96.5748 6.55943 -0.086595 0
M  V30 1022 H 96.4918 7.38723 -1.607 0
M  V30 1023 H 97.7598 7.77993 -0.484543 0
M  V30 1024 N 101.989 0.842826 1.3317 0
M  V30 1025 C 103.217 0.454055 2.01856 0
M  V30 1026 C 103.632 -0.94587 1.63397 0
M  V30 1027 O 102.989 -1.61534 0.849302 0
M  V30 1028 C 103.04 0.569715 3.56982 0
M  V30 1029 O 102.761 1.91448 3.94055 0
M  V30 1030 C 104.262 0.178412 4.42941 0
M  V30 1031 H 101.482 0.17979 0.646465 0
M  V30 1032 H 104.026 1.1365 1.70012 0
M  V30 1033 H 102.181 -0.0648587 3.87346 0
M  V30 1034 H 102.595 1.90282 4.88767 0
M  V30 1035 H 104.069 0.310376 5.51127 0
M  V30 1036 H 104.546 -0.880056 4.30293 0
M  V30 1037 H 105.152 0.787579 4.17944 0
M  V30 1038 N 103.467 -1.45747 0.599634 0
M  V30 1039 C 104.692 -2.07178 0.0960198 0
M  V30 1040 C 105.117 -1.44268 -1.207 0
M  V30 1041 O 104.475 -0.532503 -1.73303 0
M  V30 1042 C 104.523 -3.60579 -0.0385348 0
M  V30 1043 O 103.627 -3.97713 -1.0908 0
M  V30 1044 H 102.968 -0.660251 0.0704593 0
M  V30 1045 H 105.498 -1.87124 0.827385 0
M  V30 1046 H 105.508 -4.07298 -0.239304 0
M  V30 1047 H 104.183 -4.05756 0.912947 0
M  V30 1048 H 102.76 -3.62678 -0.867135 0
M  V30 1049 N 104.945 -0.338344 -1.53925 0
M  V30 1050 C 106.222 0.314774 -1.93051 0
M  V30 1051 C 106.602 1.68669 -1.26941 0
M  V30 1052 O 105.95 2.24636 -0.418445 0
M  V30 1053 C 106.16 0.392249 -3.46789 0
M  V30 1054 C 107.508 0.645554 -4.19664 0
M  V30 1055 O 108.532 0.474575 -3.53024 0
M  V30 1056 O 107.391 0.976408 -5.37707 0
M  V30 1057 H 104.485 0.182598 -0.80659 0
M  V30 1058 H 107.031 -0.389141 -1.65178 0
M  V30 1059 H 105.803 -0.570702 -3.87116 0
M  V30 1060 H 105.426 1.14316 -3.80812 0
M  V30 1061 N 106.423 1.57458 -0.0668435 0
M  V30 1062 C 107.651 1.97624 0.612565 0
M  V30 1063 C 108.066 0.94502 1.63447 0
M  V30 1064 O 107.423 -0.0689276 1.8237 0
M  V30 1065 C 107.474 3.37869 1.28555 0
M  V30 1066 O 107.195 4.3704 0.304557 0
M  V30 1067 C 108.696 3.92882 2.05325 0
M  V30 1068 H 105.916 0.650045 0.166381 0
M  V30 1069 H 108.46 2.04035 -0.137782 0
M  V30 1070 H 106.615 3.3256 1.98702 0
M  V30 1071 H 107.029 5.18565 0.786779 0
M  V30 1072 H 108.503 4.93247 2.47812 0
M  V30 1073 H 108.98 3.29156 2.9078 0
M  V30 1074 H 109.586 4.01577 1.40056 0
M  V30 1075 N 107.901 -0.206675 1.56239 0
M  V30 1076 C 109.147 -0.930218 1.80208 0
M  V30 1077 C 109.48 -1.83387 0.638981 0
M  V30 1078 O 108.755 -1.91119 -0.361066 0
M  V30 1079 C 109.038 -1.75641 3.1436 0
M  V30 1080 C 108.891 -0.878257 4.41142 0
M  V30 1081 C 110.21 -2.73129 3.45092 0
M  V30 1082 H 107.329 -0.336742 0.655571 0
M  V30 1083 H 109.971 -0.198222 1.88963 0
M  V30 1084 H 108.121 -2.38048 3.07027 0
M  V30 1085 H 109.793 -0.269787 4.6051 0
M  V30 1086 H 108.036 -0.184385 4.33408 0
M  V30 1087 H 108.707 -1.49106 5.3148 0
M  V30 1088 H 111.183 -2.20856 3.52649 0
M  V30 1089 H 110.059 -3.28028 4.40101 0
M  V30 1090 H 110.32 -3.51606 2.68003 0
M  V30 1091 N 109.379 -1.50304 -0.473955 0
M  V30 1092 C 110.619 -1.62786 -1.23612 0
M  V30 1093 C 110.983 -0.319786 -1.89318 0
M  V30 1094 O 112.184 -0.320012 -2.66888 0
M  V30 1095 C 110.455 -2.77351 -2.25414 0
M  V30 1096 S 112.014 -3.09948 -3.10608 0
M  V30 1097 H 108.832 -0.573895 -0.419721 0
M  V30 1098 H 111.434 -1.88076 -0.533623 0
M  V30 1099 H 110.138 -3.70879 -1.75719 0
M  V30 1100 H 109.669 -2.54137 -3.00296 0
M  V30 1101 H 111.684 -2.53553 -4.26527 0
M  V30 1102 N 110.857 0.726932 -1.39834 0
M  V30 1103 C 112.134 1.47902 -1.28001 0
M  V30 1104 C 112.514 2.1083 0.106789 0
M  V30 1105 O 111.862 1.99242 1.11869 0
M  V30 1106 C 112.072 2.52392 -2.41038 0
M  V30 1107 C 113.42 3.18546 -2.80737 0
M  V30 1108 O 114.444 2.62708 -2.40547 0
M  V30 1109 O 113.303 4.19604 -3.50135 0
M  V30 1110 H 110.397 0.657163 -0.502062 0
M  V30 1111 H 112.943 0.760071 -1.51727 0
M  V30 1112 H 111.715 2.04329 -3.33715 0
M  V30 1113 H 111.338 3.31837 -2.19021 0
M  V30 1114 N 112.336 1.25143 0.95797 0
M  V30 1115 C 113.561 1.12521 1.74223 0
M  V30 1116 C 113.986 -0.317402 1.85403 0
M  V30 1117 O 113.344 -1.2299 1.33204 0
M  V30 1118 C 113.392 1.78062 3.1357 0
M  V30 1119 O 112.496 1.058 3.98598 0
M  V30 1120 H 111.837 0.39304 0.535178 0
M  V30 1121 H 114.367 1.65641 1.201 0
M  V30 1122 H 114.377 1.84213 3.64046 0
M  V30 1123 H 113.052 2.83021 3.04749 0
M  V30 1124 H 111.629 1.07506 3.57067 0
M  V30 1125 N 113.814 -1.1601 1.06675 0
M  V30 1126 C 115.054 -1.88304 0.795037 0
M  V30 1127 C 115.418 -1.80062 -0.666466 0
M  V30 1128 O 116.619 -2.47319 -1.05293 0
M  V30 1129 C 114.89 -3.33664 1.28076 0
M  V30 1130 S 116.449 -4.23768 1.13868 0
M  V30 1131 H 113.267 -0.649928 0.288296 0
M  V30 1132 H 115.869 -1.4001 1.36445 0
M  V30 1133 H 114.573 -3.37203 2.33927 0
M  V30 1134 H 114.104 -3.87009 0.706253 0
M  V30 1135 H 116.119 -4.96148 0.0719668 0
M  V30 1136 N 115.292 -0.849877 -1.32721 0
M  V30 1137 C 116.202 -0.293791 -2.32753 0
M  V30 1138 C 117.218 0.585906 -1.63839 0
M  V30 1139 O 118.394 0.487413 -1.95413 0
M  V30 1140 C 115.459 0.512752 -3.42887 0
M  V30 1141 C 114.52 -0.39252 -4.27502 0
M  V30 1142 C 113.753 0.375625 -5.32377 0
M  V30 1143 O 113.976 1.60613 -5.4732 0
M  V30 1144 O 112.91 -0.256094 -6.01355 0
M  V30 1145 H 116.736 -1.12242 -2.82197 0
M  V30 1146 H 114.321 -0.612685 -1.36259 0
M  V30 1147 H 116.203 0.970704 -4.10067 0
M  V30 1148 H 114.878 1.31826 -2.95641 0
M  V30 1149 H 113.785 -0.898547 -3.63149 0
M  V30 1150 H 115.118 -1.16309 -4.7826 0
M  V30 1151 N 116.77 1.45427 -0.607355 0
M  V30 1152 C 118.047 1.9557 -0.0344566 0
M  V30 1153 C 118.427 1.54979 1.43334 0
M  V30 1154 O 117.775 0.812241 2.13576 0
M  V30 1155 C 117.985 3.48226 -0.232321 0
M  V30 1156 C 119.333 4.2445 -0.113001 0
M  V30 1157 O 120.357 3.55829 -0.162431 0
M  V30 1158 O 119.216 5.465 0.00209442 0
M  V30 1159 H 116.31 0.826222 0.0358667 0
M  V30 1160 H 118.856 1.55594 -0.6774 0
M  V30 1161 H 117.628 3.70739 -1.25174 0
M  V30 1162 H 117.251 3.95092 0.445896 0
M  V30 1163 N 118.248 0.346503 1.53744 0
M  V30 1164 C 119.473 -0.253074 2.0585 0
M  V30 1165 C 119.898 -1.43202 1.21962 0
M  V30 1166 O 119.256 -1.79783 0.234073 0
M  V30 1167 C 119.304 -0.643193 3.54817 0
M  V30 1168 O 118.408 -1.74286 3.73762 0
M  V30 1169 H 117.749 -0.0413583 0.662711 0
M  V30 1170 H 120.279 0.501574 1.98357 0
M  V30 1171 H 120.289 -0.919526 3.97503 0
M  V30 1172 H 118.964 0.218966 4.15323 0
M  V30 1173 H 117.541 -1.46356 3.42979 0
M  V30 1174 N 119.726 -1.57421 0.075193 0
M  V30 1175 C 120.954 -1.97946 -0.602076 0
M  V30 1176 C 121.369 -0.953674 -1.62943 0
M  V30 1177 O 120.726 0.0592551 -1.82404 0
M  V30 1178 C 120.777 -3.38546 -1.26762 0
M  V30 1179 O 120.498 -4.37195 -0.281376 0
M  V30 1180 C 121.999 -3.93966 -2.03239 0
M  V30 1181 H 119.219 -0.650918 -0.162931 0
M  V30 1182 H 121.763 -2.03959 0.148601 0
M  V30 1183 H 119.918 -3.33609 -1.96936 0
M  V30 1184 H 120.332 -5.18975 -0.759267 0
M  V30 1185 H 121.806 -4.94555 -2.45193 0
M  V30 1186 H 122.283 -3.30693 -2.8903 0
M  V30 1187 H 122.889 -4.02315 -1.37924 0
M  V30 1188 N 121.204 0.198386 -1.56346 0
M  V30 1189 C 122.434 0.934215 -1.84271 0
M  V30 1190 C 122.842 1.77496 -0.655125 0
M  V30 1191 O 122.185 1.7961 0.385488 0
M  V30 1192 C 122.247 1.88278 -3.06254 0
M  V30 1193 C 121.911 1.22431 -4.40295 0
M  V30 1194 C 122.908 0.602839 -5.16393 0
M  V30 1195 C 120.593 1.22915 -4.87029 0
M  V30 1196 C 122.587 -0.0050083 -6.374 0
M  V30 1197 C 120.274 0.617465 -6.07973 0
M  V30 1198 C 121.272 0.00146341 -6.83 0
M  V30 1199 O 120.96 -0.600642 -8.01653 0
M  V30 1200 H 120.692 0.278245 -0.616081 0
M  V30 1201 H 123.246 0.211626 -2.04307 0
M  V30 1202 H 121.476 2.64498 -2.82095 0
M  V30 1203 H 123.165 2.48612 -3.20853 0
M  V30 1204 H 123.931 0.591265 -4.81382 0
M  V30 1205 H 119.81 1.69801 -4.28589 0
M  V30 1206 H 123.354 -0.48643 -6.95902 0
M  V30 1207 H 119.251 0.62653 -6.42452 0
M  V30 1208 H 120.019 -0.497225 -8.16988 0
M  V30 1209 N 122.682 1.50554 0.465978 0
M  V30 1210 C 123.91 1.65563 1.24083 0
M  V30 1211 C 124.325 0.341051 1.85694 0
M  V30 1212 O 123.682 -0.677543 1.69457 0
M  V30 1213 C 123.733 2.75051 2.34583 0
M  V30 1214 O 123.454 4.01413 1.75497 0
M  V30 1215 C 124.955 3.01078 3.25372 0
M  V30 1216 H 122.175 0.55638 0.375077 0
M  V30 1217 H 124.719 1.96807 0.555624 0
M  V30 1218 H 122.874 2.46486 2.9887 0
M  V30 1219 H 123.288 4.62002 2.48303 0
M  V30 1220 H 124.762 3.81339 3.99105 0
M  V30 1221 H 125.239 2.12349 3.84453 0
M  V30 1222 H 125.845 3.31194 2.66816 0
M  V30 1223 N 124.16 -0.719506 1.40217 0
M  V30 1224 C 125.092 -1.84428 1.36084 0
M  V30 1225 C 126.105 -1.60597 0.266913 0
M  V30 1226 O 127.294 -1.70544 0.526983 0
M  V30 1227 C 124.394 -3.20757 1.094 0
M  V30 1228 C 123.567 -3.71817 2.30372 0
M  V30 1229 C 122.626 -4.86748 1.99907 0
M  V30 1230 O 121.652 -4.99603 2.72737 0
M  V30 1231 N 122.854 -5.7226 0.974635 0
M  V30 1232 H 125.619 -1.88473 2.33019 0
M  V30 1233 H 123.18 -0.900885 1.3452 0
M  V30 1234 H 125.172 -3.95235 0.870116 0
M  V30 1235 H 123.742 -3.11884 0.211452 0
M  V30 1236 H 122.962 -2.88514 2.68614 0
M  V30 1237 H 124.25 -4.02666 3.11026 0
M  V30 1238 H 123.648 -5.6448 0.371368 0
M  V30 1239 H 122.205 -6.46739 0.810656 0
M  V30 1240 N 125.638 -1.25649 -0.95132 0
M  V30 1241 C 126.568 -1.08808 -2.06599 0
M  V30 1242 C 127.549 0.00382547 -1.701 0
M  V30 1243 O 128.734 -0.166325 -1.93486 0
M  V30 1244 C 125.864 -0.709542 -3.39975 0
M  V30 1245 C 124.818 -1.75206 -3.90496 0
M  V30 1246 C 124.144 -1.22811 -5.20405 0
M  V30 1247 C 125.444 -3.15153 -4.16504 0
M  V30 1248 H 127.138 -2.02048 -2.20946 0
M  V30 1249 H 124.684 -0.972835 -1.06169 0
M  V30 1250 H 126.637 -0.578649 -4.17408 0
M  V30 1251 H 125.361 0.258556 -3.25575 0
M  V30 1252 H 124.02 -1.87145 -3.15234 0
M  V30 1253 H 123.668 -0.250145 -5.02378 0
M  V30 1254 H 123.368 -1.92492 -5.55176 0
M  V30 1255 H 124.892 -1.10968 -6.00432 0
M  V30 1256 H 126.306 -3.06349 -4.84586 0
M  V30 1257 H 124.703 -3.82333 -4.62538 0
M  V30 1258 H 125.773 -3.61966 -3.22658 0
M  V30 1259 N 127.117 1.15442 -1.07289 0
M  V30 1260 C 128.363 1.8672 -0.806679 0
M  V30 1261 C 128.718 1.80723 0.660084 0
M  V30 1262 O 128.011 1.21902 1.47819 0
M  V30 1263 C 128.205 3.3489 -1.24834 0
M  V30 1264 C 128.034 3.55313 -2.7565 0
M  V30 1265 C 126.804 3.7082 -3.4325 0
M  V30 1266 C 129.002 3.53188 -3.73848 0
M  V30 1267 N 126.984 3.7929 -4.82713 0
M  V30 1268 C 128.355 3.67765 -4.99149 0
M  V30 1269 C 130.41 3.36459 -3.67015 0
M  V30 1270 C 129.113 3.6734 -6.18428 0
M  V30 1271 C 131.139 3.37333 -4.85758 0
M  V30 1272 C 130.501 3.52438 -6.09891 0
M  V30 1273 H 126.6 0.700433 -0.347733 0
M  V30 1274 H 129.184 1.38441 -1.36902 0
M  V30 1275 H 127.355 3.81786 -0.713713 0
M  V30 1276 H 129.087 3.93875 -0.929745 0
M  V30 1277 H 125.842 3.71568 -2.93656 0
M  V30 1278 H 126.266 3.8727 -5.55294 0
M  V30 1279 H 130.908 3.237 -2.71989 0
M  V30 1280 H 128.626 3.78878 -7.13777 0
M  V30 1281 H 132.212 3.25617 -4.82146 0
M  V30 1282 H 131.092 3.53047 -7.00234 0
M  V30 1283 N 128.595 0.856903 1.32268 0
M  V30 1284 C 129.543 0.291987 2.3076 0
M  V30 1285 C 130.537 -0.585857 1.58947 0
M  V30 1286 O 131.743 -0.47341 1.73663 0
M  V30 1287 H 128.118 0.075721 0.748178 0
M  V30 1288 H 130.089 1.13687 2.75895 0
M  V30 1289 C 128.838 -0.502869 3.44044 0
M  V30 1290 H 128.161 0.163328 3.99466 0
M  V30 1291 H 129.601 -0.863691 4.1511 0
M  V30 1292 C 128.06 -1.68898 2.91505 0
M  V30 1293 O 128.59 -2.78811 2.89184 0
M  V30 1294 N 126.796 -1.51679 2.47875 0
M  V30 1295 H 126.343 -0.622666 2.49961 0
M  V30 1296 H 126.301 -2.31184 2.13076 0
M  V30 1297 N 130.073 -1.45103 0.615059 0
M  V30 1298 C 131.319 -2.03035 0.121804 0
M  V30 1299 C 131.674 -1.47393 -1.23665 0
M  V30 1300 O 130.967 -0.642061 -1.80522 0
M  V30 1301 C 131.161 -3.57386 0.0318797 0
M  V30 1302 C 130.99 -4.28 1.38007 0
M  V30 1303 C 129.76 -4.65624 1.9627 0
M  V30 1304 C 131.958 -4.5948 2.31047 0
M  V30 1305 N 129.94 -5.21132 3.24492 0
M  V30 1306 C 131.311 -5.159 3.43872 0
M  V30 1307 C 133.366 -4.41423 2.30326 0
M  V30 1308 C 132.069 -5.56165 4.5615 0
M  V30 1309 C 134.095 -4.82726 3.41658 0
M  V30 1310 C 133.457 -5.39245 4.53205 0
M  V30 1311 H 129.556 -0.77702 0.0881159 0
M  V30 1312 H 132.14 -1.76819 0.815044 0
M  V30 1313 H 130.311 -3.83247 -0.630599 0
M  V30 1314 H 132.043 -4.01976 -0.468721 0
M  V30 1315 H 128.798 -4.49421 1.49392 0
M  V30 1316 H 129.222 -5.53377 3.90004 0
M  V30 1317 H 133.864 -3.97033 1.45343 0
M  V30 1318 H 131.582 -5.99517 5.41854 0
M  V30 1319 H 135.168 -4.7048 3.42257 0
M  V30 1320 H 134.048 -5.70616 5.37929 0
M  V30 1321 N 131.551 -0.354651 -1.53558 0
M  V30 1322 C 132.797 0.238797 -2.01389 0
M  V30 1323 C 133.13 1.49309 -1.2418 0
M  V30 1324 O 132.405 1.91638 -0.332457 0
M  V30 1325 C 132.688 0.541771 -3.56001 0
M  V30 1326 C 132.541 -0.725388 -4.43912 0
M  V30 1327 C 133.86 1.34685 -4.18984 0
M  V30 1328 H 130.979 0.0853177 -0.732045 0
M  V30 1329 H 133.621 -0.477384 -1.83905 0
M  V30 1330 H 131.771 1.15189 -3.71031 0
M  V30 1331 H 133.443 -1.36313 -4.407 0
M  V30 1332 H 131.686 -1.34801 -4.12324 0
M  V30 1333 H 132.357 -0.468505 -5.50008 0
M  V30 1334 H 134.833 0.830837 -4.07721 0
M  V30 1335 H 133.709 1.52759 -5.27215 0
M  V30 1336 H 133.97 2.35221 -3.74331 0
M  V30 1337 N 133.029 1.57378 -0.0835403 0
M  V30 1338 C 134.44 1.81261 0.447358 0
M  V30 1339 C 134.791 0.998331 1.68902 0
M  V30 1340 O 133.916 0.224282 2.15235 0
M  V30 1341 C 134.511 3.28767 0.818386 0
M  V30 1342 C 133.07 3.53455 1.29409 0
M  V30 1343 C 132.217 2.75831 0.285024 0
M  V30 1344 H 135.168 1.5566 -0.309115 0
M  V30 1345 H 135.189 3.41459 1.67887 0
M  V30 1346 H 134.701 3.88006 -0.0855019 0
M  V30 1347 H 132.802 2.99534 2.21608 0
M  V30 1348 H 132.915 4.62128 1.2639 0
M  V30 1349 H 131.279 2.42947 0.764767 0
M  V30 1350 H 132.062 3.37813 -0.611341 0
M  V30 1351 N 134.507 -0.190092 1.56449 0
M  V30 1352 C 135.417 -1.25591 1.98152 0
M  V30 1353 C 136.433 -1.49519 0.889944 0
M  V30 1354 O 137.609 -1.62036 1.19609 0
M  V30 1355 C 134.674 -2.57916 2.3169 0
M  V30 1356 C 133.735 -2.42015 3.5458 0
M  V30 1357 C 132.968 -3.6803 3.8651 0
M  V30 1358 O 133.191 -4.72413 3.1966 0
M  V30 1359 O 132.125 -3.6326 4.79923 0
M  V30 1360 H 135.951 -0.931988 2.89046 0
M  V30 1361 H 133.536 -0.395488 1.4407 0
M  V30 1362 H 135.418 -3.36008 2.54316 0
M  V30 1363 H 134.093 -2.89925 1.43963 0
M  V30 1364 H 133 -1.62017 3.37196 0
M  V30 1365 H 134.333 -2.14937 4.4279 0
M  V30 1366 N 135.985 -1.50799 -0.457987 0
M  V30 1367 C 137.225 -1.64088 -1.21879 0
M  V30 1368 C 137.589 -0.339848 -1.88968 0
M  V30 1369 O 138.79 -0.348301 -2.66534 0
M  V30 1370 C 137.061 -2.79726 -2.2246 0
M  V30 1371 S 138.62 -3.13225 -3.07303 0
M  V30 1372 H 135.438 -0.578314 -0.41361 0
M  V30 1373 H 138.04 -1.88632 -0.513645 0
M  V30 1374 H 136.744 -3.72722 -1.71775 0
M  V30 1375 H 136.275 -2.57308 -2.97584 0
M  V30 1376 H 138.29 -2.58062 -4.23814 0
M  V30 1377 N 137.463 0.71206 -1.40597 0
M  V30 1378 C 138.393 1.83889 -1.43899 0
M  V30 1379 C 139.374 1.67442 -0.299504 0
M  V30 1380 O 140.559 1.87421 -0.508624 0
M  V30 1381 C 137.689 3.21877 -1.30431 0
M  V30 1382 C 136.643 3.53002 -2.42019 0
M  V30 1383 C 135.969 4.90172 -2.13626 0
M  V30 1384 C 137.269 3.53643 -3.84362 0
M  V30 1385 H 138.963 1.81383 -2.38203 0
M  V30 1386 H 136.509 0.871237 -1.14654 0
M  V30 1387 H 138.462 4.00404 -1.31357 0
M  V30 1388 H 137.186 3.24968 -0.326049 0
M  V30 1389 H 135.845 2.76818 -2.40349 0
M  V30 1390 H 135.493 4.89869 -1.14182 0
M  V30 1391 H 135.193 5.11962 -2.88389 0
M  V30 1392 H 136.717 5.71028 -2.1624 0
M  V30 1393 H 138.131 4.22203 -3.87837 0
M  V30 1394 H 136.528 3.86961 -4.58673 0
M  V30 1395 H 137.598 2.52954 -4.13693 0
M  V30 1396 N 138.941 1.26152 0.944643 0
M  V30 1397 C 140.166 1.14363 1.7302 0
M  V30 1398 C 140.591 -0.29772 1.85729 0
M  V30 1399 O 139.949 -1.2157 1.34501 0
M  V30 1400 C 139.997 1.81378 3.11664 0
M  V30 1401 O 139.101 1.10022 3.97453 0
M  V30 1402 H 138.442 0.398694 0.53098 0
M  V30 1403 H 140.972 1.66906 1.18337 0
M  V30 1404 H 140.982 1.88064 3.62072 0
M  V30 1405 H 139.657 2.86237 3.0173 0
M  V30 1406 H 138.234 1.11287 3.55907 0
M  V30 1407 N 140.419 -1.14872 1.07899 0
M  V30 1408 C 141.659 -1.8745 0.814965 0
M  V30 1409 C 142.023 -1.80758 -0.64733 0
M  V30 1410 O 143.224 -2.48422 -1.02664 0
M  V30 1411 C 141.495 -3.32286 1.31607 0
M  V30 1412 S 143.054 -4.22537 1.18357 0
M  V30 1413 H 139.872 -0.646833 0.295174 0
M  V30 1414 H 142.474 -1.38555 1.37923 0
M  V30 1415 H 141.178 -3.34703 2.37491 0
M  V30 1416 H 140.709 -3.86238 0.747261 0
M  V30 1417 H 142.724 -4.96044 0.124586 0
M  V30 1418 N 141.898 -0.863906 -1.31812 0
M  V30 1419 C 143.146 -0.470904 -1.96537 0
M  V30 1420 C 143.467 0.978771 -1.68657 0
M  V30 1421 O 142.737 1.6853 -0.998717 0
M  V30 1422 H 141.317 -0.171148 -0.72713 0
M  V30 1423 H 143.979 -1.10236 -1.60729 0
M  V30 1424 H 143.075 -0.623616 -3.05806 0
M  V30 1425 N 143.376 1.44774 -0.622745 0
M  V30 1426 C 144.601 2.06999 -0.128968 0
M  V30 1427 C 145.026 1.4617 1.1839 0
M  V30 1428 O 144.384 0.560007 1.72434 0
M  V30 1429 C 144.432 3.60595 -0.0188351 0
M  V30 1430 O 143.536 3.99398 1.02739 0
M  V30 1431 H 142.877 0.659047 -0.0809544 0
M  V30 1432 H 145.407 1.85784 -0.85705 0
M  V30 1433 H 145.417 4.07627 0.174476 0
M  V30 1434 H 144.092 4.04252 -0.977384 0
M  V30 1435 H 142.669 3.64011 0.809326 0
M  V30 1436 N 144.854 0.36279 1.53368 0
M  V30 1437 C 146.27 0.0116182 1.59596 0
M  V30 1438 C 146.47 -1.47012 1.37803 0
M  V30 1439 O 145.526 -2.23136 1.18181 0
M  V30 1440 C 146.839 0.465052 2.97082 0
M  V30 1441 C 148.387 0.419033 3.10182 0
M  V30 1442 C 148.862 0.848235 4.50077 0
M  V30 1443 N 150.353 0.803183 4.56183 0
M  V30 1444 C 151.088 1.107 5.62613 0
M  V30 1445 N 150.584 1.47996 6.76808 0
M  V30 1446 N 152.377 1.02998 5.52583 0
M  V30 1447 H 144.528 1.32775 1.65785 0
M  V30 1448 H 146.791 0.542518 0.777417 0
M  V30 1449 H 146.497 1.49892 3.18159 0
M  V30 1450 H 146.371 -0.149786 3.76902 0
M  V30 1451 H 148.758 -0.605696 2.88817 0
M  V30 1452 H 148.839 1.06933 2.32377 0
M  V30 1453 H 148.483 1.87107 4.7218 0
M  V30 1454 H 148.413 0.175218 5.26308 0
M  V30 1455 H 150.904 0.52838 3.74188 0
M  V30 1456 H 151.217 1.69613 7.53957 0
M  V30 1457 H 149.562 1.51859 6.78206 0
M  V30 1458 H 152.753 0.737817 4.62249 0
M  V30 1459 H 152.926 1.2701 6.35431 0
M  V30 1460 N 146.332 -1.57332 0.0918853 0
M  V30 1461 C 147.572 -1.96117 -0.575988 0
M  V30 1462 C 147.936 -0.972499 -1.65549 0
M  V30 1463 O 149.137 -1.24872 -2.38034 0
M  V30 1464 C 147.408 -3.39407 -1.11973 0
M  V30 1465 S 148.967 -4.00185 -1.79992 0
M  V30 1466 H 145.785 -0.685682 -0.188045 0
M  V30 1467 H 148.387 -1.94755 0.170525 0
M  V30 1468 H 147.091 -4.09131 -0.322504 0
M  V30 1469 H 146.622 -3.44358 -1.90214 0
M  V30 1470 H 148.637 -3.88728 -3.08391 0
M  V30 1471 N 147.81 0.181792 -1.56548 0
M  V30 1472 C 149.035 0.920019 -1.85877 0
M  V30 1473 C 149.46 1.75494 -0.677021 0
M  V30 1474 O 148.818 1.77399 0.374056 0
M  V30 1475 C 148.866 1.78112 -3.13542 0
M  V30 1476 O 147.97 2.88152 -2.95029 0
M  V30 1477 H 147.311 0.258334 -0.611686 0
M  V30 1478 H 149.841 0.183092 -2.03779 0
M  V30 1479 H 149.851 2.18314 -3.44678 0
M  V30 1480 H 148.526 1.16777 -3.99169 0
M  V30 1481 H 147.103 2.51609 -2.75222 0
M  V30 1482 N 149.288 1.51039 0.449983 0
M  V30 1483 C 150.513 1.6715 1.22783 0
M  V30 1484 C 150.938 0.363081 1.84563 0
M  V30 1485 O 150.296 -0.675433 1.68249 0
M  V30 1486 C 150.344 2.77985 2.29689 0
M  V30 1487 O 149.448 2.40707 3.34864 0
M  V30 1488 H 148.789 0.557746 0.360299 0
M  V30 1489 H 151.319 1.97535 0.533005 0
M  V30 1490 H 151.329 3.01693 2.74673 0
M  V30 1491 H 150.004 3.72935 1.84098 0
M  V30 1492 H 148.581 2.27523 2.95445 0
M  V30 1493 N 150.766 -0.704594 1.40972 0
M  V30 1494 C 152.043 -1.45847 1.30338 0
M  V30 1495 C 152.423 -2.10973 -0.0732344 0
M  V30 1496 O 151.771 -2.00997 -1.08685 0
M  V30 1497 C 151.981 -2.48525 2.45023 0
M  V30 1498 C 153.329 -3.1404 2.8577 0
M  V30 1499 O 154.353 -2.58848 2.44696 0
M  V30 1500 O 153.212 -4.13981 3.56766 0
M  V30 1501 H 150.306 -0.649092 0.512454 0
M  V30 1502 H 152.852 -0.735836 1.52917 0
M  V30 1503 H 151.624 -1.98994 3.36923 0
M  V30 1504 H 151.247 -3.2831 2.24272 0
M  V30 1505 N 152.244 -1.26651 -0.937939 0
M  V30 1506 C 153.176 -1.04283 -2.04102 0
M  V30 1507 C 154.189 -0.00221014 -1.628 0
M  V30 1508 O 155.378 -0.242645 -1.76843 0
M  V30 1509 C 152.478 -0.557846 -3.34277 0
M  V30 1510 C 151.651 -1.66843 -4.04329 0
M  V30 1511 C 150.71 -1.18095 -5.12777 0
M  V30 1512 O 149.736 -1.87865 -5.37304 0
M  V30 1513 N 150.938 -0.0311006 -5.80492 0
M  V30 1514 H 153.703 -1.9927 -2.23856 0
M  V30 1515 H 151.264 -1.1808 -1.10764 0
M  V30 1516 H 153.256 -0.215836 -4.04124 0
M  V30 1517 H 151.826 0.298523 -3.11171 0
M  V30 1518 H 151.046 -2.18123 -3.28353 0
M  V30 1519 H 152.334 -2.41408 -4.47883 0
M  V30 1520 H 151.732 0.551486 -5.63005 0
M  V30 1521 H 150.289 0.251809 -6.51313 0
M  V30 1522 N 153.722 1.14298 -1.08507 0
M  V30 1523 C 154.968 1.85633 -0.816581 0
M  V30 1524 C 155.301 1.82784 0.656021 0
M  V30 1525 O 154.576 1.25926 1.48233 0
M  V30 1526 C 154.859 3.34223 -1.34041 0
M  V30 1527 C 154.712 3.45639 -2.87843 0
M  V30 1528 C 156.031 4.29356 -0.9665 0
M  V30 1529 H 153.15 0.67402 -0.298104 0
M  V30 1530 H 155.792 1.34214 -1.34487 0
M  V30 1531 H 153.942 3.78144 -0.89104 0
M  V30 1532 H 155.614 3.10498 -3.41158 0
M  V30 1533 H 153.857 2.86817 -3.25451 0
M  V30 1534 H 154.528 4.50089 -3.19569 0
M  V30 1535 H 157.004 3.93457 -1.35391 0
M  V30 1536 H 155.88 5.3178 -1.3602 0
M  V30 1537 H 156.141 4.41919 0.126362 0
M  V30 1538 N 155.201 0.870884 1.31352 0
M  V30 1539 C 156.111 0.330783 2.32256 0
M  V30 1540 C 157.127 -0.559767 1.6475 0
M  V30 1541 O 158.303 -0.456263 1.96164 0
M  V30 1542 C 155.368 -0.458137 3.4366 0
M  V30 1543 C 154.429 0.460482 4.26823 0
M  V30 1544 C 153.662 -0.290881 5.32907 0
M  V30 1545 O 153.885 -1.51885 5.49806 0
M  V30 1546 O 152.819 0.351732 6.00871 0
M  V30 1547 H 156.645 1.16718 2.80376 0
M  V30 1548 H 154.23 0.634285 1.35267 0
M  V30 1549 H 156.112 -0.905343 4.1156 0
M  V30 1550 H 154.787 -1.27106 2.97701 0
M  V30 1551 H 153.694 0.956207 3.61673 0
M  V30 1552 H 155.027 1.23903 4.7635 0
M  V30 1553 N 156.679 -1.44442 0.630414 0
M  V30 1554 C 157.907 -2.06414 0.141671 0
M  V30 1555 C 158.322 -1.47105 -1.18345 0
M  V30 1556 O 157.679 -0.593662 -1.72574 0
M  V30 1557 C 157.73 -3.61494 0.0199784 0
M  V30 1558 O 157.451 -4.18594 1.29269 0
M  V30 1559 C 158.952 -4.40499 -0.497544 0
M  V30 1560 H 156.172 -0.666292 0.0793452 0
M  V30 1561 H 158.716 -1.85323 0.864614 0
M  V30 1562 H 156.871 -3.8185 -0.653402 0
M  V30 1563 H 157.285 -5.12026 1.13707 0
M  V30 1564 H 158.759 -5.49433 -0.531708 0
M  V30 1565 H 159.236 -4.11895 -1.52445 0
M  V30 1566 H 159.842 -4.25061 0.142562 0
M  V30 1567 N 158.157 -0.370918 -1.53173 0
M  V30 1568 C 159.089 0.507823 -2.23503 0
M  V30 1569 C 160.102 1.04182 -1.251 0
M  V30 1570 O 161.291 0.947286 -1.5129 0
M  V30 1571 C 158.391 1.71447 -2.92334 0
M  V30 1572 C 157.564 1.31105 -4.17289 0
M  V30 1573 C 156.623 2.38035 -4.69282 0
M  V30 1574 O 155.649 2.00204 -5.32829 0
M  V30 1575 N 156.851 3.69697 -4.47554 0
M  V30 1576 H 159.616 -0.0946382 -2.99551 0
M  V30 1577 H 157.177 -0.196358 -1.60705 0
M  V30 1578 H 159.169 2.42469 -3.24023 0
M  V30 1579 H 157.739 2.22368 -2.19707 0
M  V30 1580 H 156.959 0.430462 -3.91843 0
M  V30 1581 H 158.247 1.0179 -4.98514 0
M  V30 1582 H 157.645 4.03205 -3.9679 0
M  V30 1583 H 156.202 4.36807 -4.8378 0
M  V30 1584 N 159.635 1.57281 -0.100228 0
M  V30 1585 C 160.598 2.13158 0.842398 0
M  V30 1586 C 161.598 1.06202 1.20738 0
M  V30 1587 O 162.788 1.32066 1.13597 0
M  V30 1588 C 159.92 2.65639 2.13655 0
M  V30 1589 H 161.113 2.97766 0.357114 0
M  V30 1590 H 158.666 1.5559 0.148823 0
M  V30 1591 H 159.401 1.84566 2.66657 0
M  V30 1592 H 159.186 3.43844 1.88451 0
M  V30 1593 H 160.676 3.08846 2.81077 0
M  V30 1594 N 161.113 -0.173488 1.56642 0
M  V30 1595 C 162.353 -0.896984 1.83667 0
M  V30 1596 C 162.717 -1.79523 0.680842 0
M  V30 1597 O 163.918 -2.55616 0.831488 0
M  V30 1598 C 162.189 -1.67351 3.15798 0
M  V30 1599 S 163.748 -2.44607 3.64298 0
M  V30 1600 H 160.566 -0.300464 0.644393 0
M  V30 1601 H 163.168 -0.158775 1.94854 0
M  V30 1602 H 161.872 -1.00462 3.97914 0
M  V30 1603 H 161.403 -2.45313 3.07546 0
M  V30 1604 H 163.418 -3.69261 3.31452 0
M  V30 1605 N 162.591 -1.51276 -0.441967 0
M  V30 1606 C 163.819 -1.67516 -1.21434 0
M  V30 1607 C 164.234 -0.37055 -1.85128 0
M  V30 1608 O 163.591 0.650498 -1.70513 0
M  V30 1609 C 163.642 -2.78748 -2.30177 0
M  V30 1610 O 163.363 -4.04154 -1.69089 0
M  V30 1611 C 164.864 -3.06217 -3.20541 0
M  V30 1612 H 162.084 -0.562276 -0.366178 0
M  V30 1613 H 164.628 -1.97666 -0.524244 0
M  V30 1614 H 162.783 -2.5121 -2.94911 0
M  V30 1615 H 163.197 -4.65894 -2.40922 0
M  V30 1616 H 164.671 -3.8764 -3.92987 0
M  V30 1617 H 165.148 -2.18439 -3.81026 0
M  V30 1618 H 165.754 -3.35397 -2.61513 0
M  V30 1619 N 164.069 0.697108 -1.41344 0
M  V30 1620 C 165.485 1.00751 -1.2378 0
M  V30 1621 C 165.685 2.01105 -0.126066 0
M  V30 1622 O 164.741 2.47295 0.51004 0
M  V30 1623 C 166.054 1.53359 -2.58653 0
M  V30 1624 C 167.602 1.6525 -2.65822 0
M  V30 1625 C 168.077 2.2126 -4.01009 0
M  V30 1626 N 169.568 2.28622 -4.02847 0
M  V30 1627 C 170.303 2.72984 -5.04249 0
M  V30 1628 N 169.799 3.16962 -6.16041 0
M  V30 1629 N 171.592 2.72534 -4.91611 0
M  V30 1630 H 163.743 0.0322662 -2.12375 0
M  V30 1631 H 166.006 0.0768853 -0.944877 0
M  V30 1632 H 165.712 0.870773 -3.4075 0
M  V30 1633 H 165.586 2.51597 -2.81032 0
M  V30 1634 H 167.973 2.30644 -1.84086 0
M  V30 1635 H 168.054 0.655614 -2.47256 0
M  V30 1636 H 167.698 1.56482 -4.83193 0
M  V30 1637 H 167.628 3.21698 -4.16915 0
M  V30 1638 H 170.119 1.97585 -3.22131 0
M  V30 1639 H 170.432 3.49434 -6.89287 0
M  V30 1640 H 168.777 3.14875 -6.1958 0
M  V30 1641 H 171.968 2.37525 -4.0336 0
M  V30 1642 H 172.141 3.06789 -5.70775 0
M  V30 1643 N 165.547 1.27147 0.931209 0
M  V30 1644 C 166.457 1.11372 2.06478 0
M  V30 1645 C 167.473 0.044645 1.73943 0
M  V30 1646 O 168.649 0.250417 1.99837 0
M  V30 1647 C 165.714 0.758838 3.38294 0
M  V30 1648 C 164.775 1.90841 3.84549 0
M  V30 1649 C 164.008 1.57036 5.10074 0
M  V30 1650 O 164.231 0.476645 5.68405 0
M  V30 1651 O 163.165 2.40839 5.51616 0
M  V30 1652 H 166.991 2.06493 2.22698 0
M  V30 1653 H 164.576 1.06301 1.04978 0
M  V30 1654 H 166.458 0.574098 4.17471 0
M  V30 1655 H 165.133 -0.162879 3.2329 0
M  V30 1656 H 164.04 2.14819 3.06274 0
M  V30 1657 H 165.373 2.81021 4.04089 0
M  V30 1658 N 167.025 -1.13721 1.09112 0
M  V30 1659 C 167.957 -2.1871 0.685467 0
M  V30 1660 C 168.97 -1.60527 -0.271068 0
M  V30 1661 O 170.159 -1.78407 -0.0576148 0
M  V30 1662 C 167.259 -3.38898 -0.0111255 0
M  V30 1663 C 166.432 -4.26597 0.966131 0
M  V30 1664 C 165.491 -5.25324 0.303539 0
M  V30 1665 O 164.517 -5.61213 0.950177 0
M  V30 1666 N 165.719 -5.72779 -0.943651 0
M  V30 1667 H 168.484 -2.54126 1.58871 0
M  V30 1668 H 166.045 -1.29012 0.978143 0
M  V30 1669 H 168.037 -4.02014 -0.465517 0
M  V30 1670 H 166.607 -3.01747 -0.816565 0
M  V30 1671 H 165.827 -3.60306 1.59917 0
M  V30 1672 H 167.115 -4.82048 1.6281 0
M  V30 1673 H 166.513 -5.45762 -1.48862 0
M  V30 1674 H 165.07 -6.37847 -1.34142 0
M  V30 1675 N 168.503 -0.877838 -1.30888 0
M  V30 1676 C 169.451 -0.328662 -2.30266 0
M  V30 1677 C 170.445 0.560496 -1.59859 0
M  V30 1678 O 171.651 0.445722 -1.74394 0
M  V30 1679 H 168.026 -0.0876142 -0.746879 0
M  V30 1680 H 169.997 -1.18061 -2.74051 0
M  V30 1681 C 168.746 0.448071 -3.44801 0
M  V30 1682 H 168.069 -0.226859 -3.99156 0
M  V30 1683 H 169.509 0.797541 -4.16432 0
M  V30 1684 C 167.968 1.64239 -2.94155 0
M  V30 1685 O 168.498 2.74175 -2.93583 0
M  V30 1686 N 166.704 1.47716 -2.50256 0
M  V30 1687 H 166.251 0.582821 -2.5092 0
M  V30 1688 H 166.209 2.27765 -2.16727 0
M  V30 1689 N 169.982 1.44106 -0.638065 0
M  V30 1690 C 171.398 1.56672 -0.304286 0
M  V30 1691 C 171.598 1.6244 1.19228 0
M  V30 1692 O 170.654 1.57121 1.9766 0
M  V30 1693 C 171.967 2.83503 -1.00231 0
M  V30 1694 C 173.515 2.97226 -0.981116 0
M  V30 1695 C 173.99 4.26868 -1.65974 0
M  V30 1696 N 175.481 4.33698 -1.62666 0
M  V30 1697 C 176.216 5.32745 -2.12063 0
M  V30 1698 N 175.712 6.38157 -2.6968 0
M  V30 1699 N 177.505 5.24299 -2.02651 0
M  V30 1700 H 169.656 1.38605 -1.60942 0
M  V30 1701 H 171.919 0.664661 -0.675965 0
M  V30 1702 H 171.625 2.85251 -2.0573 0
M  V30 1703 H 171.499 3.73251 -0.54439 0
M  V30 1704 H 173.886 2.95027 0.0654188 0
M  V30 1705 H 173.967 2.08808 -1.47759 0
M  V30 1706 H 173.611 4.29826 -2.70576 0
M  V30 1707 H 173.541 5.14156 -1.13804 0
M  V30 1708 H 176.032 3.58138 -1.20606 0
M  V30 1709 H 176.345 7.10029 -3.05087 0
M  V30 1710 H 174.69 6.38823 -2.73734 0
M  V30 1711 H 177.881 4.4086 -1.57353 0
M  V30 1712 H 178.054 6.01334 -2.41457 0
M  V30 1713 N 171.46 0.379036 1.52974 0
M  V30 1714 C 172.709 -0.207612 2.00629 0
M  V30 1715 C 173.022 -1.48758 1.27006 0
M  V30 1716 O 174.228 -2.15365 1.65318 0
M  V30 1717 C 172.684 -0.42053 3.57435 0
M  V30 1718 C 172.292 0.845587 4.39948 0
M  V30 1719 C 174.036 -0.964102 4.13407 0
M  V30 1720 C 171.943 0.601513 5.88333 0
M  V30 1721 H 170.873 -0.0813591 0.749598 0
M  V30 1722 H 173.524 0.499853 1.76561 0
M  V30 1723 H 171.906 -1.18959 3.7771 0
M  V30 1724 H 173.08 1.61848 4.31442 0
M  V30 1725 H 171.395 1.31336 3.95145 0
M  V30 1726 H 173.992 -1.16225 5.21916 0
M  V30 1727 H 174.335 -1.93019 3.68849 0
M  V30 1728 H 174.868 -0.25487 3.96983 0
M  V30 1729 H 171.607 1.53831 6.37194 0
M  V30 1730 H 171.127 -0.132628 5.99653 0
M  V30 1731 H 172.806 0.232134 6.46583 0
M  V30 1732 N 172.938 -1.57226 0.108567 0
M  V30 1733 C 174.178 -1.96717 -0.555155 0
M  V30 1734 C 174.542 -0.990003 -1.64508 0
M  V30 1735 O 175.743 -1.2739 -2.36696 0
M  V30 1736 C 174.014 -3.40575 -1.08367 0
M  V30 1737 S 175.573 -4.02072 -1.75737 0
M  V30 1738 H 172.391 -0.687638 -0.180762 0
M  V30 1739 H 174.993 -1.94563 0.191172 0
M  V30 1740 H 173.697 -4.0945 -0.279092 0
M  V30 1741 H 173.228 -3.46356 -1.86551 0
M  V30 1742 H 175.243 -3.91977 -3.04251 0
M  V30 1743 N 174.416 0.165178 -1.56732 0
M  V30 1744 C 175.644 0.896218 -1.86482 0
M  V30 1745 C 176.059 1.75555 -0.694675 0
M  V30 1746 O 175.416 1.79379 0.33607 0
M  V30 1747 C 175.467 1.76792 -3.1532 0
M  V30 1748 O 175.188 0.943239 -4.27825 0
M  V30 1749 C 176.689 2.6081 -3.58459 0
M  V30 1750 H 173.909 0.260064 -0.618553 0
M  V30 1751 H 176.453 0.163428 -2.03846 0
M  V30 1752 H 174.608 2.45398 -2.99764 0
M  V30 1753 H 175.022 1.53998 -5.01383 0
M  V30 1754 H 176.496 3.17579 -4.51495 0
M  V30 1755 H 176.973 3.35977 -2.82872 0
M  V30 1756 H 177.579 1.97526 -3.76648 0
M  V30 1757 N 175.894 1.51508 0.433938 0
M  V30 1758 C 177.134 1.66006 1.19253 0
M  V30 1759 C 177.498 0.369868 1.88404 0
M  V30 1760 O 178.699 0.39066 2.65946 0
M  V30 1761 C 176.97 2.83229 2.17981 0
M  V30 1762 S 178.529 3.18075 3.02281 0
M  V30 1763 H 175.347 0.584821 0.404358 0
M  V30 1764 H 177.949 1.89425 0.48357 0
M  V30 1765 H 176.653 3.75407 1.65824 0
M  V30 1766 H 176.184 2.6201 2.93453 0
M  V30 1767 H 178.199 2.64772 4.19655 0
M  V30 1768 N 177.372 -0.689602 1.41712 0
M  V30 1769 C 178.788 -1.00093 1.24312 0
M  V30 1770 C 178.988 -2.01036 0.136729 0
M  V30 1771 O 178.044 -2.47562 -0.496918 0
M  V30 1772 C 179.357 -1.51985 2.59463 0
M  V30 1773 C 180.905 -1.63838 2.66695 0
M  V30 1774 C 181.38 -2.1913 4.02177 0
M  V30 1775 N 182.871 -2.26483 4.04054 0
M  V30 1776 C 183.606 -2.70306 5.0569 0
M  V30 1777 N 183.102 -3.13691 6.17713 0
M  V30 1778 N 184.895 -2.69923 4.9305 0
M  V30 1779 H 177.046 -0.0210029 2.1239 0
M  V30 1780 H 179.309 -0.0718733 0.945272 0
M  V30 1781 H 179.015 -0.85269 3.41207 0
M  V30 1782 H 178.889 -2.50103 2.82362 0
M  V30 1783 H 181.276 -2.29664 1.85306 0
M  V30 1784 H 181.357 -0.642492 2.476 0
M  V30 1785 H 181.001 -1.53918 4.84016 0
M  V30 1786 H 180.931 -3.19482 4.18615 0
M  V30 1787 H 183.422 -1.95874 3.23174 0
M  V30 1788 H 183.735 -3.45773 6.9113 0
M  V30 1789 H 182.08 -3.11585 6.21241 0
M  V30 1790 H 185.271 -2.35382 4.04614 0
M  V30 1791 H 185.444 -3.03758 5.72394 0
M  V30 1792 N 178.85 -1.27639 -0.924453 0
M  V30 1793 C 180.261 -1.12834 -1.48746 0
M  V30 1794 C 180.612 0.285505 -1.94112 0
M  V30 1795 O 179.737 1.17874 -1.81479 0
M  V30 1796 C 180.332 -2.04217 -2.70334 0
M  V30 1797 C 178.891 -1.93509 -3.22848 0
M  V30 1798 C 178.038 -1.96583 -1.95577 0
M  V30 1799 H 180.989 -1.40484 -0.738233 0
M  V30 1800 H 181.01 -1.59989 -3.4523 0
M  V30 1801 H 180.522 -3.07111 -2.37285 0
M  V30 1802 H 178.623 -0.936131 -3.60649 0
M  V30 1803 H 178.736 -2.79917 -3.88823 0
M  V30 1804 H 177.1 -1.4085 -2.12211 0
M  V30 1805 H 177.883 -3.01137 -1.64837 0
M  V30 1806 N 180.328 1.1314 -1.09713 0
M  V30 1807 C 181.576 1.84119 -0.833338 0
M  V30 1808 C 181.897 1.84097 0.642904 0
M  V30 1809 O 181.167 1.29881 1.46655 0
M  V30 1810 H 179.747 0.681766 -0.305293 0
M  V30 1811 H 182.409 1.37038 -1.38588 0
M  V30 1812 H 181.505 2.88543 -1.18951 0
M  V30 1813 N 181.806 0.884767 1.30421 0
M  V30 1814 C 183.052 0.513218 1.96819 0
M  V30 1815 C 183.407 -0.927347 1.68577 0
M  V30 1816 O 182.7 -1.64644 0.979941 0
M  V30 1817 C 182.894 0.724318 3.49983 0
M  V30 1818 C 182.723 2.18385 3.93113 0
M  V30 1819 C 181.493 2.82839 4.18725 0
M  V30 1820 C 183.691 3.15763 4.05953 0
M  V30 1821 N 181.673 4.1939 4.48314 0
M  V30 1822 C 183.044 4.37387 4.39423 0
M  V30 1823 C 185.099 3.11555 3.88379 0
M  V30 1824 C 183.802 5.55343 4.5715 0
M  V30 1825 C 185.828 4.28782 4.07308 0
M  V30 1826 C 185.19 5.49172 4.41123 0
M  V30 1827 H 181.289 0.237123 0.745182 0
M  V30 1828 H 183.873 1.14246 1.57658 0
M  V30 1829 H 182.044 0.124565 3.882 0
M  V30 1830 H 183.776 0.31969 4.03435 0
M  V30 1831 H 180.531 2.33708 4.11919 0
M  V30 1832 H 180.955 4.89911 4.67243 0
M  V30 1833 H 185.597 2.19576 3.61312 0
M  V30 1834 H 183.315 6.47826 4.8306 0
M  V30 1835 H 186.901 4.26995 3.95179 0
M  V30 1836 H 185.781 6.38371 4.55469 0
M  V30 1837 N 183.284 -1.43765 0.645699 0
M  V30 1838 C 184.514 -2.05953 0.163318 0
M  V30 1839 C 184.922 -1.48432 -1.17322 0
M  V30 1840 O 184.265 -0.607295 -1.73371 0
M  V30 1841 C 184.327 -3.59499 -0.0103065 0
M  V30 1842 C 183.991 -4.39563 1.25035 0
M  V30 1843 C 184.988 -4.72108 2.17739 0
M  V30 1844 C 182.673 -4.79697 1.48983 0
M  V30 1845 C 184.667 -5.43688 3.3269 0
M  V30 1846 C 182.354 -5.51023 2.64229 0
M  V30 1847 C 183.352 -5.8294 3.55908 0
M  V30 1848 O 183.04 -6.5281 4.69142 0
M  V30 1849 H 182.772 -0.670798 0.0836986 0
M  V30 1850 H 185.326 -1.85384 0.884407 0
M  V30 1851 H 183.556 -3.78613 -0.78669 0
M  V30 1852 H 185.245 -4.03408 -0.449087 0
M  V30 1853 H 186.011 -4.41627 2.00476 0
M  V30 1854 H 181.89 -4.54266 0.785078 0
M  V30 1855 H 185.434 -5.68517 4.04269 0
M  V30 1856 H 181.331 -5.8092 2.81429 0
M  V30 1857 H 182.099 -6.71288 4.6831 0
M  V30 1858 N 184.763 -0.387143 -1.52771 0
M  V30 1859 C 186.003 0.195537 -2.03463 0
M  V30 1860 C 186.367 1.44222 -1.26744 0
M  V30 1861 O 187.568 2.10192 -1.67549 0
M  V30 1862 C 185.839 0.459097 -3.54439 0
M  V30 1863 S 187.398 1.01237 -4.26962 0
M  V30 1864 H 184.216 0.0552675 -0.708849 0
M  V30 1865 H 186.818 -0.534992 -1.88037 0
M  V30 1866 H 185.522 -0.455382 -4.07866 0
M  V30 1867 H 185.053 1.21811 -3.74066 0
M  V30 1868 H 187.068 2.29492 -4.39941 0
M  V30 1869 N 186.241 1.57166 -0.116904 0
M  V30 1870 C 187.204 2.14039 0.819742 0
M  V30 1871 C 188.204 1.07477 1.19605 0
M  V30 1872 O 189.394 1.33263 1.1219 0
M  V30 1873 C 186.526 2.67891 2.10826 0
M  V30 1874 H 187.719 2.98128 0.325511 0
M  V30 1875 H 185.272 1.55739 0.132312 0
M  V30 1876 H 186.007 1.87384 2.64685 0
M  V30 1877 H 185.792 3.45823 1.84793 0
M  V30 1878 H 187.282 3.11809 2.77785 0
M  V30 1879 N 187.719 -0.156864 1.56817 0
M  V30 1880 C 188.649 -1.19589 2.00551 0
M  V30 1881 C 189.63 -1.4536 0.883426 0
M  V30 1882 O 190.815 -1.56449 1.15054 0
M  V30 1883 C 187.945 -2.53143 2.37773 0
M  V30 1884 C 186.899 -2.41913 3.53075 0
M  V30 1885 C 186.225 -3.80088 3.76081 0
M  V30 1886 C 187.525 -1.91157 4.86062 0
M  V30 1887 H 189.219 -0.832293 2.87599 0
M  V30 1888 H 186.765 -0.398918 1.38364 0
M  V30 1889 H 188.718 -3.26047 2.66967 0
M  V30 1890 H 187.442 -2.91319 1.4765 0
M  V30 1891 H 186.101 -1.71462 3.24031 0
M  V30 1892 H 185.749 -4.15683 2.83225 0
M  V30 1893 H 185.449 -3.73439 4.53671 0
M  V30 1894 H 186.973 -4.54556 4.0769 0
M  V30 1895 H 188.387 -2.53846 5.14038 0
M  V30 1896 H 186.784 -1.95422 5.67389 0
M  V30 1897 H 187.854 -0.866673 4.77092 0
M  V30 1898 N 189.197 -1.51736 -0.425897 0
M  V30 1899 C 190.422 -1.69082 -1.20108 0
M  V30 1900 C 190.847 -0.392398 -1.83962 0
M  V30 1901 O 190.205 0.64858 -1.69302 0
M  V30 1902 C 190.253 -2.81604 -2.25237 0
M  V30 1903 O 189.357 -2.46004 -3.30992 0
M  V30 1904 H 188.698 -0.563408 -0.35138 0
M  V30 1905 H 191.228 -1.98358 -0.501512 0
M  V30 1906 H 191.238 -3.06025 -2.69838 0
M  V30 1907 H 189.913 -3.75817 -1.78142 0
M  V30 1908 H 188.49 -2.32195 -2.91787 0
M  V30 1909 N 190.675 0.682077 -1.42076 0
M  V30 1910 C 191.622 1.79578 -1.44984 0
M  V30 1911 C 192.592 1.6332 -0.302614 0
M  V30 1912 O 193.777 1.83978 -0.505633 0
M  V30 1913 C 190.917 3.1756 -1.35091 0
M  V30 1914 C 190.03 3.45156 -2.59791 0
M  V30 1915 C 189.165 4.72826 -2.42093 0
M  V30 1916 C 188.204 4.93433 -3.62202 0
M  V30 1917 N 187.341 6.12338 -3.43491 0
M  V30 1918 H 192.181 1.76427 -2.40161 0
M  V30 1919 H 189.718 0.861376 -1.19242 0
M  V30 1920 H 191.676 3.97287 -1.27354 0
M  V30 1921 H 190.306 3.19854 -0.435133 0
M  V30 1922 H 189.358 2.59736 -2.77923 0
M  V30 1923 H 190.67 3.5628 -3.49094 0
M  V30 1924 H 189.824 5.60631 -2.319 0
M  V30 1925 H 188.563 4.63973 -1.50268 0
M  V30 1926 H 187.568 4.04073 -3.72834 0
M  V30 1927 H 188.793 5.04136 -4.54998 0
M  V30 1928 H 186.739 6.04672 -2.54377 0
M  V30 1929 H 186.656 6.2429 -4.26377 0
M  V30 1930 H 187.924 7.02841 -3.37097 0
M  V30 1931 N 192.153 1.28127 0.917671 0
M  V30 1932 C 193.085 1.07517 2.02417 0
M  V30 1933 C 194.098 0.0281099 1.62776 0
M  V30 1934 O 195.287 0.270748 1.76435 0
M  V30 1935 C 192.387 0.610957 3.33347 0
M  V30 1936 C 191.56 1.73255 4.01624 0
M  V30 1937 C 190.619 1.26238 5.10833 0
M  V30 1938 O 189.645 1.96389 5.34247 0
M  V30 1939 N 190.847 0.123448 5.80369 0
M  V30 1940 H 193.612 2.02806 2.20658 0
M  V30 1941 H 191.173 1.19827 1.08871 0
M  V30 1942 H 193.165 0.280101 4.0373 0
M  V30 1943 H 191.735 -0.24898 3.11607 0
M  V30 1944 H 190.955 2.23319 3.24842 0
M  V30 1945 H 192.243 2.48503 4.43986 0
M  V30 1946 H 191.641 -0.461847 5.63812 0
M  V30 1947 H 190.198 -0.148158 6.51632 0
M  V30 1948 N 193.631 -1.12557 1.10312 0
M  V30 1949 C 194.541 -2.21841 0.763142 0
M  V30 1950 C 195.557 -1.72354 -0.238801 0
M  V30 1951 O 196.733 -2.01249 -0.0778746 0
M  V30 1952 C 193.798 -3.46131 0.198632 0
M  V30 1953 C 192.859 -4.10464 1.25769 0
M  V30 1954 C 192.092 -5.28821 0.72002 0
M  V30 1955 O 192.315 -5.6859 -0.453993 0
M  V30 1956 O 191.249 -5.83437 1.47935 0
M  V30 1957 H 195.075 -2.53312 1.67532 0
M  V30 1958 H 192.66 -1.20867 0.878157 0
M  V30 1959 H 194.542 -4.2125 -0.112401 0
M  V30 1960 H 193.217 -3.16338 -0.686419 0
M  V30 1961 H 192.124 -3.3713 1.62156 0
M  V30 1962 H 193.457 -4.44408 2.11571 0
M  V30 1963 N 195.109 -0.891671 -1.2995 0
M  V30 1964 C 196.357 -0.512486 -1.95494 0
M  V30 1965 C 196.678 0.942776 -1.70695 0
M  V30 1966 O 195.948 1.66374 -1.03424 0
M  V30 1967 H 194.528 -0.186533 -0.723336 0
M  V30 1968 H 197.19 -1.13621 -1.58355 0
M  V30 1969 H 196.286 -0.688342 -3.04415 0
M  V30 1970 N 196.587 1.43421 -0.653314 0
M  V30 1971 C 197.827 2.03689 -0.170346 0
M  V30 1972 C 198.191 1.50427 1.19314 0
M  V30 1973 O 199.392 2.0234 1.76952 0
M  V30 1974 C 197.663 3.56946 -0.180183 0
M  V30 1975 S 199.222 4.38171 0.234925 0
M  V30 1976 H 196.04 0.707345 -0.0719976 0
M  V30 1977 H 198.642 1.75486 -0.86167 0
M  V30 1978 H 197.346 3.93212 -1.17526 0
M  V30 1979 H 196.877 3.89791 0.531675 0
M  V30 1980 H 198.892 4.73808 1.47378 0
M  V30 1981 N 198.065 0.39524 1.52563 0
M  V30 1982 C 199.481 0.0454682 1.59535 0
M  V30 1983 C 199.681 -1.44056 1.4089 0
M  V30 1984 O 198.737 -2.20579 1.22888 0
M  V30 1985 C 200.05 0.527963 2.96029 0
M  V30 1986 C 201.598 0.484733 3.09224 0
M  V30 1987 C 202.073 0.943512 4.48176 0
M  V30 1988 N 203.564 0.899765 4.54377 0
M  V30 1989 C 204.299 1.22609 5.60138 0
M  V30 1990 N 203.795 1.62319 6.73516 0
M  V30 1991 N 205.588 1.14696 5.50274 0
M  V30 1992 H 197.739 1.36261 1.62931 0
M  V30 1993 H 200.002 0.558887 0.765735 0
M  V30 1994 H 199.708 1.56607 3.14908 0
M  V30 1995 H 199.582 -0.0698056 3.77135 0
M  V30 1996 H 201.969 -0.544298 2.90037 0
M  V30 1997 H 202.05 1.11838 2.30056 0
M  V30 1998 H 201.694 1.9708 4.68104 0
M  V30 1999 H 201.624 0.286817 5.25818 0
M  V30 2000 H 204.115 0.607632 3.72983 0
M  V30 2001 H 204.428 1.85567 7.5019 0
M  V30 2002 H 202.773 1.66211 6.74833 0
M  V30 2003 H 205.964 0.835701 4.6058 0
M  V30 2004 H 206.137 1.40459 6.32594 0
M  V30 2005 N 199.544 -1.57102 0.125237 0
M  V30 2006 C 200.474 -2.18659 -0.819174 0
M  V30 2007 C 201.455 -1.12843 -1.27281 0
M  V30 2008 O 202.64 -1.41104 -1.33429 0
M  V30 2009 C 199.77 -2.79096 -2.06695 0
M  V30 2010 C 198.724 -3.90548 -1.75088 0
M  V30 2011 C 198.05 -4.37821 -3.06948 0
M  V30 2012 C 199.35 -5.12356 -1.01435 0
M  V30 2013 H 201.044 -2.9783 -0.306202 0
M  V30 2014 H 198.59 -1.4326 -0.145839 0
M  V30 2015 H 200.543 -3.2082 -2.73226 0
M  V30 2016 H 199.267 -1.97223 -2.60328 0
M  V30 2017 H 197.926 -3.49409 -1.10944 0
M  V30 2018 H 197.574 -3.52799 -3.58527 0
M  V30 2019 H 197.274 -5.12982 -2.86571 0
M  V30 2020 H 198.798 -4.822 -3.74587 0
M  V30 2021 H 200.212 -5.5106 -1.58132 0
M  V30 2022 H 198.609 -5.9314 -0.911319 0
M  V30 2023 H 199.679 -4.849 -0.00218681 0
M  V30 2024 N 201.022 0.148545 -1.56898 0
M  V30 2025 C 202.262 0.86765 -1.85071 0
M  V30 2026 C 202.626 1.78417 -0.709317 0
M  V30 2027 O 203.827 2.54261 -0.872049 0
M  V30 2028 C 202.098 1.62306 -3.1842 0
M  V30 2029 S 203.657 2.3878 -3.68143 0
M  V30 2030 H 200.475 0.290174 -0.649092 0
M  V30 2031 H 203.077 0.127755 -1.95082 0
M  V30 2032 H 201.781 0.941192 -3.99462 0
M  V30 2033 H 201.312 2.4039 -3.1141 0
M  V30 2034 H 203.327 3.63942 -3.37285 0
M  V30 2035 N 202.5 1.5196 0.417844 0
M  V30 2036 C 203.463 1.74065 1.49111 0
M  V30 2037 C 204.463 0.610537 1.48758 0
M  V30 2038 O 205.653 0.87832 1.50437 0
M  V30 2039 C 202.785 1.81502 2.88565 0
M  V30 2040 H 203.978 2.69869 1.30807 0
M  V30 2041 H 201.531 1.42244 0.647785 0
M  V30 2042 H 202.266 0.875813 3.1225 0
M  V30 2043 H 202.051 2.63651 2.90225 0
M  V30 2044 H 203.541 2.00376 3.66387 0
M  V30 2045 N 203.978 -0.674533 1.42435 0
M  V30 2046 C 205.389 -1.25514 1.38214 0
M  V30 2047 C 205.74 -1.96055 0.0755464 0
M  V30 2048 O 204.865 -2.00028 -0.8257 0
M  V30 2049 C 205.46 -2.28269 2.50357 0
M  V30 2050 C 204.019 -2.81856 2.49467 0
M  V30 2051 C 203.166 -1.56182 2.29134 0
M  V30 2052 H 206.117 -0.467902 1.51646 0
M  V30 2053 H 206.138 -3.10009 2.20624 0
M  V30 2054 H 205.65 -1.769 3.45439 0
M  V30 2055 H 203.751 -3.37346 1.58204 0
M  V30 2056 H 203.864 -3.30854 3.46515 0
M  V30 2057 H 202.228 -1.82761 1.774 0
M  V30 2058 H 203.011 -1.06778 3.26272 0
M  V30 2059 N 205.456 -1.28612 -0.910864 0
M  V30 2060 C 206.386 -1.15326 -2.03032 0
M  V30 2061 C 207.367 -0.0502924 -1.70026 0
M  V30 2062 O 208.552 -0.227797 -1.92859 0
M  V30 2063 C 205.682 -0.817343 -3.37545 0
M  V30 2064 C 204.636 -1.8754 -3.84724 0
M  V30 2065 C 203.962 -1.39305 -5.16235 0
M  V30 2066 C 205.262 -3.28244 -4.06267 0
M  V30 2067 H 206.956 -2.08975 -2.14406 0
M  V30 2068 H 204.502 -1.00612 -1.03021 0
M  V30 2069 H 206.455 -0.711151 -4.15356 0
M  V30 2070 H 205.179 0.154846 -3.26233 0
M  V30 2071 H 203.838 -1.97079 -3.09121 0
M  V30 2072 H 203.486 -0.409846 -5.01328 0
M  V30 2073 H 203.186 -2.10057 -5.48771 0
M  V30 2074 H 204.71 -1.30014 -5.96598 0
M  V30 2075 H 206.124 -3.21611 -4.74594 0
M  V30 2076 H 204.521 -3.96855 -4.5014 0
M  V30 2077 H 205.591 -3.72048 -3.10979 0
M  V30 2078 N 206.934 1.1197 -1.10907 0
M  V30 2079 C 208.35 1.35591 -0.841852 0
M  V30 2080 C 208.55 1.94233 0.536246 0
M  V30 2081 O 207.606 2.1717 1.28816 0
M  V30 2082 C 208.919 2.29284 -1.94549 0
M  V30 2083 C 210.467 2.42862 -1.97451 0
M  V30 2084 C 210.942 3.39873 -3.07002 0
M  V30 2085 N 212.433 3.47433 -3.06341 0
M  V30 2086 C 213.168 4.22421 -3.87748 0
M  V30 2087 N 212.664 5.00432 -4.79103 0
M  V30 2088 N 214.457 4.17876 -3.75946 0
M  V30 2089 H 206.608 0.722664 -1.99728 0
M  V30 2090 H 208.871 0.380635 -0.868229 0
M  V30 2091 H 208.577 1.93378 -2.93765 0
M  V30 2092 H 208.451 3.29452 -1.83688 0
M  V30 2093 H 210.838 2.78046 -0.988645 0
M  V30 2094 H 210.919 1.42566 -2.12388 0
M  V30 2095 H 210.563 3.05417 -4.05811 0
M  V30 2096 H 210.493 4.40011 -2.89306 0
M  V30 2097 H 212.984 2.91784 -2.40147 0
M  V30 2098 H 213.297 5.55002 -5.37766 0
M  V30 2099 H 211.642 4.99612 -4.83128 0
M  V30 2100 H 214.833 3.56016 -3.03924 0
M  V30 2101 H 215.006 4.76061 -4.39624 0
M  V30 2102 N 208.412 0.89855 1.29475 0
M  V30 2103 C 209.359 0.373819 2.27753 0
M  V30 2104 C 210.329 -0.543444 1.56958 0
M  V30 2105 O 211.514 -0.468934 1.84948 0
M  V30 2106 C 208.654 -0.393648 3.42848 0
M  V30 2107 C 207.767 0.554379 4.28428 0
M  V30 2108 C 206.902 -0.230026 5.30702 0
M  V30 2109 C 205.941 0.712599 6.07938 0
M  V30 2110 N 205.078 -0.0373283 7.0209 0
M  V30 2111 H 209.918 1.21699 2.72017 0
M  V30 2112 H 207.455 0.611456 1.33789 0
M  V30 2113 H 209.413 -0.85466 4.08352 0
M  V30 2114 H 208.043 -1.20128 2.99615 0
M  V30 2115 H 207.095 1.13391 3.63107 0
M  V30 2116 H 208.407 1.27597 4.82204 0
M  V30 2117 H 207.561 -0.752288 6.02018 0
M  V30 2118 H 206.3 -0.984758 4.77654 0
M  V30 2119 H 205.305 1.24637 5.35486 0
M  V30 2120 H 206.53 1.46664 6.63074 0
M  V30 2121 H 204.476 -0.774348 6.51414 0
M  V30 2122 H 204.393 0.624374 7.53417 0
M  V30 2123 H 205.661 -0.539891 7.77628 0
M  V30 2124 N 209.89 -1.43072 0.660911 0
M  V30 2125 C 211.13 -2.03596 0.181146 0
M  V30 2126 C 211.494 -1.51057 -1.18515 0
M  V30 2127 O 212.695 -2.03275 -1.75877 0
M  V30 2128 C 210.966 -3.56845 0.19911 0
M  V30 2129 S 212.525 -4.38289 -0.211684 0
M  V30 2130 H 209.343 -0.706954 0.0757479 0
M  V30 2131 H 211.945 -1.75027 0.870965 0
M  V30 2132 H 210.649 -3.92583 1.1961 0
M  V30 2133 H 210.18 -3.90067 -0.510996 0
M  V30 2134 H 212.195 -4.74583 -1.44863 0
M  V30 2135 N 211.368 -0.403325 -1.52352 0
M  V30 2136 C 212.784 -0.0539281 -1.59509 0
M  V30 2137 C 212.984 1.43307 -1.41652 0
M  V30 2138 O 212.04 2.19924 -1.24056 0
M  V30 2139 C 213.353 -0.543654 -2.95745 0
M  V30 2140 C 214.901 -0.501125 -3.08962 0
M  V30 2141 C 215.376 -0.967267 -4.47669 0
M  V30 2142 N 216.867 -0.923849 -4.53893 0
M  V30 2143 C 217.602 -1.25578 -5.5948 0
M  V30 2144 N 217.098 -1.65889 -6.72646 0
M  V30 2145 N 218.891 -1.17613 -5.49658 0
M  V30 2146 H 211.042 -1.37123 -1.62206 0
M  V30 2147 H 213.305 -0.56294 -0.76276 0
M  V30 2148 H 213.011 -1.58275 -3.14073 0
M  V30 2149 H 212.885 0.0498042 -3.77167 0
M  V30 2150 H 215.272 0.528909 -2.90321 0
M  V30 2151 H 215.353 -1.13056 -2.2946 0
M  V30 2152 H 214.997 -1.9956 -4.67053 0
M  V30 2153 H 214.927 -0.314698 -5.25659 0
M  V30 2154 H 217.418 -0.627403 -3.72655 0
M  V30 2155 H 217.731 -1.89543 -7.49195 0
M  V30 2156 H 216.076 -1.69787 -6.73942 0
M  V30 2157 H 219.267 -0.860115 -4.6013 0
M  V30 2158 H 219.44 -1.43812 -6.3184 0
M  V30 2159 N 212.846 1.57033 -0.133567 0
M  V30 2160 C 214.257 1.82593 0.389464 0
M  V30 2161 C 214.608 1.05156 1.6564 0
M  V30 2162 O 213.733 0.292644 2.14412 0
M  V30 2163 C 214.328 3.31204 0.713377 0
M  V30 2164 C 212.887 3.57393 1.18098 0
M  V30 2165 C 212.034 2.76598 0.197126 0
M  V30 2166 H 214.985 1.54598 -0.358481 0
M  V30 2167 H 215.006 3.46627 1.56939 0
M  V30 2168 H 214.518 3.87537 -0.2089 0
M  V30 2169 H 212.619 3.06433 2.11966 0
M  V30 2170 H 212.732 4.65915 1.11624 0
M  V30 2171 H 211.096 2.45257 0.687088 0
M  V30 2172 H 211.879 3.35697 -0.718504 0
M  V30 2173 N 214.325 -0.140222 1.56975 0
M  V30 2174 C 215.573 -0.850005 1.83356 0
M  V30 2175 C 215.894 -1.81399 0.71551 0
M  V30 2176 O 215.164 -1.94136 -0.262294 0
M  V30 2177 H 213.744 -0.316886 0.676456 0
M  V30 2178 H 216.406 -0.132608 1.94448 0
M  V30 2179 H 215.502 -1.40814 2.78528 0
M  V30 2180 N 215.803 -1.52179 -0.40978 0
M  V30 2181 C 217.05 -1.66206 -1.15679 0
M  V30 2182 C 217.378 -0.391674 -1.90516 0
M  V30 2183 O 216.633 0.62533 -1.8544 0
M  V30 2184 C 216.932 -2.83428 -2.17723 0
M  V30 2185 C 216.598 -4.21672 -1.59699 0
M  V30 2186 C 215.26 -4.59274 -1.43599 0
M  V30 2187 C 217.612 -5.07825 -1.17317 0
M  V30 2188 C 214.94 -5.80709 -0.836328 0
M  V30 2189 C 217.292 -6.29864 -0.587691 0
M  V30 2190 C 215.956 -6.66216 -0.413818 0
M  V30 2191 H 215.226 -0.608192 -0.423301 0
M  V30 2192 H 217.873 -1.86279 -0.444097 0
M  V30 2193 H 216.178 -2.57687 -2.95135 0
M  V30 2194 H 217.875 -2.91477 -2.75394 0
M  V30 2195 H 214.465 -3.9204 -1.73213 0
M  V30 2196 H 218.649 -4.79359 -1.28565 0
M  V30 2197 H 213.905 -6.07498 -0.689626 0
M  V30 2198 H 218.079 -6.95948 -0.250894 0
M  V30 2199 H 215.706 -7.60182 0.0529471 0
M  V30 2200 N 217.281 0.66697 -1.42791 0
M  V30 2201 C 218.529 1.42417 -1.43394 0
M  V30 2202 C 218.85 1.94925 -0.0542373 0
M  V30 2203 O 218.12 1.73564 0.908415 0
M  V30 2204 H 216.7 0.528515 -0.527902 0
M  V30 2205 H 219.362 0.787562 -1.78279 0
M  V30 2206 H 218.458 2.27333 -2.13837 0
M  V30 2207 N 218.759 1.29093 0.90403 0
M  V30 2208 C 220.005 1.16986 1.65656 0
M  V30 2209 C 220.338 -0.278925 1.92186 0
M  V30 2210 O 219.613 -1.2019 1.5292 0
M  V30 2211 C 219.896 1.97908 3.0084 0
M  V30 2212 C 219.749 3.50903 2.81403 0
M  V30 2213 C 221.068 1.80208 4.01513 0
M  V30 2214 H 218.187 0.426346 0.601164 0
M  V30 2215 H 220.829 1.58518 1.04747 0
M  V30 2216 H 218.979 1.62616 3.52829 0
M  V30 2217 H 220.651 3.96153 2.36348 0
M  V30 2218 H 218.894 3.76045 2.1627 0
M  V30 2219 H 219.565 4.02791 3.77443 0
M  V30 2220 H 222.041 2.11025 3.58619 0
M  V30 2221 H 220.917 2.39184 4.94047 0
M  V30 2222 H 221.178 0.756119 4.35586 0
M  V30 2223 N 220.237 -1.11381 1.11499 0
M  V30 2224 C 221.2 -2.15622 0.777153 0
M  V30 2225 C 222.2 -1.59504 -0.203779 0
M  V30 2226 O 223.39 -1.74188 0.020782 0
M  V30 2227 C 220.522 -3.40556 0.153116 0
M  V30 2228 H 221.715 -2.47021 1.70061 0
M  V30 2229 H 219.268 -1.26577 0.916952 0
M  V30 2230 H 220.003 -3.14767 -0.780536 0
M  V30 2231 H 219.788 -3.8257 0.859238 0
M  V30 2232 H 221.278 -4.17546 -0.0671044 0
M  V30 2233 N 221.715 -0.905404 -1.28997 0
M  V30 2234 C 223.131 -0.60233 -1.47798 0
M  V30 2235 C 223.331 0.854645 -1.82478 0
M  V30 2236 O 222.387 1.63439 -1.92468 0
M  V30 2237 C 223.7 -1.53306 -2.58685 0
M  V30 2238 C 225.248 -1.53887 -2.72558 0
M  V30 2239 C 225.723 -2.45602 -3.86579 0
M  V30 2240 N 227.214 -2.43681 -3.93921 0
M  V30 2241 C 227.949 -3.11347 -4.81509 0
M  V30 2242 N 227.445 -3.88313 -5.73746 0
M  V30 2243 N 229.238 -3.00476 -4.75048 0
M  V30 2244 H 221.389 -1.84765 -1.04764 0
M  V30 2245 H 223.652 -0.792025 -0.520961 0
M  V30 2246 H 223.358 -2.57141 -2.39941 0
M  V30 2247 H 223.232 -1.25787 -3.55609 0
M  V30 2248 H 225.619 -0.507941 -2.90696 0
M  V30 2249 H 225.7 -1.85447 -1.76191 0
M  V30 2250 H 225.344 -3.48792 -3.69197 0
M  V30 2251 H 225.274 -2.11349 -4.82327 0
M  V30 2252 H 227.765 -1.87767 -3.27951 0
M  V30 2253 H 228.078 -4.36985 -6.37389 0
M  V30 2254 H 226.423 -3.92419 -5.73614 0
M  V30 2255 H 229.614 -2.39858 -4.01977 0
M  V30 2256 H 229.787 -3.53485 -5.43095 0
M  V30 2257 N 223.193 1.4272 -0.668489 0
M  V30 2258 C 224.604 1.84793 -0.266151 0
M  V30 2259 C 224.955 1.55959 1.19043 0
M  V30 2260 O 224.08 1.01622 1.91055 0
M  V30 2261 C 224.675 3.35436 -0.476271 0
M  V30 2262 C 223.234 3.76182 -0.128113 0
M  V30 2263 C 222.381 2.66344 -0.771777 0
M  V30 2264 H 225.332 1.32656 -0.871098 0
M  V30 2265 H 225.353 3.79515 0.273561 0
M  V30 2266 H 224.865 3.5639 -1.53647 0
M  V30 2267 H 222.966 3.60836 0.928891 0
M  V30 2268 H 223.079 4.75766 -0.564231 0
M  V30 2269 H 221.443 2.53885 -0.203652 0
M  V30 2270 H 222.226 2.90123 -1.83531 0
M  V30 2271 N 224.671 0.411399 1.52136 0
M  V30 2272 C 225.919 -0.163322 2.01439 0
M  V30 2273 C 226.24 -1.45453 1.29879 0
M  V30 2274 O 225.51 -1.91225 0.4254 0
M  V30 2275 H 224.09 -0.0633447 0.744309 0
M  V30 2276 H 226.752 0.548161 1.87033 0
M  V30 2277 H 225.848 -0.357817 3.10042 0
M  V30 2278 N 226.149 -1.5696 0.141893 0
M  V30 2279 C 227.377 -2.00322 -0.517579 0
M  V30 2280 C 227.792 -1.02193 -1.58752 0
M  V30 2281 O 227.149 -0.0181619 -1.82491 0
M  V30 2282 C 227.2 -3.43618 -1.12289 0
M  V30 2283 O 226.921 -4.37995 -0.0956929 0
M  V30 2284 C 228.422 -4.02231 -1.86347 0
M  V30 2285 H 225.642 -0.657243 -0.135177 0
M  V30 2286 H 228.186 -2.03146 0.234973 0
M  V30 2287 H 226.341 -3.41662 -1.82609 0
M  V30 2288 H 226.755 -5.21729 -0.538469 0
M  V30 2289 H 228.229 -5.04509 -2.23997 0
M  V30 2290 H 228.706 -3.42655 -2.74744 0
M  V30 2291 H 229.312 -4.07802 -1.20737 0
M  V30 2292 N 227.627 0.131896 -1.57047 0
M  V30 2293 C 228.537 1.1815 -2.02676 0
M  V30 2294 C 229.553 1.46113 -0.944824 0
M  V30 2295 O 230.729 1.57485 -1.25541 0
M  V30 2296 C 227.794 2.49139 -2.41103 0
M  V30 2297 C 226.855 2.28688 -3.63318 0
M  V30 2298 C 226.088 3.53431 -3.99903 0
M  V30 2299 O 226.311 4.60223 -3.36973 0
M  V30 2300 O 225.245 3.45198 -4.93074 0
M  V30 2301 H 229.071 0.824069 -2.92306 0
M  V30 2302 H 226.656 0.341745 -1.45439 0
M  V30 2303 H 228.538 3.26338 -2.66611 0
M  V30 2304 H 227.213 2.84382 -1.54624 0
M  V30 2305 H 226.12 1.4939 -3.42977 0
M  V30 2306 H 227.453 1.98355 -4.50462 0
M  V30 2307 N 229.106 1.52395 0.401703 0
M  V30 2308 C 230.334 1.70676 1.16949 0
M  V30 2309 C 230.749 0.419503 1.8408 0
M  V30 2310 O 230.106 -0.605061 1.72178 0
M  V30 2311 C 230.157 2.84753 2.22706 0
M  V30 2312 O 229.878 4.08495 1.58314 0
M  V30 2313 C 231.379 3.14608 3.12309 0
M  V30 2314 H 228.599 0.571787 0.351142 0
M  V30 2315 H 231.143 1.98987 0.471652 0
M  V30 2316 H 229.298 2.58941 2.88147 0
M  V30 2317 H 229.712 4.72117 2.28485 0
M  V30 2318 H 231.186 3.97923 3.82572 0
M  V30 2319 H 231.663 2.28464 3.75101 0
M  V30 2320 H 232.269 3.42212 2.52529 0
M  V30 2321 N 230.584 -0.659388 1.43143 0
M  V30 2322 C 231.809 -1.45221 1.48073 0
M  V30 2323 C 232.234 -1.87845 0.097995 0
M  V30 2324 O 231.592 -1.56985 -0.90694 0
M  V30 2325 C 231.64 -2.66748 2.42647 0
M  V30 2326 O 230.744 -3.65583 1.90848 0
M  V30 2327 H 230.085 -0.435669 0.501088 0
M  V30 2328 H 232.615 -0.807432 1.87994 0
M  V30 2329 H 232.625 -3.14637 2.59745 0
M  V30 2330 H 231.3 -2.35067 3.43098 0
M  V30 2331 H 229.877 -3.24693 1.83381 0
M  V30 2332 N 232.062 -1.29571 -0.897171 0
M  V30 2333 C 233.339 -1.08365 -1.62839 0
M  V30 2334 C 233.719 0.371331 -2.07808 0
M  V30 2335 O 233.067 1.3606 -1.83576 0
M  V30 2336 C 233.277 -2.0735 -2.80726 0
M  V30 2337 C 234.625 -2.38406 -3.51351 0
M  V30 2338 O 235.649 -2.05564 -2.90898 0
M  V30 2339 O 234.508 -2.9453 -4.60341 0
M  V30 2340 H 231.602 -0.415345 -0.715134 0
M  V30 2341 H 234.148 -1.40952 -0.945018 0
M  V30 2342 H 232.92 -3.05339 -2.44711 0
M  V30 2343 H 232.543 -1.75507 -3.56767 0
M  V30 2344 N 233.54 1.10788 -1.12088 0
M  V30 2345 C 234.786 1.82942 -0.875226 0
M  V30 2346 C 235.119 1.84779 0.597538 0
M  V30 2347 O 234.394 1.30578 1.44152 0
M  V30 2348 C 234.677 3.29789 -1.44606 0
M  V30 2349 C 234.53 3.36307 -2.98693 0
M  V30 2350 C 235.849 4.26064 -1.10261 0
M  V30 2351 H 232.968 0.664195 -0.319397 0
M  V30 2352 H 235.61 1.29867 -1.38689 0
M  V30 2353 H 233.76 3.75118 -1.01089 0
M  V30 2354 H 235.432 2.99487 -3.50864 0
M  V30 2355 H 233.675 2.76318 -3.34411 0
M  V30 2356 H 234.346 4.39694 -3.33726 0
M  V30 2357 H 236.822 3.88951 -1.4784 0
M  V30 2358 H 235.698 5.27183 -1.52869 0
M  V30 2359 H 235.959 4.42098 -0.0142953 0
M  V30 2360 N 235.018 0.912232 1.28515 0
M  V30 2361 C 236.264 0.545405 1.95328 0
M  V30 2362 C 236.597 -0.908313 1.71649 0
M  V30 2363 O 235.872 -1.64575 1.03659 0
M  V30 2364 C 236.155 0.853483 3.4984 0
M  V30 2365 C 236.008 2.35982 3.82926 0
M  V30 2366 C 237.327 0.348589 4.38717 0
M  V30 2367 H 234.446 0.199626 0.709449 0
M  V30 2368 H 237.088 1.1412 1.5191 0
M  V30 2369 H 235.238 0.34643 3.86952 0
M  V30 2370 H 236.91 2.93738 3.55691 0
M  V30 2371 H 235.153 2.81543 3.30024 0
M  V30 2372 H 235.824 2.52593 4.90816 0
M  V30 2373 H 238.3 0.78294 4.08668 0
M  V30 2374 H 237.176 0.593242 5.45685 0
M  V30 2375 H 237.437 -0.751049 4.35674 0
M  V30 2376 N 236.496 -1.42363 0.676048 0
M  V30 2377 C 237.736 -2.03392 0.20273 0
M  V30 2378 C 238.1 -1.52306 -1.16906 0
M  V30 2379 O 239.301 -2.05129 -1.73711 0
M  V30 2380 C 237.572 -3.56614 0.236947 0
M  V30 2381 S 239.131 -4.38489 -0.165186 0
M  V30 2382 H 235.949 -0.70611 0.0832418 0
M  V30 2383 H 238.551 -1.74093 0.88948 0
M  V30 2384 H 237.255 -3.91293 1.23767 0
M  V30 2385 H 236.786 -3.90587 -0.469596 0
M  V30 2386 H 238.801 -4.76093 -1.39822 0
M  V30 2387 N 237.974 -0.419461 -1.51915 0
M  V30 2388 C 238.921 0.400927 -2.27291 0
M  V30 2389 C 239.891 1.03224 -1.30131 0
M  V30 2390 O 241.076 1.05455 -1.59009 0
M  V30 2391 C 238.216 1.50603 -3.10504 0
M  V30 2392 C 237.329 0.89462 -4.22635 0
M  V30 2393 C 236.464 1.97328 -4.93189 0
M  V30 2394 C 235.503 1.33935 -5.97267 0
M  V30 2395 N 234.64 2.3586 -6.61298 0
M  V30 2396 H 239.48 -0.248251 -2.96964 0
M  V30 2397 H 237.017 -0.134266 -1.46486 0
M  V30 2398 H 238.975 2.15783 -3.57062 0
M  V30 2399 H 237.605 2.12509 -2.42981 0
M  V30 2400 H 236.657 0.131583 -3.80172 0
M  V30 2401 H 237.969 0.391641 -4.9726 0
M  V30 2402 H 237.123 2.70211 -5.43204 0
M  V30 2403 H 235.862 2.50994 -4.18155 0
M  V30 2404 H 234.867 0.595896 -5.46561 0
M  V30 2405 H 236.092 0.810252 -6.74249 0
M  V30 2406 H 234.038 2.88639 -5.89087 0
M  V30 2407 H 233.955 1.90403 -7.3163 0
M  V30 2408 H 235.223 3.08282 -7.15949 0
M  V30 2409 N 239.452 1.56882 -0.150215 0
M  V30 2410 C 240.863 1.82995 0.370076 0
M  V30 2411 C 241.214 1.06907 1.64515 0
M  V30 2412 O 240.339 0.315369 2.1409 0
M  V30 2413 C 240.934 3.31942 0.678208 0
M  V30 2414 C 239.493 3.58625 1.14301 0
M  V30 2415 C 238.64 2.76792 0.167778 0
M  V30 2416 H 241.591 1.54209 -0.374858 0
M  V30 2417 H 241.612 3.48272 1.53254 0
M  V30 2418 H 241.124 3.87294 -0.249991 0
M  V30 2419 H 239.225 3.08664 2.08704 0
M  V30 2420 H 239.338 4.67073 1.06676 0
M  V30 2421 H 237.702 2.45972 0.661037 0
M  V30 2422 H 238.485 3.34916 -0.754069 0
M  V30 2423 N 240.93 -0.123565 1.57115 0
M  V30 2424 C 242.17 -0.838097 1.86428 0
M  V30 2425 C 242.534 -1.77266 0.737611 0
M  V30 2426 O 243.735 -2.52842 0.912389 0
M  V30 2427 C 242.006 -1.57219 3.20962 0
M  V30 2428 S 243.565 -2.32893 3.71896 0
M  V30 2429 H 240.383 -0.279811 0.653626 0
M  V30 2430 H 242.985 -0.0967034 1.95261 0
M  V30 2431 H 241.689 -0.877522 4.00909 0
M  V30 2432 H 241.22 -2.35405 3.15195 0
M  V30 2433 H 243.235 -3.5853 3.43032 0
M  V30 2434 N 242.408 -1.52605 -0.393616 0
M  V30 2435 C 243.371 -1.76415 -1.46323 0
M  V30 2436 C 244.371 -0.634126 -1.47768 0
M  V30 2437 O 245.561 -0.902142 -1.4902 0
M  V30 2438 C 242.693 -1.8607 -2.85641 0
M  V30 2439 H 243.886 -2.71916 -1.26498 0
M  V30 2440 H 241.439 -1.43257 -0.625073 0
M  V30 2441 H 242.174 -0.925378 -3.10817 0
M  V30 2442 H 241.959 -2.68235 -2.85993 0
M  V30 2443 H 243.449 -2.06179 -3.63153 0
M  V30 2444 N 243.887 0.651787 -1.4349 0
M  V30 2445 C 245.298 1.233 -1.40193 0
M  V30 2446 C 245.649 1.9591 -0.106727 0
M  V30 2447 O 244.774 2.01316 0.793773 0
M  V30 2448 C 245.369 2.24257 -2.53957 0
M  V30 2449 C 243.928 2.77852 -2.5392 0
M  V30 2450 C 243.075 1.52517 -2.3159 0
M  V30 2451 H 246.026 0.443717 -1.52371 0
M  V30 2452 H 246.047 3.0646 -2.25528 0
M  V30 2453 H 245.559 1.71382 -3.4821 0
M  V30 2454 H 243.66 3.34786 -1.63551 0
M  V30 2455 H 243.773 3.25299 -3.51735 0
M  V30 2456 H 242.137 1.79915 -1.80285 0
M  V30 2457 H 242.92 1.01574 -3.27929 0
M  V30 2458 N 245.365 1.30045 0.890287 0
M  V30 2459 C 246.613 1.18327 1.63839 0
M  V30 2460 C 246.934 -0.263455 1.93212 0
M  V30 2461 O 246.204 -1.17856 1.56482 0
M  V30 2462 H 244.784 0.434933 0.607324 0
M  V30 2463 H 247.446 1.631 1.06698 0
M  V30 2464 H 246.542 1.74024 2.59079 0
M  V30 2465 N 246.843 -1.10192 1.12674 0
M  V30 2466 C 248.071 -1.85983 0.906527 0
M  V30 2467 C 248.486 -1.80783 -0.544333 0
M  V30 2468 O 247.843 -1.19834 -1.37645 0
M  V30 2469 C 247.894 -3.34281 1.37618 0
M  V30 2470 O 247.615 -3.39401 2.77017 0
M  V30 2471 C 249.116 -4.26938 1.19325 0
M  V30 2472 H 246.336 -0.587716 0.323775 0
M  V30 2473 H 248.88 -1.39284 1.49734 0
M  V30 2474 H 247.035 -3.78436 0.828539 0
M  V30 2475 H 247.449 -4.31838 2.97684 0
M  V30 2476 H 248.923 -5.29181 1.57071 0
M  V30 2477 H 249.4 -4.38995 0.134097 0
M  V30 2478 H 250.006 -3.8859 1.72852 0
M  V30 2479 N 248.321 -0.919034 -1.28029 0
M  V30 2480 C 249.568 -0.554934 -1.94748 0
M  V30 2481 C 249.896 0.90231 -1.72304 0
M  V30 2482 O 249.151 1.65767 -1.04018 0
M  V30 2483 C 249.45 -0.816855 -3.4794 0
M  V30 2484 C 249.116 -2.25448 -3.90492 0
M  V30 2485 C 247.778 -2.64752 -4.01821 0
M  V30 2486 C 250.13 -3.18977 -4.12193 0
M  V30 2487 C 247.458 -3.96727 -4.32232 0
M  V30 2488 C 249.81 -4.50523 -4.44086 0
M  V30 2489 C 248.474 -4.89673 -4.53626 0
M  V30 2490 H 247.744 -0.203065 -0.712633 0
M  V30 2491 H 250.391 -1.16136 -1.52265 0
M  V30 2492 H 248.696 -0.127677 -3.91592 0
M  V30 2493 H 250.393 -0.514238 -3.97689 0
M  V30 2494 H 246.983 -1.93952 -3.82205 0
M  V30 2495 H 251.167 -2.89817 -4.02889 0
M  V30 2496 H 246.423 -4.26754 -4.37825 0
M  V30 2497 H 250.597 -5.23005 -4.59825 0
M  V30 2498 H 248.224 -5.91969 -4.76946 0
M  V30 2499 N 249.799 1.42003 -0.683588 0
M  V30 2500 C 251.024 2.06265 -0.216647 0
M  V30 2501 C 251.449 1.51059 1.12083 0
M  V30 2502 O 250.807 0.632638 1.69904 0
M  V30 2503 C 250.855 3.60191 -0.171759 0
M  V30 2504 O 249.959 4.03396 0.857069 0
M  V30 2505 H 249.3 0.65502 -0.108834 0
M  V30 2506 H 251.83 1.81982 -0.935077 0
M  V30 2507 H 251.84 4.08 0.0014303 0
M  V30 2508 H 250.515 3.99743 -1.14796 0
M  V30 2509 H 249.092 3.67117 0.654208 0
M  V30 2510 N 251.277 0.427512 1.51691 0
M  V30 2511 C 252.225 -0.403359 2.29076 0
M  V30 2512 C 253.219 -1.02962 1.34518 0
M  V30 2513 O 254.425 -0.965715 1.51901 0
M  V30 2514 H 250.8 -0.148879 0.737115 0
M  V30 2515 H 252.771 0.270295 2.97173 0
M  V30 2516 C 251.52 -1.49763 3.13794 0
M  V30 2517 H 250.843 -1.02508 3.86435 0
M  V30 2518 H 252.283 -2.05244 3.71014 0
M  V30 2519 C 250.742 -2.47536 2.28533 0
M  V30 2520 O 251.272 -3.51848 1.93819 0
M  V30 2521 N 249.478 -2.18187 1.91945 0
M  V30 2522 H 249.025 -1.33389 2.20375 0
M  V30 2523 H 248.983 -2.83848 1.35195 0
M  V30 2524 N 252.755 -1.56801 0.158532 0
M  V30 2525 C 253.983 -2.00859 -0.496303 0
M  V30 2526 C 254.398 -1.03871 -1.57659 0
M  V30 2527 O 253.755 -0.0375165 -1.82461 0
M  V30 2528 C 253.806 -3.4479 -1.08638 0
M  V30 2529 O 253.527 -4.38072 -0.0492322 0
M  V30 2530 C 255.028 -4.04185 -1.8207 0
M  V30 2531 H 252.248 -0.65864 -0.128199 0
M  V30 2532 H 254.792 -2.02885 0.256506 0
M  V30 2533 H 252.947 -3.43579 -1.78975 0
M  V30 2534 H 253.361 -5.2227 -0.483102 0
M  V30 2535 H 254.835 -5.06857 -2.18633 0
M  V30 2536 H 255.312 -3.45549 -2.71095 0
M  V30 2537 H 255.918 -4.0906 -1.16405 0
M  V30 2538 N 254.233 0.115231 -1.57178 0
M  V30 2539 C 255.461 0.836437 -1.89239 0
M  V30 2540 C 255.876 1.73256 -0.750175 0
M  V30 2541 O 255.233 1.80357 0.278832 0
M  V30 2542 C 255.284 1.66671 -3.20785 0
M  V30 2543 O 255.005 0.806652 -4.3061 0
M  V30 2544 C 256.506 2.49274 -3.66575 0
M  V30 2545 H 253.726 0.240253 -0.626514 0
M  V30 2546 H 256.27 0.0984932 -2.04263 0
M  V30 2547 H 254.425 2.35737 -3.0742 0
M  V30 2548 H 254.839 1.37969 -5.06028 0
M  V30 2549 H 256.313 3.03055 -4.6137 0
M  V30 2550 H 256.79 3.26807 -2.93417 0
M  V30 2551 H 257.396 1.85443 -3.82741 0
M  V30 2552 N 255.711 1.52812 0.385517 0
M  V30 2553 C 256.936 1.72207 1.15583 0
M  V30 2554 C 257.361 0.441034 1.82857 0
M  V30 2555 O 256.719 -0.603465 1.70962 0
M  V30 2556 C 256.767 2.87476 2.17692 0
M  V30 2557 O 255.871 2.54693 3.24354 0
M  V30 2558 H 255.212 0.572526 0.336319 0
M  V30 2559 H 257.742 1.99618 0.448744 0
M  V30 2560 H 257.752 3.13072 2.6163 0
M  V30 2561 H 256.427 3.80408 1.68115 0
M  V30 2562 H 255.004 2.3985 2.85529 0
M  V30 2563 N 257.189 -0.644168 1.43834 0
M  V30 2564 C 258.414 -1.43642 1.49605 0
M  V30 2565 C 258.839 -1.8773 0.117913 0
M  V30 2566 O 258.197 -1.57938 -0.890239 0
M  V30 2567 C 258.245 -2.6416 2.45463 0
M  V30 2568 O 257.349 -3.63538 1.94714 0
M  V30 2569 H 256.69 -0.430329 0.50568 0
M  V30 2570 H 259.22 -0.787448 1.8884 0
M  V30 2571 H 259.23 -3.11864 2.63068 0
M  V30 2572 H 257.905 -2.31414 3.45572 0
M  V30 2573 H 256.482 -3.2273 1.86814 0
M  V30 2574 N 258.668 -1.30515 -0.883378 0
M  V30 2575 C 259.896 -1.22359 -1.66841 0
M  V30 2576 C 260.311 0.213296 -1.87591 0
M  V30 2577 O 259.668 1.14075 -1.42454 0
M  V30 2578 C 259.719 -1.95011 -3.04389 0
M  V30 2579 O 259.44 -3.3309 -2.84575 0
M  V30 2580 C 260.941 -1.93532 -3.98824 0
M  V30 2581 H 258.161 -0.423371 -0.520575 0
M  V30 2582 H 260.705 -1.72167 -1.10357 0
M  V30 2583 H 258.86 -1.48997 -3.57601 0
M  V30 2584 H 259.274 -3.69907 -3.71846 0
M  V30 2585 H 260.748 -2.48902 -4.92699 0
M  V30 2586 H 261.225 -0.914627 -4.29571 0
M  V30 2587 H 261.831 -2.39364 -3.51547 0
M  V30 2588 N 260.146 1.09593 -1.13257 0
M  V30 2589 C 261.423 1.78293 -0.804432 0
M  V30 2590 C 261.803 1.99004 0.70431 0
M  V30 2591 O 261.151 1.59007 1.641 0
M  V30 2592 C 261.361 3.10707 -1.5894 0
M  V30 2593 C 262.709 3.85443 -1.78099 0
M  V30 2594 O 263.733 3.20454 -1.55525 0
M  V30 2595 O 262.592 5.02108 -2.15753 0
M  V30 2596 H 259.686 0.773156 -0.293528 0
M  V30 2597 H 262.232 1.16164 -1.23709 0
M  V30 2598 H 261.004 2.91106 -2.61482 0
M  V30 2599 H 260.627 3.80558 -1.15157 0
M  V30 2600 N 261.624 0.925811 1.2754 0
M  V30 2601 C 262.873 0.561084 1.93739 0
M  V30 2602 C 263.186 -0.901685 1.73577 0
M  V30 2603 O 264.392 -1.37511 2.34101 0
M  V30 2604 C 262.848 0.952668 3.47062 0
M  V30 2605 C 262.456 2.43599 3.75983 0
M  V30 2606 C 264.2 0.659103 4.19352 0
M  V30 2607 C 262.107 2.76707 5.22673 0
M  V30 2608 H 261.037 0.206122 0.725279 0
M  V30 2609 H 263.688 1.12637 1.44863 0
M  V30 2610 H 262.07 0.316053 3.94737 0
M  V30 2611 H 263.244 3.12035 3.39073 0
M  V30 2612 H 261.559 2.70125 3.16893 0
M  V30 2613 H 264.156 0.882985 5.27359 0
M  V30 2614 H 264.499 -0.403607 4.14339 0
M  V30 2615 H 265.032 1.25473 3.77494 0
M  V30 2616 H 261.771 3.8188 5.32774 0
M  V30 2617 H 261.291 2.12919 5.60737 0
M  V30 2618 H 262.97 2.6435 5.90532 0
M  V30 2619 N 263.102 -1.41638 0.69111 0
M  V30 2620 C 264.342 -2.03166 0.224291 0
M  V30 2621 C 264.706 -1.53537 -1.15284 0
M  V30 2622 O 265.907 -2.0696 -1.71525 0
M  V30 2623 C 264.178 -3.56342 0.274758 0
M  V30 2624 S 265.737 -4.3864 -0.118669 0
M  V30 2625 H 262.555 -0.705188 0.0907263 0
M  V30 2626 H 265.157 -1.7314 0.907895 0
M  V30 2627 H 263.861 -3.89958 1.2791 0
M  V30 2628 H 263.392 -3.91063 -0.428142 0
M  V30 2629 H 265.407 -4.77549 -1.34764 0
M  V30 2630 N 264.58 -0.43555 -1.51462 0
M  V30 2631 C 265.996 -0.0877501 -1.59359 0
M  V30 2632 C 266.196 1.4027 -1.4466 0
M  V30 2633 O 265.252 2.17243 -1.28693 0
M  V30 2634 C 266.565 -0.606264 -2.94525 0
M  V30 2635 C 268.113 -0.566548 -3.0783 0
M  V30 2636 C 268.588 -1.06201 -4.45517 0
M  V30 2637 N 270.079 -1.01992 -4.51832 0
M  V30 2638 C 270.814 -1.37417 -5.5669 0
M  V30 2639 N 270.31 -1.80119 -6.68976 0
M  V30 2640 N 272.103 -1.29245 -5.47039 0
M  V30 2641 H 264.254 -1.40533 -1.59261 0
M  V30 2642 H 266.517 -0.578992 -0.750648 0
M  V30 2643 H 266.223 -1.64901 -3.10645 0
M  V30 2644 H 266.097 -0.0302097 -3.77188 0
M  V30 2645 H 268.484 0.467208 -2.91378 0
M  V30 2646 H 268.565 -1.17898 -2.2701 0
M  V30 2647 H 268.209 -2.09422 -4.62715 0
M  V30 2648 H 268.139 -0.426127 -5.24873 0
M  V30 2649 H 270.63 -0.706308 -3.71241 0
M  V30 2650 H 270.943 -2.05392 -7.45006 0
M  V30 2651 H 269.288 -1.84044 -6.70189 0
M  V30 2652 H 272.479 -0.957522 -4.58202 0
M  V30 2653 H 272.652 -1.57182 -6.28648 0
M  V30 2654 N 266.058 1.56714 -0.166846 0
M  V30 2655 C 267.469 1.83378 0.350646 0
M  V30 2656 C 267.82 1.08646 1.63372 0
M  V30 2657 O 266.945 0.338058 2.13743 0
M  V30 2658 C 267.54 3.32643 0.642963 0
M  V30 2659 C 266.099 3.59818 1.10491 0
M  V30 2660 C 265.246 2.76954 0.138411 0
M  V30 2661 H 268.197 1.53803 -0.391193 0
M  V30 2662 H 268.218 3.49878 1.49551 0
M  V30 2663 H 267.73 3.87007 -0.291055 0
M  V30 2664 H 265.831 3.1086 2.05418 0
M  V30 2665 H 265.944 4.68178 1.01716 0
M  V30 2666 H 264.308 2.4666 0.634911 0
M  V30 2667 H 265.091 3.34097 -0.789549 0
M  V30 2668 N 267.536 -0.106894 1.57237 0
M  V30 2669 C 268.486 -1.1366 1.9765 0
M  V30 2670 C 269.47 -1.36416 0.853203 0
M  V30 2671 O 270.662 -1.37305 1.11697 0
M  V30 2672 C 267.791 -2.46 2.39455 0
M  V30 2673 C 266.877 -2.26668 3.58445 0
M  V30 2674 N 267.268 -1.77176 4.73754 0
M  V30 2675 C 265.566 -2.57279 3.64312 0
M  V30 2676 C 266.267 -1.71836 5.5574 0
M  V30 2677 N 265.243 -2.16623 4.98573 0
M  V30 2678 H 269.045 -0.74669 2.84256 0
M  V30 2679 H 266.559 -0.314483 1.59326 0
M  V30 2680 H 268.556 -3.2049 2.6663 0
M  V30 2681 H 267.216 -2.85738 1.54219 0
M  V30 2682 H 268.227 -1.46545 4.96734 0
M  V30 2683 H 264.904 -3.00622 2.89711 0
M  V30 2684 H 266.294 -1.34723 6.58255 0
M  V30 2685 N 269.014 -1.53014 -0.377408 0
M  V30 2686 C 269.946 -1.74884 -1.48149 0
M  V30 2687 C 270.959 -0.629433 -1.5014 0
M  V30 2688 O 272.148 -0.905416 -1.53833 0
M  V30 2689 C 269.248 -1.80299 -2.86959 0
M  V30 2690 C 268.421 -3.09776 -3.08801 0
M  V30 2691 C 267.48 -3.06586 -4.27658 0
M  V30 2692 O 266.506 -3.80419 -4.23403 0
M  V30 2693 N 267.708 -2.26578 -5.34455 0
M  V30 2694 H 270.473 -2.70147 -1.29771 0
M  V30 2695 H 268.034 -1.51646 -0.56703 0
M  V30 2696 H 270.026 -1.75657 -3.64591 0
M  V30 2697 H 268.596 -0.92372 -2.98641 0
M  V30 2698 H 267.816 -3.27815 -2.18931 0
M  V30 2699 H 269.104 -3.95366 -3.20255 0
M  V30 2700 H 268.502 -1.66081 -5.40771 0
M  V30 2701 H 267.059 -2.27766 -6.10709 0
M  V30 2702 N 270.492 0.636531 -1.44174 0
M  V30 2703 C 271.741 1.39213 -1.45954 0
M  V30 2704 C 272.054 1.95374 -0.0939119 0
M  V30 2705 O 273.26 2.71498 0.0107767 0
M  V30 2706 C 271.716 2.52025 -2.56927 0
M  V30 2707 C 271.324 2.024 -3.99673 0
M  V30 2708 C 273.068 3.29269 -2.67922 0
M  V30 2709 C 270.975 3.12521 -5.0208 0
M  V30 2710 H 269.905 0.523132 -0.542999 0
M  V30 2711 H 272.556 0.685349 -1.70221 0
M  V30 2712 H 270.938 3.25253 -2.25891 0
M  V30 2713 H 272.112 1.36073 -4.40251 0
M  V30 2714 H 270.427 1.37987 -3.92872 0
M  V30 2715 H 273.024 4.11352 -3.41605 0
M  V30 2716 H 273.367 3.78397 -1.73555 0
M  V30 2717 H 273.9 2.63129 -2.98342 0
M  V30 2718 H 270.639 2.68343 -5.98057 0
M  V30 2719 H 270.159 3.77507 -4.66099 0
M  V30 2720 H 271.838 3.77385 -5.25538 0
M  V30 2721 N 271.97 1.30982 0.876444 0
M  V30 2722 C 273.21 1.21589 1.64303 0
M  V30 2723 C 273.574 -0.223962 1.90689 0
M  V30 2724 O 274.775 -0.44128 2.65153 0
M  V30 2725 C 273.046 2.03007 2.94148 0
M  V30 2726 S 274.605 2.10405 3.85065 0
M  V30 2727 H 271.423 0.433161 0.563819 0
M  V30 2728 H 274.025 1.65565 1.03964 0
M  V30 2729 H 272.729 3.06719 2.72675 0
M  V30 2730 H 272.26 1.59725 3.59515 0
M  V30 2731 H 274.275 1.23765 4.80517 0
M  V30 2732 N 273.449 -1.08991 1.13837 0
M  V30 2733 C 274.397 -2.17841 0.815347 0
M  V30 2734 C 275.391 -1.68164 -0.204233 0
M  V30 2735 O 276.597 -1.79897 -0.0609304 0
M  V30 2736 H 272.972 -0.710654 0.245915 0
M  V30 2737 H 274.943 -2.42315 1.74143 0
M  V30 2738 C 273.692 -3.46381 0.302614 0
M  V30 2739 H 273.015 -3.84979 1.0785 0
M  V30 2740 H 274.455 -4.23844 0.115074 0
M  V30 2741 C 272.914 -3.22556 -0.972591 0
M  V30 2742 O 273.444 -3.45599 -2.04754 0
M  V30 2743 N 271.65 -2.76134 -0.905455 0
M  V30 2744 H 271.197 -2.57582 -0.0305421 0
M  V30 2745 H 271.155 -2.60571 -1.75926 0
M  V30 2746 N 274.927 -0.932562 -1.27047 0
M  V30 2747 C 276.173 -0.576412 -1.94436 0
M  V30 2748 C 276.506 0.880891 -1.73072 0
M  V30 2749 O 275.781 1.62905 -1.06264 0
M  V30 2750 C 276.064 -0.909031 -3.48437 0
M  V30 2751 C 275.917 -2.42044 -3.79123 0
M  V30 2752 C 277.236 -0.418341 -4.38107 0
M  V30 2753 H 274.355 -0.210888 -0.706184 0
M  V30 2754 H 276.997 -1.16522 -1.50075 0
M  V30 2755 H 275.147 -0.407947 -3.86352 0
M  V30 2756 H 276.819 -2.99359 -3.50973 0
M  V30 2757 H 275.062 -2.86758 -3.25503 0
M  V30 2758 H 275.733 -2.6037 -4.86736 0
M  V30 2759 H 278.209 -0.847856 -4.0737 0
M  V30 2760 H 277.085 -0.679981 -5.44672 0
M  V30 2761 H 277.346 0.681642 -4.36814 0
M  V30 2762 N 276.405 1.4127 -0.698611 0
M  V30 2763 C 277.651 2.01478 -0.231207 0
M  V30 2764 C 277.984 1.55215 1.16713 0
M  V30 2765 O 277.259 0.764672 1.78838 0
M  V30 2766 C 277.542 3.58912 -0.292281 0
M  V30 2767 C 277.395 4.15293 -1.72778 0
M  V30 2768 C 278.714 4.38736 0.346194 0
M  V30 2769 H 275.833 0.732025 -0.0854878 0
M  V30 2770 H 278.475 1.67977 -0.887906 0
M  V30 2771 H 276.625 3.87582 0.26686 0
M  V30 2772 H 278.297 3.97486 -2.341 0
M  V30 2773 H 276.54 3.7022 -2.26096 0
M  V30 2774 H 277.211 5.24452 -1.72202 0
M  V30 2775 H 279.687 4.15897 -0.130035 0
M  V30 2776 H 278.563 5.48221 0.272932 0
M  V30 2777 H 278.824 4.18425 1.42734 0
M  V30 2778 N 277.883 0.443576 1.51229 0
M  V30 2779 C 278.846 -0.353132 2.26463 0
M  V30 2780 C 279.846 -0.944338 1.3015 0
M  V30 2781 O 281.036 -0.817813 1.5381 0
M  V30 2782 C 278.168 -1.50023 3.06114 0
M  V30 2783 H 279.361 0.3063 2.98332 0
M  V30 2784 H 276.914 0.196902 1.55055 0
M  V30 2785 H 277.649 -2.19553 2.38677 0
M  V30 2786 H 277.434 -1.08241 3.76864 0
M  V30 2787 H 278.924 -2.06296 3.63087 0
M  V30 2788 N 279.361 -1.56624 0.175154 0
M  V30 2789 C 280.61 -1.96173 -0.468921 0
M  V30 2790 C 280.923 -1.06401 -1.64128 0
M  V30 2791 O 282.129 -1.35648 -2.35185 0
M  V30 2792 C 280.585 -3.48833 -0.885633 0
M  V30 2793 C 280.193 -4.47237 0.261343 0
M  V30 2794 C 281.937 -3.97194 -1.49791 0
M  V30 2795 C 279.844 -5.9114 -0.175214 0
M  V30 2796 H 278.774 -0.732455 -0.178958 0
M  V30 2797 H 281.425 -1.81591 0.263997 0
M  V30 2798 H 279.807 -3.58848 -1.67464 0
M  V30 2799 H 280.981 -4.4894 1.03871 0
M  V30 2800 H 279.296 -4.08956 0.783827 0
M  V30 2801 H 281.893 -5.02167 -1.83665 0
M  V30 2802 H 282.236 -3.40351 -2.39722 0
M  V30 2803 H 282.769 -3.90212 -0.773267 0
M  V30 2804 H 279.508 -6.51865 0.689414 0
M  V30 2805 H 279.028 -5.92735 -0.91786 0
M  V30 2806 H 280.707 -6.44044 -0.617792 0
M  V30 2807 N 280.839 0.0985539 -1.57292 0
M  V30 2808 C 282.25 0.653457 -1.74891 0
M  V30 2809 C 282.601 1.7929 -0.796838 0
M  V30 2810 O 281.726 2.16385 0.0254886 0
M  V30 2811 C 282.321 1.19216 -3.17133 0
M  V30 2812 C 280.88 1.69316 -3.36168 0
M  V30 2813 C 280.027 0.601294 -2.70702 0
M  V30 2814 H 282.978 -0.127497 -1.58187 0
M  V30 2815 H 282.999 2.06154 -3.19814 0
M  V30 2816 H 282.511 0.362635 -3.86402 0
M  V30 2817 H 280.612 2.5468 -2.71972 0
M  V30 2818 H 280.725 1.78853 -4.44464 0
M  V30 2819 H 279.089 1.0399 -2.32504 0
M  V30 2820 H 279.872 -0.217592 -3.4261 0
M  V30 2821 N 282.317 1.53212 0.369288 0
M  V30 2822 C 283.565 1.68881 1.11012 0
M  V30 2823 C 283.886 0.441285 1.89941 0
M  V30 2824 O 283.156 -0.544623 1.88177 0
M  V30 2825 H 281.736 0.622569 0.412816 0
M  V30 2826 H 284.398 1.90391 0.416802 0
M  V30 2827 H 283.494 2.54822 1.80201 0
M  V30 2828 N 283.795 -0.628877 1.44509 0
M  V30 2829 C 284.743 -1.76193 1.51852 0
M  V30 2830 C 285.737 -1.64849 0.390042 0
M  V30 2831 O 286.943 -1.709 0.565082 0
M  V30 2832 H 283.318 -0.581728 0.476547 0
M  V30 2833 H 285.289 -1.67123 2.47209 0
M  V30 2834 C 284.038 -3.14533 1.48204 0
M  V30 2835 H 283.361 -3.23911 2.34354 0
M  V30 2836 H 284.801 -3.93701 1.57402 0
M  V30 2837 C 283.26 -3.36287 0.203142 0
M  V30 2838 O 283.79 -3.9509 -0.725745 0
M  V30 2839 N 281.996 -2.90408 0.105563 0
M  V30 2840 H 281.543 -2.42739 0.862301 0
M  V30 2841 H 281.501 -3.05339 -0.749371 0
M  V30 2842 N 285.273 -1.31445 -0.869486 0
M  V30 2843 C 286.236 -1.19094 -1.9583 0
M  V30 2844 C 287.236 -0.117906 -1.60367 0
M  V30 2845 O 288.426 -0.367208 -1.70286 0
M  V30 2846 C 285.558 -0.828165 -3.30688 0
M  V30 2847 H 286.751 -2.15842 -2.08212 0
M  V30 2848 H 284.304 -1.15063 -1.05784 0
M  V30 2849 H 285.039 0.138142 -3.24006 0
M  V30 2850 H 284.824 -1.6038 -3.578 0
M  V30 2851 H 286.314 -0.765658 -4.10521 0
M  V30 2852 N 286.751 1.08385 -1.14413 0
M  V30 2853 C 287.976 1.85057 -0.936413 0
M  V30 2854 C 288.401 1.81055 0.509971 0
M  V30 2855 O 287.759 1.1958 1.36273 0
M  V30 2856 C 287.807 3.30505 -1.44217 0
M  V30 2857 O 286.911 4.07491 -0.634409 0
M  V30 2858 H 286.252 0.573425 -0.334784 0
M  V30 2859 H 288.782 1.36799 -1.52142 0
M  V30 2860 H 288.792 3.81348 -1.45043 0
M  V30 2861 H 287.467 3.32734 -2.49522 0
M  V30 2862 H 286.044 3.66368 -0.694902 0
M  V30 2863 N 288.23 0.939286 1.26551 0
M  V30 2864 C 289.163 0.391702 2.24813 0
M  V30 2865 C 290.141 -0.518421 1.54114 0
M  V30 2866 O 291.325 -0.456299 1.82894 0
M  V30 2867 C 288.452 -0.437382 3.35864 0
M  V30 2868 C 287.498 0.410946 4.24516 0
M  V30 2869 S 288.331 1.83372 5.03125 0
M  V30 2870 C 289.487 1.01264 6.17654 0
M  V30 2871 H 289.72 1.22448 2.70913 0
M  V30 2872 H 287.253 0.742269 1.35387 0
M  V30 2873 H 289.211 -0.909837 4.0029 0
M  V30 2874 H 287.872 -1.24482 2.8838 0
M  V30 2875 H 287.065 -0.224191 5.03501 0
M  V30 2876 H 286.667 0.818014 3.64945 0
M  V30 2877 H 288.959 0.254023 6.77024 0
M  V30 2878 H 289.902 1.77589 6.85469 0
M  V30 2879 H 290.31 0.549532 5.61819 0
M  V30 2880 N 289.708 -1.40897 0.706093 0
M  V30 2881 C 290.985 -1.94868 0.169099 0
M  V30 2882 C 291.365 -1.64485 -1.32318 0
M  V30 2883 O 290.713 -0.95744 -2.07474 0
M  V30 2884 C 290.923 -3.45798 0.471654 0
M  V30 2885 C 292.271 -4.22663 0.405127 0
M  V30 2886 O 293.295 -3.53865 0.407168 0
M  V30 2887 O 292.154 -5.45216 0.374383 0
M  V30 2888 H 289.248 -0.82673 0.0211352 0
M  V30 2889 H 291.794 -1.50558 0.782976 0
M  V30 2890 H 290.566 -3.61235 1.50416 0
M  V30 2891 H 290.189 -3.97225 -0.172666 0
M  V30 2892 N 291.186 -0.45159 -1.50991 0
M  V30 2893 C 292.149 0.341117 -2.26647 0
M  V30 2894 C 293.149 0.937422 -1.30649 0
M  V30 2895 O 294.339 0.809644 -1.54241 0
M  V30 2896 C 291.471 1.48398 -3.06905 0
M  V30 2897 H 292.664 -0.322117 -2.98165 0
M  V30 2898 H 290.217 -0.205122 -1.54948 0
M  V30 2899 H 290.952 2.18284 -2.39838 0
M  V30 2900 H 290.737 1.06241 -3.77432 0
M  V30 2901 H 292.227 2.04367 -3.64176 0
M  V30 2902 N 292.664 1.56529 -0.183458 0
M  V30 2903 C 293.91 1.97537 0.459036 0
M  V30 2904 C 294.243 1.06989 1.62071 0
M  V30 2905 O 293.518 0.11948 1.94133 0
M  V30 2906 C 293.801 3.47874 0.930368 0
M  V30 2907 C 293.654 4.492 -0.232317 0
M  V30 2908 C 294.973 4.01612 1.79989 0
M  V30 2909 H 292.092 0.718204 0.165383 0
M  V30 2910 H 294.734 1.88042 -0.272038 0
M  V30 2911 H 292.884 3.56095 1.55333 0
M  V30 2912 H 294.556 4.53027 -0.86972 0
M  V30 2913 H 292.799 4.24657 -0.885928 0
M  V30 2914 H 293.47 5.51823 0.139796 0
M  V30 2915 H 295.946 3.96097 1.27461 0
M  V30 2916 H 294.822 5.07195 2.09867 0
M  V30 2917 H 295.083 3.46163 2.74998 0
M  V30 2918 N 294.142 -0.090211 1.57342 0
M  V30 2919 C 295.382 -0.798365 1.88163 0
M  V30 2920 C 295.746 -1.75662 0.775046 0
M  V30 2921 O 296.947 -2.50849 0.965816 0
M  V30 2922 C 295.218 -1.50376 3.24225 0
M  V30 2923 S 296.777 -2.24952 3.76752 0
M  V30 2924 H 293.595 -0.265883 0.659414 0
M  V30 2925 H 296.197 -0.055264 1.95422 0
M  V30 2926 H 294.901 -0.792286 4.0268 0
M  V30 2927 H 294.432 -2.28666 3.20118 0
M  V30 2928 H 296.447 -3.51173 3.5056 0
M  V30 2929 N 295.62 -1.53406 -0.361157 0
M  V30 2930 C 296.848 -1.73717 -1.12383 0
M  V30 2931 C 297.263 -0.468161 -1.82904 0
M  V30 2932 O 296.62 0.559198 -1.73722 0
M  V30 2933 C 296.671 -2.90558 -2.15078 0
M  V30 2934 O 296.392 -4.12549 -1.47428 0
M  V30 2935 C 297.893 -3.22777 -3.03858 0
M  V30 2936 H 295.113 -0.580896 -0.335858 0
M  V30 2937 H 297.657 -2.00167 -0.418728 0
M  V30 2938 H 295.812 -2.66489 -2.8118 0
M  V30 2939 H 296.226 -4.78009 -2.15887 0
M  V30 2940 H 297.7 -4.07927 -3.71887 0
M  V30 2941 H 298.177 -2.38329 -3.68912 0
M  V30 2942 H 298.783 -3.48787 -2.43367 0
M  V30 2943 N 297.098 0.621204 -1.44841 0
M  V30 2944 C 298.323 1.41244 -1.51871 0
M  V30 2945 C 298.748 1.87519 -0.147764 0
M  V30 2946 O 298.106 1.59334 0.865 0
M  V30 2947 C 298.154 2.60221 -2.49634 0
M  V30 2948 O 297.258 3.60395 -2.00473 0
M  V30 2949 H 296.599 0.42223 -0.512463 0
M  V30 2950 H 299.129 0.757305 -1.90069 0
M  V30 2951 H 299.139 3.0764 -2.67996 0
M  V30 2952 H 297.814 2.25887 -3.4921 0
M  V30 2953 H 296.391 3.19717 -1.91925 0
M  V30 2954 N 298.576 1.31904 0.862503 0
M  V30 2955 C 299.804 1.24998 1.64873 0
M  V30 2956 C 300.219 -0.183425 1.87907 0
M  V30 2957 O 299.576 -1.11794 1.44251 0
M  V30 2958 C 299.627 1.99829 3.01248 0
M  V30 2959 O 299.348 3.37575 2.79239 0
M  V30 2960 C 300.849 1.99852 3.95694 0
M  V30 2961 H 298.069 0.431599 0.513773 0
M  V30 2962 H 300.613 1.73901 1.07604 0
M  V30 2963 H 298.768 1.54668 3.55185 0
M  V30 2964 H 299.182 3.75776 3.65914 0
M  V30 2965 H 300.656 2.56709 4.88676 0
M  V30 2966 H 301.133 0.982852 4.28062 0
M  V30 2967 H 301.739 2.44926 3.47694 0
M  V30 2968 N 300.054 -1.07777 1.14986 0
M  V30 2969 C 301.279 -1.84558 0.946213 0
M  V30 2970 C 301.704 -1.81323 -0.500362 0
M  V30 2971 O 301.062 -1.20301 -1.35637 0
M  V30 2972 C 301.11 -3.29736 1.45968 0
M  V30 2973 O 300.214 -4.07149 0.65601 0
M  V30 2974 H 299.555 -0.571641 0.33782 0
M  V30 2975 H 302.085 -1.35991 1.52865 0
M  V30 2976 H 302.095 -3.80574 1.47063 0
M  V30 2977 H 300.77 -3.31406 2.51283 0
M  V30 2978 H 299.347 -3.65994 0.714322 0
M  V30 2979 N 301.532 -0.945985 -1.26051 0
M  V30 2980 C 302.943 -0.638096 -1.75457 0
M  V30 2981 C 303.294 0.846672 -1.76991 0
M  V30 2982 O 302.419 1.66262 -1.38513 0
M  V30 2983 C 303.014 -1.15157 -3.18629 0
M  V30 2984 C 301.573 -0.894004 -3.65629 0
M  V30 2985 C 300.72 -1.29967 -2.44957 0
M  V30 2986 H 303.671 -1.12376 -1.1206 0
M  V30 2987 H 303.692 -0.507615 -3.77099 0
M  V30 2988 H 303.204 -2.23222 -3.1748 0
M  V30 2989 H 301.305 0.172057 -3.72203 0
M  V30 2990 H 301.418 -1.52439 -4.54202 0
M  V30 2991 H 299.782 -0.718078 -2.44368 0
M  V30 2992 H 300.565 -2.38935 -2.46505 0
M  V30 2993 N 303.011 1.40521 -0.713556 0
M  V30 2994 C 304.239 2.05237 -0.261775 0
M  V30 2995 C 304.654 1.53755 1.09567 0
M  V30 2996 O 304.011 0.693268 1.6882 0
M  V30 2997 C 304.062 3.60763 -0.230706 0
M  V30 2998 O 303.783 4.10345 -1.53455 0
M  V30 2999 C 305.284 4.42651 0.239874 0
M  V30 3000 H 302.504 0.660533 -0.118057 0
M  V30 3001 H 305.048 1.79967 -0.971192 0
M  V30 3002 H 303.203 3.8501 0.429661 0
M  V30 3003 H 303.617 5.04526 -1.43366 0
M  V30 3004 H 305.091 5.51599 0.210468 0
M  V30 3005 H 305.568 4.20082 1.28171 0
M  V30 3006 H 306.174 4.23507 -0.390142 0
M  V30 3007 N 304.489 0.459591 1.5075 0
M  V30 3008 C 305.905 0.113092 1.59199 0
M  V30 3009 C 306.105 -1.37951 1.46874 0
M  V30 3010 O 305.161 -2.15168 1.32132 0
M  V30 3011 C 306.474 0.653043 2.93523 0
M  V30 3012 C 308.022 0.615449 3.0689 0
M  V30 3013 C 308.497 1.13275 4.43771 0
M  V30 3014 N 309.988 1.09167 4.50152 0
M  V30 3015 C 310.723 1.46256 5.54434 0
M  V30 3016 N 310.219 1.90739 6.66026 0
M  V30 3017 N 312.012 1.37932 5.44914 0
M  V30 3018 H 304.163 1.43049 1.57005 0
M  V30 3019 H 306.426 0.590861 0.741341 0
M  V30 3020 H 306.132 1.69822 3.07983 0
M  V30 3021 H 306.006 0.0902132 3.77092 0
M  V30 3022 H 308.393 -0.420793 2.92084 0
M  V30 3023 H 308.474 1.21495 2.25106 0
M  V30 3024 H 308.118 2.16757 4.59324 0
M  V30 3025 H 308.048 0.509576 5.24129 0
M  V30 3026 H 310.539 0.76528 3.7007 0
M  V30 3027 H 310.852 2.17218 7.41644 0
M  V30 3028 H 309.197 1.94683 6.67176 0
M  V30 3029 H 312.388 1.0303 4.56621 0
M  V30 3030 H 312.561 1.67164 6.26067 0
M  V30 3031 N 305.967 -1.56429 0.191757 0
M  V30 3032 C 307.192 -2.02309 -0.456706 0
M  V30 3033 C 307.617 -1.07103 -1.5463 0
M  V30 3034 O 306.975 -0.0539677 -1.8122 0
M  V30 3035 C 307.023 -3.46654 -0.993159 0
M  V30 3036 O 306.127 -3.54559 -2.10622 0
M  V30 3037 H 305.468 -0.655303 -0.107114 0
M  V30 3038 H 307.998 -2.02364 0.301653 0
M  V30 3039 H 308.008 -3.86377 -1.31061 0
M  V30 3040 H 306.683 -4.1544 -0.195504 0
M  V30 3041 H 305.26 -3.26708 -1.79767 0
M  V30 3042 N 307.445 0.0818655 -1.57387 0
M  V30 3043 C 308.378 1.12986 -1.98266 0
M  V30 3044 C 309.356 1.38123 -0.857954 0
M  V30 3045 O 310.54 1.51663 -1.1194 0
M  V30 3046 C 307.667 2.47632 -2.31076 0
M  V30 3047 C 306.713 2.38693 -3.53452 0
M  V30 3048 S 307.546 1.79071 -5.04672 0
M  V30 3049 C 308.702 3.15316 -5.40673 0
M  V30 3050 H 308.935 0.781435 -2.86846 0
M  V30 3051 H 306.468 0.290034 -1.51651 0
M  V30 3052 H 308.426 3.25089 -2.50654 0
M  V30 3053 H 307.087 2.79638 -1.43043 0
M  V30 3054 H 306.28 3.37964 -3.73893 0
M  V30 3055 H 305.882 1.69369 -3.33452 0
M  V30 3056 H 308.174 4.11613 -5.38127 0
M  V30 3057 H 309.117 2.99664 -6.41566 0
M  V30 3058 H 309.525 3.15457 -4.68132 0
M  V30 3059 N 308.923 1.53595 0.353017 0
M  V30 3060 C 309.886 1.80232 1.41594 0
M  V30 3061 C 310.886 0.673081 1.46035 0
M  V30 3062 O 312.076 0.941335 1.46576 0
M  V30 3063 C 309.208 1.93578 2.80607 0
M  V30 3064 H 310.401 2.75174 1.19244 0
M  V30 3065 H 307.954 1.44864 0.586872 0
M  V30 3066 H 308.689 1.00746 3.08254 0
M  V30 3067 H 308.474 2.75724 2.78781 0
M  V30 3068 H 309.964 2.15735 3.57558 0
M  V30 3069 N 310.401 -0.613514 1.45168 0
M  V30 3070 C 311.812 -1.19539 1.43413 0
M  V30 3071 C 312.163 -1.95558 0.158632 0
M  V30 3072 O 311.288 -2.0335 -0.740119 0
M  V30 3073 C 311.883 -2.17445 2.59813 0
M  V30 3074 C 310.442 -2.71022 2.61197 0
M  V30 3075 C 309.589 -1.46323 2.35552 0
M  V30 3076 H 312.54 -0.403163 1.53494 0
M  V30 3077 H 312.561 -3.00373 2.33574 0
M  V30 3078 H 312.073 -1.62089 3.52631 0
M  V30 3079 H 310.174 -3.30332 1.7237 0
M  V30 3080 H 310.287 -3.15859 3.60236 0
M  V30 3081 H 308.651 -1.75072 1.84992 0
M  V30 3082 H 309.434 -0.92844 3.30507 0
M  V30 3083 N 311.879 -1.3236 -0.855495 0
M  V30 3084 C 313.127 -1.22629 -1.60644 0
M  V30 3085 C 313.448 0.212136 -1.93843 0
M  V30 3086 O 312.718 1.13666 -1.59552 0
M  V30 3087 H 311.298 -0.450882 -0.595579 0
M  V30 3088 H 313.96 -1.65871 -1.02337 0
M  V30 3089 H 313.056 -1.80832 -2.54374 0
M  V30 3090 N 313.357 1.07166 -1.15556 0
M  V30 3091 C 314.32 2.12589 -0.856644 0
M  V30 3092 C 315.32 1.6015 0.14444 0
M  V30 3093 O 316.51 1.7399 -0.0854163 0
M  V30 3094 C 313.642 3.39753 -0.279405 0
M  V30 3095 H 314.835 2.40539 -1.79112 0
M  V30 3096 H 312.388 1.23086 -0.963298 0
M  V30 3097 H 313.123 3.17447 0.663174 0
M  V30 3098 H 312.908 3.79117 -1.00063 0
M  V30 3099 H 314.398 4.17507 -0.0879113 0
M  V30 3100 N 314.835 0.952656 1.25548 0
M  V30 3101 C 316.081 0.607272 1.93494 0
M  V30 3102 C 316.414 -0.853245 1.74452 0
M  V30 3103 O 315.689 -1.61194 1.08843 0
M  V30 3104 C 315.972 0.96435 3.46947 0
M  V30 3105 C 315.825 2.48045 3.75225 0
M  V30 3106 C 317.144 0.487987 4.37386 0
M  V30 3107 H 314.263 0.222096 0.702739 0
M  V30 3108 H 316.905 1.18895 1.48203 0
M  V30 3109 H 315.055 0.469361 3.85654 0
M  V30 3110 H 316.727 3.04905 3.46166 0
M  V30 3111 H 314.97 2.919 3.209 0
M  V30 3112 H 315.641 2.6808 4.82532 0
M  V30 3113 H 318.117 0.912558 4.0597 0
M  V30 3114 H 316.993 0.766547 5.43521 0
M  V30 3115 H 317.254 -0.612063 4.37843 0
M  V30 3116 N 316.313 -1.40141 0.720998 0
M  V30 3117 C 317.263 -2.27949 0.0482544 0
M  V30 3118 C 318.247 -1.43538 -0.727021 0
M  V30 3119 O 319.439 -1.6658 -0.598332 0
M  V30 3120 C 316.568 -3.32126 -0.868729 0
M  V30 3121 C 315.654 -4.24008 -0.0883515 0
M  V30 3122 N 316.045 -4.97154 0.931226 0
M  V30 3123 C 314.343 -4.4485 -0.320105 0
M  V30 3124 C 315.044 -5.64587 1.4006 0
M  V30 3125 N 314.02 -5.38787 0.721752 0
M  V30 3126 H 317.822 -2.81948 0.829609 0
M  V30 3127 H 315.336 -1.52656 0.554067 0
M  V30 3128 H 317.333 -3.93884 -1.36605 0
M  V30 3129 H 315.993 -2.79687 -1.6494 0
M  V30 3130 H 317.004 -5.01 1.31222 0
M  V30 3131 H 313.681 -4.03378 -1.07668 0
M  V30 3132 H 315.071 -6.33175 2.24808 0
M  V30 3133 N 317.792 -0.46758 -1.50504 0
M  V30 3134 C 318.722 0.318381 -2.31319 0
M  V30 3135 C 319.703 0.993564 -1.38066 0
M  V30 3136 O 320.888 0.991411 -1.66987 0
M  V30 3137 C 318.018 1.40275 -3.17711 0
M  V30 3138 C 316.972 0.849373 -4.19487 0
M  V30 3139 C 316.298 2.03177 -4.94594 0
M  V30 3140 C 317.598 -0.136942 -5.2212 0
M  V30 3141 H 319.292 -0.356106 -2.97275 0
M  V30 3142 H 316.838 -0.172703 -1.42961 0
M  V30 3143 H 318.791 1.96004 -3.73042 0
M  V30 3144 H 317.515 2.10596 -2.49634 0
M  V30 3145 H 316.174 0.314076 -3.65252 0
M  V30 3146 H 315.822 2.72187 -4.22993 0
M  V30 3147 H 315.522 1.66774 -5.63436 0
M  V30 3148 H 317.046 2.59403 -5.52759 0
M  V30 3149 H 318.46 0.331056 -5.72343 0
M  V30 3150 H 316.857 -0.41507 -5.98663 0
M  V30 3151 H 317.927 -1.06398 -4.73083 0
M  V30 3152 N 319.27 1.56325 -0.20005 0
M  V30 3153 C 320.681 1.8408 0.31167 0
M  V30 3154 C 321.032 1.12087 1.61031 0
M  V30 3155 O 320.157 0.38332 2.12978 0
M  V30 3156 C 320.752 3.33932 0.57226 0
M  V30 3157 C 319.311 3.6208 1.02834 0
M  V30 3158 C 318.458 2.77186 0.079634 0
M  V30 3159 H 321.409 1.52939 -0.423729 0
M  V30 3160 H 321.43 3.52971 1.42096 0
M  V30 3161 H 320.942 3.86303 -0.37308 0
M  V30 3162 H 319.043 3.15147 1.98778 0
M  V30 3163 H 319.156 4.7023 0.917624 0
M  V30 3164 H 317.52 2.47951 0.582448 0
M  V30 3165 H 318.303 3.32347 -0.860238 0
M  V30 3166 N 320.748 -0.0735177 1.57428 0
M  V30 3167 C 321.68 -1.11423 2.00294 0
M  V30 3168 C 322.693 -1.35084 0.908637 0
M  V30 3169 O 323.882 -1.33355 1.18654 0
M  V30 3170 C 320.982 -2.46548 2.32523 0
M  V30 3171 C 320.155 -2.42867 3.63778 0
M  V30 3172 C 319.214 -3.60087 3.83697 0
M  V30 3173 O 318.24 -3.41595 4.55304 0
M  V30 3174 N 319.442 -4.80372 3.25919 0
M  V30 3175 H 322.207 -0.749206 2.90184 0
M  V30 3176 H 319.768 -0.262195 1.59763 0
M  V30 3177 H 321.76 -3.23607 2.43024 0
M  V30 3178 H 320.33 -2.75059 1.48531 0
M  V30 3179 H 319.55 -1.51206 3.64047 0
M  V30 3180 H 320.838 -2.37506 4.49965 0
M  V30 3181 H 320.236 -4.983 2.67795 0
M  V30 3182 H 318.793 -5.54948 3.41871 0
M  V30 3183 N 322.226 -1.5378 -0.344866 0
M  V30 3184 C 323.637 -1.62428 -0.920552 0
M  V30 3185 C 323.988 -0.504747 -1.89596 0
M  V30 3186 O 323.113 0.365711 -2.13287 0
M  V30 3187 C 323.708 -2.94419 -1.67639 0
M  V30 3188 C 322.267 -3.05333 -2.20111 0
M  V30 3189 C 321.414 -2.57866 -1.01982 0
M  V30 3190 H 324.365 -1.58222 -0.123042 0
M  V30 3191 H 324.386 -2.83384 -2.53917 0
M  V30 3192 H 323.898 -3.7588 -0.966224 0
M  V30 3193 H 321.999 -2.28502 -2.94308 0
M  V30 3194 H 322.112 -4.10778 -2.46573 0
M  V30 3195 H 320.476 -2.13241 -1.39285 0
M  V30 3196 H 321.259 -3.41765 -0.324308 0
M  V30 3197 N 323.704 0.605807 -1.45491 0
M  V30 3198 C 324.95 1.36679 -1.49823 0
M  V30 3199 C 325.283 1.93693 -0.140175 0
M  V30 3200 O 324.558 1.75158 0.845581 0
M  V30 3201 C 324.841 2.51337 -2.57879 0
M  V30 3202 C 324.694 1.99508 -4.03134 0
M  V30 3203 C 326.013 3.53463 -2.62205 0
M  V30 3204 H 323.132 0.495617 -0.545466 0
M  V30 3205 H 325.774 0.682732 -1.7731 0
M  V30 3206 H 323.924 3.09691 -2.34571 0
M  V30 3207 H 325.596 1.45789 -4.37656 0
M  V30 3208 H 323.839 1.30496 -4.13707 0
M  V30 3209 H 324.51 2.82169 -4.74431 0
M  V30 3210 H 326.986 3.04953 -2.83095 0
M  V30 3211 H 325.862 4.31178 -3.39672 0
M  V30 3212 H 326.123 4.09197 -1.67363 0
M  V30 3213 N 325.182 1.32811 0.848464 0
M  V30 3214 C 326.407 1.26882 1.6406 0
M  V30 3215 C 326.832 -0.15913 1.87426 0
M  V30 3216 O 326.19 -1.11258 1.43148 0
M  V30 3217 C 326.238 2.03997 2.97351 0
M  V30 3218 O 325.342 1.39201 3.88197 0
M  V30 3219 H 324.683 0.436982 0.499943 0
M  V30 3220 H 327.213 1.75224 1.0563 0
M  V30 3221 H 327.223 2.14403 3.47124 0
M  V30 3222 H 325.898 3.0783 2.79666 0
M  V30 3223 H 324.475 1.37381 3.46671 0
M  V30 3224 N 326.66 -1.06551 1.16123 0
M  V30 3225 C 327.888 -1.83005 0.965237 0
M  V30 3226 C 328.303 -1.82423 -0.486542 0
M  V30 3227 O 327.66 -1.24152 -1.33763 0
M  V30 3228 C 327.711 -3.29733 1.48183 0
M  V30 3229 O 327.432 -3.30416 2.87674 0
M  V30 3230 C 328.933 -4.22926 1.32848 0
M  V30 3231 H 326.153 -0.577118 0.342309 0
M  V30 3232 H 328.697 -1.3445 1.54089 0
M  V30 3233 H 326.852 -3.75609 0.948517 0
M  V30 3234 H 327.266 -4.22149 3.11272 0
M  V30 3235 H 328.74 -5.23916 1.73827 0
M  V30 3236 H 329.217 -4.38346 0.273692 0
M  V30 3237 H 329.823 -3.82894 1.85127 0
M  V30 3238 N 328.138 -0.959301 -1.25041 0
M  V30 3239 C 329.554 -0.664474 -1.4511 0
M  V30 3240 C 329.754 0.776481 -1.85938 0
M  V30 3241 O 328.81 1.55128 -1.99227 0
M  V30 3242 C 330.123 -1.64139 -2.5195 0
M  V30 3243 C 331.671 -1.65309 -2.65786 0
M  V30 3244 C 332.146 -2.61777 -3.75815 0
M  V30 3245 N 333.637 -2.60169 -3.83231 0
M  V30 3246 C 334.372 -3.31489 -4.6787 0
M  V30 3247 N 333.868 -4.12298 -5.56761 0
M  V30 3248 N 335.661 -3.20354 -4.61876 0
M  V30 3249 H 327.812 -1.89043 -0.968332 0
M  V30 3250 H 330.075 -0.813408 -0.4869 0
M  V30 3251 H 329.781 -2.67086 -2.28819 0
M  V30 3252 H 329.655 -1.40756 -3.49954 0
M  V30 3253 H 332.042 -0.630778 -2.8828 0
M  V30 3254 H 332.123 -1.92753 -1.68167 0
M  V30 3255 H 331.767 -3.64137 -3.54071 0
M  V30 3256 H 331.697 -2.31616 -4.72929 0
M  V30 3257 H 334.188 -2.01507 -3.19692 0
M  V30 3258 H 334.501 -4.63625 -6.18281 0
M  V30 3259 H 332.846 -4.16395 -5.56454 0
M  V30 3260 H 336.037 -2.56692 -3.91442 0
M  V30 3261 H 336.21 -3.76201 -5.27614 0
M  V30 3262 N 329.616 1.39756 -0.72842 0
M  V30 3263 C 330.841 2.05472 -0.282159 0
M  V30 3264 C 331.266 1.54549 1.07221 0
M  V30 3265 O 330.624 0.686372 1.67805 0
M  V30 3266 C 330.672 3.59462 -0.286264 0
M  V30 3267 O 329.776 4.05918 0.728298 0
M  V30 3268 H 329.117 0.651226 -0.129618 0
M  V30 3269 H 331.647 1.78915 -0.992499 0
M  V30 3270 H 331.657 4.07798 -0.128373 0
M  V30 3271 H 330.332 3.95889 -1.27456 0
M  V30 3272 H 328.909 3.69012 0.537081 0
M  V30 3273 N 331.094 0.475555 1.50254 0
M  V30 3274 C 332.026 -0.352649 2.26471 0
M  V30 3275 C 333.039 -0.953165 1.3198 0
M  V30 3276 O 334.228 -0.840815 1.57457 0
M  V30 3277 C 331.328 -1.50902 3.0345 0
M  V30 3278 C 330.501 -1.02047 4.25329 0
M  V30 3279 C 329.56 -2.05142 4.84565 0
M  V30 3280 O 328.586 -1.63023 5.45355 0
M  V30 3281 N 329.788 -3.37987 4.71959 0
M  V30 3282 H 332.553 0.300767 2.98187 0
M  V30 3283 H 330.114 0.306598 1.5897 0
M  V30 3284 H 332.106 -2.19572 3.39956 0
M  V30 3285 H 330.676 -2.06705 2.34504 0
M  V30 3286 H 329.896 -0.159507 3.93877 0
M  V30 3287 H 331.184 -0.672061 5.04342 0
M  V30 3288 H 330.582 -3.74913 4.23623 0
M  V30 3289 H 329.139 -4.02443 5.12721 0
M  V30 3290 N 332.573 -1.56217 0.208337 0
M  V30 3291 C 333.523 -2.16324 -0.720281 0
M  V30 3292 C 334.507 -1.10775 -1.16695 0
M  V30 3293 O 335.699 -1.36801 -1.12314 0
M  V30 3294 C 332.828 -2.83644 -1.93393 0
M  V30 3295 C 331.914 -3.96401 -1.50755 0
M  V30 3296 N 332.305 -4.99546 -0.792937 0
M  V30 3297 C 330.603 -4.08246 -1.79585 0
M  V30 3298 C 331.304 -5.78828 -0.577364 0
M  V30 3299 N 330.28 -5.31723 -1.1301 0
M  V30 3300 H 334.082 -2.93432 -0.165725 0
M  V30 3301 H 331.596 -1.62397 0.00906463 0
M  V30 3302 H 333.593 -3.25107 -2.60981 0
M  V30 3303 H 332.253 -2.08027 -2.49308 0
M  V30 3304 H 333.264 -5.15967 -0.447004 0
M  V30 3305 H 329.941 -3.4377 -2.36915 0
M  V30 3306 H 331.331 -6.71899 -0.00952956 0
M  V30 3307 N 334.051 0.0651679 -1.57465 0
M  V30 3308 C 335.279 0.775808 -1.91804 0
M  V30 3309 C 335.694 1.70782 -0.804916 0
M  V30 3310 O 335.051 1.81153 0.221311 0
M  V30 3311 C 335.102 1.56381 -3.25925 0
M  V30 3312 O 334.823 0.669248 -4.32958 0
M  V30 3313 C 336.324 2.37485 -3.7432 0
M  V30 3314 H 333.544 0.2202 -0.63384 0
M  V30 3315 H 336.088 0.0334587 -2.04473 0
M  V30 3316 H 334.243 2.25837 -3.14764 0
M  V30 3317 H 334.657 1.21801 -5.10162 0
M  V30 3318 H 336.131 2.88223 -4.70778 0
M  V30 3319 H 336.608 3.17307 -3.03666 0
M  V30 3320 H 337.214 1.73173 -3.88447 0
M  V30 3321 N 335.529 1.53961 0.336706 0
M  V30 3322 C 336.461 1.78751 1.4346 0
M  V30 3323 C 337.474 0.669019 1.48418 0
M  V30 3324 O 338.663 0.945884 1.51378 0
M  V30 3325 C 335.763 1.87844 2.82078 0
M  V30 3326 C 334.936 3.17854 3.00479 0
M  V30 3327 C 333.995 3.17816 4.19379 0
M  V30 3328 O 333.021 3.91511 4.13168 0
M  V30 3329 N 334.223 2.40669 5.2826 0
M  V30 3330 H 336.988 2.73493 1.22563 0
M  V30 3331 H 334.549 1.53096 0.526625 0
M  V30 3332 H 336.541 1.85261 3.59806 0
M  V30 3333 H 335.111 1.00257 2.96086 0
M  V30 3334 H 334.331 3.33504 2.10163 0
M  V30 3335 H 335.619 4.03718 3.0966 0
M  V30 3336 H 335.017 1.8036 5.36178 0
M  V30 3337 H 333.574 2.43877 6.04456 0
M  V30 3338 N 337.007 -0.598083 1.45811 0
M  V30 3339 C 338.418 -1.18011 1.44673 0
M  V30 3340 C 338.769 -1.95378 0.179364 0
M  V30 3341 O 337.894 -2.04124 -0.718509 0
M  V30 3342 C 338.489 -2.14677 2.62105 0
M  V30 3343 C 337.048 -2.68236 2.64057 0
M  V30 3344 C 336.195 -1.43816 2.37091 0
M  V30 3345 H 339.146 -0.38686 1.53913 0
M  V30 3346 H 339.167 -2.97878 2.36746 0
M  V30 3347 H 338.679 -1.5834 3.5433 0
M  V30 3348 H 336.78 -3.28486 1.75864 0
M  V30 3349 H 336.893 -3.12021 3.63566 0
M  V30 3350 H 335.257 -1.731 1.86838 0
M  V30 3351 H 336.04 -0.893333 3.31473 0
M  V30 3352 N 338.485 -1.33259 -0.841409 0
M  V30 3353 C 339.713 -1.27605 -1.62864 0
M  V30 3354 C 340.128 0.153507 -1.88175 0
M  V30 3355 O 339.485 1.09485 -1.46011 0
M  V30 3356 C 339.536 -2.04596 -2.98031 0
M  V30 3357 O 339.257 -3.41975 -2.73834 0
M  V30 3358 C 340.758 -2.06122 -3.92465 0
M  V30 3359 H 337.978 -0.439718 -0.506842 0
M  V30 3360 H 340.522 -1.75591 -1.04824 0
M  V30 3361 H 338.677 -1.60299 -3.5268 0
M  V30 3362 H 339.091 -3.81549 -3.59889 0
M  V30 3363 H 340.565 -2.64451 -4.84531 0
M  V30 3364 H 341.042 -1.05083 -4.26444 0
M  V30 3365 H 341.648 -2.50427 -3.43753 0
M  V30 3366 N 339.963 1.05934 -1.16686 0
M  V30 3367 C 341.374 1.60263 -0.957745 0
M  V30 3368 C 341.725 1.89789 0.49745 0
M  V30 3369 O 340.85 1.67401 1.37135 0
M  V30 3370 C 341.445 2.91172 -1.73218 0
M  V30 3371 C 340.004 3.42188 -1.56794 0
M  V30 3372 C 339.151 2.16028 -1.73859 0
M  V30 3373 H 342.102 0.888392 -1.31504 0
M  V30 3374 H 342.123 3.60744 -1.21014 0
M  V30 3375 H 341.635 2.6965 -2.79124 0
M  V30 3376 H 339.736 3.68762 -0.533437 0
M  V30 3377 H 339.849 4.17273 -2.35414 0
M  V30 3378 H 338.213 2.26426 -1.16633 0
M  V30 3379 H 338.996 1.96985 -2.81161 0
M  V30 3380 N 341.441 0.965919 1.2453 0
M  V30 3381 C 342.351 0.502154 2.29163 0
M  V30 3382 C 343.367 -0.436017 1.68448 0
M  V30 3383 O 344.543 -0.309497 1.99008 0
M  V30 3384 C 341.608 -0.201956 3.46111 0
M  V30 3385 C 340.669 0.775821 4.22232 0
M  V30 3386 C 339.902 0.105217 5.33596 0
M  V30 3387 O 340.125 -1.10683 5.59558 0
M  V30 3388 O 339.059 0.796475 5.96607 0
M  V30 3389 H 342.885 1.37194 2.70946 0
M  V30 3390 H 340.47 0.732875 1.30189 0
M  V30 3391 H 342.352 -0.597564 4.17142 0
M  V30 3392 H 341.027 -1.04673 3.06309 0
M  V30 3393 H 339.934 1.22185 3.53584 0
M  V30 3394 H 341.267 1.58896 4.65846 0
M  V30 3395 N 342.919 -1.39368 0.735821 0
M  V30 3396 C 344.33 -1.83313 0.354015 0
M  V30 3397 C 344.681 -1.61461 -1.11466 0
M  V30 3398 O 343.806 -1.10621 -1.85989 0
M  V30 3399 C 344.401 -3.32781 0.635769 0
M  V30 3400 C 342.96 -3.75142 0.307448 0
M  V30 3401 C 342.107 -2.62358 0.897974 0
M  V30 3402 H 345.058 -1.28349 0.933398 0
M  V30 3403 H 345.079 -3.80388 -0.0921773 0
M  V30 3404 H 344.591 -3.48654 1.70476 0
M  V30 3405 H 342.692 -3.64857 -0.755674 0
M  V30 3406 H 342.805 -4.72532 0.790583 0
M  V30 3407 H 341.169 -2.52624 0.324551 0
M  V30 3408 H 341.952 -2.81036 1.97164 0
M  V30 3409 N 344.397 -0.483516 -1.5 0
M  V30 3410 C 345.622 0.0667119 -2.07293 0
M  V30 3411 C 346.047 1.3164 -1.3436 0
M  V30 3412 O 345.405 1.76945 -0.394987 0
M  V30 3413 C 345.453 0.321126 -3.59167 0
M  V30 3414 O 344.557 1.39927 -3.87936 0
M  V30 3415 H 343.898 -0.0184758 -0.663743 0
M  V30 3416 H 346.428 -0.678125 -1.93035 0
M  V30 3417 H 346.438 0.557906 -4.04168 0
M  V30 3418 H 345.113 -0.592007 -4.11665 0
M  V30 3419 H 343.69 1.14882 -3.54763 0
M  V30 3420 N 345.875 1.56104 -0.216619 0
M  V30 3421 C 347.103 2.02563 0.421413 0
M  V30 3422 C 347.518 1.0965 1.53695 0
M  V30 3423 O 346.875 0.10521 1.82196 0
M  V30 3424 C 346.926 3.48584 0.957665 0
M  V30 3425 O 346.647 4.37953 -0.113389 0
M  V30 3426 C 348.148 4.10664 1.66943 0
M  V30 3427 H 345.368 0.662944 0.103665 0
M  V30 3428 H 347.912 2.01793 -0.331629 0
M  V30 3429 H 346.067 3.49985 1.661 0
M  V30 3430 H 346.481 5.23704 0.288932 0
M  V30 3431 H 347.955 5.14622 1.99671 0
M  V30 3432 H 348.432 3.55373 2.58083 0
M  V30 3433 H 349.038 4.13098 1.01142 0
M  V30 3434 N 347.353 -0.0568162 1.57498 0
M  V30 3435 C 348.316 -1.05038 2.03715 0
M  V30 3436 C 349.316 -1.30709 0.936577 0
M  V30 3437 O 350.506 -1.26178 1.20103 0
M  V30 3438 C 347.638 -2.39034 2.43055 0
M  V30 3439 H 348.831 -0.651715 2.92733 0
M  V30 3440 H 346.384 -0.302947 1.53336 0
M  V30 3441 H 347.119 -2.83703 1.57108 0
M  V30 3442 H 346.904 -2.21739 3.2338 0
M  V30 3443 H 348.394 -3.10421 2.79336 0
M  V30 3444 N 348.832 -1.54138 -0.328536 0
M  V30 3445 C 350.243 -1.63395 -0.903272 0
M  V30 3446 C 350.594 -0.524828 -1.8905 0
M  V30 3447 O 349.719 0.343068 -2.13663 0
M  V30 3448 C 350.314 -2.9618 -1.64507 0
M  V30 3449 C 348.873 -3.0765 -2.1686 0
M  V30 3450 C 348.02 -2.58933 -0.992416 0
M  V30 3451 H 350.971 -1.58344 -0.106253 0
M  V30 3452 H 350.992 -2.86061 -2.50897 0
M  V30 3453 H 350.504 -3.76884 -0.926302 0
M  V30 3454 H 348.605 -2.31611 -2.91868 0
M  V30 3455 H 348.718 -4.1337 -2.42202 0
M  V30 3456 H 347.082 -2.14706 -1.37016 0
M  V30 3457 H 347.865 -3.42089 -0.288041 0
M  V30 3458 N 350.31 0.590341 -1.46126 0
M  V30 3459 C 351.535 1.37991 -1.54833 0
M  V30 3460 C 351.96 1.87163 -0.187506 0
M  V30 3461 O 351.318 1.61133 0.831008 0
M  V30 3462 C 351.366 2.54867 -2.55098 0
M  V30 3463 O 350.47 3.56061 -2.08073 0
M  V30 3464 H 349.811 0.411265 -0.521303 0
M  V30 3465 H 352.341 0.716819 -1.91632 0
M  V30 3466 H 352.351 3.01886 -2.74461 0
M  V30 3467 H 351.026 2.18429 -3.53923 0
M  V30 3468 H 349.603 3.15574 -1.98664 0
M  V30 3469 N 351.788 1.33704 0.83433 0
M  V30 3470 C 353.016 1.28467 1.62185 0
M  V30 3471 C 353.431 -0.143526 1.88254 0
M  V30 3472 O 352.788 -1.08709 1.4659 0
M  V30 3473 C 352.839 2.06174 2.96942 0
M  V30 3474 O 352.56 3.43422 2.72016 0
M  V30 3475 C 354.061 2.08201 3.91366 0
M  V30 3476 H 351.281 0.4424 0.504503 0
M  V30 3477 H 353.825 1.76145 1.03891 0
M  V30 3478 H 351.98 1.62167 3.51825 0
M  V30 3479 H 352.394 3.83453 3.57861 0
M  V30 3480 H 353.868 2.67017 4.83121 0
M  V30 3481 H 354.345 1.07343 4.2588 0
M  V30 3482 H 354.951 2.52246 3.42421 0
M  V30 3483 N 353.266 -1.05314 1.17247 0
M  V30 3484 C 354.491 -1.82509 0.985148 0
M  V30 3485 C 354.916 -1.82343 -0.461788 0
M  V30 3486 O 354.274 -1.23151 -1.33055 0
M  V30 3487 C 354.322 -3.26566 1.52929 0
M  V30 3488 O 353.426 -4.05666 0.742225 0
M  V30 3489 H 352.767 -0.564347 0.349869 0
M  V30 3490 H 355.297 -1.32718 1.55715 0
M  V30 3491 H 355.307 -3.77369 1.55103 0
M  V30 3492 H 353.982 -3.26001 2.58256 0
M  V30 3493 H 352.559 -3.64397 0.791794 0
M  V30 3494 N 354.744 -0.972509 -1.24016 0
M  V30 3495 C 355.991 -0.637034 -1.92219 0
M  V30 3496 C 356.319 0.828418 -1.75976 0
M  V30 3497 O 355.574 1.61206 -1.10955 0
M  V30 3498 C 355.873 -0.963694 -3.44162 0
M  V30 3499 C 355.539 -2.41807 -3.80579 0
M  V30 3500 C 354.201 -2.81556 -3.9023 0
M  V30 3501 C 356.553 -3.36172 -3.98293 0
M  V30 3502 C 353.881 -4.14702 -4.15017 0
M  V30 3503 C 356.233 -4.68952 -4.24578 0
M  V30 3504 C 354.897 -5.08472 -4.32449 0
M  V30 3505 H 354.167 -0.233107 -0.703379 0
M  V30 3506 H 356.814 -1.2249 -1.47202 0
M  V30 3507 H 355.119 -0.29365 -3.90698 0
M  V30 3508 H 356.816 -0.682449 -3.9515 0
M  V30 3509 H 353.406 -2.09988 -3.73635 0
M  V30 3510 H 357.59 -3.06644 -3.90234 0
M  V30 3511 H 352.846 -4.4494 -4.19331 0
M  V30 3512 H 357.02 -5.42037 -4.37229 0
M  V30 3513 H 354.647 -6.11665 -4.51409 0
M  V30 3514 N 356.222 1.38976 -0.743202 0
M  V30 3515 C 357.152 2.33171 -0.123873 0
M  V30 3516 C 358.133 1.54336 0.71516 0
M  V30 3517 O 359.318 1.82696 0.658467 0
M  V30 3518 C 356.448 3.38474 0.777978 0
M  V30 3519 C 355.402 4.27979 0.0424758 0
M  V30 3520 C 354.728 5.2405 1.06189 0
M  V30 3521 C 356.028 5.10155 -1.1198 0
M  V30 3522 H 357.722 2.85213 -0.910709 0
M  V30 3523 H 355.268 1.37133 -0.439388 0
M  V30 3524 H 357.221 4.03328 1.22084 0
M  V30 3525 H 355.945 2.84891 1.59702 0
M  V30 3526 H 354.604 3.64616 -0.380853 0
M  V30 3527 H 354.252 4.66758 1.87472 0
M  V30 3528 H 353.952 5.84785 0.574485 0
M  V30 3529 H 355.476 5.9178 1.50428 0
M  V30 3530 H 356.89 5.68307 -0.75499 0
M  V30 3531 H 355.287 5.80073 -1.53738 0
M  V30 3532 H 356.357 4.44504 -1.93764 0
M  V30 3533 N 357.7 0.491464 1.49741 0
M  V30 3534 C 358.63 -0.28154 2.31796 0
M  V30 3535 C 359.611 -0.971473 1.3963 0
M  V30 3536 O 360.796 -0.964719 1.68543 0
M  V30 3537 C 357.926 -1.35203 3.19902 0
M  V30 3538 C 356.88 -0.782529 4.20786 0
M  V30 3539 C 356.206 -1.95283 4.97764 0
M  V30 3540 C 357.506 0.21999 5.21837 0
M  V30 3541 H 359.2 0.403355 2.96671 0
M  V30 3542 H 356.746 0.195425 1.42668 0
M  V30 3543 H 358.699 -1.90045 3.76113 0
M  V30 3544 H 357.423 -2.06598 2.52953 0
M  V30 3545 H 356.082 -0.255928 3.65706 0
M  V30 3546 H 355.73 -2.65423 4.2727 0
M  V30 3547 H 355.43 -1.57789 5.66018 0
M  V30 3548 H 356.954 -2.50577 5.56816 0
M  V30 3549 H 358.368 -0.23996 5.72798 0
M  V30 3550 H 356.765 0.51026 5.97927 0
M  V30 3551 H 357.835 1.13911 4.7133 0
M  V30 3552 N 359.178 -1.55987 0.224894 0
M  V30 3553 C 360.589 -1.84553 -0.282345 0
M  V30 3554 C 360.94 -1.14634 -1.59227 0
M  V30 3555 O 360.065 -0.417155 -2.12341 0
M  V30 3556 C 360.66 -3.348 -0.519062 0
M  V30 3557 C 359.219 -3.63671 -0.970604 0
M  V30 3558 C 358.366 -2.77277 -0.0355261 0
M  V30 3559 H 361.317 -1.52245 0.448006 0
M  V30 3560 H 361.338 -3.55187 -1.36463 0
M  V30 3561 H 360.85 -3.8566 0.43449 0
M  V30 3562 H 358.951 -3.1827 -1.9374 0
M  V30 3563 H 359.064 -4.71631 -0.842698 0
M  V30 3564 H 357.428 -2.48846 -0.542927 0
M  V30 3565 H 358.211 -3.30937 0.913003 0
M  V30 3566 N 360.656 0.0484629 -1.57525 0
M  V30 3567 C 361.589 1.08755 -2.00618 0
M  V30 3568 C 362.567 1.36272 -0.887058 0
M  V30 3569 O 363.751 1.49255 -1.15131 0
M  V30 3570 C 360.878 2.42675 -2.36277 0
M  V30 3571 C 359.924 2.31142 -3.58435 0
M  V30 3572 S 360.757 1.68326 -5.08357 0
M  V30 3573 C 361.913 3.03776 -5.47239 0
M  V30 3574 H 362.146 0.720415 -2.88439 0
M  V30 3575 H 359.679 0.257801 -1.52233 0
M  V30 3576 H 361.637 3.19699 -2.57494 0
M  V30 3577 H 360.298 2.76541 -1.48942 0
M  V30 3578 H 359.491 3.29957 -3.80978 0
M  V30 3579 H 359.093 1.62258 -3.36969 0
M  V30 3580 H 361.385 4.00106 -5.46737 0
M  V30 3581 H 362.328 2.85988 -6.47778 0
M  V30 3582 H 362.736 3.05456 -4.74718 0
M  V30 3583 N 362.134 1.5431 0.320358 0
M  V30 3584 C 363.382 1.72327 1.05583 0
M  V30 3585 C 363.703 0.50149 1.88441 0
M  V30 3586 O 362.973 -0.48448 1.89815 0
M  V30 3587 H 361.553 0.635387 0.3928 0
M  V30 3588 H 364.215 1.91621 0.356019 0
M  V30 3589 H 363.311 2.60426 1.72003 0
M  V30 3590 N 363.613 -0.582584 1.46437 0
M  V30 3591 C 365.024 -1.1647 1.45916 0
M  V30 3592 C 365.375 -1.95177 0.200077 0
M  V30 3593 O 364.5 -2.04874 -0.696819 0
M  V30 3594 C 365.095 -2.11885 2.64367 0
M  V30 3595 C 363.654 -2.65421 2.66887 0
M  V30 3596 C 362.801 -1.41294 2.38603 0
M  V30 3597 H 365.752 -0.370514 1.54314 0
M  V30 3598 H 365.773 -2.9535 2.39892 0
M  V30 3599 H 365.285 -1.54573 3.5599 0
M  V30 3600 H 363.386 -3.26602 1.79338 0
M  V30 3601 H 363.499 -3.08147 3.66854 0
M  V30 3602 H 361.863 -1.71109 1.88663 0
M  V30 3603 H 362.646 -0.858125 3.32402 0
M  V30 3604 N 365.091 -1.34144 -0.827227 0
M  V30 3605 C 366.316 -1.29476 -1.62021 0
M  V30 3606 C 366.741 0.129292 -1.87655 0
M  V30 3607 O 366.099 1.08967 -1.449 0
M  V30 3608 C 366.147 -2.08702 -2.94068 0
M  V30 3609 O 365.251 -1.45359 -3.85933 0
M  V30 3610 H 364.592 -0.444881 -0.492927 0
M  V30 3611 H 367.122 -1.76882 -1.02829 0
M  V30 3612 H 367.132 -2.19898 -3.43669 0
M  V30 3613 H 365.807 -3.12241 -2.74734 0
M  V30 3614 H 364.384 -1.42879 -3.44442 0
M  V30 3615 N 366.569 1.04691 -1.17803 0
M  V30 3616 C 367.98 1.59238 -0.974689 0
M  V30 3617 C 368.331 1.90306 0.477292 0
M  V30 3618 O 367.456 1.68846 1.35352 0
M  V30 3619 C 368.051 2.89318 -1.76296 0
M  V30 3620 C 366.61 3.40506 -1.60414 0
M  V30 3621 C 365.757 2.14172 -1.76141 0
M  V30 3622 H 368.708 0.874395 -1.32439 0
M  V30 3623 H 368.729 3.5944 -1.24833 0
M  V30 3624 H 368.241 2.66675 -2.81968 0
M  V30 3625 H 366.342 3.68175 -0.572519 0
M  V30 3626 H 366.455 4.14753 -2.39827 0
M  V30 3627 H 364.819 2.25176 -1.19028 0
M  V30 3628 H 365.602 1.93992 -2.83235 0
M  V30 3629 N 368.047 0.979072 1.23499 0
M  V30 3630 C 369.458 0.684391 1.73704 0
M  V30 3631 C 369.809 -0.799448 1.79174 0
M  V30 3632 O 368.934 -1.62531 1.42873 0
M  V30 3633 C 369.529 1.23564 3.15464 0
M  V30 3634 C 368.088 0.99063 3.6313 0
M  V30 3635 C 367.235 1.36416 2.41425 0
M  V30 3636 H 370.186 1.15307 1.09041 0
M  V30 3637 H 370.207 0.607417 3.7562 0
M  V30 3638 H 369.719 2.31561 3.1145 0
M  V30 3639 H 367.82 -0.0733136 3.72528 0
M  V30 3640 H 367.933 1.64427 4.5 0
M  V30 3641 H 366.297 0.782616 2.42378 0
M  V30 3642 H 367.08 2.45387 2.40083 0
M  V30 3643 N 369.525 -1.3858 0.750561 0
M  V30 3644 C 370.488 -2.28836 0.129152 0
M  V30 3645 C 371.488 -1.47045 -0.650714 0
M  V30 3646 O 372.678 -1.6753 -0.477428 0
M  V30 3647 C 369.81 -3.30751 -0.825622 0
M  V30 3648 H 371.003 -2.85294 0.924516 0
M  V30 3649 H 368.556 -1.47489 0.517376 0
M  V30 3650 H 369.291 -2.79378 -1.64677 0
M  V30 3651 H 369.076 -3.91177 -0.268852 0
M  V30 3652 H 370.566 -3.98249 -1.2565 0
M  V30 3653 N 371.003 -0.499398 -1.49478 0
M  V30 3654 C 371.913 0.284489 -2.32869 0
M  V30 3655 C 372.929 0.968885 -1.44529 0
M  V30 3656 O 374.105 0.95062 -1.77553 0
M  V30 3657 C 371.17 1.33594 -3.19928 0
M  V30 3658 C 370.231 0.665149 -4.24116 0
M  V30 3659 C 369.464 1.6665 -5.07014 0
M  V30 3660 O 369.687 2.89618 -4.91404 0
M  V30 3661 O 368.621 1.22271 -5.8935 0
M  V30 3662 H 372.447 -0.39802 -3.01081 0
M  V30 3663 H 370.032 -0.260758 -1.47107 0
M  V30 3664 H 371.914 1.94431 -3.73864 0
M  V30 3665 H 370.589 2.0014 -2.54412 0
M  V30 3666 H 369.496 0.0170769 -3.74096 0
M  V30 3667 H 370.829 0.0421555 -4.92182 0
M  V30 3668 N 372.481 1.55866 -0.233164 0
M  V30 3669 C 373.729 1.9821 0.394593 0
M  V30 3670 C 374.05 1.12234 1.59463 0
M  V30 3671 O 373.32 0.201981 1.94856 0
M  V30 3672 H 371.9 0.732034 0.148778 0
M  V30 3673 H 374.562 1.92107 -0.32876 0
M  V30 3674 H 373.658 3.03845 0.713063 0
M  V30 3675 N 373.959 -0.0401083 1.57549 0
M  V30 3676 C 375.184 -0.748931 1.93406 0
M  V30 3677 C 375.609 -1.68686 0.832274 0
M  V30 3678 O 374.967 -1.80047 -0.212818 0
M  V30 3679 C 375.015 -1.4916 3.28304 0
M  V30 3680 O 374.119 -2.6042 3.19774 0
M  V30 3681 H 373.46 -0.202212 0.63246 0
M  V30 3682 H 375.99 0.00112086 2.046 0
M  V30 3683 H 376 -1.86395 3.62934 0
M  V30 3684 H 374.675 -0.80364 4.08062 0
M  V30 3685 H 373.252 -2.25808 2.96758 0
M  V30 3686 N 375.437 -1.54477 -0.31217 0
M  V30 3687 C 376.665 -1.77205 -1.068 0
M  V30 3688 C 377.08 -0.526114 -1.81321 0
M  V30 3689 O 376.437 0.503647 -1.75413 0
M  V30 3690 C 376.488 -2.97253 -2.05725 0
M  V30 3691 O 376.209 -4.1703 -1.34228 0
M  V30 3692 C 377.71 -3.32281 -2.93435 0
M  V30 3693 H 374.93 -0.591287 -0.317208 0
M  V30 3694 H 377.474 -2.01398 -0.354834 0
M  V30 3695 H 375.629 -2.753 -2.72559 0
M  V30 3696 H 376.043 -4.84636 -2.00571 0
M  V30 3697 H 377.517 -4.19551 -3.58721 0
M  V30 3698 H 377.994 -2.49945 -3.61143 0
M  V30 3699 H 378.6 -3.56353 -2.32147 0
M  V30 3700 N 376.915 0.57481 -1.46744 0
M  V30 3701 C 378.163 1.33009 -1.52161 0
M  V30 3702 C 378.484 1.94185 -0.178092 0
M  V30 3703 O 377.754 1.7899 0.796196 0
M  V30 3704 H 376.334 0.493873 -0.560445 0
M  V30 3705 H 378.996 0.672589 -1.82927 0
M  V30 3706 H 378.092 2.13273 -2.27862 0
M  V30 3707 N 378.394 1.34581 0.820102 0
M  V30 3708 C 379.671 1.17675 1.56244 0
M  V30 3709 C 380.051 -0.249541 2.0962 0
M  V30 3710 O 379.399 -1.25125 1.91196 0
M  V30 3711 C 379.609 2.23364 2.6816 0
M  V30 3712 C 380.957 2.58485 3.36854 0
M  V30 3713 O 381.981 2.22175 2.78418 0
M  V30 3714 O 380.84 3.20868 4.42386 0
M  V30 3715 H 377.934 0.456333 0.689702 0
M  V30 3716 H 380.48 1.46222 0.861231 0
M  V30 3717 H 379.252 3.19087 2.26493 0
M  V30 3718 H 378.875 1.96009 3.45928 0
M  V30 3719 N 379.872 -1.04064 1.18357 0
M  V30 3720 C 381.119 -1.77265 0.978947 0
M  V30 3721 C 381.447 -1.88189 -0.491428 0
M  V30 3722 O 380.702 -1.38653 -1.38108 0
M  V30 3723 C 381.001 -3.20634 1.57888 0
M  V30 3724 C 380.667 -3.29743 3.07539 0
M  V30 3725 C 379.329 -3.31937 3.48384 0
M  V30 3726 C 381.681 -3.29841 4.03552 0
M  V30 3727 C 379.009 -3.3187 4.83818 0
M  V30 3728 C 381.361 -3.31313 5.38901 0
M  V30 3729 C 380.025 -3.31799 5.79194 0
M  V30 3730 H 379.295 -0.648659 0.358222 0
M  V30 3731 H 381.942 -1.22225 1.47422 0
M  V30 3732 H 380.247 -3.78675 1.00561 0
M  V30 3733 H 381.944 -3.75917 1.39598 0
M  V30 3734 H 378.534 -3.28757 2.74986 0
M  V30 3735 H 382.718 -3.27337 3.73047 0
M  V30 3736 H 377.974 -3.30562 5.14333 0
M  V30 3737 H 382.148 -3.30338 6.13066 0
M  V30 3738 H 379.775 -3.315 6.84114 0
M  V30 3739 N 381.35 -0.985608 -1.22978 0
M  V30 3740 C 382.313 -0.535071 -2.22867 0
M  V30 3741 C 383.313 0.378123 -1.56291 0
M  V30 3742 O 384.503 0.171092 -1.73358 0
M  V30 3743 C 381.635 0.222702 -3.40172 0
M  V30 3744 H 382.828 -1.41835 -2.6424 0
M  V30 3745 H 380.381 -0.772042 -1.35901 0
M  V30 3746 H 381.116 1.12229 -3.04262 0
M  V30 3747 H 380.901 -0.43288 -3.89703 0
M  V30 3748 H 382.391 0.526335 -4.1427 0
M  V30 3749 N 382.828 1.3818 -0.7579 0
M  V30 3750 C 383.758 2.33027 -0.148597 0
M  V30 3751 C 384.739 1.55085 0.69875 0
M  V30 3752 O 385.924 1.83384 0.639053 0
M  V30 3753 C 383.054 3.3928 0.742034 0
M  V30 3754 C 382.008 4.28 -0.00291946 0
M  V30 3755 C 381.334 5.25146 1.00625 0
M  V30 3756 C 382.634 5.08938 -1.17385 0
M  V30 3757 H 384.328 2.84231 -0.940909 0
M  V30 3758 H 381.874 1.36659 -0.453908 0
M  V30 3759 H 383.827 4.046 1.17799 0
M  V30 3760 H 382.551 2.86569 1.56671 0
M  V30 3761 H 381.21 3.64192 -0.419504 0
M  V30 3762 H 380.858 4.68721 1.8251 0
M  V30 3763 H 380.558 5.85361 0.512428 0
M  V30 3764 H 382.082 5.93342 1.44143 0
M  V30 3765 H 383.496 5.67474 -0.815224 0
M  V30 3766 H 381.893 5.7841 -1.59882 0
M  V30 3767 H 382.963 4.42424 -1.98468 0
M  V30 3768 N 384.306 0.507319 1.49211 0
M  V30 3769 C 385.717 0.0611118 1.866 0
M  V30 3770 C 386.068 -1.35488 1.41907 0
M  V30 3771 O 385.193 -2.0108 0.799726 0
M  V30 3772 C 385.788 0.104125 3.3864 0
M  V30 3773 C 384.347 -0.28677 3.75306 0
M  V30 3774 C 383.494 0.473893 2.73221 0
M  V30 3775 H 386.445 0.719775 1.41439 0
M  V30 3776 H 386.466 -0.689672 3.74198 0
M  V30 3777 H 385.978 1.13482 3.71138 0
M  V30 3778 H 384.079 -1.32046 3.48417 0
M  V30 3779 H 384.192 0.0370745 4.79086 0
M  V30 3780 H 382.556 -0.0770644 2.54583 0
M  V30 3781 H 383.339 1.50478 3.08563 0
M  V30 3782 N 385.784 -1.5574 0.241426 0
M  V30 3783 C 387.03 -1.99104 -0.385406 0
M  V30 3784 C 387.363 -1.1293 -1.57988 0
M  V30 3785 O 386.638 -0.191449 -1.93555 0
M  V30 3786 C 386.921 -3.51087 -0.800616 0
M  V30 3787 C 386.774 -4.48028 0.398874 0
M  V30 3788 C 388.093 -4.08015 -1.64959 0
M  V30 3789 H 385.212 -0.723848 -0.138614 0
M  V30 3790 H 387.854 -1.86903 0.341642 0
M  V30 3791 H 386.004 -3.61615 -1.4201 0
M  V30 3792 H 387.676 -4.49487 1.03726 0
M  V30 3793 H 385.919 -4.21077 1.04293 0
M  V30 3794 H 386.59 -5.51962 0.0651056 0
M  V30 3795 H 389.066 -4.00555 -1.12672 0
M  V30 3796 H 387.942 -5.14635 -1.90898 0
M  V30 3797 H 388.203 -3.56131 -2.61961 0
M  V30 3798 N 387.262 0.0317525 -1.57568 0
M  V30 3799 C 388.51 0.721676 -1.88776 0
M  V30 3800 C 388.831 1.76039 -0.838772 0
M  V30 3801 O 388.101 1.95482 0.127935 0
M  V30 3802 H 386.681 0.269534 -0.696678 0
M  V30 3803 H 389.343 -0.00165879 -1.949 0
M  V30 3804 H 388.439 1.21293 -2.87566 0
M  V30 3805 N 388.74 1.54641 0.303973 0
M  V30 3806 C 389.67 1.88386 1.3796 0
M  V30 3807 C 390.651 0.742485 1.5304 0
M  V30 3808 O 391.836 0.997959 1.66597 0
M  V30 3809 C 388.966 2.12854 2.74427 0
M  V30 3810 C 387.92 3.28702 2.74115 0
M  V30 3811 C 387.246 3.38582 4.13844 0
M  V30 3812 C 388.546 4.65881 2.3612 0
M  V30 3813 H 390.24 2.78474 1.09966 0
M  V30 3814 H 387.786 1.33988 0.527556 0
M  V30 3815 H 389.739 2.35047 3.49758 0
M  V30 3816 H 388.463 1.19535 3.03939 0
M  V30 3817 H 387.122 3.06428 2.0124 0
M  V30 3818 H 386.77 2.42784 4.40528 0
M  V30 3819 H 386.47 4.16453 4.14537 0
M  V30 3820 H 387.994 3.63031 4.90959 0
M  V30 3821 H 389.408 4.87823 3.01167 0
M  V30 3822 H 387.805 5.46444 2.48031 0
M  V30 3823 H 388.875 4.66799 1.3125 0
M  V30 3824 N 390.218 -0.567019 1.47046 0
M  V30 3825 C 391.467 -1.32091 1.5243 0
M  V30 3826 C 391.78 -1.94704 0.187021 0
M  V30 3827 O 392.986 -2.7124 0.118771 0
M  V30 3828 C 391.442 -2.39479 2.68659 0
M  V30 3829 C 391.05 -1.831 4.08874 0
M  V30 3830 C 392.794 -3.16111 2.83327 0
M  V30 3831 C 390.701 -2.8821 5.16419 0
M  V30 3832 H 389.631 -0.496629 0.56734 0
M  V30 3833 H 392.282 -0.603354 1.73297 0
M  V30 3834 H 390.664 -3.14105 2.41152 0
M  V30 3835 H 391.838 -1.14913 4.46242 0
M  V30 3836 H 390.153 -1.19085 3.99008 0
M  V30 3837 H 392.75 -3.94585 3.60842 0
M  V30 3838 H 393.093 -3.69686 1.91411 0
M  V30 3839 H 393.626 -2.48595 3.10556 0
M  V30 3840 H 390.365 -2.39504 6.10179 0
M  V30 3841 H 389.885 -3.54839 4.8358 0
M  V30 3842 H 391.564 -3.51881 5.42945 0
M  V30 3843 N 391.696 -1.35014 -0.812953 0
M  V30 3844 C 392.942 -1.2812 -1.57204 0
M  V30 3845 C 393.275 0.145869 -1.93651 0
M  V30 3846 O 392.55 1.0937 -1.60836 0
M  V30 3847 C 392.833 -2.18162 -2.86492 0
M  V30 3848 C 392.686 -3.69454 -2.56561 0
M  V30 3849 C 394.005 -2.07439 -3.88145 0
M  V30 3850 H 391.124 -0.466746 -0.570366 0
M  V30 3851 H 393.766 -1.65357 -0.935783 0
M  V30 3852 H 391.916 -1.86535 -3.40789 0
M  V30 3853 H 393.588 -4.11493 -2.08497 0
M  V30 3854 H 391.831 -3.9005 -1.89851 0
M  V30 3855 H 392.502 -4.27835 -3.48799 0
M  V30 3856 H 394.978 -2.35228 -3.4323 0
M  V30 3857 H 393.854 -2.7265 -4.76396 0
M  V30 3858 H 394.115 -1.05439 -4.29343 0
M  V30 3859 N 393.175 1.03435 -1.18907 0
M  V30 3860 C 394.423 1.76394 -0.986382 0
M  V30 3861 C 394.744 1.88883 0.484567 0
M  V30 3862 O 394.014 1.41843 1.3512 0
M  V30 3863 H 392.594 0.65344 -0.361975 0
M  V30 3864 H 395.256 1.248 -1.49703 0
M  V30 3865 H 394.352 2.77424 -1.42978 0
M  V30 3866 N 394.653 0.992116 1.22453 0
M  V30 3867 C 395.899 0.668523 1.91464 0
M  V30 3868 C 396.232 -0.797313 1.77078 0
M  V30 3869 O 395.507 -1.5765 1.13916 0
M  V30 3870 C 395.79 1.07424 3.43703 0
M  V30 3871 C 395.643 2.59857 3.67143 0
M  V30 3872 C 396.962 0.626891 4.35612 0
M  V30 3873 H 394.081 0.244341 0.695318 0
M  V30 3874 H 396.723 1.2355 1.44345 0
M  V30 3875 H 394.873 0.591816 3.83966 0
M  V30 3876 H 396.545 3.15764 3.3629 0
M  V30 3877 H 394.788 3.01961 3.11451 0
M  V30 3878 H 395.459 2.83296 4.73759 0
M  V30 3879 H 397.935 1.04125 4.02861 0
M  V30 3880 H 396.811 0.939076 5.40807 0
M  V30 3881 H 397.072 -0.472457 4.39568 0
M  V30 3882 N 396.131 -1.37776 0.765217 0
M  V30 3883 C 397.359 -2.04124 0.337767 0
M  V30 3884 C 397.774 -1.57715 -1.03785 0
M  V30 3885 O 397.131 -0.755447 -1.6613 0
M  V30 3886 C 397.182 -3.59658 0.364442 0
M  V30 3887 O 396.903 -4.04367 1.68579 0
M  V30 3888 C 398.404 -4.43236 -0.0754221 0
M  V30 3889 H 395.624 -0.655696 0.142491 0
M  V30 3890 H 398.168 -1.76238 1.03732 0
M  V30 3891 H 396.323 -3.86339 -0.286471 0
M  V30 3892 H 396.737 -4.98857 1.61993 0
M  V30 3893 H 398.211 -5.52 -0.00560067 0
M  V30 3894 H 398.688 -4.2455 -1.12491 0
M  V30 3895 H 399.294 -4.21767 0.547055 0
M  V30 3896 N 397.609 -0.515225 -1.4894 0
M  V30 3897 C 398.572 0.244681 -2.2789 0
M  V30 3898 C 399.572 0.881166 -1.34507 0
M  V30 3899 O 400.762 0.743497 -1.57537 0
M  V30 3900 C 397.894 1.35247 -3.12923 0
M  V30 3901 H 399.087 -0.448289 -2.96531 0
M  V30 3902 H 396.64 -0.270656 -1.53939 0
M  V30 3903 H 397.375 2.07916 -2.48881 0
M  V30 3904 H 397.16 0.901374 -3.81599 0
M  V30 3905 H 398.65 1.88737 -3.72516 0
M  V30 3906 N 399.087 1.5561 -0.249682 0
M  V30 3907 C 400.017 2.24477 0.642826 0
M  V30 3908 C 400.998 1.22601 1.17911 0
M  V30 3909 O 402.183 1.5126 1.21795 0
M  V30 3910 C 399.313 2.94638 1.83863 0
M  V30 3911 C 398.267 4.03227 1.435 0
M  V30 3912 C 397.593 4.60828 2.71186 0
M  V30 3913 C 398.893 5.18796 0.604002 0
M  V30 3914 H 400.587 2.99321 0.0685625 0
M  V30 3915 H 398.133 1.43965 0.0315363 0
M  V30 3916 H 400.086 3.41517 2.46868 0
M  V30 3917 H 398.81 2.17287 2.43832 0
M  V30 3918 H 397.469 3.57121 0.828275 0
M  V30 3919 H 397.117 3.80174 3.29358 0
M  V30 3920 H 396.817 5.34132 2.44901 0
M  V30 3921 H 398.341 5.10442 3.35084 0
M  V30 3922 H 399.755 5.61883 1.13842 0
M  V30 3923 H 398.152 5.98506 0.437097 0
M  V30 3924 H 399.222 4.83384 -0.383147 0
M  V30 3925 N 400.565 -0.0233959 1.57583 0
M  V30 3926 C 401.813 -0.711654 1.89156 0
M  V30 3927 C 402.134 -1.75591 0.848096 0
M  V30 3928 O 401.404 -1.95547 -0.117566 0
M  V30 3929 H 399.984 -0.265835 0.698098 0
M  V30 3930 H 402.646 0.0119948 1.94896 0
M  V30 3931 H 401.742 -1.19766 2.88206 0
M  V30 3932 N 402.043 -1.548 -0.295768 0
M  V30 3933 C 402.973 -1.89115 -1.36959 0
M  V30 3934 C 403.954 -0.75059 -1.52644 0
M  V30 3935 O 405.139 -1.00678 -1.66065 0
M  V30 3936 C 402.269 -2.14307 -2.73295 0
M  V30 3937 C 401.223 -3.30151 -2.72368 0
M  V30 3938 C 400.549 -3.40772 -4.12042 0
M  V30 3939 C 401.849 -4.67126 -2.33646 0
M  V30 3940 H 403.543 -2.79053 -1.08488 0
M  V30 3941 H 401.089 -1.34266 -0.520443 0
M  V30 3942 H 403.042 -2.36898 -3.48507 0
M  V30 3943 H 401.766 -1.21145 -3.03301 0
M  V30 3944 H 400.425 -3.0749 -1.99613 0
M  V30 3945 H 400.073 -2.45117 -4.39234 0
M  V30 3946 H 399.773 -4.18645 -4.12322 0
M  V30 3947 H 401.297 -3.6563 -4.89027 0
M  V30 3948 H 402.711 -4.89414 -2.98575 0
M  V30 3949 H 401.108 -5.47751 -2.45129 0
M  V30 3950 H 402.178 -4.67489 -1.28772 0
M  V30 3951 N 403.521 0.559213 -1.47345 0
M  V30 3952 C 404.451 1.67622 -1.62558 0
M  V30 3953 C 405.432 1.63331 -0.475087 0
M  V30 3954 O 406.617 1.80983 -0.704182 0
M  V30 3955 C 403.747 3.0626 -1.63774 0
M  V30 3956 C 402.701 3.25397 -2.7803 0
M  V30 3957 C 402.027 4.64801 -2.64318 0
M  V30 3958 C 403.327 3.10965 -4.19641 0
M  V30 3959 H 405.021 1.55146 -2.56067 0
M  V30 3960 H 402.567 0.744961 -1.23233 0
M  V30 3961 H 404.52 3.84247 -1.73008 0
M  V30 3962 H 403.244 3.1969 -0.66825 0
M  V30 3963 H 401.903 2.49817 -2.68304 0
M  V30 3964 H 401.551 4.75028 -1.65401 0
M  V30 3965 H 401.251 4.78555 -3.40968 0
M  V30 3966 H 402.775 5.44926 -2.75478 0
M  V30 3967 H 404.189 3.78772 -4.30354 0
M  V30 3968 H 402.586 3.36229 -4.97062 0
M  V30 3969 H 403.656 2.07736 -4.38148 0
M  V30 3970 N 404.999 1.35443 0.805782 0
M  V30 3971 C 406.248 1.28097 1.55801 0
M  V30 3972 C 406.561 -0.142428 1.95081 0
M  V30 3973 O 407.767 -0.33817 2.69386 0
M  V30 3974 C 406.223 2.24653 2.81174 0
M  V30 3975 C 405.831 3.72342 2.49129 0
M  V30 3976 C 407.575 2.2625 3.59181 0
M  V30 3977 C 405.482 4.60719 3.70799 0
M  V30 3978 H 404.412 0.475937 0.584808 0
M  V30 3979 H 407.063 1.60712 0.885661 0
M  V30 3980 H 405.445 1.85011 3.50124 0
M  V30 3981 H 406.619 4.20624 1.88181 0
M  V30 3982 H 404.934 3.73361 1.84366 0
M  V30 3983 H 407.531 2.89495 4.49552 0
M  V30 3984 H 407.874 1.26647 3.96568 0
M  V30 3985 H 408.407 2.64426 2.97193 0
M  V30 3986 H 405.146 5.61324 3.3852 0
M  V30 3987 H 404.666 4.17163 4.3097 0
M  V30 3988 H 406.345 4.76182 4.38018 0
M  V30 3989 N 406.477 -1.02803 1.19454 0
M  V30 3990 C 407.726 -1.7562 0.991996 0
M  V30 3991 C 408.039 -1.89672 -0.477901 0
M  V30 3992 O 409.245 -2.59468 -0.799287 0
M  V30 3993 C 407.701 -3.15812 1.72601 0
M  V30 3994 C 407.309 -3.0981 3.23607 0
M  V30 3995 C 409.053 -3.92918 1.60674 0
M  V30 3996 C 406.96 -4.44939 3.89594 0
M  V30 3997 H 405.89 -0.658352 0.367543 0
M  V30 3998 H 408.541 -1.15044 1.42959 0
M  V30 3999 H 406.923 -3.7686 1.21624 0
M  V30 4000 H 408.097 -2.58138 3.81709 0
M  V30 4001 H 406.412 -2.46201 3.35819 0
M  V30 4002 H 409.009 -4.9287 2.07323 0
M  V30 4003 H 409.352 -4.12502 0.561025 0
M  V30 4004 H 409.885 -3.38472 2.09001 0
M  V30 4005 H 406.624 -4.30559 4.94267 0
M  V30 4006 H 406.144 -4.96664 3.36281 0
M  V30 4007 H 407.823 -5.1382 3.93189 0
M  V30 4008 N 407.956 -0.998596 -1.21925 0
M  V30 4009 C 409.204 -0.676325 -1.90448 0
M  V30 4010 C 409.525 0.794719 -1.78071 0
M  V30 4011 O 408.795 1.5701 -1.17152 0
M  V30 4012 H 407.375 -0.247165 -0.704925 0
M  V30 4013 H 410.037 -1.26633 -1.48156 0
M  V30 4014 H 409.133 -0.943858 -2.97486 0
M  V30 4015 N 409.434 1.37368 -0.772513 0
M  V30 4016 C 410.68 1.99969 -0.337681 0
M  V30 4017 C 411.013 1.61184 1.08321 0
M  V30 4018 O 410.288 0.858395 1.74533 0
M  V30 4019 C 410.571 3.56858 -0.482121 0
M  V30 4020 C 410.424 4.0555 -1.94549 0
M  V30 4021 C 411.743 4.39955 0.113143 0
M  V30 4022 H 408.862 0.726464 -0.124171 0
M  V30 4023 H 411.504 1.63034 -0.975699 0
M  V30 4024 H 409.654 3.88452 0.0610361 0
M  V30 4025 H 411.326 3.84518 -2.54841 0
M  V30 4026 H 409.569 3.57715 -2.45403 0
M  V30 4027 H 410.24 5.14587 -1.9976 0
M  V30 4028 H 412.716 4.14623 -0.35031 0
M  V30 4029 H 411.592 5.48897 -0.0180514 0
M  V30 4030 H 411.853 4.25403 1.20354 0
M  V30 4031 N 410.912 0.523116 1.48665 0
M  V30 4032 C 412.158 -0.0134963 2.02796 0
M  V30 4033 C 412.491 -1.34582 1.40004 0
M  V30 4034 O 411.766 -1.86756 0.543381 0
M  V30 4035 C 412.049 -0.14276 3.59817 0
M  V30 4036 C 411.902 1.21425 4.331 0
M  V30 4037 C 413.221 -0.872856 4.31357 0
M  V30 4038 H 410.34 -0.00343074 0.736992 0
M  V30 4039 H 412.982 0.678816 1.7746 0
M  V30 4040 H 411.132 -0.732401 3.81534 0
M  V30 4041 H 412.804 1.84447 4.2282 0
M  V30 4042 H 411.047 1.79791 3.94788 0
M  V30 4043 H 411.718 1.07687 5.41394 0
M  V30 4044 H 414.194 -0.372555 4.14429 0
M  V30 4045 H 413.07 -0.932185 5.40927 0
M  V30 4046 H 413.331 -1.92161 3.98154 0
M  V30 4047 N 412.39 -1.55475 0.257931 0
M  V30 4048 C 413.338 -2.23244 -0.653076 0
M  V30 4049 C 414.332 -1.22366 -1.17144 0
M  V30 4050 O 415.538 -1.40347 -1.12706 0
M  V30 4051 H 411.913 -0.716247 -0.229117 0
M  V30 4052 H 413.884 -2.98343 -0.0584788 0
M  V30 4053 C 412.633 -2.95401 -1.83395 0
M  V30 4054 H 411.956 -3.72802 -1.44424 0
M  V30 4055 H 413.396 -3.46165 -2.44838 0
M  V30 4056 C 411.855 -1.99895 -2.71189 0
M  V30 4057 O 412.385 -1.53909 -3.71046 0
M  V30 4058 N 410.591 -1.6676 -2.3799 0
M  V30 4059 H 410.138 -2.04352 -1.56837 0
M  V30 4060 H 410.096 -1.03127 -2.97005 0
M  V30 4061 N 413.868 0.0150385 -1.57593 0
M  V30 4062 C 415.108 0.70768 -1.91758 0
M  V30 4063 C 415.472 1.71764 -0.857974 0
M  V30 4064 O 416.673 2.45956 -1.0844 0
M  V30 4065 C 414.944 1.34736 -3.3103 0
M  V30 4066 S 416.503 2.06721 -3.87056 0
M  V30 4067 H 413.321 0.234119 -0.671349 0
M  V30 4068 H 415.923 -0.0380373 -1.95463 0
M  V30 4069 H 414.627 0.59926 -4.06001 0
M  V30 4070 H 414.158 2.13133 -3.30663 0
M  V30 4071 H 416.173 3.34047 -3.66915 0
M  V30 4072 N 415.346 1.54954 0.287554 0
M  V30 4073 C 416.592 1.75132 1.02257 0
M  V30 4074 C 416.925 0.542858 1.86458 0
M  V30 4075 O 416.2 -0.459856 1.88986 0
M  V30 4076 C 416.483 3.04812 1.91733 0
M  V30 4077 C 416.336 4.35985 1.10622 0
M  V30 4078 C 417.655 3.30438 2.90687 0
M  V30 4079 H 414.774 0.637194 0.370341 0
M  V30 4080 H 417.416 1.87678 0.296111 0
M  V30 4081 H 415.566 2.94247 2.53675 0
M  V30 4082 H 417.238 4.58487 0.508636 0
M  V30 4083 H 415.481 4.31865 0.409271 0
M  V30 4084 H 416.152 5.23017 1.76513 0
M  V30 4085 H 418.628 3.40701 2.38877 0
M  V30 4086 H 417.504 4.22467 3.50447 0
M  V30 4087 H 417.765 2.49377 3.65053 0
M  V30 4088 N 416.824 -0.551391 1.4764 0
M  V30 4089 C 418.073 -1.30467 1.53822 0
M  V30 4090 C 418.386 -1.94495 0.207661 0
M  V30 4091 O 419.592 -2.71099 0.147533 0
M  V30 4092 C 418.048 -2.36616 2.71184 0
M  V30 4093 C 417.656 -1.78754 4.10793 0
M  V30 4094 C 419.4 -3.13088 2.86663 0
M  V30 4095 C 417.307 -2.82717 5.19447 0
M  V30 4096 H 416.237 -0.490584 0.572576 0
M  V30 4097 H 418.888 -0.58494 1.73927 0
M  V30 4098 H 417.27 -3.11529 2.4447 0
M  V30 4099 H 418.444 -1.10173 4.47435 0
M  V30 4100 H 416.759 -1.14846 4.00249 0
M  V30 4101 H 419.356 -3.90736 3.65007 0
M  V30 4102 H 419.699 -3.67635 1.95321 0
M  V30 4103 H 420.232 -2.45288 3.13175 0
M  V30 4104 H 416.971 -2.33018 6.12685 0
M  V30 4105 H 416.491 -3.4969 4.87316 0
M  V30 4106 H 418.17 -3.46102 5.46646 0
M  V30 4107 N 418.302 -1.35869 -0.798587 0
M  V30 4108 C 419.235 -1.23801 -1.91699 0
M  V30 4109 C 420.213 -0.124143 -1.62125 0
M  V30 4110 O 421.397 -0.293656 -1.86199 0
M  V30 4111 C 418.524 -0.908063 -3.263 0
M  V30 4112 C 417.57 -2.0351 -3.74815 0
M  V30 4113 S 418.403 -3.65183 -3.91665 0
M  V30 4114 C 419.559 -3.34283 -5.29156 0
M  V30 4115 H 419.792 -2.18466 -2.01643 0
M  V30 4116 H 417.325 -1.21178 -0.956833 0
M  V30 4117 H 419.283 -0.724506 -4.04056 0
M  V30 4118 H 417.944 0.0206584 -3.14093 0
M  V30 4119 H 417.137 -1.75858 -4.72324 0
M  V30 4120 H 416.739 -2.1774 -3.04081 0
M  V30 4121 H 419.031 -2.87607 -6.13424 0
M  V30 4122 H 419.974 -4.31022 -5.61806 0
M  V30 4123 H 420.382 -2.69854 -4.95822 0
M  V30 4124 N 419.78 1.02168 -1.19998 0
M  V30 4125 C 421.008 1.79296 -1.03249 0
M  V30 4126 C 421.423 1.84103 0.418502 0
M  V30 4127 O 420.78 1.29031 1.29063 0
M  V30 4128 C 420.831 3.24007 -1.60319 0
M  V30 4129 O 420.552 3.19512 -2.99739 0
M  V30 4130 C 422.053 4.17704 -1.48453 0
M  V30 4131 H 419.273 0.564016 -0.363493 0
M  V30 4132 H 421.817 1.28639 -1.58973 0
M  V30 4133 H 419.972 3.7183 -1.08727 0
M  V30 4134 H 420.386 4.10306 -3.26725 0
M  V30 4135 H 421.86 5.17104 -1.93153 0
M  V30 4136 H 422.337 4.37029 -0.436193 0
M  V30 4137 H 422.943 3.7576 -1.99211 0
M  V30 4138 N 421.258 1.00505 1.21394 0
M  V30 4139 C 422.19 0.52372 2.23136 0
M  V30 4140 C 423.203 -0.387714 1.58116 0
M  V30 4141 O 424.392 -0.187905 1.77508 0
M  V30 4142 C 421.492 -0.258885 3.3791 0
M  V30 4143 C 420.665 0.651634 4.32519 0
M  V30 4144 C 419.724 -0.0813705 5.26137 0
M  V30 4145 O 418.75 0.537295 5.66658 0
M  V30 4146 N 419.952 -1.35992 5.64346 0
M  V30 4147 H 422.717 1.39865 2.65062 0
M  V30 4148 H 420.278 0.881196 1.35818 0
M  V30 4149 H 422.27 -0.758208 3.97534 0
M  V30 4150 H 420.84 -1.035 2.94968 0
M  V30 4151 H 420.06 1.33145 3.71034 0
M  V30 4152 H 421.348 1.27129 4.92662 0
M  V30 4153 H 420.746 -1.88368 5.33417 0
M  V30 4154 H 419.303 -1.8042 6.26332 0
M  V30 4155 N 422.737 -1.36956 0.779787 0
M  V30 4156 C 423.983 -1.99787 0.348281 0
M  V30 4157 C 424.316 -1.61756 -1.07465 0
M  V30 4158 O 423.591 -0.867639 -1.74075 0
M  V30 4159 C 423.874 -3.56597 0.50104 0
M  V30 4160 C 423.727 -4.04513 1.96697 0
M  V30 4161 C 425.046 -4.40008 -0.0898097 0
M  V30 4162 H 422.165 -0.725796 0.128022 0
M  V30 4163 H 424.807 -1.62514 0.984331 0
M  V30 4164 H 422.957 -3.88479 -0.0404347 0
M  V30 4165 H 424.629 -3.83161 2.56876 0
M  V30 4166 H 422.872 -3.56408 2.47297 0
M  V30 4167 H 423.543 -5.1352 2.02486 0
M  V30 4168 H 426.019 -4.14431 0.372293 0
M  V30 4169 H 424.895 -5.4888 0.0471605 0
M  V30 4170 H 425.156 -4.26035 -1.18096 0
M  V30 4171 N 424.215 -0.530993 -1.48385 0
M  V30 4172 C 425.162 0.231223 -2.29639 0
M  V30 4173 C 426.132 0.932864 -1.37429 0
M  V30 4174 O 427.317 0.933692 -1.66394 0
M  V30 4175 C 424.457 1.27155 -3.2082 0
M  V30 4176 C 423.57 0.578655 -4.28107 0
M  V30 4177 C 422.705 1.602 -5.06467 0
M  V30 4178 C 421.744 0.892625 -6.05556 0
M  V30 4179 N 420.881 1.86157 -6.76971 0
M  V30 4180 H 425.721 -0.467848 -2.94305 0
M  V30 4181 H 423.258 -0.242556 -1.45086 0
M  V30 4182 H 425.216 1.88703 -3.72085 0
M  V30 4183 H 423.846 1.939 -2.58075 0
M  V30 4184 H 422.898 -0.150782 -3.80101 0
M  V30 4185 H 424.21 0.0217065 -4.98795 0
M  V30 4186 H 423.364 2.29173 -5.61751 0
M  V30 4187 H 422.103 2.19285 -4.35621 0
M  V30 4188 H 421.108 0.188829 -5.49476 0
M  V30 4189 H 422.333 0.307878 -6.78402 0
M  V30 4190 H 420.279 2.44147 -6.08875 0
M  V30 4191 H 420.196 1.35608 -7.43738 0
M  V30 4192 H 421.464 2.54325 -7.36844 0
M  V30 4193 N 425.693 1.55336 -0.266172 0
M  V30 4194 C 426.64 2.22172 0.625165 0
M  V30 4195 C 427.61 1.19211 1.15663 0
M  V30 4196 O 428.795 1.47723 1.20758 0
M  V30 4197 C 425.935 2.93972 1.8076 0
M  V30 4198 C 425.048 4.11632 1.31084 0
M  V30 4199 C 424.183 4.71099 2.45436 0
M  V30 4200 C 423.222 5.8097 1.92718 0
M  V30 4201 N 422.359 6.34538 3.00509 0
M  V30 4202 H 427.199 2.9796 0.0485582 0
M  V30 4203 H 424.736 1.47095 0.0122024 0
M  V30 4204 H 426.694 3.33811 2.50251 0
M  V30 4205 H 425.324 2.20623 2.35638 0
M  V30 4206 H 424.376 3.76975 0.509326 0
M  V30 4207 H 425.688 4.90893 0.884633 0
M  V30 4208 H 424.842 5.13612 3.22936 0
M  V30 4209 H 423.581 3.91096 2.91368 0
M  V30 4210 H 422.586 5.37916 1.13695 0
M  V30 4211 H 423.811 6.62836 1.47733 0
M  V30 4212 H 421.757 5.57433 3.45839 0
M  V30 4213 H 421.674 7.09046 2.62279 0
M  V30 4214 H 422.942 6.81709 3.78011 0
M  V30 4215 N 427.171 -0.0066808 1.57599 0
M  V30 4216 C 428.118 -1.00024 2.08 0
M  V30 4217 C 429.088 -1.34549 0.973943 0
M  V30 4218 O 430.273 -1.44502 1.24595 0
M  V30 4219 C 427.413 -2.2891 2.58252 0
M  V30 4220 C 426.526 -2.00346 3.82734 0
M  V30 4221 C 425.661 -3.23265 4.21513 0
M  V30 4222 C 424.7 -2.90357 5.3885 0
M  V30 4223 N 423.837 -4.05793 5.72954 0
M  V30 4224 H 428.677 -0.563499 2.92624 0
M  V30 4225 H 426.214 -0.266592 1.44664 0
M  V30 4226 H 428.172 -3.04247 2.85464 0
M  V30 4227 H 426.802 -2.70265 1.76512 0
M  V30 4228 H 425.854 -1.15406 3.62471 0
M  V30 4229 H 427.166 -1.72086 4.68175 0
M  V30 4230 H 426.32 -4.06953 4.49971 0
M  V30 4231 H 425.059 -3.54657 3.34768 0
M  V30 4232 H 424.064 -2.05075 5.10122 0
M  V30 4233 H 425.289 -2.60219 6.27266 0
M  V30 4234 H 423.235 -4.37094 4.89167 0
M  V30 4235 H 423.152 -3.81034 6.52954 0
M  V30 4236 H 424.42 -4.90289 6.06001 0
M  V30 4237 N 428.649 -1.55105 -0.279332 0
M  V30 4238 C 430.06 -1.66186 -0.850832 0
M  V30 4239 C 430.411 -0.584707 -1.87285 0
M  V30 4240 O 429.536 0.274919 -2.14647 0
M  V30 4241 C 430.131 -3.01264 -1.55001 0
M  V30 4242 C 428.69 -3.14394 -2.06963 0
M  V30 4243 C 427.837 -2.61959 -0.909536 0
M  V30 4244 H 430.788 -1.58602 -0.0558235 0
M  V30 4245 H 430.809 -2.93899 -2.41669 0
M  V30 4246 H 430.321 -3.7964 -0.805931 0
M  V30 4247 H 428.422 -2.4078 -2.84352 0
M  V30 4248 H 428.535 -4.20867 -2.28928 0
M  V30 4249 H 426.899 -2.18957 -1.30116 0
M  V30 4250 H 427.682 -3.42833 -0.179062 0
M  V30 4251 N 430.127 0.543554 -1.4793 0
M  V30 4252 C 431.057 1.65888 -1.64327 0
M  V30 4253 C 432.038 1.62818 -0.492383 0
M  V30 4254 O 433.223 1.80226 -0.723338 0
M  V30 4255 C 430.353 3.04506 -1.67013 0
M  V30 4256 C 429.307 3.2243 -2.81466 0
M  V30 4257 C 428.633 4.61972 -2.69233 0
M  V30 4258 C 429.933 3.06496 -4.22915 0
M  V30 4259 H 431.627 1.52421 -2.57698 0
M  V30 4260 H 429.173 0.731849 -1.24016 0
M  V30 4261 H 431.126 3.82391 -1.77074 0
M  V30 4262 H 429.85 3.18964 -0.70212 0
M  V30 4263 H 428.509 2.46957 -2.70938 0
M  V30 4264 H 428.157 4.73247 -1.7043 0
M  V30 4265 H 427.857 4.74911 -3.46025 0
M  V30 4266 H 429.381 5.41974 -2.81242 0
M  V30 4267 H 430.795 3.74186 -4.34348 0
M  V30 4268 H 429.192 3.30938 -5.006 0
M  V30 4269 H 430.262 2.03077 -4.40327 0
M  V30 4270 N 431.605 1.3629 0.791371 0
M  V30 4271 C 432.845 1.31792 1.56238 0
M  V30 4272 C 433.209 -0.102237 1.91728 0
M  V30 4273 O 434.41 -0.271759 2.67423 0
M  V30 4274 C 432.681 2.21303 2.80642 0
M  V30 4275 S 434.24 2.34468 3.70904 0
M  V30 4276 H 431.058 0.468141 0.535131 0
M  V30 4277 H 433.66 1.71841 0.932246 0
M  V30 4278 H 432.364 3.23439 2.52617 0
M  V30 4279 H 431.895 1.82266 3.4863 0
M  V30 4280 H 433.91 1.54074 4.71673 0
M  V30 4281 N 433.083 -1.0153 1.20538 0
M  V30 4282 C 434.013 -2.11972 0.979295 0
M  V30 4283 C 434.994 -1.6985 -0.0921787 0
M  V30 4284 O 436.179 -1.94089 0.0655932 0
M  V30 4285 C 433.309 -3.43201 0.531984 0
M  V30 4286 C 432.263 -3.9907 1.54685 0
M  V30 4287 C 431.589 -5.26082 0.956127 0
M  V30 4288 C 432.889 -4.32313 2.93092 0
M  V30 4289 H 434.583 -2.31143 1.90298 0
M  V30 4290 H 432.129 -1.11079 0.916372 0
M  V30 4291 H 434.082 -4.1985 0.361044 0
M  V30 4292 H 432.806 -3.23792 -0.427327 0
M  V30 4293 H 431.465 -3.2453 1.70517 0
M  V30 4294 H 431.113 -5.02999 -0.0111538 0
M  V30 4295 H 430.813 -5.64426 1.63393 0
M  V30 4296 H 432.337 -6.05386 0.796284 0
M  V30 4297 H 433.751 -4.99845 2.80763 0
M  V30 4298 H 432.148 -4.81774 3.57791 0
M  V30 4299 H 433.218 -3.41025 3.44717 0
M  V30 4300 N 434.561 -1.01147 -1.20859 0
M  V30 4301 C 435.493 -0.535546 -2.22855 0
M  V30 4302 C 436.506 0.379323 -1.58319 0
M  V30 4303 O 437.695 0.178489 -1.77605 0
M  V30 4304 C 434.795 0.240962 -3.38042 0
M  V30 4305 C 433.968 -0.674562 -4.32167 0
M  V30 4306 C 433.027 0.053467 -5.26173 0
M  V30 4307 O 432.053 -0.567339 -5.66366 0
M  V30 4308 N 433.255 1.32997 -5.65059 0
M  V30 4309 H 436.02 -1.41268 -2.64317 0
M  V30 4310 H 433.581 -0.888386 -1.35349 0
M  V30 4311 H 435.573 0.737115 -3.97931 0
M  V30 4312 H 434.143 1.01935 -2.95513 0
M  V30 4313 H 433.363 -1.35111 -3.70322 0
M  V30 4314 H 434.651 -1.2974 -4.91981 0
M  V30 4315 H 434.049 1.85536 -5.34409 0
M  V30 4316 H 432.606 1.77095 -6.2728 0
M  V30 4317 N 436.039 1.36541 -0.78704 0
M  V30 4318 C 437.455 1.52571 -0.46844 0
M  V30 4319 C 437.655 1.7415 1.01361 0
M  V30 4320 O 436.711 1.77163 1.79915 0
M  V30 4321 C 438.024 2.71299 -1.29682 0
M  V30 4322 C 439.572 2.85169 -1.29027 0
M  V30 4323 C 440.047 4.06898 -2.10233 0
M  V30 4324 N 441.538 4.1404 -2.07666 0
M  V30 4325 C 442.273 5.07301 -2.67271 0
M  V30 4326 N 441.769 6.06021 -3.35724 0
M  V30 4327 N 443.562 4.99898 -2.57018 0
M  V30 4328 H 435.713 1.20788 -1.74711 0
M  V30 4329 H 437.976 0.589364 -0.742532 0
M  V30 4330 H 437.682 2.61868 -2.34773 0
M  V30 4331 H 437.556 3.6539 -0.936479 0
M  V30 4332 H 439.943 2.94062 -0.247284 0
M  V30 4333 H 440.024 1.91992 -1.69035 0
M  V30 4334 H 439.668 3.98766 -3.1456 0
M  V30 4335 H 439.598 4.99218 -1.67597 0
M  V30 4336 H 442.089 3.43357 -1.57843 0
M  V30 4337 H 442.402 6.73741 -3.78541 0
M  V30 4338 H 440.747 6.06253 -3.39826 0
M  V30 4339 H 443.938 4.21724 -2.03142 0
M  V30 4340 H 444.111 5.72392 -3.03761 0
M  V30 4341 N 437.518 0.538854 1.48102 0
M  V30 4342 C 438.428 -0.222648 2.33541 0
M  V30 4343 C 439.444 -0.930225 1.47047 0
M  V30 4344 O 440.62 -0.903211 1.80011 0
M  V30 4345 C 437.685 -1.25064 3.23357 0
M  V30 4346 C 436.746 -0.552469 4.2573 0
M  V30 4347 C 435.979 -1.53149 5.11254 0
M  V30 4348 O 436.202 -2.76487 4.9891 0
M  V30 4349 O 435.136 -1.06602 5.92385 0
M  V30 4350 H 438.962 0.477707 2.99919 0
M  V30 4351 H 436.547 0.299669 1.46364 0
M  V30 4352 H 438.429 -1.8445 3.78888 0
M  V30 4353 H 437.104 -1.93325 2.59629 0
M  V30 4354 H 436.011 0.082114 3.7401 0
M  V30 4355 H 437.344 0.0883526 4.92121 0
M  V30 4356 N 438.996 -1.55193 0.274407 0
M  V30 4357 C 439.959 -2.212 -0.600279 0
M  V30 4358 C 440.959 -1.18963 -1.08187 0
M  V30 4359 O 442.149 -1.43873 -0.982158 0
M  V30 4360 C 439.281 -2.87739 -1.82809 0
M  V30 4361 H 440.474 -2.9989 -0.0239682 0
M  V30 4362 H 438.027 -1.5628 0.0250192 0
M  V30 4363 H 438.762 -2.13058 -2.44493 0
M  V30 4364 H 438.547 -3.62658 -1.49069 0
M  V30 4365 H 440.037 -3.38171 -2.45011 0
M  V30 4366 N 440.474 -0.00167713 -1.576 0
M  V30 4367 C 441.421 0.989195 -2.08527 0
M  V30 4368 C 442.391 1.34031 -0.981065 0
M  V30 4369 O 443.576 1.43839 -1.2536 0
M  V30 4370 C 440.716 2.27537 -2.59463 0
M  V30 4371 C 439.829 1.98314 -3.83791 0
M  V30 4372 C 438.964 3.21025 -4.23222 0
M  V30 4373 C 438.003 2.87495 -5.40382 0
M  V30 4374 N 437.14 4.02749 -5.75098 0
M  V30 4375 H 441.98 0.547973 -2.92919 0
M  V30 4376 H 439.517 0.258917 -1.44803 0
M  V30 4377 H 441.475 3.02729 -2.87073 0
M  V30 4378 H 440.105 2.69325 -1.77943 0
M  V30 4379 H 439.157 1.13482 -3.63078 0
M  V30 4380 H 440.469 1.69601 -4.69081 0
M  V30 4381 H 439.623 4.04561 -4.52123 0
M  V30 4382 H 438.362 3.52877 -3.36644 0
M  V30 4383 H 437.367 2.02367 -5.11202 0
M  V30 4384 H 438.592 2.56889 -6.28637 0
M  V30 4385 H 436.538 4.34494 -4.91478 0
M  V30 4386 H 436.455 3.77566 -6.54966 0
M  V30 4387 H 437.723 4.87068 -6.08592 0
M  V30 4388 N 441.952 1.55251 0.271103 0
M  V30 4389 C 443.198 1.76207 1.00394 0
M  V30 4390 C 443.531 0.562604 1.85872 0
M  V30 4391 O 442.806 -0.439785 1.89463 0
M  V30 4392 C 443.089 3.06828 1.8849 0
M  V30 4393 C 442.942 4.37134 1.05992 0
M  V30 4394 C 444.261 3.33503 2.87165 0
M  V30 4395 H 441.38 0.641086 0.363562 0
M  V30 4396 H 444.022 1.87982 0.276189 0
M  V30 4397 H 442.172 2.96921 2.5054 0
M  V30 4398 H 443.844 4.59001 0.459978 0
M  V30 4399 H 442.087 4.32275 0.363443 0
M  V30 4400 H 442.758 5.2486 1.70955 0
M  V30 4401 H 445.234 3.43215 2.3525 0
M  V30 4402 H 444.11 4.2616 3.45946 0
M  V30 4403 H 444.371 2.53235 3.62387 0
M  V30 4404 N 443.43 -0.535701 1.48216 0
M  V30 4405 C 444.841 -1.11769 1.49548 0
M  V30 4406 C 445.192 -1.94442 0.26207 0
M  V30 4407 O 444.317 -2.06987 -0.631287 0
M  V30 4408 C 444.912 -2.03367 2.70975 0
M  V30 4409 C 443.471 -2.56795 2.75196 0
M  V30 4410 C 442.618 -1.33631 2.42977 0
M  V30 4411 H 445.569 -0.321232 1.55415 0
M  V30 4412 H 445.59 -2.87569 2.49167 0
M  V30 4413 H 445.102 -1.43169 3.60727 0
M  V30 4414 H 443.203 -3.20731 1.89638 0
M  V30 4415 H 443.316 -2.9632 3.76472 0
M  V30 4416 H 441.68 -1.6502 1.94012 0
M  V30 4417 H 442.463 -0.75194 3.34964 0
M  V30 4418 N 444.908 -1.36708 -0.784132 0
M  V30 4419 C 445.858 -1.2799 -1.88686 0
M  V30 4420 C 446.842 -0.170282 -1.59996 0
M  V30 4421 O 448.034 -0.403571 -1.72338 0
M  V30 4422 C 445.163 -1.07674 -3.25977 0
M  V30 4423 C 444.249 -2.23127 -3.60659 0
M  V30 4424 N 444.64 -3.48467 -3.66612 0
M  V30 4425 C 442.938 -2.15009 -3.90752 0
M  V30 4426 C 443.639 -4.24525 -3.97685 0
M  V30 4427 N 442.615 -3.53524 -4.12943 0
M  V30 4428 H 446.417 -2.22927 -1.91522 0
M  V30 4429 H 443.931 -1.29503 -0.979933 0
M  V30 4430 H 445.928 -0.995151 -4.04849 0
M  V30 4431 H 444.588 -0.13643 -3.24413 0
M  V30 4432 H 445.599 -3.82534 -3.49125 0
M  V30 4433 H 442.276 -1.28963 -3.97083 0
M  V30 4434 H 443.666 -5.32944 -4.0917 0
M  V30 4435 N 446.386 1.0089 -1.21074 0
M  V30 4436 C 447.316 2.1145 -0.990523 0
M  V30 4437 C 448.297 1.69897 0.0831699 0
M  V30 4438 O 449.482 1.94052 -0.0758853 0
M  V30 4439 C 446.612 3.42914 -0.550177 0
M  V30 4440 C 445.566 3.98244 -1.56799 0
M  V30 4441 C 444.892 5.25568 -0.984013 0
M  V30 4442 C 446.192 4.30752 -2.95381 0
M  V30 4443 H 447.886 2.3013 -1.91521 0
M  V30 4444 H 445.432 1.10592 -0.92225 0
M  V30 4445 H 447.385 4.19653 -0.383305 0
M  V30 4446 H 446.109 3.24014 0.41015 0
M  V30 4447 H 444.768 3.23621 -1.72236 0
M  V30 4448 H 444.416 5.02998 -0.0155216 0
M  V30 4449 H 444.116 5.63551 -1.66384 0
M  V30 4450 H 445.64 6.04955 -0.828378 0
M  V30 4451 H 447.054 4.98349 -2.8341 0
M  V30 4452 H 445.451 4.79869 -3.60341 0
M  V30 4453 H 446.521 3.39192 -3.46521 0
M  V30 4454 N 447.864 1.01787 1.20321 0
M  V30 4455 C 449.275 0.739307 1.71438 0
M  V30 4456 C 449.626 -0.742041 1.81627 0
M  V30 4457 O 448.751 -1.57903 1.47971 0
M  V30 4458 C 449.346 1.33538 3.11373 0
M  V30 4459 C 447.905 1.10566 3.59795 0
M  V30 4460 C 447.052 1.44028 2.36962 0
M  V30 4461 H 450.003 1.18718 1.05317 0
M  V30 4462 H 450.024 0.726611 3.73498 0
M  V30 4463 H 449.536 2.41352 3.03926 0
M  V30 4464 H 447.637 0.0452405 3.72573 0
M  V30 4465 H 447.75 1.78661 4.44542 0
M  V30 4466 H 446.114 0.85933 2.39766 0
M  V30 4467 H 446.897 2.52901 2.32155 0
M  V30 4468 N 449.342 -1.36122 0.79427 0
M  V30 4469 C 450.305 -2.28309 0.201889 0
M  V30 4470 C 451.305 -1.49041 -0.603603 0
M  V30 4471 O 452.495 -1.68964 -0.423888 0
M  V30 4472 C 449.627 -3.3321 -0.719978 0
M  V30 4473 H 450.82 -2.82208 1.01481 0
M  V30 4474 H 448.373 -1.45768 0.564037 0
M  V30 4475 H 449.108 -2.84475 -1.55706 0
M  V30 4476 H 448.893 -3.91835 -0.144266 0
M  V30 4477 H 450.383 -4.02044 -1.12916 0
M  V30 4478 N 450.82 -0.546701 -1.47814 0
M  V30 4479 C 452.097 0.0464413 -1.95545 0
M  V30 4480 C 452.477 1.4962 -1.48919 0
M  V30 4481 O 451.825 2.16752 -0.723232 0
M  V30 4482 C 452.035 -0.0881298 -3.48889 0
M  V30 4483 C 453.383 0.0626059 -4.24554 0
M  V30 4484 O 454.407 -0.0151555 -3.56197 0
M  V30 4485 O 453.266 0.228071 -5.46024 0
M  V30 4486 H 450.36 0.0700004 -0.824032 0
M  V30 4487 H 452.906 -0.612482 -1.58262 0
M  V30 4488 H 451.678 -1.09737 -3.75597 0
M  V30 4489 H 451.301 0.608886 -3.9291 0
M  V30 4490 N 452.299 1.55045 -0.282633 0
M  V30 4491 C 453.246 2.22822 0.601566 0
M  V30 4492 C 454.216 1.20431 1.14392 0
M  V30 4493 O 455.401 1.48996 1.19184 0
M  V30 4494 C 452.541 2.95873 1.77632 0
M  V30 4495 C 451.654 4.12999 1.26711 0
M  V30 4496 C 450.789 4.73676 2.40426 0
M  V30 4497 C 449.828 5.82981 1.86545 0
M  V30 4498 N 448.965 6.3769 2.93762 0
M  V30 4499 H 453.805 2.97995 0.0169528 0
M  V30 4500 H 451.342 1.471 -0.00339964 0
M  V30 4501 H 453.3 3.36447 2.46697 0
M  V30 4502 H 451.93 2.2311 2.33285 0
M  V30 4503 H 450.982 3.77494 0.469314 0
M  V30 4504 H 452.294 4.91803 0.832518 0
M  V30 4505 H 451.448 5.17008 3.17471 0
M  V30 4506 H 450.187 3.94164 2.87203 0
M  V30 4507 H 449.192 5.39092 1.07983 0
M  V30 4508 H 450.417 6.64366 1.40694 0
M  V30 4509 H 448.363 5.61069 3.39908 0
M  V30 4510 H 448.28 7.11788 2.54744 0
M  V30 4511 H 449.548 6.8568 3.7076 0
M  V30 4512 N 453.777 0.010035 1.57597 0
M  V30 4513 C 454.74 -0.963029 2.07986 0
M  V30 4514 C 455.74 -1.26619 0.991173 0
M  V30 4515 O 456.93 -1.2097 1.25347 0
M  V30 4516 C 454.062 -2.2851 2.52974 0
M  V30 4517 H 455.255 -0.526971 2.95234 0
M  V30 4518 H 452.808 -0.237639 1.54483 0
M  V30 4519 H 453.543 -2.76784 1.69 0
M  V30 4520 H 453.328 -2.07824 3.32493 0
M  V30 4521 H 454.818 -2.98294 2.9225 0
M  V30 4522 N 455.255 -1.55392 -0.262866 0
M  V30 4523 C 456.671 -1.47459 -0.610582 0
M  V30 4524 C 456.871 -0.697031 -1.8906 0
M  V30 4525 O 455.927 -0.219952 -2.5154 0
M  V30 4526 C 457.24 -2.91751 -0.728131 0
M  V30 4527 C 458.788 -3.02027 -0.821517 0
M  V30 4528 C 459.263 -4.47594 -0.97076 0
M  V30 4529 N 460.754 -4.51465 -1.03603 0
M  V30 4530 C 461.489 -5.61326 -1.17049 0
M  V30 4531 N 460.985 -6.81032 -1.2715 0
M  V30 4532 N 462.778 -5.49089 -1.20239 0
M  V30 4533 H 454.929 -2.04395 0.577632 0
M  V30 4534 H 457.192 -0.927287 0.197086 0
M  V30 4535 H 456.898 -3.51413 0.142132 0
M  V30 4536 H 456.772 -3.4134 -1.6052 0
M  V30 4537 H 459.159 -2.42456 -1.68224 0
M  V30 4538 H 459.24 -2.55674 0.0803688 0
M  V30 4539 H 458.884 -5.07771 -0.114655 0
M  V30 4540 H 458.814 -4.91613 -1.88745 0
M  V30 4541 H 461.305 -3.6524 -0.96996 0
M  V30 4542 H 461.618 -7.60511 -1.37271 0
M  V30 4543 H 459.963 -6.83824 -1.24136 0
M  V30 4544 H 463.154 -4.54507 -1.11985 0
M  V30 4545 H 463.327 -6.34749 -1.30373 0
M  V30 4546 N 456.733 0.527833 -1.48498 0
M  V30 4547 C 457.981 1.28101 -1.56316 0
M  V30 4548 C 458.302 1.9352 -0.239781 0
M  V30 4549 O 457.572 1.81433 0.738849 0
M  V30 4550 H 456.152 0.475793 -0.575873 0
M  V30 4551 H 458.814 0.614052 -1.84974 0
M  V30 4552 H 457.91 2.05916 -2.34532 0
M  V30 4553 N 458.211 1.37122 0.776871 0
M  V30 4554 C 459.439 1.3523 1.5659 0
M  V30 4555 C 459.854 -0.0635518 1.88693 0
M  V30 4556 O 459.211 -1.02394 1.51069 0
M  V30 4557 C 459.262 2.18583 2.8793 0
M  V30 4558 O 458.983 3.5465 2.57206 0
M  V30 4559 C 460.484 2.24612 3.82183 0
M  V30 4560 H 457.704 0.4634 0.485285 0
M  V30 4561 H 460.248 1.80392 0.963266 0
M  V30 4562 H 458.403 1.76943 3.4463 0
M  V30 4563 H 458.817 3.98286 3.41275 0
M  V30 4564 H 460.291 2.87267 4.71361 0
M  V30 4565 H 460.768 1.25309 4.20944 0
M  V30 4566 H 461.374 2.66543 3.31414 0
M  V30 4567 N 459.689 -1.00246 1.21608 0
M  V30 4568 C 460.621 -2.09244 0.935401 0
M  V30 4569 C 461.634 -1.62592 -0.0823594 0
M  V30 4570 O 462.823 -1.77865 0.150456 0
M  V30 4571 C 459.923 -3.36724 0.383453 0
M  V30 4572 C 459.096 -4.1245 1.45615 0
M  V30 4573 C 458.155 -5.18219 0.912991 0
M  V30 4574 O 457.181 -5.46337 1.59701 0
M  V30 4575 N 458.383 -5.7987 -0.270478 0
M  V30 4576 H 461.148 -2.33905 1.87373 0
M  V30 4577 H 458.709 -1.16748 1.12167 0
M  V30 4578 H 460.701 -4.047 0.00562157 0
M  V30 4579 H 459.271 -3.09201 -0.459758 0
M  V30 4580 H 458.491 -3.39241 2.00772 0
M  V30 4581 H 459.779 -4.59819 2.17817 0
M  V30 4582 H 459.177 -5.59381 -0.843195 0
M  V30 4583 H 457.734 -6.49126 -0.589794 0
M  V30 4584 N 461.167 -1.02423 -1.1978 0
M  V30 4585 C 462.415 -0.716569 -1.8897 0
M  V30 4586 C 462.736 0.756769 -1.79716 0
M  V30 4587 O 462.006 1.5449 -1.20456 0
M  V30 4588 H 460.586 -0.262062 -0.699523 0
M  V30 4589 H 463.248 -1.29747 -1.45436 0
M  V30 4590 H 462.344 -1.00675 -2.95417 0
M  V30 4591 N 462.645 1.35699 -0.801477 0
M  V30 4592 C 464.056 1.81415 -0.441073 0
M  V30 4593 C 464.407 1.66595 1.03636 0
M  V30 4594 O 463.532 1.19369 1.80499 0
M  V30 4595 C 464.127 3.29369 -0.793819 0
M  V30 4596 C 462.686 3.73248 -0.486083 0
M  V30 4597 C 461.833 2.57775 -1.02213 0
M  V30 4598 H 464.784 1.23749 -0.993572 0
M  V30 4599 H 464.805 3.80395 -0.0894158 0
M  V30 4600 H 464.317 3.40123 -1.86917 0
M  V30 4601 H 462.418 3.68046 0.580735 0
M  V30 4602 H 462.531 4.68222 -1.01513 0
M  V30 4603 H 460.895 2.50788 -0.444712 0
M  V30 4604 H 461.678 2.71309 -2.10348 0
M  V30 4605 N 464.123 0.554532 1.47522 0
M  V30 4606 C 465.033 -0.197865 2.33764 0
M  V30 4607 C 466.049 -0.914576 1.48025 0
M  V30 4608 O 467.225 -0.884067 1.80959 0
M  V30 4609 C 464.29 -1.21628 3.24665 0
M  V30 4610 C 463.351 -0.507283 4.26292 0
M  V30 4611 C 462.584 -1.47718 5.1285 0
M  V30 4612 O 462.807 -2.7118 5.01814 0
M  V30 4613 O 461.741 -1.00313 5.93482 0
M  V30 4614 H 465.567 0.50949 2.99396 0
M  V30 4615 H 463.152 0.315176 1.46038 0
M  V30 4616 H 465.034 -1.80421 3.80823 0
M  V30 4617 H 463.709 -1.9056 2.61665 0
M  V30 4618 H 462.616 0.121778 3.73902 0
M  V30 4619 H 463.949 0.140544 4.91999 0
M  V30 4620 N 465.601 -1.54893 0.290851 0
M  V30 4621 C 466.533 -2.20564 -0.623236 0
M  V30 4622 C 467.546 -1.19519 -1.1054 0
M  V30 4623 O 468.735 -1.46165 -1.02459 0
M  V30 4624 C 465.835 -2.83033 -1.86401 0
M  V30 4625 C 465.008 -4.09916 -1.52604 0
M  V30 4626 C 464.067 -4.56284 -2.62091 0
M  V30 4627 O 463.093 -5.2171 -2.27612 0
M  V30 4628 N 464.295 -4.27746 -3.92446 0
M  V30 4629 H 467.06 -2.99638 -0.0610915 0
M  V30 4630 H 464.621 -1.61508 0.112615 0
M  V30 4631 H 466.613 -3.1099 -2.58973 0
M  V30 4632 H 465.183 -2.0786 -2.33481 0
M  V30 4633 H 464.403 -3.89078 -0.633424 0
M  V30 4634 H 465.691 -4.92554 -1.27547 0
M  V30 4635 H 465.089 -3.7531 -4.23272 0
M  V30 4636 H 463.646 -4.60437 -4.61347 0
M  V30 4637 N 467.08 -0.0183926 -1.57589 0
M  V30 4638 C 468.012 0.995557 -2.06449 0
M  V30 4639 C 469.025 1.29556 -0.985849 0
M  V30 4640 O 470.214 1.2621 -1.26227 0
M  V30 4641 C 467.314 2.32572 -2.46502 0
M  V30 4642 C 466.487 2.21245 -3.77319 0
M  V30 4643 C 465.546 3.37104 -4.04039 0
M  V30 4644 O 464.572 3.14468 -4.74445 0
M  V30 4645 N 465.774 4.60553 -3.53372 0
M  V30 4646 H 468.539 0.578746 -2.94059 0
M  V30 4647 H 466.1 0.168603 -1.6102 0
M  V30 4648 H 468.092 3.08887 -2.61478 0
M  V30 4649 H 466.662 2.65931 -1.64315 0
M  V30 4650 H 465.882 1.29723 -3.72244 0
M  V30 4651 H 467.17 2.10868 -4.63047 0
M  V30 4652 H 466.568 4.81839 -2.96391 0
M  V30 4653 H 465.125 5.34072 -3.73644 0
M  V30 4654 N 468.558 1.5553 0.254621 0
M  V30 4655 C 469.508 1.86057 1.31783 0
M  V30 4656 C 470.492 0.720827 1.4385 0
M  V30 4657 O 471.684 0.982586 1.47222 0
M  V30 4658 C 468.813 2.15203 2.67475 0
M  V30 4659 C 467.899 3.35484 2.59444 0
M  V30 4660 N 468.29 4.54945 2.2104 0
M  V30 4661 C 466.588 3.38441 2.90472 0
M  V30 4662 C 467.289 5.3707 2.23453 0
M  V30 4663 N 466.265 4.75936 2.62652 0
M  V30 4664 H 470.067 2.75953 1.01129 0
M  V30 4665 H 467.581 1.55653 0.463255 0
M  V30 4666 H 469.578 2.35235 3.44195 0
M  V30 4667 H 468.238 1.26601 2.99002 0
M  V30 4668 H 469.249 4.8071 1.92712 0
M  V30 4669 H 465.926 2.60087 3.2659 0
M  V30 4670 H 467.316 6.42626 1.96166 0
M  V30 4671 N 470.036 -0.519951 1.48776 0
M  V30 4672 C 470.966 -1.63253 1.66945 0
M  V30 4673 C 471.947 -1.62014 0.518224 0
M  V30 4674 O 473.132 -1.79053 0.751919 0
M  V30 4675 C 470.262 -3.0181 1.71836 0
M  V30 4676 C 469.216 -3.17911 2.8656 0
M  V30 4677 C 468.542 -4.5763 2.76548 0
M  V30 4678 C 469.842 -2.99729 4.27738 0
M  V30 4679 H 471.536 -1.48302 2.6009 0
M  V30 4680 H 469.082 -0.712026 1.25165 0
M  V30 4681 H 471.035 -3.79525 1.83135 0
M  V30 4682 H 469.759 -3.17806 0.752775 0
M  V30 4683 H 468.418 -2.42616 2.74833 0
M  V30 4684 H 468.066 -4.70476 1.77937 0
M  V30 4685 H 467.766 -4.69346 3.53536 0
M  V30 4686 H 469.29 -5.37431 2.89828 0
M  V30 4687 H 470.704 -3.67228 4.40246 0
M  V30 4688 H 469.101 -3.22932 5.05801 0
M  V30 4689 H 470.171 -1.96047 4.43502 0
M  V30 4690 N 471.514 -1.37532 -0.769588 0
M  V30 4691 C 472.444 -1.36172 -1.89682 0
M  V30 4692 C 473.425 -0.23001 -1.68538 0
M  V30 4693 O 474.61 -0.43069 -1.89364 0
M  V30 4694 C 471.74 -1.1701 -3.26995 0
M  V30 4695 C 470.694 -2.27216 -3.62708 0
M  V30 4696 C 470.02 -1.93174 -4.98586 0
M  V30 4697 C 471.32 -3.6941 -3.69234 0
M  V30 4698 H 473.014 -2.30499 -1.91078 0
M  V30 4699 H 470.56 -1.10953 -0.917902 0
M  V30 4700 H 472.513 -1.14688 -4.05493 0
M  V30 4701 H 471.237 -0.191395 -3.26039 0
M  V30 4702 H 469.896 -2.28697 -2.86519 0
M  V30 4703 H 469.544 -0.938281 -4.94171 0
M  V30 4704 H 469.244 -2.66973 -5.23449 0
M  V30 4705 H 470.768 -1.92443 -5.79481 0
M  V30 4706 H 472.182 -3.70047 -4.37879 0
M  V30 4707 H 470.579 -4.4228 -4.05597 0
M  V30 4708 H 471.649 -4.0288 -2.69844 0
M  V30 4709 N 472.992 0.995999 -1.22138 0
M  V30 4710 C 474.241 1.72928 -1.03821 0
M  V30 4711 C 474.554 1.90872 0.427444 0
M  V30 4712 O 475.76 2.61496 0.730212 0
M  V30 4713 C 474.216 3.11124 -1.80913 0
M  V30 4714 C 473.824 3.01122 -3.31707 0
M  V30 4715 C 475.568 3.8852 -1.71035 0
M  V30 4716 C 473.475 4.34453 -4.01253 0
M  V30 4717 H 472.405 0.648376 -0.384869 0
M  V30 4718 H 475.056 1.11213 -1.45959 0
M  V30 4719 H 473.438 3.73503 -1.31573 0
M  V30 4720 H 474.612 2.47926 -3.88419 0
M  V30 4721 H 472.927 2.3721 -3.42228 0
M  V30 4722 H 475.524 4.872 -2.20318 0
M  V30 4723 H 475.867 4.1087 -0.670196 0
M  V30 4724 H 476.4 3.32812 -2.17902 0
M  V30 4725 H 473.139 4.17303 -5.05508 0
M  V30 4726 H 472.659 4.87574 -3.49331 0
M  V30 4727 H 474.338 5.03215 -4.06674 0
M  V30 4728 N 474.47 1.03057 1.19235 0
M  V30 4729 C 475.698 0.747697 1.92917 0
M  V30 4730 C 476.113 -0.69372 1.75593 0
M  V30 4731 O 475.47 -1.47191 1.07894 0
M  V30 4732 C 475.521 1.09159 3.44625 0
M  V30 4733 O 475.242 2.47641 3.61394 0
M  V30 4734 C 476.743 0.831763 4.35427 0
M  V30 4735 H 473.963 0.273453 0.612751 0
M  V30 4736 H 476.507 1.37552 1.51327 0
M  V30 4737 H 474.662 0.508919 3.84043 0
M  V30 4738 H 475.076 2.60499 4.55237 0
M  V30 4739 H 476.55 1.12233 5.4047 0
M  V30 4740 H 477.027 -0.233769 4.38577 0
M  V30 4741 H 477.633 1.39725 4.01693 0
M  V30 4742 N 475.948 -1.35272 0.808662 0
M  V30 4743 C 476.911 -2.28082 0.226093 0
M  V30 4744 C 477.911 -1.49673 -0.587762 0
M  V30 4745 O 479.101 -1.69404 -0.405943 0
M  V30 4746 C 476.233 -3.33955 -0.684596 0
M  V30 4747 H 477.426 -2.81116 1.04469 0
M  V30 4748 H 474.979 -1.45162 0.579466 0
M  V30 4749 H 475.714 -2.86111 -1.5268 0
M  V30 4750 H 475.499 -3.91965 -0.102699 0
M  V30 4751 H 476.989 -4.03219 -1.08646 0
M  V30 4752 N 477.426 -0.562348 -1.47226 0
M  V30 4753 C 478.837 -0.130325 -1.86245 0
M  V30 4754 C 479.188 1.30128 -1.46838 0
M  V30 4755 O 478.313 1.97974 -0.873805 0
M  V30 4756 C 478.908 -0.229738 -3.3802 0
M  V30 4757 C 477.467 0.14728 -3.76112 0
M  V30 4758 C 476.614 -0.574971 -2.71274 0
M  V30 4759 H 479.565 -0.771773 -1.3867 0
M  V30 4760 H 479.586 0.550316 -3.76499 0
M  V30 4761 H 479.098 -1.27178 -3.66671 0
M  V30 4762 H 477.199 1.19023 -3.53078 0
M  V30 4763 H 477.312 -0.214858 -4.78618 0
M  V30 4764 H 475.676 -0.0174756 -2.54694 0
M  V30 4765 H 476.459 -1.61827 -3.02766 0
M  V30 4766 N 478.904 1.54736 -0.299062 0
M  V30 4767 C 480.129 2.04975 0.316254 0
M  V30 4768 C 480.554 1.17501 1.46885 0
M  V30 4769 O 479.912 0.178678 1.80417 0
M  V30 4770 C 479.96 3.52672 0.751997 0
M  V30 4771 O 479.064 3.68226 1.85697 0
M  V30 4772 H 478.405 0.661126 0.0617175 0
M  V30 4773 H 480.935 1.99805 -0.440341 0
M  V30 4774 H 480.945 3.94488 1.04133 0
M  V30 4775 H 479.62 4.158 -0.0911482 0
M  V30 4776 H 478.197 3.38316 1.56834 0
M  V30 4777 N 480.382 0.0267497 1.57577 0
M  V30 4778 C 481.607 -0.666227 1.96408 0
M  V30 4779 C 482.032 -1.65004 0.903071 0
M  V30 4780 O 481.39 -1.80787 -0.136263 0
M  V30 4781 C 481.438 -1.35101 3.34335 0
M  V30 4782 O 480.542 -2.46623 3.30531 0
M  V30 4783 H 479.883 -0.175206 0.640468 0
M  V30 4784 H 482.413 0.0878977 2.04411 0
M  V30 4785 H 482.423 -1.70834 3.70513 0
M  V30 4786 H 481.098 -0.629844 4.11103 0
M  V30 4787 H 479.675 -2.13019 3.06068 0
M  V30 4788 N 481.861 -1.55662 -0.24637 0
M  V30 4789 C 483.086 -1.81914 -0.996093 0
M  V30 4790 C 483.511 -0.603875 -1.78143 0
M  V30 4791 O 482.869 0.447091 -1.75701 0
M  V30 4792 C 482.917 -3.05908 -1.90925 0
M  V30 4793 O 482.021 -2.82861 -3.00105 0
M  V30 4794 H 481.362 -0.600481 -0.283406 0
M  V30 4795 H 483.892 -2.02848 -0.267199 0
M  V30 4796 H 483.902 -3.35356 -2.3238 0
M  V30 4797 H 482.577 -3.93999 -1.33183 0
M  V30 4798 H 481.154 -2.64583 -2.62775 0
M  V30 4799 N 483.339 0.512053 -1.4905 0
M  V30 4800 C 484.564 1.2959 -1.6193 0
M  V30 4801 C 484.989 1.85906 -0.286454 0
M  V30 4802 O 484.347 1.65312 0.744426 0
M  V30 4803 C 484.395 2.40987 -2.68249 0
M  V30 4804 O 483.499 3.44531 -2.26654 0
M  V30 4805 H 482.84 0.383053 -0.542371 0
M  V30 4806 H 485.37 0.614231 -1.95162 0
M  V30 4807 H 485.38 2.86913 -2.90078 0
M  V30 4808 H 484.055 1.99361 -3.65004 0
M  V30 4809 H 482.632 3.046 -2.15112 0
M  V30 4810 N 484.817 1.37938 0.762283 0
M  V30 4811 C 486.042 1.37059 1.55659 0
M  V30 4812 C 486.467 -0.0396123 1.88058 0
M  V30 4813 O 485.825 -1.01929 1.49934 0
M  V30 4814 C 485.873 2.22494 2.83776 0
M  V30 4815 O 484.977 1.63607 3.78559 0
M  V30 4816 H 484.318 0.467892 0.47114 0
M  V30 4817 H 486.848 1.81587 0.942725 0
M  V30 4818 H 486.858 2.36045 3.32786 0
M  V30 4819 H 485.533 3.24993 2.59524 0
M  V30 4820 H 484.11 1.5915 3.37233 0
M  V30 4821 N 486.295 -0.989507 1.22664 0
M  V30 4822 C 487.52 -1.77031 1.08051 0
M  V30 4823 C 487.945 -1.84535 -0.364483 0
M  V30 4824 O 487.303 -1.3003 -1.2634 0
M  V30 4825 C 487.351 -3.18 1.70024 0
M  V30 4826 O 486.455 -4.01161 0.956216 0
M  V30 4827 H 485.796 -0.545008 0.379292 0
M  V30 4828 H 488.326 -1.24277 1.62531 0
M  V30 4829 H 488.336 -3.68616 1.74888 0
M  V30 4830 H 487.011 -3.11853 2.75174 0
M  V30 4831 H 485.588 -3.59687 0.98384 0
M  V30 4832 N 487.773 -1.03688 -1.18687 0
M  V30 4833 C 488.703 -0.645407 -2.24403 0
M  V30 4834 C 489.684 0.349511 -1.66471 0
M  V30 4835 O 490.869 0.230453 -1.92828 0
M  V30 4836 C 487.999 -0.00365337 -3.473 0
M  V30 4837 C 486.953 -0.921705 -4.17958 0
M  V30 4838 C 486.279 -0.144629 -5.34504 0
M  V30 4839 C 487.579 -2.23909 -4.71871 0
M  V30 4840 H 489.273 -1.52917 -2.57404 0
M  V30 4841 H 486.819 -0.736711 -1.23728 0
M  V30 4842 H 488.772 0.281908 -4.20456 0
M  V30 4843 H 487.496 0.914963 -3.13522 0
M  V30 4844 H 486.155 -1.19159 -3.46694 0
M  V30 4845 H 485.803 0.776274 -4.96974 0
M  V30 4846 H 485.503 -0.756206 -5.82714 0
M  V30 4847 H 487.027 0.134004 -6.10453 0
M  V30 4848 H 488.441 -2.0145 -5.36741 0
M  V30 4849 H 486.838 -2.8033 -5.30599 0
M  V30 4850 H 487.908 -2.88822 -3.895 0
M  V30 4851 N 489.251 1.34841 -0.815825 0
M  V30 4852 C 490.161 2.33425 -0.234462 0
M  V30 4853 C 491.177 1.62295 0.627413 0
M  V30 4854 O 492.353 1.94109 0.536987 0
M  V30 4855 C 489.418 3.41471 0.599849 0
M  V30 4856 C 488.479 4.28362 -0.283596 0
M  V30 4857 C 487.712 5.31248 0.51099 0
M  V30 4858 O 487.935 5.43056 1.7449 0
M  V30 4859 O 486.869 6.01812 -0.10297 0
M  V30 4860 H 490.695 2.84962 -1.05024 0
M  V30 4861 H 488.28 1.37774 -0.577809 0
M  V30 4862 H 490.162 4.07464 1.07475 0
M  V30 4863 H 488.837 2.9219 1.39308 0
M  V30 4864 H 487.744 3.65318 -0.805836 0
M  V30 4865 H 489.077 4.81066 -1.041 0
M  V30 4866 N 490.729 0.570148 1.46925 0
M  V30 4867 C 491.954 0.0542592 2.07329 0
M  V30 4868 C 492.379 -1.23582 1.41806 0
M  V30 4869 O 491.737 -1.74341 0.497479 0
M  V30 4870 C 491.785 -0.111175 3.60429 0
M  V30 4871 O 490.889 -1.17071 3.95434 0
M  V30 4872 H 490.23 0.0571425 0.661537 0
M  V30 4873 H 492.76 0.789516 1.88753 0
M  V30 4874 H 492.77 -0.321315 4.06733 0
M  V30 4875 H 491.445 0.831012 4.07513 0
M  V30 4876 H 490.022 -0.940029 3.60857 0
M  V30 4877 N 492.207 -1.54576 0.307264 0
M  V30 4878 C 493.432 -2.05139 -0.305379 0
M  V30 4879 C 493.857 -1.18278 -1.46259 0
M  V30 4880 O 493.215 -0.188243 -1.8032 0
M  V30 4881 C 493.263 -3.53066 -0.733283 0
M  V30 4882 O 492.367 -3.69206 -1.83741 0
M  V30 4883 H 491.708 -0.661444 -0.0582105 0
M  V30 4884 H 494.238 -1.99569 0.450931 0
M  V30 4885 H 494.248 -3.95034 -1.02039 0
M  V30 4886 H 492.923 -4.15746 0.113198 0
M  V30 4887 H 491.5 -3.39143 -1.55037 0
M  V30 4888 N 493.685 -0.035106 -1.57561 0
M  V30 4889 C 494.648 0.929819 -2.09492 0
M  V30 4890 C 495.648 1.25026 -1.01119 0
M  V30 4891 O 496.838 1.18961 -1.27255 0
M  V30 4892 C 493.97 2.24457 -2.56577 0
M  V30 4893 H 495.163 0.479935 -2.96035 0
M  V30 4894 H 492.716 0.213033 -1.54841 0
M  V30 4895 H 493.451 2.74061 -1.73382 0
M  V30 4896 H 493.236 2.02508 -3.35757 0
M  V30 4897 H 494.726 2.93607 -2.96959 0
M  V30 4898 N 495.163 1.55791 0.238111 0
M  V30 4899 C 496.388 1.8244 0.986432 0
M  V30 4900 C 496.813 0.613314 1.7782 0
M  V30 4901 O 496.171 -0.437767 1.75935 0
M  V30 4902 C 496.219 3.06917 1.893 0
M  V30 4903 O 495.323 2.84449 2.98601 0
M  V30 4904 H 494.664 0.601975 0.280218 0
M  V30 4905 H 497.194 2.02987 0.256437 0
M  V30 4906 H 497.204 3.36583 2.30598 0
M  V30 4907 H 495.879 3.947 1.31091 0
M  V30 4908 H 494.456 2.65972 2.61368 0
M  V30 4909 N 496.642 -0.504142 1.49319 0
M  V30 4910 C 497.605 -1.5883 1.65244 0
M  V30 4911 C 498.605 -1.52009 0.524386 0
M  V30 4912 O 499.795 -1.55218 0.79077 0
M  V30 4913 C 496.927 -2.98481 1.64687 0
M  V30 4914 H 498.12 -1.4604 2.61939 0
M  V30 4915 H 495.673 -0.728144 1.38303 0
M  V30 4916 H 496.408 -3.16751 0.695644 0
M  V30 4917 H 496.193 -3.0484 2.46607 0
M  V30 4918 H 497.683 -3.77256 1.79075 0
M  V30 4919 N 498.12 -1.38341 -0.754957 0
M  V30 4920 C 499.05 -1.38176 -1.88227 0
M  V30 4921 C 500.031 -0.247873 -1.68284 0
M  V30 4922 O 501.216 -0.45075 -1.88896 0
M  V30 4923 C 498.346 -1.20471 -3.25736 0
M  V30 4924 C 497.3 -2.3105 -3.60278 0
M  V30 4925 C 496.626 -1.98452 -4.96509 0
M  V30 4926 C 497.926 -3.73305 -3.65295 0
M  V30 4927 H 499.62 -2.32512 -1.88622 0
M  V30 4928 H 497.166 -1.1192 -0.906082 0
M  V30 4929 H 499.119 -1.18982 -4.04254 0
M  V30 4930 H 497.843 -0.225965 -3.25817 0
M  V30 4931 H 496.502 -2.31723 -2.84078 0
M  V30 4932 H 496.15 -0.990641 -4.93148 0
M  V30 4933 H 495.85 -2.7251 -5.20588 0
M  V30 4934 H 497.374 -1.98578 -5.77407 0
M  V30 4935 H 498.788 -3.7467 -4.3393 0
M  V30 4936 H 497.185 -4.46557 -4.00883 0
M  V30 4937 H 498.255 -4.05719 -2.65556 0
M  V30 4938 N 499.598 0.982988 -1.23187 0
M  V30 4939 C 500.875 1.69814 -0.970707 0
M  V30 4940 C 501.255 2.04811 0.511424 0
M  V30 4941 O 500.603 1.73924 1.48198 0
M  V30 4942 C 500.813 2.94143 -1.87831 0
M  V30 4943 C 502.161 3.66712 -2.14026 0
M  V30 4944 O 503.185 3.04171 -1.8536 0
M  V30 4945 O 502.044 4.79258 -2.62629 0
M  V30 4946 H 499.138 0.741659 -0.365884 0
M  V30 4947 H 501.684 1.03844 -1.34218 0
M  V30 4948 H 500.456 2.64858 -2.88038 0
M  V30 4949 H 500.079 3.6785 -1.50905 0
M  V30 4950 N 501.076 1.04316 1.18135 0
M  V30 4951 C 502.492 0.762858 1.40188 0
M  V30 4952 C 502.692 -0.646547 1.90846 0
M  V30 4953 O 501.748 -1.41036 2.0944 0
M  V30 4954 C 503.061 1.81106 2.40044 0
M  V30 4955 C 504.609 1.83226 2.53766 0
M  V30 4956 C 505.084 2.87044 3.56889 0
M  V30 4957 N 506.575 2.85951 3.64398 0
M  V30 4958 C 507.31 3.62932 4.43923 0
M  V30 4959 N 506.806 4.49672 5.27036 0
M  V30 4960 N 508.599 3.51411 4.38711 0
M  V30 4961 H 500.75 1.95264 0.835805 0
M  V30 4962 H 503.013 0.845017 0.429709 0
M  V30 4963 H 502.719 2.82214 2.09876 0
M  V30 4964 H 502.593 1.64529 3.39426 0
M  V30 4965 H 504.98 0.827869 2.8325 0
M  V30 4966 H 505.061 2.03879 1.54489 0
M  V30 4967 H 504.705 3.87663 3.28145 0
M  V30 4968 H 504.635 2.63645 4.5585 0
M  V30 4969 H 507.126 2.23051 3.05052 0
M  V30 4970 H 507.439 5.05116 5.84874 0
M  V30 4971 H 505.784 4.53738 5.26447 0
M  V30 4972 H 508.975 2.83047 3.72829 0
M  V30 4973 H 509.148 4.11654 5.00445 0
M  V30 4974 N 502.554 -1.34406 0.822964 0
M  V30 4975 C 503.97 -1.51275 0.508727 0
M  V30 4976 C 504.17 -1.76776 -0.967083 0
M  V30 4977 O 503.226 -1.81871 -1.75155 0
M  V30 4978 C 504.539 -2.67765 1.36829 0
M  V30 4979 C 506.087 -2.81647 1.36542 0
M  V30 4980 C 506.562 -4.01181 2.20947 0
M  V30 4981 N 508.053 -4.08388 2.18571 0
M  V30 4982 C 508.788 -5.00036 2.80627 0
M  V30 4983 N 508.284 -5.96906 3.51674 0
M  V30 4984 N 510.077 -4.92908 2.70181 0
M  V30 4985 H 502.228 -1.16113 1.77852 0
M  V30 4986 H 504.491 -0.56947 0.757897 0
M  V30 4987 H 504.197 -2.55551 2.41633 0
M  V30 4988 H 504.071 -3.62779 1.03303 0
M  V30 4989 H 506.458 -2.93303 0.325163 0
M  V30 4990 H 506.539 -1.87443 1.74066 0
M  V30 4991 H 506.183 -3.90286 3.25022 0
M  V30 4992 H 506.113 -4.94599 1.80774 0
M  V30 4993 H 508.604 -3.39051 1.66891 0
M  V30 4994 H 508.917 -6.63468 3.96271 0
M  V30 4995 H 507.262 -5.9703 3.5578 0
M  V30 4996 H 510.453 -4.1619 2.14251 0
M  V30 4997 H 510.626 -5.64137 3.18831 0
M  V30 4998 N 504.032 -0.577932 -1.46621 0
M  V30 4999 C 504.995 0.147805 -2.28723 0
M  V30 5000 C 505.995 0.823325 -1.38123 0
M  V30 5001 O 507.185 0.676011 -1.60548 0
M  V30 5002 C 504.317 1.21853 -3.18378 0
M  V30 5003 H 505.51 -0.573654 -2.94362 0
M  V30 5004 H 503.063 -0.335703 -1.52652 0
M  V30 5005 H 503.798 1.97173 -2.57475 0
M  V30 5006 H 503.583 0.738714 -3.85078 0
M  V30 5007 H 505.073 1.72768 -3.80186 0
M  V30 5008 N 505.51 1.54411 -0.315457 0
M  V30 5009 C 506.921 1.85885 0.174265 0
M  V30 5010 C 507.272 1.23723 1.52273 0
M  V30 5011 O 506.397 0.540246 2.09548 0
M  V30 5012 C 506.992 3.37257 0.322981 0
M  V30 5013 C 505.551 3.68711 0.756922 0
M  V30 5014 C 504.698 2.77013 -0.126195 0
M  V30 5015 H 507.649 1.49374 -0.536007 0
M  V30 5016 H 507.67 3.62539 1.15522 0
M  V30 5017 H 507.182 3.82471 -0.658602 0
M  V30 5018 H 505.283 3.29024 1.74854 0
M  V30 5019 H 505.396 4.75741 0.566291 0
M  V30 5020 H 503.76 2.51588 0.39692 0
M  V30 5021 H 504.543 3.25051 -1.1044 0
M  V30 5022 N 506.988 0.0434614 1.5754 0
M  V30 5023 C 508.216 -0.641835 1.96693 0
M  V30 5024 C 508.631 -1.64832 0.920652 0
M  V30 5025 O 507.988 -1.82247 -0.095993 0
M  V30 5026 C 508.039 -1.33557 3.35924 0
M  V30 5027 O 507.76 -0.369403 4.3654 0
M  V30 5028 C 509.261 -2.11135 3.89791 0
M  V30 5029 H 506.481 -0.176013 0.647503 0
M  V30 5030 H 509.025 0.107478 2.04217 0
M  V30 5031 H 507.18 -2.03617 3.29574 0
M  V30 5032 H 507.594 -0.863674 5.1734 0
M  V30 5033 H 509.068 -2.55107 4.89514 0
M  V30 5034 H 509.545 -2.95634 3.24803 0
M  V30 5035 H 510.151 -1.46002 3.99454 0
M  V30 5036 N 508.466 -1.55915 -0.229846 0
M  V30 5037 C 509.882 -1.48721 -0.579166 0
M  V30 5038 C 510.082 -0.736976 -1.87539 0
M  V30 5039 O 509.138 -0.273258 -2.51017 0
M  V30 5040 C 510.451 -2.9323 -0.666082 0
M  V30 5041 C 511.999 -3.03701 -0.757267 0
M  V30 5042 C 512.474 -4.49552 -0.8756 0
M  V30 5043 N 513.965 -4.53561 -0.940035 0
M  V30 5044 C 514.7 -5.63683 -1.05116 0
M  V30 5045 N 514.196 -6.83576 -1.12675 0
M  V30 5046 N 515.989 -5.51516 -1.08565 0
M  V30 5047 H 508.14 -2.03123 0.620857 0
M  V30 5048 H 510.403 -0.922898 0.21671 0
M  V30 5049 H 510.109 -3.51032 0.21664 0
M  V30 5050 H 509.983 -3.44668 -1.53243 0
M  V30 5051 H 512.37 -2.45969 -1.63043 0
M  V30 5052 H 512.451 -2.55446 0.134583 0
M  V30 5053 H 512.095 -5.079 -0.00692351 0
M  V30 5054 H 512.025 -4.95506 -1.78274 0
M  V30 5055 H 514.516 -3.67215 -0.892269 0
M  V30 5056 H 514.829 -7.63251 -1.21109 0
M  V30 5057 H 513.174 -6.86303 -1.09603 0
M  V30 5058 H 516.365 -4.5678 -1.02319 0
M  V30 5059 H 516.538 -6.37372 -1.1688 0
M  V30 5060 N 509.944 0.496216 -1.49584 0
M  V30 5061 C 510.892 1.61805 -1.67098 0
M  V30 5062 C 511.886 1.60667 -0.536877 0
M  V30 5063 O 513.092 1.65118 -0.716654 0
M  V30 5064 H 509.467 0.53646 -0.526986 0
M  V30 5065 H 511.438 1.44187 -2.61252 0
M  V30 5066 C 510.187 2.99912 -1.75921 0
M  V30 5067 H 509.51 3.01496 -2.62565 0
M  V30 5068 H 510.95 3.77931 -1.92209 0
M  V30 5069 C 509.409 3.33092 -0.505088 0
M  V30 5070 O 509.939 4.00019 0.367085 0
M  V30 5071 N 508.145 2.88278 -0.366599 0
M  V30 5072 H 507.692 2.33989 -1.07735 0
M  V30 5073 H 507.65 3.10846 0.47142 0
M  V30 5074 N 511.423 1.38739 0.74761 0
M  V30 5075 C 512.355 1.32341 1.87132 0
M  V30 5076 C 513.368 0.234502 1.61102 0
M  V30 5077 O 514.557 0.492516 1.71571 0
M  V30 5078 C 511.657 1.02915 3.22896 0
M  V30 5079 C 510.83 2.22834 3.76383 0
M  V30 5080 C 509.889 1.90059 4.90677 0
M  V30 5081 O 508.915 2.62615 5.04997 0
M  V30 5082 N 510.117 0.859141 5.74107 0
M  V30 5083 H 512.882 2.29175 1.93129 0
M  V30 5084 H 510.443 1.32678 0.927805 0
M  V30 5085 H 512.435 0.79031 3.96908 0
M  V30 5086 H 511.005 0.148572 3.12247 0
M  V30 5087 H 510.225 2.62747 2.93867 0
M  V30 5088 H 511.513 3.02851 4.08851 0
M  V30 5089 H 510.911 0.257564 5.65113 0
M  V30 5090 H 509.468 0.680189 6.48241 0
M  V30 5091 N 512.901 -0.976442 1.23707 0
M  V30 5092 C 514.312 -1.53284 1.06587 0
M  V30 5093 C 514.663 -1.92765 -0.365526 0
M  V30 5094 O 513.788 -1.7645 -1.25277 0
M  V30 5095 C 514.383 -2.78548 1.92864 0
M  V30 5096 C 512.942 -3.30574 1.79994 0
M  V30 5097 C 512.089 -2.03538 1.88328 0
M  V30 5098 H 515.04 -0.795692 1.37311 0
M  V30 5099 H 515.061 -3.5155 1.45577 0
M  V30 5100 H 514.573 -2.49782 2.97037 0
M  V30 5101 H 512.674 -3.64211 0.786202 0
M  V30 5102 H 512.787 -4.00065 2.636 0
M  V30 5103 H 511.151 -2.17853 1.31954 0
M  V30 5104 H 511.934 -1.77149 2.94063 0
M  V30 5105 N 514.379 -1.04941 -1.1758 0
M  V30 5106 C 515.311 -0.606174 -2.21039 0
M  V30 5107 C 516.324 0.328763 -1.59446 0
M  V30 5108 O 517.513 0.121895 -1.78083 0
M  V30 5109 C 514.613 0.133294 -3.38638 0
M  V30 5110 C 513.786 -0.811711 -4.29802 0
M  V30 5111 C 512.845 -0.113958 -5.26077 0
M  V30 5112 O 511.871 -0.747237 -5.64274 0
M  V30 5113 N 513.073 1.14953 -5.69004 0
M  V30 5114 H 515.838 -1.49606 -2.59689 0
M  V30 5115 H 513.399 -0.930997 -1.32454 0
M  V30 5116 H 515.391 0.610144 -4.00074 0
M  V30 5117 H 513.961 0.924816 -2.98607 0
M  V30 5118 H 513.181 -1.46824 -3.65837 0
M  V30 5119 H 514.469 -1.45326 -4.87604 0
M  V30 5120 H 513.867 1.68441 -5.40041 0
M  V30 5121 H 512.424 1.57049 -6.32597 0
M  V30 5122 N 515.857 1.33968 -0.830081 0
M  V30 5123 C 516.82 2.27694 -0.26235 0
M  V30 5124 C 517.82 1.50589 0.563876 0
M  V30 5125 O 519.01 1.70028 0.378941 0
M  V30 5126 C 516.142 3.35002 0.63138 0
M  V30 5127 H 517.335 2.79419 -1.08928 0
M  V30 5128 H 514.888 1.44221 -0.602486 0
M  V30 5129 H 515.623 2.88504 1.48109 0
M  V30 5130 H 515.408 3.92079 0.0403276 0
M  V30 5131 H 516.898 4.04897 1.02217 0
M  V30 5132 N 517.335 0.585699 1.46312 0
M  V30 5133 C 518.746 0.159938 1.86014 0
M  V30 5134 C 519.097 -1.27775 1.48889 0
M  V30 5135 O 518.222 -1.96559 0.90519 0
M  V30 5136 C 518.817 0.283485 3.37612 0
M  V30 5137 C 517.376 -0.0874256 3.76298 0
M  V30 5138 C 516.523 0.618055 2.70325 0
M  V30 5139 H 519.474 0.793737 1.37425 0
M  V30 5140 H 519.495 -0.490348 3.77327 0
M  V30 5141 H 519.007 1.32995 3.64601 0
M  V30 5142 H 517.108 -1.13391 3.54927 0
M  V30 5143 H 517.221 0.290975 4.78216 0
M  V30 5144 H 515.585 0.057993 2.54634 0
M  V30 5145 H 516.368 1.66623 3.00153 0
M  V30 5146 N 518.813 -1.54241 0.323641 0
M  V30 5147 C 520.061 -2.00174 -0.278359 0
M  V30 5148 C 520.382 -1.2134 -1.52648 0
M  V30 5149 O 519.652 -0.315244 -1.93347 0
M  V30 5150 H 518.232 -0.739463 -0.105845 0
M  V30 5151 H 520.894 -1.89864 0.440204 0
M  V30 5152 H 519.99 -3.07486 -0.5347 0
M  V30 5153 N 520.291 -0.0518155 -1.57515 0
M  V30 5154 C 521.537 0.622745 -1.93002 0
M  V30 5155 C 521.87 1.70456 -0.930499 0
M  V30 5156 O 521.145 1.94452 0.0434086 0
M  V30 5157 C 521.428 1.21824 -3.38867 0
M  V30 5158 C 521.281 0.144434 -4.49568 0
M  V30 5159 C 522.6 2.12968 -3.8514 0
M  V30 5160 H 519.719 0.22491 -0.701844 0
M  V30 5161 H 522.361 -0.113711 -1.89659 0
M  V30 5162 H 520.511 1.8459 -3.41846 0
M  V30 5163 H 522.183 -0.48753 -4.58717 0
M  V30 5164 H 520.426 -0.527424 -4.30582 0
M  V30 5165 H 521.097 0.601127 -5.48717 0
M  V30 5166 H 523.573 1.60163 -3.8404 0
M  V30 5167 H 522.449 2.51578 -4.87852 0
M  V30 5168 H 522.71 3.03004 -3.21934 0
M  V30 5169 N 521.769 1.56035 0.221574 0
M  V30 5170 C 522.679 1.95581 1.29558 0
M  V30 5171 C 523.695 0.859639 1.51282 0
M  V30 5172 O 524.871 1.16321 1.64413 0
M  V30 5173 C 521.936 2.26447 2.62531 0
M  V30 5174 C 520.997 3.49632 2.4911 0
M  V30 5175 C 520.23 3.79017 3.75742 0
M  V30 5176 O 520.453 3.10077 4.78757 0
M  V30 5177 O 519.387 4.72507 3.72855 0
M  V30 5178 H 523.213 2.8711 0.990035 0
M  V30 5179 H 520.798 1.43244 0.424434 0
M  V30 5180 H 522.68 2.47494 3.41064 0
M  V30 5181 H 521.355 1.38092 2.92766 0
M  V30 5182 H 520.262 3.33864 1.68777 0
M  V30 5183 H 521.595 4.3837 2.23814 0
M  V30 5184 N 523.247 -0.488276 1.49845 0
M  V30 5185 C 524.21 -1.57069 1.66919 0
M  V30 5186 C 525.21 -1.51445 0.540479 0
M  V30 5187 O 526.4 -1.5437 0.807188 0
M  V30 5188 C 523.532 -2.96718 1.67844 0
M  V30 5189 H 524.725 -1.43254 2.63474 0
M  V30 5190 H 522.278 -0.713435 1.39068 0
M  V30 5191 H 523.013 -3.15996 0.7292 0
M  V30 5192 H 522.798 -3.02208 2.49826 0
M  V30 5193 H 524.288 -3.75335 1.83066 0
M  V30 5194 N 524.725 -1.39134 -0.740242 0
M  V30 5195 C 525.95 -1.39518 -1.53459 0
M  V30 5196 C 526.375 0.00968883 -1.88098 0
M  V30 5197 O 525.733 0.995312 -1.51536 0
M  V30 5198 C 525.781 -2.26981 -2.802 0
M  V30 5199 O 524.885 -1.69609 -3.75908 0
M  V30 5200 H 524.226 -0.475328 -0.463637 0
M  V30 5201 H 526.756 -1.83064 -0.913717 0
M  V30 5202 H 526.766 -2.41309 -3.28989 0
M  V30 5203 H 525.441 -3.29081 -2.5432 0
M  V30 5204 H 524.018 -1.64495 -3.34658 0
M  V30 5205 N 526.204 0.969867 -1.24223 0
M  V30 5206 C 527.452 1.70918 -1.0785 0
M  V30 5207 C 527.773 1.91186 0.383763 0
M  V30 5208 O 527.043 1.48806 1.27411 0
M  V30 5209 H 525.623 0.633334 -0.396103 0
M  V30 5210 H 528.285 1.16689 -1.56108 0
M  V30 5211 H 527.381 2.69455 -1.57482 0
M  V30 5212 N 527.682 1.05563 1.17022 0
M  V30 5213 C 528.645 0.664098 2.19368 0
M  V30 5214 C 529.645 -0.286358 1.5823 0
M  V30 5215 O 530.835 -0.069728 1.7406 0
M  V30 5216 C 527.967 -0.0239932 3.40892 0
M  V30 5217 H 529.16 1.57 2.55521 0
M  V30 5218 H 526.713 0.849964 1.31169 0
M  V30 5219 H 527.448 -0.942988 3.10287 0
M  V30 5220 H 527.233 0.659351 3.86516 0
M  V30 5221 H 528.723 -0.283909 4.16634 0
M  V30 5222 N 529.16 -1.33526 0.837174 0
M  V30 5223 C 530.408 -1.97446 0.431211 0
M  V30 5224 C 530.729 -1.6665 -1.01255 0
M  V30 5225 O 529.999 -0.964559 -1.70508 0
M  V30 5226 H 528.579 -0.73043 0.156463 0
M  V30 5227 H 531.241 -1.62918 1.06976 0
M  V30 5228 H 530.337 -3.07001 0.561877 0
M  V30 5229 N 530.638 -0.59345 -1.46 0
M  V30 5230 C 531.548 0.135817 -2.34207 0
M  V30 5231 C 532.564 0.875008 -1.50398 0
M  V30 5232 O 533.74 0.835778 -1.83239 0
M  V30 5233 C 530.805 1.12977 -3.27776 0
M  V30 5234 C 529.866 0.394081 -4.27487 0
M  V30 5235 C 529.099 1.34068 -5.16586 0
M  V30 5236 O 529.322 2.5778 -5.08828 0
M  V30 5237 O 528.256 0.845426 -5.95933 0
M  V30 5238 H 532.082 -0.588691 -2.9794 0
M  V30 5239 H 529.667 -0.353784 -1.45151 0
M  V30 5240 H 531.549 1.70261 -3.85473 0
M  V30 5241 H 530.224 1.83556 -2.66625 0
M  V30 5242 H 529.131 -0.220869 -3.73447 0
M  V30 5243 H 530.464 -0.270939 -4.91454 0
M  V30 5244 N 532.116 1.54067 -0.331816 0
M  V30 5245 C 533.079 2.23275 0.517768 0
M  V30 5246 C 534.079 1.22897 1.03697 0
M  V30 5247 O 535.269 1.47419 0.928084 0
M  V30 5248 C 532.401 2.94326 1.72004 0
M  V30 5249 H 533.594 2.99773 -0.0873507 0
M  V30 5250 H 531.147 1.56079 -0.0830042 0
M  V30 5251 H 531.882 2.21986 2.36417 0
M  V30 5252 H 531.667 3.67941 1.35507 0
M  V30 5253 H 533.157 3.47031 2.32291 0
M  V30 5254 N 533.594 0.0601682 1.57485 0
M  V30 5255 C 535.01 -0.296422 1.56823 0
M  V30 5256 C 535.21 -1.70831 1.0686 0
M  V30 5257 O 534.266 -2.4174 0.729245 0
M  V30 5258 C 535.579 -0.116681 3.00474 0
M  V30 5259 C 537.127 -0.187103 3.1244 0
M  V30 5260 C 537.602 -0.035783 4.57986 0
M  V30 5261 N 539.093 -0.0917676 4.63109 0
M  V30 5262 C 539.828 0.00107251 5.734 0
M  V30 5263 N 539.324 0.146773 6.92645 0
M  V30 5264 N 541.117 -0.0551577 5.62073 0
M  V30 5265 H 533.268 0.983055 1.88281 0
M  V30 5266 H 535.531 0.382386 0.867459 0
M  V30 5267 H 535.237 0.85712 3.41096 0
M  V30 5268 H 535.111 -0.873929 3.66936 0
M  V30 5269 H 537.498 -1.15138 2.71712 0
M  V30 5270 H 537.579 0.601052 2.48638 0
M  V30 5271 H 537.223 0.925212 4.99402 0
M  V30 5272 H 537.153 -0.843196 5.19806 0
M  V30 5273 H 539.644 -0.203261 3.77353 0
M  V30 5274 H 539.957 0.210076 7.72514 0
M  V30 5275 H 538.302 0.181979 6.94762 0
M  V30 5276 H 541.493 -0.167605 4.678 0
M  V30 5277 H 541.666 0.020652 6.47997 0
M  V30 5278 N 535.072 -1.5615 -0.213296 0
M  V30 5279 C 536.035 -1.92249 -1.24792 0
M  V30 5280 C 537.035 -0.801828 -1.39382 0
M  V30 5281 O 538.225 -1.06948 -1.37506 0
M  V30 5282 C 535.357 -2.18056 -2.62039 0
M  V30 5283 H 536.55 -2.84793 -0.939845 0
M  V30 5284 H 534.103 -1.49559 -0.454062 0
M  V30 5285 H 534.838 -1.2809 -2.97932 0
M  V30 5286 H 534.623 -2.99703 -2.52825 0
M  V30 5287 H 536.113 -2.47051 -3.36683 0
M  V30 5288 N 536.55 0.480323 -1.50102 0
M  V30 5289 C 537.775 1.26126 -1.64642 0
M  V30 5290 C 538.2 1.85257 -0.325823 0
M  V30 5291 O 537.558 1.66854 0.709194 0
M  V30 5292 C 537.606 2.35243 -2.73301 0
M  V30 5293 O 536.71 3.39646 -2.33911 0
M  V30 5294 H 536.051 0.371463 -0.550374 0
M  V30 5295 H 538.581 0.572696 -1.96421 0
M  V30 5296 H 538.591 2.80695 -2.96098 0
M  V30 5297 H 537.266 1.91574 -3.6915 0
M  V30 5298 H 535.843 2.99969 -2.21525 0
M  V30 5299 N 538.028 1.39524 0.732853 0
M  V30 5300 C 539.256 1.40143 1.52209 0
M  V30 5301 C 539.671 -0.00348836 1.888 0
M  V30 5302 O 539.028 -0.975357 1.5425 0
M  V30 5303 C 539.079 2.27632 2.8083 0
M  V30 5304 O 538.8 3.62654 2.45792 0
M  V30 5305 C 540.301 2.36658 3.74844 0
M  V30 5306 H 537.521 0.478604 0.470297 0
M  V30 5307 H 540.065 1.83366 0.905388 0
M  V30 5308 H 538.22 1.87818 3.38826 0
M  V30 5309 H 538.634 4.08941 3.28431 0
M  V30 5310 H 540.108 3.02118 4.61984 0
M  V30 5311 H 540.585 1.38638 4.16745 0
M  V30 5312 H 541.191 2.76951 3.22766 0
M  V30 5313 N 539.506 -0.963266 1.24736 0
M  V30 5314 C 540.754 -1.70343 1.08755 0
M  V30 5315 C 541.075 -1.91387 -0.373619 0
M  V30 5316 O 540.345 -1.4948 -1.2662 0
M  V30 5317 H 538.925 -0.631224 0.399456 0
M  V30 5318 H 541.587 -1.15859 1.56725 0
M  V30 5319 H 540.683 -2.68616 1.58909 0
M  V30 5320 N 540.985 -1.06182 -1.16461 0
M  V30 5321 C 542.21 -0.798599 -1.91408 0
M  V30 5322 C 542.635 0.640987 -1.76842 0
M  V30 5323 O 541.993 1.44652 -1.09296 0
M  V30 5324 C 542.041 -1.19665 -3.40165 0
M  V30 5325 O 541.145 -0.334768 -4.11039 0
M  V30 5326 H 540.486 -0.291961 -0.596368 0
M  V30 5327 H 543.016 -1.41732 -1.47557 0
M  V30 5328 H 543.026 -1.16772 -3.90933 0
M  V30 5329 H 541.701 -2.24526 -3.50087 0
M  V30 5330 H 540.278 -0.425168 -3.70468 0
M  V30 5331 N 542.463 1.3308 -0.844243 0
M  V30 5332 C 543.688 2.02341 -0.455282 0
M  V30 5333 C 544.113 1.6308 0.93737 0
M  V30 5334 O 543.471 0.826118 1.61385 0
M  V30 5335 C 543.519 3.55743 -0.58988 0
M  V30 5336 O 542.623 4.1063 0.38166 0
M  V30 5337 H 541.964 0.637898 -0.184343 0
M  V30 5338 H 544.494 1.6986 -1.14056 0
M  V30 5339 H 544.504 4.05243 -0.473522 0
M  V30 5340 H 543.179 3.83662 -1.60549 0
M  V30 5341 H 541.756 3.72236 0.22241 0
M  V30 5342 N 543.941 0.601185 1.45683 0
M  V30 5343 C 545.218 0.0261659 1.95582 0
M  V30 5344 C 545.598 -1.4399 1.5437 0
M  V30 5345 O 544.946 -2.13919 0.80318 0
M  V30 5346 C 545.156 0.217557 3.48321 0
M  V30 5347 C 546.504 0.0950076 4.24494 0
M  V30 5348 O 547.528 0.147345 3.55895 0
M  V30 5349 O 546.387 -0.025261 5.46494 0
M  V30 5350 H 543.481 -0.0393688 0.826062 0
M  V30 5351 H 546.027 0.670798 1.55879 0
M  V30 5352 H 544.799 1.23601 3.71266 0
M  V30 5353 H 544.422 -0.46264 3.94899 0
M  V30 5354 N 545.419 -1.53889 0.339982 0
M  V30 5355 C 546.644 -2.05741 -0.261798 0
M  V30 5356 C 547.069 -1.21354 -1.43718 0
M  V30 5357 O 546.427 -0.22645 -1.7988 0
M  V30 5358 C 546.475 -3.54542 -0.658228 0
M  V30 5359 O 545.579 -3.7302 -1.75869 0
M  V30 5360 H 544.92 -0.662529 -0.0441672 0
M  V30 5361 H 547.45 -1.98568 0.493161 0
M  V30 5362 H 547.46 -3.9711 -0.936368 0
M  V30 5363 H 546.135 -4.15412 0.201358 0
M  V30 5364 H 544.712 -3.42355 -1.47809 0
M  V30 5365 N 546.897 -0.0685191 -1.57451 0
M  V30 5366 C 548.122 0.613919 -1.98106 0
M  V30 5367 C 548.547 1.62551 -0.946501 0
M  V30 5368 O 547.905 1.81085 0.0882824 0
M  V30 5369 C 547.953 1.26189 -3.378 0
M  V30 5370 O 547.057 2.37773 -3.36954 0
M  V30 5371 H 546.398 0.158163 -0.644888 0
M  V30 5372 H 548.928 -0.142063 -2.04106 0
M  V30 5373 H 548.938 1.60951 -3.74912 0
M  V30 5374 H 547.613 0.520625 -4.12629 0
M  V30 5375 H 546.19 2.04829 -3.11608 0
M  V30 5376 N 548.375 1.56261 0.205012 0
M  V30 5377 C 549.786 1.70056 0.770574 0
M  V30 5378 C 550.137 0.673398 1.84282 0
M  V30 5379 O 549.262 -0.172196 2.15714 0
M  V30 5380 C 549.857 3.08316 1.40451 0
M  V30 5381 C 548.416 3.2391 1.91727 0
M  V30 5382 C 547.563 2.66001 0.783516 0
M  V30 5383 H 550.514 1.58688 -0.019911 0
M  V30 5384 H 550.535 3.05094 2.27371 0
M  V30 5385 H 550.047 3.83053 0.623882 0
M  V30 5386 H 548.148 2.54072 2.7254 0
M  V30 5387 H 548.261 4.3131 2.08588 0
M  V30 5388 H 546.625 2.24915 1.19521 0
M  V30 5389 H 547.408 3.43297 0.0152883 0
M  V30 5390 N 549.853 -0.472356 1.50355 0
M  V30 5391 C 551.101 -1.22211 1.60962 0
M  V30 5392 C 551.422 -1.92497 0.311439 0
M  V30 5393 O 550.692 -1.8405 -0.671002 0
M  V30 5394 H 549.272 -0.454092 0.593135 0
M  V30 5395 H 551.934 -0.544977 1.87126 0
M  V30 5396 H 551.03 -1.9707 2.42012 0
M  V30 5397 N 551.331 -1.39911 -0.725443 0
M  V30 5398 C 552.579 -1.37382 -1.48224 0
M  V30 5399 C 552.9 0.0264107 -1.94982 0
M  V30 5400 O 552.17 0.979408 -1.6966 0
M  V30 5401 H 550.75 -0.505596 -0.549892 0
M  V30 5402 H 553.412 -1.7487 -0.860608 0
M  V30 5403 H 552.508 -2.04254 -2.3598 0
M  V30 5404 N 552.809 0.956637 -1.25245 0
M  V30 5405 C 553.759 2.03841 -1.02141 0
M  V30 5406 C 554.743 1.60848 0.0410058 0
M  V30 5407 O 555.935 1.76142 -0.174084 0
M  V30 5408 C 553.064 3.37282 -0.639963 0
M  V30 5409 C 552.15 3.86805 -1.73903 0
M  V30 5410 N 552.541 4.09143 -2.97381 0
M  V30 5411 C 550.839 4.15574 -1.61909 0
M  V30 5412 C 551.54 4.49923 -3.68707 0
M  V30 5413 N 550.516 4.55737 -2.96318 0
M  V30 5414 H 554.318 2.19102 -1.95886 0
M  V30 5415 H 551.832 1.1413 -1.15534 0
M  V30 5416 H 553.829 4.14403 -0.455643 0
M  V30 5417 H 552.489 3.23401 0.29018 0
M  V30 5418 H 553.5 3.96275 -3.33447 0
M  V30 5419 H 550.177 4.10566 -0.757764 0
M  V30 5420 H 551.567 4.75526 -4.74684 0
M  V30 5421 N 554.287 1.06798 1.15896 0
M  V30 5422 C 555.535 0.786211 1.8618 0
M  V30 5423 C 555.856 -0.689547 1.82401 0
M  V30 5424 O 555.126 -1.49913 1.26107 0
M  V30 5425 H 553.706 0.287843 0.689315 0
M  V30 5426 H 556.368 1.35055 1.40521 0
M  V30 5427 H 555.464 1.1157 2.91477 0
M  V30 5428 N 555.766 -1.3263 0.851289 0
M  V30 5429 C 556.994 -2.01563 0.466899 0
M  V30 5430 C 557.409 -1.63996 -0.935447 0
M  V30 5431 O 556.766 -0.85957 -1.6099 0
M  V30 5432 C 556.817 -3.56613 0.592433 0
M  V30 5433 O 556.538 -3.92828 1.93954 0
M  V30 5434 C 558.039 -4.42818 0.206612 0
M  V30 5435 H 555.259 -0.645307 0.183902 0
M  V30 5436 H 557.803 -1.69285 1.1473 0
M  V30 5437 H 555.958 -3.87379 -0.0401936 0
M  V30 5438 H 556.372 -4.87545 1.9339 0
M  V30 5439 H 557.846 -5.50918 0.345462 0
M  V30 5440 H 558.323 -4.30844 -0.85264 0
M  V30 5441 H 558.929 -4.17434 0.814176 0
M  V30 5442 N 557.244 -0.608902 -1.45362 0
M  V30 5443 C 558.176 0.147318 -2.28726 0
M  V30 5444 C 559.189 0.830468 -1.40025 0
M  V30 5445 O 560.378 0.695636 -1.64387 0
M  V30 5446 C 557.478 1.22968 -3.15804 0
M  V30 5447 C 556.651 0.633391 -4.3279 0
M  V30 5448 C 555.71 1.60682 -5.01067 0
M  V30 5449 O 554.736 1.13261 -5.57818 0
M  V30 5450 N 555.938 2.94123 -5.00472 0
M  V30 5451 H 558.703 -0.568014 -2.94268 0
M  V30 5452 H 556.264 -0.448479 -1.55564 0
M  V30 5453 H 558.256 1.88072 -3.58345 0
M  V30 5454 H 556.826 1.84752 -2.52162 0
M  V30 5455 H 556.046 -0.195762 -3.93714 0
M  V30 5456 H 557.334 0.215255 -5.08344 0
M  V30 5457 H 556.732 3.3525 -4.55657 0
M  V30 5458 H 555.289 3.54646 -5.46872 0
M  V30 5459 N 558.722 1.53707 -0.348139 0
M  V30 5460 C 559.968 2.01286 0.247332 0
M  V30 5461 C 560.301 1.23546 1.49834 0
M  V30 5462 O 559.576 0.324331 1.91777 0
M  V30 5463 C 559.859 3.55768 0.556858 0
M  V30 5464 C 559.712 4.44216 -0.706564 0
M  V30 5465 C 561.031 4.1841 1.3646 0
M  V30 5466 H 558.15 0.731677 0.0884201 0
M  V30 5467 H 560.792 1.84106 -0.469584 0
M  V30 5468 H 558.942 3.70539 1.16761 0
M  V30 5469 H 560.614 4.41274 -1.34444 0
M  V30 5470 H 558.857 4.12892 -1.33052 0
M  V30 5471 H 559.528 5.50202 -0.445186 0
M  V30 5472 H 562.004 4.07365 0.848113 0
M  V30 5473 H 560.88 5.26563 1.54992 0
M  V30 5474 H 561.141 3.7333 2.36805 0
M  V30 5475 N 560.2 0.0768682 1.57412 0
M  V30 5476 C 561.148 -0.906229 2.1422 0
M  V30 5477 C 562.142 -1.30477 1.08037 0
M  V30 5478 O 563.348 -1.28143 1.2641 0
M  V30 5479 H 559.723 -0.310207 0.685037 0
M  V30 5480 H 561.694 -0.402228 2.95677 0
M  V30 5481 C 560.443 -2.16245 2.72274 0
M  V30 5482 H 559.766 -1.86463 3.53655 0
M  V30 5483 H 561.206 -2.83134 3.15613 0
M  V30 5484 C 559.665 -2.92437 1.67279 0
M  V30 5485 O 560.195 -3.86322 1.10081 0
M  V30 5486 N 558.401 -2.55637 1.38195 0
M  V30 5487 H 557.948 -1.79363 1.84897 0
M  V30 5488 H 557.906 -3.06919 0.681787 0
M  V30 5489 N 561.678 -1.56367 -0.196722 0
M  V30 5490 C 562.924 -1.80796 -0.918725 0
M  V30 5491 C 563.257 -0.650645 -1.82976 0
M  V30 5492 O 562.532 0.348889 -1.91345 0
M  V30 5493 C 562.815 -3.15472 -1.73636 0
M  V30 5494 C 562.668 -4.41693 -0.85015 0
M  V30 5495 C 563.987 -3.46824 -2.70927 0
M  V30 5496 H 561.106 -0.657702 -0.332561 0
M  V30 5497 H 563.748 -1.89086 -0.186186 0
M  V30 5498 H 561.898 -3.08536 -2.36088 0
M  V30 5499 H 563.57 -4.60673 -0.240459 0
M  V30 5500 H 561.813 -4.33517 -0.156785 0
M  V30 5501 H 562.484 -5.32419 -1.45719 0
M  V30 5502 H 564.96 -3.54049 -2.18607 0
M  V30 5503 H 563.836 -4.4218 -3.25219 0
M  V30 5504 H 564.097 -2.70236 -3.49893 0
M  V30 5505 N 563.156 0.464375 -1.50603 0
M  V30 5506 C 564.384 1.23907 -1.65695 0
M  V30 5507 C 564.799 1.85658 -0.343027 0
M  V30 5508 O 564.156 1.69529 0.675739 0
M  V30 5509 C 564.207 2.3429 -2.75301 0
M  V30 5510 O 563.928 1.7507 -4.01599 0
M  V30 5511 C 565.429 3.25051 -3.01424 0
M  V30 5512 H 562.649 0.374485 -0.556778 0
M  V30 5513 H 565.193 0.55353 -1.96866 0
M  V30 5514 H 563.348 2.98607 -2.46804 0
M  V30 5515 H 563.762 2.47812 -4.62266 0
M  V30 5516 H 565.236 3.98699 -3.81763 0
M  V30 5517 H 565.713 3.84227 -2.12758 0
M  V30 5518 H 566.319 2.66463 -3.31477 0
M  V30 5519 N 564.634 1.40294 0.718013 0
M  V30 5520 C 565.874 1.39888 1.49032 0
M  V30 5521 C 566.238 -0.000462935 1.92 0
M  V30 5522 O 567.439 -0.129622 2.68487 0
M  V30 5523 C 565.71 2.35868 2.68516 0
M  V30 5524 S 567.269 2.53799 3.57954 0
M  V30 5525 H 564.087 0.495849 0.509563 0
M  V30 5526 H 566.689 1.76541 0.839846 0
M  V30 5527 H 565.393 3.36375 2.35117 0
M  V30 5528 H 564.924 2.0049 3.38478 0
M  V30 5529 H 566.939 1.78859 4.62843 0
M  V30 5530 N 566.112 -0.949982 1.2575 0
M  V30 5531 C 567.361 -1.68956 1.10168 0
M  V30 5532 C 567.674 -1.92327 -0.356309 0
M  V30 5533 O 568.88 -2.64026 -0.632657 0
M  V30 5534 C 567.336 -3.04196 1.92336 0
M  V30 5535 C 566.944 -2.88603 3.42655 0
M  V30 5536 C 568.688 -3.81904 1.85336 0
M  V30 5537 C 566.595 -4.19262 4.17101 0
M  V30 5538 H 565.525 -0.633645 0.408668 0
M  V30 5539 H 568.176 -1.05719 1.49986 0
M  V30 5540 H 566.558 -3.68363 1.45344 0
M  V30 5541 H 567.732 -2.3334 3.97353 0
M  V30 5542 H 566.047 -2.24345 3.50796 0
M  V30 5543 H 568.644 -4.78688 2.38248 0
M  V30 5544 H 568.987 -4.08099 0.822226 0
M  V30 5545 H 569.52 -3.24495 2.30104 0
M  V30 5546 H 566.259 -3.98254 5.20648 0
M  V30 5547 H 565.779 -4.74273 3.67186 0
M  V30 5548 H 567.458 -4.87775 4.25071 0
M  V30 5549 N 567.59 -1.07411 -1.15328 0
M  V30 5550 C 568.836 -0.798831 -1.86404 0
M  V30 5551 C 569.169 0.673433 -1.8215 0
M  V30 5552 O 568.444 1.49428 -1.24505 0
M  V30 5553 C 568.727 -1.30846 -3.35487 0
M  V30 5554 C 568.58 -2.84532 -3.4837 0
M  V30 5555 C 569.899 -0.925486 -4.30259 0
M  V30 5556 H 567.018 -0.291659 -0.676834 0
M  V30 5557 H 569.66 -1.332 -1.35491 0
M  V30 5558 H 567.81 -0.854916 -3.78977 0
M  V30 5559 H 569.482 -3.3818 -3.13739 0
M  V30 5560 H 567.725 -3.22699 -2.8991 0
M  V30 5561 H 568.396 -3.15259 -4.53118 0
M  V30 5562 H 570.872 -1.3163 -3.94731 0
M  V30 5563 H 569.748 -1.3094 -5.33053 0
M  V30 5564 H 570.009 0.168525 -4.41779 0
M  V30 5565 N 569.068 1.32177 -0.85831 0
M  V30 5566 C 570.016 2.30729 -0.294442 0
M  V30 5567 C 571.01 1.59009 0.584165 0
M  V30 5568 O 572.216 1.73713 0.471562 0
M  V30 5569 H 568.591 0.748097 -0.0765171 0
M  V30 5570 H 570.562 2.75774 -1.1398 0
M  V30 5571 C 569.311 3.44098 0.499208 0
M  V30 5572 H 568.634 3.99449 -0.167579 0
M  V30 5573 H 570.074 4.15202 0.859273 0
M  V30 5574 C 568.533 2.91684 1.68588 0
M  V30 5575 O 569.063 2.89481 2.78503 0
M  V30 5576 N 567.269 2.48036 1.51415 0
M  V30 5577 H 566.816 2.50027 0.620006 0
M  V30 5578 H 566.774 2.13322 2.30957 0
M  V30 5579 N 570.547 0.616602 1.45037 0
M  V30 5580 C 571.793 0.115501 2.02471 0
M  V30 5581 C 572.126 -1.25406 1.4828 0
M  V30 5582 O 571.401 -1.82922 0.661051 0
M  V30 5583 C 571.684 0.0863588 3.59996 0
M  V30 5584 C 571.537 1.48723 4.24501 0
M  V30 5585 C 572.856 -0.596762 4.36035 0
M  V30 5586 H 569.975 0.0434461 0.735718 0
M  V30 5587 H 572.617 0.7903 1.72784 0
M  V30 5588 H 570.767 -0.488277 3.85419 0
M  V30 5589 H 572.439 2.10964 4.10234 0
M  V30 5590 H 570.682 2.04534 3.82555 0
M  V30 5591 H 571.353 1.419 5.3345 0
M  V30 5592 H 573.829 -0.10824 4.15959 0
M  V30 5593 H 572.705 -0.586289 5.4576 0
M  V30 5594 H 572.966 -1.66451 4.09569 0
M  V30 5595 N 572.025 -1.5352 0.356285 0
M  V30 5596 C 573.265 -2.03027 -0.23649 0
M  V30 5597 C 573.629 -1.23813 -1.46746 0
M  V30 5598 O 574.83 -1.63281 -2.13525 0
M  V30 5599 C 573.101 -3.53442 -0.530415 0
M  V30 5600 S 574.66 -4.24836 -1.09819 0
M  V30 5601 H 571.478 -0.707591 -0.0695378 0
M  V30 5602 H 574.08 -1.89077 0.496999 0
M  V30 5603 H 572.784 -4.087 0.373114 0
M  V30 5604 H 572.315 -3.71536 -1.29323 0
M  V30 5605 H 574.33 -4.35228 -2.38309 0
M  V30 5606 N 573.503 -0.0852151 -1.57369 0
M  V30 5607 C 574.728 0.592872 -1.98746 0
M  V30 5608 C 575.153 1.61538 -0.963689 0
M  V30 5609 O 574.511 1.81168 0.069071 0
M  V30 5610 C 574.559 1.22599 -3.39119 0
M  V30 5611 O 573.663 2.34185 -3.39457 0
M  V30 5612 H 573.004 0.151314 -0.646529 0
M  V30 5613 H 575.534 -0.163703 -2.03944 0
M  V30 5614 H 575.544 1.56965 -3.76598 0
M  V30 5615 H 574.219 0.476831 -4.13158 0
M  V30 5616 H 572.796 2.01512 -3.13763 0
M  V30 5617 N 574.981 1.5647 0.188427 0
M  V30 5618 C 576.206 1.85486 0.927891 0
M  V30 5619 C 576.631 0.669575 1.75779 0
M  V30 5620 O 575.989 -0.381573 1.77239 0
M  V30 5621 C 576.037 3.12784 1.7944 0
M  V30 5622 O 575.141 2.93805 2.894 0
M  V30 5623 H 574.482 0.610585 0.260925 0
M  V30 5624 H 577.012 2.037 0.191729 0
M  V30 5625 H 577.022 3.43749 2.19774 0
M  V30 5626 H 575.697 3.98671 1.18468 0
M  V30 5627 H 574.274 2.74153 2.52774 0
M  V30 5628 N 576.459 -0.456382 1.50847 0
M  V30 5629 C 577.684 -1.2349 1.66628 0
M  V30 5630 C 578.109 -1.84715 0.355254 0
M  V30 5631 O 577.467 -1.67961 -0.682559 0
M  V30 5632 C 577.515 -2.30865 2.77009 0
M  V30 5633 O 576.619 -3.35882 2.39285 0
M  V30 5634 H 575.96 -0.36266 0.556214 0
M  V30 5635 H 578.49 -0.541374 1.97308 0
M  V30 5636 H 578.5 -2.75949 3.00526 0
M  V30 5637 H 577.175 -1.85677 3.72152 0
M  V30 5638 H 575.752 -2.96406 2.26269 0
M  V30 5639 N 577.937 -1.40673 -0.710563 0
M  V30 5640 C 579.214 -1.29718 -1.46398 0
M  V30 5641 C 579.594 0.082177 -2.1094 0
M  V30 5642 O 578.942 1.09536 -2.00534 0
M  V30 5643 C 579.152 -2.43967 -2.49562 0
M  V30 5644 C 580.5 -2.84436 -3.15248 0
M  V30 5645 O 581.524 -2.43597 -2.59883 0
M  V30 5646 O 580.383 -3.55008 -4.1549 0
M  V30 5647 H 577.477 -0.509697 -0.651258 0
M  V30 5648 H 580.023 -1.52603 -0.742312 0
M  V30 5649 H 578.795 -3.36076 -2.0042 0
M  V30 5650 H 578.418 -2.22879 -3.29258 0
M  V30 5651 N 579.415 0.9433 -1.26252 0
M  V30 5652 C 580.365 2.02746 -1.04297 0
M  V30 5653 C 581.349 1.60882 0.0239435 0
M  V30 5654 O 582.541 1.75947 -0.192757 0
M  V30 5655 C 579.67 3.36585 -0.6757 0
M  V30 5656 C 578.756 3.84939 -1.77996 0
M  V30 5657 N 579.147 4.05966 -3.01704 0
M  V30 5658 C 577.445 4.13833 -1.66308 0
M  V30 5659 C 578.146 4.45987 -3.73458 0
M  V30 5660 N 577.122 4.52569 -3.01135 0
M  V30 5661 H 580.924 2.17012 -1.98199 0
M  V30 5662 H 578.438 1.12898 -1.16738 0
M  V30 5663 H 580.435 4.13896 -0.499571 0
M  V30 5664 H 579.095 3.2369 0.255863 0
M  V30 5665 H 580.106 3.92716 -3.37631 0
M  V30 5666 H 576.783 4.09739 -0.801267 0
M  V30 5667 H 578.173 4.70465 -4.79701 0
M  V30 5668 N 580.893 1.08022 1.14757 0
M  V30 5669 C 582.118 0.82895 1.90114 0
M  V30 5670 C 582.543 -0.612772 1.77839 0
M  V30 5671 O 581.901 -1.42895 1.11583 0
M  V30 5672 C 581.949 1.25062 3.38219 0
M  V30 5673 O 581.053 0.400119 4.10454 0
M  V30 5674 H 580.394 0.301412 0.591648 0
M  V30 5675 H 582.924 1.44062 1.45284 0
M  V30 5676 H 582.934 1.22977 3.89025 0
M  V30 5677 H 581.609 2.30067 3.46471 0
M  V30 5678 H 580.186 0.484052 3.69745 0
M  V30 5679 N 582.371 -1.3172 0.865308 0
M  V30 5680 C 583.596 -2.01591 0.487415 0
M  V30 5681 C 584.021 -1.6455 -0.911307 0
M  V30 5682 O 583.379 -0.851689 -1.6005 0
M  V30 5683 C 583.427 -3.54759 0.646401 0
M  V30 5684 O 582.531 -4.11185 -0.316284 0
M  V30 5685 H 581.872 -0.634884 0.194468 0
M  V30 5686 H 584.402 -1.68024 1.16744 0
M  V30 5687 H 584.412 -4.04438 0.537932 0
M  V30 5688 H 583.087 -3.8106 1.66632 0
M  V30 5689 H 581.664 -3.72543 -0.163162 0
M  V30 5690 N 583.85 -0.624285 -1.44708 0
M  V30 5691 C 584.782 0.12305 -2.28869 0
M  V30 5692 C 585.795 0.81557 -1.40898 0
M  V30 5693 O 586.984 0.678162 -1.65116 0
M  V30 5694 C 584.084 1.19612 -3.1709 0
M  V30 5695 C 583.257 0.587452 -4.33437 0
M  V30 5696 C 582.316 1.55358 -5.02743 0
M  V30 5697 O 581.341 1.07338 -5.58988 0
M  V30 5698 N 582.543 2.88798 -5.03563 0
M  V30 5699 H 585.308 -0.599193 -2.93649 0
M  V30 5700 H 582.87 -0.464954 -1.5508 0
M  V30 5701 H 584.861 1.84261 -3.60319 0
M  V30 5702 H 583.432 1.82067 -2.54107 0
M  V30 5703 H 582.652 -0.237509 -3.93484 0
M  V30 5704 H 583.94 0.161326 -5.08544 0
M  V30 5705 H 583.338 3.30399 -4.59188 0
M  V30 5706 H 581.894 3.48826 -5.50603 0
M  V30 5707 N 585.328 1.53329 -0.364422 0
M  V30 5708 C 586.568 2.0315 0.22572 0
M  V30 5709 C 586.932 1.24589 1.46087 0
M  V30 5710 O 588.133 1.64411 2.12656 0
M  V30 5711 C 586.404 3.53718 0.511663 0
M  V30 5712 S 587.963 4.25412 1.07564 0
M  V30 5713 H 584.781 0.70795 0.0657843 0
M  V30 5714 H 587.383 1.88811 -0.507019 0
M  V30 5715 H 586.087 4.08497 -0.394784 0
M  V30 5716 H 585.618 3.72217 1.27351 0
M  V30 5717 H 587.633 4.36486 2.35997 0
M  V30 5718 N 586.806 0.0935595 1.57322 0
M  V30 5719 C 588.031 -0.582324 1.99057 0
M  V30 5720 C 588.456 -1.61025 0.972242 0
M  V30 5721 O 587.814 -1.81202 -0.0594622 0
M  V30 5722 C 587.862 -1.20799 3.39765 0
M  V30 5723 O 586.966 -2.32382 3.40694 0
M  V30 5724 H 586.307 -0.147884 0.647323 0
M  V30 5725 H 588.837 0.174516 2.03854 0
M  V30 5726 H 588.847 -1.54966 3.77425 0
M  V30 5727 H 587.522 -0.454914 4.13405 0
M  V30 5728 H 586.099 -1.99845 3.14827 0
M  V30 5729 N 588.284 -1.56567 -0.180126 0
M  V30 5730 C 589.509 -1.85975 -0.918041 0
M  V30 5731 C 589.934 -0.678888 -1.75422 0
M  V30 5732 O 589.292 0.372168 -1.77439 0
M  V30 5733 C 589.34 -3.13731 -1.77779 0
M  V30 5734 O 588.444 -2.95335 -2.87838 0
M  V30 5735 H 587.785 -0.61196 -0.257683 0
M  V30 5736 H 590.315 -2.03798 -0.180923 0
M  V30 5737 H 590.325 -3.4491 -2.17948 0
M  V30 5738 H 589 -3.99293 -1.16352 0
M  V30 5739 H 587.577 -2.7549 -2.51316 0
M  V30 5740 N 589.762 0.448376 -1.51087 0
M  V30 5741 C 590.694 1.56146 -1.67783 0
M  V30 5742 C 591.707 1.52913 -0.55871 0
M  V30 5743 O 592.896 1.57889 -0.83267 0
M  V30 5744 C 589.996 2.95057 -1.66716 0
M  V30 5745 C 589.169 3.22915 -2.95033 0
M  V30 5746 C 588.228 4.41495 -2.86302 0
M  V30 5747 O 587.254 4.40688 -3.60254 0
M  V30 5748 N 588.456 5.44443 -2.014 0
M  V30 5749 H 591.221 1.42232 -2.638 0
M  V30 5750 H 588.782 0.637153 -1.48835 0
M  V30 5751 H 590.774 3.72388 -1.58458 0
M  V30 5752 H 589.344 3.02624 -0.783403 0
M  V30 5753 H 588.564 2.33985 -3.17245 0
M  V30 5754 H 589.852 3.38349 -3.79996 0
M  V30 5755 H 589.25 5.4793 -1.40674 0
M  V30 5756 H 587.807 6.2067 -1.99029 0
M  V30 5757 N 591.24 1.41047 0.703093 0
M  V30 5758 C 592.203 1.42036 1.79884 0
M  V30 5759 C 593.203 0.312153 1.57741 0
M  V30 5760 O 594.393 0.571672 1.64553 0
M  V30 5761 C 591.525 1.22437 3.18154 0
M  V30 5762 H 592.718 2.39572 1.80403 0
M  V30 5763 H 590.271 1.27079 0.909977 0
M  V30 5764 H 591.006 0.257112 3.23279 0
M  V30 5765 H 590.791 2.02723 3.35627 0
M  V30 5766 H 592.281 1.25946 3.98155 0
M  V30 5767 N 592.718 -0.936591 1.26751 0
M  V30 5768 C 593.943 -1.72288 1.15462 0
M  V30 5769 C 594.368 -1.85915 -0.285887 0
M  V30 5770 O 593.726 -1.35272 -1.20711 0
M  V30 5771 C 593.774 -3.10503 1.83359 0
M  V30 5772 O 592.878 -3.96745 1.1255 0
M  V30 5773 H 592.219 -0.52843 0.402067 0
M  V30 5774 H 594.749 -1.17271 1.67656 0
M  V30 5775 H 594.759 -3.60867 1.90365 0
M  V30 5776 H 593.434 -2.99901 2.88153 0
M  V30 5777 H 592.011 -3.55191 1.13551 0
M  V30 5778 N 594.196 -1.08629 -1.14182 0
M  V30 5779 C 595.421 -0.83902 -1.89671 0
M  V30 5780 C 595.846 0.603332 -1.78161 0
M  V30 5781 O 595.204 1.42301 -1.12339 0
M  V30 5782 C 595.252 -1.26854 -3.37551 0
M  V30 5783 O 594.356 -0.42188 -4.10236 0
M  V30 5784 H 593.697 -0.304545 -0.590041 0
M  V30 5785 H 596.227 -1.4483 -1.44518 0
M  V30 5786 H 596.237 -1.25038 -3.88368 0
M  V30 5787 H 594.912 -2.31901 -3.45246 0
M  V30 5788 H 593.489 -0.503654 -3.69483 0
M  V30 5789 N 595.674 1.31259 -0.872281 0
M  V30 5790 C 596.902 2.00795 -0.498907 0
M  V30 5791 C 597.317 1.65464 0.909238 0
M  V30 5792 O 596.674 0.885073 1.59602 0
M  V30 5793 C 596.725 3.55625 -0.649092 0
M  V30 5794 O 596.446 3.89692 -2.00179 0
M  V30 5795 C 597.947 4.42434 -0.277034 0
M  V30 5796 H 595.167 0.642299 -0.194145 0
M  V30 5797 H 597.711 1.67438 -1.17408 0
M  V30 5798 H 595.866 3.87394 -0.0214402 0
M  V30 5799 H 596.28 4.84407 -2.01122 0
M  V30 5800 H 597.754 5.50299 -0.433064 0
M  V30 5801 H 598.231 4.32146 0.783989 0
M  V30 5802 H 598.837 4.16086 -0.880483 0
M  V30 5803 N 597.152 0.631951 1.44375 0
M  V30 5804 C 598.085 -0.121822 2.27875 0
M  V30 5805 C 599.063 -0.850457 1.38586 0
M  V30 5806 O 600.247 -0.854378 1.68026 0
M  V30 5807 C 597.374 -1.17859 3.17533 0
M  V30 5808 C 596.42 -0.550391 4.22934 0
M  V30 5809 S 597.253 0.660145 5.31415 0
M  V30 5810 C 598.409 -0.396613 6.24642 0
M  V30 5811 H 598.642 0.586537 2.91457 0
M  V30 5812 H 596.175 0.420146 1.48574 0
M  V30 5813 H 598.133 -1.78335 3.69739 0
M  V30 5814 H 596.794 -1.85915 2.53169 0
M  V30 5815 H 595.987 -1.34631 4.85685 0
M  V30 5816 H 595.589 -0.0202306 3.73995 0
M  V30 5817 H 597.881 -1.26893 6.65511 0
M  V30 5818 H 598.824 0.195345 7.0783 0
M  V30 5819 H 599.232 -0.72288 5.59852 0
M  V30 5820 N 598.631 -1.53133 0.372548 0
M  V30 5821 C 599.879 -2.00958 -0.214534 0
M  V30 5822 C 600.2 -1.26135 -1.48711 0
M  V30 5823 O 599.47 -0.376597 -1.92246 0
M  V30 5824 H 598.05 -0.742456 -0.0822664 0
M  V30 5825 H 600.712 -1.88367 0.500385 0
M  V30 5826 H 599.808 -3.09031 -0.436605 0
M  V30 5827 N 600.109 -0.101901 -1.5727 0
M  V30 5828 C 601.386 0.602832 -1.86079 0
M  V30 5829 C 601.766 1.85912 -1 0
M  V30 5830 O 601.114 2.28379 -0.0742488 0
M  V30 5831 C 601.324 0.911694 -3.36881 0
M  V30 5832 C 602.672 1.2722 -4.05093 0
M  V30 5833 O 603.696 1.0025 -3.41802 0
M  V30 5834 O 602.555 1.7776 -5.16782 0
M  V30 5835 H 599.649 0.302366 -0.769743 0
M  V30 5836 H 602.195 -0.135113 -1.69161 0
M  V30 5837 H 600.967 0.0207256 -3.91295 0
M  V30 5838 H 600.59 1.70538 -3.59169 0
M  V30 5839 N 601.587 1.56661 0.17182 0
M  V30 5840 C 602.815 1.861 0.904115 0
M  V30 5841 C 603.23 0.687227 1.75848 0
M  V30 5842 O 602.587 -0.343671 1.79235 0
M  V30 5843 C 602.638 3.14568 1.78127 0
M  V30 5844 O 602.359 4.27422 0.961366 0
M  V30 5845 C 603.86 3.5735 2.62327 0
M  V30 5846 H 601.08 0.617445 0.262684 0
M  V30 5847 H 603.624 2.03775 0.172068 0
M  V30 5848 H 601.779 2.98721 2.46666 0
M  V30 5849 H 602.193 5.00725 1.56123 0
M  V30 5850 H 603.667 4.50144 3.1949 0
M  V30 5851 H 604.144 2.81445 3.37173 0
M  V30 5852 H 604.75 3.75807 1.99121 0
M  V30 5853 N 603.065 -0.440357 1.51323 0
M  V30 5854 C 604.342 -1.20109 1.5438 0
M  V30 5855 C 604.722 -2.08866 0.306303 0
M  V30 5856 O 604.07 -2.1723 -0.708773 0
M  V30 5857 C 604.28 -2.00555 2.8562 0
M  V30 5858 C 605.628 -2.577 3.37455 0
M  V30 5859 O 606.652 -2.10769 2.8715 0
M  V30 5860 O 605.511 -3.43289 4.25224 0
M  V30 5861 H 602.605 -0.546668 0.620551 0
M  V30 5862 H 605.151 -0.449672 1.63634 0
M  V30 5863 H 603.923 -1.35346 3.67147 0
M  V30 5864 H 603.546 -2.82768 2.79514 0
M  V30 5865 N 604.543 -1.41418 -0.695603 0
M  V30 5866 C 605.768 -1.44329 -1.48942 0
M  V30 5867 C 606.193 -0.0501579 -1.88033 0
M  V30 5868 O 605.551 0.946598 -1.54626 0
M  V30 5869 C 605.599 -2.3578 -2.72837 0
M  V30 5870 O 604.703 -1.81482 -3.70322 0
M  V30 5871 H 604.044 -0.489838 -0.44828 0
M  V30 5872 H 606.574 -1.85878 -0.855014 0
M  V30 5873 H 606.584 -2.51654 -3.21145 0
M  V30 5874 H 605.259 -3.37005 -2.43722 0
M  V30 5875 H 603.836 -1.75058 -3.29255 0
M  V30 5876 N 606.021 0.929856 -1.27246 0
M  V30 5877 C 607.246 1.71674 -1.16374 0
M  V30 5878 C 607.671 1.86064 0.276024 0
M  V30 5879 O 607.029 1.3591 1.19992 0
M  V30 5880 C 607.077 3.09526 -1.85003 0
M  V30 5881 O 606.181 3.96142 -1.14653 0
M  V30 5882 H 605.522 0.52629 -0.404863 0
M  V30 5883 H 608.052 1.16381 -1.68276 0
M  V30 5884 H 608.062 3.59852 -1.92276 0
M  V30 5885 H 606.737 2.98369 -2.89739 0
M  V30 5886 H 605.314 3.54584 -1.15433 0
M  V30 5887 N 607.499 1.09233 1.13605 0
M  V30 5888 C 608.91 0.846839 1.6639 0
M  V30 5889 C 609.261 -0.625031 1.85978 0
M  V30 5890 O 608.386 -1.48173 1.57714 0
M  V30 5891 C 608.981 1.5307 3.0225 0
M  V30 5892 C 607.54 1.33223 3.52035 0
M  V30 5893 C 606.687 1.58806 2.27323 0
M  V30 5894 H 609.638 1.25175 0.975541 0
M  V30 5895 H 609.659 0.96267 3.68121 0
M  V30 5896 H 609.171 2.60192 2.87961 0
M  V30 5897 H 607.272 0.282091 3.71531 0
M  V30 5898 H 607.385 2.0657 4.32279 0
M  V30 5899 H 605.749 1.01007 2.33815 0
M  V30 5900 H 606.532 2.67153 2.15602 0
M  V30 5901 N 608.977 -1.30795 0.87923 0
M  V30 5902 C 610.202 -2.01063 0.508769 0
M  V30 5903 C 610.627 -1.65508 -0.893803 0
M  V30 5904 O 609.985 -0.868616 -1.59138 0
M  V30 5905 C 610.033 -3.54054 0.683991 0
M  V30 5906 O 609.137 -4.11498 -0.272654 0
M  V30 5907 H 608.478 -0.632786 0.201191 0
M  V30 5908 H 611.008 -1.66776 1.18519 0
M  V30 5909 H 611.018 -4.03845 0.580798 0
M  V30 5910 H 609.693 -3.79271 1.70665 0
M  V30 5911 H 608.27 -3.72695 -0.12364 0
M  V30 5912 N 610.455 -0.639598 -1.44038 0
M  V30 5913 C 611.365 0.0612377 -2.3452 0
M  V30 5914 C 612.381 0.826717 -1.53106 0
M  V30 5915 O 613.557 0.777059 -1.85806 0
M  V30 5916 C 610.622 1.02492 -3.31204 0
M  V30 5917 C 609.683 0.25788 -4.28525 0
M  V30 5918 C 608.916 1.17566 -5.2059 0
M  V30 5919 O 609.139 2.41461 -5.16771 0
M  V30 5920 O 608.073 0.655407 -5.98321 0
M  V30 5921 H 611.899 -0.68318 -2.95916 0
M  V30 5922 H 609.484 -0.399784 -1.43952 0
M  V30 5923 H 611.366 1.57911 -3.90694 0
M  V30 5924 H 610.041 1.7498 -2.7233 0
M  V30 5925 H 608.948 -0.339566 -3.72556 0
M  V30 5926 H 610.281 -0.427154 -4.90343 0
M  V30 5927 N 611.933 1.52934 -0.380664 0
M  V30 5928 C 613.158 2.06363 0.207157 0
M  V30 5929 C 613.583 1.25122 1.4045 0
M  V30 5930 O 612.941 0.274062 1.79217 0
M  V30 5931 C 612.989 3.56162 0.563996 0
M  V30 5932 O 612.093 3.77552 1.65917 0
M  V30 5933 H 611.434 0.663468 0.0265859 0
M  V30 5934 H 613.964 1.9719 -0.545635 0
M  V30 5935 H 613.974 3.99453 0.830752 0
M  V30 5936 H 612.649 4.14732 -0.311427 0
M  V30 5937 H 611.226 3.46154 1.3868 0
M  V30 5938 N 613.412 0.11024 1.57214 0
M  V30 5939 C 614.823 -0.416527 1.81994 0
M  V30 5940 C 615.174 -1.67183 1.02686 0
M  V30 5941 O 614.299 -2.14823 0.260782 0
M  V30 5942 C 614.894 -0.762466 3.30109 0
M  V30 5943 C 613.453 -1.23391 3.556 0
M  V30 5944 C 612.6 -0.238166 2.76275 0
M  V30 5945 H 615.551 0.335491 1.55113 0
M  V30 5946 H 615.572 -1.62068 3.44259 0
M  V30 5947 H 615.084 0.151346 3.87805 0
M  V30 5948 H 613.185 -2.16492 3.03253 0
M  V30 5949 H 613.298 -1.18528 4.64207 0
M  V30 5950 H 611.662 -0.723421 2.4421 0
M  V30 5951 H 612.445 0.668591 3.36727 0
M  V30 5952 N 614.89 -1.56749 -0.16351 0
M  V30 5953 C 615.837 -1.97011 -1.2023 0
M  V30 5954 C 616.807 -0.835186 -1.43575 0
M  V30 5955 O 617.992 -1.09594 -1.56185 0
M  V30 5956 C 615.132 -2.34186 -2.53478 0
M  V30 5957 C 614.245 -3.60893 -2.37446 0
M  V30 5958 C 613.38 -3.87245 -3.63614 0
M  V30 5959 C 612.419 -5.07274 -3.42548 0
M  V30 5960 N 611.556 -5.29719 -4.60806 0
M  V30 5961 H 616.396 -2.85562 -0.851958 0
M  V30 5962 H 613.933 -1.41292 -0.409257 0
M  V30 5963 H 615.891 -2.53764 -3.31149 0
M  V30 5964 H 614.521 -1.48736 -2.86492 0
M  V30 5965 H 613.573 -3.49185 -1.50911 0
M  V30 5966 H 614.885 -4.48722 -2.1783 0
M  V30 5967 H 614.039 -4.07232 -4.49719 0
M  V30 5968 H 612.778 -2.97806 -3.86216 0
M  V30 5969 H 611.783 -4.87177 -2.5483 0
M  V30 5970 H 613.008 -5.98251 -3.2136 0
M  V30 5971 H 610.954 -4.43233 -4.83612 0
M  V30 5972 H 610.871 -6.11786 -4.44132 0
M  V30 5973 H 612.139 -5.54192 -5.48171 0
M  V30 5974 N 616.368 0.432326 -1.51554 0
M  V30 5975 C 617.645 1.19288 -1.55015 0
M  V30 5976 C 618.025 2.08701 -0.317375 0
M  V30 5977 O 617.373 2.17602 0.697243 0
M  V30 5978 C 617.583 1.99037 -2.86679 0
M  V30 5979 C 618.931 2.55907 -3.38817 0
M  V30 5980 O 619.955 2.09243 -2.88263 0
M  V30 5981 O 618.814 3.41029 -4.27038 0
M  V30 5982 H 615.908 0.543369 -0.623441 0
M  V30 5983 H 618.454 0.440988 -1.6387 0
M  V30 5984 H 617.226 1.33397 -3.6786 0
M  V30 5985 H 616.849 2.81281 -2.8101 0
M  V30 5986 N 617.846 1.41785 0.688094 0
M  V30 5987 C 618.756 1.46596 1.83158 0
M  V30 5988 C 619.772 0.355862 1.70322 0
M  V30 5989 O 620.948 0.604737 1.92106 0
M  V30 5990 C 618.013 1.35322 3.192 0
M  V30 5991 C 617.074 2.56711 3.4409 0
M  V30 5992 C 616.307 2.45965 4.73642 0
M  V30 5993 O 616.53 1.48827 5.50642 0
M  V30 5994 O 615.464 3.35859 4.99482 0
M  V30 5995 H 619.29 2.43083 1.82056 0
M  V30 5996 H 616.875 1.23404 0.842126 0
M  V30 5997 H 618.757 1.31347 4.00407 0
M  V30 5998 H 617.432 0.419536 3.2097 0
M  V30 5999 H 616.339 2.66262 2.62784 0
M  V30 6000 H 617.672 3.48933 3.47141 0
M  V30 6001 N 619.324 -0.923095 1.27737 0
M  V30 6002 C 620.256 -2.02871 1.06658 0
M  V30 6003 C 621.269 -1.62786 0.0212095 0
M  V30 6004 O 622.458 -1.76548 0.263267 0
M  V30 6005 C 619.558 -3.33603 0.59682 0
M  V30 6006 C 618.731 -4.02354 1.71551 0
M  V30 6007 C 617.79 -5.11364 1.24071 0
M  V30 6008 O 616.816 -5.35075 1.94123 0
M  V30 6009 N 618.018 -5.80416 0.0988444 0
M  V30 6010 H 620.783 -2.21515 2.01869 0
M  V30 6011 H 618.344 -1.09378 1.19365 0
M  V30 6012 H 620.336 -4.03845 0.262984 0
M  V30 6013 H 618.906 -3.11499 -0.262187 0
M  V30 6014 H 618.126 -3.25786 2.2194 0
M  V30 6015 H 619.414 -4.45035 2.46619 0
M  V30 6016 H 618.812 -5.63611 -0.485743 0
M  V30 6017 H 617.369 -6.51563 -0.17578 0
M  V30 6018 N 620.802 -1.09834 -1.13024 0
M  V30 6019 C 622.048 -0.83819 -1.84668 0
M  V30 6020 C 622.381 0.634645 -1.83537 0
M  V30 6021 O 621.656 1.46753 -1.27647 0
M  V30 6022 C 621.939 -1.37933 -3.32636 0
M  V30 6023 C 621.792 -2.91857 -3.42257 0
M  V30 6024 C 623.111 -1.01654 -4.28199 0
M  V30 6025 H 620.23 -0.30595 -0.670495 0
M  V30 6026 H 622.872 -1.36044 -1.32635 0
M  V30 6027 H 621.022 -0.935111 -3.77078 0
M  V30 6028 H 622.694 -3.44759 -3.06495 0
M  V30 6029 H 620.937 -3.28776 -2.83 0
M  V30 6030 H 621.608 -3.24799 -4.46329 0
M  V30 6031 H 624.084 -1.39973 -3.9185 0
M  V30 6032 H 622.96 -1.42217 -5.30156 0
M  V30 6033 H 623.221 0.0747794 -4.42037 0
M  V30 6034 N 622.28 1.30327 -0.886154 0
M  V30 6035 C 623.691 1.78243 -0.555554 0
M  V30 6036 C 624.042 1.72849 0.928314 0
M  V30 6037 O 623.167 1.30607 1.72542 0
M  V30 6038 C 623.762 3.23654 -1.00168 0
M  V30 6039 C 622.321 3.69401 -0.722471 0
M  V30 6040 C 621.468 2.50753 -1.18399 0
M  V30 6041 H 624.419 1.1718 -1.07026 0
M  V30 6042 H 624.44 3.79056 -0.331152 0
M  V30 6043 H 623.952 3.27548 -2.08169 0
M  V30 6044 H 622.053 3.70995 0.345496 0
M  V30 6045 H 622.166 4.60818 -1.31085 0
M  V30 6046 H 620.53 2.47452 -0.603303 0
M  V30 6047 H 621.313 2.57383 -2.27176 0
M  V30 6048 N 623.758 0.647228 1.43697 0
M  V30 6049 C 625.005 0.158188 2.01881 0
M  V30 6050 C 625.333 -1.22573 1.51017 0
M  V30 6051 O 624.588 -1.83086 0.69122 0
M  V30 6052 C 624.887 0.111481 3.57226 0
M  V30 6053 C 624.553 1.43633 4.27411 0
M  V30 6054 C 623.215 1.79915 4.463 0
M  V30 6055 C 625.567 2.31011 4.67208 0
M  V30 6056 C 622.895 3.03251 5.02251 0
M  V30 6057 C 625.247 3.53633 5.24525 0
M  V30 6058 C 623.911 3.90118 5.41631 0
M  V30 6059 H 623.181 0.0578851 0.738736 0
M  V30 6060 H 625.828 0.836746 1.72252 0
M  V30 6061 H 624.133 -0.650507 3.86362 0
M  V30 6062 H 625.83 -0.283682 3.99995 0
M  V30 6063 H 622.42 1.14403 4.1305 0
M  V30 6064 H 626.604 2.04272 4.52313 0
M  V30 6065 H 621.86 3.31575 5.13681 0
M  V30 6066 H 626.034 4.21561 5.5431 0
M  V30 6067 H 623.661 4.85768 5.84751 0
M  V30 6068 N 625.236 -1.5273 0.388769 0
M  V30 6069 C 626.461 -2.0647 -0.19621 0
M  V30 6070 C 626.886 -1.25865 -1.39784 0
M  V30 6071 O 626.244 -0.283562 -1.79069 0
M  V30 6072 C 626.292 -3.56456 -0.5451 0
M  V30 6073 O 625.396 -3.78426 -1.63912 0
M  V30 6074 H 624.737 -0.663599 -0.023067 0
M  V30 6075 H 627.267 -1.96898 0.556084 0
M  V30 6076 H 627.277 -3.99888 -0.809557 0
M  V30 6077 H 625.952 -4.14561 0.333417 0
M  V30 6078 H 624.529 -3.46884 -1.36842 0
M  V30 6079 N 626.714 -0.118576 -1.57153 0
M  V30 6080 C 627.661 0.831789 -2.1529 0
M  V30 6081 C 628.631 1.26385 -1.07778 0
M  V30 6082 O 629.816 1.34144 -1.35684 0
M  V30 6083 C 626.956 2.07664 -2.75626 0
M  V30 6084 C 626.069 1.69298 -3.97444 0
M  V30 6085 C 625.204 2.88747 -4.45868 0
M  V30 6086 C 624.243 2.46619 -5.60219 0
M  V30 6087 N 623.38 3.5898 -6.03389 0
M  V30 6088 H 628.22 0.329183 -2.96176 0
M  V30 6089 H 625.757 0.150792 -1.46325 0
M  V30 6090 H 627.715 2.80601 -3.08738 0
M  V30 6091 H 626.345 2.55384 -1.97431 0
M  V30 6092 H 625.397 0.862374 -3.70496 0
M  V30 6093 H 626.709 1.34338 -4.80369 0
M  V30 6094 H 625.863 3.69909 -4.80887 0
M  V30 6095 H 624.602 3.26933 -3.61892 0
M  V30 6096 H 623.607 1.63889 -5.24805 0
M  V30 6097 H 624.832 2.0955 -6.45961 0
M  V30 6098 H 622.778 3.9684 -5.22354 0
M  V30 6099 H 622.695 3.27942 -6.81168 0
M  V30 6100 H 623.963 4.40583 -6.43045 0
M  V30 6101 N 628.193 1.56834 0.155195 0
M  V30 6102 C 629.103 2.009 1.21146 0
M  V30 6103 C 630.119 0.923029 1.475 0
M  V30 6104 O 631.295 1.23189 1.59331 0
M  V30 6105 C 628.36 2.37378 2.52691 0
M  V30 6106 C 627.421 3.59883 2.34057 0
M  V30 6107 C 626.654 3.94612 3.59329 0
M  V30 6108 O 626.877 3.30104 4.65175 0
M  V30 6109 O 625.811 4.87895 3.52479 0
M  V30 6110 H 629.637 2.9105 0.867371 0
M  V30 6111 H 627.222 1.44916 0.363298 0
M  V30 6112 H 629.104 2.61737 3.3026 0
M  V30 6113 H 627.779 1.50385 2.86646 0
M  V30 6114 H 626.686 3.40722 1.54465 0
M  V30 6115 H 628.019 4.47468 2.0502 0
M  V30 6116 N 629.671 -0.424282 1.51781 0
M  V30 6117 C 630.581 -1.54087 1.76902 0
M  V30 6118 C 631.597 -1.61249 0.653826 0
M  V30 6119 O 632.773 -1.78247 0.937552 0
M  V30 6120 C 629.838 -2.8996 1.90063 0
M  V30 6121 C 628.899 -2.92809 3.13945 0
M  V30 6122 C 628.132 -4.22201 3.26469 0
M  V30 6123 O 628.355 -5.15286 2.44616 0
M  V30 6124 O 627.289 -4.31599 4.1953 0
M  V30 6125 H 631.115 -1.358 2.71647 0
M  V30 6126 H 628.7 -0.608618 1.36441 0
M  V30 6127 H 630.582 -3.70575 2.0063 0
M  V30 6128 H 629.257 -3.08347 0.985067 0
M  V30 6129 H 628.164 -2.11102 3.08847 0
M  V30 6130 H 629.497 -2.79369 4.05233 0
M  V30 6131 N 631.149 -1.42148 -0.680565 0
M  V30 6132 C 632.389 -1.4379 -1.45271 0
M  V30 6133 C 632.753 -0.0504426 -1.91934 0
M  V30 6134 O 633.954 0.0583916 -2.68737 0
M  V30 6135 C 632.225 -2.42904 -2.62168 0
M  V30 6136 S 633.784 -2.63201 -3.51099 0
M  V30 6137 H 630.602 -0.509185 -0.496237 0
M  V30 6138 H 633.204 -1.78706 -0.792744 0
M  V30 6139 H 631.908 -3.4249 -2.26116 0
M  V30 6140 H 631.439 -2.09394 -3.33043 0
M  V30 6141 H 633.454 -1.91068 -4.57938 0
M  V30 6142 N 632.627 0.916307 -1.28225 0
M  V30 6143 C 633.59 1.99996 -1.11957 0
M  V30 6144 C 634.59 1.60688 -0.0600152 0
M  V30 6145 O 635.78 1.71499 -0.30558 0
M  V30 6146 C 632.912 3.33458 -0.708411 0
M  V30 6147 H 634.105 2.15858 -2.08196 0
M  V30 6148 H 631.658 1.09863 -1.11175 0
M  V30 6149 H 632.393 3.23297 0.254859 0
M  V30 6150 H 632.178 3.63349 -1.47377 0
M  V30 6151 H 633.668 4.13014 -0.617164 0
M  V30 6152 N 634.105 1.10431 1.1244 0
M  V30 6153 C 635.352 0.846717 1.83948 0
M  V30 6154 C 635.68 -0.627709 1.84093 0
M  V30 6155 O 634.935 -1.47876 1.28184 0
M  V30 6156 C 635.234 1.34022 3.3132 0
M  V30 6157 C 634.9 2.82606 3.51347 0
M  V30 6158 C 633.562 3.23182 3.56521 0
M  V30 6159 C 635.914 3.78356 3.58464 0
M  V30 6160 C 633.242 4.58258 3.66356 0
M  V30 6161 C 635.594 5.13234 3.69829 0
M  V30 6162 C 634.258 5.53384 3.73259 0
M  V30 6163 H 633.528 0.309836 0.673114 0
M  V30 6164 H 636.175 1.38091 1.32677 0
M  V30 6165 H 634.48 0.726047 3.85014 0
M  V30 6166 H 636.177 1.11739 3.85118 0
M  V30 6167 H 632.767 2.50212 3.47983 0
M  V30 6168 H 636.951 3.48115 3.53737 0
M  V30 6169 H 632.207 4.88787 3.67284 0
M  V30 6170 H 636.381 5.87272 3.74279 0
M  V30 6171 H 634.008 6.58045 3.80633 0
M  V30 6172 N 635.583 -1.29855 0.893053 0
M  V30 6173 C 636.999 -1.48366 0.588199 0
M  V30 6174 C 637.199 -1.81654 -0.872018 0
M  V30 6175 O 636.255 -1.909 -1.65268 0
M  V30 6176 C 637.568 -2.60136 1.5083 0
M  V30 6177 C 639.116 -2.74014 1.51279 0
M  V30 6178 C 639.591 -3.88905 2.41902 0
M  V30 6179 N 641.082 -3.96228 2.39911 0
M  V30 6180 C 641.817 -4.84458 3.06738 0
M  V30 6181 N 641.313 -5.77426 3.8282 0
M  V30 6182 N 643.106 -4.77894 2.95929 0
M  V30 6183 H 635.257 -1.06522 1.83757 0
M  V30 6184 H 637.52 -0.528495 0.787018 0
M  V30 6185 H 637.226 -2.42383 2.54839 0
M  V30 6186 H 637.1 -3.56793 1.22388 0
M  V30 6187 H 639.487 -2.91167 0.480179 0
M  V30 6188 H 639.568 -1.77952 1.83757 0
M  V30 6189 H 639.212 -3.72508 3.45253 0
M  V30 6190 H 639.142 -4.84322 2.06737 0
M  V30 6191 H 641.633 -3.29728 1.84629 0
M  V30 6192 H 641.946 -6.41529 4.30883 0
M  V30 6193 H 640.291 -5.77332 3.86927 0
M  V30 6194 H 643.482 -4.04248 2.36012 0
M  V30 6195 H 643.655 -5.46444 3.48286 0
M  V30 6196 N 637.061 -0.65484 -1.43351 0
M  V30 6197 C 638.286 -0.175046 -2.0666 0
M  V30 6198 C 638.711 1.15104 -1.4877 0
M  V30 6199 O 638.069 1.71144 -0.598279 0
M  V30 6200 C 638.117 -0.0991544 -3.60464 0
M  V30 6201 O 637.221 0.938169 -4.01587 0
M  V30 6202 H 636.562 -0.0956148 -0.65708 0
M  V30 6203 H 639.092 -0.898222 -1.83829 0
M  V30 6204 H 639.102 0.083632 -4.07914 0
M  V30 6205 H 637.777 -1.06719 -4.01975 0
M  V30 6206 H 636.354 0.72804 -3.65724 0
M  V30 6207 N 638.539 1.52521 -0.396863 0
M  V30 6208 C 639.471 2.24333 0.469814 0
M  V30 6209 C 640.484 1.2685 1.02043 0
M  V30 6210 O 641.673 1.52876 0.92147 0
M  V30 6211 C 638.773 2.95202 1.66461 0
M  V30 6212 C 637.946 4.19454 1.24003 0
M  V30 6213 C 637.005 4.73255 2.30036 0
M  V30 6214 O 636.031 5.36151 1.91131 0
M  V30 6215 N 637.233 4.53765 3.62047 0
M  V30 6216 H 639.998 2.99347 -0.145468 0
M  V30 6217 H 637.559 1.60348 -0.223606 0
M  V30 6218 H 639.551 3.28092 2.36934 0
M  V30 6219 H 638.121 2.2345 2.18607 0
M  V30 6220 H 637.341 3.92517 0.363892 0
M  V30 6221 H 638.629 5.0017 0.933135 0
M  V30 6222 H 638.027 4.03576 3.96412 0
M  V30 6223 H 636.584 4.91124 4.28533 0
M  V30 6224 N 640.017 0.126909 1.57088 0
M  V30 6225 C 640.947 -0.816847 2.18746 0
M  V30 6226 C 641.928 -1.27161 1.12979 0
M  V30 6227 O 643.113 -1.33279 1.41246 0
M  V30 6228 C 640.243 -2.06398 2.79315 0
M  V30 6229 C 639.197 -1.74673 3.90735 0
M  V30 6230 C 638.523 -3.06482 4.38147 0
M  V30 6231 C 639.823 -1.0089 5.12463 0
M  V30 6232 H 641.517 -0.303032 2.97863 0
M  V30 6233 H 639.063 -0.144314 1.43275 0
M  V30 6234 H 641.016 -2.72885 3.2111 0
M  V30 6235 H 639.74 -2.60118 1.975 0
M  V30 6236 H 638.399 -1.10572 3.49527 0
M  V30 6237 H 638.047 -3.58152 3.5318 0
M  V30 6238 H 637.747 -2.86025 5.13287 0
M  V30 6239 H 639.271 -3.74073 4.82599 0
M  V30 6240 H 640.685 -1.57546 5.51228 0
M  V30 6241 H 639.082 -0.905006 5.93237 0
M  V30 6242 H 640.152 0.00297335 4.849 0
M  V30 6243 N 641.495 -1.56914 -0.146875 0
M  V30 6244 C 642.405 -2.0154 -1.20079 0
M  V30 6245 C 643.421 -0.930838 -1.47008 0
M  V30 6246 O 644.597 -1.24032 -1.58676 0
M  V30 6247 C 641.662 -2.38715 -2.51428 0
M  V30 6248 C 640.723 -3.6112 -2.32145 0
M  V30 6249 C 639.956 -3.96512 -3.57231 0
M  V30 6250 O 640.179 -3.32566 -4.63418 0
M  V30 6251 O 639.113 -4.89758 -3.49887 0
M  V30 6252 H 642.939 -2.91506 -0.851924 0
M  V30 6253 H 640.524 -1.45106 -0.355607 0
M  V30 6254 H 642.406 -2.63485 -3.28867 0
M  V30 6255 H 641.081 -1.51903 -2.85845 0
M  V30 6256 H 639.988 -3.41536 -1.52656 0
M  V30 6257 H 641.321 -4.48549 -2.02644 0
M  V30 6258 N 642.974 0.416227 -1.52004 0
M  V30 6259 C 644.202 1.18573 -1.69553 0
M  V30 6260 C 644.617 1.84472 -0.401919 0
M  V30 6261 O 643.974 1.71593 0.621463 0
M  V30 6262 C 644.025 2.25413 -2.82615 0
M  V30 6263 O 643.746 1.62205 -4.06966 0
M  V30 6264 C 645.247 3.15297 -3.11613 0
M  V30 6265 H 642.467 0.356582 -0.56841 0
M  V30 6266 H 645.011 0.490618 -1.98528 0
M  V30 6267 H 643.166 2.90604 -2.56179 0
M  V30 6268 H 643.58 2.3298 -4.69916 0
M  V30 6269 H 645.054 3.86351 -3.94255 0
M  V30 6270 H 645.531 3.77264 -2.24874 0
M  V30 6271 H 646.137 2.55783 -3.39787 0
M  V30 6272 N 644.452 1.42507 0.673017 0
M  V30 6273 C 645.863 1.38347 1.25367 0
M  V30 6274 C 646.214 0.0776327 1.96046 0
M  V30 6275 O 645.339 -0.823571 2.00116 0
M  V30 6276 C 645.934 2.506 2.28002 0
M  V30 6277 C 644.493 2.49767 2.81591 0
M  V30 6278 C 643.64 2.293 1.55938 0
M  V30 6279 H 646.591 1.51695 0.466288 0
M  V30 6280 H 646.612 2.20953 3.09774 0
M  V30 6281 H 646.124 3.45627 1.76532 0
M  V30 6282 H 644.225 1.58563 3.37177 0
M  V30 6283 H 644.338 3.46867 3.30485 0
M  V30 6284 H 642.702 1.77594 1.82572 0
M  V30 6285 H 643.485 3.26385 1.06431 0
M  V30 6286 N 645.93 -0.909495 1.28709 0
M  V30 6287 C 646.84 -2.04558 1.14861 0
M  V30 6288 C 647.856 -1.73842 0.0741621 0
M  V30 6289 O 649.032 -1.99383 0.2843 0
M  V30 6290 C 646.097 -3.36957 0.816148 0
M  V30 6291 C 645.158 -3.81255 1.97341 0
M  V30 6292 C 644.391 -5.07335 1.65671 0
M  V30 6293 O 644.614 -5.67514 0.573053 0
M  V30 6294 O 643.548 -5.47449 2.50167 0
M  V30 6295 H 647.374 -2.19161 2.10243 0
M  V30 6296 H 644.959 -1.03159 1.08068 0
M  V30 6297 H 646.841 -4.16436 0.644873 0
M  V30 6298 H 645.516 -3.2352 -0.107983 0
M  V30 6299 H 644.423 -3.02584 2.19986 0
M  V30 6300 H 645.756 -3.99261 2.87839 0
M  V30 6301 N 647.408 -1.11026 -1.11852 0
M  V30 6302 C 648.636 -0.878818 -1.87308 0
M  V30 6303 C 649.051 0.57111 -1.79955 0
M  V30 6304 O 648.408 1.39409 -1.17777 0
M  V30 6305 C 648.459 -1.3264 -3.36287 0
M  V30 6306 O 648.18 -2.71948 -3.43476 0
M  V30 6307 C 649.681 -1.12974 -4.28663 0
M  V30 6308 H 646.901 -0.315015 -0.592458 0
M  V30 6309 H 649.445 -1.47649 -1.41492 0
M  V30 6310 H 647.6 -0.772269 -3.79625 0
M  V30 6311 H 648.014 -2.91241 -4.3621 0
M  V30 6312 H 649.488 -1.49198 -5.31454 0
M  V30 6313 H 649.965 -0.0689127 -4.39146 0
M  V30 6314 H 650.571 -1.67064 -3.91113 0
M  V30 6315 N 648.886 1.2938 -0.899927 0
M  V30 6316 C 649.816 2.30144 -0.39446 0
M  V30 6317 C 650.797 1.61611 0.530639 0
M  V30 6318 O 651.982 1.89119 0.441319 0
M  V30 6319 C 649.112 3.45229 0.37868 0
M  V30 6320 C 648.066 4.25564 -0.456012 0
M  V30 6321 C 647.392 5.32848 0.444637 0
M  V30 6322 C 648.692 4.93651 -1.70605 0
M  V30 6323 H 650.386 2.72673 -1.23653 0
M  V30 6324 H 647.932 1.31086 -0.596034 0
M  V30 6325 H 649.885 4.14797 0.743037 0
M  V30 6326 H 648.609 3.01545 1.25453 0
M  V30 6327 H 647.268 3.57704 -0.802704 0
M  V30 6328 H 646.916 4.85408 1.31863 0
M  V30 6329 H 646.616 5.87497 -0.110154 0
M  V30 6330 H 648.14 6.05268 0.805182 0
M  V30 6331 H 649.554 5.55655 -1.41141 0
M  V30 6332 H 647.951 5.58233 -2.20217 0
M  V30 6333 H 649.021 4.18926 -2.4419 0
M  V30 6334 N 650.364 0.662433 1.43002 0
M  V30 6335 C 651.294 -0.00979809 2.33498 0
M  V30 6336 C 652.275 -0.802329 1.49989 0
M  V30 6337 O 653.46 -0.761964 1.78627 0
M  V30 6338 C 650.59 -0.970446 3.33466 0
M  V30 6339 C 649.544 -0.287383 4.27034 0
M  V30 6340 C 648.87 -1.36012 5.17112 0
M  V30 6341 C 650.17 0.82595 5.15728 0
M  V30 6342 H 651.864 0.745959 2.89958 0
M  V30 6343 H 649.41 0.360172 1.39423 0
M  V30 6344 H 651.363 -1.44971 3.95679 0
M  V30 6345 H 650.087 -1.75748 2.75282 0
M  V30 6346 H 648.746 0.17152 3.66199 0
M  V30 6347 H 648.394 -2.13882 4.55262 0
M  V30 6348 H 648.094 -0.908276 5.80538 0
M  V30 6349 H 649.618 -1.84056 5.82199 0
M  V30 6350 H 651.032 0.42845 5.71697 0
M  V30 6351 H 649.429 1.20282 5.87922 0
M  V30 6352 H 650.499 1.68003 4.54866 0
M  V30 6353 N 651.842 -1.52309 0.404946 0
M  V30 6354 C 653.09 -2.01368 -0.17186 0
M  V30 6355 C 653.411 -1.29261 -1.46002 0
M  V30 6356 O 652.681 -0.41729 -1.91404 0
M  V30 6357 H 651.261 -0.744034 -0.0664993 0
M  V30 6358 H 653.923 -1.87263 0.540228 0
M  V30 6359 H 653.019 -3.09888 -0.370957 0
M  V30 6360 N 653.32 -0.135238 -1.57019 0
M  V30 6361 C 654.545 0.529343 -2.00531 0
M  V30 6362 C 654.97 1.58391 -1.01459 0
M  V30 6363 O 654.328 1.81296 0.0113986 0
M  V30 6364 C 654.376 1.11748 -3.42848 0
M  V30 6365 O 653.48 2.23267 -3.46736 0
M  V30 6366 H 652.821 0.130669 -0.651016 0
M  V30 6367 H 655.351 -0.228503 -2.0332 0
M  V30 6368 H 655.361 1.44905 -3.81401 0
M  V30 6369 H 654.036 0.345147 -4.14465 0
M  V30 6370 H 652.613 1.91428 -3.20015 0
M  V30 6371 N 654.798 1.5699 0.138552 0
M  V30 6372 C 656.026 1.87976 0.864437 0
M  V30 6373 C 656.441 0.724372 1.74351 0
M  V30 6374 O 655.798 -0.305575 1.79924 0
M  V30 6375 C 655.849 3.18276 1.71414 0
M  V30 6376 O 655.57 4.29365 0.870487 0
M  V30 6377 C 657.071 3.62834 2.54688 0
M  V30 6378 H 654.291 0.622878 0.249528 0
M  V30 6379 H 656.835 2.04094 0.128805 0
M  V30 6380 H 654.99 3.03886 2.40274 0
M  V30 6381 H 655.404 5.03924 1.45466 0
M  V30 6382 H 656.878 4.5682 3.0987 0
M  V30 6383 H 657.355 2.88533 3.31127 0
M  V30 6384 H 657.961 3.79946 1.91105 0
M  V30 6385 N 656.276 -0.40816 1.52223 0
M  V30 6386 C 657.186 -1.52202 1.78526 0
M  V30 6387 C 658.202 -1.60546 0.670892 0
M  V30 6388 O 659.378 -1.77242 0.956404 0
M  V30 6389 C 656.443 -2.87928 1.93128 0
M  V30 6390 C 655.504 -2.89463 3.17033 0
M  V30 6391 C 654.737 -4.18715 3.30929 0
M  V30 6392 O 654.96 -5.12662 2.50067 0
M  V30 6393 O 653.894 -4.27125 4.24084 0
M  V30 6394 H 657.72 -1.32911 2.73072 0
M  V30 6395 H 655.305 -0.594112 1.37079 0
M  V30 6396 H 657.187 -3.68426 2.04549 0
M  V30 6397 H 655.862 -3.07285 1.01772 0
M  V30 6398 H 654.769 -2.07815 3.11069 0
M  V30 6399 H 656.102 -2.75055 4.08174 0
M  V30 6400 N 657.755 -1.42862 -0.66545 0
M  V30 6401 C 658.665 -1.49491 -1.80803 0
M  V30 6402 C 659.681 -0.382914 -1.69734 0
M  V30 6403 O 660.857 -0.635223 -1.9112 0
M  V30 6404 C 657.922 -1.40383 -3.17007 0
M  V30 6405 C 656.983 -2.62152 -3.39963 0
M  V30 6406 C 656.216 -2.53469 -4.69669 0
M  V30 6407 O 656.439 -1.57568 -5.48205 0
M  V30 6408 O 655.373 -3.43763 -4.94075 0
M  V30 6409 H 659.199 -2.45949 -1.78165 0
M  V30 6410 H 656.784 -1.24728 -0.822387 0
M  V30 6411 H 658.666 -1.377 -3.98267 0
M  V30 6412 H 657.341 -0.470546 -3.20262 0
M  V30 6413 H 656.248 -2.70409 -2.58515 0
M  V30 6414 H 657.581 -3.54411 -3.41546 0
M  V30 6415 N 659.233 0.902656 -1.29189 0
M  V30 6416 C 660.18 2.00643 -1.14066 0
M  V30 6417 C 661.15 1.66064 -0.0347756 0
M  V30 6418 O 662.335 1.8973 -0.201752 0
M  V30 6419 C 659.475 3.35214 -0.820104 0
M  V30 6420 C 658.588 3.82594 -2.00614 0
M  V30 6421 C 657.723 5.05727 -1.62522 0
M  V30 6422 C 656.762 5.45469 -2.77724 0
M  V30 6423 N 655.899 6.59789 -2.40048 0
M  V30 6424 H 660.739 2.1291 -2.08502 0
M  V30 6425 H 658.276 1.04271 -1.03759 0
M  V30 6426 H 660.234 4.12643 -0.614949 0
M  V30 6427 H 658.864 3.22682 0.0873452 0
M  V30 6428 H 657.916 3.01226 -2.32308 0
M  V30 6429 H 659.228 4.07999 -2.86946 0
M  V30 6430 H 658.382 5.90732 -1.38277 0
M  V30 6431 H 657.121 4.82155 -0.733333 0
M  V30 6432 H 656.126 4.59 -3.02653 0
M  V30 6433 H 657.351 5.71024 -3.67572 0
M  V30 6434 H 655.297 6.37826 -1.53343 0
M  V30 6435 H 655.214 6.84975 -3.19914 0
M  V30 6436 H 656.482 7.4807 -2.19116 0
M  V30 6437 N 660.711 1.11618 1.11262 0
M  V30 6438 C 662.122 0.881942 1.64556 0
M  V30 6439 C 662.473 -0.585442 1.87262 0
M  V30 6440 O 661.598 -1.44795 1.60821 0
M  V30 6441 C 662.193 1.59446 2.98935 0
M  V30 6442 C 660.752 1.40661 3.4913 0
M  V30 6443 C 659.899 1.63593 2.23903 0
M  V30 6444 H 662.85 1.27217 0.94877 0
M  V30 6445 H 662.871 1.04054 3.65996 0
M  V30 6446 H 662.383 2.66241 2.82378 0
M  V30 6447 H 660.484 0.360835 3.70849 0
M  V30 6448 H 660.597 2.15693 4.27801 0
M  V30 6449 H 658.961 1.05944 2.3162 0
M  V30 6450 H 659.744 2.71666 2.09886 0
M  V30 6451 N 662.189 -1.289 0.906776 0
M  V30 6452 C 663.119 -2.29932 0.406659 0
M  V30 6453 C 664.1 -1.6189 -0.522061 0
M  V30 6454 O 665.285 -1.8935 -0.431283 0
M  V30 6455 C 662.415 -3.45425 -0.360366 0
M  V30 6456 C 661.369 -4.25316 0.478574 0
M  V30 6457 C 660.695 -5.33076 -0.416373 0
M  V30 6458 C 661.995 -4.92739 1.7322 0
M  V30 6459 H 663.689 -2.72013 1.25097 0
M  V30 6460 H 661.235 -1.30768 0.602977 0
M  V30 6461 H 663.188 -4.15186 -0.721029 0
M  V30 6462 H 661.912 -3.02206 -1.23852 0
M  V30 6463 H 660.571 -3.57273 0.821662 0
M  V30 6464 H 660.219 -4.86101 -1.29287 0
M  V30 6465 H 659.919 -5.8743 0.141309 0
M  V30 6466 H 661.443 -6.05686 -0.773072 0
M  V30 6467 H 662.857 -5.54898 1.44086 0
M  V30 6468 H 661.254 -5.57057 2.23175 0
M  V30 6469 H 662.324 -4.17625 2.46408 0
M  V30 6470 N 663.667 -0.670007 -1.42649 0
M  V30 6471 C 665.078 -0.268118 -1.84765 0
M  V30 6472 C 665.429 1.18877 -1.56086 0
M  V30 6473 O 664.554 1.90947 -1.01825 0
M  V30 6474 C 665.149 -0.47984 -3.35385 0
M  V30 6475 C 663.708 -0.132116 -3.76168 0
M  V30 6476 C 662.855 -0.774611 -2.66261 0
M  V30 6477 H 665.806 -0.872509 -1.32563 0
M  V30 6478 H 665.827 0.269522 -3.79544 0
M  V30 6479 H 665.339 -1.54026 -3.56227 0
M  V30 6480 H 663.44 0.92505 -3.60934 0
M  V30 6481 H 663.553 -0.569294 -4.75706 0
M  V30 6482 H 661.917 -0.206353 -2.53863 0
M  V30 6483 H 662.7 -1.83839 -2.89928 0
M  V30 6484 N 665.145 1.52092 -0.413018 0
M  V30 6485 C 666.075 2.30021 0.401567 0
M  V30 6486 C 667.056 1.34395 1.04269 0
M  V30 6487 O 668.241 1.63304 1.05097 0
M  V30 6488 C 665.371 3.12447 1.51638 0
M  V30 6489 C 664.325 4.16153 1.00005 0
M  V30 6490 C 663.651 4.86948 2.20875 0
M  V30 6491 C 664.951 5.22275 0.0513757 0
M  V30 6492 H 666.645 2.98365 -0.248704 0
M  V30 6493 H 664.191 1.4349 -0.121052 0
M  V30 6494 H 666.144 3.65733 2.09326 0
M  V30 6495 H 664.868 2.41879 2.19458 0
M  V30 6496 H 663.527 3.63882 0.445549 0
M  V30 6497 H 663.175 4.12905 2.8726 0
M  V30 6498 H 662.875 5.57057 1.86978 0
M  V30 6499 H 664.399 5.43048 2.79162 0
M  V30 6500 H 665.813 5.70778 0.537176 0
M  V30 6501 H 664.21 5.9977 -0.198977 0
M  V30 6502 H 665.28 4.76611 -0.892736 0
M  V30 6503 N 666.623 0.143563 1.56945 0
M  V30 6504 C 667.871 -0.507402 1.95627 0
M  V30 6505 C 668.192 -1.65626 1.02922 0
M  V30 6506 O 667.462 -1.95693 0.0901136 0
M  V30 6507 H 666.042 -0.190436 0.722318 0
M  V30 6508 H 668.704 0.218257 1.93674 0
M  V30 6509 H 667.8 -0.885816 2.99265 0
M  V30 6510 N 668.101 -1.57061 -0.130224 0
M  V30 6511 C 669.347 -1.8453 -0.841216 0
M  V30 6512 C 669.68 -0.727666 -1.80052 0
M  V30 6513 O 668.955 0.267419 -1.92653 0
M  V30 6514 C 669.238 -3.22553 -1.60099 0
M  V30 6515 C 669.091 -4.44901 -0.662048 0
M  V30 6516 C 670.41 -3.58003 -2.55973 0
M  V30 6517 H 667.529 -0.671215 -0.304366 0
M  V30 6518 H 670.171 -1.89705 -0.105821 0
M  V30 6519 H 668.321 -3.18272 -2.22789 0
M  V30 6520 H 669.993 -4.61278 -0.0448559 0
M  V30 6521 H 668.236 -4.33791 0.0272253 0
M  V30 6522 H 668.907 -5.3812 -1.23006 0
M  V30 6523 H 671.383 -3.63002 -2.03393 0
M  V30 6524 H 670.259 -4.55576 -3.06172 0
M  V30 6525 H 670.52 -2.84833 -3.38116 0
M  V30 6526 N 669.579 0.400081 -1.52437 0
M  V30 6527 C 670.99 0.97851 -1.59003 0
M  V30 6528 C 671.341 1.91293 -0.436068 0
M  V30 6529 O 670.466 2.1183 0.442365 0
M  V30 6530 C 671.061 1.78145 -2.88184 0
M  V30 6531 C 669.62 2.30976 -2.97199 0
M  V30 6532 C 668.767 1.11212 -2.54022 0
M  V30 6533 H 671.718 0.180002 -1.57676 0
M  V30 6534 H 671.739 2.63968 -2.74046 0
M  V30 6535 H 671.251 1.1011 -3.72152 0
M  V30 6536 H 669.352 3.02355 -2.17744 0
M  V30 6537 H 669.465 2.61221 -4.01622 0
M  V30 6538 H 667.829 1.46882 -2.08081 0
M  V30 6539 H 668.612 0.447307 -3.40373 0
M  V30 6540 N 671.057 1.43213 0.657864 0
M  V30 6541 C 672.334 1.35063 1.41483 0
M  V30 6542 C 672.714 -0.0038314 2.111 0
M  V30 6543 O 672.062 -1.02018 2.04462 0
M  V30 6544 C 672.272 2.53061 2.40335 0
M  V30 6545 C 673.62 2.9594 3.04474 0
M  V30 6546 O 674.644 2.53074 2.50663 0
M  V30 6547 O 673.503 3.70184 4.02027 0
M  V30 6548 H 670.597 0.533517 0.631893 0
M  V30 6549 H 673.143 1.55253 0.685162 0
M  V30 6550 H 671.915 3.43283 1.87809 0
M  V30 6551 H 671.538 2.34945 3.20759 0
M  V30 6552 N 672.536 -0.895792 1.29666 0
M  V30 6553 C 673.499 -1.98189 1.15124 0
M  V30 6554 C 674.499 -1.60572 0.0855717 0
M  V30 6555 O 675.689 -1.70991 0.332826 0
M  V30 6556 C 672.821 -3.32289 0.761372 0
M  V30 6557 H 674.014 -2.12518 2.11603 0
M  V30 6558 H 671.567 -1.0808 1.12908 0
M  V30 6559 H 672.302 -3.23662 -0.203393 0
M  V30 6560 H 672.087 -3.60958 1.53139 0
M  V30 6561 H 673.577 -4.1198 0.682792 0
M  V30 6562 N 674.014 -1.12206 -1.10668 0
M  V30 6563 C 675.262 -0.874144 -1.82217 0
M  V30 6564 C 675.583 0.601736 -1.85484 0
M  V30 6565 O 674.853 1.43725 -1.33116 0
M  V30 6566 H 673.433 -0.320404 -0.674797 0
M  V30 6567 H 676.095 -1.41606 -1.33917 0
M  V30 6568 H 675.191 -1.25349 -2.85822 0
M  V30 6569 N 675.492 1.28418 -0.913599 0
M  V30 6570 C 676.425 2.25557 -0.346328 0
M  V30 6571 C 677.403 1.53038 0.549366 0
M  V30 6572 O 678.587 1.81937 0.493055 0
M  V30 6573 C 675.714 3.34915 0.504961 0
M  V30 6574 C 674.76 4.25257 -0.325334 0
M  V30 6575 S 675.593 5.06718 -1.73198 0
M  V30 6576 C 676.749 6.19569 -0.887988 0
M  V30 6577 H 676.982 2.73325 -1.16965 0
M  V30 6578 H 674.515 1.36855 -0.714841 0
M  V30 6579 H 676.473 3.98376 0.990301 0
M  V30 6580 H 675.134 2.85814 1.30267 0
M  V30 6581 H 674.327 5.02947 0.325589 0
M  V30 6582 H 673.929 3.66519 -0.744321 0
M  V30 6583 H 676.221 6.77398 -0.117568 0
M  V30 6584 H 677.164 6.88908 -1.63742 0
M  V30 6585 H 677.572 5.62812 -0.436228 0
M  V30 6586 N 676.97 0.677563 1.42291 0
M  V30 6587 C 677.917 0.000947061 2.308 0
M  V30 6588 C 678.887 -0.789889 1.46116 0
M  V30 6589 O 680.072 -0.761578 1.74942 0
M  V30 6590 C 677.212 -0.942387 3.31984 0
M  V30 6591 C 676.325 -0.14508 4.31756 0
M  V30 6592 C 675.46 -1.08442 5.20013 0
M  V30 6593 C 674.499 -0.278958 6.11464 0
M  V30 6594 N 673.636 -1.17115 6.92263 0
M  V30 6595 H 678.476 0.761521 2.88106 0
M  V30 6596 H 676.013 0.38727 1.41911 0
M  V30 6597 H 677.971 -1.50317 3.89179 0
M  V30 6598 H 676.601 -1.66956 2.76271 0
M  V30 6599 H 675.653 0.532368 3.76656 0
M  V30 6600 H 676.965 0.48015 4.96484 0
M  V30 6601 H 676.119 -1.71504 5.81955 0
M  V30 6602 H 674.858 -1.74353 4.55469 0
M  V30 6603 H 673.863 0.364856 5.48588 0
M  V30 6604 H 675.088 0.376099 6.78058 0
M  V30 6605 H 673.034 -1.81661 6.30345 0
M  V30 6606 H 672.951 -0.601063 7.53607 0
M  V30 6607 H 674.219 -1.78915 7.58689 0
M  V30 6608 N 678.448 -1.51871 0.421078 0
M  V30 6609 C 679.859 -1.86644 -0.0457991 0
M  V30 6610 C 680.21 -1.33919 -1.43388 0
M  V30 6611 O 679.335 -0.683316 -2.05328 0
M  V30 6612 C 679.93 -3.38681 -0.0898844 0
M  V30 6613 C 678.489 -3.73049 -0.501127 0
M  V30 6614 C 677.636 -2.75485 0.316723 0
M  V30 6615 H 680.587 -1.45327 0.637635 0
M  V30 6616 H 680.608 -3.69636 -0.902734 0
M  V30 6617 H 680.12 -3.77025 0.920513 0
M  V30 6618 H 678.221 -3.40288 -1.51773 0
M  V30 6619 H 678.334 -4.78512 -0.237217 0
M  V30 6620 H 676.698 -2.53725 -0.222663 0
M  V30 6621 H 677.481 -3.16671 1.32569 0
M  V30 6622 N 679.926 -0.151884 -1.56866 0
M  V30 6623 C 681.151 0.508044 -2.01081 0
M  V30 6624 C 681.576 1.57306 -1.03134 0
M  V30 6625 O 680.934 1.81298 -0.0078309 0
M  V30 6626 C 680.982 1.08106 -3.44014 0
M  V30 6627 O 680.086 2.19577 -3.49084 0
M  V30 6628 H 679.427 0.123757 -0.652365 0
M  V30 6629 H 681.957 -0.250055 -2.03066 0
M  V30 6630 H 681.967 1.40851 -3.82916 0
M  V30 6631 H 680.642 0.301168 -4.14808 0
M  V30 6632 H 679.219 1.88023 -3.22027 0
M  V30 6633 O 681.443 1.61494 -0.0134355 0
M  V30 6634 H 682.134 1.84128 0.601368 0
M  V30 END ATOM
M  V30 BEGIN BOND
M  V30 END BOND
M  V30 END CTAB
M  END
$$$$
