drugbank_target|P20393 Nuclear receptor subfamily 1 group D member 1 (DB14013; DB14014)
 OpenBabel12092121123D

  0  0  0     0  0            999 V3000
M  V30 BEGIN CTAB
M  V30 COUNTS 9253 9367 0 0 0
M  V30 BEGIN ATOM
M  V30 1 H -0.908 1.98254 -0.117106 0
M  V30 2 N 0 1.576 0 0
M  V30 3 C 0.933 2.03868 1.02534 0
M  V30 4 C 1.911 0.928543 1.3348 0
M  V30 5 O 3.095 1.19667 1.45644 0
M  V30 6 C 0.222 2.43627 2.35294 0
M  V30 7 C -0.732 3.65373 2.2001 0
M  V30 8 S 0.101 5.13292 1.52614 0
M  V30 9 C 1.257 5.56322 2.86805 0
M  V30 10 H 1.49 2.90518 0.631377 0
M  V30 11 H -0.977 1.52953 0.210867 0
M  V30 12 H 0.981 2.67203 3.11629 0
M  V30 13 H -0.358 1.57376 2.7183 0
M  V30 14 H -1.165 3.90944 3.18086 0
M  V30 15 H -1.563 3.418 1.51819 0
M  V30 16 H 0.729 5.58782 3.83104 0
M  V30 17 H 1.672 6.56266 2.65933 0
M  V30 18 H 2.08 4.83886 2.90714 0
M  V30 19 N 1.4781 -0.272755 1.55222 0
M  V30 20 C 2.7061 -1.02255 1.79865 0
M  V30 21 C 3.1211 -1.79924 0.572088 0
M  V30 22 O 2.4781 -1.76638 -0.458842 0
M  V30 23 C 2.5291 -1.98094 3.02392 0
M  V30 24 O 2.2501 -1.23572 4.20311 0
M  V30 25 C 3.7511 -2.84884 3.39641 0
M  V30 26 H 0.9711 -0.302057 0.599168 0
M  V30 27 H 3.5151 -0.303465 2.02236 0
M  V30 28 H 1.6701 -2.65465 2.82147 0
M  V30 29 H 2.0841 -1.88172 4.89583 0
M  V30 30 H 3.5581 -3.47927 4.28545 0
M  V30 31 H 4.0351 -3.54665 2.59055 0
M  V30 32 H 4.6411 -2.23003 3.62146 0
M  V30 33 N 2.9562 -1.48159 -0.537278 0
M  V30 34 C 4.1842 -1.59454 -1.31841 0
M  V30 35 C 4.5992 -0.252065 -1.8711 0
M  V30 36 O 3.9562 0.757621 -1.66031 0
M  V30 37 C 4.0072 -2.63546 -2.47439 0
M  V30 38 O 3.7282 -3.92583 -1.94449 0
M  V30 39 C 5.2292 -2.85212 -3.39366 0
M  V30 40 H 2.4492 -0.53785 -0.401196 0
M  V30 41 H 4.9932 -1.93932 -0.648891 0
M  V30 42 H 3.1482 -2.31946 -3.1029 0
M  V30 43 H 3.5622 -4.49629 -2.70063 0
M  V30 44 H 5.0362 -3.61863 -4.16844 0
M  V30 45 H 5.5132 -1.93765 -3.94147 0
M  V30 46 H 6.1192 -3.18086 -2.82314 0
M  V30 47 N 4.4343 0.785586 -1.36625 0
M  V30 48 C 5.3643 1.91259 -1.33949 0
M  V30 49 C 6.3453 1.68795 -0.210325 0
M  V30 50 O 7.5303 1.89854 -0.408561 0
M  V30 51 C 4.6603 3.28339 -1.13186 0
M  V30 52 C 3.6143 3.65335 -2.22967 0
M  V30 53 C 2.9403 5.00806 -1.87342 0
M  V30 54 C 4.2403 3.7352 -3.65075 0
M  V30 55 H 5.9343 1.93755 -2.28253 0
M  V30 56 H 3.4803 0.930788 -1.09874 0
M  V30 57 H 5.4333 4.06804 -1.09948 0
M  V30 58 H 4.1573 3.2624 -0.153332 0
M  V30 59 H 2.8163 2.89169 -2.25337 0
M  V30 60 H 2.4643 4.95233 -0.880545 0
M  V30 61 H 2.1643 5.26529 -2.60846 0
M  V30 62 H 3.6883 5.81687 -1.85667 0
M  V30 63 H 5.1023 4.42168 -3.64911 0
M  V30 64 H 3.4993 4.10731 -4.37516 0
M  V30 65 H 4.5693 2.74527 -3.99703 0
M  V30 66 N 5.9124 1.20967 1.01018 0
M  V30 67 C 7.1894 0.93264 1.71934 0
M  V30 68 C 7.5694 -0.55692 2.03621 0
M  V30 69 O 6.9174 -1.52035 1.7058 0
M  V30 70 C 7.1274 1.81233 2.98254 0
M  V30 71 C 8.4754 2.05804 3.71389 0
M  V30 72 O 9.4994 1.78539 3.08225 0
M  V30 73 O 8.3584 2.51888 4.84989 0
M  V30 74 H 5.4524 0.349272 0.749625 0
M  V30 75 H 7.9984 1.31871 1.06808 0
M  V30 76 H 6.7704 2.82067 2.71208 0
M  V30 77 H 6.3934 1.42674 3.7112 0
M  V30 78 N 7.3905 -1.2043 1.01659 0
M  V30 79 C 8.6155 -1.94318 0.724942 0
M  V30 80 C 9.0405 -1.74266 -0.708034 0
M  V30 81 O 8.3985 -1.03694 -1.48719 0
M  V30 82 C 8.4465 -3.44486 1.06591 0
M  V30 83 O 7.5505 -4.12017 0.177599 0
M  V30 84 H 6.8915 -0.60708 0.26898 0
M  V30 85 H 9.4215 -1.52861 1.35995 0
M  V30 86 H 9.4315 -3.95106 1.01762 0
M  V30 87 H 8.1065 -3.58404 2.10997 0
M  V30 88 H 6.6835 -3.71821 0.283421 0
M  V30 89 N 8.8686 -0.792821 -1.36206 0
M  V30 90 C 9.8166 -0.181555 -2.3189 0
M  V30 91 C 10.8106 0.661025 -1.55971 0
M  V30 92 O 12.0166 0.555728 -1.71206 0
M  V30 93 H 8.3916 -0.0399382 -0.750939 0
M  V30 94 H 10.3626 -1.00394 -2.81005 0
M  V30 95 C 9.1116 0.666444 -3.41253 0
M  V30 96 H 8.4346 0.0274489 -3.99791 0
M  V30 97 H 9.8746 1.06076 -4.10517 0
M  V30 98 C 8.3336 1.82614 -2.83114 0
M  V30 99 O 8.8636 2.9229 -2.75553 0
M  V30 100 N 7.0696 1.63333 -2.40356 0
M  V30 101 H 6.6166 0.741217 -2.46706 0
M  V30 102 H 6.5746 2.41087 -2.01803 0
M  V30 103 N 10.3467 1.47872 -0.545128 0
M  V30 104 C 11.2947 2.31533 0.222512 0
M  V30 105 C 12.2887 1.42177 0.920985 0
M  V30 106 O 13.4947 1.59005 0.843645 0
M  V30 107 H 9.8697 0.746519 0.0906278 0
M  V30 108 H 11.8407 2.94139 -0.50246 0
M  V30 109 C 10.5897 3.2457 1.24699 0
M  V30 110 H 9.9127 3.93283 0.718944 0
M  V30 111 H 11.3527 3.85963 1.75523 0
M  V30 112 C 9.8117 2.47237 2.28856 0
M  V30 113 O 10.3417 2.20808 3.35569 0
M  V30 114 N 8.5477 2.08461 2.02466 0
M  V30 115 H 8.0947 2.30155 1.157 0
M  V30 116 H 8.0527 1.57033 2.72375 0
M  V30 117 N 11.8248 0.280983 1.55075 0
M  V30 118 C 12.7728 -0.619864 2.24188 0
M  V30 119 C 13.7668 -1.15315 1.24092 0
M  V30 120 O 14.9728 -1.1061 1.42005 0
M  V30 121 H 11.3478 -0.218459 0.719569 0
M  V30 122 H 13.3188 -0.0141831 2.98397 0
M  V30 123 C 12.0678 -1.7899 2.98091 0
M  V30 124 H 11.3908 -1.38874 3.74905 0
M  V30 125 H 12.8308 -2.39672 3.49762 0
M  V30 126 C 11.2898 -2.68192 2.03899 0
M  V30 127 O 11.8198 -3.6872 1.594 0
M  V30 128 N 10.0258 -2.35488 1.70275 0
M  V30 129 H 9.5728 -1.53787 2.06658 0
M  V30 130 H 9.5308 -2.95442 1.07524 0
M  V30 131 N 13.3029 -1.57598 0.00835791 0
M  V30 132 C 14.5309 -1.95214 -0.68549 0
M  V30 133 C 14.9459 -0.883706 -1.66841 0
M  V30 134 O 14.3029 0.136565 -1.81988 0
M  V30 135 C 14.3539 -3.32865 -1.41007 0
M  V30 136 O 14.0749 -4.35609 -0.466552 0
M  V30 137 C 15.5759 -3.84991 -2.19765 0
M  V30 138 H 12.7959 -0.643422 -0.190392 0
M  V30 139 H 15.3399 -2.04406 0.0619607 0
M  V30 140 H 13.4949 -3.24956 -2.10908 0
M  V30 141 H 13.9089 -5.15288 -0.978699 0
M  V30 142 H 15.3829 -4.8371 -2.65948 0
M  V30 143 H 15.8599 -3.18137 -3.02796 0
M  V30 144 H 16.4659 -3.96103 -1.54864 0
M  V30 145 N 14.781 0.264519 -1.55364 0
M  V30 146 C 16.029 0.993021 -1.76021 0
M  V30 147 C 16.35 1.86511 -0.569099 0
M  V30 148 O 15.62 1.91438 0.415735 0
M  V30 149 H 14.2 0.369639 -0.649135 0
M  V30 150 H 16.862 0.286707 -1.9278 0
M  V30 151 H 15.958 1.62502 -2.66457 0
M  V30 152 N 16.2591 1.48442 0.529413 0
M  V30 153 C 17.5071 1.56179 1.28267 0
M  V30 154 C 17.8281 0.237721 1.93546 0
M  V30 155 O 17.0981 -0.740779 1.81354 0
M  V30 156 H 15.6781 0.575367 0.476405 0
M  V30 157 H 18.3401 1.84909 0.61602 0
M  V30 158 H 17.4361 2.34312 2.06165 0
M  V30 159 N 17.7372 -0.778329 1.37039 0
M  V30 160 C 18.9832 -1.53892 1.32079 0
M  V30 161 C 19.3162 -1.9396 -0.0965386 0
M  V30 162 O 18.5912 -1.63568 -1.05242 0
M  V30 163 C 18.8742 -2.80847 2.25382 0
M  V30 164 C 18.7272 -2.47076 3.75864 0
M  V30 165 C 20.0462 -3.82741 2.1725 0
M  V30 166 H 17.1652 -0.558303 0.48111 0
M  V30 167 H 19.8072 -0.893397 1.67685 0
M  V30 168 H 17.9572 -3.35931 1.95148 0
M  V30 169 H 19.6292 -1.97957 4.16666 0
M  V30 170 H 17.8722 -1.79863 3.94755 0
M  V30 171 H 18.5432 -3.37798 4.36574 0
M  V30 172 H 21.0192 -3.37133 2.43887 0
M  V30 173 H 19.8952 -4.69303 2.84686 0
M  V30 174 H 20.1562 -4.2652 1.16331 0
M  V30 175 N 19.2153 -1.21501 -1.00376 0
M  V30 176 C 20.4643 -1.02718 -1.73586 0
M  V30 177 C 20.7773 0.439589 -1.90596 0
M  V30 178 O 21.9833 0.746848 -2.61026 0
M  V30 179 C 20.4393 -1.78929 -3.1227 0
M  V30 180 C 20.0473 -3.29783 -3.03228 0
M  V30 181 C 21.7913 -1.68557 -3.89601 0
M  V30 182 C 19.6983 -3.98479 -4.36999 0
M  V30 183 H 18.6283 -0.380733 -0.650814 0
M  V30 184 H 21.2793 -1.45248 -1.1214 0
M  V30 185 H 19.6613 -1.29192 -3.74333 0
M  V30 186 H 20.8353 -3.86832 -2.50395 0
M  V30 187 H 19.1503 -3.40711 -2.39385 0
M  V30 188 H 21.7473 -2.17211 -4.88593 0
M  V30 189 H 22.0903 -0.644021 -4.11288 0
M  V30 190 H 22.6233 -2.15778 -3.34193 0
M  V30 191 H 19.3623 -5.02841 -4.20513 0
M  V30 192 H 18.8823 -3.46219 -4.89788 0
M  V30 193 H 20.5613 -4.03462 -5.05794 0
M  V30 194 N 20.6934 1.19889 -1.02296 0
M  V30 195 C 21.9214 1.9339 -0.735399 0
M  V30 196 C 22.3364 1.75148 0.704887 0
M  V30 197 O 21.6934 1.06954 1.47875 0
M  V30 198 C 21.7444 3.45313 -1.06962 0
M  V30 199 O 21.4654 3.62964 -2.45334 0
M  V30 200 C 22.9664 4.35948 -0.804021 0
M  V30 201 H 20.1864 0.61448 -0.269546 0
M  V30 202 H 22.7304 1.522 -1.36585 0
M  V30 203 H 20.8854 3.84359 -0.484455 0
M  V30 204 H 21.2994 4.56886 -2.57595 0
M  V30 205 H 22.7734 5.41174 -1.0879 0
M  V30 206 H 23.2504 4.3842 0.261691 0
M  V30 207 H 23.8564 4.02574 -1.37164 0
M  V30 208 N 22.1715 0.800033 1.35784 0
M  V30 209 C 23.4015 0.389041 2.02904 0
M  V30 210 C 23.8095 -1.0027 1.60445 0
M  V30 211 O 23.1525 -1.65633 0.794453 0
M  V30 212 C 23.2145 0.385495 3.57427 0
M  V30 213 C 22.8785 1.72662 4.23127 0
M  V30 214 C 23.8755 2.68385 4.4527 0
M  V30 215 C 21.5605 2.00883 4.60381 0
M  V30 216 C 23.5545 3.90517 5.03761 0
M  V30 217 C 21.2415 3.2328 5.18588 0
M  V30 218 C 22.2395 4.17915 5.40218 0
M  V30 219 O 21.9275 5.38153 5.97199 0
M  V30 220 H 21.6595 0.157032 0.657508 0
M  V30 221 H 24.2135 1.08311 1.74522 0
M  V30 222 H 22.4435 -0.365128 3.84972 0
M  V30 223 H 24.1325 -0.00228296 4.059 0
M  V30 224 H 24.8985 2.47872 4.16874 0
M  V30 225 H 20.7775 1.28037 4.42863 0
M  V30 226 H 24.3215 4.64395 5.2056 0
M  V30 227 H 20.2185 3.43667 5.4641 0
M  V30 228 H 20.9865 5.3936 6.15656 0
M  V30 229 N 23.6496 -1.47581 0.552962 0
M  V30 230 C 24.8986 -2.01684 0.0251995 0
M  V30 231 C 25.2116 -1.43317 -1.33115 0
M  V30 232 O 26.4176 -1.89057 -1.94858 0
M  V30 233 C 24.8736 -3.599 -0.00542052 0
M  V30 234 C 24.4816 -4.27257 1.34742 0
M  V30 235 C 26.2256 -4.21768 -0.4808 0
M  V30 236 C 24.1326 -5.77467 1.27614 0
M  V30 237 H 23.0626 -0.753979 0.00565033 0
M  V30 238 H 25.7136 -1.69616 0.70018 0
M  V30 239 H 24.0956 -3.88911 -0.745961 0
M  V30 240 H 25.2696 -4.09893 2.10534 0
M  V30 241 H 23.5846 -3.77358 1.76039 0
M  V30 242 H 26.1816 -5.31838 -0.55246 0
M  V30 243 H 26.5246 -3.88651 -1.49184 0
M  V30 244 H 27.0576 -3.97273 0.204752 0
M  V30 245 H 23.7966 -6.15196 2.26304 0
M  V30 246 H 23.3166 -5.9718 0.55996 0
M  V30 247 H 24.9956 -6.3959 0.976421 0
M  V30 248 N 25.1277 -0.289203 -1.54924 0
M  V30 249 C 26.3757 0.322879 -1.99504 0
M  V30 250 C 26.6967 1.55313 -1.1791 0
M  V30 251 O 25.9667 1.94001 -0.272097 0
M  V30 252 H 24.5467 0.122291 -0.736922 0
M  V30 253 H 27.2087 -0.397802 -1.90797 0
M  V30 254 H 26.3047 0.603061 -3.06218 0
M  V30 255 N 26.6058 1.57591 -0.0167156 0
M  V30 256 C 27.8308 1.9598 0.67872 0
M  V30 257 C 28.2558 0.892546 1.65575 0
M  V30 258 O 27.6138 -0.147772 1.80697 0
M  V30 259 C 27.6618 3.33468 1.37227 0
M  V30 260 O 26.7658 3.28954 2.48722 0
M  V30 261 H 26.1068 0.639339 0.17928 0
M  V30 262 H 28.6368 2.04463 -0.0748802 0
M  V30 263 H 28.6468 3.69417 1.7319 0
M  V30 264 H 27.3218 4.10694 0.656007 0
M  V30 265 H 25.8988 3.04705 2.14963 0
M  V30 266 N 28.0839 -0.256276 1.55502 0
M  V30 267 C 29.3089 -1.00766 1.81276 0
M  V30 268 C 29.7339 -1.78524 0.59252 0
M  V30 269 O 29.0919 -1.75413 -0.45827 0
M  V30 270 C 29.1399 -1.92869 3.04687 0
M  V30 271 O 28.2439 -3.019 2.80945 0
M  V30 272 H 27.5849 -0.287224 0.598664 0
M  V30 273 H 30.1149 -0.280109 2.02674 0
M  V30 274 H 30.1249 -2.34511 3.33869 0
M  V30 275 H 28.7999 -1.35689 3.93143 0
M  V30 276 H 27.3769 -2.64454 2.62904 0
M  V30 277 N 29.562 -1.4872 -0.521534 0
M  V30 278 C 30.81 -1.56857 -1.27437 0
M  V30 279 C 31.131 -0.247982 -1.93417 0
M  V30 280 O 30.401 0.731151 -1.81744 0
M  V30 281 H 28.981 -0.577885 -0.473347 0
M  V30 282 H 31.643 -1.85233 -0.606205 0
M  V30 283 H 30.739 -2.35402 -2.0492 0
M  V30 284 N 31.0401 0.771051 -1.3745 0
M  V30 285 C 32.2651 1.56529 -1.36065 0
M  V30 286 C 32.6901 1.88029 0.0515859 0
M  V30 287 O 32.0481 1.49282 1.02882 0
M  V30 288 C 32.0961 2.85187 -2.20683 0
M  V30 289 O 31.2001 3.79593 -1.61193 0
M  V30 290 H 30.5411 0.47411 -0.464883 0
M  V30 291 H 33.0711 0.954269 -1.80983 0
M  V30 292 H 33.0811 3.34283 -2.33921 0
M  V30 293 H 31.7561 2.61588 -3.23334 0
M  V30 294 H 30.3331 3.38239 -1.56999 0
M  V30 295 N 32.5182 1.22032 0.997298 0
M  V30 296 C 33.7432 1.06921 1.77715 0
M  V30 297 C 34.1682 -0.376226 1.84299 0
M  V30 298 O 33.5262 -1.27165 1.29223 0
M  V30 299 C 33.5742 1.67996 3.19076 0
M  V30 300 O 32.6782 0.930653 4.01762 0
M  V30 301 H 32.0192 0.375814 0.547412 0
M  V30 302 H 34.5492 1.61737 1.25309 0
M  V30 303 H 34.5592 1.72538 3.69723 0
M  V30 304 H 33.2342 2.73182 3.13599 0
M  V30 305 H 31.8112 0.960917 3.60307 0
M  V30 306 N 33.9963 -1.19345 1.0293 0
M  V30 307 C 35.4073 -1.70725 0.755633 0
M  V30 308 C 35.7583 -1.82326 -0.724676 0
M  V30 309 O 34.8833 -1.49471 -1.56484 0
M  V30 310 C 35.4783 -3.10084 1.36503 0
M  V30 311 C 34.0373 -3.58723 1.13994 0
M  V30 312 C 33.1843 -2.35577 1.46283 0
M  V30 313 H 36.1353 -1.0418 1.19718 0
M  V30 314 H 36.1563 -3.72787 0.762217 0
M  V30 315 H 35.6683 -3.01609 2.44241 0
M  V30 316 H 33.7693 -3.72512 0.0807901 0
M  V30 317 H 33.8823 -4.42816 1.82894 0
M  V30 318 H 32.2463 -2.38935 0.88217 0
M  V30 319 H 33.0293 -2.29731 2.55105 0
M  V30 320 N 35.4744 -0.807222 -1.35358 0
M  V30 321 C 36.6994 -0.399309 -2.0352 0
M  V30 322 C 37.1244 0.981986 -1.60433 0
M  V30 323 O 36.4824 1.63601 -0.781299 0
M  V30 324 C 36.5304 -0.491552 -3.57234 0
M  V30 325 O 35.6344 0.494754 -4.09421 0
M  V30 326 H 34.9754 -0.166682 -0.642739 0
M  V30 327 H 37.5054 -1.09328 -1.72941 0
M  V30 328 H 37.5154 -0.361588 -4.06395 0
M  V30 329 H 36.1904 -1.49907 -3.87944 0
M  V30 330 H 34.7674 0.324977 -3.71481 0
M  V30 331 N 36.9525 1.47285 -0.560781 0
M  V30 332 C 38.3685 1.58065 -0.22081 0
M  V30 333 C 38.5685 1.55892 1.27671 0
M  V30 334 O 37.6245 1.46422 2.0571 0
M  V30 335 C 38.9375 2.88418 -0.850625 0
M  V30 336 C 40.4855 3.02009 -0.822184 0
M  V30 337 C 40.9605 4.35066 -1.43113 0
M  V30 338 N 42.4515 4.41711 -1.39448 0
M  V30 339 C 43.1865 5.43237 -1.83525 0
M  V30 340 N 42.6825 6.51555 -2.35474 0
M  V30 341 N 44.4755 5.34304 -1.74574 0
M  V30 342 H 36.6265 1.46941 -1.53369 0
M  V30 343 H 38.8895 0.699558 -0.639783 0
M  V30 344 H 38.5955 2.95755 -1.9032 0
M  V30 345 H 38.4695 3.75612 -0.345773 0
M  V30 346 H 40.8565 2.94266 0.221714 0
M  V30 347 H 40.9375 2.16347 -1.36483 0
M  V30 348 H 40.5815 4.43565 -2.47412 0
M  V30 349 H 40.5115 5.19465 -0.863899 0
M  V30 350 H 43.0025 3.64027 -1.01452 0
M  V30 351 H 43.3155 7.25203 -2.67021 0
M  V30 352 H 41.6605 6.52435 -2.39487 0
M  V30 353 H 44.8515 4.48581 -1.33763 0
M  V30 354 H 45.0245 6.13288 -2.09242 0
M  V30 355 N 38.4306 0.297415 1.54768 0
M  V30 356 C 39.6586 -0.315623 2.04478 0
M  V30 357 C 40.0736 -1.47792 1.17486 0
M  V30 358 O 39.4306 -1.81404 0.19971 0
M  V30 359 C 39.4816 -0.7753 3.53088 0
M  V30 360 O 39.2026 0.340732 4.36773 0
M  V30 361 C 40.7036 -1.45386 4.18781 0
M  V30 362 H 37.9236 -0.0690887 0.667434 0
M  V30 363 H 40.4676 0.436003 1.99798 0
M  V30 364 H 38.6226 -1.47696 3.58141 0
M  V30 365 H 39.0366 -0.0165035 5.24497 0
M  V30 366 H 40.5106 -1.72669 5.24299 0
M  V30 367 H 40.9876 -2.39275 3.68299 0
M  V30 368 H 41.5936 -0.795475 4.17795 0
M  V30 369 N 39.9087 -1.5758 0.0250728 0
M  V30 370 C 41.1337 -1.96337 -0.668317 0
M  V30 371 C 41.5587 -0.901314 -1.651 0
M  V30 372 O 40.9167 0.138187 -1.80773 0
M  V30 373 C 40.9647 -3.34191 -1.35457 0
M  V30 374 O 40.0687 -3.30269 -2.46974 0
M  V30 375 H 39.4097 -0.640281 -0.175887 0
M  V30 376 H 41.9397 -2.0442 0.0857224 0
M  V30 377 H 41.9497 -3.70331 -1.71228 0
M  V30 378 H 40.6247 -4.11036 -0.634218 0
M  V30 379 H 39.2017 -3.05841 -2.13344 0
M  V30 380 N 41.3868 0.248026 -1.55636 0
M  V30 381 C 42.7978 0.817177 -1.67866 0
M  V30 382 C 43.1488 1.86069 -0.622322 0
M  V30 383 O 42.2738 2.15157 0.231618 0
M  V30 384 C 42.8688 1.489 -3.04326 0
M  V30 385 C 41.4278 2.00587 -3.185 0
M  V30 386 C 40.5748 0.856573 -2.63739 0
M  V30 387 H 43.5258 0.0238579 -1.58682 0
M  V30 388 H 43.5468 2.35698 -2.98708 0
M  V30 389 H 43.0588 0.729279 -3.81186 0
M  V30 390 H 41.1598 2.79443 -2.4646 0
M  V30 391 H 41.2728 2.20402 -4.25393 0
M  V30 392 H 39.6368 1.25678 -2.21534 0
M  V30 393 H 40.4198 0.109953 -3.43124 0
M  V30 394 N 42.8649 1.48995 0.513639 0
M  V30 395 C 43.7749 1.67443 1.64317 0
M  V30 396 C 44.7909 0.556947 1.64846 0
M  V30 397 O 45.9669 0.830082 1.83498 0
M  V30 398 C 43.0319 1.72515 3.00732 0
M  V30 399 C 42.0929 2.96009 3.1093 0
M  V30 400 C 41.3259 3.00829 4.40837 0
M  V30 401 O 41.5489 2.13594 5.28898 0
M  V30 402 O 40.4829 3.93168 4.55744 0
M  V30 403 H 44.3089 2.63106 1.51687 0
M  V30 404 H 41.8939 1.32588 0.688543 0
M  V30 405 H 43.7759 1.78277 3.81831 0
M  V30 406 H 42.4509 0.800278 3.13651 0
M  V30 407 H 41.3579 2.9577 2.29065 0
M  V30 408 H 42.6909 3.87934 3.02933 0
M  V30 409 N 44.343 -0.763751 1.37857 0
M  V30 410 C 45.568 -1.55805 1.36893 0
M  V30 411 C 45.993 -1.88054 -0.0416135 0
M  V30 412 O 45.351 -1.49825 -1.02089 0
M  V30 413 C 45.399 -2.84012 2.22192 0
M  V30 414 O 44.503 -3.78732 1.63204 0
M  V30 415 H 43.844 -0.471638 0.46739 0
M  V30 416 H 46.374 -0.944657 1.81487 0
M  V30 417 H 46.384 -3.33037 2.35691 0
M  V30 418 H 45.059 -2.59869 3.24716 0
M  V30 419 H 43.636 -3.37402 1.58791 0
M  V30 420 N 45.8211 -1.22559 -0.990812 0
M  V30 421 C 46.7511 -1.0218 -2.09956 0
M  V30 422 C 47.7321 0.0579394 -1.70001 0
M  V30 423 O 48.9171 -0.104684 -1.93918 0
M  V30 424 C 46.0471 -0.601023 -3.4206 0
M  V30 425 C 45.0011 -1.62694 -3.95872 0
M  V30 426 C 44.3271 -1.06193 -5.24049 0
M  V30 427 C 45.6271 -3.01743 -4.2632 0
M  V30 428 H 47.3211 -1.94916 -2.27262 0
M  V30 429 H 44.8671 -0.938566 -1.09211 0
M  V30 430 H 46.8201 -0.445561 -4.19038 0
M  V30 431 H 45.5441 0.362005 -3.24588 0
M  V30 432 H 44.2031 -1.77021 -3.21028 0
M  V30 433 H 43.8511 -0.0901903 -5.02919 0
M  V30 434 H 43.5511 -1.74732 -5.61019 0
M  V30 435 H 45.0751 -0.918092 -6.03658 0
M  V30 436 H 46.4891 -2.90777 -4.94087 0
M  V30 437 H 44.8861 -3.67425 -4.74467 0
M  V30 438 H 45.9561 -3.51518 -3.34011 0
M  V30 439 N 47.2992 1.18797 -1.03562 0
M  V30 440 C 48.5292 1.92319 -0.754773 0
M  V30 441 C 48.9372 1.7612 0.691248 0
M  V30 442 O 48.2802 1.08491 1.48241 0
M  V30 443 C 48.3422 3.44284 -1.03484 0
M  V30 444 C 48.0062 3.84258 -2.47376 0
M  V30 445 C 49.0032 3.88459 -3.45537 0
M  V30 446 C 46.6882 4.15701 -2.81954 0
M  V30 447 C 48.6822 4.23545 -4.76328 0
M  V30 448 C 46.3692 4.50458 -4.12954 0
M  V30 449 C 47.3672 4.54356 -5.09951 0
M  V30 450 O 47.0552 4.88305 -6.38603 0
M  V30 451 H 46.7872 0.617527 -0.275021 0
M  V30 452 H 49.3412 1.51683 -1.38497 0
M  V30 453 H 47.5712 3.85135 -0.347513 0
M  V30 454 H 49.2602 3.99049 -0.7426 0
M  V30 455 H 50.0262 3.6431 -3.20162 0
M  V30 456 H 45.9052 4.11847 -2.0713 0
M  V30 457 H 49.4492 4.26502 -5.52035 0
M  V30 458 H 45.3462 4.74067 -4.38099 0
M  V30 459 H 46.1142 5.06227 -6.43177 0
M  V30 460 N 48.7773 0.814389 1.34928 0
M  V30 461 C 50.0023 0.410097 2.03305 0
M  V30 462 C 50.4273 -0.973464 1.60951 0
M  V30 463 O 49.7853 -1.63185 0.789964 0
M  V30 464 C 49.8333 0.51049 3.56968 0
M  V30 465 O 48.9373 -0.473035 4.09678 0
M  V30 466 H 48.2783 0.170088 0.641846 0
M  V30 467 H 50.8083 1.10244 1.72358 0
M  V30 468 H 50.8183 0.383135 4.06197 0
M  V30 469 H 49.4933 1.51963 3.87144 0
M  V30 470 H 48.0703 -0.305272 3.71648 0
M  V30 471 N 50.2554 -1.46986 0.568584 0
M  V30 472 C 51.5324 -1.95592 -0.0174074 0
M  V30 473 C 51.9124 -1.51124 -1.47393 0
M  V30 474 O 51.2604 -0.755329 -2.15655 0
M  V30 475 C 51.4704 -3.48719 0.139913 0
M  V30 476 C 52.8184 -4.246 0.000426376 0
M  V30 477 O 53.8424 -3.56135 0.0680316 0
M  V30 478 O 52.7014 -5.46302 -0.146988 0
M  V30 479 H 49.7954 -0.82498 -0.0577599 0
M  V30 480 H 52.3414 -1.57335 0.635909 0
M  V30 481 H 51.1134 -3.73927 1.15301 0
M  V30 482 H 50.7364 -3.93771 -0.550491 0
M  V30 483 N 51.7335 -0.305618 -1.54608 0
M  V30 484 C 52.6815 0.584119 -2.25146 0
M  V30 485 C 53.6755 1.13326 -1.25911 0
M  V30 486 O 54.8815 1.08337 -1.43747 0
M  V30 487 H 51.2565 0.206983 -0.722954 0
M  V30 488 H 53.2275 -0.033291 -2.98381 0
M  V30 489 C 51.9765 1.74225 -3.009 0
M  V30 490 H 51.2995 1.32892 -3.77067 0
M  V30 491 H 52.7395 2.34077 -3.53531 0
M  V30 492 C 51.1985 2.64914 -2.0814 0
M  V30 493 O 51.7285 3.66137 -1.65246 0
M  V30 494 N 49.9345 2.3275 -1.74 0
M  V30 495 H 49.4815 1.50479 -2.09078 0
M  V30 496 H 49.4395 2.93694 -1.12211 0
M  V30 497 N 53.2116 1.57565 -0.0334293 0
M  V30 498 C 54.4366 1.96689 0.657895 0
M  V30 499 C 54.8616 0.910057 1.64619 0
M  V30 500 O 54.2196 -0.128598 1.80843 0
M  V30 501 C 54.2676 3.34905 1.33683 0
M  V30 502 O 53.3716 3.31574 2.45219 0
M  V30 503 H 52.7126 0.641205 0.172489 0
M  V30 504 H 55.2426 2.04372 -0.0965621 0
M  V30 505 H 55.2526 3.71234 1.69262 0
M  V30 506 H 53.9276 4.11366 0.612411 0
M  V30 507 H 52.5046 3.06968 2.11719 0
M  V30 508 N 54.6897 -0.239769 1.55765 0
M  V30 509 C 55.6377 -1.31668 1.91745 0
M  V30 510 C 56.6317 -1.49462 0.797338 0
M  V30 511 O 57.8377 -1.50852 0.982021 0
M  V30 512 H 54.2127 -0.441048 0.609082 0
M  V30 513 H 56.1837 -0.985923 2.81642 0
M  V30 514 C 54.9327 -2.66368 2.2348 0
M  V30 515 H 54.2557 -2.53478 3.09175 0
M  V30 516 H 55.6957 -3.40578 2.52553 0
M  V30 517 C 54.1547 -3.20002 1.05359 0
M  V30 518 O 54.6847 -4.00538 0.305261 0
M  V30 519 N 52.8907 -2.78126 0.842292 0
M  V30 520 H 52.4377 -2.12742 1.45253 0
M  V30 521 H 52.3957 -3.14354 0.053652 0
M  V30 522 N 56.1678 -1.49265 -0.50573 0
M  V30 523 C 57.4158 -1.582 -1.25766 0
M  V30 524 C 57.7368 -0.268482 -1.93143 0
M  V30 525 O 57.0068 0.711833 -1.8251 0
M  V30 526 H 55.5868 -0.582873 -0.467191 0
M  V30 527 H 58.2488 -1.85865 -0.586525 0
M  V30 528 H 57.3448 -2.37563 -2.02412 0
M  V30 529 N 57.6459 0.756429 -1.3826 0
M  V30 530 C 58.8709 1.55077 -1.37717 0
M  V30 531 C 59.2959 1.88073 0.03164 0
M  V30 532 O 58.6539 1.50364 1.01293 0
M  V30 533 C 58.7019 2.8283 -2.23695 0
M  V30 534 O 57.8059 3.77862 -1.6521 0
M  V30 535 H 57.1469 0.469152 -0.469885 0
M  V30 536 H 59.6769 0.935019 -1.81985 0
M  V30 537 H 59.6869 3.31783 -2.37453 0
M  V30 538 H 58.3619 2.58144 -3.2609 0
M  V30 539 H 56.9389 3.36555 -1.60578 0
M  V30 540 N 59.124 1.23083 0.984299 0
M  V30 541 C 60.371 1.06057 1.72505 0
M  V30 542 C 60.699 -0.403105 1.90277 0
M  V30 543 O 59.954 -1.3149 1.44944 0
M  V30 544 C 60.253 1.72673 3.1292 0
M  V30 545 C 59.919 3.22586 3.15038 0
M  V30 546 C 58.581 3.63489 3.15324 0
M  V30 547 C 60.933 4.185 3.10657 0
M  V30 548 C 58.261 4.98772 3.08939 0
M  V30 549 C 60.613 5.53769 3.05814 0
M  V30 550 C 59.277 5.94041 3.04419 0
M  V30 551 H 58.547 0.388091 0.631242 0
M  V30 552 H 61.194 1.52963 1.15215 0
M  V30 553 H 59.499 1.18116 3.73572 0
M  V30 554 H 61.196 1.56982 3.68996 0
M  V30 555 H 57.786 2.90022 3.15571 0
M  V30 556 H 61.97 3.87911 3.09579 0
M  V30 557 H 57.226 5.29193 3.0621 0
M  V30 558 H 61.4 6.27808 3.0138 0
M  V30 559 H 59.027 6.98833 2.99227 0
M  V30 560 N 60.6021 -1.18246 1.0419 0
M  V30 561 C 61.5341 -2.2142 0.592088 0
M  V30 562 C 62.5471 -1.59233 -0.338909 0
M  V30 563 O 63.7361 -1.78002 -0.133231 0
M  V30 564 C 60.8361 -3.38546 -0.154854 0
M  V30 565 C 60.0091 -4.3031 0.784328 0
M  V30 566 C 59.0681 -5.26138 0.0804583 0
M  V30 567 O 58.0941 -5.64738 0.711292 0
M  V30 568 N 59.2961 -5.68261 -1.18574 0
M  V30 569 H 62.0611 -2.60636 1.47949 0
M  V30 570 H 59.6221 -1.33044 0.922544 0
M  V30 571 H 61.6141 -3.99678 -0.635606 0
M  V30 572 H 60.1841 -2.98012 -0.943811 0
M  V30 573 H 59.4041 -3.66764 1.44491 0
M  V30 574 H 60.6921 -4.8852 1.42218 0
M  V30 575 H 60.0901 -5.38957 -1.71876 0
M  V30 576 H 58.6471 -6.31584 -1.61074 0
M  V30 577 N 62.0802 -0.821533 -1.34494 0
M  V30 578 C 63.3052 -0.420873 -2.03085 0
M  V30 579 C 63.7302 0.964915 -1.61465 0
M  V30 580 O 63.0882 1.62763 -0.798607 0
M  V30 581 C 63.1362 -0.529414 -3.56693 0
M  V30 582 O 62.2402 0.451302 -4.09923 0
M  V30 583 H 61.5812 -0.173489 -0.640935 0
M  V30 584 H 64.1112 -1.11157 -1.71771 0
M  V30 585 H 64.1212 -0.404671 -4.05988 0
M  V30 586 H 62.7962 -1.54014 -3.86332 0
M  V30 587 H 61.3732 0.285558 -3.71805 0
M  V30 588 N 63.5583 1.46682 -0.576371 0
M  V30 589 C 64.4883 2.33028 0.148397 0
M  V30 590 C 65.4693 1.44961 0.889956 0
M  V30 591 O 66.6543 1.73789 0.866662 0
M  V30 592 C 63.7843 3.27117 1.1667 0
M  V30 593 C 62.7383 4.24575 0.540386 0
M  V30 594 C 62.0643 5.08126 1.6647 0
M  V30 595 C 63.3643 5.19722 -0.518331 0
M  V30 596 H 65.0583 2.93875 -0.572509 0
M  V30 597 H 62.6043 1.41315 -0.276768 0
M  V30 598 H 64.5573 3.86374 1.68204 0
M  V30 599 H 63.2813 2.64364 1.9178 0
M  V30 600 H 61.9403 3.66571 0.0461769 0
M  V30 601 H 61.5883 4.41762 2.40531 0
M  V30 602 H 61.2883 5.74122 1.25131 0
M  V30 603 H 62.8123 5.70246 2.18293 0
M  V30 604 H 64.2263 5.73232 -0.0883058 0
M  V30 605 H 62.6233 5.94026 -0.851679 0
M  V30 606 H 63.6933 4.64037 -1.40703 0
M  V30 607 N 65.0364 0.313813 1.54444 0
M  V30 608 C 66.2644 -0.293918 2.04802 0
M  V30 609 C 66.6794 -1.46537 1.19047 0
M  V30 610 O 66.0364 -1.81182 0.218939 0
M  V30 611 C 66.0874 -0.737806 3.53891 0
M  V30 612 O 65.8084 0.387038 4.36387 0
M  V30 613 C 67.3094 -1.40936 4.203 0
M  V30 614 H 64.5294 -0.0620057 0.668129 0
M  V30 615 H 67.0734 0.457169 1.99324 0
M  V30 616 H 65.2284 -1.43889 3.59687 0
M  V30 617 H 65.6424 0.0391274 5.24485 0
M  V30 618 H 67.1164 -1.67099 5.26101 0
M  V30 619 H 67.5934 -2.35355 3.70816 0
M  V30 620 H 68.1994 -0.751117 4.18615 0
M  V30 621 N 66.5145 -1.57545 0.0417849 0
M  V30 622 C 67.4465 -2.07904 -0.964799 0
M  V30 623 C 68.4595 -1.00497 -1.28079 0
M  V30 624 O 69.6485 -1.28087 -1.24322 0
M  V30 625 C 66.7485 -2.49928 -2.28887 0
M  V30 626 C 65.9215 -3.80562 -2.15619 0
M  V30 627 C 64.9805 -4.08999 -3.31069 0
M  V30 628 O 64.0065 -4.79061 -3.0739 0
M  V30 629 N 65.2085 -3.6017 -4.55256 0
M  V30 630 H 67.9735 -2.94886 -0.535029 0
M  V30 631 H 65.5345 -1.61252 -0.144681 0
M  V30 632 H 67.5265 -2.66034 -3.04972 0
M  V30 633 H 66.0965 -1.68245 -2.63463 0
M  V30 634 H 65.3165 -3.74129 -1.24183 0
M  V30 635 H 66.6045 -4.66126 -2.03971 0
M  V30 636 H 66.0025 -3.03512 -4.77386 0
M  V30 637 H 64.5595 -3.81532 -5.28466 0
M  V30 638 N 67.9926 0.231505 -1.5589 0
M  V30 639 C 69.2406 0.955461 -1.78088 0
M  V30 640 C 69.5616 1.85262 -0.608533 0
M  V30 641 O 68.8316 1.92277 0.375035 0
M  V30 642 H 67.4116 0.355787 -0.656829 0
M  V30 643 H 70.0736 0.245751 -1.93344 0
M  V30 644 H 69.1696 1.56814 -2.69844 0
M  V30 645 N 69.4707 1.49531 0.497807 0
M  V30 646 C 70.7107 1.60799 1.26187 0
M  V30 647 C 71.0747 0.289627 1.89803 0
M  V30 648 O 72.2757 0.277512 2.67364 0
M  V30 649 C 70.5467 2.73729 2.29798 0
M  V30 650 S 72.1057 3.04968 3.155 0
M  V30 651 H 68.9237 0.567145 0.428798 0
M  V30 652 H 71.5257 1.87204 0.563477 0
M  V30 653 H 70.2297 3.68036 1.81597 0
M  V30 654 H 69.7607 2.49328 3.04301 0
M  V30 655 H 71.7757 2.46735 4.30507 0
M  V30 656 N 70.9488 -0.749086 1.3866 0
M  V30 657 C 72.3598 -1.32664 1.31366 0
M  V30 658 C 72.7108 -1.96179 -0.028484 0
M  V30 659 O 71.8358 -1.9537 -0.93057 0
M  V30 660 C 72.4308 -2.41219 2.37905 0
M  V30 661 C 70.9898 -2.94684 2.34176 0
M  V30 662 C 70.1368 -1.68108 2.20533 0
M  V30 663 H 73.0878 -0.547628 1.48952 0
M  V30 664 H 73.1088 -3.21268 2.0388 0
M  V30 665 H 72.6208 -1.94962 3.35576 0
M  V30 666 H 70.7218 -3.45258 1.401 0
M  V30 667 H 70.8348 -3.48757 3.2849 0
M  V30 668 H 69.1988 -1.91907 1.67463 0
M  V30 669 H 69.9818 -1.23923 3.20153 0
M  V30 670 N 72.4269 -1.23603 -0.977757 0
M  V30 671 C 73.6549 -1.09646 -1.75458 0
M  V30 672 C 74.0699 0.351859 -1.85492 0
M  V30 673 O 73.4269 1.24327 -1.336 0
M  V30 674 C 73.4779 -1.71895 -3.18016 0
M  V30 675 O 73.1989 -3.11063 -3.08498 0
M  V30 676 C 74.6999 -1.63415 -4.12081 0
M  V30 677 H 71.9199 -0.38359 -0.550545 0
M  V30 678 H 74.4639 -1.63507 -1.22824 0
M  V30 679 H 72.6189 -1.22061 -3.67668 0
M  V30 680 H 73.0329 -3.41305 -3.9826 0
M  V30 681 H 74.5069 -2.11669 -5.09804 0
M  V30 682 H 74.9839 -0.593462 -4.35172 0
M  V30 683 H 75.5899 -2.12628 -3.68334 0
M  V30 684 N 73.905 1.17692 -1.04816 0
M  V30 685 C 75.135 1.91508 -0.775128 0
M  V30 686 C 75.543 1.76844 0.67253 0
M  V30 687 O 74.886 1.10057 1.47082 0
M  V30 688 C 74.948 3.43167 -1.0713 0
M  V30 689 C 74.612 3.81612 -2.51438 0
M  V30 690 C 75.609 3.84772 -3.49638 0
M  V30 691 C 73.294 4.12687 -2.86348 0
M  V30 692 C 75.288 4.18469 -4.80794 0
M  V30 693 C 72.975 4.46053 -4.17708 0
M  V30 694 C 73.973 4.48921 -5.14741 0
M  V30 695 O 73.661 4.81504 -6.43746 0
M  V30 696 H 73.393 0.614575 -0.281555 0
M  V30 697 H 75.947 1.50206 -1.40098 0
M  V30 698 H 74.177 3.84745 -0.388342 0
M  V30 699 H 75.866 3.98239 -0.784883 0
M  V30 700 H 76.632 3.60893 -3.24008 0
M  V30 701 H 72.511 4.09627 -2.11486 0
M  V30 702 H 76.055 4.20623 -5.56527 0
M  V30 703 H 71.952 4.69393 -4.43103 0
M  V30 704 H 72.72 4.99377 -6.4851 0
M  V30 705 N 75.3831 0.828654 1.34056 0
M  V30 706 C 76.6301 0.419458 1.98108 0
M  V30 707 C 76.9581 -1.01886 1.65679 0
M  V30 708 O 76.2131 -1.72539 0.923512 0
M  V30 709 C 76.5121 0.575226 3.52741 0
M  V30 710 C 76.1781 1.98012 4.05095 0
M  V30 711 C 74.8401 2.36442 4.19104 0
M  V30 712 C 77.1921 2.89824 4.33188 0
M  V30 713 C 74.5201 3.66009 4.58535 0
M  V30 714 C 76.8721 4.1886 4.74066 0
M  V30 715 C 75.5361 4.5726 4.86281 0
M  V30 716 H 74.8061 0.153491 0.724929 0
M  V30 717 H 77.4531 1.05371 1.59904 0
M  V30 718 H 75.7581 -0.142385 3.91541 0
M  V30 719 H 77.4551 0.239057 4.00287 0
M  V30 720 H 74.0451 1.67162 3.94658 0
M  V30 721 H 78.2291 2.61375 4.21897 0
M  V30 722 H 73.4851 3.95579 4.66184 0
M  V30 723 H 77.6591 4.90086 4.94761 0
M  V30 724 H 75.2861 5.57707 5.16592 0
M  V30 725 N 76.8612 -1.46375 0.584142 0
M  V30 726 C 78.2722 -1.86031 0.157959 0
M  V30 727 C 78.6232 -1.48753 -1.27933 0
M  V30 728 O 77.7482 -0.903098 -1.96655 0
M  V30 729 C 78.3432 -3.37642 0.279892 0
M  V30 730 C 76.9022 -3.76289 -0.09143 0
M  V30 731 C 76.0492 -2.7039 0.615178 0
M  V30 732 H 79.0002 -1.37509 0.792274 0
M  V30 733 H 79.0212 -3.77275 -0.494364 0
M  V30 734 H 78.5332 -3.64742 1.32607 0
M  V30 735 H 76.6342 -3.54806 -1.13769 0
M  V30 736 H 76.7472 -4.78246 0.285886 0
M  V30 737 H 75.1112 -2.5464 0.0552833 0
M  V30 738 H 75.8942 -3.0033 1.66303 0
M  V30 739 N 78.3393 -0.321999 -1.54275 0
M  V30 740 C 79.7503 0.166384 -1.85957 0
M  V30 741 C 80.1013 1.51747 -1.24367 0
M  V30 742 O 79.2263 2.09317 -0.549124 0
M  V30 743 C 79.8213 0.308681 -3.37391 0
M  V30 744 C 78.3803 0.741286 -3.69028 0
M  V30 745 C 77.5273 -0.137937 -2.76957 0
M  V30 746 H 80.4783 -0.542335 -1.49146 0
M  V30 747 H 80.4993 1.13984 -3.63026 0
M  V30 748 H 80.0113 -0.674809 -3.82188 0
M  V30 749 H 78.1123 1.73458 -3.29762 0
M  V30 750 H 78.2253 0.546118 -4.75977 0
M  V30 751 H 76.5893 0.386251 -2.51754 0
M  V30 752 H 77.3723 -1.11816 -3.2458 0
M  V30 753 N 79.8174 1.5752 -0.0501392 0
M  V30 754 C 81.0424 1.97376 0.636997 0
M  V30 755 C 81.4674 0.927466 1.63645 0
M  V30 756 O 80.8254 -0.10941 1.8097 0
M  V30 757 C 80.8734 3.36304 1.30123 0
M  V30 758 O 79.9774 3.34156 2.41689 0
M  V30 759 H 79.3184 0.642998 0.165679 0
M  V30 760 H 81.8484 2.04258 -0.118233 0
M  V30 761 H 81.8584 3.73008 1.65315 0
M  V30 762 H 80.5334 4.11993 0.568746 0
M  V30 763 H 79.1104 3.09196 2.08451 0
M  V30 764 N 81.2955 -0.223234 1.56011 0
M  V30 765 C 82.7065 -0.790368 1.69145 0
M  V30 766 C 83.0575 -1.85055 0.651845 0
M  V30 767 O 82.1825 -2.15498 -0.197359 0
M  V30 768 C 82.7775 -1.4404 3.06656 0
M  V30 769 C 81.3365 -1.95494 3.2165 0
M  V30 770 C 80.4835 -0.814506 2.65068 0
M  V30 771 H 83.4345 0.00139011 1.587 0
M  V30 772 H 83.4555 -2.30916 3.0242 0
M  V30 773 H 82.9675 -0.668543 3.82298 0
M  V30 774 H 81.0685 -2.75487 2.50874 0
M  V30 775 H 81.1815 -2.13607 4.28846 0
M  V30 776 H 79.5455 -1.22137 2.23505 0
M  V30 777 H 80.3285 -0.0553515 3.43255 0
M  V30 778 N 82.7736 -1.49793 -0.48987 0
M  V30 779 C 84.0016 -1.63568 -1.26701 0
M  V30 780 C 84.4166 -0.311465 -1.86213 0
M  V30 781 O 83.7736 0.704416 -1.68357 0
M  V30 782 C 83.8246 -2.71284 -2.38929 0
M  V30 783 O 83.5456 -3.9857 -1.81861 0
M  V30 784 C 85.0466 -2.95864 -3.3012 0
M  V30 785 H 82.2666 -0.550342 -0.383881 0
M  V30 786 H 84.8106 -1.95898 -0.586864 0
M  V30 787 H 82.9656 -2.417 -3.02753 0
M  V30 788 H 83.3796 -4.57993 -2.55622 0
M  V30 789 H 84.8536 -3.74941 -4.05121 0
M  V30 790 H 85.3306 -2.06206 -3.87783 0
M  V30 791 H 85.9366 -3.26907 -2.72051 0
M  V30 792 N 84.2517 0.741722 -1.39055 0
M  V30 793 C 85.4997 1.49818 -1.35643 0
M  V30 794 C 85.8207 1.94938 0.0491642 0
M  V30 795 O 85.0907 1.68505 0.999141 0
M  V30 796 H 83.6707 0.555755 -0.499144 0
M  V30 797 H 86.3327 0.880957 -1.73854 0
M  V30 798 H 85.4287 2.38348 -2.01486 0
M  V30 799 N 85.7298 1.2412 0.971189 0
M  V30 800 C 86.9548 1.10667 1.75407 0
M  V30 801 C 87.3798 -0.337048 1.85056 0
M  V30 802 O 86.7378 -1.24396 1.31892 0
M  V30 803 C 86.7858 1.74726 3.15441 0
M  V30 804 O 85.8898 1.01566 3.99697 0
M  V30 805 H 85.2308 0.387341 0.539317 0
M  V30 806 H 87.7608 1.64358 1.2185 0
M  V30 807 H 87.7708 1.80341 3.6598 0
M  V30 808 H 86.4458 2.79773 3.07734 0
M  V30 809 H 85.0228 1.03713 3.58187 0
M  V30 810 N 87.2079 -1.17134 1.05439 0
M  V30 811 C 88.1379 -2.2342 0.678649 0
M  V30 812 C 89.1189 -1.66971 -0.32476 0
M  V30 813 O 90.3039 -1.93149 -0.201802 0
M  V30 814 C 87.4339 -3.47256 0.0552099 0
M  V30 815 C 86.3879 -4.16543 0.98365 0
M  V30 816 C 85.7139 -5.34231 0.223961 0
M  V30 817 C 87.0139 -4.68495 2.3089 0
M  V30 818 H 88.7079 -2.55105 1.56722 0
M  V30 819 H 86.2539 -1.2262 0.754998 0
M  V30 820 H 88.2069 -4.20828 -0.21946 0
M  V30 821 H 86.9309 -3.14846 -0.868319 0
M  V30 822 H 85.5899 -3.44887 1.24293 0
M  V30 823 H 85.2379 -4.98071 -0.702412 0
M  V30 824 H 84.9379 -5.81527 0.842627 0
M  V30 825 H 86.4619 -6.10585 -0.0433671 0
M  V30 826 H 87.8759 -5.33691 2.09396 0
M  V30 827 H 86.2729 -5.26379 2.88176 0
M  V30 828 H 87.3429 -3.85169 2.94572 0
M  V30 829 N 88.686 -0.835752 -1.33615 0
M  V30 830 C 89.914 -0.443344 -2.02094 0
M  V30 831 C 90.329 0.954522 -1.62894 0
M  V30 832 O 89.686 1.61982 -0.840723 0
M  V30 833 C 89.737 -0.550775 -3.5728 0
M  V30 834 O 89.458 -1.89356 -3.95065 0
M  V30 835 C 90.959 -0.154919 -4.43029 0
M  V30 836 H 88.179 -0.176359 -0.647409 0
M  V30 837 H 90.723 -1.12746 -1.70612 0
M  V30 838 H 88.878 0.0853997 -3.87306 0
M  V30 839 H 89.292 -1.87687 -4.89769 0
M  V30 840 H 90.766 -0.281144 -5.51284 0
M  V30 841 H 91.243 0.902863 -4.2982 0
M  V30 842 H 91.849 -0.765404 -4.18356 0
M  V30 843 N 90.1641 1.46063 -0.591896 0
M  V30 844 C 91.0961 2.28539 0.174001 0
M  V30 845 C 92.1091 1.39047 0.846753 0
M  V30 846 O 93.2981 1.63564 0.714774 0
M  V30 847 C 90.3981 3.14347 1.26645 0
M  V30 848 C 89.5711 4.32021 0.683856 0
M  V30 849 C 88.6301 4.99157 1.66518 0
M  V30 850 O 87.6561 5.56458 1.19763 0
M  V30 851 N 88.8581 4.97005 2.99943 0
M  V30 852 H 91.6231 2.94911 -0.533633 0
M  V30 853 H 89.1841 1.56077 -0.430294 0
M  V30 854 H 91.1761 3.56125 1.92242 0
M  V30 855 H 89.7461 2.49988 1.87682 0
M  V30 856 H 88.9661 3.93915 -0.1498 0
M  V30 857 H 90.2541 5.08059 0.274567 0
M  V30 858 H 89.6521 4.51714 3.40545 0
M  V30 859 H 88.2091 5.42696 3.61004 0
M  V30 860 N 91.6422 0.330177 1.54103 0
M  V30 861 C 92.9192 -0.325007 1.92881 0
M  V30 862 C 93.2992 -1.6934 1.26045 0
M  V30 863 O 92.6472 -2.24855 0.406526 0
M  V30 864 C 92.8572 -0.410634 3.46576 0
M  V30 865 C 94.2052 -0.667801 4.19316 0
M  V30 866 O 95.2292 -0.49329 3.52768 0
M  V30 867 O 94.0882 -1.00491 5.37181 0
M  V30 868 H 91.1822 -0.186873 0.80561 0
M  V30 869 H 93.7282 0.380376 1.65382 0
M  V30 870 H 92.5002 0.550164 3.87413 0
M  V30 871 H 92.1232 -1.16333 3.802 0
M  V30 872 N 93.1203 -1.57491 0.0584922 0
M  V30 873 C 94.5313 -1.80526 -0.476138 0
M  V30 874 C 94.8823 -0.971334 -1.70469 0
M  V30 875 O 94.0073 -0.190012 -2.15564 0
M  V30 876 C 94.6023 -3.27424 -0.870587 0
M  V30 877 C 93.1613 -3.51351 -1.35015 0
M  V30 878 C 92.3083 -2.75343 -0.32887 0
M  V30 879 H 95.2593 -1.56133 0.284312 0
M  V30 880 H 95.2803 -3.38745 -1.73299 0
M  V30 881 H 94.7923 -3.88093 0.0237627 0
M  V30 882 H 92.8933 -2.95971 -2.26345 0
M  V30 883 H 93.0063 -4.60059 -1.33726 0
M  V30 884 H 91.3703 -2.417 -0.803321 0
M  V30 885 H 92.1533 -3.38743 0.557521 0
M  V30 886 N 94.5984 0.214957 -1.56127 0
M  V30 887 C 95.5614 1.24997 -1.92116 0
M  V30 888 C 96.5614 1.39467 -0.800344 0
M  V30 889 O 97.7514 1.37619 -1.06802 0
M  V30 890 C 94.8834 2.62271 -2.17777 0
M  V30 891 H 96.0764 0.942875 -2.84693 0
M  V30 892 H 93.6294 0.455654 -1.49511 0
M  V30 893 H 94.3644 2.98068 -1.27773 0
M  V30 894 H 94.1494 2.53143 -2.99434 0
M  V30 895 H 95.6394 3.36946 -2.46693 0
M  V30 896 N 96.0765 1.50051 0.48192 0
M  V30 897 C 97.4925 1.37237 0.814756 0
M  V30 898 C 97.6925 0.420109 1.97072 0
M  V30 899 O 96.7485 -0.141246 2.52105 0
M  V30 900 C 98.0615 2.78375 1.13701 0
M  V30 901 C 99.6095 2.87213 1.2441 0
M  V30 902 C 100.084 4.29161 1.59954 0
M  V30 903 N 101.575 4.32061 1.66967 0
M  V30 904 C 102.31 5.38879 1.95952 0
M  V30 905 N 101.806 6.55918 2.23031 0
M  V30 906 N 103.599 5.26312 1.97363 0
M  V30 907 H 95.7505 2.10546 -0.28005 0
M  V30 908 H 98.0135 0.945921 -0.0627454 0
M  V30 909 H 97.7195 3.49845 0.360787 0
M  V30 910 H 97.5935 3.14941 2.07586 0
M  V30 911 H 99.9805 2.15969 2.01101 0
M  V30 912 H 100.061 2.54204 0.285299 0
M  V30 913 H 99.7055 5.00938 0.838067 0
M  V30 914 H 99.6355 4.59648 2.56966 0
M  V30 915 H 102.126 3.47661 1.48123 0
M  V30 916 H 102.439 7.33139 2.44391 0
M  V30 917 H 100.784 6.59112 2.20447 0
M  V30 918 H 103.975 4.33876 1.75697 0
M  V30 919 H 104.148 6.09649 2.19618 0
M  V30 920 N 97.5546 -0.734337 1.39446 0
M  V30 921 C 98.7796 -1.52866 1.40167 0
M  V30 922 C 99.2046 -1.881 -0.00171513 0
M  V30 923 O 98.5626 -1.51957 -0.988879 0
M  V30 924 C 98.6106 -2.79235 2.28167 0
M  V30 925 O 97.7146 -3.75185 1.71201 0
M  V30 926 H 97.0556 -0.461618 0.477289 0
M  V30 927 H 99.5856 -0.905949 1.8345 0
M  V30 928 H 99.5956 -3.27963 2.42702 0
M  V30 929 H 98.2706 -2.52923 3.30156 0
M  V30 930 H 96.8476 -3.33958 1.65912 0
M  V30 931 N 99.0327 -1.24633 -0.964593 0
M  V30 932 C 100.28 -1.08788 -1.70796 0
M  V30 933 C 100.608 0.372783 -1.90894 0
M  V30 934 O 99.8627 1.29167 -1.47018 0
M  V30 935 C 100.162 -1.7763 -3.10133 0
M  V30 936 C 99.8277 -3.27557 -3.09866 0
M  V30 937 C 98.4897 -3.6846 -3.09501 0
M  V30 938 C 100.842 -4.23389 -3.03959 0
M  V30 939 C 98.1697 -5.03624 -3.00965 0
M  V30 940 C 100.522 -5.58565 -2.96965 0
M  V30 941 C 99.1857 -5.98809 -2.9493 0
M  V30 942 H 98.4557 -0.398084 -0.624988 0
M  V30 943 H 101.103 -1.54777 -1.12767 0
M  V30 944 H 99.4077 -1.24044 -3.71645 0
M  V30 945 H 101.105 -1.62832 -3.66451 0
M  V30 946 H 97.6947 -2.95006 -3.10917 0
M  V30 947 H 101.879 -3.92787 -3.03368 0
M  V30 948 H 97.1347 -5.33998 -2.97752 0
M  V30 949 H 101.309 -6.32523 -2.91354 0
M  V30 950 H 98.9357 -7.03505 -2.88071 0
M  V30 951 N 100.511 1.16574 -1.06058 0
M  V30 952 C 101.759 1.86677 -0.77434 0
M  V30 953 C 102.08 1.81959 0.701147 0
M  V30 954 O 101.35 1.2515 1.50713 0
M  V30 955 H 99.9298 0.691134 -0.283449 0
M  V30 956 H 102.592 1.41378 -1.34158 0
M  V30 957 H 101.688 2.92181 -1.09711 0
M  V30 958 N 101.989 0.842826 1.3317 0
M  V30 959 C 103.214 0.453129 2.02389 0
M  V30 960 C 103.639 -0.939105 1.6298 0
M  V30 961 O 102.997 -1.61472 0.8244 0
M  V30 962 C 103.045 0.586094 3.55805 0
M  V30 963 O 102.149 -0.386029 4.10589 0
M  V30 964 H 101.49 0.183664 0.638094 0
M  V30 965 H 104.02 1.13875 1.69981 0
M  V30 966 H 104.03 0.469209 4.05293 0
M  V30 967 H 102.705 1.6014 3.83833 0
M  V30 968 H 101.282 -0.226371 3.72212 0
M  V30 969 N 103.467 -1.45747 0.599634 0
M  V30 970 C 104.716 -2.01502 0.0893511 0
M  V30 971 C 105.029 -1.4748 -1.28488 0
M  V30 972 O 106.235 -1.95161 -1.88745 0
M  V30 973 C 104.691 -3.59735 0.109082 0
M  V30 974 C 104.299 -4.22754 1.48267 0
M  V30 975 C 106.043 -4.23085 -0.346374 0
M  V30 976 C 103.95 -5.73115 1.45921 0
M  V30 977 H 102.88 -0.753417 0.0296347 0
M  V30 978 H 105.531 -1.67303 0.753788 0
M  V30 979 H 103.913 -3.91087 -0.621854 0
M  V30 980 H 105.087 -4.02987 2.23468 0
M  V30 981 H 103.402 -3.71567 1.87955 0
M  V30 982 H 105.999 -5.33327 -0.38298 0
M  V30 983 H 106.342 -3.93201 -1.36743 0
M  V30 984 H 106.875 -3.9642 0.331038 0
M  V30 985 H 103.614 -6.07685 2.45762 0
M  V30 986 H 103.134 -5.95097 0.749665 0
M  V30 987 H 104.813 -6.3616 1.17941 0
M  V30 988 N 104.945 -0.338344 -1.53925 0
M  V30 989 C 106.356 0.146651 -1.86123 0
M  V30 990 C 106.707 1.5042 -1.2597 0
M  V30 991 O 105.832 2.08723 -0.571294 0
M  V30 992 C 106.427 0.272879 -3.37699 0
M  V30 993 C 104.986 0.702103 -3.69794 0
M  V30 994 C 104.133 -0.167304 -2.76795 0
M  V30 995 H 107.084 -0.558123 -1.48562 0
M  V30 996 H 107.105 1.10128 -3.64214 0
M  V30 997 H 106.617 -0.715307 -3.81451 0
M  V30 998 H 104.718 1.6995 -3.31584 0
M  V30 999 H 104.831 0.495604 -4.7653 0
M  V30 1000 H 103.195 0.359527 -2.5215 0
M  V30 1001 H 103.978 -1.15253 -3.23375 0
M  V30 1002 N 106.423 1.57458 -0.0668435 0
M  V30 1003 C 107.834 1.80776 0.466558 0
M  V30 1004 C 108.185 0.980361 1.69951 0
M  V30 1005 O 107.31 0.201441 2.1546 0
M  V30 1006 C 107.905 3.27881 0.85321 0
M  V30 1007 C 106.464 3.52062 1.3315 0
M  V30 1008 C 105.611 2.75513 0.314264 0
M  V30 1009 H 108.562 1.5598 -0.292588 0
M  V30 1010 H 108.583 3.39659 1.715 0
M  V30 1011 H 108.095 3.88075 -0.0443439 0
M  V30 1012 H 106.196 2.97167 2.24772 0
M  V30 1013 H 106.309 4.60762 1.31285 0
M  V30 1014 H 104.673 2.42123 0.790492 0
M  V30 1015 H 105.456 3.38442 -0.575477 0
M  V30 1016 N 107.901 -0.206675 1.56239 0
M  V30 1017 C 109.126 -0.949474 1.8439 0
M  V30 1018 C 109.551 -1.76549 0.649016 0
M  V30 1019 O 108.909 -1.76782 -0.402231 0
M  V30 1020 C 108.957 -1.83078 3.10668 0
M  V30 1021 O 108.061 -2.9281 2.90407 0
M  V30 1022 H 107.402 -0.268033 0.607499 0
M  V30 1023 H 109.932 -0.215488 2.03462 0
M  V30 1024 H 109.942 -2.2377 3.41161 0
M  V30 1025 H 108.617 -1.23112 3.97261 0
M  V30 1026 H 107.194 -2.55956 2.71184 0
M  V30 1027 N 109.379 -1.50304 -0.473955 0
M  V30 1028 C 110.309 -1.71886 -1.58042 0
M  V30 1029 C 111.29 -0.567799 -1.60344 0
M  V30 1030 O 112.475 -0.806623 -1.76656 0
M  V30 1031 C 109.605 -1.81036 -2.96384 0
M  V30 1032 C 108.559 -2.962 -3.08949 0
M  V30 1033 C 107.885 -2.9049 -4.48909 0
M  V30 1034 C 109.185 -4.36752 -2.86434 0
M  V30 1035 H 110.879 -2.64527 -1.40234 0
M  V30 1036 H 108.425 -1.27295 -0.673201 0
M  V30 1037 H 110.378 -1.94719 -3.73714 0
M  V30 1038 H 109.102 -0.850147 -3.15341 0
M  V30 1039 H 107.761 -2.82164 -2.3405 0
M  V30 1040 H 107.409 -1.92321 -4.64781 0
M  V30 1041 H 107.109 -3.67802 -4.58253 0
M  V30 1042 H 108.633 -3.06218 -5.28264 0
M  V30 1043 H 110.047 -4.5133 -3.53517 0
M  V30 1044 H 108.444 -5.15493 -3.07225 0
M  V30 1045 H 109.514 -4.49321 -1.82316 0
M  V30 1046 N 110.857 0.726932 -1.39834 0
M  V30 1047 C 112.082 1.52121 -1.40976 0
M  V30 1048 C 112.507 1.88098 -0.00826029 0
M  V30 1049 O 111.865 1.52479 0.980807 0
M  V30 1050 C 111.913 2.78021 -2.29644 0
M  V30 1051 O 111.017 3.74272 -1.73188 0
M  V30 1052 H 110.358 0.45908 -0.479731 0
M  V30 1053 H 112.888 0.896207 -1.83927 0
M  V30 1054 H 112.898 3.26671 -2.44438 0
M  V30 1055 H 111.573 2.51169 -3.31492 0
M  V30 1056 H 110.15 3.33073 -1.6768 0
M  V30 1057 N 112.336 1.25143 0.95797 0
M  V30 1058 C 113.613 1.00472 1.67823 0
M  V30 1059 C 113.993 -0.470056 2.058 0
M  V30 1060 O 113.341 -1.44663 1.76875 0
M  V30 1061 C 113.551 1.9372 2.90299 0
M  V30 1062 C 114.899 2.21371 3.62326 0
M  V30 1063 O 115.923 1.91451 3.00375 0
M  V30 1064 O 114.782 2.72231 4.7387 0
M  V30 1065 H 111.876 0.380752 0.734137 0
M  V30 1066 H 114.422 1.36283 1.01119 0
M  V30 1067 H 113.194 2.93316 2.59001 0
M  V30 1068 H 112.817 1.58286 3.64735 0
M  V30 1069 N 113.814 -1.1601 1.06675 0
M  V30 1070 C 115.091 -1.82679 0.699114 0
M  V30 1071 C 115.471 -1.94559 -0.819137 0
M  V30 1072 O 114.819 -1.49169 -1.73092 0
M  V30 1073 C 115.029 -3.19445 1.40555 0
M  V30 1074 C 116.377 -3.95171 1.55323 0
M  V30 1075 O 117.401 -3.28976 1.36577 0
M  V30 1076 O 116.26 -5.13833 1.86112 0
M  V30 1077 H 113.354 -0.788954 0.247951 0
M  V30 1078 H 115.9 -1.23179 1.16726 0
M  V30 1079 H 114.672 -3.05856 2.44065 0
M  V30 1080 H 114.295 -3.86625 0.927733 0
M  V30 1081 N 115.292 -0.849877 -1.32721 0
M  V30 1082 C 116.54 -0.450032 -1.97026 0
M  V30 1083 C 116.861 0.996604 -1.67609 0
M  V30 1084 O 116.131 1.6958 -0.980786 0
M  V30 1085 H 114.711 -0.163426 -0.728904 0
M  V30 1086 H 117.373 -1.08526 -1.6189 0
M  V30 1087 H 116.469 -0.591146 -3.0645 0
M  V30 1088 N 116.77 1.45427 -0.607355 0
M  V30 1089 C 117.995 2.07124 -0.107006 0
M  V30 1090 C 118.42 1.44906 1.19933 0
M  V30 1091 O 117.778 0.541687 1.73019 0
M  V30 1092 C 117.826 3.60595 0.0194119 0
M  V30 1093 O 116.93 3.98285 1.0697 0
M  V30 1094 H 116.271 0.659868 -0.0739597 0
M  V30 1095 H 118.801 1.86683 -0.837297 0
M  V30 1096 H 118.811 4.07419 0.2177 0
M  V30 1097 H 117.486 4.05266 -0.934453 0
M  V30 1098 H 116.063 3.63133 0.847889 0
M  V30 1099 N 118.248 0.346503 1.53744 0
M  V30 1100 C 119.659 -0.136779 1.86198 0
M  V30 1101 C 120.01 -1.49749 1.26766 0
M  V30 1102 O 119.135 -2.08417 0.582355 0
M  V30 1103 C 119.73 -0.254966 3.37839 0
M  V30 1104 C 118.289 -0.682482 3.70161 0
M  V30 1105 C 117.436 0.181981 2.76702 0
M  V30 1106 H 120.387 0.565994 1.48264 0
M  V30 1107 H 120.408 -1.08195 3.64793 0
M  V30 1108 H 119.92 0.735526 3.81066 0
M  V30 1109 H 118.021 -1.68189 3.3248 0
M  V30 1110 H 118.134 -0.470326 4.76786 0
M  V30 1111 H 116.498 -0.34615 2.52337 0
M  V30 1112 H 117.281 1.16966 3.2276 0
M  V30 1113 N 119.726 -1.57421 0.075193 0
M  V30 1114 C 120.951 -1.98364 -0.605515 0
M  V30 1115 C 121.376 -0.953383 -1.62149 0
M  V30 1116 O 120.734 0.0806053 -1.81121 0
M  V30 1117 C 120.782 -3.38332 -1.24756 0
M  V30 1118 O 119.886 -3.37959 -2.36342 0
M  V30 1119 H 119.227 -0.645553 -0.155428 0
M  V30 1120 H 121.757 -2.04044 0.150714 0
M  V30 1121 H 121.767 -3.75591 -1.5936 0
M  V30 1122 H 120.442 -4.12846 -0.503129 0
M  V30 1123 H 119.019 -3.12474 -2.03506 0
M  V30 1124 N 121.204 0.198386 -1.56346 0
M  V30 1125 C 122.429 0.939682 -1.84891 0
M  V30 1126 C 122.854 1.76202 -0.658369 0
M  V30 1127 O 122.212 1.76993 0.392851 0
M  V30 1128 C 122.26 1.81428 -3.11635 0
M  V30 1129 O 121.364 2.91265 -2.91956 0
M  V30 1130 H 120.705 0.264807 -0.608912 0
M  V30 1131 H 123.235 0.204695 -2.03573 0
M  V30 1132 H 123.245 2.21958 -3.42343 0
M  V30 1133 H 121.92 1.21004 -3.97908 0
M  V30 1134 H 120.497 2.54514 -2.72538 0
M  V30 1135 N 122.682 1.50554 0.465978 0
M  V30 1136 C 123.907 1.65838 1.24549 0
M  V30 1137 C 124.332 0.343486 1.84937 0
M  V30 1138 O 123.69 -0.69324 1.67523 0
M  V30 1139 C 123.738 2.75533 2.32624 0
M  V30 1140 O 122.842 2.37142 3.37398 0
M  V30 1141 H 122.183 0.553893 0.366194 0
M  V30 1142 H 124.713 1.96959 0.553927 0
M  V30 1143 H 124.723 2.98763 2.77857 0
M  V30 1144 H 123.398 3.70962 1.88043 0
M  V30 1145 H 121.975 2.24377 2.97841 0
M  V30 1146 N 124.16 -0.719506 1.40217 0
M  V30 1147 C 125.385 -1.51371 1.4178 0
M  V30 1148 C 125.81 -1.88091 0.0182355 0
M  V30 1149 O 125.168 -1.52997 -0.972707 0
M  V30 1150 C 125.216 -2.768 2.31115 0
M  V30 1151 O 124.32 -3.73349 1.7517 0
M  V30 1152 H 123.661 -0.456529 0.482159 0
M  V30 1153 H 126.191 -0.88644 1.844 0
M  V30 1154 H 126.201 -3.25371 2.46167 0
M  V30 1155 H 124.876 -2.49407 3.3282 0
M  V30 1156 H 123.453 -3.32179 1.69444 0
M  V30 1157 N 125.638 -1.25649 -0.95132 0
M  V30 1158 C 126.863 -1.13443 -1.73624 0
M  V30 1159 C 127.288 0.307565 -1.85568 0
M  V30 1160 O 126.646 1.22282 -1.33854 0
M  V30 1161 C 126.694 -1.79723 -3.12621 0
M  V30 1162 O 125.798 -1.07912 -3.98031 0
M  V30 1163 H 125.139 -0.395872 -0.533086 0
M  V30 1164 H 127.669 -1.66276 -1.1922 0
M  V30 1165 H 127.679 -1.86141 -3.63064 0
M  V30 1166 H 126.354 -2.84633 -3.03244 0
M  V30 1167 H 124.931 -1.09398 -3.56492 0
M  V30 1168 N 127.117 1.15442 -1.07289 0
M  V30 1169 C 128.342 1.90638 -0.816828 0
M  V30 1170 C 128.767 1.77445 0.624083 0
M  V30 1171 O 128.125 1.10671 1.43602 0
M  V30 1172 C 128.173 3.39008 -1.22906 0
M  V30 1173 O 127.277 4.10701 -0.373975 0
M  V30 1174 H 126.618 0.593555 -0.297638 0
M  V30 1175 H 129.148 1.46198 -1.43134 0
M  V30 1176 H 129.158 3.89801 -1.20497 0
M  V30 1177 H 127.833 3.47929 -2.27856 0
M  V30 1178 H 126.41 3.70046 -0.460499 0
M  V30 1179 N 128.595 0.856903 1.32268 0
M  V30 1180 C 129.82 0.474569 2.01897 0
M  V30 1181 C 130.245 -0.921766 1.63967 0
M  V30 1182 O 129.603 -1.60589 0.84148 0
M  V30 1183 C 129.651 0.623799 3.55164 0
M  V30 1184 O 128.755 -0.342459 4.10976 0
M  V30 1185 H 128.096 0.190422 0.63611 0
M  V30 1186 H 130.626 1.15672 1.68764 0
M  V30 1187 H 130.636 0.512169 4.04773 0
M  V30 1188 H 129.311 1.64202 3.82113 0
M  V30 1189 H 127.888 -0.18688 3.72431 0
M  V30 1190 N 130.073 -1.45103 0.615059 0
M  V30 1191 C 131.298 -2.07064 0.117988 0
M  V30 1192 C 131.723 -1.4554 -1.19163 0
M  V30 1193 O 131.081 -0.550855 -1.72729 0
M  V30 1194 C 131.129 -3.606 -0.000288387 0
M  V30 1195 O 130.233 -3.98847 -1.04856 0
M  V30 1196 H 129.574 -0.659467 0.0774581 0
M  V30 1197 H 132.104 -1.86236 0.847186 0
M  V30 1198 H 132.114 -4.07529 -0.196091 0
M  V30 1199 H 130.789 -4.04765 0.955932 0
M  V30 1200 H 129.366 -3.63577 -0.828619 0
M  V30 1201 N 131.551 -0.354651 -1.53558 0
M  V30 1202 C 132.776 0.242153 -2.05981 0
M  V30 1203 C 133.201 1.42553 -1.2272 0
M  V30 1204 O 132.559 1.79656 -0.243604 0
M  V30 1205 C 132.607 0.624367 -3.55154 0
M  V30 1206 O 131.711 1.72301 -3.74681 0
M  V30 1207 H 131.052 0.0378432 -0.662921 0
M  V30 1208 H 133.582 -0.512087 -1.98088 0
M  V30 1209 H 133.592 0.898433 -3.97985 0
M  V30 1210 H 132.267 -0.240989 -4.15201 0
M  V30 1211 H 130.844 1.44535 -3.4375 0
M  V30 1212 N 133.029 1.57378 -0.0835403 0
M  V30 1213 C 134.254 1.98682 0.594987 0
M  V30 1214 C 134.679 0.961969 1.61641 0
M  V30 1215 O 134.037 -0.0709989 1.81161 0
M  V30 1216 C 134.085 3.38988 1.2296 0
M  V30 1217 O 133.189 3.39208 2.34546 0
M  V30 1218 H 132.53 0.646368 0.152002 0
M  V30 1219 H 135.06 2.03961 -0.161533 0
M  V30 1220 H 135.07 3.76431 1.57366 0
M  V30 1221 H 133.745 4.13107 0.481228 0
M  V30 1222 H 132.322 3.13548 2.01846 0
M  V30 1223 N 134.507 -0.190092 1.56449 0
M  V30 1224 C 135.732 -0.929864 1.85387 0
M  V30 1225 C 136.157 -1.7585 0.667704 0
M  V30 1226 O 135.515 -1.77198 -0.383459 0
M  V30 1227 C 135.563 -1.79773 3.12593 0
M  V30 1228 O 134.667 -2.89713 2.93496 0
M  V30 1229 H 134.008 -0.261574 0.610307 0
M  V30 1230 H 136.538 -0.193896 2.03679 0
M  V30 1231 H 136.548 -2.20139 3.43515 0
M  V30 1232 H 135.223 -1.18892 3.98544 0
M  V30 1233 H 133.8 -2.53065 2.73884 0
M  V30 1234 N 135.985 -1.50799 -0.457987 0
M  V30 1235 C 137.21 -1.66496 -1.23668 0
M  V30 1236 C 137.635 -0.353288 -1.84752 0
M  V30 1237 O 136.993 0.684346 -1.67888 0
M  V30 1238 C 137.041 -2.76763 -2.3116 0
M  V30 1239 O 136.145 -2.38928 -3.36136 0
M  V30 1240 H 135.486 -0.555828 -0.363252 0
M  V30 1241 H 138.016 -1.9725 -0.543474 0
M  V30 1242 H 138.026 -3.00232 -2.76269 0
M  V30 1243 H 136.701 -3.71954 -1.86073 0
M  V30 1244 H 135.278 -2.25953 -2.96647 0
M  V30 1245 N 137.463 0.71206 -1.40597 0
M  V30 1246 C 138.71 1.47197 -1.39065 0
M  V30 1247 C 139.038 1.94499 0.00583891 0
M  V30 1248 O 138.293 1.68752 0.99102 0
M  V30 1249 C 138.592 2.71039 -2.32965 0
M  V30 1250 C 138.258 2.42484 -3.80148 0
M  V30 1251 C 136.92 2.34406 -4.20247 0
M  V30 1252 C 139.272 2.18598 -4.73143 0
M  V30 1253 C 136.6 2.00516 -5.51371 0
M  V30 1254 C 138.952 1.8622 -6.0457 0
M  V30 1255 C 137.616 1.76626 -6.43708 0
M  V30 1256 H 136.886 0.538634 -0.508876 0
M  V30 1257 H 139.533 0.815325 -1.73276 0
M  V30 1258 H 137.838 3.41558 -1.91951 0
M  V30 1259 H 139.535 3.29138 -2.29061 0
M  V30 1260 H 136.125 2.49659 -3.4838 0
M  V30 1261 H 140.309 2.23793 -4.42979 0
M  V30 1262 H 135.565 1.91628 -5.80593 0
M  V30 1263 H 139.739 1.66752 -6.76141 0
M  V30 1264 H 137.366 1.50133 -7.45228 0
M  V30 1265 N 138.941 1.26152 0.944643 0
M  V30 1266 C 140.171 1.14094 1.72239 0
M  V30 1267 C 140.579 -0.306931 1.86694 0
M  V30 1268 O 139.922 -1.22222 1.3714 0
M  V30 1269 C 139.984 1.73316 3.14963 0
M  V30 1270 C 139.648 3.2239 3.23904 0
M  V30 1271 C 140.645 4.19252 3.07447 0
M  V30 1272 C 138.33 3.62788 3.47405 0
M  V30 1273 C 140.324 5.54491 3.14353 0
M  V30 1274 C 138.011 4.98162 3.53947 0
M  V30 1275 C 139.009 5.93823 3.37436 0
M  V30 1276 O 138.697 7.26732 3.43679 0
M  V30 1277 H 138.429 0.398292 0.546205 0
M  V30 1278 H 140.983 1.67201 1.19301 0
M  V30 1279 H 139.213 1.14667 3.69308 0
M  V30 1280 H 140.902 1.56214 3.74636 0
M  V30 1281 H 141.668 3.8938 2.8915 0
M  V30 1282 H 137.547 2.88816 3.59313 0
M  V30 1283 H 141.091 6.29137 3.01384 0
M  V30 1284 H 136.988 5.27695 3.71763 0
M  V30 1285 H 137.756 7.3496 3.60245 0
M  V30 1286 N 140.419 -1.14872 1.07899 0
M  V30 1287 C 141.367 -2.21857 0.698727 0
M  V30 1288 C 142.361 -1.66845 -0.293086 0
M  V30 1289 O 143.567 -1.79321 -0.156204 0
M  V30 1290 H 139.942 -0.722691 0.207899 0
M  V30 1291 H 141.913 -2.51205 1.61054 0
M  V30 1292 C 140.662 -3.47498 0.11858 0
M  V30 1293 H 139.985 -3.90154 0.872914 0
M  V30 1294 H 141.425 -4.23858 -0.109759 0
M  V30 1295 C 139.884 -3.16947 -1.1422 0
M  V30 1296 O 140.414 -3.3426 -2.22785 0
M  V30 1297 N 138.62 -2.70946 -1.05055 0
M  V30 1298 H 138.167 -2.57058 -0.167038 0
M  V30 1299 H 138.125 -2.50879 -1.89491 0
M  V30 1300 N 141.898 -0.863906 -1.31812 0
M  V30 1301 C 143.146 -0.470904 -1.96537 0
M  V30 1302 C 143.467 0.978771 -1.68657 0
M  V30 1303 O 142.737 1.6853 -0.998717 0
M  V30 1304 H 141.317 -0.171148 -0.72713 0
M  V30 1305 H 143.979 -1.10236 -1.60729 0
M  V30 1306 H 143.075 -0.623616 -3.05806 0
M  V30 1307 N 143.376 1.44774 -0.622745 0
M  V30 1308 C 144.601 2.06999 -0.128968 0
M  V30 1309 C 145.026 1.4617 1.1839 0
M  V30 1310 O 144.384 0.560007 1.72434 0
M  V30 1311 C 144.432 3.60595 -0.0188351 0
M  V30 1312 O 143.536 3.99398 1.02739 0
M  V30 1313 H 142.877 0.659047 -0.0809544 0
M  V30 1314 H 145.407 1.85784 -0.85705 0
M  V30 1315 H 145.417 4.07627 0.174476 0
M  V30 1316 H 144.092 4.04252 -0.977384 0
M  V30 1317 H 142.669 3.64011 0.809326 0
M  V30 1318 N 144.854 0.36279 1.53368 0
M  V30 1319 C 146.265 -0.117022 1.86333 0
M  V30 1320 C 146.616 -1.48397 1.28347 0
M  V30 1321 O 145.741 -2.07787 0.604428 0
M  V30 1322 C 146.336 -0.21912 3.38091 0
M  V30 1323 C 144.895 -0.643184 3.70864 0
M  V30 1324 C 144.042 0.211318 2.76494 0
M  V30 1325 H 146.993 0.581687 1.47655 0
M  V30 1326 H 147.014 -1.04319 3.6592 0
M  V30 1327 H 146.526 0.775902 3.80265 0
M  V30 1328 H 144.627 -1.64654 3.34245 0
M  V30 1329 H 144.74 -0.41973 4.77258 0
M  V30 1330 H 143.104 -0.319367 2.5269 0
M  V30 1331 H 143.887 1.20383 3.21501 0
M  V30 1332 N 146.332 -1.57332 0.0918853 0
M  V30 1333 C 147.743 -1.81496 -0.437739 0
M  V30 1334 C 148.094 -1.00727 -1.6837 0
M  V30 1335 O 147.219 -0.235694 -2.15113 0
M  V30 1336 C 147.814 -3.29197 -0.800939 0
M  V30 1337 C 146.373 -3.54136 -1.27532 0
M  V30 1338 C 145.52 -2.75979 -0.270392 0
M  V30 1339 H 148.471 -1.55494 0.317366 0
M  V30 1340 H 148.492 -3.42344 -1.66074 0
M  V30 1341 H 148.004 -3.87955 0.106078 0
M  V30 1342 H 146.105 -3.00705 -2.20016 0
M  V30 1343 H 146.218 -4.62792 -1.23938 0
M  V30 1344 H 144.582 -2.43349 -0.751872 0
M  V30 1345 H 145.365 -3.37484 0.629248 0
M  V30 1346 N 147.81 0.181792 -1.56548 0
M  V30 1347 C 149.058 0.89832 -1.81038 0
M  V30 1348 C 149.379 1.83232 -0.667164 0
M  V30 1349 O 148.649 1.93372 0.313673 0
M  V30 1350 H 147.229 0.33471 -0.667816 0
M  V30 1351 H 149.891 0.184116 -1.94028 0
M  V30 1352 H 148.987 1.4815 -2.74696 0
M  V30 1353 N 149.288 1.51039 0.449983 0
M  V30 1354 C 150.513 1.6715 1.22783 0
M  V30 1355 C 150.938 0.363081 1.84563 0
M  V30 1356 O 150.296 -0.675433 1.68249 0
M  V30 1357 C 150.344 2.77985 2.29689 0
M  V30 1358 O 149.448 2.40707 3.34864 0
M  V30 1359 H 148.789 0.557746 0.360299 0
M  V30 1360 H 151.319 1.97535 0.533005 0
M  V30 1361 H 151.329 3.01693 2.74673 0
M  V30 1362 H 150.004 3.72935 1.84098 0
M  V30 1363 H 148.581 2.27523 2.95445 0
M  V30 1364 N 150.766 -0.704594 1.40972 0
M  V30 1365 C 151.696 -1.83124 1.44872 0
M  V30 1366 C 152.677 -1.67281 0.30838 0
M  V30 1367 O 153.862 -1.87149 0.518556 0
M  V30 1368 C 150.992 -3.21181 1.32136 0
M  V30 1369 C 149.946 -3.51714 2.43888 0
M  V30 1370 C 149.272 -4.89032 2.16222 0
M  V30 1371 C 150.572 -3.516 3.86232 0
M  V30 1372 H 152.266 -1.80117 2.39161 0
M  V30 1373 H 149.812 -0.865145 1.15114 0
M  V30 1374 H 151.765 -3.99702 1.33479 0
M  V30 1375 H 150.489 -3.24791 0.343279 0
M  V30 1376 H 149.148 -2.75539 2.41813 0
M  V30 1377 H 148.796 -4.89256 1.16778 0
M  V30 1378 H 148.496 -5.10426 2.911 0
M  V30 1379 H 150.02 -5.69873 2.19265 0
M  V30 1380 H 151.434 -4.2014 3.9007 0
M  V30 1381 H 149.831 -3.84523 4.60719 0
M  V30 1382 H 150.901 -2.50757 4.15029 0
M  V30 1383 N 152.244 -1.26651 -0.937939 0
M  V30 1384 C 153.176 -1.04283 -2.04102 0
M  V30 1385 C 154.189 -0.00221014 -1.628 0
M  V30 1386 O 155.378 -0.242645 -1.76843 0
M  V30 1387 C 152.478 -0.557846 -3.34277 0
M  V30 1388 C 151.651 -1.66843 -4.04329 0
M  V30 1389 C 150.71 -1.18095 -5.12777 0
M  V30 1390 O 149.736 -1.87865 -5.37304 0
M  V30 1391 N 150.938 -0.0311006 -5.80492 0
M  V30 1392 H 153.703 -1.9927 -2.23856 0
M  V30 1393 H 151.264 -1.1808 -1.10764 0
M  V30 1394 H 153.256 -0.215836 -4.04124 0
M  V30 1395 H 151.826 0.298523 -3.11171 0
M  V30 1396 H 151.046 -2.18123 -3.28353 0
M  V30 1397 H 152.334 -2.41408 -4.47883 0
M  V30 1398 H 151.732 0.551486 -5.63005 0
M  V30 1399 H 150.289 0.251809 -6.51313 0
M  V30 1400 N 153.722 1.14298 -1.08507 0
M  V30 1401 C 154.968 1.85633 -0.816581 0
M  V30 1402 C 155.301 1.82784 0.656021 0
M  V30 1403 O 154.576 1.25926 1.48233 0
M  V30 1404 C 154.859 3.34223 -1.34041 0
M  V30 1405 C 154.712 3.45639 -2.87843 0
M  V30 1406 C 156.031 4.29356 -0.9665 0
M  V30 1407 H 153.15 0.67402 -0.298104 0
M  V30 1408 H 155.792 1.34214 -1.34487 0
M  V30 1409 H 153.942 3.78144 -0.89104 0
M  V30 1410 H 155.614 3.10498 -3.41158 0
M  V30 1411 H 153.857 2.86817 -3.25451 0
M  V30 1412 H 154.528 4.50089 -3.19569 0
M  V30 1413 H 157.004 3.93457 -1.35391 0
M  V30 1414 H 155.88 5.3178 -1.3602 0
M  V30 1415 H 156.141 4.41919 0.126362 0
M  V30 1416 N 155.201 0.870884 1.31352 0
M  V30 1417 C 156.164 0.332243 2.26779 0
M  V30 1418 C 157.164 -0.517302 1.52252 0
M  V30 1419 O 158.354 -0.326477 1.71113 0
M  V30 1420 C 155.486 -0.528066 3.36785 0
M  V30 1421 H 156.679 1.17469 2.75937 0
M  V30 1422 H 154.232 0.64655 1.423 0
M  V30 1423 H 154.967 -1.39167 2.92922 0
M  V30 1424 H 154.752 0.0802582 3.92018 0
M  V30 1425 H 156.242 -0.897179 4.07849 0
M  V30 1426 N 156.679 -1.44442 0.630414 0
M  V30 1427 C 157.612 -2.27862 -0.124247 0
M  V30 1428 C 158.59 -1.38495 -0.851931 0
M  V30 1429 O 159.774 -1.67935 -0.856166 0
M  V30 1430 C 156.901 -3.17407 -1.18197 0
M  V30 1431 C 155.947 -4.22875 -0.554892 0
M  V30 1432 S 156.78 -5.31485 0.654489 0
M  V30 1433 C 157.936 -6.246 -0.40326 0
M  V30 1434 H 158.169 -2.91519 0.583435 0
M  V30 1435 H 155.702 -1.48618 0.418565 0
M  V30 1436 H 157.66 -3.69549 -1.78728 0
M  V30 1437 H 156.321 -2.52971 -1.86184 0
M  V30 1438 H 155.514 -4.85542 -1.35148 0
M  V30 1439 H 155.116 -3.73992 -0.0242105 0
M  V30 1440 H 157.408 -6.65375 -1.27602 0
M  V30 1441 H 158.351 -7.07851 0.187813 0
M  V30 1442 H 158.759 -5.59775 -0.728837 0
M  V30 1443 N 158.157 -0.370918 -1.53173 0
M  V30 1444 C 159.067 0.480823 -2.2962 0
M  V30 1445 C 160.083 1.08789 -1.35798 0
M  V30 1446 O 161.259 1.09768 -1.68858 0
M  V30 1447 C 158.324 1.60227 -3.07454 0
M  V30 1448 C 157.385 1.0222 -4.16953 0
M  V30 1449 C 156.618 2.0902 -4.91066 0
M  V30 1450 O 156.841 3.30222 -4.65091 0
M  V30 1451 O 155.775 1.71778 -5.76867 0
M  V30 1452 H 159.601 -0.141421 -3.03371 0
M  V30 1453 H 157.186 -0.135146 -1.48787 0
M  V30 1454 H 159.068 2.25417 -3.56041 0
M  V30 1455 H 157.743 2.20982 -2.36535 0
M  V30 1456 H 156.65 0.334064 -3.72605 0
M  V30 1457 H 157.983 0.459131 -4.90054 0
M  V30 1458 N 159.635 1.57281 -0.100228 0
M  V30 1459 C 160.912 1.86014 0.604812 0
M  V30 1460 C 161.292 0.998025 1.86018 0
M  V30 1461 O 160.64 0.0718184 2.28387 0
M  V30 1462 C 160.85 3.36784 0.915278 0
M  V30 1463 C 162.198 4.04957 1.27651 0
M  V30 1464 O 163.222 3.41695 1.00613 0
M  V30 1465 O 162.081 5.16593 1.7831 0
M  V30 1466 H 159.175 0.76942 0.303185 0
M  V30 1467 H 161.721 1.69176 -0.133313 0
M  V30 1468 H 160.493 3.91292 0.0248896 0
M  V30 1469 H 160.116 3.58987 1.70921 0
M  V30 1470 N 161.113 -0.173488 1.56642 0
M  V30 1471 C 162.338 -0.910149 1.86363 0
M  V30 1472 C 162.763 -1.75132 0.686318 0
M  V30 1473 O 162.121 -1.77595 -0.364643 0
M  V30 1474 C 162.169 -1.76447 3.14482 0
M  V30 1475 O 161.273 -2.86584 2.96553 0
M  V30 1476 H 160.614 -0.255086 0.613047 0
M  V30 1477 H 163.144 -0.172283 2.03873 0
M  V30 1478 H 163.154 -2.16483 3.45831 0
M  V30 1479 H 161.829 -1.14658 3.99783 0
M  V30 1480 H 160.406 -2.50146 2.76553 0
M  V30 1481 N 162.591 -1.51276 -0.441967 0
M  V30 1482 C 163.816 -1.67799 -1.21895 0
M  V30 1483 C 164.241 -0.372864 -1.84367 0
M  V30 1484 O 163.599 0.666501 -1.68604 0
M  V30 1485 C 163.647 -2.79199 -2.28211 0
M  V30 1486 O 162.751 -2.42479 -3.33583 0
M  V30 1487 H 162.092 -0.559649 -0.357336 0
M  V30 1488 H 164.622 -1.97815 -0.522522 0
M  V30 1489 H 164.632 -3.03146 -2.73069 0
M  V30 1490 H 163.307 -3.73906 -1.82118 0
M  V30 1491 H 161.884 -2.29087 -2.94234 0
M  V30 1492 N 164.069 0.697108 -1.41344 0
M  V30 1493 C 165.485 1.00751 -1.2378 0
M  V30 1494 C 165.685 2.01105 -0.126066 0
M  V30 1495 O 164.741 2.47295 0.51004 0
M  V30 1496 C 166.054 1.53359 -2.58653 0
M  V30 1497 C 167.602 1.6525 -2.65822 0
M  V30 1498 C 168.077 2.2126 -4.01009 0
M  V30 1499 N 169.568 2.28622 -4.02847 0
M  V30 1500 C 170.303 2.72984 -5.04249 0
M  V30 1501 N 169.799 3.16962 -6.16041 0
M  V30 1502 N 171.592 2.72534 -4.91611 0
M  V30 1503 H 163.743 0.0322662 -2.12375 0
M  V30 1504 H 166.006 0.0768853 -0.944877 0
M  V30 1505 H 165.712 0.870773 -3.4075 0
M  V30 1506 H 165.586 2.51597 -2.81032 0
M  V30 1507 H 167.973 2.30644 -1.84086 0
M  V30 1508 H 168.054 0.655614 -2.47256 0
M  V30 1509 H 167.698 1.56482 -4.83193 0
M  V30 1510 H 167.628 3.21698 -4.16915 0
M  V30 1511 H 170.119 1.97585 -3.22131 0
M  V30 1512 H 170.432 3.49434 -6.89287 0
M  V30 1513 H 168.777 3.14875 -6.1958 0
M  V30 1514 H 171.968 2.37525 -4.0336 0
M  V30 1515 H 172.141 3.06789 -5.70775 0
M  V30 1516 N 165.547 1.27147 0.931209 0
M  V30 1517 C 166.793 1.13446 1.68101 0
M  V30 1518 C 167.126 -0.319628 1.91552 0
M  V30 1519 O 166.401 -1.23407 1.50336 0
M  V30 1520 C 166.684 1.91482 3.0497 0
M  V30 1521 C 166.537 3.44855 2.88782 0
M  V30 1522 C 167.856 1.71651 4.05246 0
M  V30 1523 H 164.975 0.413498 0.610072 0
M  V30 1524 H 167.617 1.56261 1.08086 0
M  V30 1525 H 165.767 1.55095 3.56199 0
M  V30 1526 H 167.439 3.9105 2.44698 0
M  V30 1527 H 165.682 3.71373 2.24198 0
M  V30 1528 H 166.353 3.94694 3.85902 0
M  V30 1529 H 168.829 2.0337 3.63015 0
M  V30 1530 H 167.705 2.28651 4.99009 0
M  V30 1531 H 167.966 0.663555 4.37092 0
M  V30 1532 N 167.025 -1.13721 1.09112 0
M  V30 1533 C 168.25 -1.89314 0.847053 0
M  V30 1534 C 168.675 -1.78416 -0.595774 0
M  V30 1535 O 168.033 -1.12942 -1.41823 0
M  V30 1536 C 168.081 -3.3701 1.28284 0
M  V30 1537 O 167.185 -4.10054 0.439267 0
M  V30 1538 H 166.526 -0.588745 0.307044 0
M  V30 1539 H 169.056 -1.43902 1.45442 0
M  V30 1540 H 169.066 -3.87834 1.26683 0
M  V30 1541 H 167.741 -3.4426 2.33363 0
M  V30 1542 H 166.318 -3.69266 0.519312 0
M  V30 1543 N 168.503 -0.877838 -1.30888 0
M  V30 1544 C 169.914 -0.544193 -1.78593 0
M  V30 1545 C 170.265 0.939301 -1.72254 0
M  V30 1546 O 169.39 1.7337 -1.29505 0
M  V30 1547 C 169.985 -0.98105 -3.24285 0
M  V30 1548 C 168.544 -0.698935 -3.69854 0
M  V30 1549 C 167.691 -1.168 -2.51502 0
M  V30 1550 H 170.642 -1.06278 -1.17859 0
M  V30 1551 H 170.663 -0.307009 -3.79259 0
M  V30 1552 H 170.175 -2.06079 -3.28866 0
M  V30 1553 H 168.276 0.369112 -3.70767 0
M  V30 1554 H 168.389 -1.28148 -4.61644 0
M  V30 1555 H 166.753 -0.587535 -2.47831 0
M  V30 1556 H 167.536 -2.25533 -2.58824 0
M  V30 1557 N 169.982 1.44106 -0.638065 0
M  V30 1558 C 171.207 2.0685 -0.150916 0
M  V30 1559 C 171.632 1.47417 1.16833 0
M  V30 1560 O 170.99 0.578264 1.71831 0
M  V30 1561 C 171.038 3.60555 -0.05708 0
M  V30 1562 O 170.142 4.00465 0.984972 0
M  V30 1563 H 169.483 0.658151 -0.0879399 0
M  V30 1564 H 172.013 1.84865 -0.876707 0
M  V30 1565 H 172.023 4.07789 0.131232 0
M  V30 1566 H 170.698 4.03193 -1.02021 0
M  V30 1567 H 169.275 3.64849 0.770672 0
M  V30 1568 N 171.46 0.379036 1.52974 0
M  V30 1569 C 172.407 -0.461048 2.26148 0
M  V30 1570 C 173.377 -1.06637 1.27349 0
M  V30 1571 O 174.562 -1.09633 1.56157 0
M  V30 1572 C 171.702 -1.58782 3.06402 0
M  V30 1573 C 170.815 -1.00636 4.20115 0
M  V30 1574 C 169.95 -2.10334 4.87784 0
M  V30 1575 C 168.989 -1.49724 5.93506 0
M  V30 1576 N 168.126 -2.5331 6.54812 0
M  V30 1577 H 172.966 0.169429 2.97518 0
M  V30 1578 H 170.503 0.0953806 1.4679 0
M  V30 1579 H 172.461 -2.25174 3.51215 0
M  V30 1580 H 171.091 -2.18876 2.37261 0
M  V30 1581 H 170.143 -0.232332 3.7969 0
M  V30 1582 H 171.455 -0.523343 4.96047 0
M  V30 1583 H 170.609 -2.84519 5.35849 0
M  V30 1584 H 169.348 -2.61992 4.11353 0
M  V30 1585 H 168.353 -0.740598 5.44789 0
M  V30 1586 H 169.578 -0.988732 6.71864 0
M  V30 1587 H 167.524 -3.04156 5.81227 0
M  V30 1588 H 167.441 -2.09734 7.26325 0
M  V30 1589 H 168.709 -3.27155 7.07524 0
M  V30 1590 N 172.938 -1.57226 0.108567 0
M  V30 1591 C 174.163 -1.99604 -0.563303 0
M  V30 1592 C 174.588 -0.987563 -1.6009 0
M  V30 1593 O 173.946 0.0421687 -1.81251 0
M  V30 1594 C 173.994 -3.40902 -1.17552 0
M  V30 1595 O 173.098 -3.42896 -2.2912 0
M  V30 1596 H 172.439 -0.648704 -0.1417 0
M  V30 1597 H 174.969 -2.03679 0.193961 0
M  V30 1598 H 174.979 -3.78886 -1.51357 0
M  V30 1599 H 173.654 -4.1382 -0.415445 0
M  V30 1600 H 172.231 -3.1672 -1.96832 0
M  V30 1601 N 174.416 0.165178 -1.56732 0
M  V30 1602 C 175.644 0.896218 -1.86482 0
M  V30 1603 C 176.059 1.75555 -0.694675 0
M  V30 1604 O 175.416 1.79379 0.33607 0
M  V30 1605 C 175.467 1.76792 -3.1532 0
M  V30 1606 O 175.188 0.943239 -4.27825 0
M  V30 1607 C 176.689 2.6081 -3.58459 0
M  V30 1608 H 173.909 0.260064 -0.618553 0
M  V30 1609 H 176.453 0.163428 -2.03846 0
M  V30 1610 H 174.608 2.45398 -2.99764 0
M  V30 1611 H 175.022 1.53998 -5.01383 0
M  V30 1612 H 176.496 3.17579 -4.51495 0
M  V30 1613 H 176.973 3.35977 -2.82872 0
M  V30 1614 H 177.579 1.97526 -3.76648 0
M  V30 1615 N 175.894 1.51508 0.433938 0
M  V30 1616 C 177.119 1.68443 1.21003 0
M  V30 1617 C 177.544 0.382636 1.84167 0
M  V30 1618 O 176.902 -0.65755 1.68956 0
M  V30 1619 C 176.95 2.80405 2.26727 0
M  V30 1620 O 176.054 2.44245 3.32292 0
M  V30 1621 H 175.395 0.561536 0.354363 0
M  V30 1622 H 177.925 1.9809 0.512024 0
M  V30 1623 H 177.935 3.0459 2.71457 0
M  V30 1624 H 176.61 3.74867 1.80132 0
M  V30 1625 H 175.187 2.30644 2.93015 0
M  V30 1626 N 177.372 -0.689602 1.41712 0
M  V30 1627 C 178.32 -1.82475 1.44242 0
M  V30 1628 C 179.314 -1.66354 0.319774 0
M  V30 1629 O 180.52 -1.73143 0.492089 0
M  V30 1630 H 176.895 -0.601416 0.451445 0
M  V30 1631 H 178.866 -1.77458 2.39899 0
M  V30 1632 C 177.615 -3.20535 1.3473 0
M  V30 1633 H 176.938 -3.33559 2.20405 0
M  V30 1634 H 178.378 -4.00023 1.40562 0
M  V30 1635 C 176.837 -3.36846 0.0603281 0
M  V30 1636 O 177.367 -3.91656 -0.892663 0
M  V30 1637 N 175.573 -2.90595 -0.0177039 0
M  V30 1638 H 175.12 -2.46178 0.758572 0
M  V30 1639 H 175.078 -3.01886 -0.878201 0
M  V30 1640 N 178.85 -1.27639 -0.924453 0
M  V30 1641 C 180.099 -1.13549 -1.66702 0
M  V30 1642 C 180.412 0.317487 -1.93006 0
M  V30 1643 O 181.618 0.579333 -2.65247 0
M  V30 1644 C 180.074 -1.98426 -3.00259 0
M  V30 1645 C 179.682 -3.484 -2.81641 0
M  V30 1646 C 181.426 -1.92993 -3.78092 0
M  V30 1647 C 179.333 -4.25464 -4.10773 0
M  V30 1648 H 178.263 -0.421351 -0.625283 0
M  V30 1649 H 180.914 -1.52085 -1.02676 0
M  V30 1650 H 179.296 -1.52736 -3.6536 0
M  V30 1651 H 180.47 -4.01973 -2.25287 0
M  V30 1652 H 178.785 -3.55245 -2.17232 0
M  V30 1653 H 181.382 -2.47844 -4.7379 0
M  V30 1654 H 181.725 -0.904281 -4.0636 0
M  V30 1655 H 182.258 -2.36595 -3.19793 0
M  V30 1656 H 178.997 -5.28566 -3.87683 0
M  V30 1657 H 178.517 -3.76667 -4.66779 0
M  V30 1658 H 180.196 -4.34812 -4.79111 0
M  V30 1659 N 180.328 1.1314 -1.09713 0
M  V30 1660 C 181.556 1.88321 -0.856898 0
M  V30 1661 C 181.971 1.79276 0.592073 0
M  V30 1662 O 181.328 1.16142 1.40774 0
M  V30 1663 C 181.379 3.37812 -1.28706 0
M  V30 1664 O 181.1 3.46627 -2.67921 0
M  V30 1665 C 182.601 4.29952 -1.07964 0
M  V30 1666 H 179.821 0.596094 -0.308079 0
M  V30 1667 H 182.365 1.43205 -1.45988 0
M  V30 1668 H 180.52 3.805 -0.727912 0
M  V30 1669 H 180.934 4.39579 -2.8613 0
M  V30 1670 H 182.408 5.33159 -1.42986 0
M  V30 1671 H 182.885 4.39196 -0.0176577 0
M  V30 1672 H 183.491 3.93036 -1.62489 0
M  V30 1673 N 181.806 0.884767 1.30421 0
M  V30 1674 C 182.753 0.349642 2.28136 0
M  V30 1675 C 183.723 -0.560061 1.56373 0
M  V30 1676 O 184.908 -0.488524 1.8444 0
M  V30 1677 C 182.048 -0.42999 3.42411 0
M  V30 1678 C 181.161 0.508907 4.28992 0
M  V30 1679 C 180.296 -0.286301 5.30428 0
M  V30 1680 C 179.335 0.648079 6.08659 0
M  V30 1681 N 178.472 -0.111792 7.02011 0
M  V30 1682 H 183.312 1.18807 2.73293 0
M  V30 1683 H 180.849 0.597231 1.3443 0
M  V30 1684 H 182.807 -0.897923 4.07423 0
M  V30 1685 H 181.437 -1.23299 2.98324 0
M  V30 1686 H 180.489 1.09533 3.64289 0
M  V30 1687 H 181.801 1.22475 4.8353 0
M  V30 1688 H 180.955 -0.816098 6.01186 0
M  V30 1689 H 179.694 -1.03536 4.76583 0
M  V30 1690 H 178.699 1.18951 5.36778 0
M  V30 1691 H 179.924 1.39623 6.64592 0
M  V30 1692 H 177.87 -0.843395 6.50556 0
M  V30 1693 H 177.787 0.544429 7.54037 0
M  V30 1694 H 179.055 -0.622339 7.77012 0
M  V30 1695 N 183.284 -1.43765 0.645699 0
M  V30 1696 C 184.214 -2.33471 -0.0370477 0
M  V30 1697 C 185.195 -1.49042 -0.819779 0
M  V30 1698 O 186.38 -1.77726 -0.782758 0
M  V30 1699 C 183.51 -3.32311 -1.0093 0
M  V30 1700 C 182.464 -4.2667 -0.337201 0
M  V30 1701 C 181.79 -5.1549 -1.42037 0
M  V30 1702 C 183.09 -5.16657 0.765706 0
M  V30 1703 H 184.784 -2.90809 0.712069 0
M  V30 1704 H 182.33 -1.39834 0.343876 0
M  V30 1705 H 184.283 -3.9396 -1.49578 0
M  V30 1706 H 183.007 -2.73213 -1.78948 0
M  V30 1707 H 181.666 -3.66374 0.128771 0
M  V30 1708 H 181.314 -4.52735 -2.1918 0
M  V30 1709 H 181.014 -5.79438 -0.975966 0
M  V30 1710 H 182.538 -5.80012 -1.90838 0
M  V30 1711 H 183.952 -5.72158 0.361702 0
M  V30 1712 H 182.349 -5.89286 1.13413 0
M  V30 1713 H 183.419 -4.56796 1.62683 0
M  V30 1714 N 184.763 -0.387143 -1.52771 0
M  V30 1715 C 185.711 0.463953 -2.27926 0
M  V30 1716 C 186.705 1.06493 -1.31741 0
M  V30 1717 O 187.911 1.00565 -1.49287 0
M  V30 1718 H 184.286 0.16837 -0.732909 0
M  V30 1719 H 186.257 -0.19141 -2.97785 0
M  V30 1720 C 185.006 1.5803 -3.09713 0
M  V30 1721 H 184.329 1.12718 -3.83581 0
M  V30 1722 H 185.769 2.15008 -3.65442 0
M  V30 1723 C 184.228 2.53509 -2.2189 0
M  V30 1724 O 184.758 3.56863 -1.84422 0
M  V30 1725 N 182.964 2.23199 -1.86093 0
M  V30 1726 H 182.511 1.39185 -2.16761 0
M  V30 1727 H 182.469 2.87333 -1.27621 0
M  V30 1728 N 186.241 1.57166 -0.116904 0
M  V30 1729 C 187.489 1.94737 0.540533 0
M  V30 1730 C 187.81 1.00096 1.67349 0
M  V30 1731 O 187.08 0.0568854 1.95817 0
M  V30 1732 H 185.66 0.718981 0.202669 0
M  V30 1733 H 188.322 1.94017 -0.185353 0
M  V30 1734 H 187.418 2.97719 0.936483 0
M  V30 1735 N 187.719 -0.156864 1.56817 0
M  V30 1736 C 188.652 -1.22316 1.9265 0
M  V30 1737 C 189.63 -1.42059 0.791076 0
M  V30 1738 O 190.814 -1.56831 1.04576 0
M  V30 1739 C 187.941 -2.58375 2.18998 0
M  V30 1740 C 186.987 -2.55284 3.41661 0
M  V30 1741 S 187.82 -2.02946 4.95553 0
M  V30 1742 C 188.976 -3.40753 5.25013 0
M  V30 1743 H 189.209 -0.917403 2.82791 0
M  V30 1744 H 186.742 -0.362059 1.50095 0
M  V30 1745 H 188.7 -3.36677 2.34859 0
M  V30 1746 H 187.361 -2.86145 1.29538 0
M  V30 1747 H 186.554 -3.55418 3.57343 0
M  V30 1748 H 186.156 -1.85086 3.24991 0
M  V30 1749 H 188.448 -4.36819 5.17876 0
M  V30 1750 H 189.391 -3.29933 6.26538 0
M  V30 1751 H 189.799 -3.37433 4.52548 0
M  V30 1752 N 189.197 -1.51736 -0.425897 0
M  V30 1753 C 190.443 -1.65214 -1.1761 0
M  V30 1754 C 190.776 -0.372778 -1.90589 0
M  V30 1755 O 190.051 0.628139 -1.84078 0
M  V30 1756 C 190.334 -2.86312 -2.18398 0
M  V30 1757 C 190.187 -4.24254 -1.49426 0
M  V30 1758 C 191.506 -3.02925 -3.19256 0
M  V30 1759 H 188.625 -0.601263 -0.426206 0
M  V30 1760 H 191.267 -1.8425 -0.463882 0
M  V30 1761 H 189.417 -2.70213 -2.79137 0
M  V30 1762 H 191.089 -4.52046 -0.919362 0
M  V30 1763 H 189.332 -4.26426 -0.796432 0
M  V30 1764 H 190.003 -5.05001 -2.22885 0
M  V30 1765 H 192.479 -3.1781 -2.68581 0
M  V30 1766 H 191.355 -3.89199 -3.8706 0
M  V30 1767 H 191.616 -2.15497 -3.86023 0
M  V30 1768 N 190.675 0.682077 -1.42076 0
M  V30 1769 C 191.605 1.80796 -1.47767 0
M  V30 1770 C 192.586 1.6677 -0.334954 0
M  V30 1771 O 193.771 1.863 -0.548264 0
M  V30 1772 C 190.901 3.19038 -1.37229 0
M  V30 1773 C 189.855 3.47789 -2.49453 0
M  V30 1774 C 189.181 4.8553 -2.23975 0
M  V30 1775 C 190.481 3.45411 -3.91776 0
M  V30 1776 H 192.175 1.7629 -2.41997 0
M  V30 1777 H 189.721 0.846721 -1.16476 0
M  V30 1778 H 191.674 3.97528 -1.39821 0
M  V30 1779 H 190.398 3.24204 -0.394907 0
M  V30 1780 H 189.057 2.71657 -2.46166 0
M  V30 1781 H 188.705 4.87337 -1.24547 0
M  V30 1782 H 188.405 5.0573 -2.99184 0
M  V30 1783 H 189.929 5.66312 -2.28304 0
M  V30 1784 H 191.343 4.13882 -3.96705 0
M  V30 1785 H 189.74 3.77145 -4.66778 0
M  V30 1786 H 190.81 2.44122 -4.18966 0
M  V30 1787 N 192.153 1.28127 0.917671 0
M  V30 1788 C 193.083 1.14248 2.03641 0
M  V30 1789 C 194.064 0.0412748 1.7005 0
M  V30 1790 O 195.249 0.217566 1.92977 0
M  V30 1791 C 192.379 0.799431 3.37974 0
M  V30 1792 C 191.333 1.85497 3.85713 0
M  V30 1793 C 190.659 1.36565 5.16966 0
M  V30 1794 C 191.959 3.26085 4.08002 0
M  V30 1795 H 193.653 2.07835 2.15511 0
M  V30 1796 H 191.199 1.00064 1.03553 0
M  V30 1797 H 193.152 0.689114 4.15727 0
M  V30 1798 H 191.876 -0.172145 3.26146 0
M  V30 1799 H 190.535 1.95437 3.10161 0
M  V30 1800 H 190.183 0.383253 5.01538 0
M  V30 1801 H 189.883 2.07143 5.49878 0
M  V30 1802 H 191.407 1.26848 5.97279 0
M  V30 1803 H 192.821 3.19089 4.76293 0
M  V30 1804 H 191.218 3.94462 4.52238 0
M  V30 1805 H 192.288 3.70394 3.12948 0
M  V30 1806 N 193.631 -1.12557 1.10312 0
M  V30 1807 C 194.871 -1.8568 0.854543 0
M  V30 1808 C 195.235 -1.82091 -0.608843 0
M  V30 1809 O 196.436 -2.50544 -0.973717 0
M  V30 1810 C 194.707 -3.2942 1.38626 0
M  V30 1811 S 196.266 -4.19931 1.27293 0
M  V30 1812 H 193.084 -0.640427 0.308827 0
M  V30 1813 H 195.686 -1.35599 1.40831 0
M  V30 1814 H 194.39 -3.2959 2.44537 0
M  V30 1815 H 193.921 -3.84566 0.82902 0
M  V30 1816 H 195.936 -4.95668 0.229776 0
M  V30 1817 N 195.109 -0.891671 -1.2995 0
M  V30 1818 C 196.056 -0.361736 -2.27948 0
M  V30 1819 C 197.026 0.551761 -1.56668 0
M  V30 1820 O 198.211 0.478736 -1.84696 0
M  V30 1821 C 195.351 0.411825 -3.42634 0
M  V30 1822 C 194.464 -0.531651 -4.28716 0
M  V30 1823 C 193.599 0.258167 -5.30572 0
M  V30 1824 C 192.638 -0.680349 -6.08307 0
M  V30 1825 N 191.775 0.0745613 -7.0206 0
M  V30 1826 H 196.615 -1.20254 -2.72659 0
M  V30 1827 H 194.152 -0.604352 -1.34112 0
M  V30 1828 H 196.11 0.876304 -4.07893 0
M  V30 1829 H 194.74 1.21715 -2.98974 0
M  V30 1830 H 193.792 -1.11463 -3.63703 0
M  V30 1831 H 195.104 -1.25038 -4.82874 0
M  V30 1832 H 194.258 0.784204 -6.0161 0
M  V30 1833 H 192.997 1.01008 -4.77126 0
M  V30 1834 H 192.002 -1.21796 -5.3614 0
M  V30 1835 H 193.227 -1.43145 -6.63842 0
M  V30 1836 H 191.173 0.808883 -6.50994 0
M  V30 1837 H 191.09 -0.584409 -7.53738 0
M  V30 1838 H 192.358 0.581123 -7.77331 0
M  V30 1839 N 196.587 1.43421 -0.653314 0
M  V30 1840 C 197.833 2.02111 -0.166992 0
M  V30 1841 C 198.166 1.51423 1.21592 0
M  V30 1842 O 197.441 0.707389 1.8118 0
M  V30 1843 C 197.724 3.5966 -0.177948 0
M  V30 1844 C 197.577 4.20579 -1.59478 0
M  V30 1845 C 198.896 4.37413 0.4856 0
M  V30 1846 H 196.015 0.734374 -0.0621557 0
M  V30 1847 H 198.657 1.70717 -0.834016 0
M  V30 1848 H 196.807 3.86537 0.390032 0
M  V30 1849 H 198.479 4.04732 -2.21336 0
M  V30 1850 H 196.722 3.77226 -2.14204 0
M  V30 1851 H 197.393 5.29665 -1.5543 0
M  V30 1852 H 199.869 4.161 0.00234528 0
M  V30 1853 H 198.745 5.47075 0.447207 0
M  V30 1854 H 199.006 4.13672 1.55974 0
M  V30 1855 N 198.065 0.39524 1.52563 0
M  V30 1856 C 199.305 -0.184744 2.03563 0
M  V30 1857 C 199.669 -1.43548 1.27507 0
M  V30 1858 O 200.87 -2.093 1.68662 0
M  V30 1859 C 199.141 -0.440294 3.54678 0
M  V30 1860 S 200.7 -0.989712 4.27493 0
M  V30 1861 H 197.518 -0.0515075 0.709132 0
M  V30 1862 H 200.12 0.544957 1.87751 0
M  V30 1863 H 198.824 0.477005 4.07618 0
M  V30 1864 H 198.355 -1.19825 3.74707 0
M  V30 1865 H 200.37 -2.27155 4.41152 0
M  V30 1866 N 199.544 -1.57102 0.125237 0
M  V30 1867 C 200.792 -1.95021 -0.530198 0
M  V30 1868 C 201.113 -1.00982 -1.66816 0
M  V30 1869 O 200.383 -0.0672693 -1.95784 0
M  V30 1870 H 198.963 -0.720046 -0.198853 0
M  V30 1871 H 201.625 -1.93916 0.19564 0
M  V30 1872 H 200.721 -2.98211 -0.920681 0
M  V30 1873 N 201.022 0.148545 -1.56898 0
M  V30 1874 C 202.299 0.890019 -1.74178 0
M  V30 1875 C 202.679 1.99407 -0.692839 0
M  V30 1876 O 202.027 2.26671 0.288505 0
M  V30 1877 C 202.237 1.43389 -3.18183 0
M  V30 1878 C 203.585 1.89791 -3.79822 0
M  V30 1879 O 204.609 1.53134 -3.21603 0
M  V30 1880 O 203.468 2.57387 -4.82093 0
M  V30 1881 H 200.562 0.420496 -0.712118 0
M  V30 1882 H 203.108 0.134591 -1.69165 0
M  V30 1883 H 201.88 0.640383 -3.86024 0
M  V30 1884 H 201.503 2.25287 -3.27615 0
M  V30 1885 N 202.5 1.5196 0.417844 0
M  V30 1886 C 203.746 1.65836 1.16732 0
M  V30 1887 C 204.079 0.382881 1.90388 0
M  V30 1888 O 203.354 -0.618368 1.84408 0
M  V30 1889 C 203.637 2.87466 2.16876 0
M  V30 1890 C 203.49 4.25041 1.47174 0
M  V30 1891 C 204.809 3.04613 3.17646 0
M  V30 1892 H 201.928 0.603515 0.423011 0
M  V30 1893 H 204.57 1.84494 0.454105 0
M  V30 1894 H 202.72 2.71689 2.777 0
M  V30 1895 H 204.392 4.52527 0.895376 0
M  V30 1896 H 202.635 4.26843 0.773806 0
M  V30 1897 H 203.306 5.06176 2.20204 0
M  V30 1898 H 205.782 3.1923 2.66892 0
M  V30 1899 H 204.658 3.91247 3.8499 0
M  V30 1900 H 204.919 2.17541 3.84874 0
M  V30 1901 N 203.978 -0.674533 1.42435 0
M  V30 1902 C 204.941 -1.76986 1.45632 0
M  V30 1903 C 205.941 -1.5708 0.343871 0
M  V30 1904 O 207.131 -1.63367 0.604709 0
M  V30 1905 C 204.263 -3.15623 1.28822 0
M  V30 1906 H 205.456 -1.75539 2.43158 0
M  V30 1907 H 203.009 -0.884189 1.28887 0
M  V30 1908 H 203.744 -3.22696 0.322193 0
M  V30 1909 H 203.529 -3.31475 2.09444 0
M  V30 1910 H 205.019 -3.95537 1.33942 0
M  V30 1911 N 205.456 -1.28612 -0.910864 0
M  V30 1912 C 206.681 -1.1891 -1.69927 0
M  V30 1913 C 207.106 0.248372 -1.86453 0
M  V30 1914 O 206.464 1.17961 -1.37676 0
M  V30 1915 C 206.512 -1.89578 -3.06745 0
M  V30 1916 O 205.616 -1.20521 -3.94396 0
M  V30 1917 H 204.957 -0.412632 -0.520222 0
M  V30 1918 H 207.487 -1.69985 -1.1387 0
M  V30 1919 H 207.497 -1.97597 -3.56958 0
M  V30 1920 H 206.172 -2.94136 -2.94035 0
M  V30 1921 H 204.749 -1.20684 -3.52831 0
M  V30 1922 N 206.934 1.1197 -1.10907 0
M  V30 1923 C 208.182 1.83225 -0.852819 0
M  V30 1924 C 208.503 1.84769 0.623341 0
M  V30 1925 O 207.773 1.3143 1.45269 0
M  V30 1926 H 206.353 0.67849 -0.312507 0
M  V30 1927 H 209.015 1.3556 -1.40033 0
M  V30 1928 H 208.111 2.87265 -1.22005 0
M  V30 1929 N 208.412 0.89855 1.29475 0
M  V30 1930 C 209.659 0.523882 1.95606 0
M  V30 1931 C 209.987 -0.929608 1.70847 0
M  V30 1932 O 209.242 -1.67401 1.01367 0
M  V30 1933 C 209.541 0.761398 3.49195 0
M  V30 1934 C 209.207 2.19207 3.94029 0
M  V30 1935 C 207.869 2.58326 4.05982 0
M  V30 1936 C 210.221 3.12379 4.17216 0
M  V30 1937 C 207.549 3.898 4.38489 0
M  V30 1938 C 209.901 4.43401 4.51197 0
M  V30 1939 C 208.565 4.82394 4.61359 0
M  V30 1940 H 207.835 0.191702 0.715773 0
M  V30 1941 H 210.482 1.13699 1.54094 0
M  V30 1942 H 208.787 0.0653622 3.91745 0
M  V30 1943 H 210.484 0.450904 3.98457 0
M  V30 1944 H 207.074 1.87846 3.85242 0
M  V30 1945 H 211.258 2.83371 4.07449 0
M  V30 1946 H 206.514 4.19734 4.44559 0
M  V30 1947 H 210.688 5.15623 4.68087 0
M  V30 1948 H 208.315 5.84306 4.86303 0
M  V30 1949 N 209.89 -1.43072 0.660911 0
M  V30 1950 C 210.84 -2.27948 -0.04847 0
M  V30 1951 C 211.824 -1.40325 -0.787246 0
M  V30 1952 O 213.016 -1.63893 -0.668446 0
M  V30 1953 C 210.145 -3.28143 -1.00881 0
M  V30 1954 C 209.231 -4.23252 -0.268108 0
M  V30 1955 N 209.622 -5.00656 0.719528 0
M  V30 1956 C 207.92 -4.43092 -0.508493 0
M  V30 1957 C 208.621 -5.70019 1.15988 0
M  V30 1958 N 207.597 -5.41364 0.492584 0
M  V30 1959 H 211.399 -2.85213 0.709279 0
M  V30 1960 H 208.913 -1.54869 0.488822 0
M  V30 1961 H 210.91 -3.87736 -1.53188 0
M  V30 1962 H 209.57 -2.7244 -1.76654 0
M  V30 1963 H 210.581 -5.06115 1.09855 0
M  V30 1964 H 207.258 -3.98449 -1.24679 0
M  V30 1965 H 208.648 -6.4214 1.97751 0
M  V30 1966 N 211.368 -0.403325 -1.52352 0
M  V30 1967 C 212.598 0.17376 -2.05868 0
M  V30 1968 C 213.006 1.39898 -1.27378 0
M  V30 1969 O 212.349 1.80939 -0.31729 0
M  V30 1970 C 212.411 0.594756 -3.54546 0
M  V30 1971 C 212.075 -0.518926 -4.54044 0
M  V30 1972 C 213.072 -1.3807 -5.01231 0
M  V30 1973 C 210.757 -0.689961 -4.97539 0
M  V30 1974 C 212.751 -2.39852 -5.90551 0
M  V30 1975 C 210.438 -1.71109 -5.86656 0
M  V30 1976 C 211.436 -2.56378 -6.33056 0
M  V30 1977 O 211.124 -3.56743 -7.20409 0
M  V30 1978 H 210.856 0.0264951 -0.675481 0
M  V30 1979 H 213.41 -0.571179 -1.97299 0
M  V30 1980 H 211.64 1.39189 -3.60782 0
M  V30 1981 H 213.329 1.0991 -3.90736 0
M  V30 1982 H 214.095 -1.25994 -4.68349 0
M  V30 1983 H 209.974 -0.035939 -4.60986 0
M  V30 1984 H 213.518 -3.06441 -6.26689 0
M  V30 1985 H 209.415 -1.83218 -6.18952 0
M  V30 1986 H 210.183 -3.52918 -7.38506 0
M  V30 1987 N 212.846 1.57033 -0.133567 0
M  V30 1988 C 214.094 1.953 0.519848 0
M  V30 1989 C 214.415 1.01866 1.66278 0
M  V30 1990 O 213.685 0.0776513 1.95746 0
M  V30 1991 H 212.265 0.721091 0.195032 0
M  V30 1992 H 214.927 1.93809 -0.205921 0
M  V30 1993 H 214.023 2.98695 0.904854 0
M  V30 1994 N 214.325 -0.140222 1.56975 0
M  V30 1995 C 215.571 -0.852949 1.83991 0
M  V30 1996 C 215.904 -1.80512 0.716187 0
M  V30 1997 O 215.179 -1.92479 -0.279681 0
M  V30 1998 C 215.462 -1.6215 3.21527 0
M  V30 1999 C 215.315 -0.690363 4.4447 0
M  V30 2000 C 216.634 -2.58247 3.56366 0
M  V30 2001 H 213.753 -0.308634 0.669264 0
M  V30 2002 H 216.395 -0.117898 1.89634 0
M  V30 2003 H 214.545 -2.24812 3.16847 0
M  V30 2004 H 216.217 -0.0742264 4.6124 0
M  V30 2005 H 214.46 -0.000396433 4.338 0
M  V30 2006 H 215.131 -1.2643 5.37326 0
M  V30 2007 H 217.607 -2.05701 3.61699 0
M  V30 2008 H 216.483 -3.09067 4.53617 0
M  V30 2009 H 216.744 -3.39923 2.82674 0
M  V30 2010 N 215.803 -1.52179 -0.40978 0
M  V30 2011 C 216.753 -1.71857 -1.49831 0
M  V30 2012 C 217.737 -0.572469 -1.50372 0
M  V30 2013 O 218.929 -0.829509 -1.56359 0
M  V30 2014 C 216.058 -1.87206 -2.87765 0
M  V30 2015 C 215.144 -3.07685 -2.91875 0
M  V30 2016 N 215.535 -4.30403 -2.65683 0
M  V30 2017 C 213.833 -3.07505 -3.23043 0
M  V30 2018 C 214.534 -5.11868 -2.76344 0
M  V30 2019 N 213.51 -4.47101 -3.09195 0
M  V30 2020 H 217.312 -2.64381 -1.28375 0
M  V30 2021 H 214.826 -1.50203 -0.617479 0
M  V30 2022 H 216.823 -1.99419 -3.66111 0
M  V30 2023 H 215.483 -0.958814 -3.10221 0
M  V30 2024 H 216.494 -4.58887 -2.4009 0
M  V30 2025 H 213.171 -2.25915 -3.51096 0
M  V30 2026 H 214.561 -6.19634 -2.59814 0
M  V30 2027 N 217.281 0.66697 -1.42791 0
M  V30 2028 C 218.244 1.76211 -1.46568 0
M  V30 2029 C 219.244 1.56896 -0.352196 0
M  V30 2030 O 220.434 1.63044 -0.613364 0
M  V30 2031 C 217.566 3.14935 -1.30494 0
M  V30 2032 H 218.759 1.74247 -2.44086 0
M  V30 2033 H 216.312 0.877342 -1.29354 0
M  V30 2034 H 217.047 3.2252 -0.339301 0
M  V30 2035 H 216.832 3.30359 -2.11199 0
M  V30 2036 H 218.322 3.94821 -1.36038 0
M  V30 2037 N 218.759 1.29093 0.90403 0
M  V30 2038 C 219.999 1.18076 1.66845 0
M  V30 2039 C 220.363 -0.26436 1.90171 0
M  V30 2040 O 221.564 -0.497423 2.64157 0
M  V30 2041 C 219.835 1.96722 2.98388 0
M  V30 2042 S 221.394 2.0219 3.89441 0
M  V30 2043 H 218.212 0.421104 0.572881 0
M  V30 2044 H 220.814 1.63322 1.07453 0
M  V30 2045 H 219.518 3.00866 2.7912 0
M  V30 2046 H 219.049 1.52064 3.62823 0
M  V30 2047 H 221.064 1.13545 4.83034 0
M  V30 2048 N 220.237 -1.11381 1.11499 0
M  V30 2049 C 221.147 -2.21019 0.786628 0
M  V30 2050 C 222.163 -1.72597 -0.220507 0
M  V30 2051 O 223.339 -2.01321 -0.0565251 0
M  V30 2052 C 220.404 -3.459 0.235333 0
M  V30 2053 C 219.465 -4.09107 1.30115 0
M  V30 2054 C 218.698 -5.28027 0.776068 0
M  V30 2055 O 218.921 -5.6904 -0.393661 0
M  V30 2056 O 217.855 -5.81835 1.54114 0
M  V30 2057 H 221.681 -2.51521 1.70209 0
M  V30 2058 H 219.266 -1.19928 0.890928 0
M  V30 2059 H 221.148 -4.21346 -0.067715 0
M  V30 2060 H 219.823 -3.17049 -0.652828 0
M  V30 2061 H 218.73 -3.35391 1.65722 0
M  V30 2062 H 220.063 -4.42139 2.16273 0
M  V30 2063 N 221.715 -0.905404 -1.28997 0
M  V30 2064 C 222.963 -0.533192 -1.9494 0
M  V30 2065 C 223.284 0.924618 -1.71685 0
M  V30 2066 O 222.554 1.65268 -1.05183 0
M  V30 2067 H 221.134 -0.194194 -0.721317 0
M  V30 2068 H 223.796 -1.15294 -1.57141 0
M  V30 2069 H 222.892 -0.72059 -3.03667 0
M  V30 2070 N 223.193 1.4272 -0.668489 0
M  V30 2071 C 224.433 2.03497 -0.19194 0
M  V30 2072 C 224.797 1.51684 1.17712 0
M  V30 2073 O 225.998 2.04205 1.74796 0
M  V30 2074 C 224.269 3.56734 -0.218032 0
M  V30 2075 S 225.828 4.38395 0.188438 0
M  V30 2076 H 222.646 0.706542 -0.0794959 0
M  V30 2077 H 225.248 1.74563 -0.880235 0
M  V30 2078 H 223.952 3.91943 -1.2169 0
M  V30 2079 H 223.483 3.90333 0.490303 0
M  V30 2080 H 225.498 4.75345 1.42345 0
M  V30 2081 N 224.671 0.411399 1.52136 0
M  V30 2082 C 225.618 -0.412975 2.27075 0
M  V30 2083 C 226.588 -1.03912 1.29582 0
M  V30 2084 O 227.773 -1.06296 1.58448 0
M  V30 2085 C 224.913 -1.52247 3.09701 0
M  V30 2086 C 224.026 -0.917021 4.22155 0
M  V30 2087 C 223.161 -1.9994 4.92135 0
M  V30 2088 C 222.2 -1.37101 5.96548 0
M  V30 2089 N 221.337 -2.39364 6.60038 0
M  V30 2090 H 226.177 0.232499 2.97092 0
M  V30 2091 H 223.714 0.126496 1.46555 0
M  V30 2092 H 225.672 -2.17674 3.55913 0
M  V30 2093 H 224.302 -2.13794 2.41851 0
M  V30 2094 H 223.354 -0.151742 3.80097 0
M  V30 2095 H 224.666 -0.418006 4.97045 0
M  V30 2096 H 223.82 -2.73088 5.41763 0
M  V30 2097 H 222.559 -2.53208 4.16818 0
M  V30 2098 H 221.564 -0.624873 5.46237 0
M  V30 2099 H 222.789 -0.845998 6.7381 0
M  V30 2100 H 220.735 -2.91759 5.87548 0
M  V30 2101 H 220.652 -1.9428 7.3061 0
M  V30 2102 H 221.92 -3.12074 7.14304 0
M  V30 2103 N 226.149 -1.5696 0.141893 0
M  V30 2104 C 227.397 -1.95573 -0.509484 0
M  V30 2105 C 227.718 -1.02746 -1.65736 0
M  V30 2106 O 226.988 -0.0880311 -1.95702 0
M  V30 2107 H 225.568 -0.722115 -0.191205 0
M  V30 2108 H 228.23 -1.93697 0.216196 0
M  V30 2109 H 227.326 -2.99171 -0.889 0
M  V30 2110 N 227.627 0.131896 -1.57047 0
M  V30 2111 C 228.874 0.841932 -1.84168 0
M  V30 2112 C 229.202 1.8048 -0.725066 0
M  V30 2113 O 228.457 1.93618 0.284692 0
M  V30 2114 C 228.756 1.63703 -3.17704 0
M  V30 2115 C 228.422 0.81961 -4.43388 0
M  V30 2116 C 227.084 0.594148 -4.77518 0
M  V30 2117 C 229.436 0.248977 -5.20605 0
M  V30 2118 C 226.764 -0.212409 -5.86315 0
M  V30 2119 C 229.116 -0.544701 -6.30251 0
M  V30 2120 C 227.78 -0.780599 -6.6292 0
M  V30 2121 H 227.05 0.308085 -0.673917 0
M  V30 2122 H 229.697 0.104867 -1.91213 0
M  V30 2123 H 228.002 2.44464 -3.06177 0
M  V30 2124 H 229.699 2.19015 -3.35907 0
M  V30 2125 H 226.289 1.00542 -4.16641 0
M  V30 2126 H 230.473 0.410408 -4.946 0
M  V30 2127 H 225.729 -0.404524 -6.1006 0
M  V30 2128 H 229.903 -0.993922 -6.89271 0
M  V30 2129 H 227.53 -1.40742 -7.47058 0
M  V30 2130 N 229.106 1.52395 0.401703 0
M  V30 2131 C 230.353 1.66817 1.14796 0
M  V30 2132 C 230.681 0.401772 1.90305 0
M  V30 2133 O 229.936 -0.615487 1.85769 0
M  V30 2134 C 230.235 2.84578 2.16217 0
M  V30 2135 C 229.901 4.22513 1.5746 0
M  V30 2136 C 228.563 4.60029 1.41161 0
M  V30 2137 C 230.915 5.0844 1.14622 0
M  V30 2138 C 228.243 5.81144 0.80552 0
M  V30 2139 C 230.595 6.30167 0.55428 0
M  V30 2140 C 229.259 6.66426 0.378482 0
M  V30 2141 H 228.529 0.610428 0.420069 0
M  V30 2142 H 231.176 1.86512 0.434212 0
M  V30 2143 H 229.481 2.59248 2.93764 0
M  V30 2144 H 231.178 2.92933 2.73845 0
M  V30 2145 H 227.768 3.92953 1.71132 0
M  V30 2146 H 231.952 4.80034 1.26021 0
M  V30 2147 H 227.208 6.07855 0.657399 0
M  V30 2148 H 231.382 6.96071 0.213983 0
M  V30 2149 H 229.009 7.60143 -0.0932606 0
M  V30 2150 N 230.584 -0.659388 1.43143 0
M  V30 2151 C 232 -0.974337 1.26407 0
M  V30 2152 C 232.2 -2.007 0.179341 0
M  V30 2153 O 231.256 -2.4856 -0.444295 0
M  V30 2154 C 232.569 -1.46447 2.62628 0
M  V30 2155 C 234.117 -1.58144 2.7011 0
M  V30 2156 C 234.592 -2.1055 4.06734 0
M  V30 2157 N 236.083 -2.17861 4.08767 0
M  V30 2158 C 236.818 -2.59519 5.1131 0
M  V30 2159 N 236.314 -3.00518 6.24228 0
M  V30 2160 N 238.107 -2.59404 4.98664 0
M  V30 2161 H 230.258 0.0240528 2.12386 0
M  V30 2162 H 232.521 -0.0518065 0.946583 0
M  V30 2163 H 232.227 -0.780123 3.42939 0
M  V30 2164 H 232.101 -2.44058 2.87603 0
M  V30 2165 H 234.488 -2.25682 1.90136 0
M  V30 2166 H 234.569 -0.589828 2.48907 0
M  V30 2167 H 234.213 -1.43616 4.87172 0
M  V30 2168 H 234.143 -3.10531 4.25298 0
M  V30 2169 H 236.634 -1.88975 3.27257 0
M  V30 2170 H 236.947 -3.31036 6.98309 0
M  V30 2171 H 235.292 -2.98337 6.2771 0
M  V30 2172 H 238.483 -2.26747 4.09516 0
M  V30 2173 H 238.656 -2.91548 5.78709 0
M  V30 2174 N 232.062 -1.29571 -0.897171 0
M  V30 2175 C 233.478 -1.07637 -1.17841 0
M  V30 2176 C 233.678 0.170713 -2.00776 0
M  V30 2177 O 232.734 0.867768 -2.3712 0
M  V30 2178 C 234.047 -2.3332 -1.8969 0
M  V30 2179 C 235.595 -2.38664 -2.02505 0
M  V30 2180 C 236.07 -3.64157 -2.77765 0
M  V30 2181 N 237.561 -3.64894 -2.85318 0
M  V30 2182 C 238.296 -4.58679 -3.44094 0
M  V30 2183 N 237.792 -5.62799 -4.04017 0
M  V30 2184 N 239.585 -4.46245 -3.41793 0
M  V30 2185 H 231.736 -2.09598 -0.343883 0
M  V30 2186 H 233.999 -0.923333 -0.214848 0
M  V30 2187 H 233.705 -3.24262 -1.36187 0
M  V30 2188 H 233.579 -2.41025 -2.9015 0
M  V30 2189 H 235.966 -1.48208 -2.55183 0
M  V30 2190 H 236.047 -2.34943 -1.01171 0
M  V30 2191 H 235.691 -4.54965 -2.25763 0
M  V30 2192 H 235.621 -3.65137 -3.7945 0
M  V30 2193 H 238.112 -2.89613 -2.42761 0
M  V30 2194 H 238.425 -6.3048 -4.46895 0
M  V30 2195 H 236.77 -5.66605 -4.02472 0
M  V30 2196 H 239.961 -3.64094 -2.94199 0
M  V30 2197 H 240.134 -5.19518 -3.87304 0
M  V30 2198 N 233.54 1.10788 -1.12088 0
M  V30 2199 C 234.765 1.87002 -0.896949 0
M  V30 2200 C 235.19 1.79933 0.548261 0
M  V30 2201 O 234.548 1.16662 1.38779 0
M  V30 2202 C 234.596 3.3349 -1.37174 0
M  V30 2203 O 233.7 4.08745 -0.547831 0
M  V30 2204 H 233.041 0.580397 -0.322545 0
M  V30 2205 H 235.571 1.39996 -1.49206 0
M  V30 2206 H 235.581 3.84339 -1.36922 0
M  V30 2207 H 234.256 3.37951 -2.42408 0
M  V30 2208 H 232.833 3.6776 -0.617034 0
M  V30 2209 N 235.018 0.912232 1.28515 0
M  V30 2210 C 236.267 0.540504 1.94323 0
M  V30 2211 C 236.58 -0.920044 1.72611 0
M  V30 2212 O 237.786 -1.39986 2.32629 0
M  V30 2213 C 236.242 0.915803 3.48053 0
M  V30 2214 C 235.85 2.39598 3.78546 0
M  V30 2215 C 237.594 0.614588 4.20027 0
M  V30 2216 C 235.501 2.71148 5.25578 0
M  V30 2217 H 234.431 0.198418 0.727424 0
M  V30 2218 H 237.082 1.11094 1.46049 0
M  V30 2219 H 235.464 0.274168 3.9505 0
M  V30 2220 H 236.638 3.08422 3.42364 0
M  V30 2221 H 234.953 2.66749 3.1974 0
M  V30 2222 H 237.55 0.827002 5.28266 0
M  V30 2223 H 237.893 -0.447531 4.13887 0
M  V30 2224 H 238.426 1.21462 3.78803 0
M  V30 2225 H 235.165 3.76207 5.36794 0
M  V30 2226 H 234.685 2.0696 5.62963 0
M  V30 2227 H 236.364 2.58072 5.93302 0
M  V30 2228 N 236.496 -1.42363 0.676048 0
M  V30 2229 C 237.428 -2.29164 -0.0404605 0
M  V30 2230 C 238.441 -1.43747 -0.764245 0
M  V30 2231 O 239.63 -1.67453 -0.618195 0
M  V30 2232 C 236.73 -3.21196 -1.08103 0
M  V30 2233 C 235.903 -4.35273 -0.430812 0
M  V30 2234 C 234.962 -5.08017 -1.37133 0
M  V30 2235 O 233.988 -5.62494 -0.87116 0
M  V30 2236 N 235.19 -5.13647 -2.70456 0
M  V30 2237 H 237.955 -2.91298 0.704667 0
M  V30 2238 H 235.516 -1.53303 0.520559 0
M  V30 2239 H 237.508 -3.66728 -1.71152 0
M  V30 2240 H 236.078 -2.60505 -1.72788 0
M  V30 2241 H 235.298 -3.92372 0.379209 0
M  V30 2242 H 236.586 -5.08795 0.0221132 0
M  V30 2243 H 235.984 -4.708 -3.1363 0
M  V30 2244 H 234.541 -5.62821 -3.28749 0
M  V30 2245 N 237.974 -0.419461 -1.51915 0
M  V30 2246 C 238.906 0.43646 -2.25006 0
M  V30 2247 C 239.919 1.00149 -1.28351 0
M  V30 2248 O 241.108 0.898674 -1.54227 0
M  V30 2249 C 238.208 1.6206 -2.9764 0
M  V30 2250 C 237.381 1.17763 -4.21249 0
M  V30 2251 C 236.44 2.22985 -4.76617 0
M  V30 2252 O 235.466 1.83151 -5.38929 0
M  V30 2253 N 236.668 3.55271 -4.59089 0
M  V30 2254 H 239.433 -0.18989 -2.99098 0
M  V30 2255 H 236.994 -0.247386 -1.59999 0
M  V30 2256 H 238.986 2.32038 -3.31573 0
M  V30 2257 H 237.556 2.15266 -2.2667 0
M  V30 2258 H 236.776 0.305582 -3.93014 0
M  V30 2259 H 238.064 0.858781 -5.015 0
M  V30 2260 H 237.462 3.90377 -4.09417 0
M  V30 2261 H 236.019 4.21195 -4.97432 0
M  V30 2262 N 239.452 1.56882 -0.150215 0
M  V30 2263 C 240.4 2.18214 0.805313 0
M  V30 2264 C 241.394 1.14006 1.25296 0
M  V30 2265 O 242.6 1.3225 1.22107 0
M  V30 2266 H 238.975 0.698762 0.277913 0
M  V30 2267 H 240.946 2.97231 0.263862 0
M  V30 2268 C 239.695 2.82065 2.03309 0
M  V30 2269 H 239.018 3.61968 1.69763 0
M  V30 2270 H 240.458 3.28477 2.68103 0
M  V30 2271 C 238.917 1.80739 2.84315 0
M  V30 2272 O 239.447 1.27983 3.80767 0
M  V30 2273 N 237.653 1.4997 2.48913 0
M  V30 2274 H 237.2 1.93062 1.70542 0
M  V30 2275 H 237.158 0.824217 3.03404 0
M  V30 2276 N 240.93 -0.123565 1.57115 0
M  V30 2277 C 242.179 -0.830704 1.83799 0
M  V30 2278 C 242.492 -1.81259 0.735158 0
M  V30 2279 O 243.698 -2.56558 0.888278 0
M  V30 2280 C 242.154 -1.52802 3.25852 0
M  V30 2281 C 241.762 -0.587356 4.44133 0
M  V30 2282 C 243.506 -2.22056 3.61789 0
M  V30 2283 C 241.413 -1.28764 5.77212 0
M  V30 2284 H 240.343 -0.313967 0.685522 0
M  V30 2285 H 242.994 -0.0834359 1.8331 0
M  V30 2286 H 241.376 -2.32175 3.20797 0
M  V30 2287 H 242.55 0.172829 4.60476 0
M  V30 2288 H 240.865 -0.00201892 4.164 0
M  V30 2289 H 243.462 -2.75131 4.58483 0
M  V30 2290 H 243.805 -2.99644 2.88997 0
M  V30 2291 H 244.338 -1.49576 3.68608 0
M  V30 2292 H 241.077 -0.55314 6.53162 0
M  V30 2293 H 240.597 -2.01995 5.64764 0
M  V30 2294 H 242.276 -1.8221 6.20813 0
M  V30 2295 N 242.408 -1.52605 -0.393616 0
M  V30 2296 C 243.34 -1.73303 -1.49995 0
M  V30 2297 C 244.353 -0.613473 -1.50799 0
M  V30 2298 O 245.542 -0.889049 -1.54784 0
M  V30 2299 C 242.642 -1.77245 -2.88855 0
M  V30 2300 C 241.815 -3.06483 -3.12069 0
M  V30 2301 C 240.874 -3.02033 -4.30886 0
M  V30 2302 O 239.9 -3.75907 -4.27414 0
M  V30 2303 N 241.102 -2.20897 -5.36828 0
M  V30 2304 H 243.867 -2.68756 -1.32629 0
M  V30 2305 H 241.428 -1.51036 -0.583083 0
M  V30 2306 H 243.42 -1.7178 -3.66434 0
M  V30 2307 H 241.99 -0.891993 -2.99603 0
M  V30 2308 H 241.21 -3.25474 -2.22396 0
M  V30 2309 H 242.498 -3.91947 -3.2443 0
M  V30 2310 H 241.896 -1.60336 -5.42502 0
M  V30 2311 H 240.453 -2.21275 -6.13091 0
M  V30 2312 N 243.887 0.651787 -1.4349 0
M  V30 2313 C 245.117 1.43728 -1.48411 0
M  V30 2314 C 245.525 1.8893 -0.10103 0
M  V30 2315 O 244.868 1.60182 0.899307 0
M  V30 2316 C 244.93 2.70411 -2.36893 0
M  V30 2317 C 244.594 2.4714 -3.8441 0
M  V30 2318 C 245.591 2.10271 -4.75481 0
M  V30 2319 C 243.276 2.6142 -4.28912 0
M  V30 2320 C 245.27 1.87982 -6.0905 0
M  V30 2321 C 242.957 2.38746 -5.62533 0
M  V30 2322 C 243.955 2.02083 -6.5242 0
M  V30 2323 O 243.643 1.79647 -7.8357 0
M  V30 2324 H 243.375 0.447962 -0.506267 0
M  V30 2325 H 245.929 0.80624 -1.88915 0
M  V30 2326 H 244.159 3.36079 -1.91278 0
M  V30 2327 H 245.848 3.32364 -2.33 0
M  V30 2328 H 246.614 1.98814 -4.42378 0
M  V30 2329 H 242.493 2.88931 -3.59222 0
M  V30 2330 H 246.037 1.5929 -6.7917 0
M  V30 2331 H 241.934 2.49806 -5.95203 0
M  V30 2332 H 242.702 1.9406 -7.95162 0
M  V30 2333 N 245.365 1.30045 0.890287 0
M  V30 2334 C 246.312 1.15976 1.99545 0
M  V30 2335 C 247.282 0.0506202 1.66023 0
M  V30 2336 O 248.467 0.219847 1.89529 0
M  V30 2337 C 245.607 0.852054 3.34416 0
M  V30 2338 C 244.72 2.04255 3.80662 0
M  V30 2339 C 243.855 1.6734 5.04154 0
M  V30 2340 C 242.894 2.82916 5.42794 0
M  V30 2341 N 242.031 2.46333 6.57468 0
M  V30 2342 H 246.871 2.10524 2.10911 0
M  V30 2343 H 244.408 1.04749 1.03276 0
M  V30 2344 H 246.366 0.654296 4.12037 0
M  V30 2345 H 244.996 -0.0565502 3.2275 0
M  V30 2346 H 244.048 2.35172 2.98995 0
M  V30 2347 H 245.36 2.90826 4.05242 0
M  V30 2348 H 244.514 1.43908 5.89386 0
M  V30 2349 H 243.253 0.779308 4.81433 0
M  V30 2350 H 242.258 3.0702 4.56091 0
M  V30 2351 H 243.483 3.73004 5.6749 0
M  V30 2352 H 241.429 1.59423 6.36334 0
M  V30 2353 H 241.346 3.26436 6.81891 0
M  V30 2354 H 242.614 2.26244 7.45945 0
M  V30 2355 N 246.843 -1.10192 1.12674 0
M  V30 2356 C 248.259 -1.34235 0.863317 0
M  V30 2357 C 248.459 -1.95062 -0.505277 0
M  V30 2358 O 247.515 -2.19192 -1.25345 0
M  V30 2359 C 248.828 -2.2616 1.98172 0
M  V30 2360 C 250.376 -2.3969 2.0129 0
M  V30 2361 C 250.851 -3.34946 3.1237 0
M  V30 2362 N 252.342 -3.42515 3.11829 0
M  V30 2363 C 253.077 -4.16199 3.94419 0
M  V30 2364 N 252.573 -4.92747 4.87004 0
M  V30 2365 N 254.366 -4.11843 3.82547 0
M  V30 2366 H 246.517 -0.690798 2.00853 0
M  V30 2367 H 248.78 -0.366774 0.874174 0
M  V30 2368 H 248.486 -1.8868 2.96804 0
M  V30 2369 H 248.36 -3.26488 1.88906 0
M  V30 2370 H 250.747 -2.76438 1.03276 0
M  V30 2371 H 250.828 -1.39169 2.14629 0
M  V30 2372 H 250.472 -2.98923 4.10619 0
M  V30 2373 H 250.402 -4.35353 2.96269 0
M  V30 2374 H 252.893 -2.87926 2.44759 0
M  V30 2375 H 253.206 -5.46376 5.46528 0
M  V30 2376 H 251.551 -4.91862 4.91016 0
M  V30 2377 H 254.742 -3.51136 3.0955 0
M  V30 2378 H 254.915 -4.69007 4.47142 0
M  V30 2379 N 248.321 -0.919034 -1.28029 0
M  V30 2380 C 249.561 -0.562107 -1.96519 0
M  V30 2381 C 249.925 0.878784 -1.70708 0
M  V30 2382 O 251.126 1.34355 -2.32813 0
M  V30 2383 C 249.397 -0.868953 -3.46676 0
M  V30 2384 S 250.956 -0.619237 -4.34409 0
M  V30 2385 H 247.774 -0.2078 -0.679956 0
M  V30 2386 H 250.376 -1.18562 -1.55446 0
M  V30 2387 H 249.08 -1.91547 -3.62957 0
M  V30 2388 H 248.611 -0.234301 -3.92702 0
M  V30 2389 H 250.626 0.526995 -4.93394 0
M  V30 2390 N 249.799 1.42003 -0.683588 0
M  V30 2391 C 250.729 2.33487 -0.024866 0
M  V30 2392 C 251.71 1.51163 0.779975 0
M  V30 2393 O 252.895 1.79739 0.735362 0
M  V30 2394 C 250.025 3.3487 0.920836 0
M  V30 2395 C 248.979 4.27414 0.223958 0
M  V30 2396 C 248.305 5.19074 1.2832 0
M  V30 2397 C 249.605 5.14445 -0.90242 0
M  V30 2398 H 251.299 2.88819 -0.788921 0
M  V30 2399 H 248.845 1.38873 -0.38083 0
M  V30 2400 H 250.798 3.97787 1.39081 0
M  V30 2401 H 249.522 2.77861 1.71642 0
M  V30 2402 H 248.181 3.65904 -0.225864 0
M  V30 2403 H 247.829 4.58387 2.071 0
M  V30 2404 H 247.529 5.81822 0.821995 0
M  V30 2405 H 249.053 5.84867 1.75392 0
M  V30 2406 H 250.467 5.70998 -0.513272 0
M  V30 2407 H 248.864 5.86072 -1.28997 0
M  V30 2408 H 249.934 4.52322 -1.74737 0
M  V30 2409 N 251.277 0.427512 1.51691 0
M  V30 2410 C 252.224 -0.388867 2.275 0
M  V30 2411 C 253.194 -1.02532 1.30677 0
M  V30 2412 O 254.379 -1.0461 1.59566 0
M  V30 2413 C 251.519 -1.48954 3.11298 0
M  V30 2414 C 250.632 -0.872194 4.23104 0
M  V30 2415 C 249.767 -1.94709 4.94228 0
M  V30 2416 C 248.806 -1.30766 5.97969 0
M  V30 2417 N 247.943 -2.32349 6.62539 0
M  V30 2418 H 252.783 0.263997 2.96828 0
M  V30 2419 H 250.32 0.142033 1.46413 0
M  V30 2420 H 252.278 -2.13887 3.58201 0
M  V30 2421 H 250.908 -2.11217 2.44105 0
M  V30 2422 H 249.96 -0.111419 3.80237 0
M  V30 2423 H 251.272 -0.365264 4.97461 0
M  V30 2424 H 250.426 -2.67327 5.44629 0
M  V30 2425 H 249.165 -2.48773 4.1948 0
M  V30 2426 H 248.17 -0.566902 5.4687 0
M  V30 2427 H 249.395 -0.774483 6.74669 0
M  V30 2428 H 247.341 -2.85511 5.90609 0
M  V30 2429 H 247.258 -1.8652 7.3263 0
M  V30 2430 H 248.526 -3.04481 7.17574 0
M  V30 2431 N 252.755 -1.56801 0.158532 0
M  V30 2432 C 253.703 -2.18638 -0.793729 0
M  V30 2433 C 254.697 -1.14669 -1.24689 0
M  V30 2434 O 255.903 -1.32895 -1.21403 0
M  V30 2435 H 252.278 -0.700226 -0.274204 0
M  V30 2436 H 254.249 -2.97367 -0.248095 0
M  V30 2437 C 252.998 -2.83139 -2.0181 0
M  V30 2438 H 252.321 -3.62863 -1.67841 0
M  V30 2439 H 253.761 -3.29894 -2.66357 0
M  V30 2440 C 252.22 -1.82244 -2.83353 0
M  V30 2441 O 252.75 -1.3 -3.80083 0
M  V30 2442 N 250.956 -1.51288 -2.48114 0
M  V30 2443 H 250.503 -1.93964 -1.69516 0
M  V30 2444 H 250.461 -0.840296 -3.02963 0
M  V30 2445 N 254.233 0.115231 -1.57178 0
M  V30 2446 C 255.143 1.15994 -2.03918 0
M  V30 2447 C 256.159 1.45103 -0.960268 0
M  V30 2448 O 257.335 1.56144 -1.27204 0
M  V30 2449 C 254.4 2.46568 -2.43732 0
M  V30 2450 C 253.461 2.24822 -3.65723 0
M  V30 2451 C 252.694 3.4917 -4.03629 0
M  V30 2452 O 252.917 4.56623 -3.41835 0
M  V30 2453 O 251.851 3.39949 -4.96708 0
M  V30 2454 H 255.677 0.793019 -2.93164 0
M  V30 2455 H 253.262 0.3263 -1.45793 0
M  V30 2456 H 255.144 3.23492 -2.70057 0
M  V30 2457 H 253.819 2.82726 -1.57631 0
M  V30 2458 H 252.726 1.45744 -3.44542 0
M  V30 2459 H 254.059 1.93566 -4.52541 0
M  V30 2460 N 255.711 1.52812 0.385517 0
M  V30 2461 C 256.659 1.78482 1.49155 0
M  V30 2462 C 257.653 0.652914 1.56312 0
M  V30 2463 O 258.859 0.835464 1.59436 0
M  V30 2464 H 255.234 0.5648 0.496493 0
M  V30 2465 H 257.205 2.71095 1.24699 0
M  V30 2466 C 255.954 1.97378 2.86247 0
M  V30 2467 H 255.277 2.83907 2.81491 0
M  V30 2468 H 256.717 2.19327 3.62866 0
M  V30 2469 C 255.176 0.74728 3.28508 0
M  V30 2470 O 255.706 -0.0736232 4.01633 0
M  V30 2471 N 253.912 0.576396 2.84826 0
M  V30 2472 H 253.459 1.24555 2.25486 0
M  V30 2473 H 253.417 -0.24288 3.1346 0
M  V30 2474 N 257.189 -0.644168 1.43834 0
M  V30 2475 C 258.429 -1.41565 1.47441 0
M  V30 2476 C 258.793 -1.91743 0.0992723 0
M  V30 2477 O 259.994 -2.68798 0.0100192 0
M  V30 2478 C 258.265 -2.55902 2.49498 0
M  V30 2479 S 259.824 -3.44287 2.72051 0
M  V30 2480 H 256.642 -0.483118 0.521649 0
M  V30 2481 H 259.244 -0.747008 1.80666 0
M  V30 2482 H 257.948 -2.17327 3.48134 0
M  V30 2483 H 257.479 -3.27607 2.17801 0
M  V30 2484 H 259.494 -4.52927 2.0266 0
M  V30 2485 N 258.668 -1.30515 -0.883378 0
M  V30 2486 C 259.893 -1.22487 -1.67367 0
M  V30 2487 C 260.318 0.208767 -1.86938 0
M  V30 2488 O 259.676 1.15015 -1.40148 0
M  V30 2489 C 259.724 -1.96041 -3.02655 0
M  V30 2490 O 258.828 -1.28859 -3.91751 0
M  V30 2491 H 258.169 -0.423573 -0.511353 0
M  V30 2492 H 260.699 -1.72362 -1.10239 0
M  V30 2493 H 260.709 -2.05124 -3.52687 0
M  V30 2494 H 259.384 -3.00307 -2.8773 0
M  V30 2495 H 257.961 -1.28141 -3.50192 0
M  V30 2496 N 260.146 1.09593 -1.13257 0
M  V30 2497 C 261.395 1.81105 -0.887917 0
M  V30 2498 C 261.708 1.86563 0.587672 0
M  V30 2499 O 262.914 2.54367 0.949204 0
M  V30 2500 C 261.37 3.25338 -1.53895 0
M  V30 2501 C 260.978 3.28151 -3.04994 0
M  V30 2502 C 262.722 4.01617 -1.37492 0
M  V30 2503 C 260.629 4.66897 -3.6299 0
M  V30 2504 H 259.559 0.678661 -0.328534 0
M  V30 2505 H 262.21 1.23183 -1.36008 0
M  V30 2506 H 260.592 3.8331 -0.994446 0
M  V30 2507 H 261.766 2.79953 -3.66009 0
M  V30 2508 H 260.081 2.65361 -3.20893 0
M  V30 2509 H 262.678 5.04119 -1.78235 0
M  V30 2510 H 263.021 4.15072 -0.31957 0
M  V30 2511 H 263.554 3.50082 -1.88912 0
M  V30 2512 H 260.293 4.58643 -4.68323 0
M  V30 2513 H 259.813 5.15426 -3.06752 0
M  V30 2514 H 261.492 5.3587 -3.62563 0
M  V30 2515 N 261.624 0.925811 1.2754 0
M  V30 2516 C 262.87 0.566092 1.94739 0
M  V30 2517 C 263.203 -0.890057 1.72603 0
M  V30 2518 O 262.478 -1.63467 1.05399 0
M  V30 2519 C 262.761 0.89054 3.48915 0
M  V30 2520 C 262.614 2.4003 3.80402 0
M  V30 2521 C 263.933 0.395101 4.38323 0
M  V30 2522 H 261.052 0.20714 0.707292 0
M  V30 2523 H 263.694 1.15725 1.50691 0
M  V30 2524 H 261.844 0.387452 3.86563 0
M  V30 2525 H 263.516 2.97494 3.52555 0
M  V30 2526 H 261.759 2.85028 3.2702 0
M  V30 2527 H 262.43 2.57785 4.8811 0
M  V30 2528 H 264.906 0.826241 4.07814 0
M  V30 2529 H 263.782 0.651086 5.45025 0
M  V30 2530 H 264.043 -0.704798 4.36446 0
M  V30 2531 N 263.102 -1.41638 0.69111 0
M  V30 2532 C 264.518 -1.55435 0.362224 0
M  V30 2533 C 264.718 -1.66754 -1.13117 0
M  V30 2534 O 263.774 -1.64348 -1.91692 0
M  V30 2535 C 265.087 -2.79588 1.10684 0
M  V30 2536 C 266.635 -2.9338 1.09075 0
M  V30 2537 C 267.11 -4.20414 1.81703 0
M  V30 2538 N 268.601 -4.27362 1.7865 0
M  V30 2539 C 269.336 -5.24507 2.31689 0
M  V30 2540 N 268.832 -6.27708 2.93179 0
M  V30 2541 N 270.625 -5.16416 2.2197 0
M  V30 2542 H 262.776 -1.32536 1.65976 0
M  V30 2543 H 265.039 -0.639115 0.700168 0
M  V30 2544 H 264.745 -2.77419 2.16175 0
M  V30 2545 H 264.619 -3.70973 0.682545 0
M  V30 2546 H 267.006 -2.95067 0.0441238 0
M  V30 2547 H 267.087 -2.0318 1.55407 0
M  V30 2548 H 266.731 -4.19488 2.86343 0
M  V30 2549 H 266.661 -5.09578 1.32808 0
M  V30 2550 H 269.152 -3.53415 1.33815 0
M  V30 2551 H 269.465 -6.98217 3.31229 0
M  V30 2552 H 267.81 -6.28223 2.97255 0
M  V30 2553 H 271.001 -4.34716 1.73607 0
M  V30 2554 H 271.174 -5.91958 2.63609 0
M  V30 2555 N 264.58 -0.43555 -1.51462 0
M  V30 2556 C 265.829 0.133007 -2.01261 0
M  V30 2557 C 266.142 1.43942 -1.32439 0
M  V30 2558 O 267.348 2.09081 -1.73198 0
M  V30 2559 C 265.804 0.287581 -3.58749 0
M  V30 2560 C 265.412 -1.00829 -4.36506 0
M  V30 2561 C 267.156 0.810004 -4.167 0
M  V30 2562 C 265.063 -0.819454 -5.85695 0
M  V30 2563 H 263.993 0.0534822 -0.752101 0
M  V30 2564 H 266.644 -0.565038 -1.74584 0
M  V30 2565 H 265.026 1.04859 -3.81865 0
M  V30 2566 H 266.2 -1.77749 -4.25138 0
M  V30 2567 H 264.515 -1.45911 -3.89999 0
M  V30 2568 H 267.112 0.967743 -5.2587 0
M  V30 2569 H 267.455 1.79196 -3.75758 0
M  V30 2570 H 267.988 0.107357 -3.97655 0
M  V30 2571 H 264.727 -1.77374 -6.31046 0
M  V30 2572 H 264.247 -0.0900208 -5.99732 0
M  V30 2573 H 265.926 -0.471949 -6.45276 0
M  V30 2574 N 266.058 1.56714 -0.166846 0
M  V30 2575 C 267.006 2.19056 0.782123 0
M  V30 2576 C 268 1.15328 1.24079 0
M  V30 2577 O 269.206 1.33537 1.20697 0
M  V30 2578 H 265.581 0.70167 0.270486 0
M  V30 2579 H 267.552 2.97494 0.232322 0
M  V30 2580 C 266.301 2.84206 2.00306 0
M  V30 2581 H 265.624 3.63748 1.65914 0
M  V30 2582 H 267.064 3.31302 2.64604 0
M  V30 2583 C 265.523 1.83744 2.82382 0
M  V30 2584 O 266.053 1.32014 3.79388 0
M  V30 2585 N 264.259 1.52601 2.47308 0
M  V30 2586 H 263.806 1.9486 1.68485 0
M  V30 2587 H 263.764 0.856351 3.02513 0
M  V30 2588 N 267.536 -0.106894 1.57237 0
M  V30 2589 C 268.952 -0.46078 1.52804 0
M  V30 2590 C 269.152 -1.81184 0.881746 0
M  V30 2591 O 268.208 -2.48102 0.469224 0
M  V30 2592 C 269.521 -0.434127 2.9755 0
M  V30 2593 C 271.069 -0.516821 3.08704 0
M  V30 2594 C 271.544 -0.520436 4.55033 0
M  V30 2595 N 273.035 -0.58153 4.59535 0
M  V30 2596 C 273.77 -0.605973 5.70189 0
M  V30 2597 N 273.266 -0.587331 6.90306 0
M  V30 2598 N 275.059 -0.649895 5.5833 0
M  V30 2599 H 267.21 0.778203 1.9763 0
M  V30 2600 H 269.473 0.288403 0.903066 0
M  V30 2601 H 269.179 0.491197 3.48253 0
M  V30 2602 H 269.053 -1.25748 3.55622 0
M  V30 2603 H 271.44 -1.43256 2.57995 0
M  V30 2604 H 271.521 0.334449 2.53604 0
M  V30 2605 H 271.165 0.391313 5.0639 0
M  V30 2606 H 271.095 -1.38876 5.07958 0
M  V30 2607 H 273.586 -0.60161 3.73081 0
M  V30 2608 H 273.899 -0.60894 7.70397 0
M  V30 2609 H 272.244 -0.554564 6.92784 0
M  V30 2610 H 275.435 -0.661907 4.63397 0
M  V30 2611 H 275.608 -0.665476 6.44574 0
M  V30 2612 N 269.014 -1.53014 -0.377408 0
M  V30 2613 C 269.962 -1.7927 -1.48206 0
M  V30 2614 C 270.956 -0.661195 -1.55963 0
M  V30 2615 O 272.162 -0.843908 -1.58991 0
M  V30 2616 H 268.537 -0.567425 -0.493491 0
M  V30 2617 H 270.508 -2.71753 -1.2326 0
M  V30 2618 C 269.257 -1.98894 -2.85196 0
M  V30 2619 H 268.58 -2.85395 -2.79981 0
M  V30 2620 H 270.02 -2.21249 -3.61698 0
M  V30 2621 C 268.479 -0.764691 -3.28107 0
M  V30 2622 O 269.009 0.0523226 -4.01666 0
M  V30 2623 N 267.215 -0.591493 -2.84517 0
M  V30 2624 H 266.762 -1.25749 -2.24822 0
M  V30 2625 H 266.72 0.226253 -3.13585 0
M  V30 2626 N 270.492 0.636531 -1.44174 0
M  V30 2627 C 271.908 0.954104 -1.27941 0
M  V30 2628 C 272.108 2.0039 -0.211248 0
M  V30 2629 O 271.164 2.49236 0.404695 0
M  V30 2630 C 272.477 1.4225 -2.64925 0
M  V30 2631 C 274.025 1.53827 -2.72592 0
M  V30 2632 C 274.5 2.04053 -4.10032 0
M  V30 2633 N 275.991 2.11331 -4.12182 0
M  V30 2634 C 276.726 2.51352 -5.15374 0
M  V30 2635 N 276.222 2.90549 -6.2893 0
M  V30 2636 N 278.015 2.51438 -5.02728 0
M  V30 2637 H 270.166 -0.0578386 -2.12321 0
M  V30 2638 H 272.429 0.0367406 -0.947288 0
M  V30 2639 H 272.135 0.725466 -3.44136 0
M  V30 2640 H 272.009 2.39451 -2.9145 0
M  V30 2641 H 274.396 2.22628 -1.93702 0
M  V30 2642 H 274.477 0.550154 -2.49814 0
M  V30 2643 H 274.121 1.35848 -4.89395 0
M  V30 2644 H 274.051 3.03726 -4.30184 0
M  V30 2645 H 276.542 1.83745 -3.30222 0
M  V30 2646 H 276.855 3.19884 -7.03487 0
M  V30 2647 H 275.2 2.88313 -6.32377 0
M  V30 2648 H 278.391 2.20203 -4.13072 0
M  V30 2649 H 278.564 2.82304 -5.83274 0
M  V30 2650 N 271.97 1.30982 0.876444 0
M  V30 2651 C 273.21 1.21589 1.64303 0
M  V30 2652 C 273.574 -0.223962 1.90689 0
M  V30 2653 O 274.775 -0.44128 2.65153 0
M  V30 2654 C 273.046 2.03007 2.94148 0
M  V30 2655 S 274.605 2.10405 3.85065 0
M  V30 2656 H 271.423 0.433161 0.563819 0
M  V30 2657 H 274.025 1.65565 1.03964 0
M  V30 2658 H 272.729 3.06719 2.72675 0
M  V30 2659 H 272.26 1.59725 3.59515 0
M  V30 2660 H 274.275 1.23765 4.80517 0
M  V30 2661 N 273.449 -1.08991 1.13837 0
M  V30 2662 C 274.381 -2.15606 0.777612 0
M  V30 2663 C 275.394 -1.61533 -0.202739 0
M  V30 2664 O 276.583 -1.78491 0.0181055 0
M  V30 2665 C 273.683 -3.3864 0.132623 0
M  V30 2666 C 272.856 -4.22115 1.1462 0
M  V30 2667 C 271.915 -5.23564 0.526074 0
M  V30 2668 O 270.941 -5.56678 1.18735 0
M  V30 2669 N 272.143 -5.76266 -0.699866 0
M  V30 2670 H 274.908 -2.47159 1.69506 0
M  V30 2671 H 272.469 -1.24747 1.03198 0
M  V30 2672 H 274.461 -4.03626 -0.29459 0
M  V30 2673 H 273.031 -3.04938 -0.687849 0
M  V30 2674 H 272.251 -3.53199 1.75055 0
M  V30 2675 H 273.539 -4.74709 1.83109 0
M  V30 2676 H 272.937 -5.51585 -1.25581 0
M  V30 2677 H 271.494 -6.42963 -1.06968 0
M  V30 2678 N 274.927 -0.932562 -1.27047 0
M  V30 2679 C 275.859 -0.392734 -2.2581 0
M  V30 2680 C 276.872 0.479241 -1.55586 0
M  V30 2681 O 278.061 0.291078 -1.76111 0
M  V30 2682 C 275.161 0.455456 -3.35826 0
M  V30 2683 C 274.334 -0.398355 -4.35582 0
M  V30 2684 C 273.393 0.387985 -5.24768 0
M  V30 2685 O 272.419 -0.206003 -5.68827 0
M  V30 2686 N 273.621 1.68664 -5.55457 0
M  V30 2687 H 276.386 -1.24173 -2.72766 0
M  V30 2688 H 273.947 -0.800511 -1.40725 0
M  V30 2689 H 275.939 0.988692 -3.92437 0
M  V30 2690 H 274.509 1.20522 -2.88432 0
M  V30 2691 H 273.729 -1.11286 -3.78165 0
M  V30 2692 H 275.017 -0.981889 -4.99236 0
M  V30 2693 H 274.415 2.19147 -5.21528 0
M  V30 2694 H 272.972 2.1663 -6.14748 0
M  V30 2695 N 276.405 1.4127 -0.698611 0
M  V30 2696 C 277.645 2.03044 -0.235062 0
M  V30 2697 C 278.009 1.54146 1.14468 0
M  V30 2698 O 279.21 2.07867 1.70425 0
M  V30 2699 C 277.481 3.56192 -0.293651 0
M  V30 2700 S 279.04 4.38696 0.0954053 0
M  V30 2701 H 275.858 0.704697 -0.0944648 0
M  V30 2702 H 278.46 1.72656 -0.917064 0
M  V30 2703 H 277.164 3.89274 -1.29977 0
M  V30 2704 H 276.695 3.91285 0.407397 0
M  V30 2705 H 278.71 4.78257 1.3223 0
M  V30 2706 N 277.883 0.443576 1.51229 0
M  V30 2707 C 279.299 0.0962001 1.5931 0
M  V30 2708 C 279.499 -1.39501 1.45402 0
M  V30 2709 O 278.555 -2.16557 1.29843 0
M  V30 2710 C 279.868 0.621875 2.94199 0
M  V30 2711 C 281.416 0.582865 3.07525 0
M  V30 2712 C 281.891 1.08562 4.44948 0
M  V30 2713 N 283.382 1.04387 4.51284 0
M  V30 2714 C 284.117 1.40368 5.55954 0
M  V30 2715 N 283.613 1.83664 6.68011 0
M  V30 2716 N 285.406 1.32145 5.46346 0
M  V30 2717 H 277.557 1.41376 1.58514 0
M  V30 2718 H 279.82 0.582965 0.747567 0
M  V30 2719 H 279.526 1.66546 3.09767 0
M  V30 2720 H 279.4 0.0502125 3.77167 0
M  V30 2721 H 281.787 -0.451749 2.91622 0
M  V30 2722 H 281.868 1.191 2.26382 0
M  V30 2723 H 281.512 2.11873 4.61598 0
M  V30 2724 H 281.442 0.453956 5.2464 0
M  V30 2725 H 283.933 0.725986 3.70861 0
M  V30 2726 H 284.246 2.0934 7.43906 0
M  V30 2727 H 282.591 1.87596 6.69203 0
M  V30 2728 H 285.782 0.981808 4.57688 0
M  V30 2729 H 285.955 1.60514 6.27805 0
M  V30 2730 N 279.361 -1.56624 0.175154 0
M  V30 2731 C 280.608 -1.96999 -0.468811 0
M  V30 2732 C 280.936 -1.06129 -1.62994 0
M  V30 2733 O 280.191 -0.0961771 -1.95464 0
M  V30 2734 C 280.49 -3.43419 -0.989864 0
M  V30 2735 C 280.156 -4.50866 0.0557687 0
M  V30 2736 C 278.818 -4.79975 0.343134 0
M  V30 2737 C 281.17 -5.15551 0.765308 0
M  V30 2738 C 278.498 -5.71066 1.34536 0
M  V30 2739 C 280.85 -6.07724 1.75654 0
M  V30 2740 C 279.514 -6.35199 2.05132 0
M  V30 2741 H 278.784 -0.720869 -0.17155 0
M  V30 2742 H 281.431 -1.89616 0.267924 0
M  V30 2743 H 279.736 -3.47772 -1.80449 0
M  V30 2744 H 281.433 -3.72002 -1.49719 0
M  V30 2745 H 278.023 -4.28229 -0.178381 0
M  V30 2746 H 282.207 -4.9317 0.556513 0
M  V30 2747 H 277.463 -5.90635 1.57988 0
M  V30 2748 H 281.637 -6.56912 2.31169 0
M  V30 2749 H 279.264 -7.05584 2.8294 0
M  V30 2750 N 280.839 0.0985539 -1.57292 0
M  V30 2751 C 281.786 1.11981 -2.01814 0
M  V30 2752 C 282.756 1.39999 -0.89384 0
M  V30 2753 O 283.941 1.5152 -1.15958 0
M  V30 2754 C 281.081 2.43577 -2.44467 0
M  V30 2755 C 280.194 2.2232 -3.70402 0
M  V30 2756 C 279.329 3.4729 -4.01949 0
M  V30 2757 C 278.368 3.2128 -5.21005 0
M  V30 2758 N 277.505 4.38507 -5.48321 0
M  V30 2759 H 282.345 0.733149 -2.88841 0
M  V30 2760 H 279.882 0.350482 -1.42864 0
M  V30 2761 H 281.84 3.20373 -2.6724 0
M  V30 2762 H 280.47 2.80097 -1.60455 0
M  V30 2763 H 279.522 1.36343 -3.55126 0
M  V30 2764 H 280.834 1.99089 -4.57345 0
M  V30 2765 H 279.988 4.32495 -4.25479 0
M  V30 2766 H 278.727 3.73572 -3.13521 0
M  V30 2767 H 277.732 2.34468 -4.97298 0
M  V30 2768 H 278.957 2.96348 -6.11028 0
M  V30 2769 H 276.903 4.64871 -4.62851 0
M  V30 2770 H 276.82 4.18455 -6.29628 0
M  V30 2771 H 278.088 5.24787 -5.76385 0
M  V30 2772 N 282.317 1.53212 0.369288 0
M  V30 2773 C 283.264 1.79388 1.45219 0
M  V30 2774 C 284.234 0.638059 1.53356 0
M  V30 2775 O 285.419 0.879852 1.69302 0
M  V30 2776 C 282.559 1.98623 2.82211 0
M  V30 2777 C 281.672 3.26337 2.8307 0
M  V30 2778 C 280.807 3.35779 4.11614 0
M  V30 2779 C 279.846 4.5754 4.06601 0
M  V30 2780 N 278.983 4.64155 5.26787 0
M  V30 2781 H 283.823 2.71794 1.22198 0
M  V30 2782 H 281.36 1.34642 0.592444 0
M  V30 2783 H 283.318 2.07761 3.61789 0
M  V30 2784 H 281.948 1.09558 3.03639 0
M  V30 2785 H 281 3.26171 1.95747 0
M  V30 2786 H 282.312 4.15988 2.75237 0
M  V30 2787 H 281.466 3.44208 4.99606 0
M  V30 2788 H 280.205 2.44137 4.22195 0
M  V30 2789 H 279.21 4.49215 3.16996 0
M  V30 2790 H 280.435 5.50519 3.97625 0
M  V30 2791 H 278.381 3.75413 5.3796 0
M  V30 2792 H 278.298 5.47706 5.21109 0
M  V30 2793 H 279.566 4.76863 6.16621 0
M  V30 2794 N 283.795 -0.628877 1.44509 0
M  V30 2795 C 285.035 -1.39993 1.48934 0
M  V30 2796 C 285.399 -1.91627 0.119604 0
M  V30 2797 O 286.6 -2.68772 0.0385283 0
M  V30 2798 C 284.871 -2.53241 2.52198 0
M  V30 2799 S 286.43 -3.41383 2.75687 0
M  V30 2800 H 283.248 -0.477558 0.526744 0
M  V30 2801 H 285.85 -0.727804 1.81448 0
M  V30 2802 H 284.554 -2.13622 3.50419 0
M  V30 2803 H 284.085 -3.25278 2.21264 0
M  V30 2804 H 286.1 -4.50752 2.07453 0
M  V30 2805 N 285.273 -1.31445 -0.869486 0
M  V30 2806 C 286.203 -1.21727 -1.99261 0
M  V30 2807 C 287.184 -0.104359 -1.6978 0
M  V30 2808 O 288.369 -0.289038 -1.92037 0
M  V30 2809 C 285.499 -0.924317 -3.34774 0
M  V30 2810 C 284.453 -1.99685 -3.78563 0
M  V30 2811 C 283.779 -1.55658 -5.11541 0
M  V30 2812 C 285.079 -3.41003 -3.95619 0
M  V30 2813 H 286.773 -2.1569 -2.07649 0
M  V30 2814 H 284.319 -1.03839 -0.997675 0
M  V30 2815 H 286.272 -0.842934 -4.12883 0
M  V30 2816 H 284.996 0.0509793 -3.2656 0
M  V30 2817 H 283.655 -2.06813 -3.02694 0
M  V30 2818 H 283.303 -0.569132 -4.9977 0
M  V30 2819 H 283.003 -2.27409 -5.41811 0
M  V30 2820 H 284.527 -1.48928 -5.92159 0
M  V30 2821 H 285.941 -3.36547 -4.64122 0
M  V30 2822 H 284.338 -4.10975 -4.37286 0
M  V30 2823 H 285.408 -3.81754 -2.98985 0
M  V30 2824 N 286.751 1.08385 -1.14413 0
M  V30 2825 C 287.976 1.85057 -0.936413 0
M  V30 2826 C 288.401 1.81055 0.509971 0
M  V30 2827 O 287.759 1.1958 1.36273 0
M  V30 2828 C 287.807 3.30505 -1.44217 0
M  V30 2829 O 286.911 4.07491 -0.634409 0
M  V30 2830 H 286.252 0.573425 -0.334784 0
M  V30 2831 H 288.782 1.36799 -1.52142 0
M  V30 2832 H 288.792 3.81348 -1.45043 0
M  V30 2833 H 287.467 3.32734 -2.49522 0
M  V30 2834 H 286.044 3.66368 -0.694902 0
M  V30 2835 N 288.23 0.939286 1.26551 0
M  V30 2836 C 289.476 0.586715 1.94128 0
M  V30 2837 C 289.809 -0.8717 1.73537 0
M  V30 2838 O 289.084 -1.62339 1.07127 0
M  V30 2839 C 289.367 0.927497 3.4795 0
M  V30 2840 C 289.22 2.44052 3.77834 0
M  V30 2841 C 290.539 0.441569 4.37879 0
M  V30 2842 H 287.658 0.21463 0.705055 0
M  V30 2843 H 290.3 1.17316 1.49455 0
M  V30 2844 H 288.45 0.428431 3.8613 0
M  V30 2845 H 290.122 3.01216 3.4938 0
M  V30 2846 H 288.365 2.8848 3.23978 0
M  V30 2847 H 289.036 2.62947 4.85348 0
M  V30 2848 H 291.512 0.869448 4.06915 0
M  V30 2849 H 290.388 0.708856 5.44304 0
M  V30 2850 H 290.649 -0.658467 4.37169 0
M  V30 2851 N 289.708 -1.40897 0.706093 0
M  V30 2852 C 290.956 -2.00657 0.241054 0
M  V30 2853 C 291.277 -1.56241 -1.16678 0
M  V30 2854 O 290.547 -0.79765 -1.78926 0
M  V30 2855 H 289.127 -0.742018 0.0861308 0
M  V30 2856 H 291.789 -1.72372 0.909604 0
M  V30 2857 H 290.885 -3.10958 0.266705 0
M  V30 2858 N 291.186 -0.45159 -1.50991 0
M  V30 2859 C 292.119 0.398179 -2.24699 0
M  V30 2860 C 293.097 1.01276 -1.27208 0
M  V30 2861 O 294.281 1.05247 -1.56382 0
M  V30 2862 C 291.408 1.55618 -3.00833 0
M  V30 2863 C 290.454 1.0609 -4.13095 0
M  V30 2864 S 291.287 -0.00865136 -5.35499 0
M  V30 2865 C 292.443 1.15369 -6.15175 0
M  V30 2866 H 292.676 -0.227555 -2.96428 0
M  V30 2867 H 290.209 -0.236251 -1.52582 0
M  V30 2868 H 292.167 2.21997 -3.45293 0
M  V30 2869 H 290.828 2.15337 -2.28667 0
M  V30 2870 H 290.021 1.92726 -4.65696 0
M  V30 2871 H 289.623 0.47513 -3.7097 0
M  V30 2872 H 291.915 2.06925 -6.45126 0
M  V30 2873 H 292.858 0.667344 -7.04948 0
M  V30 2874 H 293.266 1.3987 -5.46897 0
M  V30 2875 N 292.664 1.56529 -0.183458 0
M  V30 2876 C 293.889 2.02064 0.467428 0
M  V30 2877 C 294.314 1.06282 1.55196 0
M  V30 2878 O 293.672 0.0443565 1.81246 0
M  V30 2879 C 293.72 3.46122 1.01153 0
M  V30 2880 O 292.824 3.53437 2.12499 0
M  V30 2881 H 292.165 0.654726 0.110588 0
M  V30 2882 H 294.695 2.02521 -0.290917 0
M  V30 2883 H 294.705 3.85676 1.33108 0
M  V30 2884 H 293.38 4.15331 0.217533 0
M  V30 2885 H 291.957 3.2575 1.81497 0
M  V30 2886 N 294.142 -0.090211 1.57342 0
M  V30 2887 C 295.558 -0.444547 1.53284 0
M  V30 2888 C 295.758 -1.80238 0.900914 0
M  V30 2889 O 294.814 -2.4759 0.495513 0
M  V30 2890 C 296.127 -0.402543 2.97993 0
M  V30 2891 C 297.675 -0.48405 3.09234 0
M  V30 2892 C 298.15 -0.472144 4.5556 0
M  V30 2893 N 299.641 -0.532757 4.60126 0
M  V30 2894 C 300.376 -0.545462 5.708 0
M  V30 2895 N 299.872 -0.514082 6.9089 0
M  V30 2896 N 301.665 -0.59064 5.58988 0
M  V30 2897 H 293.816 0.799121 1.96794 0
M  V30 2898 H 296.079 0.297965 0.899956 0
M  V30 2899 H 295.785 0.528106 3.47712 0
M  V30 2900 H 295.659 -1.21969 3.56936 0
M  V30 2901 H 298.046 -1.40512 2.595 0
M  V30 2902 H 298.127 0.361328 2.53235 0
M  V30 2903 H 297.771 0.445 5.05947 0
M  V30 2904 H 297.701 -1.3348 5.09402 0
M  V30 2905 H 300.192 -0.562006 3.73698 0
M  V30 2906 H 300.505 -0.527195 7.71 0
M  V30 2907 H 298.85 -0.481054 6.93333 0
M  V30 2908 H 302.041 -0.61272 4.64073 0
M  V30 2909 H 302.214 -0.597073 6.45243 0
M  V30 2910 N 295.62 -1.53406 -0.361157 0
M  V30 2911 C 296.897 -1.60411 -1.11927 0
M  V30 2912 C 297.277 -0.414385 -2.06993 0
M  V30 2913 O 296.625 0.594976 -2.20618 0
M  V30 2914 C 296.835 -2.95652 -1.85448 0
M  V30 2915 C 298.183 -3.50386 -2.39823 0
M  V30 2916 O 299.207 -2.97711 -1.95568 0
M  V30 2917 O 298.066 -4.42482 -3.20737 0
M  V30 2918 H 295.16 -0.64811 -0.513695 0
M  V30 2919 H 297.706 -1.65749 -0.364065 0
M  V30 2920 H 296.478 -3.73682 -1.16091 0
M  V30 2921 H 296.101 -2.93825 -2.67866 0
M  V30 2922 N 297.098 0.621204 -1.44841 0
M  V30 2923 C 298.061 1.71459 -1.521 0
M  V30 2924 C 299.061 1.55696 -0.401933 0
M  V30 2925 O 300.251 1.61011 -0.664925 0
M  V30 2926 C 297.383 3.10624 -1.40447 0
M  V30 2927 H 298.576 1.66394 -2.49506 0
M  V30 2928 H 296.129 0.835745 -1.3208 0
M  V30 2929 H 296.864 3.21277 -0.441737 0
M  V30 2930 H 296.649 3.23473 -2.21602 0
M  V30 2931 H 298.139 3.90293 -1.4853 0
M  V30 2932 N 298.576 1.31904 0.862503 0
M  V30 2933 C 299.822 1.22197 1.61851 0
M  V30 2934 C 300.155 -0.217641 1.92977 0
M  V30 2935 O 299.43 -1.15264 1.56666 0
M  V30 2936 C 299.713 2.07378 2.94391 0
M  V30 2937 C 299.566 3.59678 2.70096 0
M  V30 2938 C 300.885 1.92891 3.95577 0
M  V30 2939 H 298.004 0.445255 0.587296 0
M  V30 2940 H 300.646 1.6177 0.99651 0
M  V30 2941 H 298.796 1.73758 3.47477 0
M  V30 2942 H 300.468 4.03472 2.23625 0
M  V30 2943 H 298.711 3.82735 2.04197 0
M  V30 2944 H 299.382 4.14595 3.64438 0
M  V30 2945 H 301.858 2.22327 3.51724 0
M  V30 2946 H 300.734 2.54781 4.86187 0
M  V30 2947 H 300.995 0.894315 4.3296 0
M  V30 2948 N 300.054 -1.07777 1.14986 0
M  V30 2949 C 301.47 -1.32373 0.891596 0
M  V30 2950 C 301.67 -1.9609 -0.463788 0
M  V30 2951 O 300.726 -2.21801 -1.20667 0
M  V30 2952 C 302.039 -2.21905 2.02925 0
M  V30 2953 C 303.587 -2.35367 2.06329 0
M  V30 2954 C 304.062 -3.28245 3.19405 0
M  V30 2955 N 305.553 -3.35824 3.19024 0
M  V30 2956 C 306.288 -4.07739 4.03158 0
M  V30 2957 N 305.784 -4.82306 4.97346 0
M  V30 2958 N 307.577 -4.03635 3.91197 0
M  V30 2959 H 299.728 -0.648039 2.02273 0
M  V30 2960 H 301.991 -0.348149 0.881757 0
M  V30 2961 H 301.697 -1.82342 3.0074 0
M  V30 2962 H 301.571 -3.22407 1.95789 0
M  V30 2963 H 303.958 -2.74186 1.09116 0
M  V30 2964 H 304.039 -1.34585 2.17533 0
M  V30 2965 H 303.683 -2.90146 4.16867 0
M  V30 2966 H 303.613 -4.28971 3.05437 0
M  V30 2967 H 306.104 -2.8267 2.50811 0
M  V30 2968 H 306.417 -5.34661 5.57994 0
M  V30 2969 H 304.762 -4.81337 5.01338 0
M  V30 2970 H 307.953 -3.44491 3.16928 0
M  V30 2971 H 308.126 -4.59417 4.5699 0
M  V30 2972 N 301.532 -0.945985 -1.26051 0
M  V30 2973 C 302.779 -0.596118 -1.93527 0
M  V30 2974 C 303.107 0.865559 -1.74179 0
M  V30 2975 O 302.362 1.63524 -1.0751 0
M  V30 2976 C 302.661 -0.890475 -3.46129 0
M  V30 2977 C 302.327 -2.3368 -3.85622 0
M  V30 2978 C 300.989 -2.73216 -3.96114 0
M  V30 2979 C 303.341 -3.27648 -4.05334 0
M  V30 2980 C 300.669 -4.05806 -4.2372 0
M  V30 2981 C 303.021 -4.59841 -4.3443 0
M  V30 2982 C 301.685 -4.99185 -4.43137 0
M  V30 2983 H 300.955 -0.218135 -0.708165 0
M  V30 2984 H 303.602 -1.1934 -1.49768 0
M  V30 2985 H 301.907 -0.210711 -3.91233 0
M  V30 2986 H 303.604 -0.598478 -3.96509 0
M  V30 2987 H 300.194 -2.02015 -3.78005 0
M  V30 2988 H 304.378 -2.98298 -3.96651 0
M  V30 2989 H 299.634 -4.35945 -4.28675 0
M  V30 2990 H 303.808 -5.32641 -4.48628 0
M  V30 2991 H 301.435 -6.01952 -4.64282 0
M  V30 2992 N 303.011 1.40521 -0.713556 0
M  V30 2993 C 304.259 2.00527 -0.251692 0
M  V30 2994 C 304.58 1.56857 1.15848 0
M  V30 2995 O 303.85 0.807127 1.785 0
M  V30 2996 H 302.43 0.741551 -0.0900646 0
M  V30 2997 H 305.092 1.71887 -0.918733 0
M  V30 2998 H 304.188 3.10813 -0.283192 0
M  V30 2999 N 304.489 0.459591 1.5075 0
M  V30 3000 C 305.905 0.113092 1.59199 0
M  V30 3001 C 306.105 -1.37951 1.46874 0
M  V30 3002 O 305.161 -2.15168 1.32132 0
M  V30 3003 C 306.474 0.653043 2.93523 0
M  V30 3004 C 308.022 0.615449 3.0689 0
M  V30 3005 C 308.497 1.13275 4.43771 0
M  V30 3006 N 309.988 1.09167 4.50152 0
M  V30 3007 C 310.723 1.46256 5.54434 0
M  V30 3008 N 310.219 1.90739 6.66026 0
M  V30 3009 N 312.012 1.37932 5.44914 0
M  V30 3010 H 304.163 1.43049 1.57005 0
M  V30 3011 H 306.426 0.590861 0.741341 0
M  V30 3012 H 306.132 1.69822 3.07983 0
M  V30 3013 H 306.006 0.0902132 3.77092 0
M  V30 3014 H 308.393 -0.420793 2.92084 0
M  V30 3015 H 308.474 1.21495 2.25106 0
M  V30 3016 H 308.118 2.16757 4.59324 0
M  V30 3017 H 308.048 0.509576 5.24129 0
M  V30 3018 H 310.539 0.76528 3.7007 0
M  V30 3019 H 310.852 2.17218 7.41644 0
M  V30 3020 H 309.197 1.94683 6.67176 0
M  V30 3021 H 312.388 1.0303 4.56621 0
M  V30 3022 H 312.561 1.67164 6.26067 0
M  V30 3023 N 305.967 -1.56429 0.191757 0
M  V30 3024 C 307.216 -1.9666 -0.448088 0
M  V30 3025 C 307.529 -1.08136 -1.62991 0
M  V30 3026 O 308.735 -1.38135 -2.33733 0
M  V30 3027 C 307.191 -3.49753 -0.848585 0
M  V30 3028 C 306.799 -4.46935 0.308764 0
M  V30 3029 C 308.543 -3.9876 -1.4557 0
M  V30 3030 C 306.45 -5.91293 -0.112506 0
M  V30 3031 H 305.38 -0.734312 -0.171179 0
M  V30 3032 H 308.031 -1.81301 0.283242 0
M  V30 3033 H 306.413 -3.60604 -1.63649 0
M  V30 3034 H 307.587 -4.47813 1.08627 0
M  V30 3035 H 305.902 -4.08102 0.827158 0
M  V30 3036 H 308.499 -5.04086 -1.78328 0
M  V30 3037 H 308.842 -3.42875 -2.36099 0
M  V30 3038 H 309.375 -3.9101 -0.731836 0
M  V30 3039 H 306.114 -6.51097 0.758514 0
M  V30 3040 H 305.634 -5.93676 -0.854941 0
M  V30 3041 H 307.313 -6.44663 -0.549448 0
M  V30 3042 N 307.445 0.0818655 -1.57387 0
M  V30 3043 C 308.856 0.634871 -1.75574 0
M  V30 3044 C 309.207 1.78435 -0.815809 0
M  V30 3045 O 308.332 2.164 0.0025366 0
M  V30 3046 C 308.927 1.15845 -3.18379 0
M  V30 3047 C 307.486 1.65741 -3.37945 0
M  V30 3048 C 306.633 0.572549 -2.71325 0
M  V30 3049 H 309.584 -0.144268 -1.58043 0
M  V30 3050 H 309.605 2.02751 -3.21982 0
M  V30 3051 H 309.117 0.321631 -3.86765 0
M  V30 3052 H 307.218 2.51781 -2.74658 0
M  V30 3053 H 307.331 1.74129 -4.46336 0
M  V30 3054 H 305.695 1.01518 -2.33594 0
M  V30 3055 H 306.478 -0.253918 -3.4236 0
M  V30 3056 N 308.923 1.53595 0.353017 0
M  V30 3057 C 309.87 1.80919 1.43308 0
M  V30 3058 C 310.84 0.654288 1.5267 0
M  V30 3059 O 312.025 0.897759 1.6836 0
M  V30 3060 C 309.165 2.01605 2.80089 0
M  V30 3061 C 308.278 3.29321 2.79593 0
M  V30 3062 C 307.413 3.40125 4.0803 0
M  V30 3063 C 306.452 4.61826 4.01725 0
M  V30 3064 N 305.589 4.69716 5.21834 0
M  V30 3065 H 310.429 2.73074 1.19308 0
M  V30 3066 H 307.966 1.35263 0.578131 0
M  V30 3067 H 309.924 2.11586 3.59565 0
M  V30 3068 H 308.554 1.12772 3.0246 0
M  V30 3069 H 307.606 3.28229 1.92276 0
M  V30 3070 H 308.918 4.18884 2.70809 0
M  V30 3071 H 308.072 3.49488 4.95927 0
M  V30 3072 H 306.811 2.48601 4.19582 0
M  V30 3073 H 305.816 4.52552 3.12213 0
M  V30 3074 H 307.041 5.54705 3.91764 0
M  V30 3075 H 304.987 3.81097 5.33948 0
M  V30 3076 H 304.904 5.53202 5.1527 0
M  V30 3077 H 306.172 4.83376 6.11529 0
M  V30 3078 N 310.401 -0.613514 1.45168 0
M  V30 3079 C 311.817 -0.933629 1.29443 0
M  V30 3080 C 312.017 -2.00028 0.243101 0
M  V30 3081 O 311.073 -2.49848 -0.364992 0
M  V30 3082 C 312.386 -1.38018 2.67155 0
M  V30 3083 C 313.934 -1.49471 2.75004 0
M  V30 3084 C 314.409 -1.97503 4.13227 0
M  V30 3085 N 315.9 -2.04746 4.15491 0
M  V30 3086 C 316.635 -2.43121 5.19307 0
M  V30 3087 N 316.131 -2.80506 6.33473 0
M  V30 3088 N 317.924 -2.43408 5.06664 0
M  V30 3089 H 310.075 0.0916097 2.12202 0
M  V30 3090 H 312.338 -0.0216655 0.947752 0
M  V30 3091 H 312.044 -0.670625 3.45247 0
M  V30 3092 H 311.918 -2.34784 2.95222 0
M  V30 3093 H 314.305 -2.19519 1.9722 0
M  V30 3094 H 314.386 -0.510342 2.50657 0
M  V30 3095 H 314.03 -1.28045 4.91495 0
M  V30 3096 H 313.96 -2.96843 4.34962 0
M  V30 3097 H 316.451 -1.78468 3.33103 0
M  V30 3098 H 316.764 -3.08652 7.08487 0
M  V30 3099 H 315.109 -2.78216 6.36884 0
M  V30 3100 H 318.3 -2.13604 4.16523 0
M  V30 3101 H 318.473 -2.72989 5.87691 0
M  V30 3102 N 311.879 -1.3236 -0.855495 0
M  V30 3103 C 312.789 -1.23221 -1.99634 0
M  V30 3104 C 313.805 -0.145983 -1.73387 0
M  V30 3105 O 314.981 -0.366502 -1.98037 0
M  V30 3106 C 312.046 -0.954782 -3.33294 0
M  V30 3107 C 311.107 -2.12937 -3.72769 0
M  V30 3108 C 310.34 -1.86508 -5.00051 0
M  V30 3109 O 310.563 -0.807231 -5.64659 0
M  V30 3110 O 309.497 -2.72591 -5.36636 0
M  V30 3111 H 313.323 -2.19126 -2.1028 0
M  V30 3112 H 310.908 -1.12241 -0.986018 0
M  V30 3113 H 312.79 -0.816519 -4.13414 0
M  V30 3114 H 311.465 -0.0258854 -3.2369 0
M  V30 3115 H 310.372 -2.3231 -2.93228 0
M  V30 3116 H 311.705 -3.04102 -3.87018 0
M  V30 3117 N 313.357 1.07166 -1.15556 0
M  V30 3118 C 314.304 2.14417 -0.854055 0
M  V30 3119 C 315.274 1.64965 0.193806 0
M  V30 3120 O 316.459 1.90703 0.0609443 0
M  V30 3121 C 313.599 3.43304 -0.351574 0
M  V30 3122 C 312.712 4.06537 -1.46123 0
M  V30 3123 C 311.847 5.23266 -0.914677 0
M  V30 3124 C 310.886 5.78464 -2.00114 0
M  V30 3125 N 310.023 6.86521 -1.47083 0
M  V30 3126 H 314.863 2.39548 -1.77259 0
M  V30 3127 H 312.4 1.17543 -0.884425 0
M  V30 3128 H 314.358 4.17179 -0.0419409 0
M  V30 3129 H 312.988 3.18419 0.530037 0
M  V30 3130 H 312.04 3.30297 -1.88701 0
M  V30 3131 H 313.352 4.43567 -2.28144 0
M  V30 3132 H 312.506 6.04131 -0.557698 0
M  V30 3133 H 311.245 4.87658 -0.0636583 0
M  V30 3134 H 310.25 4.96243 -2.36692 0
M  V30 3135 H 311.475 6.16126 -2.85597 0
M  V30 3136 H 309.421 6.52849 -0.642198 0
M  V30 3137 H 309.338 7.22446 -2.22729 0
M  V30 3138 H 310.606 7.71087 -1.14215 0
M  V30 3139 N 314.835 0.952656 1.25548 0
M  V30 3140 C 315.767 0.428609 2.25157 0
M  V30 3141 C 316.78 -0.454428 1.56329 0
M  V30 3142 O 317.969 -0.263023 1.76552 0
M  V30 3143 C 315.069 -0.401972 3.36508 0
M  V30 3144 C 314.242 0.467601 4.34893 0
M  V30 3145 C 313.301 -0.30445 5.25319 0
M  V30 3146 O 312.327 0.296473 5.68427 0
M  V30 3147 N 313.529 -1.59805 5.5807 0
M  V30 3148 H 316.294 1.28497 2.70756 0
M  V30 3149 H 313.855 0.822798 1.39433 0
M  V30 3150 H 315.847 -0.926134 3.9396 0
M  V30 3151 H 314.417 -1.15918 2.90313 0
M  V30 3152 H 313.637 1.17288 3.76347 0
M  V30 3153 H 314.925 1.06119 4.97611 0
M  V30 3154 H 314.323 -2.10823 5.24948 0
M  V30 3155 H 312.88 -2.06822 6.18116 0
M  V30 3156 N 316.313 -1.40141 0.720998 0
M  V30 3157 C 317.729 -1.54632 0.395113 0
M  V30 3158 C 317.929 -1.69115 -1.09555 0
M  V30 3159 O 316.985 -1.68377 -1.88163 0
M  V30 3160 C 318.298 -2.77177 1.1659 0
M  V30 3161 C 319.846 -2.91 1.15274 0
M  V30 3162 C 320.321 -4.16465 1.90579 0
M  V30 3163 N 321.812 -4.23476 1.87675 0
M  V30 3164 C 322.547 -5.19475 2.42762 0
M  V30 3165 N 322.043 -6.21348 3.06428 0
M  V30 3166 N 323.836 -5.11592 2.32874 0
M  V30 3167 H 315.987 -1.28986 1.68749 0
M  V30 3168 H 318.25 -0.62412 0.713567 0
M  V30 3169 H 317.956 -2.72771 2.22011 0
M  V30 3170 H 317.83 -3.69442 0.76108 0
M  V30 3171 H 320.217 -2.94907 0.106702 0
M  V30 3172 H 320.298 -1.99838 1.59682 0
M  V30 3173 H 319.942 -4.1332 2.95176 0
M  V30 3174 H 319.872 -5.06646 1.43587 0
M  V30 3175 H 322.363 -3.50497 1.41281 0
M  V30 3176 H 322.676 -6.91034 3.45965 0
M  V30 3177 H 321.021 -6.21777 3.10514 0
M  V30 3178 H 324.212 -4.30936 1.82789 0
M  V30 3179 H 324.385 -5.86233 2.76106 0
M  V30 3180 N 317.792 -0.46758 -1.50504 0
M  V30 3181 C 318.725 0.374324 -2.25109 0
M  V30 3182 C 319.703 0.99921 -1.28275 0
M  V30 3183 O 320.887 1.03583 -1.57489 0
M  V30 3184 C 318.014 1.52419 -3.02467 0
M  V30 3185 C 317.06 1.01702 -4.14197 0
M  V30 3186 S 317.893 -0.0654477 -5.3546 0
M  V30 3187 C 319.049 1.08837 -6.16365 0
M  V30 3188 H 319.282 -0.258983 -2.9617 0
M  V30 3189 H 316.815 -0.252421 -1.52323 0
M  V30 3190 H 318.773 2.18322 -3.47628 0
M  V30 3191 H 317.434 2.129 -2.30938 0
M  V30 3192 H 316.627 1.87776 -4.67714 0
M  V30 3193 H 316.229 0.435757 -3.71453 0
M  V30 3194 H 318.521 2.00071 -6.47285 0
M  V30 3195 H 319.464 0.592538 -7.05616 0
M  V30 3196 H 319.872 1.34061 -5.4835 0
M  V30 3197 N 319.27 1.56325 -0.20005 0
M  V30 3198 C 320.2 2.22318 0.713916 0
M  V30 3199 C 321.181 1.18788 1.21752 0
M  V30 3200 O 322.366 1.47309 1.26545 0
M  V30 3201 C 319.496 2.88639 1.93144 0
M  V30 3202 C 318.45 3.98457 1.56255 0
M  V30 3203 C 317.776 4.51967 2.85709 0
M  V30 3204 C 319.076 5.16612 0.768747 0
M  V30 3205 H 320.77 2.98952 0.163755 0
M  V30 3206 H 318.316 1.43792 0.0773219 0
M  V30 3207 H 320.269 3.33491 2.57608 0
M  V30 3208 H 318.993 2.09419 2.50621 0
M  V30 3209 H 317.652 3.54305 0.941471 0
M  V30 3210 H 317.3 3.69503 3.41287 0
M  V30 3211 H 317 5.26071 2.6177 0
M  V30 3212 H 318.524 4.99523 3.51154 0
M  V30 3213 H 319.938 5.57977 1.3166 0
M  V30 3214 H 318.335 5.96812 0.627286 0
M  V30 3215 H 319.405 4.84358 -0.229168 0
M  V30 3216 N 320.748 -0.0735177 1.57428 0
M  V30 3217 C 321.711 -1.07192 2.02589 0
M  V30 3218 C 322.711 -1.31695 0.922661 0
M  V30 3219 O 323.901 -1.27445 1.18758 0
M  V30 3220 C 321.033 -2.41599 2.40506 0
M  V30 3221 H 322.226 -0.682727 2.92025 0
M  V30 3222 H 319.779 -0.319193 1.53006 0
M  V30 3223 H 320.514 -2.85354 1.5409 0
M  V30 3224 H 320.299 -2.25156 3.21009 0
M  V30 3225 H 321.789 -3.13367 2.76027 0
M  V30 3226 N 322.226 -1.5378 -0.344866 0
M  V30 3227 C 323.136 -1.84667 -1.4469 0
M  V30 3228 C 324.152 -0.736704 -1.57635 0
M  V30 3229 O 325.328 -1.02888 -1.73136 0
M  V30 3230 C 322.393 -2.04869 -2.79696 0
M  V30 3231 C 321.454 -3.28731 -2.76106 0
M  V30 3232 C 320.687 -3.4796 -4.04673 0
M  V30 3233 O 320.91 -2.71052 -5.01883 0
M  V30 3234 O 319.844 -4.41383 -4.09224 0
M  V30 3235 H 323.67 -2.78334 -1.21506 0
M  V30 3236 H 321.255 -1.39418 -0.536921 0
M  V30 3237 H 323.137 -2.19609 -3.59652 0
M  V30 3238 H 321.812 -1.14391 -3.02814 0
M  V30 3239 H 320.719 -3.19396 -1.94774 0
M  V30 3240 H 322.052 -4.19198 -2.57941 0
M  V30 3241 N 323.704 0.605807 -1.45491 0
M  V30 3242 C 324.637 1.73022 -1.48791 0
M  V30 3243 C 325.615 1.58917 -0.344112 0
M  V30 3244 O 326.799 1.80453 -0.544876 0
M  V30 3245 C 323.926 3.10865 -1.34463 0
M  V30 3246 C 322.972 3.43554 -2.5273 0
M  V30 3247 S 323.805 3.38196 -4.15191 0
M  V30 3248 C 324.961 4.78616 -4.03333 0
M  V30 3249 H 325.194 1.69961 -2.43928 0
M  V30 3250 H 322.727 0.782611 -1.33096 0
M  V30 3251 H 324.685 3.90398 -1.26884 0
M  V30 3252 H 323.346 3.1144 -0.40794 0
M  V30 3253 H 322.539 4.43924 -2.38637 0
M  V30 3254 H 322.141 2.71541 -2.5718 0
M  V30 3255 H 324.433 5.68463 -3.68587 0
M  V30 3256 H 325.376 4.97767 -5.03621 0
M  V30 3257 H 325.784 4.54381 -3.34959 0
M  V30 3258 N 325.182 1.32811 0.848464 0
M  V30 3259 C 326.114 1.18095 1.96433 0
M  V30 3260 C 327.127 0.114354 1.62398 0
M  V30 3261 O 328.316 0.363892 1.74751 0
M  V30 3262 C 325.416 0.786798 3.2964 0
M  V30 3263 C 324.589 1.943 3.91875 0
M  V30 3264 C 323.648 1.53138 5.03423 0
M  V30 3265 O 322.674 2.24432 5.23086 0
M  V30 3266 N 323.876 0.430915 5.78898 0
M  V30 3267 H 326.641 2.14218 2.09597 0
M  V30 3268 H 324.202 1.2543 1.02367 0
M  V30 3269 H 326.194 0.493715 4.01677 0
M  V30 3270 H 324.764 -0.0834541 3.12489 0
M  V30 3271 H 323.984 2.40224 3.12547 0
M  V30 3272 H 325.272 2.71689 4.30189 0
M  V30 3273 H 324.67 -0.162333 5.65467 0
M  V30 3274 H 323.227 0.197466 6.51501 0
M  V30 3275 N 326.66 -1.06551 1.16123 0
M  V30 3276 C 327.885 -1.83544 0.965735 0
M  V30 3277 C 328.31 -1.81843 -0.481102 0
M  V30 3278 O 327.668 -1.21732 -1.34354 0
M  V30 3279 C 327.716 -3.28169 1.49457 0
M  V30 3280 O 326.82 -4.0643 0.699157 0
M  V30 3281 H 326.161 -0.568026 0.343864 0
M  V30 3282 H 328.691 -1.34362 1.54299 0
M  V30 3283 H 328.701 -3.78992 1.51092 0
M  V30 3284 H 327.376 -3.28722 2.54784 0
M  V30 3285 H 325.953 -3.65216 0.7531 0
M  V30 3286 N 328.138 -0.959301 -1.25041 0
M  V30 3287 C 329.101 -0.487677 -2.23952 0
M  V30 3288 C 330.101 0.41119 -1.55454 0
M  V30 3289 O 331.291 0.207825 -1.72956 0
M  V30 3290 C 328.423 0.294807 -3.39623 0
M  V30 3291 H 329.616 -1.36198 -2.67189 0
M  V30 3292 H 327.169 -0.743042 -1.37508 0
M  V30 3293 H 327.904 1.18658 -3.01813 0
M  V30 3294 H 327.689 -0.35012 -3.90534 0
M  V30 3295 H 329.179 0.614089 -4.1306 0
M  V30 3296 N 329.616 1.39756 -0.72842 0
M  V30 3297 C 330.549 2.28176 -0.0330172 0
M  V30 3298 C 331.527 1.44035 0.754501 0
M  V30 3299 O 332.711 1.73434 0.738445 0
M  V30 3300 C 329.838 3.24795 0.960504 0
M  V30 3301 C 328.884 4.25693 0.262264 0
M  V30 3302 S 329.717 5.25714 -1.01906 0
M  V30 3303 C 330.873 6.25894 -0.0279717 0
M  V30 3304 H 331.106 2.86807 -0.78287 0
M  V30 3305 H 328.639 1.45382 -0.519951 0
M  V30 3306 H 330.597 3.80983 1.52846 0
M  V30 3307 H 329.258 2.65196 1.68315 0
M  V30 3308 H 328.451 4.93699 1.01379 0
M  V30 3309 H 328.053 3.7327 -0.233482 0
M  V30 3310 H 330.345 6.72585 0.814621 0
M  V30 3311 H 331.288 7.04876 -0.67499 0
M  V30 3312 H 331.696 5.63466 0.341489 0
M  V30 3313 N 331.094 0.475555 1.50254 0
M  V30 3314 C 332.042 -0.330276 2.30243 0
M  V30 3315 C 333.036 -0.986306 1.37726 0
M  V30 3316 O 334.242 -0.9169 1.54897 0
M  V30 3317 H 330.617 -0.125353 0.741479 0
M  V30 3318 H 332.588 0.364702 2.96163 0
M  V30 3319 C 331.337 -1.39704 3.18399 0
M  V30 3320 H 330.66 -0.901621 3.89501 0
M  V30 3321 H 332.1 -1.93336 3.77355 0
M  V30 3322 C 330.559 -2.4014 2.36293 0
M  V30 3323 O 331.089 -3.45504 2.04914 0
M  V30 3324 N 329.295 -2.1197 1.98789 0
M  V30 3325 H 328.842 -1.2631 2.24507 0
M  V30 3326 H 328.8 -2.79403 1.44157 0
M  V30 3327 N 332.573 -1.56217 0.208337 0
M  V30 3328 C 333.503 -2.22694 -0.702116 0
M  V30 3329 C 334.484 -1.19432 -1.2112 0
M  V30 3330 O 335.669 -1.47978 -1.25762 0
M  V30 3331 C 332.799 -2.8966 -1.9161 0
M  V30 3332 C 331.753 -3.9928 -1.5414 0
M  V30 3333 C 331.079 -4.53476 -2.83308 0
M  V30 3334 C 332.379 -5.17012 -0.741339 0
M  V30 3335 H 334.073 -2.99034 -0.147898 0
M  V30 3336 H 331.619 -1.43831 -0.0696951 0
M  V30 3337 H 333.572 -3.34852 -2.55836 0
M  V30 3338 H 332.296 -2.10746 -2.49507 0
M  V30 3339 H 330.955 -3.54799 -0.922668 0
M  V30 3340 H 330.603 -3.71308 -3.39322 0
M  V30 3341 H 330.303 -5.27451 -2.58976 0
M  V30 3342 H 331.827 -5.01378 -3.485 0
M  V30 3343 H 333.241 -5.58667 -1.28699 0
M  V30 3344 H 331.638 -5.97137 -0.595627 0
M  V30 3345 H 332.708 -4.8423 0.254851 0
M  V30 3346 N 334.051 0.0651679 -1.57465 0
M  V30 3347 C 335.014 1.06117 -2.03155 0
M  V30 3348 C 336.014 1.31204 -0.929632 0
M  V30 3349 O 337.204 1.26813 -1.19432 0
M  V30 3350 C 334.336 2.4032 -2.41783 0
M  V30 3351 H 335.529 0.667231 -2.92383 0
M  V30 3352 H 333.082 0.311075 -1.53173 0
M  V30 3353 H 333.817 2.84532 -1.55601 0
M  V30 3354 H 333.602 2.23451 -3.22199 0
M  V30 3355 H 335.092 3.11898 -2.77685 0
M  V30 3356 N 335.529 1.53961 0.336706 0
M  V30 3357 C 336.477 1.83136 1.43401 0
M  V30 3358 C 337.471 0.702313 1.54156 0
M  V30 3359 O 338.677 0.885765 1.56698 0
M  V30 3360 H 335.052 0.580309 0.478273 0
M  V30 3361 H 337.023 2.74925 1.16012 0
M  V30 3362 C 335.772 2.06385 2.79822 0
M  V30 3363 H 335.095 2.92718 2.72316 0
M  V30 3364 H 336.535 2.30761 3.55704 0
M  V30 3365 C 334.994 0.851414 3.25964 0
M  V30 3366 O 335.524 0.0541904 4.01663 0
M  V30 3367 N 333.73 0.66672 2.82848 0
M  V30 3368 H 333.277 1.31665 2.21409 0
M  V30 3369 H 333.235 -0.143032 3.14074 0
M  V30 3370 N 337.007 -0.598083 1.45811 0
M  V30 3371 C 337.955 -1.72932 1.55555 0
M  V30 3372 C 338.949 -1.63984 0.424921 0
M  V30 3373 O 340.155 -1.69663 0.601205 0
M  V30 3374 H 336.53 -0.571489 0.488779 0
M  V30 3375 H 338.501 -1.61842 2.50699 0
M  V30 3376 C 337.25 -3.11318 1.54843 0
M  V30 3377 H 336.573 -3.18867 2.41172 0
M  V30 3378 H 338.013 -3.90274 1.65717 0
M  V30 3379 C 336.472 -3.3578 0.274427 0
M  V30 3380 O 337.002 -3.9654 -0.641778 0
M  V30 3381 N 335.208 -2.90119 0.167139 0
M  V30 3382 H 334.755 -2.40855 0.913596 0
M  V30 3383 H 334.713 -3.0686 -0.684435 0
M  V30 3384 N 338.485 -1.33259 -0.841409 0
M  V30 3385 C 339.417 -1.19136 -1.95804 0
M  V30 3386 C 340.43 -0.122965 -1.62335 0
M  V30 3387 O 341.619 -0.373154 -1.74556 0
M  V30 3388 C 338.719 -0.804268 -3.29218 0
M  V30 3389 C 337.892 -1.96376 -3.90839 0
M  V30 3390 C 336.951 -1.55806 -5.02604 0
M  V30 3391 O 335.977 -2.27203 -5.21888 0
M  V30 3392 N 337.179 -0.461609 -5.78662 0
M  V30 3393 H 339.944 -2.15326 -2.08458 0
M  V30 3394 H 337.505 -1.25971 -1.017 0
M  V30 3395 H 339.497 -0.51501 -4.0141 0
M  V30 3396 H 338.067 0.0668809 -3.12528 0
M  V30 3397 H 337.287 -2.41879 -3.11269 0
M  V30 3398 H 338.575 -2.73966 -4.28742 0
M  V30 3399 H 337.973 0.132343 -5.65545 0
M  V30 3400 H 336.53 -0.232013 -6.51387 0
M  V30 3401 N 339.963 1.05934 -1.16686 0
M  V30 3402 C 340.893 2.1546 -0.899949 0
M  V30 3403 C 341.874 1.69391 0.155154 0
M  V30 3404 O 343.059 1.94199 0.00648693 0
M  V30 3405 C 340.189 3.44939 -0.404241 0
M  V30 3406 C 339.143 4.04536 -1.39767 0
M  V30 3407 C 338.469 5.29268 -0.760216 0
M  V30 3408 C 339.769 4.42893 -2.76845 0
M  V30 3409 H 341.463 2.38046 -1.81588 0
M  V30 3410 H 339.009 1.14404 -0.874514 0
M  V30 3411 H 340.962 4.20901 -0.204971 0
M  V30 3412 H 339.686 3.21983 0.547206 0
M  V30 3413 H 338.345 3.30635 -1.58355 0
M  V30 3414 H 337.993 5.02611 0.197831 0
M  V30 3415 H 337.693 5.70101 -1.42332 0
M  V30 3416 H 339.217 6.07924 -0.57105 0
M  V30 3417 H 340.631 5.09921 -2.62019 0
M  V30 3418 H 339.028 4.94721 -3.39663 0
M  V30 3419 H 340.098 3.53584 -3.31823 0
M  V30 3420 N 341.441 0.965919 1.2453 0
M  V30 3421 C 342.666 0.643971 1.97149 0
M  V30 3422 C 343.091 -0.779487 1.71189 0
M  V30 3423 O 342.449 -1.5288 0.974553 0
M  V30 3424 C 342.497 0.922557 3.48599 0
M  V30 3425 O 341.601 0.00707672 4.12399 0
M  V30 3426 H 340.942 0.243647 0.617683 0
M  V30 3427 H 343.472 1.29558 1.58353 0
M  V30 3428 H 343.482 0.853373 3.98976 0
M  V30 3429 H 342.157 1.95996 3.66822 0
M  V30 3430 H 340.734 0.12943 3.72675 0
M  V30 3431 N 342.919 -1.39368 0.735821 0
M  V30 3432 C 344.144 -2.05319 0.293052 0
M  V30 3433 C 344.569 -1.55115 -1.064 0
M  V30 3434 O 343.927 -0.695261 -1.67439 0
M  V30 3435 C 343.975 -3.59305 0.305323 0
M  V30 3436 O 343.079 -4.06299 -0.706761 0
M  V30 3437 H 342.42 -0.650529 0.13307 0
M  V30 3438 H 344.95 -1.78386 1.00197 0
M  V30 3439 H 344.96 -4.07724 0.149997 0
M  V30 3440 H 343.635 -3.95207 1.29553 0
M  V30 3441 H 342.212 -3.69292 -0.517504 0
M  V30 3442 N 344.397 -0.483516 -1.5 0
M  V30 3443 C 345.329 0.340634 -2.26655 0
M  V30 3444 C 346.342 0.946152 -1.32483 0
M  V30 3445 O 347.531 0.832453 -1.579 0
M  V30 3446 C 344.631 1.4929 -3.04246 0
M  V30 3447 C 343.804 0.997903 -4.25865 0
M  V30 3448 C 342.863 2.02569 -4.85646 0
M  V30 3449 O 341.889 1.60128 -5.46212 0
M  V30 3450 N 343.091 3.3548 -4.73744 0
M  V30 3451 H 345.856 -0.316577 -2.98023 0
M  V30 3452 H 343.417 -0.315024 -1.58806 0
M  V30 3453 H 345.409 2.17766 -3.41116 0
M  V30 3454 H 343.979 2.05458 -2.35597 0
M  V30 3455 H 343.199 0.138617 -3.93956 0
M  V30 3456 H 344.487 0.645305 -5.04691 0
M  V30 3457 H 343.885 3.72661 -4.25605 0
M  V30 3458 H 342.442 3.99718 -5.14848 0
M  V30 3459 N 345.875 1.56104 -0.216619 0
M  V30 3460 C 347.115 2.00074 0.418322 0
M  V30 3461 C 347.479 1.10098 1.57297 0
M  V30 3462 O 348.68 1.43393 2.27359 0
M  V30 3463 C 346.951 3.47231 0.846477 0
M  V30 3464 S 348.51 4.13223 1.47622 0
M  V30 3465 H 345.328 0.698457 0.132962 0
M  V30 3466 H 347.93 1.92784 -0.324748 0
M  V30 3467 H 346.634 4.104 -0.0036319 0
M  V30 3468 H 346.165 3.58384 1.62248 0
M  V30 3469 H 348.18 4.12005 2.76526 0
M  V30 3470 N 347.353 -0.0568162 1.57498 0
M  V30 3471 C 348.764 -0.606858 1.76562 0
M  V30 3472 C 349.115 -1.77114 0.844094 0
M  V30 3473 O 348.24 -2.16376 0.0318911 0
M  V30 3474 C 348.835 -1.10766 3.20182 0
M  V30 3475 C 347.394 -1.60344 3.40539 0
M  V30 3476 C 346.541 -0.529311 2.72201 0
M  V30 3477 H 349.492 0.169393 1.57793 0
M  V30 3478 H 349.513 -1.97602 3.25167 0
M  V30 3479 H 349.025 -0.26006 3.87228 0
M  V30 3480 H 347.126 -2.47379 2.78629 0
M  V30 3481 H 347.239 -1.67006 4.4905 0
M  V30 3482 H 345.603 -0.977893 2.35179 0
M  V30 3483 H 346.386 0.308352 3.41912 0
M  V30 3484 N 348.832 -1.54138 -0.328536 0
M  V30 3485 C 349.762 -1.86167 -1.40939 0
M  V30 3486 C 350.743 -0.718044 -1.54202 0
M  V30 3487 O 351.928 -0.971328 -1.68163 0
M  V30 3488 C 349.058 -2.08461 -2.77779 0
M  V30 3489 C 348.012 -3.24299 -2.7931 0
M  V30 3490 C 347.338 -3.31955 -4.19178 0
M  V30 3491 C 348.638 -4.62065 -2.43502 0
M  V30 3492 H 350.332 -2.76689 -1.14383 0
M  V30 3493 H 347.878 -1.33132 -0.548806 0
M  V30 3494 H 349.831 -2.29453 -3.53454 0
M  V30 3495 H 348.555 -1.14684 -3.05802 0
M  V30 3496 H 347.214 -3.03187 -2.0609 0
M  V30 3497 H 346.862 -2.35745 -4.44335 0
M  V30 3498 H 346.562 -4.09805 -4.2111 0
M  V30 3499 H 348.086 -3.55175 -4.96672 0
M  V30 3500 H 349.5 -4.8297 -3.08889 0
M  V30 3501 H 347.897 -5.42429 -2.56693 0
M  V30 3502 H 348.967 -4.64652 -1.38659 0
M  V30 3503 N 350.31 0.590341 -1.46126 0
M  V30 3504 C 351.22 1.72793 -1.58681 0
M  V30 3505 C 352.236 1.67516 -0.470566 0
M  V30 3506 O 353.412 1.87562 -0.733642 0
M  V30 3507 C 350.477 3.09287 -1.5666 0
M  V30 3508 C 349.538 3.25886 -2.79458 0
M  V30 3509 C 348.771 4.55869 -2.77524 0
M  V30 3510 O 348.994 5.3928 -1.85832 0
M  V30 3511 O 347.928 4.75552 -3.68964 0
M  V30 3512 H 351.754 1.65149 -2.54872 0
M  V30 3513 H 349.339 0.756486 -1.28832 0
M  V30 3514 H 351.221 3.90577 -1.58202 0
M  V30 3515 H 349.896 3.17385 -0.636271 0
M  V30 3516 H 348.803 2.44119 -2.83472 0
M  V30 3517 H 350.136 3.22675 -3.71674 0
M  V30 3518 N 351.788 1.33704 0.83433 0
M  V30 3519 C 353.016 1.28467 1.62185 0
M  V30 3520 C 353.431 -0.143526 1.88254 0
M  V30 3521 O 352.788 -1.08709 1.4659 0
M  V30 3522 C 352.839 2.06174 2.96942 0
M  V30 3523 O 352.56 3.43422 2.72016 0
M  V30 3524 C 354.061 2.08201 3.91366 0
M  V30 3525 H 351.281 0.4424 0.504503 0
M  V30 3526 H 353.825 1.76145 1.03891 0
M  V30 3527 H 351.98 1.62167 3.51825 0
M  V30 3528 H 352.394 3.83453 3.57861 0
M  V30 3529 H 353.868 2.67017 4.83121 0
M  V30 3530 H 354.345 1.07343 4.2588 0
M  V30 3531 H 354.951 2.52246 3.42421 0
M  V30 3532 N 353.266 -1.05314 1.17247 0
M  V30 3533 C 354.491 -1.82509 0.985148 0
M  V30 3534 C 354.916 -1.82343 -0.461788 0
M  V30 3535 O 354.274 -1.23151 -1.33055 0
M  V30 3536 C 354.322 -3.26566 1.52929 0
M  V30 3537 O 353.426 -4.05666 0.742225 0
M  V30 3538 H 352.767 -0.564347 0.349869 0
M  V30 3539 H 355.297 -1.32718 1.55715 0
M  V30 3540 H 355.307 -3.77369 1.55103 0
M  V30 3541 H 353.982 -3.26001 2.58256 0
M  V30 3542 H 352.559 -3.64397 0.791794 0
M  V30 3543 N 354.744 -0.972509 -1.24016 0
M  V30 3544 C 356.155 -0.67517 -1.74064 0
M  V30 3545 C 356.506 0.808939 -1.78747 0
M  V30 3546 O 355.631 1.63286 -1.42009 0
M  V30 3547 C 356.226 -1.21889 -3.16115 0
M  V30 3548 C 354.785 -0.971358 -3.6365 0
M  V30 3549 C 353.932 -1.35134 -2.42145 0
M  V30 3550 H 356.883 -1.14727 -1.09651 0
M  V30 3551 H 356.904 -0.587489 -3.75937 0
M  V30 3552 H 356.416 -2.29906 -3.12674 0
M  V30 3553 H 354.517 0.0930686 -3.72484 0
M  V30 3554 H 354.63 -1.62039 -4.50866 0
M  V30 3555 H 352.994 -0.769751 -2.4279 0
M  V30 3556 H 353.777 -2.4411 -2.41381 0
M  V30 3557 N 356.222 1.38976 -0.743202 0
M  V30 3558 C 357.45 2.04636 -0.30525 0
M  V30 3559 C 357.865 1.56044 1.06281 0
M  V30 3560 O 357.222 0.728921 1.67311 0
M  V30 3561 C 357.273 3.60193 -0.307177 0
M  V30 3562 O 356.994 4.06998 -1.62124 0
M  V30 3563 C 358.495 4.4306 0.145928 0
M  V30 3564 H 355.715 0.65788 -0.132041 0
M  V30 3565 H 358.259 1.77866 -1.00915 0
M  V30 3566 H 356.414 3.85835 0.347898 0
M  V30 3567 H 356.828 5.01371 -1.54036 0
M  V30 3568 H 358.302 5.51921 0.0934183 0
M  V30 3569 H 358.779 4.22706 1.19231 0
M  V30 3570 H 359.385 4.22584 -0.479886 0
M  V30 3571 N 357.7 0.491464 1.49741 0
M  V30 3572 C 358.632 -0.328609 2.26832 0
M  V30 3573 C 359.645 -0.939113 1.32983 0
M  V30 3574 O 360.834 -0.824067 1.58339 0
M  V30 3575 C 357.934 -1.47675 3.05033 0
M  V30 3576 C 357.107 -0.975305 4.26388 0
M  V30 3577 C 356.166 -1.99991 4.86714 0
M  V30 3578 O 355.192 -1.57229 5.47054 0
M  V30 3579 N 356.394 -3.32962 4.75517 0
M  V30 3580 H 359.159 0.332377 2.97851 0
M  V30 3581 H 356.72 0.323441 1.58636 0
M  V30 3582 H 358.712 -2.15954 3.42266 0
M  V30 3583 H 357.282 -2.04206 2.36683 0
M  V30 3584 H 356.502 -0.117723 3.94024 0
M  V30 3585 H 357.79 -0.618531 5.05026 0
M  V30 3586 H 357.188 -3.70399 4.27576 0
M  V30 3587 H 355.745 -3.96982 5.16961 0
M  V30 3588 N 359.178 -1.55987 0.224894 0
M  V30 3589 C 360.128 -2.17076 -0.697296 0
M  V30 3590 C 361.112 -1.12006 -1.15514 0
M  V30 3591 O 362.304 -1.37985 -1.10857 0
M  V30 3592 C 359.433 -2.85679 -1.90374 0
M  V30 3593 C 358.519 -3.97977 -1.46543 0
M  V30 3594 N 358.91 -5.00359 -0.739909 0
M  V30 3595 C 357.208 -4.10128 -1.75245 0
M  V30 3596 C 357.909 -5.79407 -0.515939 0
M  V30 3597 N 356.885 -5.32892 -1.07364 0
M  V30 3598 H 360.687 -2.93592 -0.134594 0
M  V30 3599 H 358.201 -1.62379 0.0262885 0
M  V30 3600 H 360.198 -3.27857 -2.57518 0
M  V30 3601 H 358.858 -2.1066 -2.47088 0
M  V30 3602 H 359.869 -5.16412 -0.392253 0
M  V30 3603 H 356.546 -3.46263 -2.33255 0
M  V30 3604 H 357.936 -6.71872 0.0617349 0
M  V30 3605 N 360.656 0.0484629 -1.57525 0
M  V30 3606 C 362.067 0.597486 -1.76881 0
M  V30 3607 C 362.418 1.76664 -0.853475 0
M  V30 3608 O 361.543 2.16357 -0.0433656 0
M  V30 3609 C 362.138 1.09066 -3.20765 0
M  V30 3610 C 360.697 1.58535 -3.41385 0
M  V30 3611 C 359.844 0.514868 -2.72478 0
M  V30 3612 H 362.795 -0.177758 -1.57701 0
M  V30 3613 H 362.816 1.95875 -3.2621 0
M  V30 3614 H 362.328 0.239521 -3.8736 0
M  V30 3615 H 360.429 2.45898 -2.79937 0
M  V30 3616 H 360.542 1.64622 -4.49929 0
M  V30 3617 H 358.906 0.965407 -2.35695 0
M  V30 3618 H 359.689 -0.32648 -3.41744 0
M  V30 3619 N 362.134 1.5431 0.320358 0
M  V30 3620 C 363.362 1.76636 1.07738 0
M  V30 3621 C 363.777 0.51649 1.81598 0
M  V30 3622 O 363.134 -0.512942 1.75143 0
M  V30 3623 C 363.185 2.96158 2.07299 0
M  V30 3624 O 362.906 4.16313 1.36438 0
M  V30 3625 C 364.407 3.3072 2.95193 0
M  V30 3626 H 361.627 0.589597 0.320339 0
M  V30 3627 H 364.171 2.01207 0.36551 0
M  V30 3628 H 362.326 2.73851 2.74016 0
M  V30 3629 H 362.74 4.83565 2.03138 0
M  V30 3630 H 364.214 4.17643 3.60941 0
M  V30 3631 H 364.691 2.48026 3.62463 0
M  V30 3632 H 365.297 3.55117 2.34034 0
M  V30 3633 N 363.613 -0.582584 1.46437 0
M  V30 3634 C 365.024 -1.1647 1.45916 0
M  V30 3635 C 365.375 -1.95177 0.200077 0
M  V30 3636 O 364.5 -2.04874 -0.696819 0
M  V30 3637 C 365.095 -2.11885 2.64367 0
M  V30 3638 C 363.654 -2.65421 2.66887 0
M  V30 3639 C 362.801 -1.41294 2.38603 0
M  V30 3640 H 365.752 -0.370514 1.54314 0
M  V30 3641 H 365.773 -2.9535 2.39892 0
M  V30 3642 H 365.285 -1.54573 3.5599 0
M  V30 3643 H 363.386 -3.26602 1.79338 0
M  V30 3644 H 363.499 -3.08147 3.66854 0
M  V30 3645 H 361.863 -1.71109 1.88663 0
M  V30 3646 H 362.646 -0.858125 3.32402 0
M  V30 3647 N 365.091 -1.34144 -0.827227 0
M  V30 3648 C 366.339 -1.26009 -1.58007 0
M  V30 3649 C 366.66 0.170971 -1.94249 0
M  V30 3650 O 365.93 1.10256 -1.61927 0
M  V30 3651 H 364.51 -0.463414 -0.585881 0
M  V30 3652 H 367.172 -1.68005 -0.987951 0
M  V30 3653 H 366.268 -1.86187 -2.50481 0
M  V30 3654 N 366.569 1.04691 -1.17803 0
M  V30 3655 C 367.98 1.59238 -0.974689 0
M  V30 3656 C 368.331 1.90306 0.477292 0
M  V30 3657 O 367.456 1.68846 1.35352 0
M  V30 3658 C 368.051 2.89318 -1.76296 0
M  V30 3659 C 366.61 3.40506 -1.60414 0
M  V30 3660 C 365.757 2.14172 -1.76141 0
M  V30 3661 H 368.708 0.874395 -1.32439 0
M  V30 3662 H 368.729 3.5944 -1.24833 0
M  V30 3663 H 368.241 2.66675 -2.81968 0
M  V30 3664 H 366.342 3.68175 -0.572519 0
M  V30 3665 H 366.455 4.14753 -2.39827 0
M  V30 3666 H 364.819 2.25176 -1.19028 0
M  V30 3667 H 365.602 1.93992 -2.83235 0
M  V30 3668 N 368.047 0.979072 1.23499 0
M  V30 3669 C 368.98 0.463027 2.23453 0
M  V30 3670 C 369.958 -0.469128 1.55685 0
M  V30 3671 O 371.142 -0.397882 1.84253 0
M  V30 3672 C 368.269 -0.330308 3.37086 0
M  V30 3673 C 367.315 0.545795 4.22993 0
M  V30 3674 S 368.148 1.99285 4.97037 0
M  V30 3675 C 369.304 1.20862 6.1412 0
M  V30 3676 H 369.537 1.31005 2.6688 0
M  V30 3677 H 367.07 0.784965 1.32957 0
M  V30 3678 H 369.028 -0.782027 4.02982 0
M  V30 3679 H 367.689 -1.15244 2.92194 0
M  V30 3680 H 366.882 -0.0638928 5.03959 0
M  V30 3681 H 366.484 0.933705 3.62157 0
M  V30 3682 H 368.776 0.469284 6.75873 0
M  V30 3683 H 369.719 1.99307 6.79472 0
M  V30 3684 H 370.127 0.727992 5.59786 0
M  V30 3685 N 369.525 -1.3858 0.750561 0
M  V30 3686 C 370.773 -1.99789 0.30477 0
M  V30 3687 C 371.094 -1.59874 -1.11649 0
M  V30 3688 O 370.364 -0.85417 -1.76297 0
M  V30 3689 H 368.944 -0.738902 0.109694 0
M  V30 3690 H 371.606 -1.69391 0.963983 0
M  V30 3691 H 370.702 -3.09952 0.365499 0
M  V30 3692 N 371.003 -0.499398 -1.49478 0
M  V30 3693 C 372.414 -0.051215 -1.8663 0
M  V30 3694 C 372.765 1.36238 -1.41186 0
M  V30 3695 O 371.89 2.01502 -0.789051 0
M  V30 3696 C 372.485 -0.0861651 -3.3869 0
M  V30 3697 C 371.044 0.30667 -3.75149 0
M  V30 3698 C 370.191 -0.459397 -2.73468 0
M  V30 3699 H 373.142 -0.712264 -1.41818 0
M  V30 3700 H 373.163 0.709507 -3.73826 0
M  V30 3701 H 372.675 -1.11512 -3.71735 0
M  V30 3702 H 370.776 1.33892 -3.47712 0
M  V30 3703 H 370.889 -0.0116669 -4.79099 0
M  V30 3704 H 369.253 0.0905645 -2.54539 0
M  V30 3705 H 370.036 -1.4884 -3.09357 0
M  V30 3706 N 372.481 1.55866 -0.233164 0
M  V30 3707 C 373.706 2.03449 0.402906 0
M  V30 3708 C 374.131 1.11166 1.51736 0
M  V30 3709 O 373.489 0.101996 1.81013 0
M  V30 3710 C 373.537 3.49165 0.9009 0
M  V30 3711 O 372.641 3.60019 2.01147 0
M  V30 3712 H 371.982 0.657913 0.0897025 0
M  V30 3713 H 374.512 2.01493 -0.355201 0
M  V30 3714 H 374.522 3.89716 1.2077 0
M  V30 3715 H 373.197 4.15813 0.0852889 0
M  V30 3716 H 371.774 3.3136 1.71042 0
M  V30 3717 N 373.959 -0.0401083 1.57549 0
M  V30 3718 C 375.37 -0.588097 1.77196 0
M  V30 3719 C 375.721 -1.76209 0.862832 0
M  V30 3720 O 374.846 -2.16331 0.0548389 0
M  V30 3721 C 375.441 -1.07363 3.21339 0
M  V30 3722 C 374 -1.56723 3.42221 0
M  V30 3723 C 373.147 -0.50041 2.72747 0
M  V30 3724 H 376.098 0.186119 1.57605 0
M  V30 3725 H 376.119 -1.94143 3.27244 0
M  V30 3726 H 375.631 -0.218975 3.87482 0
M  V30 3727 H 373.732 -2.4441 2.81237 0
M  V30 3728 H 373.845 -1.62234 4.50796 0
M  V30 3729 H 372.209 -0.952894 2.36203 0
M  V30 3730 H 372.992 0.344599 3.41566 0
M  V30 3731 N 375.437 -1.54477 -0.31217 0
M  V30 3732 C 376.848 -1.64344 -0.885891 0
M  V30 3733 C 377.199 -0.54485 -1.88483 0
M  V30 3734 O 376.324 0.320387 -2.14015 0
M  V30 3735 C 376.919 -2.97908 -1.61357 0
M  V30 3736 C 375.478 -3.09933 -2.13585 0
M  V30 3737 C 374.625 -2.59971 -0.964897 0
M  V30 3738 H 377.576 -1.58448 -0.0894528 0
M  V30 3739 H 377.597 -2.88706 -2.47848 0
M  V30 3740 H 377.109 -3.77845 -0.886277 0
M  V30 3741 H 375.21 -2.34694 -2.89395 0
M  V30 3742 H 375.323 -4.15916 -2.37804 0
M  V30 3743 H 373.687 -2.16147 -1.34731 0
M  V30 3744 H 374.47 -3.42376 -0.251742 0
M  V30 3745 N 376.915 0.57481 -1.46744 0
M  V30 3746 C 378.326 1.15695 -1.46532 0
M  V30 3747 C 378.677 1.95068 -0.210425 0
M  V30 3748 O 377.802 2.05241 0.685944 0
M  V30 3749 C 378.397 2.1048 -2.65487 0
M  V30 3750 C 376.956 2.64002 -2.68291 0
M  V30 3751 C 376.103 1.40026 -2.39349 0
M  V30 3752 H 379.054 0.362325 -1.54509 0
M  V30 3753 H 379.075 2.94074 -2.41455 0
M  V30 3754 H 378.587 1.52683 -3.56805 0
M  V30 3755 H 376.688 3.25646 -1.81067 0
M  V30 3756 H 376.801 3.06197 -3.68483 0
M  V30 3757 H 375.165 1.70106 -1.89568 0
M  V30 3758 H 375.948 0.840485 -3.32852 0
M  V30 3759 N 378.394 1.34581 0.820102 0
M  V30 3760 C 379.357 1.2628 1.91275 0
M  V30 3761 C 380.357 0.177344 1.59819 0
M  V30 3762 O 381.547 0.430156 1.68806 0
M  V30 3763 C 378.679 0.950327 3.27386 0
M  V30 3764 H 379.872 2.23421 2.00057 0
M  V30 3765 H 377.425 1.1891 1.0144 0
M  V30 3766 H 378.16 -0.0177938 3.24295 0
M  V30 3767 H 377.945 1.73549 3.51601 0
M  V30 3768 H 379.435 0.917492 4.07396 0
M  V30 3769 N 379.872 -1.04064 1.18357 0
M  V30 3770 C 381.283 -1.58719 0.98312 0
M  V30 3771 C 381.634 -1.90556 -0.467193 0
M  V30 3772 O 380.759 -1.69561 -1.34454 0
M  V30 3773 C 381.354 -2.88379 1.77828 0
M  V30 3774 C 379.913 -3.3965 1.62218 0
M  V30 3775 C 379.06 -2.13235 1.77274 0
M  V30 3776 H 382.011 -0.867359 1.32901 0
M  V30 3777 H 382.032 -3.58773 1.26737 0
M  V30 3778 H 381.544 -2.65176 2.83379 0
M  V30 3779 H 379.645 -3.67866 0.592036 0
M  V30 3780 H 379.758 -4.13475 2.42023 0
M  V30 3781 H 378.122 -2.24542 1.20221 0
M  V30 3782 H 378.905 -1.92487 2.8426 0
M  V30 3783 N 381.35 -0.985608 -1.22978 0
M  V30 3784 C 382.596 -0.65836 -1.91816 0
M  V30 3785 C 382.929 0.806692 -1.76653 0
M  V30 3786 O 382.204 1.58252 -1.13078 0
M  V30 3787 C 382.487 -1.056 -3.44268 0
M  V30 3788 C 382.34 -2.57906 -3.68516 0
M  V30 3789 C 383.659 -0.603781 -4.35939 0
M  V30 3790 H 380.778 -0.24065 -0.696604 0
M  V30 3791 H 383.42 -1.22783 -1.44998 0
M  V30 3792 H 381.57 -0.571445 -3.84274 0
M  V30 3793 H 383.242 -3.13976 -3.3796 0
M  V30 3794 H 381.485 -3.00305 -3.13048 0
M  V30 3795 H 382.156 -2.80779 -4.75255 0
M  V30 3796 H 384.632 -1.01987 -4.03408 0
M  V30 3797 H 383.508 -0.910383 -5.41298 0
M  V30 3798 H 383.769 0.495761 -4.39312 0
M  V30 3799 N 382.828 1.3818 -0.7579 0
M  V30 3800 C 384.239 1.82726 -0.383134 0
M  V30 3801 C 384.59 1.63214 1.08884 0
M  V30 3802 O 383.715 1.13566 1.84205 0
M  V30 3803 C 384.31 3.31728 -0.688631 0
M  V30 3804 C 382.869 3.74606 -0.367091 0
M  V30 3805 C 382.016 2.60896 -0.939599 0
M  V30 3806 H 384.967 1.26847 -0.953699 0
M  V30 3807 H 384.988 3.80487 0.0316492 0
M  V30 3808 H 384.5 3.45898 -1.76001 0
M  V30 3809 H 382.601 3.66013 0.697532 0
M  V30 3810 H 382.714 4.71215 -0.865658 0
M  V30 3811 H 381.078 2.52075 -0.3647 0
M  V30 3812 H 381.861 2.77864 -2.0161 0
M  V30 3813 N 384.306 0.507319 1.49211 0
M  V30 3814 C 385.531 -0.033725 2.07373 0
M  V30 3815 C 385.956 -1.29485 1.36437 0
M  V30 3816 O 385.314 -1.76294 0.423087 0
M  V30 3817 C 385.362 -0.263945 3.59633 0
M  V30 3818 O 384.466 -1.33737 3.90113 0
M  V30 3819 H 383.807 0.0290331 0.663365 0
M  V30 3820 H 386.337 0.708749 1.91932 0
M  V30 3821 H 386.347 -0.493536 4.05004 0
M  V30 3822 H 385.022 0.657424 4.10671 0
M  V30 3823 H 383.599 -1.09224 3.56545 0
M  V30 3824 N 385.784 -1.5574 0.241426 0
M  V30 3825 C 387.195 -1.84842 -0.262755 0
M  V30 3826 C 387.546 -1.16317 -1.58003 0
M  V30 3827 O 386.671 -0.439653 -2.11887 0
M  V30 3828 C 387.266 -3.35332 -0.483523 0
M  V30 3829 C 385.825 -3.6468 -0.931977 0
M  V30 3830 C 384.972 -2.77299 -0.0061151 0
M  V30 3831 H 387.923 -1.51761 0.464129 0
M  V30 3832 H 387.944 -3.56615 -1.32688 0
M  V30 3833 H 387.456 -3.85178 0.47537 0
M  V30 3834 H 385.557 -3.20307 -1.90353 0
M  V30 3835 H 385.67 -4.72498 -0.792628 0
M  V30 3836 H 384.034 -2.49408 -0.516503 0
M  V30 3837 H 384.817 -3.2995 0.948052 0
M  V30 3838 N 387.262 0.0317525 -1.57568 0
M  V30 3839 C 388.192 1.03274 -2.0942 0
M  V30 3840 C 389.173 1.3788 -0.996143 0
M  V30 3841 O 390.358 1.46811 -1.27122 0
M  V30 3842 C 387.488 2.33448 -2.57137 0
M  V30 3843 C 386.442 2.13091 -3.71182 0
M  V30 3844 C 385.768 3.49001 -4.05095 0
M  V30 3845 C 387.068 1.51928 -4.99715 0
M  V30 3846 H 388.762 0.60112 -2.93303 0
M  V30 3847 H 386.308 0.287705 -1.41097 0
M  V30 3848 H 388.261 3.03802 -2.92032 0
M  V30 3849 H 386.985 2.78665 -1.70333 0
M  V30 3850 H 385.644 1.45171 -3.36632 0
M  V30 3851 H 385.292 3.91862 -3.15362 0
M  V30 3852 H 384.992 3.36207 -4.81911 0
M  V30 3853 H 386.516 4.20721 -4.42522 0
M  V30 3854 H 387.93 2.12196 -5.32584 0
M  V30 3855 H 386.327 1.49716 -5.81124 0
M  V30 3856 H 387.397 0.484811 -4.8247 0
M  V30 3857 N 388.74 1.54641 0.303973 0
M  V30 3858 C 389.986 1.74038 1.04109 0
M  V30 3859 C 390.319 0.523051 1.87024 0
M  V30 3860 O 389.594 -0.479874 1.88487 0
M  V30 3861 C 389.877 3.02761 1.94955 0
M  V30 3862 C 389.73 4.34787 1.1524 0
M  V30 3863 C 391.049 3.27336 2.94175 0
M  V30 3864 H 388.168 0.63323 0.377079 0
M  V30 3865 H 390.81 1.87354 0.316001 0
M  V30 3866 H 388.96 2.9154 2.56782 0
M  V30 3867 H 390.632 4.57922 0.557236 0
M  V30 3868 H 388.875 4.31407 0.455053 0
M  V30 3869 H 389.546 5.21116 1.8205 0
M  V30 3870 H 392.022 3.38148 2.42477 0
M  V30 3871 H 390.898 4.18726 3.54908 0
M  V30 3872 H 391.159 2.45491 3.67677 0
M  V30 3873 N 390.218 -0.567019 1.47046 0
M  V30 3874 C 391.466 -1.322 1.52864 0
M  V30 3875 C 391.787 -1.94088 0.188388 0
M  V30 3876 O 391.057 -1.7941 -0.786693 0
M  V30 3877 H 389.637 -0.490894 0.563056 0
M  V30 3878 H 392.299 -0.662879 1.83281 0
M  V30 3879 H 391.395 -2.12062 2.2899 0
M  V30 3880 N 391.696 -1.35014 -0.812953 0
M  V30 3881 C 392.943 -1.27931 -1.56971 0
M  V30 3882 C 393.271 0.148034 -1.93936 0
M  V30 3883 O 392.526 1.11175 -1.61054 0
M  V30 3884 C 392.825 -2.12524 -2.87347 0
M  V30 3885 C 392.491 -3.61401 -2.6963 0
M  V30 3886 C 391.153 -4.01983 -2.64506 0
M  V30 3887 C 393.505 -4.55894 -2.52607 0
M  V30 3888 C 390.833 -5.35235 -2.40293 0
M  V30 3889 C 393.185 -5.89336 -2.29925 0
M  V30 3890 C 391.849 -6.2907 -2.23219 0
M  V30 3891 H 391.119 -0.468131 -0.574399 0
M  V30 3892 H 393.766 -1.66851 -0.939836 0
M  V30 3893 H 392.071 -1.66463 -3.54679 0
M  V30 3894 H 393.768 -2.04383 -3.45005 0
M  V30 3895 H 390.358 -3.29193 -2.74463 0
M  V30 3896 H 394.542 -4.25431 -2.55583 0
M  V30 3897 H 389.798 -5.65028 -2.33566 0
M  V30 3898 H 393.972 -6.62139 -2.15743 0
M  V30 3899 H 391.599 -7.32256 -2.04219 0
M  V30 3900 N 393.175 1.03435 -1.18907 0
M  V30 3901 C 394.4 1.80919 -1.01406 0
M  V30 3902 C 394.825 1.83055 0.432721 0
M  V30 3903 O 394.183 1.25252 1.31079 0
M  V30 3904 C 394.231 3.24091 -1.58105 0
M  V30 3905 O 393.335 4.04434 -0.806669 0
M  V30 3906 H 392.676 0.558709 -0.358803 0
M  V30 3907 H 395.206 1.30223 -1.57807 0
M  V30 3908 H 395.216 3.74853 -1.61087 0
M  V30 3909 H 393.891 3.21851 -2.6341 0
M  V30 3910 H 392.468 3.63091 -0.849666 0
M  V30 3911 N 394.653 0.992116 1.22453 0
M  V30 3912 C 395.585 0.500024 2.23679 0
M  V30 3913 C 396.598 -0.404463 1.57696 0
M  V30 3914 O 397.787 -0.206722 1.77299 0
M  V30 3915 C 394.887 -0.294711 3.37616 0
M  V30 3916 C 394.06 0.605723 4.33186 0
M  V30 3917 C 393.119 -0.13717 5.26021 0
M  V30 3918 O 392.145 0.477164 5.67196 0
M  V30 3919 N 393.347 -1.4197 5.62872 0
M  V30 3920 H 396.112 1.37045 2.66531 0
M  V30 3921 H 393.673 0.866741 1.36745 0
M  V30 3922 H 395.665 -0.800329 3.96707 0
M  V30 3923 H 394.235 -1.06623 2.93854 0
M  V30 3924 H 393.455 1.29202 3.72425 0
M  V30 3925 H 394.743 1.21896 4.93983 0
M  V30 3926 H 394.141 -1.94015 5.31389 0
M  V30 3927 H 392.698 -1.87052 6.24383 0
M  V30 3928 N 396.131 -1.37776 0.765217 0
M  V30 3929 C 397.378 -1.99849 0.326588 0
M  V30 3930 C 397.706 -1.60746 -1.09504 0
M  V30 3931 O 396.961 -0.84202 -1.76659 0
M  V30 3932 C 397.26 -3.5504 0.410053 0
M  V30 3933 C 396.926 -4.13891 1.78899 0
M  V30 3934 C 395.588 -4.29678 2.16635 0
M  V30 3935 C 397.94 -4.46236 2.69301 0
M  V30 3936 C 395.268 -4.7511 3.44221 0
M  V30 3937 C 397.62 -4.93089 3.9629 0
M  V30 3938 C 396.284 -5.07082 4.34078 0
M  V30 3939 H 395.554 -0.7313 0.119507 0
M  V30 3940 H 398.201 -1.64645 0.977968 0
M  V30 3941 H 396.506 -3.90451 -0.324878 0
M  V30 3942 H 398.203 -4.00966 0.0520699 0
M  V30 3943 H 394.793 -4.02026 1.48569 0
M  V30 3944 H 398.977 -4.3363 2.41409 0
M  V30 3945 H 394.233 -4.84129 3.73402 0
M  V30 3946 H 398.407 -5.17084 4.66472 0
M  V30 3947 H 396.034 -5.42046 5.33001 0
M  V30 3948 N 397.609 -0.515225 -1.4894 0
M  V30 3949 C 399.02 -0.0710067 -1.86565 0
M  V30 3950 C 399.371 1.34733 -1.42623 0
M  V30 3951 O 398.496 2.00653 -0.810379 0
M  V30 3952 C 399.091 -0.122083 -3.3858 0
M  V30 3953 C 397.65 0.266863 -3.75453 0
M  V30 3954 C 396.797 -0.488376 -2.72966 0
M  V30 3955 H 399.748 -0.727266 -1.41055 0
M  V30 3956 H 399.769 0.669818 -3.74558 0
M  V30 3957 H 399.281 -1.15448 -3.70531 0
M  V30 3958 H 397.382 1.30196 -3.49113 0
M  V30 3959 H 397.495 -0.0624811 -4.79059 0
M  V30 3960 H 395.859 0.0635622 -2.54621 0
M  V30 3961 H 396.642 -1.52113 -3.07761 0
M  V30 3962 N 399.087 1.5561 -0.249682 0
M  V30 3963 C 400.019 2.18834 0.681496 0
M  V30 3964 C 401.032 1.16546 1.1367 0
M  V30 3965 O 402.221 1.43397 1.06299 0
M  V30 3966 C 399.321 2.77992 1.9384 0
M  V30 3967 C 398.494 4.05725 1.63419 0
M  V30 3968 C 397.553 4.49174 2.74096 0
M  V30 3969 O 396.579 5.15492 2.41364 0
M  V30 3970 N 397.781 4.17191 4.03649 0
M  V30 3971 H 400.546 2.9937 0.140514 0
M  V30 3972 H 398.107 1.6175 -0.0697541 0
M  V30 3973 H 400.099 3.04015 2.67127 0
M  V30 3974 H 398.669 2.01596 2.38909 0
M  V30 3975 H 397.889 3.87261 0.736358 0
M  V30 3976 H 399.177 4.88999 1.40562 0
M  V30 3977 H 398.575 3.63955 4.33074 0
M  V30 3978 H 397.132 4.48043 4.73393 0
M  V30 3979 N 400.565 -0.0233959 1.57583 0
M  V30 3980 C 401.497 -1.04994 2.03737 0
M  V30 3981 C 402.51 -1.32125 0.951152 0
M  V30 3982 O 403.699 -1.29512 1.22837 0
M  V30 3983 C 400.799 -2.39026 2.40249 0
M  V30 3984 C 399.972 -2.31171 3.7132 0
M  V30 3985 C 399.031 -3.47698 3.94959 0
M  V30 3986 O 398.057 -3.26937 4.65941 0
M  V30 3987 N 399.259 -4.6976 3.41037 0
M  V30 3988 H 402.024 -0.656507 2.92421 0
M  V30 3989 H 399.585 -0.211235 1.60516 0
M  V30 3990 H 401.577 -3.15712 2.53196 0
M  V30 3991 H 400.147 -2.70194 1.57207 0
M  V30 3992 H 399.367 -1.39547 3.68674 0
M  V30 3993 H 400.655 -2.23071 4.57293 0
M  V30 3994 H 400.053 -4.89528 2.83512 0
M  V30 3995 H 398.61 -5.43791 3.59353 0
M  V30 3996 N 402.043 -1.548 -0.295768 0
M  V30 3997 C 402.973 -1.89115 -1.36959 0
M  V30 3998 C 403.954 -0.75059 -1.52644 0
M  V30 3999 O 405.139 -1.00678 -1.66065 0
M  V30 4000 C 402.269 -2.14307 -2.73295 0
M  V30 4001 C 401.223 -3.30151 -2.72368 0
M  V30 4002 C 400.549 -3.40772 -4.12042 0
M  V30 4003 C 401.849 -4.67126 -2.33646 0
M  V30 4004 H 403.543 -2.79053 -1.08488 0
M  V30 4005 H 401.089 -1.34266 -0.520443 0
M  V30 4006 H 403.042 -2.36898 -3.48507 0
M  V30 4007 H 401.766 -1.21145 -3.03301 0
M  V30 4008 H 400.425 -3.0749 -1.99613 0
M  V30 4009 H 400.073 -2.45117 -4.39234 0
M  V30 4010 H 399.773 -4.18645 -4.12322 0
M  V30 4011 H 401.297 -3.6563 -4.89027 0
M  V30 4012 H 402.711 -4.89414 -2.98575 0
M  V30 4013 H 401.108 -5.47751 -2.45129 0
M  V30 4014 H 402.178 -4.67489 -1.28772 0
M  V30 4015 N 403.521 0.559213 -1.47345 0
M  V30 4016 C 404.749 1.34194 -1.57479 0
M  V30 4017 C 405.164 1.87463 -0.224261 0
M  V30 4018 O 404.521 1.64888 0.782185 0
M  V30 4019 C 404.572 2.51324 -2.59843 0
M  V30 4020 O 404.293 2.00256 -3.89653 0
M  V30 4021 C 405.794 3.43563 -2.80142 0
M  V30 4022 H 403.014 0.409136 -0.531835 0
M  V30 4023 H 405.558 0.677609 -1.92947 0
M  V30 4024 H 403.713 3.13699 -2.27314 0
M  V30 4025 H 404.127 2.76708 -4.4557 0
M  V30 4026 H 405.601 4.2217 -3.55635 0
M  V30 4027 H 406.078 3.9698 -1.87892 0
M  V30 4028 H 406.684 2.87005 -3.1386 0
M  V30 4029 N 404.999 1.35443 0.805782 0
M  V30 4030 C 406.41 1.25768 1.37983 0
M  V30 4031 C 406.761 -0.10958 1.95894 0
M  V30 4032 O 405.886 -1.01056 1.91355 0
M  V30 4033 C 406.481 2.27727 2.5085 0
M  V30 4034 C 405.04 2.2179 3.04115 0
M  V30 4035 C 404.187 2.13393 1.77084 0
M  V30 4036 H 407.138 1.4656 0.608752 0
M  V30 4037 H 407.159 1.90422 3.29424 0
M  V30 4038 H 406.671 3.27227 2.08671 0
M  V30 4039 H 404.772 1.25703 3.50756 0
M  V30 4040 H 404.885 3.13788 3.62042 0
M  V30 4041 H 403.249 1.59384 1.98668 0
M  V30 4042 H 404.032 3.14755 1.37056 0
M  V30 4043 N 406.477 -1.02803 1.19454 0
M  V30 4044 C 407.888 -1.57667 0.999899 0
M  V30 4045 C 408.239 -1.91041 -0.446956 0
M  V30 4046 O 407.364 -1.70978 -1.32648 0
M  V30 4047 C 407.959 -2.86477 1.80877 0
M  V30 4048 C 406.518 -3.37911 1.65811 0
M  V30 4049 C 405.665 -2.11343 1.79526 0
M  V30 4050 H 408.616 -0.853214 1.33813 0
M  V30 4051 H 408.637 -3.57408 1.30536 0
M  V30 4052 H 408.149 -2.62155 2.86175 0
M  V30 4053 H 406.25 -3.67218 0.63102 0
M  V30 4054 H 406.363 -4.10885 2.46395 0
M  V30 4055 H 404.727 -2.23254 1.22596 0
M  V30 4056 H 405.51 -1.89461 2.86285 0
M  V30 4057 N 407.956 -0.998596 -1.21925 0
M  V30 4058 C 409.372 -0.710303 -1.42923 0
M  V30 4059 C 409.572 0.716933 -1.88314 0
M  V30 4060 O 408.628 1.48712 -2.04062 0
M  V30 4061 C 409.941 -1.72072 -2.466 0
M  V30 4062 C 411.489 -1.73681 -2.60392 0
M  V30 4063 C 411.964 -2.73601 -3.67296 0
M  V30 4064 N 413.455 -2.7223 -3.7476 0
M  V30 4065 C 414.19 -3.46206 -4.57087 0
M  V30 4066 N 413.686 -4.29802 -5.43362 0
M  V30 4067 N 415.479 -3.34886 -4.51451 0
M  V30 4068 H 407.63 -1.92028 -0.9077 0
M  V30 4069 H 409.893 -0.828487 -0.460775 0
M  V30 4070 H 409.599 -2.74231 -2.20206 0
M  V30 4071 H 409.473 -1.51818 -3.45299 0
M  V30 4072 H 411.86 -0.722173 -2.86127 0
M  V30 4073 H 411.941 -1.98005 -1.61949 0
M  V30 4074 H 411.585 -3.75217 -3.42307 0
M  V30 4075 H 411.515 -2.46545 -4.65321 0
M  V30 4076 H 414.006 -2.11576 -3.1312 0
M  V30 4077 H 414.319 -4.83061 -6.03218 0
M  V30 4078 H 412.664 -4.33887 -5.42925 0
M  V30 4079 H 415.855 -2.69015 -3.83078 0
M  V30 4080 H 416.028 -3.92796 -5.15379 0
M  V30 4081 N 409.434 1.37368 -0.772513 0
M  V30 4082 C 410.659 2.0447 -0.347386 0
M  V30 4083 C 411.084 1.57882 1.0225 0
M  V30 4084 O 410.442 0.73941 1.65537 0
M  V30 4085 C 410.49 3.58369 -0.400479 0
M  V30 4086 O 409.594 4.0803 0.598789 0
M  V30 4087 H 408.935 0.646773 -0.15027 0
M  V30 4088 H 411.465 1.75667 -1.04892 0
M  V30 4089 H 411.475 4.07183 -0.258045 0
M  V30 4090 H 410.15 3.91633 -1.39986 0
M  V30 4091 H 408.727 3.70534 0.419411 0
M  V30 4092 N 410.912 0.523116 1.48665 0
M  V30 4093 C 412.323 0.0808997 1.86525 0
M  V30 4094 C 412.674 -1.33975 1.43336 0
M  V30 4095 O 411.799 -2.00221 0.821009 0
M  V30 4096 C 412.394 0.140037 3.3851 0
M  V30 4097 C 410.953 -0.246948 3.75589 0
M  V30 4098 C 410.1 0.502845 2.72703 0
M  V30 4099 H 413.051 0.734736 1.40667 0
M  V30 4100 H 413.072 -0.649945 3.74908 0
M  V30 4101 H 412.584 1.17412 3.69914 0
M  V30 4102 H 410.685 -1.28343 3.49798 0
M  V30 4103 H 410.798 0.0878859 4.79019 0
M  V30 4104 H 409.162 -0.0500581 2.54651 0
M  V30 4105 H 409.945 1.53743 3.0695 0
M  V30 4106 N 412.39 -1.55475 0.257931 0
M  V30 4107 C 413.615 -2.04064 -0.370488 0
M  V30 4108 C 414.04 -1.13565 -1.49948 0
M  V30 4109 O 413.398 -0.130781 -1.80828 0
M  V30 4110 C 413.446 -3.50554 -0.845237 0
M  V30 4111 O 412.55 -3.63173 -1.95394 0
M  V30 4112 H 411.891 -0.659257 -0.0792243 0
M  V30 4113 H 414.421 -2.00903 0.387212 0
M  V30 4114 H 414.431 -3.91588 -1.14555 0
M  V30 4115 H 413.106 -4.15896 -0.0191259 0
M  V30 4116 H 411.683 -3.34039 -1.65748 0
M  V30 4117 N 413.868 0.0150385 -1.57593 0
M  V30 4118 C 415.279 0.559832 -1.78109 0
M  V30 4119 C 415.63 1.74814 -0.890756 0
M  V30 4120 O 414.755 2.16216 -0.0892482 0
M  V30 4121 C 415.35 1.02238 -3.23006 0
M  V30 4122 C 413.909 1.51258 -3.44671 0
M  V30 4123 C 413.056 0.456955 -2.73509 0
M  V30 4124 H 416.007 -0.211169 -1.57289 0
M  V30 4125 H 416.028 1.88912 -3.30292 0
M  V30 4126 H 415.54 0.157302 -3.87781 0
M  V30 4127 H 413.641 2.39905 -2.8509 0
M  V30 4128 H 413.754 1.55042 -4.5332 0
M  V30 4129 H 412.118 0.915196 -2.37689 0
M  V30 4130 H 412.901 -0.398896 -3.40975 0
M  V30 4131 N 415.346 1.54954 0.287554 0
M  V30 4132 C 416.256 1.8991 1.37736 0
M  V30 4133 C 417.272 0.794701 1.54792 0
M  V30 4134 O 418.448 1.09243 1.69198 0
M  V30 4135 C 415.513 2.15108 2.71899 0
M  V30 4136 C 414.574 3.38752 2.63715 0
M  V30 4137 C 413.807 3.62739 3.91479 0
M  V30 4138 O 414.03 2.89492 4.91478 0
M  V30 4139 O 412.964 4.56267 3.92561 0
M  V30 4140 H 416.79 2.82652 1.11092 0
M  V30 4141 H 414.375 1.41315 0.484807 0
M  V30 4142 H 416.257 2.32806 3.51254 0
M  V30 4143 H 414.932 1.25551 2.9836 0
M  V30 4144 H 413.839 3.26405 1.82786 0
M  V30 4145 H 415.172 4.28483 2.42205 0
M  V30 4146 N 416.824 -0.551391 1.4764 0
M  V30 4147 C 418.235 -1.13349 1.48354 0
M  V30 4148 C 418.586 -1.94709 0.241432 0
M  V30 4149 O 417.711 -2.06306 -0.653205 0
M  V30 4150 C 418.306 -2.0623 2.68802 0
M  V30 4151 C 416.865 -2.597 2.72457 0
M  V30 4152 C 416.012 -1.36201 2.41546 0
M  V30 4153 H 418.963 -0.337698 1.55065 0
M  V30 4154 H 418.984 -2.90196 2.46103 0
M  V30 4155 H 418.496 -1.46987 3.59188 0
M  V30 4156 H 416.597 -3.22724 1.86225 0
M  V30 4157 H 416.71 -3.00296 3.73308 0
M  V30 4158 H 415.074 -1.67068 1.9225 0
M  V30 4159 H 415.857 -0.787425 3.34147 0
M  V30 4160 N 418.302 -1.35869 -0.798587 0
M  V30 4161 C 419.53 -1.32722 -1.58722 0
M  V30 4162 C 419.945 0.0935631 -1.88568 0
M  V30 4163 O 419.302 1.04784 -1.49421 0
M  V30 4164 C 419.353 -2.13974 -2.91371 0
M  V30 4165 O 419.074 -3.50514 -2.62815 0
M  V30 4166 C 420.575 -2.18504 -3.85708 0
M  V30 4167 H 417.795 -0.45562 -0.492596 0
M  V30 4168 H 420.339 -1.78837 -0.991843 0
M  V30 4169 H 418.494 -1.71438 -3.47402 0
M  V30 4170 H 418.908 -3.92806 -3.47568 0
M  V30 4171 H 420.382 -2.79732 -4.75872 0
M  V30 4172 H 420.859 -1.18597 -4.22885 0
M  V30 4173 H 421.465 -2.61236 -3.35612 0
M  V30 4174 N 419.78 1.02168 -1.19998 0
M  V30 4175 C 421.026 1.75945 -1.00852 0
M  V30 4176 C 421.359 1.88702 0.458828 0
M  V30 4177 O 420.634 1.40911 1.34069 0
M  V30 4178 C 420.917 3.18154 -1.68671 0
M  V30 4179 C 420.77 3.13224 -3.22817 0
M  V30 4180 C 422.089 4.16711 -1.41561 0
M  V30 4181 H 419.208 0.638673 -0.367785 0
M  V30 4182 H 421.85 1.19222 -1.4794 0
M  V30 4183 H 420 3.66586 -1.28636 0
M  V30 4184 H 421.672 2.72635 -3.72112 0
M  V30 4185 H 419.915 2.50751 -3.53986 0
M  V30 4186 H 420.586 4.13728 -3.65422 0
M  V30 4187 H 423.062 3.76913 -1.76284 0
M  V30 4188 H 421.938 5.14391 -1.91553 0
M  V30 4189 H 422.199 4.40774 -0.342193 0
M  V30 4190 N 421.258 1.00505 1.21394 0
M  V30 4191 C 422.168 0.574806 2.27449 0
M  V30 4192 C 423.184 -0.382206 1.6975 0
M  V30 4193 O 424.36 -0.246027 1.99892 0
M  V30 4194 C 421.425 -0.0917414 3.46579 0
M  V30 4195 C 420.486 0.909758 4.1955 0
M  V30 4196 C 419.719 0.274924 5.32991 0
M  V30 4197 O 419.942 -0.928254 5.62796 0
M  V30 4198 O 418.876 0.985877 5.93771 0
M  V30 4199 H 422.702 1.45744 2.66444 0
M  V30 4200 H 420.287 0.773923 1.27792 0
M  V30 4201 H 422.169 -0.464551 4.18832 0
M  V30 4202 H 420.844 -0.948755 3.09484 0
M  V30 4203 H 419.751 1.33372 3.49518 0
M  V30 4204 H 421.084 1.73636 4.60555 0
M  V30 4205 N 422.737 -1.36956 0.779787 0
M  V30 4206 C 424.014 -1.93697 0.272156 0
M  V30 4207 C 424.394 -1.71267 -1.23413 0
M  V30 4208 O 423.742 -1.06607 -2.02107 0
M  V30 4209 C 423.952 -3.42812 0.654291 0
M  V30 4210 C 425.3 -4.19921 0.628602 0
M  V30 4211 O 426.324 -3.51209 0.594172 0
M  V30 4212 O 425.183 -5.42465 0.662864 0
M  V30 4213 H 422.277 -0.824447 0.0649286 0
M  V30 4214 H 424.823 -1.46196 0.861682 0
M  V30 4215 H 423.595 -3.52754 1.69353 0
M  V30 4216 H 423.218 -3.97582 0.0381369 0
M  V30 4217 N 424.215 -0.530993 -1.48385 0
M  V30 4218 C 425.461 0.00274135 -2.028 0
M  V30 4219 C 425.794 1.33838 -1.40716 0
M  V30 4220 O 425.069 1.86465 -0.553277 0
M  V30 4221 C 425.352 0.123676 -3.59888 0
M  V30 4222 C 425.205 -1.2372 -4.3245 0
M  V30 4223 C 426.524 0.849967 -4.31814 0
M  V30 4224 H 423.643 -0.000477758 -0.737 0
M  V30 4225 H 426.285 -0.688217 -1.77098 0
M  V30 4226 H 424.435 0.712157 -3.81917 0
M  V30 4227 H 426.107 -1.86687 -4.21836 0
M  V30 4228 H 424.35 -1.81882 -3.93829 0
M  V30 4229 H 425.021 -1.10557 -5.40815 0
M  V30 4230 H 427.497 0.350572 -4.14621 0
M  V30 4231 H 426.373 0.903486 -5.41413 0
M  V30 4232 H 426.634 1.90047 -3.99167 0
M  V30 4233 N 425.693 1.55336 -0.266172 0
M  V30 4234 C 426.942 1.98574 0.353749 0
M  V30 4235 C 427.255 1.15789 1.57646 0
M  V30 4236 O 428.461 1.49129 2.26876 0
M  V30 4237 C 426.917 3.53403 0.680747 0
M  V30 4238 C 426.525 4.44953 -0.52165 0
M  V30 4239 C 428.269 4.05251 1.26379 0
M  V30 4240 C 426.176 5.91156 -0.169736 0
M  V30 4241 H 425.106 0.741643 0.135949 0
M  V30 4242 H 427.757 1.79743 -0.369421 0
M  V30 4243 H 426.139 3.68001 1.46257 0
M  V30 4244 H 427.313 4.42121 -1.29869 0
M  V30 4245 H 425.628 4.03691 -1.02093 0
M  V30 4246 H 428.225 5.12021 1.54074 0
M  V30 4247 H 428.568 3.53749 2.19471 0
M  V30 4248 H 429.101 3.94057 0.544447 0
M  V30 4249 H 425.84 6.46736 -1.0683 0
M  V30 4250 H 425.36 5.97079 0.570717 0
M  V30 4251 H 427.039 6.4655 0.241245 0
M  V30 4252 N 427.171 -0.0066808 1.57599 0
M  V30 4253 C 428.396 -0.707738 1.94951 0
M  V30 4254 C 428.821 -1.66882 0.867868 0
M  V30 4255 O 428.179 -1.80457 -0.17458 0
M  V30 4256 C 428.227 -1.42162 3.31394 0
M  V30 4257 O 427.331 -2.53578 3.25226 0
M  V30 4258 H 426.672 -0.188752 0.636607 0
M  V30 4259 H 429.202 0.0445193 2.04552 0
M  V30 4260 H 429.212 -1.78655 3.66806 0
M  V30 4261 H 427.887 -0.716903 4.09675 0
M  V30 4262 H 426.464 -2.19463 3.01481 0
M  V30 4263 N 428.649 -1.55105 -0.279332 0
M  V30 4264 C 429.581 -1.83952 -1.36727 0
M  V30 4265 C 430.594 -0.723642 -1.45833 0
M  V30 4266 O 431.783 -1.00141 -1.47763 0
M  V30 4267 C 428.883 -1.98183 -2.74912 0
M  V30 4268 C 428.056 -3.28787 -2.88475 0
M  V30 4269 C 427.115 -3.33162 -4.07295 0
M  V30 4270 O 426.141 -4.06576 -3.98353 0
M  V30 4271 N 427.343 -2.60109 -5.18964 0
M  V30 4272 H 430.108 -2.77853 -1.12328 0
M  V30 4273 H 427.669 -1.54945 -0.469442 0
M  V30 4274 H 429.661 -1.98488 -3.52682 0
M  V30 4275 H 428.231 -1.11177 -2.92162 0
M  V30 4276 H 427.451 -3.41075 -1.97641 0
M  V30 4277 H 428.739 -4.14933 -2.94463 0
M  V30 4278 H 428.137 -2.00136 -5.29115 0
M  V30 4279 H 426.694 -2.66143 -5.94988 0
M  V30 4280 N 430.127 0.543554 -1.4793 0
M  V30 4281 C 431.373 1.30201 -1.55485 0
M  V30 4282 C 431.706 1.92925 -0.222201 0
M  V30 4283 O 430.981 1.78586 0.77053 0
M  V30 4284 C 431.264 2.40174 -2.68307 0
M  V30 4285 C 431.117 1.8223 -4.11233 0
M  V30 4286 C 432.436 3.42024 -2.76961 0
M  V30 4287 H 429.555 0.472036 -0.565996 0
M  V30 4288 H 432.197 0.606914 -1.80046 0
M  V30 4289 H 430.347 2.99463 -2.47495 0
M  V30 4290 H 432.019 1.27096 -4.43446 0
M  V30 4291 H 430.262 1.12832 -4.18869 0
M  V30 4292 H 430.933 2.61793 -4.85972 0
M  V30 4293 H 433.409 2.92672 -2.95774 0
M  V30 4294 H 432.285 4.16383 -3.57654 0
M  V30 4295 H 432.546 4.0173 -1.84568 0
M  V30 4296 N 431.605 1.3629 0.791371 0
M  V30 4297 C 432.568 1.30309 1.88553 0
M  V30 4298 C 433.568 0.211204 1.59407 0
M  V30 4299 O 434.758 0.465865 1.67855 0
M  V30 4300 C 431.89 1.01956 3.25297 0
M  V30 4301 H 433.083 2.27614 1.95273 0
M  V30 4302 H 430.636 1.21035 0.988953 0
M  V30 4303 H 431.371 0.050998 3.2426 0
M  V30 4304 H 431.156 1.80968 3.4784 0
M  V30 4305 H 432.646 1.0037 4.05359 0
M  V30 4306 N 433.083 -1.0153 1.20538 0
M  V30 4307 C 434.499 -1.27461 0.96051 0
M  V30 4308 C 434.699 -1.98273 -0.359193 0
M  V30 4309 O 433.755 -2.27886 -1.0874 0
M  V30 4310 C 435.068 -2.10837 2.14402 0
M  V30 4311 C 436.616 -2.24099 2.18515 0
M  V30 4312 C 437.091 -3.10852 3.36355 0
M  V30 4313 N 438.582 -3.18441 3.36377 0
M  V30 4314 C 439.317 -3.85795 4.24205 0
M  V30 4315 N 438.813 -4.55264 5.22213 0
M  V30 4316 N 440.606 -3.82331 4.12043 0
M  V30 4317 H 432.757 -0.539907 2.05423 0
M  V30 4318 H 435.02 -0.30092 0.898972 0
M  V30 4319 H 434.726 -1.66144 3.09983 0
M  V30 4320 H 434.6 -3.11576 2.12604 0
M  V30 4321 H 436.987 -2.68016 1.23497 0
M  V30 4322 H 437.068 -1.22865 2.24361 0
M  V30 4323 H 436.712 -2.6764 4.31661 0
M  V30 4324 H 436.642 -4.12177 3.27746 0
M  V30 4325 H 439.133 -2.68978 2.65442 0
M  V30 4326 H 439.446 -5.04331 5.85551 0
M  V30 4327 H 437.791 -4.54085 5.26148 0
M  V30 4328 H 440.982 -3.27207 3.34743 0
M  V30 4329 H 441.155 -4.34547 4.807 0
M  V30 4330 N 434.561 -1.01147 -1.20859 0
M  V30 4331 C 435.524 -0.582224 -2.21682 0
M  V30 4332 C 436.524 0.344887 -1.57058 0
M  V30 4333 O 437.714 0.134281 -1.73682 0
M  V30 4334 C 434.846 0.150496 -3.40568 0
M  V30 4335 H 436.039 -1.47408 -2.61172 0
M  V30 4336 H 433.592 -0.800695 -1.34233 0
M  V30 4337 H 434.327 1.0575 -3.06574 0
M  V30 4338 H 434.112 -0.515444 -3.88697 0
M  V30 4339 H 435.602 0.438344 -4.15293 0
M  V30 4340 N 436.039 1.36541 -0.78704 0
M  V30 4341 C 436.989 2.27459 -0.156957 0
M  V30 4342 C 437.973 1.46843 0.657709 0
M  V30 4343 O 439.165 1.69245 0.518173 0
M  V30 4344 C 436.294 3.35893 0.709278 0
M  V30 4345 C 435.38 4.23947 -0.114049 0
M  V30 4346 N 435.771 4.92145 -1.16736 0
M  V30 4347 C 434.069 4.4587 0.107497 0
M  V30 4348 C 434.77 5.57261 -1.66837 0
M  V30 4349 N 433.746 5.3473 -0.977992 0
M  V30 4350 H 437.548 2.77669 -0.963185 0
M  V30 4351 H 435.062 1.49839 -0.62627 0
M  V30 4352 H 437.059 3.99953 1.17656 0
M  V30 4353 H 435.719 2.87238 1.51408 0
M  V30 4354 H 436.73 4.94169 -1.54976 0
M  V30 4355 H 433.407 4.08056 0.882994 0
M  V30 4356 H 434.797 6.21728 -2.54762 0
M  V30 4357 N 437.518 0.538854 1.48102 0
M  V30 4358 C 438.934 0.19732 1.58376 0
M  V30 4359 C 439.134 -1.29971 1.5398 0
M  V30 4360 O 438.19 -2.07861 1.43352 0
M  V30 4361 C 439.503 0.807716 2.89649 0
M  V30 4362 C 441.051 0.77726 3.03196 0
M  V30 4363 C 441.526 1.36639 4.37143 0
M  V30 4364 N 443.017 1.32875 4.43732 0
M  V30 4365 C 443.752 1.7544 5.45901 0
M  V30 4366 N 443.248 2.25776 6.54979 0
M  V30 4367 N 445.041 1.66623 5.36836 0
M  V30 4368 H 437.192 1.5117 1.49202 0
M  V30 4369 H 439.455 0.629327 0.708979 0
M  V30 4370 H 439.161 1.85909 2.98548 0
M  V30 4371 H 439.035 0.289975 3.76084 0
M  V30 4372 H 441.422 -0.265374 2.93904 0
M  V30 4373 H 441.503 1.33256 2.18349 0
M  V30 4374 H 441.147 2.408 4.47189 0
M  V30 4375 H 441.077 0.786689 5.20691 0
M  V30 4376 H 443.568 0.96037 3.65493 0
M  V30 4377 H 443.881 2.56226 7.29087 0
M  V30 4378 H 442.226 2.29775 6.55918 0
M  V30 4379 H 445.417 1.27089 4.50517 0
M  V30 4380 H 445.59 2.00115 6.16326 0
M  V30 4381 N 438.996 -1.55193 0.274407 0
M  V30 4382 C 439.906 -2.26164 -0.623473 0
M  V30 4383 C 440.922 -1.28729 -1.17068 0
M  V30 4384 O 442.098 -1.61663 -1.20112 0
M  V30 4385 C 439.163 -2.96833 -1.7914 0
M  V30 4386 C 438.224 -4.09745 -1.28093 0
M  V30 4387 C 437.457 -4.77034 -2.3932 0
M  V30 4388 O 437.68 -4.4353 -3.5866 0
M  V30 4389 O 436.614 -5.64996 -2.07516 0
M  V30 4390 H 440.44 -3.03661 -0.0485661 0
M  V30 4391 H 438.025 -1.49341 0.0418382 0
M  V30 4392 H 439.907 -3.41248 -2.4724 0
M  V30 4393 H 438.582 -2.22253 -2.35341 0
M  V30 4394 H 437.489 -3.69787 -0.566416 0
M  V30 4395 H 438.822 -4.86224 -0.764683 0
M  V30 4396 N 440.474 -0.00167713 -1.576 0
M  V30 4397 C 441.723 0.682021 -1.89819 0
M  V30 4398 C 442.036 1.74844 -0.876871 0
M  V30 4399 O 443.242 2.48688 -1.08934 0
M  V30 4400 C 441.698 1.26425 -3.36964 0
M  V30 4401 C 441.306 0.232568 -4.47396 0
M  V30 4402 C 443.05 1.92604 -3.78291 0
M  V30 4403 C 440.957 0.824882 -5.85619 0
M  V30 4404 H 439.887 0.258499 -0.708304 0
M  V30 4405 H 442.538 -0.0624957 -1.83394 0
M  V30 4406 H 440.92 2.05949 -3.38232 0
M  V30 4407 H 442.094 -0.5382 -4.57646 0
M  V30 4408 H 440.409 -0.32888 -4.15099 0
M  V30 4409 H 443.006 2.37827 -4.78897 0
M  V30 4410 H 443.349 2.75732 -3.11894 0
M  V30 4411 H 443.882 1.19812 -3.79328 0
M  V30 4412 H 440.621 0.0323542 -6.55492 0
M  V30 4413 H 440.141 1.56477 -5.79029 0
M  V30 4414 H 441.82 1.32301 -6.33329 0
M  V30 4415 N 441.952 1.55251 0.271103 0
M  V30 4416 C 443.199 1.75946 1.00245 0
M  V30 4417 C 443.527 0.561611 1.86215 0
M  V30 4418 O 442.782 -0.455832 1.90317 0
M  V30 4419 C 443.081 3.01879 1.91321 0
M  V30 4420 C 442.747 4.34337 1.21086 0
M  V30 4421 C 441.409 4.70338 1.01666 0
M  V30 4422 C 443.761 5.16325 0.71119 0
M  V30 4423 C 441.089 5.8588 0.310099 0
M  V30 4424 C 443.441 6.32597 0.0182157 0
M  V30 4425 C 442.105 6.67236 -0.18768 0
M  V30 4426 H 441.375 0.643833 0.366824 0
M  V30 4427 H 444.022 1.89521 0.27458 0
M  V30 4428 H 442.327 2.83212 2.70736 0
M  V30 4429 H 444.024 3.15088 2.48033 0
M  V30 4430 H 440.614 4.06043 1.37213 0
M  V30 4431 H 444.798 4.88987 0.848844 0
M  V30 4432 H 440.054 6.1124 0.139873 0
M  V30 4433 H 444.228 6.9538 -0.376711 0
M  V30 4434 H 441.855 7.56618 -0.73715 0
M  V30 4435 N 443.43 -0.535701 1.48216 0
M  V30 4436 C 444.658 -1.31671 1.59594 0
M  V30 4437 C 445.073 -1.87083 0.254056 0
M  V30 4438 O 444.43 -1.66112 -0.755854 0
M  V30 4439 C 444.481 -2.47158 2.63809 0
M  V30 4440 O 444.202 -1.94032 3.92789 0
M  V30 4441 C 445.703 -3.39062 2.85573 0
M  V30 4442 H 442.923 -0.400623 0.538277 0
M  V30 4443 H 445.467 -0.646827 1.94001 0
M  V30 4444 H 443.622 -3.10043 2.32276 0
M  V30 4445 H 444.036 -2.69585 4.49916 0
M  V30 4446 H 445.51 -4.16459 3.62306 0
M  V30 4447 H 445.987 -3.93941 1.94184 0
M  V30 4448 H 446.593 -2.81975 3.18387 0
M  V30 4449 N 444.908 -1.36708 -0.784132 0
M  V30 4450 C 446.138 -1.34203 -1.57077 0
M  V30 4451 C 446.546 0.0774945 -1.89041 0
M  V30 4452 O 445.889 1.04628 -1.50992 0
M  V30 4453 C 445.951 -2.10351 -2.91535 0
M  V30 4454 C 445.615 -3.59405 -2.82272 0
M  V30 4455 C 446.612 -4.53545 -2.54151 0
M  V30 4456 C 444.297 -4.02362 -3.00683 0
M  V30 4457 C 446.291 -5.8862 -2.44551 0
M  V30 4458 C 443.978 -5.37526 -2.90704 0
M  V30 4459 C 444.976 -6.30468 -2.62677 0
M  V30 4460 O 444.664 -7.63149 -2.52702 0
M  V30 4461 H 444.396 -0.461791 -0.493685 0
M  V30 4462 H 446.95 -1.80475 -0.980712 0
M  V30 4463 H 445.18 -1.5875 -3.52612 0
M  V30 4464 H 446.869 -2.00636 -3.52845 0
M  V30 4465 H 447.635 -4.21669 -2.39625 0
M  V30 4466 H 443.514 -3.30389 -3.21503 0
M  V30 4467 H 447.058 -6.61133 -2.22596 0
M  V30 4468 H 442.955 -5.69008 -3.04795 0
M  V30 4469 H 443.723 -7.73331 -2.68144 0
M  V30 4470 N 446.386 1.0089 -1.21074 0
M  V30 4471 C 447.349 2.0775 -0.968129 0
M  V30 4472 C 448.349 1.6069 0.0593445 0
M  V30 4473 O 449.539 1.73293 -0.177525 0
M  V30 4474 C 446.671 3.37794 -0.459108 0
M  V30 4475 H 447.864 2.30707 -1.9161 0
M  V30 4476 H 445.417 1.17807 -1.02719 0
M  V30 4477 H 446.152 3.20516 0.49397 0
M  V30 4478 H 445.937 3.7328 -1.20019 0
M  V30 4479 H 447.427 4.16454 -0.309099 0
M  V30 4480 N 447.864 1.01787 1.20321 0
M  V30 4481 C 448.814 0.559976 2.21016 0
M  V30 4482 C 449.798 -0.385366 1.56217 0
M  V30 4483 O 450.99 -0.208126 1.75772 0
M  V30 4484 C 448.119 -0.0990553 3.43157 0
M  V30 4485 C 447.205 0.86807 4.15121 0
M  V30 4486 N 447.596 2.0261 4.63447 0
M  V30 4487 C 445.894 0.689162 4.40643 0
M  V30 4488 C 446.595 2.63518 5.18588 0
M  V30 4489 N 445.571 1.91569 5.08726 0
M  V30 4490 H 449.373 1.44281 2.56048 0
M  V30 4491 H 446.887 0.883381 1.36272 0
M  V30 4492 H 448.884 -0.444643 4.14522 0
M  V30 4493 H 447.544 -0.977709 3.0963 0
M  V30 4494 H 448.555 2.40598 4.58621 0
M  V30 4495 H 445.232 -0.14133 4.17261 0
M  V30 4496 H 446.622 3.61527 5.66346 0
M  V30 4497 N 449.342 -1.36122 0.79427 0
M  V30 4498 C 450.619 -1.93398 0.292685 0
M  V30 4499 C 450.999 -1.72567 -1.21589 0
M  V30 4500 O 450.347 -1.08745 -2.00965 0
M  V30 4501 C 450.557 -3.42099 0.690614 0
M  V30 4502 C 451.905 -4.19231 0.673105 0
M  V30 4503 O 452.929 -3.50559 0.631389 0
M  V30 4504 O 451.788 -5.41732 0.720362 0
M  V30 4505 H 448.882 -0.823712 0.0736693 0
M  V30 4506 H 451.428 -1.45273 0.87714 0
M  V30 4507 H 450.2 -3.50938 1.73085 0
M  V30 4508 H 449.823 -3.97519 0.0803036 0
M  V30 4509 N 450.82 -0.546701 -1.47814 0
M  V30 4510 C 451.767 0.206854 -2.29871 0
M  V30 4511 C 452.737 0.918235 -1.38411 0
M  V30 4512 O 453.922 0.915991 -1.67375 0
M  V30 4513 C 451.062 1.23746 -3.22151 0
M  V30 4514 C 450.175 0.533216 -4.28697 0
M  V30 4515 C 449.31 1.5482 -5.08138 0
M  V30 4516 C 448.349 0.828347 -6.06469 0
M  V30 4517 N 447.486 1.78966 -6.78908 0
M  V30 4518 H 452.326 -0.499037 -2.93792 0
M  V30 4519 H 449.863 -0.25793 -1.44821 0
M  V30 4520 H 451.821 1.84746 -3.74065 0
M  V30 4521 H 450.451 1.91151 -2.60117 0
M  V30 4522 H 449.503 -0.191089 -3.7992 0
M  V30 4523 H 450.815 -0.0311987 -4.9879 0
M  V30 4524 H 449.969 2.23202 -5.6415 0
M  V30 4525 H 448.708 2.14652 -4.37922 0
M  V30 4526 H 447.713 0.130539 -5.49645 0
M  V30 4527 H 448.938 0.235907 -6.7869 0
M  V30 4528 H 446.884 2.37675 -6.1143 0
M  V30 4529 H 446.801 1.27712 -7.45135 0
M  V30 4530 H 448.069 2.46496 -7.395 0
M  V30 4531 N 452.299 1.55045 -0.282633 0
M  V30 4532 C 453.229 2.2579 0.595066 0
M  V30 4533 C 454.21 1.25074 1.15284 0
M  V30 4534 O 455.395 1.5381 1.18559 0
M  V30 4535 C 452.525 2.98472 1.77572 0
M  V30 4536 C 451.479 4.0618 1.34914 0
M  V30 4537 C 450.805 4.66477 2.6135 0
M  V30 4538 C 452.105 5.1996 0.493821 0
M  V30 4539 H 453.799 2.994 0.00505653 0
M  V30 4540 H 451.345 1.44 0.000992001 0
M  V30 4541 H 453.298 3.46677 2.39568 0
M  V30 4542 H 452.022 2.2241 2.39168 0
M  V30 4543 H 450.681 3.58797 0.752338 0
M  V30 4544 H 450.329 3.87074 3.2122 0
M  V30 4545 H 450.029 5.39207 2.33516 0
M  V30 4546 H 451.553 5.17435 3.24181 0
M  V30 4547 H 452.967 5.64172 1.01898 0
M  V30 4548 H 451.364 5.99299 0.310047 0
M  V30 4549 H 452.434 4.82462 -0.485593 0
M  V30 4550 N 453.777 0.010035 1.57597 0
M  V30 4551 C 455.025 -0.671371 1.90623 0
M  V30 4552 C 455.346 -1.73753 0.885151 0
M  V30 4553 O 454.616 -1.95752 -0.0760611 0
M  V30 4554 H 453.196 -0.250968 0.703579 0
M  V30 4555 H 455.858 0.0533325 1.94827 0
M  V30 4556 H 454.954 -1.13626 2.90681 0
M  V30 4557 N 455.255 -1.55392 -0.262866 0
M  V30 4558 C 456.48 -1.80847 -1.01533 0
M  V30 4559 C 456.905 -0.584946 -1.78774 0
M  V30 4560 O 456.263 0.465701 -1.75217 0
M  V30 4561 C 456.311 -3.03866 -1.94159 0
M  V30 4562 O 455.415 -2.79662 -3.03089 0
M  V30 4563 H 454.756 -0.597441 -0.289759 0
M  V30 4564 H 457.286 -2.02553 -0.288698 0
M  V30 4565 H 457.296 -3.32872 -2.35924 0
M  V30 4566 H 455.971 -3.92564 -1.37354 0
M  V30 4567 H 454.548 -2.61781 -2.65566 0
M  V30 4568 N 456.733 0.527833 -1.48498 0
M  V30 4569 C 457.958 1.313 -1.60546 0
M  V30 4570 C 458.383 1.86199 -0.26672 0
M  V30 4571 O 457.741 1.64513 0.761918 0
M  V30 4572 C 457.789 2.43818 -2.65678 0
M  V30 4573 O 456.893 3.46916 -2.22987 0
M  V30 4574 H 456.234 0.388784 -0.538277 0
M  V30 4575 H 458.764 0.634896 -1.945 0
M  V30 4576 H 458.774 2.89973 -2.87018 0
M  V30 4577 H 457.449 2.03222 -3.62869 0
M  V30 4578 H 456.026 3.06864 -2.11869 0
M  V30 4579 N 458.211 1.37122 0.776871 0
M  V30 4580 C 459.622 1.28667 1.35284 0
M  V30 4581 C 459.973 -0.0680035 1.96082 0
M  V30 4582 O 459.098 -0.969743 1.93455 0
M  V30 4583 C 459.693 2.32997 2.45963 0
M  V30 4584 C 458.252 2.28191 2.99342 0
M  V30 4585 C 457.399 2.17101 1.72517 0
M  V30 4586 H 460.35 1.47819 0.577527 0
M  V30 4587 H 460.371 1.97366 3.2531 0
M  V30 4588 H 459.883 3.3158 2.01684 0
M  V30 4589 H 457.984 1.33115 3.4801 0
M  V30 4590 H 458.097 3.21397 3.55304 0
M  V30 4591 H 456.461 1.63562 1.95242 0
M  V30 4592 H 457.244 3.17591 1.30348 0
M  V30 4593 N 459.689 -1.00246 1.21608 0
M  V30 4594 C 460.937 -1.73717 1.0328 0
M  V30 4595 C 461.258 -1.90102 -0.434318 0
M  V30 4596 O 460.528 -1.45376 -1.31311 0
M  V30 4597 H 459.108 -0.643613 0.379172 0
M  V30 4598 H 461.77 -1.20787 1.52959 0
M  V30 4599 H 460.866 -2.73535 1.50283 0
M  V30 4600 N 461.167 -1.02423 -1.1978 0
M  V30 4601 C 462.115 -0.594474 -2.24875 0
M  V30 4602 C 463.109 0.370598 -1.65296 0
M  V30 4603 O 464.315 0.239684 -1.78397 0
M  V30 4604 H 460.69 -0.173961 -0.731602 0
M  V30 4605 H 462.661 -1.4916 -2.58445 0
M  V30 4606 C 461.41 0.0436512 -3.47673 0
M  V30 4607 H 460.733 -0.689963 -3.93801 0
M  V30 4608 H 462.173 0.307362 -4.22884 0
M  V30 4609 C 460.632 1.28881 -3.11274 0
M  V30 4610 O 461.162 2.38135 -3.23503 0
M  V30 4611 N 459.368 1.1758 -2.6575 0
M  V30 4612 H 458.915 0.286769 -2.55999 0
M  V30 4613 H 458.873 2.00988 -2.41767 0
M  V30 4614 N 462.645 1.35699 -0.801477 0
M  V30 4615 C 463.892 1.98913 -0.379459 0
M  V30 4616 C 464.22 1.63592 1.05204 0
M  V30 4617 O 463.475 0.888563 1.74365 0
M  V30 4618 C 463.774 3.53828 -0.504041 0
M  V30 4619 C 463.44 4.09002 -1.8981 0
M  V30 4620 C 462.102 4.23783 -2.27951 0
M  V30 4621 C 464.454 4.38939 -2.81038 0
M  V30 4622 C 461.782 4.65816 -3.56696 0
M  V30 4623 C 464.134 4.82409 -4.09224 0
M  V30 4624 C 462.798 4.95395 -4.4737 0
M  V30 4625 H 462.068 0.727874 -0.138854 0
M  V30 4626 H 464.715 1.61994 -1.02128 0
M  V30 4627 H 463.02 3.91175 0.221242 0
M  V30 4628 H 464.717 4.00687 -0.158361 0
M  V30 4629 H 461.307 3.97946 -1.59176 0
M  V30 4630 H 465.491 4.27077 -2.52821 0
M  V30 4631 H 460.747 4.74059 -3.86106 0
M  V30 4632 H 464.921 5.04535 -4.80018 0
M  V30 4633 H 462.548 5.27724 -5.47185 0
M  V30 4634 N 464.123 0.554532 1.47522 0
M  V30 4635 C 465.071 -0.207765 2.3167 0
M  V30 4636 C 466.065 -0.911914 1.4276 0
M  V30 4637 O 467.271 -0.833504 1.59539 0
M  V30 4638 H 463.646 -0.0858726 0.747081 0
M  V30 4639 H 465.617 0.521178 2.93813 0
M  V30 4640 C 464.366 -1.2263 3.25357 0
M  V30 4641 H 463.689 -0.693887 3.93732 0
M  V30 4642 H 465.129 -1.73062 3.87073 0
M  V30 4643 C 463.588 -2.27278 2.4869 0
M  V30 4644 O 464.118 -3.34156 2.22941 0
M  V30 4645 N 462.324 -2.01134 2.09746 0
M  V30 4646 H 461.871 -1.14232 2.30887 0
M  V30 4647 H 461.829 -2.71369 1.58765 0
M  V30 4648 N 465.601 -1.54893 0.290851 0
M  V30 4649 C 466.564 -2.21824 -0.576784 0
M  V30 4650 C 467.564 -1.20104 -1.06919 0
M  V30 4651 O 468.754 -1.44906 -0.966843 0
M  V30 4652 C 465.886 -2.89662 -1.79747 0
M  V30 4653 H 467.079 -2.99899 0.00784051 0
M  V30 4654 H 464.632 -1.56245 0.0415934 0
M  V30 4655 H 465.367 -2.15639 -2.42219 0
M  V30 4656 H 465.152 -3.64219 -1.45214 0
M  V30 4657 H 466.642 -3.4075 -2.4141 0
M  V30 4658 N 467.08 -0.0183926 -1.57589 0
M  V30 4659 C 468.028 0.985111 -2.10709 0
M  V30 4660 C 469.022 1.34397 -1.0312 0
M  V30 4661 O 470.228 1.32746 -1.21567 0
M  V30 4662 H 466.603 0.335418 -0.673052 0
M  V30 4663 H 468.574 0.511689 -2.9398 0
M  V30 4664 C 467.323 2.26202 -2.64061 0
M  V30 4665 H 466.646 1.9946 -3.4649 0
M  V30 4666 H 468.086 2.94652 -3.04887 0
M  V30 4667 C 466.545 2.98444 -1.5631 0
M  V30 4668 O 467.075 3.90142 -0.956674 0
M  V30 4669 N 465.281 2.6059 -1.28612 0
M  V30 4670 H 464.828 1.86101 -1.78112 0
M  V30 4671 H 464.786 3.09238 -0.567406 0
M  V30 4672 N 468.558 1.5553 0.254621 0
M  V30 4673 C 469.508 1.86057 1.31783 0
M  V30 4674 C 470.492 0.720827 1.4385 0
M  V30 4675 O 471.684 0.982586 1.47222 0
M  V30 4676 C 468.813 2.15203 2.67475 0
M  V30 4677 C 467.899 3.35484 2.59444 0
M  V30 4678 N 468.29 4.54945 2.2104 0
M  V30 4679 C 466.588 3.38441 2.90472 0
M  V30 4680 C 467.289 5.3707 2.23453 0
M  V30 4681 N 466.265 4.75936 2.62652 0
M  V30 4682 H 470.067 2.75953 1.01129 0
M  V30 4683 H 467.581 1.55653 0.463255 0
M  V30 4684 H 469.578 2.35235 3.44195 0
M  V30 4685 H 468.238 1.26601 2.99002 0
M  V30 4686 H 469.249 4.8071 1.92712 0
M  V30 4687 H 465.926 2.60087 3.2659 0
M  V30 4688 H 467.316 6.42626 1.96166 0
M  V30 4689 N 470.036 -0.519951 1.48776 0
M  V30 4690 C 470.999 -1.60574 1.6355 0
M  V30 4691 C 471.999 -1.52557 0.508234 0
M  V30 4692 O 473.189 -1.56047 0.774262 0
M  V30 4693 C 470.321 -3.00211 1.61512 0
M  V30 4694 H 471.514 -1.4881 2.60376 0
M  V30 4695 H 469.067 -0.742772 1.37523 0
M  V30 4696 H 469.802 -3.17471 0.662009 0
M  V30 4697 H 469.587 -3.07439 2.43359 0
M  V30 4698 H 471.077 -3.79134 1.75064 0
M  V30 4699 N 471.514 -1.37532 -0.769588 0
M  V30 4700 C 472.739 -1.36231 -1.56384 0
M  V30 4701 C 473.164 0.0495849 -1.88035 0
M  V30 4702 O 472.522 1.02723 -1.49391 0
M  V30 4703 C 472.57 -2.20986 -2.84952 0
M  V30 4704 O 471.674 -1.61597 -3.79421 0
M  V30 4705 H 471.015 -0.465387 -0.473615 0
M  V30 4706 H 473.545 -1.81085 -0.952342 0
M  V30 4707 H 473.555 -2.34277 -3.34034 0
M  V30 4708 H 472.23 -3.23612 -2.61243 0
M  V30 4709 H 470.807 -1.57359 -3.38072 0
M  V30 4710 N 472.992 0.995999 -1.22138 0
M  V30 4711 C 474.24 1.73167 -1.042 0
M  V30 4712 C 474.561 1.90329 0.42423 0
M  V30 4713 O 473.831 1.4607 1.30539 0
M  V30 4714 H 472.411 0.641593 -0.38258 0
M  V30 4715 H 475.073 1.19974 -1.53598 0
M  V30 4716 H 474.169 2.72734 -1.51731 0
M  V30 4717 N 474.47 1.03057 1.19235 0
M  V30 4718 C 475.695 0.74757 1.93458 0
M  V30 4719 C 476.12 -0.687648 1.7508 0
M  V30 4720 O 475.478 -1.47499 1.05422 0
M  V30 4721 C 475.526 1.10604 3.43219 0
M  V30 4722 O 474.63 0.225671 4.11782 0
M  V30 4723 H 473.971 0.276047 0.603899 0
M  V30 4724 H 476.501 1.3777 1.51263 0
M  V30 4725 H 476.511 1.06366 3.93891 0
M  V30 4726 H 475.186 2.15165 3.55917 0
M  V30 4727 H 473.763 0.326795 3.71465 0
M  V30 4728 N 475.948 -1.35272 0.808662 0
M  V30 4729 C 477.359 -1.81179 0.450688 0
M  V30 4730 C 477.71 -1.67143 -1.02751 0
M  V30 4731 O 476.835 -1.20325 -1.79864 0
M  V30 4732 C 477.43 -3.28943 0.811275 0
M  V30 4733 C 475.989 -3.72985 0.505871 0
M  V30 4734 C 475.136 -2.57229 1.03578 0
M  V30 4735 H 478.087 -1.2322 1.00012 0
M  V30 4736 H 478.108 -3.80342 0.109588 0
M  V30 4737 H 477.62 -3.39127 1.88718 0
M  V30 4738 H 475.721 -3.68349 -0.561209 0
M  V30 4739 H 475.834 -4.67677 1.03995 0
M  V30 4740 H 474.198 -2.50548 0.458005 0
M  V30 4741 H 474.981 -2.7019 2.11784 0
M  V30 4742 N 477.426 -0.562348 -1.47226 0
M  V30 4743 C 478.837 -0.130325 -1.86245 0
M  V30 4744 C 479.188 1.30128 -1.46838 0
M  V30 4745 O 478.313 1.97974 -0.873805 0
M  V30 4746 C 478.908 -0.229738 -3.3802 0
M  V30 4747 C 477.467 0.14728 -3.76112 0
M  V30 4748 C 476.614 -0.574971 -2.71274 0
M  V30 4749 H 479.565 -0.771773 -1.3867 0
M  V30 4750 H 479.586 0.550316 -3.76499 0
M  V30 4751 H 479.098 -1.27178 -3.66671 0
M  V30 4752 H 477.199 1.19023 -3.53078 0
M  V30 4753 H 477.312 -0.214858 -4.78618 0
M  V30 4754 H 475.676 -0.0174756 -2.54694 0
M  V30 4755 H 476.459 -1.61827 -3.02766 0
M  V30 4756 N 478.904 1.54736 -0.299062 0
M  V30 4757 C 479.867 2.22127 0.565012 0
M  V30 4758 C 480.867 1.20669 1.06281 0
M  V30 4759 O 482.057 1.45417 0.959145 0
M  V30 4760 C 479.189 2.90611 1.78208 0
M  V30 4761 H 480.382 2.99891 -0.0237448 0
M  V30 4762 H 477.935 1.5622 -0.0498788 0
M  V30 4763 H 478.67 2.16921 2.41072 0
M  V30 4764 H 478.455 3.64984 1.43281 0
M  V30 4765 H 479.945 3.42026 2.396 0
M  V30 4766 N 480.382 0.0267497 1.57577 0
M  V30 4767 C 481.61 -0.662661 1.96001 0
M  V30 4768 C 482.025 -1.65799 0.903117 0
M  V30 4769 O 481.382 -1.82135 -0.115317 0
M  V30 4770 C 481.433 -1.37112 3.34488 0
M  V30 4771 O 481.154 -0.415683 4.36123 0
M  V30 4772 C 482.655 -2.15257 3.8753 0
M  V30 4773 H 479.875 -0.18287 0.6456 0
M  V30 4774 H 482.419 0.0858116 2.0432 0
M  V30 4775 H 480.574 -2.07101 3.27395 0
M  V30 4776 H 480.988 -0.918496 5.16395 0
M  V30 4777 H 482.462 -2.60285 4.86781 0
M  V30 4778 H 482.939 -2.99063 3.21649 0
M  V30 4779 H 483.545 -1.50231 3.97883 0
M  V30 4780 N 481.861 -1.55662 -0.24637 0
M  V30 4781 C 483.089 -1.81575 -0.991876 0
M  V30 4782 C 483.504 -0.602545 -1.78927 0
M  V30 4783 O 482.861 0.428795 -1.77391 0
M  V30 4784 C 482.912 -3.05711 -1.92933 0
M  V30 4785 O 482.633 -4.22348 -1.1642 0
M  V30 4786 C 484.134 -3.44428 -2.79078 0
M  V30 4787 H 481.354 -0.604209 -0.291844 0
M  V30 4788 H 483.898 -2.02722 -0.269095 0
M  V30 4789 H 482.053 -2.86612 -2.60638 0
M  V30 4790 H 482.467 -4.92706 -1.79835 0
M  V30 4791 H 483.941 -4.34388 -3.40603 0
M  V30 4792 H 484.418 -2.65037 -3.50217 0
M  V30 4793 H 485.024 -3.65879 -2.16824 0
M  V30 4794 N 483.339 0.512053 -1.4905 0
M  V30 4795 C 484.75 1.09376 -1.51307 0
M  V30 4796 C 485.101 1.94 -0.292971 0
M  V30 4797 O 484.226 2.07965 0.598277 0
M  V30 4798 C 484.821 1.99031 -2.74176 0
M  V30 4799 C 483.38 2.52385 -2.79247 0
M  V30 4800 C 482.527 1.29749 -2.45073 0
M  V30 4801 H 485.478 0.296467 -1.55906 0
M  V30 4802 H 485.499 2.83569 -2.53711 0
M  V30 4803 H 485.011 1.37412 -3.62959 0
M  V30 4804 H 483.112 3.17673 -1.94716 0
M  V30 4805 H 483.225 2.90293 -3.81139 0
M  V30 4806 H 481.589 1.61912 -1.96612 0
M  V30 4807 H 482.372 0.698555 -3.36118 0
M  V30 4808 N 484.817 1.37938 0.762283 0
M  V30 4809 C 485.767 1.30976 1.86626 0
M  V30 4810 C 486.751 0.195714 1.59705 0
M  V30 4811 O 487.943 0.430937 1.71674 0
M  V30 4812 C 485.072 1.12847 3.24223 0
M  V30 4813 C 484.158 2.28836 3.57064 0
M  V30 4814 N 484.549 3.54256 3.61022 0
M  V30 4815 C 482.847 2.21198 3.87282 0
M  V30 4816 C 483.548 4.30798 3.90881 0
M  V30 4817 N 482.524 3.60049 4.07266 0
M  V30 4818 H 486.326 2.25946 1.87951 0
M  V30 4819 H 483.84 1.31046 0.959206 0
M  V30 4820 H 485.837 1.05943 4.03214 0
M  V30 4821 H 484.497 0.188024 3.24155 0
M  V30 4822 H 485.508 3.8804 3.42995 0
M  V30 4823 H 482.185 1.35264 3.94981 0
M  V30 4824 H 483.575 5.39386 4.00639 0
M  V30 4825 N 486.295 -0.989507 1.22664 0
M  V30 4826 C 487.711 -1.25395 0.987331 0
M  V30 4827 C 487.911 -1.9899 -0.317056 0
M  V30 4828 O 486.967 -2.30141 -1.03882 0
M  V30 4829 C 488.28 -2.06242 2.18826 0
M  V30 4830 C 489.828 -2.19413 2.23219 0
M  V30 4831 C 490.303 -3.03648 3.42873 0
M  V30 4832 N 491.794 -3.11234 3.43056 0
M  V30 4833 C 492.529 -3.7671 4.32293 0
M  V30 4834 N 492.025 -4.44085 5.31752 0
M  V30 4835 N 493.818 -3.73505 4.2006 0
M  V30 4836 H 485.969 -0.496212 2.06522 0
M  V30 4837 H 488.232 -0.281784 0.905153 0
M  V30 4838 H 487.938 -1.59531 3.13437 0
M  V30 4839 H 487.812 -3.06996 2.19165 0
M  V30 4840 H 490.199 -2.65336 1.29154 0
M  V30 4841 H 490.28 -1.18078 2.26917 0
M  V30 4842 H 489.924 -2.58424 4.37241 0
M  V30 4843 H 489.854 -4.05132 3.36416 0
M  V30 4844 H 492.345 -2.63287 2.71088 0
M  V30 4845 H 492.658 -4.91797 5.96117 0
M  V30 4846 H 491.003 -4.42822 5.35662 0
M  V30 4847 H 494.194 -3.20033 3.41609 0
M  V30 4848 H 494.367 -4.24253 4.8981 0
M  V30 4849 N 487.773 -1.03688 -1.18687 0
M  V30 4850 C 489.019 -0.74888 -1.89112 0
M  V30 4851 C 489.374 0.715345 -1.78607 0
M  V30 4852 O 488.667 1.51498 -1.17299 0
M  V30 4853 C 488.861 -1.14477 -3.3857 0
M  V30 4854 C 488.69 -2.64594 -3.63621 0
M  V30 4855 C 487.46 -3.31685 -3.812 0
M  V30 4856 C 489.658 -3.62811 -3.64517 0
M  V30 4857 N 487.64 -4.70822 -3.93955 0
M  V30 4858 C 489.011 -4.87603 -3.8294 0
M  V30 4859 C 491.066 -3.56495 -3.47585 0
M  V30 4860 C 489.769 -6.0684 -3.86184 0
M  V30 4861 C 491.795 -4.75155 -3.52111 0
M  V30 4862 C 491.157 -5.98765 -3.71026 0
M  V30 4863 H 487.256 -0.32603 -0.710794 0
M  V30 4864 H 489.84 -1.3258 -1.42586 0
M  V30 4865 H 488.011 -0.595974 -3.838 0
M  V30 4866 H 489.743 -0.808187 -3.96548 0
M  V30 4867 H 486.498 -2.82091 -3.80423 0
M  V30 4868 H 486.922 -5.43122 -4.04163 0
M  V30 4869 H 491.564 -2.61907 -3.31911 0
M  V30 4870 H 489.282 -7.01788 -4.00648 0
M  V30 4871 H 492.868 -4.71905 -3.40289 0
M  V30 4872 H 491.748 -6.89047 -3.74412 0
M  V30 4873 N 489.251 1.34841 -0.815825 0
M  V30 4874 C 490.161 2.33425 -0.234462 0
M  V30 4875 C 491.177 1.62295 0.627413 0
M  V30 4876 O 492.353 1.94109 0.536987 0
M  V30 4877 C 489.418 3.41471 0.599849 0
M  V30 4878 C 488.479 4.28362 -0.283596 0
M  V30 4879 C 487.712 5.31248 0.51099 0
M  V30 4880 O 487.935 5.43056 1.7449 0
M  V30 4881 O 486.869 6.01812 -0.10297 0
M  V30 4882 H 490.695 2.84962 -1.05024 0
M  V30 4883 H 488.28 1.37774 -0.577809 0
M  V30 4884 H 490.162 4.07464 1.07475 0
M  V30 4885 H 488.837 2.9219 1.39308 0
M  V30 4886 H 487.744 3.65318 -0.805836 0
M  V30 4887 H 489.077 4.81066 -1.041 0
M  V30 4888 N 490.729 0.570148 1.46925 0
M  V30 4889 C 491.677 -0.183181 2.31878 0
M  V30 4890 C 492.671 -0.896721 1.43719 0
M  V30 4891 O 493.877 -0.816536 1.60414 0
M  V30 4892 H 490.252 -0.077944 0.74795 0
M  V30 4893 H 492.223 0.552312 2.93244 0
M  V30 4894 C 490.972 -1.19172 3.2664 0
M  V30 4895 H 490.295 -0.652088 3.94446 0
M  V30 4896 H 491.735 -1.68946 3.88887 0
M  V30 4897 C 490.194 -2.24627 2.51086 0
M  V30 4898 O 490.724 -3.31773 2.26472 0
M  V30 4899 N 488.93 -1.98898 2.11867 0
M  V30 4900 H 488.477 -1.11777 2.32086 0
M  V30 4901 H 488.435 -2.6967 1.61634 0
M  V30 4902 N 492.207 -1.54576 0.307264 0
M  V30 4903 C 493.139 -2.21212 -0.599807 0
M  V30 4904 C 494.152 -1.20685 -1.09266 0
M  V30 4905 O 495.341 -1.47244 -1.00903 0
M  V30 4906 C 492.441 -2.84994 -1.83389 0
M  V30 4907 C 491.614 -4.11511 -1.48248 0
M  V30 4908 C 490.673 -4.59038 -2.57237 0
M  V30 4909 O 489.699 -5.24095 -2.22065 0
M  V30 4910 N 490.901 -4.31884 -3.87887 0
M  V30 4911 H 493.666 -2.99686 -0.0293075 0
M  V30 4912 H 491.227 -1.61379 0.129738 0
M  V30 4913 H 493.219 -3.1372 -2.5566 0
M  V30 4914 H 491.789 -2.10324 -2.31263 0
M  V30 4915 H 491.009 -3.89728 -0.592122 0
M  V30 4916 H 492.297 -4.93879 -1.22316 0
M  V30 4917 H 491.695 -3.79778 -4.19268 0
M  V30 4918 H 490.252 -4.65304 -4.56438 0
M  V30 4919 N 493.685 -0.035106 -1.57561 0
M  V30 4920 C 494.933 0.64096 -1.91667 0
M  V30 4921 C 495.254 1.72323 -0.912681 0
M  V30 4922 O 494.524 1.95849 0.0449089 0
M  V30 4923 H 493.104 0.239743 -0.707483 0
M  V30 4924 H 495.766 -0.084321 -1.94718 0
M  V30 4925 H 494.862 1.08987 -2.92452 0
M  V30 4926 N 495.163 1.55791 0.238111 0
M  V30 4927 C 496.403 1.79801 0.972163 0
M  V30 4928 C 496.767 0.606027 1.82185 0
M  V30 4929 O 497.968 0.725079 2.58836 0
M  V30 4930 C 496.239 3.08608 1.80266 0
M  V30 4931 S 497.798 3.53872 2.59461 0
M  V30 4932 H 494.616 0.631418 0.326852 0
M  V30 4933 H 497.218 1.94031 0.239212 0
M  V30 4934 H 495.922 3.93419 1.1683 0
M  V30 4935 H 495.453 2.9714 2.57821 0
M  V30 4936 H 497.468 3.15899 3.82651 0
M  V30 4937 N 496.642 -0.504142 1.49319 0
M  V30 4938 C 498.053 -1.08572 1.51885 0
M  V30 4939 C 498.404 -1.93842 0.303255 0
M  V30 4940 O 497.529 -2.0828 -0.58724 0
M  V30 4941 C 498.124 -1.97574 2.75227 0
M  V30 4942 C 496.683 -2.509 2.80581 0
M  V30 4943 C 495.83 -1.28447 2.45757 0
M  V30 4944 H 498.781 -0.288194 1.56061 0
M  V30 4945 H 498.802 -2.82219 2.55211 0
M  V30 4946 H 498.314 -1.35486 3.63683 0
M  V30 4947 H 496.415 -3.16636 1.96398 0
M  V30 4948 H 496.528 -2.88268 3.82673 0
M  V30 4949 H 494.892 -1.60868 1.97468 0
M  V30 4950 H 495.675 -0.68072 3.36483 0
M  V30 4951 N 498.12 -1.38341 -0.754957 0
M  V30 4952 C 499.531 -1.30803 -1.3322 0
M  V30 4953 C 499.882 0.0368 -1.96165 0
M  V30 4954 O 499.007 0.938844 -1.94974 0
M  V30 4955 C 499.602 -2.3688 -2.42225 0
M  V30 4956 C 498.161 -2.32925 -2.95674 0
M  V30 4957 C 497.308 -2.19819 -1.69042 0
M  V30 4958 H 500.259 -1.48719 -0.553937 0
M  V30 4959 H 500.28 -2.02517 -3.22129 0
M  V30 4960 H 499.792 -3.34747 -1.96383 0
M  V30 4961 H 497.893 -1.38635 -3.45848 0
M  V30 4962 H 498.006 -3.27008 -3.50146 0
M  V30 4963 H 496.37 -1.66648 -1.92615 0
M  V30 4964 H 497.153 -3.19625 -1.25279 0
M  V30 4965 N 499.598 0.982988 -1.23187 0
M  V30 4966 C 500.561 2.05649 -1.01198 0
M  V30 4967 C 501.561 1.6078 0.0252464 0
M  V30 4968 O 502.751 1.72878 -0.214243 0
M  V30 4969 C 499.883 3.36744 -0.530656 0
M  V30 4970 H 501.076 2.2659 -1.96461 0
M  V30 4971 H 498.629 1.15602 -1.05195 0
M  V30 4972 H 499.364 3.21492 0.425873 0
M  V30 4973 H 499.149 3.7065 -1.2791 0
M  V30 4974 H 500.639 4.15705 -0.397366 0
M  V30 4975 N 501.076 1.04316 1.18135 0
M  V30 4976 C 502.487 0.775505 1.69832 0
M  V30 4977 C 502.838 -0.703348 1.8316 0
M  V30 4978 O 501.963 -1.54729 1.51287 0
M  V30 4979 C 502.558 1.40112 3.0847 0
M  V30 4980 C 501.117 1.18172 3.57368 0
M  V30 4981 C 500.264 1.49022 2.33854 0
M  V30 4982 H 503.215 1.20925 1.02775 0
M  V30 4983 H 503.236 0.805672 3.71873 0
M  V30 4984 H 502.748 2.47744 2.98738 0
M  V30 4985 H 500.849 0.124258 3.72393 0
M  V30 4986 H 500.962 1.8805 4.40652 0
M  V30 4987 H 499.326 0.909995 2.37889 0
M  V30 4988 H 500.109 2.57768 2.26738 0
M  V30 4989 N 502.554 -1.34406 0.822964 0
M  V30 4990 C 503.502 -2.31428 0.233165 0
M  V30 4991 C 504.496 -1.57404 -0.626118 0
M  V30 4992 O 505.702 -1.72402 -0.517453 0
M  V30 4993 H 502.077 -0.749863 0.0566557 0
M  V30 4994 H 504.048 -2.78699 1.06628 0
M  V30 4995 C 502.797 -3.42653 -0.590264 0
M  V30 4996 H 502.12 -3.99753 0.0616129 0
M  V30 4997 H 503.56 -4.12778 -0.969054 0
M  V30 4998 C 502.019 -2.87112 -1.76262 0
M  V30 4999 O 502.549 -2.81995 -2.8608 0
M  V30 5000 N 500.755 -2.43934 -1.57938 0
M  V30 5001 H 500.302 -2.48296 -0.686078 0
M  V30 5002 H 500.26 -2.07123 -2.36532 0
M  V30 5003 N 504.032 -0.577932 -1.46621 0
M  V30 5004 C 505.309 0.00495287 -1.95599 0
M  V30 5005 C 505.689 1.46428 -1.5206 0
M  V30 5006 O 505.037 2.1517 -0.769046 0
M  V30 5007 C 505.247 -0.162114 -3.48623 0
M  V30 5008 C 506.595 -0.0274623 -4.24591 0
M  V30 5009 O 507.619 -0.0907067 -3.56084 0
M  V30 5010 O 506.478 0.1122 -5.46385 0
M  V30 5011 H 503.572 0.0525057 -0.825332 0
M  V30 5012 H 506.118 -0.645914 -1.56927 0
M  V30 5013 H 504.89 -1.17679 -3.73185 0
M  V30 5014 H 504.513 0.525407 -3.94113 0
M  V30 5015 N 505.51 1.54411 -0.315457 0
M  V30 5016 C 506.458 2.25514 0.569771 0
M  V30 5017 C 507.452 1.2663 1.12522 0
M  V30 5018 O 508.658 1.44434 1.07419 0
M  V30 5019 H 505.033 0.724257 0.202376 0
M  V30 5020 H 507.004 2.98354 -0.0522895 0
M  V30 5021 C 505.753 3.02004 1.72305 0
M  V30 5022 H 505.076 3.77906 1.30488 0
M  V30 5023 H 506.516 3.55014 2.31821 0
M  V30 5024 C 504.975 2.09822 2.63583 0
M  V30 5025 O 505.505 1.67574 3.65078 0
M  V30 5026 N 503.711 1.75478 2.31637 0
M  V30 5027 H 503.258 2.10032 1.49145 0
M  V30 5028 H 503.216 1.14079 2.92973 0
M  V30 5029 N 506.988 0.0434614 1.5754 0
M  V30 5030 C 507.936 -0.951465 2.1225 0
M  V30 5031 C 508.93 -1.3274 1.05245 0
M  V30 5032 O 510.136 -1.30795 1.23663 0
M  V30 5033 H 506.511 -0.324667 0.678303 0
M  V30 5034 H 508.482 -0.464855 2.94757 0
M  V30 5035 C 507.231 -2.21972 2.67626 0
M  V30 5036 H 506.554 -1.93923 3.4962 0
M  V30 5037 H 507.994 -2.89765 3.09536 0
M  V30 5038 C 506.453 -2.95919 1.61038 0
M  V30 5039 O 506.983 -3.8857 1.01862 0
M  V30 5040 N 505.189 -2.58511 1.32741 0
M  V30 5041 H 504.736 -1.83244 1.81051 0
M  V30 5042 H 504.694 -3.08296 0.616531 0
M  V30 5043 N 508.466 -1.55915 -0.229846 0
M  V30 5044 C 509.694 -1.82617 -0.972562 0
M  V30 5045 C 510.109 -0.621488 -1.78278 0
M  V30 5046 O 509.466 0.409956 -1.77836 0
M  V30 5047 C 509.517 -3.0774 -1.89679 0
M  V30 5048 O 509.238 -4.23559 -1.11934 0
M  V30 5049 C 510.739 -3.47368 -2.75409 0
M  V30 5050 H 507.959 -0.60727 -0.285419 0
M  V30 5051 H 510.503 -2.02996 -0.247579 0
M  V30 5052 H 508.658 -2.89361 -2.57583 0
M  V30 5053 H 509.072 -4.94586 -1.74599 0
M  V30 5054 H 510.546 -4.37977 -3.35977 0
M  V30 5055 H 511.023 -2.68737 -3.47386 0
M  V30 5056 H 511.629 -3.68158 -2.12931 0
M  V30 5057 N 509.944 0.496216 -1.49584 0
M  V30 5058 C 510.874 1.60576 -1.69521 0
M  V30 5059 C 511.855 1.61169 -0.543933 0
M  V30 5060 O 513.04 1.77834 -0.78031 0
M  V30 5061 C 510.17 2.99038 -1.76616 0
M  V30 5062 C 509.124 3.13312 -2.91581 0
M  V30 5063 C 508.45 4.53172 -2.83794 0
M  V30 5064 C 509.75 2.92886 -4.32452 0
M  V30 5065 H 511.444 1.44146 -2.62416 0
M  V30 5066 H 508.99 0.692024 -1.26282 0
M  V30 5067 H 510.943 3.76564 -1.8915 0
M  V30 5068 H 509.667 3.16568 -0.80324 0
M  V30 5069 H 508.326 2.38213 -2.78658 0
M  V30 5070 H 507.974 4.67585 -1.854 0
M  V30 5071 H 507.674 4.63662 -3.60958 0
M  V30 5072 H 509.198 5.32752 -2.98342 0
M  V30 5073 H 510.612 3.60178 -4.46032 0
M  V30 5074 H 509.009 3.14844 -5.10875 0
M  V30 5075 H 510.079 1.88966 -4.46565 0
M  V30 5076 N 511.423 1.38739 0.74761 0
M  V30 5077 C 512.386 1.36241 1.84312 0
M  V30 5078 C 513.386 0.261811 1.58654 0
M  V30 5079 O 514.576 0.519031 1.66288 0
M  V30 5080 C 511.708 1.12253 3.21888 0
M  V30 5081 H 512.901 2.33712 1.87933 0
M  V30 5082 H 510.454 1.2412 0.949946 0
M  V30 5083 H 511.189 0.154133 3.23934 0
M  V30 5084 H 510.974 1.91943 3.41907 0
M  V30 5085 H 512.464 1.13215 4.0196 0
M  V30 5086 N 512.901 -0.976442 1.23707 0
M  V30 5087 C 513.864 -2.0511 1.02287 0
M  V30 5088 C 514.864 -1.60791 -0.0167195 0
M  V30 5089 O 516.054 -1.72761 0.223408 0
M  V30 5090 C 513.186 -3.36458 0.548507 0
M  V30 5091 H 514.379 -2.25545 1.9766 0
M  V30 5092 H 511.932 -1.15042 1.05806 0
M  V30 5093 H 512.667 -3.21713 -0.408818 0
M  V30 5094 H 512.452 -3.69967 1.29874 0
M  V30 5095 H 513.942 -4.15489 0.419406 0
M  V30 5096 N 514.379 -1.04941 -1.1758 0
M  V30 5097 C 515.311 -0.606174 -2.21039 0
M  V30 5098 C 516.324 0.328763 -1.59446 0
M  V30 5099 O 517.513 0.121895 -1.78083 0
M  V30 5100 C 514.613 0.133294 -3.38638 0
M  V30 5101 C 513.786 -0.811711 -4.29802 0
M  V30 5102 C 512.845 -0.113958 -5.26077 0
M  V30 5103 O 511.871 -0.747237 -5.64274 0
M  V30 5104 N 513.073 1.14953 -5.69004 0
M  V30 5105 H 515.838 -1.49606 -2.59689 0
M  V30 5106 H 513.399 -0.930997 -1.32454 0
M  V30 5107 H 515.391 0.610144 -4.00074 0
M  V30 5108 H 513.961 0.924816 -2.98607 0
M  V30 5109 H 513.181 -1.46824 -3.65837 0
M  V30 5110 H 514.469 -1.45326 -4.87604 0
M  V30 5111 H 513.867 1.68441 -5.40041 0
M  V30 5112 H 512.424 1.57049 -6.32597 0
M  V30 5113 N 515.857 1.33968 -0.830081 0
M  V30 5114 C 517.273 1.51003 -0.516742 0
M  V30 5115 C 517.473 1.77286 0.957694 0
M  V30 5116 O 516.529 1.82797 1.74188 0
M  V30 5117 C 517.842 2.67036 -1.38247 0
M  V30 5118 C 519.39 2.80919 -1.38034 0
M  V30 5119 C 519.865 4.00004 -2.23071 0
M  V30 5120 N 521.356 4.07224 -2.20733 0
M  V30 5121 C 522.091 4.98541 -2.83275 0
M  V30 5122 N 521.587 5.95033 -3.54835 0
M  V30 5123 N 523.38 4.91469 -2.72791 0
M  V30 5124 H 515.531 1.15168 -1.78466 0
M  V30 5125 H 517.794 0.565443 -0.760906 0
M  V30 5126 H 517.5 2.54266 -2.42985 0
M  V30 5127 H 517.374 3.62226 -1.05225 0
M  V30 5128 H 519.761 2.93127 -0.340713 0
M  V30 5129 H 519.842 1.86517 -1.75057 0
M  V30 5130 H 519.486 3.88557 -3.27087 0
M  V30 5131 H 519.416 4.93634 -1.83394 0
M  V30 5132 H 521.907 3.38162 -1.68687 0
M  V30 5133 H 522.22 6.61357 -3.99784 0
M  V30 5134 H 520.565 5.95135 -3.58942 0
M  V30 5135 H 523.756 4.15048 -2.16456 0
M  V30 5136 H 523.929 5.62439 -3.21818 0
M  V30 5137 N 517.335 0.585699 1.46312 0
M  V30 5138 C 518.285 -0.166813 2.27389 0
M  V30 5139 C 519.269 -0.859076 1.36047 0
M  V30 5140 O 520.461 -0.752678 1.60199 0
M  V30 5141 C 517.59 -1.17791 3.2246 0
M  V30 5142 C 516.676 -0.487605 4.21288 0
M  V30 5143 N 517.067 0.45849 5.03718 0
M  V30 5144 C 515.365 -0.737971 4.39852 0
M  V30 5145 C 516.066 0.862213 5.75275 0
M  V30 5146 N 515.042 0.210707 5.43191 0
M  V30 5147 H 518.844 0.560167 2.88512 0
M  V30 5148 H 516.358 0.407715 1.57199 0
M  V30 5149 H 518.355 -1.73122 3.79255 0
M  V30 5150 H 517.015 -1.90568 2.62896 0
M  V30 5151 H 518.026 0.834163 5.11138 0
M  V30 5152 H 514.703 -1.45209 3.91434 0
M  V30 5153 H 516.093 1.64128 6.51546 0
M  V30 5154 N 518.813 -1.54241 0.323641 0
M  V30 5155 C 519.761 -2.25813 -0.557804 0
M  V30 5156 C 520.755 -1.27225 -1.11849 0
M  V30 5157 O 521.961 -1.45001 -1.06652 0
M  V30 5158 H 518.336 -0.72532 -0.198532 0
M  V30 5159 H 520.307 -2.98322 0.0681112 0
M  V30 5160 C 519.056 -3.02913 -1.70701 0
M  V30 5161 H 518.379 -3.78593 -1.28482 0
M  V30 5162 H 519.819 -3.56238 -2.29935 0
M  V30 5163 C 518.278 -2.11217 -2.62467 0
M  V30 5164 O 518.808 -1.69508 -3.64184 0
M  V30 5165 N 517.014 -1.76704 -2.30703 0
M  V30 5166 H 516.561 -2.1082 -1.48029 0
M  V30 5167 H 516.519 -1.15631 -2.92364 0
M  V30 5168 N 520.291 -0.0518155 -1.57515 0
M  V30 5169 C 521.201 0.937539 -2.15052 0
M  V30 5170 C 522.217 1.34121 -1.10849 0
M  V30 5171 O 523.393 1.418 -1.4302 0
M  V30 5172 C 520.458 2.19379 -2.68466 0
M  V30 5173 C 519.519 1.84841 -3.87469 0
M  V30 5174 C 518.752 3.04477 -4.38326 0
M  V30 5175 O 518.975 4.17868 -3.88256 0
M  V30 5176 O 517.909 2.85453 -5.29906 0
M  V30 5177 H 521.735 0.478201 -2.99912 0
M  V30 5178 H 519.32 0.17012 -1.48428 0
M  V30 5179 H 521.202 2.93084 -3.02787 0
M  V30 5180 H 519.877 2.64449 -1.86677 0
M  V30 5181 H 518.784 1.08449 -3.58036 0
M  V30 5182 H 520.117 1.44569 -4.7049 0
M  V30 5183 N 521.769 1.56035 0.221574 0
M  V30 5184 C 522.732 1.91584 1.2581 0
M  V30 5185 C 523.732 0.794425 1.39805 0
M  V30 5186 O 524.922 1.06217 1.38071 0
M  V30 5187 C 522.054 2.16663 2.63192 0
M  V30 5188 H 523.247 2.8429 0.954935 0
M  V30 5189 H 520.8 1.49316 0.461988 0
M  V30 5190 H 521.535 1.26508 2.98607 0
M  V30 5191 H 521.32 2.98358 2.5441 0
M  V30 5192 H 522.81 2.45262 3.37988 0
M  V30 5193 N 523.247 -0.488276 1.49845 0
M  V30 5194 C 524.177 -1.59675 1.70371 0
M  V30 5195 C 525.158 -1.60878 0.552473 0
M  V30 5196 O 526.343 -1.77417 0.78973 0
M  V30 5197 C 523.473 -2.98098 1.782 0
M  V30 5198 C 522.427 -3.11761 2.93239 0
M  V30 5199 C 521.753 -4.51661 2.86193 0
M  V30 5200 C 523.053 -2.90589 4.33999 0
M  V30 5201 H 524.747 -1.42752 2.63177 0
M  V30 5202 H 522.293 -0.685317 1.26647 0
M  V30 5203 H 524.246 -3.75555 1.91144 0
M  V30 5204 H 522.97 -3.16138 0.820018 0
M  V30 5205 H 521.629 -2.36732 2.79917 0
M  V30 5206 H 521.277 -4.66595 1.87877 0
M  V30 5207 H 520.977 -4.61742 3.63412 0
M  V30 5208 H 522.501 -5.31162 3.01163 0
M  V30 5209 H 523.915 -3.57807 4.47936 0
M  V30 5210 H 522.312 -3.1213 5.12538 0
M  V30 5211 H 523.382 -1.86595 4.4756 0
M  V30 5212 N 524.725 -1.39134 -0.740242 0
M  V30 5213 C 525.673 -1.3757 -1.87556 0
M  V30 5214 C 526.667 -0.259593 -1.67399 0
M  V30 5215 O 527.873 -0.429349 -1.74804 0
M  V30 5216 H 524.248 -0.42947 -0.6173 0
M  V30 5217 H 526.219 -2.33345 -1.85991 0
M  V30 5218 C 524.968 -1.23087 -3.25184 0
M  V30 5219 H 524.291 -2.08237 -3.41288 0
M  V30 5220 H 525.731 -1.26049 -4.0483 0
M  V30 5221 C 524.19 0.0611471 -3.36845 0
M  V30 5222 O 524.72 1.03328 -3.88183 0
M  V30 5223 N 522.926 0.122454 -2.90342 0
M  V30 5224 H 522.473 -0.669329 -2.48752 0
M  V30 5225 H 522.431 0.986463 -2.98523 0
M  V30 5226 N 526.204 0.969867 -1.24223 0
M  V30 5227 C 527.452 1.70918 -1.0785 0
M  V30 5228 C 527.773 1.91186 0.383763 0
M  V30 5229 O 527.043 1.48806 1.27411 0
M  V30 5230 H 525.623 0.633334 -0.396103 0
M  V30 5231 H 528.285 1.16689 -1.56108 0
M  V30 5232 H 527.381 2.69455 -1.57482 0
M  V30 5233 N 527.682 1.05563 1.17022 0
M  V30 5234 C 528.612 0.681026 2.23348 0
M  V30 5235 C 529.593 -0.322983 1.67005 0
M  V30 5236 O 530.778 -0.199746 1.9317 0
M  V30 5237 C 527.908 0.0589053 3.4725 0
M  V30 5238 C 526.862 0.988082 4.16438 0
M  V30 5239 C 526.188 0.229646 5.34207 0
M  V30 5240 C 527.488 2.31388 4.68249 0
M  V30 5241 H 529.182 1.56993 2.54938 0
M  V30 5242 H 526.728 0.756302 1.2254 0
M  V30 5243 H 528.681 -0.214982 4.20851 0
M  V30 5244 H 527.405 -0.864968 3.14938 0
M  V30 5245 H 526.064 1.24659 3.44754 0
M  V30 5246 H 525.712 -0.697111 4.98146 0
M  V30 5247 H 525.412 0.848815 5.81437 0
M  V30 5248 H 526.936 -0.0368694 6.10589 0
M  V30 5249 H 528.35 2.09964 5.33468 0
M  V30 5250 H 526.747 2.88736 5.26072 0
M  V30 5251 H 527.817 2.94982 3.84855 0
M  V30 5252 N 529.16 -1.33526 0.837174 0
M  V30 5253 C 530.576 -1.50727 0.524743 0
M  V30 5254 C 530.776 -1.77792 -0.948279 0
M  V30 5255 O 529.832 -1.83719 -1.73216 0
M  V30 5256 C 531.145 -2.66299 1.39661 0
M  V30 5257 C 532.693 -2.80183 1.39521 0
M  V30 5258 C 533.168 -3.98815 2.25189 0
M  V30 5259 N 534.659 -4.06047 2.2289 0
M  V30 5260 C 535.394 -4.97032 2.85915 0
M  V30 5261 N 534.89 -5.93143 3.57985 0
M  V30 5262 N 536.683 -4.90015 2.75394 0
M  V30 5263 H 528.834 -1.1422 1.79074 0
M  V30 5264 H 531.097 -0.561399 0.763894 0
M  V30 5265 H 530.803 -2.52974 2.4433 0
M  V30 5266 H 530.677 -3.61663 1.07145 0
M  V30 5267 H 533.064 -2.92942 0.356253 0
M  V30 5268 H 533.145 -1.85586 1.76044 0
M  V30 5269 H 532.789 -3.86817 3.29143 0
M  V30 5270 H 532.719 -4.92654 1.86009 0
M  V30 5271 H 535.21 -3.37262 1.70478 0
M  V30 5272 H 535.523 -6.59227 4.03286 0
M  V30 5273 H 533.868 -5.93223 3.62093 0
M  V30 5274 H 537.059 -4.13894 2.18654 0
M  V30 5275 H 537.232 -5.60724 3.24796 0
M  V30 5276 N 530.638 -0.59345 -1.46 0
M  V30 5277 C 531.57 0.171569 -2.28557 0
M  V30 5278 C 532.583 0.845273 -1.39137 0
M  V30 5279 O 533.772 0.713033 -1.6364 0
M  V30 5280 C 530.872 1.26311 -3.14482 0
M  V30 5281 C 530.045 0.679258 -4.32094 0
M  V30 5282 C 529.104 1.65987 -4.99334 0
M  V30 5283 O 528.13 1.19171 -5.56585 0
M  V30 5284 N 529.332 2.99414 -4.97324 0
M  V30 5285 H 532.097 -0.536771 -2.94854 0
M  V30 5286 H 529.658 -0.431954 -1.56031 0
M  V30 5287 H 531.65 1.91863 -3.5633 0
M  V30 5288 H 530.22 1.87416 -2.50188 0
M  V30 5289 H 529.44 -0.153992 -3.93899 0
M  V30 5290 H 530.728 0.26916 -5.08088 0
M  V30 5291 H 530.126 3.40064 -4.52076 0
M  V30 5292 H 528.683 3.60426 -5.4308 0
M  V30 5293 N 532.116 1.54067 -0.331816 0
M  V30 5294 C 533.079 2.23275 0.517768 0
M  V30 5295 C 534.079 1.22897 1.03697 0
M  V30 5296 O 535.269 1.47419 0.928084 0
M  V30 5297 C 532.401 2.94326 1.72004 0
M  V30 5298 H 533.594 2.99773 -0.0873507 0
M  V30 5299 H 531.147 1.56079 -0.0830042 0
M  V30 5300 H 531.882 2.21986 2.36417 0
M  V30 5301 H 531.667 3.67941 1.35507 0
M  V30 5302 H 533.157 3.47031 2.32291 0
M  V30 5303 N 533.594 0.0601682 1.57485 0
M  V30 5304 C 535.005 -0.474217 1.80577 0
M  V30 5305 C 535.356 -1.70365 0.973147 0
M  V30 5306 O 534.481 -2.15544 0.192306 0
M  V30 5307 C 535.076 -0.867102 3.27516 0
M  V30 5308 C 533.635 -1.34642 3.51495 0
M  V30 5309 C 532.782 -0.32594 2.75378 0
M  V30 5310 H 535.733 0.285973 1.56102 0
M  V30 5311 H 535.754 -1.72938 3.38929 0
M  V30 5312 H 535.266 0.0278927 3.8809 0
M  V30 5313 H 533.367 -2.2603 2.96212 0
M  V30 5314 H 533.48 -1.33237 4.60201 0
M  V30 5315 H 531.844 -0.800749 2.41785 0
M  V30 5316 H 532.627 0.561125 3.38683 0
M  V30 5317 N 535.072 -1.5615 -0.213296 0
M  V30 5318 C 536.297 -1.83986 -0.957282 0
M  V30 5319 C 536.722 -0.641526 -1.76822 0
M  V30 5320 O 536.08 0.409722 -1.7661 0
M  V30 5321 C 536.128 -3.09889 -1.84393 0
M  V30 5322 O 535.232 -2.89163 -2.94038 0
M  V30 5323 H 534.573 -0.606357 -0.270605 0
M  V30 5324 H 537.103 -2.03369 -0.224111 0
M  V30 5325 H 537.113 -3.40209 -2.25215 0
M  V30 5326 H 535.788 -3.96735 -1.24795 0
M  V30 5327 H 534.365 -2.70097 -2.57103 0
M  V30 5328 N 536.55 0.480323 -1.50102 0
M  V30 5329 C 537.775 1.26126 -1.64642 0
M  V30 5330 C 538.2 1.85257 -0.325823 0
M  V30 5331 O 537.558 1.66854 0.709194 0
M  V30 5332 C 537.606 2.35243 -2.73301 0
M  V30 5333 O 536.71 3.39646 -2.33911 0
M  V30 5334 H 536.051 0.371463 -0.550374 0
M  V30 5335 H 538.581 0.572696 -1.96421 0
M  V30 5336 H 538.591 2.80695 -2.96098 0
M  V30 5337 H 537.266 1.91574 -3.6915 0
M  V30 5338 H 535.843 2.99969 -2.21525 0
M  V30 5339 N 538.028 1.39524 0.732853 0
M  V30 5340 C 539.258 1.3994 1.51988 0
M  V30 5341 C 539.666 -0.00727973 1.89199 0
M  V30 5342 O 539.009 -0.989521 1.54771 0
M  V30 5343 C 539.071 2.21026 2.83527 0
M  V30 5344 C 538.735 3.69633 2.68738 0
M  V30 5345 C 539.732 4.62665 2.37143 0
M  V30 5346 C 537.417 4.13244 2.85542 0
M  V30 5347 C 539.411 5.97291 2.22536 0
M  V30 5348 C 537.098 5.47945 2.70554 0
M  V30 5349 C 538.096 6.39783 2.39097 0
M  V30 5350 O 537.784 7.72002 2.24204 0
M  V30 5351 H 537.516 0.479795 0.476206 0
M  V30 5352 H 540.07 1.8399 0.913054 0
M  V30 5353 H 538.3 1.71728 3.46477 0
M  V30 5354 H 539.989 2.13594 3.45156 0
M  V30 5355 H 540.755 4.30272 2.2381 0
M  V30 5356 H 536.634 3.42094 3.09019 0
M  V30 5357 H 540.178 6.68939 1.97905 0
M  V30 5358 H 536.075 5.79928 2.83466 0
M  V30 5359 H 536.843 7.8275 2.39258 0
M  V30 5360 N 539.506 -0.963266 1.24736 0
M  V30 5361 C 540.917 -1.52145 1.08207 0
M  V30 5362 C 541.268 -1.93142 -0.345061 0
M  V30 5363 O 540.393 -1.77769 -1.23399 0
M  V30 5364 C 540.988 -2.76486 1.95808 0
M  V30 5365 C 539.547 -3.28646 1.8349 0
M  V30 5366 C 538.694 -2.01529 1.90476 0
M  V30 5367 H 541.645 -0.781083 1.38148 0
M  V30 5368 H 541.666 -3.49986 1.49297 0
M  V30 5369 H 541.178 -2.46617 2.99669 0
M  V30 5370 H 539.279 -3.63357 0.824787 0
M  V30 5371 H 539.392 -3.97246 2.67829 0
M  V30 5372 H 537.756 -2.16442 1.34258 0
M  V30 5373 H 538.539 -1.7402 2.95926 0
M  V30 5374 N 540.985 -1.06182 -1.16461 0
M  V30 5375 C 542.396 -0.802426 -1.68576 0
M  V30 5376 C 542.747 0.67412 -1.84255 0
M  V30 5377 O 541.872 1.52303 -1.5373 0
M  V30 5378 C 542.467 -1.45002 -3.06202 0
M  V30 5379 C 541.026 -1.23843 -3.55443 0
M  V30 5380 C 540.173 -1.52724 -2.31454 0
M  V30 5381 H 543.124 -1.22545 -1.00839 0
M  V30 5382 H 543.145 -0.864731 -3.70544 0
M  V30 5383 H 542.657 -2.52466 -2.94759 0
M  V30 5384 H 540.758 -0.183487 -3.72148 0
M  V30 5385 H 540.871 -1.95036 -4.37604 0
M  V30 5386 H 539.235 -0.947726 -2.36411 0
M  V30 5387 H 540.018 -2.61343 -2.22609 0
M  V30 5388 N 542.463 1.3308 -0.844243 0
M  V30 5389 C 543.691 2.01808 -0.456203 0
M  V30 5390 C 544.106 1.63498 0.944131 0
M  V30 5391 O 543.463 0.85102 1.61443 0
M  V30 5392 C 543.514 3.56922 -0.573513 0
M  V30 5393 O 543.235 3.93851 -1.91868 0
M  V30 5394 C 544.736 4.42922 -0.183125 0
M  V30 5395 H 541.956 0.646273 -0.180477 0
M  V30 5396 H 544.5 1.69891 -1.1383 0
M  V30 5397 H 542.655 3.87352 0.0607367 0
M  V30 5398 H 543.069 4.88564 -1.90802 0
M  V30 5399 H 544.543 5.51093 -0.316241 0
M  V30 5400 H 545.02 4.30386 0.875477 0
M  V30 5401 H 545.626 4.1786 -0.792027 0
M  V30 5402 N 543.941 0.601185 1.45683 0
M  V30 5403 C 545.187 0.102425 2.03142 0
M  V30 5404 C 545.542 -1.25066 1.46207 0
M  V30 5405 O 544.835 -1.81126 0.624806 0
M  V30 5406 C 545.029 -0.00222425 3.574 0
M  V30 5407 C 544.858 1.33917 4.29298 0
M  V30 5408 C 543.628 1.91818 4.67476 0
M  V30 5409 C 545.826 2.26652 4.61664 0
M  V30 5410 N 543.808 3.19504 5.24204 0
M  V30 5411 C 545.179 3.38933 5.19157 0
M  V30 5412 C 547.234 2.26103 4.43601 0
M  V30 5413 C 545.937 4.50823 5.60492 0
M  V30 5414 C 547.963 3.37036 4.85964 0
M  V30 5415 C 547.325 4.48039 5.43545 0
M  V30 5416 H 543.424 0.0806974 0.777825 0
M  V30 5417 H 546.008 0.798134 1.77589 0
M  V30 5418 H 544.179 -0.66714 3.82627 0
M  V30 5419 H 545.911 -0.507058 4.01511 0
M  V30 5420 H 542.666 1.45097 4.50826 0
M  V30 5421 H 543.09 3.84705 5.57073 0
M  V30 5422 H 547.732 1.41547 3.98402 0
M  V30 5423 H 545.45 5.36108 6.0466 0
M  V30 5424 H 549.036 3.37752 4.73725 0
M  V30 5425 H 547.916 5.32459 5.75723 0
M  V30 5426 N 545.419 -1.53889 0.339982 0
M  V30 5427 C 546.83 -1.86139 -0.144671 0
M  V30 5428 C 547.181 -1.2613 -1.50285 0
M  V30 5429 O 546.306 -0.573515 -2.08662 0
M  V30 5430 C 546.901 -3.37728 -0.269285 0
M  V30 5431 C 545.46 -3.69868 -0.698168 0
M  V30 5432 C 544.607 -2.76777 0.170249 0
M  V30 5433 H 547.558 -1.48503 0.559704 0
M  V30 5434 H 547.579 -3.64331 -1.0974 0
M  V30 5435 H 547.091 -3.81375 0.719366 0
M  V30 5436 H 545.192 -3.31764 -1.69597 0
M  V30 5437 H 545.305 -4.76582 -0.490533 0
M  V30 5438 H 543.669 -2.52188 -0.356844 0
M  V30 5439 H 544.452 -3.23253 1.15597 0
M  V30 5440 N 546.897 -0.0685191 -1.57451 0
M  V30 5441 C 548.308 0.464634 -1.80826 0
M  V30 5442 C 548.659 1.69847 -0.982169 0
M  V30 5443 O 547.784 2.15439 -0.203734 0
M  V30 5444 C 548.379 0.849721 -3.27971 0
M  V30 5445 C 546.938 1.32776 -3.52204 0
M  V30 5446 C 546.085 0.311332 -2.75547 0
M  V30 5447 H 549.036 -0.294248 -1.55948 0
M  V30 5448 H 549.057 1.71138 -3.39841 0
M  V30 5449 H 548.569 -0.0484736 -3.8807 0
M  V30 5450 H 546.67 2.24456 -2.97406 0
M  V30 5451 H 546.783 1.30794 -4.60901 0
M  V30 5452 H 545.147 0.787915 -2.42206 0
M  V30 5453 H 545.93 -0.579078 -3.38381 0
M  V30 5454 N 548.375 1.56261 0.205012 0
M  V30 5455 C 549.623 1.79684 0.925096 0
M  V30 5456 C 549.944 0.63989 1.84202 0
M  V30 5457 O 549.214 -0.342345 1.92885 0
M  V30 5458 H 547.794 0.662774 0.344587 0
M  V30 5459 H 550.456 1.93734 0.212899 0
M  V30 5460 H 549.552 2.72467 1.52211 0
M  V30 5461 N 549.853 -0.472356 1.50355 0
M  V30 5462 C 551.264 -1.05326 1.54154 0
M  V30 5463 C 551.615 -1.93155 0.344303 0
M  V30 5464 O 550.74 -2.09479 -0.542928 0
M  V30 5465 C 551.335 -1.91691 2.79356 0
M  V30 5466 C 549.894 -2.44892 2.8584 0
M  V30 5467 C 549.041 -1.23205 2.48426 0
M  V30 5468 H 551.992 -0.255027 1.56637 0
M  V30 5469 H 552.013 -2.76742 2.6114 0
M  V30 5470 H 551.525 -1.27741 3.66475 0
M  V30 5471 H 549.626 -3.12399 2.0307 0
M  V30 5472 H 549.739 -2.80086 3.88701 0
M  V30 5473 H 548.103 -1.56643 2.00836 0
M  V30 5474 H 548.886 -0.609194 3.37852 0
M  V30 5475 N 551.331 -1.39911 -0.725443 0
M  V30 5476 C 552.294 -1.39156 -1.82121 0
M  V30 5477 C 553.294 -0.287018 -1.58218 0
M  V30 5478 O 554.484 -0.545421 -1.65441 0
M  V30 5479 C 551.616 -1.1736 -3.20062 0
M  V30 5480 H 552.809 -2.36672 -1.84191 0
M  V30 5481 H 550.362 -1.25615 -0.930079 0
M  V30 5482 H 551.097 -0.205648 -3.23647 0
M  V30 5483 H 550.882 -1.97358 -3.3881 0
M  V30 5484 H 552.372 -1.19596 -4.00108 0
M  V30 5485 N 552.809 0.956637 -1.25245 0
M  V30 5486 C 553.759 2.03841 -1.02141 0
M  V30 5487 C 554.743 1.60848 0.0410058 0
M  V30 5488 O 555.935 1.76142 -0.174084 0
M  V30 5489 C 553.064 3.37282 -0.639963 0
M  V30 5490 C 552.15 3.86805 -1.73903 0
M  V30 5491 N 552.541 4.09143 -2.97381 0
M  V30 5492 C 550.839 4.15574 -1.61909 0
M  V30 5493 C 551.54 4.49923 -3.68707 0
M  V30 5494 N 550.516 4.55737 -2.96318 0
M  V30 5495 H 554.318 2.19102 -1.95886 0
M  V30 5496 H 551.832 1.1413 -1.15534 0
M  V30 5497 H 553.829 4.14403 -0.455643 0
M  V30 5498 H 552.489 3.23401 0.29018 0
M  V30 5499 H 553.5 3.96275 -3.33447 0
M  V30 5500 H 550.177 4.10566 -0.757764 0
M  V30 5501 H 551.567 4.75526 -4.74684 0
M  V30 5502 N 554.287 1.06798 1.15896 0
M  V30 5503 C 555.237 0.653213 2.18443 0
M  V30 5504 C 556.221 -0.318763 1.57711 0
M  V30 5505 O 557.413 -0.133388 1.76497 0
M  V30 5506 C 554.542 0.0465785 3.43268 0
M  V30 5507 C 553.628 1.04336 4.11066 0
M  V30 5508 N 554.019 2.22084 4.54436 0
M  V30 5509 C 552.317 0.875433 4.37324 0
M  V30 5510 C 553.018 2.85276 5.06944 0
M  V30 5511 N 551.994 2.12973 5.00143 0
M  V30 5512 H 555.796 1.55011 2.49698 0
M  V30 5513 H 553.31 0.940384 1.32403 0
M  V30 5514 H 555.307 -0.26843 4.16035 0
M  V30 5515 H 553.967 -0.845504 3.13499 0
M  V30 5516 H 554.978 2.59833 4.48004 0
M  V30 5517 H 551.655 0.0357721 4.17485 0
M  V30 5518 H 553.045 3.85223 5.50503 0
M  V30 5519 N 555.766 -1.3263 0.851289 0
M  V30 5520 C 556.991 -2.02097 0.466006 0
M  V30 5521 C 557.416 -1.63574 -0.928709 0
M  V30 5522 O 556.774 -0.834665 -1.60944 0
M  V30 5523 C 556.822 -3.55425 0.608737 0
M  V30 5524 O 555.926 -4.10827 -0.359878 0
M  V30 5525 H 555.267 -0.636911 0.187724 0
M  V30 5526 H 557.797 -1.69253 1.14955 0
M  V30 5527 H 557.807 -4.04986 0.495006 0
M  V30 5528 H 556.482 -3.82806 1.62581 0
M  V30 5529 H 555.059 -3.72349 -0.202666 0
M  V30 5530 N 557.244 -0.608902 -1.45362 0
M  V30 5531 C 558.484 -0.10763 -2.04116 0
M  V30 5532 C 558.848 1.23883 -1.46686 0
M  V30 5533 O 560.049 1.83091 -1.96803 0
M  V30 5534 C 558.32 -0.0703351 -3.57331 0
M  V30 5535 S 559.879 0.369554 -4.37241 0
M  V30 5536 H 556.697 -0.0502123 -0.709225 0
M  V30 5537 H 559.299 -0.8073 -1.78053 0
M  V30 5538 H 558.003 -1.05379 -3.9664 0
M  V30 5539 H 557.534 0.651287 -3.87971 0
M  V30 5540 H 559.549 1.61878 -4.69052 0
M  V30 5541 N 558.722 1.53707 -0.348139 0
M  V30 5542 C 559.672 2.2193 0.522592 0
M  V30 5543 C 560.656 1.20831 1.06248 0
M  V30 5544 O 561.848 1.46357 0.995415 0
M  V30 5545 C 558.977 2.99904 1.6707 0
M  V30 5546 C 558.063 4.08364 1.14454 0
M  V30 5547 N 558.454 5.04656 0.339958 0
M  V30 5548 C 556.752 4.22757 1.421 0
M  V30 5549 C 557.453 5.81675 0.0538806 0
M  V30 5550 N 556.429 5.39739 0.646776 0
M  V30 5551 H 560.231 2.93733 -0.099135 0
M  V30 5552 H 557.745 1.61656 -0.15524 0
M  V30 5553 H 559.742 3.47284 2.30651 0
M  V30 5554 H 558.402 2.29629 2.29566 0
M  V30 5555 H 559.413 5.17896 -0.0193552 0
M  V30 5556 H 556.09 3.63704 2.05002 0
M  V30 5557 H 557.48 6.69256 -0.595443 0
M  V30 5558 N 560.2 0.0768682 1.57412 0
M  V30 5559 C 561.132 -0.918248 2.10002 0
M  V30 5560 C 562.145 -1.25808 1.03325 0
M  V30 5561 O 563.334 -1.21438 1.30824 0
M  V30 5562 C 560.434 -2.23263 2.54964 0
M  V30 5563 C 559.607 -2.07088 3.8527 0
M  V30 5564 C 558.666 -3.21876 4.16272 0
M  V30 5565 O 557.692 -2.96643 4.8579 0
M  V30 5566 N 558.894 -4.4712 3.70221 0
M  V30 5567 H 561.659 -0.469209 2.96004 0
M  V30 5568 H 559.22 -0.108725 1.61535 0
M  V30 5569 H 561.212 -2.9897 2.72762 0
M  V30 5570 H 559.782 -2.59649 1.74072 0
M  V30 5571 H 559.002 -1.15818 3.76802 0
M  V30 5572 H 560.29 -1.93537 4.70554 0
M  V30 5573 H 559.688 -4.70506 3.1407 0
M  V30 5574 H 558.245 -5.19837 3.93209 0
M  V30 5575 N 561.678 -1.56367 -0.196722 0
M  V30 5576 C 562.903 -1.84991 -0.937714 0
M  V30 5577 C 563.328 -0.660244 -1.76132 0
M  V30 5578 O 562.686 0.390967 -1.77034 0
M  V30 5579 C 562.734 -3.11828 -1.81096 0
M  V30 5580 O 561.838 -2.92266 -2.90955 0
M  V30 5581 H 561.179 -0.609193 -0.264159 0
M  V30 5582 H 563.709 -2.03595 -0.202529 0
M  V30 5583 H 563.719 -3.42579 -2.21594 0
M  V30 5584 H 562.394 -3.98037 -1.2058 0
M  V30 5585 H 560.971 -2.72809 -2.54224 0
M  V30 5586 N 563.156 0.464375 -1.50603 0
M  V30 5587 C 564.104 1.58224 -1.70493 0
M  V30 5588 C 565.098 1.59492 -0.570836 0
M  V30 5589 O 566.304 1.63561 -0.751517 0
M  V30 5590 H 562.679 0.525161 -0.538247 0
M  V30 5591 H 564.65 1.38613 -2.64252 0
M  V30 5592 C 563.399 2.96113 -1.82243 0
M  V30 5593 H 562.722 2.95858 -2.68901 0
M  V30 5594 H 564.162 3.73769 -2.00182 0
M  V30 5595 C 562.621 3.31946 -0.575628 0
M  V30 5596 O 563.151 4.00708 0.282152 0
M  V30 5597 N 561.357 2.87436 -0.427665 0
M  V30 5598 H 560.904 2.31652 -1.12674 0
M  V30 5599 H 560.862 3.11776 0.405379 0
M  V30 5600 N 564.634 1.40294 0.718013 0
M  V30 5601 C 565.859 1.41941 1.5122 0
M  V30 5602 C 566.284 0.0202371 1.88089 0
M  V30 5603 O 565.642 -0.971078 1.53101 0
M  V30 5604 C 565.69 2.3141 2.76554 0
M  V30 5605 O 564.794 1.75567 3.73162 0
M  V30 5606 H 564.135 0.482644 0.456016 0
M  V30 5607 H 566.665 1.84494 0.884478 0
M  V30 5608 H 566.675 2.46513 3.25108 0
M  V30 5609 H 565.35 3.33085 2.49053 0
M  V30 5610 H 563.927 1.69798 3.31999 0
M  V30 5611 N 566.112 -0.949982 1.2575 0
M  V30 5612 C 567.06 -2.06869 1.06339 0
M  V30 5613 C 568.054 -1.69399 -0.00708901 0
M  V30 5614 O 569.26 -1.79383 0.148897 0
M  V30 5615 H 565.635 -0.677197 0.326969 0
M  V30 5616 H 567.606 -2.20396 2.01167 0
M  V30 5617 C 566.355 -3.40503 0.703769 0
M  V30 5618 H 565.678 -3.69807 1.51931 0
M  V30 5619 H 567.118 -4.19623 0.607677 0
M  V30 5620 C 565.577 -3.31685 -0.5905 0
M  V30 5621 O 566.107 -3.67085 -1.63131 0
M  V30 5622 N 564.313 -2.84797 -0.577859 0
M  V30 5623 H 563.86 -2.56186 0.26951 0
M  V30 5624 H 563.818 -2.79279 -1.44398 0
M  V30 5625 N 567.59 -1.07411 -1.15328 0
M  V30 5626 C 568.838 -0.796073 -1.85761 0
M  V30 5627 C 569.159 0.679864 -1.82764 0
M  V30 5628 O 568.429 1.49242 -1.269 0
M  V30 5629 H 567.009 -0.291495 -0.687779 0
M  V30 5630 H 569.671 -1.35799 -1.39802 0
M  V30 5631 H 568.767 -1.13114 -2.90881 0
M  V30 5632 N 569.068 1.32177 -0.85831 0
M  V30 5633 C 570.018 2.26307 -0.277307 0
M  V30 5634 C 571.002 1.50123 0.578946 0
M  V30 5635 O 572.194 1.71754 0.427731 0
M  V30 5636 C 569.323 3.39181 0.530232 0
M  V30 5637 C 568.409 4.22746 -0.338613 0
M  V30 5638 N 568.8 4.85265 -1.4266 0
M  V30 5639 C 567.098 4.45813 -0.129 0
M  V30 5640 C 567.799 5.47634 -1.96142 0
M  V30 5641 N 566.775 5.28794 -1.26007 0
M  V30 5642 H 570.577 2.72173 -1.10902 0
M  V30 5643 H 568.091 1.46308 -0.704816 0
M  V30 5644 H 570.088 4.05628 0.962904 0
M  V30 5645 H 568.748 2.9486 1.35969 0
M  V30 5646 H 569.759 4.85259 -1.80953 0
M  V30 5647 H 566.436 4.12163 0.665451 0
M  V30 5648 H 567.826 6.0735 -2.8736 0
M  V30 5649 N 570.547 0.616602 1.45037 0
M  V30 5650 C 571.963 0.280994 1.57107 0
M  V30 5651 C 572.163 -1.21627 1.60653 0
M  V30 5652 O 571.219 -1.9997 1.54169 0
M  V30 5653 C 572.532 0.960116 2.8496 0
M  V30 5654 C 574.08 0.936884 2.98649 0
M  V30 5655 C 574.555 1.59619 4.29285 0
M  V30 5656 N 576.046 1.5621 4.36065 0
M  V30 5657 C 576.781 2.04131 5.35834 0
M  V30 5658 N 576.277 2.60177 6.4209 0
M  V30 5659 N 578.07 1.94845 5.27249 0
M  V30 5660 H 570.221 1.58867 1.40979 0
M  V30 5661 H 572.484 0.666024 0.674623 0
M  V30 5662 H 572.19 2.01473 2.88273 0
M  V30 5663 H 572.064 0.488921 3.74018 0
M  V30 5664 H 574.451 -0.109209 2.94898 0
M  V30 5665 H 574.532 1.44643 2.10979 0
M  V30 5666 H 574.176 2.64166 4.33796 0
M  V30 5667 H 574.106 1.06159 5.15789 0
M  V30 5668 H 576.597 1.15276 3.59889 0
M  V30 5669 H 576.91 2.94513 7.1448 0
M  V30 5670 H 575.255 2.64221 6.42816 0
M  V30 5671 H 578.446 1.50792 4.43147 0
M  V30 5672 H 578.619 2.32504 6.04852 0
M  V30 5673 N 572.025 -1.5352 0.356285 0
M  V30 5674 C 572.955 -2.28372 -0.486661 0
M  V30 5675 C 573.936 -1.30432 -1.09185 0
M  V30 5676 O 575.121 -1.59291 -1.11085 0
M  V30 5677 C 572.251 -3.06604 -1.63129 0
M  V30 5678 C 571.205 -4.12154 -1.15381 0
M  V30 5679 C 570.531 -4.78415 -2.38796 0
M  V30 5680 C 571.831 -5.21724 -0.245179 0
M  V30 5681 H 573.525 -2.99083 0.137797 0
M  V30 5682 H 571.071 -1.43841 0.0677134 0
M  V30 5683 H 573.024 -3.57712 -2.22755 0
M  V30 5684 H 571.748 -2.33568 -2.28284 0
M  V30 5685 H 570.407 -3.61978 -0.580294 0
M  V30 5686 H 570.055 -4.01959 -3.02387 0
M  V30 5687 H 569.755 -5.49734 -2.07524 0
M  V30 5688 H 571.279 -5.32313 -2.99125 0
M  V30 5689 H 572.693 -5.68391 -0.748646 0
M  V30 5690 H 571.09 -6.00095 -0.0237608 0
M  V30 5691 H 572.16 -4.79596 0.715229 0
M  V30 5692 N 573.503 -0.0852151 -1.57369 0
M  V30 5693 C 574.743 0.584297 -1.95871 0
M  V30 5694 C 575.107 1.6596 -0.965473 0
M  V30 5695 O 576.308 2.38561 -1.23862 0
M  V30 5696 C 574.579 1.13411 -3.38929 0
M  V30 5697 S 576.138 1.81687 -3.99419 0
M  V30 5698 H 572.956 0.19095 -0.684879 0
M  V30 5699 H 575.558 -0.162267 -1.94825 0
M  V30 5700 H 574.262 0.339845 -4.0899 0
M  V30 5701 H 573.793 1.91672 -3.43548 0
M  V30 5702 H 575.808 3.10037 -3.87417 0
M  V30 5703 N 574.981 1.5647 0.188427 0
M  V30 5704 C 576.392 1.70864 0.752494 0
M  V30 5705 C 576.743 0.692905 1.83557 0
M  V30 5706 O 575.868 -0.149307 2.15884 0
M  V30 5707 C 576.463 3.09789 1.37173 0
M  V30 5708 C 575.022 3.25925 1.88281 0
M  V30 5709 C 574.169 2.66817 0.755259 0
M  V30 5710 H 577.12 1.58657 -0.0367408 0
M  V30 5711 H 577.141 3.07489 2.24122 0
M  V30 5712 H 576.653 3.83693 0.583219 0
M  V30 5713 H 574.754 2.56948 2.6983 0
M  V30 5714 H 574.867 4.33498 2.04001 0
M  V30 5715 H 573.231 2.2617 1.17128 0
M  V30 5716 H 574.014 3.43294 -0.0211237 0
M  V30 5717 N 576.459 -0.456382 1.50847 0
M  V30 5718 C 577.687 -1.23026 1.66349 0
M  V30 5719 C 578.102 -1.85473 0.352868 0
M  V30 5720 O 577.459 -1.69885 -0.666739 0
M  V30 5721 C 577.51 -2.32827 2.76539 0
M  V30 5722 O 577.231 -1.72938 4.02522 0
M  V30 5723 C 578.732 -3.23448 3.03144 0
M  V30 5724 H 575.952 -0.371527 0.558756 0
M  V30 5725 H 578.496 -0.543082 1.97157 0
M  V30 5726 H 576.651 -2.97294 2.48384 0
M  V30 5727 H 577.065 -2.45357 4.63573 0
M  V30 5728 H 578.539 -3.96669 3.83872 0
M  V30 5729 H 579.016 -3.83094 2.14793 0
M  V30 5730 H 579.622 -2.64702 3.32886 0
M  V30 5731 N 577.937 -1.40673 -0.710563 0
M  V30 5732 C 578.887 -1.37812 -1.81636 0
M  V30 5733 C 579.871 -0.254853 -1.58869 0
M  V30 5734 O 581.063 -0.494356 -1.69956 0
M  V30 5735 C 578.192 -1.24802 -3.19811 0
M  V30 5736 C 577.278 -2.41931 -3.48325 0
M  V30 5737 N 577.669 -3.67411 -3.47625 0
M  V30 5738 C 575.967 -2.35419 -3.78806 0
M  V30 5739 C 576.668 -4.45008 -3.74623 0
M  V30 5740 N 575.644 -3.74916 -3.93623 0
M  V30 5741 H 579.446 -2.32766 -1.79436 0
M  V30 5742 H 576.96 -1.34516 -0.909909 0
M  V30 5743 H 578.957 -1.20835 -3.99004 0
M  V30 5744 H 577.617 -0.308202 -3.23234 0
M  V30 5745 H 578.628 -4.00503 -3.28356 0
M  V30 5746 H 575.305 -1.4983 -3.89689 0
M  V30 5747 H 576.695 -5.53884 -3.80344 0
M  V30 5748 N 579.415 0.9433 -1.26252 0
M  V30 5749 C 580.661 1.69175 -1.11837 0
M  V30 5750 C 580.994 1.91238 0.337891 0
M  V30 5751 O 580.269 1.49152 1.24836 0
M  V30 5752 C 580.552 3.06783 -1.88563 0
M  V30 5753 C 580.405 2.9206 -3.42083 0
M  V30 5754 C 581.724 4.06865 -1.67776 0
M  V30 5755 H 578.843 0.61399 -0.407658 0
M  V30 5756 H 581.485 1.09572 -1.55222 0
M  V30 5757 H 579.635 3.57663 -1.51689 0
M  V30 5758 H 581.307 2.48419 -3.88698 0
M  V30 5759 H 579.55 2.27731 -3.69217 0
M  V30 5760 H 580.221 3.89651 -3.90994 0
M  V30 5761 H 582.697 3.64939 -1.99897 0
M  V30 5762 H 581.573 5.01168 -2.23879 0
M  V30 5763 H 581.834 4.37705 -0.621816 0
M  V30 5764 N 580.893 1.08022 1.14757 0
M  V30 5765 C 582.123 0.827646 1.89298 0
M  V30 5766 C 582.531 -0.623506 1.78631 0
M  V30 5767 O 581.874 -1.43991 1.14071 0
M  V30 5768 C 581.936 1.16553 3.40082 0
M  V30 5769 C 581.6 2.61866 3.74533 0
M  V30 5770 C 582.597 3.60116 3.74984 0
M  V30 5771 C 580.282 2.97619 4.04633 0
M  V30 5772 C 582.276 4.92151 4.05051 0
M  V30 5773 C 579.963 4.2985 4.34364 0
M  V30 5774 C 580.961 5.26926 4.34555 0
M  V30 5775 O 580.649 6.5678 4.63568 0
M  V30 5776 H 580.381 0.298396 0.606577 0
M  V30 5777 H 582.935 1.44187 1.46285 0
M  V30 5778 H 581.165 0.494296 3.83528 0
M  V30 5779 H 582.854 0.894407 3.95923 0
M  V30 5780 H 583.62 3.33837 3.51821 0
M  V30 5781 H 579.499 2.22702 4.03639 0
M  V30 5782 H 583.043 5.67915 4.05115 0
M  V30 5783 H 578.94 4.55879 4.56995 0
M  V30 5784 H 579.708 6.62035 4.81303 0
M  V30 5785 N 582.371 -1.3172 0.865308 0
M  V30 5786 C 583.334 -2.26918 0.322627 0
M  V30 5787 C 584.334 -1.52031 -0.523751 0
M  V30 5788 O 585.524 -1.70973 -0.333727 0
M  V30 5789 C 582.656 -3.36558 -0.542338 0
M  V30 5790 H 583.849 -2.76432 1.16298 0
M  V30 5791 H 581.402 -1.42573 0.640512 0
M  V30 5792 H 582.137 -2.92329 -1.40407 0
M  V30 5793 H 581.922 -3.92048 0.0636395 0
M  V30 5794 H 583.412 -4.07465 -0.91446 0
M  V30 5795 N 583.85 -0.624285 -1.44708 0
M  V30 5796 C 584.812 0.0749638 -2.29077 0
M  V30 5797 C 585.812 0.778965 -1.40673 0
M  V30 5798 O 587.003 0.624591 -1.62618 0
M  V30 5799 C 584.135 1.11663 -3.22094 0
M  V30 5800 H 585.327 -0.667013 -2.92388 0
M  V30 5801 H 582.88 -0.384098 -1.51507 0
M  V30 5802 H 583.615 1.88881 -2.63618 0
M  V30 5803 H 583.401 0.61583 -3.87234 0
M  V30 5804 H 584.891 1.60585 -3.8549 0
M  V30 5805 N 585.328 1.53329 -0.364422 0
M  V30 5806 C 586.739 1.86345 0.115039 0
M  V30 5807 C 587.09 1.28505 1.4826 0
M  V30 5808 O 586.215 0.606639 2.07723 0
M  V30 5809 C 586.81 3.38114 0.215522 0
M  V30 5810 C 585.369 3.70932 0.639237 0
M  V30 5811 C 584.516 2.76471 -0.214261 0
M  V30 5812 H 587.467 1.47593 -0.583258 0
M  V30 5813 H 587.488 3.66031 1.0393 0
M  V30 5814 H 587 3.80182 -0.779948 0
M  V30 5815 H 585.101 3.3442 1.64298 0
M  V30 5816 H 585.214 4.77302 0.41465 0
M  V30 5817 H 583.578 2.52724 0.316678 0
M  V30 5818 H 584.361 3.21373 -1.20725 0
M  V30 5819 N 586.806 0.0935595 1.57322 0
M  V30 5820 C 587.716 -0.880192 2.17462 0
M  V30 5821 C 588.732 -1.31135 1.14366 0
M  V30 5822 O 589.908 -1.37958 1.46729 0
M  V30 5823 C 586.973 -2.12184 2.74188 0
M  V30 5824 C 586.034 -1.74503 3.92234 0
M  V30 5825 C 585.267 -2.92748 4.46245 0
M  V30 5826 O 585.49 -4.07427 3.99198 0
M  V30 5827 O 584.424 -2.71303 5.37288 0
M  V30 5828 H 588.25 -0.398516 3.01074 0
M  V30 5829 H 585.835 -0.130707 1.48827 0
M  V30 5830 H 587.717 -2.84953 3.10451 0
M  V30 5831 H 586.392 -2.59407 1.93623 0
M  V30 5832 H 585.299 -0.989186 3.60785 0
M  V30 5833 H 586.632 -1.32044 4.74157 0
M  V30 5834 N 588.284 -1.56567 -0.180126 0
M  V30 5835 C 589.532 -1.81133 -0.896392 0
M  V30 5836 C 589.853 -0.669114 -1.83161 0
M  V30 5837 O 589.123 0.311616 -1.93406 0
M  V30 5838 H 587.703 -0.668172 -0.333999 0
M  V30 5839 H 590.365 -1.94048 -0.182051 0
M  V30 5840 H 589.461 -2.74854 -1.47857 0
M  V30 5841 N 589.762 0.448376 -1.51087 0
M  V30 5842 C 590.709 1.54341 -1.71603 0
M  V30 5843 C 591.679 1.56463 -0.557536 0
M  V30 5844 O 592.864 1.73644 -0.79072 0
M  V30 5845 C 590.004 2.92148 -1.83695 0
M  V30 5846 C 589.117 2.99639 -3.11192 0
M  V30 5847 C 588.252 4.285 -3.13944 0
M  V30 5848 C 587.291 4.29819 -4.35801 0
M  V30 5849 N 586.428 5.50186 -4.36164 0
M  V30 5850 H 591.268 1.36151 -2.65079 0
M  V30 5851 H 588.805 0.661585 -1.31383 0
M  V30 5852 H 590.763 3.72093 -1.88687 0
M  V30 5853 H 589.393 3.0892 -0.936374 0
M  V30 5854 H 588.445 2.12425 -3.15562 0
M  V30 5855 H 589.757 2.96474 -4.01129 0
M  V30 5856 H 588.911 5.16811 -3.17791 0
M  V30 5857 H 587.65 4.34307 -2.21876 0
M  V30 5858 H 586.655 3.39902 -4.32142 0
M  V30 5859 H 587.88 4.25685 -5.29121 0
M  V30 5860 H 585.826 5.56735 -3.46961 0
M  V30 5861 H 585.743 5.48856 -5.19897 0
M  V30 5862 H 587.011 6.40559 -4.44189 0
M  V30 5863 N 591.24 1.41047 0.703093 0
M  V30 5864 C 592.203 1.42036 1.79884 0
M  V30 5865 C 593.203 0.312153 1.57741 0
M  V30 5866 O 594.393 0.571672 1.64553 0
M  V30 5867 C 591.525 1.22437 3.18154 0
M  V30 5868 H 592.718 2.39572 1.80403 0
M  V30 5869 H 590.271 1.27079 0.909977 0
M  V30 5870 H 591.006 0.257112 3.23279 0
M  V30 5871 H 590.791 2.02723 3.35627 0
M  V30 5872 H 592.281 1.25946 3.98155 0
M  V30 5873 N 592.718 -0.936591 1.26751 0
M  V30 5874 C 594.129 -1.49816 1.1141 0
M  V30 5875 C 594.48 -1.9383 -0.304015 0
M  V30 5876 O 593.605 -1.80346 -1.196 0
M  V30 5877 C 594.2 -2.72271 2.01629 0
M  V30 5878 C 592.759 -3.2468 1.9042 0
M  V30 5879 C 591.906 -1.97444 1.94708 0
M  V30 5880 H 594.857 -0.751604 1.39773 0
M  V30 5881 H 594.878 -3.46741 1.56688 0
M  V30 5882 H 594.39 -2.40205 3.04833 0
M  V30 5883 H 592.491 -3.61525 0.901674 0
M  V30 5884 H 592.604 -3.91476 2.76195 0
M  V30 5885 H 590.968 -2.13545 1.38818 0
M  V30 5886 H 591.751 -1.67703 2.9955 0
M  V30 5887 N 594.196 -1.08629 -1.14182 0
M  V30 5888 C 595.159 -0.722027 -2.1753 0
M  V30 5889 C 596.159 0.244305 -1.58933 0
M  V30 5890 O 597.349 0.0235545 -1.74184 0
M  V30 5891 C 594.481 -0.0663966 -3.40835 0
M  V30 5892 H 595.674 -1.63719 -2.51269 0
M  V30 5893 H 593.227 -0.884442 -1.28869 0
M  V30 5894 H 593.962 0.860389 -3.12678 0
M  V30 5895 H 593.747 -0.761598 -3.84632 0
M  V30 5896 H 595.237 0.173346 -4.1724 0
M  V30 5897 N 595.674 1.31259 -0.872281 0
M  V30 5898 C 596.622 2.30404 -0.318897 0
M  V30 5899 C 597.616 1.5962 0.567267 0
M  V30 5900 O 598.822 1.74204 0.453111 0
M  V30 5901 H 595.197 0.747243 -0.0844474 0
M  V30 5902 H 597.168 2.74549 -1.16899 0
M  V30 5903 C 595.917 3.44608 0.462683 0
M  V30 5904 H 595.24 3.99248 -0.209936 0
M  V30 5905 H 596.68 4.1609 0.815187 0
M  V30 5906 C 595.139 2.93456 1.65485 0
M  V30 5907 O 595.669 2.92418 2.75417 0
M  V30 5908 N 593.875 2.49628 1.48776 0
M  V30 5909 H 593.422 2.50671 0.593452 0
M  V30 5910 H 593.38 2.15759 2.28682 0
M  V30 5911 N 597.152 0.631951 1.44375 0
M  V30 5912 C 598.377 0.142146 2.06912 0
M  V30 5913 C 598.802 -1.17456 1.4692 0
M  V30 5914 O 598.16 -1.72074 0.570975 0
M  V30 5915 C 598.208 0.0417952 3.60576 0
M  V30 5916 O 597.312 -1.00194 4.00044 0
M  V30 5917 H 596.653 0.0851491 0.658518 0
M  V30 5918 H 599.183 0.868863 1.85235 0
M  V30 5919 H 599.193 -0.148517 4.0773 0
M  V30 5920 H 597.868 1.0031 4.03622 0
M  V30 5921 H 596.445 -0.786131 3.64519 0
M  V30 5922 N 598.631 -1.53133 0.372548 0
M  V30 5923 C 600.042 -1.86404 -0.105155 0
M  V30 5924 C 600.393 -1.29289 -1.47576 0
M  V30 5925 O 599.518 -0.617646 -2.07398 0
M  V30 5926 C 600.113 -3.38223 -0.197588 0
M  V30 5927 C 598.672 -3.71266 -0.619556 0
M  V30 5928 C 597.819 -2.76353 0.228919 0
M  V30 5929 H 600.77 -1.47282 0.591077 0
M  V30 5930 H 600.791 -3.66577 -1.01987 0
M  V30 5931 H 600.303 -3.79763 0.800099 0
M  V30 5932 H 598.404 -3.35287 -1.62522 0
M  V30 5933 H 598.517 -4.77515 -0.389332 0
M  V30 5934 H 596.881 -2.52888 -0.303271 0
M  V30 5935 H 597.664 -3.20728 1.22428 0
M  V30 5936 N 600.109 -0.101901 -1.5727 0
M  V30 5937 C 601.525 0.254739 -1.57554 0
M  V30 5938 C 601.725 1.67937 -1.11352 0
M  V30 5939 O 600.781 2.39722 -0.793081 0
M  V30 5940 C 602.094 0.036975 -3.00677 0
M  V30 5941 C 603.642 0.104199 -3.12827 0
M  V30 5942 C 604.117 -0.0856565 -4.5792 0
M  V30 5943 N 605.608 -0.0310498 -4.6319 0
M  V30 5944 C 606.343 -0.153099 -5.73196 0
M  V30 5945 N 605.839 -0.330364 -6.92012 0
M  V30 5946 N 607.632 -0.0938854 -5.62022 0
M  V30 5947 H 599.783 -1.03263 -1.85609 0
M  V30 5948 H 602.046 -0.405251 -0.857016 0
M  V30 5949 H 601.752 -0.947254 -3.38703 0
M  V30 5950 H 601.626 0.776335 -3.69124 0
M  V30 5951 H 604.013 1.07894 -2.74669 0
M  V30 5952 H 604.094 -0.666762 -2.46957 0
M  V30 5953 H 603.738 -1.05729 -4.96773 0
M  V30 5954 H 603.668 0.705082 -5.21858 0
M  V30 5955 H 606.159 0.103141 -3.77759 0
M  V30 5956 H 606.472 -0.41482 -7.71686 0
M  V30 5957 H 604.817 -0.366119 -6.94035 0
M  V30 5958 H 608.008 0.0435168 -4.6808 0
M  V30 5959 H 608.181 -0.19245 -6.47714 0
M  V30 5960 N 601.587 1.56661 0.17182 0
M  V30 5961 C 602.519 1.92934 1.2373 0
M  V30 5962 C 603.532 0.822385 1.40502 0
M  V30 5963 O 604.721 1.10083 1.40514 0
M  V30 5964 C 601.821 2.16651 2.60607 0
M  V30 5965 C 600.994 3.47878 2.6514 0
M  V30 5966 C 600.053 3.60429 3.83377 0
M  V30 5967 O 599.079 4.33051 3.69398 0
M  V30 5968 N 600.281 2.95241 4.99813 0
M  V30 5969 H 603.046 2.84931 0.929205 0
M  V30 5970 H 600.607 1.5781 0.361588 0
M  V30 5971 H 602.599 2.22312 3.38171 0
M  V30 5972 H 601.169 1.3104 2.83809 0
M  V30 5973 H 600.389 3.53879 1.73675 0
M  V30 5974 H 601.677 4.34232 2.6518 0
M  V30 5975 H 601.075 2.3611 5.14071 0
M  V30 5976 H 599.632 3.06499 5.75241 0
M  V30 5977 N 603.065 -0.440357 1.51323 0
M  V30 5978 C 604.313 -1.18769 1.63518 0
M  V30 5979 C 604.634 -1.91793 0.352201 0
M  V30 5980 O 603.904 -1.85432 -0.631811 0
M  V30 5981 H 602.484 -0.441408 0.602634 0
M  V30 5982 H 605.146 -0.505162 1.8824 0
M  V30 5983 H 604.242 -1.91892 2.46138 0
M  V30 5984 N 604.543 -1.41418 -0.695603 0
M  V30 5985 C 605.491 -1.43467 -1.83084 0
M  V30 5986 C 606.485 -0.312719 -1.66489 0
M  V30 5987 O 607.691 -0.484744 -1.7335 0
M  V30 5988 H 604.066 -0.448891 -0.603325 0
M  V30 5989 H 606.037 -2.39144 -1.78473 0
M  V30 5990 C 604.786 -1.3337 -3.21104 0
M  V30 5991 H 604.109 -2.18989 -3.3449 0
M  V30 5992 H 605.549 -1.38865 -4.00615 0
M  V30 5993 C 604.008 -0.0460484 -3.36869 0
M  V30 5994 O 604.538 0.909258 -3.91274 0
M  V30 5995 N 602.744 0.0300222 -2.90584 0
M  V30 5996 H 602.291 -0.748129 -2.46497 0
M  V30 5997 H 602.249 0.890991 -3.01511 0
M  V30 5998 N 606.021 0.929856 -1.27246 0
M  V30 5999 C 607.246 1.71674 -1.16374 0
M  V30 6000 C 607.671 1.86064 0.276024 0
M  V30 6001 O 607.029 1.3591 1.19992 0
M  V30 6002 C 607.077 3.09526 -1.85003 0
M  V30 6003 O 606.181 3.96142 -1.14653 0
M  V30 6004 H 605.522 0.52629 -0.404863 0
M  V30 6005 H 608.052 1.16381 -1.68276 0
M  V30 6006 H 608.062 3.59852 -1.92276 0
M  V30 6007 H 606.737 2.98369 -2.89739 0
M  V30 6008 H 605.314 3.54584 -1.15433 0
M  V30 6009 N 607.499 1.09233 1.13605 0
M  V30 6010 C 608.446 0.729921 2.18954 0
M  V30 6011 C 609.416 -0.287916 1.63586 0
M  V30 6012 O 610.601 -0.170003 1.90041 0
M  V30 6013 C 607.741 0.154489 3.44754 0
M  V30 6014 C 606.854 1.22613 4.14234 0
M  V30 6015 C 605.989 0.613657 5.27644 0
M  V30 6016 C 605.028 1.66674 5.8897 0
M  V30 6017 N 604.165 1.07545 6.93814 0
M  V30 6018 H 609.005 1.63257 2.49302 0
M  V30 6019 H 606.542 0.815693 1.22413 0
M  V30 6020 H 608.5 -0.196923 4.16735 0
M  V30 6021 H 607.13 -0.711433 3.14863 0
M  V30 6022 H 606.182 1.69485 3.40557 0
M  V30 6023 H 607.494 2.0238 4.55899 0
M  V30 6024 H 606.648 0.210976 6.06333 0
M  V30 6025 H 605.387 -0.215584 4.87223 0
M  V30 6026 H 604.392 2.07899 5.08978 0
M  V30 6027 H 605.617 2.49861 6.31464 0
M  V30 6028 H 603.563 0.267451 6.55455 0
M  V30 6029 H 603.48 1.81011 7.3401 0
M  V30 6030 H 604.748 0.698906 7.7636 0
M  V30 6031 N 608.977 -1.30795 0.87923 0
M  V30 6032 C 609.925 -2.30231 0.331112 0
M  V30 6033 C 610.919 -1.59918 -0.558794 0
M  V30 6034 O 612.125 -1.74441 -0.443866 0
M  V30 6035 H 608.5 -0.746785 0.088409 0
M  V30 6036 H 610.471 -2.73925 1.18353 0
M  V30 6037 C 609.22 -3.44848 -0.444401 0
M  V30 6038 H 608.543 -3.99131 0.231106 0
M  V30 6039 H 609.983 -4.16516 -0.793109 0
M  V30 6040 C 608.442 -2.94329 -1.63926 0
M  V30 6041 O 608.972 -2.93875 -2.73862 0
M  V30 6042 N 607.178 -2.50413 -1.4745 0
M  V30 6043 H 606.725 -2.50982 -0.58015 0
M  V30 6044 H 606.683 -2.16969 -2.27534 0
M  V30 6045 N 610.455 -0.639598 -1.44038 0
M  V30 6046 C 611.701 -0.147698 -2.02261 0
M  V30 6047 C 612.034 1.23031 -1.50256 0
M  V30 6048 O 611.309 1.81847 -0.690068 0
M  V30 6049 C 611.592 -0.14362 -3.59813 0
M  V30 6050 C 611.445 -1.55458 -4.22082 0
M  V30 6051 C 612.764 0.527317 -4.36929 0
M  V30 6052 H 609.883 -0.0551453 -0.734934 0
M  V30 6053 H 612.525 -0.817688 -1.71505 0
M  V30 6054 H 610.675 0.426898 -3.86147 0
M  V30 6055 H 612.347 -2.17464 -4.06826 0
M  V30 6056 H 610.59 -2.10594 -3.79253 0
M  V30 6057 H 611.261 -1.50369 -5.31124 0
M  V30 6058 H 613.737 0.0420504 -4.16079 0
M  V30 6059 H 612.613 0.499389 -5.46624 0
M  V30 6060 H 612.874 1.59914 -4.12165 0
M  V30 6061 N 611.933 1.52934 -0.380664 0
M  V30 6062 C 612.863 2.29118 0.450268 0
M  V30 6063 C 613.844 1.32153 1.07096 0
M  V30 6064 O 615.029 1.61038 1.08537 0
M  V30 6065 C 612.159 3.09161 1.58231 0
M  V30 6066 C 611.113 4.13938 1.0881 0
M  V30 6067 C 610.439 4.82153 2.31155 0
M  V30 6068 C 611.739 5.22048 0.162146 0
M  V30 6069 H 613.433 2.98826 -0.185361 0
M  V30 6070 H 610.979 1.43715 -0.0905886 0
M  V30 6071 H 612.932 3.61211 2.17036 0
M  V30 6072 H 611.656 2.3717 2.2454 0
M  V30 6073 H 610.315 3.62855 0.522633 0
M  V30 6074 H 609.963 4.06719 2.95953 0
M  V30 6075 H 609.663 5.52966 1.98752 0
M  V30 6076 H 611.187 5.37004 2.90618 0
M  V30 6077 H 612.601 5.6951 0.658126 0
M  V30 6078 H 610.998 6.00057 -0.0717122 0
M  V30 6079 H 612.068 4.78398 -0.791438 0
M  V30 6080 N 613.412 0.11024 1.57214 0
M  V30 6081 C 614.342 -0.840002 2.17867 0
M  V30 6082 C 615.323 -1.28352 1.11624 0
M  V30 6083 O 616.508 -1.3477 1.39824 0
M  V30 6084 C 613.638 -2.09349 2.77111 0
M  V30 6085 C 612.592 -1.78807 3.8886 0
M  V30 6086 C 611.918 -3.11112 4.34872 0
M  V30 6087 C 613.218 -1.0632 5.11364 0
M  V30 6088 H 614.912 -0.334608 2.97524 0
M  V30 6089 H 612.458 -0.159502 1.43114 0
M  V30 6090 H 614.411 -2.76275 3.18198 0
M  V30 6091 H 613.135 -2.62198 1.9473 0
M  V30 6092 H 611.794 -1.14273 3.48335 0
M  V30 6093 H 611.442 -3.61877 3.49362 0
M  V30 6094 H 611.142 -2.91453 5.10224 0
M  V30 6095 H 612.666 -3.79171 4.78604 0
M  V30 6096 H 614.08 -1.63383 5.49526 0
M  V30 6097 H 612.477 -0.967876 5.92243 0
M  V30 6098 H 613.547 -0.0484569 4.84876 0
M  V30 6099 N 614.89 -1.56749 -0.16351 0
M  V30 6100 C 615.853 -1.96121 -1.18613 0
M  V30 6101 C 616.853 -0.845765 -1.36761 0
M  V30 6102 O 618.043 -1.11268 -1.34033 0
M  V30 6103 C 615.175 -2.26282 -2.54969 0
M  V30 6104 H 616.368 -2.87639 -0.848764 0
M  V30 6105 H 613.921 -1.50928 -0.406251 0
M  V30 6106 H 614.656 -1.37504 -2.93706 0
M  V30 6107 H 614.441 -3.07595 -2.43162 0
M  V30 6108 H 615.931 -2.57638 -3.28653 0
M  V30 6109 N 616.368 0.432326 -1.51554 0
M  V30 6110 C 617.608 1.19076 -1.66133 0
M  V30 6111 C 617.972 1.88364 -0.371873 0
M  V30 6112 O 619.173 2.65904 -0.39349 0
M  V30 6113 C 617.444 2.1768 -2.83461 0
M  V30 6114 S 619.003 3.01943 -3.18396 0
M  V30 6115 H 615.821 0.403735 -0.585251 0
M  V30 6116 H 618.423 0.481554 -1.89476 0
M  V30 6117 H 617.127 1.65424 -3.75583 0
M  V30 6118 H 616.658 2.93174 -2.62322 0
M  V30 6119 H 618.673 4.19373 -2.65219 0
M  V30 6120 N 617.846 1.41785 0.688094 0
M  V30 6121 C 619.257 1.3701 1.26828 0
M  V30 6122 C 619.608 0.056835 1.96118 0
M  V30 6123 O 618.733 -0.84475 1.99231 0
M  V30 6124 C 619.328 2.48168 2.30648 0
M  V30 6125 C 617.887 2.46766 2.84224 0
M  V30 6126 C 617.034 2.27633 1.58361 0
M  V30 6127 H 619.985 1.51192 0.482351 0
M  V30 6128 H 620.006 2.17655 3.121 0
M  V30 6129 H 619.518 3.43735 1.80188 0
M  V30 6130 H 617.619 1.54978 3.3884 0
M  V30 6131 H 617.732 3.43342 3.34145 0
M  V30 6132 H 616.096 1.75648 1.84445 0
M  V30 6133 H 616.879 3.25238 1.09887 0
M  V30 6134 N 619.324 -0.923095 1.27737 0
M  V30 6135 C 620.257 -2.02515 1.05181 0
M  V30 6136 C 621.235 -1.62574 -0.0292204 0
M  V30 6137 O 622.419 -1.88137 0.116848 0
M  V30 6138 C 619.546 -3.33407 0.596468 0
M  V30 6139 C 618.592 -3.92328 1.67276 0
M  V30 6140 S 619.425 -4.24342 3.26641 0
M  V30 6141 C 620.581 -5.58308 2.82919 0
M  V30 6142 H 620.814 -2.21336 1.98488 0
M  V30 6143 H 618.347 -1.06679 1.1162 0
M  V30 6144 H 620.305 -4.09086 0.34044 0
M  V30 6145 H 618.966 -3.125 -0.316614 0
M  V30 6146 H 618.159 -4.86797 1.30556 0
M  V30 6147 H 617.761 -3.2325 1.8811 0
M  V30 6148 H 620.053 -6.37801 2.28509 0
M  V30 6149 H 620.996 -5.99931 3.7615 0
M  V30 6150 H 621.404 -5.19049 2.21919 0
M  V30 6151 N 620.802 -1.09834 -1.13024 0
M  V30 6152 C 621.75 -0.736283 -2.20639 0
M  V30 6153 C 622.744 0.264725 -1.67319 0
M  V30 6154 O 623.95 0.125745 -1.7956 0
M  V30 6155 H 620.325 -0.220136 -0.719058 0
M  V30 6156 H 622.296 -1.65295 -2.48436 0
M  V30 6157 C 621.045 -0.177544 -3.47246 0
M  V30 6158 H 620.368 -0.939009 -3.88616 0
M  V30 6159 H 621.808 0.0378007 -4.23983 0
M  V30 6160 C 620.267 1.08824 -3.1884 0
M  V30 6161 O 620.797 2.1708 -3.37993 0
M  V30 6162 N 619.003 1.00442 -2.7269 0
M  V30 6163 H 618.55 0.123383 -2.57304 0
M  V30 6164 H 618.508 1.85206 -2.5406 0
M  V30 6165 N 622.28 1.30327 -0.886154 0
M  V30 6166 C 623.213 2.26241 -0.298407 0
M  V30 6167 C 624.191 1.51839 0.581704 0
M  V30 6168 O 625.375 1.80851 0.531536 0
M  V30 6169 C 622.502 3.33768 0.575888 0
M  V30 6170 C 621.548 4.25852 -0.235057 0
M  V30 6171 S 622.381 5.10277 -1.62411 0
M  V30 6172 C 623.537 6.21313 -0.756368 0
M  V30 6173 H 623.77 2.75744 -1.11141 0
M  V30 6174 H 621.303 1.38341 -0.685651 0
M  V30 6175 H 623.261 3.96186 1.07458 0
M  V30 6176 H 621.922 2.82986 1.363 0
M  V30 6177 H 621.115 5.02143 0.432198 0
M  V30 6178 H 620.717 3.68015 -0.666409 0
M  V30 6179 H 623.009 6.77495 0.0261451 0
M  V30 6180 H 623.952 6.92226 -1.49093 0
M  V30 6181 H 624.36 5.63611 -0.316749 0
M  V30 6182 N 623.758 0.647228 1.43697 0
M  V30 6183 C 624.988 0.16551 2.05936 0
M  V30 6184 C 625.396 -1.17164 1.48557 0
M  V30 6185 O 624.739 -1.73307 0.60914 0
M  V30 6186 C 624.801 -0.00648082 3.59499 0
M  V30 6187 C 624.465 1.25503 4.39429 0
M  V30 6188 C 625.462 2.18241 4.71876 0
M  V30 6189 C 623.147 1.49494 4.79538 0
M  V30 6190 C 625.141 3.33268 5.43333 0
M  V30 6191 C 622.828 2.64815 5.50742 0
M  V30 6192 C 623.826 3.56528 5.82561 0
M  V30 6193 O 623.514 4.69836 6.52311 0
M  V30 6194 H 623.246 0.0844124 0.670709 0
M  V30 6195 H 625.8 0.88638 1.8529 0
M  V30 6196 H 624.03 -0.782661 3.78697 0
M  V30 6197 H 625.719 -0.444794 4.03456 0
M  V30 6198 H 626.485 2.00946 4.41413 0
M  V30 6199 H 622.364 0.789912 4.54182 0
M  V30 6200 H 625.908 4.04874 5.68087 0
M  V30 6201 H 621.805 2.82047 5.8062 0
M  V30 6202 H 622.573 4.69024 6.70789 0
M  V30 6203 N 625.236 -1.5273 0.388769 0
M  V30 6204 C 626.647 -1.86505 -0.0853788 0
M  V30 6205 C 626.998 -1.30847 -1.46197 0
M  V30 6206 O 626.123 -0.639609 -2.06732 0
M  V30 6207 C 626.718 -3.38414 -0.161703 0
M  V30 6208 C 625.277 -3.71902 -0.580144 0
M  V30 6209 C 624.424 -2.76095 0.258218 0
M  V30 6210 H 627.375 -1.46647 0.606665 0
M  V30 6211 H 627.396 -3.67638 -0.980936 0
M  V30 6212 H 626.908 -3.78893 0.840333 0
M  V30 6213 H 625.009 -3.36992 -1.58957 0
M  V30 6214 H 625.122 -4.77902 -0.338663 0
M  V30 6215 H 623.486 -2.53195 -0.276432 0
M  V30 6216 H 624.269 -3.19411 1.25822 0
M  V30 6217 N 626.714 -0.118576 -1.57153 0
M  V30 6218 C 627.664 0.842924 -2.11846 0
M  V30 6219 C 628.648 1.22845 -1.03914 0
M  V30 6220 O 629.84 1.19961 -1.30148 0
M  V30 6221 C 626.969 2.09312 -2.72109 0
M  V30 6222 C 626.055 1.73198 -3.87122 0
M  V30 6223 N 626.446 1.07758 -4.94188 0
M  V30 6224 C 624.744 2.02659 -3.97298 0
M  V30 6225 C 625.445 0.907741 -5.74574 0
M  V30 6226 N 624.421 1.4326 -5.24383 0
M  V30 6227 H 628.223 0.333416 -2.92003 0
M  V30 6228 H 625.737 0.0839073 -1.62183 0
M  V30 6229 H 627.734 2.79162 -3.09635 0
M  V30 6230 H 626.394 2.60807 -1.93416 0
M  V30 6231 H 627.405 0.741613 -5.12563 0
M  V30 6232 H 624.082 2.56204 -3.29645 0
M  V30 6233 H 625.472 0.394112 -6.70743 0
M  V30 6234 N 628.193 1.56834 0.155195 0
M  V30 6235 C 629.441 1.82536 0.867462 0
M  V30 6236 C 629.762 0.698168 1.82073 0
M  V30 6237 O 629.032 -0.280807 1.93877 0
M  V30 6238 H 627.612 0.673401 0.323327 0
M  V30 6239 H 630.274 1.94313 0.151156 0
M  V30 6240 H 629.37 2.77171 1.43466 0
M  V30 6241 N 629.671 -0.424282 1.51781 0
M  V30 6242 C 631.087 -0.761768 1.40247 0
M  V30 6243 C 631.287 -1.95324 0.495041 0
M  V30 6244 O 630.343 -2.5246 -0.0448949 0
M  V30 6245 C 631.656 -1.0299 2.82513 0
M  V30 6246 C 633.204 -1.13354 2.91753 0
M  V30 6247 C 633.679 -1.43453 4.34954 0
M  V30 6248 N 635.17 -1.5035 4.3812 0
M  V30 6249 C 635.905 -1.75236 5.45967 0
M  V30 6250 N 635.401 -1.97827 6.63955 0
M  V30 6251 N 637.194 -1.77126 5.33463 0
M  V30 6252 H 629.345 0.360228 2.09323 0
M  V30 6253 H 631.608 0.0988128 0.942836 0
M  V30 6254 H 631.314 -0.226961 3.50967 0
M  V30 6255 H 631.188 -1.95411 3.22637 0
M  V30 6256 H 633.575 -1.92709 2.23489 0
M  V30 6257 H 633.656 -0.188041 2.55108 0
M  V30 6258 H 633.3 -0.646209 5.03772 0
M  V30 6259 H 633.23 -2.3923 4.69123 0
M  V30 6260 H 635.721 -1.34742 3.53062 0
M  V30 6261 H 636.034 -2.16223 7.41935 0
M  V30 6262 H 634.379 -1.95123 6.67047 0
M  V30 6263 H 637.57 -1.59005 4.40267 0
M  V30 6264 H 637.743 -1.96182 6.17589 0
M  V30 6265 N 631.149 -1.42148 -0.680565 0
M  V30 6266 C 632.374 -1.45901 -1.47403 0
M  V30 6267 C 632.799 -0.0700985 -1.87969 0
M  V30 6268 O 632.157 0.930145 -1.55621 0
M  V30 6269 C 632.205 -2.38661 -2.70321 0
M  V30 6270 O 631.309 -1.85399 -3.68376 0
M  V30 6271 H 630.65 -0.494565 -0.443059 0
M  V30 6272 H 633.18 -1.86774 -0.835251 0
M  V30 6273 H 633.19 -2.55046 -3.18458 0
M  V30 6274 H 631.865 -3.39571 -2.40134 0
M  V30 6275 H 630.442 -1.78541 -3.2738 0
M  V30 6276 N 632.627 0.916307 -1.28225 0
M  V30 6277 C 633.875 1.6619 -1.15002 0
M  V30 6278 C 634.196 1.92642 0.302329 0
M  V30 6279 O 633.466 1.54076 1.20985 0
M  V30 6280 H 632.046 0.615964 -0.422608 0
M  V30 6281 H 634.708 1.09963 -1.60917 0
M  V30 6282 H 633.804 2.62533 -1.68769 0
M  V30 6283 N 634.105 1.10431 1.1244 0
M  V30 6284 C 635.521 0.836096 1.35947 0
M  V30 6285 C 635.721 -0.544475 1.94004 0
M  V30 6286 O 634.777 -1.29735 2.16622 0
M  V30 6287 C 636.09 1.93575 2.30107 0
M  V30 6288 C 637.638 1.9642 2.43697 0
M  V30 6289 C 638.113 3.05559 3.41171 0
M  V30 6290 N 639.604 3.04865 3.48728 0
M  V30 6291 C 640.339 3.85954 4.24061 0
M  V30 6292 N 639.835 4.76977 5.02458 0
M  V30 6293 N 641.628 3.74172 4.19466 0
M  V30 6294 H 633.779 1.9942 0.731124 0
M  V30 6295 H 636.042 0.866607 0.384312 0
M  V30 6296 H 635.748 2.92943 1.94621 0
M  V30 6297 H 635.622 1.8229 3.30227 0
M  V30 6298 H 638.009 0.97685 2.78463 0
M  V30 6299 H 638.09 2.11782 1.43465 0
M  V30 6300 H 637.734 4.04513 3.07135 0
M  V30 6301 H 637.664 2.87438 4.41234 0
M  V30 6302 H 640.155 2.38908 2.92799 0
M  V30 6303 H 640.468 5.35409 5.57277 0
M  V30 6304 H 638.813 4.81006 5.01655 0
M  V30 6305 H 642.004 3.02412 3.57302 0
M  V30 6306 H 642.177 4.37602 4.77921 0
M  V30 6307 N 635.583 -1.29855 0.893053 0
M  V30 6308 C 636.811 -1.99976 0.530788 0
M  V30 6309 C 637.226 -1.66889 -0.882799 0
M  V30 6310 O 636.583 -0.910352 -1.58173 0
M  V30 6311 C 636.634 -3.54547 0.705587 0
M  V30 6312 O 636.355 -3.86458 2.06353 0
M  V30 6313 C 637.856 -4.41937 0.347387 0
M  V30 6314 H 635.076 -0.639129 0.204339 0
M  V30 6315 H 637.62 -1.65549 1.20057 0
M  V30 6316 H 635.775 -3.87311 0.0830685 0
M  V30 6317 H 636.189 -4.81146 2.08803 0
M  V30 6318 H 637.663 -5.4954 0.520557 0
M  V30 6319 H 638.14 -4.33339 -0.715139 0
M  V30 6320 H 638.746 -4.14633 0.946567 0
M  V30 6321 N 637.061 -0.65484 -1.43351 0
M  V30 6322 C 638.307 -0.169142 -2.02093 0
M  V30 6323 C 638.64 1.21431 -1.51553 0
M  V30 6324 O 637.915 1.81105 -0.709317 0
M  V30 6325 C 638.198 -0.181775 -3.59641 0
M  V30 6326 C 638.051 -1.59926 -4.20409 0
M  V30 6327 C 639.37 0.480945 -4.37464 0
M  V30 6328 H 636.489 -0.0629371 -0.734308 0
M  V30 6329 H 639.131 -0.835833 -1.70628 0
M  V30 6330 H 637.281 0.385918 -3.86578 0
M  V30 6331 H 638.953 -2.21766 -4.04497 0
M  V30 6332 H 637.196 -2.14605 -3.76998 0
M  V30 6333 H 637.867 -1.55994 -5.295 0
M  V30 6334 H 640.343 -0.00208273 -4.161 0
M  V30 6335 H 639.219 0.441384 -5.47122 0
M  V30 6336 H 639.48 1.55533 -4.13838 0
M  V30 6337 N 638.539 1.52521 -0.396863 0
M  V30 6338 C 639.471 2.24333 0.469814 0
M  V30 6339 C 640.484 1.2685 1.02043 0
M  V30 6340 O 641.673 1.52876 0.92147 0
M  V30 6341 C 638.773 2.95202 1.66461 0
M  V30 6342 C 637.946 4.19454 1.24003 0
M  V30 6343 C 637.005 4.73255 2.30036 0
M  V30 6344 O 636.031 5.36151 1.91131 0
M  V30 6345 N 637.233 4.53765 3.62047 0
M  V30 6346 H 639.998 2.99347 -0.145468 0
M  V30 6347 H 637.559 1.60348 -0.223606 0
M  V30 6348 H 639.551 3.28092 2.36934 0
M  V30 6349 H 638.121 2.2345 2.18607 0
M  V30 6350 H 637.341 3.92517 0.363892 0
M  V30 6351 H 638.629 5.0017 0.933135 0
M  V30 6352 H 638.027 4.03576 3.96412 0
M  V30 6353 H 636.584 4.91124 4.28533 0
M  V30 6354 N 640.017 0.126909 1.57088 0
M  V30 6355 C 640.927 -0.833867 2.1928 0
M  V30 6356 C 641.943 -1.2868 1.17122 0
M  V30 6357 O 643.119 -1.34815 1.49622 0
M  V30 6358 C 640.184 -2.0632 2.78627 0
M  V30 6359 C 639.245 -1.66143 3.95847 0
M  V30 6360 C 638.478 -2.83217 4.52354 0
M  V30 6361 O 638.701 -3.98868 4.0775 0
M  V30 6362 O 637.635 -2.59846 5.42922 0
M  V30 6363 H 641.461 -0.334564 3.01852 0
M  V30 6364 H 639.046 -0.0991091 1.49071 0
M  V30 6365 H 640.928 -2.78304 3.16425 0
M  V30 6366 H 639.603 -2.55242 1.99082 0
M  V30 6367 H 638.51 -0.912435 3.62802 0
M  V30 6368 H 639.843 -1.21957 4.76852 0
M  V30 6369 N 641.495 -1.56914 -0.146875 0
M  V30 6370 C 642.744 -1.82546 -0.857898 0
M  V30 6371 C 643.057 -0.708169 -1.8233 0
M  V30 6372 O 644.263 -0.850093 -2.57848 0
M  V30 6373 C 642.719 -3.23548 -1.57623 0
M  V30 6374 C 642.327 -4.43212 -0.653224 0
M  V30 6375 C 644.071 -3.58453 -2.27402 0
M  V30 6376 C 641.978 -5.75237 -1.37318 0
M  V30 6377 H 640.908 -0.680786 -0.32411 0
M  V30 6378 H 643.559 -1.83166 -0.110639 0
M  V30 6379 H 641.941 -3.17315 -2.36912 0
M  V30 6380 H 643.115 -4.60682 0.104452 0
M  V30 6381 H 641.43 -4.16351 -0.0638336 0
M  V30 6382 H 644.027 -4.54349 -2.81907 0
M  V30 6383 H 644.37 -2.84516 -3.03901 0
M  V30 6384 H 644.903 -3.66347 -1.55032 0
M  V30 6385 H 641.642 -6.52269 -0.650041 0
M  V30 6386 H 641.162 -5.61703 -2.10357 0
M  V30 6387 H 642.841 -6.18039 -1.91406 0
M  V30 6388 N 642.974 0.416227 -1.52004 0
M  V30 6389 C 644.22 1.16233 -1.66917 0
M  V30 6390 C 644.575 1.8839 -0.390763 0
M  V30 6391 O 643.868 1.81479 0.614478 0
M  V30 6392 C 644.062 2.18923 -2.82502 0
M  V30 6393 C 643.891 1.56849 -4.2146 0
M  V30 6394 C 642.661 1.34426 -4.87091 0
M  V30 6395 C 644.859 1.03322 -5.03815 0
M  V30 6396 N 642.841 0.681703 -6.10103 0
M  V30 6397 C 644.212 0.497165 -6.18003 0
M  V30 6398 C 646.267 0.926997 -4.89194 0
M  V30 6399 C 644.97 -0.134687 -7.19174 0
M  V30 6400 C 646.996 0.309009 -5.90592 0
M  V30 6401 C 646.358 -0.216399 -7.04068 0
M  V30 6402 H 642.457 0.412252 -0.664509 0
M  V30 6403 H 645.041 0.455758 -1.89291 0
M  V30 6404 H 643.212 2.86946 -2.61756 0
M  V30 6405 H 644.944 2.85844 -2.86488 0
M  V30 6406 H 641.699 1.61183 -4.45328 0
M  V30 6407 H 642.123 0.367256 -6.76003 0
M  V30 6408 H 646.765 1.31904 -4.01698 0
M  V30 6409 H 644.483 -0.538811 -8.06302 0
M  V30 6410 H 648.069 0.228438 -5.81351 0
M  V30 6411 H 646.949 -0.687064 -7.81184 0
M  V30 6412 N 644.452 1.42507 0.673017 0
M  V30 6413 C 645.362 1.4853 1.81593 0
M  V30 6414 C 646.378 0.373907 1.69935 0
M  V30 6415 O 647.554 0.625078 1.91454 0
M  V30 6416 C 644.619 1.387 3.17747 0
M  V30 6417 C 643.68 2.60346 3.41348 0
M  V30 6418 C 642.913 2.50975 4.71007 0
M  V30 6419 O 643.136 1.54659 5.49033 0
M  V30 6420 O 642.07 3.41138 4.95892 0
M  V30 6421 H 645.896 2.45001 1.79467 0
M  V30 6422 H 643.481 1.2429 0.82899 0
M  V30 6423 H 645.363 1.35586 3.98992 0
M  V30 6424 H 644.038 0.453555 3.20507 0
M  V30 6425 H 642.945 2.69034 2.59945 0
M  V30 6426 H 644.278 3.52595 3.43421 0
M  V30 6427 N 645.93 -0.909495 1.28709 0
M  V30 6428 C 647.207 -1.63865 1.06806 0
M  V30 6429 C 647.587 -2.07445 -0.391143 0
M  V30 6430 O 646.935 -1.82269 -1.37805 0
M  V30 6431 C 647.145 -2.82692 2.04661 0
M  V30 6432 C 648.493 -3.5361 2.35042 0
M  V30 6433 O 649.517 -2.92847 2.02779 0
M  V30 6434 O 648.376 -4.63131 2.90124 0
M  V30 6435 H 645.47 -0.719065 0.408502 0
M  V30 6436 H 648.016 -0.958424 1.40044 0
M  V30 6437 H 646.788 -2.47614 3.0299 0
M  V30 6438 H 646.411 -3.58426 1.72095 0
M  V30 6439 N 647.408 -1.11026 -1.11852 0
M  V30 6440 C 648.655 -0.85646 -1.83497 0
M  V30 6441 C 648.983 0.617938 -1.84423 0
M  V30 6442 O 648.238 1.47194 -1.28966 0
M  V30 6443 C 648.537 -1.35777 -3.30604 0
M  V30 6444 C 648.203 -2.84465 -3.49843 0
M  V30 6445 C 646.865 -3.25068 -3.54802 0
M  V30 6446 C 649.217 -3.80251 -3.56453 0
M  V30 6447 C 646.545 -4.60194 -3.63921 0
M  V30 6448 C 648.897 -5.15188 -3.67102 0
M  V30 6449 C 647.561 -5.55356 -3.70319 0
M  V30 6450 H 646.831 -0.313401 -0.671462 0
M  V30 6451 H 649.478 -1.38792 -1.31943 0
M  V30 6452 H 647.783 -0.746455 -3.84624 0
M  V30 6453 H 649.48 -1.13779 -3.8452 0
M  V30 6454 H 646.07 -2.52054 -3.46651 0
M  V30 6455 H 650.254 -3.49986 -3.51886 0
M  V30 6456 H 645.51 -4.90728 -3.64686 0
M  V30 6457 H 649.684 -5.89248 -3.71159 0
M  V30 6458 H 647.311 -6.60054 -3.77138 0
M  V30 6459 N 648.886 1.2938 -0.899927 0
M  V30 6460 C 650.111 2.00228 -0.540692 0
M  V30 6461 C 650.536 1.66909 0.867359 0
M  V30 6462 O 649.894 0.893824 1.57735 0
M  V30 6463 C 649.942 3.52921 -0.740232 0
M  V30 6464 O 649.046 4.11879 0.207154 0
M  V30 6465 H 648.387 0.629505 -0.211233 0
M  V30 6466 H 650.917 1.6487 -1.21158 0
M  V30 6467 H 650.927 4.0287 -0.644973 0
M  V30 6468 H 649.602 3.76508 -1.76677 0
M  V30 6469 H 648.179 3.72845 0.0643315 0
M  V30 6470 N 650.364 0.662433 1.43002 0
M  V30 6471 C 651.297 -0.073459 2.28082 0
M  V30 6472 C 652.275 -0.820869 1.40358 0
M  V30 6473 O 653.459 -0.818545 1.698 0
M  V30 6474 C 650.586 -1.11097 3.19961 0
M  V30 6475 C 649.632 -0.460557 4.24006 0
M  V30 6476 S 650.465 0.772717 5.29896 0
M  V30 6477 C 651.621 -0.264028 6.25343 0
M  V30 6478 H 651.854 0.648227 2.90147 0
M  V30 6479 H 649.387 0.451566 1.47649 0
M  V30 6480 H 651.345 -1.70452 3.73439 0
M  V30 6481 H 650.006 -1.80503 2.57056 0
M  V30 6482 H 649.199 -1.24299 4.88432 0
M  V30 6483 H 648.801 0.0591038 3.73953 0
M  V30 6484 H 651.093 -1.12748 6.68052 0
M  V30 6485 H 652.036 0.345443 7.07257 0
M  V30 6486 H 652.444 -0.603964 5.6126 0
M  V30 6487 N 651.842 -1.52309 0.404946 0
M  V30 6488 C 653.067 -2.06666 -0.1743 0
M  V30 6489 C 653.492 -1.27341 -1.38441 0
M  V30 6490 O 652.85 -0.302539 -1.78758 0
M  V30 6491 C 652.898 -3.57014 -0.507262 0
M  V30 6492 O 652.002 -3.80144 -1.59889 0
M  V30 6493 H 651.343 -0.663807 -0.0160273 0
M  V30 6494 H 653.873 -1.96297 0.576937 0
M  V30 6495 H 653.883 -4.00724 -0.767098 0
M  V30 6496 H 652.558 -4.14184 0.377368 0
M  V30 6497 H 651.135 -3.48316 -1.33155 0
M  V30 6498 N 653.32 -0.135238 -1.57019 0
M  V30 6499 C 654.567 0.518794 -1.95742 0
M  V30 6500 C 654.895 1.65642 -1.01947 0
M  V30 6501 O 654.15 1.95645 -0.0464016 0
M  V30 6502 C 654.449 1.07694 -3.40788 0
M  V30 6503 C 654.115 0.058992 -4.50861 0
M  V30 6504 C 652.777 -0.220872 -4.80693 0
M  V30 6505 C 655.129 -0.633856 -5.17331 0
M  V30 6506 C 652.457 -1.19959 -5.74305 0
M  V30 6507 C 654.809 -1.60131 -6.11997 0
M  V30 6508 C 653.473 -1.889 -6.40213 0
M  V30 6509 H 652.743 0.18984 -0.716269 0
M  V30 6510 H 655.39 -0.219581 -1.90237 0
M  V30 6511 H 653.695 1.89241 -3.43067 0
M  V30 6512 H 655.392 1.59137 -3.68071 0
M  V30 6513 H 651.982 0.287304 -4.27636 0
M  V30 6514 H 656.166 -0.430823 -4.94427 0
M  V30 6515 H 651.422 -1.42905 -5.94465 0
M  V30 6516 H 655.596 -2.14376 -6.62583 0
M  V30 6517 H 653.223 -2.64891 -7.12556 0
M  V30 6518 N 654.798 1.5699 0.138552 0
M  V30 6519 C 656.026 1.87976 0.864437 0
M  V30 6520 C 656.441 0.724372 1.74351 0
M  V30 6521 O 655.798 -0.305575 1.79924 0
M  V30 6522 C 655.849 3.18276 1.71414 0
M  V30 6523 O 655.57 4.29365 0.870487 0
M  V30 6524 C 657.071 3.62834 2.54688 0
M  V30 6525 H 654.291 0.622878 0.249528 0
M  V30 6526 H 656.835 2.04094 0.128805 0
M  V30 6527 H 654.99 3.03886 2.40274 0
M  V30 6528 H 655.404 5.03924 1.45466 0
M  V30 6529 H 656.878 4.5682 3.0987 0
M  V30 6530 H 657.355 2.88533 3.31127 0
M  V30 6531 H 657.961 3.79946 1.91105 0
M  V30 6532 N 656.276 -0.40816 1.52223 0
M  V30 6533 C 657.687 -0.986929 1.58482 0
M  V30 6534 C 658.038 -1.91521 0.425917 0
M  V30 6535 O 657.163 -2.11593 -0.453593 0
M  V30 6536 C 657.758 -1.7967 2.87235 0
M  V30 6537 C 656.317 -2.32549 2.9597 0
M  V30 6538 C 655.464 -1.12558 2.53428 0
M  V30 6539 H 658.415 -0.188362 1.57578 0
M  V30 6540 H 658.436 -2.65417 2.72642 0
M  V30 6541 H 657.948 -1.12082 3.71563 0
M  V30 6542 H 656.049 -3.03505 2.16137 0
M  V30 6543 H 656.162 -2.63348 4.00231 0
M  V30 6544 H 654.526 -1.47984 2.07299 0
M  V30 6545 H 655.309 -0.465351 3.40131 0
M  V30 6546 N 657.755 -1.42862 -0.66545 0
M  V30 6547 C 658.718 -1.46756 -1.76055 0
M  V30 6548 C 659.718 -0.353866 -1.56858 0
M  V30 6549 O 660.908 -0.615099 -1.62979 0
M  V30 6550 C 658.04 -1.30829 -3.14796 0
M  V30 6551 H 659.233 -2.44271 -1.73987 0
M  V30 6552 H 656.786 -1.29447 -0.875965 0
M  V30 6553 H 657.521 -0.342733 -3.22484 0
M  V30 6554 H 657.306 -2.11551 -3.30134 0
M  V30 6555 H 658.796 -1.36458 -3.94676 0
M  V30 6556 N 659.233 0.902656 -1.29189 0
M  V30 6557 C 660.479 1.65532 -1.17163 0
M  V30 6558 C 660.812 1.92216 0.276879 0
M  V30 6559 O 660.087 1.53048 1.20027 0
M  V30 6560 C 660.37 3.00629 -1.98228 0
M  V30 6561 C 660.223 2.81029 -3.51202 0
M  V30 6562 C 661.542 4.01321 -1.80635 0
M  V30 6563 H 658.661 0.60071 -0.426985 0
M  V30 6564 H 661.303 1.04578 -1.5863 0
M  V30 6565 H 659.453 3.52656 -1.62991 0
M  V30 6566 H 661.125 2.35927 -3.96404 0
M  V30 6567 H 659.368 2.1587 -3.76275 0
M  V30 6568 H 660.039 3.77014 -4.03192 0
M  V30 6569 H 662.515 3.58394 -2.11406 0
M  V30 6570 H 661.391 4.93792 -2.3971 0
M  V30 6571 H 661.652 4.35505 -0.760754 0
M  V30 6572 N 660.711 1.11618 1.11262 0
M  V30 6573 C 662.127 0.850468 1.35053 0
M  V30 6574 C 662.327 -0.523868 1.94571 0
M  V30 6575 O 661.383 -1.2743 2.17986 0
M  V30 6576 C 662.696 1.96005 2.28041 0
M  V30 6577 C 664.244 1.98993 2.416 0
M  V30 6578 C 664.719 3.0916 3.37911 0
M  V30 6579 N 666.21 3.08547 3.45475 0
M  V30 6580 C 666.945 3.9043 4.19943 0
M  V30 6581 N 666.441 4.8228 4.97371 0
M  V30 6582 N 668.234 3.786 4.15474 0
M  V30 6583 H 660.385 2.00184 0.709932 0
M  V30 6584 H 662.648 0.870635 0.375099 0
M  V30 6585 H 662.354 2.9499 1.91503 0
M  V30 6586 H 662.228 1.85782 3.28275 0
M  V30 6587 H 664.615 1.00633 2.77411 0
M  V30 6588 H 664.696 2.13292 1.4121 0
M  V30 6589 H 664.34 4.07748 3.02827 0
M  V30 6590 H 664.27 2.92102 4.3816 0
M  V30 6591 H 666.761 2.42 2.90249 0
M  V30 6592 H 667.074 5.41289 5.51567 0
M  V30 6593 H 665.419 4.863 4.96525 0
M  V30 6594 H 668.61 3.06185 3.54074 0
M  V30 6595 H 668.783 4.42647 4.73253 0
M  V30 6596 N 662.189 -1.289 0.906776 0
M  V30 6597 C 663.099 -2.31256 0.394707 0
M  V30 6598 C 664.115 -1.66231 -0.514121 0
M  V30 6599 O 665.291 -1.97347 -0.401994 0
M  V30 6600 C 662.356 -3.44792 -0.363191 0
M  V30 6601 C 661.417 -4.25391 0.578012 0
M  V30 6602 C 660.65 -5.33506 -0.143811 0
M  V30 6603 O 660.873 -5.53786 -1.36665 0
M  V30 6604 O 659.807 -5.99673 0.5173 0
M  V30 6605 H 663.633 -2.77051 1.24405 0
M  V30 6606 H 661.218 -1.33466 0.671346 0
M  V30 6607 H 663.1 -4.139 -0.791503 0
M  V30 6608 H 661.775 -3.01093 -1.18848 0
M  V30 6609 H 660.682 -3.58899 1.05558 0
M  V30 6610 H 662.015 -4.72752 1.36992 0
M  V30 6611 N 663.667 -0.670007 -1.42649 0
M  V30 6612 C 664.913 -0.190568 -2.01903 0
M  V30 6613 C 665.246 1.19817 -1.52832 0
M  V30 6614 O 664.521 1.80342 -0.728485 0
M  V30 6615 C 664.804 -0.21991 -3.59428 0
M  V30 6616 C 664.657 -1.64376 -4.18689 0
M  V30 6617 C 665.976 0.434519 -4.3795 0
M  V30 6618 H 663.095 -0.0707219 -0.733599 0
M  V30 6619 H 665.737 -0.853883 -1.69732 0
M  V30 6620 H 663.887 0.344894 -3.86966 0
M  V30 6621 H 665.559 -2.26044 -4.02122 0
M  V30 6622 H 663.802 -2.18591 -3.747 0
M  V30 6623 H 664.473 -1.61601 -5.27815 0
M  V30 6624 H 666.949 -0.0462156 -4.16074 0
M  V30 6625 H 665.825 0.38333 -5.4756 0
M  V30 6626 H 666.086 1.51135 -4.15464 0
M  V30 6627 N 665.145 1.52092 -0.413018 0
M  V30 6628 C 666.391 2.02154 0.161737 0
M  V30 6629 C 666.724 1.29789 1.44459 0
M  V30 6630 O 665.999 0.405378 1.90229 0
M  V30 6631 C 666.282 3.5781 0.405463 0
M  V30 6632 C 666.135 4.40819 -0.894335 0
M  V30 6633 C 667.454 4.23821 1.18591 0
M  V30 6634 H 664.573 0.734769 0.0573077 0
M  V30 6635 H 667.215 1.81948 -0.547247 0
M  V30 6636 H 665.365 3.75158 1.0094 0
M  V30 6637 H 667.037 4.35175 -1.53039 0
M  V30 6638 H 665.28 4.06877 -1.50444 0
M  V30 6639 H 665.951 5.47819 -0.678144 0
M  V30 6640 H 668.427 4.10596 0.674573 0
M  V30 6641 H 667.303 5.32663 1.3252 0
M  V30 6642 H 667.564 3.83038 2.20758 0
M  V30 6643 N 666.623 0.143563 1.56945 0
M  V30 6644 C 667.533 -0.810562 2.20152 0
M  V30 6645 C 668.549 -1.27431 1.1848 0
M  V30 6646 O 669.725 -1.33221 1.51044 0
M  V30 6647 C 666.79 -2.03353 2.80799 0
M  V30 6648 C 665.851 -1.61936 3.97587 0
M  V30 6649 C 665.084 -2.78403 4.55332 0
M  V30 6650 O 665.307 -3.94521 4.11958 0
M  V30 6651 O 664.241 -2.54073 5.45647 0
M  V30 6652 H 668.067 -0.30253 3.02189 0
M  V30 6653 H 665.652 -0.0832925 1.49168 0
M  V30 6654 H 667.534 -2.74932 3.19359 0
M  V30 6655 H 666.209 -2.53116 2.01777 0
M  V30 6656 H 665.116 -0.873904 3.6375 0
M  V30 6657 H 666.449 -1.16892 4.78118 0
M  V30 6658 N 668.101 -1.57061 -0.130224 0
M  V30 6659 C 669.348 -1.84257 -0.839972 0
M  V30 6660 C 669.676 -0.726986 -1.80403 0
M  V30 6661 O 668.931 0.282632 -1.93648 0
M  V30 6662 C 669.23 -3.17878 -1.63365 0
M  V30 6663 C 668.896 -4.43475 -0.814891 0
M  V30 6664 C 667.558 -4.77581 -0.589066 0
M  V30 6665 C 669.91 -5.20631 -0.243437 0
M  V30 6666 C 667.238 -5.86292 0.218648 0
M  V30 6667 C 669.59 -6.30192 0.551408 0
M  V30 6668 C 668.254 -6.62837 0.787653 0
M  V30 6669 H 667.524 -0.674245 -0.307367 0
M  V30 6670 H 670.171 -1.91224 -0.102832 0
M  V30 6671 H 668.476 -3.06437 -2.44138 0
M  V30 6672 H 670.173 -3.3614 -2.18658 0
M  V30 6673 H 666.763 -4.16747 -1.00098 0
M  V30 6674 H 670.947 -4.94644 -0.405145 0
M  V30 6675 H 666.203 -6.10017 0.411016 0
M  V30 6676 H 670.377 -6.89165 1.00126 0
M  V30 6677 H 668.004 -7.46908 1.41537 0
M  V30 6678 N 669.579 0.400081 -1.52437 0
M  V30 6679 C 670.542 1.4707 -1.75793 0
M  V30 6680 C 671.542 1.48036 -0.627856 0
M  V30 6681 O 672.732 1.49401 -0.895817 0
M  V30 6682 C 669.864 2.86427 -1.84858 0
M  V30 6683 H 671.057 1.27649 -2.71377 0
M  V30 6684 H 668.61 0.631141 -1.42991 0
M  V30 6685 H 669.345 3.11207 -0.912194 0
M  V30 6686 H 669.13 2.87128 -2.6702 0
M  V30 6687 H 670.62 3.64023 -2.04638 0
M  V30 6688 N 671.057 1.43213 0.657864 0
M  V30 6689 C 672.004 1.48011 1.77092 0
M  V30 6690 C 672.974 0.330291 1.62783 0
M  V30 6691 O 674.159 0.536787 1.83094 0
M  V30 6692 C 671.299 1.40461 3.15222 0
M  V30 6693 C 670.412 2.65612 3.40697 0
M  V30 6694 C 669.547 2.50083 4.68649 0
M  V30 6695 C 668.586 3.70525 4.87214 0
M  V30 6696 N 667.723 3.53835 6.0642 0
M  V30 6697 H 672.563 2.43121 1.72326 0
M  V30 6698 H 670.1 1.20687 0.841013 0
M  V30 6699 H 672.058 1.34079 3.95068 0
M  V30 6700 H 670.688 0.489359 3.19069 0
M  V30 6701 H 669.74 2.82292 2.54982 0
M  V30 6702 H 671.052 3.5509 3.50303 0
M  V30 6703 H 670.206 2.41383 5.56614 0
M  V30 6704 H 668.945 1.58121 4.61356 0
M  V30 6705 H 667.95 3.79639 3.97686 0
M  V30 6706 H 669.175 4.63489 4.96341 0
M  V30 6707 H 667.121 2.64604 6.00267 0
M  V30 6708 H 667.038 4.36912 6.16963 0
M  V30 6709 H 668.306 3.48978 6.97019 0
M  V30 6710 N 672.536 -0.895792 1.29666 0
M  V30 6711 C 673.486 -1.98736 1.1175 0
M  V30 6712 C 674.47 -1.6086 0.0357834 0
M  V30 6713 O 675.662 -1.75111 0.257926 0
M  V30 6714 C 672.791 -3.33845 0.800156 0
M  V30 6715 C 671.877 -3.78068 1.9216 0
M  V30 6716 N 672.268 -3.94489 3.16563 0
M  V30 6717 C 670.566 -4.07376 1.81552 0
M  V30 6718 C 671.267 -4.31819 3.89753 0
M  V30 6719 N 670.243 -4.41081 3.17724 0
M  V30 6720 H 674.045 -2.09507 2.06117 0
M  V30 6721 H 671.559 -1.08488 1.20848 0
M  V30 6722 H 673.556 -4.11757 0.652841 0
M  V30 6723 H 672.216 -3.24417 -0.135551 0
M  V30 6724 H 673.227 -3.79914 3.51974 0
M  V30 6725 H 669.904 -4.06483 0.952787 0
M  V30 6726 H 671.294 -4.52337 4.96831 0
M  V30 6727 N 674.014 -1.12206 -1.10668 0
M  V30 6728 C 675.263 -0.870595 -1.81944 0
M  V30 6729 C 675.576 0.605447 -1.85994 0
M  V30 6730 O 676.782 0.973433 -2.53449 0
M  V30 6731 C 675.238 -1.50783 -3.26791 0
M  V30 6732 C 674.846 -3.01849 -3.31046 0
M  V30 6733 C 676.59 -1.33653 -4.02911 0
M  V30 6734 C 674.497 -3.58518 -4.70339 0
M  V30 6735 H 673.427 -0.322043 -0.681765 0
M  V30 6736 H 676.078 -1.34827 -1.24475 0
M  V30 6737 H 674.46 -0.957825 -3.84242 0
M  V30 6738 H 675.634 -3.63321 -2.83433 0
M  V30 6739 H 673.949 -3.18346 -2.68411 0
M  V30 6740 H 676.546 -1.73416 -5.05797 0
M  V30 6741 H 676.889 -0.279949 -4.15358 0
M  V30 6742 H 677.422 -1.85562 -3.51868 0
M  V30 6743 H 674.161 -4.63925 -4.63091 0
M  V30 6744 H 673.681 -3.01819 -5.18329 0
M  V30 6745 H 675.36 -3.57434 -5.39305 0
M  V30 6746 N 675.492 1.28418 -0.913599 0
M  V30 6747 C 676.903 1.77024 -0.593237 0
M  V30 6748 C 677.254 1.74779 0.891441 0
M  V30 6749 O 676.379 1.34237 1.69733 0
M  V30 6750 C 676.974 3.21456 -1.07011 0
M  V30 6751 C 675.533 3.67786 -0.800664 0
M  V30 6752 C 674.68 2.48185 -1.23691 0
M  V30 6753 H 677.631 1.14883 -1.09487 0
M  V30 6754 H 677.652 3.78269 -0.411481 0
M  V30 6755 H 677.164 3.23058 -2.1507 0
M  V30 6756 H 675.265 3.71644 0.266725 0
M  V30 6757 H 675.378 4.57934 -1.4083 0
M  V30 6758 H 673.742 2.46116 -0.655655 0
M  V30 6759 H 674.525 2.52506 -2.32585 0
M  V30 6760 N 676.97 0.677563 1.42291 0
M  V30 6761 C 678.218 0.200578 2.01102 0
M  V30 6762 C 678.539 -1.19803 1.53858 0
M  V30 6763 O 677.809 -1.80496 0.761439 0
M  V30 6764 H 676.389 0.0711634 0.743603 0
M  V30 6765 H 679.051 0.874691 1.7417 0
M  V30 6766 H 678.147 0.204 3.11433 0
M  V30 6767 N 678.448 -1.51871 0.421078 0
M  V30 6768 C 679.695 -2.01938 -0.15079 0
M  V30 6769 C 680.023 -1.30611 -1.44121 0
M  V30 6770 O 679.278 -0.404631 -1.91471 0
M  V30 6771 C 679.577 -3.54764 -0.433292 0
M  V30 6772 C 679.243 -4.44288 0.76936 0
M  V30 6773 C 677.905 -4.68477 1.09921 0
M  V30 6774 C 680.257 -4.96915 1.57242 0
M  V30 6775 C 677.585 -5.4254 2.2331 0
M  V30 6776 C 679.937 -5.7222 2.69716 0
M  V30 6777 C 678.601 -5.94678 3.03174 0
M  V30 6778 H 677.871 -0.738943 -0.0551781 0
M  V30 6779 H 680.518 -1.82977 0.564945 0
M  V30 6780 H 678.823 -3.71968 -1.23074 0
M  V30 6781 H 680.52 -3.91023 -0.888922 0
M  V30 6782 H 677.11 -4.25646 0.502305 0
M  V30 6783 H 681.294 -4.78125 1.3308 0
M  V30 6784 H 676.55 -5.58146 2.49565 0
M  V30 6785 H 680.724 -6.11992 3.32323 0
M  V30 6786 H 678.351 -6.51848 3.9115 0
M  V30 6787 N 679.926 -0.151884 -1.56866 0
M  V30 6788 C 681.342 0.204486 -1.58285 0
M  V30 6789 C 681.542 1.6431 -1.16639 0
M  V30 6790 O 680.598 2.37077 -0.868946 0
M  V30 6791 C 681.911 -0.0587019 -3.00643 0
M  V30 6792 C 683.459 0.00462303 -3.13 0
M  V30 6793 C 683.934 -0.231297 -4.57416 0
M  V30 6794 N 685.425 -0.178394 -4.62856 0
M  V30 6795 C 686.16 -0.335379 -5.72418 0
M  V30 6796 N 685.656 -0.550355 -6.90611 0
M  V30 6797 N 687.449 -0.272641 -5.61438 0
M  V30 6798 H 679.6 -1.09116 -1.82229 0
M  V30 6799 H 681.863 -0.432311 -0.843689 0
M  V30 6800 H 681.569 -1.05453 -3.35518 0
M  V30 6801 H 681.443 0.658508 -3.71407 0
M  V30 6802 H 683.83 0.991009 -2.77962 0
M  V30 6803 H 683.911 -0.744992 -2.44711 0
M  V30 6804 H 683.555 -1.2148 -4.93158 0
M  V30 6805 H 683.485 0.5387 -5.23837 0
M  V30 6806 H 685.976 -0.0170923 -3.77896 0
M  V30 6807 H 686.289 -0.660116 -7.69976 0
M  V30 6808 H 684.634 -0.586736 -6.92519 0
M  V30 6809 H 687.825 -0.105421 -4.67981 0
M  V30 6810 H 687.998 -0.398418 -6.46774 0
M  V30 6811 N 681.404 1.57128 0.121893 0
M  V30 6812 C 682.681 1.75664 0.860327 0
M  V30 6813 C 683.061 0.726585 1.98202 0
M  V30 6814 O 682.409 -0.24999 2.27128 0
M  V30 6815 C 682.619 3.20571 1.37968 0
M  V30 6816 C 683.967 3.82988 1.83317 0
M  V30 6817 O 684.991 3.24156 1.47654 0
M  V30 6818 O 683.85 4.86393 2.49168 0
M  V30 6819 H 680.944 0.719153 0.408348 0
M  V30 6820 H 683.49 1.6937 0.105859 0
M  V30 6821 H 682.262 3.87056 0.57477 0
M  V30 6822 H 681.885 3.31392 2.19694 0
M  V30 6823 N 682.882 -0.391992 1.52647 0
M  V30 6824 C 683.812 -1.48517 1.8018 0
M  V30 6825 C 684.793 -1.57039 0.653667 0
M  V30 6826 O 685.978 -1.72036 0.900962 0
M  V30 6827 C 683.108 -2.86161 1.96797 0
M  V30 6828 C 682.062 -2.92481 3.12472 0
M  V30 6829 C 681.388 -4.32546 3.14338 0
M  V30 6830 C 682.688 -2.624 4.51601 0
M  V30 6831 H 684.382 -1.25726 2.71723 0
M  V30 6832 H 681.928 -0.603387 1.30749 0
M  V30 6833 H 683.881 -3.62639 2.14641 0
M  V30 6834 H 682.605 -3.10283 1.01941 0
M  V30 6835 H 681.264 -2.18451 2.94406 0
M  V30 6836 H 680.912 -4.53703 2.1717 0
M  V30 6837 H 680.612 -4.37695 3.92042 0
M  V30 6838 H 682.136 -5.10934 3.34333 0
M  V30 6839 H 683.55 -3.28596 4.69785 0
M  V30 6840 H 681.947 -2.78903 5.3135 0
M  V30 6841 H 683.017 -1.57754 4.58521 0
M  V30 6842 N 684.36 -1.4356 -0.65026 0
M  V30 6843 C 685.585 -1.48995 -1.44275 0
M  V30 6844 C 686.01 -0.109954 -1.87778 0
M  V30 6845 O 685.368 0.896926 -1.57559 0
M  V30 6846 C 685.416 -2.44341 -2.65198 0
M  V30 6847 O 684.52 -1.93172 -3.6436 0
M  V30 6848 H 683.861 -0.503852 -0.432469 0
M  V30 6849 H 686.391 -1.88504 -0.795446 0
M  V30 6850 H 686.401 -2.61743 -3.12977 0
M  V30 6851 H 685.076 -3.44588 -2.32877 0
M  V30 6852 H 683.653 -1.85445 -3.23519 0
M  V30 6853 N 685.838 0.888903 -1.30139 0
M  V30 6854 C 686.77 1.99972 -1.11999 0
M  V30 6855 C 687.783 1.62673 -0.0643619 0
M  V30 6856 O 688.972 1.75788 -0.309983 0
M  V30 6857 C 686.072 3.31904 -0.685059 0
M  V30 6858 C 685.245 3.97665 -1.82158 0
M  V30 6859 C 684.304 5.07894 -1.37585 0
M  V30 6860 O 683.33 5.2974 -2.08241 0
M  V30 6861 N 684.532 5.7995 -0.252697 0
M  V30 6862 H 687.297 2.16085 -2.07671 0
M  V30 6863 H 684.858 1.06175 -1.22223 0
M  V30 6864 H 686.85 4.03005 -0.369964 0
M  V30 6865 H 685.42 3.12084 0.179507 0
M  V30 6866 H 684.64 3.19787 -2.305 0
M  V30 6867 H 685.928 4.3834 -2.58332 0
M  V30 6868 H 685.326 5.647 0.336141 0
M  V30 6869 H 683.883 6.518 0.00296813 0
M  V30 6870 N 687.317 1.12792 1.10072 0
M  V30 6871 C 688.267 0.768086 2.14673 0
M  V30 6872 C 689.251 -0.234716 1.59179 0
M  V30 6873 O 690.443 -0.039643 1.76956 0
M  V30 6874 C 687.572 0.228472 3.42539 0
M  V30 6875 C 686.658 1.25979 4.04957 0
M  V30 6876 N 687.049 2.4586 4.42025 0
M  V30 6877 C 685.347 1.10602 4.32069 0
M  V30 6878 C 686.048 3.11747 4.9111 0
M  V30 6879 N 685.024 2.39185 4.88151 0
M  V30 6880 H 688.826 1.68029 2.4113 0
M  V30 6881 H 686.34 1.00925 1.27232 0
M  V30 6882 H 688.337 -0.0475216 4.16873 0
M  V30 6883 H 686.997 -0.678136 3.1754 0
M  V30 6884 H 688.008 2.83215 4.33601 0
M  V30 6885 H 684.685 0.257021 4.16708 0
M  V30 6886 H 686.075 4.13862 5.29309 0
M  V30 6887 N 688.795 -1.27931 0.920396 0
M  V30 6888 C 690.072 -1.89728 0.475687 0
M  V30 6889 C 690.452 -1.8337 -1.04588 0
M  V30 6890 O 689.8 -1.27404 -1.89685 0
M  V30 6891 C 690.01 -3.33959 1.01354 0
M  V30 6892 C 691.358 -4.10907 1.06963 0
M  V30 6893 O 692.382 -3.42945 0.962646 0
M  V30 6894 O 691.241 -5.32399 1.23343 0
M  V30 6895 H 688.335 -0.81294 0.151845 0
M  V30 6896 H 690.881 -1.36252 1.01161 0
M  V30 6897 H 689.653 -3.32843 2.05746 0
M  V30 6898 H 689.276 -3.94944 0.458829 0
M  V30 6899 N 690.273 -0.685099 -1.4193 0
M  V30 6900 C 691.205 0.0258679 -2.29185 0
M  V30 6901 C 692.218 0.755076 -1.44231 0
M  V30 6902 O 693.407 0.60752 -1.67844 0
M  V30 6903 C 690.507 1.06055 -3.21878 0
M  V30 6904 C 689.68 0.403088 -4.35539 0
M  V30 6905 C 688.739 1.33895 -5.0888 0
M  V30 6906 O 687.765 0.835326 -5.63037 0
M  V30 6907 N 688.967 2.6718 -5.15359 0
M  V30 6908 H 691.732 -0.723201 -2.90843 0
M  V30 6909 H 689.293 -0.53031 -1.52968 0
M  V30 6910 H 691.285 1.68813 -3.6781 0
M  V30 6911 H 689.855 1.71126 -2.616 0
M  V30 6912 H 689.075 -0.404185 -3.92122 0
M  V30 6913 H 690.363 -0.0545098 -5.08771 0
M  V30 6914 H 689.761 3.10626 -4.72788 0
M  V30 6915 H 688.318 3.25159 -5.64903 0
M  V30 6916 N 691.751 1.51645 -0.429126 0
M  V30 6917 C 692.997 2.02314 0.140286 0
M  V30 6918 C 693.33 1.31314 1.43074 0
M  V30 6919 O 692.605 0.425531 1.89788 0
M  V30 6920 C 692.888 3.5822 0.36749 0
M  V30 6921 C 692.741 4.39846 -0.941039 0
M  V30 6922 C 694.06 4.25055 1.14089 0
M  V30 6923 H 691.179 0.735335 0.0495112 0
M  V30 6924 H 693.821 1.81358 -0.566514 0
M  V30 6925 H 691.971 3.76207 0.969556 0
M  V30 6926 H 693.643 4.33527 -1.57646 0
M  V30 6927 H 691.886 4.05259 -1.54751 0
M  V30 6928 H 692.557 5.47069 -0.73621 0
M  V30 6929 H 695.033 4.11288 0.630986 0
M  V30 6930 H 693.909 5.34038 1.26863 0
M  V30 6931 H 694.17 3.85358 2.16683 0
M  V30 6932 N 693.229 0.160201 1.56784 0
M  V30 6933 C 694.457 -0.494165 2.00912 0
M  V30 6934 C 694.872 -1.57548 1.04038 0
M  V30 6935 O 694.229 -1.82457 0.0394581 0
M  V30 6936 C 694.28 -1.08271 3.44905 0
M  V30 6937 O 694.001 -0.0445704 4.38077 0
M  V30 6938 C 695.502 -1.8164 4.04378 0
M  V30 6939 H 692.722 -0.127498 0.658776 0
M  V30 6940 H 695.266 0.258665 2.02858 0
M  V30 6941 H 693.421 -1.78609 3.4377 0
M  V30 6942 H 693.835 -0.477544 5.22322 0
M  V30 6943 H 695.309 -2.18094 5.07089 0
M  V30 6944 H 695.786 -2.70727 3.45838 0
M  V30 6945 H 696.392 -1.15969 4.09184 0
M  V30 6946 N 694.707 -1.5719 -0.113559 0
M  V30 6947 C 695.637 -2.03772 -1.14013 0
M  V30 6948 C 696.618 -0.923176 -1.42869 0
M  V30 6949 O 697.803 -1.19325 -1.53216 0
M  V30 6950 C 694.933 -2.44663 -2.4649 0
M  V30 6951 C 693.887 -3.59612 -2.32085 0
M  V30 6952 C 693.213 -3.8642 -3.69573 0
M  V30 6953 C 694.513 -4.91149 -1.7768 0
M  V30 6954 H 696.207 -2.89785 -0.752665 0
M  V30 6955 H 693.753 -1.39412 -0.360609 0
M  V30 6956 H 695.706 -2.75857 -3.18561 0
M  V30 6957 H 694.43 -1.55628 -2.87137 0
M  V30 6958 H 693.089 -3.28636 -1.62461 0
M  V30 6959 H 692.737 -2.94581 -4.07715 0
M  V30 6960 H 692.437 -4.63797 -3.60786 0
M  V30 6961 H 693.961 -4.2007 -4.4314 0
M  V30 6962 H 695.375 -5.20843 -2.39574 0
M  V30 6963 H 693.772 -5.72562 -1.79701 0
M  V30 6964 H 694.842 -4.79301 -0.734776 0
M  V30 6965 N 696.185 0.383891 -1.52853 0
M  V30 6966 C 697.115 1.47559 -1.80965 0
M  V30 6967 C 698.096 1.5669 -0.661986 0
M  V30 6968 O 699.281 1.71556 -0.910072 0
M  V30 6969 C 696.411 2.85114 -1.98312 0
M  V30 6970 C 695.365 2.9082 -3.14019 0
M  V30 6971 C 694.691 4.30873 -3.16627 0
M  V30 6972 C 695.991 2.60001 -4.52986 0
M  V30 6973 H 697.685 1.24283 -2.72386 0
M  V30 6974 H 695.231 0.596445 -1.31067 0
M  V30 6975 H 697.184 3.61496 -2.16561 0
M  V30 6976 H 695.908 3.09738 -1.03585 0
M  V30 6977 H 694.567 2.16886 -2.9556 0
M  V30 6978 H 694.215 4.52545 -2.19573 0
M  V30 6979 H 693.915 4.3561 -3.94357 0
M  V30 6980 H 695.439 5.09154 -3.37038 0
M  V30 6981 H 696.853 3.261 -4.71521 0
M  V30 6982 H 695.25 2.76081 -5.32822 0
M  V30 6983 H 696.32 1.5532 -4.59351 0
M  V30 6984 N 697.663 1.43903 0.642637 0
M  V30 6985 C 698.61 1.49881 1.75512 0
M  V30 6986 C 699.58 0.347538 1.62423 0
M  V30 6987 O 700.765 0.556177 1.82514 0
M  V30 6988 C 697.905 1.43797 3.13714 0
M  V30 6989 C 697.018 2.6921 3.37861 0
M  V30 6990 C 696.153 2.5504 4.6597 0
M  V30 6991 C 695.192 3.75671 4.83257 0
M  V30 6992 N 694.329 3.60247 6.02633 0
M  V30 6993 H 699.169 2.44935 1.69737 0
M  V30 6994 H 696.706 1.21572 0.828165 0
M  V30 6995 H 698.664 1.38262 3.93624 0
M  V30 6996 H 697.294 0.523173 3.18532 0
M  V30 6997 H 696.346 2.8498 2.51973 0
M  V30 6998 H 697.658 3.58786 3.46517 0
M  V30 6999 H 696.812 2.47273 5.54023 0
M  V30 7000 H 695.551 1.63006 4.59653 0
M  V30 7001 H 694.556 3.83836 3.93637 0
M  V30 7002 H 695.781 4.68728 4.91397 0
M  V30 7003 H 693.727 2.70955 5.97427 0
M  V30 7004 H 693.644 4.43431 6.12295 0
M  V30 7005 H 694.912 3.56351 6.93278 0
M  V30 7006 N 699.141 -0.881989 1.30609 0
M  V30 7007 C 700.104 -1.96957 1.1722 0
M  V30 7008 C 701.104 -1.60472 0.102598 0
M  V30 7009 O 702.294 -1.70628 0.350943 0
M  V30 7010 C 699.426 -3.31463 0.796572 0
M  V30 7011 H 700.619 -2.10262 2.13846 0
M  V30 7012 H 698.172 -1.06877 1.14048 0
M  V30 7013 H 698.907 -3.23859 -0.169053 0
M  V30 7014 H 698.692 -3.59314 1.56959 0
M  V30 7015 H 700.182 -4.11233 0.72645 0
M  V30 7016 N 700.619 -1.13374 -1.09472 0
M  V30 7017 C 701.867 -0.893422 -1.8128 0
M  V30 7018 C 702.188 0.582029 -1.86111 0
M  V30 7019 O 701.458 1.42305 -1.34633 0
M  V30 7020 H 700.038 -0.327543 -0.67136 0
M  V30 7021 H 702.7 -1.43018 -1.32408 0
M  V30 7022 H 701.796 -1.28374 -2.84476 0
M  V30 7023 N 702.098 1.27442 -0.927168 0
M  V30 7024 C 703.326 1.98498 -0.583622 0
M  V30 7025 C 703.741 1.69171 0.838241 0
M  V30 7026 O 703.098 0.951969 1.55704 0
M  V30 7027 C 703.149 3.52552 -0.799341 0
M  V30 7028 O 702.87 3.80851 -2.16527 0
M  V30 7029 C 704.371 4.4086 -0.464436 0
M  V30 7030 H 701.591 0.633487 -0.221213 0
M  V30 7031 H 704.135 1.62308 -1.24404 0
M  V30 7032 H 702.29 3.86955 -0.185728 0
M  V30 7033 H 702.704 4.75441 -2.21487 0
M  V30 7034 H 704.178 5.47967 -0.666075 0
M  V30 7035 H 704.655 4.35082 0.599995 0
M  V30 7036 H 705.261 4.11977 -1.05617 0
M  V30 7037 N 703.576 0.692616 1.41565 0
M  V30 7038 C 704.823 0.222335 2.01276 0
M  V30 7039 C 705.151 -1.17706 1.5484 0
M  V30 7040 O 704.406 -1.80795 0.749118 0
M  V30 7041 C 704.705 0.225073 3.56691 0
M  V30 7042 C 704.371 1.57158 4.22625 0
M  V30 7043 C 703.033 1.94022 4.40351 0
M  V30 7044 C 705.385 2.45758 4.59622 0
M  V30 7045 C 702.713 3.19076 4.92349 0
M  V30 7046 C 705.065 3.70141 5.13009 0
M  V30 7047 C 703.729 4.07152 5.28946 0
M  V30 7048 H 702.999 0.0813581 0.73652 0
M  V30 7049 H 705.646 0.891123 1.69503 0
M  V30 7050 H 703.951 -0.527259 3.88236 0
M  V30 7051 H 705.648 -0.156283 4.00695 0
M  V30 7052 H 702.238 1.27486 4.09201 0
M  V30 7053 H 706.422 2.18558 4.45585 0
M  V30 7054 H 701.678 3.4775 5.02872 0
M  V30 7055 H 705.852 4.38983 5.40617 0
M  V30 7056 H 703.479 5.04125 5.69001 0
M  V30 7057 N 705.054 -1.51416 0.437162 0
M  V30 7058 C 705.964 -2.31493 -0.380537 0
M  V30 7059 C 706.98 -1.40399 -1.02782 0
M  V30 7060 O 708.156 -1.73471 -1.02323 0
M  V30 7061 C 705.221 -3.1413 -1.46709 0
M  V30 7062 C 704.282 -4.21003 -0.839953 0
M  V30 7063 C 703.515 -4.9969 -1.87473 0
M  V30 7064 O 703.738 -4.79008 -3.09689 0
M  V30 7065 O 702.672 -5.8379 -1.46536 0
M  V30 7066 H 706.498 -3.02469 0.273183 0
M  V30 7067 H 704.083 -1.48059 0.199706 0
M  V30 7068 H 705.965 -3.65505 -2.09724 0
M  V30 7069 H 704.64 -2.45919 -2.10489 0
M  V30 7070 H 703.547 -3.73706 -0.171752 0
M  V30 7071 H 704.88 -4.91587 -0.245638 0
M  V30 7072 N 706.532 -0.168513 -1.56696 0
M  V30 7073 C 707.778 0.477865 -1.9709 0
M  V30 7074 C 708.111 1.63084 -1.05438 0
M  V30 7075 O 707.386 1.94238 -0.10095 0
M  V30 7076 C 707.669 0.963521 -3.4697 0
M  V30 7077 C 707.522 -0.189443 -4.49401 0
M  V30 7078 C 708.841 1.83813 -3.99876 0
M  V30 7079 H 705.96 0.172229 -0.716593 0
M  V30 7080 H 708.602 -0.254083 -1.88293 0
M  V30 7081 H 706.752 1.58724 -3.54597 0
M  V30 7082 H 708.424 -0.826451 -4.53836 0
M  V30 7083 H 706.667 -0.845366 -4.25483 0
M  V30 7084 H 707.338 0.192446 -5.51664 0
M  V30 7085 H 709.814 1.31235 -3.94863 0
M  V30 7086 H 708.69 2.14697 -5.0517 0
M  V30 7087 H 708.951 2.78289 -3.43523 0
M  V30 7088 N 708.01 1.57248 0.105221 0
M  V30 7089 C 708.94 2.04374 1.12931 0
M  V30 7090 C 709.921 0.93074 1.42377 0
M  V30 7091 O 711.106 1.20136 1.52581 0
M  V30 7092 C 708.236 2.45967 2.45189 0
M  V30 7093 C 707.19 3.60838 2.30174 0
M  V30 7094 C 706.516 3.88374 3.67518 0
M  V30 7095 C 707.816 4.92084 1.75073 0
M  V30 7096 H 709.51 2.9018 0.737287 0
M  V30 7097 H 707.056 1.39601 0.353211 0
M  V30 7098 H 709.009 2.77542 3.17094 0
M  V30 7099 H 707.733 1.57148 2.86308 0
M  V30 7100 H 706.392 3.29493 1.60716 0
M  V30 7101 H 706.04 2.96739 4.06147 0
M  V30 7102 H 705.74 4.65703 3.58321 0
M  V30 7103 H 707.264 4.22415 4.40906 0
M  V30 7104 H 708.678 5.22106 2.36809 0
M  V30 7105 H 707.075 5.73507 1.76662 0
M  V30 7106 H 708.145 4.79684 0.709347 0
M  V30 7107 N 709.488 -0.375779 1.53054 0
M  V30 7108 C 710.421 -1.48187 1.7354 0
M  V30 7109 C 711.399 -1.5177 0.583495 0
M  V30 7110 O 712.583 -1.69976 0.81488 0
M  V30 7111 C 709.71 -2.86598 1.80497 0
M  V30 7112 C 708.756 -3.00784 3.02376 0
M  V30 7113 S 709.589 -2.70601 4.62099 0
M  V30 7114 C 710.745 -4.11181 4.71891 0
M  V30 7115 H 710.978 -1.30587 2.67085 0
M  V30 7116 H 708.511 -0.569485 1.43514 0
M  V30 7117 H 710.469 -3.66353 1.85192 0
M  V30 7118 H 709.13 -3.01514 0.880217 0
M  V30 7119 H 708.323 -4.02128 3.03824 0
M  V30 7120 H 707.925 -2.28939 2.95742 0
M  V30 7121 H 710.217 -5.0529 4.51319 0
M  V30 7122 H 711.16 -4.14742 5.73929 0
M  V30 7123 H 711.568 -3.97706 4.00612 0
M  V30 7124 N 710.966 -1.44241 -0.634997 0
M  V30 7125 C 712.212 -1.47038 -1.39669 0
M  V30 7126 C 712.545 -0.101122 -1.93937 0
M  V30 7127 O 711.82 0.880699 -1.73418 0
M  V30 7128 C 712.103 -2.52763 -2.56482 0
M  V30 7129 C 711.956 -3.99032 -2.07589 0
M  V30 7130 C 713.275 -2.55031 -3.58674 0
M  V30 7131 H 710.394 -0.53537 -0.506506 0
M  V30 7132 H 713.036 -1.75898 -0.718317 0
M  V30 7133 H 711.186 -2.28284 -3.14354 0
M  V30 7134 H 712.858 -4.3463 -1.54577 0
M  V30 7135 H 711.101 -4.10994 -1.38804 0
M  V30 7136 H 711.772 -4.68649 -2.91671 0
M  V30 7137 H 714.248 -2.76893 -3.10595 0
M  V30 7138 H 713.124 -3.30916 -4.37934 0
M  V30 7139 H 713.385 -1.59085 -4.12486 0
M  V30 7140 N 712.444 0.87505 -1.31075 0
M  V30 7141 C 713.86 1.15997 -1.09622 0
M  V30 7142 C 714.06 2.01036 0.136611 0
M  V30 7143 O 713.116 2.38559 0.827397 0
M  V30 7144 C 714.429 1.85702 -2.36506 0
M  V30 7145 C 715.977 1.98425 -2.42067 0
M  V30 7146 C 716.452 2.71544 -3.68819 0
M  V30 7147 N 717.943 2.79084 -3.69684 0
M  V30 7148 C 718.678 3.36259 -4.64454 0
M  V30 7149 N 718.174 3.94406 -5.69575 0
M  V30 7150 N 719.967 3.34169 -4.51982 0
M  V30 7151 H 712.118 0.308258 -2.10151 0
M  V30 7152 H 714.381 0.199145 -0.926847 0
M  V30 7153 H 714.087 1.30663 -3.26527 0
M  V30 7154 H 713.961 2.86017 -2.45915 0
M  V30 7155 H 716.348 2.5263 -1.52518 0
M  V30 7156 H 716.429 0.971682 -2.36626 0
M  V30 7157 H 716.073 2.18008 -4.58732 0
M  V30 7158 H 716.003 3.73198 -3.71525 0
M  V30 7159 H 718.494 2.3781 -2.93691 0
M  V30 7160 H 718.807 4.36129 -6.37974 0
M  V30 7161 H 717.152 3.92797 -5.73355 0
M  V30 7162 H 720.343 2.87977 -3.69035 0
M  V30 7163 H 720.516 3.78431 -5.26017 0
M  V30 7164 N 713.922 1.13953 1.08869 0
M  V30 7165 C 715.169 0.90481 1.81161 0
M  V30 7166 C 715.497 -0.568824 1.85996 0
M  V30 7167 O 714.752 -1.43723 1.32823 0
M  V30 7168 C 715.051 1.44495 3.26888 0
M  V30 7169 C 714.717 2.93641 3.42178 0
M  V30 7170 C 713.379 3.34361 3.46059 0
M  V30 7171 C 715.731 3.89568 3.46246 0
M  V30 7172 C 713.059 4.69681 3.51592 0
M  V30 7173 C 715.411 5.2474 3.53314 0
M  V30 7174 C 714.075 5.64979 3.55465 0
M  V30 7175 H 713.345 0.331094 0.662916 0
M  V30 7176 H 715.992 1.42242 1.28217 0
M  V30 7177 H 714.297 0.848169 3.82509 0
M  V30 7178 H 715.994 1.23934 3.81368 0
M  V30 7179 H 712.584 2.61156 3.39846 0
M  V30 7180 H 716.768 3.59192 3.42483 0
M  V30 7181 H 712.024 5.00224 3.51547 0
M  V30 7182 H 716.198 5.98882 3.55406 0
M  V30 7183 H 713.825 6.69821 3.59505 0
M  V30 7184 N 715.4 -1.26948 0.933913 0
M  V30 7185 C 716.363 -2.24889 0.442457 0
M  V30 7186 C 717.363 -1.54594 -0.442426 0
M  V30 7187 O 718.553 -1.72502 -0.242629 0
M  V30 7188 C 715.685 -3.3896 -0.363173 0
M  V30 7189 H 716.878 -2.69879 1.30787 0
M  V30 7190 H 714.431 -1.38978 0.715187 0
M  V30 7191 H 715.166 -2.99361 -1.24714 0
M  V30 7192 H 714.951 -3.9116 0.271366 0
M  V30 7193 H 716.441 -4.11739 -0.697186 0
M  V30 7194 N 716.879 -0.700114 -1.41195 0
M  V30 7195 C 718.104 -0.240704 -2.05998 0
M  V30 7196 C 718.529 1.10313 -1.52357 0
M  V30 7197 O 717.887 1.69154 -0.652424 0
M  V30 7198 C 717.935 -0.213783 -3.59966 0
M  V30 7199 O 717.039 0.809933 -4.04368 0
M  V30 7200 H 716.38 -0.116471 -0.653705 0
M  V30 7201 H 718.91 -0.956251 -1.80878 0
M  V30 7202 H 718.92 -0.0461852 -4.07974 0
M  V30 7203 H 717.595 -1.19454 -3.98376 0
M  V30 7204 H 716.172 0.611319 -3.67855 0
M  V30 7205 N 718.357 1.51182 -0.445186 0
M  V30 7206 C 719.287 2.30821 0.352686 0
M  V30 7207 C 720.268 1.36576 1.01395 0
M  V30 7208 O 721.453 1.65497 1.01609 0
M  V30 7209 C 718.583 3.15593 1.44976 0
M  V30 7210 C 717.537 4.1818 0.911553 0
M  V30 7211 C 716.863 4.91523 2.10497 0
M  V30 7212 C 718.163 5.22266 -0.059418 0
M  V30 7213 H 719.857 2.97771 -0.311936 0
M  V30 7214 H 717.403 1.43201 -0.151461 0
M  V30 7215 H 719.356 3.70091 2.01521 0
M  V30 7216 H 718.08 2.4648 2.14278 0
M  V30 7217 H 716.739 3.64746 0.368264 0
M  V30 7218 H 716.387 4.18906 2.78437 0
M  V30 7219 H 716.087 5.60898 1.7512 0
M  V30 7220 H 717.611 5.48847 2.6758 0
M  V30 7221 H 719.025 5.71789 0.415985 0
M  V30 7222 H 717.422 5.99213 -0.326152 0
M  V30 7223 H 718.492 4.7461 -0.993631 0
M  V30 7224 N 719.835 0.176821 1.56605 0
M  V30 7225 C 721.082 -0.466715 1.97048 0
M  V30 7226 C 721.41 -1.6288 1.06302 0
M  V30 7227 O 720.665 -1.95453 0.0982571 0
M  V30 7228 C 720.964 -0.986208 3.43524 0
M  V30 7229 C 720.63 0.0605667 4.50859 0
M  V30 7230 C 719.292 0.348242 4.79938 0
M  V30 7231 C 721.644 0.770794 5.15469 0
M  V30 7232 C 718.972 1.35144 5.70923 0
M  V30 7233 C 721.324 1.76301 6.07537 0
M  V30 7234 C 719.988 2.05808 6.3498 0
M  V30 7235 H 719.258 -0.170783 0.721051 0
M  V30 7236 H 721.905 0.269942 1.89588 0
M  V30 7237 H 720.21 -1.80079 3.47964 0
M  V30 7238 H 721.907 -1.49323 3.72161 0
M  V30 7239 H 718.497 -0.173823 4.28247 0
M  V30 7240 H 722.681 0.56176 4.9311 0
M  V30 7241 H 717.937 1.58616 5.90467 0
M  V30 7242 H 722.111 2.31868 6.56666 0
M  V30 7243 H 719.738 2.8369 7.05283 0
M  V30 7244 N 721.313 -1.57302 -0.09688 0
M  V30 7245 C 722.261 -2.02942 -1.13654 0
M  V30 7246 C 723.255 -0.930173 -1.41577 0
M  V30 7247 O 724.461 -1.11535 -1.41279 0
M  V30 7248 H 720.836 -0.646726 -0.383731 0
M  V30 7249 H 722.807 -2.89452 -0.725267 0
M  V30 7250 C 721.556 -2.46815 -2.44903 0
M  V30 7251 H 720.879 -3.30979 -2.24261 0
M  V30 7252 H 722.319 -2.82527 -3.16156 0
M  V30 7253 C 720.778 -1.34071 -3.09074 0
M  V30 7254 O 721.308 -0.668856 -3.96092 0
M  V30 7255 N 719.514 -1.09214 -2.69296 0
M  V30 7256 H 719.061 -1.64029 -1.98626 0
M  V30 7257 H 719.019 -0.339785 -3.12559 0
M  V30 7258 N 722.791 0.367657 -1.53252 0
M  V30 7259 C 724.037 1.11216 -1.69584 0
M  V30 7260 C 724.37 1.89026 -0.445269 0
M  V30 7261 O 723.645 1.86342 0.557404 0
M  V30 7262 C 723.928 2.07308 -2.94441 0
M  V30 7263 C 723.781 1.3312 -4.2965 0
M  V30 7264 C 725.1 3.07459 -3.14892 0
M  V30 7265 H 722.219 0.40294 -0.617096 0
M  V30 7266 H 724.861 0.393201 -1.85887 0
M  V30 7267 H 723.011 2.68617 -2.80673 0
M  V30 7268 H 724.683 0.746111 -4.55226 0
M  V30 7269 H 722.926 0.633051 -4.29156 0
M  V30 7270 H 723.597 2.03443 -5.13142 0
M  V30 7271 H 726.073 2.56252 -3.27832 0
M  V30 7272 H 724.949 3.71919 -4.03693 0
M  V30 7273 H 725.21 3.77514 -2.30077 0
M  V30 7274 N 724.269 1.44576 0.627338 0
M  V30 7275 C 725.216 1.51734 1.73912 0
M  V30 7276 C 726.186 0.364745 1.62046 0
M  V30 7277 O 727.371 0.575503 1.81914 0
M  V30 7278 C 724.511 1.47116 3.12171 0
M  V30 7279 C 723.624 2.72778 3.34986 0
M  V30 7280 C 722.759 2.59968 4.63239 0
M  V30 7281 C 721.798 3.80776 4.79245 0
M  V30 7282 N 720.935 3.66618 5.98778 0
M  V30 7283 H 725.775 2.46722 1.6713 0
M  V30 7284 H 723.312 1.22444 0.815224 0
M  V30 7285 H 725.27 1.42429 3.92135 0
M  V30 7286 H 723.9 0.556928 3.17959 0
M  V30 7287 H 722.952 2.87637 2.48936 0
M  V30 7288 H 724.264 3.62441 3.42692 0
M  V30 7289 H 723.418 2.53135 5.51369 0
M  V30 7290 H 722.157 1.67872 4.57898 0
M  V30 7291 H 721.162 3.87989 3.89544 0
M  V30 7292 H 722.387 4.73913 4.86398 0
M  V30 7293 H 720.333 2.77277 5.9452 0
M  V30 7294 H 720.25 4.499 6.07557 0
M  V30 7295 H 721.518 3.63684 6.89459 0
M  V30 7296 N 725.747 -0.868086 1.31537 0
M  V30 7297 C 727.024 -1.60384 1.11965 0
M  V30 7298 C 727.404 -2.08584 -0.324949 0
M  V30 7299 O 726.752 -1.86561 -1.31937 0
M  V30 7300 C 726.962 -2.76038 2.13551 0
M  V30 7301 C 728.31 -3.45954 2.46173 0
M  V30 7302 O 729.334 -2.86247 2.11993 0
M  V30 7303 O 728.193 -4.53666 3.04711 0
M  V30 7304 H 725.287 -0.705705 0.431172 0
M  V30 7305 H 727.833 -0.913385 1.43022 0
M  V30 7306 H 726.605 -2.37849 3.10714 0
M  V30 7307 H 726.228 -3.52769 1.83411 0
M  V30 7308 N 727.225 -1.14528 -1.08264 0
M  V30 7309 C 728.157 -0.791325 -2.15106 0
M  V30 7310 C 729.17 0.192449 -1.61659 0
M  V30 7311 O 730.359 -0.0294704 -1.78476 0
M  V30 7312 C 727.459 -0.154183 -3.38549 0
M  V30 7313 C 726.632 -1.17305 -4.21377 0
M  V30 7314 C 725.691 -0.559401 -5.23218 0
M  V30 7315 O 724.717 -1.22277 -5.55911 0
M  V30 7316 N 725.919 0.663159 -5.767 0
M  V30 7317 H 728.684 -1.71076 -2.46075 0
M  V30 7318 H 726.245 -1.0399 -1.24087 0
M  V30 7319 H 728.237 0.268884 -4.03806 0
M  V30 7320 H 726.807 0.668418 -3.0537 0
M  V30 7321 H 726.027 -1.773 -3.52077 0
M  V30 7322 H 727.315 -1.86128 -4.73533 0
M  V30 7323 H 726.713 1.22066 -5.52373 0
M  V30 7324 H 725.27 1.02871 -6.43631 0
M  V30 7325 N 728.703 1.26451 -0.940633 0
M  V30 7326 C 729.931 1.97868 -0.604642 0
M  V30 7327 C 730.346 1.70051 0.820251 0
M  V30 7328 O 729.703 0.96843 1.54686 0
M  V30 7329 C 729.754 3.51684 -0.836689 0
M  V30 7330 O 729.475 3.78533 -2.20554 0
M  V30 7331 C 730.976 4.40343 -0.511169 0
M  V30 7332 H 728.196 0.631105 -0.227919 0
M  V30 7333 H 730.74 1.60979 -1.26119 0
M  V30 7334 H 728.895 3.86736 -0.226759 0
M  V30 7335 H 729.309 4.73065 -2.26517 0
M  V30 7336 H 730.783 5.47229 -0.724157 0
M  V30 7337 H 731.26 4.35694 0.553815 0
M  V30 7338 H 731.866 4.10834 -1.0998 0
M  V30 7339 N 730.181 0.707592 1.40822 0
M  V30 7340 C 731.427 0.244031 2.01326 0
M  V30 7341 C 731.76 -1.15722 1.55955 0
M  V30 7342 O 731.035 -1.78347 0.776044 0
M  V30 7343 C 731.318 0.315128 3.58718 0
M  V30 7344 C 731.171 1.75419 4.14184 0
M  V30 7345 C 732.49 -0.318251 4.38948 0
M  V30 7346 H 729.609 0.0901471 0.731466 0
M  V30 7347 H 732.251 0.898584 1.67408 0
M  V30 7348 H 730.401 -0.242176 3.87744 0
M  V30 7349 H 732.073 2.36626 3.95987 0
M  V30 7350 H 730.316 2.28449 3.68773 0
M  V30 7351 H 730.987 1.75538 5.23345 0
M  V30 7352 H 733.463 0.156514 4.15806 0
M  V30 7353 H 732.339 -0.238019 5.48384 0
M  V30 7354 H 732.6 -1.40067 4.19325 0
M  V30 7355 N 731.66 -1.50943 0.453197 0
M  V30 7356 C 732.593 -2.24742 -0.395787 0
M  V30 7357 C 733.571 -1.27316 -1.01141 0
M  V30 7358 O 734.755 -1.56494 -1.05081 0
M  V30 7359 C 731.882 -3.00999 -1.55298 0
M  V30 7360 C 730.928 -4.13207 -1.0565 0
M  V30 7361 S 731.761 -5.35498 0.01435 0
M  V30 7362 C 732.917 -6.15298 -1.14714 0
M  V30 7363 H 733.15 -2.96403 0.23071 0
M  V30 7364 H 730.683 -1.52557 0.237874 0
M  V30 7365 H 732.641 -3.45529 -2.2163 0
M  V30 7366 H 731.302 -2.28896 -2.15094 0
M  V30 7367 H 730.495 -4.65901 -1.9223 0
M  V30 7368 H 730.097 -3.7102 -0.471182 0
M  V30 7369 H 732.389 -6.45346 -2.06239 0
M  V30 7370 H 733.332 -7.05019 -0.659842 0
M  V30 7371 H 733.74 -5.47046 -1.39288 0
M  V30 7372 N 733.138 -0.185124 -1.56509 0
M  V30 7373 C 734.385 0.456258 -1.97293 0
M  V30 7374 C 734.713 1.62314 -1.07165 0
M  V30 7375 O 733.968 1.95398 -0.108621 0
M  V30 7376 C 734.267 0.967977 -3.44042 0
M  V30 7377 C 733.933 -0.084476 -4.50821 0
M  V30 7378 C 732.595 -0.373689 -4.79747 0
M  V30 7379 C 734.947 -0.79812 -5.15053 0
M  V30 7380 C 732.275 -1.3817 -5.70198 0
M  V30 7381 C 734.627 -1.79521 -6.06593 0
M  V30 7382 C 733.291 -2.09172 -6.3388 0
M  V30 7383 H 732.561 0.166957 -0.721946 0
M  V30 7384 H 735.208 -0.279992 -1.89442 0
M  V30 7385 H 733.513 1.78231 -3.48914 0
M  V30 7386 H 735.21 1.47347 -3.72948 0
M  V30 7387 H 731.8 0.15111 -4.28334 0
M  V30 7388 H 735.984 -0.587903 -4.92806 0
M  V30 7389 H 731.24 -1.61745 -5.89617 0
M  V30 7390 H 735.414 -2.35347 -6.55427 0
M  V30 7391 H 733.041 -2.87427 -7.03768 0
M  V30 7392 N 734.616 1.57351 0.0885366 0
M  V30 7393 C 735.546 2.05561 1.10757 0
M  V30 7394 C 736.527 0.945789 1.41382 0
M  V30 7395 O 737.712 1.21747 1.51299 0
M  V30 7396 C 734.842 2.48554 2.42566 0
M  V30 7397 C 733.796 3.63259 2.26334 0
M  V30 7398 C 733.122 3.9225 3.63378 0
M  V30 7399 C 734.422 4.93913 1.69844 0
M  V30 7400 H 736.116 2.90946 0.706468 0
M  V30 7401 H 733.662 1.39968 0.338385 0
M  V30 7402 H 735.615 2.8089 3.14132 0
M  V30 7403 H 734.339 1.60176 2.84625 0
M  V30 7404 H 732.998 3.31179 1.57213 0
M  V30 7405 H 732.646 3.0103 4.02976 0
M  V30 7406 H 732.346 4.69478 3.53362 0
M  V30 7407 H 733.87 4.27067 4.36401 0
M  V30 7408 H 735.284 5.24588 2.31258 0
M  V30 7409 H 733.681 5.75349 1.70569 0
M  V30 7410 H 734.751 4.80409 0.65843 0
M  V30 7411 N 736.094 -0.359525 1.53444 0
M  V30 7412 C 737.319 -1.12644 1.74144 0
M  V30 7413 C 737.744 -1.82082 0.472007 0
M  V30 7414 O 737.102 -1.71962 -0.57436 0
M  V30 7415 C 737.15 -2.12781 2.9113 0
M  V30 7416 O 736.254 -3.19984 2.60162 0
M  V30 7417 H 735.595 -0.326553 0.578152 0
M  V30 7418 H 738.125 -0.414798 2.00351 0
M  V30 7419 H 738.135 -2.56278 3.17467 0
M  V30 7420 H 736.81 -1.61634 3.83207 0
M  V30 7421 H 735.387 -2.81417 2.44661 0
M  V30 7422 N 737.572 -1.44907 -0.619662 0
M  V30 7423 C 738.988 -1.29046 -0.939107 0
M  V30 7424 C 739.188 -0.23462 -2.00129 0
M  V30 7425 O 738.244 0.37558 -2.49691 0
M  V30 7426 C 739.557 -2.66567 -1.39149 0
M  V30 7427 C 741.105 -2.74368 -1.50635 0
M  V30 7428 C 741.58 -4.12386 -1.99253 0
M  V30 7429 N 743.071 -4.1462 -2.06506 0
M  V30 7430 C 743.806 -5.18272 -2.4532 0
M  V30 7431 N 743.302 -6.32278 -2.83189 0
M  V30 7432 N 745.095 -5.05628 -2.45554 0
M  V30 7433 H 737.246 -2.12239 0.0826135 0
M  V30 7434 H 739.509 -0.947652 -0.0256829 0
M  V30 7435 H 739.215 -3.4496 -0.685254 0
M  V30 7436 H 739.089 -2.94224 -2.36034 0
M  V30 7437 H 741.476 -1.96287 -2.20353 0
M  V30 7438 H 741.557 -2.50439 -0.520963 0
M  V30 7439 H 741.201 -4.90947 -1.30127 0
M  V30 7440 H 741.131 -4.33699 -2.98684 0
M  V30 7441 H 743.622 -3.32343 -1.79878 0
M  V30 7442 H 743.935 -7.07172 -3.11652 0
M  V30 7443 H 742.28 -6.35699 -2.80913 0
M  V30 7444 H 745.471 -4.15613 -2.15367 0
M  V30 7445 H 745.644 -5.86529 -2.75478 0
M  V30 7446 N 739.05 0.861098 -1.31996 0
M  V30 7447 C 740.278 1.6474 -1.25173 0
M  V30 7448 C 740.693 1.87926 0.181425 0
M  V30 7449 O 740.05 1.4437 1.1164 0
M  V30 7450 C 740.101 3.01036 -2.0015 0
M  V30 7451 O 739.822 2.7888 -3.37872 0
M  V30 7452 C 741.323 3.95481 -2.00273 0
M  V30 7453 H 738.543 0.513314 -0.432146 0
M  V30 7454 H 741.087 1.07419 -1.74016 0
M  V30 7455 H 739.242 3.55021 -1.55046 0
M  V30 7456 H 739.656 3.65514 -3.76165 0
M  V30 7457 H 741.13 4.88403 -2.57229 0
M  V30 7458 H 741.607 4.27957 -0.987407 0
M  V30 7459 H 742.213 3.47433 -2.45296 0
M  V30 7460 N 740.528 1.15101 1.07655 0
M  V30 7461 C 741.756 0.947731 1.83918 0
M  V30 7462 C 742.171 -0.503927 1.81951 0
M  V30 7463 O 741.528 -1.34941 1.2287 0
M  V30 7464 C 741.579 1.4503 3.31132 0
M  V30 7465 O 741.3 2.84508 3.33146 0
M  V30 7466 C 742.801 1.28806 4.24174 0
M  V30 7467 H 740.021 0.336786 0.580358 0
M  V30 7468 H 742.565 1.52799 1.35914 0
M  V30 7469 H 740.72 0.912632 3.76497 0
M  V30 7470 H 741.134 3.0723 4.251 0
M  V30 7471 H 742.608 1.6882 5.25551 0
M  V30 7472 H 743.085 0.231851 4.38588 0
M  V30 7473 H 743.691 1.81465 3.84643 0
M  V30 7474 N 742.006 -1.2595 0.947325 0
M  V30 7475 C 743.236 -1.97258 0.614235 0
M  V30 7476 C 743.644 -1.70682 -0.816355 0
M  V30 7477 O 742.987 -0.97527 -1.55673 0
M  V30 7478 C 743.049 -3.50845 0.784081 0
M  V30 7479 C 742.713 -4.01084 2.19045 0
M  V30 7480 C 743.71 -4.12347 3.16648 0
M  V30 7481 C 741.395 -4.34936 2.51268 0
M  V30 7482 C 743.389 -4.56766 4.44572 0
M  V30 7483 C 741.076 -4.79043 3.79422 0
M  V30 7484 C 742.074 -4.89919 4.75887 0
M  V30 7485 O 741.762 -5.3305 6.01758 0
M  V30 7486 H 741.494 -0.635738 0.22981 0
M  V30 7487 H 744.048 -1.61268 1.27207 0
M  V30 7488 H 742.278 -3.86638 0.069101 0
M  V30 7489 H 743.967 -4.03363 0.453135 0
M  V30 7490 H 744.733 -3.86432 2.93079 0
M  V30 7491 H 740.612 -4.25702 1.76916 0
M  V30 7492 H 744.156 -4.6517 5.19868 0
M  V30 7493 H 740.053 -5.04402 4.02802 0
M  V30 7494 H 740.821 -5.51255 6.05029 0
M  V30 7495 N 743.484 -0.715051 -1.40445 0
M  V30 7496 C 744.709 -0.26254 -2.05732 0
M  V30 7497 C 745.134 1.08691 -1.53519 0
M  V30 7498 O 744.492 1.68453 -0.670328 0
M  V30 7499 C 744.54 -0.25195 -3.59719 0
M  V30 7500 O 743.644 0.766998 -4.05205 0
M  V30 7501 H 742.985 -0.123398 -0.652433 0
M  V30 7502 H 745.515 -0.975382 -1.79854 0
M  V30 7503 H 745.525 -0.0894537 -4.07902 0
M  V30 7504 H 744.2 -1.23672 -3.97087 0
M  V30 7505 H 742.777 0.572269 -3.68483 0
M  V30 7506 N 744.962 1.50701 -0.461195 0
M  V30 7507 C 745.892 2.31182 0.328184 0
M  V30 7508 C 746.873 1.37644 0.999408 0
M  V30 7509 O 748.058 1.66565 0.99848 0
M  V30 7510 C 745.188 3.17113 1.41621 0
M  V30 7511 C 744.142 4.19124 0.867148 0
M  V30 7512 C 743.468 4.93728 2.05272 0
M  V30 7513 C 744.768 5.22174 -0.114808 0
M  V30 7514 H 746.462 2.97423 -0.343501 0
M  V30 7515 H 744.008 1.43033 -0.166641 0
M  V30 7516 H 745.961 3.72208 1.97584 0
M  V30 7517 H 744.685 2.48739 2.11652 0
M  V30 7518 H 743.344 3.65116 0.329557 0
M  V30 7519 H 742.992 4.21835 2.73978 0
M  V30 7520 H 742.692 5.62724 1.69161 0
M  V30 7521 H 744.216 5.51654 2.61744 0
M  V30 7522 H 745.63 5.72198 0.355316 0
M  V30 7523 H 744.027 5.98833 -0.389689 0
M  V30 7524 H 745.097 4.7353 -1.04391 0
M  V30 7525 N 746.441 0.193421 1.56409 0
M  V30 7526 C 747.373 -0.759944 2.16235 0
M  V30 7527 C 748.386 -1.17797 1.12373 0
M  V30 7528 O 749.575 -1.11399 1.39472 0
M  V30 7529 C 746.675 -2.03735 2.70823 0
M  V30 7530 C 745.848 -1.77939 3.9957 0
M  V30 7531 C 744.907 -2.90111 4.39001 0
M  V30 7532 O 743.933 -2.59791 5.06456 0
M  V30 7533 N 745.135 -4.18426 4.02368 0
M  V30 7534 H 747.9 -0.248348 2.98669 0
M  V30 7535 H 745.461 0.0113966 1.61896 0
M  V30 7536 H 747.453 -2.77914 2.94187 0
M  V30 7537 H 746.023 -2.46022 1.92852 0
M  V30 7538 H 745.243 -0.875491 3.84355 0
M  V30 7539 H 746.531 -1.58099 4.83614 0
M  V30 7540 H 745.929 -4.45913 3.48106 0
M  V30 7541 H 744.486 -4.89237 4.30686 0
M  V30 7542 N 747.919 -1.57396 -0.0801906 0
M  V30 7543 C 748.829 -2.06451 -1.11423 0
M  V30 7544 C 749.845 -0.992352 -1.42928 0
M  V30 7545 O 751.021 -1.30651 -1.53272 0
M  V30 7546 C 748.086 -2.49164 -2.41077 0
M  V30 7547 C 747.147 -3.70641 -2.16619 0
M  V30 7548 C 746.38 -4.11307 -3.40092 0
M  V30 7549 O 746.603 -3.51922 -4.48895 0
M  V30 7550 O 745.537 -5.04157 -3.288 0
M  V30 7551 H 749.363 -2.94857 -0.727519 0
M  V30 7552 H 746.948 -1.46484 -0.293743 0
M  V30 7553 H 748.83 -2.77196 -3.17396 0
M  V30 7554 H 747.505 -1.6389 -2.79145 0
M  V30 7555 H 746.412 -3.47703 -1.38033 0
M  V30 7556 H 747.745 -4.5674 -1.83437 0
M  V30 7557 N 749.397 0.351382 -1.53633 0
M  V30 7558 C 750.327 1.43688 -1.84055 0
M  V30 7559 C 751.308 1.55251 -0.695073 0
M  V30 7560 O 752.493 1.69587 -0.946257 0
M  V30 7561 C 749.623 2.80843 -2.04315 0
M  V30 7562 C 748.577 2.84094 -3.20117 0
M  V30 7563 C 747.903 4.2406 -3.25696 0
M  V30 7564 C 749.203 2.50334 -4.58399 0
M  V30 7565 H 750.897 1.18478 -2.74961 0
M  V30 7566 H 748.443 0.568509 -1.32303 0
M  V30 7567 H 750.396 3.56821 -2.2418 0
M  V30 7568 H 749.12 3.07471 -1.10132 0
M  V30 7569 H 747.779 2.10568 -3.00094 0
M  V30 7570 H 747.427 4.47785 -2.29123 0
M  V30 7571 H 747.127 4.27147 -4.03509 0
M  V30 7572 H 748.651 5.0189 -3.47762 0
M  V30 7573 H 750.065 3.16025 -4.78332 0
M  V30 7574 H 748.462 2.64717 -5.38558 0
M  V30 7575 H 749.532 1.45542 -4.62543 0
M  V30 7576 N 750.875 1.45233 0.611969 0
M  V30 7577 C 752.123 1.48727 1.36838 0
M  V30 7578 C 752.444 0.128616 1.94575 0
M  V30 7579 O 751.714 -0.84149 1.76906 0
M  V30 7580 H 750.294 0.547695 0.507976 0
M  V30 7581 H 752.956 1.81156 0.718925 0
M  V30 7582 H 752.052 2.2236 2.19003 0
M  V30 7583 N 752.353 -0.854086 1.3245 0
M  V30 7584 C 753.316 -1.94427 1.21371 0
M  V30 7585 C 754.316 -1.60219 0.136613 0
M  V30 7586 O 755.506 -1.69846 0.387057 0
M  V30 7587 C 752.638 -3.29698 0.866701 0
M  V30 7588 H 753.831 -2.05679 2.18257 0
M  V30 7589 H 751.384 -1.04434 1.1629 0
M  V30 7590 H 752.119 -3.24145 -0.100319 0
M  V30 7591 H 751.904 -3.55903 1.64545 0
M  V30 7592 H 753.394 -4.09599 0.813515 0
M  V30 7593 N 753.831 -1.1567 -1.07043 0
M  V30 7594 C 754.764 -0.799867 -2.13723 0
M  V30 7595 C 755.742 0.225098 -1.61034 0
M  V30 7596 O 756.926 0.11093 -1.88173 0
M  V30 7597 C 754.053 -0.18997 -3.38167 0
M  V30 7598 C 753.099 -1.18733 -4.0964 0
M  V30 7599 S 753.932 -2.73074 -4.60642 0
M  V30 7600 C 755.088 -2.13512 -5.88356 0
M  V30 7601 H 755.321 -1.70342 -2.43661 0
M  V30 7602 H 752.854 -0.979377 -1.19363 0
M  V30 7603 H 754.812 0.155471 -4.10205 0
M  V30 7604 H 753.473 0.691229 -3.064 0
M  V30 7605 H 752.666 -0.708873 -4.9899 0
M  V30 7606 H 752.268 -1.47747 -3.43579 0
M  V30 7607 H 754.56 -1.49911 -6.60706 0
M  V30 7608 H 755.503 -3.01042 -6.40921 0
M  V30 7609 H 755.911 -1.57693 -5.42027 0
M  V30 7610 N 755.309 1.25446 -0.953992 0
M  V30 7611 C 756.557 1.92762 -0.607227 0
M  V30 7612 C 756.878 1.7509 0.858399 0
M  V30 7613 O 756.148 1.11416 1.61132 0
M  V30 7614 H 754.728 0.713377 -0.221591 0
M  V30 7615 H 757.39 1.52625 -1.21209 0
M  V30 7616 H 756.486 3.00695 -0.835998 0
M  V30 7617 N 756.787 0.722489 1.40064 0
M  V30 7618 C 757.72 0.0233443 2.28188 0
M  V30 7619 C 758.698 -0.7606 1.43714 0
M  V30 7620 O 759.882 -0.745791 1.73119 0
M  V30 7621 C 757.009 -0.974264 3.24385 0
M  V30 7622 C 756.055 -0.280307 4.25578 0
M  V30 7623 S 756.888 0.996769 5.26141 0
M  V30 7624 C 758.044 0.00143923 6.259 0
M  V30 7625 H 758.277 0.770705 2.87137 0
M  V30 7626 H 755.81 0.513783 1.45601 0
M  V30 7627 H 757.768 -1.5446 3.80332 0
M  V30 7628 H 756.429 -1.69438 2.6448 0
M  V30 7629 H 755.622 -1.03471 4.93264 0
M  V30 7630 H 755.224 0.217657 3.73366 0
M  V30 7631 H 757.516 -0.843126 6.72233 0
M  V30 7632 H 758.459 0.645104 7.05155 0
M  V30 7633 H 758.867 -0.365371 5.63316 0
M  V30 7634 N 758.265 -1.50454 0.469181 0
M  V30 7635 C 759.513 -2.01916 -0.0862982 0
M  V30 7636 C 759.834 -1.35337 -1.40388 0
M  V30 7637 O 759.104 -0.498096 -1.89462 0
M  V30 7638 H 757.684 -0.746185 -0.0348825 0
M  V30 7639 H 760.346 -1.84804 0.619167 0
M  V30 7640 H 759.442 -3.11182 -0.239189 0
M  V30 7641 N 759.743 -0.201713 -1.56304 0
M  V30 7642 C 761.02 0.483273 -1.89536 0
M  V30 7643 C 761.4 1.79176 -1.11621 0
M  V30 7644 O 760.748 2.27445 -0.219339 0
M  V30 7645 C 760.958 0.695604 -3.41998 0
M  V30 7646 C 762.306 1.012 -4.12364 0
M  V30 7647 O 763.33 0.783094 -3.47485 0
M  V30 7648 O 762.189 1.44534 -5.27041 0
M  V30 7649 H 759.283 0.252801 -0.787414 0
M  V30 7650 H 761.829 -0.24242 -1.6796 0
M  V30 7651 H 760.601 -0.228165 -3.90634 0
M  V30 7652 H 760.224 1.47351 -3.69288 0
M  V30 7653 N 761.222 1.57436 0.0718424 0
M  V30 7654 C 762.152 2.06724 1.08571 0
M  V30 7655 C 763.133 0.960731 1.40371 0
M  V30 7656 O 764.318 1.23345 1.49999 0
M  V30 7657 C 761.448 2.51112 2.39916 0
M  V30 7658 C 760.402 3.65639 2.22469 0
M  V30 7659 C 759.728 3.96082 3.59198 0
M  V30 7660 C 761.028 4.95687 1.64596 0
M  V30 7661 H 762.722 2.91679 0.675569 0
M  V30 7662 H 760.268 1.40319 0.32352 0
M  V30 7663 H 762.221 2.84206 3.11135 0
M  V30 7664 H 760.945 1.63186 2.8291 0
M  V30 7665 H 759.604 3.32828 1.53691 0
M  V30 7666 H 759.252 3.05287 3.99761 0
M  V30 7667 H 758.952 4.73199 3.48362 0
M  V30 7668 H 760.476 4.31672 4.31847 0
M  V30 7669 H 761.89 5.27011 2.25681 0
M  V30 7670 H 760.287 5.77126 1.64457 0
M  V30 7671 H 761.357 4.8108 0.60744 0
M  V30 7672 N 762.7 -0.34323 1.53817 0
M  V30 7673 C 763.63 -1.42709 1.84814 0
M  V30 7674 C 764.611 -1.5488 0.703297 0
M  V30 7675 O 765.796 -1.69082 0.955237 0
M  V30 7676 C 762.926 -2.79756 2.05801 0
M  V30 7677 C 761.88 -2.82392 3.21619 0
M  V30 7678 C 761.206 -4.22326 3.2794 0
M  V30 7679 C 762.506 -2.479 4.59721 0
M  V30 7680 H 764.2 -1.17018 2.75585 0
M  V30 7681 H 761.746 -0.561485 1.32602 0
M  V30 7682 H 763.699 -3.55627 2.26069 0
M  V30 7683 H 762.423 -3.06883 1.11761 0
M  V30 7684 H 761.082 -2.08974 3.01207 0
M  V30 7685 H 760.73 -4.46564 2.31494 0
M  V30 7686 H 760.43 -4.25001 4.05768 0
M  V30 7687 H 761.954 -5.00039 3.50419 0
M  V30 7688 H 763.368 -3.13484 4.80001 0
M  V30 7689 H 761.765 -2.61857 5.39954 0
M  V30 7690 H 762.835 -1.43087 4.63308 0
M  V30 7691 N 764.178 -1.45556 -0.604258 0
M  V30 7692 C 765.403 -1.53509 -1.39462 0
M  V30 7693 C 765.828 -0.169638 -1.87333 0
M  V30 7694 O 765.186 0.846346 -1.60333 0
M  V30 7695 C 765.234 -2.52654 -2.5729 0
M  V30 7696 O 764.338 -2.04666 -3.5803 0
M  V30 7697 H 763.679 -0.517355 -0.416221 0
M  V30 7698 H 766.209 -1.90939 -0.735072 0
M  V30 7699 H 766.219 -2.71568 -3.04491 0
M  V30 7700 H 764.894 -3.51823 -2.21797 0
M  V30 7701 H 763.471 -1.95643 -3.17456 0
M  V30 7702 N 765.656 0.84705 -1.32902 0
M  V30 7703 C 766.619 1.9378 -1.224 0
M  V30 7704 C 767.619 1.60144 -0.145108 0
M  V30 7705 O 768.809 1.69638 -0.396058 0
M  V30 7706 C 765.941 3.29234 -0.884174 0
M  V30 7707 H 767.134 2.04518 -2.19345 0
M  V30 7708 H 764.687 1.03816 -1.16842 0
M  V30 7709 H 765.422 3.24193 0.0831277 0
M  V30 7710 H 765.207 3.55026 -1.6643 0
M  V30 7711 H 766.697 4.09162 -0.835226 0
M  V30 7712 N 767.134 1.16236 1.06428 0
M  V30 7713 C 768.067 0.81119 2.13295 0
M  V30 7714 C 769.045 -0.216555 1.61151 0
M  V30 7715 O 770.229 -0.100949 1.88229 0
M  V30 7716 C 767.356 0.207901 3.38061 0
M  V30 7717 C 766.402 1.20904 4.09004 0
M  V30 7718 S 767.235 2.75513 4.59187 0
M  V30 7719 C 768.391 2.1663 5.87216 0
M  V30 7720 H 768.624 1.71632 2.42755 0
M  V30 7721 H 766.157 0.985693 1.18842 0
M  V30 7722 H 768.115 -0.133715 4.10282 0
M  V30 7723 H 766.776 -0.67497 3.06762 0
M  V30 7724 H 765.969 0.735326 4.98607 0
M  V30 7725 H 765.571 1.49567 3.42791 0
M  V30 7726 H 767.863 1.53413 6.59902 0
M  V30 7727 H 768.806 3.04437 6.39315 0
M  V30 7728 H 769.214 1.60565 5.41183 0
M  V30 7729 N 768.612 -1.24939 0.960631 0
M  V30 7730 C 769.859 -1.92818 0.618663 0
M  V30 7731 C 770.187 -1.75177 -0.845173 0
M  V30 7732 O 769.442 -1.09412 -1.62258 0
M  V30 7733 C 769.741 -3.45066 0.930809 0
M  V30 7734 C 769.407 -3.82869 2.38164 0
M  V30 7735 C 768.069 -3.92899 2.7782 0
M  V30 7736 C 770.421 -4.01483 3.32356 0
M  V30 7737 C 767.749 -4.18955 4.10723 0
M  V30 7738 C 770.101 -4.29033 4.6488 0
M  V30 7739 C 768.765 -4.37282 5.04322 0
M  V30 7740 H 768.035 -0.705571 0.226385 0
M  V30 7741 H 770.682 -1.48365 1.21079 0
M  V30 7742 H 768.987 -3.9096 0.256355 0
M  V30 7743 H 770.684 -3.95783 0.644712 0
M  V30 7744 H 767.274 -3.75622 2.06413 0
M  V30 7745 H 771.458 -3.93143 3.02907 0
M  V30 7746 H 766.714 -4.23558 4.40918 0
M  V30 7747 H 770.888 -4.42381 5.3784 0
M  V30 7748 H 768.515 -4.57225 6.0733 0
M  V30 7749 N 770.09 -0.729906 -1.39679 0
M  V30 7750 C 771.367 -0.202149 -1.94553 0
M  V30 7751 C 771.747 1.29507 -1.66707 0
M  V30 7752 O 771.095 2.05819 -0.992517 0
M  V30 7753 C 771.305 -0.530279 -3.44948 0
M  V30 7754 C 772.653 -0.476808 -4.21914 0
M  V30 7755 O 773.677 -0.467171 -3.53123 0
M  V30 7756 O 772.536 -0.466869 -5.44502 0
M  V30 7757 H 769.63 -0.0351644 -0.826252 0
M  V30 7758 H 772.176 -0.808417 -1.49207 0
M  V30 7759 H 770.948 -1.56526 -3.5863 0
M  V30 7760 H 770.571 0.10522 -3.97461 0
M  V30 7761 N 771.568 1.50203 -0.477153 0
M  V30 7762 C 772.815 2.02358 0.0757385 0
M  V30 7763 C 773.143 1.3587 1.39174 0
M  V30 7764 O 772.398 0.475415 1.89838 0
M  V30 7765 C 772.697 3.56127 0.301325 0
M  V30 7766 C 772.363 4.41126 -0.933725 0
M  V30 7767 C 771.025 4.64075 -1.27233 0
M  V30 7768 C 773.377 4.90737 -1.75576 0
M  V30 7769 C 770.705 5.33878 -2.43292 0
M  V30 7770 C 773.057 5.61816 -2.90768 0
M  V30 7771 C 771.721 5.83016 -3.25036 0
M  V30 7772 H 770.991 0.740482 0.0277147 0
M  V30 7773 H 773.638 1.80754 -0.632467 0
M  V30 7774 H 771.943 3.76279 1.09183 0
M  V30 7775 H 773.64 3.94053 0.743184 0
M  V30 7776 H 770.23 4.23489 -0.659935 0
M  V30 7777 H 774.414 4.72856 -1.50734 0
M  V30 7778 H 769.67 5.48499 -2.70109 0
M  V30 7779 H 773.844 5.99237 -3.54807 0
M  V30 7780 H 771.471 6.36881 -4.15074 0
M  V30 7781 N 773.046 0.209999 1.56195 0
M  V30 7782 C 774.271 -0.433064 2.02828 0
M  V30 7783 C 774.696 -1.5337 1.08901 0
M  V30 7784 O 774.054 -1.81144 0.0751132 0
M  V30 7785 C 774.102 -0.952635 3.47789 0
M  V30 7786 O 773.206 -2.0647 3.56993 0
M  V30 7787 H 772.547 -0.0994594 0.656509 0
M  V30 7788 H 775.077 0.32525 2.01998 0
M  V30 7789 H 775.087 -1.26542 3.8788 0
M  V30 7790 H 773.762 -0.147007 4.1564 0
M  V30 7791 H 772.339 -1.75942 3.28784 0
M  V30 7792 N 774.524 -1.57472 -0.0634922 0
M  V30 7793 C 775.434 -2.07621 -1.09227 0
M  V30 7794 C 776.45 -1.00746 -1.41867 0
M  V30 7795 O 777.626 -1.32269 -1.51878 0
M  V30 7796 C 774.691 -2.51707 -2.38421 0
M  V30 7797 C 773.752 -3.72917 -2.12676 0
M  V30 7798 C 772.985 -4.14891 -3.3571 0
M  V30 7799 O 773.208 -3.56663 -4.45137 0
M  V30 7800 O 772.142 -5.07616 -3.23434 0
M  V30 7801 H 775.968 -2.95612 -0.696205 0
M  V30 7802 H 773.553 -1.46787 -0.27819 0
M  V30 7803 H 775.435 -2.80547 -3.14438 0
M  V30 7804 H 774.11 -1.66842 -2.77391 0
M  V30 7805 H 773.017 -3.49148 -1.34337 0
M  V30 7806 H 774.35 -4.5866 -1.78583 0
M  V30 7807 N 776.003 0.335068 -1.53997 0
M  V30 7808 C 776.95 1.41187 -1.82579 0
M  V30 7809 C 777.92 1.51897 -0.672061 0
M  V30 7810 O 779.105 1.673 -0.917346 0
M  V30 7811 C 776.245 2.77717 -2.0486 0
M  V30 7812 C 775.358 2.7573 -3.32561 0
M  V30 7813 C 774.493 4.04032 -3.44864 0
M  V30 7814 C 773.532 3.96308 -4.66483 0
M  V30 7815 N 772.669 5.16317 -4.75774 0
M  V30 7816 H 777.509 1.16113 -2.74448 0
M  V30 7817 H 775.046 0.562305 -1.35928 0
M  V30 7818 H 777.004 3.57071 -2.15768 0
M  V30 7819 H 775.634 3.01124 -1.16294 0
M  V30 7820 H 774.686 1.88432 -3.3045 0
M  V30 7821 H 775.998 2.65902 -4.22016 0
M  V30 7822 H 775.152 4.91814 -3.55251 0
M  V30 7823 H 773.891 4.16652 -2.53481 0
M  V30 7824 H 772.896 3.06911 -4.56164 0
M  V30 7825 H 774.121 3.85263 -5.5924 0
M  V30 7826 H 772.067 5.29464 -3.87303 0
M  V30 7827 H 771.984 5.08779 -5.59178 0
M  V30 7828 H 773.252 6.05846 -4.9048 0
M  V30 7829 N 777.481 1.45874 0.596531 0
M  V30 7830 C 778.411 1.5824 1.71705 0
M  V30 7831 C 779.392 0.433366 1.64487 0
M  V30 7832 O 780.577 0.657895 1.82717 0
M  V30 7833 C 777.707 1.55927 3.10329 0
M  V30 7834 C 776.661 2.69659 3.32367 0
M  V30 7835 C 775.987 2.52403 4.71377 0
M  V30 7836 C 777.287 4.11591 3.21544 0
M  V30 7837 H 778.981 2.52035 1.61613 0
M  V30 7838 H 776.527 1.21297 0.776082 0
M  V30 7839 H 778.48 1.63173 3.88526 0
M  V30 7840 H 777.204 0.586674 3.21288 0
M  V30 7841 H 775.863 2.61859 2.56564 0
M  V30 7842 H 775.511 1.53258 4.79083 0
M  V30 7843 H 775.211 3.28679 4.87077 0
M  V30 7844 H 776.735 2.6152 5.5176 0
M  V30 7845 H 778.149 4.20576 3.89601 0
M  V30 7846 H 776.546 4.88344 3.4877 0
M  V30 7847 H 777.616 4.32719 2.1882 0
M  V30 7848 N 778.959 -0.83999 1.33349 0
M  V30 7849 C 779.907 -1.97113 1.23488 0
M  V30 7850 C 780.901 -1.68849 0.136503 0
M  V30 7851 O 782.107 -1.77476 0.300389 0
M  V30 7852 H 778.482 -0.647049 0.383185 0
M  V30 7853 H 780.453 -2.02554 2.19122 0
M  V30 7854 C 779.202 -3.33314 0.989815 0
M  V30 7855 H 778.525 -3.556 1.82726 0
M  V30 7856 H 779.965 -4.12963 0.961123 0
M  V30 7857 C 778.424 -3.35496 -0.307272 0
M  V30 7858 O 778.954 -3.79589 -1.31434 0
M  V30 7859 N 777.16 -2.88669 -0.334414 0
M  V30 7860 H 776.707 -2.5298 0.485659 0
M  V30 7861 H 776.665 -2.90512 -1.20209 0
M  V30 7862 N 780.437 -1.16799 -1.0581 0
M  V30 7863 C 781.662 -0.977402 -1.82925 0
M  V30 7864 C 782.087 0.469514 -1.82146 0
M  V30 7865 O 781.445 1.33576 -1.22585 0
M  V30 7866 C 781.493 -1.51543 -3.27211 0
M  V30 7867 O 780.597 -0.725021 -4.05977 0
M  V30 7868 H 779.938 -0.347474 -0.565825 0
M  V30 7869 H 782.468 -1.55151 -1.33376 0
M  V30 7870 H 782.478 -1.53502 -3.78023 0
M  V30 7871 H 781.153 -2.56872 -3.27093 0
M  V30 7872 H 779.73 -0.77634 -3.64729 0
M  V30 7873 N 781.915 1.24427 -0.967243 0
M  V30 7874 C 782.845 2.2773 -0.515899 0
M  V30 7875 C 783.826 1.64197 0.444227 0
M  V30 7876 O 785.011 1.91193 0.340451 0
M  V30 7877 C 782.141 3.46751 0.195149 0
M  V30 7878 C 781.095 4.22548 -0.680953 0
M  V30 7879 C 780.421 5.34456 0.161561 0
M  V30 7880 C 781.721 4.83914 -1.96532 0
M  V30 7881 H 783.415 2.65735 -1.37933 0
M  V30 7882 H 780.961 1.27742 -0.664681 0
M  V30 7883 H 782.914 4.18153 0.522117 0
M  V30 7884 H 781.638 3.07771 1.09292 0
M  V30 7885 H 780.297 3.52946 -0.991186 0
M  V30 7886 H 779.945 4.91716 1.05947 0
M  V30 7887 H 779.645 5.86087 -0.421418 0
M  V30 7888 H 781.169 6.08685 0.483211 0
M  V30 7889 H 782.583 5.47392 -1.70396 0
M  V30 7890 H 780.98 5.45775 -2.49499 0
M  V30 7891 H 782.05 4.05393 -2.66053 0
M  V30 7892 N 783.393 0.737304 1.3929 0
M  V30 7893 C 784.356 0.10731 2.28949 0
M  V30 7894 C 785.356 -0.664716 1.46418 0
M  V30 7895 O 786.546 -0.493392 1.67067 0
M  V30 7896 C 783.678 -0.857145 3.29948 0
M  V30 7897 H 784.871 0.89725 2.86163 0
M  V30 7898 H 782.424 0.503279 1.47976 0
M  V30 7899 H 783.159 -1.67336 2.77794 0
M  V30 7900 H 782.944 -0.306167 3.90903 0
M  V30 7901 H 784.434 -1.29444 3.97031 0
M  V30 7902 N 784.871 -1.49948 0.485112 0
M  V30 7903 C 785.801 -2.31675 -0.291364 0
M  V30 7904 C 786.782 -1.39216 -0.977383 0
M  V30 7905 O 787.967 -1.68133 -0.971855 0
M  V30 7906 C 785.097 -3.19326 -1.36558 0
M  V30 7907 C 784.051 -4.2045 -0.800359 0
M  V30 7908 C 783.377 -4.96931 -1.97391 0
M  V30 7909 C 784.677 -5.21925 0.197867 0
M  V30 7910 H 786.371 -2.96839 0.390775 0
M  V30 7911 H 783.917 -1.42749 0.189375 0
M  V30 7912 H 785.87 -3.75304 -1.91638 0
M  V30 7913 H 784.594 -2.52074 -2.07668 0
M  V30 7914 H 783.253 -3.65594 -0.271428 0
M  V30 7915 H 782.901 -4.26141 -2.67232 0
M  V30 7916 H 782.601 -5.65344 -1.60187 0
M  V30 7917 H 784.125 -5.55749 -2.52935 0
M  V30 7918 H 785.539 -5.72691 -0.264239 0
M  V30 7919 H 783.936 -5.98138 0.484908 0
M  V30 7920 H 785.006 -4.71809 1.11912 0
M  V30 7921 N 786.349 -0.21828 -1.56081 0
M  V30 7922 C 787.577 0.419258 -2.02608 0
M  V30 7923 C 787.992 1.53578 -1.09814 0
M  V30 7924 O 787.349 1.82185 -0.107149 0
M  V30 7925 C 787.4 0.953955 -3.48686 0
M  V30 7926 O 787.121 -0.11805 -4.37941 0
M  V30 7927 C 788.622 1.66506 -4.10841 0
M  V30 7928 H 785.842 0.10296 -0.663054 0
M  V30 7929 H 788.386 -0.333776 -2.01758 0
M  V30 7930 H 786.541 1.65727 -3.50162 0
M  V30 7931 H 786.955 0.283359 -5.23734 0
M  V30 7932 H 788.429 1.99123 -5.14834 0
M  V30 7933 H 788.906 2.57705 -3.55647 0
M  V30 7934 H 789.512 1.00703 -4.13206 0
M  V30 7935 N 787.827 1.57504 0.0551401 0
M  V30 7936 C 788.737 2.08198 1.08124 0
M  V30 7937 C 789.753 1.01496 1.41331 0
M  V30 7938 O 790.929 1.33073 1.51174 0
M  V30 7939 C 787.994 2.52968 2.37083 0
M  V30 7940 C 787.055 3.7404 2.10696 0
M  V30 7941 C 786.288 4.16665 3.33505 0
M  V30 7942 O 786.511 3.59019 4.4324 0
M  V30 7943 O 785.445 5.09324 3.20737 0
M  V30 7944 H 789.271 2.95977 0.680518 0
M  V30 7945 H 786.856 1.46933 0.270401 0
M  V30 7946 H 788.738 2.82211 3.12946 0
M  V30 7947 H 787.413 1.6831 2.76502 0
M  V30 7948 H 786.32 3.49855 1.32484 0
M  V30 7949 H 787.653 4.59601 1.76148 0
M  V30 7950 N 789.305 -0.326896 1.54172 0
M  V30 7951 C 790.215 -1.42525 1.86343 0
M  V30 7952 C 791.231 -1.56764 0.75505 0
M  V30 7953 O 792.407 -1.71924 1.04901 0
M  V30 7954 C 789.472 -2.77286 2.08119 0
M  V30 7955 C 788.533 -2.7225 3.31931 0
M  V30 7956 C 787.766 -4.00584 3.52659 0
M  V30 7957 O 787.989 -4.98686 2.76891 0
M  V30 7958 O 786.923 -4.04045 4.46129 0
M  V30 7959 H 790.749 -1.18249 2.79734 0
M  V30 7960 H 788.334 -0.520614 1.40036 0
M  V30 7961 H 790.216 -3.57065 2.23791 0
M  V30 7962 H 788.891 -3.01459 1.17917 0
M  V30 7963 H 787.798 -1.91033 3.21647 0
M  V30 7964 H 789.131 -2.53032 4.2218 0
M  V30 7965 N 790.784 -1.46188 -0.588786 0
M  V30 7966 C 791.694 -1.58865 -1.72624 0
M  V30 7967 C 792.71 -0.472348 -1.67466 0
M  V30 7968 O 793.886 -0.735638 -1.87484 0
M  V30 7969 C 790.951 -1.56989 -3.0912 0
M  V30 7970 C 790.012 -2.79804 -3.25589 0
M  V30 7971 C 789.245 -2.78009 -4.55573 0
M  V30 7972 O 789.468 -1.86406 -5.39082 0
M  V30 7973 O 788.402 -3.6947 -4.75159 0
M  V30 7974 H 792.228 -2.55047 -1.64878 0
M  V30 7975 H 789.813 -1.28912 -0.755115 0
M  V30 7976 H 791.695 -1.58618 -3.90408 0
M  V30 7977 H 790.37 -0.639648 -3.17317 0
M  V30 7978 H 789.277 -2.83732 -2.43818 0
M  V30 7979 H 790.61 -3.72017 -3.22279 0
M  V30 7980 N 792.262 0.832906 -1.33792 0
M  V30 7981 C 793.192 1.95828 -1.27176 0
M  V30 7982 C 794.173 1.69427 -0.15114 0
M  V30 7983 O 795.358 1.91167 -0.341886 0
M  V30 7984 C 792.488 3.32098 -1.01629 0
M  V30 7985 C 791.442 3.72912 -2.10049 0
M  V30 7986 C 790.768 5.07054 -1.69706 0
M  V30 7987 C 792.068 3.86064 -3.51783 0
M  V30 7988 H 793.762 2.01622 -2.21334 0
M  V30 7989 H 791.308 0.96866 -1.0655 0
M  V30 7990 H 793.261 4.10402 -0.956474 0
M  V30 7991 H 791.985 3.26577 -0.0390956 0
M  V30 7992 H 790.644 2.96876 -2.15082 0
M  V30 7993 H 790.292 4.9801 -0.706737 0
M  V30 7994 H 789.992 5.35333 -2.42264 0
M  V30 7995 H 791.516 5.87827 -1.65202 0
M  V30 7996 H 792.93 4.54665 -3.49218 0
M  V30 7997 H 791.327 4.25787 -4.22878 0
M  V30 7998 H 792.397 2.88344 -3.89854 0
M  V30 7999 N 793.74 1.17359 1.05189 0
M  V30 8000 C 794.988 0.960087 1.77839 0
M  V30 8001 C 795.309 -0.512554 1.88143 0
M  V30 8002 O 794.579 -1.3721 1.39822 0
M  V30 8003 H 793.159 0.352234 0.658741 0
M  V30 8004 H 795.821 1.47834 1.27008 0
M  V30 8005 H 794.917 1.38843 2.79516 0
M  V30 8006 N 795.218 -1.23913 0.973828 0
M  V30 8007 C 796.148 -2.27453 0.527969 0
M  V30 8008 C 797.129 -1.6443 -0.435513 0
M  V30 8009 O 798.314 -1.9137 -0.330306 0
M  V30 8010 C 795.444 -3.4685 -0.176757 0
M  V30 8011 C 794.398 -4.22181 0.703352 0
M  V30 8012 C 793.724 -5.34534 -0.133215 0
M  V30 8013 C 795.024 -4.82865 1.99096 0
M  V30 8014 H 796.718 -2.65 1.3934 0
M  V30 8015 H 794.264 -1.27388 0.671446 0
M  V30 8016 H 796.217 -4.18424 -0.499934 0
M  V30 8017 H 794.941 -3.08346 -1.07659 0
M  V30 8018 H 793.6 -3.52416 1.00989 0
M  V30 8019 H 793.248 -4.92271 -1.03338 0
M  V30 8020 H 792.948 -5.85855 0.452494 0
M  V30 8021 H 794.472 -6.08933 -0.450924 0
M  V30 8022 H 795.886 -5.46481 1.73297 0
M  V30 8023 H 794.283 -5.44444 2.52389 0
M  V30 8024 H 795.353 -4.03977 2.68199 0
M  V30 8025 N 796.696 -0.74468 -1.38897 0
M  V30 8026 C 797.943 -0.296884 -2.00312 0
M  V30 8027 C 798.271 1.11878 -1.59102 0
M  V30 8028 O 797.526 1.7789 -0.815702 0
M  V30 8029 C 797.825 -0.357302 -3.55609 0
M  V30 8030 C 797.491 -1.72736 -4.16501 0
M  V30 8031 C 796.153 -2.10232 -4.32846 0
M  V30 8032 C 798.505 -2.62647 -4.50184 0
M  V30 8033 C 795.833 -3.3713 -4.80167 0
M  V30 8034 C 798.185 -3.88926 -4.98918 0
M  V30 8035 C 796.849 -4.26503 -5.1347 0
M  V30 8036 H 796.119 -0.108638 -0.732993 0
M  V30 8037 H 798.766 -0.953419 -1.66079 0
M  V30 8038 H 797.071 0.382805 -3.89925 0
M  V30 8039 H 798.768 0.0074596 -4.00999 0
M  V30 8040 H 795.358 -1.42585 -4.04187 0
M  V30 8041 H 799.542 -2.34945 -4.37166 0
M  V30 8042 H 794.798 -3.66174 -4.89619 0
M  V30 8043 H 798.972 -4.58745 -5.23952 0
M  V30 8044 H 796.599 -5.24896 -5.49898 0
M  V30 8045 N 798.174 1.49689 -0.493057 0
M  V30 8046 C 799.402 2.06836 0.0513141 0
M  V30 8047 C 799.817 1.35436 1.31539 0
M  V30 8048 O 799.174 0.430248 1.77356 0
M  V30 8049 C 799.225 3.60107 0.317003 0
M  V30 8050 O 798.946 4.2882 -0.896957 0
M  V30 8051 C 800.447 4.33945 0.905902 0
M  V30 8052 H 797.667 0.670787 -0.0169048 0
M  V30 8053 H 800.211 1.92574 -0.688139 0
M  V30 8054 H 798.366 3.74099 1.00642 0
M  V30 8055 H 798.78 5.20395 -0.654939 0
M  V30 8056 H 800.254 5.42087 1.04144 0
M  V30 8057 H 800.731 3.95895 1.90168 0
M  V30 8058 H 801.337 4.2454 0.254195 0
M  V30 8059 N 799.652 0.226554 1.55963 0
M  V30 8060 C 800.615 -0.668015 2.19249 0
M  V30 8061 C 801.615 -1.11794 1.1558 0
M  V30 8062 O 802.805 -1.02593 1.40784 0
M  V30 8063 C 799.937 -1.91571 2.81981 0
M  V30 8064 H 801.13 -0.116175 2.99675 0
M  V30 8065 H 798.683 -0.0230497 1.56283 0
M  V30 8066 H 799.418 -2.50929 2.05439 0
M  V30 8067 H 799.203 -1.6015 3.57903 0
M  V30 8068 H 800.693 -2.55294 3.30477 0
M  V30 8069 N 801.13 -1.57531 -0.0467866 0
M  V30 8070 C 802.376 -1.8873 -0.742218 0
M  V30 8071 C 802.709 -0.822084 -1.75941 0
M  V30 8072 O 801.984 0.164922 -1.938 0
M  V30 8073 C 802.267 -3.30586 -1.42776 0
M  V30 8074 C 802.12 -4.47785 -0.425285 0
M  V30 8075 C 803.439 -3.71068 -2.36636 0
M  V30 8076 H 800.558 -0.686406 -0.268359 0
M  V30 8077 H 803.2 -1.89999 -0.00511341 0
M  V30 8078 H 801.35 -3.29634 -2.05605 0
M  V30 8079 H 803.022 -4.60867 0.199721 0
M  V30 8080 H 801.265 -4.33037 0.25713 0
M  V30 8081 H 801.936 -5.43884 -0.943086 0
M  V30 8082 H 804.412 -3.73273 -1.83866 0
M  V30 8083 H 803.288 -4.71165 -2.81593 0
M  V30 8084 H 803.549 -3.02355 -3.22542 0
M  V30 8085 N 802.608 0.318715 -1.54344 0
M  V30 8086 C 803.854 1.05765 -1.73037 0
M  V30 8087 C 804.187 1.87514 -0.505181 0
M  V30 8088 O 803.462 1.88021 0.497838 0
M  V30 8089 C 803.745 1.97836 -3.00887 0
M  V30 8090 C 803.598 1.19384 -4.33668 0
M  V30 8091 C 804.917 2.97285 -3.24514 0
M  V30 8092 H 802.036 0.383104 -0.629603 0
M  V30 8093 H 804.678 0.333864 -1.87044 0
M  V30 8094 H 802.828 2.59552 -2.89076 0
M  V30 8095 H 804.5 0.600906 -4.57369 0
M  V30 8096 H 802.743 0.496198 -4.30953 0
M  V30 8097 H 803.414 1.87014 -5.19355 0
M  V30 8098 H 805.89 2.45693 -3.35819 0
M  V30 8099 H 804.766 3.58887 -4.15321 0
M  V30 8100 H 805.027 3.70003 -2.41971 0
M  V30 8101 N 804.086 1.46499 0.581025 0
M  V30 8102 C 805.016 1.60052 1.70017 0
M  V30 8103 C 805.997 0.450788 1.64018 0
M  V30 8104 O 807.182 0.677237 1.82009 0
M  V30 8105 C 804.312 1.5921 3.08658 0
M  V30 8106 C 803.266 2.73169 3.29488 0
M  V30 8107 C 802.592 2.57389 4.68674 0
M  V30 8108 C 803.892 4.14978 3.1716 0
M  V30 8109 H 805.586 2.53735 1.5893 0
M  V30 8110 H 803.132 1.22113 0.763173 0
M  V30 8111 H 805.085 1.67285 3.86773 0
M  V30 8112 H 803.809 0.620718 3.20647 0
M  V30 8113 H 802.468 2.64566 2.53773 0
M  V30 8114 H 802.116 1.58331 4.77431 0
M  V30 8115 H 801.816 3.33826 4.83564 0
M  V30 8116 H 803.34 2.67358 5.48956 0
M  V30 8117 H 804.754 4.24684 3.85119 0
M  V30 8118 H 803.151 4.92016 3.4357 0
M  V30 8119 H 804.221 4.35016 2.14218 0
M  V30 8120 N 805.565 -0.825799 1.34232 0
M  V30 8121 C 806.811 -1.58419 1.26614 0
M  V30 8122 C 807.144 -1.93503 -0.164341 0
M  V30 8123 O 806.419 -1.59785 -1.109 0
M  V30 8124 C 806.702 -2.8856 2.15418 0
M  V30 8125 C 806.555 -2.60075 3.66989 0
M  V30 8126 C 807.874 -3.90107 2.03726 0
M  V30 8127 H 804.993 -0.574794 0.461282 0
M  V30 8128 H 807.635 -0.951519 1.64457 0
M  V30 8129 H 805.785 -3.42553 1.83275 0
M  V30 8130 H 807.457 -2.12414 4.09485 0
M  V30 8131 H 805.7 -1.93565 3.88221 0
M  V30 8132 H 806.371 -3.52866 4.24488 0
M  V30 8133 H 808.847 -3.45459 2.31942 0
M  V30 8134 H 807.723 -4.78976 2.68092 0
M  V30 8135 H 807.984 -4.30329 1.01337 0
M  V30 8136 N 807.043 -1.17915 -1.04565 0
M  V30 8137 C 808.268 -0.996749 -1.81878 0
M  V30 8138 C 808.693 0.450169 -1.82634 0
M  V30 8139 O 808.051 1.32268 -1.23995 0
M  V30 8140 C 808.099 -1.55005 -3.25585 0
M  V30 8141 O 807.203 -0.76804 -4.05185 0
M  V30 8142 H 806.544 -0.353456 -0.562108 0
M  V30 8143 H 809.074 -1.56557 -1.31723 0
M  V30 8144 H 809.084 -1.57503 -3.76373 0
M  V30 8145 H 807.759 -2.60327 -3.2435 0
M  V30 8146 H 806.336 -0.81498 -3.63885 0
M  V30 8147 N 808.521 1.23394 -0.980386 0
M  V30 8148 C 809.484 2.23092 -0.525619 0
M  V30 8149 C 810.484 1.56129 0.384745 0
M  V30 8150 O 811.674 1.73284 0.178439 0
M  V30 8151 C 808.806 3.40074 0.23712 0
M  V30 8152 H 809.999 2.64839 -1.40714 0
M  V30 8153 H 807.552 1.36227 -0.766275 0
M  V30 8154 H 808.287 3.03783 1.13518 0
M  V30 8155 H 808.072 3.89883 -0.416356 0
M  V30 8156 H 809.562 4.14043 0.543892 0
M  V30 8157 N 809.999 0.752036 1.385 0
M  V30 8158 C 811.276 0.233075 1.94206 0
M  V30 8159 C 811.656 -1.26838 1.68746 0
M  V30 8160 O 811.004 -2.04214 1.02513 0
M  V30 8161 C 811.214 0.58509 3.44061 0
M  V30 8162 C 812.562 0.543871 4.21102 0
M  V30 8163 O 813.586 0.523291 3.52335 0
M  V30 8164 O 812.445 0.553436 5.4369 0
M  V30 8165 H 809.539 0.0483049 0.825588 0
M  V30 8166 H 812.085 0.832053 1.47902 0
M  V30 8167 H 810.857 1.62212 3.56094 0
M  V30 8168 H 810.48 -0.0419738 3.97578 0
M  V30 8169 N 811.477 -1.49425 0.500989 0
M  V30 8170 C 812.893 -1.58826 0.156951 0
M  V30 8171 C 813.093 -1.50622 -1.33848 0
M  V30 8172 O 812.149 -1.38016 -2.11442 0
M  V30 8173 C 813.462 -2.91611 0.73374 0
M  V30 8174 C 815.01 -3.05076 0.699846 0
M  V30 8175 C 815.485 -4.40479 1.2547 0
M  V30 8176 N 816.976 -4.4697 1.2154 0
M  V30 8177 C 817.711 -5.50189 1.6149 0
M  V30 8178 N 817.207 -6.60512 2.09034 0
M  V30 8179 N 819 -5.40903 1.52907 0
M  V30 8180 H 811.151 -1.53001 1.47324 0
M  V30 8181 H 813.414 -0.724765 0.61108 0
M  V30 8182 H 813.12 -3.03182 1.78251 0
M  V30 8183 H 812.994 -3.767 0.19417 0
M  V30 8184 H 815.381 -2.93134 -0.340085 0
M  V30 8185 H 815.462 -2.2167 1.27656 0
M  V30 8186 H 815.106 -4.53172 2.29341 0
M  V30 8187 H 815.036 -5.22524 0.653921 0
M  V30 8188 H 817.527 -3.67819 0.867043 0
M  V30 8189 H 817.84 -7.35372 2.37588 0
M  V30 8190 H 816.185 -6.61553 2.13008 0
M  V30 8191 H 819.376 -4.53606 1.15583 0
M  V30 8192 H 819.549 -6.21219 1.84365 0
M  V30 8193 N 812.955 -0.234822 -1.55841 0
M  V30 8194 C 814.18 0.400741 -2.03492 0
M  V30 8195 C 814.605 1.51618 -1.11327 0
M  V30 8196 O 813.963 1.81002 -0.103922 0
M  V30 8197 C 814.011 0.897184 -3.49261 0
M  V30 8198 O 813.115 2.00764 -3.60233 0
M  V30 8199 H 812.456 0.0890023 -0.658008 0
M  V30 8200 H 814.986 -0.357345 -2.01455 0
M  V30 8201 H 814.996 1.20356 -3.89844 0
M  V30 8202 H 813.671 0.0808639 -4.15821 0
M  V30 8203 H 812.248 1.70689 -3.31541 0
M  V30 8204 N 814.433 1.57553 0.0384317 0
M  V30 8205 C 815.681 1.88468 0.729672 0
M  V30 8206 C 816.002 0.831302 1.76393 0
M  V30 8207 O 815.272 -0.13622 1.95426 0
M  V30 8208 H 813.852 0.695529 0.272485 0
M  V30 8209 H 816.514 1.94899 0.0066032 0
M  V30 8210 H 815.61 2.8705 1.22511 0
M  V30 8211 N 815.911 -0.310526 1.54511 0
M  V30 8212 C 816.844 -1.40693 1.79668 0
M  V30 8213 C 817.822 -1.49159 0.64734 0
M  V30 8214 O 819.006 -1.66367 0.886239 0
M  V30 8215 C 816.133 -2.78685 1.92491 0
M  V30 8216 C 815.179 -2.87688 3.14861 0
M  V30 8217 S 816.012 -2.50759 4.7316 0
M  V30 8218 C 817.168 -3.90797 4.88906 0
M  V30 8219 H 817.401 -1.19142 2.72383 0
M  V30 8220 H 814.934 -0.508103 1.458 0
M  V30 8221 H 816.892 -3.58168 2.00563 0
M  V30 8222 H 815.553 -2.9751 1.00731 0
M  V30 8223 H 814.746 -3.8888 3.20607 0
M  V30 8224 H 814.348 -2.16189 3.05186 0
M  V30 8225 H 816.64 -4.85693 4.72344 0
M  V30 8226 H 817.583 -3.90027 5.91003 0
M  V30 8227 H 817.991 -3.80357 4.1712 0
M  V30 8228 N 817.389 -1.46805 -0.573248 0
M  V30 8229 C 818.299 -1.60687 -1.70929 0
M  V30 8230 C 819.315 -0.490084 -1.66956 0
M  V30 8231 O 820.491 -0.755482 -1.86693 0
M  V30 8232 C 817.556 -1.60259 -3.07438 0
M  V30 8233 C 816.617 -2.83242 -3.22603 0
M  V30 8234 C 815.85 -2.82825 -4.52599 0
M  V30 8235 O 816.073 -1.92113 -5.37074 0
M  V30 8236 O 815.007 -3.74489 -4.71213 0
M  V30 8237 H 818.833 -2.56782 -1.62163 0
M  V30 8238 H 816.418 -1.29706 -0.741399 0
M  V30 8239 H 818.3 -1.6275 -3.88704 0
M  V30 8240 H 816.975 -0.673268 -3.16621 0
M  V30 8241 H 815.882 -2.86302 -2.40794 0
M  V30 8242 H 817.215 -3.75415 -3.18315 0
M  V30 8243 N 818.867 0.818669 -1.34668 0
M  V30 8244 C 819.815 1.95123 -1.26609 0
M  V30 8245 C 820.809 1.68611 -0.163348 0
M  V30 8246 O 822.015 1.76975 -0.328586 0
M  V30 8247 H 818.39 0.640871 -0.393431 0
M  V30 8248 H 820.361 1.99043 -2.22316 0
M  V30 8249 C 819.11 3.31697 -1.04272 0
M  V30 8250 H 818.433 3.52648 -1.8836 0
M  V30 8251 H 819.873 4.11382 -1.0267 0
M  V30 8252 C 818.332 3.35942 0.253858 0
M  V30 8253 O 818.862 3.81632 1.25378 0
M  V30 8254 N 817.068 2.89165 0.288447 0
M  V30 8255 H 816.615 2.52176 -0.525845 0
M  V30 8256 H 816.573 2.92387 1.15572 0
M  V30 8257 N 820.346 1.18468 1.03938 0
M  V30 8258 C 821.571 1.00638 1.81347 0
M  V30 8259 C 821.996 -0.440477 1.8287 0
M  V30 8260 O 821.354 -1.31609 1.24695 0
M  V30 8261 C 821.402 1.5673 3.24759 0
M  V30 8262 O 820.506 0.789517 4.04772 0
M  V30 8263 H 819.847 0.356432 0.560225 0
M  V30 8264 H 822.377 1.57253 1.30891 0
M  V30 8265 H 822.387 1.59496 3.75533 0
M  V30 8266 H 821.062 2.62043 3.22965 0
M  V30 8267 H 819.639 0.834267 3.63448 0
M  V30 8268 N 821.824 -1.22873 0.986916 0
M  V30 8269 C 822.787 -2.2281 0.537442 0
M  V30 8270 C 823.787 -1.56331 -0.37646 0
M  V30 8271 O 824.977 -1.73376 -0.169247 0
M  V30 8272 C 822.109 -3.40195 -0.219082 0
M  V30 8273 H 823.302 -2.64089 1.42116 0
M  V30 8274 H 820.855 -1.35819 0.773488 0
M  V30 8275 H 821.59 -3.04381 -1.11905 0
M  V30 8276 H 821.375 -3.89657 0.437026 0
M  V30 8277 H 822.865 -4.14326 -0.521926 0
M  V30 8278 N 823.302 -0.75937 -1.38099 0
M  V30 8279 C 824.527 -0.327859 -2.04792 0
M  V30 8280 C 824.952 1.03752 -1.56899 0
M  V30 8281 O 824.31 1.66235 -0.723581 0
M  V30 8282 C 824.358 -0.366264 -3.58735 0
M  V30 8283 O 823.462 0.637697 -4.0744 0
M  V30 8284 H 822.803 -0.144092 -0.648177 0
M  V30 8285 H 825.333 -1.03211 -1.7666 0
M  V30 8286 H 825.343 -0.219179 -4.07411 0
M  V30 8287 H 824.018 -1.36243 -3.92951 0
M  V30 8288 H 822.595 0.454749 -3.70117 0
M  V30 8289 N 824.78 1.49157 -0.508906 0
M  V30 8290 C 826.026 2.02773 0.0328469 0
M  V30 8291 C 826.359 1.38714 1.35912 0
M  V30 8292 O 825.634 0.525536 1.87266 0
M  V30 8293 C 825.917 3.59664 0.177088 0
M  V30 8294 C 825.77 4.34239 -1.17287 0
M  V30 8295 C 827.089 4.30505 0.913977 0
M  V30 8296 H 824.208 0.736926 0.0104631 0
M  V30 8297 H 826.85 1.781 -0.661851 0
M  V30 8298 H 825 3.80818 0.768774 0
M  V30 8299 H 826.672 4.24561 -1.80404 0
M  V30 8300 H 824.915 3.96486 -1.76016 0
M  V30 8301 H 825.586 5.42397 -1.02516 0
M  V30 8302 H 828.062 4.14054 0.412084 0
M  V30 8303 H 826.938 5.40012 0.983759 0
M  V30 8304 H 827.199 3.96302 1.95951 0
M  V30 8305 N 826.258 0.243083 1.55714 0
M  V30 8306 C 827.168 -0.668913 2.24862 0
M  V30 8307 C 828.184 -1.19638 1.26344 0
M  V30 8308 O 829.36 -1.23345 1.5921 0
M  V30 8309 C 826.425 -1.85084 2.93163 0
M  V30 8310 C 825.486 -1.36323 4.07081 0
M  V30 8311 C 824.719 -2.48882 4.72116 0
M  V30 8312 O 824.942 -3.67523 4.36214 0
M  V30 8313 O 823.876 -2.18857 5.60701 0
M  V30 8314 H 827.702 -0.109737 3.03502 0
M  V30 8315 H 825.287 0.0117411 1.49395 0
M  V30 8316 H 827.169 -2.54065 3.36197 0
M  V30 8317 H 825.844 -2.39771 2.17466 0
M  V30 8318 H 824.751 -0.640804 3.68571 0
M  V30 8319 H 826.084 -0.86249 4.84584 0
M  V30 8320 N 827.736 -1.57571 -0.0300757 0
M  V30 8321 C 828.668 -2.0329 -1.05857 0
M  V30 8322 C 829.681 -0.945543 -1.32527 0
M  V30 8323 O 830.87 -1.22287 -1.30032 0
M  V30 8324 C 827.97 -2.39234 -2.40042 0
M  V30 8325 C 827.143 -3.70337 -2.32743 0
M  V30 8326 C 826.202 -3.93482 -3.49369 0
M  V30 8327 O 825.228 -4.64551 -3.28909 0
M  V30 8328 N 826.43 -3.39042 -4.71201 0
M  V30 8329 H 829.195 -2.9214 -0.668897 0
M  V30 8330 H 826.756 -1.60425 -0.218038 0
M  V30 8331 H 828.748 -2.51856 -3.16782 0
M  V30 8332 H 827.318 -1.5606 -2.70858 0
M  V30 8333 H 826.538 -3.68079 -1.41109 0
M  V30 8334 H 827.826 -4.56343 -2.25007 0
M  V30 8335 H 827.224 -2.81434 -4.90725 0
M  V30 8336 H 825.781 -3.57045 -5.45309 0
M  V30 8337 N 829.214 0.302327 -1.54673 0
M  V30 8338 C 830.144 1.37759 -1.88533 0
M  V30 8339 C 831.125 1.52961 -0.744113 0
M  V30 8340 O 832.31 1.6649 -0.999731 0
M  V30 8341 C 829.44 2.74201 -2.13146 0
M  V30 8342 C 828.394 2.73765 -3.28993 0
M  V30 8343 C 827.72 4.13483 -3.39022 0
M  V30 8344 C 829.02 2.35624 -4.66132 0
M  V30 8345 H 830.714 1.0967 -2.78591 0
M  V30 8346 H 828.26 0.52613 -1.34044 0
M  V30 8347 H 830.213 3.49508 -2.35419 0
M  V30 8348 H 828.937 3.03812 -1.19858 0
M  V30 8349 H 827.596 2.00914 -3.06642 0
M  V30 8350 H 827.244 4.40269 -2.43253 0
M  V30 8351 H 826.944 4.14093 -4.16894 0
M  V30 8352 H 828.468 4.90572 -3.63553 0
M  V30 8353 H 829.882 3.00647 -4.88143 0
M  V30 8354 H 828.279 2.47449 -5.46707 0
M  V30 8355 H 829.349 1.30753 -4.66939 0
M  V30 8356 N 830.692 1.47107 0.565454 0
M  V30 8357 C 831.624 1.55024 1.6882 0
M  V30 8358 C 832.637 0.4371 1.56822 0
M  V30 8359 O 833.826 0.706315 1.63931 0
M  V30 8360 C 830.926 1.43069 3.0722 0
M  V30 8361 C 830.099 2.68807 3.45053 0
M  V30 8362 C 829.158 2.50806 4.62583 0
M  V30 8363 O 828.184 3.24593 4.67577 0
M  V30 8364 N 829.386 1.58093 5.58558 0
M  V30 8365 H 832.151 2.51836 1.62477 0
M  V30 8366 H 829.712 1.43382 0.751885 0
M  V30 8367 H 831.704 1.28773 3.83666 0
M  V30 8368 H 830.274 0.543721 3.07835 0
M  V30 8369 H 829.494 2.97923 2.58138 0
M  V30 8370 H 830.782 3.52298 3.67101 0
M  V30 8371 H 830.18 0.972807 5.57273 0
M  V30 8372 H 828.737 1.49753 6.34364 0
M  V30 8373 N 832.17 -0.811516 1.35101 0
M  V30 8374 C 833.08 -1.95475 1.29718 0
M  V30 8375 C 834.096 -1.72813 0.202909 0
M  V30 8376 O 835.272 -1.96725 0.431414 0
M  V30 8377 C 832.337 -3.29975 1.06385 0
M  V30 8378 C 831.398 -3.65566 2.25077 0
M  V30 8379 C 830.631 -4.93648 2.02848 0
M  V30 8380 O 830.854 -5.617 0.992442 0
M  V30 8381 O 829.788 -5.27384 2.90087 0
M  V30 8382 H 833.614 -2.02961 2.25921 0
M  V30 8383 H 831.199 -0.948583 1.15422 0
M  V30 8384 H 833.081 -4.10506 0.951999 0
M  V30 8385 H 831.756 -3.2343 0.132294 0
M  V30 8386 H 830.663 -2.85432 2.41825 0
M  V30 8387 H 831.996 -3.7681 3.16662 0
M  V30 8388 N 833.648 -1.19017 -1.03309 0
M  V30 8389 C 834.876 -1.01534 -1.80273 0
M  V30 8390 C 835.291 0.43605 -1.83696 0
M  V30 8391 O 834.648 1.30288 -1.27794 0
M  V30 8392 C 834.699 -1.5722 -3.25522 0
M  V30 8393 O 834.42 -2.96677 -3.22358 0
M  V30 8394 C 835.921 -1.4446 -4.19102 0
M  V30 8395 H 833.141 -0.358094 -0.567459 0
M  V30 8396 H 835.685 -1.57738 -1.3015 0
M  V30 8397 H 833.84 -1.05174 -3.7285 0
M  V30 8398 H 834.254 -3.22795 -4.13405 0
M  V30 8399 H 835.728 -1.88209 -5.18923 0
M  V30 8400 H 836.205 -0.394471 -4.37425 0
M  V30 8401 H 836.811 -1.95616 -3.77643 0
M  V30 8402 N 835.127 1.22348 -0.993418 0
M  V30 8403 C 836.057 2.26584 -0.564088 0
M  V30 8404 C 837.038 1.65102 0.409298 0
M  V30 8405 O 838.223 1.91872 0.299819 0
M  V30 8406 C 835.353 3.47087 0.121554 0
M  V30 8407 C 834.307 4.21009 -0.770429 0
M  V30 8408 C 833.633 5.34678 0.0481586 0
M  V30 8409 C 834.933 4.79636 -2.06752 0
M  V30 8410 H 836.627 2.62749 -1.43538 0
M  V30 8411 H 834.173 1.26303 -0.691628 0
M  V30 8412 H 836.126 4.19166 0.433303 0
M  V30 8413 H 834.85 3.1002 1.0274 0
M  V30 8414 H 833.509 3.50764 -1.06583 0
M  V30 8415 H 833.157 4.93852 0.954933 0
M  V30 8416 H 832.857 5.85061 -0.545641 0
M  V30 8417 H 834.381 6.09573 0.353991 0
M  V30 8418 H 835.795 5.43654 -1.81969 0
M  V30 8419 H 834.192 5.4036 -2.61019 0
M  V30 8420 H 835.262 3.99659 -2.74592 0
M  V30 8421 N 836.605 0.766683 1.37694 0
M  V30 8422 C 837.535 0.163432 2.32927 0
M  V30 8423 C 838.516 -0.688861 1.55527 0
M  V30 8424 O 839.701 -0.627363 1.83787 0
M  V30 8425 C 836.831 -0.720416 3.39746 0
M  V30 8426 C 835.785 0.0301718 4.27989 0
M  V30 8427 C 835.111 -0.972788 5.25776 0
M  V30 8428 C 836.411 1.20623 5.0818 0
M  V30 8429 H 838.105 0.958988 2.83626 0
M  V30 8430 H 835.651 0.462601 1.36367 0
M  V30 8431 H 837.604 -1.15221 4.05342 0
M  V30 8432 H 836.328 -1.54844 2.8756 0
M  V30 8433 H 834.987 0.442685 3.63917 0
M  V30 8434 H 834.635 -1.79522 4.69873 0
M  V30 8435 H 834.335 -0.475145 5.85676 0
M  V30 8436 H 835.859 -1.40362 5.94248 0
M  V30 8437 H 837.273 0.851341 5.66944 0
M  V30 8438 H 835.67 1.63561 5.7738 0
M  V30 8439 H 836.74 2.01281 4.41151 0
M  V30 8440 N 838.083 -1.48885 0.516809 0
M  V30 8441 C 839.499 -1.58651 0.173788 0
M  V30 8442 C 839.699 -1.52033 -1.32243 0
M  V30 8443 O 838.755 -1.40251 -2.09967 0
M  V30 8444 C 840.068 -2.90816 0.764628 0
M  V30 8445 C 841.616 -3.04316 0.732164 0
M  V30 8446 C 842.091 -4.39123 1.30135 0
M  V30 8447 N 843.582 -4.45656 1.26273 0
M  V30 8448 C 844.317 -5.48446 1.67317 0
M  V30 8449 N 843.813 -6.58258 2.16028 0
M  V30 8450 N 845.606 -5.39251 1.58635 0
M  V30 8451 H 837.757 -1.5143 1.48939 0
M  V30 8452 H 840.02 -0.718243 0.618733 0
M  V30 8453 H 839.726 -3.01275 1.81456 0
M  V30 8454 H 839.6 -3.76473 0.234113 0
M  V30 8455 H 841.987 -2.93478 -0.308975 0
M  V30 8456 H 842.068 -2.20303 1.3 0
M  V30 8457 H 841.712 -4.50714 2.34135 0
M  V30 8458 H 841.642 -5.21801 0.709305 0
M  V30 8459 H 844.133 -3.66879 0.906006 0
M  V30 8460 H 844.446 -7.32811 2.45374 0
M  V30 8461 H 842.791 -6.59257 2.20013 0
M  V30 8462 H 845.982 -4.52354 1.20387 0
M  V30 8463 H 846.155 -6.19229 1.90944 0
M  V30 8464 N 839.561 -0.251338 -1.55583 0
M  V30 8465 C 840.524 0.63305 -2.20284 0
M  V30 8466 C 841.524 1.09941 -1.17344 0
M  V30 8467 O 842.714 1.00341 -1.42399 0
M  V30 8468 C 839.846 1.8706 -2.84993 0
M  V30 8469 H 841.039 0.0684846 -2.99822 0
M  V30 8470 H 838.592 -0.00181653 -1.563 0
M  V30 8471 H 839.327 2.47629 -2.09405 0
M  V30 8472 H 839.112 1.54436 -3.60405 0
M  V30 8473 H 840.602 2.50004 -3.34496 0
M  V30 8474 N 841.039 1.57585 0.0217189 0
M  V30 8475 C 841.969 2.10073 1.01939 0
M  V30 8476 C 842.95 1.0049 1.37243 0
M  V30 8477 O 844.135 1.28055 1.45999 0
M  V30 8478 C 841.265 2.58618 2.31806 0
M  V30 8479 C 840.219 3.72531 2.10724 0
M  V30 8480 C 839.545 4.07309 3.46415 0
M  V30 8481 C 840.845 5.00672 1.48743 0
M  V30 8482 H 842.539 2.9368 0.582432 0
M  V30 8483 H 840.085 1.41277 0.278715 0
M  V30 8484 H 842.038 2.9396 3.01936 0
M  V30 8485 H 840.762 1.72104 2.77575 0
M  V30 8486 H 839.421 3.37549 1.43025 0
M  V30 8487 H 839.069 3.17851 3.89846 0
M  V30 8488 H 838.769 4.84042 3.33132 0
M  V30 8489 H 840.293 4.45192 4.17895 0
M  V30 8490 H 841.707 5.33925 2.088 0
M  V30 8491 H 840.104 5.82065 1.46013 0
M  V30 8492 H 841.174 4.82769 0.45408 0
M  V30 8493 N 842.517 -0.29412 1.54831 0
M  V30 8494 C 843.933 -0.640167 1.46199 0
M  V30 8495 C 844.133 -1.90426 0.658798 0
M  V30 8496 O 843.189 -2.51932 0.169228 0
M  V30 8497 C 844.502 -0.786763 2.90225 0
M  V30 8498 C 846.05 -0.882201 3.0031 0
M  V30 8499 C 846.525 -1.06074 4.45547 0
M  V30 8500 N 848.016 -1.12678 4.49286 0
M  V30 8501 C 848.751 -1.28334 5.58854 0
M  V30 8502 N 848.247 -1.40845 6.78332 0
M  V30 8503 N 850.04 -1.31277 5.46555 0
M  V30 8504 H 842.191 0.536334 2.05517 0
M  V30 8505 H 844.454 0.178363 0.93107 0
M  V30 8506 H 844.16 0.0713018 3.51628 0
M  V30 8507 H 844.034 -1.67364 3.38037 0
M  V30 8508 H 846.421 -1.73075 2.39017 0
M  V30 8509 H 846.502 0.0288405 2.55784 0
M  V30 8510 H 846.146 -0.216935 5.07437 0
M  V30 8511 H 846.076 -1.98611 4.8771 0
M  V30 8512 H 848.567 -1.04335 3.63212 0
M  V30 8513 H 848.88 -1.52566 7.57591 0
M  V30 8514 H 847.225 -1.37888 6.81184 0
M  V30 8515 H 850.416 -1.2112 4.52159 0
M  V30 8516 H 850.589 -1.43136 6.31994 0
M  V30 8517 N 843.995 -1.47404 -0.557645 0
M  V30 8518 C 844.958 -1.59411 -1.64684 0
M  V30 8519 C 845.958 -0.469244 -1.53801 0
M  V30 8520 O 847.148 -0.734298 -1.57967 0
M  V30 8521 C 844.28 -1.5382 -3.04224 0
M  V30 8522 H 845.473 -2.56504 -1.55389 0
M  V30 8523 H 843.026 -1.35588 -0.777531 0
M  V30 8524 H 843.761 -0.581 -3.19053 0
M  V30 8525 H 843.546 -2.35456 -3.13533 0
M  V30 8526 H 845.036 -1.65358 -3.83466 0
M  V30 8527 N 845.473 0.80434 -1.35529 0
M  V30 8528 C 846.403 1.93086 -1.31301 0
M  V30 8529 C 847.384 1.69068 -0.187044 0
M  V30 8530 O 848.569 1.90399 -0.382359 0
M  V30 8531 C 845.699 3.29867 -1.0865 0
M  V30 8532 C 844.653 3.68373 -2.17911 0
M  V30 8533 C 843.979 5.0334 -1.80423 0
M  V30 8534 C 845.279 3.78516 -3.59893 0
M  V30 8535 H 846.973 1.96882 -2.25561 0
M  V30 8536 H 844.519 0.945841 -1.08581 0
M  V30 8537 H 846.472 4.08281 -1.04331 0
M  V30 8538 H 845.196 3.2642 -0.108359 0
M  V30 8539 H 843.855 2.92247 -2.21331 0
M  V30 8540 H 843.503 4.96399 -0.812213 0
M  V30 8541 H 843.203 5.30074 -2.53565 0
M  V30 8542 H 844.727 5.84191 -1.77633 0
M  V30 8543 H 846.141 4.47155 -3.58783 0
M  V30 8544 H 844.538 4.16721 -4.31814 0
M  V30 8545 H 845.608 2.8001 -3.95882 0
M  V30 8546 N 846.951 1.19563 1.02676 0
M  V30 8547 C 848.197 1.00105 1.76371 0
M  V30 8548 C 848.53 -0.466823 1.88506 0
M  V30 8549 O 847.805 -1.34665 1.40341 0
M  V30 8550 C 848.088 1.67321 3.18866 0
M  V30 8551 C 847.941 3.21486 3.1459 0
M  V30 8552 C 849.26 1.39794 4.17308 0
M  V30 8553 H 846.379 0.365075 0.640226 0
M  V30 8554 H 849.021 1.47433 1.19848 0
M  V30 8555 H 847.171 1.27081 3.67128 0
M  V30 8556 H 848.843 3.70953 2.7421 0
M  V30 8557 H 847.086 3.5292 2.52249 0
M  V30 8558 H 847.757 3.63665 4.15273 0
M  V30 8559 H 850.233 1.74685 3.77657 0
M  V30 8560 H 849.109 1.89371 5.15199 0
M  V30 8561 H 849.37 0.323505 4.40915 0
M  V30 8562 N 848.429 -1.21819 0.999893 0
M  V30 8563 C 849.359 -2.26282 0.576096 0
M  V30 8564 C 850.34 -1.65317 -0.400537 0
M  V30 8565 O 851.525 -1.92028 -0.28964 0
M  V30 8566 C 848.655 -3.47147 -0.103145 0
M  V30 8567 C 847.609 -4.20594 0.792745 0
M  V30 8568 C 846.935 -5.34696 -0.0198026 0
M  V30 8569 C 848.235 -4.78533 2.09293 0
M  V30 8570 H 849.929 -2.61984 1.4493 0
M  V30 8571 H 847.475 -1.25935 0.698316 0
M  V30 8572 H 849.428 -4.1939 -0.411068 0
M  V30 8573 H 848.152 -3.1056 -1.01094 0
M  V30 8574 H 846.811 -3.50194 1.08442 0
M  V30 8575 H 846.459 -4.94352 -0.928729 0
M  V30 8576 H 846.159 -5.84764 0.576661 0
M  V30 8577 H 847.683 -6.09752 -0.321659 0
M  V30 8578 H 849.097 -5.42682 1.8485 0
M  V30 8579 H 847.494 -5.38968 2.63881 0
M  V30 8580 H 848.564 -3.98197 2.76708 0
M  V30 8581 N 849.908 -0.773975 -1.37286 0
M  V30 8582 C 850.855 -0.159938 -2.30245 0
M  V30 8583 C 851.825 0.687356 -1.51211 0
M  V30 8584 O 853.01 0.639255 -1.79773 0
M  V30 8585 C 850.15 0.711452 -3.37687 0
M  V30 8586 C 849.263 -0.152692 -4.3173 0
M  V30 8587 C 848.398 0.723613 -5.26248 0
M  V30 8588 C 847.437 -0.14293 -6.11933 0
M  V30 8589 N 846.574 0.691479 -6.98687 0
M  V30 8590 H 851.414 -0.958182 -2.82175 0
M  V30 8591 H 848.951 -0.48411 -1.38906 0
M  V30 8592 H 850.909 1.2315 -3.9861 0
M  V30 8593 H 849.539 1.47528 -2.87116 0
M  V30 8594 H 848.591 -0.790574 -3.72094 0
M  V30 8595 H 849.903 -0.821027 -4.91997 0
M  V30 8596 H 849.057 1.31006 -5.92387 0
M  V30 8597 H 847.796 1.42562 -4.66398 0
M  V30 8598 H 846.801 -0.7419 -5.44771 0
M  V30 8599 H 848.026 -0.842305 -6.73856 0
M  V30 8600 H 845.972 1.37806 -6.41362 0
M  V30 8601 H 845.889 0.0804911 -7.55957 0
M  V30 8602 H 847.157 1.26225 -7.69212 0
M  V30 8603 N 851.386 1.48609 -0.524698 0
M  V30 8604 C 852.334 2.31205 0.254398 0
M  V30 8605 C 853.328 1.40894 0.940491 0
M  V30 8606 O 854.534 1.57827 0.865478 0
M  V30 8607 H 850.909 0.745199 0.100907 0
M  V30 8608 H 852.88 2.94804 -0.461876 0
M  V30 8609 C 851.629 3.2282 1.2916 0
M  V30 8610 H 850.952 3.92255 0.773074 0
M  V30 8611 H 852.392 3.83508 1.80825 0
M  V30 8612 C 850.851 2.4406 2.32242 0
M  V30 8613 O 851.381 2.16163 3.3858 0
M  V30 8614 N 849.587 2.05651 2.05319 0
M  V30 8615 H 849.134 2.28539 1.18861 0
M  V30 8616 H 849.092 1.53265 2.74513 0
M  V30 8617 N 852.864 0.259585 1.55447 0
M  V30 8618 C 854.28 -0.094961 1.59317 0
M  V30 8619 C 854.48 -1.55884 1.2768 0
M  V30 8620 O 853.536 -2.30528 1.0302 0
M  V30 8621 C 854.849 0.265669 2.99524 0
M  V30 8622 C 856.397 0.211007 3.12288 0
M  V30 8623 C 856.872 0.545851 4.54736 0
M  V30 8624 N 858.363 0.496823 4.60528 0
M  V30 8625 C 859.098 0.728909 5.68748 0
M  V30 8626 N 858.594 1.02479 6.85179 0
M  V30 8627 N 860.387 0.658756 5.58226 0
M  V30 8628 H 852.538 1.2141 1.7428 0
M  V30 8629 H 854.801 0.489404 0.811904 0
M  V30 8630 H 854.507 1.28316 3.27457 0
M  V30 8631 H 854.381 -0.401089 3.75061 0
M  V30 8632 H 856.768 -0.797172 2.84129 0
M  V30 8633 H 856.849 0.911799 2.38998 0
M  V30 8634 H 856.493 1.55164 4.83618 0
M  V30 8635 H 856.423 -0.17656 5.26304 0
M  V30 8636 H 858.914 0.277376 3.76881 0
M  V30 8637 H 859.227 1.18897 7.63599 0
M  V30 8638 H 857.572 1.0624 6.86832 0
M  V30 8639 H 860.763 0.427553 4.66143 0
M  V30 8640 H 860.936 0.84302 6.42493 0
M  V30 8641 N 854.342 -1.57594 -0.0133615 0
M  V30 8642 C 855.753 -1.78168 -0.557937 0
M  V30 8643 C 856.104 -0.892616 -1.74719 0
M  V30 8644 O 855.229 -0.0915491 -2.16206 0
M  V30 8645 C 855.824 -3.23115 -1.01894 0
M  V30 8646 C 854.383 -3.44831 -1.50892 0
M  V30 8647 C 853.53 -2.73558 -0.454044 0
M  V30 8648 H 856.481 -1.57266 0.212843 0
M  V30 8649 H 856.502 -3.30493 -1.8856 0
M  V30 8650 H 856.014 -3.87798 -0.153175 0
M  V30 8651 H 854.115 -2.85345 -2.39602 0
M  V30 8652 H 854.228 -4.53485 -1.54559 0
M  V30 8653 H 852.592 -2.37787 -0.912666 0
M  V30 8654 H 853.375 -3.40932 0.402524 0
M  V30 8655 N 855.82 0.285905 -1.54985 0
M  V30 8656 C 856.75 1.35752 -1.89983 0
M  V30 8657 C 857.731 1.52163 -0.760295 0
M  V30 8658 O 858.916 1.65421 -1.01733 0
M  V30 8659 C 856.046 2.71925 -2.16042 0
M  V30 8660 C 855 2.70261 -3.31878 0
M  V30 8661 C 854.326 4.09864 -3.43388 0
M  V30 8662 C 855.626 2.30667 -4.68604 0
M  V30 8663 H 857.32 1.06709 -2.79738 0
M  V30 8664 H 854.866 0.511884 -1.34595 0
M  V30 8665 H 856.819 3.46992 -2.39113 0
M  V30 8666 H 855.543 3.02523 -1.23074 0
M  V30 8667 H 854.202 1.97651 -3.08755 0
M  V30 8668 H 853.85 4.37664 -2.47909 0
M  V30 8669 H 853.55 4.09648 -4.21262 0
M  V30 8670 H 855.074 4.86689 -3.68736 0
M  V30 8671 H 856.488 2.95453 -4.91305 0
M  V30 8672 H 854.885 2.41637 -5.49301 0
M  V30 8673 H 855.955 1.25793 -4.68299 0
M  V30 8674 N 857.298 1.47698 0.54982 0
M  V30 8675 C 858.208 1.63386 1.68351 0
M  V30 8676 C 859.224 0.516583 1.66155 0
M  V30 8677 O 860.4 0.785088 1.85468 0
M  V30 8678 C 857.465 1.6513 3.04849 0
M  V30 8679 C 856.526 2.88338 3.18056 0
M  V30 8680 C 855.759 2.8999 4.48042 0
M  V30 8681 O 855.982 2.00633 5.3395 0
M  V30 8682 O 854.916 3.81938 4.65196 0
M  V30 8683 H 858.742 2.59329 1.58057 0
M  V30 8684 H 856.327 1.30869 0.72067 0
M  V30 8685 H 858.209 1.68913 3.86065 0
M  V30 8686 H 856.884 0.723555 3.1551 0
M  V30 8687 H 855.791 2.90097 2.36209 0
M  V30 8688 H 857.124 3.80431 3.12302 0
M  V30 8689 N 858.776 -0.797141 1.35954 0
M  V30 8690 C 860.004 -1.5858 1.32891 0
M  V30 8691 C 860.419 -1.88578 -0.0915564 0
M  V30 8692 O 859.776 -1.49532 -1.04625 0
M  V30 8693 C 859.827 -2.91143 2.14284 0
M  V30 8694 O 859.548 -2.62442 3.50793 0
M  V30 8695 C 861.049 -3.85476 2.18914 0
M  V30 8696 H 858.269 -0.492111 0.456144 0
M  V30 8697 H 860.813 -0.98994 1.78943 0
M  V30 8698 H 858.968 -3.47219 1.71807 0
M  V30 8699 H 859.382 -3.4715 3.93175 0
M  V30 8700 H 860.856 -4.75574 2.80238 0
M  V30 8701 H 861.333 -4.22758 1.19047 0
M  V30 8702 H 861.939 -3.35334 2.61593 0
M  V30 8703 N 860.254 -1.20106 -1.0204 0
M  V30 8704 C 861.479 -1.0351 -1.79723 0
M  V30 8705 C 861.904 0.411328 -1.83548 0
M  V30 8706 O 861.262 1.29608 -1.26773 0
M  V30 8707 C 861.31 -1.61876 -3.22224 0
M  V30 8708 O 860.414 -0.853813 -4.03465 0
M  V30 8709 H 859.755 -0.365299 -0.554484 0
M  V30 8710 H 862.285 -1.59316 -1.28373 0
M  V30 8711 H 862.295 -1.65451 -3.72948 0
M  V30 8712 H 860.97 -2.67148 -3.18755 0
M  V30 8713 H 859.547 -0.891983 -3.62075 0
M  V30 8714 N 861.732 1.21287 -1.00634 0
M  V30 8715 C 863.148 1.42467 -0.719389 0
M  V30 8716 C 863.348 1.88767 0.704927 0
M  V30 8717 O 862.404 2.05004 1.47409 0
M  V30 8718 C 863.717 2.455 -1.73639 0
M  V30 8719 C 865.265 2.59281 -1.75335 0
M  V30 8720 C 865.74 3.65547 -2.75934 0
M  V30 8721 N 867.231 3.73019 -2.74611 0
M  V30 8722 C 867.966 4.54873 -3.4911 0
M  V30 8723 N 867.462 5.40614 -4.33253 0
M  V30 8724 N 869.255 4.49309 -3.37754 0
M  V30 8725 H 861.406 0.895454 -1.92602 0
M  V30 8726 H 863.669 0.455491 -0.831404 0
M  V30 8727 H 863.375 2.18455 -2.75627 0
M  V30 8728 H 863.249 3.44325 -1.54014 0
M  V30 8729 H 865.636 2.85661 -0.740377 0
M  V30 8730 H 865.717 1.60685 -1.99032 0
M  V30 8731 H 865.361 3.39911 -3.77389 0
M  V30 8732 H 865.291 4.63741 -2.49503 0
M  V30 8733 H 867.782 3.11766 -2.13565 0
M  V30 8734 H 868.095 6.0013 -4.86892 0
M  V30 8735 H 866.44 5.40151 -4.37335 0
M  V30 8736 H 869.631 3.81357 -2.71449 0
M  V30 8737 H 869.804 5.12867 -3.9607 0
M  V30 8738 N 863.21 0.781244 1.36873 0
M  V30 8739 C 864.457 0.349889 1.99454 0
M  V30 8740 C 864.785 -1.07621 1.62013 0
M  V30 8741 O 864.04 -1.75665 0.86258 0
M  V30 8742 C 864.339 0.45146 3.54537 0
M  V30 8743 C 864.005 1.83718 4.11775 0
M  V30 8744 C 862.667 2.21634 4.2712 0
M  V30 8745 C 865.019 2.7449 4.43063 0
M  V30 8746 C 862.347 3.49742 4.7106 0
M  V30 8747 C 864.699 4.02017 4.88431 0
M  V30 8748 C 863.363 4.39967 5.01982 0
M  V30 8749 H 862.633 0.128033 0.729855 0
M  V30 8750 H 865.28 0.997117 1.63493 0
M  V30 8751 H 863.585 -0.279288 3.90803 0
M  V30 8752 H 865.282 0.0988609 4.00878 0
M  V30 8753 H 861.872 1.53251 4.00265 0
M  V30 8754 H 866.056 2.46453 4.30783 0
M  V30 8755 H 861.312 3.79026 4.79738 0
M  V30 8756 H 865.486 4.72475 5.11605 0
M  V30 8757 H 863.113 5.39291 5.35788 0
M  V30 8758 N 864.689 -1.48329 0.532571 0
M  V30 8759 C 865.917 -2.069 0.00354299 0
M  V30 8760 C 866.332 -1.38876 -1.27902 0
M  V30 8761 O 865.689 -0.477119 -1.76153 0
M  V30 8762 C 865.74 -3.60821 -0.221416 0
M  V30 8763 O 865.461 -4.26291 1.01034 0
M  V30 8764 C 866.962 -4.36194 -0.790531 0
M  V30 8765 H 864.182 -0.670103 0.0346836 0
M  V30 8766 H 866.726 -1.90682 0.738955 0
M  V30 8767 H 864.881 -3.76636 -0.906884 0
M  V30 8768 H 865.295 -5.18475 0.792683 0
M  V30 8769 H 866.769 -5.44657 -0.897347 0
M  V30 8770 H 867.246 -4.00798 -1.79605 0
M  V30 8771 H 867.852 -4.25064 -0.141546 0
M  V30 8772 N 866.167 -0.267825 -1.55308 0
M  V30 8773 C 867.114 0.6228 -2.22238 0
M  V30 8774 C 868.084 1.15536 -1.19334 0
M  V30 8775 O 869.269 1.206 -1.47852 0
M  V30 8776 C 866.409 1.80447 -2.94164 0
M  V30 8777 C 865.522 1.30646 -4.11771 0
M  V30 8778 C 864.657 2.44935 -4.7136 0
M  V30 8779 C 863.696 1.92099 -5.81175 0
M  V30 8780 N 862.833 2.99834 -6.34857 0
M  V30 8781 H 867.673 0.0453874 -2.97965 0
M  V30 8782 H 865.21 0.0106371 -1.47096 0
M  V30 8783 H 867.168 2.49896 -3.34078 0
M  V30 8784 H 865.798 2.35403 -2.20874 0
M  V30 8785 H 864.85 0.505314 -3.77029 0
M  V30 8786 H 866.162 0.879409 -4.90987 0
M  V30 8787 H 865.316 3.2239 -5.13955 0
M  V30 8788 H 864.055 2.90951 -3.91406 0
M  V30 8789 H 863.06 1.13122 -5.38037 0
M  V30 8790 H 864.285 1.47027 -6.62993 0
M  V30 8791 H 862.231 3.45246 -5.578 0
M  V30 8792 H 862.148 2.61524 -7.09324 0
M  V30 8793 H 863.416 3.77286 -6.82111 0
M  V30 8794 N 867.645 1.57599 0.00500368 0
M  V30 8795 C 868.575 2.11143 0.99705 0
M  V30 8796 C 869.556 1.0194 1.3617 0
M  V30 8797 O 870.741 1.29596 1.44632 0
M  V30 8798 C 867.871 2.61062 2.2905 0
M  V30 8799 C 866.825 3.74745 2.0676 0
M  V30 8800 C 866.151 4.10961 3.42075 0
M  V30 8801 C 867.451 5.02222 1.43424 0
M  V30 8802 H 869.145 2.94281 0.551251 0
M  V30 8803 H 866.691 1.41565 0.263715 0
M  V30 8804 H 868.644 2.97146 2.98801 0
M  V30 8805 H 867.368 1.75038 2.75734 0
M  V30 8806 H 866.027 3.39047 1.39436 0
M  V30 8807 H 865.675 3.21968 3.86453 0
M  V30 8808 H 865.375 4.87549 3.27979 0
M  V30 8809 H 866.899 4.49599 4.1315 0
M  V30 8810 H 868.313 5.36109 2.03125 0
M  V30 8811 H 866.71 5.83581 1.39831 0
M  V30 8812 H 867.78 4.83224 0.40285 0
M  V30 8813 N 869.123 -0.277682 1.55134 0
M  V30 8814 C 870.053 -1.34742 1.90701 0
M  V30 8815 C 871.034 -1.51757 0.768354 0
M  V30 8816 O 872.219 -1.64879 1.02609 0
M  V30 8817 C 869.349 -2.70775 2.17481 0
M  V30 8818 C 868.303 -2.68497 3.33307 0
M  V30 8819 C 867.629 -4.08037 3.45557 0
M  V30 8820 C 868.929 -2.28178 4.69821 0
M  V30 8821 H 870.623 -1.05224 2.803 0
M  V30 8822 H 868.169 -0.504738 1.34864 0
M  V30 8823 H 870.122 -3.45719 2.40949 0
M  V30 8824 H 868.846 -3.01867 1.24676 0
M  V30 8825 H 867.505 -1.9601 3.09799 0
M  V30 8826 H 867.153 -4.36344 2.50226 0
M  V30 8827 H 866.853 -4.07409 4.23429 0
M  V30 8828 H 868.377 -4.84726 3.71312 0
M  V30 8829 H 869.791 -2.92843 4.92865 0
M  V30 8830 H 868.188 -2.3872 5.50575 0
M  V30 8831 H 869.258 -1.23308 4.6896 0
M  V30 8832 N 870.601 -1.47988 -0.541979 0
M  V30 8833 C 871.531 -1.64503 -1.65713 0
M  V30 8834 C 872.512 -0.494116 -1.62765 0
M  V30 8835 O 873.697 -0.725256 -1.80149 0
M  V30 8836 C 870.827 -1.67337 -3.04328 0
M  V30 8837 C 869.781 -2.81809 -3.2213 0
M  V30 8838 C 869.107 -2.69724 -4.61685 0
M  V30 8839 C 870.407 -4.23241 -3.06046 0
M  V30 8840 H 872.101 -2.5786 -1.52147 0
M  V30 8841 H 869.647 -1.24094 -0.730529 0
M  V30 8842 H 871.6 -1.77481 -3.82202 0
M  V30 8843 H 870.324 -0.705514 -3.18889 0
M  V30 8844 H 868.983 -2.71201 -2.46669 0
M  V30 8845 H 868.631 -1.70934 -4.73065 0
M  V30 8846 H 868.331 -3.4653 -4.74543 0
M  V30 8847 H 869.855 -2.81818 -5.41674 0
M  V30 8848 H 871.269 -4.34746 -3.73723 0
M  V30 8849 H 869.666 -5.00952 -3.30405 0
M  V30 8850 H 870.736 -4.40543 -2.02609 0
M  V30 8851 N 872.079 0.78992 -1.36375 0
M  V30 8852 C 873.026 1.90254 -1.3066 0
M  V30 8853 C 873.996 1.65171 -0.17539 0
M  V30 8854 O 875.181 1.87338 -0.361824 0
M  V30 8855 C 872.321 3.27057 -1.10125 0
M  V30 8856 C 871.434 3.64215 -2.32317 0
M  V30 8857 C 870.569 4.90134 -2.04798 0
M  V30 8858 C 869.608 5.19969 -3.22953 0
M  V30 8859 N 868.745 6.37071 -2.95102 0
M  V30 8860 H 873.585 1.94474 -2.25796 0
M  V30 8861 H 871.122 0.951022 -1.12223 0
M  V30 8862 H 873.08 4.05947 -0.962453 0
M  V30 8863 H 871.71 3.22261 -0.186444 0
M  V30 8864 H 870.762 2.80454 -2.57002 0
M  V30 8865 H 872.074 3.82212 -3.20492 0
M  V30 8866 H 871.228 5.76888 -1.87845 0
M  V30 8867 H 869.967 4.74205 -1.13932 0
M  V30 8868 H 868.972 4.31699 -3.40465 0
M  V30 8869 H 870.197 5.37817 -4.14644 0
M  V30 8870 H 868.143 6.22535 -2.06848 0
M  V30 8871 H 868.06 6.55398 -3.76815 0
M  V30 8872 H 869.328 7.26808 -2.81727 0
M  V30 8873 N 873.557 1.20646 1.01402 0
M  V30 8874 C 874.487 0.98155 2.11867 0
M  V30 8875 C 875.468 -0.0903712 1.6986 0
M  V30 8876 O 876.653 0.0676586 1.94082 0
M  V30 8877 C 873.783 0.535636 3.43145 0
M  V30 8878 C 872.737 1.55109 3.98905 0
M  V30 8879 C 872.063 0.961725 5.2598 0
M  V30 8880 C 873.363 2.93552 4.32001 0
M  V30 8881 H 875.057 1.90544 2.3094 0
M  V30 8882 H 872.603 0.917554 1.10982 0
M  V30 8883 H 874.556 0.365512 4.19812 0
M  V30 8884 H 873.28 -0.423882 3.23838 0
M  V30 8885 H 871.939 1.70862 3.24348 0
M  V30 8886 H 871.587 -0.00580108 5.03 0
M  V30 8887 H 871.287 1.63993 5.64252 0
M  V30 8888 H 872.811 0.802726 6.053 0
M  V30 8889 H 874.225 2.81295 4.99546 0
M  V30 8890 H 872.622 3.58303 4.81393 0
M  V30 8891 H 873.692 3.4508 3.40658 0
M  V30 8892 N 875.035 -1.20752 1.01276 0
M  V30 8893 C 876.446 -1.7175 0.732033 0
M  V30 8894 C 876.797 -1.8131 -0.749733 0
M  V30 8895 O 875.922 -1.47301 -1.58529 0
M  V30 8896 C 876.517 -3.11936 1.32217 0
M  V30 8897 C 875.076 -3.6026 1.09039 0
M  V30 8898 C 874.223 -2.37571 1.43022 0
M  V30 8899 H 877.174 -1.0582 1.1827 0
M  V30 8900 H 877.195 -3.73802 0.710771 0
M  V30 8901 H 876.707 -3.04946 2.40061 0
M  V30 8902 H 874.808 -3.72588 0.0294464 0
M  V30 8903 H 874.921 -4.45295 1.76775 0
M  V30 8904 H 873.285 -2.40128 0.849159 0
M  V30 8905 H 874.068 -2.33225 2.51915 0
M  V30 8906 N 876.513 -0.788492 -1.36457 0
M  V30 8907 C 877.79 -0.284484 -1.9352 0
M  V30 8908 C 878.17 1.2232 -1.7205 0
M  V30 8909 O 877.518 2.01424 -1.07892 0
M  V30 8910 C 877.728 -0.676106 -3.42388 0
M  V30 8911 C 879.076 -0.655327 -4.19512 0
M  V30 8912 O 880.1 -0.616523 -3.50824 0
M  V30 8913 O 878.959 -0.697391 -5.42032 0
M  V30 8914 H 876.053 -0.0701769 -0.824017 0
M  V30 8915 H 878.599 -0.870974 -1.45644 0
M  V30 8916 H 877.371 -1.71596 -3.51668 0
M  V30 8917 H 876.994 -0.0634517 -3.97549 0
M  V30 8918 N 877.991 1.48044 -0.54043 0
M  V30 8919 C 878.921 2.32597 0.205178 0
M  V30 8920 C 879.902 1.42748 0.925041 0
M  V30 8921 O 881.087 1.71624 0.908784 0
M  V30 8922 C 878.217 3.24175 1.24612 0
M  V30 8923 C 877.171 4.23131 0.64376 0
M  V30 8924 C 876.497 5.03915 1.78812 0
M  V30 8925 C 877.797 5.20831 -0.39144 0
M  V30 8926 H 879.491 2.95184 -0.500676 0
M  V30 8927 H 877.037 1.41948 -0.242225 0
M  V30 8928 H 878.99 3.82158 1.77576 0
M  V30 8929 H 877.714 2.59608 1.98169 0
M  V30 8930 H 876.373 3.66349 0.135554 0
M  V30 8931 H 876.021 4.35765 2.51232 0
M  V30 8932 H 875.721 5.709 1.39094 0
M  V30 8933 H 877.245 5.64753 2.32134 0
M  V30 8934 H 878.659 5.73277 0.0515064 0
M  V30 8935 H 877.056 5.95926 -0.706569 0
M  V30 8936 H 878.126 4.6733 -1.29345 0
M  V30 8937 N 879.47 0.276058 1.55163 0
M  V30 8938 C 880.886 -0.0780579 1.59409 0
M  V30 8939 C 881.086 -1.54521 1.29327 0
M  V30 8940 O 880.142 -2.29422 1.05459 0
M  V30 8941 C 881.455 0.297422 2.99225 0
M  V30 8942 C 883.003 0.244117 3.12047 0
M  V30 8943 C 883.478 0.594051 4.54131 0
M  V30 8944 N 884.969 0.54564 4.59975 0
M  V30 8945 C 885.704 0.789192 5.67943 0
M  V30 8946 N 885.2 1.09741 6.84053 0
M  V30 8947 N 886.993 0.717926 5.57496 0
M  V30 8948 H 879.144 1.23251 1.72982 0
M  V30 8949 H 881.407 0.497988 0.806667 0
M  V30 8950 H 881.113 1.31782 3.26077 0
M  V30 8951 H 880.987 -0.361286 3.75466 0
M  V30 8952 H 883.374 -0.766992 2.84958 0
M  V30 8953 H 883.455 0.937097 2.38017 0
M  V30 8954 H 883.099 1.60285 4.81945 0
M  V30 8955 H 883.029 -0.120728 5.26462 0
M  V30 8956 H 885.52 0.317334 3.76565 0
M  V30 8957 H 885.833 1.26989 7.62295 0
M  V30 8958 H 884.178 1.13519 6.85666 0
M  V30 8959 H 887.369 0.47697 4.65664 0
M  V30 8960 H 887.542 0.911118 6.41563 0
M  V30 8961 N 880.948 -1.576 0.00335426 0
M  V30 8962 C 882.176 -1.94996 -0.691685 0
M  V30 8963 C 882.591 -0.878405 -1.67121 0
M  V30 8964 O 881.948 0.142343 -1.81944 0
M  V30 8965 C 881.999 -3.32416 -1.42063 0
M  V30 8966 O 881.72 -4.35458 -0.48038 0
M  V30 8967 C 883.221 -3.84291 -2.20987 0
M  V30 8968 H 880.441 -0.642814 -0.192434 0
M  V30 8969 H 882.985 -2.04425 0.0554706 0
M  V30 8970 H 881.14 -3.24285 -2.11939 0
M  V30 8971 H 881.554 -5.14975 -0.995054 0
M  V30 8972 H 883.028 -4.82863 -2.67483 0
M  V30 8973 H 883.505 -3.17174 -3.03805 0
M  V30 8974 H 884.111 -3.95609 -1.56121 0
M  V30 8975 N 882.426 0.269451 -1.5528 0
M  V30 8976 C 883.356 1.33729 -1.91413 0
M  V30 8977 C 884.337 1.51348 -0.776391 0
M  V30 8978 O 885.522 1.64332 -1.03482 0
M  V30 8979 C 882.652 2.69618 -2.18914 0
M  V30 8980 C 881.606 2.66725 -3.34726 0
M  V30 8981 C 880.932 4.06199 -3.47716 0
M  V30 8982 C 882.232 2.25684 -4.71025 0
M  V30 8983 H 883.926 1.03736 -2.80854 0
M  V30 8984 H 881.472 0.497579 -1.3513 0
M  V30 8985 H 883.425 3.44436 -2.42779 0
M  V30 8986 H 882.149 3.01201 -1.26275 0
M  V30 8987 H 880.808 1.94365 -3.10834 0
M  V30 8988 H 880.456 4.3501 -2.52537 0
M  V30 8989 H 880.156 4.05157 -4.25583 0
M  V30 8990 H 881.68 4.8275 -3.73877 0
M  V30 8991 H 883.094 2.90225 -4.94411 0
M  V30 8992 H 881.491 2.35797 -5.51833 0
M  V30 8993 H 882.561 1.20819 -4.69607 0
M  V30 8994 N 883.904 1.48273 0.534124 0
M  V30 8995 C 884.852 1.62926 1.66005 0
M  V30 8996 C 885.846 0.495814 1.61982 0
M  V30 8997 O 887.052 0.6744 1.66889 0
M  V30 8998 H 883.427 0.513163 0.549698 0
M  V30 8999 H 885.398 2.57498 1.50789 0
M  V30 9000 C 884.147 1.68231 3.04292 0
M  V30 9001 H 883.47 2.54807 3.0808 0
M  V30 9002 H 884.91 1.82528 3.827 0
M  V30 9003 C 883.369 0.420154 3.3427 0
M  V30 9004 O 883.899 -0.468769 3.98955 0
M  V30 9005 N 882.105 0.293115 2.89118 0
M  V30 9006 H 881.652 1.01745 2.36655 0
M  V30 9007 H 881.61 -0.550376 3.09545 0
M  V30 9008 N 885.382 -0.782676 1.36792 0
M  V30 9009 C 886.33 -1.91698 1.31737 0
M  V30 9010 C 887.324 -1.68118 0.207994 0
M  V30 9011 O 888.53 -1.76042 0.375393 0
M  V30 9012 H 884.905 -0.630215 0.410284 0
M  V30 9013 H 886.876 -1.93078 2.27516 0
M  V30 9014 C 885.625 -3.28816 1.13029 0
M  V30 9015 H 884.948 -3.4753 1.97643 0
M  V30 9016 H 886.388 -4.08515 1.13541 0
M  V30 9017 C 884.847 -3.36497 -0.1647 0
M  V30 9018 O 885.377 -3.84822 -1.15216 0
M  V30 9019 N 883.583 -2.89828 -0.211678 0
M  V30 9020 H 883.13 -2.50693 0.59252 0
M  V30 9021 H 883.088 -2.95349 -1.07779 0
M  V30 9022 N 886.86 -1.21182 -1.00761 0
M  V30 9023 C 887.793 -0.912033 -2.09182 0
M  V30 9024 C 888.771 0.139421 -1.62001 0
M  V30 9025 O 889.955 0.0110272 -1.88497 0
M  V30 9026 C 887.082 -0.368957 -3.36684 0
M  V30 9027 C 886.128 -1.4028 -4.0277 0
M  V30 9028 S 886.961 -2.97108 -4.45519 0
M  V30 9029 C 888.117 -2.444 -5.76211 0
M  V30 9030 H 888.35 -1.83019 -2.34289 0
M  V30 9031 H 885.883 -1.04127 -1.14004 0
M  V30 9032 H 887.841 -0.0621883 -4.10453 0
M  V30 9033 H 886.502 0.527841 -3.09633 0
M  V30 9034 H 885.695 -0.97238 -4.94531 0
M  V30 9035 H 885.297 -1.65752 -3.35265 0
M  V30 9036 H 887.589 -1.84723 -6.51831 0
M  V30 9037 H 888.532 -3.34593 -6.24062 0
M  V30 9038 H 888.94 -1.86203 -5.32906 0
M  V30 9039 N 888.338 1.20213 -1.01915 0
M  V30 9040 C 889.288 2.20957 -0.562327 0
M  V30 9041 C 890.272 1.56258 0.383704 0
M  V30 9042 O 891.464 1.75794 0.206255 0
M  V30 9043 C 888.593 3.43167 0.0954035 0
M  V30 9044 C 887.679 4.15028 -0.872487 0
M  V30 9045 N 888.07 4.63231 -2.03103 0
M  V30 9046 C 886.368 4.4057 -0.69385 0
M  V30 9047 C 887.069 5.18307 -2.64069 0
M  V30 9048 N 886.045 5.08522 -1.9211 0
M  V30 9049 H 889.847 2.55894 -1.44553 0
M  V30 9050 H 887.361 1.36178 -0.884831 0
M  V30 9051 H 889.358 4.14569 0.440232 0
M  V30 9052 H 888.018 3.09734 0.974413 0
M  V30 9053 H 889.029 4.58365 -2.41086 0
M  V30 9054 H 885.706 4.17276 0.136889 0
M  V30 9055 H 887.096 5.65961 -3.6213 0
M  V30 9056 N 889.816 0.795718 1.36037 0
M  V30 9057 C 891.041 0.38204 2.03851 0
M  V30 9058 C 891.466 -0.995553 1.59594 0
M  V30 9059 O 890.824 -1.64258 0.767401 0
M  V30 9060 C 890.872 0.461248 3.57638 0
M  V30 9061 O 889.976 -0.529448 4.08987 0
M  V30 9062 H 889.317 0.161227 0.644129 0
M  V30 9063 H 891.847 1.07858 1.73861 0
M  V30 9064 H 891.857 0.32712 4.06687 0
M  V30 9065 H 890.532 1.46613 3.89201 0
M  V30 9066 H 889.109 -0.35646 3.71192 0
M  V30 9067 N 891.294 -1.47756 0.548274 0
M  V30 9068 C 892.204 -2.33678 -0.207773 0
M  V30 9069 C 893.22 -1.47636 -0.920843 0
M  V30 9070 O 894.396 -1.80583 -0.89173 0
M  V30 9071 C 891.461 -3.24147 -1.23003 0
M  V30 9072 C 890.522 -4.26073 -0.52535 0
M  V30 9073 C 889.755 -5.12219 -1.4989 0
M  V30 9074 O 889.978 -5.0066 -2.73305 0
M  V30 9075 O 888.912 -5.93051 -1.02828 0
M  V30 9076 H 892.738 -2.99609 0.496794 0
M  V30 9077 H 890.323 -1.4617 0.308982 0
M  V30 9078 H 892.205 -3.80055 -1.82034 0
M  V30 9079 H 890.88 -2.60855 -1.91668 0
M  V30 9080 H 889.787 -3.7395 0.105927 0
M  V30 9081 H 891.12 -4.92054 0.119686 0
M  V30 9082 N 892.772 -0.284283 -1.55015 0
M  V30 9083 C 893.719 0.599194 -2.22886 0
M  V30 9084 C 894.689 1.14264 -1.20553 0
M  V30 9085 O 895.874 1.19025 -1.49123 0
M  V30 9086 C 893.014 1.77317 -2.96062 0
M  V30 9087 C 892.127 1.26271 -4.13134 0
M  V30 9088 C 891.262 2.39922 -4.73931 0
M  V30 9089 C 890.301 1.85925 -5.8318 0
M  V30 9090 N 889.438 2.93084 -6.38002 0
M  V30 9091 H 894.278 0.0137816 -2.97997 0
M  V30 9092 H 891.815 -0.00496503 -1.47099 0
M  V30 9093 H 893.773 2.46339 -3.36709 0
M  V30 9094 H 892.403 2.33047 -2.23358 0
M  V30 9095 H 891.455 0.465296 -3.77544 0
M  V30 9096 H 892.767 0.827284 -4.91892 0
M  V30 9097 H 891.921 3.1692 -5.17346 0
M  V30 9098 H 890.66 2.86784 -3.9447 0
M  V30 9099 H 889.665 1.07409 -5.39206 0
M  V30 9100 H 890.89 1.39987 -6.64515 0
M  V30 9101 H 888.836 3.3931 -5.61431 0
M  V30 9102 H 888.753 2.53986 -7.12058 0
M  V30 9103 H 890.021 3.7003 -6.86075 0
M  V30 9104 N 894.251 1.57596 -0.0117121 0
M  V30 9105 C 895.181 2.12188 0.9746 0
M  V30 9106 C 896.162 1.03379 1.35081 0
M  V30 9107 O 897.347 1.31123 1.4325 0
M  V30 9108 C 894.477 2.63477 2.26268 0
M  V30 9109 C 893.431 3.76917 2.02774 0
M  V30 9110 C 892.757 4.14566 3.37697 0
M  V30 9111 C 894.057 5.03715 1.38089 0
M  V30 9112 H 895.751 2.9485 0.520007 0
M  V30 9113 H 893.297 1.41836 0.248685 0
M  V30 9114 H 895.25 3.00299 2.95633 0
M  V30 9115 H 893.974 1.77953 2.73862 0
M  V30 9116 H 892.633 3.40507 1.35832 0
M  V30 9117 H 892.281 3.26048 3.83016 0
M  V30 9118 H 891.981 4.91 3.22789 0
M  V30 9119 H 893.505 4.53956 4.08358 0
M  V30 9120 H 894.919 5.38233 1.97428 0
M  V30 9121 H 893.316 5.85032 1.33634 0
M  V30 9122 H 894.386 4.83624 0.351575 0
M  V30 9123 N 895.729 -0.261212 1.5542 0
M  V30 9124 C 896.659 -1.32712 1.92119 0
M  V30 9125 C 897.64 -1.50934 0.784406 0
M  V30 9126 O 898.825 -1.63781 1.04352 0
M  V30 9127 C 895.955 -2.68453 2.20341 0
M  V30 9128 C 894.909 -2.64947 3.36136 0
M  V30 9129 C 894.235 -4.04349 3.49865 0
M  V30 9130 C 895.535 -2.23182 4.72215 0
M  V30 9131 H 897.229 -1.02245 2.81401 0
M  V30 9132 H 894.775 -0.490406 1.35392 0
M  V30 9133 H 896.728 -3.43144 2.44603 0
M  V30 9134 H 895.452 -3.00527 1.27871 0
M  V30 9135 H 894.111 -1.92714 3.11861 0
M  V30 9136 H 893.759 -4.33665 2.5484 0
M  V30 9137 H 893.459 -4.02895 4.27726 0
M  V30 9138 H 894.983 -4.80761 3.76432 0
M  V30 9139 H 896.397 -2.87599 4.95943 0
M  V30 9140 H 894.794 -2.32867 5.53076 0
M  V30 9141 H 895.864 -1.18327 4.70241 0
M  V30 9142 N 897.207 -1.48554 -0.526253 0
M  V30 9143 C 898.432 -1.60686 -1.31129 0
M  V30 9144 C 898.857 -0.268701 -1.86171 0
M  V30 9145 O 898.215 0.760167 -1.64594 0
M  V30 9146 C 898.263 -2.65938 -2.43536 0
M  V30 9147 O 897.367 -2.23356 -3.46678 0
M  V30 9148 H 896.708 -0.538691 -0.388211 0
M  V30 9149 H 899.238 -1.94567 -0.632826 0
M  V30 9150 H 899.248 -2.87327 -2.89668 0
M  V30 9151 H 897.923 -3.63085 -2.02835 0
M  V30 9152 H 896.5 -2.12196 -3.06639 0
M  V30 9153 N 898.685 0.775411 -1.37205 0
M  V30 9154 C 899.932 1.53384 -1.32211 0
M  V30 9155 C 900.26 1.9427 0.0944958 0
M  V30 9156 O 899.515 1.64059 1.06692 0
M  V30 9157 C 899.814 2.81377 -2.20367 0
M  V30 9158 C 899.48 2.59561 -3.68699 0
M  V30 9159 C 898.142 2.53319 -4.09124 0
M  V30 9160 C 900.494 2.39939 -4.62686 0
M  V30 9161 C 897.822 2.25442 -5.41658 0
M  V30 9162 C 900.174 2.13586 -5.95453 0
M  V30 9163 C 898.838 2.05786 -6.34987 0
M  V30 9164 H 898.108 0.561271 -0.483793 0
M  V30 9165 H 900.755 0.893466 -1.6938 0
M  V30 9166 H 899.06 3.49954 -1.76181 0
M  V30 9167 H 900.757 3.39238 -2.13819 0
M  V30 9168 H 897.347 2.6528 -3.36637 0
M  V30 9169 H 901.531 2.43753 -4.32317 0
M  V30 9170 H 896.787 2.17896 -5.71254 0
M  V30 9171 H 900.961 1.97401 -6.67837 0
M  V30 9172 H 898.588 1.83948 -7.37609 0
M  V30 9173 N 900.163 1.21714 1.00117 0
M  V30 9174 C 901.579 0.97532 1.26332 0
M  V30 9175 C 901.779 -0.336029 1.98678 0
M  V30 9176 O 900.835 -1.06073 2.29139 0
M  V30 9177 C 902.148 2.16848 2.0832 0
M  V30 9178 C 903.696 2.21115 2.21533 0
M  V30 9179 C 904.171 3.3996 3.06906 0
M  V30 9180 N 905.662 3.40071 3.14494 0
M  V30 9181 C 906.397 4.28678 3.80818 0
M  V30 9182 N 905.893 5.2749 4.49139 0
M  V30 9183 N 907.686 4.16476 3.77497 0
M  V30 9184 H 899.837 2.06039 0.515897 0
M  V30 9185 H 902.1 0.902423 0.290408 0
M  V30 9186 H 901.806 3.119 1.62515 0
M  V30 9187 H 901.68 2.16226 3.09073 0
M  V30 9188 H 904.067 1.26616 2.66557 0
M  V30 9189 H 904.148 2.2578 1.20238 0
M  V30 9190 H 903.792 4.34755 2.62585 0
M  V30 9191 H 903.722 3.32534 4.08324 0
M  V30 9192 H 906.213 2.68563 2.65861 0
M  V30 9193 H 906.526 5.91397 4.97463 0
M  V30 9194 H 904.871 5.31412 4.47914 0
M  V30 9195 H 908.062 3.38539 3.23278 0
M  V30 9196 H 908.235 4.85739 4.28908 0
M  V30 9197 N 901.641 -1.19671 1.02551 0
M  V30 9198 C 902.887 -1.89548 0.721069 0
M  V30 9199 C 903.22 -1.79209 -0.748176 0
M  V30 9200 O 902.495 -1.1822 -1.54448 0
M  V30 9201 C 902.778 -3.4061 1.16861 0
M  V30 9202 C 902.631 -3.59838 2.69883 0
M  V30 9203 C 903.95 -4.33718 0.746782 0
M  V30 9204 H 901.069 -0.688315 0.263422 0
M  V30 9205 H 903.711 -1.40883 1.27483 0
M  V30 9206 H 901.861 -3.82188 0.697477 0
M  V30 9207 H 903.533 -3.27454 3.24917 0
M  V30 9208 H 901.776 -3.03005 3.10435 0
M  V30 9209 H 902.447 -4.65766 2.96253 0
M  V30 9210 H 904.923 -3.99837 1.15195 0
M  V30 9211 H 903.799 -5.38012 1.08786 0
M  V30 9212 H 904.06 -4.40704 -0.351057 0
M  V30 9213 N 903.119 -0.802921 -1.35613 0
M  V30 9214 C 904.396 -0.304993 -1.93208 0
M  V30 9215 C 904.776 1.20488 -1.73337 0
M  V30 9216 O 904.124 2.00268 -1.10022 0
M  V30 9217 C 904.334 -0.712383 -3.41652 0
M  V30 9218 C 905.682 -0.699785 -4.18794 0
M  V30 9219 O 906.706 -0.653698 -3.5015 0
M  V30 9220 O 905.565 -0.754842 -5.41262 0
M  V30 9221 H 902.659 -0.0789127 -0.823226 0
M  V30 9222 H 905.205 -0.886372 -1.44712 0
M  V30 9223 H 903.977 -1.75316 -3.49829 0
M  V30 9224 H 903.6 -0.105614 -3.9746 0
M  V30 9225 N 904.597 1.47463 -0.556102 0
M  V30 9226 C 905.56 2.28478 0.181743 0
M  V30 9227 C 906.56 1.36886 0.843738 0
M  V30 9228 O 907.75 1.59527 0.69977 0
M  V30 9229 C 904.882 3.16534 1.26566 0
M  V30 9230 H 906.075 2.95182 -0.529892 0
M  V30 9231 H 903.628 1.53134 -0.313005 0
M  V30 9232 H 904.363 2.5452 2.00973 0
M  V30 9233 H 904.148 3.83939 0.795798 0
M  V30 9234 H 905.638 3.77579 1.78393 0
M  V30 9235 N 906.075 0.2925 1.54862 0
M  V30 9236 C 907.007 -0.620889 2.2063 0
M  V30 9237 C 908.02 -1.10412 1.19637 0
M  V30 9238 O 909.209 -1.02304 1.46274 0
M  V30 9239 C 906.309 -1.861 2.83232 0
M  V30 9240 C 905.482 -1.52168 4.10078 0
M  V30 9241 C 904.541 -2.61605 4.56562 0
M  V30 9242 O 903.567 -2.27056 5.21952 0
M  V30 9243 N 904.769 -3.9199 4.28163 0
M  V30 9244 H 907.534 -0.0579028 2.99644 0
M  V30 9245 H 905.095 0.114333 1.61496 0
M  V30 9246 H 907.087 -2.58642 3.11266 0
M  V30 9247 H 905.657 -2.33259 2.08108 0
M  V30 9248 H 904.877 -0.629283 3.89145 0
M  V30 9249 H 906.165 -1.27023 4.92689 0
M  V30 9250 H 905.563 -4.22872 3.7576 0
M  V30 9251 H 904.12 -4.60857 4.60928 0
M  V30 9252 O 907.592 -1.60718 0.15878 0
M  V30 9253 H 908.283 -1.88795 -0.433148 0
M  V30 END ATOM
M  V30 BEGIN BOND
M  V30 END BOND
M  V30 END CTAB
M  END
$$$$
