drugbank_target|P20581 Uncharacterized protein PA1000 (DB07418)
 OpenBabel12092120423D

  0  0  0     0  0            999 V3000
M  V30 BEGIN CTAB
M  V30 COUNTS 4794 4850 0 0 0
M  V30 BEGIN ATOM
M  V30 1 H -0.908 1.98254 -0.117106 0
M  V30 2 N 0 1.576 0 0
M  V30 3 C 0.933 2.03868 1.02534 0
M  V30 4 C 1.911 0.928543 1.3348 0
M  V30 5 O 3.095 1.19667 1.45644 0
M  V30 6 C 0.222 2.43627 2.35294 0
M  V30 7 C -0.732 3.65373 2.2001 0
M  V30 8 S 0.101 5.13292 1.52614 0
M  V30 9 C 1.257 5.56322 2.86805 0
M  V30 10 H 1.49 2.90518 0.631377 0
M  V30 11 H -0.977 1.52953 0.210867 0
M  V30 12 H 0.981 2.67203 3.11629 0
M  V30 13 H -0.358 1.57376 2.7183 0
M  V30 14 H -1.165 3.90944 3.18086 0
M  V30 15 H -1.563 3.418 1.51819 0
M  V30 16 H 0.729 5.58782 3.83104 0
M  V30 17 H 1.672 6.56266 2.65933 0
M  V30 18 H 2.08 4.83886 2.90714 0
M  V30 19 N 1.4781 -0.272755 1.55222 0
M  V30 20 C 2.4081 -1.34136 1.91127 0
M  V30 21 C 3.3891 -1.51513 0.773168 0
M  V30 22 O 4.5741 -1.64552 1.03132 0
M  V30 23 C 1.7041 -2.70083 2.1834 0
M  V30 24 C 0.6581 -2.67437 3.34158 0
M  V30 25 C -0.0159 -4.06938 3.46851 0
M  V30 26 C 1.2841 -2.26686 4.70543 0
M  V30 27 H 2.9781 -1.04333 2.80633 0
M  V30 28 H 0.5241 -0.500454 1.35024 0
M  V30 29 H 2.4771 -3.44952 2.42046 0
M  V30 30 H 1.2011 -3.01469 1.25634 0
M  V30 31 H -0.1399 -1.95026 3.1042 0
M  V30 32 H -0.4919 -4.35547 2.51611 0
M  V30 33 H -0.7919 -4.06062 4.2472 0
M  V30 34 H 0.7321 -4.83545 3.72849 0
M  V30 35 H 2.1461 -2.91277 4.93792 0
M  V30 36 H 0.5431 -2.36971 5.5133 0
M  V30 37 H 1.6131 -1.21818 4.69349 0
M  V30 38 N 2.9562 -1.48159 -0.537278 0
M  V30 39 C 4.3722 -1.34118 -0.865129 0
M  V30 40 C 4.5722 -0.346678 -1.98495 0
M  V30 41 O 3.6282 0.234715 -2.51407 0
M  V30 42 C 4.9412 -2.73963 -1.23954 0
M  V30 43 C 6.4892 -2.82397 -1.34984 0
M  V30 44 C 6.9642 -4.22928 -1.75772 0
M  V30 45 N 8.4552 -4.25566 -1.82887 0
M  V30 46 C 9.1902 -5.31235 -2.15817 0
M  V30 47 N 8.6862 -6.47189 -2.47222 0
M  V30 48 N 10.4792 -5.18624 -2.16761 0
M  V30 49 H 2.6302 -2.1144 0.201715 0
M  V30 50 H 4.8932 -0.947598 0.0275949 0
M  V30 51 H 4.5992 -3.48264 -0.490381 0
M  V30 52 H 4.4732 -3.0702 -2.19132 0
M  V30 53 H 6.8602 -2.08356 -2.08978 0
M  V30 54 H 6.9412 -2.5297 -0.379448 0
M  V30 55 H 6.5852 -4.97482 -1.02341 0
M  V30 56 H 6.5152 -4.49794 -2.73848 0
M  V30 57 H 9.0062 -3.41924 -1.60924 0
M  V30 58 H 9.3192 -7.23564 -2.71433 0
M  V30 59 H 7.6642 -6.50476 -2.44757 0
M  V30 60 H 10.8552 -4.27056 -1.91679 0
M  V30 61 H 11.0282 -6.01078 -2.42093 0
M  V30 62 N 4.4343 0.785586 -1.36625 0
M  V30 63 C 5.3643 1.91259 -1.33949 0
M  V30 64 C 6.3453 1.68795 -0.210325 0
M  V30 65 O 7.5303 1.89854 -0.408561 0
M  V30 66 C 4.6603 3.28339 -1.13186 0
M  V30 67 C 3.6143 3.65335 -2.22967 0
M  V30 68 C 2.9403 5.00806 -1.87342 0
M  V30 69 C 4.2403 3.7352 -3.65075 0
M  V30 70 H 5.9343 1.93755 -2.28253 0
M  V30 71 H 3.4803 0.930788 -1.09874 0
M  V30 72 H 5.4333 4.06804 -1.09948 0
M  V30 73 H 4.1573 3.2624 -0.153332 0
M  V30 74 H 2.8163 2.89169 -2.25337 0
M  V30 75 H 2.4643 4.95233 -0.880545 0
M  V30 76 H 2.1643 5.26529 -2.60846 0
M  V30 77 H 3.6883 5.81687 -1.85667 0
M  V30 78 H 5.1023 4.42168 -3.64911 0
M  V30 79 H 3.4993 4.10731 -4.37516 0
M  V30 80 H 4.5693 2.74527 -3.99703 0
M  V30 81 N 5.9124 1.20967 1.01018 0
M  V30 82 C 7.1374 1.0503 1.78839 0
M  V30 83 C 7.5624 -0.395752 1.8389 0
M  V30 84 O 6.9204 -1.28529 1.27867 0
M  V30 85 C 6.9684 1.64602 3.2084 0
M  V30 86 O 6.0724 0.887988 4.02726 0
M  V30 87 H 5.4134 0.369987 0.551367 0
M  V30 88 H 7.9434 1.60399 1.27018 0
M  V30 89 H 7.9534 1.68607 3.71532 0
M  V30 90 H 6.6284 2.69841 3.16479 0
M  V30 91 H 5.2054 0.922648 3.61305 0
M  V30 92 N 7.3905 -1.2043 1.01659 0
M  V30 93 C 8.3535 -2.21433 0.591616 0
M  V30 94 C 9.3535 -1.57203 -0.338226 0
M  V30 95 O 10.5435 -1.73737 -0.126918 0
M  V30 96 C 7.6755 -3.40628 -0.136058 0
M  V30 97 H 8.8685 -2.60545 1.48514 0
M  V30 98 H 6.4215 -1.33893 0.806379 0
M  V30 99 H 7.1565 -3.07019 -1.04449 0
M  V30 100 H 6.9415 -3.88475 0.531917 0
M  V30 101 H 8.4315 -4.15475 -0.420735 0
M  V30 102 N 8.8686 -0.792821 -1.36206 0
M  V30 103 C 10.2796 -0.429513 -1.81692 0
M  V30 104 C 10.6306 1.04695 -1.65932 0
M  V30 105 O 9.7556 1.81256 -1.18218 0
M  V30 106 C 10.3506 -0.772831 -3.29868 0
M  V30 107 C 8.9096 -0.462307 -3.7355 0
M  V30 108 C 8.0566 -1.00569 -2.5842 0
M  V30 109 H 11.0076 -0.985672 -1.24379 0
M  V30 110 H 11.0286 -0.0651928 -3.80444 0
M  V30 111 H 10.5406 -1.84747 -3.41307 0
M  V30 112 H 8.6416 0.604158 -3.67669 0
M  V30 113 H 8.7546 -0.985299 -4.68859 0
M  V30 114 H 7.1186 -0.428734 -2.51066 0
M  V30 115 H 7.9016 -2.08616 -2.72643 0
M  V30 116 N 10.3467 1.47872 -0.545128 0
M  V30 117 C 11.5947 2.02093 -0.016553 0
M  V30 118 C 11.9157 1.42305 1.3332 0
M  V30 119 O 11.1857 0.593853 1.86682 0
M  V30 120 H 9.7657 0.746993 -0.00313038 0
M  V30 121 H 12.4277 1.81414 -0.712397 0
M  V30 122 H 11.5237 3.11996 0.0805422 0
M  V30 123 N 11.8248 0.280983 1.55075 0
M  V30 124 C 12.7568 -0.637268 2.20163 0
M  V30 125 C 13.7698 -1.11298 1.18813 0
M  V30 126 O 14.9588 -1.03388 1.4551 0
M  V30 127 C 12.0588 -1.88199 2.81841 0
M  V30 128 C 11.2318 -1.55211 4.08936 0
M  V30 129 C 10.2908 -2.64991 4.54606 0
M  V30 130 O 9.3168 -2.30929 5.2025 0
M  V30 131 N 10.5188 -3.95161 4.25238 0
M  V30 132 H 13.2838 -0.0801694 2.99593 0
M  V30 133 H 10.8448 0.102329 1.61576 0
M  V30 134 H 12.8368 -2.60948 3.09335 0
M  V30 135 H 11.4068 -2.34799 2.06369 0
M  V30 136 H 10.6268 -0.658185 3.88666 0
M  V30 137 H 11.9148 -1.30681 4.91732 0
M  V30 138 H 11.3128 -4.25653 3.72607 0
M  V30 139 H 9.8698 -4.6427 4.5749 0
M  V30 140 N 13.3029 -1.57598 0.00835791 0
M  V30 141 C 14.2329 -2.1198 -0.979113 0
M  V30 142 C 15.2139 -1.03091 -1.35301 0
M  V30 143 O 16.3989 -1.30818 -1.43528 0
M  V30 144 C 13.5289 -2.62995 -2.26828 0
M  V30 145 C 12.4829 -3.76485 -2.03576 0
M  V30 146 C 11.8089 -4.13846 -3.38579 0
M  V30 147 C 13.1089 -5.0342 -1.39161 0
M  V30 148 H 14.8029 -2.94738 -0.526281 0
M  V30 149 H 12.3489 -1.41783 -0.251704 0
M  V30 150 H 14.3019 -2.99669 -2.96271 0
M  V30 151 H 13.0259 -1.7737 -2.7424 0
M  V30 152 H 11.6849 -3.40217 -1.36557 0
M  V30 153 H 11.3329 -3.25232 -3.83709 0
M  V30 154 H 11.0329 -4.90312 -3.23834 0
M  V30 155 H 12.5569 -4.53086 -4.09323 0
M  V30 156 H 13.9709 -5.37812 -1.98573 0
M  V30 157 H 12.3679 -5.84746 -1.34878 0
M  V30 158 H 13.4379 -4.83548 -0.361868 0
M  V30 159 N 14.781 0.264519 -1.55364 0
M  V30 160 C 16.058 1.01677 -1.67096 0
M  V30 161 C 16.438 2.03996 -0.543015 0
M  V30 162 O 15.786 2.23907 0.45585 0
M  V30 163 C 15.996 1.66596 -3.0667 0
M  V30 164 C 17.344 2.17442 -3.64697 0
M  V30 165 O 18.368 1.76568 -3.09358 0
M  V30 166 O 17.227 2.92439 -4.61673 0
M  V30 167 H 14.321 0.472161 -0.678965 0
M  V30 168 H 16.867 0.259703 -1.67701 0
M  V30 169 H 15.639 0.924962 -3.80211 0
M  V30 170 H 15.262 2.48968 -3.10001 0
M  V30 171 N 16.2591 1.48442 0.529413 0
M  V30 172 C 17.5361 1.46978 1.29062 0
M  V30 173 C 17.9161 0.181769 2.10316 0
M  V30 174 O 17.2641 -0.836481 2.12639 0
M  V30 175 C 17.4741 2.7321 2.17157 0
M  V30 176 C 18.8221 3.21562 2.77278 0
M  V30 177 O 19.8461 2.74131 2.27444 0
M  V30 178 O 18.7051 4.04094 3.67927 0
M  V30 179 H 15.7991 0.587003 0.582543 0
M  V30 180 H 18.3451 1.60676 0.546021 0
M  V30 181 H 17.1171 3.58465 1.56903 0
M  V30 182 H 16.7401 2.62235 2.98862 0
M  V30 183 N 17.7372 -0.778329 1.37039 0
M  V30 184 C 19.0142 -1.52551 1.22424 0
M  V30 185 C 19.3942 -2.10288 -0.184964 0
M  V30 186 O 18.7422 -1.94953 -1.19187 0
M  V30 187 C 18.9522 -2.61164 2.31504 0
M  V30 188 C 20.3002 -3.28746 2.68721 0
M  V30 189 O 21.3242 -2.71455 2.30631 0
M  V30 190 O 20.1832 -4.3231 3.3432 0
M  V30 191 H 17.2772 -0.675343 0.477326 0
M  V30 192 H 19.8232 -0.815859 1.48801 0
M  V30 193 H 18.5952 -2.16574 3.25901 0
M  V30 194 H 18.2182 -3.39737 2.06554 0
M  V30 195 N 19.2153 -1.21501 -1.00376 0
M  V30 196 C 20.1453 -0.999478 -2.11028 0
M  V30 197 C 21.1263 0.0759671 -1.6993 0
M  V30 198 O 22.3113 -0.0841106 -1.94018 0
M  V30 199 C 19.4413 -0.564709 -3.42678 0
M  V30 200 C 18.3953 -1.58486 -3.97576 0
M  V30 201 C 17.7213 -1.00628 -5.25146 0
M  V30 202 C 19.0213 -2.97204 -4.29496 0
M  V30 203 H 20.7153 -1.92495 -2.29317 0
M  V30 204 H 18.2613 -0.92693 -1.102 0
M  V30 205 H 20.2143 -0.401091 -4.19487 0
M  V30 206 H 18.9383 0.396411 -3.24185 0
M  V30 207 H 17.5973 -1.73606 -3.22888 0
M  V30 208 H 17.2453 -0.0368439 -5.02987 0
M  V30 209 H 16.9453 -1.68771 -5.62841 0
M  V30 210 H 18.4693 -0.854015 -6.04598 0
M  V30 211 H 19.8833 -2.8552 -4.97143 0
M  V30 212 H 18.2803 -3.62372 -4.78338 0
M  V30 213 H 19.3503 -3.47956 -3.3772 0
M  V30 214 N 20.6934 1.19889 -1.02296 0
M  V30 215 C 21.9334 1.91125 -0.724602 0
M  V30 216 C 22.2974 1.77464 0.732835 0
M  V30 217 O 23.4984 2.43241 1.144 0
M  V30 218 C 21.7694 3.38187 -1.15604 0
M  V30 219 S 23.3284 4.27702 -0.980621 0
M  V30 220 H 20.1464 0.66018 -0.263976 0
M  V30 221 H 22.7484 1.44978 -1.31155 0
M  V30 222 H 21.4524 3.45653 -2.21251 0
M  V30 223 H 20.9834 3.89363 -0.562131 0
M  V30 224 H 22.9984 4.96073 0.112225 0
M  V30 225 N 22.1715 0.800033 1.35784 0
M  V30 226 C 23.1015 0.220184 2.3246 0
M  V30 227 C 24.0825 -0.65073 1.57161 0
M  V30 228 O 25.2675 -0.582359 1.85263 0
M  V30 229 C 22.3975 -0.637353 3.41402 0
M  V30 230 C 21.3515 0.134531 4.27789 0
M  V30 231 C 20.6775 -0.844285 5.27992 0
M  V30 232 C 21.9775 1.32979 5.05088 0
M  V30 233 H 23.6715 1.02787 2.81203 0
M  V30 234 H 21.2175 0.495717 1.35199 0
M  V30 235 H 23.1705 -1.05302 4.08031 0
M  V30 236 H 21.8945 -1.47785 2.91251 0
M  V30 237 H 20.5535 0.531296 3.6273 0
M  V30 238 H 20.2015 -1.68011 4.74111 0
M  V30 239 H 19.9015 -0.332184 5.8666 0
M  V30 240 H 21.4255 -1.2583 5.97494 0
M  V30 241 H 22.8395 0.98934 5.64699 0
M  V30 242 H 21.2365 1.77593 5.7322 0
M  V30 243 H 22.3065 2.11978 4.36111 0
M  V30 244 N 23.6496 -1.47581 0.552962 0
M  V30 245 C 24.5796 -2.32762 -0.185451 0
M  V30 246 C 25.5606 -1.43527 -0.912905 0
M  V30 247 O 26.7456 -1.72388 -0.894201 0
M  V30 248 C 23.8756 -3.25219 -1.21859 0
M  V30 249 C 22.8296 -4.23661 -0.607864 0
M  V30 250 C 22.1556 -5.05413 -1.74533 0
M  V30 251 C 23.4556 -5.20481 0.435582 0
M  V30 252 H 25.1496 -2.94749 0.525684 0
M  V30 253 H 22.6956 -1.41738 0.254251 0
M  V30 254 H 24.6486 -3.8365 -1.7433 0
M  V30 255 H 23.3726 -2.61279 -1.95961 0
M  V30 256 H 22.0316 -3.66451 -0.104489 0
M  V30 257 H 21.6796 -4.3788 -2.47529 0
M  V30 258 H 21.3796 -5.72059 -1.34249 0
M  V30 259 H 22.9036 -5.66701 -2.27338 0
M  V30 260 H 24.3176 -5.733 -0.00290157 0
M  V30 261 H 22.7146 -5.95305 0.757067 0
M  V30 262 H 23.7846 -4.66217 1.33303 0
M  V30 263 N 25.1277 -0.289203 -1.54924 0
M  V30 264 C 26.3757 0.322879 -1.99504 0
M  V30 265 C 26.6967 1.55313 -1.1791 0
M  V30 266 O 25.9667 1.94001 -0.272097 0
M  V30 267 H 24.5467 0.122291 -0.736922 0
M  V30 268 H 27.2087 -0.397802 -1.90797 0
M  V30 269 H 26.3047 0.603061 -3.06218 0
M  V30 270 N 26.6058 1.57591 -0.0167156 0
M  V30 271 C 27.8828 1.82547 0.702564 0
M  V30 272 C 28.2628 0.898018 1.91047 0
M  V30 273 O 27.6108 -0.0493456 2.28447 0
M  V30 274 C 27.8208 3.31459 1.09251 0
M  V30 275 C 29.1688 3.97622 1.48937 0
M  V30 276 O 30.1928 3.35881 1.18584 0
M  V30 277 O 29.0518 5.06415 2.05442 0
M  V30 278 H 26.1458 0.752268 0.343544 0
M  V30 279 H 28.6918 1.69644 -0.0434495 0
M  V30 280 H 27.4638 3.9061 0.23227 0
M  V30 281 H 27.0868 3.49422 1.89709 0
M  V30 282 N 28.0839 -0.256276 1.55502 0
M  V30 283 C 29.3299 -0.987079 1.77157 0
M  V30 284 C 29.6629 -1.85327 0.580315 0
M  V30 285 O 28.9379 -1.89874 -0.421686 0
M  V30 286 C 29.2209 -1.85553 3.08613 0
M  V30 287 C 29.0739 -1.01816 4.38125 0
M  V30 288 C 30.3929 -2.8397 3.36228 0
M  V30 289 H 27.5119 -0.357428 0.644526 0
M  V30 290 H 30.1539 -0.258239 1.88237 0
M  V30 291 H 28.3039 -2.47695 2.99298 0
M  V30 292 H 29.9759 -0.416159 4.59419 0
M  V30 293 H 28.2189 -0.322178 4.32602 0
M  V30 294 H 28.8899 -1.65939 5.26468 0
M  V30 295 H 31.3659 -2.31964 3.45445 0
M  V30 296 H 30.2419 -3.41864 4.29442 0
M  V30 297 H 30.5029 -3.59955 2.56681 0
M  V30 298 N 29.562 -1.4872 -0.521534 0
M  V30 299 C 30.494 -1.59968 -1.64143 0
M  V30 300 C 31.507 -0.483463 -1.55456 0
M  V30 301 O 32.696 -0.75467 -1.61762 0
M  V30 302 C 29.796 -1.52127 -3.02838 0
M  V30 303 C 28.969 -2.78932 -3.36921 0
M  V30 304 C 28.028 -2.64428 -4.54933 0
M  V30 305 O 27.054 -3.38331 -4.57735 0
M  V30 306 N 28.256 -1.74606 -5.53618 0
M  V30 307 H 31.021 -2.56548 -1.54929 0
M  V30 308 H 28.582 -1.45551 -0.708988 0
M  V30 309 H 30.574 -1.40106 -3.79674 0
M  V30 310 H 29.144 -0.634868 -3.06085 0
M  V30 311 H 28.364 -3.05455 -2.4918 0
M  V30 312 H 29.652 -3.63041 -3.56481 0
M  V30 313 H 29.05 -1.13782 -5.54139 0
M  V30 314 H 27.607 -1.6852 -6.29638 0
M  V30 315 N 31.0401 0.771051 -1.3745 0
M  V30 316 C 32.2861 1.5319 -1.32894 0
M  V30 317 C 32.6191 1.94008 0.0862511 0
M  V30 318 O 31.8941 1.64124 1.04373 0
M  V30 319 C 32.1771 2.79648 -2.26868 0
M  V30 320 C 32.0301 2.45079 -3.77169 0
M  V30 321 C 33.3491 3.81583 -2.19277 0
M  V30 322 H 30.4681 0.555744 -0.484064 0
M  V30 323 H 33.1101 0.884492 -1.68157 0
M  V30 324 H 31.2601 3.34891 -1.96926 0
M  V30 325 H 32.9321 1.95745 -4.1771 0
M  V30 326 H 31.1751 1.77767 -3.95704 0
M  V30 327 H 31.8461 3.35478 -4.38359 0
M  V30 328 H 34.3221 3.35835 -2.45671 0
M  V30 329 H 33.1981 4.67787 -2.87171 0
M  V30 330 H 33.4591 4.25897 -1.18592 0
M  V30 331 N 32.5182 1.22032 0.997298 0
M  V30 332 C 33.9292 1.0397 1.55071 0
M  V30 333 C 34.2802 -0.398192 1.92117 0
M  V30 334 O 33.4052 -1.28254 1.74298 0
M  V30 335 C 34.0002 1.88109 2.81781 0
M  V30 336 C 32.5592 1.74357 3.33581 0
M  V30 337 C 31.7062 1.84846 2.06706 0
M  V30 338 H 34.6572 1.35941 0.818883 0
M  V30 339 H 34.6782 1.39589 3.53971 0
M  V30 340 H 34.1902 2.92754 2.54787 0
M  V30 341 H 32.2912 0.72427 3.65493 0
M  V30 342 H 32.4042 2.56772 4.04481 0
M  V30 343 H 30.7682 1.28238 2.20062 0
M  V30 344 H 31.5512 2.91014 1.82114 0
M  V30 345 N 33.9963 -1.19345 1.0293 0
M  V30 346 C 35.2423 -1.89318 0.727083 0
M  V30 347 C 35.5753 -1.79446 -0.742483 0
M  V30 348 O 34.8503 -1.1871 -1.54072 0
M  V30 349 C 35.1333 -3.40238 1.17942 0
M  V30 350 C 34.9863 -3.58979 2.71024 0
M  V30 351 C 36.3053 -4.33479 0.760548 0
M  V30 352 H 33.4243 -0.687475 0.265606 0
M  V30 353 H 36.0663 -1.40477 1.2793 0
M  V30 354 H 34.2163 -3.81964 0.709608 0
M  V30 355 H 35.8883 -3.26421 3.25955 0
M  V30 356 H 34.1313 -3.02018 3.11396 0
M  V30 357 H 34.8023 -4.64823 2.9773 0
M  V30 358 H 37.2783 -3.99469 1.16464 0
M  V30 359 H 36.1543 -5.37664 1.10493 0
M  V30 360 H 36.4153 -4.40813 -0.337063 0
M  V30 361 N 35.4744 -0.807222 -1.35358 0
M  V30 362 C 36.7214 -0.387888 -1.9875 0
M  V30 363 C 37.0494 1.04509 -1.64037 0
M  V30 364 O 36.3044 1.73986 -0.895946 0
M  V30 365 C 36.6034 -0.519036 -3.53611 0
M  V30 366 C 36.2694 -1.91542 -4.08194 0
M  V30 367 C 34.9314 -2.29745 -4.22813 0
M  V30 368 C 37.2834 -2.82896 -4.37744 0
M  V30 369 C 34.6114 -3.58668 -4.643 0
M  V30 370 C 36.9634 -4.11265 -4.8067 0
M  V30 371 C 35.6274 -4.49466 -4.93494 0
M  V30 372 H 34.8974 -0.141938 -0.727279 0
M  V30 373 H 37.5444 -1.02814 -1.6156 0
M  V30 374 H 35.8494 0.204658 -3.91265 0
M  V30 375 H 37.5464 -0.175345 -4.00616 0
M  V30 376 H 34.1364 -1.60862 -3.97268 0
M  V30 377 H 38.3204 -2.54629 -4.26002 0
M  V30 378 H 33.5764 -3.88113 -4.72418 0
M  V30 379 H 37.7504 -4.82153 -5.02496 0
M  V30 380 H 35.3774 -5.49418 -5.25399 0
M  V30 381 N 36.9525 1.47285 -0.560781 0
M  V30 382 C 37.8825 2.32857 0.173105 0
M  V30 383 C 38.8635 1.44009 0.905281 0
M  V30 384 O 40.0485 1.7286 0.885046 0
M  V30 385 C 37.1785 3.25861 1.20133 0
M  V30 386 C 36.1325 4.23978 0.585388 0
M  V30 387 C 35.4585 5.06332 1.7185 0
M  V30 388 C 36.7585 5.20242 -0.463178 0
M  V30 389 H 38.4525 2.94466 -0.541307 0
M  V30 390 H 35.9985 1.41601 -0.261764 0
M  V30 391 H 37.9515 3.84569 1.72293 0
M  V30 392 H 36.6755 2.62315 1.94573 0
M  V30 393 H 35.3345 3.66501 0.085054 0
M  V30 394 H 34.9825 4.39186 2.45203 0
M  V30 395 H 34.6825 5.72762 1.31213 0
M  V30 396 H 36.2065 5.67899 2.24329 0
M  V30 397 H 37.6205 5.73293 -0.027502 0
M  V30 398 H 36.0175 5.94896 -0.788627 0
M  V30 399 H 37.0875 4.65504 -1.35773 0
M  V30 400 N 38.4306 0.297415 1.54768 0
M  V30 401 C 39.3606 -0.573494 2.26348 0
M  V30 402 C 40.3416 -1.14085 1.26169 0
M  V30 403 O 41.5266 -1.17086 1.54934 0
M  V30 404 C 38.6566 -1.74716 3.00153 0
M  V30 405 C 37.6106 -1.31032 4.07449 0
M  V30 406 C 36.9366 -2.56887 4.68949 0
M  V30 407 C 38.2366 -0.444183 5.20408 0
M  V30 408 H 39.9306 0.0235131 2.99391 0
M  V30 409 H 37.4766 0.0127488 1.43994 0
M  V30 410 H 39.4296 -2.3625 3.48947 0
M  V30 411 H 38.1536 -2.37035 2.24682 0
M  V30 412 H 36.8126 -0.718066 3.59499 0
M  V30 413 H 36.4606 -3.17512 3.90122 0
M  V30 414 H 36.1606 -2.2836 5.41411 0
M  V30 415 H 37.6846 -3.19229 5.20505 0
M  V30 416 H 39.0986 -0.9651 5.65118 0
M  V30 417 H 37.4956 -0.252846 5.99567 0
M  V30 418 H 38.5656 0.531609 4.81977 0
M  V30 419 N 39.9087 -1.5758 0.0250728 0
M  V30 420 C 41.3247 -1.56124 -0.331282 0
M  V30 421 C 41.5247 -1.03029 -1.73169 0
M  V30 422 O 40.5807 -0.675215 -2.43305 0
M  V30 423 C 41.8937 -3.00139 -0.183584 0
M  V30 424 C 43.4417 -3.11946 -0.256654 0
M  V30 425 C 43.9167 -4.57793 -0.137792 0
M  V30 426 N 45.4077 -4.6279 -0.194904 0
M  V30 427 C 46.1427 -5.7326 -0.126655 0
M  V30 428 N 45.6387 -6.928 -0.00755288 0
M  V30 429 N 47.4317 -5.61811 -0.180348 0
M  V30 430 H 39.5827 -1.90424 0.94087 0
M  V30 431 H 41.8457 -0.875761 0.362968 0
M  V30 432 H 41.5517 -3.4292 0.780927 0
M  V30 433 H 41.4257 -3.64899 -0.955448 0
M  V30 434 H 43.8127 -2.69079 -1.21162 0
M  V30 435 H 43.8937 -2.49915 0.545517 0
M  V30 436 H 43.5377 -5.01339 0.813739 0
M  V30 437 H 43.4677 -5.17798 -0.958775 0
M  V30 438 H 45.9587 -3.76807 -0.287267 0
M  V30 439 H 46.2717 -7.72791 0.0379428 0
M  V30 440 H 44.6167 -6.94995 0.0271731 0
M  V30 441 H 47.8077 -4.6731 -0.271767 0
M  V30 442 H 47.9807 -6.47882 -0.123697 0
M  V30 443 N 41.3868 0.248026 -1.55636 0
M  V30 444 C 42.3168 1.31079 -1.93237 0
M  V30 445 C 43.2978 1.50264 -0.797174 0
M  V30 446 O 44.4828 1.62891 -1.05737 0
M  V30 447 C 41.6128 2.66575 -2.22609 0
M  V30 448 C 40.5668 2.62087 -3.3837 0
M  V30 449 C 39.8928 4.01369 -3.53281 0
M  V30 450 C 41.1928 2.19171 -4.7409 0
M  V30 451 H 42.8868 0.998556 -2.82257 0
M  V30 452 H 40.4328 0.47891 -1.35803 0
M  V30 453 H 42.3858 3.41057 -2.47503 0
M  V30 454 H 41.1098 2.99432 -1.30414 0
M  V30 455 H 39.7688 1.90063 -3.13483 0
M  V30 456 H 39.4168 4.31489 -2.58508 0
M  V30 457 H 39.1168 3.99254 -4.31127 0
M  V30 458 H 40.6408 4.77552 -3.80495 0
M  V30 459 H 42.0548 2.83384 -4.98363 0
M  V30 460 H 40.4518 2.2817 -5.5503 0
M  V30 461 H 41.5218 1.14336 -4.71227 0
M  V30 462 N 42.8649 1.48995 0.513639 0
M  V30 463 C 44.1129 1.57531 1.26604 0
M  V30 464 C 44.4339 0.258236 1.93283 0
M  V30 465 O 43.7039 -0.721502 1.8213 0
M  V30 466 H 42.2839 0.580387 0.470276 0
M  V30 467 H 44.9459 1.85552 0.596373 0
M  V30 468 H 44.0419 2.36486 2.03669 0
M  V30 469 N 44.343 -0.763751 1.37857 0
M  V30 470 C 45.253 -1.90817 1.36478 0
M  V30 471 C 46.269 -1.71997 0.263248 0
M  V30 472 O 47.445 -1.95095 0.499979 0
M  V30 473 C 44.51 -3.2605 1.17864 0
M  V30 474 C 43.571 -3.57467 2.3773 0
M  V30 475 C 42.804 -4.86249 2.19995 0
M  V30 476 O 43.027 -5.57884 1.18836 0
M  V30 477 O 41.961 -5.16911 3.08361 0
M  V30 478 H 45.787 -1.94933 2.32884 0
M  V30 479 H 43.372 -0.907619 1.1867 0
M  V30 480 H 45.254 -4.06924 1.09504 0
M  V30 481 H 43.929 -3.22769 0.245372 0
M  V30 482 H 42.836 -2.76796 2.51664 0
M  V30 483 H 44.169 -3.655 3.29652 0
M  V30 484 N 45.8211 -1.22559 -0.990812 0
M  V30 485 C 46.7841 -0.998863 -2.0629 0
M  V30 486 C 47.7841 0.0354834 -1.60761 0
M  V30 487 O 48.9741 -0.203231 -1.7301 0
M  V30 488 C 46.1061 -0.509203 -3.37076 0
M  V30 489 H 47.2991 -1.95014 -2.27837 0
M  V30 490 H 44.8521 -1.04456 -1.16269 0
M  V30 491 H 45.5871 0.446335 -3.21214 0
M  V30 492 H 45.3721 -1.25547 -3.71457 0
M  V30 493 H 46.8621 -0.370888 -4.1595 0
M  V30 494 N 47.2992 1.18797 -1.03562 0
M  V30 495 C 48.5242 1.9314 -0.755764 0
M  V30 496 C 48.9492 1.7537 0.68022 0
M  V30 497 O 48.3072 1.06046 1.47051 0
M  V30 498 C 48.3552 3.42747 -1.12058 0
M  V30 499 O 47.4592 4.11683 -0.243124 0
M  V30 500 H 46.8002 0.602724 -0.278604 0
M  V30 501 H 49.3302 1.50678 -1.3841 0
M  V30 502 H 49.3402 3.93437 -1.08035 0
M  V30 503 H 48.0152 3.55002 -2.16672 0
M  V30 504 H 46.5922 3.71323 -0.342539 0
M  V30 505 N 48.7773 0.814389 1.34928 0
M  V30 506 C 50.0233 0.408167 1.99263 0
M  V30 507 C 50.3783 -1.0154 1.63424 0
M  V30 508 O 49.6713 -1.69607 0.891289 0
M  V30 509 C 49.8653 0.537781 3.53331 0
M  V30 510 C 49.6943 1.9724 4.04137 0
M  V30 511 C 48.4643 2.60245 4.33129 0
M  V30 512 C 50.6623 2.93801 4.2212 0
M  V30 513 N 48.6443 3.95036 4.69914 0
M  V30 514 C 50.0153 4.1348 4.6199 0
M  V30 515 C 52.0703 2.9053 4.04348 0
M  V30 516 C 50.7733 5.3033 4.85945 0
M  V30 517 C 52.7993 4.06589 4.29464 0
M  V30 518 C 52.1613 5.25017 4.69613 0
M  V30 519 H 48.2603 0.197289 0.756704 0
M  V30 520 H 50.8443 1.05728 1.63492 0
M  V30 521 H 49.0153 -0.0813868 3.88315 0
M  V30 522 H 50.7473 0.105389 4.04563 0
M  V30 523 H 47.5023 2.11545 4.23728 0
M  V30 524 H 47.9263 4.64455 4.92555 0
M  V30 525 H 52.5683 2.00115 3.72443 0
M  V30 526 H 50.2863 6.21309 5.16721 0
M  V30 527 H 53.8723 4.05447 4.17257 0
M  V30 528 H 52.7523 6.1333 4.88667 0
M  V30 529 N 50.2554 -1.46986 0.568584 0
M  V30 530 C 51.2184 -2.28624 -0.162366 0
M  V30 531 C 52.2184 -1.37596 -0.832103 0
M  V30 532 O 53.4084 -1.60115 -0.68622 0
M  V30 533 C 50.5404 -3.17596 -1.23878 0
M  V30 534 H 51.7334 -2.94722 0.554899 0
M  V30 535 H 49.2864 -1.52863 0.325976 0
M  V30 536 H 50.0214 -2.56214 -1.98808 0
M  V30 537 H 49.8064 -3.846 -0.763219 0
M  V30 538 H 51.2964 -3.79078 -1.75185 0
M  V30 539 N 51.7335 -0.305618 -1.54608 0
M  V30 540 C 52.6635 0.561482 -2.26649 0
M  V30 541 C 53.6445 1.13415 -1.26772 0
M  V30 542 O 54.8295 1.16262 -1.55553 0
M  V30 543 C 51.9595 1.73122 -3.01075 0
M  V30 544 C 50.9135 1.2887 -4.08138 0
M  V30 545 C 50.2395 2.54396 -4.70305 0
M  V30 546 C 51.5395 0.416578 -5.20636 0
M  V30 547 H 53.2335 -0.0393902 -2.99374 0
M  V30 548 H 50.7795 -0.020385 -1.43986 0
M  V30 549 H 52.7325 2.34396 -3.50195 0
M  V30 550 H 51.4565 2.3584 -2.25936 0
M  V30 551 H 50.1155 0.698991 -3.59875 0
M  V30 552 H 49.7635 3.15439 -3.918 0
M  V30 553 H 49.4635 2.25486 -5.42614 0
M  V30 554 H 50.9875 3.16464 -5.2219 0
M  V30 555 H 52.4015 0.935116 -5.65622 0
M  V30 556 H 50.7985 0.221046 -5.99693 0
M  V30 557 H 51.8685 -0.557162 -4.81688 0
M  V30 558 N 53.2116 1.57565 -0.0334293 0
M  V30 559 C 54.4576 1.92262 0.645226 0
M  V30 560 C 54.7906 0.910543 1.71531 0
M  V30 561 O 54.0656 -0.066099 1.94388 0
M  V30 562 C 54.3486 3.37422 1.2577 0
M  V30 563 C 54.2016 4.49369 0.196891 0
M  V30 564 C 55.5206 3.82628 2.17449 0
M  V30 565 H 52.6396 0.699171 0.233085 0
M  V30 566 H 55.2816 1.89779 -0.0915694 0
M  V30 567 H 53.4316 3.39669 1.88566 0
M  V30 568 H 55.1036 4.59254 -0.433962 0
M  V30 569 H 53.3466 4.31168 -0.477137 0
M  V30 570 H 54.0176 5.47978 0.665124 0
M  V30 571 H 56.4936 3.82145 1.64634 0
M  V30 572 H 55.3696 4.84883 2.57254 0
M  V30 573 H 55.6306 3.18376 3.0674 0
M  V30 574 N 54.6897 -0.239769 1.55765 0
M  V30 575 C 55.5997 -1.31831 1.94056 0
M  V30 576 C 56.6157 -1.52275 0.841925 0
M  V30 577 O 57.7917 -1.65759 1.14394 0
M  V30 578 C 54.8567 -2.65156 2.23368 0
M  V30 579 C 53.9177 -2.53173 3.46701 0
M  V30 580 C 53.1507 -3.8014 3.74606 0
M  V30 581 O 53.3737 -4.82343 3.04469 0
M  V30 582 O 52.3077 -3.78344 4.68123 0
M  V30 583 H 56.1337 -1.02347 2.85935 0
M  V30 584 H 53.7187 -0.441123 1.42739 0
M  V30 585 H 55.6007 -3.43929 2.43497 0
M  V30 586 H 54.2757 -2.94358 1.34666 0
M  V30 587 H 53.1827 -1.72662 3.31871 0
M  V30 588 H 54.5157 -2.28915 4.35728 0
M  V30 589 N 56.1678 -1.49265 -0.50573 0
M  V30 590 C 57.4158 -1.582 -1.25766 0
M  V30 591 C 57.7368 -0.268482 -1.93143 0
M  V30 592 O 57.0068 0.711833 -1.8251 0
M  V30 593 H 55.5868 -0.582873 -0.467191 0
M  V30 594 H 58.2488 -1.85865 -0.586525 0
M  V30 595 H 57.3448 -2.37563 -2.02412 0
M  V30 596 N 57.6459 0.756429 -1.3826 0
M  V30 597 C 58.8939 1.51248 -1.34047 0
M  V30 598 C 59.2149 1.94875 0.0698372 0
M  V30 599 O 58.4849 1.67436 1.01696 0
M  V30 600 H 57.0649 0.561018 -0.493222 0
M  V30 601 H 59.7269 0.899347 -1.7291 0
M  V30 602 H 58.8229 2.40472 -1.98947 0
M  V30 603 N 59.124 1.23083 0.984299 0
M  V30 604 C 60.373 1.05466 1.71929 0
M  V30 605 C 60.686 -0.409211 1.91272 0
M  V30 606 O 61.892 -0.705226 2.62181 0
M  V30 607 C 60.348 1.83874 3.09384 0
M  V30 608 C 59.956 3.34566 2.97943 0
M  V30 609 C 61.7 1.74734 3.8687 0
M  V30 610 C 59.607 4.05381 4.30605 0
M  V30 611 H 58.537 0.391039 0.644674 0
M  V30 612 H 61.188 1.47013 1.09815 0
M  V30 613 H 59.57 1.35131 3.72231 0
M  V30 614 H 60.744 3.90767 2.44209 0
M  V30 615 H 59.059 3.44476 2.33934 0
M  V30 616 H 61.656 2.24957 4.85076 0
M  V30 617 H 61.999 0.709372 4.10212 0
M  V30 618 H 62.532 2.21067 3.30717 0
M  V30 619 H 59.271 5.09467 4.1246 0
M  V30 620 H 58.791 3.53967 4.84218 0
M  V30 621 H 60.47 4.11458 4.99311 0
M  V30 622 N 60.6021 -1.18246 1.0419 0
M  V30 623 C 61.8271 -1.92736 0.765996 0
M  V30 624 C 62.2521 -1.75728 -0.67091 0
M  V30 625 O 61.6101 -1.06825 -1.46486 0
M  V30 626 C 61.6581 -3.42148 1.13875 0
M  V30 627 O 60.7621 -4.11548 0.264954 0
M  V30 628 H 60.1031 -0.601238 0.281797 0
M  V30 629 H 62.6331 -1.49942 1.39207 0
M  V30 630 H 62.6431 -3.92858 1.1012 0
M  V30 631 H 61.3181 -3.53848 2.18551 0
M  V30 632 H 59.8951 -3.71137 0.362226 0
M  V30 633 N 62.0802 -0.821533 -1.34494 0
M  V30 634 C 63.4962 -0.507117 -1.51329 0
M  V30 635 C 63.6962 0.968964 -1.76673 0
M  V30 636 O 62.7522 1.75348 -1.81685 0
M  V30 637 C 64.0652 -1.36544 -2.67911 0
M  V30 638 C 65.6132 -1.36242 -2.81793 0
M  V30 639 C 66.0882 -2.2052 -4.01416 0
M  V30 640 N 67.5792 -2.18136 -4.08621 0
M  V30 641 C 68.3142 -2.80095 -5.00334 0
M  V30 642 N 67.8102 -3.51039 -5.9728 0
M  V30 643 N 69.6032 -2.69656 -4.93196 0
M  V30 644 H 61.7542 -1.77729 -1.16302 0
M  V30 645 H 64.0172 -0.757291 -0.570276 0
M  V30 646 H 63.7232 -2.41361 -2.55808 0
M  V30 647 H 63.5972 -1.02917 -3.62888 0
M  V30 648 H 65.9842 -0.322041 -2.93338 0
M  V30 649 H 66.0652 -1.73866 -1.87628 0
M  V30 650 H 65.7092 -3.24607 -3.90631 0
M  V30 651 H 65.6392 -1.80247 -4.94791 0
M  V30 652 H 68.1302 -1.6653 -3.39229 0
M  V30 653 H 68.4432 -3.95565 -6.63889 0
M  V30 654 H 66.7882 -3.55145 -5.97409 0
M  V30 655 H 69.9792 -2.13808 -4.16418 0
M  V30 656 H 70.1522 -3.1823 -5.64476 0
M  V30 657 N 63.5583 1.46682 -0.576371 0
M  V30 658 C 64.8353 1.95599 0.00703437 0
M  V30 659 C 65.2153 1.51904 1.46589 0
M  V30 660 O 64.5633 0.766755 2.15251 0
M  V30 661 C 64.7733 3.4864 -0.158404 0
M  V30 662 C 66.1213 4.24594 -0.0229439 0
M  V30 663 O 67.1453 3.56094 -0.0869173 0
M  V30 664 O 66.0043 5.46373 0.118015 0
M  V30 665 H 63.0983 0.825275 0.053384 0
M  V30 666 H 65.6443 1.56996 -0.644244 0
M  V30 667 H 64.4163 3.7331 -1.17282 0
M  V30 668 H 64.0393 3.94057 0.5296 0
M  V30 669 N 65.0364 0.313813 1.54444 0
M  V30 670 C 65.9994 -0.54379 2.22656 0
M  V30 671 C 66.9994 -1.05124 1.21678 0
M  V30 672 O 68.1894 -0.945225 1.46325 0
M  V30 673 C 65.3214 -1.75427 2.92298 0
M  V30 674 H 66.5144 0.0523599 2.99854 0
M  V30 675 H 64.0674 0.0647834 1.56166 0
M  V30 676 H 64.8024 -2.38991 2.19211 0
M  V30 677 H 64.5874 -1.39791 3.66334 0
M  V30 678 H 66.0774 -2.36325 3.44297 0
M  V30 679 N 66.5145 -1.57545 0.0417849 0
M  V30 680 C 67.4245 -2.14451 -0.951213 0
M  V30 681 C 68.4405 -1.09992 -1.34825 0
M  V30 682 O 69.6165 -1.42114 -1.42708 0
M  V30 683 C 66.6815 -2.67063 -2.21084 0
M  V30 684 C 65.7425 -3.86284 -1.87304 0
M  V30 685 C 64.9755 -4.36378 -3.07261 0
M  V30 686 O 65.1985 -3.85587 -4.20332 0
M  V30 687 O 64.1325 -5.28077 -2.88822 0
M  V30 688 H 67.9585 -2.99601 -0.497287 0
M  V30 689 H 65.5435 -1.48317 -0.179567 0
M  V30 690 H 67.4255 -3.00914 -2.95006 0
M  V30 691 H 66.1005 -1.84989 -2.65633 0
M  V30 692 H 65.0075 -3.57338 -1.10727 0
M  V30 693 H 66.3405 -4.6956 -1.47562 0
M  V30 694 N 67.9926 0.231505 -1.5589 0
M  V30 695 C 68.9226 1.29022 -1.94617 0
M  V30 696 C 69.9036 1.4941 -0.813067 0
M  V30 697 O 71.0886 1.6176 -1.07459 0
M  V30 698 C 68.2186 2.64199 -2.25424 0
M  V30 699 C 67.1726 2.58484 -3.41131 0
M  V30 700 C 66.4986 3.97599 -3.57518 0
M  V30 701 C 67.7986 2.1413 -4.76388 0
M  V30 702 H 69.4926 0.968563 -2.83301 0
M  V30 703 H 67.0386 0.464479 -1.36303 0
M  V30 704 H 68.9916 3.38413 -2.51107 0
M  V30 705 H 67.7156 2.98032 -1.33583 0
M  V30 706 H 66.3746 1.86727 -3.15481 0
M  V30 707 H 66.0226 4.28723 -2.6307 0
M  V30 708 H 65.7226 3.94659 -4.35337 0
M  V30 709 H 67.2466 4.7349 -3.85538 0
M  V30 710 H 68.6606 2.78083 -5.01341 0
M  V30 711 H 67.0576 2.2227 -5.57419 0
M  V30 712 H 68.1276 1.09331 -4.72414 0
M  V30 713 N 69.4707 1.49531 0.497807 0
M  V30 714 C 70.7167 1.59415 1.25358 0
M  V30 715 C 71.0497 0.281422 1.9215 0
M  V30 716 O 70.3247 -0.715249 1.80871 0
M  V30 717 C 70.6077 2.75566 2.3181 0
M  V30 718 C 70.4607 4.16642 1.69498 0
M  V30 719 C 71.7797 2.87347 3.33346 0
M  V30 720 H 68.8987 0.580244 0.454408 0
M  V30 721 H 71.5407 1.81827 0.551262 0
M  V30 722 H 69.6907 2.56587 2.91711 0
M  V30 723 H 71.3627 4.47145 1.13399 0
M  V30 724 H 69.6057 4.22141 0.998978 0
M  V30 725 H 70.2767 4.93792 2.46725 0
M  V30 726 H 72.7527 3.04634 2.83438 0
M  V30 727 H 71.6287 3.70289 4.05188 0
M  V30 728 H 71.8897 1.96834 3.95865 0
M  V30 729 N 70.9488 -0.749086 1.3866 0
M  V30 730 C 72.1948 -1.50959 1.36319 0
M  V30 731 C 72.5498 -1.92347 -0.0452451 0
M  V30 732 O 71.8428 -1.6289 -1.00884 0
M  V30 733 C 72.0368 -2.7712 2.25697 0
M  V30 734 C 71.8658 -2.48067 3.7509 0
M  V30 735 C 70.6358 -2.41062 4.44091 0
M  V30 736 C 72.8338 -2.14544 4.67414 0
M  V30 737 N 70.8158 -2.04331 5.78897 0
M  V30 738 C 72.1868 -1.88141 5.90765 0
M  V30 739 C 74.2418 -2.00892 4.55573 0
M  V30 740 C 72.9448 -1.49463 7.036 0
M  V30 741 C 74.9708 -1.63616 5.68317 0
M  V30 742 C 74.3328 -1.38088 6.90732 0
M  V30 743 H 70.4318 -0.551804 0.554108 0
M  V30 744 H 73.0158 -0.871886 1.74087 0
M  V30 745 H 71.1868 -3.38693 1.9011 0
M  V30 746 H 72.9188 -3.4321 2.1445 0
M  V30 747 H 69.6738 -2.57685 3.9736 0
M  V30 748 H 70.0978 -1.88598 6.502 0
M  V30 749 H 74.7398 -2.19301 3.61479 0
M  V30 750 H 72.4578 -1.29794 7.97608 0
M  V30 751 H 76.0438 -1.53678 5.61137 0
M  V30 752 H 74.9238 -1.09674 7.76493 0
M  V30 753 N 72.4269 -1.23603 -0.977757 0
M  V30 754 C 73.3899 -1.02069 -2.05218 0
M  V30 755 C 74.3899 0.0184305 -1.60789 0
M  V30 756 O 75.5799 -0.221569 -1.72785 0
M  V30 757 C 72.7119 -0.544926 -3.36517 0
M  V30 758 H 73.9049 -1.9742 -2.25755 0
M  V30 759 H 71.4579 -1.05684 -1.15155 0
M  V30 760 H 72.1929 0.412241 -3.21669 0
M  V30 761 H 71.9779 -1.2948 -3.70105 0
M  V30 762 H 73.4679 -0.414985 -4.15533 0
M  V30 763 N 73.905 1.17692 -1.04816 0
M  V30 764 C 75.182 1.83768 -0.669963 0
M  V30 765 C 75.562 1.93232 0.849986 0
M  V30 766 O 74.91 1.46397 1.75443 0
M  V30 767 C 75.12 3.21641 -1.35455 0
M  V30 768 C 76.468 3.97592 -1.49017 0
M  V30 769 O 77.492 3.31107 -1.31326 0
M  V30 770 O 76.351 5.16729 -1.77914 0
M  V30 771 H 73.445 0.792799 -0.235368 0
M  V30 772 H 75.991 1.25021 -1.14751 0
M  V30 773 H 74.763 3.097 -2.39168 0
M  V30 774 H 74.386 3.88052 -0.866107 0
M  V30 775 N 75.3831 0.828654 1.34056 0
M  V30 776 C 76.3131 0.269443 2.3194 0
M  V30 777 C 77.2941 -0.617247 1.58506 0
M  V30 778 O 78.4791 -0.542931 1.86456 0
M  V30 779 C 75.6091 -0.564793 3.42677 0
M  V30 780 C 74.5631 0.225241 4.27407 0
M  V30 781 C 73.8891 -0.7321 5.29664 0
M  V30 782 C 75.1891 1.43663 5.02154 0
M  V30 783 H 76.8831 1.08728 2.7896 0
M  V30 784 H 74.4291 0.524283 1.34117 0
M  V30 785 H 76.3821 -0.966233 4.10173 0
M  V30 786 H 75.1061 -1.41574 2.9432 0
M  V30 787 H 73.7651 0.608117 3.61521 0
M  V30 788 H 73.4131 -1.57916 4.77568 0
M  V30 789 H 73.1131 -0.20767 5.87233 0
M  V30 790 H 74.6371 -1.13128 6.00029 0
M  V30 791 H 76.0511 1.1089 5.62473 0
M  V30 792 H 74.4481 1.89711 5.69324 0
M  V30 793 H 75.5181 2.21181 4.31517 0
M  V30 794 N 76.8612 -1.46375 0.584142 0
M  V30 795 C 78.1012 -2.0427 0.0729695 0
M  V30 796 C 78.4652 -1.44563 -1.26355 0
M  V30 797 O 79.6662 -1.93667 -1.86405 0
M  V30 798 C 77.9372 -3.57399 0.00967464 0
M  V30 799 S 79.4962 -4.36551 -0.443714 0
M  V30 800 H 76.3142 -0.709975 0.0381673 0
M  V30 801 H 78.9162 -1.79398 0.776962 0
M  V30 802 H 77.6202 -3.98372 0.986319 0
M  V30 803 H 77.1512 -3.8681 -0.717044 0
M  V30 804 H 79.1662 -4.66237 -1.69816 0
M  V30 805 N 78.3393 -0.321999 -1.54275 0
M  V30 806 C 79.7553 0.0306999 -1.5957 0
M  V30 807 C 79.9553 1.50614 -1.33857 0
M  V30 808 O 79.0113 2.2619 -1.12223 0
M  V30 809 C 80.3243 -0.386122 -2.98211 0
M  V30 810 C 81.8723 -0.336647 -3.11184 0
M  V30 811 C 82.3473 -0.728607 -4.52167 0
M  V30 812 N 83.8383 -0.681952 -4.58152 0
M  V30 813 C 84.5733 -0.957449 -5.6535 0
M  V30 814 N 84.0693 -1.3 -6.80494 0
M  V30 815 N 85.8623 -0.883113 -5.55119 0
M  V30 816 H 78.0133 -1.28332 -1.69247 0
M  V30 817 H 80.2763 -0.521716 -0.791528 0
M  V30 818 H 79.9823 -1.41404 -3.22022 0
M  V30 819 H 79.8563 0.249662 -3.76373 0
M  V30 820 H 82.2433 0.682058 -2.8711 0
M  V30 821 H 82.3243 -1.00734 -2.3513 0
M  V30 822 H 81.9683 -1.74522 -4.76974 0
M  V30 823 H 81.8983 -0.0356152 -5.26588 0
M  V30 824 H 84.3893 -0.428985 -3.75457 0
M  V30 825 H 84.7023 -1.49563 -7.58189 0
M  V30 826 H 83.0473 -1.33824 -6.81994 0
M  V30 827 H 86.2383 -0.615001 -4.64042 0
M  V30 828 H 86.4113 -1.10118 -6.38575 0
M  V30 829 N 79.8174 1.5752 -0.0501392 0
M  V30 830 C 81.0634 1.93755 0.618901 0
M  V30 831 C 81.4184 0.928514 1.68512 0
M  V30 832 O 80.7114 -0.0524613 1.91528 0
M  V30 833 C 80.9054 3.34467 1.25963 0
M  V30 834 C 80.7344 4.48965 0.257 0
M  V30 835 C 79.5044 5.05075 -0.150656 0
M  V30 836 C 81.7024 5.11891 -0.497166 0
M  V30 837 N 79.6844 6.03104 -1.14626 0
M  V30 838 C 81.0554 6.05216 -1.34588 0
M  V30 839 C 83.1104 4.9479 -0.55559 0
M  V30 840 C 81.8134 6.83277 -2.24778 0
M  V30 841 C 83.8394 5.73477 -1.44492 0
M  V30 842 C 83.2014 6.66433 -2.28136 0
M  V30 843 H 79.3004 0.756479 0.198149 0
M  V30 844 H 81.8844 1.94316 -0.122229 0
M  V30 845 H 80.0554 3.34685 1.97079 0
M  V30 846 H 81.7874 3.57994 1.88739 0
M  V30 847 H 78.5424 4.7305 0.228094 0
M  V30 848 H 78.9664 6.56813 -1.64092 0
M  V30 849 H 83.6084 4.2273 0.0768625 0
M  V30 850 H 81.3264 7.54629 -2.89069 0
M  V30 851 H 84.9124 5.62273 -1.49468 0
M  V30 852 H 83.7924 7.26258 -2.95835 0
M  V30 853 N 81.2955 -0.223234 1.56011 0
M  V30 854 C 82.5415 -0.949279 1.79211 0
M  V30 855 C 82.8745 -1.84054 0.619494 0
M  V30 856 O 82.1495 -1.90726 -0.381317 0
M  V30 857 C 82.4325 -1.78965 3.12479 0
M  V30 858 C 82.2855 -0.924997 4.40186 0
M  V30 859 C 83.6045 -2.76774 3.42175 0
M  V30 860 H 80.7235 -0.343676 0.651963 0
M  V30 861 H 83.3655 -0.218253 1.88742 0
M  V30 862 H 81.5155 -2.41291 3.04485 0
M  V30 863 H 83.1875 -0.318615 4.60198 0
M  V30 864 H 81.4305 -0.230344 4.33188 0
M  V30 865 H 82.1015 -1.54735 5.29869 0
M  V30 866 H 84.5775 -2.24584 3.50287 0
M  V30 867 H 83.4535 -3.32678 4.36597 0
M  V30 868 H 83.7145 -3.54429 2.64258 0
M  V30 869 N 82.7736 -1.49793 -0.48987 0
M  V30 870 C 83.7366 -1.66752 -1.57246 0
M  V30 871 C 84.7366 -0.538867 -1.51502 0
M  V30 872 O 85.9266 -0.805545 -1.54456 0
M  V30 873 C 83.0586 -1.67528 -2.96896 0
M  V30 874 H 84.2516 -2.63321 -1.43534 0
M  V30 875 H 81.8046 -1.38992 -0.714914 0
M  V30 876 H 82.5396 -0.725837 -3.16073 0
M  V30 877 H 82.3246 -2.49504 -3.02473 0
M  V30 878 H 83.8146 -1.82667 -3.7553 0
M  V30 879 N 84.2517 0.741722 -1.39055 0
M  V30 880 C 85.5287 1.49252 -1.26425 0
M  V30 881 C 85.9087 2.10705 0.129144 0
M  V30 882 O 85.2567 1.98045 1.13976 0
M  V30 883 C 85.4667 2.54934 -2.38347 0
M  V30 884 C 86.8147 3.21506 -2.77343 0
M  V30 885 O 87.8387 2.65245 -2.37747 0
M  V30 886 O 86.6977 4.23294 -3.45665 0
M  V30 887 H 83.7917 0.662451 -0.495064 0
M  V30 888 H 86.3377 0.776121 -1.50912 0
M  V30 889 H 85.1097 2.07857 -3.31529 0
M  V30 890 H 84.7327 3.34141 -2.15489 0
M  V30 891 N 85.7298 1.2412 0.971189 0
M  V30 892 C 87.1408 1.07236 1.52831 0
M  V30 893 C 87.4918 -0.357352 1.92918 0
M  V30 894 O 86.6168 -1.24528 1.76979 0
M  V30 895 C 87.2118 1.94043 2.77728 0
M  V30 896 C 85.7708 1.81394 3.29808 0
M  V30 897 C 84.9178 1.89189 2.02738 0
M  V30 898 H 87.8688 1.37648 0.789864 0
M  V30 899 H 87.8898 1.47066 3.5093 0
M  V30 900 H 87.4018 2.98093 2.4852 0
M  V30 901 H 85.5028 0.801634 3.63874 0
M  V30 902 H 85.6158 2.65294 3.98944 0
M  V30 903 H 83.9798 1.32877 2.17292 0
M  V30 904 H 84.7628 2.94812 1.759 0
M  V30 905 N 87.2079 -1.17134 1.05439 0
M  V30 906 C 88.4329 -1.91913 0.786396 0
M  V30 907 C 88.8579 -1.7643 -0.652234 0
M  V30 908 O 88.2159 -1.08372 -1.45345 0
M  V30 909 C 88.2639 -3.40921 1.17497 0
M  V30 910 O 87.3679 -4.11244 0.308589 0
M  V30 911 H 86.7089 -0.598215 0.288158 0
M  V30 912 H 89.2389 -1.48457 1.4079 0
M  V30 913 H 89.2489 -3.91668 1.14281 0
M  V30 914 H 87.9239 -3.5151 2.22292 0
M  V30 915 H 86.5009 -3.70731 0.40157 0
M  V30 916 N 88.686 -0.835752 -1.33615 0
M  V30 917 C 89.618 -0.224151 -2.28101 0
M  V30 918 C 90.631 0.593331 -1.51603 0
M  V30 919 O 91.82 0.420911 -1.73466 0
M  V30 920 C 88.92 0.703309 -3.31522 0
M  V30 921 C 88.093 -0.0741528 -4.37337 0
M  V30 922 C 87.152 0.776176 -5.20444 0
M  V30 923 O 86.178 0.216506 -5.68788 0
M  V30 924 N 87.38 2.09401 -5.41416 0
M  V30 925 H 90.145 -1.03598 -2.81225 0
M  V30 926 H 87.706 -0.69392 -1.46275 0
M  V30 927 H 89.698 1.27707 -3.84022 0
M  V30 928 H 88.268 1.41585 -2.78698 0
M  V30 929 H 87.488 -0.82928 -3.85378 0
M  V30 930 H 88.776 -0.608863 -5.05144 0
M  V30 931 H 88.174 2.57229 -5.03835 0
M  V30 932 H 86.731 2.61633 -5.96985 0
M  V30 933 N 90.1641 1.46063 -0.591896 0
M  V30 934 C 91.4101 2.02638 -0.0811191 0
M  V30 935 C 91.7431 1.4613 1.27905 0
M  V30 936 O 91.0181 0.629908 1.84017 0
M  V30 937 C 91.3011 3.60091 -0.0252436 0
M  V30 938 C 91.1541 4.26965 -1.41496 0
M  V30 939 C 92.4731 4.3496 0.670685 0
M  V30 940 H 89.5921 0.73635 -0.0309524 0
M  V30 941 H 92.2341 1.741 -0.760859 0
M  V30 942 H 90.3841 3.84535 0.553624 0
M  V30 943 H 92.0561 4.13756 -2.0397 0
M  V30 944 H 90.2991 3.85971 -1.98011 0
M  V30 945 H 90.9701 5.35781 -1.32825 0
M  V30 946 H 93.4461 4.15716 0.178825 0
M  V30 947 H 92.3221 5.44686 0.678837 0
M  V30 948 H 92.5831 4.06685 1.73379 0
M  V30 949 N 91.6422 0.330177 1.54103 0
M  V30 950 C 92.5922 -0.548456 2.21305 0
M  V30 951 C 93.5762 -1.07651 1.19583 0
M  V30 952 O 94.7682 -1.01243 1.45186 0
M  V30 953 C 91.8972 -1.70559 2.97934 0
M  V30 954 C 90.9832 -1.19212 4.07 0
M  V30 955 N 91.3742 -0.398831 5.04225 0
M  V30 956 C 89.6722 -1.47024 4.2107 0
M  V30 957 C 90.3732 -0.121761 5.81573 0
M  V30 958 N 89.3492 -0.709722 5.38947 0
M  V30 959 H 93.1512 0.0648483 2.93828 0
M  V30 960 H 90.6652 0.136363 1.61826 0
M  V30 961 H 92.6622 -2.34688 3.44568 0
M  V30 962 H 91.3222 -2.32231 2.26934 0
M  V30 963 H 92.3332 -0.0410869 5.17884 0
M  V30 964 H 89.0102 -2.09232 3.61287 0
M  V30 965 H 90.4002 0.517298 6.69906 0
M  V30 966 N 93.1203 -1.57491 0.0584922 0
M  V30 967 C 94.3503 -1.9701 -0.622134 0
M  V30 968 C 94.7583 -0.935034 -1.6448 0
M  V30 969 O 94.1013 0.0882904 -1.83488 0
M  V30 970 C 94.1633 -3.32794 -1.35972 0
M  V30 971 C 93.8273 -4.54343 -0.492043 0
M  V30 972 C 94.8243 -5.19323 0.244901 0
M  V30 973 C 92.5093 -5.00534 -0.420821 0
M  V30 974 C 94.5033 -6.28835 1.04143 0
M  V30 975 C 92.1903 -6.09921 0.379389 0
M  V30 976 C 93.1883 -6.73933 1.10919 0
M  V30 977 O 92.8763 -7.81216 1.89623 0
M  V30 978 H 92.6083 -0.653127 -0.174359 0
M  V30 979 H 95.1623 -2.05029 0.123418 0
M  V30 980 H 93.3923 -3.21351 -2.15105 0
M  V30 981 H 95.0813 -3.5701 -1.93129 0
M  V30 982 H 95.8473 -4.8459 0.19939 0
M  V30 983 H 91.7263 -4.50496 -0.978474 0
M  V30 984 H 95.2703 -6.7873 1.61157 0
M  V30 985 H 91.1673 -6.44089 0.426512 0
M  V30 986 H 91.9353 -7.98029 1.81913 0
M  V30 987 N 94.5984 0.214957 -1.56127 0
M  V30 988 C 95.8444 0.935325 -1.80619 0
M  V30 989 C 96.1994 1.81706 -0.632507 0
M  V30 990 O 95.4924 1.87931 0.373182 0
M  V30 991 C 95.6864 1.80314 -3.0858 0
M  V30 992 C 95.5154 1.00691 -4.38282 0
M  V30 993 C 94.2854 0.699211 -5.00439 0
M  V30 994 C 96.4834 0.369057 -5.12974 0
M  V30 995 N 94.4654 -0.117734 -6.13787 0
M  V30 996 C 95.8364 -0.310981 -6.1922 0
M  V30 997 C 97.8914 0.282759 -4.97096 0
M  V30 998 C 96.5944 -1.06907 -7.11311 0
M  V30 999 C 98.6204 -0.461881 -5.89594 0
M  V30 1000 C 97.9824 -1.13044 -6.9527 0
M  V30 1001 H 94.0814 0.322307 -0.71249 0
M  V30 1002 H 96.6654 0.205649 -1.93611 0
M  V30 1003 H 94.8364 2.50458 -2.96859 0
M  V30 1004 H 96.5684 2.46148 -3.21237 0
M  V30 1005 H 93.3234 1.01884 -4.62511 0
M  V30 1006 H 93.7474 -0.515235 -6.75037 0
M  V30 1007 H 98.3894 0.785292 -4.15443 0
M  V30 1008 H 96.1074 -1.5831 -7.92442 0
M  V30 1009 H 99.6934 -0.529746 -5.79383 0
M  V30 1010 H 98.5734 -1.69742 -7.65609 0
M  V30 1011 N 96.0765 1.50051 0.48192 0
M  V30 1012 C 97.0065 1.71046 1.58951 0
M  V30 1013 C 97.9875 0.559288 1.60642 0
M  V30 1014 O 99.1725 0.797243 1.77081 0
M  V30 1015 C 96.3025 1.79462 2.97339 0
M  V30 1016 C 95.2565 2.94558 3.10515 0
M  V30 1017 C 94.5825 2.88105 4.50444 0
M  V30 1018 C 95.8825 4.35227 2.88747 0
M  V30 1019 H 97.5765 2.6378 1.41635 0
M  V30 1020 H 95.1225 1.26936 0.679942 0
M  V30 1021 H 97.0755 1.92734 3.74742 0
M  V30 1022 H 95.7995 0.833412 3.15788 0
M  V30 1023 H 94.4585 2.80918 2.35543 0
M  V30 1024 H 94.1065 1.89853 4.65795 0
M  V30 1025 H 93.8065 3.65366 4.60197 0
M  V30 1026 H 95.3305 3.03412 5.29881 0
M  V30 1027 H 96.7445 4.49449 3.55905 0
M  V30 1028 H 95.1415 5.13856 3.09955 0
M  V30 1029 H 96.2115 4.48347 1.84696 0
M  V30 1030 N 97.5546 -0.734337 1.39446 0
M  V30 1031 C 98.8036 -1.48937 1.36017 0
M  V30 1032 C 99.1166 -1.95557 -0.0409005 0
M  V30 1033 O 100.323 -2.70779 -0.19778 0
M  V30 1034 C 98.7786 -2.69125 2.38955 0
M  V30 1035 C 98.3866 -2.29452 3.8478 0
M  V30 1036 C 100.131 -3.46944 2.44603 0
M  V30 1037 C 98.0376 -3.46366 4.79358 0
M  V30 1038 H 96.9676 -0.559296 0.505672 0
M  V30 1039 H 99.6186 -0.800983 1.65095 0
M  V30 1040 H 98.0006 -3.40041 2.02948 0
M  V30 1041 H 99.1746 -1.66077 4.29831 0
M  V30 1042 H 97.4896 -1.64723 3.82433 0
M  V30 1043 H 100.087 -4.33907 3.12456 0
M  V30 1044 H 100.43 -3.89454 1.47076 0
M  V30 1045 H 100.963 -2.83056 2.79507 0
M  V30 1046 H 97.7016 -3.08905 5.78151 0
M  V30 1047 H 97.2216 -4.08719 4.38986 0
M  V30 1048 H 98.9006 -4.12691 4.98292 0
M  V30 1049 N 99.0327 -1.24633 -0.964593 0
M  V30 1050 C 100.261 -1.11501 -1.74285 0
M  V30 1051 C 100.676 0.332165 -1.85855 0
M  V30 1052 O 100.033 1.22903 -1.34911 0
M  V30 1053 C 100.084 -1.75258 -3.16175 0
M  V30 1054 O 99.8047 -3.14318 -3.05182 0
M  V30 1055 C 101.306 -1.67776 -4.10324 0
M  V30 1056 H 98.5257 -0.389407 -0.546446 0
M  V30 1057 H 101.07 -1.64801 -1.21083 0
M  V30 1058 H 99.2247 -1.25954 -3.66353 0
M  V30 1059 H 99.6387 -3.4551 -3.94618 0
M  V30 1060 H 101.113 -2.17064 -5.0753 0
M  V30 1061 H 101.59 -0.639584 -4.34518 0
M  V30 1062 H 102.196 -2.16522 -3.66058 0
M  V30 1063 N 100.511 1.16574 -1.06058 0
M  V30 1064 C 101.461 2.18854 -0.63929 0
M  V30 1065 C 102.445 1.57505 0.328798 0
M  V30 1066 O 103.637 1.76408 0.144623 0
M  V30 1067 C 100.766 3.43291 -0.0247203 0
M  V30 1068 C 99.8518 4.11722 -1.01716 0
M  V30 1069 N 100.243 4.55841 -2.19186 0
M  V30 1070 C 98.5408 4.37872 -0.847569 0
M  V30 1071 C 99.2418 5.08751 -2.82042 0
M  V30 1072 N 98.2178 5.01489 -2.09784 0
M  V30 1073 H 102.02 2.5068 -1.53417 0
M  V30 1074 H 99.5338 1.32999 -0.931935 0
M  V30 1075 H 101.531 4.15856 0.294915 0
M  V30 1076 H 100.191 3.12954 0.865448 0
M  V30 1077 H 101.202 4.49649 -2.56975 0
M  V30 1078 H 97.8788 4.17499 -0.00918848 0
M  V30 1079 H 99.2688 5.52944 -3.81709 0
M  V30 1080 N 101.989 0.842826 1.3317 0
M  V30 1081 C 102.936 0.276885 2.29133 0
M  V30 1082 C 103.906 -0.609527 1.54512 0
M  V30 1083 O 105.091 -0.546955 1.82792 0
M  V30 1084 C 102.231 -0.538707 3.40869 0
M  V30 1085 C 101.344 0.372169 4.30394 0
M  V30 1086 C 100.479 -0.454908 5.29249 0
M  V30 1087 C 99.5179 0.45411 6.10413 0
M  V30 1088 N 98.6549 -0.335075 7.013 0
M  V30 1089 H 103.495 1.10052 2.76934 0
M  V30 1090 H 101.032 0.554161 1.36262 0
M  V30 1091 H 102.99 -1.02709 4.0436 0
M  V30 1092 H 101.62 -1.32727 2.9425 0
M  V30 1093 H 100.672 0.97888 3.6759 0
M  V30 1094 H 101.984 1.0703 4.87182 0
M  V30 1095 H 101.138 -1.00695 5.98285 0
M  V30 1096 H 99.8769 -1.18646 4.73048 0
M  V30 1097 H 98.8819 1.01813 5.40291 0
M  V30 1098 H 100.107 1.18409 6.68697 0
M  V30 1099 H 98.0529 -1.04994 6.47543 0
M  V30 1100 H 97.9699 0.304262 7.55387 0
M  V30 1101 H 99.2379 -0.869224 7.74638 0
M  V30 1102 N 103.467 -1.45747 0.599634 0
M  V30 1103 C 104.417 -2.27538 -0.145107 0
M  V30 1104 C 105.401 -1.3686 -0.846055 0
M  V30 1105 O 106.593 -1.6091 -0.737357 0
M  V30 1106 C 103.722 -3.23569 -1.14708 0
M  V30 1107 C 102.808 -4.21734 -0.447383 0
M  V30 1108 N 103.199 -5.03257 0.506535 0
M  V30 1109 C 101.497 -4.40536 -0.695966 0
M  V30 1110 C 102.198 -5.74426 0.917068 0
M  V30 1111 N 101.174 -5.42966 0.26253 0
M  V30 1112 H 104.976 -2.87965 0.587672 0
M  V30 1113 H 102.49 -1.56803 0.422697 0
M  V30 1114 H 104.487 -3.8089 -1.69495 0
M  V30 1115 H 103.147 -2.64702 -1.8805 0
M  V30 1116 H 104.158 -5.10319 0.882899 0
M  V30 1117 H 100.835 -3.92802 -1.41467 0
M  V30 1118 H 102.225 -6.4995 1.70338 0
M  V30 1119 N 104.945 -0.338344 -1.53925 0
M  V30 1120 C 106.175 0.260919 -2.04946 0
M  V30 1121 C 106.583 1.45174 -1.2133 0
M  V30 1122 O 105.926 1.82122 -0.240262 0
M  V30 1123 C 105.988 0.744596 -3.51704 0
M  V30 1124 C 105.652 -0.325883 -4.55837 0
M  V30 1125 C 106.649 -1.16687 -5.06636 0
M  V30 1126 C 104.334 -0.478317 -5.00017 0
M  V30 1127 C 106.328 -2.14588 -6.00192 0
M  V30 1128 C 104.015 -1.46073 -5.93385 0
M  V30 1129 C 105.013 -2.29297 -6.4336 0
M  V30 1130 O 104.701 -3.25867 -7.34892 0
M  V30 1131 H 104.433 0.0551207 -0.673749 0
M  V30 1132 H 106.987 -0.486984 -1.99544 0
M  V30 1133 H 105.217 1.54366 -3.54553 0
M  V30 1134 H 106.906 1.26383 -3.85723 0
M  V30 1135 H 107.672 -1.06016 -4.73271 0
M  V30 1136 H 103.551 0.159613 -4.60724 0
M  V30 1137 H 107.095 -2.79585 -6.39123 0
M  V30 1138 H 102.992 -1.56802 -6.26166 0
M  V30 1139 H 103.76 -3.21278 -7.5281 0
M  V30 1140 N 106.423 1.57458 -0.0668435 0
M  V30 1141 C 107.7 1.8469 0.644132 0
M  V30 1142 C 108.08 0.958343 1.88093 0
M  V30 1143 O 107.428 0.0233579 2.28488 0
M  V30 1144 C 107.638 3.34767 0.986509 0
M  V30 1145 C 108.986 4.02159 1.36212 0
M  V30 1146 O 110.01 3.39484 1.07839 0
M  V30 1147 O 108.869 5.12694 1.89227 0
M  V30 1148 H 105.963 0.762816 0.319437 0
M  V30 1149 H 108.509 1.6942 -0.0973986 0
M  V30 1150 H 107.281 3.91151 0.107883 0
M  V30 1151 H 106.904 3.55281 1.78497 0
M  V30 1152 N 107.901 -0.206675 1.56239 0
M  V30 1153 C 108.851 -1.26 1.90021 0
M  V30 1154 C 109.835 -1.41566 0.764721 0
M  V30 1155 O 111.027 -1.44131 1.02739 0
M  V30 1156 C 108.156 -2.6073 2.23326 0
M  V30 1157 C 107.242 -2.49005 3.43304 0
M  V30 1158 N 107.633 -2.06946 4.61527 0
M  V30 1159 C 105.931 -2.79927 3.47213 0
M  V30 1160 C 106.632 -2.06832 5.43687 0
M  V30 1161 N 105.608 -2.47892 4.83788 0
M  V30 1162 H 109.41 -0.925955 2.78932 0
M  V30 1163 H 106.924 -0.415172 1.57003 0
M  V30 1164 H 108.921 -3.36798 2.45708 0
M  V30 1165 H 107.581 -2.94968 1.35735 0
M  V30 1166 H 108.592 -1.77839 4.86409 0
M  V30 1167 H 105.269 -3.18438 2.70006 0
M  V30 1168 H 106.659 -1.76312 6.48354 0
M  V30 1169 N 109.379 -1.50304 -0.473955 0
M  V30 1170 C 110.619 -1.62786 -1.23612 0
M  V30 1171 C 110.983 -0.319786 -1.89318 0
M  V30 1172 O 112.184 -0.320012 -2.66888 0
M  V30 1173 C 110.455 -2.77351 -2.25414 0
M  V30 1174 S 112.014 -3.09948 -3.10608 0
M  V30 1175 H 108.832 -0.573895 -0.419721 0
M  V30 1176 H 111.434 -1.88076 -0.533623 0
M  V30 1177 H 110.138 -3.70879 -1.75719 0
M  V30 1178 H 109.669 -2.54137 -3.00296 0
M  V30 1179 H 111.684 -2.53553 -4.26527 0
M  V30 1180 N 110.857 0.726932 -1.39834 0
M  V30 1181 C 112.105 1.4837 -1.37225 0
M  V30 1182 C 112.426 1.94979 0.0284857 0
M  V30 1183 O 111.696 1.69555 0.981213 0
M  V30 1184 H 110.276 0.55043 -0.505011 0
M  V30 1185 H 112.938 0.862468 -1.74778 0
M  V30 1186 H 112.034 2.36198 -2.04003 0
M  V30 1187 N 112.336 1.25143 0.95797 0
M  V30 1188 C 113.266 1.07711 2.07173 0
M  V30 1189 C 114.247 -0.0128462 1.70095 0
M  V30 1190 O 115.432 0.156061 1.93572 0
M  V30 1191 C 112.562 0.691503 3.40346 0
M  V30 1192 C 111.516 1.73132 3.9142 0
M  V30 1193 C 110.842 1.20049 5.21049 0
M  V30 1194 C 112.142 3.1294 4.1817 0
M  V30 1195 H 113.836 2.00873 2.22014 0
M  V30 1196 H 111.382 0.967191 1.06684 0
M  V30 1197 H 113.335 0.556505 4.17709 0
M  V30 1198 H 112.059 -0.275819 3.25433 0
M  V30 1199 H 110.718 1.8547 3.16222 0
M  V30 1200 H 110.366 0.223499 5.02503 0
M  V30 1201 H 110.066 1.89545 5.56189 0
M  V30 1202 H 111.59 1.07782 6.01012 0
M  V30 1203 H 113.004 3.03775 4.86203 0
M  V30 1204 H 111.401 3.79875 4.64559 0
M  V30 1205 H 112.471 3.6025 3.24573 0
M  V30 1206 N 113.814 -1.1601 1.06675 0
M  V30 1207 C 114.744 -2.22688 0.702307 0
M  V30 1208 C 115.725 -1.67306 -0.307032 0
M  V30 1209 O 116.91 -1.93352 -0.181305 0
M  V30 1210 C 114.04 -3.47178 0.092038 0
M  V30 1211 C 112.994 -4.15477 1.02777 0
M  V30 1212 C 112.32 -5.33963 0.28061 0
M  V30 1213 C 113.62 -4.66019 2.35846 0
M  V30 1214 H 115.314 -2.53429 1.59419 0
M  V30 1215 H 112.86 -1.21813 0.767961 0
M  V30 1216 H 114.813 -4.21037 -0.174814 0
M  V30 1217 H 113.537 -3.15749 -0.834877 0
M  V30 1218 H 112.196 -3.43549 1.27944 0
M  V30 1219 H 111.844 -4.98788 -0.649545 0
M  V30 1220 H 111.544 -5.806 0.904258 0
M  V30 1221 H 113.068 -6.10596 0.021396 0
M  V30 1222 H 114.482 -5.3144 2.15045 0
M  V30 1223 H 112.879 -5.23293 2.93743 0
M  V30 1224 H 113.949 -3.82023 2.98641 0
M  V30 1225 N 115.292 -0.849877 -1.32721 0
M  V30 1226 C 116.703 -0.506188 -1.79707 0
M  V30 1227 C 117.054 0.975627 -1.70223 0
M  V30 1228 O 116.179 1.76078 -1.25799 0
M  V30 1229 C 116.774 -0.912044 -3.26293 0
M  V30 1230 C 115.333 -0.620326 -3.71253 0
M  V30 1231 C 114.48 -1.11439 -2.53922 0
M  V30 1232 H 117.431 -1.03754 -1.20087 0
M  V30 1233 H 117.452 -0.226493 -3.79825 0
M  V30 1234 H 116.964 -1.99057 -3.33164 0
M  V30 1235 H 115.065 0.447674 -3.69901 0
M  V30 1236 H 115.178 -1.18327 -4.64258 0
M  V30 1237 H 113.542 -0.534834 -2.49021 0
M  V30 1238 H 114.325 -2.19992 -2.6355 0
M  V30 1239 N 116.77 1.45427 -0.607355 0
M  V30 1240 C 118 2.06314 -0.108656 0
M  V30 1241 C 118.408 1.45269 1.21217 0
M  V30 1242 O 117.751 0.561115 1.74921 0
M  V30 1243 C 117.813 3.59345 0.105618 0
M  V30 1244 C 117.477 4.42723 -1.13337 0
M  V30 1245 C 118.474 4.77715 -2.05145 0
M  V30 1246 C 116.159 4.83478 -1.36213 0
M  V30 1247 C 118.153 5.52317 -3.18158 0
M  V30 1248 C 115.84 5.57835 -2.49527 0
M  V30 1249 C 116.838 5.92171 -3.40327 0
M  V30 1250 O 116.526 6.65019 -4.51669 0
M  V30 1251 H 116.258 0.672782 -0.0658842 0
M  V30 1252 H 118.812 1.87664 -0.834945 0
M  V30 1253 H 117.042 3.76394 0.886796 0
M  V30 1254 H 118.731 4.02076 0.555886 0
M  V30 1255 H 119.497 4.46787 -1.88697 0
M  V30 1256 H 115.376 4.56188 -0.664362 0
M  V30 1257 H 118.92 5.79036 -3.89054 0
M  V30 1258 H 114.817 5.88177 -2.65928 0
M  V30 1259 H 115.585 6.83469 -4.50348 0
M  V30 1260 N 118.248 0.346503 1.53744 0
M  V30 1261 C 119.178 -0.501193 2.28058 0
M  V30 1262 C 120.159 -1.10014 1.29734 0
M  V30 1263 O 121.344 -1.12097 1.58581 0
M  V30 1264 C 118.474 -1.65078 3.05559 0
M  V30 1265 C 117.428 -1.18003 4.11411 0
M  V30 1266 C 116.754 -2.41837 4.76884 0
M  V30 1267 C 118.054 -0.278394 5.21558 0
M  V30 1268 H 119.748 0.11875 2.99164 0
M  V30 1269 H 117.294 0.0585531 1.43881 0
M  V30 1270 H 119.247 -2.25028 3.56287 0
M  V30 1271 H 117.971 -2.29767 2.32109 0
M  V30 1272 H 116.63 -0.603331 3.61601 0
M  V30 1273 H 116.278 -3.0494 4.00026 0
M  V30 1274 H 115.978 -2.1102 5.48402 0
M  V30 1275 H 117.502 -3.02508 5.30397 0
M  V30 1276 H 118.916 -0.784823 5.67903 0
M  V30 1277 H 117.313 -0.0619707 6.00068 0
M  V30 1278 H 118.383 0.684677 4.80042 0
M  V30 1279 N 119.726 -1.57421 0.075193 0
M  V30 1280 C 120.966 -1.95495 -0.596757 0
M  V30 1281 C 121.33 -0.954886 -1.66571 0
M  V30 1282 O 122.531 -1.22341 -2.39345 0
M  V30 1283 C 120.802 -3.382 -1.15566 0
M  V30 1284 S 122.361 -3.98254 -1.84226 0
M  V30 1285 H 119.179 -0.683649 -0.195307 0
M  V30 1286 H 121.781 -1.94925 0.149859 0
M  V30 1287 H 120.485 -4.08766 -0.36588 0
M  V30 1288 H 120.016 -3.42321 -1.93856 0
M  V30 1289 H 122.031 -3.85435 -3.12497 0
M  V30 1290 N 121.204 0.198386 -1.56346 0
M  V30 1291 C 122.615 0.763358 -1.70381 0
M  V30 1292 C 122.966 1.83995 -0.681203 0
M  V30 1293 O 122.091 2.15785 0.16305 0
M  V30 1294 C 122.686 1.39143 -3.08909 0
M  V30 1295 C 121.245 1.90352 -3.2472 0
M  V30 1296 C 120.392 0.772233 -2.6633 0
M  V30 1297 H 123.343 -0.0266377 -1.58678 0
M  V30 1298 H 123.364 2.26076 -3.06055 0
M  V30 1299 H 122.876 0.607638 -3.83314 0
M  V30 1300 H 120.977 2.71461 -2.55225 0
M  V30 1301 H 121.09 2.06757 -4.3219 0
M  V30 1302 H 119.454 1.18566 -2.2542 0
M  V30 1303 H 120.237 0.00073556 -3.433 0
M  V30 1304 N 122.682 1.50554 0.465978 0
M  V30 1305 C 124.098 1.38093 0.800154 0
M  V30 1306 C 124.298 0.440988 1.96615 0
M  V30 1307 O 123.354 -0.114499 2.5224 0
M  V30 1308 C 124.667 2.79565 1.10742 0
M  V30 1309 C 126.215 2.88516 1.21357 0
M  V30 1310 C 126.69 4.30833 1.55393 0
M  V30 1311 N 128.181 4.33807 1.62375 0
M  V30 1312 C 128.916 5.40927 1.90225 0
M  V30 1313 N 128.412 6.58247 2.16062 0
M  V30 1314 N 130.205 5.28376 1.9177 0
M  V30 1315 H 122.356 2.10237 -0.302366 0
M  V30 1316 H 124.619 0.945203 -0.0727746 0
M  V30 1317 H 124.325 3.50208 0.323661 0
M  V30 1318 H 124.199 3.17125 2.04234 0
M  V30 1319 H 126.586 2.1809 1.98799 0
M  V30 1320 H 126.667 2.54492 0.258321 0
M  V30 1321 H 126.311 5.01799 0.784889 0
M  V30 1322 H 126.241 4.62347 2.52076 0
M  V30 1323 H 128.732 3.49212 1.44427 0
M  V30 1324 H 129.045 7.3569 2.36601 0
M  V30 1325 H 127.39 6.61413 2.13444 0
M  V30 1326 H 130.581 4.35715 1.71085 0
M  V30 1327 H 130.754 6.11944 2.13139 0
M  V30 1328 N 124.16 -0.719506 1.40217 0
M  V30 1329 C 125.09 -1.8465 1.42922 0
M  V30 1330 C 126.071 -1.67599 0.29062 0
M  V30 1331 O 127.256 -1.87688 0.498677 0
M  V30 1332 C 124.386 -3.22565 1.28722 0
M  V30 1333 C 123.34 -3.54281 2.40144 0
M  V30 1334 C 122.666 -4.91298 2.11023 0
M  V30 1335 C 123.966 -3.55676 3.82481 0
M  V30 1336 H 125.66 -1.82644 2.37237 0
M  V30 1337 H 123.206 -0.877305 1.1419 0
M  V30 1338 H 125.159 -4.01095 1.29232 0
M  V30 1339 H 123.883 -3.25137 0.308811 0
M  V30 1340 H 122.542 -2.78088 2.38877 0
M  V30 1341 H 122.19 -4.90468 1.11582 0
M  V30 1342 H 121.89 -5.13485 2.8567 0
M  V30 1343 H 123.414 -5.72166 2.13209 0
M  V30 1344 H 124.828 -4.24254 3.85592 0
M  V30 1345 H 123.225 -3.89388 4.56614 0
M  V30 1346 H 124.295 -2.55144 4.12346 0
M  V30 1347 N 125.638 -1.25649 -0.95132 0
M  V30 1348 C 127.049 -1.09654 -1.51106 0
M  V30 1349 C 127.4 0.326615 -1.93462 0
M  V30 1350 O 126.525 1.21697 -1.78938 0
M  V30 1351 C 127.12 -1.98437 -2.74605 0
M  V30 1352 C 125.679 -1.86618 -3.2688 0
M  V30 1353 C 124.826 -1.9239 -1.99703 0
M  V30 1354 H 127.777 -1.38887 -0.767865 0
M  V30 1355 H 127.798 -1.5263 -3.48546 0
M  V30 1356 H 127.31 -3.02009 -2.43746 0
M  V30 1357 H 125.411 -0.859421 -3.62553 0
M  V30 1358 H 125.524 -2.71607 -3.94673 0
M  V30 1359 H 123.888 -1.36317 -2.15151 0
M  V30 1360 H 124.671 -2.97573 -1.71188 0
M  V30 1361 N 127.117 1.15442 -1.07289 0
M  V30 1362 C 128.065 2.22225 -0.686952 0
M  V30 1363 C 129.059 1.66688 0.30193 0
M  V30 1364 O 130.265 1.79236 0.165712 0
M  V30 1365 H 126.64 0.723783 -0.204064 0
M  V30 1366 H 128.611 2.52056 -1.5972 0
M  V30 1367 C 127.36 3.47556 -0.100149 0
M  V30 1368 H 126.683 3.90612 -0.852211 0
M  V30 1369 H 128.123 4.23794 0.132235 0
M  V30 1370 C 126.582 3.16337 1.159 0
M  V30 1371 O 127.112 3.33074 2.24555 0
M  V30 1372 N 125.318 2.70385 1.06491 0
M  V30 1373 H 124.865 2.56966 0.180668 0
M  V30 1374 H 124.823 2.49871 1.90819 0
M  V30 1375 N 128.595 0.856903 1.32268 0
M  V30 1376 C 129.841 0.462069 1.97466 0
M  V30 1377 C 130.174 -0.980298 1.67642 0
M  V30 1378 O 129.449 -1.68824 0.965858 0
M  V30 1379 C 129.732 0.704336 3.53145 0
M  V30 1380 C 129.585 2.19529 3.9259 0
M  V30 1381 C 130.904 0.1622 4.39801 0
M  V30 1382 H 128.023 0.169357 0.717278 0
M  V30 1383 H 130.665 1.07574 1.56614 0
M  V30 1384 H 128.815 0.181999 3.88073 0
M  V30 1385 H 130.487 2.78387 3.67829 0
M  V30 1386 H 128.73 2.67292 3.41668 0
M  V30 1387 H 129.401 2.31549 5.01088 0
M  V30 1388 H 131.877 0.608905 4.11621 0
M  V30 1389 H 130.753 0.361265 5.4771 0
M  V30 1390 H 131.014 -0.935158 4.32096 0
M  V30 1391 N 130.073 -1.45103 0.615059 0
M  V30 1392 C 131.005 -2.28786 -0.13762 0
M  V30 1393 C 132.018 -1.40376 -0.824525 0
M  V30 1394 O 133.207 -1.64681 -0.688662 0
M  V30 1395 C 130.307 -3.16322 -1.21628 0
M  V30 1396 C 129.48 -4.33054 -0.615039 0
M  V30 1397 C 128.539 -5.01743 -1.58556 0
M  V30 1398 O 127.565 -5.58293 -1.10895 0
M  V30 1399 N 128.767 -5.01714 -2.91998 0
M  V30 1400 H 131.532 -2.94025 0.580483 0
M  V30 1401 H 129.093 -1.55373 0.45507 0
M  V30 1402 H 131.085 -3.59139 -1.86552 0
M  V30 1403 H 129.655 -2.52943 -1.83681 0
M  V30 1404 H 128.875 -3.93627 0.21245 0
M  V30 1405 H 130.163 -5.08431 -0.193704 0
M  V30 1406 H 129.561 -4.57075 -3.33316 0
M  V30 1407 H 128.118 -5.48371 -3.52325 0
M  V30 1408 N 131.551 -0.354651 -1.53558 0
M  V30 1409 C 132.797 0.238797 -2.01389 0
M  V30 1410 C 133.13 1.49309 -1.2418 0
M  V30 1411 O 132.405 1.91638 -0.332457 0
M  V30 1412 C 132.688 0.541771 -3.56001 0
M  V30 1413 C 132.541 -0.725388 -4.43912 0
M  V30 1414 C 133.86 1.34685 -4.18984 0
M  V30 1415 H 130.979 0.0853177 -0.732045 0
M  V30 1416 H 133.621 -0.477384 -1.83905 0
M  V30 1417 H 131.771 1.15189 -3.71031 0
M  V30 1418 H 133.443 -1.36313 -4.407 0
M  V30 1419 H 131.686 -1.34801 -4.12324 0
M  V30 1420 H 132.357 -0.468505 -5.50008 0
M  V30 1421 H 134.833 0.830837 -4.07721 0
M  V30 1422 H 133.709 1.52759 -5.27215 0
M  V30 1423 H 133.97 2.35221 -3.74331 0
M  V30 1424 N 133.029 1.57378 -0.0835403 0
M  V30 1425 C 133.959 2.1641 0.87686 0
M  V30 1426 C 134.94 1.09429 1.30228 0
M  V30 1427 O 136.125 1.37516 1.37124 0
M  V30 1428 C 133.255 2.73517 2.14022 0
M  V30 1429 C 132.209 3.85769 1.85381 0
M  V30 1430 C 131.535 4.29529 3.18448 0
M  V30 1431 C 132.835 5.09486 1.14984 0
M  V30 1432 H 134.529 2.96914 0.385059 0
M  V30 1433 H 132.075 1.42823 0.18377 0
M  V30 1434 H 134.028 3.13463 2.81636 0
M  V30 1435 H 132.752 1.90252 2.65465 0
M  V30 1436 H 131.411 3.46345 1.20169 0
M  V30 1437 H 131.059 3.43169 3.67755 0
M  V30 1438 H 130.759 5.05204 3.00071 0
M  V30 1439 H 132.283 4.72099 3.8724 0
M  V30 1440 H 133.697 5.46674 1.72687 0
M  V30 1441 H 132.094 5.90515 1.06826 0
M  V30 1442 H 133.164 4.84724 0.130749 0
M  V30 1443 N 134.507 -0.190092 1.56449 0
M  V30 1444 C 135.47 -1.21925 1.9408 0
M  V30 1445 C 136.47 -1.38176 0.822431 0
M  V30 1446 O 137.66 -1.35903 1.08977 0
M  V30 1447 C 134.792 -2.58773 2.21922 0
M  V30 1448 H 135.985 -0.897464 2.86157 0
M  V30 1449 H 133.538 -0.43181 1.50217 0
M  V30 1450 H 134.273 -2.95998 1.32499 0
M  V30 1451 H 134.058 -2.48348 3.03424 0
M  V30 1452 H 135.548 -3.32978 2.52022 0
M  V30 1453 N 135.985 -1.50799 -0.457987 0
M  V30 1454 C 137.21 -1.66496 -1.23668 0
M  V30 1455 C 137.635 -0.353288 -1.84752 0
M  V30 1456 O 136.993 0.684346 -1.67888 0
M  V30 1457 C 137.041 -2.76763 -2.3116 0
M  V30 1458 O 136.145 -2.38928 -3.36136 0
M  V30 1459 H 135.486 -0.555828 -0.363252 0
M  V30 1460 H 138.016 -1.9725 -0.543474 0
M  V30 1461 H 138.026 -3.00232 -2.76269 0
M  V30 1462 H 136.701 -3.71954 -1.86073 0
M  V30 1463 H 135.278 -2.25953 -2.96647 0
M  V30 1464 N 137.463 0.71206 -1.40597 0
M  V30 1465 C 138.373 1.8562 -1.43466 0
M  V30 1466 C 139.389 1.70902 -0.326902 0
M  V30 1467 O 140.565 1.93105 -0.572043 0
M  V30 1468 C 137.63 3.21451 -1.29884 0
M  V30 1469 C 136.691 3.48398 -2.50833 0
M  V30 1470 C 135.924 4.77749 -2.3789 0
M  V30 1471 O 136.147 5.53089 -1.39459 0
M  V30 1472 O 135.081 5.05111 -3.27333 0
M  V30 1473 H 138.907 1.86155 -2.39958 0
M  V30 1474 H 136.492 0.86295 -1.21957 0
M  V30 1475 H 138.374 4.02579 -1.24531 0
M  V30 1476 H 137.049 3.21636 -0.364997 0
M  V30 1477 H 135.956 2.67265 -2.61763 0
M  V30 1478 H 137.289 3.53014 -3.4299 0
M  V30 1479 N 138.941 1.26152 0.944643 0
M  V30 1480 C 140.357 1.03189 1.21754 0
M  V30 1481 C 140.557 -0.245112 2.00004 0
M  V30 1482 O 139.613 -0.955176 2.33736 0
M  V30 1483 C 140.926 2.26119 1.98219 0
M  V30 1484 C 142.474 2.30984 2.11224 0
M  V30 1485 C 142.949 3.53597 2.91089 0
M  V30 1486 N 144.44 3.54053 2.98664 0
M  V30 1487 C 145.175 4.45593 3.60881 0
M  V30 1488 N 144.671 5.47416 4.24626 0
M  V30 1489 N 146.464 4.33252 3.58119 0
M  V30 1490 H 138.615 2.08177 0.421437 0
M  V30 1491 H 140.878 0.914723 0.248969 0
M  V30 1492 H 140.584 3.18984 1.48128 0
M  V30 1493 H 140.458 2.3009 2.98895 0
M  V30 1494 H 142.845 1.38635 2.60508 0
M  V30 1495 H 142.926 2.31026 1.09821 0
M  V30 1496 H 142.57 4.46273 2.42493 0
M  V30 1497 H 142.5 3.50802 3.92741 0
M  V30 1498 H 144.991 2.80403 2.53343 0
M  V30 1499 H 145.304 6.13459 4.69987 0
M  V30 1500 H 143.649 5.51278 4.23223 0
M  V30 1501 H 146.84 3.52924 3.0751 0
M  V30 1502 H 147.013 5.04786 4.06319 0
M  V30 1503 N 140.419 -1.14872 1.07899 0
M  V30 1504 C 141.647 -1.89661 0.82683 0
M  V30 1505 C 142.062 -1.78312 -0.620519 0
M  V30 1506 O 141.419 -1.13888 -1.42604 0
M  V30 1507 C 141.47 -3.39817 1.23316 0
M  V30 1508 O 141.191 -3.50845 2.62372 0
M  V30 1509 C 142.692 -4.31615 1.0111 0
M  V30 1510 H 139.912 -0.60092 0.298557 0
M  V30 1511 H 142.456 -1.4551 1.43691 0
M  V30 1512 H 140.611 -3.8161 0.667286 0
M  V30 1513 H 141.025 -4.44076 2.79101 0
M  V30 1514 H 142.499 -5.35367 1.34486 0
M  V30 1515 H 142.976 -4.39169 -0.0522168 0
M  V30 1516 H 143.582 -3.95572 1.56215 0
M  V30 1517 N 141.898 -0.863906 -1.31812 0
M  V30 1518 C 143.138 -0.47825 -1.98726 0
M  V30 1519 C 143.502 0.950397 -1.66828 0
M  V30 1520 O 144.703 1.44109 -2.26905 0
M  V30 1521 C 142.974 -0.721134 -3.50049 0
M  V30 1522 S 144.533 -0.434432 -4.36644 0
M  V30 1523 H 141.351 -0.178773 -0.688158 0
M  V30 1524 H 143.953 -1.11862 -1.60334 0
M  V30 1525 H 142.657 -1.75981 -3.70755 0
M  V30 1526 H 142.188 -0.0675315 -3.93342 0
M  V30 1527 H 144.203 0.735786 -4.90714 0
M  V30 1528 N 143.376 1.44774 -0.622745 0
M  V30 1529 C 144.308 2.28856 0.125485 0
M  V30 1530 C 145.321 1.40811 0.817069 0
M  V30 1531 O 146.51 1.65044 0.679918 0
M  V30 1532 C 143.61 3.16963 1.19949 0
M  V30 1533 C 142.783 4.33374 0.592064 0
M  V30 1534 C 141.842 5.02577 1.55893 0
M  V30 1535 O 140.868 5.58873 1.07933 0
M  V30 1536 N 142.07 5.03256 2.89334 0
M  V30 1537 H 144.835 2.93713 -0.596068 0
M  V30 1538 H 142.396 1.55129 -0.463303 0
M  V30 1539 H 144.388 3.60123 1.84644 0
M  V30 1540 H 142.958 2.53913 1.82337 0
M  V30 1541 H 142.178 3.93509 -0.233322 0
M  V30 1542 H 143.466 5.08527 0.166738 0
M  V30 1543 H 142.864 4.58836 3.30887 0
M  V30 1544 H 141.421 5.50232 3.49412 0
M  V30 1545 N 144.854 0.36279 1.53368 0
M  V30 1546 C 145.817 -0.472679 2.24273 0
M  V30 1547 C 146.817 -1.012 1.24961 0
M  V30 1548 O 148.007 -0.898194 1.49259 0
M  V30 1549 C 145.139 -1.66039 2.97731 0
M  V30 1550 H 146.332 0.14773 2.99536 0
M  V30 1551 H 143.885 0.114434 1.55881 0
M  V30 1552 H 144.62 -2.31896 2.26704 0
M  V30 1553 H 144.405 -1.28066 3.70596 0
M  V30 1554 H 145.895 -2.25252 3.51641 0
M  V30 1555 N 146.332 -1.57332 0.0918853 0
M  V30 1556 C 147.578 -1.95328 -0.567313 0
M  V30 1557 C 147.933 -0.972866 -1.65991 0
M  V30 1558 O 147.226 0.00166256 -1.916 0
M  V30 1559 C 147.42 -3.37689 -1.17051 0
M  V30 1560 C 147.249 -4.49489 -0.137875 0
M  V30 1561 C 146.019 -5.04498 0.284515 0
M  V30 1562 C 148.217 -5.10393 0.63271 0
M  V30 1563 N 146.199 -5.99853 1.30576 0
M  V30 1564 C 147.57 -6.01435 1.50587 0
M  V30 1565 C 149.625 -4.93143 0.68658 0
M  V30 1566 C 148.328 -6.77077 2.42815 0
M  V30 1567 C 150.354 -5.69445 1.59645 0
M  V30 1568 C 149.716 -6.60151 2.45725 0
M  V30 1569 H 145.815 -0.761467 -0.178023 0
M  V30 1570 H 148.399 -1.93924 0.173706 0
M  V30 1571 H 146.57 -3.39793 -1.88136 0
M  V30 1572 H 148.302 -3.62872 -1.79181 0
M  V30 1573 H 145.057 -4.73489 -0.102593 0
M  V30 1574 H 145.481 -6.52231 1.81449 0
M  V30 1575 H 150.123 -4.22785 0.035244 0
M  V30 1576 H 147.841 -7.46699 3.08975 0
M  V30 1577 H 151.427 -5.58112 1.64323 0
M  V30 1578 H 150.307 -7.18159 3.14987 0
M  V30 1579 N 147.81 0.181792 -1.56548 0
M  V30 1580 C 148.757 1.22521 -1.95595 0
M  V30 1581 C 149.727 1.4454 -0.818373 0
M  V30 1582 O 150.912 1.57454 -1.07763 0
M  V30 1583 C 148.052 2.56193 -2.31212 0
M  V30 1584 C 147.165 2.41641 -3.58097 0
M  V30 1585 C 146.3 3.68108 -3.82975 0
M  V30 1586 C 145.339 3.48445 -5.03242 0
M  V30 1587 N 144.476 4.66956 -5.24306 0
M  V30 1588 H 149.316 0.885226 -2.84548 0
M  V30 1589 H 146.853 0.425718 -1.40805 0
M  V30 1590 H 148.811 3.34088 -2.49882 0
M  V30 1591 H 147.441 2.88208 -1.45382 0
M  V30 1592 H 146.493 1.54976 -3.474 0
M  V30 1593 H 147.805 2.23052 -4.46149 0
M  V30 1594 H 146.959 4.54441 -4.01956 0
M  V30 1595 H 145.698 3.89666 -2.93278 0
M  V30 1596 H 144.703 2.60499 -4.8417 0
M  V30 1597 H 145.928 3.2832 -5.9446 0
M  V30 1598 H 143.874 4.88752 -4.37559 0
M  V30 1599 H 143.791 4.51242 -6.06561 0
M  V30 1600 H 145.059 5.54602 -5.47756 0
M  V30 1601 N 149.288 1.51039 0.449983 0
M  V30 1602 C 150.513 1.6715 1.22783 0
M  V30 1603 C 150.938 0.363081 1.84563 0
M  V30 1604 O 150.296 -0.675433 1.68249 0
M  V30 1605 C 150.344 2.77985 2.29689 0
M  V30 1606 O 149.448 2.40707 3.34864 0
M  V30 1607 H 148.789 0.557746 0.360299 0
M  V30 1608 H 151.319 1.97535 0.533005 0
M  V30 1609 H 151.329 3.01693 2.74673 0
M  V30 1610 H 150.004 3.72935 1.84098 0
M  V30 1611 H 148.581 2.27523 2.95445 0
M  V30 1612 N 150.766 -0.704594 1.40972 0
M  V30 1613 C 151.676 -1.84856 1.44448 0
M  V30 1614 C 152.692 -1.70726 0.335961 0
M  V30 1615 O 153.868 -1.92799 0.582276 0
M  V30 1616 C 150.933 -3.20758 1.31587 0
M  V30 1617 C 149.994 -3.47063 2.52677 0
M  V30 1618 C 149.227 -4.76481 2.4042 0
M  V30 1619 O 149.45 -5.52341 1.42391 0
M  V30 1620 O 148.384 -5.03367 3.30007 0
M  V30 1621 H 152.21 -1.8488 2.40942 0
M  V30 1622 H 149.795 -0.85647 1.22413 0
M  V30 1623 H 151.677 -4.01913 1.26665 0
M  V30 1624 H 150.352 -3.21438 0.382049 0
M  V30 1625 H 149.259 -2.65873 2.63177 0
M  V30 1626 H 150.592 -3.5119 3.44858 0
M  V30 1627 N 152.244 -1.26651 -0.937939 0
M  V30 1628 C 153.469 -1.15279 -1.72411 0
M  V30 1629 C 153.894 0.287866 -1.85884 0
M  V30 1630 O 153.252 1.20855 -1.35143 0
M  V30 1631 C 153.3 -1.83028 -3.10698 0
M  V30 1632 O 152.404 -1.12128 -3.96864 0
M  V30 1633 H 151.745 -0.401504 -0.528858 0
M  V30 1634 H 154.275 -1.67531 -1.1745 0
M  V30 1635 H 154.285 -1.89981 -3.6107 0
M  V30 1636 H 152.96 -2.87833 -3.00208 0
M  V30 1637 H 151.537 -1.13173 -3.55312 0
M  V30 1638 N 153.722 1.14298 -1.08507 0
M  V30 1639 C 154.685 2.17607 -0.719711 0
M  V30 1640 C 155.685 1.58907 0.245997 0
M  V30 1641 O 156.875 1.74181 0.0254081 0
M  V30 1642 C 154.007 3.40842 -0.0627695 0
M  V30 1643 H 155.2 2.51443 -1.63452 0
M  V30 1644 H 152.753 1.28963 -0.88307 0
M  V30 1645 H 153.488 3.12587 0.863716 0
M  V30 1646 H 153.273 3.84713 -0.757504 0
M  V30 1647 H 154.763 4.17221 0.177786 0
M  V30 1648 N 155.201 0.870884 1.31352 0
M  V30 1649 C 156.447 0.482987 1.96965 0
M  V30 1650 C 156.78 -0.962462 1.68672 0
M  V30 1651 O 156.055 -1.6779 0.98371 0
M  V30 1652 C 156.338 0.741752 3.52378 0
M  V30 1653 C 156.191 2.2368 3.9024 0
M  V30 1654 C 157.51 0.208838 4.39604 0
M  V30 1655 H 154.629 0.176955 0.715441 0
M  V30 1656 H 157.271 1.09229 1.55464 0
M  V30 1657 H 155.421 0.223149 3.87859 0
M  V30 1658 H 157.093 2.82273 3.64856 0
M  V30 1659 H 155.336 2.70901 3.38814 0
M  V30 1660 H 156.007 2.3685 4.98604 0
M  V30 1661 H 158.483 0.652529 4.10952 0
M  V30 1662 H 157.359 0.419336 5.47296 0
M  V30 1663 H 157.62 -0.889275 4.33064 0
M  V30 1664 N 156.679 -1.44442 0.630414 0
M  V30 1665 C 158.095 -1.56832 0.295973 0
M  V30 1666 C 158.295 -1.61806 -1.20088 0
M  V30 1667 O 157.351 -1.5607 -1.9849 0
M  V30 1668 C 158.664 -2.84031 0.987264 0
M  V30 1669 C 160.212 -2.97742 0.96534 0
M  V30 1670 C 160.687 -4.27743 1.63708 0
M  V30 1671 N 162.178 -4.34555 1.60364 0
M  V30 1672 C 162.913 -5.33862 2.09234 0
M  V30 1673 N 162.409 -6.39578 2.66292 0
M  V30 1674 N 164.202 -5.25366 1.99867 0
M  V30 1675 H 156.353 -1.39457 1.60205 0
M  V30 1676 H 158.616 -0.668237 0.672431 0
M  V30 1677 H 158.322 -2.86338 2.04215 0
M  V30 1678 H 158.196 -3.73534 0.524588 0
M  V30 1679 H 160.583 -2.94989 -0.0810639 0
M  V30 1680 H 160.664 -2.09589 1.4665 0
M  V30 1681 H 160.308 -4.31255 2.68293 0
M  V30 1682 H 160.238 -5.14752 1.11076 0
M  V30 1683 H 162.729 -3.58772 1.18705 0
M  V30 1684 H 163.042 -7.11637 3.01317 0
M  V30 1685 H 161.387 -6.40265 2.70343 0
M  V30 1686 H 164.578 -4.41688 1.55013 0
M  V30 1687 H 164.751 -6.02606 2.38265 0
M  V30 1688 N 158.157 -0.370918 -1.53173 0
M  V30 1689 C 159.403 0.217423 -2.01631 0
M  V30 1690 C 159.736 1.47983 -1.25756 0
M  V30 1691 O 159.011 1.91274 -0.352764 0
M  V30 1692 C 159.294 0.503982 -3.56556 0
M  V30 1693 C 159.147 -0.77243 -4.43118 0
M  V30 1694 C 160.466 1.30234 -4.20389 0
M  V30 1695 H 157.585 0.0775486 -0.732909 0
M  V30 1696 H 160.227 -0.496863 -1.83388 0
M  V30 1697 H 158.377 1.11248 -3.72231 0
M  V30 1698 H 160.049 -1.4098 -4.39229 0
M  V30 1699 H 158.292 -1.39167 -4.10871 0
M  V30 1700 H 158.963 -0.526815 -5.4948 0
M  V30 1701 H 161.439 0.787546 -4.08579 0
M  V30 1702 H 160.315 1.47158 -5.28806 0
M  V30 1703 H 160.576 2.31237 -3.76805 0
M  V30 1704 N 159.635 1.57281 -0.100228 0
M  V30 1705 C 160.881 1.94826 0.563101 0
M  V30 1706 C 161.214 0.982475 1.67514 0
M  V30 1707 O 160.489 0.0164069 1.94493 0
M  V30 1708 C 160.772 3.42453 1.11346 0
M  V30 1709 C 160.625 4.498 0.00612081 0
M  V30 1710 C 161.944 3.91506 2.01024 0
M  V30 1711 H 159.063 0.708428 0.203221 0
M  V30 1712 H 161.705 1.8922 -0.171979 0
M  V30 1713 H 159.855 3.47361 1.7399 0
M  V30 1714 H 161.527 4.57 -0.628357 0
M  V30 1715 H 159.77 4.28756 -0.659581 0
M  V30 1716 H 160.441 5.50306 0.432109 0
M  V30 1717 H 162.917 3.88784 1.48278 0
M  V30 1718 H 161.793 4.95358 2.36457 0
M  V30 1719 H 162.054 3.31099 2.92961 0
M  V30 1720 N 161.113 -0.173488 1.56642 0
M  V30 1721 C 162.023 -1.23482 1.99473 0
M  V30 1722 C 163.039 -1.48567 0.905752 0
M  V30 1723 O 164.215 -1.60758 1.21321 0
M  V30 1724 C 161.28 -2.55444 2.34413 0
M  V30 1725 C 160.341 -2.38241 3.57127 0
M  V30 1726 C 159.574 -3.63909 3.90392 0
M  V30 1727 O 159.797 -4.68996 3.24653 0
M  V30 1728 O 158.731 -3.58149 4.83749 0
M  V30 1729 H 162.557 -0.901279 2.90018 0
M  V30 1730 H 160.142 -0.380185 1.44482 0
M  V30 1731 H 162.024 -3.33292 2.57865 0
M  V30 1732 H 160.699 -2.88382 1.4703 0
M  V30 1733 H 159.606 -1.58431 3.38896 0
M  V30 1734 H 160.939 -2.10228 4.45045 0
M  V30 1735 N 162.591 -1.51276 -0.441967 0
M  V30 1736 C 164.007 -1.39349 -0.778083 0
M  V30 1737 C 164.207 -0.472212 -1.95889 0
M  V30 1738 O 163.263 0.0743551 -2.5239 0
M  V30 1739 C 164.576 -2.81292 -1.0628 0
M  V30 1740 C 166.124 -2.9041 -1.16751 0
M  V30 1741 C 166.599 -4.33251 -1.48519 0
M  V30 1742 N 168.09 -4.36336 -1.55453 0
M  V30 1743 C 168.825 -5.43885 -1.81596 0
M  V30 1744 N 168.321 -6.61601 -2.05562 0
M  V30 1745 N 170.114 -5.3136 -1.8334 0
M  V30 1746 H 162.265 -2.09729 0.335774 0
M  V30 1747 H 164.528 -0.943925 0.0878028 0
M  V30 1748 H 164.234 -3.50678 -0.267905 0
M  V30 1749 H 164.108 -3.20334 -1.99163 0
M  V30 1750 H 166.495 -2.21225 -1.95304 0
M  V30 1751 H 166.576 -2.54871 -0.217801 0
M  V30 1752 H 166.22 -5.02984 -0.704958 0
M  V30 1753 H 166.15 -4.66299 -2.44689 0
M  V30 1754 H 168.641 -3.51466 -1.38853 0
M  V30 1755 H 168.954 -7.39361 -2.24867 0
M  V30 1756 H 167.299 -6.64725 -2.02894 0
M  V30 1757 H 170.49 -4.38382 -1.64132 0
M  V30 1758 H 170.663 -6.15258 -2.03377 0
M  V30 1759 N 164.069 0.697108 -1.41344 0
M  V30 1760 C 164.999 1.82353 -1.45841 0
M  V30 1761 C 165.98 1.67115 -0.317247 0
M  V30 1762 O 167.165 1.86871 -0.528474 0
M  V30 1763 C 164.295 3.20476 -1.33838 0
M  V30 1764 C 163.249 3.50415 -2.4575 0
M  V30 1765 C 162.575 4.87878 -2.18813 0
M  V30 1766 C 163.875 3.49546 -3.88091 0
M  V30 1767 H 165.569 1.78846 -2.40113 0
M  V30 1768 H 163.115 0.859028 -1.15571 0
M  V30 1769 H 165.068 3.98988 -1.35596 0
M  V30 1770 H 163.792 3.24604 -0.360498 0
M  V30 1771 H 162.451 2.74253 -2.43271 0
M  V30 1772 H 162.099 4.8863 -1.19371 0
M  V30 1773 H 161.799 5.08875 -2.93803 0
M  V30 1774 H 163.323 5.68702 -2.22284 0
M  V30 1775 H 164.737 4.18066 -3.92293 0
M  V30 1776 H 163.134 3.82075 -4.62751 0
M  V30 1777 H 164.204 2.48552 -4.16353 0
M  V30 1778 N 165.547 1.27147 0.931209 0
M  V30 1779 C 166.495 1.09398 2.05268 0
M  V30 1780 C 167.489 0.0180591 1.6939 0
M  V30 1781 O 168.695 0.17551 1.79142 0
M  V30 1782 H 165.07 0.336986 0.672268 0
M  V30 1783 H 167.041 2.04416 2.17386 0
M  V30 1784 C 165.79 0.75424 3.39421 0
M  V30 1785 H 165.113 1.57404 3.67511 0
M  V30 1786 H 166.553 0.669903 4.18674 0
M  V30 1787 C 165.012 -0.541197 3.32525 0
M  V30 1788 O 165.542 -1.57664 3.69466 0
M  V30 1789 N 163.748 -0.535517 2.85623 0
M  V30 1790 H 163.295 0.307511 2.55758 0
M  V30 1791 H 163.253 -1.40236 2.81392 0
M  V30 1792 N 167.025 -1.13721 1.09112 0
M  V30 1793 C 168.441 -1.36914 0.820174 0
M  V30 1794 C 168.641 -1.93356 -0.567079 0
M  V30 1795 O 167.697 -2.15093 -1.32255 0
M  V30 1796 C 169.01 -2.3235 1.90877 0
M  V30 1797 C 170.558 -2.45973 1.93562 0
M  V30 1798 C 171.033 -3.44714 3.01556 0
M  V30 1799 N 172.524 -3.52263 3.00775 0
M  V30 1800 C 173.259 -4.28536 3.80978 0
M  V30 1801 N 172.755 -5.07991 4.71081 0
M  V30 1802 N 174.548 -4.23804 3.69251 0
M  V30 1803 H 166.699 -0.754348 1.98553 0
M  V30 1804 H 168.962 -0.3944 0.862063 0
M  V30 1805 H 168.668 -1.98027 2.90651 0
M  V30 1806 H 168.542 -3.32332 1.78424 0
M  V30 1807 H 170.929 -2.79584 0.944286 0
M  V30 1808 H 171.01 -1.45926 2.10093 0
M  V30 1809 H 170.654 -3.11835 4.00901 0
M  V30 1810 H 170.584 -4.44558 2.82269 0
M  V30 1811 H 173.075 -2.95567 2.35475 0
M  V30 1812 H 173.388 -5.63487 5.28869 0
M  V30 1813 H 171.733 -5.07235 4.75119 0
M  V30 1814 H 174.924 -3.60806 2.98222 0
M  V30 1815 H 175.097 -4.82995 4.31995 0
M  V30 1816 N 168.503 -0.877838 -1.30888 0
M  V30 1817 C 169.435 -0.296607 -2.27273 0
M  V30 1818 C 170.448 0.544799 -1.53414 0
M  V30 1819 O 171.637 0.365511 -1.74718 0
M  V30 1820 C 168.737 0.597481 -3.33592 0
M  V30 1821 C 167.91 -0.213251 -4.3688 0
M  V30 1822 C 166.969 0.610208 -5.2265 0
M  V30 1823 O 165.995 0.035441 -5.69189 0
M  V30 1824 N 167.197 1.92071 -5.47804 0
M  V30 1825 H 169.962 -1.12492 -2.77787 0
M  V30 1826 H 167.523 -0.740105 -1.43993 0
M  V30 1827 H 169.515 1.15425 -3.87891 0
M  V30 1828 H 168.085 1.32647 -2.83061 0
M  V30 1829 H 167.305 -0.951466 -3.82545 0
M  V30 1830 H 168.593 -0.769262 -5.02951 0
M  V30 1831 H 167.991 2.4107 -5.11763 0
M  V30 1832 H 166.548 2.42508 -6.05007 0
M  V30 1833 N 169.982 1.44106 -0.638065 0
M  V30 1834 C 170.912 2.33448 0.0494287 0
M  V30 1835 C 171.893 1.48606 0.827672 0
M  V30 1836 O 173.078 1.77308 0.792173 0
M  V30 1837 C 170.208 3.31771 1.02691 0
M  V30 1838 C 169.162 4.26485 0.359823 0
M  V30 1839 C 168.488 5.14729 1.44769 0
M  V30 1840 C 169.788 5.17056 -0.738296 0
M  V30 1841 H 171.482 2.91183 -0.696636 0
M  V30 1842 H 169.028 1.40014 -0.336456 0
M  V30 1843 H 170.981 3.93161 1.51666 0
M  V30 1844 H 169.705 2.7226 1.80395 0
M  V30 1845 H 168.364 3.66437 -0.10934 0
M  V30 1846 H 168.012 4.51566 2.21578 0
M  V30 1847 H 167.712 5.78913 1.00668 0
M  V30 1848 H 169.236 5.78991 1.93911 0
M  V30 1849 H 170.65 5.72342 -0.331354 0
M  V30 1850 H 169.047 5.89879 -1.10286 0
M  V30 1851 H 170.117 4.57652 -1.60258 0
M  V30 1852 N 171.46 0.379036 1.52974 0
M  V30 1853 C 172.39 -0.452706 2.29069 0
M  V30 1854 C 173.371 -1.07237 1.32039 0
M  V30 1855 O 174.556 -1.08708 1.60923 0
M  V30 1856 C 171.686 -1.5856 3.08992 0
M  V30 1857 C 170.64 -1.0925 4.13822 0
M  V30 1858 C 169.966 -2.31668 4.81907 0
M  V30 1859 C 171.266 -0.167702 5.22031 0
M  V30 1860 H 172.96 0.182181 2.98845 0
M  V30 1861 H 170.506 0.0890592 1.43724 0
M  V30 1862 H 172.459 -2.1742 3.6098 0
M  V30 1863 H 171.183 -2.24792 2.36931 0
M  V30 1864 H 169.842 -0.526494 3.628 0
M  V30 1865 H 169.49 -2.96386 4.06404 0
M  V30 1866 H 169.19 -1.9934 5.52754 0
M  V30 1867 H 170.714 -2.91189 5.36695 0
M  V30 1868 H 172.128 -0.664186 5.6944 0
M  V30 1869 H 170.525 0.0653265 6.00064 0
M  V30 1870 H 171.595 0.786347 4.78482 0
M  V30 1871 N 172.938 -1.57226 0.108567 0
M  V30 1872 C 174.354 -1.5766 -0.248058 0
M  V30 1873 C 174.554 -1.12063 -1.67464 0
M  V30 1874 O 173.61 -0.803236 -2.39383 0
M  V30 1875 C 174.923 -3.0069 -0.0242287 0
M  V30 1876 C 176.471 -3.12868 -0.0909372 0
M  V30 1877 C 176.946 -4.57879 0.105067 0
M  V30 1878 N 178.437 -4.63172 0.0506846 0
M  V30 1879 C 179.172 -5.73126 0.177396 0
M  V30 1880 N 178.668 -6.91866 0.359696 0
M  V30 1881 N 180.461 -5.61977 0.117709 0
M  V30 1882 H 172.612 -1.85169 1.04049 0
M  V30 1883 H 174.875 -0.85529 0.40888 0
M  V30 1884 H 174.581 -3.38299 0.961604 0
M  V30 1885 H 174.455 -3.6945 -0.76068 0
M  V30 1886 H 176.842 -2.75124 -1.06729 0
M  V30 1887 H 176.923 -2.46672 0.677225 0
M  V30 1888 H 176.567 -4.96321 1.07834 0
M  V30 1889 H 176.497 -5.22153 -0.682954 0
M  V30 1890 H 178.988 -3.778 -0.0871266 0
M  V30 1891 H 179.301 -7.71503 0.447529 0
M  V30 1892 H 177.646 -6.93874 0.395536 0
M  V30 1893 H 180.837 -4.68094 -0.0236741 0
M  V30 1894 H 181.01 -6.47627 0.219905 0
M  V30 1895 N 174.416 0.165178 -1.56732 0
M  V30 1896 C 175.379 1.18822 -1.95995 0
M  V30 1897 C 176.379 1.3685 -0.84431 0
M  V30 1898 O 177.569 1.34152 -1.11126 0
M  V30 1899 C 174.701 2.5521 -2.26011 0
M  V30 1900 H 175.894 0.851825 -2.87548 0
M  V30 1901 H 173.447 0.407857 -1.50885 0
M  V30 1902 H 174.182 2.93852 -1.37191 0
M  V30 1903 H 173.967 2.43489 -3.07336 0
M  V30 1904 H 175.457 3.28927 -2.57288 0
M  V30 1905 N 175.894 1.51508 0.433938 0
M  V30 1906 C 176.804 1.75917 1.5521 0
M  V30 1907 C 177.82 0.643545 1.61662 0
M  V30 1908 O 178.996 0.926183 1.7884 0
M  V30 1909 C 176.061 1.88213 2.91164 0
M  V30 1910 C 175.122 3.12074 2.94802 0
M  V30 1911 C 174.355 3.23774 4.24271 0
M  V30 1912 O 174.578 2.4133 5.16833 0
M  V30 1913 O 173.512 4.16774 4.34262 0
M  V30 1914 H 177.338 2.70777 1.37527 0
M  V30 1915 H 174.923 1.36051 0.617293 0
M  V30 1916 H 176.805 1.98267 3.71845 0
M  V30 1917 H 175.48 0.965413 3.08968 0
M  V30 1918 H 174.387 3.07497 2.13065 0
M  V30 1919 H 175.72 4.03446 2.81943 0
M  V30 1920 N 177.372 -0.689602 1.41712 0
M  V30 1921 C 178.304 -1.815 1.39966 0
M  V30 1922 C 179.317 -1.59995 0.300917 0
M  V30 1923 O 180.506 -1.69387 0.563039 0
M  V30 1924 C 177.606 -3.18364 1.16179 0
M  V30 1925 C 176.779 -3.66847 2.38206 0
M  V30 1926 C 175.838 -4.82398 2.10186 0
M  V30 1927 O 174.864 -4.93706 2.83272 0
M  V30 1928 N 176.066 -5.70064 1.0958 0
M  V30 1929 H 178.831 -1.83488 2.36965 0
M  V30 1930 H 176.392 -0.872149 1.36401 0
M  V30 1931 H 178.384 -3.93301 0.953756 0
M  V30 1932 H 176.954 -3.11365 0.27756 0
M  V30 1933 H 176.174 -2.82751 2.74673 0
M  V30 1934 H 177.462 -3.95978 3.19498 0
M  V30 1935 H 176.86 -5.63565 0.491019 0
M  V30 1936 H 175.417 -6.44874 0.947656 0
M  V30 1937 N 178.85 -1.27639 -0.924453 0
M  V30 1938 C 180.266 -1.05113 -1.20097 0
M  V30 1939 C 180.466 0.213262 -2.00368 0
M  V30 1940 O 179.522 0.91787 -2.35226 0
M  V30 1941 C 180.835 -2.29244 -1.94596 0
M  V30 1942 C 182.383 -2.34315 -2.07522 0
M  V30 1943 C 182.858 -3.58183 -2.85427 0
M  V30 1944 N 184.349 -3.5876 -2.92994 0
M  V30 1945 C 185.084 -4.51277 -3.53746 0
M  V30 1946 N 184.58 -5.54102 -4.15863 0
M  V30 1947 N 186.373 -4.38894 -3.51181 0
M  V30 1948 H 178.524 -2.08821 -0.388264 0
M  V30 1949 H 180.787 -0.918568 -0.234385 0
M  V30 1950 H 180.493 -3.21301 -1.43034 0
M  V30 1951 H 180.367 -2.34816 -2.95197 0
M  V30 1952 H 182.754 -1.42762 -2.58269 0
M  V30 1953 H 182.835 -2.32744 -1.06131 0
M  V30 1954 H 182.479 -4.50074 -2.35363 0
M  V30 1955 H 182.409 -3.57006 -3.8711 0
M  V30 1956 H 184.9 -2.84398 -2.4885 0
M  V30 1957 H 185.213 -6.20859 -4.60168 0
M  V30 1958 H 183.558 -5.57941 -4.144 0
M  V30 1959 H 186.749 -3.57772 -3.01856 0
M  V30 1960 H 186.922 -5.11186 -3.98237 0
M  V30 1961 N 180.328 1.1314 -1.09713 0
M  V30 1962 C 181.258 2.20748 -0.761102 0
M  V30 1963 C 182.239 1.68061 0.262566 0
M  V30 1964 O 183.424 1.93765 0.129977 0
M  V30 1965 C 180.554 3.46812 -0.184054 0
M  V30 1966 C 179.508 4.12606 -1.13757 0
M  V30 1967 C 178.834 5.33031 -0.422083 0
M  V30 1968 C 180.134 4.59603 -2.48118 0
M  V30 1969 H 181.828 2.49113 -1.66082 0
M  V30 1970 H 179.374 1.19734 -0.799987 0
M  V30 1971 H 181.327 4.21353 0.0631215 0
M  V30 1972 H 180.051 3.17851 0.750868 0
M  V30 1973 H 178.71 3.40036 -1.37007 0
M  V30 1974 H 178.358 5.00335 0.517072 0
M  V30 1975 H 178.058 5.77999 -1.05788 0
M  V30 1976 H 179.582 6.10325 -0.183277 0
M  V30 1977 H 180.996 5.25552 -2.29059 0
M  V30 1978 H 179.393 5.15321 -3.07514 0
M  V30 1979 H 180.463 3.73971 -3.08665 0
M  V30 1980 N 181.806 0.884767 1.30421 0
M  V30 1981 C 183.217 0.553656 1.78302 0
M  V30 1982 C 183.568 -0.930153 1.7275 0
M  V30 1983 O 182.693 -1.72681 1.30423 0
M  V30 1984 C 183.288 0.998234 3.2376 0
M  V30 1985 C 181.847 0.71854 3.69478 0
M  V30 1986 C 180.994 1.18132 2.50879 0
M  V30 1987 H 183.945 1.06901 1.17294 0
M  V30 1988 H 183.966 0.327118 3.79091 0
M  V30 1989 H 183.478 2.0782 3.27769 0
M  V30 1990 H 181.579 -0.349444 3.70958 0
M  V30 1991 H 181.692 1.30595 4.60958 0
M  V30 1992 H 180.056 0.600669 2.47516 0
M  V30 1993 H 180.839 2.26902 2.57624 0
M  V30 1994 N 183.284 -1.43765 0.645699 0
M  V30 1995 C 184.194 -2.34544 -0.0512957 0
M  V30 1996 C 185.21 -1.53455 -0.82022 0
M  V30 1997 O 186.386 -1.86133 -0.769176 0
M  V30 1998 C 183.451 -3.31636 -1.01087 0
M  V30 1999 C 182.512 -4.2863 -0.239712 0
M  V30 2000 C 181.745 -5.21084 -1.15358 0
M  V30 2001 O 181.968 -5.1779 -2.39269 0
M  V30 2002 O 180.902 -5.98593 -0.630038 0
M  V30 2003 H 184.728 -2.95624 0.695718 0
M  V30 2004 H 182.313 -1.43781 0.405882 0
M  V30 2005 H 184.195 -3.9136 -1.56254 0
M  V30 2006 H 182.87 -2.73069 -1.73824 0
M  V30 2007 H 181.777 -3.72408 0.355356 0
M  V30 2008 H 183.11 -4.90157 0.447936 0
M  V30 2009 N 184.763 -0.387143 -1.52771 0
M  V30 2010 C 185.726 0.436939 -2.24997 0
M  V30 2011 C 186.726 0.991991 -1.26555 0
M  V30 2012 O 187.916 0.874335 -1.50669 0
M  V30 2013 C 185.048 1.61281 -3.00335 0
M  V30 2014 H 186.241 -0.195365 -2.99263 0
M  V30 2015 H 183.794 -0.139218 -1.55679 0
M  V30 2016 H 184.529 2.2826 -2.30364 0
M  V30 2017 H 184.314 1.22154 -3.72587 0
M  V30 2018 H 185.804 2.19629 -3.5518 0
M  V30 2019 N 186.241 1.57166 -0.116904 0
M  V30 2020 C 187.481 1.97008 0.544715 0
M  V30 2021 C 187.845 0.998713 1.63981 0
M  V30 2022 O 189.046 1.28644 2.36018 0
M  V30 2023 C 187.317 3.41145 1.06559 0
M  V30 2024 S 188.876 4.02998 1.73603 0
M  V30 2025 H 185.694 0.688587 0.177112 0
M  V30 2026 H 188.296 1.94459 -0.201487 0
M  V30 2027 H 187 4.09592 0.257374 0
M  V30 2028 H 186.531 3.4734 1.84712 0
M  V30 2029 H 188.546 3.93585 3.02168 0
M  V30 2030 N 187.719 -0.156864 1.56817 0
M  V30 2031 C 188.682 -1.17781 1.96622 0
M  V30 2032 C 189.682 -1.36401 0.851555 0
M  V30 2033 O 190.872 -1.33561 1.11836 0
M  V30 2034 C 188.004 -2.54008 2.27361 0
M  V30 2035 H 189.197 -0.836564 2.87996 0
M  V30 2036 H 186.75 -0.39985 1.51099 0
M  V30 2037 H 187.485 -2.9312 1.38748 0
M  V30 2038 H 187.27 -2.41856 3.08623 0
M  V30 2039 H 188.76 -3.27558 2.59029 0
M  V30 2040 N 189.197 -1.51736 -0.425897 0
M  V30 2041 C 190.443 -1.66174 -1.17294 0
M  V30 2042 C 190.798 -0.37876 -1.88635 0
M  V30 2043 O 190.091 0.626021 -1.81084 0
M  V30 2044 C 190.285 -2.81103 -2.20717 0
M  V30 2045 C 190.114 -4.20453 -1.59529 0
M  V30 2046 C 188.884 -4.86225 -1.37525 0
M  V30 2047 C 191.082 -5.03146 -1.06528 0
M  V30 2048 N 189.064 -6.09657 -0.720537 0
M  V30 2049 C 190.435 -6.17674 -0.536506 0
M  V30 2050 C 192.49 -4.88594 -0.958127 0
M  V30 2051 C 191.193 -7.19245 0.0888917 0
M  V30 2052 C 193.219 -5.90383 -0.346608 0
M  V30 2053 C 192.581 -7.04191 0.171564 0
M  V30 2054 H 188.68 -0.661871 -0.416475 0
M  V30 2055 H 191.264 -1.88997 -0.467801 0
M  V30 2056 H 189.435 -2.59924 -2.88607 0
M  V30 2057 H 191.167 -2.84662 -2.87663 0
M  V30 2058 H 187.922 -4.44293 -1.64015 0
M  V30 2059 H 188.346 -6.75756 -0.410292 0
M  V30 2060 H 192.988 -4.0085 -1.34459 0
M  V30 2061 H 190.706 -8.06628 0.48746 0
M  V30 2062 H 194.292 -5.81194 -0.265451 0
M  V30 2063 H 193.172 -7.81606 0.637309 0
M  V30 2064 N 190.675 0.682077 -1.42076 0
M  V30 2065 C 191.952 1.43755 -1.32642 0
M  V30 2066 C 192.332 2.11063 0.0396611 0
M  V30 2067 O 191.68 2.02701 1.05474 0
M  V30 2068 C 191.89 2.44596 -2.48946 0
M  V30 2069 C 193.238 3.09454 -2.9073 0
M  V30 2070 O 194.262 2.54922 -2.48783 0
M  V30 2071 O 193.121 4.08253 -3.63307 0
M  V30 2072 H 190.215 0.640857 -0.522715 0
M  V30 2073 H 192.761 0.711415 -1.54068 0
M  V30 2074 H 191.533 1.93609 -3.40046 0
M  V30 2075 H 191.156 3.24701 -2.29467 0
M  V30 2076 N 192.153 1.28127 0.917671 0
M  V30 2077 C 193.116 1.11744 2.00115 0
M  V30 2078 C 194.116 0.0583052 1.60694 0
M  V30 2079 O 195.306 0.303755 1.71531 0
M  V30 2080 C 192.438 0.704862 3.33533 0
M  V30 2081 H 193.631 2.07966 2.16079 0
M  V30 2082 H 191.184 1.11058 1.09981 0
M  V30 2083 H 191.919 -0.258299 3.2327 0
M  V30 2084 H 191.704 1.4699 3.63505 0
M  V30 2085 H 193.194 0.612768 4.1308 0
M  V30 2086 N 193.631 -1.12557 1.10312 0
M  V30 2087 C 194.561 -2.20341 0.772798 0
M  V30 2088 C 195.542 -1.68198 -0.25365 0
M  V30 2089 O 196.727 -1.93831 -0.119699 0
M  V30 2090 C 193.857 -3.46709 0.202443 0
M  V30 2091 C 192.811 -4.11996 1.15943 0
M  V30 2092 C 192.137 -5.328 0.450345 0
M  V30 2093 C 193.437 -4.5828 2.50552 0
M  V30 2094 H 195.131 -2.48229 1.674 0
M  V30 2095 H 192.677 -1.19308 0.806326 0
M  V30 2096 H 194.63 -4.2138 -0.0407752 0
M  V30 2097 H 193.354 -3.18245 -0.734001 0
M  V30 2098 H 192.013 -3.39305 1.38808 0
M  V30 2099 H 191.661 -5.00602 -0.490531 0
M  V30 2100 H 191.361 -5.7743 1.08851 0
M  V30 2101 H 192.885 -6.10219 0.215642 0
M  V30 2102 H 194.299 -5.2433 2.31843 0
M  V30 2103 H 192.696 -5.13683 3.10242 0
M  V30 2104 H 193.766 -3.72329 3.10643 0
M  V30 2105 N 195.109 -0.891671 -1.2995 0
M  V30 2106 C 196.52 -0.563104 -1.78006 0
M  V30 2107 C 196.871 0.920978 -1.73241 0
M  V30 2108 O 195.996 1.71987 -1.31337 0
M  V30 2109 C 196.591 -1.01539 -3.23226 0
M  V30 2110 C 195.15 -0.738124 -3.69092 0
M  V30 2111 C 194.297 -1.19461 -2.50249 0
M  V30 2112 H 197.248 -1.07522 -1.16725 0
M  V30 2113 H 197.269 -0.347217 -3.78912 0
M  V30 2114 H 196.781 -2.09555 -3.26662 0
M  V30 2115 H 194.882 0.329766 -3.71138 0
M  V30 2116 H 194.995 -1.33037 -4.60259 0
M  V30 2117 H 193.359 -0.613787 -2.47194 0
M  V30 2118 H 194.142 -2.28265 -2.56417 0
M  V30 2119 N 196.587 1.43421 -0.653314 0
M  V30 2120 C 197.833 2.02111 -0.166992 0
M  V30 2121 C 198.166 1.51423 1.21592 0
M  V30 2122 O 197.441 0.707389 1.8118 0
M  V30 2123 C 197.724 3.5966 -0.177948 0
M  V30 2124 C 197.577 4.20579 -1.59478 0
M  V30 2125 C 198.896 4.37413 0.4856 0
M  V30 2126 H 196.015 0.734374 -0.0621557 0
M  V30 2127 H 198.657 1.70717 -0.834016 0
M  V30 2128 H 196.807 3.86537 0.390032 0
M  V30 2129 H 198.479 4.04732 -2.21336 0
M  V30 2130 H 196.722 3.77226 -2.14204 0
M  V30 2131 H 197.393 5.29665 -1.5543 0
M  V30 2132 H 199.869 4.161 0.00234528 0
M  V30 2133 H 198.745 5.47075 0.447207 0
M  V30 2134 H 199.006 4.13672 1.55974 0
M  V30 2135 N 198.065 0.39524 1.52563 0
M  V30 2136 C 199.481 0.0454682 1.59535 0
M  V30 2137 C 199.681 -1.44056 1.4089 0
M  V30 2138 O 198.737 -2.20579 1.22888 0
M  V30 2139 C 200.05 0.527963 2.96029 0
M  V30 2140 C 201.598 0.484733 3.09224 0
M  V30 2141 C 202.073 0.943512 4.48176 0
M  V30 2142 N 203.564 0.899765 4.54377 0
M  V30 2143 C 204.299 1.22609 5.60138 0
M  V30 2144 N 203.795 1.62319 6.73516 0
M  V30 2145 N 205.588 1.14696 5.50274 0
M  V30 2146 H 197.739 1.36261 1.62931 0
M  V30 2147 H 200.002 0.558887 0.765735 0
M  V30 2148 H 199.708 1.56607 3.14908 0
M  V30 2149 H 199.582 -0.0698056 3.77135 0
M  V30 2150 H 201.969 -0.544298 2.90037 0
M  V30 2151 H 202.05 1.11838 2.30056 0
M  V30 2152 H 201.694 1.9708 4.68104 0
M  V30 2153 H 201.624 0.286817 5.25818 0
M  V30 2154 H 204.115 0.607632 3.72983 0
M  V30 2155 H 204.428 1.85567 7.5019 0
M  V30 2156 H 202.773 1.66211 6.74833 0
M  V30 2157 H 205.964 0.835701 4.6058 0
M  V30 2158 H 206.137 1.40459 6.32594 0
M  V30 2159 N 199.544 -1.57102 0.125237 0
M  V30 2160 C 200.507 -2.14471 -0.80838 0
M  V30 2161 C 201.507 -1.0811 -1.19033 0
M  V30 2162 O 202.697 -1.33856 -1.11482 0
M  V30 2163 C 199.829 -2.69005 -2.09402 0
M  V30 2164 H 201.022 -2.98297 -0.309696 0
M  V30 2165 H 198.575 -1.55807 -0.124051 0
M  V30 2166 H 199.31 -1.88785 -2.63687 0
M  V30 2167 H 199.095 -3.46799 -1.82957 0
M  V30 2168 H 200.585 -3.13278 -2.76128 0
M  V30 2169 N 201.022 0.148545 -1.56898 0
M  V30 2170 C 202.268 0.862694 -1.83536 0
M  V30 2171 C 202.601 1.80889 -0.706604 0
M  V30 2172 O 201.876 1.92328 0.289885 0
M  V30 2173 C 202.159 1.63853 -3.20662 0
M  V30 2174 C 202.012 0.713925 -4.44098 0
M  V30 2175 C 203.331 2.60133 -3.54991 0
M  V30 2176 H 200.45 0.312179 -0.667618 0
M  V30 2177 H 203.092 0.127953 -1.89569 0
M  V30 2178 H 201.242 2.26489 -3.1565 0
M  V30 2179 H 202.914 0.098686 -4.61194 0
M  V30 2180 H 201.157 0.0234019 -4.33794 0
M  V30 2181 H 201.828 1.29278 -5.36648 0
M  V30 2182 H 204.304 2.07616 -3.60603 0
M  V30 2183 H 203.18 3.11468 -4.51972 0
M  V30 2184 H 203.441 3.41417 -2.80868 0
M  V30 2185 N 202.5 1.5196 0.417844 0
M  V30 2186 C 203.463 1.74065 1.49111 0
M  V30 2187 C 204.463 0.610537 1.48758 0
M  V30 2188 O 205.653 0.87832 1.50437 0
M  V30 2189 C 202.785 1.81502 2.88565 0
M  V30 2190 H 203.978 2.69869 1.30807 0
M  V30 2191 H 201.531 1.42244 0.647785 0
M  V30 2192 H 202.266 0.875813 3.1225 0
M  V30 2193 H 202.051 2.63651 2.90225 0
M  V30 2194 H 203.541 2.00376 3.66387 0
M  V30 2195 N 203.978 -0.674533 1.42435 0
M  V30 2196 C 205.255 -1.4305 1.33402 0
M  V30 2197 C 205.635 -2.11081 -0.0284674 0
M  V30 2198 O 204.983 -2.03257 -1.04397 0
M  V30 2199 C 205.193 -2.43272 2.50239 0
M  V30 2200 C 206.541 -3.07907 2.92367 0
M  V30 2201 O 207.565 -2.53599 2.50132 0
M  V30 2202 O 206.424 -4.0632 3.65467 0
M  V30 2203 H 203.518 -0.638076 0.526106 0
M  V30 2204 H 206.064 -0.703235 1.54443 0
M  V30 2205 H 204.836 -1.91803 3.41068 0
M  V30 2206 H 204.459 -3.23479 2.31186 0
M  V30 2207 N 205.456 -1.28612 -0.910864 0
M  V30 2208 C 206.704 -1.15705 -1.65701 0
M  V30 2209 C 207.025 0.29416 -1.92769 0
M  V30 2210 O 206.295 1.20331 -1.54588 0
M  V30 2211 H 204.875 -0.425216 -0.614167 0
M  V30 2212 H 207.537 -1.61381 -1.0928 0
M  V30 2213 H 206.633 -1.6988 -2.61815 0
M  V30 2214 N 206.934 1.1197 -1.10907 0
M  V30 2215 C 207.844 2.21433 -0.774896 0
M  V30 2216 C 208.86 1.72478 0.229657 0
M  V30 2217 O 210.036 2.01288 0.0672008 0
M  V30 2218 C 207.101 3.4602 -0.216986 0
M  V30 2219 C 206.162 4.09791 -1.27944 0
M  V30 2220 C 205.395 5.28431 -0.748055 0
M  V30 2221 O 205.618 5.68823 0.423833 0
M  V30 2222 O 204.552 5.82644 -1.51027 0
M  V30 2223 H 208.378 2.5242 -1.68873 0
M  V30 2224 H 205.963 1.20399 -0.884555 0
M  V30 2225 H 207.845 4.21304 0.090059 0
M  V30 2226 H 206.52 3.16698 0.669633 0
M  V30 2227 H 205.427 3.36265 -1.63941 0
M  V30 2228 H 206.76 4.4328 -2.13925 0
M  V30 2229 N 208.412 0.89855 1.29475 0
M  V30 2230 C 209.658 0.534065 1.96263 0
M  V30 2231 C 210.013 -0.909415 1.69551 0
M  V30 2232 O 209.306 -1.63596 0.997349 0
M  V30 2233 C 209.5 0.761398 3.49195 0
M  V30 2234 C 209.329 2.22542 3.90775 0
M  V30 2235 C 208.099 2.87264 4.15701 0
M  V30 2236 C 210.297 3.20051 4.02581 0
M  V30 2237 N 208.279 4.24121 4.4384 0
M  V30 2238 C 209.65 4.42023 4.34759 0
M  V30 2239 C 211.705 3.15657 3.85052 0
M  V30 2240 C 210.408 5.60161 4.51235 0
M  V30 2241 C 212.434 4.33078 4.02737 0
M  V30 2242 C 211.796 5.5382 4.35273 0
M  V30 2243 H 207.895 0.245013 0.742625 0
M  V30 2244 H 210.479 1.15912 1.56437 0
M  V30 2245 H 208.65 0.165732 3.88046 0
M  V30 2246 H 210.382 0.362462 4.03074 0
M  V30 2247 H 207.137 2.38064 4.09417 0
M  V30 2248 H 207.561 4.94839 4.6202 0
M  V30 2249 H 212.203 2.23396 3.58962 0
M  V30 2250 H 209.921 6.52913 4.76162 0
M  V30 2251 H 213.507 4.31163 3.90628 0
M  V30 2252 H 212.387 6.43166 4.48672 0
M  V30 2253 N 209.89 -1.43072 0.660911 0
M  V30 2254 C 210.82 -2.33497 -0.0122829 0
M  V30 2255 C 211.801 -1.49903 -0.803925 0
M  V30 2256 O 212.986 -1.78546 -0.763864 0
M  V30 2257 C 210.116 -3.33363 -0.973994 0
M  V30 2258 C 209.07 -4.27003 -0.291928 0
M  V30 2259 C 208.396 -5.16967 -1.36562 0
M  V30 2260 C 209.696 -5.15816 0.820462 0
M  V30 2261 H 211.39 -2.90038 0.742873 0
M  V30 2262 H 208.936 -1.39461 0.358688 0
M  V30 2263 H 210.889 -3.95524 -1.45392 0
M  V30 2264 H 209.613 -2.75095 -1.7604 0
M  V30 2265 H 208.272 -3.66217 0.167623 0
M  V30 2266 H 207.92 -4.55034 -2.14366 0
M  V30 2267 H 207.62 -5.80441 -0.914454 0
M  V30 2268 H 209.144 -5.82003 -1.84675 0
M  V30 2269 H 210.558 -5.71742 0.422366 0
M  V30 2270 H 208.955 -5.8805 1.19656 0
M  V30 2271 H 210.025 -4.55045 1.67518 0
M  V30 2272 N 211.368 -0.403325 -1.52352 0
M  V30 2273 C 212.278 0.432009 -2.30588 0
M  V30 2274 C 213.294 1.05884 -1.38075 0
M  V30 2275 O 214.47 1.06161 -1.71148 0
M  V30 2276 C 211.535 1.53669 -3.10784 0
M  V30 2277 C 210.596 0.933525 -4.19027 0
M  V30 2278 C 209.829 1.98557 -4.9539 0
M  V30 2279 O 210.052 3.20283 -4.71991 0
M  V30 2280 O 208.986 1.59504 -5.80381 0
M  V30 2281 H 212.812 -0.205739 -3.03002 0
M  V30 2282 H 210.397 -0.166675 -1.48467 0
M  V30 2283 H 212.279 2.17814 -3.60742 0
M  V30 2284 H 210.954 2.15915 -2.41169 0
M  V30 2285 H 209.861 0.254954 -3.7323 0
M  V30 2286 H 211.194 0.35508 -4.90918 0
M  V30 2287 N 212.846 1.57033 -0.133567 0
M  V30 2288 C 213.776 2.1909 0.807567 0
M  V30 2289 C 214.757 1.13517 1.26681 0
M  V30 2290 O 215.942 1.41809 1.32679 0
M  V30 2291 C 213.072 2.80188 2.05212 0
M  V30 2292 C 212.026 3.91471 1.73015 0
M  V30 2293 C 211.352 4.39443 3.04622 0
M  V30 2294 C 212.652 5.12886 0.987168 0
M  V30 2295 H 214.346 2.97988 0.290403 0
M  V30 2296 H 211.892 1.43335 0.138239 0
M  V30 2297 H 213.845 3.22264 2.71521 0
M  V30 2298 H 212.569 1.98601 2.59278 0
M  V30 2299 H 211.228 3.49993 1.0909 0
M  V30 2300 H 210.876 3.54695 3.56651 0
M  V30 2301 H 210.576 5.14495 2.83847 0
M  V30 2302 H 212.1 4.8418 3.72024 0
M  V30 2303 H 213.514 5.51891 1.55208 0
M  V30 2304 H 211.911 5.93615 0.87985 0
M  V30 2305 H 212.981 4.84894 -0.0235286 0
M  V30 2306 N 214.325 -0.140222 1.56975 0
M  V30 2307 C 215.573 -0.850005 1.83356 0
M  V30 2308 C 215.894 -1.81399 0.71551 0
M  V30 2309 O 215.164 -1.94136 -0.262294 0
M  V30 2310 H 213.744 -0.316886 0.676456 0
M  V30 2311 H 216.406 -0.132608 1.94448 0
M  V30 2312 H 215.502 -1.40814 2.78528 0
M  V30 2313 N 215.803 -1.52179 -0.40978 0
M  V30 2314 C 217.214 -1.58377 -0.988615 0
M  V30 2315 C 217.565 -0.423879 -1.91566 0
M  V30 2316 O 216.69 0.455844 -2.11544 0
M  V30 2317 C 217.285 -2.87044 -1.79976 0
M  V30 2318 C 215.844 -2.95722 -2.32863 0
M  V30 2319 C 214.991 -2.53309 -1.12828 0
M  V30 2320 H 217.942 -1.57558 -0.190039 0
M  V30 2321 H 217.963 -2.7236 -2.65707 0
M  V30 2322 H 217.475 -3.71444 -1.12478 0
M  V30 2323 H 215.576 -2.15814 -3.03735 0
M  V30 2324 H 215.689 -3.99951 -2.63773 0
M  V30 2325 H 214.053 -2.07142 -1.48204 0
M  V30 2326 H 214.836 -3.40082 -0.46897 0
M  V30 2327 N 217.281 0.66697 -1.42791 0
M  V30 2328 C 218.697 0.981027 -1.25889 0
M  V30 2329 C 218.897 2.00793 -0.168695 0
M  V30 2330 O 217.953 2.48321 0.45747 0
M  V30 2331 C 219.266 1.47838 -2.61848 0
M  V30 2332 C 220.814 1.59575 -2.69267 0
M  V30 2333 C 221.289 2.12704 -4.05612 0
M  V30 2334 N 222.78 2.20026 -4.07606 0
M  V30 2335 C 223.515 2.62227 -5.09926 0
M  V30 2336 N 223.011 3.03824 -6.22626 0
M  V30 2337 N 224.804 2.62045 -4.97281 0
M  V30 2338 H 216.955 -0.0127891 -2.12396 0
M  V30 2339 H 219.218 0.0568258 -0.946295 0
M  V30 2340 H 218.924 0.798299 -3.4252 0
M  V30 2341 H 218.798 2.45579 -2.86305 0
M  V30 2342 H 221.185 2.26687 -1.88936 0
M  V30 2343 H 221.266 0.60302 -2.48591 0
M  V30 2344 H 220.91 1.46198 -4.86404 0
M  V30 2345 H 220.84 3.12782 -4.23645 0
M  V30 2346 H 223.331 1.90708 -3.2625 0
M  V30 2347 H 223.644 3.34734 -6.96544 0
M  V30 2348 H 221.989 3.01662 -6.26119 0
M  V30 2349 H 225.18 2.28916 -4.08308 0
M  V30 2350 H 225.353 2.94613 -5.77154 0
M  V30 2351 N 218.759 1.29093 0.90403 0
M  V30 2352 C 219.709 1.10482 1.99443 0
M  V30 2353 C 220.693 0.0255401 1.6088 0
M  V30 2354 O 221.885 0.24677 1.75271 0
M  V30 2355 C 219.014 0.778882 3.34348 0
M  V30 2356 C 218.1 1.89749 3.79284 0
M  V30 2357 N 218.491 3.14045 3.96497 0
M  V30 2358 C 216.789 1.78955 4.08523 0
M  V30 2359 C 217.49 3.86996 4.34292 0
M  V30 2360 N 216.466 3.14909 4.43095 0
M  V30 2361 H 220.268 2.04778 2.10815 0
M  V30 2362 H 217.782 1.20155 1.09255 0
M  V30 2363 H 219.779 0.62661 4.12164 0
M  V30 2364 H 218.439 -0.156205 3.24324 0
M  V30 2365 H 219.45 3.49548 3.82148 0
M  V30 2366 H 216.127 0.926886 4.07081 0
M  V30 2367 H 217.517 4.93941 4.55491 0
M  V30 2368 N 220.237 -1.11381 1.11499 0
M  V30 2369 C 221.653 -1.35143 0.849031 0
M  V30 2370 C 221.853 -1.94515 -0.525938 0
M  V30 2371 O 220.909 -2.1785 -1.27662 0
M  V30 2372 C 222.222 -2.28249 1.95762 0
M  V30 2373 C 223.77 -2.41812 1.98736 0
M  V30 2374 C 224.245 -3.3824 3.088 0
M  V30 2375 N 225.736 -3.45803 3.08179 0
M  V30 2376 C 226.471 -4.20358 3.89982 0
M  V30 2377 N 225.967 -4.97884 4.8175 0
M  V30 2378 N 227.76 -4.15877 3.78157 0
M  V30 2379 H 219.911 -0.712062 2.00109 0
M  V30 2380 H 222.174 -0.376025 0.870235 0
M  V30 2381 H 221.88 -1.91817 2.94787 0
M  V30 2382 H 221.754 -3.28473 1.85433 0
M  V30 2383 H 224.141 -2.77518 1.00338 0
M  V30 2384 H 224.222 -1.41437 2.13141 0
M  V30 2385 H 223.866 -3.03261 4.07425 0
M  V30 2386 H 223.796 -4.38471 2.91635 0
M  V30 2387 H 226.287 -2.90506 2.41691 0
M  V30 2388 H 226.6 -5.52142 5.40702 0
M  V30 2389 H 224.945 -4.97043 4.85771 0
M  V30 2390 H 228.136 -3.544 3.05808 0
M  V30 2391 H 228.309 -4.73723 4.42143 0
M  V30 2392 N 221.715 -0.905404 -1.28997 0
M  V30 2393 C 222.645 -0.404212 -2.29975 0
M  V30 2394 C 223.626 0.523784 -1.61835 0
M  V30 2395 O 224.811 0.433298 -1.89304 0
M  V30 2396 C 221.941 0.364042 -3.45387 0
M  V30 2397 C 220.895 -0.474048 -4.25367 0
M  V30 2398 C 220.221 0.422045 -5.33032 0
M  V30 2399 C 221.521 -1.72696 -4.92923 0
M  V30 2400 H 223.215 -1.24807 -2.72146 0
M  V30 2401 H 220.761 -0.601585 -1.30832 0
M  V30 2402 H 222.714 0.725447 -4.15109 0
M  V30 2403 H 221.438 1.24174 -3.02074 0
M  V30 2404 H 220.097 -0.81786 -3.57361 0
M  V30 2405 H 219.745 1.29804 -4.85963 0
M  V30 2406 H 219.445 -0.135057 -5.87445 0
M  V30 2407 H 220.969 0.779517 -6.05604 0
M  V30 2408 H 222.383 -1.43495 -5.55051 0
M  V30 2409 H 220.78 -2.22582 -5.57295 0
M  V30 2410 H 221.85 -2.45964 -4.17887 0
M  V30 2411 N 223.193 1.4272 -0.668489 0
M  V30 2412 C 224.125 2.2914 0.052613 0
M  V30 2413 C 225.138 1.43339 0.771857 0
M  V30 2414 O 226.327 1.67123 0.627067 0
M  V30 2415 C 223.427 3.20618 1.09804 0
M  V30 2416 C 222.6 4.35039 0.45389 0
M  V30 2417 C 221.659 5.07282 1.39825 0
M  V30 2418 O 220.685 5.62024 0.900978 0
M  V30 2419 N 221.887 5.12206 2.73176 0
M  V30 2420 H 224.652 2.91668 -0.689209 0
M  V30 2421 H 222.213 1.53577 -0.512422 0
M  V30 2422 H 224.205 3.65815 1.73094 0
M  V30 2423 H 222.775 2.59585 1.74167 0
M  V30 2424 H 221.995 3.92567 -0.358396 0
M  V30 2425 H 223.283 5.088 0.00486972 0
M  V30 2426 H 222.681 4.6913 3.16122 0
M  V30 2427 H 221.238 5.61069 3.31729 0
M  V30 2428 N 224.671 0.411399 1.52136 0
M  V30 2429 C 225.917 -0.163888 2.02137 0
M  V30 2430 C 226.25 -1.44597 1.29636 0
M  V30 2431 O 225.525 -1.90272 0.403353 0
M  V30 2432 C 225.808 -0.40927 3.57767 0
M  V30 2433 C 225.661 0.889643 4.40914 0
M  V30 2434 C 226.98 -1.19042 4.23694 0
M  V30 2435 H 224.099 -0.0580896 0.734707 0
M  V30 2436 H 226.741 0.54531 1.82007 0
M  V30 2437 H 224.891 -1.0134 3.7505 0
M  V30 2438 H 226.563 1.52575 4.35337 0
M  V30 2439 H 224.806 1.50011 4.07037 0
M  V30 2440 H 225.477 0.672314 5.4789 0
M  V30 2441 H 227.953 -0.678942 4.10524 0
M  V30 2442 H 226.829 -1.33086 5.32522 0
M  V30 2443 H 227.09 -2.21166 3.82803 0
M  V30 2444 N 226.149 -1.5696 0.141893 0
M  V30 2445 C 227.398 -1.95135 -0.510427 0
M  V30 2446 C 227.711 -1.02896 -1.66348 0
M  V30 2447 O 228.917 -1.30629 -2.38009 0
M  V30 2448 C 227.373 -3.46876 -0.959427 0
M  V30 2449 C 226.981 -4.47691 0.166419 0
M  V30 2450 C 228.725 -3.93927 -1.58183 0
M  V30 2451 C 226.632 -5.90636 -0.300565 0
M  V30 2452 H 225.562 -0.728494 -0.194454 0
M  V30 2453 H 228.213 -1.8211 0.22542 0
M  V30 2454 H 226.595 -3.55215 -1.75038 0
M  V30 2455 H 227.769 -4.51043 0.94325 0
M  V30 2456 H 226.084 -4.10527 0.696905 0
M  V30 2457 H 228.681 -4.98158 -1.94275 0
M  V30 2458 H 229.024 -3.3519 -2.46888 0
M  V30 2459 H 229.557 -3.88484 -0.855863 0
M  V30 2460 H 226.296 -6.5318 0.550989 0
M  V30 2461 H 225.816 -5.90655 -1.04338 0
M  V30 2462 H 227.495 -6.42588 -0.754265 0
M  V30 2463 N 227.627 0.131896 -1.57047 0
M  V30 2464 C 228.537 1.1815 -2.02676 0
M  V30 2465 C 229.553 1.46113 -0.944824 0
M  V30 2466 O 230.729 1.57485 -1.25541 0
M  V30 2467 C 227.794 2.49139 -2.41103 0
M  V30 2468 C 226.855 2.28688 -3.63318 0
M  V30 2469 C 226.088 3.53431 -3.99903 0
M  V30 2470 O 226.311 4.60223 -3.36973 0
M  V30 2471 O 225.245 3.45198 -4.93074 0
M  V30 2472 H 229.071 0.824069 -2.92306 0
M  V30 2473 H 226.656 0.341745 -1.45439 0
M  V30 2474 H 228.538 3.26338 -2.66611 0
M  V30 2475 H 227.213 2.84382 -1.54624 0
M  V30 2476 H 226.12 1.4939 -3.42977 0
M  V30 2477 H 227.453 1.98355 -4.50462 0
M  V30 2478 N 229.106 1.52395 0.401703 0
M  V30 2479 C 230.069 1.75636 1.47257 0
M  V30 2480 C 231.069 0.62628 1.48103 0
M  V30 2481 O 232.259 0.894227 1.49497 0
M  V30 2482 C 229.391 1.84553 2.86624 0
M  V30 2483 H 230.584 2.71241 1.27938 0
M  V30 2484 H 228.137 1.42923 0.632662 0
M  V30 2485 H 228.872 0.908882 3.11303 0
M  V30 2486 H 228.657 2.66715 2.87412 0
M  V30 2487 H 230.147 2.04251 3.64241 0
M  V30 2488 N 230.584 -0.659388 1.43143 0
M  V30 2489 C 231.534 -1.7655 1.44271 0
M  V30 2490 C 232.518 -1.57847 0.311961 0
M  V30 2491 O 233.71 -1.68064 0.555306 0
M  V30 2492 C 230.839 -3.15104 1.36251 0
M  V30 2493 C 229.925 -3.39377 2.54331 0
M  V30 2494 N 230.316 -3.34153 3.79704 0
M  V30 2495 C 228.614 -3.70072 2.48922 0
M  V30 2496 C 229.315 -3.58337 4.58225 0
M  V30 2497 N 228.291 -3.79851 3.88863 0
M  V30 2498 H 232.093 -1.70928 2.39083 0
M  V30 2499 H 229.607 -0.860823 1.37708 0
M  V30 2500 H 231.604 -3.94389 1.35141 0
M  V30 2501 H 230.264 -3.21913 0.424531 0
M  V30 2502 H 231.275 -3.13704 4.1208 0
M  V30 2503 H 227.952 -3.84034 1.63781 0
M  V30 2504 H 229.342 -3.60129 5.67236 0
M  V30 2505 N 232.062 -1.29571 -0.897171 0
M  V30 2506 C 233.31 -1.17456 -1.64464 0
M  V30 2507 C 233.631 0.273698 -1.9307 0
M  V30 2508 O 232.901 1.18684 -1.55855 0
M  V30 2509 H 231.481 -0.431706 -0.609622 0
M  V30 2510 H 234.143 -1.62531 -1.07562 0
M  V30 2511 H 233.239 -1.72648 -2.59998 0
M  V30 2512 N 233.54 1.10788 -1.12088 0
M  V30 2513 C 234.49 2.15158 -0.754401 0
M  V30 2514 C 235.474 1.59026 0.244846 0
M  V30 2515 O 236.666 1.76927 0.0509097 0
M  V30 2516 C 233.795 3.42677 -0.206657 0
M  V30 2517 C 232.881 4.05751 -1.23398 0
M  V30 2518 N 233.272 4.43582 -2.43041 0
M  V30 2519 C 231.57 4.32764 -1.07848 0
M  V30 2520 C 232.271 4.93085 -3.08613 0
M  V30 2521 N 231.247 4.89664 -2.36072 0
M  V30 2522 H 235.049 2.42195 -1.6649 0
M  V30 2523 H 232.563 1.27872 -1.00112 0
M  V30 2524 H 234.56 4.16834 0.0740646 0
M  V30 2525 H 233.22 3.17101 0.698342 0
M  V30 2526 H 234.231 4.35395 -2.80449 0
M  V30 2527 H 230.908 4.16863 -0.230483 0
M  V30 2528 H 232.298 5.31933 -4.10483 0
M  V30 2529 N 235.018 0.912232 1.28515 0
M  V30 2530 C 236.243 0.559774 1.99703 0
M  V30 2531 C 236.668 -0.851393 1.67729 0
M  V30 2532 O 236.026 -1.56875 0.908834 0
M  V30 2533 C 236.074 0.773874 3.52198 0
M  V30 2534 O 235.178 -0.167842 4.12058 0
M  V30 2535 H 234.519 0.21723 0.627461 0
M  V30 2536 H 237.049 1.22725 1.63706 0
M  V30 2537 H 237.059 0.683386 4.02236 0
M  V30 2538 H 235.734 1.80261 3.74805 0
M  V30 2539 H 234.311 -0.0287509 3.72889 0
M  V30 2540 N 236.496 -1.42363 0.676048 0
M  V30 2541 C 237.773 -1.95183 0.127726 0
M  V30 2542 C 238.153 -1.61641 -1.35777 0
M  V30 2543 O 237.501 -0.913216 -2.09458 0
M  V30 2544 C 237.711 -3.46721 0.398199 0
M  V30 2545 C 239.059 -4.23427 0.315383 0
M  V30 2546 O 240.083 -3.54649 0.332016 0
M  V30 2547 O 238.942 -5.45888 0.25865 0
M  V30 2548 H 236.036 -0.826992 0.00359427 0
M  V30 2549 H 238.582 -1.52184 0.750864 0
M  V30 2550 H 237.354 -3.64344 1.4272 0
M  V30 2551 H 236.977 -3.96769 -0.256885 0
M  V30 2552 N 237.974 -0.419461 -1.51915 0
M  V30 2553 C 239.251 0.211999 -1.94448 0
M  V30 2554 C 239.631 1.61703 -1.35703 0
M  V30 2555 O 238.979 2.22102 -0.536931 0
M  V30 2556 C 239.189 0.207872 -3.4838 0
M  V30 2557 C 240.537 0.422192 -4.22496 0
M  V30 2558 O 241.561 0.286778 -3.55044 0
M  V30 2559 O 240.42 0.690009 -5.42126 0
M  V30 2560 H 237.514 0.139586 -0.815135 0
M  V30 2561 H 240.06 -0.476151 -1.62883 0
M  V30 2562 H 238.832 -0.775102 -3.83546 0
M  V30 2563 H 238.455 0.939688 -3.86336 0
M  V30 2564 N 239.452 1.56882 -0.150215 0
M  V30 2565 C 240.402 2.13501 0.800071 0
M  V30 2566 C 241.386 1.06368 1.20726 0
M  V30 2567 O 242.578 1.32538 1.17314 0
M  V30 2568 C 239.707 2.76271 2.03787 0
M  V30 2569 C 238.793 3.90533 1.65364 0
M  V30 2570 N 239.184 4.96259 0.977794 0
M  V30 2571 C 237.482 4.013 1.94613 0
M  V30 2572 C 238.183 5.76286 0.791794 0
M  V30 2573 N 237.159 5.27163 1.32666 0
M  V30 2574 H 240.961 2.92615 0.274517 0
M  V30 2575 H 238.475 1.62319 0.0512144 0
M  V30 2576 H 240.472 3.15197 2.72867 0
M  V30 2577 H 239.132 1.98631 2.56857 0
M  V30 2578 H 240.143 5.13953 0.638193 0
M  V30 2579 H 236.82 3.3474 2.4951 0
M  V30 2580 H 238.21 6.71401 0.258894 0
M  V30 2581 N 240.93 -0.123565 1.57115 0
M  V30 2582 C 242.176 -0.833386 1.84885 0
M  V30 2583 C 242.509 -1.79742 0.735292 0
M  V30 2584 O 241.784 -1.92764 -0.25925 0
M  V30 2585 C 242.067 -1.5873 3.23228 0
M  V30 2586 C 241.92 -0.643183 4.45178 0
M  V30 2587 C 243.239 -2.54453 3.59085 0
M  V30 2588 H 240.358 -0.301518 0.6725 0
M  V30 2589 H 243 -0.097778 1.89748 0
M  V30 2590 H 241.15 -2.21438 3.19214 0
M  V30 2591 H 242.822 -0.0253015 4.61293 0
M  V30 2592 H 241.065 0.0456139 4.33776 0
M  V30 2593 H 241.736 -1.20724 5.38637 0
M  V30 2594 H 244.212 -2.01853 3.63861 0
M  V30 2595 H 243.088 -3.04238 4.5687 0
M  V30 2596 H 243.349 -3.36906 2.86264 0
M  V30 2597 N 242.408 -1.52605 -0.393616 0
M  V30 2598 C 243.654 -1.67672 -1.14079 0
M  V30 2599 C 243.987 -0.413121 -1.89755 0
M  V30 2600 O 243.262 0.588952 -1.85369 0
M  V30 2601 C 243.545 -2.9088 -2.12276 0
M  V30 2602 C 243.398 -4.27329 -1.40394 0
M  V30 2603 C 244.717 -3.09628 -3.12759 0
M  V30 2604 H 241.836 -0.610168 -0.413356 0
M  V30 2605 H 244.478 -1.85193 -0.424696 0
M  V30 2606 H 242.628 -2.76073 -2.73342 0
M  V30 2607 H 244.3 -4.53894 -0.82327 0
M  V30 2608 H 242.543 -4.2802 -0.705801 0
M  V30 2609 H 243.214 -5.09615 -2.12123 0
M  V30 2610 H 245.69 -3.23436 -2.61779 0
M  V30 2611 H 244.566 -3.97322 -3.78717 0
M  V30 2612 H 244.827 -2.23637 -3.81365 0
M  V30 2613 N 243.887 0.651787 -1.4349 0
M  V30 2614 C 245.134 1.41167 -1.45183 0
M  V30 2615 C 245.462 1.94349 -0.0766601 0
M  V30 2616 O 244.717 1.72804 0.918555 0
M  V30 2617 C 245.016 2.60914 -2.44251 0
M  V30 2618 C 244.682 2.26142 -3.9009 0
M  V30 2619 C 243.344 2.16371 -4.2981 0
M  V30 2620 C 245.696 1.98334 -4.81989 0
M  V30 2621 C 243.024 1.7695 -5.5938 0
M  V30 2622 C 245.376 1.6041 -6.11924 0
M  V30 2623 C 244.04 1.49166 -6.5062 0
M  V30 2624 H 243.31 0.516566 -0.531263 0
M  V30 2625 H 245.957 0.741099 -1.76579 0
M  V30 2626 H 244.262 3.3311 -2.06265 0
M  V30 2627 H 245.959 3.19127 -2.42815 0
M  V30 2628 H 242.549 2.34658 -3.58655 0
M  V30 2629 H 246.733 2.04803 -4.52072 0
M  V30 2630 H 241.989 1.66831 -5.88198 0
M  V30 2631 H 246.163 1.37925 -6.82605 0
M  V30 2632 H 243.79 1.1839 -7.50925 0
M  V30 2633 N 245.365 1.30045 0.890287 0
M  V30 2634 C 246.595 1.21296 1.67245 0
M  V30 2635 C 247.003 -0.227471 1.87828 0
M  V30 2636 O 246.346 -1.16296 1.422 0
M  V30 2637 C 246.408 1.86519 3.07329 0
M  V30 2638 C 246.072 3.35837 3.09939 0
M  V30 2639 C 247.069 4.31915 2.89389 0
M  V30 2640 C 244.754 3.77196 3.31706 0
M  V30 2641 C 246.748 5.67325 2.90552 0
M  V30 2642 C 244.435 5.12725 3.32499 0
M  V30 2643 C 245.433 6.076 3.11947 0
M  V30 2644 O 245.121 7.40655 3.12547 0
M  V30 2645 H 244.853 0.4211 0.528821 0
M  V30 2646 H 247.407 1.72111 1.12103 0
M  V30 2647 H 245.637 1.30228 3.64112 0
M  V30 2648 H 247.326 1.71963 3.67673 0
M  V30 2649 H 248.092 4.01294 2.72375 0
M  V30 2650 H 243.971 3.03796 3.4674 0
M  V30 2651 H 247.515 6.41354 2.74429 0
M  V30 2652 H 243.412 5.42988 3.49047 0
M  V30 2653 H 244.18 7.49577 3.28749 0
M  V30 2654 N 246.843 -1.10192 1.12674 0
M  V30 2655 C 248.12 -1.78717 0.794965 0
M  V30 2656 C 248.5 -1.98628 -0.714853 0
M  V30 2657 O 247.848 -1.58135 -1.64941 0
M  V30 2658 C 248.058 -3.11546 1.5729 0
M  V30 2659 C 249.406 -3.86382 1.76052 0
M  V30 2660 O 250.43 -3.21274 1.53823 0
M  V30 2661 O 249.289 -5.03246 2.13087 0
M  V30 2662 H 246.383 -0.774702 0.289423 0
M  V30 2663 H 248.929 -1.16819 1.23091 0
M  V30 2664 H 247.701 -2.92489 2.59935 0
M  V30 2665 H 247.324 -3.81164 1.13137 0
M  V30 2666 N 248.321 -0.919034 -1.28029 0
M  V30 2667 C 249.567 -0.555757 -1.95036 0
M  V30 2668 C 249.9 0.899198 -1.72128 0
M  V30 2669 O 249.175 1.64023 -1.04531 0
M  V30 2670 C 249.458 -0.872024 -3.49382 0
M  V30 2671 C 249.311 -2.3801 -3.81669 0
M  V30 2672 C 250.63 -0.37185 -4.38526 0
M  V30 2673 H 247.749 -0.203386 -0.708381 0
M  V30 2674 H 250.391 -1.14924 -1.51303 0
M  V30 2675 H 248.541 -0.366946 -3.86763 0
M  V30 2676 H 250.213 -2.9562 -3.54128 0
M  V30 2677 H 248.456 -2.83289 -3.28526 0
M  V30 2678 H 249.127 -2.55192 -4.8947 0
M  V30 2679 H 251.603 -0.804602 -4.08247 0
M  V30 2680 H 250.479 -0.622173 -5.45362 0
M  V30 2681 H 250.74 0.727934 -4.36066 0
M  V30 2682 N 249.799 1.42003 -0.683588 0
M  V30 2683 C 251.215 1.55625 -0.353976 0
M  V30 2684 C 251.415 1.66151 1.14 0
M  V30 2685 O 250.471 1.63329 1.92561 0
M  V30 2686 C 251.784 2.80171 -1.092 0
M  V30 2687 C 253.332 2.93954 -1.07518 0
M  V30 2688 C 253.807 4.21372 -1.79471 0
M  V30 2689 N 255.298 4.28303 -1.76381 0
M  V30 2690 C 256.033 5.25729 -2.28904 0
M  V30 2691 N 255.529 6.29254 -2.89846 0
M  V30 2692 N 257.322 5.17586 -2.19228 0
M  V30 2693 H 249.473 1.33415 -1.6527 0
M  V30 2694 H 251.736 0.64282 -0.696769 0
M  V30 2695 H 251.442 2.78561 -2.14701 0
M  V30 2696 H 251.316 3.7133 -0.662862 0
M  V30 2697 H 253.703 2.95086 -0.028475 0
M  V30 2698 H 253.784 2.04002 -1.54328 0
M  V30 2699 H 253.428 4.21001 -2.84114 0
M  V30 2700 H 253.358 5.10275 -1.30104 0
M  V30 2701 H 255.849 3.54119 -1.31939 0
M  V30 2702 H 256.162 6.99964 -3.27522 0
M  V30 2703 H 254.507 6.29791 -2.93919 0
M  V30 2704 H 257.698 4.35631 -1.71299 0
M  V30 2705 H 257.871 5.93348 -2.60466 0
M  V30 2706 N 251.277 0.427512 1.51691 0
M  V30 2707 C 252.693 0.0792977 1.59403 0
M  V30 2708 C 252.893 -1.41035 1.43914 0
M  V30 2709 O 251.949 -2.17922 1.27539 0
M  V30 2710 C 253.262 0.590636 2.94842 0
M  V30 2711 C 254.81 0.550215 3.08126 0
M  V30 2712 C 255.285 1.03836 4.46074 0
M  V30 2713 N 256.776 0.995943 4.52366 0
M  V30 2714 C 257.511 1.34463 5.57411 0
M  V30 2715 N 257.007 1.76569 6.69922 0
M  V30 2716 N 258.8 1.26343 5.47717 0
M  V30 2717 H 250.951 1.39687 1.60004 0
M  V30 2718 H 253.214 0.575003 0.753708 0
M  V30 2719 H 252.92 1.63251 3.11516 0
M  V30 2720 H 252.794 0.0102061 3.77199 0
M  V30 2721 H 255.181 -0.482654 2.91126 0
M  V30 2722 H 255.262 1.16693 2.27632 0
M  V30 2723 H 254.906 2.06965 4.63819 0
M  V30 2724 H 254.836 0.398286 5.25092 0
M  V30 2725 H 257.327 0.68661 3.7161 0
M  V30 2726 H 257.64 2.01438 7.46085 0
M  V30 2727 H 255.985 1.80488 6.71155 0
M  V30 2728 H 259.176 0.933209 4.58703 0
M  V30 2729 H 259.349 1.53846 6.29472 0
M  V30 2730 N 252.755 -1.56801 0.158532 0
M  V30 2731 C 254.171 -1.5837 -0.197774 0
M  V30 2732 C 254.371 -1.17334 -1.63814 0
M  V30 2733 O 253.427 -0.878988 -2.36707 0
M  V30 2734 C 254.74 -3.00615 0.0714459 0
M  V30 2735 C 256.288 -3.12999 0.00864533 0
M  V30 2736 C 256.763 -4.57313 0.250685 0
M  V30 2737 N 258.254 -4.62777 0.198014 0
M  V30 2738 C 258.989 -5.72271 0.359642 0
M  V30 2739 N 258.485 -6.90371 0.579625 0
M  V30 2740 N 260.278 -5.61318 0.296438 0
M  V30 2741 H 252.429 -1.81765 1.09887 0
M  V30 2742 H 254.692 -0.841849 0.435884 0
M  V30 2743 H 254.398 -3.35068 1.06874 0
M  V30 2744 H 254.272 -3.71683 -0.642757 0
M  V30 2745 H 256.659 -2.7838 -0.979217 0
M  V30 2746 H 256.74 -2.44393 0.755359 0
M  V30 2747 H 256.384 -4.92639 1.2357 0
M  V30 2748 H 256.314 -5.24061 -0.516489 0
M  V30 2749 H 258.805 -3.77885 0.0331115 0
M  V30 2750 H 259.118 -7.69689 0.69275 0
M  V30 2751 H 257.463 -6.92264 0.616087 0
M  V30 2752 H 260.654 -4.67932 0.125258 0
M  V30 2753 H 260.827 -6.46599 0.425831 0
M  V30 2754 N 254.233 0.115231 -1.57178 0
M  V30 2755 C 255.649 0.468877 -1.52557 0
M  V30 2756 C 255.849 1.81649 -0.872125 0
M  V30 2757 O 254.905 2.48347 -0.45606 0
M  V30 2758 C 256.218 0.4499 -2.97315 0
M  V30 2759 C 257.766 0.533185 -3.08425 0
M  V30 2760 C 258.241 0.54456 -4.54751 0
M  V30 2761 N 259.732 0.605892 -4.5922 0
M  V30 2762 C 260.467 0.636203 -5.6986 0
M  V30 2763 N 259.963 0.623931 -6.89985 0
M  V30 2764 N 261.756 0.679496 -5.57978 0
M  V30 2765 H 253.907 -0.767712 -1.9804 0
M  V30 2766 H 256.17 -0.283609 -0.904583 0
M  V30 2767 H 255.876 -0.472721 -3.48509 0
M  V30 2768 H 255.75 1.27632 -3.5495 0
M  V30 2769 H 258.137 1.44623 -2.57232 0
M  V30 2770 H 258.218 -0.320995 -2.53778 0
M  V30 2771 H 257.862 -0.364452 -5.06591 0
M  V30 2772 H 257.792 1.41568 -5.07214 0
M  V30 2773 H 260.283 0.621386 -3.72756 0
M  V30 2774 H 260.596 0.649787 -7.70063 0
M  V30 2775 H 258.941 0.591296 -6.9248 0
M  V30 2776 H 262.132 0.686472 -4.63039 0
M  V30 2777 H 262.305 0.69965 -6.44212 0
M  V30 2778 N 255.711 1.52812 0.385517 0
M  V30 2779 C 256.641 1.80808 1.47752 0
M  V30 2780 C 257.622 0.660318 1.5676 0
M  V30 2781 O 258.807 0.908246 1.71652 0
M  V30 2782 C 255.937 1.98008 2.85324 0
M  V30 2783 C 254.891 3.13709 2.91154 0
M  V30 2784 C 254.217 3.16169 4.31209 0
M  V30 2785 C 255.517 4.52709 2.60483 0
M  V30 2786 H 257.211 2.72253 1.24573 0
M  V30 2787 H 254.757 1.31003 0.597839 0
M  V30 2788 H 256.71 2.16176 3.61726 0
M  V30 2789 H 255.434 1.03255 3.09848 0
M  V30 2790 H 254.093 2.95329 2.17201 0
M  V30 2791 H 253.741 2.19092 4.52778 0
M  V30 2792 H 253.441 3.93894 4.36029 0
M  V30 2793 H 254.965 3.36496 5.09512 0
M  V30 2794 H 256.379 4.71173 3.26602 0
M  V30 2795 H 254.776 5.32528 2.76648 0
M  V30 2796 H 255.846 4.59186 1.55809 0
M  V30 2797 N 257.189 -0.644168 1.43834 0
M  V30 2798 C 258.436 -1.40395 1.4593 0
M  V30 2799 C 258.764 -1.94305 0.0869658 0
M  V30 2800 O 258.019 -1.73288 -0.909378 0
M  V30 2801 C 258.318 -2.59615 2.45631 0
M  V30 2802 C 257.984 -2.2407 3.91284 0
M  V30 2803 C 256.646 -2.14089 4.30952 0
M  V30 2804 C 258.998 -1.95775 4.83034 0
M  V30 2805 C 256.326 -1.73981 5.6031 0
M  V30 2806 C 258.678 -1.57163 6.12766 0
M  V30 2807 C 257.342 -1.45713 6.51402 0
M  V30 2808 H 256.612 -0.513741 0.533995 0
M  V30 2809 H 259.259 -0.731724 1.76969 0
M  V30 2810 H 257.564 -3.32011 2.08028 0
M  V30 2811 H 259.261 -3.17834 2.44504 0
M  V30 2812 H 255.851 -2.32753 3.59895 0
M  V30 2813 H 260.035 -2.02403 4.53152 0
M  V30 2814 H 255.291 -1.63709 5.89075 0
M  V30 2815 H 259.465 -1.34303 6.83327 0
M  V30 2816 H 257.092 -1.14406 7.51542 0
M  V30 2817 N 258.668 -1.30515 -0.883378 0
M  V30 2818 C 259.908 -1.20716 -1.64946 0
M  V30 2819 C 260.272 0.234072 -1.90568 0
M  V30 2820 O 261.473 0.455335 -2.64915 0
M  V30 2821 C 259.744 -2.01444 -2.9522 0
M  V30 2822 S 261.303 -2.0836 -3.86175 0
M  V30 2823 H 258.121 -0.430165 -0.566109 0
M  V30 2824 H 260.723 -1.65011 -1.04841 0
M  V30 2825 H 259.427 -3.05268 -2.74298 0
M  V30 2826 H 258.958 -1.57817 -3.60357 0
M  V30 2827 H 260.973 -1.21215 -4.81167 0
M  V30 2828 N 260.146 1.09593 -1.13257 0
M  V30 2829 C 261.394 1.81375 -0.891492 0
M  V30 2830 C 261.715 1.86049 0.584009 0
M  V30 2831 O 260.985 1.34481 1.42449 0
M  V30 2832 H 259.565 0.671708 -0.326828 0
M  V30 2833 H 262.227 1.3256 -1.42877 0
M  V30 2834 H 261.323 2.84612 -1.28071 0
M  V30 2835 N 261.624 0.925811 1.2754 0
M  V30 2836 C 262.901 0.483726 1.89524 0
M  V30 2837 C 263.281 -1.03809 1.83812 0
M  V30 2838 O 262.629 -1.89143 1.28207 0
M  V30 2839 C 262.839 1.02769 3.33526 0
M  V30 2840 C 264.187 1.08703 4.10449 0
M  V30 2841 O 265.211 0.977175 3.42534 0
M  V30 2842 O 264.07 1.25599 5.31871 0
M  V30 2843 H 261.164 0.15529 0.812289 0
M  V30 2844 H 263.71 1.01738 1.35822 0
M  V30 2845 H 262.482 2.07155 3.31967 0
M  V30 2846 H 262.105 0.475567 3.94746 0
M  V30 2847 N 263.102 -1.41638 0.69111 0
M  V30 2848 C 264.065 -2.29178 0.0319786 0
M  V30 2849 C 265.065 -1.44153 -0.712496 0
M  V30 2850 O 266.255 -1.65354 -0.548053 0
M  V30 2851 C 263.387 -3.26952 -0.965161 0
M  V30 2852 H 264.58 -2.88959 0.802681 0
M  V30 2853 H 262.133 -1.4955 0.454356 0
M  V30 2854 H 262.868 -2.72142 -1.76378 0
M  V30 2855 H 262.653 -3.89685 -0.434522 0
M  V30 2856 H 264.143 -3.92561 -1.42428 0
M  V30 2857 N 264.58 -0.43555 -1.51462 0
M  V30 2858 C 265.51 0.367376 -2.30592 0
M  V30 2859 C 266.491 1.02263 -1.35928 0
M  V30 2860 O 267.676 1.02661 -1.64847 0
M  V30 2861 C 264.806 1.46983 -3.14664 0
M  V30 2862 C 263.76 0.938161 -4.17591 0
M  V30 2863 C 263.086 2.13622 -4.90173 0
M  V30 2864 C 264.386 -0.0261621 -5.22293 0
M  V30 2865 H 266.08 -0.292969 -2.97963 0
M  V30 2866 H 263.626 -0.14234 -1.43295 0
M  V30 2867 H 265.579 2.03873 -3.688 0
M  V30 2868 H 264.303 2.15843 -2.4511 0
M  V30 2869 H 262.962 0.391481 -3.64504 0
M  V30 2870 H 262.61 2.81098 -4.17124 0
M  V30 2871 H 262.31 1.78688 -5.59772 0
M  V30 2872 H 263.834 2.7107 -5.47132 0
M  V30 2873 H 265.248 0.452384 -5.71512 0
M  V30 2874 H 263.645 -0.287992 -5.99409 0
M  V30 2875 H 264.715 -0.963391 -4.75233 0
M  V30 2876 N 266.058 1.56714 -0.166846 0
M  V30 2877 C 267.306 1.96358 0.478305 0
M  V30 2878 C 267.627 1.0537 1.6408 0
M  V30 2879 O 266.897 0.119154 1.95537 0
M  V30 2880 H 265.477 0.725065 0.179692 0
M  V30 2881 H 268.139 1.93329 -0.246985 0
M  V30 2882 H 267.235 3.00547 0.841292 0
M  V30 2883 N 267.536 -0.106894 1.57237 0
M  V30 2884 C 268.446 -1.14911 2.0453 0
M  V30 2885 C 269.462 -1.44592 0.96795 0
M  V30 2886 O 270.638 -1.55468 1.2803 0
M  V30 2887 C 267.703 -2.45272 2.45036 0
M  V30 2888 C 266.764 -2.22879 3.66911 0
M  V30 2889 C 265.997 -3.47024 4.05475 0
M  V30 2890 O 266.22 -4.54804 3.44252 0
M  V30 2891 O 265.154 -3.3731 4.98504 0
M  V30 2892 H 268.98 -0.777461 2.9358 0
M  V30 2893 H 266.565 -0.318563 1.45964 0
M  V30 2894 H 268.447 -3.22055 2.71769 0
M  V30 2895 H 267.122 -2.81886 1.59129 0
M  V30 2896 H 266.029 -1.43915 3.45311 0
M  V30 2897 H 267.362 -1.91163 4.53561 0
M  V30 2898 N 269.014 -1.53014 -0.377408 0
M  V30 2899 C 270.261 -1.68623 -1.12128 0
M  V30 2900 C 270.589 -0.431997 -1.89642 0
M  V30 2901 O 269.844 0.585855 -1.86725 0
M  V30 2902 C 270.143 -2.87982 -2.11663 0
M  V30 2903 C 269.809 -4.24964 -1.50719 0
M  V30 2904 C 268.471 -4.62217 -1.33825 0
M  V30 2905 C 270.823 -5.10199 -1.06519 0
M  V30 2906 C 268.151 -5.82352 -0.712963 0
M  V30 2907 C 270.503 -6.30969 -0.453955 0
M  V30 2908 C 269.167 -6.66944 -0.272411 0
M  V30 2909 H 268.437 -0.617034 -0.410305 0
M  V30 2910 H 271.084 -1.8718 -0.404484 0
M  V30 2911 H 269.389 -2.63889 -2.89603 0
M  V30 2912 H 271.086 -2.97253 -2.6915 0
M  V30 2913 H 267.676 -3.95626 -1.64858 0
M  V30 2914 H 271.86 -4.81978 -1.18368 0
M  V30 2915 H 267.116 -6.08824 -0.560611 0
M  V30 2916 H 271.29 -6.96324 -0.103217 0
M  V30 2917 H 268.917 -7.59898 0.214181 0
M  V30 2918 N 270.492 0.636531 -1.44174 0
M  V30 2919 C 271.769 1.39463 -1.37148 0
M  V30 2920 C 272.149 2.11082 -0.027507 0
M  V30 2921 O 271.497 2.05954 0.989716 0
M  V30 2922 C 271.707 2.36552 -2.56601 0
M  V30 2923 C 273.055 3.00048 -3.00427 0
M  V30 2924 O 274.079 2.46878 -2.56767 0
M  V30 2925 O 272.938 3.96488 -3.76111 0
M  V30 2926 H 270.032 0.623903 -0.542839 0
M  V30 2927 H 272.578 0.662039 -1.56253 0
M  V30 2928 H 271.35 1.82692 -3.46034 0
M  V30 2929 H 270.973 3.17236 -2.39681 0
M  V30 2930 N 271.97 1.30982 0.876444 0
M  V30 2931 C 272.88 1.2003 2.01569 0
M  V30 2932 C 273.896 0.11838 1.73597 0
M  V30 2933 O 275.072 0.33495 1.98595 0
M  V30 2934 C 272.137 0.901637 3.34771 0
M  V30 2935 C 271.198 2.06979 3.76109 0
M  V30 2936 C 270.431 1.78529 5.02954 0
M  V30 2937 O 270.654 0.717296 5.65872 0
M  V30 2938 O 269.588 2.64019 5.40905 0
M  V30 2939 H 273.414 2.15753 2.13739 0
M  V30 2940 H 270.999 1.10658 1.00375 0
M  V30 2941 H 272.881 0.750645 4.1466 0
M  V30 2942 H 271.556 -0.0256141 3.2369 0
M  V30 2943 H 270.463 2.27616 2.96887 0
M  V30 2944 H 271.796 2.97907 3.91807 0
M  V30 2945 N 273.449 -1.08991 1.13837 0
M  V30 2946 C 274.412 -2.13925 0.822715 0
M  V30 2947 C 275.412 -1.599 -0.1699 0
M  V30 2948 O 276.602 -1.74104 0.0577251 0
M  V30 2949 C 273.734 -3.40155 0.225318 0
M  V30 2950 H 274.927 -2.43358 1.75262 0
M  V30 2951 H 272.48 -1.24603 0.943594 0
M  V30 2952 H 273.215 -3.16352 -0.713594 0
M  V30 2953 H 273 -3.80661 0.940193 0
M  V30 2954 H 274.49 -4.17594 0.0214784 0
M  V30 2955 N 274.927 -0.932562 -1.27047 0
M  V30 2956 C 275.837 -0.441219 -2.30414 0
M  V30 2957 C 276.853 0.480525 -1.67233 0
M  V30 2958 O 278.029 0.362151 -1.98117 0
M  V30 2959 C 275.094 0.293651 -3.45454 0
M  V30 2960 C 274.155 -0.663601 -4.2414 0
M  V30 2961 C 273.388 0.0362932 -5.33688 0
M  V30 2962 O 273.611 1.2548 -5.56427 0
M  V30 2963 O 272.545 -0.638015 -5.98509 0
M  V30 2964 H 276.371 -1.29962 -2.74488 0
M  V30 2965 H 273.956 -0.6981 -1.32087 0
M  V30 2966 H 275.838 0.707951 -4.15411 0
M  V30 2967 H 274.513 1.12758 -3.03426 0
M  V30 2968 H 273.42 -1.12768 -3.56699 0
M  V30 2969 H 274.753 -1.46489 -4.69896 0
M  V30 2970 N 276.405 1.4127 -0.698611 0
M  V30 2971 C 277.653 2.00782 -0.230409 0
M  V30 2972 C 277.974 1.5562 1.17505 0
M  V30 2973 O 277.244 0.78815 1.79346 0
M  V30 2974 H 275.824 0.742464 -0.0821944 0
M  V30 2975 H 278.486 1.72852 -0.90045 0
M  V30 2976 H 277.582 3.11095 -0.25021 0
M  V30 2977 N 277.883 0.443576 1.51229 0
M  V30 2978 C 279.129 -0.120975 2.02439 0
M  V30 2979 C 279.462 -1.41815 1.32674 0
M  V30 2980 O 278.737 -1.89373 0.443622 0
M  V30 2981 C 279.02 -0.333291 3.58554 0
M  V30 2982 C 278.873 0.982968 4.38928 0
M  V30 2983 C 280.192 -1.10028 4.26124 0
M  V30 2984 H 277.311 -0.0424923 0.735774 0
M  V30 2985 H 279.953 0.583794 1.80809 0
M  V30 2986 H 278.103 -0.933614 3.77115 0
M  V30 2987 H 279.775 1.61775 4.32003 0
M  V30 2988 H 278.018 1.58611 4.03763 0
M  V30 2989 H 278.689 0.788379 5.46341 0
M  V30 2990 H 281.165 -0.591711 4.11871 0
M  V30 2991 H 280.041 -1.21761 5.35225 0
M  V30 2992 H 280.302 -2.12996 3.87408 0
M  V30 2993 N 279.361 -1.56624 0.175154 0
M  V30 2994 C 280.607 -1.98061 -0.462976 0
M  V30 2995 C 280.962 -1.05949 -1.60601 0
M  V30 2996 O 280.255 -0.0999027 -1.91339 0
M  V30 2997 C 280.449 -3.43419 -0.989864 0
M  V30 2998 C 280.278 -4.49587 0.100583 0
M  V30 2999 C 279.048 -5.02281 0.551539 0
M  V30 3000 C 281.246 -5.06322 0.902369 0
M  V30 3001 N 279.228 -5.92088 1.62189 0
M  V30 3002 C 280.599 -5.92607 1.82256 0
M  V30 3003 C 282.654 -4.88811 0.947019 0
M  V30 3004 C 281.357 -6.63254 2.78364 0
M  V30 3005 C 283.383 -5.60182 1.89606 0
M  V30 3006 C 282.745 -6.46197 2.80372 0
M  V30 3007 H 278.844 -0.769833 -0.137409 0
M  V30 3008 H 281.428 -1.9273 0.276256 0
M  V30 3009 H 279.599 -3.49288 -1.6986 0
M  V30 3010 H 281.331 -3.7186 -1.59694 0
M  V30 3011 H 278.086 -4.73367 0.148537 0
M  V30 3012 H 278.51 -6.41696 2.15767 0
M  V30 3013 H 283.152 -4.22004 0.259304 0
M  V30 3014 H 280.87 -7.29271 3.48122 0
M  V30 3015 H 284.456 -5.48617 1.93676 0
M  V30 3016 H 283.336 -7.00453 3.52612 0
M  V30 3017 N 280.839 0.0985539 -1.57292 0
M  V30 3018 C 282.255 0.45267 -1.53046 0
M  V30 3019 C 282.455 1.80713 -0.891342 0
M  V30 3020 O 281.511 2.4785 -0.482375 0
M  V30 3021 C 282.824 0.418341 -2.97776 0
M  V30 3022 C 284.372 0.500443 -3.08973 0
M  V30 3023 C 284.847 0.496297 -4.55303 0
M  V30 3024 N 286.338 0.557151 -4.59837 0
M  V30 3025 C 287.073 0.575726 -5.70502 0
M  V30 3026 N 286.569 0.550714 -6.90608 0
M  V30 3027 N 288.362 0.620277 -5.58667 0
M  V30 3028 H 280.513 -0.788673 -1.97215 0
M  V30 3029 H 282.776 -0.293188 -0.901524 0
M  V30 3030 H 282.482 -0.509659 -3.47988 0
M  V30 3031 H 282.356 1.2386 -3.56284 0
M  V30 3032 H 284.743 1.41886 -2.58751 0
M  V30 3033 H 284.824 -0.347894 -2.53423 0
M  V30 3034 H 284.468 -0.418162 -5.06176 0
M  V30 3035 H 284.398 1.3618 -5.08687 0
M  V30 3036 H 286.889 0.581816 -3.73394 0
M  V30 3037 H 287.202 0.568075 -7.70709 0
M  V30 3038 H 285.547 0.517816 -6.93068 0
M  V30 3039 H 288.738 0.637322 -4.63741 0
M  V30 3040 H 288.911 0.631283 -6.44918 0
M  V30 3041 N 282.317 1.53212 0.369288 0
M  V30 3042 C 283.728 1.60943 0.946276 0
M  V30 3043 C 284.079 0.47452 1.90375 0
M  V30 3044 O 283.204 -0.399597 2.12679 0
M  V30 3045 C 283.799 2.91715 1.72302 0
M  V30 3046 C 282.358 3.01792 2.24941 0
M  V30 3047 C 281.505 2.56211 1.06072 0
M  V30 3048 H 284.456 1.58007 0.148198 0
M  V30 3049 H 284.477 2.79309 2.58393 0
M  V30 3050 H 283.989 3.74295 1.0259 0
M  V30 3051 H 282.09 2.23791 2.97906 0
M  V30 3052 H 282.203 4.06803 2.53077 0
M  V30 3053 H 280.567 2.10998 1.4266 0
M  V30 3054 H 281.35 3.41206 0.378639 0
M  V30 3055 N 283.795 -0.628877 1.44509 0
M  V30 3056 C 284.725 -1.75187 1.54376 0
M  V30 3057 C 285.706 -1.65411 0.396618 0
M  V30 3058 O 286.891 -1.84137 0.617031 0
M  V30 3059 C 284.021 -3.13725 1.48976 0
M  V30 3060 C 282.975 -3.38291 2.62189 0
M  V30 3061 C 282.301 -4.76883 2.41841 0
M  V30 3062 C 283.601 -3.30632 4.04326 0
M  V30 3063 H 285.295 -1.67187 2.48373 0
M  V30 3064 H 282.841 -0.802909 1.19538 0
M  V30 3065 H 284.794 -3.92064 1.54478 0
M  V30 3066 H 283.518 -3.22515 0.514961 0
M  V30 3067 H 282.177 -2.62334 2.56079 0
M  V30 3068 H 281.825 -4.82378 1.42548 0
M  V30 3069 H 281.525 -4.94278 3.17747 0
M  V30 3070 H 283.049 -5.57449 2.49165 0
M  V30 3071 H 284.463 -3.98873 4.11793 0
M  V30 3072 H 282.86 -3.59561 4.80454 0
M  V30 3073 H 283.93 -2.28404 4.27738 0
M  V30 3074 N 285.273 -1.31445 -0.869486 0
M  V30 3075 C 286.519 -1.21337 -1.62496 0
M  V30 3076 C 286.852 0.227872 -1.92858 0
M  V30 3077 O 286.127 1.16094 -1.56053 0
M  V30 3078 C 286.41 -2.05814 -2.95487 0
M  V30 3079 C 286.263 -3.5824 -2.72 0
M  V30 3080 C 287.582 -1.9079 -3.96594 0
M  V30 3081 H 284.701 -0.442135 -0.589649 0
M  V30 3082 H 287.343 -1.6124 -1.00507 0
M  V30 3083 H 285.493 -1.71913 -3.48394 0
M  V30 3084 H 287.165 -4.0228 -2.25762 0
M  V30 3085 H 285.408 -3.81647 -2.06224 0
M  V30 3086 H 286.079 -4.12657 -3.66631 0
M  V30 3087 H 288.555 -2.20459 -3.52898 0
M  V30 3088 H 287.431 -2.52199 -4.87531 0
M  V30 3089 H 287.692 -0.871341 -4.33428 0
M  V30 3090 N 286.751 1.08385 -1.14413 0
M  V30 3091 C 287.998 1.80776 -0.912482 0
M  V30 3092 C 288.326 1.86236 0.560934 0
M  V30 3093 O 287.581 1.33431 1.43159 0
M  V30 3094 C 287.88 3.26273 -1.45879 0
M  V30 3095 C 287.546 3.4093 -2.95089 0
M  V30 3096 C 286.208 3.44638 -3.35824 0
M  V30 3097 C 288.56 3.44591 -3.91033 0
M  V30 3098 C 285.888 3.49597 -4.71167 0
M  V30 3099 C 288.24 3.51086 -5.26233 0
M  V30 3100 C 286.904 3.53067 -5.6648 0
M  V30 3101 H 286.174 0.661507 -0.333901 0
M  V30 3102 H 288.821 1.27613 -1.42784 0
M  V30 3103 H 287.126 3.82146 -0.864376 0
M  V30 3104 H 288.823 3.80839 -1.2555 0
M  V30 3105 H 285.413 3.38736 -2.62594 0
M  V30 3106 H 289.597 3.40957 -3.60641 0
M  V30 3107 H 284.853 3.49424 -5.0171 0
M  V30 3108 H 289.027 3.52864 -6.00383 0
M  V30 3109 H 286.654 3.56662 -6.71339 0
M  V30 3110 N 288.23 0.939286 1.26551 0
M  V30 3111 C 289.507 0.5038 1.89001 0
M  V30 3112 C 289.887 -1.01854 1.84903 0
M  V30 3113 O 289.235 -1.87773 1.30206 0
M  V30 3114 C 289.445 1.063 3.32417 0
M  V30 3115 C 290.793 1.13051 4.09273 0
M  V30 3116 O 291.817 1.01345 3.41479 0
M  V30 3117 O 290.676 1.31233 5.30509 0
M  V30 3118 H 287.77 0.163897 0.810597 0
M  V30 3119 H 290.316 1.03173 1.34735 0
M  V30 3120 H 289.088 2.10665 3.29752 0
M  V30 3121 H 288.711 0.517408 3.94219 0
M  V30 3122 N 289.708 -1.40897 0.706093 0
M  V30 3123 C 290.985 -1.94868 0.169099 0
M  V30 3124 C 291.365 -1.64485 -1.32318 0
M  V30 3125 O 290.713 -0.95744 -2.07474 0
M  V30 3126 C 290.923 -3.45798 0.471654 0
M  V30 3127 C 292.271 -4.22663 0.405127 0
M  V30 3128 O 293.295 -3.53865 0.407168 0
M  V30 3129 O 292.154 -5.45216 0.374383 0
M  V30 3130 H 289.248 -0.82673 0.0211352 0
M  V30 3131 H 291.794 -1.50558 0.782976 0
M  V30 3132 H 290.566 -3.61235 1.50416 0
M  V30 3133 H 290.189 -3.97225 -0.172666 0
M  V30 3134 N 291.186 -0.45159 -1.50991 0
M  V30 3135 C 292.119 0.398179 -2.24699 0
M  V30 3136 C 293.097 1.01276 -1.27208 0
M  V30 3137 O 294.281 1.05247 -1.56382 0
M  V30 3138 C 291.408 1.55618 -3.00833 0
M  V30 3139 C 290.454 1.0609 -4.13095 0
M  V30 3140 S 291.287 -0.00865136 -5.35499 0
M  V30 3141 C 292.443 1.15369 -6.15175 0
M  V30 3142 H 292.676 -0.227555 -2.96428 0
M  V30 3143 H 290.209 -0.236251 -1.52582 0
M  V30 3144 H 292.167 2.21997 -3.45293 0
M  V30 3145 H 290.828 2.15337 -2.28667 0
M  V30 3146 H 290.021 1.92726 -4.65696 0
M  V30 3147 H 289.623 0.47513 -3.7097 0
M  V30 3148 H 291.915 2.06925 -6.45126 0
M  V30 3149 H 292.858 0.667344 -7.04948 0
M  V30 3150 H 293.266 1.3987 -5.46897 0
M  V30 3151 N 292.664 1.56529 -0.183458 0
M  V30 3152 C 293.574 2.22144 0.754272 0
M  V30 3153 C 294.59 1.21684 1.24374 0
M  V30 3154 O 295.766 1.54385 1.29333 0
M  V30 3155 C 292.831 2.85884 1.96141 0
M  V30 3156 C 291.892 4.01579 1.51765 0
M  V30 3157 C 291.125 4.6227 2.66725 0
M  V30 3158 O 291.348 4.21865 3.83909 0
M  V30 3159 O 290.282 5.51936 2.40104 0
M  V30 3160 H 294.108 3.02861 0.225527 0
M  V30 3161 H 291.693 1.49331 0.0453032 0
M  V30 3162 H 293.575 3.26253 2.66715 0
M  V30 3163 H 292.25 2.08154 2.47899 0
M  V30 3164 H 291.157 3.65856 0.781049 0
M  V30 3165 H 292.49 4.80938 1.04686 0
M  V30 3166 N 294.142 -0.090211 1.57342 0
M  V30 3167 C 295.105 -1.09335 2.01441 0
M  V30 3168 C 296.105 -1.32666 0.908641 0
M  V30 3169 O 297.295 -1.28697 1.174 0
M  V30 3170 C 294.427 -2.44136 2.3793 0
M  V30 3171 H 295.62 -0.713662 2.91285 0
M  V30 3172 H 293.173 -0.335404 1.52659 0
M  V30 3173 H 293.908 -2.86972 1.51055 0
M  V30 3174 H 293.693 -2.28548 3.18603 0
M  V30 3175 H 295.183 -3.16277 2.72688 0
M  V30 3176 N 295.62 -1.53406 -0.361157 0
M  V30 3177 C 296.85 -1.73465 -1.1222 0
M  V30 3178 C 297.258 -0.465486 -1.83384 0
M  V30 3179 O 296.601 0.571611 -1.7458 0
M  V30 3180 C 296.663 -2.84834 -2.19339 0
M  V30 3181 C 296.327 -4.25038 -1.67903 0
M  V30 3182 C 297.324 -5.07231 -1.14074 0
M  V30 3183 C 295.009 -4.71464 -1.73282 0
M  V30 3184 C 297.003 -6.33942 -0.663068 0
M  V30 3185 C 294.69 -5.98153 -1.25127 0
M  V30 3186 C 295.688 -6.79223 -0.717296 0
M  V30 3187 O 295.376 -8.03533 -0.242865 0
M  V30 3188 H 295.108 -0.583526 -0.341283 0
M  V30 3189 H 297.662 -2.00964 -0.424591 0
M  V30 3190 H 295.892 -2.5282 -2.92607 0
M  V30 3191 H 297.581 -2.9303 -2.80871 0
M  V30 3192 H 298.347 -4.72534 -1.09254 0
M  V30 3193 H 294.226 -4.08432 -2.13786 0
M  V30 3194 H 297.77 -6.97167 -0.245612 0
M  V30 3195 H 293.667 -6.32347 -1.29642 0
M  V30 3196 H 294.435 -8.177 -0.361786 0
M  V30 3197 N 297.098 0.621204 -1.44841 0
M  V30 3198 C 298.028 1.74366 -1.55303 0
M  V30 3199 C 299.009 1.65199 -0.405385 0
M  V30 3200 O 300.194 1.83807 -0.626787 0
M  V30 3201 C 297.324 3.12931 -1.50637 0
M  V30 3202 C 296.278 3.36896 -2.63979 0
M  V30 3203 C 295.604 4.75594 -2.44366 0
M  V30 3204 C 296.904 3.28483 -4.06074 0
M  V30 3205 H 298.598 1.65867 -2.49256 0
M  V30 3206 H 296.144 0.796558 -1.19962 0
M  V30 3207 H 298.097 3.9124 -1.56555 0
M  V30 3208 H 296.821 3.22237 -0.532057 0
M  V30 3209 H 295.48 2.60972 -2.57467 0
M  V30 3210 H 295.128 4.81616 -1.45105 0
M  V30 3211 H 294.828 4.92586 -3.20364 0
M  V30 3212 H 296.352 5.5612 -2.52117 0
M  V30 3213 H 297.766 3.96684 -4.13902 0
M  V30 3214 H 296.163 3.57008 -4.82354 0
M  V30 3215 H 297.233 2.26133 -4.28943 0
M  V30 3216 N 298.576 1.31904 0.862503 0
M  V30 3217 C 299.486 1.22161 2.00285 0
M  V30 3218 C 300.502 0.136785 1.73462 0
M  V30 3219 O 301.678 0.355994 1.98229 0
M  V30 3220 C 298.743 0.937093 3.33796 0
M  V30 3221 C 297.804 2.10957 3.73893 0
M  V30 3222 C 297.037 1.83853 5.01033 0
M  V30 3223 O 297.26 0.777274 5.65079 0
M  V30 3224 O 296.194 2.69741 5.38074 0
M  V30 3225 H 300.02 2.18008 2.11439 0
M  V30 3226 H 297.605 1.11716 0.991957 0
M  V30 3227 H 299.487 0.794583 4.13841 0
M  V30 3228 H 298.162 0.00871894 3.23699 0
M  V30 3229 H 297.069 2.30752 2.94456 0
M  V30 3230 H 298.402 3.02046 3.88625 0
M  V30 3231 N 300.054 -1.07777 1.14986 0
M  V30 3232 C 301.279 -1.84558 0.946213 0
M  V30 3233 C 301.704 -1.81323 -0.500362 0
M  V30 3234 O 301.062 -1.20301 -1.35637 0
M  V30 3235 C 301.11 -3.29736 1.45968 0
M  V30 3236 O 300.214 -4.07149 0.65601 0
M  V30 3237 H 299.555 -0.571641 0.33782 0
M  V30 3238 H 302.085 -1.35991 1.52865 0
M  V30 3239 H 302.095 -3.80574 1.47063 0
M  V30 3240 H 300.77 -3.31406 2.51283 0
M  V30 3241 H 299.347 -3.65994 0.714322 0
M  V30 3242 N 301.532 -0.945985 -1.26051 0
M  V30 3243 C 302.462 -0.477172 -2.28572 0
M  V30 3244 C 303.443 0.472032 -1.63419 0
M  V30 3245 O 304.628 0.372853 -1.90587 0
M  V30 3246 C 301.758 0.253975 -3.4637 0
M  V30 3247 C 300.712 -0.609135 -4.23643 0
M  V30 3248 C 300.038 0.252252 -5.34105 0
M  V30 3249 C 301.338 -1.8829 -4.8718 0
M  V30 3250 H 303.032 -1.33402 -2.68038 0
M  V30 3251 H 300.578 -0.642904 -1.28852 0
M  V30 3252 H 302.531 0.593016 -4.17207 0
M  V30 3253 H 301.255 1.145 -3.05871 0
M  V30 3254 H 299.914 -0.931138 -3.54578 0
M  V30 3255 H 299.562 1.14278 -4.89846 0
M  V30 3256 H 299.262 -0.32188 -5.86718 0
M  V30 3257 H 300.786 0.586454 -6.07777 0
M  V30 3258 H 302.2 -1.61081 -5.50205 0
M  V30 3259 H 300.597 -2.40199 -5.49931 0
M  V30 3260 H 301.667 -2.59134 -4.09851 0
M  V30 3261 N 303.011 1.40521 -0.713556 0
M  V30 3262 C 303.921 2.34522 -0.0606667 0
M  V30 3263 C 304.937 1.57193 0.74607 0
M  V30 3264 O 306.113 1.89591 0.679493 0
M  V30 3265 C 303.178 3.36081 0.851491 0
M  V30 3266 C 302.239 4.29286 0.0349339 0
M  V30 3267 C 301.472 5.25994 0.903649 0
M  V30 3268 O 301.695 5.28616 2.14292 0
M  V30 3269 O 300.629 6.00918 0.343723 0
M  V30 3270 H 304.455 2.91968 -0.835972 0
M  V30 3271 H 302.04 1.41681 -0.47402 0
M  V30 3272 H 303.922 3.98369 1.37404 0
M  V30 3273 H 302.597 2.81052 1.60598 0
M  V30 3274 H 301.504 3.70289 -0.532633 0
M  V30 3275 H 302.837 4.87462 -0.681287 0
M  V30 3276 N 304.489 0.459591 1.5075 0
M  V30 3277 C 305.905 0.113092 1.59199 0
M  V30 3278 C 306.105 -1.37951 1.46874 0
M  V30 3279 O 305.161 -2.15168 1.32132 0
M  V30 3280 C 306.474 0.653043 2.93523 0
M  V30 3281 C 308.022 0.615449 3.0689 0
M  V30 3282 C 308.497 1.13275 4.43771 0
M  V30 3283 N 309.988 1.09167 4.50152 0
M  V30 3284 C 310.723 1.46256 5.54434 0
M  V30 3285 N 310.219 1.90739 6.66026 0
M  V30 3286 N 312.012 1.37932 5.44914 0
M  V30 3287 H 304.163 1.43049 1.57005 0
M  V30 3288 H 306.426 0.590861 0.741341 0
M  V30 3289 H 306.132 1.69822 3.07983 0
M  V30 3290 H 306.006 0.0902132 3.77092 0
M  V30 3291 H 308.393 -0.420793 2.92084 0
M  V30 3292 H 308.474 1.21495 2.25106 0
M  V30 3293 H 308.118 2.16757 4.59324 0
M  V30 3294 H 308.048 0.509576 5.24129 0
M  V30 3295 H 310.539 0.76528 3.7007 0
M  V30 3296 H 310.852 2.17218 7.41644 0
M  V30 3297 H 309.197 1.94683 6.67176 0
M  V30 3298 H 312.388 1.0303 4.56621 0
M  V30 3299 H 312.561 1.67164 6.26067 0
M  V30 3300 N 305.967 -1.56429 0.191757 0
M  V30 3301 C 306.897 -2.21937 -0.725696 0
M  V30 3302 C 307.878 -1.1814 -1.2238 0
M  V30 3303 O 309.063 -1.46636 -1.27325 0
M  V30 3304 C 306.193 -2.87611 -1.94672 0
M  V30 3305 C 305.147 -3.97623 -1.58366 0
M  V30 3306 C 304.473 -4.50446 -2.88102 0
M  V30 3307 C 305.773 -5.16197 -0.796133 0
M  V30 3308 H 307.467 -2.98861 -0.179606 0
M  V30 3309 H 305.013 -1.43749 -0.0849464 0
M  V30 3310 H 306.966 -3.3212 -2.59373 0
M  V30 3311 H 305.69 -2.08087 -2.51728 0
M  V30 3312 H 304.349 -3.53801 -0.960247 0
M  V30 3313 H 303.997 -3.67688 -3.43241 0
M  V30 3314 H 303.697 -5.24675 -2.64556 0
M  V30 3315 H 305.221 -4.97654 -3.53798 0
M  V30 3316 H 306.635 -5.57271 -1.34618 0
M  V30 3317 H 305.032 -5.96471 -0.658928 0
M  V30 3318 H 306.102 -4.84473 0.203478 0
M  V30 3319 N 307.445 0.0818655 -1.57387 0
M  V30 3320 C 308.377 1.12484 -1.997 0
M  V30 3321 C 309.39 1.35564 -0.90146 0
M  V30 3322 O 310.579 1.33982 -1.17945 0
M  V30 3323 C 307.679 2.47778 -2.31213 0
M  V30 3324 C 306.852 2.44793 -3.62485 0
M  V30 3325 C 305.911 3.62117 -3.81782 0
M  V30 3326 O 304.937 3.44005 -4.53486 0
M  V30 3327 N 306.139 4.82094 -3.23367 0
M  V30 3328 H 308.904 0.764585 -2.89783 0
M  V30 3329 H 306.465 0.270664 -1.59621 0
M  V30 3330 H 308.457 3.24891 -2.41304 0
M  V30 3331 H 307.027 2.75843 -1.4707 0
M  V30 3332 H 306.247 1.53134 -3.6324 0
M  V30 3333 H 307.535 2.39889 -4.48699 0
M  V30 3334 H 306.933 4.99713 -2.65148 0
M  V30 3335 H 305.49 5.56753 -3.38923 0
M  V30 3336 N 308.923 1.53595 0.353017 0
M  V30 3337 C 310.339 1.43648 0.695516 0
M  V30 3338 C 310.539 0.585617 1.92802 0
M  V30 3339 O 309.595 0.0729223 2.52395 0
M  V30 3340 C 310.908 2.8701 0.896991 0
M  V30 3341 C 312.456 2.96723 0.996209 0
M  V30 3342 C 312.931 4.41173 1.23007 0
M  V30 3343 N 314.422 4.44657 1.29749 0
M  V30 3344 C 315.157 5.53547 1.49577 0
M  V30 3345 N 314.653 6.72461 1.66639 0
M  V30 3346 N 316.446 5.41145 1.52048 0
M  V30 3347 H 308.597 2.07415 -0.457481 0
M  V30 3348 H 310.86 0.9372 -0.142687 0
M  V30 3349 H 310.566 3.51644 0.0629938 0
M  V30 3350 H 310.44 3.31401 1.80148 0
M  V30 3351 H 312.827 2.32235 1.82074 0
M  V30 3352 H 312.908 2.55707 0.0688331 0
M  V30 3353 H 312.552 5.06238 0.410505 0
M  V30 3354 H 312.482 4.79772 2.17086 0
M  V30 3355 H 314.973 3.58963 1.18126 0
M  V30 3356 H 315.286 7.51214 1.81378 0
M  V30 3357 H 313.631 6.75423 1.63794 0
M  V30 3358 H 316.822 4.47205 1.38294 0
M  V30 3359 H 316.995 6.26068 1.67159 0
M  V30 3360 N 310.401 -0.613514 1.45168 0
M  V30 3361 C 311.331 -1.7354 1.56225 0
M  V30 3362 C 312.312 -1.64981 0.41414 0
M  V30 3363 O 313.497 -1.83472 0.636526 0
M  V30 3364 C 310.627 -3.12128 1.52295 0
M  V30 3365 C 309.581 -3.35491 2.65762 0
M  V30 3366 C 308.907 -4.74291 2.46885 0
M  V30 3367 C 310.207 -3.26325 4.0781 0
M  V30 3368 H 311.901 -1.64543 2.50132 0
M  V30 3369 H 309.447 -0.790185 1.20383 0
M  V30 3370 H 311.4 -3.90404 1.58628 0
M  V30 3371 H 310.124 -3.2195 0.549139 0
M  V30 3372 H 308.783 -2.59603 2.58847 0
M  V30 3373 H 308.431 -4.80839 1.47657 0
M  V30 3374 H 308.131 -4.9088 3.22972 0
M  V30 3375 H 309.655 -5.54775 2.55063 0
M  V30 3376 H 311.069 -3.94483 4.16 0
M  V30 3377 H 309.466 -3.54445 4.8424 0
M  V30 3378 H 310.536 -2.23855 4.30136 0
M  V30 3379 N 311.879 -1.3236 -0.855495 0
M  V30 3380 C 313.29 -1.2056 -1.42556 0
M  V30 3381 C 313.641 0.182209 -1.95352 0
M  V30 3382 O 312.766 1.08088 -1.87472 0
M  V30 3383 C 313.361 -2.1826 -2.59129 0
M  V30 3384 C 311.92 -2.10351 -3.12137 0
M  V30 3385 C 311.067 -2.06674 -1.84882 0
M  V30 3386 H 314.018 -1.442 -0.662727 0
M  V30 3387 H 314.039 -1.78064 -3.36264 0
M  V30 3388 H 313.551 -3.19257 -2.20673 0
M  V30 3389 H 311.652 -1.12599 -3.55179 0
M  V30 3390 H 311.765 -3.00135 -3.73438 0
M  V30 3391 H 310.129 -1.51901 -2.04446 0
M  V30 3392 H 310.912 -3.09451 -1.48643 0
M  V30 3393 N 313.357 1.07166 -1.15556 0
M  V30 3394 C 314.585 1.83514 -0.955519 0
M  V30 3395 C 315 1.82163 0.49621 0
M  V30 3396 O 314.357 1.23441 1.34419 0
M  V30 3397 C 314.408 3.30515 -1.46432 0
M  V30 3398 O 314.129 3.31937 -2.85918 0
M  V30 3399 C 315.63 4.23625 -1.30603 0
M  V30 3400 H 312.85 0.578926 -0.339244 0
M  V30 3401 H 315.394 1.35265 -1.53374 0
M  V30 3402 H 313.549 3.76106 -0.928584 0
M  V30 3403 H 313.963 4.23794 -3.09029 0
M  V30 3404 H 315.437 5.24831 -1.71047 0
M  V30 3405 H 315.914 4.38485 -0.250441 0
M  V30 3406 H 316.52 3.83871 -1.83094 0
M  V30 3407 N 314.835 0.952656 1.25548 0
M  V30 3408 C 315.765 0.489287 2.28316 0
M  V30 3409 C 316.746 -0.463359 1.63667 0
M  V30 3410 O 317.931 -0.36274 1.90782 0
M  V30 3411 C 315.061 -0.235603 3.465 0
M  V30 3412 C 314.015 0.631593 4.23314 0
M  V30 3413 C 313.341 -0.223923 5.34231 0
M  V30 3414 C 314.641 1.90871 4.86174 0
M  V30 3415 H 316.335 1.34822 2.67326 0
M  V30 3416 H 313.881 0.649728 1.28509 0
M  V30 3417 H 315.834 -0.570882 4.17515 0
M  V30 3418 H 314.558 -1.12877 3.06474 0
M  V30 3419 H 313.217 0.949929 3.54079 0
M  V30 3420 H 312.865 -1.11678 4.90446 0
M  V30 3421 H 312.565 0.35299 5.86539 0
M  V30 3422 H 314.089 -0.554214 6.0808 0
M  V30 3423 H 315.503 1.63997 5.49343 0
M  V30 3424 H 313.9 2.43112 5.4865 0
M  V30 3425 H 314.97 2.61304 4.08471 0
M  V30 3426 N 316.313 -1.40141 0.720998 0
M  V30 3427 C 317.243 -2.33339 0.0867621 0
M  V30 3428 C 318.224 -1.53178 -0.739622 0
M  V30 3429 O 319.409 -1.81625 -0.687449 0
M  V30 3430 C 316.539 -3.37194 -0.831728 0
M  V30 3431 C 315.493 -4.27857 -0.110558 0
M  V30 3432 C 314.819 -5.22294 -1.14513 0
M  V30 3433 C 316.119 -5.11872 1.0385 0
M  V30 3434 H 317.813 -2.86626 0.865219 0
M  V30 3435 H 315.359 -1.37814 0.417516 0
M  V30 3436 H 317.312 -4.01335 -1.28485 0
M  V30 3437 H 316.036 -2.82314 -1.64214 0
M  V30 3438 H 314.695 -3.65176 0.322797 0
M  V30 3439 H 314.343 -4.63717 -1.94874 0
M  V30 3440 H 314.043 -5.83797 -0.667446 0
M  V30 3441 H 315.567 -5.89312 -1.59824 0
M  V30 3442 H 316.981 -5.69436 0.664482 0
M  V30 3443 H 315.378 -5.82445 1.4449 0
M  V30 3444 H 316.448 -4.4753 1.86668 0
M  V30 3445 N 317.792 -0.46758 -1.50504 0
M  V30 3446 C 318.724 0.364655 -2.26281 0
M  V30 3447 C 319.737 0.960151 -1.31472 0
M  V30 3448 O 320.926 0.849153 -1.57008 0
M  V30 3449 C 318.026 1.52509 -3.02645 0
M  V30 3450 C 317.199 1.04302 -4.24782 0
M  V30 3451 C 316.258 2.07709 -4.8347 0
M  V30 3452 O 315.284 1.65913 -5.44483 0
M  V30 3453 N 316.486 3.40485 -4.70159 0
M  V30 3454 H 319.251 -0.28495 -2.98342 0
M  V30 3455 H 316.812 -0.298163 -1.59131 0
M  V30 3456 H 318.804 2.21371 -3.38787 0
M  V30 3457 H 317.374 2.07945 -2.33404 0
M  V30 3458 H 316.594 0.180393 -3.93787 0
M  V30 3459 H 317.882 0.698798 -5.03978 0
M  V30 3460 H 317.28 3.77155 -4.21629 0
M  V30 3461 H 315.837 4.05156 -5.1058 0
M  V30 3462 N 319.27 1.56325 -0.20005 0
M  V30 3463 C 320.2 2.22318 0.713916 0
M  V30 3464 C 321.181 1.18788 1.21752 0
M  V30 3465 O 322.366 1.47309 1.26545 0
M  V30 3466 C 319.496 2.88639 1.93144 0
M  V30 3467 C 318.45 3.98457 1.56255 0
M  V30 3468 C 317.776 4.51967 2.85709 0
M  V30 3469 C 319.076 5.16612 0.768747 0
M  V30 3470 H 320.77 2.98952 0.163755 0
M  V30 3471 H 318.316 1.43792 0.0773219 0
M  V30 3472 H 320.269 3.33491 2.57608 0
M  V30 3473 H 318.993 2.09419 2.50621 0
M  V30 3474 H 317.652 3.54305 0.941471 0
M  V30 3475 H 317.3 3.69503 3.41287 0
M  V30 3476 H 317 5.26071 2.6177 0
M  V30 3477 H 318.524 4.99523 3.51154 0
M  V30 3478 H 319.938 5.57977 1.3166 0
M  V30 3479 H 318.335 5.96812 0.627286 0
M  V30 3480 H 319.405 4.84358 -0.229168 0
M  V30 3481 N 320.748 -0.0735177 1.57428 0
M  V30 3482 C 321.997 -0.771809 1.86349 0
M  V30 3483 C 322.31 -1.78828 0.792452 0
M  V30 3484 O 323.516 -2.53602 0.96945 0
M  V30 3485 C 321.972 -1.42358 3.30548 0
M  V30 3486 C 321.58 -0.445761 4.45777 0
M  V30 3487 C 323.324 -2.10434 3.6867 0
M  V30 3488 C 321.231 -1.10335 5.81016 0
M  V30 3489 H 320.161 -0.291999 0.695164 0
M  V30 3490 H 322.812 -0.0250749 1.83483 0
M  V30 3491 H 321.194 -2.21852 3.28021 0
M  V30 3492 H 322.368 0.319239 4.59693 0
M  V30 3493 H 320.683 0.130457 4.16196 0
M  V30 3494 H 323.28 -2.60405 4.67004 0
M  V30 3495 H 323.623 -2.90298 2.98383 0
M  V30 3496 H 324.156 -1.37773 3.7318 0
M  V30 3497 H 320.895 -0.345061 6.54591 0
M  V30 3498 H 320.415 -1.83925 5.70904 0
M  V30 3499 H 322.094 -1.62367 6.26295 0
M  V30 3500 N 322.226 -1.5378 -0.344866 0
M  V30 3501 C 323.637 -1.62428 -0.920552 0
M  V30 3502 C 323.988 -0.504747 -1.89596 0
M  V30 3503 O 323.113 0.365711 -2.13287 0
M  V30 3504 C 323.708 -2.94419 -1.67639 0
M  V30 3505 C 322.267 -3.05333 -2.20111 0
M  V30 3506 C 321.414 -2.57866 -1.01982 0
M  V30 3507 H 324.365 -1.58222 -0.123042 0
M  V30 3508 H 324.386 -2.83384 -2.53917 0
M  V30 3509 H 323.898 -3.7588 -0.966224 0
M  V30 3510 H 321.999 -2.28502 -2.94308 0
M  V30 3511 H 322.112 -4.10778 -2.46573 0
M  V30 3512 H 320.476 -2.13241 -1.39285 0
M  V30 3513 H 321.259 -3.41765 -0.324308 0
M  V30 3514 N 323.704 0.605807 -1.45491 0
M  V30 3515 C 324.952 1.36207 -1.49305 0
M  V30 3516 C 325.273 1.94519 -0.136863 0
M  V30 3517 O 324.543 1.77261 0.833983 0
M  V30 3518 H 323.123 0.50565 -0.549843 0
M  V30 3519 H 325.785 0.711239 -1.81459 0
M  V30 3520 H 324.881 2.18058 -2.23287 0
M  V30 3521 N 325.182 1.32811 0.848464 0
M  V30 3522 C 326.132 1.18842 1.94578 0
M  V30 3523 C 327.116 0.0937517 1.60627 0
M  V30 3524 O 328.308 0.320887 1.74067 0
M  V30 3525 C 325.437 0.91999 3.30743 0
M  V30 3526 C 324.523 2.05665 3.70894 0
M  V30 3527 N 324.914 3.30579 3.8282 0
M  V30 3528 C 323.212 1.9612 4.00566 0
M  V30 3529 C 323.913 4.05067 4.17487 0
M  V30 3530 N 322.889 3.33419 4.2934 0
M  V30 3531 H 326.691 2.13536 2.0194 0
M  V30 3532 H 324.205 1.2468 1.0406 0
M  V30 3533 H 326.202 0.800859 4.09136 0
M  V30 3534 H 324.862 -0.0185076 3.24695 0
M  V30 3535 H 325.873 3.65441 3.66978 0
M  V30 3536 H 322.55 1.09871 4.02784 0
M  V30 3537 H 323.94 5.12815 4.34131 0
M  V30 3538 N 326.66 -1.06551 1.16123 0
M  V30 3539 C 327.908 -1.78947 0.939267 0
M  V30 3540 C 328.229 -1.87532 -0.534476 0
M  V30 3541 O 327.499 -1.38211 -1.38833 0
M  V30 3542 H 326.079 -0.662807 0.344523 0
M  V30 3543 H 328.741 -1.28725 1.46342 0
M  V30 3544 H 327.837 -2.81117 1.35572 0
M  V30 3545 N 328.138 -0.959301 -1.25041 0
M  V30 3546 C 329.386 -0.615393 -1.92503 0
M  V30 3547 C 329.707 0.850969 -1.75452 0
M  V30 3548 O 328.977 1.60658 -1.12098 0
M  V30 3549 H 327.557 -0.224613 -0.712431 0
M  V30 3550 H 330.219 -1.21855 -1.5211 0
M  V30 3551 H 329.315 -0.848738 -3.00338 0
M  V30 3552 N 329.616 1.39756 -0.72842 0
M  V30 3553 C 330.546 2.33289 -0.0991354 0
M  V30 3554 C 331.527 1.53568 0.731489 0
M  V30 3555 O 332.712 1.81987 0.677807 0
M  V30 3556 C 329.842 3.3763 0.813834 0
M  V30 3557 C 328.796 4.2791 0.0878663 0
M  V30 3558 C 328.122 5.22894 1.11741 0
M  V30 3559 C 329.422 5.11314 -1.06563 0
M  V30 3560 H 331.116 2.86163 -0.880408 0
M  V30 3561 H 328.662 1.37591 -0.424819 0
M  V30 3562 H 330.615 4.0201 1.26355 0
M  V30 3563 H 329.339 2.83181 1.62715 0
M  V30 3564 H 327.998 3.65 -0.342159 0
M  V30 3565 H 327.646 4.64744 1.92412 0
M  V30 3566 H 327.346 5.84143 0.636477 0
M  V30 3567 H 328.87 5.90151 1.56697 0
M  V30 3568 H 330.284 5.69076 -0.694671 0
M  V30 3569 H 328.681 5.81671 -1.47577 0
M  V30 3570 H 329.751 4.46534 -1.89038 0
M  V30 3571 N 331.094 0.475555 1.50254 0
M  V30 3572 C 332.024 -0.30611 2.31485 0
M  V30 3573 C 333.005 -0.986228 1.38591 0
M  V30 3574 O 334.19 -0.982541 1.67511 0
M  V30 3575 C 331.32 -1.38588 3.1845 0
M  V30 3576 C 330.274 -0.827115 4.19932 0
M  V30 3577 C 329.6 -2.00551 4.95665 0
M  V30 3578 C 330.9 0.16463 5.2204 0
M  V30 3579 H 332.594 0.371866 2.97082 0
M  V30 3580 H 330.14 0.180282 1.42867 0
M  V30 3581 H 332.093 -1.94023 3.74076 0
M  V30 3582 H 330.817 -2.09269 2.50747 0
M  V30 3583 H 329.476 -0.294702 3.65414 0
M  V30 3584 H 329.124 -2.6994 4.2443 0
M  V30 3585 H 328.824 -1.63784 5.64313 0
M  V30 3586 H 330.348 -2.56468 5.54127 0
M  V30 3587 H 331.762 -0.300699 5.72511 0
M  V30 3588 H 330.159 0.446813 5.98434 0
M  V30 3589 H 331.229 1.08905 4.72512 0
M  V30 3590 N 332.573 -1.56217 0.208337 0
M  V30 3591 C 333.989 -1.58919 -0.14729 0
M  V30 3592 C 334.189 -1.22486 -1.59998 0
M  V30 3593 O 333.245 -0.953849 -2.3379 0
M  V30 3594 C 334.558 -3.00236 0.167048 0
M  V30 3595 C 336.106 -3.12813 0.108219 0
M  V30 3596 C 336.581 -4.56284 0.396049 0
M  V30 3597 N 338.072 -4.61912 0.345142 0
M  V30 3598 C 338.807 -5.70837 0.541523 0
M  V30 3599 N 338.303 -6.88178 0.798968 0
M  V30 3600 N 340.096 -5.60091 0.474867 0
M  V30 3601 H 332.247 -1.78177 1.15614 0
M  V30 3602 H 334.51 -0.827555 0.462446 0
M  V30 3603 H 334.216 -3.31499 1.1748 0
M  V30 3604 H 334.09 -3.7354 -0.524184 0
M  V30 3605 H 336.477 -2.81354 -0.890157 0
M  V30 3606 H 336.558 -2.41866 0.832729 0
M  V30 3607 H 336.202 -4.88458 1.3918 0
M  V30 3608 H 336.132 -5.25439 -0.349502 0
M  V30 3609 H 338.623 -3.77589 0.153316 0
M  V30 3610 H 338.936 -7.67095 0.93727 0
M  V30 3611 H 337.281 -6.89953 0.836013 0
M  V30 3612 H 340.472 -4.67297 0.274064 0
M  V30 3613 H 340.645 -6.44917 0.631326 0
M  V30 3614 N 334.051 0.0651679 -1.57465 0
M  V30 3615 C 335.299 0.761555 -1.87202 0
M  V30 3616 C 335.62 1.77778 -0.801243 0
M  V30 3617 O 334.89 1.95166 0.16937 0
M  V30 3618 H 333.47 0.284251 -0.690804 0
M  V30 3619 H 336.132 0.0396827 -1.9486 0
M  V30 3620 H 335.228 1.27365 -2.84929 0
M  V30 3621 N 335.529 1.53961 0.336706 0
M  V30 3622 C 336.945 1.44378 0.680241 0
M  V30 3623 C 337.145 0.606034 1.9217 0
M  V30 3624 O 336.201 0.099688 2.52303 0
M  V30 3625 C 337.514 2.87945 0.8665 0
M  V30 3626 C 339.062 2.97763 0.964682 0
M  V30 3627 C 339.537 4.42453 1.18321 0
M  V30 3628 N 341.028 4.46008 1.25025 0
M  V30 3629 C 341.763 5.55102 1.43697 0
M  V30 3630 N 341.259 6.7419 1.59498 0
M  V30 3631 N 343.052 5.42727 1.463 0
M  V30 3632 H 335.203 2.06918 -0.479455 0
M  V30 3633 H 337.466 0.935634 -0.152619 0
M  V30 3634 H 337.172 3.51691 0.0256937 0
M  V30 3635 H 337.046 3.33293 1.76623 0
M  V30 3636 H 339.433 2.34153 1.796 0
M  V30 3637 H 339.514 2.55766 0.041708 0
M  V30 3638 H 339.158 5.06645 0.356788 0
M  V30 3639 H 339.088 4.82048 2.11985 0
M  V30 3640 H 341.579 3.60196 1.14312 0
M  V30 3641 H 341.892 7.53095 1.734 0
M  V30 3642 H 340.237 6.77123 1.56621 0
M  V30 3643 H 343.428 4.48647 1.33543 0
M  V30 3644 H 343.601 6.27806 1.6051 0
M  V30 3645 N 337.007 -0.598083 1.45811 0
M  V30 3646 C 337.937 -1.71873 1.58057 0
M  V30 3647 C 338.918 -1.64533 0.431615 0
M  V30 3648 O 340.103 -1.82787 0.65595 0
M  V30 3649 C 337.233 -3.10495 1.55597 0
M  V30 3650 C 336.187 -3.32654 2.69305 0
M  V30 3651 C 335.513 -4.71646 2.51902 0
M  V30 3652 C 336.813 -3.21981 4.11248 0
M  V30 3653 H 338.507 -1.61881 2.51863 0
M  V30 3654 H 336.053 -0.777372 1.21214 0
M  V30 3655 H 338.006 -3.88699 1.6276 0
M  V30 3656 H 336.73 -3.2135 0.583255 0
M  V30 3657 H 335.389 -2.56843 2.61586 0
M  V30 3658 H 335.037 -4.79246 1.52748 0
M  V30 3659 H 334.737 -4.87426 3.2816 0
M  V30 3660 H 336.261 -5.52038 2.60933 0
M  V30 3661 H 337.675 -3.90049 4.20161 0
M  V30 3662 H 336.072 -3.49289 4.87972 0
M  V30 3663 H 337.142 -2.1928 4.32486 0
M  V30 3664 N 338.485 -1.33259 -0.841409 0
M  V30 3665 C 339.448 -1.23221 -1.9326 0
M  V30 3666 C 340.448 -0.151895 -1.60081 0
M  V30 3667 O 341.638 -0.403246 -1.69468 0
M  V30 3668 C 338.77 -0.898123 -3.28856 0
M  V30 3669 H 339.963 -2.2021 -2.03587 0
M  V30 3670 H 337.516 -1.17281 -1.03319 0
M  V30 3671 H 338.251 0.0693841 -3.24226 0
M  V30 3672 H 338.036 -1.67934 -3.54317 0
M  V30 3673 H 339.526 -0.852563 -4.08805 0
M  V30 3674 N 339.963 1.05934 -1.16686 0
M  V30 3675 C 340.926 2.11669 -0.879144 0
M  V30 3676 C 341.926 1.60294 0.127445 0
M  V30 3677 O 343.116 1.7389 -0.103865 0
M  V30 3678 C 340.248 3.39438 -0.315425 0
M  V30 3679 H 341.441 2.38626 -1.81653 0
M  V30 3680 H 338.994 1.22058 -0.976299 0
M  V30 3681 H 339.729 3.18132 0.629468 0
M  V30 3682 H 339.514 3.78034 -1.04079 0
M  V30 3683 H 341.004 4.17391 -0.132189 0
M  V30 3684 N 341.441 0.965919 1.2453 0
M  V30 3685 C 342.718 0.543777 1.87889 0
M  V30 3686 C 343.098 -0.97909 1.87021 0
M  V30 3687 O 342.446 -1.84969 1.3416 0
M  V30 3688 C 342.656 1.13327 3.30088 0
M  V30 3689 C 344.004 1.21707 4.06783 0
M  V30 3690 O 345.028 1.08566 3.39252 0
M  V30 3691 O 343.887 1.42456 5.27606 0
M  V30 3692 H 340.981 0.181054 0.806938 0
M  V30 3693 H 343.527 1.06007 1.32516 0
M  V30 3694 H 342.299 2.17612 3.25209 0
M  V30 3695 H 341.922 0.600911 3.93033 0
M  V30 3696 N 342.919 -1.39368 0.735821 0
M  V30 3697 C 344.167 -2.00101 0.283562 0
M  V30 3698 C 344.488 -1.5868 -1.13338 0
M  V30 3699 O 343.758 -0.835423 -1.77193 0
M  V30 3700 H 342.338 -0.740024 0.101851 0
M  V30 3701 H 345 -1.70404 0.945962 0
M  V30 3702 H 344.096 -3.10323 0.332604 0
M  V30 3703 N 344.397 -0.483516 -1.5 0
M  V30 3704 C 345.36 0.292965 -2.2732 0
M  V30 3705 C 346.36 0.909499 -1.32608 0
M  V30 3706 O 347.55 0.776745 -1.55924 0
M  V30 3707 C 344.682 1.41854 -3.09984 0
M  V30 3708 H 345.875 -0.385289 -2.97415 0
M  V30 3709 H 343.428 -0.237942 -1.54478 0
M  V30 3710 H 344.163 2.13148 -2.44414 0
M  V30 3711 H 343.948 0.982114 -3.79601 0
M  V30 3712 H 345.438 1.96597 -3.68429 0
M  V30 3713 N 345.875 1.56104 -0.216619 0
M  V30 3714 C 346.785 2.23694 0.706982 0
M  V30 3715 C 347.801 1.24295 1.21765 0
M  V30 3716 O 348.977 1.57094 1.2603 0
M  V30 3717 C 346.042 2.8998 1.90033 0
M  V30 3718 C 345.103 4.04708 1.43213 0
M  V30 3719 C 344.336 4.67824 2.56859 0
M  V30 3720 O 344.559 4.29913 3.74874 0
M  V30 3721 O 343.493 5.56905 2.28343 0
M  V30 3722 H 347.319 3.03272 0.161235 0
M  V30 3723 H 344.904 1.49394 0.0136177 0
M  V30 3724 H 346.786 3.31837 2.59735 0
M  V30 3725 H 345.461 2.13365 2.43428 0
M  V30 3726 H 344.368 3.6743 0.70327 0
M  V30 3727 H 345.701 4.83051 0.944615 0
M  V30 3728 N 347.353 -0.0568162 1.57498 0
M  V30 3729 C 348.578 -0.769402 1.92601 0
M  V30 3730 C 349.003 -1.69559 0.814336 0
M  V30 3731 O 348.361 -1.79811 -0.231903 0
M  V30 3732 C 348.409 -1.52634 3.26704 0
M  V30 3733 O 347.513 -2.63797 3.16994 0
M  V30 3734 H 346.854 -0.208909 0.63028 0
M  V30 3735 H 349.384 -0.0205798 2.0459 0
M  V30 3736 H 349.394 -1.90234 3.60936 0
M  V30 3737 H 348.069 -0.846875 4.07186 0
M  V30 3738 H 346.646 -2.28943 2.94346 0
M  V30 3739 N 348.832 -1.54138 -0.328536 0
M  V30 3740 C 349.795 -1.82462 -1.38709 0
M  V30 3741 C 350.795 -0.696229 -1.44946 0
M  V30 3742 O 351.985 -0.964535 -1.4506 0
M  V30 3743 C 349.117 -1.98018 -2.77492 0
M  V30 3744 H 350.31 -2.77037 -1.14851 0
M  V30 3745 H 347.863 -1.45779 -0.563751 0
M  V30 3746 H 348.598 -1.05637 -3.06613 0
M  V30 3747 H 348.383 -2.80124 -2.74359 0
M  V30 3748 H 349.873 -2.21396 -3.54081 0
M  V30 3749 N 350.31 0.590341 -1.46126 0
M  V30 3750 C 351.54 1.37304 -1.54373 0
M  V30 3751 C 351.948 1.88332 -0.181071 0
M  V30 3752 O 351.291 1.63852 0.830559 0
M  V30 3753 C 351.353 2.6012 -2.48149 0
M  V30 3754 C 351.017 2.30613 -3.94546 0
M  V30 3755 C 352.014 1.89915 -4.83971 0
M  V30 3756 C 349.699 2.42993 -4.39613 0
M  V30 3757 C 351.693 1.61981 -6.16475 0
M  V30 3758 C 349.38 2.14672 -5.72153 0
M  V30 3759 C 350.378 1.7423 -6.60404 0
M  V30 3760 O 350.066 1.46251 -7.90485 0
M  V30 3761 H 349.798 0.426086 -0.524811 0
M  V30 3762 H 352.352 0.72539 -1.92165 0
M  V30 3763 H 350.582 3.27664 -2.05361 0
M  V30 3764 H 352.271 3.22182 -2.46887 0
M  V30 3765 H 353.037 1.79872 -4.50412 0
M  V30 3766 H 348.916 2.73435 -3.71153 0
M  V30 3767 H 352.46 1.30341 -6.85315 0
M  V30 3768 H 348.357 2.24337 -6.05263 0
M  V30 3769 H 349.125 1.6016 -8.02677 0
M  V30 3770 N 351.788 1.33704 0.83433 0
M  V30 3771 C 353.016 1.28467 1.62185 0
M  V30 3772 C 353.431 -0.143526 1.88254 0
M  V30 3773 O 352.788 -1.08709 1.4659 0
M  V30 3774 C 352.839 2.06174 2.96942 0
M  V30 3775 O 352.56 3.43422 2.72016 0
M  V30 3776 C 354.061 2.08201 3.91366 0
M  V30 3777 H 351.281 0.4424 0.504503 0
M  V30 3778 H 353.825 1.76145 1.03891 0
M  V30 3779 H 351.98 1.62167 3.51825 0
M  V30 3780 H 352.394 3.83453 3.57861 0
M  V30 3781 H 353.868 2.67017 4.83121 0
M  V30 3782 H 354.345 1.07343 4.2588 0
M  V30 3783 H 354.951 2.52246 3.42421 0
M  V30 3784 N 353.266 -1.05314 1.17247 0
M  V30 3785 C 354.176 -2.16538 0.90268 0
M  V30 3786 C 355.192 -1.73523 -0.128707 0
M  V30 3787 O 356.368 -2.01337 0.0502701 0
M  V30 3788 C 353.433 -3.44167 0.418356 0
M  V30 3789 C 352.494 -4.01635 1.51618 0
M  V30 3790 C 351.727 -5.23171 1.05487 0
M  V30 3791 O 351.95 -5.70327 -0.0914715 0
M  V30 3792 O 350.884 -5.72848 1.8474 0
M  V30 3793 H 354.71 -2.42145 1.83302 0
M  V30 3794 H 352.295 -1.15037 0.953246 0
M  V30 3795 H 354.177 -4.21112 0.155726 0
M  V30 3796 H 352.852 -3.20063 -0.48385 0
M  V30 3797 H 351.759 -3.26135 1.83268 0
M  V30 3798 H 353.092 -4.30053 2.39405 0
M  V30 3799 N 354.744 -0.972509 -1.24016 0
M  V30 3800 C 355.984 -0.644951 -1.93958 0
M  V30 3801 C 356.348 0.80559 -1.74282 0
M  V30 3802 O 357.549 1.2436 -2.38302 0
M  V30 3803 C 355.82 -1.01521 -3.42678 0
M  V30 3804 S 357.379 -0.802927 -4.31391 0
M  V30 3805 H 354.197 -0.236452 -0.670531 0
M  V30 3806 H 356.799 -1.25048 -1.50277 0
M  V30 3807 H 355.503 -2.06769 -3.54506 0
M  V30 3808 H 355.034 -0.400648 -3.91355 0
M  V30 3809 H 357.049 0.317256 -4.95185 0
M  V30 3810 N 356.222 1.38976 -0.743202 0
M  V30 3811 C 357.152 2.33171 -0.123873 0
M  V30 3812 C 358.133 1.54336 0.71516 0
M  V30 3813 O 359.318 1.82696 0.658467 0
M  V30 3814 C 356.448 3.38474 0.777978 0
M  V30 3815 C 355.402 4.27979 0.0424758 0
M  V30 3816 C 354.728 5.2405 1.06189 0
M  V30 3817 C 356.028 5.10155 -1.1198 0
M  V30 3818 H 357.722 2.85213 -0.910709 0
M  V30 3819 H 355.268 1.37133 -0.439388 0
M  V30 3820 H 357.221 4.03328 1.22084 0
M  V30 3821 H 355.945 2.84891 1.59702 0
M  V30 3822 H 354.604 3.64616 -0.380853 0
M  V30 3823 H 354.252 4.66758 1.87472 0
M  V30 3824 H 353.952 5.84785 0.574485 0
M  V30 3825 H 355.476 5.9178 1.50428 0
M  V30 3826 H 356.89 5.68307 -0.75499 0
M  V30 3827 H 355.287 5.80073 -1.53738 0
M  V30 3828 H 356.357 4.44504 -1.93764 0
M  V30 3829 N 357.7 0.491464 1.49741 0
M  V30 3830 C 359.116 0.146835 1.58923 0
M  V30 3831 C 359.316 -1.34804 1.49767 0
M  V30 3832 O 358.372 -2.12317 1.36667 0
M  V30 3833 C 359.685 0.715157 2.92072 0
M  V30 3834 C 361.233 0.680407 3.05515 0
M  V30 3835 C 361.708 1.22663 4.41269 0
M  V30 3836 N 363.199 1.18691 4.47735 0
M  V30 3837 C 363.934 1.57984 5.51207 0
M  V30 3838 N 363.43 2.04824 6.6183 0
M  V30 3839 N 365.223 1.49459 5.41866 0
M  V30 3840 H 357.374 1.46347 1.53936 0
M  V30 3841 H 359.637 0.606453 0.728642 0
M  V30 3842 H 359.343 1.76317 3.04311 0
M  V30 3843 H 359.217 0.17018 3.76816 0
M  V30 3844 H 361.604 -0.358743 2.92911 0
M  V30 3845 H 361.685 1.26242 2.22478 0
M  V30 3846 H 361.329 2.26451 4.54623 0
M  V30 3847 H 361.259 0.620637 5.2293 0
M  V30 3848 H 363.75 0.843605 3.68364 0
M  V30 3849 H 364.063 2.32901 7.3687 0
M  V30 3850 H 362.408 2.08791 6.62896 0
M  V30 3851 H 365.599 1.12692 4.54333 0
M  V30 3852 H 365.772 1.80406 6.22381 0
M  V30 3853 N 359.178 -1.55987 0.224894 0
M  V30 3854 C 360.108 -2.23426 -0.678457 0
M  V30 3855 C 361.089 -1.20709 -1.19847 0
M  V30 3856 O 362.274 -1.49304 -1.24186 0
M  V30 3857 C 359.404 -2.91676 -1.88527 0
M  V30 3858 C 358.358 -4.00893 -1.49896 0
M  V30 3859 C 357.684 -4.56455 -2.78483 0
M  V30 3860 C 358.984 -5.17769 -0.686461 0
M  V30 3861 H 360.678 -2.99175 -0.116173 0
M  V30 3862 H 358.224 -1.43897 -0.054436 0
M  V30 3863 H 360.177 -3.37547 -2.5227 0
M  V30 3864 H 358.901 -2.1338 -2.47258 0
M  V30 3865 H 357.56 -3.55758 -0.884985 0
M  V30 3866 H 357.208 -3.74886 -3.35365 0
M  V30 3867 H 356.908 -5.30169 -2.53368 0
M  V30 3868 H 358.432 -5.05047 -3.43162 0
M  V30 3869 H 359.846 -5.60001 -1.22767 0
M  V30 3870 H 358.243 -5.97735 -0.532259 0
M  V30 3871 H 359.313 -4.83932 0.306196 0
M  V30 3872 N 360.656 0.0484629 -1.57525 0
M  V30 3873 C 361.896 0.748196 -1.90214 0
M  V30 3874 C 362.26 1.73545 -0.821347 0
M  V30 3875 O 363.461 2.48201 -1.03198 0
M  V30 3876 C 361.732 1.41727 -3.28098 0
M  V30 3877 S 363.291 2.14884 -3.82584 0
M  V30 3878 H 360.109 0.248307 -0.666232 0
M  V30 3879 H 362.711 0.00343188 -1.955 0
M  V30 3880 H 361.415 0.685244 -4.04639 0
M  V30 3881 H 360.946 2.20099 -3.26068 0
M  V30 3882 H 362.961 3.41755 -3.59747 0
M  V30 3883 N 362.134 1.5431 0.320358 0
M  V30 3884 C 363.55 1.45091 0.664889 0
M  V30 3885 C 363.75 0.626382 1.91517 0
M  V30 3886 O 362.806 0.126443 2.52183 0
M  V30 3887 C 364.119 2.88848 0.83591 0
M  V30 3888 C 365.667 2.9877 0.933046 0
M  V30 3889 C 366.142 4.43683 1.13621 0
M  V30 3890 N 367.633 4.47309 1.20287 0
M  V30 3891 C 368.368 5.56595 1.37801 0
M  V30 3892 N 367.864 6.75844 1.52338 0
M  V30 3893 N 369.657 5.44248 1.40535 0
M  V30 3894 H 361.808 2.06398 -0.501374 0
M  V30 3895 H 364.071 0.933963 -0.162534 0
M  V30 3896 H 363.777 3.51698 -0.0116092 0
M  V30 3897 H 363.651 3.35148 1.73078 0
M  V30 3898 H 366.038 2.36045 1.77107 0
M  V30 3899 H 366.119 2.55796 0.0145782 0
M  V30 3900 H 365.763 5.06995 0.303032 0
M  V30 3901 H 365.693 4.84269 2.0686 0
M  V30 3902 H 368.184 3.61388 1.10485 0
M  V30 3903 H 368.497 7.54892 1.65403 0
M  V30 3904 H 366.842 6.78746 1.4943 0
M  V30 3905 H 370.033 4.50038 1.28777 0
M  V30 3906 H 370.206 6.29473 1.53842 0
M  V30 3907 N 363.613 -0.582584 1.46437 0
M  V30 3908 C 365.029 -0.905962 1.31394 0
M  V30 3909 C 365.229 -1.99468 0.285476 0
M  V30 3910 O 364.285 -2.50566 -0.311914 0
M  V30 3911 C 365.598 -1.3232 2.70022 0
M  V30 3912 C 367.146 -1.43604 2.78113 0
M  V30 3913 C 367.621 -1.88694 4.17323 0
M  V30 3914 N 369.112 -1.95887 4.19741 0
M  V30 3915 C 369.847 -2.32051 5.24347 0
M  V30 3916 N 369.343 -2.67006 6.39281 0
M  V30 3917 N 371.136 -2.32606 5.11713 0
M  V30 3918 H 363.287 0.1366 2.1196 0
M  V30 3919 H 365.55 -0.00155736 0.947999 0
M  V30 3920 H 365.256 -0.597242 3.46592 0
M  V30 3921 H 365.13 -2.28469 3.00136 0
M  V30 3922 H 367.517 -2.15286 2.01832 0
M  V30 3923 H 367.598 -0.457059 2.51684 0
M  V30 3924 H 367.242 -1.1759 4.941 0
M  V30 3925 H 367.172 -2.8755 4.4116 0
M  V30 3926 H 369.663 -1.71362 3.36814 0
M  V30 3927 H 369.976 -2.93554 7.14875 0
M  V30 3928 H 368.321 -2.64644 6.42642 0
M  V30 3929 H 371.512 -2.04721 4.2096 0
M  V30 3930 H 371.685 -2.60462 5.93349 0
M  V30 3931 N 365.091 -1.34144 -0.827227 0
M  V30 3932 C 366.021 -1.28005 -1.95287 0
M  V30 3933 C 367.002 -0.158321 -1.69362 0
M  V30 3934 O 368.187 -0.349987 -1.9102 0
M  V30 3935 C 365.317 -1.03036 -3.31664 0
M  V30 3936 C 364.271 -2.11628 -3.72019 0
M  V30 3937 C 363.597 -1.71854 -5.0633 0
M  V30 3938 C 364.897 -3.53417 -3.8457 0
M  V30 3939 H 366.591 -2.22187 -2.00682 0
M  V30 3940 H 364.137 -1.0696 -0.964135 0
M  V30 3941 H 366.09 -0.973863 -4.09993 0
M  V30 3942 H 364.814 -0.0529391 -3.26557 0
M  V30 3943 H 363.473 -2.16339 -2.95961 0
M  V30 3944 H 363.121 -0.727841 -4.97706 0
M  V30 3945 H 362.821 -2.44531 -5.34302 0
M  V30 3946 H 364.345 -1.67692 -5.87122 0
M  V30 3947 H 365.759 -3.51142 -4.5318 0
M  V30 3948 H 364.156 -4.24679 -4.2399 0
M  V30 3949 H 365.226 -3.91072 -2.86689 0
M  V30 3950 N 366.569 1.04691 -1.17803 0
M  V30 3951 C 367.499 2.14494 -0.92275 0
M  V30 3952 C 368.48 1.69546 0.137179 0
M  V30 3953 O 369.665 1.94195 -0.0141108 0
M  V30 3954 C 366.795 3.44491 -0.440803 0
M  V30 3955 C 365.749 4.03031 -1.4405 0
M  V30 3956 C 365.075 5.28432 -0.81631 0
M  V30 3957 C 366.375 4.39932 -2.81527 0
M  V30 3958 H 368.069 2.36107 -1.84103 0
M  V30 3959 H 365.615 1.1347 -0.886599 0
M  V30 3960 H 367.568 4.2066 -0.249602 0
M  V30 3961 H 366.292 3.22546 0.513025 0
M  V30 3962 H 364.951 3.28937 -1.61853 0
M  V30 3963 H 364.599 5.02792 0.144511 0
M  V30 3964 H 364.299 5.68559 -1.48371 0
M  V30 3965 H 365.823 6.07284 -0.635496 0
M  V30 3966 H 367.237 5.07113 -2.67412 0
M  V30 3967 H 365.634 4.9109 -3.44892 0
M  V30 3968 H 366.704 3.50045 -3.35554 0
M  V30 3969 N 368.047 0.979072 1.23499 0
M  V30 3970 C 369.293 0.6578 1.9247 0
M  V30 3971 C 369.648 -0.799746 1.74991 0
M  V30 3972 O 368.941 -1.56922 1.09937 0
M  V30 3973 C 369.135 0.981932 3.43646 0
M  V30 3974 C 368.964 2.46944 3.75831 0
M  V30 3975 C 367.734 3.13119 3.96591 0
M  V30 3976 C 369.932 3.45006 3.81412 0
M  V30 3977 N 367.914 4.51489 4.15969 0
M  V30 3978 C 369.285 4.68778 4.05768 0
M  V30 3979 C 371.34 3.39505 3.64198 0
M  V30 3980 C 370.043 5.87723 4.14697 0
M  V30 3981 C 372.069 4.57814 3.7438 0
M  V30 3982 C 371.431 5.80381 3.99171 0
M  V30 3983 H 367.53 0.291746 0.72554 0
M  V30 3984 H 370.114 1.25626 1.48749 0
M  V30 3985 H 368.285 0.412179 3.86207 0
M  V30 3986 H 370.017 0.618068 3.99953 0
M  V30 3987 H 366.772 2.63619 3.93449 0
M  V30 3988 H 367.196 5.23221 4.29615 0
M  V30 3989 H 371.838 2.45773 3.44029 0
M  V30 3990 H 369.556 6.81874 4.33675 0
M  V30 3991 H 373.142 4.55132 3.62417 0
M  V30 3992 H 372.022 6.70398 4.06861 0
M  V30 3993 N 369.525 -1.3858 0.750561 0
M  V30 3994 C 370.941 -1.53759 0.427824 0
M  V30 3995 C 371.141 -1.71401 -1.05943 0
M  V30 3996 O 370.197 -1.72331 -1.84549 0
M  V30 3997 C 371.51 -2.74642 1.22443 0
M  V30 3998 C 373.058 -2.88489 1.2142 0
M  V30 3999 C 373.533 -4.12329 1.9937 0
M  V30 4000 N 375.024 -4.194 1.96616 0
M  V30 4001 C 375.759 -5.14209 2.53727 0
M  V30 4002 N 375.255 -6.14709 3.19539 0
M  V30 4003 N 377.048 -5.06537 2.43673 0
M  V30 4004 H 369.199 -1.25377 1.71447 0
M  V30 4005 H 371.462 -0.608844 0.726645 0
M  V30 4006 H 371.168 -2.68 2.27747 0
M  V30 4007 H 371.042 -3.67745 0.839273 0
M  V30 4008 H 373.429 -2.94614 0.169232 0
M  V30 4009 H 373.51 -1.96406 1.63885 0
M  V30 4010 H 373.154 -4.06966 3.03877 0
M  V30 4011 H 373.084 -5.03486 1.54302 0
M  V30 4012 H 375.575 -3.47421 1.48684 0
M  V30 4013 H 375.888 -6.8354 3.60545 0
M  V30 4014 H 374.233 -6.1505 3.23633 0
M  V30 4015 H 377.424 -4.26962 1.91889 0
M  V30 4016 H 377.597 -5.80245 2.88479 0
M  V30 4017 N 371.003 -0.499398 -1.49478 0
M  V30 4018 C 371.935 0.316575 -2.27003 0
M  V30 4019 C 372.948 0.932047 -1.33479 0
M  V30 4020 O 374.137 0.815658 -1.58774 0
M  V30 4021 C 371.237 1.46055 -3.05812 0
M  V30 4022 C 370.41 0.952679 -4.26899 0
M  V30 4023 C 369.469 1.97407 -4.87767 0
M  V30 4024 O 368.495 1.54326 -5.4788 0
M  V30 4025 N 369.697 3.30436 -4.77276 0
M  V30 4026 H 372.462 -0.348168 -2.97671 0
M  V30 4027 H 370.023 -0.33185 -1.58463 0
M  V30 4028 H 372.015 2.14135 -3.43407 0
M  V30 4029 H 370.585 2.02948 -2.37762 0
M  V30 4030 H 369.805 0.0968248 -3.94081 0
M  V30 4031 H 371.093 0.59174 -5.05347 0
M  V30 4032 H 370.491 3.68126 -4.29534 0
M  V30 4033 H 369.048 3.94235 -5.19059 0
M  V30 4034 N 372.481 1.55866 -0.233164 0
M  V30 4035 C 373.706 2.03449 0.402906 0
M  V30 4036 C 374.131 1.11166 1.51736 0
M  V30 4037 O 373.489 0.101996 1.81013 0
M  V30 4038 C 373.537 3.49165 0.9009 0
M  V30 4039 O 372.641 3.60019 2.01147 0
M  V30 4040 H 371.982 0.657913 0.0897025 0
M  V30 4041 H 374.512 2.01493 -0.355201 0
M  V30 4042 H 374.522 3.89716 1.2077 0
M  V30 4043 H 373.197 4.15813 0.0852889 0
M  V30 4044 H 371.774 3.3136 1.71042 0
M  V30 4045 N 373.959 -0.0401083 1.57549 0
M  V30 4046 C 374.892 -1.07689 2.01192 0
M  V30 4047 C 375.87 -1.358 0.894273 0
M  V30 4048 O 377.054 -1.48642 1.15921 0
M  V30 4049 C 374.181 -2.41418 2.3756 0
M  V30 4050 C 373.227 -2.29237 3.59656 0
M  V30 4051 S 374.06 -1.65628 5.09242 0
M  V30 4052 C 375.216 -3.0087 5.48843 0
M  V30 4053 H 375.449 -0.705108 2.88817 0
M  V30 4054 H 372.982 -0.249724 1.52367 0
M  V30 4055 H 374.94 -3.18329 2.59186 0
M  V30 4056 H 373.601 -2.75747 1.50407 0
M  V30 4057 H 372.794 -3.27932 3.82722 0
M  V30 4058 H 372.396 -1.60469 3.37825 0
M  V30 4059 H 374.688 -3.97201 5.48851 0
M  V30 4060 H 375.631 -2.82549 6.49286 0
M  V30 4061 H 376.039 -3.02934 4.76331 0
M  V30 4062 N 375.437 -1.54477 -0.31217 0
M  V30 4063 C 376.685 -1.72884 -1.04668 0
M  V30 4064 C 377.006 -0.511477 -1.88173 0
M  V30 4065 O 376.276 0.474407 -1.90069 0
M  V30 4066 H 374.856 -0.637461 -0.389425 0
M  V30 4067 H 377.518 -1.91807 -0.345852 0
M  V30 4068 H 376.614 -2.61334 -1.70619 0
M  V30 4069 N 376.915 0.57481 -1.46744 0
M  V30 4070 C 377.825 1.711 -1.60505 0
M  V30 4071 C 378.841 1.67008 -0.488307 0
M  V30 4072 O 380.017 1.86774 -0.753495 0
M  V30 4073 C 377.082 3.07608 -1.59932 0
M  V30 4074 C 376.143 3.22904 -2.82898 0
M  V30 4075 C 375.376 4.529 -2.82343 0
M  V30 4076 O 375.599 5.37278 -1.91542 0
M  V30 4077 O 374.533 4.71611 -3.73987 0
M  V30 4078 H 378.359 1.62436 -2.56609 0
M  V30 4079 H 375.944 0.742779 -1.29627 0
M  V30 4080 H 377.826 3.88877 -1.62336 0
M  V30 4081 H 376.501 3.16692 -0.669898 0
M  V30 4082 H 375.408 2.41099 -2.86046 0
M  V30 4083 H 376.741 3.18715 -3.75076 0
M  V30 4084 N 378.394 1.34581 0.820102 0
M  V30 4085 C 379.619 1.30333 1.61332 0
M  V30 4086 C 380.044 -0.119339 1.87721 0
M  V30 4087 O 379.402 -1.08197 1.45475 0
M  V30 4088 C 379.45 2.10258 2.92957 0
M  V30 4089 O 378.554 1.47404 3.85157 0
M  V30 4090 H 377.895 0.447488 0.490561 0
M  V30 4091 H 380.425 1.77425 1.01889 0
M  V30 4092 H 380.435 2.21718 3.42498 0
M  V30 4093 H 379.11 3.13693 2.73074 0
M  V30 4094 H 377.687 1.44703 3.43679 0
M  V30 4095 N 379.872 -1.04064 1.18357 0
M  V30 4096 C 380.802 -2.14001 0.934113 0
M  V30 4097 C 381.783 -1.69616 -0.128186 0
M  V30 4098 O 382.968 -1.94185 0.0244093 0
M  V30 4099 C 380.098 -3.44253 0.459066 0
M  V30 4100 C 379.052 -4.02261 1.46185 0
M  V30 4101 C 378.378 -5.27992 0.844322 0
M  V30 4102 C 379.678 -4.38432 2.83856 0
M  V30 4103 H 381.372 -2.35127 1.85352 0
M  V30 4104 H 378.918 -1.12998 0.892604 0
M  V30 4105 H 380.871 -4.20522 0.271907 0
M  V30 4106 H 379.595 -3.22813 -0.495912 0
M  V30 4107 H 378.254 -3.28074 1.63595 0
M  V30 4108 H 377.902 -5.02862 -0.117845 0
M  V30 4109 H 377.602 -5.67765 1.51384 0
M  V30 4110 H 379.126 -6.06938 0.667693 0
M  V30 4111 H 380.54 -5.05688 2.70098 0
M  V30 4112 H 378.937 -4.89254 3.47491 0
M  V30 4113 H 380.007 -3.4826 3.37406 0
M  V30 4114 N 381.35 -0.985608 -1.22978 0
M  V30 4115 C 382.627 -0.573599 -1.87001 0
M  V30 4116 C 383.007 0.949213 -1.88555 0
M  V30 4117 O 382.355 1.82811 -1.37086 0
M  V30 4118 C 382.565 -1.18564 -3.28243 0
M  V30 4119 C 383.913 -1.28163 -4.04796 0
M  V30 4120 O 384.937 -1.13949 -3.37482 0
M  V30 4121 O 383.796 -1.50832 -5.25273 0
M  V30 4122 H 380.89 -0.193868 -0.803955 0
M  V30 4123 H 383.436 -1.08102 -1.30813 0
M  V30 4124 H 382.208 -2.22758 -3.21706 0
M  V30 4125 H 381.831 -0.663363 -3.92027 0
M  V30 4126 N 382.828 1.3818 -0.7579 0
M  V30 4127 C 383.738 2.3421 -0.135247 0
M  V30 4128 C 384.754 1.59487 0.695683 0
M  V30 4129 O 385.93 1.91657 0.618832 0
M  V30 4130 C 382.995 3.3862 0.744139 0
M  V30 4131 C 382.056 4.2918 -0.101658 0
M  V30 4132 C 381.289 5.28603 0.735851 0
M  V30 4133 O 381.512 5.35166 1.97366 0
M  V30 4134 O 380.446 6.01707 0.152372 0
M  V30 4135 H 384.272 2.8916 -0.928436 0
M  V30 4136 H 381.857 1.40101 -0.518855 0
M  V30 4137 H 383.739 4.02539 1.2466 0
M  V30 4138 H 382.414 2.86019 1.51575 0
M  V30 4139 H 381.321 3.68407 -0.650167 0
M  V30 4140 H 382.654 4.85048 -0.836024 0
M  V30 4141 N 384.306 0.507319 1.49211 0
M  V30 4142 C 385.236 -0.256939 2.32082 0
M  V30 4143 C 386.217 -0.956609 1.40652 0
M  V30 4144 O 387.402 -0.946788 1.69557 0
M  V30 4145 C 384.532 -1.31802 3.21318 0
M  V30 4146 C 383.486 -0.737855 4.21592 0
M  V30 4147 C 382.812 -1.89992 4.99807 0
M  V30 4148 C 384.112 0.275325 5.21574 0
M  V30 4149 H 385.806 0.434798 2.96226 0
M  V30 4150 H 383.352 0.210546 1.42452 0
M  V30 4151 H 385.305 -1.86045 3.78107 0
M  V30 4152 H 384.029 -2.03903 2.5513 0
M  V30 4153 H 382.688 -0.217126 3.65956 0
M  V30 4154 H 382.336 -2.60877 4.30061 0
M  V30 4155 H 382.036 -1.51777 5.6766 0
M  V30 4156 H 383.56 -2.44657 5.59442 0
M  V30 4157 H 384.974 -0.179193 5.7302 0
M  V30 4158 H 383.371 0.573649 5.97352 0
M  V30 4159 H 384.441 1.18903 4.70096 0
M  V30 4160 N 385.784 -1.5574 0.241426 0
M  V30 4161 C 387.009 -2.0366 -0.392111 0
M  V30 4162 C 387.434 -1.11969 -1.51144 0
M  V30 4163 O 386.792 -0.111594 -1.80956 0
M  V30 4164 C 386.84 -3.49638 -0.882371 0
M  V30 4165 O 385.944 -3.6108 -1.99235 0
M  V30 4166 H 385.285 -0.658379 -0.0862122 0
M  V30 4167 H 387.815 -2.01302 0.365881 0
M  V30 4168 H 387.825 -3.90351 -1.18702 0
M  V30 4169 H 386.5 -4.15852 -0.0632361 0
M  V30 4170 H 385.077 -3.32262 -1.69282 0
M  V30 4171 N 387.262 0.0317525 -1.57568 0
M  V30 4172 C 388.172 1.05021 -2.0978 0
M  V30 4173 C 389.188 1.39809 -1.03583 0
M  V30 4174 O 390.364 1.49182 -1.35302 0
M  V30 4175 C 387.429 2.33301 -2.56459 0
M  V30 4176 C 386.49 2.0512 -3.77127 0
M  V30 4177 C 385.723 3.27283 -4.2157 0
M  V30 4178 O 385.946 4.37861 -3.65559 0
M  V30 4179 O 384.88 3.13141 -5.14029 0
M  V30 4180 H 388.706 0.636505 -2.96955 0
M  V30 4181 H 386.291 0.248559 -1.47318 0
M  V30 4182 H 388.173 3.08722 -2.86825 0
M  V30 4183 H 386.848 2.73973 -1.72397 0
M  V30 4184 H 385.755 1.27276 -3.51784 0
M  V30 4185 H 387.088 1.69305 -4.62165 0
M  V30 4186 N 388.74 1.54641 0.303973 0
M  V30 4187 C 389.65 1.88439 1.39743 0
M  V30 4188 C 390.666 0.778239 1.55626 0
M  V30 4189 O 391.842 1.07442 1.70347 0
M  V30 4190 C 388.907 2.12212 2.74166 0
M  V30 4191 C 387.968 3.35936 2.67293 0
M  V30 4192 C 387.201 3.58566 3.95305 0
M  V30 4193 O 387.424 2.84263 4.9452 0
M  V30 4194 O 386.358 4.52078 3.97378 0
M  V30 4195 H 390.184 2.81458 1.14083 0
M  V30 4196 H 387.769 1.40793 0.499768 0
M  V30 4197 H 389.651 2.29067 3.53704 0
M  V30 4198 H 388.326 1.22379 2.99675 0
M  V30 4199 H 387.233 3.24448 1.86237 0
M  V30 4200 H 388.566 4.2589 2.46736 0
M  V30 4201 N 390.218 -0.567019 1.47046 0
M  V30 4202 C 391.148 -1.68482 1.61667 0
M  V30 4203 C 392.129 -1.6358 0.466418 0
M  V30 4204 O 393.314 -1.81354 0.694574 0
M  V30 4205 C 390.444 -3.07124 1.62148 0
M  V30 4206 C 389.398 -3.26867 2.76301 0
M  V30 4207 C 388.724 -4.66196 2.61849 0
M  V30 4208 C 390.024 -3.13186 4.17986 0
M  V30 4209 H 391.718 -1.56502 2.5524 0
M  V30 4210 H 389.264 -0.751486 1.22836 0
M  V30 4211 H 391.217 -3.8516 1.70968 0
M  V30 4212 H 389.941 -3.2004 0.651287 0
M  V30 4213 H 388.6 -2.51237 2.66975 0
M  V30 4214 H 388.248 -4.75898 1.62879 0
M  V30 4215 H 387.948 -4.80356 3.38425 0
M  V30 4216 H 389.472 -5.46379 2.72584 0
M  V30 4217 H 390.886 -3.81049 4.2834 0
M  V30 4218 H 389.283 -3.3886 4.95272 0
M  V30 4219 H 390.353 -2.10057 4.3704 0
M  V30 4220 N 391.696 -1.35014 -0.812953 0
M  V30 4221 C 392.646 -1.23959 -1.91359 0
M  V30 4222 C 393.63 -0.136306 -1.60322 0
M  V30 4223 O 394.822 -0.366925 -1.73155 0
M  V30 4224 C 391.951 -1.00736 -3.28188 0
M  V30 4225 C 391.037 -2.15426 -3.65311 0
M  V30 4226 N 391.428 -3.40612 -3.73921 0
M  V30 4227 C 389.726 -2.06672 -3.95225 0
M  V30 4228 C 390.427 -4.15994 -4.06601 0
M  V30 4229 N 389.403 -3.44685 -4.20349 0
M  V30 4230 H 393.205 -2.18815 -1.96208 0
M  V30 4231 H 390.719 -1.27395 -1.00718 0
M  V30 4232 H 392.716 -0.909052 -4.06868 0
M  V30 4233 H 391.376 -0.067586 -3.2463 0
M  V30 4234 H 392.387 -3.75043 -3.5716 0
M  V30 4235 H 389.064 -1.20511 -3.99729 0
M  V30 4236 H 390.454 -5.24145 -4.20382 0
M  V30 4237 N 393.175 1.03435 -1.18907 0
M  V30 4238 C 394.591 1.28973 -0.940111 0
M  V30 4239 C 394.791 1.97676 0.390691 0
M  V30 4240 O 393.847 2.26127 1.12352 0
M  V30 4241 C 395.16 2.14221 -2.11021 0
M  V30 4242 C 396.708 2.27547 -2.14922 0
M  V30 4243 C 397.183 3.16164 -3.31367 0
M  V30 4244 N 398.674 3.23752 -3.31269 0
M  V30 4245 C 399.409 3.92495 -4.18014 0
M  V30 4246 N 398.905 4.63515 -5.14904 0
M  V30 4247 N 400.698 3.88838 -4.05908 0
M  V30 4248 H 392.849 0.57252 -2.04538 0
M  V30 4249 H 395.112 0.315184 -0.894071 0
M  V30 4250 H 394.818 1.71054 -3.073 0
M  V30 4251 H 394.692 3.14919 -2.0762 0
M  V30 4252 H 397.079 2.69947 -1.19217 0
M  V30 4253 H 397.16 1.26418 -2.22378 0
M  V30 4254 H 396.804 2.74474 -4.27348 0
M  V30 4255 H 396.734 4.17339 -3.21148 0
M  V30 4256 H 399.225 2.73167 -2.61129 0
M  V30 4257 H 399.538 5.13583 -5.77453 0
M  V30 4258 H 397.883 4.62398 -5.18857 0
M  V30 4259 H 401.074 3.32491 -3.29495 0
M  V30 4260 H 401.247 4.4214 -4.73726 0
M  V30 4261 N 394.653 0.992116 1.22453 0
M  V30 4262 C 395.616 0.546883 2.2258 0
M  V30 4263 C 396.616 -0.369829 1.56489 0
M  V30 4264 O 397.806 -0.161896 1.73446 0
M  V30 4265 C 394.938 -0.204659 3.40285 0
M  V30 4266 H 396.131 1.43234 2.63484 0
M  V30 4267 H 393.684 0.779239 1.3549 0
M  V30 4268 H 394.419 -1.10614 3.04853 0
M  V30 4269 H 394.204 0.45354 3.89468 0
M  V30 4270 H 395.694 -0.504358 4.14543 0
M  V30 4271 N 396.131 -1.37776 0.765217 0
M  V30 4272 C 397.377 -2.00604 0.336066 0
M  V30 4273 C 397.732 -1.59657 -1.07366 0
M  V30 4274 O 397.025 -0.829565 -1.7271 0
M  V30 4275 C 397.219 -3.5504 0.410053 0
M  V30 4276 C 397.048 -4.10985 1.82542 0
M  V30 4277 C 395.818 -4.42229 2.44461 0
M  V30 4278 C 398.016 -4.32438 2.78392 0
M  V30 4279 N 395.998 -4.8385 3.77839 0
M  V30 4280 C 397.369 -4.76596 3.96556 0
M  V30 4281 C 399.424 -4.14559 2.75764 0
M  V30 4282 C 398.127 -5.04748 5.12466 0
M  V30 4283 C 400.153 -4.43843 3.90842 0
M  V30 4284 C 399.515 -4.88235 5.07746 0
M  V30 4285 H 395.614 -0.763325 0.169881 0
M  V30 4286 H 398.198 -1.67197 0.997656 0
M  V30 4287 H 396.369 -3.87769 -0.221325 0
M  V30 4288 H 398.101 -4.0468 -0.0405285 0
M  V30 4289 H 394.856 -4.31079 1.96131 0
M  V30 4290 H 395.28 -5.08979 4.46396 0
M  V30 4291 H 399.922 -3.79415 1.86558 0
M  V30 4292 H 397.64 -5.38783 6.02277 0
M  V30 4293 H 401.226 -4.31603 3.90141 0
M  V30 4294 H 400.106 -5.10461 5.95315 0
M  V30 4295 N 397.609 -0.515225 -1.4894 0
M  V30 4296 C 398.857 0.0241671 -2.02086 0
M  V30 4297 C 399.178 1.3616 -1.3959 0
M  V30 4298 O 398.448 1.87841 -0.556121 0
M  V30 4299 H 397.028 0.0119203 -0.746905 0
M  V30 4300 H 399.69 -0.675702 -1.82812 0
M  V30 4301 H 398.786 0.143385 -3.1177 0
M  V30 4302 N 399.087 1.5561 -0.249682 0
M  V30 4303 C 400.335 1.98618 0.373548 0
M  V30 4304 C 400.656 1.13919 1.58264 0
M  V30 4305 O 399.926 0.222637 1.94631 0
M  V30 4306 H 398.506 0.733571 0.141006 0
M  V30 4307 H 401.168 1.91748 -0.349117 0
M  V30 4308 H 400.264 3.04584 0.680796 0
M  V30 4309 N 400.565 -0.0233959 1.57583 0
M  V30 4310 C 401.497 -1.04994 2.03737 0
M  V30 4311 C 402.51 -1.32125 0.951152 0
M  V30 4312 O 403.699 -1.29512 1.22837 0
M  V30 4313 C 400.799 -2.39026 2.40249 0
M  V30 4314 C 399.972 -2.31171 3.7132 0
M  V30 4315 C 399.031 -3.47698 3.94959 0
M  V30 4316 O 398.057 -3.26937 4.65941 0
M  V30 4317 N 399.259 -4.6976 3.41037 0
M  V30 4318 H 402.024 -0.656507 2.92421 0
M  V30 4319 H 399.585 -0.211235 1.60516 0
M  V30 4320 H 401.577 -3.15712 2.53196 0
M  V30 4321 H 400.147 -2.70194 1.57207 0
M  V30 4322 H 399.367 -1.39547 3.68674 0
M  V30 4323 H 400.655 -2.23071 4.57293 0
M  V30 4324 H 400.053 -4.89528 2.83512 0
M  V30 4325 H 398.61 -5.43791 3.59353 0
M  V30 4326 N 402.043 -1.548 -0.295768 0
M  V30 4327 C 403.268 -1.78653 -1.05346 0
M  V30 4328 C 403.693 -0.546894 -1.79974 0
M  V30 4329 O 403.051 0.502763 -1.7419 0
M  V30 4330 C 403.099 -2.99679 -2.00561 0
M  V30 4331 O 402.203 -2.7317 -3.08953 0
M  V30 4332 H 401.544 -0.59116 -0.302367 0
M  V30 4333 H 404.074 -2.01895 -0.331598 0
M  V30 4334 H 404.084 -3.27793 -2.42932 0
M  V30 4335 H 402.759 -3.89562 -1.4565 0
M  V30 4336 H 401.336 -2.56089 -2.71059 0
M  V30 4337 N 403.521 0.559213 -1.47345 0
M  V30 4338 C 404.767 1.31843 -1.54095 0
M  V30 4339 C 405.1 1.93149 -0.201726 0
M  V30 4340 O 404.375 1.77759 0.789428 0
M  V30 4341 C 404.658 2.43006 -2.65744 0
M  V30 4342 C 404.511 1.86581 -4.09277 0
M  V30 4343 C 405.83 3.44943 -2.73318 0
M  V30 4344 H 402.949 0.478012 -0.560957 0
M  V30 4345 H 405.591 0.625977 -1.79392 0
M  V30 4346 H 403.741 3.02072 -2.44305 0
M  V30 4347 H 405.413 1.31792 -4.42073 0
M  V30 4348 H 403.656 1.17268 -4.17649 0
M  V30 4349 H 404.327 2.66933 -4.83168 0
M  V30 4350 H 406.803 2.95793 -2.92653 0
M  V30 4351 H 405.679 4.20153 -3.53218 0
M  V30 4352 H 405.94 4.03665 -1.80296 0
M  V30 4353 N 404.999 1.35443 0.805782 0
M  V30 4354 C 406.276 1.19325 1.54987 0
M  V30 4355 C 406.656 -0.227294 2.09873 0
M  V30 4356 O 406.004 -1.2309 1.92512 0
M  V30 4357 C 406.214 2.26196 2.65775 0
M  V30 4358 C 407.562 2.62043 3.34094 0
M  V30 4359 O 408.586 2.25115 2.76046 0
M  V30 4360 O 407.445 3.25542 4.38958 0
M  V30 4361 H 404.539 0.463623 0.684823 0
M  V30 4362 H 407.085 1.47127 0.845674 0
M  V30 4363 H 405.857 3.21471 2.23096 0
M  V30 4364 H 405.48 1.99667 3.43829 0
M  V30 4365 N 406.477 -1.02803 1.19454 0
M  V30 4366 C 407.724 -1.76217 0.997693 0
M  V30 4367 C 408.052 -1.887 -0.47144 0
M  V30 4368 O 407.307 -1.4011 -1.3663 0
M  V30 4369 C 407.606 -3.18941 1.6128 0
M  V30 4370 C 407.272 -3.26463 3.11019 0
M  V30 4371 C 405.934 -3.28223 3.51885 0
M  V30 4372 C 408.286 -3.25542 4.07028 0
M  V30 4373 C 405.614 -3.26719 4.8731 0
M  V30 4374 C 407.966 -3.25579 5.42385 0
M  V30 4375 C 406.63 -3.25637 5.82681 0
M  V30 4376 H 405.9 -0.644823 0.365082 0
M  V30 4377 H 408.547 -1.20655 1.4871 0
M  V30 4378 H 406.852 -3.77587 1.04572 0
M  V30 4379 H 408.549 -3.74415 1.43577 0
M  V30 4380 H 405.139 -3.25822 2.78457 0
M  V30 4381 H 409.323 -3.23362 3.76498 0
M  V30 4382 H 404.579 -3.25089 5.1781 0
M  V30 4383 H 408.753 -3.23817 6.16535 0
M  V30 4384 H 406.38 -3.24226 6.87591 0
M  V30 4385 N 407.956 -0.998596 -1.21925 0
M  V30 4386 C 408.886 -0.573688 -2.26343 0
M  V30 4387 C 409.867 0.402296 -1.65274 0
M  V30 4388 O 411.052 0.291683 -1.91997 0
M  V30 4389 C 408.182 0.106839 -3.47136 0
M  V30 4390 C 407.136 -0.788269 -4.20678 0
M  V30 4391 C 406.462 0.0254927 -5.34694 0
M  V30 4392 C 407.762 -2.08784 -4.78755 0
M  V30 4393 H 409.456 -1.44651 -2.62138 0
M  V30 4394 H 407.002 -0.696975 -1.26009 0
M  V30 4395 H 408.955 0.415531 -4.19346 0
M  V30 4396 H 407.679 1.01424 -3.10452 0
M  V30 4397 H 406.338 -1.08069 -3.50309 0
M  V30 4398 H 405.986 0.933989 -4.94253 0
M  V30 4399 H 405.686 -0.570437 -5.84825 0
M  V30 4400 H 407.21 0.328147 -6.09718 0
M  V30 4401 H 408.624 -1.84272 -5.42878 0
M  V30 4402 H 407.021 -2.63307 -5.39249 0
M  V30 4403 H 408.091 -2.76284 -3.98491 0
M  V30 4404 N 409.434 1.37368 -0.772513 0
M  V30 4405 C 410.845 1.8231 -0.402493 0
M  V30 4406 C 411.196 1.6436 1.07146 0
M  V30 4407 O 410.321 1.15514 1.82991 0
M  V30 4408 C 410.916 3.30979 -0.723776 0
M  V30 4409 C 409.475 3.74195 -0.406802 0
M  V30 4410 C 408.622 2.59885 -0.967218 0
M  V30 4411 H 411.573 1.25829 -0.967099 0
M  V30 4412 H 411.594 3.80499 -0.00870832 0
M  V30 4413 H 411.106 3.44011 -1.7966 0
M  V30 4414 H 409.207 3.66732 0.658673 0
M  V30 4415 H 409.32 4.7027 -0.915588 0
M  V30 4416 H 407.684 2.51674 -0.391416 0
M  V30 4417 H 408.467 2.7571 -2.04546 0
M  V30 4418 N 410.912 0.523116 1.48665 0
M  V30 4419 C 412.16 -0.0134497 2.02096 0
M  V30 4420 C 412.481 -1.35418 1.40311 0
M  V30 4421 O 411.751 -1.87543 0.566074 0
M  V30 4422 H 410.331 -0.00795915 0.746958 0
M  V30 4423 H 412.993 0.685388 1.82451 0
M  V30 4424 H 412.089 -0.126849 3.11842 0
M  V30 4425 N 412.39 -1.55475 0.257931 0
M  V30 4426 C 413.3 -2.2549 -0.647425 0
M  V30 4427 C 414.316 -1.2748 -1.18427 0
M  V30 4428 O 415.492 -1.6038 -1.2182 0
M  V30 4429 C 412.557 -2.94916 -1.82278 0
M  V30 4430 C 411.618 -4.08363 -1.32432 0
M  V30 4431 C 410.851 -4.74469 -2.44366 0
M  V30 4432 O 411.074 -4.39701 -3.63344 0
M  V30 4433 O 410.008 -5.62763 -2.13497 0
M  V30 4434 H 413.834 -3.03593 -0.0807707 0
M  V30 4435 H 411.419 -1.49377 0.0259962 0
M  V30 4436 H 413.301 -3.38606 -2.50846 0
M  V30 4437 H 411.976 -2.19744 -2.37685 0
M  V30 4438 H 410.883 -3.69166 -0.605605 0
M  V30 4439 H 412.216 -4.85385 -0.816211 0
M  V30 4440 N 413.868 0.0150385 -1.57593 0
M  V30 4441 C 414.798 1.01047 -2.10503 0
M  V30 4442 C 415.779 1.36816 -1.01071 0
M  V30 4443 O 416.964 1.45455 -1.28672 0
M  V30 4444 C 414.094 2.30708 -2.59598 0
M  V30 4445 C 413.048 2.09142 -3.73421 0
M  V30 4446 C 412.374 3.44685 -4.08774 0
M  V30 4447 C 413.674 1.46619 -5.01298 0
M  V30 4448 H 415.368 0.569978 -2.93925 0
M  V30 4449 H 412.914 0.272724 -1.41394 0
M  V30 4450 H 414.867 3.00687 -2.95238 0
M  V30 4451 H 413.591 2.76843 -1.73279 0
M  V30 4452 H 412.25 1.41592 -3.38153 0
M  V30 4453 H 411.898 3.88495 -3.195 0
M  V30 4454 H 411.598 3.31077 -4.8545 0
M  V30 4455 H 413.122 4.16004 -4.4696 0
M  V30 4456 H 414.536 2.06535 -5.34805 0
M  V30 4457 H 412.933 1.43544 -5.82679 0
M  V30 4458 H 414.003 0.433611 -4.82957 0
M  V30 4459 N 415.346 1.54954 0.287554 0
M  V30 4460 C 416.296 1.8322 1.357 0
M  V30 4461 C 417.28 0.690152 1.45347 0
M  V30 4462 O 418.472 0.951137 1.49273 0
M  V30 4463 C 415.601 2.09481 2.71979 0
M  V30 4464 C 414.687 3.29906 2.66502 0
M  V30 4465 N 415.078 4.50154 2.30641 0
M  V30 4466 C 413.376 3.32203 2.97585 0
M  V30 4467 C 414.077 5.32209 2.34794 0
M  V30 4468 N 413.053 4.70258 2.72688 0
M  V30 4469 H 416.855 2.73746 1.0696 0
M  V30 4470 H 414.369 1.54635 0.496167 0
M  V30 4471 H 416.366 2.27882 3.49107 0
M  V30 4472 H 415.026 1.2023 3.0162 0
M  V30 4473 H 416.037 4.76515 2.02865 0
M  V30 4474 H 412.714 2.53101 3.32034 0
M  V30 4475 H 414.104 6.38321 2.09753 0
M  V30 4476 N 416.824 -0.551391 1.4764 0
M  V30 4477 C 417.754 -1.66757 1.63445 0
M  V30 4478 C 418.735 -1.63077 0.483742 0
M  V30 4479 O 419.92 -1.80607 0.71377 0
M  V30 4480 C 417.05 -3.05387 1.65396 0
M  V30 4481 C 416.004 -3.23918 2.79752 0
M  V30 4482 C 415.33 -4.63393 2.66779 0
M  V30 4483 C 416.63 -3.08735 4.21284 0
M  V30 4484 H 418.324 -1.53786 2.56886 0
M  V30 4485 H 415.87 -0.738415 1.23626 0
M  V30 4486 H 417.823 -3.83325 1.75043 0
M  V30 4487 H 416.547 -3.19332 0.685195 0
M  V30 4488 H 415.206 -2.48391 2.69625 0
M  V30 4489 H 414.854 -4.74144 1.67918 0
M  V30 4490 H 414.554 -4.7674 3.43501 0
M  V30 4491 H 416.078 -5.43458 2.78364 0
M  V30 4492 H 417.492 -3.76484 4.32357 0
M  V30 4493 H 415.889 -3.33588 4.98838 0
M  V30 4494 H 416.959 -2.0541 4.39243 0
M  V30 4495 N 418.302 -1.35869 -0.798587 0
M  V30 4496 C 419.55 -1.29332 -1.55298 0
M  V30 4497 C 419.871 0.129729 -1.94568 0
M  V30 4498 O 419.141 1.06796 -1.6423 0
M  V30 4499 H 417.721 -0.475737 -0.57592 0
M  V30 4500 H 420.383 -1.70062 -0.952093 0
M  V30 4501 H 419.479 -1.91458 -2.46476 0
M  V30 4502 N 419.78 1.02168 -1.19998 0
M  V30 4503 C 421.005 1.79833 -1.03319 0
M  V30 4504 C 421.43 1.83504 0.413281 0
M  V30 4505 O 420.788 1.26635 1.29743 0
M  V30 4506 C 420.836 3.22396 -1.61533 0
M  V30 4507 O 419.94 4.03555 -0.849519 0
M  V30 4508 H 419.281 0.554872 -0.364709 0
M  V30 4509 H 421.811 1.28542 -1.59179 0
M  V30 4510 H 421.821 3.73124 -1.65054 0
M  V30 4511 H 420.496 3.19039 -2.66809 0
M  V30 4512 H 419.073 3.62169 -0.888129 0
M  V30 4513 N 421.258 1.00505 1.21394 0
M  V30 4514 C 422.191 0.51032 2.22421 0
M  V30 4515 C 423.169 -0.436 1.56645 0
M  V30 4516 O 424.353 -0.358709 1.85055 0
M  V30 4517 C 421.48 -0.258733 3.3771 0
M  V30 4518 C 420.526 0.635395 4.2174 0
M  V30 4519 S 421.359 2.09783 4.92698 0
M  V30 4520 C 422.515 1.33862 6.11418 0
M  V30 4521 H 422.748 1.36637 2.64041 0
M  V30 4522 H 420.281 0.812991 1.31262 0
M  V30 4523 H 422.239 -0.696372 4.0455 0
M  V30 4524 H 420.9 -1.0902 2.94573 0
M  V30 4525 H 420.093 0.0430189 5.03982 0
M  V30 4526 H 419.695 1.01031 3.60095 0
M  V30 4527 H 421.987 0.612541 6.74725 0
M  V30 4528 H 422.93 2.13675 6.75092 0
M  V30 4529 H 423.338 0.846568 5.58116 0
M  V30 4530 N 422.737 -1.36956 0.779787 0
M  V30 4531 C 424.153 -1.52817 0.460342 0
M  V30 4532 C 424.353 -1.7361 -1.02283 0
M  V30 4533 O 423.409 -1.76207 -1.80852 0
M  V30 4534 C 424.722 -2.71983 1.28241 0
M  V30 4535 C 426.27 -2.85849 1.27512 0
M  V30 4536 C 426.745 -4.08008 2.08072 0
M  V30 4537 N 428.236 -4.15135 2.05467 0
M  V30 4538 C 428.971 -5.08711 2.64577 0
M  V30 4539 N 428.467 -6.07792 3.32506 0
M  V30 4540 N 430.26 -5.01254 2.54363 0
M  V30 4541 H 422.411 -1.21713 1.74068 0
M  V30 4542 H 424.674 -0.593294 0.739396 0
M  V30 4543 H 424.38 -2.63109 2.33381 0
M  V30 4544 H 424.254 -3.65882 0.917088 0
M  V30 4545 H 426.641 -2.94189 0.231686 0
M  V30 4546 H 426.722 -1.92886 1.68014 0
M  V30 4547 H 426.366 -4.00429 3.12441 0
M  V30 4548 H 426.296 -5.001 1.64947 0
M  V30 4549 H 428.787 -3.44189 1.5602 0
M  V30 4550 H 429.1 -6.75739 3.74963 0
M  V30 4551 H 427.445 -6.08047 3.36606 0
M  V30 4552 H 430.636 -4.22795 2.00902 0
M  V30 4553 H 430.809 -5.73995 3.00722 0
M  V30 4554 N 424.215 -0.530993 -1.48385 0
M  V30 4555 C 425.631 -0.188919 -1.58478 0
M  V30 4556 C 425.831 1.30786 -1.53288 0
M  V30 4557 O 424.887 2.08619 -1.42248 0
M  V30 4558 C 426.2 -0.792343 -2.90073 0
M  V30 4559 C 427.748 -0.76117 -3.03604 0
M  V30 4560 C 428.223 -1.34319 -4.37861 0
M  V30 4561 N 429.714 -1.3052 -4.44431 0
M  V30 4562 C 430.449 -1.72543 -5.46824 0
M  V30 4563 N 429.945 -2.22299 -6.56167 0
M  V30 4564 N 431.738 -1.63773 -5.37712 0
M  V30 4565 H 423.889 -1.50377 -1.50002 0
M  V30 4566 H 426.152 -0.625559 -0.712306 0
M  V30 4567 H 425.858 -1.84323 -2.99529 0
M  V30 4568 H 425.732 -0.270026 -3.76232 0
M  V30 4569 H 428.119 0.280957 -2.93759 0
M  V30 4570 H 428.2 -1.32097 -2.19053 0
M  V30 4571 H 427.844 -2.38425 -4.4846 0
M  V30 4572 H 427.774 -0.759064 -5.21101 0
M  V30 4573 H 430.265 -0.940973 -3.65997 0
M  V30 4574 H 430.578 -2.52356 -7.30436 0
M  V30 4575 H 428.923 -2.26293 -6.57127 0
M  V30 4576 H 432.114 -1.24698 -4.51185 0
M  V30 4577 H 432.287 -1.96844 -6.17379 0
M  V30 4578 N 425.693 1.55336 -0.266172 0
M  V30 4579 C 426.626 2.18256 0.666296 0
M  V30 4580 C 427.604 1.14064 1.1588 0
M  V30 4581 O 428.788 1.42546 1.23341 0
M  V30 4582 C 425.915 2.79867 1.90768 0
M  V30 4583 C 424.961 3.97283 1.55141 0
M  V30 4584 S 425.794 5.31694 0.637313 0
M  V30 4585 C 426.95 5.96769 1.88727 0
M  V30 4586 H 427.183 2.97008 0.131647 0
M  V30 4587 H 424.716 1.54317 -0.0504869 0
M  V30 4588 H 426.674 3.15996 2.62025 0
M  V30 4589 H 425.335 2.01025 2.41346 0
M  V30 4590 H 424.528 4.3905 2.4749 0
M  V30 4591 H 424.13 3.6253 0.919113 0
M  V30 4592 H 426.422 6.15458 2.83227 0
M  V30 4593 H 427.365 6.91752 1.51276 0
M  V30 4594 H 427.773 5.26034 2.04814 0
M  V30 4595 N 427.171 -0.0066808 1.57599 0
M  V30 4596 C 428.101 -0.999296 2.11036 0
M  V30 4597 C 429.082 -1.36278 1.01795 0
M  V30 4598 O 430.267 -1.4477 1.29442 0
M  V30 4599 C 427.397 -2.29328 2.60818 0
M  V30 4600 C 426.351 -2.07159 3.74525 0
M  V30 4601 C 425.677 -3.42512 4.10596 0
M  V30 4602 C 426.977 -1.43959 5.02069 0
M  V30 4603 H 428.671 -0.554382 2.94223 0
M  V30 4604 H 426.217 -0.265221 1.41536 0
M  V30 4605 H 428.17 -2.99117 2.96828 0
M  V30 4606 H 426.894 -2.7592 1.74745 0
M  V30 4607 H 425.553 -1.39797 3.38899 0
M  V30 4608 H 425.201 -3.86795 3.21556 0
M  V30 4609 H 424.901 -3.28498 4.87199 0
M  V30 4610 H 426.425 -4.13628 4.4916 0
M  V30 4611 H 427.839 -2.03696 5.35893 0
M  V30 4612 H 426.236 -1.40452 5.83432 0
M  V30 4613 H 427.306 -0.407992 4.83181 0
M  V30 4614 N 428.649 -1.55105 -0.279332 0
M  V30 4615 C 429.559 -1.90638 -1.36727 0
M  V30 4616 C 430.575 -0.802899 -1.54368 0
M  V30 4617 O 431.751 -1.10138 -1.68616 0
M  V30 4618 C 428.816 -2.16547 -2.70755 0
M  V30 4619 C 427.877 -3.40146 -2.61915 0
M  V30 4620 C 427.11 -3.6481 -3.8955 0
M  V30 4621 O 427.333 -2.92095 -4.89935 0
M  V30 4622 O 426.267 -4.58343 -3.90135 0
M  V30 4623 H 430.093 -2.83237 -1.09591 0
M  V30 4624 H 427.678 -1.4157 -0.477306 0
M  V30 4625 H 429.56 -2.34665 -3.50014 0
M  V30 4626 H 428.235 -1.27131 -2.9769 0
M  V30 4627 H 427.142 -3.2737 -1.81052 0
M  V30 4628 H 428.475 -4.29761 -2.3993 0
M  V30 4629 N 430.127 0.543554 -1.4793 0
M  V30 4630 C 431.376 1.29649 -1.54512 0
M  V30 4631 C 431.689 1.94382 -0.217973 0
M  V30 4632 O 432.895 2.71017 -0.161908 0
M  V30 4633 C 431.351 2.35175 -2.72435 0
M  V30 4634 C 430.959 1.76572 -4.11736 0
M  V30 4635 C 432.703 3.11564 -2.8832 0
M  V30 4636 C 430.61 2.79958 -5.20939 0
M  V30 4637 H 429.54 0.487541 -0.57517 0
M  V30 4638 H 432.191 0.575708 -1.74235 0
M  V30 4639 H 430.573 3.10229 -2.46118 0
M  V30 4640 H 431.747 1.07799 -4.48013 0
M  V30 4641 H 430.062 1.12722 -4.00852 0
M  V30 4642 H 432.659 3.88794 -3.67074 0
M  V30 4643 H 433.002 3.66594 -1.97268 0
M  V30 4644 H 433.535 2.43623 -3.14472 0
M  V30 4645 H 430.274 2.29766 -6.13912 0
M  V30 4646 H 429.794 3.47101 -4.89164 0
M  V30 4647 H 431.473 3.43198 -5.48474 0
M  V30 4648 N 431.605 1.3629 0.791371 0
M  V30 4649 C 432.535 1.33137 1.91825 0
M  V30 4650 C 433.516 0.203168 1.68882 0
M  V30 4651 O 434.701 0.400509 1.90025 0
M  V30 4652 C 431.831 1.11793 3.28816 0
M  V30 4653 C 430.785 2.21417 3.66277 0
M  V30 4654 C 430.111 1.85218 5.01596 0
M  V30 4655 C 431.411 3.63489 3.75064 0
M  V30 4656 H 433.105 2.2743 1.9472 0
M  V30 4657 H 430.651 1.09479 0.935437 0
M  V30 4658 H 432.604 1.08222 4.07266 0
M  V30 4659 H 431.328 0.139501 3.26302 0
M  V30 4660 H 429.987 2.2411 2.90121 0
M  V30 4661 H 429.635 0.859544 4.95602 0
M  V30 4662 H 429.335 2.58611 5.27631 0
M  V30 4663 H 430.859 1.832 5.82469 0
M  V30 4664 H 432.273 3.63034 4.43711 0
M  V30 4665 H 430.67 4.35771 4.12582 0
M  V30 4666 H 431.74 3.98536 2.76219 0
M  V30 4667 N 433.083 -1.0153 1.20538 0
M  V30 4668 C 434.308 -1.79283 1.04271 0
M  V30 4669 C 434.733 -1.8372 -0.403544 0
M  V30 4670 O 434.091 -1.27321 -1.2907 0
M  V30 4671 C 434.139 -3.21535 1.63241 0
M  V30 4672 O 433.243 -4.03099 0.870908 0
M  V30 4673 H 432.584 -0.55293 0.367647 0
M  V30 4674 H 435.114 -1.27696 1.59859 0
M  V30 4675 H 435.124 -3.72243 1.6703 0
M  V30 4676 H 433.799 -3.1762 2.68497 0
M  V30 4677 H 432.376 -3.61693 0.907323 0
M  V30 4678 N 434.561 -1.01147 -1.20859 0
M  V30 4679 C 435.977 -0.725422 -1.42161 0
M  V30 4680 C 436.177 0.696919 -1.89064 0
M  V30 4681 O 435.233 1.46539 -2.05627 0
M  V30 4682 C 436.546 -1.74678 -2.44761 0
M  V30 4683 C 438.094 -1.76433 -2.58535 0
M  V30 4684 C 438.569 -2.77481 -3.64374 0
M  V30 4685 N 440.06 -2.76189 -3.71852 0
M  V30 4686 C 440.795 -3.51035 -4.53389 0
M  V30 4687 N 440.291 -4.35541 -5.38773 0
M  V30 4688 N 442.084 -3.39655 -4.47873 0
M  V30 4689 H 434.235 -1.92979 -0.887282 0
M  V30 4690 H 436.498 -0.833327 -0.451962 0
M  V30 4691 H 436.204 -2.76551 -2.17285 0
M  V30 4692 H 436.078 -1.55472 -3.43669 0
M  V30 4693 H 438.465 -0.75248 -2.85345 0
M  V30 4694 H 438.546 -1.99712 -1.5984 0
M  V30 4695 H 438.19 -3.78827 -3.38308 0
M  V30 4696 H 438.12 -2.51466 -4.6268 0
M  V30 4697 H 440.611 -2.14885 -3.10858 0
M  V30 4698 H 440.924 -4.89432 -5.98061 0
M  V30 4699 H 439.269 -4.39621 -5.38292 0
M  V30 4700 H 442.46 -2.73063 -3.80203 0
M  V30 4701 H 442.633 -3.9824 -5.11184 0
M  V30 4702 N 436.039 1.36541 -0.78704 0
M  V30 4703 C 436.971 2.28761 -0.141773 0
M  V30 4704 C 437.984 1.49365 0.647599 0
M  V30 4705 O 439.173 1.71836 0.483173 0
M  V30 4706 C 436.273 3.28771 0.822368 0
M  V30 4707 C 435.446 4.3732 0.0835594 0
M  V30 4708 C 434.505 5.17307 0.963296 0
M  V30 4709 O 433.531 5.67638 0.421419 0
M  V30 4710 N 434.733 5.33515 2.28784 0
M  V30 4711 H 437.498 2.84777 -0.933919 0
M  V30 4712 H 435.059 1.48682 -0.640735 0
M  V30 4713 H 437.051 3.79169 1.41468 0
M  V30 4714 H 435.621 2.73412 1.5154 0
M  V30 4715 H 434.841 3.88118 -0.689809 0
M  V30 4716 H 436.129 5.0701 -0.426358 0
M  V30 4717 H 435.527 4.94234 2.75226 0
M  V30 4718 H 434.084 5.87165 2.82985 0
M  V30 4719 N 437.518 0.538854 1.48102 0
M  V30 4720 C 438.481 -0.208395 2.28251 0
M  V30 4721 C 439.481 -0.859656 1.35892 0
M  V30 4722 O 440.671 -0.71834 1.58699 0
M  V30 4723 C 437.803 -1.30252 3.15035 0
M  V30 4724 H 438.996 0.495407 2.9578 0
M  V30 4725 H 436.549 0.295112 1.53489 0
M  V30 4726 H 437.284 -2.0393 2.52157 0
M  V30 4727 H 437.069 -0.840551 3.82985 0
M  V30 4728 H 438.559 -1.82787 3.75471 0
M  V30 4729 N 438.996 -1.55193 0.274407 0
M  V30 4730 C 439.926 -2.25471 -0.607032 0
M  V30 4731 C 440.907 -1.24461 -1.15946 0
M  V30 4732 O 442.092 -1.53179 -1.19373 0
M  V30 4733 C 439.222 -2.97526 -1.79153 0
M  V30 4734 C 438.176 -4.05459 -1.37067 0
M  V30 4735 C 437.502 -4.65084 -2.6382 0
M  V30 4736 C 438.802 -5.19691 -0.521389 0
M  V30 4737 H 440.496 -2.99393 -0.0209343 0
M  V30 4738 H 438.042 -1.43997 -0.00862866 0
M  V30 4739 H 439.995 -3.45402 -2.41404 0
M  V30 4740 H 438.719 -2.21138 -2.40344 0
M  V30 4741 H 437.378 -3.58393 -0.771355 0
M  V30 4742 H 437.026 -3.85365 -3.23268 0
M  V30 4743 H 436.726 -5.37961 -2.36372 0
M  V30 4744 H 438.25 -5.15708 -3.26921 0
M  V30 4745 H 439.664 -5.63623 -1.04889 0
M  V30 4746 H 438.061 -5.99126 -0.341825 0
M  V30 4747 H 439.131 -4.82713 0.46 0
M  V30 4748 N 440.474 -0.00167713 -1.576 0
M  V30 4749 C 441.885 0.54091 -1.78693 0
M  V30 4750 C 442.236 1.7386 -0.909247 0
M  V30 4751 O 441.361 2.16109 -0.112176 0
M  V30 4752 C 441.956 0.98806 -3.24072 0
M  V30 4753 C 440.515 1.47594 -3.46256 0
M  V30 4754 C 439.662 0.42792 -2.73978 0
M  V30 4755 H 442.613 -0.22784 -1.57056 0
M  V30 4756 H 442.634 1.85398 -3.32277 0
M  V30 4757 H 442.146 0.116164 -3.87926 0
M  V30 4758 H 440.247 2.36868 -2.87618 0
M  V30 4759 H 440.36 1.50225 -4.54939 0
M  V30 4760 H 438.724 0.889934 -2.38647 0
M  V30 4761 H 439.507 -0.435038 -3.40532 0
M  V30 4762 N 441.952 1.55251 0.271103 0
M  V30 4763 C 442.882 1.9127 1.33933 0
M  V30 4764 C 443.863 0.77478 1.5143 0
M  V30 4765 O 445.048 1.03307 1.64442 0
M  V30 4766 C 442.178 2.18627 2.69851 0
M  V30 4767 C 441.132 3.34442 2.67081 0
M  V30 4768 C 440.458 3.47284 4.06569 0
M  V30 4769 C 441.758 4.70784 2.26185 0
M  V30 4770 H 443.452 2.80744 1.04035 0
M  V30 4771 H 440.998 1.35077 0.499017 0
M  V30 4772 H 442.951 2.42413 3.44694 0
M  V30 4773 H 441.675 1.25955 3.01335 0
M  V30 4774 H 440.334 3.10627 1.94695 0
M  V30 4775 H 439.982 2.52074 4.35279 0
M  V30 4776 H 439.682 4.25152 4.0561 0
M  V30 4777 H 441.206 3.73363 4.83148 0
M  V30 4778 H 442.62 4.94102 2.90751 0
M  V30 4779 H 441.017 5.51582 2.36384 0
M  V30 4780 H 442.087 4.69478 1.21319 0
M  V30 4781 N 443.43 -0.535701 1.48216 0
M  V30 4782 C 444.707 -1.29683 1.46429 0
M  V30 4783 C 445.087 -2.10391 0.172852 0
M  V30 4784 O 444.435 -2.12282 -0.845488 0
M  V30 4785 C 444.645 -2.18313 2.72287 0
M  V30 4786 C 445.993 -2.78639 3.20383 0
M  V30 4787 O 447.017 -2.28604 2.73164 0
M  V30 4788 O 445.876 -3.69636 4.02531 0
M  V30 4789 H 442.97 -0.585026 0.584529 0
M  V30 4790 H 445.516 -0.552827 1.60443 0
M  V30 4791 H 444.288 -1.58421 3.57797 0
M  V30 4792 H 443.911 -2.99971 2.60966 0
M  V30 4793 O 444.947 -1.46458 -0.680617 0
M  V30 4794 H 445.638 -1.40531 -1.33307 0
M  V30 END ATOM
M  V30 BEGIN BOND
M  V30 END BOND
M  V30 END CTAB
M  END
$$$$
