drugbank_target|P20594 Atrial natriuretic peptide receptor 2 (DB01613; DB04899)
 OpenBabel12092119453D

  0  0  0     0  0            999 V3000
M  V30 BEGIN CTAB
M  V30 COUNTS 16456 16649 0 0 0
M  V30 BEGIN ATOM
M  V30 1 H -0.908 1.98254 -0.117106 0
M  V30 2 N 0 1.576 0 0
M  V30 3 C 0.933 2.03868 1.02534 0
M  V30 4 C 1.911 0.928543 1.3348 0
M  V30 5 O 3.095 1.19667 1.45644 0
M  V30 6 C 0.222 2.43627 2.35294 0
M  V30 7 C -0.732 3.65373 2.2001 0
M  V30 8 S 0.101 5.13292 1.52614 0
M  V30 9 C 1.257 5.56322 2.86805 0
M  V30 10 H 1.49 2.90518 0.631377 0
M  V30 11 H -0.977 1.52953 0.210867 0
M  V30 12 H 0.981 2.67203 3.11629 0
M  V30 13 H -0.358 1.57376 2.7183 0
M  V30 14 H -1.165 3.90944 3.18086 0
M  V30 15 H -1.563 3.418 1.51819 0
M  V30 16 H 0.729 5.58782 3.83104 0
M  V30 17 H 1.672 6.56266 2.65933 0
M  V30 18 H 2.08 4.83886 2.90714 0
M  V30 19 N 1.4781 -0.272755 1.55222 0
M  V30 20 C 2.4411 -1.32041 1.87344 0
M  V30 21 C 3.4411 -1.42342 0.74803 0
M  V30 22 O 4.6311 -1.41488 1.0162 0
M  V30 23 C 1.7631 -2.70173 2.07893 0
M  V30 24 H 2.9561 -1.04789 2.80997 0
M  V30 25 H 0.5091 -0.51083 1.47717 0
M  V30 26 H 1.2441 -3.02605 1.16622 0
M  V30 27 H 1.0291 -2.64082 2.89833 0
M  V30 28 H 2.5191 -3.45869 2.34017 0
M  V30 29 N 2.9562 -1.48159 -0.537278 0
M  V30 30 C 3.8862 -1.65029 -1.6519 0
M  V30 31 C 4.8672 -0.499281 -1.62607 0
M  V30 32 O 6.0522 -0.730972 -1.79918 0
M  V30 33 C 3.1822 -1.68303 -3.03795 0
M  V30 34 C 2.1362 -2.8283 -3.21234 0
M  V30 35 C 1.4622 -2.71189 -4.60826 0
M  V30 36 C 2.7622 -4.24211 -3.04701 0
M  V30 37 H 4.4562 -2.58341 -1.51328 0
M  V30 38 H 2.0022 -1.24325 -0.726585 0
M  V30 39 H 3.9552 -1.78693 -3.81637 0
M  V30 40 H 2.6792 -0.715635 -3.18663 0
M  V30 41 H 1.3382 -2.71983 -2.45807 0
M  V30 42 H 0.9862 -1.72435 -4.7252 0
M  V30 43 H 0.6862 -3.48035 -4.7344 0
M  V30 44 H 2.2102 -2.83537 -5.40777 0
M  V30 45 H 3.6242 -4.3593 -3.72341 0
M  V30 46 H 2.0212 -5.01998 -3.28813 0
M  V30 47 H 3.0912 -4.41184 -2.01209 0
M  V30 48 N 4.4343 0.785586 -1.36625 0
M  V30 49 C 5.8453 1.36101 -1.27803 0
M  V30 50 C 6.1963 1.96035 0.0804875 0
M  V30 51 O 5.3213 1.92834 0.982042 0
M  V30 52 C 5.9163 2.47442 -2.31426 0
M  V30 53 C 4.4753 3.00789 -2.26281 0
M  V30 54 C 3.6223 1.73896 -2.15999 0
M  V30 55 H 6.5733 0.586928 -1.47448 0
M  V30 56 H 6.5943 3.2656 -1.95291 0
M  V30 57 H 6.1063 2.03791 -3.30289 0
M  V30 58 H 4.2073 3.48851 -1.30896 0
M  V30 59 H 4.3203 3.57343 -3.19128 0
M  V30 60 H 2.6843 1.9628 -1.62316 0
M  V30 61 H 3.4673 1.32368 -3.16755 0
M  V30 62 N 5.9124 1.20967 1.01018 0
M  V30 63 C 7.1374 1.0503 1.78839 0
M  V30 64 C 7.5624 -0.395752 1.8389 0
M  V30 65 O 6.9204 -1.28529 1.27867 0
M  V30 66 C 6.9684 1.64602 3.2084 0
M  V30 67 O 6.0724 0.887988 4.02726 0
M  V30 68 H 5.4134 0.369987 0.551367 0
M  V30 69 H 7.9434 1.60399 1.27018 0
M  V30 70 H 7.9534 1.68607 3.71532 0
M  V30 71 H 6.6284 2.69841 3.16479 0
M  V30 72 H 5.2054 0.922648 3.61305 0
M  V30 73 N 7.3905 -1.2043 1.01659 0
M  V30 74 C 8.3205 -2.25466 0.607226 0
M  V30 75 C 9.3015 -1.65853 -0.377716 0
M  V30 76 O 10.4865 -1.92409 -0.263149 0
M  V30 77 C 7.6165 -3.47256 -0.0552949 0
M  V30 78 C 6.5705 -4.19462 0.850632 0
M  V30 79 C 5.8965 -5.34673 0.0538859 0
M  V30 80 C 7.1965 -4.75603 2.15868 0
M  V30 81 H 8.8905 -2.59962 1.48526 0
M  V30 82 H 6.4365 -1.2496 0.715605 0
M  V30 83 H 8.3895 -4.19917 -0.353233 0
M  V30 84 H 7.1135 -3.11924 -0.968045 0
M  V30 85 H 5.7725 -3.48667 1.13257 0
M  V30 86 H 5.4205 -4.95585 -0.860514 0
M  V30 87 H 5.1205 -5.83913 0.657192 0
M  V30 88 H 6.6445 -6.10138 -0.237598 0
M  V30 89 H 8.0585 -5.40083 1.92311 0
M  V30 90 H 6.4555 -5.3528 2.71284 0
M  V30 91 H 7.5255 -3.94346 2.82169 0
M  V30 92 N 8.8686 -0.792821 -1.36206 0
M  V30 93 C 9.7986 -0.207853 -2.32573 0
M  V30 94 C 10.7796 0.659055 -1.56813 0
M  V30 95 O 11.9646 0.592176 -1.84951 0
M  V30 96 C 9.0946 0.655449 -3.41059 0
M  V30 97 C 8.0486 -0.111842 -4.27854 0
M  V30 98 C 7.3746 0.872274 -5.27537 0
M  V30 99 C 8.6746 -1.30299 -5.05786 0
M  V30 100 H 10.3686 -1.01294 -2.81744 0
M  V30 101 H 7.9146 -0.48854 -1.3546 0
M  V30 102 H 9.8676 1.07464 -4.07467 0
M  V30 103 H 8.5916 1.49328 -2.90463 0
M  V30 104 H 7.2506 -0.512053 -3.63006 0
M  V30 105 H 6.8986 1.70523 -4.73214 0
M  V30 106 H 6.5986 0.363291 -5.86476 0
M  V30 107 H 8.1226 1.28996 -5.96818 0
M  V30 108 H 9.5366 -0.959379 -5.65216 0
M  V30 109 H 7.9336 -1.7455 -5.74154 0
M  V30 110 H 9.0036 -2.09663 -4.37229 0
M  V30 111 N 10.3467 1.47872 -0.545128 0
M  V30 112 C 11.2767 2.32661 0.197793 0
M  V30 113 C 12.2577 1.43041 0.920504 0
M  V30 114 O 13.4427 1.71912 0.90333 0
M  V30 115 C 10.5727 3.24569 1.23582 0
M  V30 116 C 9.5267 4.23333 0.630323 0
M  V30 117 C 8.8527 5.0448 1.77211 0
M  V30 118 C 10.1527 5.20704 -0.407974 0
M  V30 119 H 11.8467 2.95024 -0.510045 0
M  V30 120 H 9.3927 1.4187 -0.246731 0
M  V30 121 H 11.3457 3.8272 1.76362 0
M  V30 122 H 10.0697 2.60236 1.97344 0
M  V30 123 H 8.7287 3.6639 0.123922 0
M  V30 124 H 8.3767 4.36561 2.49847 0
M  V30 125 H 8.0767 5.71339 1.37281 0
M  V30 126 H 9.6007 5.65487 2.3034 0
M  V30 127 H 11.0147 5.7329 0.033305 0
M  V30 128 H 9.4117 5.95699 -0.725486 0
M  V30 129 H 10.4817 4.66917 -1.30828 0
M  V30 130 N 11.8248 0.280983 1.55075 0
M  V30 131 C 12.7548 -0.597469 2.25727 0
M  V30 132 C 13.7358 -1.15417 1.24952 0
M  V30 133 O 14.9208 -1.18722 1.53684 0
M  V30 134 C 12.0508 -1.7789 2.98283 0
M  V30 135 C 11.0048 -1.35347 4.06036 0
M  V30 136 C 10.3308 -2.61846 4.66198 0
M  V30 137 C 11.6308 -0.499354 5.19907 0
M  V30 138 H 13.3248 -0.00824265 2.99399 0
M  V30 139 H 10.8708 -0.0025244 1.44 0
M  V30 140 H 12.8238 -2.39937 3.46422 0
M  V30 141 H 11.5478 -2.39405 2.22155 0
M  V30 142 H 10.2068 -0.756156 3.58717 0
M  V30 143 H 9.8548 -3.21632 3.86732 0
M  V30 144 H 9.5548 -2.3409 5.38958 0
M  V30 145 H 11.0788 -3.24732 5.1709 0
M  V30 146 H 12.4928 -1.02498 5.64063 0
M  V30 147 H 10.8898 -0.316424 5.99265 0
M  V30 148 H 11.9598 0.480459 4.82514 0
M  V30 149 N 13.3029 -1.57598 0.00835791 0
M  V30 150 C 14.5489 -1.91211 -0.675732 0
M  V30 151 C 14.8819 -0.883139 -1.72958 0
M  V30 152 O 14.1569 0.097016 -1.94258 0
M  V30 153 C 14.4399 -3.35379 -1.31123 0
M  V30 154 C 14.2929 -4.48999 -0.268356 0
M  V30 155 C 15.6119 -3.7912 -2.23508 0
M  V30 156 H 12.7309 -0.695374 -0.244179 0
M  V30 157 H 15.3729 -1.89901 0.0613655 0
M  V30 158 H 13.5229 -3.36626 -1.93946 0
M  V30 159 H 15.1949 -4.59887 0.360844 0
M  V30 160 H 13.4379 -4.31873 0.408482 0
M  V30 161 H 14.1089 -5.46851 -0.752218 0
M  V30 162 H 16.5849 -3.79477 -1.70693 0
M  V30 163 H 15.4609 -4.80729 -2.64936 0
M  V30 164 H 15.7219 -3.13455 -3.11766 0
M  V30 165 N 14.781 0.264519 -1.55364 0
M  V30 166 C 15.744 1.31046 -1.88042 0
M  V30 167 C 16.744 1.41943 -0.755569 0
M  V30 168 O 17.934 1.40947 -1.02369 0
M  V30 169 C 15.066 2.69067 -2.09323 0
M  V30 170 H 16.259 1.03297 -2.81549 0
M  V30 171 H 13.812 0.502989 -1.47986 0
M  V30 172 H 14.547 3.01982 -1.18226 0
M  V30 173 H 14.332 2.62542 -2.91229 0
M  V30 174 H 15.822 3.44623 -2.35848 0
M  V30 175 N 16.2591 1.48442 0.529413 0
M  V30 176 C 17.2221 1.62524 1.61612 0
M  V30 177 C 18.2221 0.498509 1.52877 0
M  V30 178 O 19.4121 0.76431 1.56537 0
M  V30 179 C 16.5441 1.59597 3.01233 0
M  V30 180 H 17.7371 2.59423 1.50465 0
M  V30 181 H 15.2901 1.37047 0.751514 0
M  V30 182 H 16.0251 0.641781 3.17886 0
M  V30 183 H 15.8101 2.41397 3.08982 0
M  V30 184 H 17.3001 1.72646 3.80241 0
M  V30 185 N 17.7372 -0.778329 1.37039 0
M  V30 186 C 18.6672 -1.90546 1.34962 0
M  V30 187 C 19.6482 -1.68681 0.219274 0
M  V30 188 O 20.8332 -1.89634 0.418624 0
M  V30 189 C 17.9632 -3.27734 1.14925 0
M  V30 190 C 16.9172 -3.64147 2.24902 0
M  V30 191 C 16.2432 -4.99806 1.89996 0
M  V30 192 C 17.5432 -3.71579 3.67051 0
M  V30 193 H 19.2372 -1.92541 2.29277 0
M  V30 194 H 16.7832 -0.924948 1.10366 0
M  V30 195 H 18.7362 -4.06215 1.12104 0
M  V30 196 H 17.4602 -3.26154 0.170631 0
M  V30 197 H 16.1192 -2.8797 2.26868 0
M  V30 198 H 15.7672 -4.94759 0.906796 0
M  V30 199 H 15.4672 -5.25139 2.63634 0
M  V30 200 H 16.9912 -5.80694 1.88749 0
M  V30 201 H 18.4052 -4.40227 3.67251 0
M  V30 202 H 16.8022 -4.08405 4.39688 0
M  V30 203 H 17.8722 -2.72404 4.01154 0
M  V30 204 N 19.2153 -1.21501 -1.00376 0
M  V30 205 C 20.1783 -0.976927 -2.07337 0
M  V30 206 C 21.1783 0.0525322 -1.60714 0
M  V30 207 O 22.3683 -0.184869 -1.73216 0
M  V30 208 C 19.5003 -0.473423 -3.37597 0
M  V30 209 H 20.6933 -1.92587 -2.29892 0
M  V30 210 H 18.2463 -1.03217 -1.17371 0
M  V30 211 H 18.9813 0.480379 -3.20722 0
M  V30 212 H 18.7663 -1.216 -3.72768 0
M  V30 213 H 20.2563 -0.32675 -4.1632 0
M  V30 214 N 20.6934 1.19889 -1.02296 0
M  V30 215 C 21.9414 1.89046 -0.714558 0
M  V30 216 C 22.2624 1.79636 0.758681 0
M  V30 217 O 21.5324 1.20292 1.54618 0
M  V30 218 H 20.1124 0.699802 -0.261317 0
M  V30 219 H 22.7744 1.45574 -1.29592 0
M  V30 220 H 21.8704 2.95524 -1.0036 0
M  V30 221 N 22.1715 0.800033 1.35784 0
M  V30 222 C 23.4195 0.376597 1.9856 0
M  V30 223 C 23.7405 -1.05812 1.63795 0
M  V30 224 O 23.0105 -1.73103 0.917171 0
M  V30 225 H 21.5905 0.136261 0.734467 0
M  V30 226 H 24.2525 1.02442 1.65806 0
M  V30 227 H 23.3485 0.477002 3.08433 0
M  V30 228 N 23.6496 -1.47581 0.552962 0
M  V30 229 C 24.8956 -2.02782 0.0273648 0
M  V30 230 C 25.2286 -1.42687 -1.31734 0
M  V30 231 O 24.5036 -0.580897 -1.85623 0
M  V30 232 C 24.7866 -3.60031 -0.0702371 0
M  V30 233 C 24.6396 -4.30566 1.30126 0
M  V30 234 C 25.9586 -4.33028 -0.785771 0
M  V30 235 H 23.0776 -0.736912 0.0114185 0
M  V30 236 H 25.7196 -1.76056 0.714432 0
M  V30 237 H 23.8696 -3.82932 -0.655382 0
M  V30 238 H 25.5416 -4.19018 1.92929 0
M  V30 239 H 23.7846 -3.91086 1.87709 0
M  V30 240 H 24.4556 -5.39114 1.18573 0
M  V30 241 H 26.9316 -4.15095 -0.288982 0
M  V30 242 H 25.8076 -5.42695 -0.823013 0
M  V30 243 H 26.0686 -4.01945 -1.841 0
M  V30 244 N 25.1277 -0.289203 -1.54924 0
M  V30 245 C 26.5437 0.0645403 -1.59469 0
M  V30 246 C 26.7437 1.53419 -1.30632 0
M  V30 247 O 25.7997 2.2852 -1.074 0
M  V30 248 C 27.1127 -0.32278 -2.98963 0
M  V30 249 C 28.6607 -0.270564 -3.11828 0
M  V30 250 C 29.1357 -0.632532 -4.53611 0
M  V30 251 N 30.6267 -0.584617 -4.59496 0
M  V30 252 C 31.3617 -0.837314 -5.67254 0
M  V30 253 N 30.8577 -1.15536 -6.83098 0
M  V30 254 N 32.6507 -0.765166 -5.56868 0
M  V30 255 H 24.8017 -1.24714 -1.71931 0
M  V30 256 H 27.0647 -0.504809 -0.802416 0
M  V30 257 H 26.7707 -1.34541 -3.24948 0
M  V30 258 H 26.6447 0.32944 -3.75759 0
M  V30 259 H 29.0317 0.742805 -2.85598 0
M  V30 260 H 29.1127 -0.957242 -2.37214 0
M  V30 261 H 28.7567 -1.64365 -4.80569 0
M  V30 262 H 28.6867 0.07609 -5.26545 0
M  V30 263 H 31.1777 -0.349248 -3.76283 0
M  V30 264 H 31.4907 -1.33447 -7.61191 0
M  V30 265 H 29.8357 -1.19328 -6.84679 0
M  V30 266 H 33.0267 -0.516432 -4.65243 0
M  V30 267 H 33.1997 -0.965477 -6.40767 0
M  V30 268 N 26.6058 1.57591 -0.0167156 0
M  V30 269 C 28.0168 1.79201 0.523834 0
M  V30 270 C 28.3678 0.925796 1.72984 0
M  V30 271 O 27.4928 0.132792 2.15992 0
M  V30 272 C 28.0878 3.25 0.957091 0
M  V30 273 C 26.6468 3.47648 1.44283 0
M  V30 274 C 25.7938 2.74374 0.401757 0
M  V30 275 H 28.7448 1.56831 -0.242816 0
M  V30 276 H 28.7658 3.34031 1.82219 0
M  V30 277 H 28.2778 3.88019 0.0791415 0
M  V30 278 H 26.3788 2.89866 2.34113 0
M  V30 279 H 26.4918 4.56352 1.45877 0
M  V30 280 H 24.8558 2.39485 0.867121 0
M  V30 281 H 25.6388 3.40102 -0.467513 0
M  V30 282 N 28.0839 -0.256276 1.55502 0
M  V30 283 C 29.4949 -0.826068 1.67431 0
M  V30 284 C 29.8459 -1.86396 0.612446 0
M  V30 285 O 28.9709 -2.15031 -0.243025 0
M  V30 286 C 29.5659 -1.50512 3.03532 0
M  V30 287 C 28.1249 -2.02273 3.17431 0
M  V30 288 C 27.2719 -0.870548 2.63281 0
M  V30 289 H 30.2229 -0.0322728 1.58667 0
M  V30 290 H 30.2439 -2.37279 2.97454 0
M  V30 291 H 29.7559 -0.749484 3.80794 0
M  V30 292 H 27.8569 -2.80746 2.44974 0
M  V30 293 H 27.9699 -2.22655 4.24219 0
M  V30 294 H 26.3339 -1.26851 2.20864 0
M  V30 295 H 27.1169 -0.128149 3.43061 0
M  V30 296 N 29.562 -1.4872 -0.521534 0
M  V30 297 C 30.81 -1.56857 -1.27437 0
M  V30 298 C 31.131 -0.247982 -1.93417 0
M  V30 299 O 30.401 0.731151 -1.81744 0
M  V30 300 H 28.981 -0.577885 -0.473347 0
M  V30 301 H 31.643 -1.85233 -0.606205 0
M  V30 302 H 30.739 -2.35402 -2.0492 0
M  V30 303 N 31.0401 0.771051 -1.3745 0
M  V30 304 C 32.0031 1.86598 -1.33093 0
M  V30 305 C 33.0031 1.59076 -0.234845 0
M  V30 306 O 34.1931 1.67145 -0.490732 0
M  V30 307 C 31.3251 3.23747 -1.06773 0
M  V30 308 H 32.5181 1.91873 -2.30488 0
M  V30 309 H 30.0711 0.970876 -1.2249 0
M  V30 310 H 30.8061 3.24148 -0.099129 0
M  V30 311 H 30.5911 3.45115 -1.86112 0
M  V30 312 H 32.0811 4.03824 -1.06377 0
M  V30 313 N 32.5182 1.22032 0.997298 0
M  V30 314 C 33.9342 0.979326 1.26021 0
M  V30 315 C 34.1342 -0.32972 1.98784 0
M  V30 316 O 33.1902 -1.05345 2.29475 0
M  V30 317 C 34.5032 2.17509 2.07631 0
M  V30 318 C 36.0512 2.21817 2.2083 0
M  V30 319 C 36.5262 3.40933 3.05825 0
M  V30 320 N 38.0172 3.41067 3.13412 0
M  V30 321 C 38.7522 4.29885 3.79455 0
M  V30 322 N 38.2482 5.28914 4.47462 0
M  V30 323 N 40.0412 4.17673 3.76173 0
M  V30 324 H 32.1922 2.06202 0.509352 0
M  V30 325 H 34.4552 0.90334 0.287541 0
M  V30 326 H 34.1612 3.12415 1.61524 0
M  V30 327 H 34.0352 2.17206 3.08385 0
M  V30 328 H 36.4222 1.27462 2.66153 0
M  V30 329 H 36.5032 2.2616 1.1952 0
M  V30 330 H 36.1472 4.35586 2.61203 0
M  V30 331 H 36.0772 3.33829 4.07266 0
M  V30 332 H 38.5682 2.69406 2.65007 0
M  V30 333 H 38.8812 5.92973 4.95583 0
M  V30 334 H 37.2262 5.32831 4.46224 0
M  V30 335 H 40.4172 3.39564 3.22202 0
M  V30 336 H 40.5902 4.87098 4.27363 0
M  V30 337 N 33.9963 -1.19345 1.0293 0
M  V30 338 C 34.9443 -2.24621 0.604001 0
M  V30 339 C 35.9383 -1.65452 -0.363587 0
M  V30 340 O 37.1443 -1.78497 -0.23212 0
M  V30 341 H 33.5193 -0.730858 0.177061 0
M  V30 342 H 35.4903 -2.5781 1.50255 0
M  V30 343 C 34.2393 -3.47688 -0.0289127 0
M  V30 344 H 33.5623 -3.93505 0.706651 0
M  V30 345 H 35.0023 -4.23011 -0.289432 0
M  V30 346 C 33.4613 -3.11817 -1.2756 0
M  V30 347 O 33.9913 -3.2451 -2.36762 0
M  V30 348 N 32.1973 -2.66246 -1.16453 0
M  V30 349 H 31.7443 -2.56118 -0.275914 0
M  V30 350 H 31.7023 -2.42617 -1.99961 0
M  V30 351 N 35.4744 -0.807222 -1.35358 0
M  V30 352 C 36.4044 -0.232509 -2.3234 0
M  V30 353 C 37.3854 0.642386 -1.57504 0
M  V30 354 O 38.5704 0.572526 -1.85569 0
M  V30 355 C 35.7004 0.619238 -3.41735 0
M  V30 356 C 34.6544 -0.157215 -4.27711 0
M  V30 357 C 33.9804 0.816273 -5.28433 0
M  V30 358 C 35.2804 -1.35656 -5.04376 0
M  V30 359 H 36.9744 -1.04276 -2.80654 0
M  V30 360 H 34.5204 -0.50288 -1.34934 0
M  V30 361 H 36.4734 1.03137 -4.08584 0
M  V30 362 H 35.1974 1.46239 -2.92031 0
M  V30 363 H 33.8564 -0.550525 -3.62443 0
M  V30 364 H 33.5044 1.65494 -4.74996 0
M  V30 365 H 33.2044 0.301067 -5.86828 0
M  V30 366 H 34.7284 1.22659 -5.98153 0
M  V30 367 H 36.1424 -1.01927 -5.64166 0
M  V30 368 H 34.5394 -1.8063 -5.7227 0
M  V30 369 H 35.6094 -2.14288 -4.34981 0
M  V30 370 N 36.9525 1.47285 -0.560781 0
M  V30 371 C 38.1805 2.06855 -0.0430262 0
M  V30 372 C 38.5955 1.41291 1.25229 0
M  V30 373 O 37.9525 0.510648 1.7521 0
M  V30 374 C 38.0035 3.61178 0.152518 0
M  V30 375 O 37.7245 4.24285 -1.0915 0
M  V30 376 C 39.2255 4.37624 0.707145 0
M  V30 377 H 36.4455 0.669319 -0.0474652 0
M  V30 378 H 38.9895 1.89237 -0.77521 0
M  V30 379 H 37.1445 3.78298 0.834843 0
M  V30 380 H 37.5585 5.16868 -0.891482 0
M  V30 381 H 39.0325 5.46271 0.793244 0
M  V30 382 H 39.5095 4.04152 1.71923 0
M  V30 383 H 40.1155 4.25257 0.0604027 0
M  V30 384 N 38.4306 0.297415 1.54768 0
M  V30 385 C 39.3606 -0.573494 2.26348 0
M  V30 386 C 40.3416 -1.14085 1.26169 0
M  V30 387 O 41.5266 -1.17086 1.54934 0
M  V30 388 C 38.6566 -1.74716 3.00153 0
M  V30 389 C 37.6106 -1.31032 4.07449 0
M  V30 390 C 36.9366 -2.56887 4.68949 0
M  V30 391 C 38.2366 -0.444183 5.20408 0
M  V30 392 H 39.9306 0.0235131 2.99391 0
M  V30 393 H 37.4766 0.0127488 1.43994 0
M  V30 394 H 39.4296 -2.3625 3.48947 0
M  V30 395 H 38.1536 -2.37035 2.24682 0
M  V30 396 H 36.8126 -0.718066 3.59499 0
M  V30 397 H 36.4606 -3.17512 3.90122 0
M  V30 398 H 36.1606 -2.2836 5.41411 0
M  V30 399 H 37.6846 -3.19229 5.20505 0
M  V30 400 H 39.0986 -0.9651 5.65118 0
M  V30 401 H 37.4956 -0.252846 5.99567 0
M  V30 402 H 38.5656 0.531609 4.81977 0
M  V30 403 N 39.9087 -1.5758 0.0250728 0
M  V30 404 C 40.8717 -2.08896 -0.943139 0
M  V30 405 C 41.8717 -1.00321 -1.25668 0
M  V30 406 O 43.0617 -1.26495 -1.19769 0
M  V30 407 C 40.1937 -2.55143 -2.26086 0
M  V30 408 H 41.3867 -2.95723 -0.498775 0
M  V30 409 H 38.9397 -1.54703 -0.222888 0
M  V30 410 H 39.6747 -1.71633 -2.75159 0
M  V30 411 H 39.4597 -3.34461 -2.04641 0
M  V30 412 H 40.9497 -2.95083 -2.95492 0
M  V30 413 N 41.3868 0.248026 -1.55636 0
M  V30 414 C 42.6328 0.97767 -1.77678 0
M  V30 415 C 42.9658 1.85016 -0.590135 0
M  V30 416 O 42.2408 1.90095 0.411611 0
M  V30 417 C 42.5238 1.83914 -3.09593 0
M  V30 418 C 42.3768 0.99491 -4.38659 0
M  V30 419 C 43.6958 2.82183 -3.37729 0
M  V30 420 H 40.8148 0.354005 -0.646413 0
M  V30 421 H 43.4568 0.248253 -1.88371 0
M  V30 422 H 41.6068 2.46104 -3.00608 0
M  V30 423 H 43.2788 0.391789 -4.59633 0
M  V30 424 H 41.5218 0.299231 -4.32767 0
M  V30 425 H 42.1928 1.63145 -5.2734 0
M  V30 426 H 44.6688 2.30129 -3.4667 0
M  V30 427 H 43.5448 3.39582 -4.31249 0
M  V30 428 H 43.8058 3.58588 -2.58586 0
M  V30 429 N 42.8649 1.48995 0.513639 0
M  V30 430 C 44.1109 1.58076 1.27042 0
M  V30 431 C 44.4439 0.261026 1.92438 0
M  V30 432 O 43.7189 -0.734393 1.80103 0
M  V30 433 C 44.0019 2.73091 2.34719 0
M  V30 434 C 43.8549 4.14821 1.73907 0
M  V30 435 C 45.1739 2.83796 3.36375 0
M  V30 436 H 42.2929 0.575391 0.460536 0
M  V30 437 H 44.9349 1.81232 0.570516 0
M  V30 438 H 43.0849 2.53479 2.94416 0
M  V30 439 H 44.7569 4.45917 1.18135 0
M  V30 440 H 42.9999 4.21058 1.0437 0
M  V30 441 H 43.6709 4.91147 2.51949 0
M  V30 442 H 46.1469 3.01611 2.86653 0
M  V30 443 H 45.0229 3.65971 4.09093 0
M  V30 444 H 45.2839 1.92624 3.9793 0
M  V30 445 N 44.343 -0.763751 1.37857 0
M  V30 446 C 45.273 -1.89103 1.36975 0
M  V30 447 C 46.254 -1.68439 0.237152 0
M  V30 448 O 47.439 -1.8918 0.438713 0
M  V30 449 C 44.569 -3.26496 1.18395 0
M  V30 450 C 43.523 -3.61741 2.28751 0
M  V30 451 C 42.849 -4.97762 1.95286 0
M  V30 452 C 44.149 -3.67665 3.70972 0
M  V30 453 H 45.843 -1.90099 2.31307 0
M  V30 454 H 43.389 -0.91319 1.11341 0
M  V30 455 H 45.342 -4.05003 1.16406 0
M  V30 456 H 44.066 -3.25955 0.205215 0
M  V30 457 H 42.725 -2.85547 2.29909 0
M  V30 458 H 42.373 -4.93769 0.959221 0
M  V30 459 H 42.073 -5.22313 2.69189 0
M  V30 460 H 43.597 -5.7866 1.94898 0
M  V30 461 H 45.011 -4.36307 3.719 0
M  V30 462 H 43.408 -4.03718 4.43995 0
M  V30 463 H 44.478 -2.68134 4.0402 0
M  V30 464 N 45.8211 -1.22559 -0.990812 0
M  V30 465 C 47.2321 -1.04791 -1.54518 0
M  V30 466 C 47.5831 0.387998 -1.92325 0
M  V30 467 O 46.7081 1.27328 -1.74976 0
M  V30 468 C 47.3031 -1.896 -2.80779 0
M  V30 469 C 45.8621 -1.76124 -3.32652 0
M  V30 470 C 45.0091 -1.8594 -2.05722 0
M  V30 471 H 47.9601 -1.36374 -0.811662 0
M  V30 472 H 47.9811 -1.41464 -3.53225 0
M  V30 473 H 47.4931 -2.94101 -2.53231 0
M  V30 474 H 45.5941 -0.743643 -3.65104 0
M  V30 475 H 45.7071 -2.58913 -4.03114 0
M  V30 476 H 44.0711 -1.29403 -2.19379 0
M  V30 477 H 44.8541 -2.91976 -1.80568 0
M  V30 478 N 47.2992 1.18797 -1.03562 0
M  V30 479 C 48.2092 2.25913 -0.632505 0
M  V30 480 C 49.2252 1.70668 0.338882 0
M  V30 481 O 50.4012 2.00453 0.195076 0
M  V30 482 C 47.4662 3.467 0.00350942 0
M  V30 483 C 46.5272 4.17098 -1.01624 0
M  V30 484 C 45.7602 5.32119 -0.410478 0
M  V30 485 O 45.9832 5.64976 0.784725 0
M  V30 486 O 44.9172 5.9107 -1.13667 0
M  V30 487 H 48.7432 2.62648 -1.52478 0
M  V30 488 H 46.3282 1.25781 -0.806195 0
M  V30 489 H 48.2102 4.19878 0.35781 0
M  V30 490 H 46.8852 3.11798 0.869686 0
M  V30 491 H 45.7922 3.4601 -1.42224 0
M  V30 492 H 47.1252 4.55987 -1.85301 0
M  V30 493 N 48.7773 0.814389 1.34928 0
M  V30 494 C 49.7273 0.202752 2.27097 0
M  V30 495 C 50.7113 -0.62799 1.48139 0
M  V30 496 O 51.9033 -0.483969 1.70255 0
M  V30 497 C 49.0323 -0.64146 3.37254 0
M  V30 498 C 48.1183 0.19944 4.23631 0
M  V30 499 N 48.5093 1.26628 4.89693 0
M  V30 500 C 46.8073 -0.0176433 4.45997 0
M  V30 501 C 47.5083 1.78031 5.53787 0
M  V30 502 N 46.4843 1.08553 5.32651 0
M  V30 503 H 50.2863 1.01893 2.75672 0
M  V30 504 H 47.8003 0.656332 1.48546 0
M  V30 505 H 49.7973 -1.09575 4.02243 0
M  V30 506 H 48.4573 -1.4559 2.9023 0
M  V30 507 H 49.4683 1.64901 4.90946 0
M  V30 508 H 46.1453 -0.800601 4.09752 0
M  V30 509 H 47.5353 2.67236 6.16469 0
M  V30 510 N 50.2554 -1.46986 0.568584 0
M  V30 511 C 51.2034 -2.31858 -0.185649 0
M  V30 512 C 52.1974 -1.43624 -0.898249 0
M  V30 513 O 53.4034 -1.60327 -0.818242 0
M  V30 514 H 49.7784 -0.747866 -0.0787399 0
M  V30 515 H 51.7494 -2.93303 0.549191 0
M  V30 516 C 50.4984 -3.26513 -1.19519 0
M  V30 517 H 49.8214 -3.94377 -0.656285 0
M  V30 518 H 51.2614 -3.88707 -1.6936 0
M  V30 519 C 49.7204 -2.50847 -2.24894 0
M  V30 520 O 50.2504 -2.26119 -3.32014 0
M  V30 521 N 48.4564 -2.11656 -1.99124 0
M  V30 522 H 48.0034 -2.31966 -1.12024 0
M  V30 523 H 47.9614 -1.61347 -2.69842 0
M  V30 524 N 51.7335 -0.305618 -1.54608 0
M  V30 525 C 52.6635 0.561482 -2.26649 0
M  V30 526 C 53.6445 1.13415 -1.26772 0
M  V30 527 O 54.8295 1.16262 -1.55553 0
M  V30 528 C 51.9595 1.73122 -3.01075 0
M  V30 529 C 50.9135 1.2887 -4.08138 0
M  V30 530 C 50.2395 2.54396 -4.70305 0
M  V30 531 C 51.5395 0.416578 -5.20636 0
M  V30 532 H 53.2335 -0.0393902 -2.99374 0
M  V30 533 H 50.7795 -0.020385 -1.43986 0
M  V30 534 H 52.7325 2.34396 -3.50195 0
M  V30 535 H 51.4565 2.3584 -2.25936 0
M  V30 536 H 50.1155 0.698991 -3.59875 0
M  V30 537 H 49.7635 3.15439 -3.918 0
M  V30 538 H 49.4635 2.25486 -5.42614 0
M  V30 539 H 50.9875 3.16464 -5.2219 0
M  V30 540 H 52.4015 0.935116 -5.65622 0
M  V30 541 H 50.7985 0.221046 -5.99693 0
M  V30 542 H 51.8685 -0.557162 -4.81688 0
M  V30 543 N 53.2116 1.57565 -0.0334293 0
M  V30 544 C 54.4366 1.96689 0.657895 0
M  V30 545 C 54.8616 0.910057 1.64619 0
M  V30 546 O 54.2196 -0.128598 1.80843 0
M  V30 547 C 54.2676 3.34905 1.33683 0
M  V30 548 O 53.3716 3.31574 2.45219 0
M  V30 549 H 52.7126 0.641205 0.172489 0
M  V30 550 H 55.2426 2.04372 -0.0965621 0
M  V30 551 H 55.2526 3.71234 1.69262 0
M  V30 552 H 53.9276 4.11366 0.612411 0
M  V30 553 H 52.5046 3.06968 2.11719 0
M  V30 554 N 54.6897 -0.239769 1.55765 0
M  V30 555 C 55.9197 -0.982743 1.8173 0
M  V30 556 C 56.3277 -1.7917 0.607835 0
M  V30 557 O 55.6707 -1.78525 -0.432973 0
M  V30 558 C 55.7327 -1.96332 3.01155 0
M  V30 559 C 55.3967 -1.34062 4.36894 0
M  V30 560 C 56.3937 -0.739539 5.14613 0
M  V30 561 C 54.0787 -1.35784 4.83599 0
M  V30 562 C 56.0727 -0.163989 6.37189 0
M  V30 563 C 53.7597 -0.778441 6.06122 0
M  V30 564 C 54.7577 -0.182548 6.82756 0
M  V30 565 O 54.4457 0.387887 8.02964 0
M  V30 566 H 54.1777 -0.294481 0.608487 0
M  V30 567 H 56.7317 -0.26572 2.03674 0
M  V30 568 H 54.9617 -2.71884 2.74984 0
M  V30 569 H 56.6507 -2.57032 3.14149 0
M  V30 570 H 57.4167 -0.718687 4.79646 0
M  V30 571 H 53.2957 -1.81105 4.23936 0
M  V30 572 H 56.8397 0.301753 6.96947 0
M  V30 573 H 52.7367 -0.796645 6.40565 0
M  V30 574 H 53.5047 0.28044 8.18019 0
M  V30 575 N 56.1678 -1.49265 -0.50573 0
M  V30 576 C 57.1308 -1.65075 -1.59006 0
M  V30 577 C 58.1308 -0.522768 -1.52065 0
M  V30 578 O 59.3208 -0.789117 -1.55302 0
M  V30 579 C 56.4528 -1.64369 -2.98656 0
M  V30 580 H 57.6458 -2.61784 -1.46319 0
M  V30 581 H 55.1988 -1.38226 -0.729616 0
M  V30 582 H 55.9338 -0.692272 -3.16825 0
M  V30 583 H 55.7188 -2.46282 -3.05103 0
M  V30 584 H 57.2088 -1.78674 -3.77446 0
M  V30 585 N 57.6459 0.756429 -1.3826 0
M  V30 586 C 58.8919 1.5168 -1.35517 0
M  V30 587 C 59.2469 1.9232 0.0554451 0
M  V30 588 O 58.5399 1.62352 1.01746 0
M  V30 589 C 58.7339 2.78313 -2.24224 0
M  V30 590 C 58.5629 2.50053 -3.7377 0
M  V30 591 C 57.3329 2.43414 -4.42807 0
M  V30 592 C 59.5309 2.1702 -4.66269 0
M  V30 593 N 57.5129 2.07398 -5.77805 0
M  V30 594 C 58.8839 1.91271 -5.89759 0
M  V30 595 C 60.9389 2.03305 -4.54501 0
M  V30 596 C 59.6419 1.53192 -7.02798 0
M  V30 597 C 61.6679 1.66627 -5.67441 0
M  V30 598 C 61.0299 1.4175 -6.8999 0
M  V30 599 H 57.1289 0.554735 -0.551174 0
M  V30 600 H 59.7129 0.881106 -1.73622 0
M  V30 601 H 57.8839 3.39696 -1.88311 0
M  V30 602 H 59.6159 3.44343 -2.12627 0
M  V30 603 H 56.3709 2.59789 -3.95988 0
M  V30 604 H 56.7949 1.92044 -6.4919 0
M  V30 605 H 61.4369 2.21215 -3.60311 0
M  V30 606 H 59.1549 1.34022 -7.96909 0
M  V30 607 H 62.7409 1.56652 -5.60314 0
M  V30 608 H 61.6209 1.1379 -7.759 0
M  V30 609 N 59.124 1.23083 0.984299 0
M  V30 610 C 60.087 1.00979 2.05757 0
M  V30 611 C 61.087 -0.0269573 1.60777 0
M  V30 612 O 62.277 0.212403 1.729 0
M  V30 613 C 59.409 0.527072 3.36801 0
M  V30 614 H 60.602 1.9622 2.26799 0
M  V30 615 H 58.155 1.05072 1.15714 0
M  V30 616 H 58.89 -0.429294 3.21446 0
M  V30 617 H 58.675 1.27515 3.70786 0
M  V30 618 H 60.165 0.392942 4.15747 0
M  V30 619 N 60.6021 -1.18246 1.0419 0
M  V30 620 C 61.8481 -1.88793 0.75689 0
M  V30 621 C 62.2031 -1.78909 -0.707767 0
M  V30 622 O 61.4961 -1.1794 -1.50999 0
M  V30 623 C 61.6901 -3.38082 1.15911 0
M  V30 624 C 61.5191 -3.62496 2.66133 0
M  V30 625 C 60.2891 -3.7979 3.33298 0
M  V30 626 C 62.4871 -3.62976 3.64353 0
M  V30 627 N 60.4691 -3.91955 4.72487 0
M  V30 628 C 61.8401 -3.80869 4.89222 0
M  V30 629 C 63.8951 -3.46071 3.57965 0
M  V30 630 C 62.5981 -3.83608 6.08471 0
M  V30 631 C 64.6241 -3.50093 4.76643 0
M  V30 632 C 63.9861 -3.68484 6.00332 0
M  V30 633 H 60.0851 -0.709406 0.32904 0
M  V30 634 H 62.6691 -1.42022 1.33183 0
M  V30 635 H 60.8401 -3.83544 0.612238 0
M  V30 636 H 62.5721 -3.96202 0.824989 0
M  V30 637 H 59.3271 -3.79224 2.83701 0
M  V30 638 H 59.7511 -4.01857 5.44831 0
M  V30 639 H 64.3931 -3.30797 2.63311 0
M  V30 640 H 62.1111 -3.97669 7.0348 0
M  V30 641 H 65.6971 -3.38285 4.73344 0
M  V30 642 H 64.5771 -3.71488 6.90627 0
M  V30 643 N 62.0802 -0.821533 -1.34494 0
M  V30 644 C 63.4912 -0.467956 -1.8074 0
M  V30 645 C 63.8422 1.01151 -1.68116 0
M  V30 646 O 62.9672 1.78707 -1.22036 0
M  V30 647 C 63.5622 -0.842627 -3.28154 0
M  V30 648 C 62.1212 -0.541439 -3.72485 0
M  V30 649 C 61.2682 -1.06028 -2.56229 0
M  V30 650 H 64.2192 -1.01183 -1.22261 0
M  V30 651 H 64.2402 -0.145876 -3.8022 0
M  V30 652 H 63.7522 -1.91945 -3.37311 0
M  V30 653 H 61.8532 0.526034 -3.68868 0
M  V30 654 H 61.9662 -1.08453 -4.66663 0
M  V30 655 H 60.3302 -0.481892 -2.501 0
M  V30 656 H 61.1132 -2.14352 -2.68157 0
M  V30 657 N 63.5583 1.46682 -0.576371 0
M  V30 658 C 64.9743 1.57822 -0.237562 0
M  V30 659 C 65.1743 1.57237 1.26011 0
M  V30 660 O 64.2303 1.48596 2.04146 0
M  V30 661 C 65.5433 2.87499 -0.881168 0
M  V30 662 C 67.0913 3.01119 -0.85417 0
M  V30 663 C 67.5663 4.33524 -1.4772 0
M  V30 664 N 69.0573 4.40207 -1.44125 0
M  V30 665 C 69.7923 5.4126 -1.89276 0
M  V30 666 N 69.2883 6.49021 -2.42371 0
M  V30 667 N 71.0813 5.32422 -1.80231 0
M  V30 668 H 63.2323 1.45306 -1.54919 0
M  V30 669 H 65.4953 0.692733 -0.647167 0
M  V30 670 H 65.2013 2.9372 -1.93447 0
M  V30 671 H 65.0753 3.75224 -0.385592 0
M  V30 672 H 67.4623 2.94485 0.190491 0
M  V30 673 H 67.5433 2.14887 -1.3877 0
M  V30 674 H 67.1873 4.40916 -2.52103 0
M  V30 675 H 67.1173 5.1852 -0.918947 0
M  V30 676 H 69.6083 3.62931 -1.05307 0
M  V30 677 H 69.9213 7.2233 -2.74698 0
M  V30 678 H 68.2663 6.49858 -2.46393 0
M  V30 679 H 71.4573 4.47137 -1.38514 0
M  V30 680 H 71.6303 6.11034 -2.15735 0
M  V30 681 N 65.0364 0.313813 1.54444 0
M  V30 682 C 66.2824 -0.292108 2.00685 0
M  V30 683 C 66.6154 -1.52548 1.20177 0
M  V30 684 O 65.8904 -1.92452 0.281531 0
M  V30 685 C 66.1734 -0.635968 3.5444 0
M  V30 686 C 66.0264 0.607437 4.4568 0
M  V30 687 C 67.3454 -1.45747 4.15266 0
M  V30 688 H 64.4644 -0.104697 0.729526 0
M  V30 689 H 67.1064 0.428457 1.85106 0
M  V30 690 H 65.2564 -1.24986 3.67846 0
M  V30 691 H 66.9284 1.24581 4.44159 0
M  V30 692 H 65.1714 1.23822 4.15753 0
M  V30 693 H 65.8424 0.322515 5.51057 0
M  V30 694 H 68.3184 -0.938645 4.05375 0
M  V30 695 H 67.1944 -1.66683 5.2298 0
M  V30 696 H 67.4554 -2.45063 3.67963 0
M  V30 697 N 66.5145 -1.57545 0.0417849 0
M  V30 698 C 67.7625 -1.91937 -0.632829 0
M  V30 699 C 68.0835 -0.919978 -1.71934 0
M  V30 700 O 67.3535 0.0366064 -1.95866 0
M  V30 701 H 65.9335 -0.708493 -0.236742 0
M  V30 702 H 68.5955 -1.9468 0.0925745 0
M  V30 703 H 67.6915 -2.92912 -1.07746 0
M  V30 704 N 67.9926 0.231505 -1.5589 0
M  V30 705 C 69.4036 0.799327 -1.68724 0
M  V30 706 C 69.7546 1.85398 -0.642022 0
M  V30 707 O 68.8796 2.1539 0.208784 0
M  V30 708 C 69.4746 1.45664 -3.05888 0
M  V30 709 C 68.0336 1.97197 -3.20609 0
M  V30 710 C 67.1806 0.828552 -2.64632 0
M  V30 711 H 70.1316 0.00702616 -1.58698 0
M  V30 712 H 70.1526 2.32517 -3.01191 0
M  V30 713 H 69.6646 0.688808 -3.81939 0
M  V30 714 H 67.7656 2.76813 -2.4941 0
M  V30 715 H 67.8786 2.15878 -4.27707 0
M  V30 716 H 66.2426 1.23321 -2.22854 0
M  V30 717 H 67.0256 0.0735544 -3.43221 0
M  V30 718 N 69.4707 1.49531 0.497807 0
M  V30 719 C 70.4337 1.65916 1.58128 0
M  V30 720 C 71.4337 0.530825 1.51786 0
M  V30 721 O 72.6237 0.797342 1.54881 0
M  V30 722 C 69.7557 1.65951 2.9778 0
M  V30 723 H 70.9487 2.62556 1.44929 0
M  V30 724 H 68.5017 1.38611 0.722275 0
M  V30 725 H 69.2367 0.709065 3.16453 0
M  V30 726 H 69.0217 2.47897 3.03792 0
M  V30 727 H 70.5117 1.80673 3.76493 0
M  V30 728 N 70.9488 -0.749086 1.3866 0
M  V30 729 C 72.1948 -1.51056 1.35314 0
M  V30 730 C 72.5278 -1.94121 -0.0553751 0
M  V30 731 O 71.8028 -1.65763 -1.01749 0
M  V30 732 C 72.0858 -2.76003 2.31288 0
M  V30 733 C 71.9388 -2.39047 3.8102 0
M  V30 734 C 73.2578 -3.78046 2.2532 0
M  V30 735 H 70.3768 -0.547972 0.492844 0
M  V30 736 H 73.0188 -0.857628 1.69543 0
M  V30 737 H 71.1688 -3.31716 2.02229 0
M  V30 738 H 72.8408 -1.89074 4.20771 0
M  V30 739 H 71.0838 -1.71449 3.98482 0
M  V30 740 H 71.7548 -3.28462 4.4364 0
M  V30 741 H 74.2308 -3.31884 2.50983 0
M  V30 742 H 73.1068 -4.63159 2.94576 0
M  V30 743 H 73.3678 -4.23957 1.25352 0
M  V30 744 N 72.4269 -1.23603 -0.977757 0
M  V30 745 C 73.3899 -1.02069 -2.05218 0
M  V30 746 C 74.3899 0.0184305 -1.60789 0
M  V30 747 O 75.5799 -0.221569 -1.72785 0
M  V30 748 C 72.7119 -0.544926 -3.36517 0
M  V30 749 H 73.9049 -1.9742 -2.25755 0
M  V30 750 H 71.4579 -1.05684 -1.15155 0
M  V30 751 H 72.1929 0.412241 -3.21669 0
M  V30 752 H 71.9779 -1.2948 -3.70105 0
M  V30 753 H 73.4679 -0.414985 -4.15533 0
M  V30 754 N 73.905 1.17692 -1.04816 0
M  V30 755 C 74.835 2.23777 -0.666791 0
M  V30 756 C 75.816 1.66796 0.33361 0
M  V30 757 O 77.001 1.93039 0.212042 0
M  V30 758 C 74.131 3.47281 -0.0367933 0
M  V30 759 C 73.085 4.17059 -0.961546 0
M  V30 760 C 72.411 5.34342 -0.195626 0
M  V30 761 C 73.711 4.69713 -2.28402 0
M  V30 762 H 75.405 2.55933 -1.55367 0
M  V30 763 H 72.951 1.23019 -0.748484 0
M  V30 764 H 74.904 4.20706 0.241775 0
M  V30 765 H 73.628 3.14381 0.885004 0
M  V30 766 H 72.287 3.45541 -1.22462 0
M  V30 767 H 71.935 4.97692 0.728816 0
M  V30 768 H 71.635 5.81966 -0.811775 0
M  V30 769 H 73.159 6.10553 0.0757473 0
M  V30 770 H 74.573 5.34794 -2.06563 0
M  V30 771 H 72.97 5.279 -2.8538 0
M  V30 772 H 74.04 3.86726 -2.92525 0
M  V30 773 N 75.3831 0.828654 1.34056 0
M  V30 774 C 76.3461 0.259927 2.27721 0
M  V30 775 C 77.3461 -0.565478 1.50529 0
M  V30 776 O 78.5361 -0.38075 1.69988 0
M  V30 777 C 75.6681 -0.634944 3.34935 0
M  V30 778 H 76.8611 1.0863 2.79534 0
M  V30 779 H 74.4141 0.600951 1.44285 0
M  V30 780 H 75.1491 -1.48416 2.88346 0
M  V30 781 H 74.9341 -0.0444999 3.92075 0
M  V30 782 H 76.4241 -1.02648 4.04788 0
M  V30 783 N 76.8612 -1.46375 0.584142 0
M  V30 784 C 78.1072 -2.02678 0.0703716 0
M  V30 785 C 78.4402 -1.4545 -1.28678 0
M  V30 786 O 77.7152 -0.62014 -1.84349 0
M  V30 787 C 77.9982 -3.60099 0.00614674 0
M  V30 788 C 77.8512 -4.27709 1.3923 0
M  V30 789 C 79.1702 -4.34598 -0.693742 0
M  V30 790 H 76.2892 -0.736504 0.027047 0
M  V30 791 H 78.9312 -1.74501 0.751615 0
M  V30 792 H 77.0812 -3.84236 -0.574009 0
M  V30 793 H 78.7532 -4.14832 2.01773 0
M  V30 794 H 76.9962 -3.87016 1.95962 0
M  V30 795 H 77.6672 -5.36478 1.29982 0
M  V30 796 H 80.1432 -4.15615 -0.200869 0
M  V30 797 H 79.0192 -5.44318 -0.707714 0
M  V30 798 H 79.2802 -4.05759 -1.75533 0
M  V30 799 N 78.3393 -0.321999 -1.54275 0
M  V30 800 C 79.2493 0.553631 -2.27974 0
M  V30 801 C 80.2653 1.13054 -1.32268 0
M  V30 802 O 81.4413 1.15084 -1.6528 0
M  V30 803 C 78.5063 1.69927 -3.02201 0
M  V30 804 C 77.5673 1.15433 -4.1349 0
M  V30 805 C 76.8003 2.24537 -4.84168 0
M  V30 806 O 77.0233 3.44852 -4.5435 0
M  V30 807 O 75.9573 1.90044 -5.7111 0
M  V30 808 H 79.7833 -0.0448345 -3.03667 0
M  V30 809 H 77.3683 -0.0877418 -1.49142 0
M  V30 810 H 79.2503 2.3663 -3.48689 0
M  V30 811 H 77.9253 2.28395 -2.29385 0
M  V30 812 H 76.8323 0.452436 -3.71354 0
M  V30 813 H 78.1653 0.614805 -4.88345 0
M  V30 814 N 79.8174 1.5752 -0.0501392 0
M  V30 815 C 80.7804 2.1037 0.909786 0
M  V30 816 C 81.7804 1.02308 1.24056 0
M  V30 817 O 82.9704 1.28385 1.17741 0
M  V30 818 C 80.1024 2.58708 2.21998 0
M  V30 819 H 81.2954 2.96479 0.451665 0
M  V30 820 H 78.8484 1.55038 0.198248 0
M  V30 821 H 79.5834 1.75989 2.72394 0
M  V30 822 H 79.3684 3.37675 1.99295 0
M  V30 823 H 80.8584 2.99747 2.9076 0
M  V30 824 N 81.2955 -0.223234 1.56011 0
M  V30 825 C 82.2255 -1.27988 1.95298 0
M  V30 826 C 83.2065 -1.48976 0.820979 0
M  V30 827 O 84.3915 -1.61188 1.08315 0
M  V30 828 C 81.5215 -2.63 2.26822 0
M  V30 829 C 80.4755 -2.56671 3.42497 0
M  V30 830 C 79.8015 -3.95697 3.59622 0
M  V30 831 C 81.1015 -2.11601 4.77517 0
M  V30 832 H 82.7955 -0.953525 2.8381 0
M  V30 833 H 80.3415 -0.457244 1.36548 0
M  V30 834 H 82.2945 -3.37077 2.52898 0
M  V30 835 H 81.0185 -2.9732 1.35161 0
M  V30 836 H 79.6775 -1.85051 3.16467 0
M  V30 837 H 79.3255 -4.27322 2.6534 0
M  V30 838 H 79.0255 -3.92345 4.37424 0
M  V30 839 H 80.5495 -4.71438 3.88044 0
M  V30 840 H 81.9635 -2.7542 5.02809 0
M  V30 841 H 80.3605 -2.19311 5.5859 0
M  V30 842 H 81.4305 -1.06824 4.72987 0
M  V30 843 N 82.7736 -1.49793 -0.48987 0
M  V30 844 C 84.0216 -1.59525 -1.24081 0
M  V30 845 C 84.3426 -0.288953 -1.92847 0
M  V30 846 O 83.6126 0.692436 -1.83254 0
M  V30 847 H 82.1926 -0.587796 -0.460983 0
M  V30 848 H 84.8546 -1.86477 -0.566778 0
M  V30 849 H 83.9506 -2.39696 -1.99881 0
M  V30 850 N 84.2517 0.741722 -1.39055 0
M  V30 851 C 85.6677 1.04638 -1.20512 0
M  V30 852 C 85.8677 2.01405 -0.0620218 0
M  V30 853 O 84.9237 2.45547 0.588457 0
M  V30 854 C 86.2367 1.6151 -2.53643 0
M  V30 855 C 87.7847 1.73623 -2.6043 0
M  V30 856 C 88.2597 2.33906 -3.93767 0
M  V30 857 N 89.7507 2.41323 -3.9537 0
M  V30 858 C 90.4857 2.88888 -4.95309 0
M  V30 859 N 89.9817 3.36401 -6.05645 0
M  V30 860 N 91.7747 2.88037 -4.82692 0
M  V30 861 H 83.9257 0.0998155 -2.12165 0
M  V30 862 H 86.1887 0.106907 -0.941953 0
M  V30 863 H 85.8947 0.978739 -3.37807 0
M  V30 864 H 85.7687 2.60411 -2.72885 0
M  V30 865 H 88.1557 2.36384 -1.76655 0
M  V30 866 H 88.2367 0.733945 -2.45045 0
M  V30 867 H 87.8807 1.71776 -4.7797 0
M  V30 868 H 87.8107 3.34799 -4.06469 0
M  V30 869 H 90.3017 2.07734 -3.15682 0
M  V30 870 H 90.6147 3.71186 -6.77821 0
M  V30 871 H 88.9597 3.34427 -6.09248 0
M  V30 872 H 92.1507 2.50237 -3.95599 0
M  V30 873 H 92.3237 3.24792 -5.60726 0
M  V30 874 N 85.7298 1.2412 0.971189 0
M  V30 875 C 86.6928 1.03156 2.04674 0
M  V30 876 C 87.6928 -0.00990322 1.60797 0
M  V30 877 O 88.8828 0.230729 1.72665 0
M  V30 878 C 86.0148 0.562765 3.36223 0
M  V30 879 H 87.2078 1.98614 2.24705 0
M  V30 880 H 84.7608 1.06293 1.14593 0
M  V30 881 H 85.4958 -0.395176 3.21883 0
M  V30 882 H 85.2808 1.31441 3.69413 0
M  V30 883 H 86.7708 0.437015 4.15307 0
M  V30 884 N 87.2079 -1.17134 1.05439 0
M  V30 885 C 88.1379 -2.2342 0.678649 0
M  V30 886 C 89.1189 -1.66971 -0.32476 0
M  V30 887 O 90.3039 -1.93149 -0.201802 0
M  V30 888 C 87.4339 -3.47256 0.0552099 0
M  V30 889 C 86.3879 -4.16543 0.98365 0
M  V30 890 C 85.7139 -5.34231 0.223961 0
M  V30 891 C 87.0139 -4.68495 2.3089 0
M  V30 892 H 88.7079 -2.55105 1.56722 0
M  V30 893 H 86.2539 -1.2262 0.754998 0
M  V30 894 H 88.2069 -4.20828 -0.21946 0
M  V30 895 H 86.9309 -3.14846 -0.868319 0
M  V30 896 H 85.5899 -3.44887 1.24293 0
M  V30 897 H 85.2379 -4.98071 -0.702412 0
M  V30 898 H 84.9379 -5.81527 0.842627 0
M  V30 899 H 86.4619 -6.10585 -0.0433671 0
M  V30 900 H 87.8759 -5.33691 2.09396 0
M  V30 901 H 86.2729 -5.26379 2.88176 0
M  V30 902 H 87.3429 -3.85169 2.94572 0
M  V30 903 N 88.686 -0.835752 -1.33615 0
M  V30 904 C 90.097 -0.487099 -1.80234 0
M  V30 905 C 90.448 0.993627 -1.69179 0
M  V30 906 O 89.573 1.77403 -1.23924 0
M  V30 907 C 90.168 -0.877385 -3.27242 0
M  V30 908 C 88.727 -0.580915 -3.7189 0
M  V30 909 C 87.874 -1.0874 -2.5509 0
M  V30 910 H 90.825 -1.02474 -1.2118 0
M  V30 911 H 90.846 -0.186195 -3.80044 0
M  V30 912 H 90.358 -1.95512 -3.35256 0
M  V30 913 H 88.459 0.486881 -3.69405 0
M  V30 914 H 88.572 -1.13396 -4.65487 0
M  V30 915 H 86.936 -0.508392 -2.49575 0
M  V30 916 H 87.719 -2.17184 -2.65868 0
M  V30 917 N 90.1641 1.46063 -0.591896 0
M  V30 918 C 91.4101 2.02638 -0.0811191 0
M  V30 919 C 91.7431 1.4613 1.27905 0
M  V30 920 O 91.0181 0.629908 1.84017 0
M  V30 921 C 91.3011 3.60091 -0.0252436 0
M  V30 922 C 91.1541 4.26965 -1.41496 0
M  V30 923 C 92.4731 4.3496 0.670685 0
M  V30 924 H 89.5921 0.73635 -0.0309524 0
M  V30 925 H 92.2341 1.741 -0.760859 0
M  V30 926 H 90.3841 3.84535 0.553624 0
M  V30 927 H 92.0561 4.13756 -2.0397 0
M  V30 928 H 90.2991 3.85971 -1.98011 0
M  V30 929 H 90.9701 5.35781 -1.32825 0
M  V30 930 H 93.4461 4.15716 0.178825 0
M  V30 931 H 92.3221 5.44686 0.678837 0
M  V30 932 H 92.5831 4.06685 1.73379 0
M  V30 933 N 91.6422 0.330177 1.54103 0
M  V30 934 C 92.9192 -0.325007 1.92881 0
M  V30 935 C 93.2992 -1.6934 1.26045 0
M  V30 936 O 92.6472 -2.24855 0.406526 0
M  V30 937 C 92.8572 -0.410634 3.46576 0
M  V30 938 C 94.2052 -0.667801 4.19316 0
M  V30 939 O 95.2292 -0.49329 3.52768 0
M  V30 940 O 94.0882 -1.00491 5.37181 0
M  V30 941 H 91.1822 -0.186873 0.80561 0
M  V30 942 H 93.7282 0.380376 1.65382 0
M  V30 943 H 92.5002 0.550164 3.87413 0
M  V30 944 H 92.1232 -1.16333 3.802 0
M  V30 945 N 93.1203 -1.57491 0.0584922 0
M  V30 946 C 94.0503 -2.14988 -0.911178 0
M  V30 947 C 95.0313 -1.07343 -1.31952 0
M  V30 948 O 96.2163 -1.35318 -1.39294 0
M  V30 949 C 93.3463 -2.70078 -2.18347 0
M  V30 950 C 92.3003 -3.82771 -1.91495 0
M  V30 951 C 91.6263 -4.24408 -3.25241 0
M  V30 952 C 92.9263 -5.07592 -1.23075 0
M  V30 953 H 94.6203 -2.96263 -0.432246 0
M  V30 954 H 92.1663 -1.42512 -0.206469 0
M  V30 955 H 94.1193 -3.08943 -2.86587 0
M  V30 956 H 92.8433 -1.86005 -2.68458 0
M  V30 957 H 91.5023 -3.44389 -1.25664 0
M  V30 958 H 91.1503 -3.37275 -3.73168 0
M  V30 959 H 90.8503 -5.00366 -3.08071 0
M  V30 960 H 92.3743 -4.65879 -3.94701 0
M  V30 961 H 93.7883 -5.43857 -1.81362 0
M  V30 962 H 92.1853 -5.88741 -1.16207 0
M  V30 963 H 93.2553 -4.84454 -0.207847 0
M  V30 964 N 94.5984 0.214957 -1.56127 0
M  V30 965 C 96.0144 0.564948 -1.49267 0
M  V30 966 C 96.2144 1.86827 -0.754838 0
M  V30 967 O 95.2704 2.50745 -0.297198 0
M  V30 968 C 96.5834 0.638071 -2.93852 0
M  V30 969 C 98.1314 0.728253 -3.0441 0
M  V30 970 C 98.6064 0.832663 -4.50367 0
M  V30 971 N 100.097 0.896712 -4.54437 0
M  V30 972 C 100.832 0.997324 -5.6466 0
M  V30 973 N 100.328 1.06147 -6.8462 0
M  V30 974 N 102.121 1.03297 -5.52527 0
M  V30 975 H 94.2724 -0.640211 -2.02522 0
M  V30 976 H 96.5354 -0.225507 -0.920788 0
M  V30 977 H 96.2414 -0.250126 -3.50809 0
M  V30 978 H 96.1154 1.49947 -3.46115 0
M  V30 979 H 98.5024 1.60689 -2.47514 0
M  V30 980 H 98.5834 -0.158952 -2.55306 0
M  V30 981 H 98.2274 -0.0415417 -5.07883 0
M  V30 982 H 98.1574 1.73538 -4.97184 0
M  V30 983 H 100.648 0.857188 -3.6805 0
M  V30 984 H 100.961 1.1382 -7.64372 0
M  V30 985 H 99.3064 1.03049 -6.87318 0
M  V30 986 H 102.497 0.979558 -4.57736 0
M  V30 987 H 102.67 1.10793 -6.38458 0
M  V30 988 N 96.0765 1.50051 0.48192 0
M  V30 989 C 97.3235 1.60498 1.23477 0
M  V30 990 C 97.6515 0.300331 1.92167 0
M  V30 991 O 96.9065 -0.713094 1.82246 0
M  V30 992 C 97.2055 2.72717 2.30998 0
M  V30 993 C 96.8715 4.13572 1.79636 0
M  V30 994 C 95.5335 4.519 1.65348 0
M  V30 995 C 97.8855 5.01649 1.41412 0
M  V30 996 C 95.2135 5.76057 1.11244 0
M  V30 997 C 97.5655 6.26343 0.887538 0
M  V30 998 C 96.2295 6.63483 0.731207 0
M  V30 999 H 95.4995 0.587303 0.451836 0
M  V30 1000 H 98.1465 1.83948 0.532468 0
M  V30 1001 H 96.4515 2.43312 3.07094 0
M  V30 1002 H 98.1485 2.78006 2.88988 0
M  V30 1003 H 94.7385 3.83329 1.91721 0
M  V30 1004 H 98.9225 4.72679 1.51289 0
M  V30 1005 H 94.1785 6.03516 0.978686 0
M  V30 1006 H 98.3525 6.93958 0.582654 0
M  V30 1007 H 95.9795 7.59568 0.309806 0
M  V30 1008 N 97.5546 -0.734337 1.39446 0
M  V30 1009 C 98.8006 -1.49613 1.36908 0
M  V30 1010 C 99.1336 -1.94169 -0.0347829 0
M  V30 1011 O 98.4086 -1.66833 -0.999847 0
M  V30 1012 C 98.6916 -2.73534 2.34203 0
M  V30 1013 C 98.5446 -2.34993 3.83534 0
M  V30 1014 C 99.8636 -3.75635 2.29317 0
M  V30 1015 H 96.9826 -0.542714 0.498629 0
M  V30 1016 H 99.6246 -0.839597 1.70443 0
M  V30 1017 H 97.7746 -3.29553 2.05736 0
M  V30 1018 H 99.4466 -1.84601 4.22753 0
M  V30 1019 H 97.6896 -1.67213 4.00278 0
M  V30 1020 H 98.3606 -3.23738 4.47099 0
M  V30 1021 H 100.837 -3.29203 2.54489 0
M  V30 1022 H 99.7126 -4.60008 2.99472 0
M  V30 1023 H 99.9736 -4.22603 1.29842 0
M  V30 1024 N 99.0327 -1.24633 -0.964593 0
M  V30 1025 C 100.258 -1.11596 -1.74818 0
M  V30 1026 C 100.683 0.32723 -1.85232 0
M  V30 1027 O 100.041 1.23695 -1.32549 0
M  V30 1028 C 100.089 -1.76397 -3.1451 0
M  V30 1029 O 99.1927 -1.03685 -3.99153 0
M  V30 1030 H 98.5337 -0.390196 -0.537255 0
M  V30 1031 H 101.064 -1.65002 -1.20977 0
M  V30 1032 H 101.074 -1.8228 -3.65018 0
M  V30 1033 H 99.7487 -2.81401 -3.06246 0
M  V30 1034 H 98.3257 -1.05611 -3.57632 0
M  V30 1035 N 100.511 1.16574 -1.06058 0
M  V30 1036 C 101.736 1.91493 -0.796562 0
M  V30 1037 C 102.161 1.76773 0.642868 0
M  V30 1038 O 101.519 1.09142 1.44768 0
M  V30 1039 C 101.567 3.40293 -1.19303 0
M  V30 1040 O 100.671 4.11074 -0.330394 0
M  V30 1041 H 100.012 0.596678 -0.291326 0
M  V30 1042 H 102.542 1.47708 -1.41575 0
M  V30 1043 H 102.552 3.91057 -1.16356 0
M  V30 1044 H 101.227 3.50326 -2.24153 0
M  V30 1045 H 99.8038 3.70513 -0.421225 0
M  V30 1046 N 101.989 0.842826 1.3317 0
M  V30 1047 C 102.899 0.281444 2.32906 0
M  V30 1048 C 103.915 -0.594587 1.63526 0
M  V30 1049 O 105.091 -0.49777 1.95152 0
M  V30 1050 C 102.156 -0.530929 3.42611 0
M  V30 1051 C 101.217 0.369843 4.27704 0
M  V30 1052 C 100.45 -0.403853 5.3217 0
M  V30 1053 O 100.673 -1.63513 5.46461 0
M  V30 1054 O 99.6069 0.224199 6.01482 0
M  V30 1055 H 103.433 1.10744 2.82789 0
M  V30 1056 H 101.018 0.60545 1.36582 0
M  V30 1057 H 102.9 -0.992437 4.09547 0
M  V30 1058 H 101.575 -1.33392 2.94938 0
M  V30 1059 H 100.482 0.879275 3.6362 0
M  V30 1060 H 101.815 1.13771 4.78871 0
M  V30 1061 N 103.467 -1.45747 0.599634 0
M  V30 1062 C 104.397 -2.33235 -0.111306 0
M  V30 1063 C 105.378 -1.46359 -0.866781 0
M  V30 1064 O 106.563 -1.75146 -0.838904 0
M  V30 1065 C 103.693 -3.28932 -1.11451 0
M  V30 1066 C 102.647 -4.25381 -0.472772 0
M  V30 1067 C 101.973 -5.1071 -1.58365 0
M  V30 1068 C 103.273 -5.18831 0.600948 0
M  V30 1069 H 104.967 -2.92927 0.61919 0
M  V30 1070 H 102.513 -1.40857 0.299215 0
M  V30 1071 H 104.466 -3.89002 -1.62036 0
M  V30 1072 H 103.19 -2.67381 -1.8755 0
M  V30 1073 H 101.849 -3.66598 0.0121472 0
M  V30 1074 H 101.497 -4.45533 -2.33473 0
M  V30 1075 H 101.197 -5.7604 -1.15982 0
M  V30 1076 H 102.721 -5.73647 -2.09194 0
M  V30 1077 H 104.135 -5.73019 0.179491 0
M  V30 1078 H 102.532 -5.92595 0.946076 0
M  V30 1079 H 103.602 -4.6174 1.48068 0
M  V30 1080 N 104.945 -0.338344 -1.53925 0
M  V30 1081 C 105.855 0.529421 -2.28548 0
M  V30 1082 C 106.871 1.11645 -1.3346 0
M  V30 1083 O 108.047 1.13325 -1.66492 0
M  V30 1084 C 105.112 1.66713 -3.03987 0
M  V30 1085 C 104.173 1.11041 -4.14691 0
M  V30 1086 C 103.406 2.19389 -4.86522 0
M  V30 1087 O 103.629 3.40013 -4.57982 0
M  V30 1088 O 102.563 1.83976 -5.73094 0
M  V30 1089 H 106.389 -0.0770399 -3.03602 0
M  V30 1090 H 103.974 -0.103555 -1.49041 0
M  V30 1091 H 105.856 2.32918 -3.5118 0
M  V30 1092 H 104.531 2.25949 -2.31794 0
M  V30 1093 H 103.438 0.413024 -3.71813 0
M  V30 1094 H 104.771 0.562975 -4.8897 0
M  V30 1095 N 106.423 1.57458 -0.0668435 0
M  V30 1096 C 107.671 1.92919 0.602214 0
M  V30 1097 C 107.992 0.947215 1.70449 0
M  V30 1098 O 107.262 -0.00544117 1.95899 0
M  V30 1099 H 105.842 0.71217 0.22544 0
M  V30 1100 H 108.504 1.94508 -0.123535 0
M  V30 1101 H 107.6 2.94589 1.03073 0
M  V30 1102 N 107.901 -0.206675 1.56239 0
M  V30 1103 C 108.864 -1.23976 1.92776 0
M  V30 1104 C 109.864 -1.39041 0.807729 0
M  V30 1105 O 111.054 -1.37051 1.0753 0
M  V30 1106 C 108.186 -2.61112 2.19165 0
M  V30 1107 H 109.379 -0.927764 2.85189 0
M  V30 1108 H 106.932 -0.447718 1.4975 0
M  V30 1109 H 107.667 -2.97386 1.29352 0
M  V30 1110 H 107.452 -2.51552 3.00772 0
M  V30 1111 H 108.942 -3.35633 2.48476 0
M  V30 1112 N 109.379 -1.50304 -0.473955 0
M  V30 1113 C 110.619 -1.62786 -1.23612 0
M  V30 1114 C 110.983 -0.319786 -1.89318 0
M  V30 1115 O 112.184 -0.320012 -2.66888 0
M  V30 1116 C 110.455 -2.77351 -2.25414 0
M  V30 1117 S 112.014 -3.09948 -3.10608 0
M  V30 1118 H 108.832 -0.573895 -0.419721 0
M  V30 1119 H 111.434 -1.88076 -0.533623 0
M  V30 1120 H 110.138 -3.70879 -1.75719 0
M  V30 1121 H 109.669 -2.54137 -3.00296 0
M  V30 1122 H 111.684 -2.53553 -4.26527 0
M  V30 1123 N 110.857 0.726932 -1.39834 0
M  V30 1124 C 112.082 1.52121 -1.40976 0
M  V30 1125 C 112.507 1.88098 -0.00826029 0
M  V30 1126 O 111.865 1.52479 0.980807 0
M  V30 1127 C 111.913 2.78021 -2.29644 0
M  V30 1128 O 111.017 3.74272 -1.73188 0
M  V30 1129 H 110.358 0.45908 -0.479731 0
M  V30 1130 H 112.888 0.896207 -1.83927 0
M  V30 1131 H 112.898 3.26671 -2.44438 0
M  V30 1132 H 111.573 2.51169 -3.31492 0
M  V30 1133 H 110.15 3.33073 -1.6768 0
M  V30 1134 N 112.336 1.25143 0.95797 0
M  V30 1135 C 113.246 1.06968 2.08794 0
M  V30 1136 C 114.262 0.00773911 1.73998 0
M  V30 1137 O 115.438 0.207972 2.00323 0
M  V30 1138 C 112.503 0.68691 3.39827 0
M  V30 1139 C 111.564 1.82641 3.88511 0
M  V30 1140 C 110.797 1.46181 5.1329 0
M  V30 1141 O 111.02 0.355971 5.69288 0
M  V30 1142 O 109.954 2.29085 5.566 0
M  V30 1143 H 113.78 2.01723 2.27027 0
M  V30 1144 H 111.365 1.04051 1.07209 0
M  V30 1145 H 113.247 0.485417 4.18595 0
M  V30 1146 H 111.922 -0.231417 3.22872 0
M  V30 1147 H 110.829 2.08274 3.10762 0
M  V30 1148 H 112.162 2.72386 4.09959 0
M  V30 1149 N 113.814 -1.1601 1.06675 0
M  V30 1150 C 115.044 -1.90251 0.805497 0
M  V30 1151 C 115.452 -1.77891 -0.64431 0
M  V30 1152 O 114.795 -1.12383 -1.45313 0
M  V30 1153 C 114.857 -3.41419 1.12576 0
M  V30 1154 C 114.521 -3.77564 2.57477 0
M  V30 1155 C 115.518 -3.79161 3.55715 0
M  V30 1156 C 113.203 -4.08079 2.92877 0
M  V30 1157 C 115.197 -4.10767 4.8739 0
M  V30 1158 C 112.884 -4.39351 4.24751 0
M  V30 1159 C 113.882 -4.40675 5.21818 0
M  V30 1160 O 113.57 -4.71202 6.51325 0
M  V30 1161 H 113.302 -0.610018 0.291297 0
M  V30 1162 H 115.856 -1.47958 1.4247 0
M  V30 1163 H 114.086 -3.84079 0.449503 0
M  V30 1164 H 115.775 -3.9694 0.84814 0
M  V30 1165 H 116.541 -3.55693 3.29708 0
M  V30 1166 H 112.42 -4.06211 2.17976 0
M  V30 1167 H 115.964 -4.11715 5.63148 0
M  V30 1168 H 111.861 -4.62285 4.50514 0
M  V30 1169 H 112.629 -4.88996 6.56373 0
M  V30 1170 N 115.292 -0.849877 -1.32721 0
M  V30 1171 C 116.222 -0.306308 -2.31482 0
M  V30 1172 C 117.203 0.591952 -1.59468 0
M  V30 1173 O 118.388 0.513199 -1.87296 0
M  V30 1174 C 115.518 0.510204 -3.43532 0
M  V30 1175 C 114.472 -0.293209 -4.26994 0
M  V30 1176 C 113.798 0.647743 -5.30762 0
M  V30 1177 C 115.098 -1.51634 -4.99804 0
M  V30 1178 H 116.792 -1.13153 -2.77195 0
M  V30 1179 H 114.338 -0.545553 -1.33266 0
M  V30 1180 H 116.291 0.900856 -4.11658 0
M  V30 1181 H 115.015 1.36874 -2.96535 0
M  V30 1182 H 113.674 -0.665555 -3.60508 0
M  V30 1183 H 113.322 1.50299 -4.8002 0
M  V30 1184 H 113.022 0.11422 -5.87489 0
M  V30 1185 H 114.546 1.03567 -6.01753 0
M  V30 1186 H 115.96 -1.19824 -5.60638 0
M  V30 1187 H 114.357 -1.98745 -5.66234 0
M  V30 1188 H 115.427 -2.28018 -4.27943 0
M  V30 1189 N 116.77 1.45427 -0.607355 0
M  V30 1190 C 117.733 2.28974 0.101693 0
M  V30 1191 C 118.733 1.39754 0.795329 0
M  V30 1192 O 119.923 1.61878 0.643527 0
M  V30 1193 C 117.055 3.20768 1.15414 0
M  V30 1194 H 118.248 2.93147 -0.632844 0
M  V30 1195 H 115.801 1.51945 -0.366391 0
M  V30 1196 H 116.536 2.61395 1.91945 0
M  V30 1197 H 116.321 3.86489 0.66098 0
M  V30 1198 H 117.811 3.83589 1.65073 0
M  V30 1199 N 118.248 0.346503 1.53744 0
M  V30 1200 C 119.659 -0.136779 1.86198 0
M  V30 1201 C 120.01 -1.49749 1.26766 0
M  V30 1202 O 119.135 -2.08417 0.582355 0
M  V30 1203 C 119.73 -0.254966 3.37839 0
M  V30 1204 C 118.289 -0.682482 3.70161 0
M  V30 1205 C 117.436 0.181981 2.76702 0
M  V30 1206 H 120.387 0.565994 1.48264 0
M  V30 1207 H 120.408 -1.08195 3.64793 0
M  V30 1208 H 119.92 0.735526 3.81066 0
M  V30 1209 H 118.021 -1.68189 3.3248 0
M  V30 1210 H 118.134 -0.470326 4.76786 0
M  V30 1211 H 116.498 -0.34615 2.52337 0
M  V30 1212 H 117.281 1.16966 3.2276 0
M  V30 1213 N 119.726 -1.57421 0.075193 0
M  V30 1214 C 120.656 -2.15942 -0.888324 0
M  V30 1215 C 121.637 -1.08737 -1.30806 0
M  V30 1216 O 122.822 -1.36787 -1.37851 0
M  V30 1217 C 119.952 -2.72379 -2.1547 0
M  V30 1218 C 118.906 -3.8478 -1.87425 0
M  V30 1219 C 118.232 -4.27834 -3.20721 0
M  V30 1220 C 119.532 -5.08869 -1.17684 0
M  V30 1221 H 121.226 -2.96705 -0.400799 0
M  V30 1222 H 118.772 -1.42723 -0.191342 0
M  V30 1223 H 120.725 -3.11965 -2.83295 0
M  V30 1224 H 119.449 -1.88841 -2.6647 0
M  V30 1225 H 118.108 -3.45703 -1.22004 0
M  V30 1226 H 117.756 -3.41214 -3.6957 0
M  V30 1227 H 117.456 -5.03605 -3.02746 0
M  V30 1228 H 118.98 -4.70039 -3.89738 0
M  V30 1229 H 120.394 -5.4575 -1.75584 0
M  V30 1230 H 118.791 -5.8994 -1.09956 0
M  V30 1231 H 119.861 -4.84648 -0.156453 0
M  V30 1232 N 121.204 0.198386 -1.56346 0
M  V30 1233 C 122.429 0.939682 -1.84891 0
M  V30 1234 C 122.854 1.76202 -0.658369 0
M  V30 1235 O 122.212 1.76993 0.392851 0
M  V30 1236 C 122.26 1.81428 -3.11635 0
M  V30 1237 O 121.364 2.91265 -2.91956 0
M  V30 1238 H 120.705 0.264807 -0.608912 0
M  V30 1239 H 123.235 0.204695 -2.03573 0
M  V30 1240 H 123.245 2.21958 -3.42343 0
M  V30 1241 H 121.92 1.21004 -3.97908 0
M  V30 1242 H 120.497 2.54514 -2.72538 0
M  V30 1243 N 122.682 1.50554 0.465978 0
M  V30 1244 C 123.645 1.69233 1.54574 0
M  V30 1245 C 124.645 0.562901 1.50626 0
M  V30 1246 O 125.835 0.830016 1.53155 0
M  V30 1247 C 122.967 1.7223 2.94193 0
M  V30 1248 H 124.16 2.65571 1.39327 0
M  V30 1249 H 121.713 1.40111 0.692711 0
M  V30 1250 H 122.448 0.77603 3.14878 0
M  V30 1251 H 122.233 2.54285 2.98466 0
M  V30 1252 H 123.723 1.88618 3.72576 0
M  V30 1253 N 124.16 -0.719506 1.40217 0
M  V30 1254 C 125.406 -1.48152 1.38488 0
M  V30 1255 C 125.739 -1.94195 -0.0141867 0
M  V30 1256 O 125.014 -1.67884 -0.982096 0
M  V30 1257 C 125.297 -2.71035 2.37091 0
M  V30 1258 C 125.15 -2.30912 3.86005 0
M  V30 1259 C 126.469 -3.73182 2.33288 0
M  V30 1260 H 123.588 -0.537395 0.504357 0
M  V30 1261 H 126.23 -0.821472 1.71324 0
M  V30 1262 H 124.38 -3.27352 2.0922 0
M  V30 1263 H 126.052 -1.80107 4.24687 0
M  V30 1264 H 124.295 -1.62958 4.02029 0
M  V30 1265 H 124.966 -3.18978 4.50508 0
M  V30 1266 H 127.442 -3.26485 2.57966 0
M  V30 1267 H 126.318 -4.56806 3.04334 0
M  V30 1268 H 126.579 -4.21202 1.34317 0
M  V30 1269 N 125.638 -1.25649 -0.95132 0
M  V30 1270 C 126.915 -1.01361 -1.67288 0
M  V30 1271 C 127.295 0.459135 -2.06046 0
M  V30 1272 O 126.643 1.43723 -1.7764 0
M  V30 1273 C 126.853 -1.95256 -2.89268 0
M  V30 1274 C 128.201 -2.23289 -3.61147 0
M  V30 1275 O 129.225 -1.93041 -2.99355 0
M  V30 1276 O 128.084 -2.74741 -4.72419 0
M  V30 1277 H 125.178 -0.38464 -0.732107 0
M  V30 1278 H 127.724 -1.36817 -1.00395 0
M  V30 1279 H 126.496 -2.94685 -2.57442 0
M  V30 1280 H 126.119 -1.60218 -3.6389 0
M  V30 1281 N 127.117 1.15442 -1.07289 0
M  V30 1282 C 128.047 2.22312 -0.714107 0
M  V30 1283 C 129.028 1.67467 0.298155 0
M  V30 1284 O 130.213 1.93445 0.171048 0
M  V30 1285 C 127.343 3.47124 -0.110448 0
M  V30 1286 C 126.297 4.14926 -1.04979 0
M  V30 1287 C 125.623 5.33807 -0.308924 0
M  V30 1288 C 126.923 4.64762 -2.38314 0
M  V30 1289 H 128.617 2.5258 -1.6076 0
M  V30 1290 H 126.163 1.21404 -0.77441 0
M  V30 1291 H 128.116 4.21124 0.152482 0
M  V30 1292 H 126.84 3.16187 0.81812 0
M  V30 1293 H 125.499 3.42866 -1.29764 0
M  V30 1294 H 125.147 4.99126 0.623084 0
M  V30 1295 H 124.847 5.80113 -0.935036 0
M  V30 1296 H 126.371 6.10576 -0.0537771 0
M  V30 1297 H 127.785 5.30292 -2.1786 0
M  V30 1298 H 126.182 5.21728 -2.96514 0
M  V30 1299 H 127.252 3.80434 -3.00663 0
M  V30 1300 N 128.595 0.856903 1.32268 0
M  V30 1301 C 129.542 0.301172 2.28827 0
M  V30 1302 C 130.512 -0.593104 1.5515 0
M  V30 1303 O 131.697 -0.527537 1.83362 0
M  V30 1304 C 128.837 -0.502523 3.41422 0
M  V30 1305 C 127.95 0.417797 4.29975 0
M  V30 1306 C 127.085 -0.398749 5.29701 0
M  V30 1307 C 126.124 0.518827 6.09897 0
M  V30 1308 N 125.261 -0.260674 7.01616 0
M  V30 1309 H 130.101 1.12983 2.75751 0
M  V30 1310 H 127.638 0.568582 1.35667 0
M  V30 1311 H 129.596 -0.984141 4.05426 0
M  V30 1312 H 128.226 -1.29599 2.95642 0
M  V30 1313 H 127.278 1.01781 3.66531 0
M  V30 1314 H 128.59 1.12191 4.86019 0
M  V30 1315 H 127.744 -0.943435 5.9932 0
M  V30 1316 H 126.483 -1.13622 4.7428 0
M  V30 1317 H 125.488 1.07538 5.39181 0
M  V30 1318 H 126.713 1.25495 6.67404 0
M  V30 1319 H 124.659 -0.981198 6.4862 0
M  V30 1320 H 124.576 0.384364 7.55022 0
M  V30 1321 H 125.844 -0.787014 7.75517 0
M  V30 1322 N 130.073 -1.45103 0.615059 0
M  V30 1323 C 131.003 -2.33339 -0.0865619 0
M  V30 1324 C 131.984 -1.4727 -0.851209 0
M  V30 1325 O 133.169 -1.76026 -0.820281 0
M  V30 1326 C 130.299 -3.30095 -1.07956 0
M  V30 1327 C 129.253 -4.25858 -0.427628 0
M  V30 1328 C 128.579 -5.12361 -1.5294 0
M  V30 1329 C 129.879 -5.18165 0.655944 0
M  V30 1330 H 131.573 -2.92254 0.650224 0
M  V30 1331 H 129.119 -1.40532 0.314138 0
M  V30 1332 H 131.072 -3.90698 -1.57901 0
M  V30 1333 H 129.796 -2.69355 -1.84703 0
M  V30 1334 H 128.455 -3.66564 0.0510292 0
M  V30 1335 H 128.103 -4.47984 -2.28734 0
M  V30 1336 H 127.803 -5.77238 -1.09865 0
M  V30 1337 H 129.327 -5.75833 -2.03098 0
M  V30 1338 H 130.741 -5.72796 0.240257 0
M  V30 1339 H 129.138 -5.91559 1.00888 0
M  V30 1340 H 130.208 -4.60144 1.52957 0
M  V30 1341 N 131.551 -0.354651 -1.53558 0
M  V30 1342 C 132.781 0.239167 -2.05211 0
M  V30 1343 C 133.189 1.43879 -1.22863 0
M  V30 1344 O 132.532 1.81857 -0.259565 0
M  V30 1345 C 132.594 0.707251 -3.52474 0
M  V30 1346 C 132.258 -0.374212 -4.55465 0
M  V30 1347 C 133.255 -1.22054 -5.0537 0
M  V30 1348 C 130.94 -0.531323 -4.99482 0
M  V30 1349 C 132.934 -2.20942 -5.97882 0
M  V30 1350 C 130.621 -1.52358 -5.91802 0
M  V30 1351 C 131.619 -2.36108 -6.40892 0
M  V30 1352 O 131.307 -3.33643 -7.31394 0
M  V30 1353 H 131.039 0.0479716 -0.674296 0
M  V30 1354 H 133.593 -0.508121 -1.99016 0
M  V30 1355 H 131.823 1.50596 -3.56171 0
M  V30 1356 H 133.512 1.22285 -3.87042 0
M  V30 1357 H 134.278 -1.1103 -4.7212 0
M  V30 1358 H 130.157 0.110738 -4.60867 0
M  V30 1359 H 133.701 -2.86348 -6.36121 0
M  V30 1360 H 129.598 -1.63434 -6.24467 0
M  V30 1361 H 130.366 -3.29244 -7.4936 0
M  V30 1362 N 133.029 1.57378 -0.0835403 0
M  V30 1363 C 133.979 2.09916 0.889905 0
M  V30 1364 C 134.963 1.01151 1.25129 0
M  V30 1365 O 136.155 1.27443 1.2283 0
M  V30 1366 C 133.284 2.67379 2.15322 0
M  V30 1367 C 132.37 3.83167 1.81779 0
M  V30 1368 N 132.761 4.91665 1.18739 0
M  V30 1369 C 131.059 3.92685 2.11459 0
M  V30 1370 C 131.76 5.72409 1.0355 0
M  V30 1371 N 130.736 5.21062 1.54906 0
M  V30 1372 H 134.538 2.91188 0.398378 0
M  V30 1373 H 132.052 1.61956 0.120013 0
M  V30 1374 H 134.049 3.0334 2.8599 0
M  V30 1375 H 132.709 1.87558 2.65051 0
M  V30 1376 H 133.72 5.10784 0.855604 0
M  V30 1377 H 130.397 3.23856 2.63483 0
M  V30 1378 H 131.787 6.69699 0.543425 0
M  V30 1379 N 134.507 -0.190092 1.56449 0
M  V30 1380 C 135.784 -0.935886 1.71757 0
M  V30 1381 C 136.164 -2.01173 0.639726 0
M  V30 1382 O 135.512 -2.25827 -0.348502 0
M  V30 1383 C 135.722 -1.51775 3.1427 0
M  V30 1384 C 137.07 -1.99794 3.74656 0
M  V30 1385 O 138.094 -1.61607 3.1743 0
M  V30 1386 O 136.953 -2.70079 4.751 0
M  V30 1387 H 134.047 -0.439229 0.700719 0
M  V30 1388 H 136.593 -0.179395 1.68749 0
M  V30 1389 H 135.365 -0.742505 3.84191 0
M  V30 1390 H 134.988 -2.33894 3.21527 0
M  V30 1391 N 135.985 -1.50799 -0.457987 0
M  V30 1392 C 137.396 -1.55152 -1.0385 0
M  V30 1393 C 137.747 -0.362719 -1.92818 0
M  V30 1394 O 136.872 0.522915 -2.09987 0
M  V30 1395 C 137.467 -2.81173 -1.89017 0
M  V30 1396 C 136.026 -2.88164 -2.42154 0
M  V30 1397 C 135.173 -2.49591 -1.20829 0
M  V30 1398 H 138.124 -1.56874 -0.240068 0
M  V30 1399 H 138.145 -2.63769 -2.74238 0
M  V30 1400 H 137.657 -3.67677 -1.24238 0
M  V30 1401 H 135.758 -2.06042 -3.10447 0
M  V30 1402 H 135.871 -3.91356 -2.76364 0
M  V30 1403 H 134.235 -2.02322 -1.54719 0
M  V30 1404 H 135.018 -3.38418 -0.576927 0
M  V30 1405 N 137.463 0.71206 -1.40597 0
M  V30 1406 C 138.74 1.46536 -1.29563 0
M  V30 1407 C 139.12 2.10931 0.0844217 0
M  V30 1408 O 138.468 2.00418 1.0975 0
M  V30 1409 C 138.678 2.49821 -2.43701 0
M  V30 1410 C 140.026 3.15551 -2.841 0
M  V30 1411 O 141.05 2.60142 -2.4332 0
M  V30 1412 O 139.909 4.15867 -3.54566 0
M  V30 1413 H 137.003 0.651801 -0.509004 0
M  V30 1414 H 139.549 0.743935 -1.52524 0
M  V30 1415 H 138.321 2.00778 -3.35863 0
M  V30 1416 H 137.944 3.29495 -2.22528 0
M  V30 1417 N 138.941 1.26152 0.944643 0
M  V30 1418 C 139.871 1.09902 2.06019 0
M  V30 1419 C 140.852 0.00519538 1.70099 0
M  V30 1420 O 142.037 0.176583 1.93396 0
M  V30 1421 C 139.167 0.727562 3.39594 0
M  V30 1422 C 138.121 1.77274 3.89561 0
M  V30 1423 C 137.447 1.25569 5.19747 0
M  V30 1424 C 138.747 3.17357 4.14827 0
M  V30 1425 H 140.441 2.03217 2.19871 0
M  V30 1426 H 137.987 0.978452 1.05652 0
M  V30 1427 H 139.94 0.600777 4.17095 0
M  V30 1428 H 138.664 -0.241287 3.25707 0
M  V30 1429 H 137.323 1.88814 3.14237 0
M  V30 1430 H 136.971 0.276783 5.02238 0
M  V30 1431 H 136.671 1.95433 5.54148 0
M  V30 1432 H 138.195 1.1415 5.99835 0
M  V30 1433 H 139.609 3.08914 4.82954 0
M  V30 1434 H 138.006 3.84781 4.60504 0
M  V30 1435 H 139.076 3.63673 3.20734 0
M  V30 1436 N 140.419 -1.14872 1.07899 0
M  V30 1437 C 141.349 -2.2193 0.725887 0
M  V30 1438 C 142.33 -1.67622 -0.28927 0
M  V30 1439 O 143.515 -1.93533 -0.160787 0
M  V30 1440 C 140.645 -3.47061 0.128856 0
M  V30 1441 C 139.599 -4.14363 1.07178 0
M  V30 1442 C 138.925 -5.33636 0.337229 0
M  V30 1443 C 140.225 -4.63492 2.40775 0
M  V30 1444 H 141.919 -2.51724 1.62097 0
M  V30 1445 H 139.465 -1.20991 0.780838 0
M  V30 1446 H 141.418 -4.21199 -0.130147 0
M  V30 1447 H 140.142 -3.16617 -0.80134 0
M  V30 1448 H 138.801 -3.42173 1.3158 0
M  V30 1449 H 138.449 -4.99449 -0.596606 0
M  V30 1450 H 138.149 -5.79609 0.965788 0
M  V30 1451 H 139.673 -6.10539 0.0861567 0
M  V30 1452 H 141.087 -5.2913 2.20669 0
M  V30 1453 H 139.484 -5.20148 2.99276 0
M  V30 1454 H 140.554 -3.78834 3.02676 0
M  V30 1455 N 141.898 -0.863906 -1.31812 0
M  V30 1456 C 142.828 -0.330843 -2.31144 0
M  V30 1457 C 143.809 0.575005 -1.60087 0
M  V30 1458 O 144.994 0.493304 -1.8783 0
M  V30 1459 C 142.124 0.47374 -3.44054 0
M  V30 1460 C 141.078 -0.338481 -4.26659 0
M  V30 1461 C 140.404 0.591412 -5.31419 0
M  V30 1462 C 141.704 -1.56926 -4.98168 0
M  V30 1463 H 143.398 -1.16086 -2.75979 0
M  V30 1464 H 140.944 -0.559657 -1.32679 0
M  V30 1465 H 142.897 0.857143 -4.12591 0
M  V30 1466 H 141.621 1.33721 -2.9797 0
M  V30 1467 H 140.28 -0.703754 -3.59782 0
M  V30 1468 H 139.928 1.45199 -4.81587 0
M  V30 1469 H 139.628 0.0519022 -5.87577 0
M  V30 1470 H 141.152 0.97179 -6.02817 0
M  V30 1471 H 142.566 -1.25764 -5.59336 0
M  V30 1472 H 140.963 -2.04739 -5.64094 0
M  V30 1473 H 142.033 -2.32544 -4.25501 0
M  V30 1474 N 143.376 1.44774 -0.622745 0
M  V30 1475 C 144.624 2.01721 -0.123655 0
M  V30 1476 C 144.945 1.49172 1.25589 0
M  V30 1477 O 144.215 0.691974 1.83272 0
M  V30 1478 H 142.795 0.745777 -0.0427225 0
M  V30 1479 H 145.457 1.77382 -0.807559 0
M  V30 1480 H 144.553 3.11984 -0.0849534 0
M  V30 1481 N 144.854 0.36279 1.53368 0
M  V30 1482 C 146.265 -0.117022 1.86333 0
M  V30 1483 C 146.616 -1.48397 1.28347 0
M  V30 1484 O 145.741 -2.07787 0.604428 0
M  V30 1485 C 146.336 -0.21912 3.38091 0
M  V30 1486 C 144.895 -0.643184 3.70864 0
M  V30 1487 C 144.042 0.211318 2.76494 0
M  V30 1488 H 146.993 0.581687 1.47655 0
M  V30 1489 H 147.014 -1.04319 3.6592 0
M  V30 1490 H 146.526 0.775902 3.80265 0
M  V30 1491 H 144.627 -1.64654 3.34245 0
M  V30 1492 H 144.74 -0.41973 4.77258 0
M  V30 1493 H 143.104 -0.319367 2.5269 0
M  V30 1494 H 143.887 1.20383 3.21501 0
M  V30 1495 N 146.332 -1.57332 0.0918853 0
M  V30 1496 C 147.58 -1.93853 -0.571446 0
M  V30 1497 C 147.901 -0.974212 -1.6892 0
M  V30 1498 O 147.171 -0.0257254 -1.95883 0
M  V30 1499 H 145.751 -0.715666 -0.214082 0
M  V30 1500 H 148.413 -1.94287 0.154464 0
M  V30 1501 H 147.509 -2.96191 -0.983729 0
M  V30 1502 N 147.81 0.181792 -1.56548 0
M  V30 1503 C 149.05 0.906711 -1.83189 0
M  V30 1504 C 149.414 1.79882 -0.671312 0
M  V30 1505 O 150.615 2.56054 -0.81792 0
M  V30 1506 C 148.886 1.69023 -3.14906 0
M  V30 1507 S 150.445 2.46535 -3.62996 0
M  V30 1508 H 147.263 0.303877 -0.642791 0
M  V30 1509 H 149.865 0.169107 -1.94767 0
M  V30 1510 H 148.569 1.02571 -3.97376 0
M  V30 1511 H 148.1 2.46941 -3.06241 0
M  V30 1512 H 150.115 3.71014 -3.29489 0
M  V30 1513 N 149.288 1.51039 0.449983 0
M  V30 1514 C 150.534 1.63322 1.20223 0
M  V30 1515 C 150.867 0.34241 1.91158 0
M  V30 1516 O 150.142 -0.657344 1.83055 0
M  V30 1517 C 150.425 2.82801 2.22925 0
M  V30 1518 C 150.278 4.21823 1.56157 0
M  V30 1519 C 151.597 2.97807 3.24035 0
M  V30 1520 H 148.716 0.594407 0.435718 0
M  V30 1521 H 151.358 1.83489 0.493136 0
M  V30 1522 H 149.508 2.65738 2.834 0
M  V30 1523 H 151.18 4.50526 0.991162 0
M  V30 1524 H 149.423 4.25105 0.864172 0
M  V30 1525 H 150.094 5.01391 2.30891 0
M  V30 1526 H 152.57 3.13497 2.73603 0
M  V30 1527 H 151.446 3.82992 3.93202 0
M  V30 1528 H 151.707 2.09328 3.89402 0
M  V30 1529 N 150.766 -0.704594 1.40972 0
M  V30 1530 C 151.996 -1.49138 1.42974 0
M  V30 1531 C 152.404 -1.89175 0.0308406 0
M  V30 1532 O 151.747 -1.56734 -0.958138 0
M  V30 1533 C 151.809 -2.79016 2.26694 0
M  V30 1534 C 151.473 -2.61236 3.74973 0
M  V30 1535 C 152.47 -2.27773 4.67349 0
M  V30 1536 C 150.155 -2.77158 4.18914 0
M  V30 1537 C 152.149 -2.10457 6.01653 0
M  V30 1538 C 149.836 -2.59459 5.53285 0
M  V30 1539 C 150.834 -2.26158 6.4447 0
M  V30 1540 O 150.522 -2.08605 7.76363 0
M  V30 1541 H 150.254 -0.466443 0.489292 0
M  V30 1542 H 152.808 -0.8758 1.85793 0
M  V30 1543 H 151.038 -3.42947 1.78673 0
M  V30 1544 H 152.727 -3.40782 2.20504 0
M  V30 1545 H 153.493 -2.15095 4.34694 0
M  V30 1546 H 149.372 -3.02064 3.48251 0
M  V30 1547 H 152.916 -1.84387 6.72791 0
M  V30 1548 H 148.813 -2.71725 5.85522 0
M  V30 1549 H 149.581 -2.23439 7.87412 0
M  V30 1550 N 152.244 -1.26651 -0.937939 0
M  V30 1551 C 153.655 -1.1125 -1.49934 0
M  V30 1552 C 154.006 0.306077 -1.93798 0
M  V30 1553 O 153.131 1.19792 -1.80219 0
M  V30 1554 C 153.726 -2.01339 -2.72485 0
M  V30 1555 C 152.285 -1.90074 -3.24883 0
M  V30 1556 C 151.432 -1.94498 -1.97651 0
M  V30 1557 H 154.383 -1.39693 -0.753091 0
M  V30 1558 H 154.404 -1.56319 -3.46907 0
M  V30 1559 H 153.916 -3.04577 -2.40529 0
M  V30 1560 H 152.017 -0.897827 -3.61621 0
M  V30 1561 H 152.13 -2.75778 -3.9177 0
M  V30 1562 H 150.494 -1.38591 -2.13693 0
M  V30 1563 H 151.277 -2.99372 -1.68022 0
M  V30 1564 N 153.722 1.14298 -1.08507 0
M  V30 1565 C 154.685 2.17607 -0.719711 0
M  V30 1566 C 155.685 1.58907 0.245997 0
M  V30 1567 O 156.875 1.74181 0.0254081 0
M  V30 1568 C 154.007 3.40842 -0.0627695 0
M  V30 1569 H 155.2 2.51443 -1.63452 0
M  V30 1570 H 152.753 1.28963 -0.88307 0
M  V30 1571 H 153.488 3.12587 0.863716 0
M  V30 1572 H 153.273 3.84713 -0.757504 0
M  V30 1573 H 154.763 4.17221 0.177786 0
M  V30 1574 N 155.201 0.870884 1.31352 0
M  V30 1575 C 156.164 0.332243 2.26779 0
M  V30 1576 C 157.164 -0.517302 1.52252 0
M  V30 1577 O 158.354 -0.326477 1.71113 0
M  V30 1578 C 155.486 -0.528066 3.36785 0
M  V30 1579 H 156.679 1.17469 2.75937 0
M  V30 1580 H 154.232 0.64655 1.423 0
M  V30 1581 H 154.967 -1.39167 2.92922 0
M  V30 1582 H 154.752 0.0802582 3.92018 0
M  V30 1583 H 156.242 -0.897179 4.07849 0
M  V30 1584 N 156.679 -1.44442 0.630414 0
M  V30 1585 C 157.904 -2.06927 0.139944 0
M  V30 1586 C 158.329 -1.46795 -1.17613 0
M  V30 1587 O 157.687 -0.569144 -1.72135 0
M  V30 1588 C 157.735 -3.6058 0.0379581 0
M  V30 1589 O 156.839 -3.99937 -1.0062 0
M  V30 1590 H 156.18 -0.658608 0.0844483 0
M  V30 1591 H 158.71 -1.85327 0.866891 0
M  V30 1592 H 158.72 -4.07714 -0.152856 0
M  V30 1593 H 157.395 -4.03728 0.998809 0
M  V30 1594 H 155.972 -3.64436 -0.79001 0
M  V30 1595 N 158.157 -0.370918 -1.53173 0
M  V30 1596 C 159.403 0.217423 -2.01631 0
M  V30 1597 C 159.736 1.47983 -1.25756 0
M  V30 1598 O 159.011 1.91274 -0.352764 0
M  V30 1599 C 159.294 0.503982 -3.56556 0
M  V30 1600 C 159.147 -0.77243 -4.43118 0
M  V30 1601 C 160.466 1.30234 -4.20389 0
M  V30 1602 H 157.585 0.0775486 -0.732909 0
M  V30 1603 H 160.227 -0.496863 -1.83388 0
M  V30 1604 H 158.377 1.11248 -3.72231 0
M  V30 1605 H 160.049 -1.4098 -4.39229 0
M  V30 1606 H 158.292 -1.39167 -4.10871 0
M  V30 1607 H 158.963 -0.526815 -5.4948 0
M  V30 1608 H 161.439 0.787546 -4.08579 0
M  V30 1609 H 160.315 1.47158 -5.28806 0
M  V30 1610 H 160.576 2.31237 -3.76805 0
M  V30 1611 N 159.635 1.57281 -0.100228 0
M  V30 1612 C 160.598 2.13158 0.842398 0
M  V30 1613 C 161.598 1.06202 1.20738 0
M  V30 1614 O 162.788 1.32066 1.13597 0
M  V30 1615 C 159.92 2.65639 2.13655 0
M  V30 1616 H 161.113 2.97766 0.357114 0
M  V30 1617 H 158.666 1.5559 0.148823 0
M  V30 1618 H 159.401 1.84566 2.66657 0
M  V30 1619 H 159.186 3.43844 1.88451 0
M  V30 1620 H 160.676 3.08846 2.81077 0
M  V30 1621 N 161.113 -0.173488 1.56642 0
M  V30 1622 C 162.529 -0.525174 1.50712 0
M  V30 1623 C 162.729 -1.8476 0.804107 0
M  V30 1624 O 161.785 -2.49869 0.363574 0
M  V30 1625 C 163.098 -0.559937 2.95441 0
M  V30 1626 C 164.646 -0.647288 3.06234 0
M  V30 1627 C 165.121 -0.712963 4.52417 0
M  V30 1628 N 166.612 -0.775911 4.56655 0
M  V30 1629 C 167.347 -0.847264 5.67106 0
M  V30 1630 N 166.843 -0.879585 6.87194 0
M  V30 1631 N 168.636 -0.886117 5.55071 0
M  V30 1632 H 160.787 0.693681 2.00753 0
M  V30 1633 H 163.05 0.249841 0.914485 0
M  V30 1634 H 162.756 0.343049 3.50023 0
M  V30 1635 H 162.63 -1.40718 3.49969 0
M  V30 1636 H 165.017 -1.5407 2.51687 0
M  V30 1637 H 165.098 0.226586 2.54794 0
M  V30 1638 H 164.742 0.176183 5.07594 0
M  V30 1639 H 164.672 -1.60295 5.0161 0
M  V30 1640 H 167.163 -0.759304 3.70193 0
M  V30 1641 H 167.476 -0.935144 7.67121 0
M  V30 1642 H 165.821 -0.847898 6.89808 0
M  V30 1643 H 169.012 -0.857853 4.60172 0
M  V30 1644 H 169.185 -0.938263 6.41171 0
M  V30 1645 N 162.591 -1.51276 -0.441967 0
M  V30 1646 C 163.838 -1.63715 -1.19179 0
M  V30 1647 C 164.166 -0.351175 -1.91303 0
M  V30 1648 O 163.421 0.664524 -1.84072 0
M  V30 1649 C 163.72 -2.78746 -2.23686 0
M  V30 1650 C 163.386 -4.18189 -1.68607 0
M  V30 1651 C 162.048 -4.56125 -1.53308 0
M  V30 1652 C 164.4 -5.05222 -1.28062 0
M  V30 1653 C 161.728 -5.78804 -0.959317 0
M  V30 1654 C 164.08 -6.28476 -0.721162 0
M  V30 1655 C 162.744 -6.65188 -0.55504 0
M  V30 1656 H 162.014 -0.599076 -0.436106 0
M  V30 1657 H 164.661 -1.85296 -0.48351 0
M  V30 1658 H 162.966 -2.51369 -3.00535 0
M  V30 1659 H 164.663 -2.8557 -2.81515 0
M  V30 1660 H 161.253 -3.88277 -1.8149 0
M  V30 1661 H 165.437 -4.76524 -1.38704 0
M  V30 1662 H 160.693 -6.05899 -0.81833 0
M  V30 1663 H 164.867 -6.95259 -0.398458 0
M  V30 1664 H 162.494 -7.60123 -0.108311 0
M  V30 1665 N 164.069 0.697108 -1.41344 0
M  V30 1666 C 165.032 1.79281 -1.42797 0
M  V30 1667 C 166.032 1.57607 -0.318837 0
M  V30 1668 O 167.222 1.64309 -0.578642 0
M  V30 1669 C 164.354 3.17632 -1.23785 0
M  V30 1670 H 165.547 1.79385 -2.40335 0
M  V30 1671 H 163.1 0.904582 -1.27464 0
M  V30 1672 H 163.835 3.23167 -0.270814 0
M  V30 1673 H 163.62 3.34765 -2.04144 0
M  V30 1674 H 165.11 3.97617 -1.27633 0
M  V30 1675 N 165.547 1.27147 0.931209 0
M  V30 1676 C 166.772 1.16191 1.71797 0
M  V30 1677 C 167.197 -0.278004 1.86034 0
M  V30 1678 O 166.555 -1.20137 1.35782 0
M  V30 1679 C 166.603 1.84673 3.09723 0
M  V30 1680 O 165.707 1.14231 3.96264 0
M  V30 1681 H 165.048 0.404303 0.526721 0
M  V30 1682 H 167.578 1.68152 1.1656 0
M  V30 1683 H 167.588 1.91893 3.60057 0
M  V30 1684 H 166.263 2.89421 2.98677 0
M  V30 1685 H 164.84 1.15056 3.54706 0
M  V30 1686 N 167.025 -1.13721 1.09112 0
M  V30 1687 C 167.975 -2.17082 0.697091 0
M  V30 1688 C 168.959 -1.58321 -0.286923 0
M  V30 1689 O 170.151 -1.7673 -0.0978008 0
M  V30 1690 C 167.28 -3.43105 0.115729 0
M  V30 1691 C 166.366 -4.0888 1.12596 0
M  V30 1692 N 166.757 -4.4987 2.31195 0
M  V30 1693 C 165.055 -4.35471 0.963366 0
M  V30 1694 C 165.756 -5.01094 2.95431 0
M  V30 1695 N 164.732 -4.95751 2.23006 0
M  V30 1696 H 168.534 -2.46524 1.6001 0
M  V30 1697 H 166.048 -1.30481 0.966869 0
M  V30 1698 H 168.045 -4.16491 -0.184555 0
M  V30 1699 H 166.705 -3.15138 -0.78217 0
M  V30 1700 H 167.716 -4.42678 2.68806 0
M  V30 1701 H 164.393 -4.17328 0.119878 0
M  V30 1702 H 165.783 -5.4263 3.96236 0
M  V30 1703 N 168.503 -0.877838 -1.30888 0
M  V30 1704 C 169.749 -0.502773 -1.97088 0
M  V30 1705 C 170.104 0.936274 -1.68082 0
M  V30 1706 O 169.397 1.65162 -0.971196 0
M  V30 1707 C 169.591 -0.705748 -3.50363 0
M  V30 1708 C 169.42 -2.16297 -3.94266 0
M  V30 1709 C 168.19 -2.80614 -4.20219 0
M  V30 1710 C 170.388 -3.13606 -4.07622 0
M  V30 1711 N 168.37 -4.17007 -4.50532 0
M  V30 1712 C 169.741 -4.35051 -4.41736 0
M  V30 1713 C 171.796 -3.09491 -3.90026 0
M  V30 1714 C 170.499 -5.52911 -4.60089 0
M  V30 1715 C 172.525 -4.26616 -4.09576 0
M  V30 1716 C 171.887 -5.46825 -4.44029 0
M  V30 1717 H 167.986 -0.233168 -0.746429 0
M  V30 1718 H 170.57 -1.13408 -1.58261 0
M  V30 1719 H 168.741 -0.103976 -3.88261 0
M  V30 1720 H 170.473 -0.298291 -4.03599 0
M  V30 1721 H 167.228 -2.3152 -4.13153 0
M  V30 1722 H 167.652 -4.87426 -4.69834 0
M  V30 1723 H 172.294 -2.17657 -3.62471 0
M  V30 1724 H 170.012 -6.45255 -4.86489 0
M  V30 1725 H 173.598 -4.24894 -3.97438 0
M  V30 1726 H 172.478 -6.35947 -4.58848 0
M  V30 1727 N 169.982 1.44106 -0.638065 0
M  V30 1728 C 171.398 1.56672 -0.304286 0
M  V30 1729 C 171.598 1.6244 1.19228 0
M  V30 1730 O 170.654 1.57121 1.9766 0
M  V30 1731 C 171.967 2.83503 -1.00231 0
M  V30 1732 C 173.515 2.97226 -0.981116 0
M  V30 1733 C 173.99 4.26868 -1.65974 0
M  V30 1734 N 175.481 4.33698 -1.62666 0
M  V30 1735 C 176.216 5.32745 -2.12063 0
M  V30 1736 N 175.712 6.38157 -2.6968 0
M  V30 1737 N 177.505 5.24299 -2.02651 0
M  V30 1738 H 169.656 1.38605 -1.60942 0
M  V30 1739 H 171.919 0.664661 -0.675965 0
M  V30 1740 H 171.625 2.85251 -2.0573 0
M  V30 1741 H 171.499 3.73251 -0.54439 0
M  V30 1742 H 173.886 2.95027 0.0654188 0
M  V30 1743 H 173.967 2.08808 -1.47759 0
M  V30 1744 H 173.611 4.29826 -2.70576 0
M  V30 1745 H 173.541 5.14156 -1.13804 0
M  V30 1746 H 176.032 3.58138 -1.20606 0
M  V30 1747 H 176.345 7.10029 -3.05087 0
M  V30 1748 H 174.69 6.38823 -2.73734 0
M  V30 1749 H 177.881 4.4086 -1.57353 0
M  V30 1750 H 178.054 6.01334 -2.41457 0
M  V30 1751 N 171.46 0.379036 1.52974 0
M  V30 1752 C 172.39 -0.452706 2.29069 0
M  V30 1753 C 173.371 -1.07237 1.32039 0
M  V30 1754 O 174.556 -1.08708 1.60923 0
M  V30 1755 C 171.686 -1.5856 3.08992 0
M  V30 1756 C 170.64 -1.0925 4.13822 0
M  V30 1757 C 169.966 -2.31668 4.81907 0
M  V30 1758 C 171.266 -0.167702 5.22031 0
M  V30 1759 H 172.96 0.182181 2.98845 0
M  V30 1760 H 170.506 0.0890592 1.43724 0
M  V30 1761 H 172.459 -2.1742 3.6098 0
M  V30 1762 H 171.183 -2.24792 2.36931 0
M  V30 1763 H 169.842 -0.526494 3.628 0
M  V30 1764 H 169.49 -2.96386 4.06404 0
M  V30 1765 H 169.19 -1.9934 5.52754 0
M  V30 1766 H 170.714 -2.91189 5.36695 0
M  V30 1767 H 172.128 -0.664186 5.6944 0
M  V30 1768 H 170.525 0.0653265 6.00064 0
M  V30 1769 H 171.595 0.786347 4.78482 0
M  V30 1770 N 172.938 -1.57226 0.108567 0
M  V30 1771 C 174.349 -1.8195 -0.418464 0
M  V30 1772 C 174.7 -1.02508 -1.67292 0
M  V30 1773 O 173.825 -0.258496 -2.14851 0
M  V30 1774 C 174.42 -3.30028 -0.765979 0
M  V30 1775 C 172.979 -3.55469 -1.23769 0
M  V30 1776 C 172.126 -2.7625 -0.241106 0
M  V30 1777 H 175.077 -1.55149 0.33384 0
M  V30 1778 H 175.098 -3.44086 -1.62434 0
M  V30 1779 H 174.61 -3.87821 0.147219 0
M  V30 1780 H 172.711 -3.03022 -2.16814 0
M  V30 1781 H 172.824 -4.6408 -1.19022 0
M  V30 1782 H 171.188 -2.44133 -0.72602 0
M  V30 1783 H 171.971 -3.36797 0.665007 0
M  V30 1784 N 174.416 0.165178 -1.56732 0
M  V30 1785 C 175.346 1.20651 -1.99914 0
M  V30 1786 C 176.327 1.45827 -0.875705 0
M  V30 1787 O 177.512 1.57057 -1.14223 0
M  V30 1788 C 174.642 2.54401 -2.36427 0
M  V30 1789 C 173.596 2.43782 -3.51787 0
M  V30 1790 C 172.922 3.82078 -3.7406 0
M  V30 1791 C 174.222 1.93732 -4.85041 0
M  V30 1792 H 175.916 0.847534 -2.87154 0
M  V30 1793 H 173.462 0.40625 -1.38151 0
M  V30 1794 H 175.415 3.27458 -2.65234 0
M  V30 1795 H 174.139 2.92098 -1.46103 0
M  V30 1796 H 172.798 1.73178 -3.23117 0
M  V30 1797 H 172.446 4.17179 -2.81017 0
M  V30 1798 H 172.146 3.7584 -4.51684 0
M  V30 1799 H 173.67 4.56712 -4.05274 0
M  V30 1800 H 175.084 2.56569 -5.12684 0
M  V30 1801 H 173.481 1.98428 -5.66345 0
M  V30 1802 H 174.551 0.891962 -4.76626 0
M  V30 1803 N 175.894 1.51508 0.433938 0
M  V30 1804 C 176.824 1.76016 1.53429 0
M  V30 1805 C 177.805 0.610112 1.58782 0
M  V30 1806 O 178.99 0.853177 1.74455 0
M  V30 1807 C 176.12 1.88831 2.9148 0
M  V30 1808 C 175.074 3.04288 3.00987 0
M  V30 1809 C 174.4 3.0229 4.4105 0
M  V30 1810 C 175.7 4.44193 2.74754 0
M  V30 1811 H 177.394 2.68152 1.33171 0
M  V30 1812 H 174.94 1.29035 0.639214 0
M  V30 1813 H 176.893 2.04559 3.6842 0
M  V30 1814 H 175.617 0.933455 3.12976 0
M  V30 1815 H 174.276 2.8827 2.26486 0
M  V30 1816 H 173.924 2.04576 4.59519 0
M  V30 1817 H 173.624 3.79822 4.4834 0
M  V30 1818 H 175.148 3.20116 5.1996 0
M  V30 1819 H 176.562 4.60544 3.41426 0
M  V30 1820 H 174.959 5.23457 2.9345 0
M  V30 1821 H 176.029 4.53996 1.70339 0
M  V30 1822 N 177.372 -0.689602 1.41712 0
M  V30 1823 C 178.6 -1.47827 1.44758 0
M  V30 1824 C 179.015 -1.88721 0.0545703 0
M  V30 1825 O 178.372 -1.57176 -0.927463 0
M  V30 1826 C 178.423 -2.73698 2.3616 0
M  V30 1827 O 178.144 -2.34524 3.7004 0
M  V30 1828 C 179.645 -3.67389 2.48072 0
M  V30 1829 H 176.865 -0.455357 0.49284 0
M  V30 1830 H 179.409 -0.848574 1.86063 0
M  V30 1831 H 177.564 -3.32891 1.98148 0
M  V30 1832 H 177.978 -3.15701 4.18847 0
M  V30 1833 H 179.452 -4.52475 3.16181 0
M  V30 1834 H 179.929 -4.12284 1.51388 0
M  V30 1835 H 180.535 -3.14097 2.86746 0
M  V30 1836 N 178.85 -1.27639 -0.924453 0
M  V30 1837 C 179.813 -1.10681 -2.00705 0
M  V30 1838 C 180.813 -0.0497823 -1.60723 0
M  V30 1839 O 182.003 -0.294654 -1.7169 0
M  V30 1840 C 179.135 -0.687164 -3.33902 0
M  V30 1841 H 180.328 -2.06817 -2.17179 0
M  V30 1842 H 177.881 -1.10473 -1.10569 0
M  V30 1843 H 178.616 0.275439 -3.23128 0
M  V30 1844 H 178.401 -1.45061 -3.6428 0
M  V30 1845 H 179.891 -0.590853 -4.13399 0
M  V30 1846 N 180.328 1.1314 -1.09713 0
M  V30 1847 C 181.576 1.84119 -0.833338 0
M  V30 1848 C 181.897 1.84097 0.642904 0
M  V30 1849 O 181.167 1.29881 1.46655 0
M  V30 1850 H 179.747 0.681766 -0.305293 0
M  V30 1851 H 182.409 1.37038 -1.38588 0
M  V30 1852 H 181.505 2.88543 -1.18951 0
M  V30 1853 N 181.806 0.884767 1.30421 0
M  V30 1854 C 182.769 0.356277 2.26414 0
M  V30 1855 C 183.769 -0.501124 1.52792 0
M  V30 1856 O 184.959 -0.30831 1.7145 0
M  V30 1857 C 182.091 -0.492316 3.37326 0
M  V30 1858 H 183.284 1.20389 2.74675 0
M  V30 1859 H 180.837 0.661607 1.41607 0
M  V30 1860 H 181.572 -1.36052 2.94381 0
M  V30 1861 H 181.357 0.121832 3.91911 0
M  V30 1862 H 182.847 -0.853871 4.08777 0
M  V30 1863 N 183.284 -1.43765 0.645699 0
M  V30 1864 C 184.53 -2.02197 0.156271 0
M  V30 1865 C 184.863 -1.50776 -1.22393 0
M  V30 1866 O 184.138 -0.697771 -1.81553 0
M  V30 1867 C 184.421 -3.59749 0.158872 0
M  V30 1868 C 184.274 -4.21419 1.57245 0
M  V30 1869 C 185.593 -4.37149 -0.50879 0
M  V30 1870 H 182.712 -0.734694 0.0582602 0
M  V30 1871 H 185.354 -1.71157 0.824951 0
M  V30 1872 H 183.504 -3.86325 -0.410525 0
M  V30 1873 H 185.176 -4.059 2.19186 0
M  V30 1874 H 183.419 -3.78356 2.122 0
M  V30 1875 H 184.09 -5.30482 1.52619 0
M  V30 1876 H 186.566 -4.16093 -0.024412 0
M  V30 1877 H 185.442 -5.4683 -0.476213 0
M  V30 1878 H 185.703 -4.12839 -1.58165 0
M  V30 1879 N 184.763 -0.387143 -1.52771 0
M  V30 1880 C 185.726 0.436939 -2.24997 0
M  V30 1881 C 186.726 0.991991 -1.26555 0
M  V30 1882 O 187.916 0.874335 -1.50669 0
M  V30 1883 C 185.048 1.61281 -3.00335 0
M  V30 1884 H 186.241 -0.195365 -2.99263 0
M  V30 1885 H 183.794 -0.139218 -1.55679 0
M  V30 1886 H 184.529 2.2826 -2.30364 0
M  V30 1887 H 184.314 1.22154 -3.72587 0
M  V30 1888 H 185.804 2.19629 -3.5518 0
M  V30 1889 N 186.241 1.57166 -0.116904 0
M  V30 1890 C 187.466 1.999 0.55271 0
M  V30 1891 C 187.891 0.996039 1.59564 0
M  V30 1892 O 187.249 -0.032556 1.81271 0
M  V30 1893 C 187.297 3.4152 1.15742 0
M  V30 1894 O 186.401 3.44106 2.27299 0
M  V30 1895 H 185.742 0.649447 0.138258 0
M  V30 1896 H 188.272 2.03573 -0.204759 0
M  V30 1897 H 188.282 3.79684 1.49346 0
M  V30 1898 H 186.957 4.14034 0.393493 0
M  V30 1899 H 185.534 3.17759 1.9515 0
M  V30 1900 N 187.719 -0.156864 1.56817 0
M  V30 1901 C 188.967 -0.869404 1.82444 0
M  V30 1902 C 189.288 -1.82147 0.69623 0
M  V30 1903 O 188.558 -1.93847 -0.28287 0
M  V30 1904 H 187.138 -0.324043 0.673056 0
M  V30 1905 H 189.8 -0.153224 1.94297 0
M  V30 1906 H 188.896 -1.43761 2.77019 0
M  V30 1907 N 189.197 -1.51736 -0.425897 0
M  V30 1908 C 190.444 -1.6497 -1.17436 0
M  V30 1909 C 190.772 -0.371445 -1.9092 0
M  V30 1910 O 190.027 0.644963 -1.84767 0
M  V30 1911 C 190.326 -2.81103 -2.20717 0
M  V30 1912 C 189.992 -4.19954 -1.64162 0
M  V30 1913 C 188.654 -4.57725 -1.48462 0
M  V30 1914 C 191.006 -5.06552 -1.22696 0
M  V30 1915 C 188.334 -5.79789 -0.897873 0
M  V30 1916 C 190.686 -6.29205 -0.654464 0
M  V30 1917 C 189.35 -6.6574 -0.484456 0
M  V30 1918 H 188.62 -0.603668 -0.429727 0
M  V30 1919 H 191.267 -1.85798 -0.463829 0
M  V30 1920 H 189.572 -2.54542 -2.97852 0
M  V30 1921 H 191.269 -2.8854 -2.78471 0
M  V30 1922 H 187.859 -3.90181 -1.77361 0
M  V30 1923 H 192.043 -4.77968 -1.33642 0
M  V30 1924 H 187.299 -6.06733 -0.75402 0
M  V30 1925 H 191.473 -6.95643 -0.324694 0
M  V30 1926 H 189.1 -7.60195 -0.0276833 0
M  V30 1927 N 190.675 0.682077 -1.42076 0
M  V30 1928 C 191.9 1.47558 -1.45744 0
M  V30 1929 C 192.325 1.87977 -0.0680981 0
M  V30 1930 O 191.683 1.55522 0.9318 0
M  V30 1931 C 191.731 2.70575 -2.38373 0
M  V30 1932 O 190.835 3.68573 -1.85007 0
M  V30 1933 H 190.176 0.443585 -0.494093 0
M  V30 1934 H 192.706 0.837238 -1.86686 0
M  V30 1935 H 192.716 3.18729 -2.54707 0
M  V30 1936 H 191.391 2.40495 -3.39315 0
M  V30 1937 H 189.968 3.2757 -1.78192 0
M  V30 1938 N 192.153 1.28127 0.917671 0
M  V30 1939 C 193.116 1.11744 2.00115 0
M  V30 1940 C 194.116 0.0583052 1.60694 0
M  V30 1941 O 195.306 0.303755 1.71531 0
M  V30 1942 C 192.438 0.704862 3.33533 0
M  V30 1943 H 193.631 2.07966 2.16079 0
M  V30 1944 H 191.184 1.11058 1.09981 0
M  V30 1945 H 191.919 -0.258299 3.2327 0
M  V30 1946 H 191.704 1.4699 3.63505 0
M  V30 1947 H 193.194 0.612768 4.1308 0
M  V30 1948 N 193.631 -1.12557 1.10312 0
M  V30 1949 C 194.578 -2.18247 0.750781 0
M  V30 1950 C 195.548 -1.63853 -0.272293 0
M  V30 1951 O 196.733 -1.90195 -0.151862 0
M  V30 1952 C 193.873 -3.44591 0.187379 0
M  V30 1953 C 192.986 -4.13046 1.2656 0
M  V30 1954 C 192.121 -5.27034 0.663978 0
M  V30 1955 C 191.16 -5.87353 1.72287 0
M  V30 1956 N 190.297 -6.92757 1.1416 0
M  V30 1957 H 195.137 -2.47732 1.65628 0
M  V30 1958 H 192.674 -1.21629 0.827337 0
M  V30 1959 H 194.632 -4.16904 -0.157148 0
M  V30 1960 H 193.262 -3.15527 -0.681355 0
M  V30 1961 H 192.314 -3.38924 1.72727 0
M  V30 1962 H 193.626 -4.53947 2.06721 0
M  V30 1963 H 192.78 -6.06104 0.268824 0
M  V30 1964 H 191.519 -4.87407 -0.169082 0
M  V30 1965 H 190.524 -5.06971 2.12746 0
M  V30 1966 H 191.749 -6.29051 2.55875 0
M  V30 1967 H 189.695 -6.5517 0.329984 0
M  V30 1968 H 189.612 -7.3225 1.88007 0
M  V30 1969 H 190.88 -7.75658 0.772956 0
M  V30 1970 N 195.109 -0.891671 -1.2995 0
M  V30 1971 C 196.057 -0.353066 -2.29905 0
M  V30 1972 C 197.051 0.543509 -1.60444 0
M  V30 1973 O 198.257 0.4272 -1.74857 0
M  V30 1974 H 194.632 -0.095531 -0.745907 0
M  V30 1975 H 196.603 -1.20961 -2.72784 0
M  V30 1976 C 195.352 0.411475 -3.45257 0
M  V30 1977 H 194.675 -0.269182 -3.98893 0
M  V30 1978 H 196.115 0.753328 -4.17254 0
M  V30 1979 C 194.574 1.6111 -2.9588 0
M  V30 1980 O 195.104 2.71045 -2.96475 0
M  V30 1981 N 193.31 1.45054 -2.51809 0
M  V30 1982 H 192.857 0.556175 -2.51524 0
M  V30 1983 H 192.815 2.25453 -2.1913 0
M  V30 1984 N 196.587 1.43421 -0.653314 0
M  V30 1985 C 197.864 1.95361 -0.0966581 0
M  V30 1986 C 198.244 1.59461 1.38331 0
M  V30 1987 O 197.592 0.879777 2.10884 0
M  V30 1988 C 197.802 3.47311 -0.342988 0
M  V30 1989 C 199.15 4.23875 -0.24798 0
M  V30 1990 O 200.174 3.55133 -0.275553 0
M  V30 1991 O 199.033 5.4623 -0.171771 0
M  V30 1992 H 196.127 0.826945 0.00956291 0
M  V30 1993 H 198.673 1.5336 -0.726558 0
M  V30 1994 H 197.445 3.66569 -1.36906 0
M  V30 1995 H 197.068 3.9631 0.319975 0
M  V30 1996 N 198.065 0.39524 1.52563 0
M  V30 1997 C 199.015 -0.4541 2.23432 0
M  V30 1998 C 199.999 -1.02482 1.24042 0
M  V30 1999 O 201.191 -0.949938 1.49349 0
M  V30 2000 C 198.32 -1.57769 3.049 0
M  V30 2001 C 197.406 -1.01842 4.1169 0
M  V30 2002 N 197.797 -0.184613 5.05463 0
M  V30 2003 C 196.095 -1.29033 4.26927 0
M  V30 2004 C 196.796 0.125013 5.81566 0
M  V30 2005 N 195.772 -0.480498 5.41472 0
M  V30 2006 H 199.574 0.189413 2.93289 0
M  V30 2007 H 197.088 0.204877 1.61102 0
M  V30 2008 H 199.085 -2.19862 3.54212 0
M  V30 2009 H 197.745 -2.22397 2.36579 0
M  V30 2010 H 198.756 0.178602 5.17592 0
M  V30 2011 H 195.433 -1.93721 3.69836 0
M  V30 2012 H 196.823 0.800962 6.67109 0
M  V30 2013 N 199.544 -1.57102 0.125237 0
M  V30 2014 C 200.774 -1.99472 -0.538015 0
M  V30 2015 C 201.182 -1.00395 -1.60366 0
M  V30 2016 O 200.525 0.0103875 -1.83697 0
M  V30 2017 C 200.587 -3.38262 -1.21734 0
M  V30 2018 C 200.251 -4.56021 -0.298897 0
M  V30 2019 C 201.248 -5.17817 0.464943 0
M  V30 2020 C 198.933 -5.01869 -0.208149 0
M  V30 2021 C 200.927 -6.23852 1.3072 0
M  V30 2022 C 198.614 -6.07763 0.637736 0
M  V30 2023 C 199.612 -6.68622 1.39403 0
M  V30 2024 O 199.3 -7.7247 2.22586 0
M  V30 2025 H 199.032 -0.659934 -0.146501 0
M  V30 2026 H 201.586 -2.04321 0.210267 0
M  V30 2027 H 199.816 -3.30185 -2.01282 0
M  V30 2028 H 201.505 -3.6488 -1.77813 0
M  V30 2029 H 202.271 -4.83308 0.404741 0
M  V30 2030 H 198.15 -4.54241 -0.786522 0
M  V30 2031 H 201.694 -6.71284 1.898 0
M  V30 2032 H 197.591 -6.41701 0.699309 0
M  V30 2033 H 198.359 -7.89595 2.15596 0
M  V30 2034 N 201.022 0.148545 -1.56898 0
M  V30 2035 C 202.438 0.501131 -1.51528 0
M  V30 2036 C 202.638 1.83458 -0.833399 0
M  V30 2037 O 201.694 2.49259 -0.40328 0
M  V30 2038 C 203.007 0.512864 -2.96294 0
M  V30 2039 C 204.555 0.598487 -3.07225 0
M  V30 2040 C 205.03 0.640897 -4.53494 0
M  V30 2041 N 206.521 0.703163 -4.57832 0
M  V30 2042 C 207.256 0.756935 -5.68382 0
M  V30 2043 N 206.752 0.770147 -6.88506 0
M  V30 2044 N 208.545 0.797698 -5.56411 0
M  V30 2045 H 200.696 -0.725532 -1.99624 0
M  V30 2046 H 202.959 -0.264358 -0.910395 0
M  V30 2047 H 202.665 -0.398691 -3.49433 0
M  V30 2048 H 202.539 1.35133 -3.52163 0
M  V30 2049 H 204.926 1.50046 -2.54106 0
M  V30 2050 H 205.007 -0.267093 -2.54402 0
M  V30 2051 H 204.651 -0.256915 -5.0725 0
M  V30 2052 H 204.581 1.52295 -5.04097 0
M  V30 2053 H 207.072 0.700314 -3.71354 0
M  V30 2054 H 207.385 0.812983 -7.68512 0
M  V30 2055 H 205.73 0.738049 -6.9107 0
M  V30 2056 H 208.921 0.784535 -4.61479 0
M  V30 2057 H 209.094 0.83614 -6.42583 0
M  V30 2058 N 202.5 1.5196 0.417844 0
M  V30 2059 C 203.728 1.69426 1.18753 0
M  V30 2060 C 204.143 0.399955 1.84515 0
M  V30 2061 O 203.5 -0.623288 1.71527 0
M  V30 2062 C 203.551 2.82375 2.25714 0
M  V30 2063 O 203.272 4.06793 1.62638 0
M  V30 2064 C 204.773 3.11277 3.15628 0
M  V30 2065 H 201.993 0.568031 0.357186 0
M  V30 2066 H 204.537 1.98475 0.49273 0
M  V30 2067 H 202.692 2.5587 2.90877 0
M  V30 2068 H 203.106 4.69667 2.3348 0
M  V30 2069 H 204.58 3.93843 3.86771 0
M  V30 2070 H 205.057 2.24473 3.77503 0
M  V30 2071 H 205.663 3.39515 2.56144 0
M  V30 2072 N 203.978 -0.674533 1.42435 0
M  V30 2073 C 204.908 -1.80009 1.48724 0
M  V30 2074 C 205.889 -1.6659 0.343793 0
M  V30 2075 O 207.074 -1.86007 0.558137 0
M  V30 2076 C 204.204 -3.18306 1.38919 0
M  V30 2077 C 203.158 -3.46461 2.51294 0
M  V30 2078 C 202.484 -4.84335 2.26547 0
M  V30 2079 C 203.784 -3.43328 3.93603 0
M  V30 2080 H 205.478 -1.75004 2.42928 0
M  V30 2081 H 203.024 -0.840533 1.16923 0
M  V30 2082 H 204.977 -3.9678 1.41927 0
M  V30 2083 H 203.701 -3.2399 0.412094 0
M  V30 2084 H 202.36 -2.70348 2.47604 0
M  V30 2085 H 202.008 -4.86669 1.2713 0
M  V30 2086 H 201.708 -5.04136 3.01861 0
M  V30 2087 H 203.232 -5.65094 2.31304 0
M  V30 2088 H 204.646 -4.11772 3.98894 0
M  V30 2089 H 203.043 -3.74664 4.68771 0
M  V30 2090 H 204.113 -2.41897 4.20255 0
M  V30 2091 N 205.456 -1.28612 -0.910864 0
M  V30 2092 C 206.702 -1.16106 -1.66274 0
M  V30 2093 C 207.035 0.289113 -1.92036 0
M  V30 2094 O 206.31 1.21 -1.52281 0
M  V30 2095 C 206.593 -1.96309 -3.01885 0
M  V30 2096 C 206.446 -3.49405 -2.8326 0
M  V30 2097 C 207.765 -1.78076 -4.02463 0
M  V30 2098 H 204.884 -0.423152 -0.603417 0
M  V30 2099 H 207.526 -1.57961 -1.05586 0
M  V30 2100 H 205.676 -1.60742 -3.53687 0
M  V30 2101 H 207.348 -3.94894 -2.38446 0
M  V30 2102 H 205.591 -3.74893 -2.18261 0
M  V30 2103 H 206.262 -4.00784 -3.79574 0
M  V30 2104 H 208.738 -2.0912 -3.59733 0
M  V30 2105 H 207.614 -2.36561 -4.95308 0
M  V30 2106 H 207.875 -0.733008 -4.35981 0
M  V30 2107 N 206.934 1.1197 -1.10907 0
M  V30 2108 C 208.35 1.35591 -0.841852 0
M  V30 2109 C 208.55 1.94233 0.536246 0
M  V30 2110 O 207.606 2.1717 1.28816 0
M  V30 2111 C 208.919 2.29284 -1.94549 0
M  V30 2112 C 210.467 2.42862 -1.97451 0
M  V30 2113 C 210.942 3.39873 -3.07002 0
M  V30 2114 N 212.433 3.47433 -3.06341 0
M  V30 2115 C 213.168 4.22421 -3.87748 0
M  V30 2116 N 212.664 5.00432 -4.79103 0
M  V30 2117 N 214.457 4.17876 -3.75946 0
M  V30 2118 H 206.608 0.722664 -1.99728 0
M  V30 2119 H 208.871 0.380635 -0.868229 0
M  V30 2120 H 208.577 1.93378 -2.93765 0
M  V30 2121 H 208.451 3.29452 -1.83688 0
M  V30 2122 H 210.838 2.78046 -0.988645 0
M  V30 2123 H 210.919 1.42566 -2.12388 0
M  V30 2124 H 210.563 3.05417 -4.05811 0
M  V30 2125 H 210.493 4.40011 -2.89306 0
M  V30 2126 H 212.984 2.91784 -2.40147 0
M  V30 2127 H 213.297 5.55002 -5.37766 0
M  V30 2128 H 211.642 4.99612 -4.83128 0
M  V30 2129 H 214.833 3.56016 -3.03924 0
M  V30 2130 H 215.006 4.76061 -4.39624 0
M  V30 2131 N 208.412 0.89855 1.29475 0
M  V30 2132 C 209.64 0.539261 1.99749 0
M  V30 2133 C 210.055 -0.875716 1.67262 0
M  V30 2134 O 209.412 -1.57786 0.917049 0
M  V30 2135 C 209.463 0.72061 3.54245 0
M  V30 2136 O 209.184 2.07989 3.8558 0
M  V30 2137 C 210.685 0.366118 4.41786 0
M  V30 2138 H 207.905 0.207047 0.638258 0
M  V30 2139 H 210.449 1.20758 1.65039 0
M  V30 2140 H 208.604 0.0994862 3.87272 0
M  V30 2141 H 209.018 2.10841 4.80257 0
M  V30 2142 H 210.492 0.543848 5.49314 0
M  V30 2143 H 210.969 -0.696763 4.33638 0
M  V30 2144 H 211.575 0.964135 4.14228 0
M  V30 2145 N 209.89 -1.43072 0.660911 0
M  V30 2146 C 211.138 -2.01323 0.177094 0
M  V30 2147 C 211.459 -1.5245 -1.2159 0
M  V30 2148 O 210.729 -0.740322 -1.81373 0
M  V30 2149 H 209.309 -0.744382 0.0624804 0
M  V30 2150 H 211.971 -1.75179 0.854305 0
M  V30 2151 H 211.067 -3.11649 0.167641 0
M  V30 2152 N 211.368 -0.403325 -1.52352 0
M  V30 2153 C 212.779 0.0675782 -1.86578 0
M  V30 2154 C 213.13 1.44941 -1.32236 0
M  V30 2155 O 212.255 2.06112 -0.659307 0
M  V30 2156 C 212.85 0.129404 -3.38553 0
M  V30 2157 C 211.409 0.544629 -3.72439 0
M  V30 2158 C 210.556 -0.284551 -2.75836 0
M  V30 2159 H 213.507 -0.620631 -1.46061 0
M  V30 2160 H 213.528 0.94581 -3.68558 0
M  V30 2161 H 213.04 -0.87645 -3.78074 0
M  V30 2162 H 211.141 1.55734 -3.38493 0
M  V30 2163 H 211.254 0.293046 -4.78203 0
M  V30 2164 H 209.618 0.252258 -2.53448 0
M  V30 2165 H 210.401 -1.28865 -3.18196 0
M  V30 2166 N 212.846 1.57033 -0.133567 0
M  V30 2167 C 214.071 2.00475 0.531477 0
M  V30 2168 C 214.496 1.01291 1.58499 0
M  V30 2169 O 213.854 -0.0133279 1.81295 0
M  V30 2170 C 213.902 3.42729 1.12113 0
M  V30 2171 O 213.006 3.46498 2.23636 0
M  V30 2172 H 212.347 0.650876 0.131362 0
M  V30 2173 H 214.877 2.03344 -0.22634 0
M  V30 2174 H 214.887 3.81246 1.4531 0
M  V30 2175 H 213.562 4.14428 0.349557 0
M  V30 2176 H 212.139 3.19811 1.91769 0
M  V30 2177 N 214.325 -0.140222 1.56975 0
M  V30 2178 C 215.288 -1.15689 1.97861 0
M  V30 2179 C 216.288 -1.3549 0.865974 0
M  V30 2180 O 217.478 -1.32367 1.13246 0
M  V30 2181 C 214.61 -2.51582 2.30042 0
M  V30 2182 H 215.803 -0.805971 2.88867 0
M  V30 2183 H 213.356 -0.383801 1.51515 0
M  V30 2184 H 214.091 -2.91632 1.41849 0
M  V30 2185 H 213.876 -2.38569 3.11171 0
M  V30 2186 H 215.366 -3.24792 2.62488 0
M  V30 2187 N 215.803 -1.52179 -0.40978 0
M  V30 2188 C 217.214 -1.58377 -0.988615 0
M  V30 2189 C 217.565 -0.423879 -1.91566 0
M  V30 2190 O 216.69 0.455844 -2.11544 0
M  V30 2191 C 217.285 -2.87044 -1.79976 0
M  V30 2192 C 215.844 -2.95722 -2.32863 0
M  V30 2193 C 214.991 -2.53309 -1.12828 0
M  V30 2194 H 217.942 -1.57558 -0.190039 0
M  V30 2195 H 217.963 -2.7236 -2.65707 0
M  V30 2196 H 217.475 -3.71444 -1.12478 0
M  V30 2197 H 215.576 -2.15814 -3.03735 0
M  V30 2198 H 215.689 -3.99951 -2.63773 0
M  V30 2199 H 214.053 -2.07142 -1.48204 0
M  V30 2200 H 214.836 -3.40082 -0.46897 0
M  V30 2201 N 217.281 0.66697 -1.42791 0
M  V30 2202 C 218.228 1.7803 -1.4688 0
M  V30 2203 C 219.198 1.6299 -0.319919 0
M  V30 2204 O 220.383 1.83432 -0.525118 0
M  V30 2205 C 217.523 3.1611 -1.38451 0
M  V30 2206 C 216.636 3.42381 -2.63437 0
M  V30 2207 C 215.771 4.70232 -2.47094 0
M  V30 2208 C 214.81 4.89564 -3.67415 0
M  V30 2209 N 213.947 6.08661 -3.49966 0
M  V30 2210 H 218.787 1.7387 -2.42019 0
M  V30 2211 H 216.324 0.84868 -1.20149 0
M  V30 2212 H 218.282 3.95914 -1.31561 0
M  V30 2213 H 216.912 3.19374 -0.469033 0
M  V30 2214 H 215.964 2.56774 -2.80662 0
M  V30 2215 H 217.276 3.52557 -3.52853 0
M  V30 2216 H 216.43 5.5814 -2.37834 0
M  V30 2217 H 215.169 4.62353 -1.5518 0
M  V30 2218 H 214.174 4.00096 -3.77099 0
M  V30 2219 H 215.399 4.99282 -4.6032 0
M  V30 2220 H 213.345 6.0194 -2.60776 0
M  V30 2221 H 213.262 6.19733 -4.32975 0
M  V30 2222 H 214.53 6.99226 -3.44532 0
M  V30 2223 N 218.759 1.29093 0.90403 0
M  V30 2224 C 219.689 1.16401 2.02418 0
M  V30 2225 C 220.67 0.0593085 1.69997 0
M  V30 2226 O 221.855 0.238021 1.92736 0
M  V30 2227 C 218.985 0.835233 3.37107 0
M  V30 2228 C 217.939 1.89578 3.83724 0
M  V30 2229 C 217.265 1.42041 5.15489 0
M  V30 2230 C 218.565 3.30394 4.04521 0
M  V30 2231 H 220.259 2.10109 2.13295 0
M  V30 2232 H 217.805 1.01157 1.02486 0
M  V30 2233 H 219.758 0.733169 4.14973 0
M  V30 2234 H 218.482 -0.137543 3.2631 0
M  V30 2235 H 217.141 1.98715 3.08071 0
M  V30 2236 H 216.789 0.436426 5.01103 0
M  V30 2237 H 216.489 2.12964 5.4765 0
M  V30 2238 H 218.013 1.33176 5.959 0
M  V30 2239 H 219.427 3.24123 4.72882 0
M  V30 2240 H 217.824 3.99237 4.48029 0
M  V30 2241 H 218.894 3.73692 3.09002 0
M  V30 2242 N 220.237 -1.11381 1.11499 0
M  V30 2243 C 221.485 -1.8277 0.862524 0
M  V30 2244 C 221.806 -1.85097 -0.613534 0
M  V30 2245 O 221.076 -1.32198 -1.4457 0
M  V30 2246 H 219.656 -0.676823 0.316101 0
M  V30 2247 H 222.318 -1.34816 1.4075 0
M  V30 2248 H 221.414 -2.86614 1.23527 0
M  V30 2249 N 221.715 -0.905404 -1.28997 0
M  V30 2250 C 222.625 -0.392246 -2.31298 0
M  V30 2251 C 223.641 0.515889 -1.66176 0
M  V30 2252 O 224.817 0.404093 -1.97304 0
M  V30 2253 C 221.882 0.36686 -3.44754 0
M  V30 2254 C 220.943 -0.573485 -4.25452 0
M  V30 2255 C 220.176 0.149488 -5.33491 0
M  V30 2256 O 220.399 1.37255 -5.5364 0
M  V30 2257 O 219.333 -0.510919 -5.99728 0
M  V30 2258 H 223.159 -1.2411 -2.77183 0
M  V30 2259 H 220.744 -0.669926 -1.33538 0
M  V30 2260 H 222.626 0.795907 -4.13816 0
M  V30 2261 H 221.301 1.19169 -3.00966 0
M  V30 2262 H 220.208 -1.05176 -3.59011 0
M  V30 2263 H 221.541 -1.36489 -4.72897 0
M  V30 2264 N 223.193 1.4272 -0.668489 0
M  V30 2265 C 224.44 2.01624 -0.18814 0
M  V30 2266 C 224.768 1.5282 1.20317 0
M  V30 2267 O 224.023 0.718323 1.8204 0
M  V30 2268 C 224.322 3.57021 -0.164499 0
M  V30 2269 C 223.988 4.25232 -1.49962 0
M  V30 2270 C 222.65 4.4358 -1.8652 0
M  V30 2271 C 225.002 4.63727 -2.37921 0
M  V30 2272 C 222.33 4.97694 -3.10674 0
M  V30 2273 C 224.682 5.19218 -3.6138 0
M  V30 2274 C 223.346 5.3578 -3.98115 0
M  V30 2275 H 222.616 0.737795 -0.0688454 0
M  V30 2276 H 225.263 1.70991 -0.862225 0
M  V30 2277 H 223.568 3.87285 0.593079 0
M  V30 2278 H 225.265 4.00372 0.224271 0
M  V30 2279 H 221.855 4.11306 -1.20522 0
M  V30 2280 H 226.039 4.4923 -2.10964 0
M  V30 2281 H 221.295 5.08702 -3.39164 0
M  V30 2282 H 225.469 5.4799 -4.29743 0
M  V30 2283 H 223.096 5.77475 -4.94395 0
M  V30 2284 N 224.671 0.411399 1.52136 0
M  V30 2285 C 225.917 -0.163888 2.02137 0
M  V30 2286 C 226.25 -1.44597 1.29636 0
M  V30 2287 O 225.525 -1.90272 0.403353 0
M  V30 2288 C 225.808 -0.40927 3.57767 0
M  V30 2289 C 225.661 0.889643 4.40914 0
M  V30 2290 C 226.98 -1.19042 4.23694 0
M  V30 2291 H 224.099 -0.0580896 0.734707 0
M  V30 2292 H 226.741 0.54531 1.82007 0
M  V30 2293 H 224.891 -1.0134 3.7505 0
M  V30 2294 H 226.563 1.52575 4.35337 0
M  V30 2295 H 224.806 1.50011 4.07037 0
M  V30 2296 H 225.477 0.672314 5.4789 0
M  V30 2297 H 227.953 -0.678942 4.10524 0
M  V30 2298 H 226.829 -1.33086 5.32522 0
M  V30 2299 H 227.09 -2.21166 3.82803 0
M  V30 2300 N 226.149 -1.5696 0.141893 0
M  V30 2301 C 227.395 -1.9625 -0.511248 0
M  V30 2302 C 227.728 -1.02654 -1.64851 0
M  V30 2303 O 227.003 -0.0679676 -1.94381 0
M  V30 2304 C 227.286 -3.45285 -1.02227 0
M  V30 2305 C 227.139 -4.49658 0.113138 0
M  V30 2306 C 228.458 -3.96698 -1.90574 0
M  V30 2307 H 225.577 -0.713567 -0.184367 0
M  V30 2308 H 228.219 -1.88698 0.222087 0
M  V30 2309 H 226.369 -3.51852 -1.64719 0
M  V30 2310 H 228.041 -4.55174 0.749302 0
M  V30 2311 H 226.284 -4.26857 0.773026 0
M  V30 2312 H 226.955 -5.51258 -0.286053 0
M  V30 2313 H 229.431 -3.92578 -1.37918 0
M  V30 2314 H 228.307 -5.01453 -2.2324 0
M  V30 2315 H 228.568 -3.3875 -2.84079 0
M  V30 2316 N 227.627 0.131896 -1.57047 0
M  V30 2317 C 228.855 0.856461 -1.88341 0
M  V30 2318 C 229.27 1.74042 -0.731757 0
M  V30 2319 O 228.627 1.80051 0.297945 0
M  V30 2320 C 228.678 1.70064 -3.18999 0
M  V30 2321 O 228.399 0.852278 -4.2973 0
M  V30 2322 C 229.9 2.53148 -3.63911 0
M  V30 2323 H 227.12 0.246885 -0.62393 0
M  V30 2324 H 229.664 0.120152 -2.04147 0
M  V30 2325 H 227.819 2.38984 -3.04902 0
M  V30 2326 H 228.233 1.43329 -5.04537 0
M  V30 2327 H 229.707 3.07931 -4.58129 0
M  V30 2328 H 230.184 3.29901 -2.89935 0
M  V30 2329 H 230.79 1.89492 -3.80753 0
M  V30 2330 N 229.106 1.52395 0.401703 0
M  V30 2331 C 230.036 1.79231 1.49661 0
M  V30 2332 C 231.017 0.643654 1.57452 0
M  V30 2333 O 232.202 0.889989 1.72606 0
M  V30 2334 C 229.332 1.94971 2.87409 0
M  V30 2335 C 228.286 3.10604 2.94465 0
M  V30 2336 C 227.612 3.11577 4.34538 0
M  V30 2337 C 228.912 4.49921 2.6527 0
M  V30 2338 H 230.606 2.70917 1.27454 0
M  V30 2339 H 228.152 1.30362 0.6117 0
M  V30 2340 H 230.105 2.12328 3.63999 0
M  V30 2341 H 228.829 0.999632 3.10926 0
M  V30 2342 H 227.488 2.93009 2.20321 0
M  V30 2343 H 227.136 2.14277 4.55076 0
M  V30 2344 H 226.836 3.89247 4.40183 0
M  V30 2345 H 228.36 3.31073 5.13053 0
M  V30 2346 H 229.774 4.67683 3.31581 0
M  V30 2347 H 228.171 5.29564 2.82281 0
M  V30 2348 H 229.241 4.57507 1.60671 0
M  V30 2349 N 230.584 -0.659388 1.43143 0
M  V30 2350 C 231.534 -1.7655 1.44271 0
M  V30 2351 C 232.518 -1.57847 0.311961 0
M  V30 2352 O 233.71 -1.68064 0.555306 0
M  V30 2353 C 230.839 -3.15104 1.36251 0
M  V30 2354 C 229.925 -3.39377 2.54331 0
M  V30 2355 N 230.316 -3.34153 3.79704 0
M  V30 2356 C 228.614 -3.70072 2.48922 0
M  V30 2357 C 229.315 -3.58337 4.58225 0
M  V30 2358 N 228.291 -3.79851 3.88863 0
M  V30 2359 H 232.093 -1.70928 2.39083 0
M  V30 2360 H 229.607 -0.860823 1.37708 0
M  V30 2361 H 231.604 -3.94389 1.35141 0
M  V30 2362 H 230.264 -3.21913 0.424531 0
M  V30 2363 H 231.275 -3.13704 4.1208 0
M  V30 2364 H 227.952 -3.84034 1.63781 0
M  V30 2365 H 229.342 -3.60129 5.67236 0
M  V30 2366 N 232.062 -1.29571 -0.897171 0
M  V30 2367 C 233.31 -1.17456 -1.64464 0
M  V30 2368 C 233.631 0.273698 -1.9307 0
M  V30 2369 O 232.901 1.18684 -1.55855 0
M  V30 2370 H 231.481 -0.431706 -0.609622 0
M  V30 2371 H 234.143 -1.62531 -1.07562 0
M  V30 2372 H 233.239 -1.72648 -2.59998 0
M  V30 2373 N 233.54 1.10788 -1.12088 0
M  V30 2374 C 234.49 2.15158 -0.754401 0
M  V30 2375 C 235.474 1.59026 0.244846 0
M  V30 2376 O 236.666 1.76927 0.0509097 0
M  V30 2377 C 233.795 3.42677 -0.206657 0
M  V30 2378 C 232.881 4.05751 -1.23398 0
M  V30 2379 N 233.272 4.43582 -2.43041 0
M  V30 2380 C 231.57 4.32764 -1.07848 0
M  V30 2381 C 232.271 4.93085 -3.08613 0
M  V30 2382 N 231.247 4.89664 -2.36072 0
M  V30 2383 H 235.049 2.42195 -1.6649 0
M  V30 2384 H 232.563 1.27872 -1.00112 0
M  V30 2385 H 234.56 4.16834 0.0740646 0
M  V30 2386 H 233.22 3.17101 0.698342 0
M  V30 2387 H 234.231 4.35395 -2.80449 0
M  V30 2388 H 230.908 4.16863 -0.230483 0
M  V30 2389 H 232.298 5.31933 -4.10483 0
M  V30 2390 N 235.018 0.912232 1.28515 0
M  V30 2391 C 236.265 0.544599 1.95039 0
M  V30 2392 C 236.593 -0.911435 1.71823 0
M  V30 2393 O 235.848 -1.66317 1.03137 0
M  V30 2394 C 236.147 0.798392 3.48368 0
M  V30 2395 C 235.813 2.23374 3.91682 0
M  V30 2396 C 234.475 2.62617 4.03219 0
M  V30 2397 C 236.827 3.16786 4.13879 0
M  V30 2398 C 234.155 3.94429 4.3433 0
M  V30 2399 C 236.507 4.48161 4.46469 0
M  V30 2400 C 235.171 4.8726 4.56217 0
M  V30 2401 H 234.441 0.199283 0.7137 0
M  V30 2402 H 237.088 1.15327 1.52879 0
M  V30 2403 H 235.393 0.106908 3.91654 0
M  V30 2404 H 237.09 0.493141 3.97956 0
M  V30 2405 H 233.68 1.91922 3.83228 0
M  V30 2406 H 237.864 2.87677 4.0442 0
M  V30 2407 H 233.12 4.24426 4.40082 0
M  V30 2408 H 237.294 5.20559 4.62592 0
M  V30 2409 H 234.921 5.89431 4.80078 0
M  V30 2410 N 236.496 -1.42363 0.676048 0
M  V30 2411 C 237.444 -2.32596 -0.0131507 0
M  V30 2412 C 238.438 -1.49891 -0.789238 0
M  V30 2413 O 239.644 -1.65955 -0.697061 0
M  V30 2414 H 236.019 -0.751647 -0.0230481 0
M  V30 2415 H 237.99 -2.88421 0.765243 0
M  V30 2416 C 236.739 -3.34479 -0.949702 0
M  V30 2417 H 236.062 -3.98158 -0.361938 0
M  V30 2418 H 237.502 -4.00199 -1.4006 0
M  V30 2419 C 235.961 -2.66838 -2.05667 0
M  V30 2420 O 236.491 -2.50124 -3.14326 0
M  V30 2421 N 234.697 -2.25843 -1.82875 0
M  V30 2422 H 234.244 -2.39637 -0.945085 0
M  V30 2423 H 234.202 -1.80918 -2.5713 0
M  V30 2424 N 237.974 -0.419461 -1.51915 0
M  V30 2425 C 239.22 0.145505 -2.02879 0
M  V30 2426 C 239.575 1.41926 -1.29903 0
M  V30 2427 O 238.868 1.87383 -0.399782 0
M  V30 2428 C 239.062 0.437067 -3.54717 0
M  V30 2429 C 238.891 -0.806877 -4.42402 0
M  V30 2430 C 237.661 -1.33514 -4.87342 0
M  V30 2431 C 239.859 -1.68796 -4.85811 0
M  V30 2432 N 237.841 -2.53349 -5.59185 0
M  V30 2433 C 239.212 -2.73247 -5.56539 0
M  V30 2434 C 241.267 -1.70449 -4.67816 0
M  V30 2435 C 239.97 -3.79276 -6.11181 0
M  V30 2436 C 241.996 -2.75403 -5.23361 0
M  V30 2437 C 241.358 -3.78575 -5.9402 0
M  V30 2438 H 237.457 0.0145424 -0.781865 0
M  V30 2439 H 240.041 -0.576126 -1.85981 0
M  V30 2440 H 238.212 1.12774 -3.71667 0
M  V30 2441 H 239.944 0.99182 -3.92358 0
M  V30 2442 H 236.699 -0.891657 -4.65131 0
M  V30 2443 H 237.123 -3.14066 -5.99743 0
M  V30 2444 H 241.765 -0.920209 -4.12664 0
M  V30 2445 H 239.483 -4.58554 -6.65397 0
M  V30 2446 H 243.069 -2.77603 -5.113 0
M  V30 2447 H 241.949 -4.58453 -6.36231 0
M  V30 2448 N 239.452 1.56882 -0.150215 0
M  V30 2449 C 240.68 2.00593 0.506948 0
M  V30 2450 C 241.095 1.03033 1.58208 0
M  V30 2451 O 240.452 0.0278396 1.82479 0
M  V30 2452 C 240.503 3.44209 1.10465 0
M  V30 2453 O 240.224 4.3804 0.0724636 0
M  V30 2454 C 241.725 4.03214 1.84211 0
M  V30 2455 H 238.945 0.65795 0.13169 0
M  V30 2456 H 241.489 2.03018 -0.245743 0
M  V30 2457 H 239.644 3.42625 1.80795 0
M  V30 2458 H 240.058 5.22007 0.510793 0
M  V30 2459 H 241.532 5.0569 2.21318 0
M  V30 2460 H 242.009 3.44107 2.72923 0
M  V30 2461 H 242.615 4.08437 1.18572 0
M  V30 2462 N 240.93 -0.123565 1.57115 0
M  V30 2463 C 241.893 -1.13583 1.99076 0
M  V30 2464 C 242.893 -1.34564 0.880296 0
M  V30 2465 O 244.083 -1.31158 1.14644 0
M  V30 2466 C 241.215 -2.49128 2.32698 0
M  V30 2467 H 242.408 -0.775287 2.89706 0
M  V30 2468 H 239.961 -0.36771 1.51913 0
M  V30 2469 H 240.696 -2.90111 1.44934 0
M  V30 2470 H 240.481 -2.35255 3.13684 0
M  V30 2471 H 241.971 -3.2199 2.65918 0
M  V30 2472 N 242.408 -1.52605 -0.393616 0
M  V30 2473 C 243.824 -1.41753 -0.733357 0
M  V30 2474 C 244.024 -0.534293 -1.94287 0
M  V30 2475 O 243.08 -0.0059787 -2.52499 0
M  V30 2476 C 244.393 -2.84531 -0.972772 0
M  V30 2477 C 245.941 -2.93978 -1.07453 0
M  V30 2478 C 246.416 -4.37756 -1.3466 0
M  V30 2479 N 247.907 -4.4106 -1.41492 0
M  V30 2480 C 248.642 -5.49387 -1.642 0
M  V30 2481 N 248.138 -6.67806 -1.8441 0
M  V30 2482 N 249.931 -5.36923 -1.66342 0
M  V30 2483 H 242.082 -2.08555 0.402328 0
M  V30 2484 H 244.345 -0.940654 0.117789 0
M  V30 2485 H 244.051 -3.51353 -0.156204 0
M  V30 2486 H 243.925 -3.26508 -1.88871 0
M  V30 2487 H 246.312 -2.27326 -1.88167 0
M  V30 2488 H 246.393 -2.55435 -0.136605 0
M  V30 2489 H 246.037 -5.04972 -0.544581 0
M  V30 2490 H 245.967 -4.73848 -2.2973 0
M  V30 2491 H 248.458 -3.55705 -1.27601 0
M  V30 2492 H 248.771 -7.46141 -2.01231 0
M  V30 2493 H 247.116 -6.70843 -1.81644 0
M  V30 2494 H 250.307 -4.43381 -1.50102 0
M  V30 2495 H 250.48 -6.21416 -1.837 0
M  V30 2496 N 243.887 0.651787 -1.4349 0
M  V30 2497 C 244.85 1.74647 -1.48429 0
M  V30 2498 C 245.85 1.56513 -0.368817 0
M  V30 2499 O 247.04 1.62385 -0.630623 0
M  V30 2500 C 244.172 3.13533 -1.33827 0
M  V30 2501 H 245.365 1.71649 -2.4592 0
M  V30 2502 H 242.918 0.863573 -1.30277 0
M  V30 2503 H 243.653 3.22142 -0.37349 0
M  V30 2504 H 243.438 3.28101 -2.14691 0
M  V30 2505 H 244.928 3.93356 -1.40218 0
M  V30 2506 N 245.365 1.30045 0.890287 0
M  V30 2507 C 246.328 1.15963 1.977 0
M  V30 2508 C 247.328 0.0923777 1.60534 0
M  V30 2509 O 248.518 0.340071 1.70848 0
M  V30 2510 C 245.65 0.775451 3.31963 0
M  V30 2511 H 246.843 2.12502 2.11619 0
M  V30 2512 H 244.396 1.13366 1.07601 0
M  V30 2513 H 245.131 -0.189671 3.23745 0
M  V30 2514 H 244.916 1.54668 3.60306 0
M  V30 2515 H 246.406 0.700251 4.11687 0
M  V30 2516 N 246.843 -1.10192 1.12674 0
M  V30 2517 C 247.773 -2.18652 0.819362 0
M  V30 2518 C 248.754 -1.68698 -0.217915 0
M  V30 2519 O 249.939 -1.94041 -0.0785581 0
M  V30 2520 C 247.069 -3.46202 0.27594 0
M  V30 2521 C 246.023 -4.09444 1.24656 0
M  V30 2522 C 245.349 -5.31725 0.563258 0
M  V30 2523 C 246.649 -4.52863 2.60217 0
M  V30 2524 H 248.343 -2.44622 1.72628 0
M  V30 2525 H 245.889 -1.17571 0.831451 0
M  V30 2526 H 247.842 -4.21372 0.0486149 0
M  V30 2527 H 246.566 -3.1973 -0.666331 0
M  V30 2528 H 245.225 -3.36284 1.45974 0
M  V30 2529 H 244.873 -5.0153 -0.384235 0
M  V30 2530 H 244.573 -5.74991 1.21075 0
M  V30 2531 H 246.097 -6.09624 0.34503 0
M  V30 2532 H 247.511 -5.19294 2.42913 0
M  V30 2533 H 245.908 -5.06986 3.21068 0
M  V30 2534 H 246.978 -3.65656 3.18471 0
M  V30 2535 N 248.321 -0.919034 -1.28029 0
M  V30 2536 C 249.251 -0.428581 -2.29533 0
M  V30 2537 C 250.232 0.50659 -1.62381 0
M  V30 2538 O 251.417 0.413195 -1.89753 0
M  V30 2539 C 248.547 0.327388 -3.45753 0
M  V30 2540 C 247.501 -0.519137 -4.2484 0
M  V30 2541 C 246.827 0.365486 -5.33449 0
M  V30 2542 C 248.127 -1.77914 -4.91064 0
M  V30 2543 H 249.821 -1.27687 -2.70807 0
M  V30 2544 H 247.367 -0.615428 -1.30186 0
M  V30 2545 H 249.32 0.681378 -4.15855 0
M  V30 2546 H 248.044 1.20963 -3.03374 0
M  V30 2547 H 246.703 -0.855717 -3.56473 0
M  V30 2548 H 246.351 1.24642 -4.87312 0
M  V30 2549 H 246.051 -0.197356 -5.87268 0
M  V30 2550 H 247.575 0.715241 -6.06396 0
M  V30 2551 H 248.989 -1.49374 -5.53498 0
M  V30 2552 H 247.386 -2.2848 -5.54903 0
M  V30 2553 H 248.456 -2.50382 -4.15255 0
M  V30 2554 N 249.799 1.42003 -0.683588 0
M  V30 2555 C 251.029 2.05448 -0.217866 0
M  V30 2556 C 251.437 1.51491 1.13346 0
M  V30 2557 O 250.78 0.653048 1.717 0
M  V30 2558 C 250.842 3.59399 -0.0850118 0
M  V30 2559 C 250.506 4.36093 -1.36645 0
M  V30 2560 C 251.503 4.66169 -2.30179 0
M  V30 2561 C 249.188 4.75578 -1.61649 0
M  V30 2562 C 251.182 5.34676 -3.46988 0
M  V30 2563 C 248.869 5.43824 -2.78745 0
M  V30 2564 C 249.867 5.73299 -3.71238 0
M  V30 2565 O 249.555 6.40142 -4.86285 0
M  V30 2566 H 249.287 0.668344 -0.101454 0
M  V30 2567 H 251.841 1.82974 -0.933248 0
M  V30 2568 H 250.071 3.80566 0.686031 0
M  V30 2569 H 251.76 4.04457 0.341973 0
M  V30 2570 H 252.526 4.36156 -2.12115 0
M  V30 2571 H 248.405 4.52025 -0.905243 0
M  V30 2572 H 251.949 5.57599 -4.19201 0
M  V30 2573 H 247.846 5.73254 -2.96732 0
M  V30 2574 H 248.614 6.58636 -4.85944 0
M  V30 2575 N 251.277 0.427512 1.51691 0
M  V30 2576 C 252.207 -0.3796 2.30394 0
M  V30 2577 C 253.188 -1.02982 1.35384 0
M  V30 2578 O 254.373 -1.03534 1.643 0
M  V30 2579 C 251.503 -1.48649 3.1388 0
M  V30 2580 C 250.457 -0.960294 4.17088 0
M  V30 2581 C 249.783 -2.16219 4.89033 0
M  V30 2582 C 251.083 -0.00153679 5.223 0
M  V30 2583 H 252.777 0.277164 2.98114 0
M  V30 2584 H 250.323 0.134739 1.43368 0
M  V30 2585 H 252.276 -2.05826 3.67714 0
M  V30 2586 H 251 -2.1714 2.43962 0
M  V30 2587 H 249.659 -0.410806 3.64291 0
M  V30 2588 H 249.307 -2.83307 4.15628 0
M  V30 2589 H 249.007 -1.81654 5.58816 0
M  V30 2590 H 250.531 -2.73968 5.45687 0
M  V30 2591 H 251.945 -0.482687 5.71264 0
M  V30 2592 H 250.342 0.256199 5.99553 0
M  V30 2593 H 251.412 0.938174 4.75738 0
M  V30 2594 N 252.755 -1.56801 0.158532 0
M  V30 2595 C 254.032 -1.88131 -0.535357 0
M  V30 2596 C 254.412 -1.06638 -1.82186 0
M  V30 2597 O 253.76 -0.156533 -2.27963 0
M  V30 2598 C 253.97 -3.39949 -0.789653 0
M  V30 2599 C 255.318 -4.09416 -1.12533 0
M  V30 2600 O 256.342 -3.45194 -0.878622 0
M  V30 2601 O 255.201 -5.22855 -1.59014 0
M  V30 2602 H 252.295 -0.780143 -0.27442 0
M  V30 2603 H 254.841 -1.68564 0.19601 0
M  V30 2604 H 253.613 -3.91115 0.120353 0
M  V30 2605 H 253.236 -3.65084 -1.57479 0
M  V30 2606 N 254.233 0.115231 -1.57178 0
M  V30 2607 C 255.196 1.12526 -1.99676 0
M  V30 2608 C 256.196 1.34095 -0.88742 0
M  V30 2609 O 257.386 1.30548 -1.15337 0
M  V30 2610 C 254.518 2.4789 -2.34015 0
M  V30 2611 H 255.711 0.759912 -2.90113 0
M  V30 2612 H 253.264 0.359648 -1.52106 0
M  V30 2613 H 253.999 2.89339 -1.4647 0
M  V30 2614 H 253.784 2.33588 -3.14927 0
M  V30 2615 H 255.274 3.20575 -2.67622 0
M  V30 2616 N 255.711 1.52812 0.385517 0
M  V30 2617 C 257.127 1.4214 0.725829 0
M  V30 2618 C 257.327 0.544589 1.94001 0
M  V30 2619 O 256.383 0.0193693 2.52493 0
M  V30 2620 C 257.696 2.85042 0.957668 0
M  V30 2621 C 259.244 2.94543 1.05892 0
M  V30 2622 C 259.719 4.38464 1.32337 0
M  V30 2623 N 261.21 4.41804 1.39151 0
M  V30 2624 C 261.945 5.5025 1.61285 0
M  V30 2625 N 261.441 6.68775 1.80866 0
M  V30 2626 N 263.234 5.37798 1.63492 0
M  V30 2627 H 255.385 2.08338 -0.413383 0
M  V30 2628 H 257.648 0.940016 -0.122775 0
M  V30 2629 H 257.354 3.51431 0.137568 0
M  V30 2630 H 257.228 3.27505 1.87137 0
M  V30 2631 H 259.615 2.28321 1.86959 0
M  V30 2632 H 259.696 2.55504 0.123057 0
M  V30 2633 H 259.34 5.05254 0.517793 0
M  V30 2634 H 259.27 4.75059 2.27214 0
M  V30 2635 H 261.761 3.56377 1.25713 0
M  V30 2636 H 262.074 7.47197 1.97271 0
M  V30 2637 H 260.419 6.71797 1.78083 0
M  V30 2638 H 263.61 4.44171 1.47749 0
M  V30 2639 H 263.783 6.22382 1.80402 0
M  V30 2640 N 257.189 -0.644168 1.43834 0
M  V30 2641 C 258.417 -1.43147 1.49387 0
M  V30 2642 C 258.832 -1.88452 0.114583 0
M  V30 2643 O 258.189 -1.60047 -0.876989 0
M  V30 2644 C 258.24 -2.66046 2.44748 0
M  V30 2645 O 257.961 -2.22633 3.77314 0
M  V30 2646 C 259.462 -3.59311 2.59635 0
M  V30 2647 H 256.682 -0.439447 0.507077 0
M  V30 2648 H 259.226 -0.78895 1.88669 0
M  V30 2649 H 257.381 -3.26418 2.08638 0
M  V30 2650 H 257.795 -3.02216 4.28679 0
M  V30 2651 H 259.269 -4.42187 3.30416 0
M  V30 2652 H 259.746 -4.07259 1.64427 0
M  V30 2653 H 260.352 -3.04816 2.96593 0
M  V30 2654 N 258.668 -1.30515 -0.883378 0
M  V30 2655 C 259.945 -1.10086 -1.6168 0
M  V30 2656 C 260.325 0.349269 -2.08191 0
M  V30 2657 O 259.673 1.34105 -1.85008 0
M  V30 2658 C 259.883 -2.10315 -2.78511 0
M  V30 2659 C 261.231 -2.42119 -3.48803 0
M  V30 2660 O 262.255 -2.08638 -2.88702 0
M  V30 2661 O 261.114 -2.99396 -4.57192 0
M  V30 2662 H 258.208 -0.422907 -0.710689 0
M  V30 2663 H 260.754 -1.41947 -0.930015 0
M  V30 2664 H 259.526 -3.07917 -2.41459 0
M  V30 2665 H 259.149 -1.79282 -3.54886 0
M  V30 2666 N 260.146 1.09593 -1.13257 0
M  V30 2667 C 261.423 1.78293 -0.804432 0
M  V30 2668 C 261.803 1.99004 0.70431 0
M  V30 2669 O 261.151 1.59007 1.641 0
M  V30 2670 C 261.361 3.10707 -1.5894 0
M  V30 2671 C 262.709 3.85443 -1.78099 0
M  V30 2672 O 263.733 3.20454 -1.55525 0
M  V30 2673 O 262.592 5.02108 -2.15753 0
M  V30 2674 H 259.686 0.773156 -0.293528 0
M  V30 2675 H 262.232 1.16164 -1.23709 0
M  V30 2676 H 261.004 2.91106 -2.61482 0
M  V30 2677 H 260.627 3.80558 -1.15157 0
M  V30 2678 N 261.624 0.925811 1.2754 0
M  V30 2679 C 263.04 0.625767 1.46821 0
M  V30 2680 C 263.24 -0.825506 1.83814 0
M  V30 2681 O 262.296 -1.60356 1.95044 0
M  V30 2682 C 263.609 1.57402 2.56213 0
M  V30 2683 C 265.157 1.58204 2.70075 0
M  V30 2684 C 265.632 2.51721 3.82623 0
M  V30 2685 N 267.123 2.49917 3.89994 0
M  V30 2686 C 267.858 3.18968 4.76494 0
M  V30 2687 N 267.354 3.97391 5.67496 0
M  V30 2688 N 269.147 3.07996 4.70208 0
M  V30 2689 H 261.298 1.86409 1.01811 0
M  V30 2690 H 263.561 0.800213 0.508295 0
M  V30 2691 H 263.267 2.60925 2.35819 0
M  V30 2692 H 263.141 1.31428 3.53563 0
M  V30 2693 H 265.528 0.554124 2.89851 0
M  V30 2694 H 265.609 1.88226 1.73218 0
M  V30 2695 H 265.253 3.54622 3.63601 0
M  V30 2696 H 265.183 2.18996 4.78903 0
M  V30 2697 H 267.674 1.9296 3.24923 0
M  V30 2698 H 267.987 4.4707 6.30356 0
M  V30 2699 H 266.332 4.01495 5.67298 0
M  V30 2700 H 269.523 2.46223 3.9811 0
M  V30 2701 H 269.696 3.6208 5.37403 0
M  V30 2702 N 263.102 -1.41638 0.69111 0
M  V30 2703 C 264.513 -1.84346 0.295517 0
M  V30 2704 C 264.864 -1.57833 -1.16547 0
M  V30 2705 O 263.989 -1.04648 -1.89414 0
M  V30 2706 C 264.584 -3.34636 0.529575 0
M  V30 2707 C 263.143 -3.7593 0.187944 0
M  V30 2708 C 262.29 -2.65082 0.814052 0
M  V30 2709 H 265.241 -1.31253 0.892092 0
M  V30 2710 H 265.262 -3.79903 -0.213148 0
M  V30 2711 H 264.774 -3.53901 1.59297 0
M  V30 2712 H 262.875 -3.62268 -0.871367 0
M  V30 2713 H 262.988 -4.74808 0.63985 0
M  V30 2714 H 261.352 -2.53528 0.244017 0
M  V30 2715 H 262.135 -2.87167 1.88123 0
M  V30 2716 N 264.58 -0.43555 -1.51462 0
M  V30 2717 C 265.53 0.394701 -2.24558 0
M  V30 2718 C 266.514 0.99157 -1.26715 0
M  V30 2719 O 267.706 0.910007 -1.51815 0
M  V30 2720 C 264.835 1.4963 -3.08975 0
M  V30 2721 C 263.921 0.908912 -4.14246 0
M  V30 2722 N 264.312 0.0505335 -5.05775 0
M  V30 2723 C 262.61 1.17668 -4.30198 0
M  V30 2724 C 263.311 -0.279161 -5.8103 0
M  V30 2725 N 262.287 0.336767 -5.42556 0
M  V30 2726 H 266.089 -0.267106 -2.92684 0
M  V30 2727 H 263.603 -0.247518 -1.60503 0
M  V30 2728 H 265.6 2.10394 -3.59917 0
M  V30 2729 H 264.26 2.16046 -2.42393 0
M  V30 2730 H 265.271 -0.31577 -5.16936 0
M  V30 2731 H 261.948 1.83847 -3.74842 0
M  V30 2732 H 263.338 -0.977553 -6.64751 0
M  V30 2733 N 266.058 1.56714 -0.166846 0
M  V30 2734 C 267.288 2.00828 0.48494 0
M  V30 2735 C 267.696 1.04612 1.57648 0
M  V30 2736 O 267.039 0.0383201 1.8366 0
M  V30 2737 C 267.101 3.4137 1.12723 0
M  V30 2738 C 266.765 4.56654 0.177886 0
M  V30 2739 C 267.762 5.16402 -0.60207 0
M  V30 2740 C 265.447 5.02244 0.0750139 0
M  V30 2741 C 267.441 6.20167 -1.47215 0
M  V30 2742 C 265.128 6.05859 -0.798649 0
M  V30 2743 C 266.126 6.64691 -1.57082 0
M  V30 2744 O 265.814 7.66297 -2.42989 0
M  V30 2745 H 265.546 0.663587 0.128953 0
M  V30 2746 H 268.1 2.03692 -0.264365 0
M  V30 2747 H 266.33 3.35406 1.92457 0
M  V30 2748 H 268.019 3.69466 1.68076 0
M  V30 2749 H 268.785 4.82065 -0.53274 0
M  V30 2750 H 264.664 4.56167 0.665812 0
M  V30 2751 H 268.208 6.66016 -2.07531 0
M  V30 2752 H 264.105 6.39621 -0.869199 0
M  V30 2753 H 264.873 7.83601 -2.36455 0
M  V30 2754 N 267.536 -0.106894 1.57237 0
M  V30 2755 C 268.783 -0.812526 1.85484 0
M  V30 2756 C 269.111 -1.79304 0.753687 0
M  V30 2757 O 268.366 -1.94047 -0.253853 0
M  V30 2758 C 268.665 -1.58628 3.20268 0
M  V30 2759 C 268.331 -0.748967 4.44636 0
M  V30 2760 C 266.993 -0.518104 4.78403 0
M  V30 2761 C 269.345 -0.166122 5.20935 0
M  V30 2762 C 266.673 0.305659 5.85903 0
M  V30 2763 C 269.025 0.644899 6.29304 0
M  V30 2764 C 267.689 0.885965 6.61594 0
M  V30 2765 H 266.959 -0.297324 0.678734 0
M  V30 2766 H 269.606 -0.0744332 1.91355 0
M  V30 2767 H 267.911 -2.39562 3.10028 0
M  V30 2768 H 269.608 -2.13643 3.39349 0
M  V30 2769 H 266.198 -0.939006 4.18187 0
M  V30 2770 H 270.382 -0.33167 4.95191 0
M  V30 2771 H 265.638 0.501528 6.0934 0
M  V30 2772 H 269.812 1.10345 6.87602 0
M  V30 2773 H 267.439 1.52609 7.44725 0
M  V30 2774 N 269.014 -1.53014 -0.377408 0
M  V30 2775 C 270.242 -1.72515 -1.14219 0
M  V30 2776 C 270.657 -0.448735 -1.8339 0
M  V30 2777 O 270.014 0.577592 -1.73119 0
M  V30 2778 C 270.065 -2.8826 -2.18148 0
M  V30 2779 O 269.786 -4.10962 -1.51795 0
M  V30 2780 C 271.287 -3.19536 -3.07264 0
M  V30 2781 H 268.507 -0.577301 -0.342001 0
M  V30 2782 H 271.051 -1.99712 -0.439935 0
M  V30 2783 H 269.206 -2.63492 -2.83991 0
M  V30 2784 H 269.62 -4.75693 -2.20945 0
M  V30 2785 H 271.094 -4.03959 -3.76193 0
M  V30 2786 H 271.571 -2.34403 -3.71419 0
M  V30 2787 H 272.177 -3.46186 -2.47053 0
M  V30 2788 N 270.492 0.636531 -1.44174 0
M  V30 2789 C 271.741 1.39213 -1.45954 0
M  V30 2790 C 272.054 1.95374 -0.0939119 0
M  V30 2791 O 273.26 2.71498 0.0107767 0
M  V30 2792 C 271.716 2.52025 -2.56927 0
M  V30 2793 C 271.324 2.024 -3.99673 0
M  V30 2794 C 273.068 3.29269 -2.67922 0
M  V30 2795 C 270.975 3.12521 -5.0208 0
M  V30 2796 H 269.905 0.523132 -0.542999 0
M  V30 2797 H 272.556 0.685349 -1.70221 0
M  V30 2798 H 270.938 3.25253 -2.25891 0
M  V30 2799 H 272.112 1.36073 -4.40251 0
M  V30 2800 H 270.427 1.37987 -3.92872 0
M  V30 2801 H 273.024 4.11352 -3.41605 0
M  V30 2802 H 273.367 3.78397 -1.73555 0
M  V30 2803 H 273.9 2.63129 -2.98342 0
M  V30 2804 H 270.639 2.68343 -5.98057 0
M  V30 2805 H 270.159 3.77507 -4.66099 0
M  V30 2806 H 271.838 3.77385 -5.25538 0
M  V30 2807 N 271.97 1.30982 0.876444 0
M  V30 2808 C 272.88 1.2003 2.01569 0
M  V30 2809 C 273.896 0.11838 1.73597 0
M  V30 2810 O 275.072 0.33495 1.98595 0
M  V30 2811 C 272.137 0.901637 3.34771 0
M  V30 2812 C 271.198 2.06979 3.76109 0
M  V30 2813 C 270.431 1.78529 5.02954 0
M  V30 2814 O 270.654 0.717296 5.65872 0
M  V30 2815 O 269.588 2.64019 5.40905 0
M  V30 2816 H 273.414 2.15753 2.13739 0
M  V30 2817 H 270.999 1.10658 1.00375 0
M  V30 2818 H 272.881 0.750645 4.1466 0
M  V30 2819 H 271.556 -0.0256141 3.2369 0
M  V30 2820 H 270.463 2.27616 2.96887 0
M  V30 2821 H 271.796 2.97907 3.91807 0
M  V30 2822 N 273.449 -1.08991 1.13837 0
M  V30 2823 C 274.697 -1.80899 0.901098 0
M  V30 2824 C 275.018 -1.86356 -0.574134 0
M  V30 2825 O 274.288 -1.35235 -1.41733 0
M  V30 2826 H 272.868 -0.669966 0.330386 0
M  V30 2827 H 275.53 -1.318 1.43578 0
M  V30 2828 H 274.626 -2.83929 1.29578 0
M  V30 2829 N 274.927 -0.932562 -1.27047 0
M  V30 2830 C 276.173 -0.576412 -1.94436 0
M  V30 2831 C 276.506 0.880891 -1.73072 0
M  V30 2832 O 275.781 1.62905 -1.06264 0
M  V30 2833 C 276.064 -0.909031 -3.48437 0
M  V30 2834 C 275.917 -2.42044 -3.79123 0
M  V30 2835 C 277.236 -0.418341 -4.38107 0
M  V30 2836 H 274.355 -0.210888 -0.706184 0
M  V30 2837 H 276.997 -1.16522 -1.50075 0
M  V30 2838 H 275.147 -0.407947 -3.86352 0
M  V30 2839 H 276.819 -2.99359 -3.50973 0
M  V30 2840 H 275.062 -2.86758 -3.25503 0
M  V30 2841 H 275.733 -2.6037 -4.86736 0
M  V30 2842 H 278.209 -0.847856 -4.0737 0
M  V30 2843 H 277.085 -0.679981 -5.44672 0
M  V30 2844 H 277.346 0.681642 -4.36814 0
M  V30 2845 N 276.405 1.4127 -0.698611 0
M  V30 2846 C 277.652 2.0118 -0.230865 0
M  V30 2847 C 277.98 1.55338 1.17049 0
M  V30 2848 O 277.235 0.756775 1.80475 0
M  V30 2849 C 277.534 3.56592 -0.240192 0
M  V30 2850 C 277.2 4.21955 -1.58948 0
M  V30 2851 C 275.862 4.39524 -1.95887 0
M  V30 2852 C 278.214 4.58576 -2.47704 0
M  V30 2853 C 275.542 4.90992 -3.2116 0
M  V30 2854 C 277.894 5.11435 -3.72313 0
M  V30 2855 C 276.558 5.27215 -4.0939 0
M  V30 2856 H 275.828 0.736169 -0.0844796 0
M  V30 2857 H 278.475 1.69124 -0.8983 0
M  V30 2858 H 276.78 3.88456 0.510797 0
M  V30 2859 H 278.477 4.00758 0.139296 0
M  V30 2860 H 275.067 4.08657 -1.29219 0
M  V30 2861 H 279.251 4.44654 -2.20445 0
M  V30 2862 H 274.507 5.01393 -3.49878 0
M  V30 2863 H 278.681 5.38752 -4.4127 0
M  V30 2864 H 276.308 5.66859 -5.06533 0
M  V30 2865 N 277.883 0.443576 1.51229 0
M  V30 2866 C 278.793 -0.370721 2.31652 0
M  V30 2867 C 279.809 -1.02186 1.40833 0
M  V30 2868 O 280.985 -1.01586 1.73903 0
M  V30 2869 C 278.05 -1.45376 3.14749 0
M  V30 2870 C 277.111 -0.822099 4.21355 0
M  V30 2871 C 276.344 -1.85353 5.0048 0
M  V30 2872 O 276.567 -3.07656 4.80316 0
M  V30 2873 O 275.501 -1.4406 5.84406 0
M  V30 2874 H 279.327 0.286002 3.0235 0
M  V30 2875 H 276.912 0.20598 1.47973 0
M  V30 2876 H 278.794 -2.08173 3.66391 0
M  V30 2877 H 277.469 -2.09445 2.46809 0
M  V30 2878 H 276.376 -0.155909 3.73775 0
M  V30 2879 H 277.709 -0.224797 4.91686 0
M  V30 2880 N 279.361 -1.56624 0.175154 0
M  V30 2881 C 280.324 -2.16934 -0.739738 0
M  V30 2882 C 281.324 -1.11842 -1.15533 0
M  V30 2883 O 282.514 -1.37335 -1.07167 0
M  V30 2884 C 279.646 -2.75531 -2.00738 0
M  V30 2885 H 280.839 -2.99131 -0.214639 0
M  V30 2886 H 278.392 -1.56123 -0.0744197 0
M  V30 2887 H 279.127 -1.97078 -2.57548 0
M  V30 2888 H 278.912 -3.52444 -1.71831 0
M  V30 2889 H 280.402 -3.21904 -2.66021 0
M  V30 2890 N 280.839 0.0985539 -1.57292 0
M  V30 2891 C 281.769 1.12064 -2.04851 0
M  V30 2892 C 282.75 1.41981 -0.936767 0
M  V30 2893 O 283.935 1.52071 -1.20781 0
M  V30 2894 C 281.065 2.44144 -2.47004 0
M  V30 2895 C 280.019 2.28643 -3.6181 0
M  V30 2896 C 279.345 3.65869 -3.89929 0
M  V30 2897 C 280.645 1.72986 -4.92822 0
M  V30 2898 H 282.339 0.724979 -2.9049 0
M  V30 2899 H 279.885 0.34729 -1.39749 0
M  V30 2900 H 281.838 3.15914 -2.78884 0
M  V30 2901 H 280.562 2.85639 -1.5836 0
M  V30 2902 H 279.221 1.59318 -3.30172 0
M  V30 2903 H 278.869 4.04885 -2.98458 0
M  V30 2904 H 278.569 3.56344 -4.67218 0
M  V30 2905 H 280.093 4.39112 -4.2428 0
M  V30 2906 H 281.507 2.34593 -5.23105 0
M  V30 2907 H 279.904 1.74229 -5.74251 0
M  V30 2908 H 280.974 0.689007 -4.7998 0
M  V30 2909 N 282.317 1.53212 0.369288 0
M  V30 2910 C 283.249 1.75668 1.47219 0
M  V30 2911 C 284.262 0.637387 1.49804 0
M  V30 2912 O 285.451 0.913561 1.5335 0
M  V30 2913 C 282.551 1.81818 2.85999 0
M  V30 2914 C 281.724 3.11409 3.07153 0
M  V30 2915 C 280.783 3.08849 4.26026 0
M  V30 2916 O 279.809 3.82659 4.2138 0
M  V30 2917 N 281.011 2.29409 5.33246 0
M  V30 2918 H 283.776 2.70832 1.28337 0
M  V30 2919 H 281.337 1.51944 0.55898 0
M  V30 2920 H 283.329 1.77588 3.63655 0
M  V30 2921 H 281.899 0.939544 2.98146 0
M  V30 2922 H 281.119 3.28971 2.1719 0
M  V30 2923 H 282.407 3.97059 3.18154 0
M  V30 2924 H 281.805 1.68946 5.39883 0
M  V30 2925 H 280.362 2.31001 6.09493 0
M  V30 2926 N 283.795 -0.628877 1.44509 0
M  V30 2927 C 285.043 -1.38565 1.4712 0
M  V30 2928 C 285.364 -1.94712 0.105899 0
M  V30 2929 O 284.634 -1.75912 -0.862079 0
M  V30 2930 H 283.214 -0.514333 0.541729 0
M  V30 2931 H 285.876 -0.740018 1.80305 0
M  V30 2932 H 284.972 -2.21583 2.19789 0
M  V30 2933 N 285.273 -1.31445 -0.869486 0
M  V30 2934 C 286.498 -1.24256 -1.66058 0
M  V30 2935 C 286.923 0.188928 -1.87149 0
M  V30 2936 O 286.281 1.13522 -1.4136 0
M  V30 2937 C 286.329 -1.9924 -3.00559 0
M  V30 2938 O 285.433 -1.33007 -3.90362 0
M  V30 2939 H 284.774 -0.428973 -0.506831 0
M  V30 2940 H 287.304 -1.73521 -1.08404 0
M  V30 2941 H 287.314 -2.08854 -3.50491 0
M  V30 2942 H 285.989 -3.03342 -2.84528 0
M  V30 2943 H 284.566 -1.31848 -3.48813 0
M  V30 2944 N 286.751 1.08385 -1.14413 0
M  V30 2945 C 287.699 2.17406 -0.826888 0
M  V30 2946 C 288.693 1.6827 0.195312 0
M  V30 2947 O 289.899 1.79927 0.0513892 0
M  V30 2948 H 286.274 0.70934 -0.249681 0
M  V30 2949 H 288.245 2.41388 -1.75426 0
M  V30 2950 C 286.994 3.46215 -0.320979 0
M  V30 2951 H 286.317 3.84401 -1.0989 0
M  V30 2952 H 287.757 4.23777 -0.137549 0
M  V30 2953 C 286.216 3.23067 0.955472 0
M  V30 2954 O 286.746 3.4668 2.02918 0
M  V30 2955 N 284.952 2.7661 0.890798 0
M  V30 2956 H 284.499 2.57594 0.0168815 0
M  V30 2957 H 284.457 2.61501 1.74542 0
M  V30 2958 N 288.23 0.939286 1.26551 0
M  V30 2959 C 289.16 0.465044 2.28822 0
M  V30 2960 C 290.141 -0.480692 1.63167 0
M  V30 2961 O 291.326 -0.382955 1.90387 0
M  V30 2962 C 288.456 -0.27234 3.46231 0
M  V30 2963 C 287.41 0.58666 4.2396 0
M  V30 2964 C 286.736 -0.280573 5.33963 0
M  V30 2965 C 288.036 1.85704 4.88171 0
M  V30 2966 H 289.73 1.31979 2.68741 0
M  V30 2967 H 287.276 0.636061 1.29191 0
M  V30 2968 H 289.229 -0.615133 4.16886 0
M  V30 2969 H 287.953 -1.16121 3.0526 0
M  V30 2970 H 286.612 0.91232 3.55067 0
M  V30 2971 H 286.26 -1.16874 4.89234 0
M  V30 2972 H 285.96 0.29076 5.8688 0
M  V30 2973 H 287.484 -0.618678 6.07458 0
M  V30 2974 H 288.898 1.58161 5.51052 0
M  V30 2975 H 287.295 2.37279 5.51197 0
M  V30 2976 H 288.365 2.56957 4.11219 0
M  V30 2977 N 289.708 -1.40897 0.706093 0
M  V30 2978 C 290.933 -2.05895 0.249435 0
M  V30 2979 C 291.358 -1.52823 -1.09666 0
M  V30 2980 O 290.716 -0.659589 -1.68876 0
M  V30 2981 C 290.764 -3.59872 0.22904 0
M  V30 2982 O 289.868 -4.04708 -0.792784 0
M  V30 2983 H 289.209 -0.653206 0.119241 0
M  V30 2984 H 291.739 -1.80471 0.96391 0
M  V30 2985 H 291.749 -4.07951 0.0634791 0
M  V30 2986 H 290.424 -3.97866 1.21141 0
M  V30 2987 H 289.001 -3.68111 -0.59572 0
M  V30 2988 N 291.186 -0.45159 -1.50991 0
M  V30 2989 C 292.432 0.110237 -2.025 0
M  V30 2990 C 292.765 1.41109 -1.33424 0
M  V30 2991 O 292.04 1.89135 -0.453659 0
M  V30 2992 C 292.323 0.314271 -3.58726 0
M  V30 2993 C 292.176 -1.00623 -4.38401 0
M  V30 2994 C 293.495 1.07767 -4.26702 0
M  V30 2995 H 290.614 0.0385897 -0.735989 0
M  V30 2996 H 293.256 -0.593374 -1.80497 0
M  V30 2997 H 291.406 0.913601 -3.77605 0
M  V30 2998 H 293.078 -1.64064 -4.31139 0
M  V30 2999 H 291.321 -1.6075 -4.02917 0
M  V30 3000 H 291.992 -0.817341 -5.45915 0
M  V30 3001 H 294.468 0.56986 -4.12179 0
M  V30 3002 H 293.344 1.18921 -5.35863 0
M  V30 3003 H 293.605 2.10939 -3.88532 0
M  V30 3004 N 292.664 1.56529 -0.183458 0
M  V30 3005 C 293.596 2.15747 0.773697 0
M  V30 3006 C 294.609 1.1162 1.1851 0
M  V30 3007 O 295.798 1.3876 1.12285 0
M  V30 3008 C 292.898 2.6952 2.05456 0
M  V30 3009 C 292.071 3.98429 1.8048 0
M  V30 3010 C 291.13 4.37145 2.92901 0
M  V30 3011 O 290.156 5.04791 2.6301 0
M  V30 3012 N 291.358 3.99695 4.2098 0
M  V30 3013 H 294.123 2.98505 0.26736 0
M  V30 3014 H 291.684 1.619 -0.0010878 0
M  V30 3015 H 293.676 2.92412 2.79781 0
M  V30 3016 H 292.246 1.91282 2.47245 0
M  V30 3017 H 291.466 3.8379 0.899947 0
M  V30 3018 H 292.754 4.82597 1.61175 0
M  V30 3019 H 292.152 3.4526 4.48121 0
M  V30 3020 H 290.709 4.27562 4.9197 0
M  V30 3021 N 294.142 -0.090211 1.57342 0
M  V30 3022 C 295.092 -1.11557 1.98844 0
M  V30 3023 C 296.076 -1.35503 0.867624 0
M  V30 3024 O 297.268 -1.36113 1.13148 0
M  V30 3025 C 294.397 -2.43446 2.42051 0
M  V30 3026 C 293.483 -2.22853 3.60828 0
M  V30 3027 N 293.874 -1.72141 4.75606 0
M  V30 3028 C 292.172 -2.53401 3.67021 0
M  V30 3029 C 292.873 -1.65932 5.57531 0
M  V30 3030 N 291.849 -2.11323 5.00843 0
M  V30 3031 H 295.651 -0.716499 2.85032 0
M  V30 3032 H 293.165 -0.297567 1.59651 0
M  V30 3033 H 295.162 -3.17644 2.70014 0
M  V30 3034 H 293.822 -2.84087 1.57241 0
M  V30 3035 H 294.833 -1.41268 4.98261 0
M  V30 3036 H 291.51 -2.97532 2.92884 0
M  V30 3037 H 292.9 -1.27733 6.59647 0
M  V30 3038 N 295.62 -1.53406 -0.361157 0
M  V30 3039 C 296.552 -1.76446 -1.46286 0
M  V30 3040 C 297.565 -0.645322 -1.49464 0
M  V30 3041 O 298.754 -0.921681 -1.52864 0
M  V30 3042 C 295.854 -1.83332 -2.85031 0
M  V30 3043 C 295.027 -3.13033 -3.05498 0
M  V30 3044 C 294.086 -3.11104 -4.24383 0
M  V30 3045 O 293.112 -3.84888 -4.19344 0
M  V30 3046 N 294.314 -2.32234 -5.32022 0
M  V30 3047 H 297.079 -2.71508 -1.26899 0
M  V30 3048 H 294.64 -1.52238 -0.550915 0
M  V30 3049 H 296.632 -1.79514 -3.62708 0
M  V30 3050 H 295.202 -0.955342 -2.97644 0
M  V30 3051 H 294.422 -3.30119 -2.15442 0
M  V30 3052 H 295.71 -3.9874 -3.16044 0
M  V30 3053 H 295.108 -1.71807 -5.38979 0
M  V30 3054 H 293.665 -2.3423 -6.08259 0
M  V30 3055 N 297.098 0.621204 -1.44841 0
M  V30 3056 C 298.344 1.3826 -1.48365 0
M  V30 3057 C 298.677 1.93831 -0.119624 0
M  V30 3058 O 297.952 1.74251 0.864111 0
M  V30 3059 C 298.235 2.54058 -2.55199 0
M  V30 3060 C 298.088 2.03772 -4.00995 0
M  V30 3061 C 299.407 3.56225 -2.58442 0
M  V30 3062 H 296.526 0.501374 -0.540179 0
M  V30 3063 H 299.168 0.7015 -1.76576 0
M  V30 3064 H 297.318 3.12162 -2.31274 0
M  V30 3065 H 298.99 1.50423 -4.36086 0
M  V30 3066 H 297.233 1.34876 -4.12299 0
M  V30 3067 H 297.904 2.87185 -4.71411 0
M  V30 3068 H 300.38 3.07939 -2.79844 0
M  V30 3069 H 299.256 4.34756 -3.3508 0
M  V30 3070 H 299.517 4.10949 -1.63013 0
M  V30 3071 N 298.576 1.31904 0.862503 0
M  V30 3072 C 299.806 1.24817 1.64634 0
M  V30 3073 C 300.214 -0.187579 1.88268 0
M  V30 3074 O 299.557 -1.13253 1.44635 0
M  V30 3075 C 299.619 1.92996 3.03303 0
M  V30 3076 C 299.283 3.42336 3.02746 0
M  V30 3077 C 300.28 4.37956 2.80162 0
M  V30 3078 C 297.965 3.84147 3.2363 0
M  V30 3079 C 299.959 5.73361 2.78453 0
M  V30 3080 C 297.646 5.19663 3.21549 0
M  V30 3081 C 298.644 6.14081 2.98988 0
M  V30 3082 O 298.332 7.47118 2.96766 0
M  V30 3083 H 298.064 0.432222 0.519769 0
M  V30 3084 H 300.618 1.7445 1.08427 0
M  V30 3085 H 298.848 1.37922 3.61268 0
M  V30 3086 H 300.537 1.79723 3.63943 0
M  V30 3087 H 301.303 4.06981 2.63802 0
M  V30 3088 H 297.182 3.11083 3.40218 0
M  V30 3089 H 300.726 6.4703 2.60763 0
M  V30 3090 H 296.623 5.5027 3.37451 0
M  V30 3091 H 297.391 7.56382 3.12775 0
M  V30 3092 N 300.054 -1.07777 1.14986 0
M  V30 3093 C 301.017 -2.13041 0.845358 0
M  V30 3094 C 302.017 -1.60071 -0.152931 0
M  V30 3095 O 303.207 -1.74033 0.0761879 0
M  V30 3096 C 300.339 -3.39896 0.261383 0
M  V30 3097 H 301.532 -2.41485 1.77834 0
M  V30 3098 H 299.085 -1.23595 0.956757 0
M  V30 3099 H 299.82 -3.17091 -0.68 0
M  V30 3100 H 299.605 -3.79642 0.980514 0
M  V30 3101 H 301.095 -4.17548 0.0657687 0
M  V30 3102 N 301.532 -0.945985 -1.26051 0
M  V30 3103 C 302.948 -0.649045 -1.45807 0
M  V30 3104 C 303.148 0.796158 -1.85104 0
M  V30 3105 O 302.204 1.57233 -1.97571 0
M  V30 3106 C 303.517 -1.61458 -2.53677 0
M  V30 3107 C 305.065 -1.62481 -2.67524 0
M  V30 3108 C 305.54 -2.57776 -3.7857 0
M  V30 3109 N 307.031 -2.5609 -3.85969 0
M  V30 3110 C 307.766 -3.26508 -4.7136 0
M  V30 3111 N 307.262 -4.0637 -5.61102 0
M  V30 3112 N 309.055 -3.15437 -4.65248 0
M  V30 3113 H 301.206 -1.88005 -0.988328 0
M  V30 3114 H 303.469 -0.808198 -0.4955 0
M  V30 3115 H 303.175 -2.64644 -2.31638 0
M  V30 3116 H 303.049 -1.37036 -3.51427 0
M  V30 3117 H 305.436 -0.600167 -2.88933 0
M  V30 3118 H 305.517 -1.90958 -1.70202 0
M  V30 3119 H 305.161 -3.60361 -3.57913 0
M  V30 3120 H 305.091 -2.26587 -4.75359 0
M  V30 3121 H 307.582 -1.98105 -3.21812 0
M  V30 3122 H 307.895 -4.57042 -6.23164 0
M  V30 3123 H 306.24 -4.10469 -5.60839 0
M  V30 3124 H 309.431 -2.52525 -3.94143 0
M  V30 3125 H 309.604 -3.70584 -5.31575 0
M  V30 3126 N 303.011 1.40521 -0.713556 0
M  V30 3127 C 303.921 2.34522 -0.0606667 0
M  V30 3128 C 304.937 1.57193 0.74607 0
M  V30 3129 O 306.113 1.89591 0.679493 0
M  V30 3130 C 303.178 3.36081 0.851491 0
M  V30 3131 C 302.239 4.29286 0.0349339 0
M  V30 3132 C 301.472 5.25994 0.903649 0
M  V30 3133 O 301.695 5.28616 2.14292 0
M  V30 3134 O 300.629 6.00918 0.343723 0
M  V30 3135 H 304.455 2.91968 -0.835972 0
M  V30 3136 H 302.04 1.41681 -0.47402 0
M  V30 3137 H 303.922 3.98369 1.37404 0
M  V30 3138 H 302.597 2.81052 1.60598 0
M  V30 3139 H 301.504 3.70289 -0.532633 0
M  V30 3140 H 302.837 4.87462 -0.681287 0
M  V30 3141 N 304.489 0.459591 1.5075 0
M  V30 3142 C 305.9 0.00171547 1.867 0
M  V30 3143 C 306.251 -1.39934 1.37525 0
M  V30 3144 O 305.376 -2.03523 0.735349 0
M  V30 3145 C 305.971 -0.00366298 3.388 0
M  V30 3146 C 304.53 -0.406026 3.74204 0
M  V30 3147 C 303.677 0.38673 2.7459 0
M  V30 3148 H 306.628 0.674413 1.43657 0
M  V30 3149 H 306.649 -0.808371 3.71814 0
M  V30 3150 H 306.161 1.01617 3.74561 0
M  V30 3151 H 304.262 -1.43063 3.4404 0
M  V30 3152 H 304.375 -0.115362 4.78961 0
M  V30 3153 H 302.739 -0.158019 2.54209 0
M  V30 3154 H 303.522 1.40585 3.13194 0
M  V30 3155 N 305.967 -1.56429 0.191757 0
M  V30 3156 C 307.215 -1.97095 -0.447006 0
M  V30 3157 C 307.536 -1.07967 -1.62383 0
M  V30 3158 O 306.806 -0.150248 -1.95323 0
M  V30 3159 H 305.386 -0.727832 -0.168135 0
M  V30 3160 H 308.048 -1.92911 0.27771 0
M  V30 3161 H 307.144 -3.01848 -0.793371 0
M  V30 3162 N 307.445 0.0818655 -1.57387 0
M  V30 3163 C 308.693 0.781368 -1.86384 0
M  V30 3164 C 309.014 1.78618 -0.782342 0
M  V30 3165 O 308.284 1.94976 0.190061 0
M  V30 3166 H 306.864 0.291562 -0.687751 0
M  V30 3167 H 309.526 0.060348 -1.94807 0
M  V30 3168 H 308.622 1.3038 -2.83562 0
M  V30 3169 N 308.923 1.53595 0.353017 0
M  V30 3170 C 310.334 1.61937 0.929153 0
M  V30 3171 C 310.685 0.494686 1.89861 0
M  V30 3172 O 309.81 -0.377017 2.1309 0
M  V30 3173 C 310.405 2.93526 1.69199 0
M  V30 3174 C 308.964 3.04161 2.21727 0
M  V30 3175 C 308.111 2.57322 1.03348 0
M  V30 3176 H 311.062 1.58155 0.131431 0
M  V30 3177 H 311.083 2.82034 2.55416 0
M  V30 3178 H 310.595 3.75362 0.986144 0
M  V30 3179 H 308.696 2.26938 2.95516 0
M  V30 3180 H 308.809 4.09465 2.48748 0
M  V30 3181 H 307.173 2.12499 1.40414 0
M  V30 3182 H 307.956 3.41588 0.342428 0
M  V30 3183 N 310.401 -0.613514 1.45168 0
M  V30 3184 C 311.311 -1.75296 1.55912 0
M  V30 3185 C 312.327 -1.68244 0.443856 0
M  V30 3186 O 313.503 -1.88706 0.70371 0
M  V30 3187 C 310.568 -3.1174 1.5172 0
M  V30 3188 C 309.629 -3.30291 2.74238 0
M  V30 3189 C 308.862 -4.60226 2.70236 0
M  V30 3190 O 309.085 -5.42168 1.77229 0
M  V30 3191 O 308.019 -4.81361 3.61352 0
M  V30 3192 H 311.845 -1.69183 2.52212 0
M  V30 3193 H 309.43 -0.776886 1.27612 0
M  V30 3194 H 311.312 -3.93044 1.51968 0
M  V30 3195 H 309.987 -3.18357 0.585697 0
M  V30 3196 H 308.894 -2.48598 2.79553 0
M  V30 3197 H 310.227 -3.28547 3.66494 0
M  V30 3198 N 311.879 -1.3236 -0.855495 0
M  V30 3199 C 312.811 -1.17052 -1.97057 0
M  V30 3200 C 313.824 -0.10574 -1.62456 0
M  V30 3201 O 315.013 -0.354619 -1.74942 0
M  V30 3202 C 312.113 -0.769305 -3.30053 0
M  V30 3203 C 311.286 -1.9222 -3.929 0
M  V30 3204 C 310.345 -1.50466 -5.04228 0
M  V30 3205 O 309.371 -2.21655 -5.24269 0
M  V30 3206 N 310.573 -0.400209 -5.79119 0
M  V30 3207 H 313.338 -2.13103 -2.1073 0
M  V30 3208 H 310.899 -1.24885 -1.0303 0
M  V30 3209 H 312.891 -0.472407 -4.01933 0
M  V30 3210 H 311.461 0.100025 -3.1244 0
M  V30 3211 H 310.681 -2.38563 -3.13817 0
M  V30 3212 H 311.969 -2.69403 -4.31624 0
M  V30 3213 H 311.367 0.192319 -5.65373 0
M  V30 3214 H 309.924 -0.162912 -6.51596 0
M  V30 3215 N 313.357 1.07166 -1.15556 0
M  V30 3216 C 314.32 2.12589 -0.856644 0
M  V30 3217 C 315.32 1.6015 0.14444 0
M  V30 3218 O 316.51 1.7399 -0.0854163 0
M  V30 3219 C 313.642 3.39753 -0.279405 0
M  V30 3220 H 314.835 2.40539 -1.79112 0
M  V30 3221 H 312.388 1.23086 -0.963298 0
M  V30 3222 H 313.123 3.17447 0.663174 0
M  V30 3223 H 312.908 3.79117 -1.00063 0
M  V30 3224 H 314.398 4.17507 -0.0879113 0
M  V30 3225 N 314.835 0.952656 1.25548 0
M  V30 3226 C 316.063 0.623496 1.97282 0
M  V30 3227 C 316.478 -0.803987 1.70826 0
M  V30 3228 O 315.835 -1.53755 0.983147 0
M  V30 3229 C 315.886 0.870209 3.5087 0
M  V30 3230 O 315.607 2.24156 3.76412 0
M  V30 3231 C 317.108 0.553164 4.39835 0
M  V30 3232 H 314.328 0.233931 0.628902 0
M  V30 3233 H 316.872 1.27649 1.59768 0
M  V30 3234 H 315.027 0.263652 3.86502 0
M  V30 3235 H 315.441 2.31021 4.70882 0
M  V30 3236 H 316.915 0.776342 5.46513 0
M  V30 3237 H 317.392 -0.512215 4.36203 0
M  V30 3238 H 317.998 1.13896 4.09766 0
M  V30 3239 N 316.313 -1.40141 0.720998 0
M  V30 3240 C 317.263 -2.27949 0.0482544 0
M  V30 3241 C 318.247 -1.43538 -0.727021 0
M  V30 3242 O 319.439 -1.6658 -0.598332 0
M  V30 3243 C 316.568 -3.32126 -0.868729 0
M  V30 3244 C 315.654 -4.24008 -0.0883515 0
M  V30 3245 N 316.045 -4.97154 0.931226 0
M  V30 3246 C 314.343 -4.4485 -0.320105 0
M  V30 3247 C 315.044 -5.64587 1.4006 0
M  V30 3248 N 314.02 -5.38787 0.721752 0
M  V30 3249 H 317.822 -2.81948 0.829609 0
M  V30 3250 H 315.336 -1.52656 0.554067 0
M  V30 3251 H 317.333 -3.93884 -1.36605 0
M  V30 3252 H 315.993 -2.79687 -1.6494 0
M  V30 3253 H 317.004 -5.01 1.31222 0
M  V30 3254 H 313.681 -4.03378 -1.07668 0
M  V30 3255 H 315.071 -6.33175 2.24808 0
M  V30 3256 N 317.792 -0.46758 -1.50504 0
M  V30 3257 C 319.039 0.0886219 -2.02306 0
M  V30 3258 C 319.367 1.40037 -1.34981 0
M  V30 3259 O 318.622 1.90136 -0.463318 0
M  V30 3260 C 318.921 0.323995 -3.55928 0
M  V30 3261 C 318.587 -0.905618 -4.41712 0
M  V30 3262 C 317.249 -1.24275 -4.64875 0
M  V30 3263 C 319.601 -1.72448 -4.91845 0
M  V30 3264 C 316.929 -2.39888 -5.35417 0
M  V30 3265 C 319.281 -2.87185 -5.63656 0
M  V30 3266 C 317.945 -3.21317 -5.85074 0
M  V30 3267 H 317.215 0.0324291 -0.74029 0
M  V30 3268 H 319.862 -0.620945 -1.81153 0
M  V30 3269 H 318.167 1.11577 -3.75577 0
M  V30 3270 H 319.864 0.76826 -3.93572 0
M  V30 3271 H 316.454 -0.632956 -4.239 0
M  V30 3272 H 320.638 -1.4772 -4.73806 0
M  V30 3273 H 315.894 -2.66611 -5.50208 0
M  V30 3274 H 320.068 -3.50985 -6.01484 0
M  V30 3275 H 317.695 -4.1101 -6.39511 0
M  V30 3276 N 319.27 1.56325 -0.20005 0
M  V30 3277 C 320.519 1.96895 0.437652 0
M  V30 3278 C 320.832 1.08999 1.62415 0
M  V30 3279 O 322.038 1.39372 2.32997 0
M  V30 3280 C 320.494 3.50198 0.830025 0
M  V30 3281 C 320.102 4.46765 -0.332461 0
M  V30 3282 C 321.846 3.99526 1.43453 0
M  V30 3283 C 319.753 5.91344 0.0811468 0
M  V30 3284 H 318.683 0.735209 0.167282 0
M  V30 3285 H 321.334 1.81148 -0.292853 0
M  V30 3286 H 319.716 3.61467 1.61734 0
M  V30 3287 H 320.89 4.47231 -1.11 0
M  V30 3288 H 319.205 4.07657 -0.848789 0
M  V30 3289 H 321.802 5.05025 1.75652 0
M  V30 3290 H 322.145 3.44122 2.34277 0
M  V30 3291 H 322.678 3.91393 0.71109 0
M  V30 3292 H 319.417 6.50685 -0.793033 0
M  V30 3293 H 318.937 5.94121 0.823445 0
M  V30 3294 H 320.616 6.44945 0.515252 0
M  V30 3295 N 320.748 -0.0735177 1.57428 0
M  V30 3296 C 322.164 -0.428264 1.53747 0
M  V30 3297 C 322.364 -1.79272 0.91998 0
M  V30 3298 O 321.42 -2.47051 0.521745 0
M  V30 3299 C 322.733 -0.370914 2.98404 0
M  V30 3300 C 324.281 -0.451224 3.0973 0
M  V30 3301 C 324.756 -0.4238 4.56035 0
M  V30 3302 N 326.247 -0.483925 4.60665 0
M  V30 3303 C 326.982 -0.484891 5.71346 0
M  V30 3304 N 326.478 -0.440775 6.91396 0
M  V30 3305 N 328.271 -0.531319 5.59583 0
M  V30 3306 H 320.422 0.819949 1.95935 0
M  V30 3307 H 322.685 0.307493 0.896745 0
M  V30 3308 H 322.391 0.564956 3.47133 0
M  V30 3309 H 322.265 -1.18176 3.5821 0
M  V30 3310 H 324.652 -1.37752 2.60976 0
M  V30 3311 H 324.733 0.388167 2.52838 0
M  V30 3312 H 324.377 0.498638 5.05446 0
M  V30 3313 H 324.307 -1.2807 5.10789 0
M  V30 3314 H 326.798 -0.522338 3.74273 0
M  V30 3315 H 327.111 -0.44539 7.71515 0
M  V30 3316 H 325.456 -0.40749 6.93804 0
M  V30 3317 H 328.647 -0.563464 4.64696 0
M  V30 3318 H 328.82 -0.528603 6.4584 0
M  V30 3319 N 322.226 -1.5378 -0.344866 0
M  V30 3320 C 323.189 -1.80981 -1.40637 0
M  V30 3321 C 324.189 -0.680816 -1.45676 0
M  V30 3322 O 325.379 -0.949095 -1.46075 0
M  V30 3323 C 322.511 -1.95063 -2.79577 0
M  V30 3324 H 323.704 -2.75803 -1.17783 0
M  V30 3325 H 321.257 -1.45173 -0.579181 0
M  V30 3326 H 321.992 -1.02379 -3.07716 0
M  V30 3327 H 321.777 -2.77198 -2.77315 0
M  V30 3328 H 323.267 -2.17629 -3.56409 0
M  V30 3329 N 323.704 0.605807 -1.45491 0
M  V30 3330 C 324.652 1.73754 -1.54636 0
M  V30 3331 C 325.646 1.64207 -0.416219 0
M  V30 3332 O 326.852 1.69979 -0.592199 0
M  V30 3333 H 323.227 0.574073 -0.485741 0
M  V30 3334 H 325.198 1.63169 -2.49837 0
M  V30 3335 C 323.947 3.12135 -1.53189 0
M  V30 3336 H 323.27 3.20141 -2.39478 0
M  V30 3337 H 324.71 3.91147 -1.63645 0
M  V30 3338 C 323.169 3.35921 -0.256616 0
M  V30 3339 O 323.699 3.96194 0.662798 0
M  V30 3340 N 321.905 2.90204 -0.151751 0
M  V30 3341 H 321.452 2.41336 -0.90081 0
M  V30 3342 H 321.41 3.06492 0.700699 0
M  V30 3343 N 325.182 1.32811 0.848464 0
M  V30 3344 C 326.43 1.23479 1.59991 0
M  V30 3345 C 326.751 -0.201853 1.93952 0
M  V30 3346 O 326.021 -1.12818 1.60153 0
M  V30 3347 H 324.601 0.454034 0.593179 0
M  V30 3348 H 327.263 1.66412 1.01455 0
M  V30 3349 H 326.359 1.82178 2.53412 0
M  V30 3350 N 326.66 -1.06551 1.16123 0
M  V30 3351 C 328.076 -1.3142 0.905585 0
M  V30 3352 C 328.276 -1.96571 -0.442964 0
M  V30 3353 O 327.332 -2.23068 -1.18308 0
M  V30 3354 C 328.645 -2.19741 2.05267 0
M  V30 3355 C 330.193 -2.33165 2.08813 0
M  V30 3356 C 330.668 -3.24838 3.22868 0
M  V30 3357 N 332.159 -3.32421 3.22568 0
M  V30 3358 C 332.894 -4.0344 4.0746 0
M  V30 3359 N 332.39 -4.77003 5.02434 0
M  V30 3360 N 334.183 -3.99464 3.95456 0
M  V30 3361 H 326.334 -0.626548 2.02949 0
M  V30 3362 H 328.597 -0.338777 0.8854 0
M  V30 3363 H 328.303 -1.79142 3.02657 0
M  V30 3364 H 328.177 -3.20313 1.99198 0
M  V30 3365 H 330.564 -2.73013 1.12018 0
M  V30 3366 H 330.645 -1.3227 2.18948 0
M  V30 3367 H 330.289 -2.85708 4.19921 0
M  V30 3368 H 330.219 -4.25707 3.0997 0
M  V30 3369 H 332.71 -2.79994 2.53795 0
M  V30 3370 H 333.023 -5.28712 5.63634 0
M  V30 3371 H 331.368 -4.75992 5.06415 0
M  V30 3372 H 334.559 -3.4111 3.20564 0
M  V30 3373 H 334.732 -4.54544 4.61837 0
M  V30 3374 N 328.138 -0.959301 -1.25041 0
M  V30 3375 C 329.387 -0.612254 -1.92183 0
M  V30 3376 C 329.7 0.855347 -1.75907 0
M  V30 3377 O 330.906 1.31256 -2.37664 0
M  V30 3378 C 329.362 -1.04435 -3.44414 0
M  V30 3379 C 328.97 -2.53482 -3.69393 0
M  V30 3380 C 330.714 -0.770055 -4.17457 0
M  V30 3381 C 328.621 -2.90468 -5.15153 0
M  V30 3382 H 327.551 -0.225279 -0.719559 0
M  V30 3383 H 330.202 -1.16438 -1.41825 0
M  V30 3384 H 328.584 -0.4206 -3.9376 0
M  V30 3385 H 329.758 -3.20916 -3.30681 0
M  V30 3386 H 328.073 -2.78432 -3.0962 0
M  V30 3387 H 330.67 -1.02249 -5.24832 0
M  V30 3388 H 331.013 0.293611 -4.15263 0
M  V30 3389 H 331.546 -1.35437 -3.74034 0
M  V30 3390 H 328.285 -3.95871 -5.22462 0
M  V30 3391 H 327.805 -2.27711 -5.54894 0
M  V30 3392 H 329.484 -2.79914 -5.83315 0
M  V30 3393 N 329.616 1.39756 -0.72842 0
M  V30 3394 C 330.862 2.00942 -0.273892 0
M  V30 3395 C 331.195 1.57656 1.13394 0
M  V30 3396 O 330.47 0.802434 1.77176 0
M  V30 3397 C 330.753 3.58211 -0.368346 0
M  V30 3398 C 330.606 4.11534 -1.81548 0
M  V30 3399 C 331.925 4.39372 0.253054 0
M  V30 3400 H 329.044 0.730047 -0.100996 0
M  V30 3401 H 331.686 1.66056 -0.923337 0
M  V30 3402 H 329.836 3.88061 0.184588 0
M  V30 3403 H 331.508 3.92431 -2.42478 0
M  V30 3404 H 329.751 3.65341 -2.33898 0
M  V30 3405 H 330.422 5.20682 -1.83288 0
M  V30 3406 H 332.898 4.15527 -0.218224 0
M  V30 3407 H 331.774 5.48677 0.156585 0
M  V30 3408 H 332.035 4.21358 1.33826 0
M  V30 3409 N 331.094 0.475555 1.50254 0
M  V30 3410 C 332.324 -0.0753399 2.06463 0
M  V30 3411 C 332.732 -1.33661 1.33908 0
M  V30 3412 O 332.075 -1.79219 0.403257 0
M  V30 3413 C 332.137 -0.424921 3.5698 0
M  V30 3414 C 331.801 0.734965 4.51051 0
M  V30 3415 C 332.798 1.61827 4.94073 0
M  V30 3416 C 330.483 0.926557 4.9368 0
M  V30 3417 C 332.477 2.67754 5.78434 0
M  V30 3418 C 330.164 1.98904 5.77824 0
M  V30 3419 C 331.162 2.8629 6.20103 0
M  V30 3420 O 330.85 3.90708 7.02568 0
M  V30 3421 H 330.582 0.00576308 0.675975 0
M  V30 3422 H 333.136 0.664662 1.94349 0
M  V30 3423 H 331.366 -1.21817 3.67012 0
M  V30 3424 H 333.055 -0.911422 3.95535 0
M  V30 3425 H 333.821 1.48196 4.61804 0
M  V30 3426 H 329.7 0.25584 4.6029 0
M  V30 3427 H 333.244 3.35992 6.11355 0
M  V30 3428 H 329.141 2.12541 6.09505 0
M  V30 3429 H 329.909 3.87751 7.20827 0
M  V30 3430 N 332.573 -1.56217 0.208337 0
M  V30 3431 C 333.822 -1.97124 -0.427204 0
M  V30 3432 C 334.135 -1.09859 -1.61835 0
M  V30 3433 O 335.341 -1.40606 -2.32255 0
M  V30 3434 C 333.797 -3.50633 -0.811442 0
M  V30 3435 C 333.405 -4.46582 0.35615 0
M  V30 3436 C 335.149 -4.00282 -1.41332 0
M  V30 3437 C 333.056 -5.91379 -0.0497852 0
M  V30 3438 H 331.986 -0.736086 -0.163381 0
M  V30 3439 H 334.637 -1.8099 0.302456 0
M  V30 3440 H 333.019 -3.62319 -1.59815 0
M  V30 3441 H 334.193 -4.46636 1.1337 0
M  V30 3442 H 332.508 -4.07202 0.870396 0
M  V30 3443 H 335.105 -5.0595 -1.72972 0
M  V30 3444 H 335.448 -3.45359 -2.32449 0
M  V30 3445 H 335.981 -3.91764 -0.690323 0
M  V30 3446 H 332.72 -6.50255 0.827529 0
M  V30 3447 H 332.24 -5.94549 -0.791926 0
M  V30 3448 H 333.919 -6.45209 -0.481042 0
M  V30 3449 N 334.051 0.0651679 -1.57465 0
M  V30 3450 C 335.291 0.768329 -1.8941 0
M  V30 3451 C 335.655 1.74406 -0.802894 0
M  V30 3452 O 336.856 2.49281 -1.0056 0
M  V30 3453 C 335.127 1.45199 -3.26576 0
M  V30 3454 S 336.686 2.1893 -3.80283 0
M  V30 3455 H 333.504 0.255359 -0.663561 0
M  V30 3456 H 336.106 0.024167 -1.95485 0
M  V30 3457 H 334.81 0.728123 -4.03889 0
M  V30 3458 H 334.341 2.23545 -3.23715 0
M  V30 3459 H 336.356 3.45551 -3.56102 0
M  V30 3460 N 335.529 1.53961 0.336706 0
M  V30 3461 C 336.777 1.71197 1.07405 0
M  V30 3462 C 337.098 0.481475 1.88962 0
M  V30 3463 O 336.368 -0.504585 1.8929 0
M  V30 3464 H 334.948 0.631185 0.399517 0
M  V30 3465 H 337.61 1.91232 0.376323 0
M  V30 3466 H 336.706 2.58587 1.74755 0
M  V30 3467 N 337.007 -0.598083 1.45811 0
M  V30 3468 C 338.418 -1.18011 1.44673 0
M  V30 3469 C 338.769 -1.95378 0.179364 0
M  V30 3470 O 337.894 -2.04124 -0.718509 0
M  V30 3471 C 338.489 -2.14677 2.62105 0
M  V30 3472 C 337.048 -2.68236 2.64057 0
M  V30 3473 C 336.195 -1.43816 2.37091 0
M  V30 3474 H 339.146 -0.38686 1.53913 0
M  V30 3475 H 339.167 -2.97878 2.36746 0
M  V30 3476 H 338.679 -1.5834 3.5433 0
M  V30 3477 H 336.78 -3.28486 1.75864 0
M  V30 3478 H 336.893 -3.12021 3.63566 0
M  V30 3479 H 335.257 -1.731 1.86838 0
M  V30 3480 H 336.04 -0.893333 3.31473 0
M  V30 3481 N 338.485 -1.33259 -0.841409 0
M  V30 3482 C 339.415 -1.25926 -1.96634 0
M  V30 3483 C 340.396 -0.140349 -1.6952 0
M  V30 3484 O 341.581 -0.329707 -1.91381 0
M  V30 3485 C 338.711 -0.99512 -3.32738 0
M  V30 3486 C 337.665 -2.0767 -3.74242 0
M  V30 3487 C 336.991 -1.66474 -5.08125 0
M  V30 3488 C 338.291 -3.49318 -3.88297 0
M  V30 3489 H 339.985 -2.20046 -2.03027 0
M  V30 3490 H 337.531 -1.05931 -0.975425 0
M  V30 3491 H 339.484 -0.930323 -4.11002 0
M  V30 3492 H 338.208 -0.0183004 -3.26595 0
M  V30 3493 H 336.867 -2.13187 -2.98239 0
M  V30 3494 H 336.515 -0.675012 -4.9845 0
M  V30 3495 H 336.215 -2.3885 -5.36865 0
M  V30 3496 H 337.739 -1.61455 -5.88867 0
M  V30 3497 H 339.153 -3.46316 -4.56879 0
M  V30 3498 H 337.55 -4.20158 -4.28471 0
M  V30 3499 H 338.62 -3.8801 -2.9082 0
M  V30 3500 N 339.963 1.05934 -1.16686 0
M  V30 3501 C 340.873 2.17014 -0.891183 0
M  V30 3502 C 341.889 1.73453 0.137907 0
M  V30 3503 O 343.065 2.01361 -0.039592 0
M  V30 3504 C 340.13 3.44384 -0.400099 0
M  V30 3505 C 339.191 4.02433 -1.49486 0
M  V30 3506 C 338.424 5.23723 -1.02711 0
M  V30 3507 O 338.647 5.7027 0.121716 0
M  V30 3508 O 337.581 5.7382 -1.81699 0
M  V30 3509 H 341.407 2.43113 -1.82015 0
M  V30 3510 H 338.992 1.15541 -0.947132 0
M  V30 3511 H 340.874 4.21189 -0.133392 0
M  V30 3512 H 339.549 3.19802 0.500817 0
M  V30 3513 H 338.456 3.27102 -1.81535 0
M  V30 3514 H 339.789 4.31317 -2.37121 0
M  V30 3515 N 341.441 0.965919 1.2453 0
M  V30 3516 C 342.374 0.4393 2.23932 0
M  V30 3517 C 343.352 -0.485615 1.55179 0
M  V30 3518 O 344.536 -0.417402 1.83821 0
M  V30 3519 C 341.663 -0.366042 3.36716 0
M  V30 3520 C 340.709 0.5009 4.23548 0
M  V30 3521 S 341.542 1.94002 4.99123 0
M  V30 3522 C 342.698 1.14342 6.15367 0
M  V30 3523 H 342.931 1.28167 2.68254 0
M  V30 3524 H 340.464 0.770819 1.33782 0
M  V30 3525 H 342.422 -0.824724 4.0213 0
M  V30 3526 H 341.083 -1.18337 2.90956 0
M  V30 3527 H 340.276 -0.117341 5.03863 0
M  V30 3528 H 339.878 0.89524 3.63127 0
M  V30 3529 H 342.17 0.397572 6.76332 0
M  V30 3530 H 343.113 1.92089 6.81548 0
M  V30 3531 H 343.521 0.668579 5.60527 0
M  V30 3532 N 342.919 -1.39368 0.735821 0
M  V30 3533 C 343.849 -2.33234 0.111506 0
M  V30 3534 C 344.83 -1.53954 -0.723334 0
M  V30 3535 O 346.015 -1.82344 -0.668147 0
M  V30 3536 C 343.145 -3.38057 -0.795917 0
M  V30 3537 C 342.099 -4.2795 -0.065172 0
M  V30 3538 C 341.425 -5.23479 -1.08967 0
M  V30 3539 C 342.725 -5.10741 1.09273 0
M  V30 3540 H 344.419 -2.85692 0.895571 0
M  V30 3541 H 341.965 -1.37364 0.432109 0
M  V30 3542 H 343.918 -4.02675 -1.24221 0
M  V30 3543 H 342.642 -2.8404 -1.61211 0
M  V30 3544 H 341.301 -3.64813 0.361511 0
M  V30 3545 H 340.949 -4.65758 -1.89944 0
M  V30 3546 H 340.649 -5.84472 -0.605489 0
M  V30 3547 H 342.173 -5.90974 -1.53565 0
M  V30 3548 H 343.587 -5.68699 0.724841 0
M  V30 3549 H 341.984 -5.8088 1.50659 0
M  V30 3550 H 343.054 -4.45525 1.91404 0
M  V30 3551 N 344.397 -0.483516 -1.5 0
M  V30 3552 C 345.347 0.32306 -2.257 0
M  V30 3553 C 346.331 0.950755 -1.29805 0
M  V30 3554 O 347.523 0.861247 -1.54634 0
M  V30 3555 C 344.652 1.39724 -3.13579 0
M  V30 3556 C 343.738 0.776663 -4.16928 0
M  V30 3557 N 344.129 -0.1104 -5.0568 0
M  V30 3558 C 342.427 1.03922 -4.33724 0
M  V30 3559 C 343.128 -0.46387 -5.79848 0
M  V30 3560 N 342.104 0.163987 -5.43353 0
M  V30 3561 H 345.906 -0.360086 -2.91686 0
M  V30 3562 H 343.42 -0.298456 -1.59634 0
M  V30 3563 H 345.417 1.98837 -3.66428 0
M  V30 3564 H 344.077 2.08225 -2.49143 0
M  V30 3565 H 345.088 -0.480069 -5.1567 0
M  V30 3566 H 341.765 1.71829 -3.80501 0
M  V30 3567 H 343.155 -1.18854 -6.61304 0
M  V30 3568 N 345.875 1.56104 -0.216619 0
M  V30 3569 C 346.785 2.23694 0.706982 0
M  V30 3570 C 347.801 1.24295 1.21765 0
M  V30 3571 O 348.977 1.57094 1.2603 0
M  V30 3572 C 346.042 2.8998 1.90033 0
M  V30 3573 C 345.103 4.04708 1.43213 0
M  V30 3574 C 344.336 4.67824 2.56859 0
M  V30 3575 O 344.559 4.29913 3.74874 0
M  V30 3576 O 343.493 5.56905 2.28343 0
M  V30 3577 H 347.319 3.03272 0.161235 0
M  V30 3578 H 344.904 1.49394 0.0136177 0
M  V30 3579 H 346.786 3.31837 2.59735 0
M  V30 3580 H 345.461 2.13365 2.43428 0
M  V30 3581 H 344.368 3.6743 0.70327 0
M  V30 3582 H 345.701 4.83051 0.944615 0
M  V30 3583 N 347.353 -0.0568162 1.57498 0
M  V30 3584 C 348.602 -0.752001 1.87157 0
M  V30 3585 C 348.915 -1.77978 0.811375 0
M  V30 3586 O 350.121 -2.52559 0.996293 0
M  V30 3587 C 348.577 -1.38844 3.3204 0
M  V30 3588 C 348.185 -0.398456 4.46225 0
M  V30 3589 C 349.929 -2.06512 3.70882 0
M  V30 3590 C 347.836 -1.04166 5.82154 0
M  V30 3591 H 346.766 -0.28461 0.698222 0
M  V30 3592 H 349.417 -0.00561272 1.83499 0
M  V30 3593 H 347.799 -2.1836 3.30356 0
M  V30 3594 H 348.973 0.367977 4.59328 0
M  V30 3595 H 347.288 0.174592 4.16034 0
M  V30 3596 H 349.885 -2.55437 4.6974 0
M  V30 3597 H 350.228 -2.87117 3.01445 0
M  V30 3598 H 350.761 -1.33808 3.7462 0
M  V30 3599 H 347.5 -0.275614 6.5492 0
M  V30 3600 H 347.02 -1.7786 5.72823 0
M  V30 3601 H 348.699 -1.55715 6.27982 0
M  V30 3602 N 348.832 -1.54138 -0.328536 0
M  V30 3603 C 349.762 -1.86167 -1.40939 0
M  V30 3604 C 350.743 -0.718044 -1.54202 0
M  V30 3605 O 351.928 -0.971328 -1.68163 0
M  V30 3606 C 349.058 -2.08461 -2.77779 0
M  V30 3607 C 348.012 -3.24299 -2.7931 0
M  V30 3608 C 347.338 -3.31955 -4.19178 0
M  V30 3609 C 348.638 -4.62065 -2.43502 0
M  V30 3610 H 350.332 -2.76689 -1.14383 0
M  V30 3611 H 347.878 -1.33132 -0.548806 0
M  V30 3612 H 349.831 -2.29453 -3.53454 0
M  V30 3613 H 348.555 -1.14684 -3.05802 0
M  V30 3614 H 347.214 -3.03187 -2.0609 0
M  V30 3615 H 346.862 -2.35745 -4.44335 0
M  V30 3616 H 346.562 -4.09805 -4.2111 0
M  V30 3617 H 348.086 -3.55175 -4.96672 0
M  V30 3618 H 349.5 -4.8297 -3.08889 0
M  V30 3619 H 347.897 -5.42429 -2.56693 0
M  V30 3620 H 348.967 -4.64652 -1.38659 0
M  V30 3621 N 350.31 0.590341 -1.46126 0
M  V30 3622 C 351.24 1.71032 -1.58966 0
M  V30 3623 C 352.221 1.64302 -0.440335 0
M  V30 3624 O 353.406 1.82436 -0.665634 0
M  V30 3625 C 350.536 3.09665 -1.57241 0
M  V30 3626 C 349.49 3.31221 -2.71066 0
M  V30 3627 C 348.816 4.70303 -2.54399 0
M  V30 3628 C 350.116 3.19796 -4.1295 0
M  V30 3629 H 351.81 1.60543 -2.52718 0
M  V30 3630 H 349.356 0.770933 -1.21625 0
M  V30 3631 H 351.309 3.87831 -1.64819 0
M  V30 3632 H 350.033 3.21036 -0.600289 0
M  V30 3633 H 348.692 2.55452 -2.62944 0
M  V30 3634 H 348.34 4.78429 -1.55288 0
M  V30 3635 H 348.04 4.85679 -3.30741 0
M  V30 3636 H 349.564 5.50647 -2.63857 0
M  V30 3637 H 350.978 3.87815 -4.22223 0
M  V30 3638 H 349.375 3.46696 -4.89818 0
M  V30 3639 H 350.445 2.16983 -4.33643 0
M  V30 3640 N 351.788 1.33704 0.83433 0
M  V30 3641 C 352.72 1.20172 1.9517 0
M  V30 3642 C 353.733 0.131572 1.62267 0
M  V30 3643 O 354.922 0.382406 1.74356 0
M  V30 3644 C 352.022 0.821716 3.28787 0
M  V30 3645 C 351.195 1.98446 3.89792 0
M  V30 3646 C 350.254 1.58469 5.01771 0
M  V30 3647 O 349.28 2.29968 5.20676 0
M  V30 3648 N 350.482 0.492291 5.78409 0
M  V30 3649 H 353.247 2.16429 2.07313 0
M  V30 3650 H 350.808 1.26509 1.0103 0
M  V30 3651 H 352.8 0.536291 4.01131 0
M  V30 3652 H 351.37 -0.0503058 3.1256 0
M  V30 3653 H 350.59 2.43526 3.09982 0
M  V30 3654 H 351.878 2.76236 4.27283 0
M  V30 3655 H 351.276 -0.102349 5.65607 0
M  V30 3656 H 349.833 0.266555 6.51255 0
M  V30 3657 N 353.266 -1.05314 1.17247 0
M  V30 3658 C 354.229 -2.112 0.890357 0
M  V30 3659 C 355.229 -1.60359 -0.118943 0
M  V30 3660 O 356.419 -1.73833 0.113086 0
M  V30 3661 C 353.551 -3.39266 0.333422 0
M  V30 3662 H 354.744 -2.37659 1.82916 0
M  V30 3663 H 352.297 -1.21538 0.982758 0
M  V30 3664 H 353.032 -3.18462 -0.612587 0
M  V30 3665 H 352.817 -3.77477 1.06082 0
M  V30 3666 H 354.307 -4.17315 0.154322 0
M  V30 3667 N 354.744 -0.972509 -1.24016 0
M  V30 3668 C 355.676 -0.464375 -2.24446 0
M  V30 3669 C 356.689 0.4295 -1.57032 0
M  V30 3670 O 357.878 0.234902 -1.76948 0
M  V30 3671 C 354.978 0.348385 -3.37105 0
M  V30 3672 C 354.151 -0.53673 -4.34094 0
M  V30 3673 C 353.21 0.220838 -5.25736 0
M  V30 3674 O 352.236 -0.386867 -5.67884 0
M  V30 3675 N 353.438 1.50907 -5.60542 0
M  V30 3676 H 356.203 -1.32788 -2.68677 0
M  V30 3677 H 353.764 -0.844877 -1.38107 0
M  V30 3678 H 355.756 0.863341 -3.95384 0
M  V30 3679 H 354.326 1.11285 -2.92121 0
M  V30 3680 H 353.546 -1.23261 -3.74433 0
M  V30 3681 H 354.834 -1.14022 -4.95859 0
M  V30 3682 H 354.232 2.02444 -5.28236 0
M  V30 3683 H 352.789 1.96962 -6.21329 0
M  V30 3684 N 356.222 1.38976 -0.743202 0
M  V30 3685 C 357.638 1.53984 -0.419664 0
M  V30 3686 C 357.838 1.70837 1.0685 0
M  V30 3687 O 356.894 1.7135 1.8546 0
M  V30 3688 C 358.207 2.75287 -1.20985 0
M  V30 3689 C 359.755 2.89129 -1.19889 0
M  V30 3690 C 360.23 4.13381 -1.97181 0
M  V30 3691 N 361.721 4.20437 -1.94389 0
M  V30 3692 C 362.456 5.15547 -2.50996 0
M  V30 3693 N 361.952 6.16395 -3.16274 0
M  V30 3694 N 363.745 5.07822 -2.40984 0
M  V30 3695 H 355.896 1.26285 -1.7078 0
M  V30 3696 H 358.159 0.612689 -0.723406 0
M  V30 3697 H 357.865 2.69204 -2.26323 0
M  V30 3698 H 357.739 3.68184 -0.819759 0
M  V30 3699 H 360.126 2.947 -0.153606 0
M  V30 3700 H 360.207 1.97272 -1.62841 0
M  V30 3701 H 359.851 4.08572 -3.01714 0
M  V30 3702 H 359.781 5.04298 -1.51629 0
M  V30 3703 H 362.272 3.48205 -1.46839 0
M  V30 3704 H 362.585 6.85443 -3.56915 0
M  V30 3705 H 360.93 6.16758 -3.20367 0
M  V30 3706 H 364.121 4.27973 -1.89622 0
M  V30 3707 H 364.294 5.81767 -2.85397 0
M  V30 3708 N 357.7 0.491464 1.49741 0
M  V30 3709 C 358.61 -0.296835 2.32715 0
M  V30 3710 C 359.626 -0.976536 1.44013 0
M  V30 3711 O 360.802 -0.960023 1.77047 0
M  V30 3712 C 357.867 -1.35288 3.19215 0
M  V30 3713 C 356.928 -0.687632 4.23757 0
M  V30 3714 C 356.161 -1.69336 5.06123 0
M  V30 3715 O 356.384 -2.92219 4.89861 0
M  V30 3716 O 355.318 -1.25394 5.88693 0
M  V30 3717 H 359.144 0.382048 3.01287 0
M  V30 3718 H 356.729 0.252953 1.47243 0
M  V30 3719 H 358.611 -1.96411 3.72828 0
M  V30 3720 H 357.286 -2.01487 2.53347 0
M  V30 3721 H 356.193 -0.0369159 3.74082 0
M  V30 3722 H 357.526 -0.0682566 4.92153 0
M  V30 3723 N 359.178 -1.55987 0.224894 0
M  V30 3724 C 360.126 -2.21808 -0.700283 0
M  V30 3725 C 361.12 -1.19854 -1.19714 0
M  V30 3726 O 362.326 -1.37925 -1.15658 0
M  V30 3727 H 358.701 -0.711226 -0.244258 0
M  V30 3728 H 360.672 -2.98152 -0.121749 0
M  V30 3729 C 359.421 -2.91444 -1.8962 0
M  V30 3730 H 358.744 -3.69655 -1.52299 0
M  V30 3731 H 360.184 -3.40894 -2.52125 0
M  V30 3732 C 358.643 -1.94098 -2.75368 0
M  V30 3733 O 359.173 -1.46004 -3.74227 0
M  V30 3734 N 357.379 -1.61675 -2.41474 0
M  V30 3735 H 356.926 -2.00979 -1.61137 0
M  V30 3736 H 356.884 -0.968036 -2.99126 0
M  V30 3737 N 360.656 0.0484629 -1.57525 0
M  V30 3738 C 361.586 1.0549 -2.08313 0
M  V30 3739 C 362.567 1.38929 -0.981463 0
M  V30 3740 O 363.752 1.48151 -1.25558 0
M  V30 3741 C 360.882 2.36162 -2.54646 0
M  V30 3742 C 359.836 2.17016 -3.68901 0
M  V30 3743 C 359.162 3.53278 -4.01371 0
M  V30 3744 C 360.462 1.57219 -4.98076 0
M  V30 3745 H 362.156 0.632195 -2.92649 0
M  V30 3746 H 359.702 0.302654 -1.40784 0
M  V30 3747 H 361.655 3.06882 -2.88793 0
M  V30 3748 H 360.379 2.80456 -1.67368 0
M  V30 3749 H 359.038 1.48733 -3.35073 0
M  V30 3750 H 358.686 3.95185 -3.11188 0
M  V30 3751 H 358.386 3.41299 -4.78318 0
M  V30 3752 H 359.91 4.25391 -4.38035 0
M  V30 3753 H 361.324 2.17832 -5.30304 0
M  V30 3754 H 359.721 1.55871 -5.79503 0
M  V30 3755 H 360.791 0.535956 -4.81929 0
M  V30 3756 N 362.134 1.5431 0.320358 0
M  V30 3757 C 363.362 1.76636 1.07738 0
M  V30 3758 C 363.777 0.51649 1.81598 0
M  V30 3759 O 363.134 -0.512942 1.75143 0
M  V30 3760 C 363.185 2.96158 2.07299 0
M  V30 3761 O 362.906 4.16313 1.36438 0
M  V30 3762 C 364.407 3.3072 2.95193 0
M  V30 3763 H 361.627 0.589597 0.320339 0
M  V30 3764 H 364.171 2.01207 0.36551 0
M  V30 3765 H 362.326 2.73851 2.74016 0
M  V30 3766 H 362.74 4.83565 2.03138 0
M  V30 3767 H 364.214 4.17643 3.60941 0
M  V30 3768 H 364.691 2.48026 3.62463 0
M  V30 3769 H 365.297 3.55117 2.34034 0
M  V30 3770 N 363.613 -0.582584 1.46437 0
M  V30 3771 C 364.561 -1.71272 1.5738 0
M  V30 3772 C 365.555 -1.63524 0.44229 0
M  V30 3773 O 366.761 -1.69016 0.619166 0
M  V30 3774 H 363.136 -0.566273 0.494813 0
M  V30 3775 H 365.107 -1.59174 2.52401 0
M  V30 3776 C 363.856 -3.09658 1.58136 0
M  V30 3777 H 363.179 -3.16291 2.44541 0
M  V30 3778 H 364.619 -3.88494 1.69847 0
M  V30 3779 C 363.078 -3.3547 0.310026 0
M  V30 3780 O 363.608 -3.97199 -0.599683 0
M  V30 3781 N 361.814 -2.89925 0.197901 0
M  V30 3782 H 361.361 -2.39873 0.93909 0
M  V30 3783 H 361.319 -3.07568 -0.65185 0
M  V30 3784 N 365.091 -1.34144 -0.827227 0
M  V30 3785 C 366.339 -1.26009 -1.58007 0
M  V30 3786 C 366.66 0.170971 -1.94249 0
M  V30 3787 O 365.93 1.10256 -1.61927 0
M  V30 3788 H 364.51 -0.463414 -0.585881 0
M  V30 3789 H 367.172 -1.68005 -0.987951 0
M  V30 3790 H 366.268 -1.86187 -2.50481 0
M  V30 3791 N 366.569 1.04691 -1.17803 0
M  V30 3792 C 367.846 1.7472 -0.879328 0
M  V30 3793 C 368.226 2.01812 0.619271 0
M  V30 3794 O 367.574 1.65824 1.57209 0
M  V30 3795 C 367.784 3.03686 -1.71976 0
M  V30 3796 C 369.132 3.77542 -1.94286 0
M  V30 3797 O 370.156 3.13569 -1.68976 0
M  V30 3798 O 369.015 4.92506 -2.36855 0
M  V30 3799 H 366.109 0.760011 -0.326056 0
M  V30 3800 H 368.655 1.10813 -1.28525 0
M  V30 3801 H 367.427 2.79754 -2.73594 0
M  V30 3802 H 367.05 3.75332 -1.31194 0
M  V30 3803 N 368.047 0.979072 1.23499 0
M  V30 3804 C 369.277 0.664237 1.95631 0
M  V30 3805 C 369.685 -0.772653 1.72704 0
M  V30 3806 O 369.028 -1.53141 1.01457 0
M  V30 3807 C 369.09 0.873115 3.48736 0
M  V30 3808 C 368.754 2.29182 3.95379 0
M  V30 3809 C 369.751 3.2704 4.04155 0
M  V30 3810 C 367.436 2.62256 4.28401 0
M  V30 3811 C 369.43 4.56052 4.45304 0
M  V30 3812 C 367.117 3.91491 4.69231 0
M  V30 3813 C 368.115 4.88201 4.77649 0
M  V30 3814 O 367.803 6.15129 5.17563 0
M  V30 3815 H 367.535 0.245915 0.629684 0
M  V30 3816 H 370.089 1.3127 1.57979 0
M  V30 3817 H 368.319 0.167476 3.86337 0
M  V30 3818 H 370.008 0.555642 4.02079 0
M  V30 3819 H 370.774 3.02819 3.78848 0
M  V30 3820 H 366.653 1.87692 4.21061 0
M  V30 3821 H 370.197 5.31538 4.51789 0
M  V30 3822 H 366.094 4.15508 4.93987 0
M  V30 3823 H 366.862 6.18862 5.35679 0
M  V30 3824 N 369.525 -1.3858 0.750561 0
M  V30 3825 C 370.771 -2.00481 0.305825 0
M  V30 3826 C 371.104 -1.5944 -1.10872 0
M  V30 3827 O 370.379 -0.83052 -1.75877 0
M  V30 3828 C 370.662 -3.5758 0.425287 0
M  V30 3829 C 370.515 -4.08594 1.88072 0
M  V30 3830 C 371.834 -4.39719 -0.183122 0
M  V30 3831 H 368.953 -0.728348 0.112598 0
M  V30 3832 H 371.595 -1.64566 0.949638 0
M  V30 3833 H 369.745 -3.88306 -0.122828 0
M  V30 3834 H 371.417 -3.88523 2.48691 0
M  V30 3835 H 369.66 -3.61574 2.39681 0
M  V30 3836 H 370.331 -5.177 1.91548 0
M  V30 3837 H 372.807 -4.15128 0.284303 0
M  V30 3838 H 371.683 -5.48856 -0.0692757 0
M  V30 3839 H 371.944 -4.23434 -1.27106 0
M  V30 3840 N 371.003 -0.499398 -1.49478 0
M  V30 3841 C 372.25 0.0456899 -2.02448 0
M  V30 3842 C 372.578 1.37142 -1.37921 0
M  V30 3843 O 371.833 1.89111 -0.503544 0
M  V30 3844 C 372.132 0.248424 -3.56536 0
M  V30 3845 C 371.798 -0.999107 -4.39692 0
M  V30 3846 C 370.46 -1.34108 -4.62135 0
M  V30 3847 C 372.812 -1.82842 -4.88076 0
M  V30 3848 C 370.14 -2.51191 -5.30208 0
M  V30 3849 C 372.492 -2.99076 -5.57437 0
M  V30 3850 C 371.156 -3.33655 -5.78127 0
M  V30 3851 H 370.426 0.0167191 -0.740811 0
M  V30 3852 H 373.073 -0.65923 -1.79795 0
M  V30 3853 H 371.378 1.03586 -3.77859 0
M  V30 3854 H 373.075 0.684605 -3.95113 0
M  V30 3855 H 369.665 -0.722729 -4.22463 0
M  V30 3856 H 373.849 -1.57737 -4.70566 0
M  V30 3857 H 369.105 -2.78221 -5.44429 0
M  V30 3858 H 373.279 -3.63664 -5.93904 0
M  V30 3859 H 370.906 -4.24483 -6.30649 0
M  V30 3860 N 372.481 1.55866 -0.233164 0
M  V30 3861 C 373.728 1.98603 0.395374 0
M  V30 3862 C 374.056 1.12105 1.58942 0
M  V30 3863 O 373.311 0.168656 1.94972 0
M  V30 3864 C 373.61 3.46856 0.861724 0
M  V30 3865 C 373.276 4.50348 -0.223066 0
M  V30 3866 C 371.938 4.78371 -0.521038 0
M  V30 3867 C 374.29 5.12355 -0.956124 0
M  V30 3868 C 371.618 5.6568 -1.55638 0
M  V30 3869 C 373.97 6.00786 -1.98089 0
M  V30 3870 C 372.634 6.27148 -2.28565 0
M  V30 3871 H 371.904 0.726739 0.144677 0
M  V30 3872 H 374.551 1.88491 -0.338114 0
M  V30 3873 H 372.856 3.5423 1.67418 0
M  V30 3874 H 374.553 3.77302 1.35809 0
M  V30 3875 H 371.143 4.28596 0.0193234 0
M  V30 3876 H 375.327 4.90765 -0.739166 0
M  V30 3877 H 370.583 5.84365 -1.798 0
M  V30 3878 H 374.757 6.4788 -2.55391 0
M  V30 3879 H 372.384 6.94597 -3.08932 0
M  V30 3880 N 373.959 -0.0401083 1.57549 0
M  V30 3881 C 375.189 -0.744115 1.92734 0
M  V30 3882 C 375.597 -1.70005 0.830348 0
M  V30 3883 O 374.94 -1.82576 -0.20286 0
M  V30 3884 C 375.002 -1.56516 3.2364 0
M  V30 3885 C 374.666 -0.7752 4.50377 0
M  V30 3886 C 375.663 -0.0803326 5.19838 0
M  V30 3887 C 373.348 -0.733002 4.96923 0
M  V30 3888 C 375.342 0.646154 6.34116 0
M  V30 3889 C 373.029 -0.00276321 6.111 0
M  V30 3890 C 374.027 0.685585 6.7955 0
M  V30 3891 O 373.715 1.40399 7.91545 0
M  V30 3892 H 373.447 -0.214861 0.640945 0
M  V30 3893 H 376.001 -0.00503675 2.05399 0
M  V30 3894 H 374.231 -2.3478 3.07271 0
M  V30 3895 H 375.92 -2.15076 3.44234 0
M  V30 3896 H 376.686 -0.104035 4.84888 0
M  V30 3897 H 372.565 -1.25827 4.43496 0
M  V30 3898 H 376.109 1.18398 6.87479 0
M  V30 3899 H 372.006 0.0229012 6.45496 0
M  V30 3900 H 372.774 1.31653 8.07843 0
M  V30 3901 N 375.437 -1.54477 -0.31217 0
M  V30 3902 C 376.367 -1.87652 -1.38957 0
M  V30 3903 C 377.348 -0.734358 -1.53431 0
M  V30 3904 O 378.533 -0.98911 -1.67123 0
M  V30 3905 C 375.663 -2.11396 -2.75552 0
M  V30 3906 C 374.617 -3.27243 -2.75855 0
M  V30 3907 C 373.943 -3.36382 -4.15633 0
M  V30 3908 C 375.243 -4.64622 -2.38587 0
M  V30 3909 H 376.937 -2.77887 -1.11442 0
M  V30 3910 H 374.483 -1.33707 -0.534655 0
M  V30 3911 H 376.436 -2.33189 -3.51 0
M  V30 3912 H 375.16 -1.17921 -3.04569 0
M  V30 3913 H 373.819 -3.05356 -2.02863 0
M  V30 3914 H 373.467 -2.40445 -4.41809 0
M  V30 3915 H 373.167 -4.14249 -4.1674 0
M  V30 3916 H 374.691 -3.60422 -4.92877 0
M  V30 3917 H 376.105 -4.86219 -3.03749 0
M  V30 3918 H 374.502 -5.45121 -2.50925 0
M  V30 3919 H 375.572 -4.66097 -1.33723 0
M  V30 3920 N 376.915 0.57481 -1.46744 0
M  V30 3921 C 378.192 1.3352 -1.4294 0
M  V30 3922 C 378.572 2.10775 -0.117009 0
M  V30 3923 O 377.92 2.09966 0.901474 0
M  V30 3924 C 378.13 2.25456 -2.66403 0
M  V30 3925 C 379.478 2.87035 -3.12883 0
M  V30 3926 O 380.502 2.35766 -2.67007 0
M  V30 3927 O 379.361 3.80179 -3.92589 0
M  V30 3928 H 376.455 0.600318 -0.568812 0
M  V30 3929 H 379.001 0.595171 -1.58921 0
M  V30 3930 H 377.773 1.67851 -3.53471 0
M  V30 3931 H 377.396 3.06785 -2.52921 0
M  V30 3932 N 378.394 1.34581 0.820102 0
M  V30 3933 C 379.64 1.27285 1.57881 0
M  V30 3934 C 379.973 -0.156137 1.93571 0
M  V30 3935 O 379.248 -1.10222 1.60254 0
M  V30 3936 C 379.531 2.16639 2.87645 0
M  V30 3937 C 379.384 3.68088 2.58517 0
M  V30 3938 C 380.703 2.05378 3.8924 0
M  V30 3939 H 377.822 0.463714 0.572833 0
M  V30 3940 H 380.464 1.64859 0.944539 0
M  V30 3941 H 378.614 1.84725 3.41773 0
M  V30 3942 H 380.286 4.10382 2.10676 0
M  V30 3943 H 378.529 3.89038 1.91917 0
M  V30 3944 H 379.2 4.2598 3.51063 0
M  V30 3945 H 381.676 2.33404 3.44473 0
M  V30 3946 H 380.552 2.7012 4.77835 0
M  V30 3947 H 380.813 1.0316 4.29896 0
M  V30 3948 N 379.872 -1.04064 1.18357 0
M  V30 3949 C 381.119 -1.77265 0.978947 0
M  V30 3950 C 381.447 -1.88189 -0.491428 0
M  V30 3951 O 380.702 -1.38653 -1.38108 0
M  V30 3952 C 381.001 -3.20634 1.57888 0
M  V30 3953 C 380.667 -3.29743 3.07539 0
M  V30 3954 C 379.329 -3.31937 3.48384 0
M  V30 3955 C 381.681 -3.29841 4.03552 0
M  V30 3956 C 379.009 -3.3187 4.83818 0
M  V30 3957 C 381.361 -3.31313 5.38901 0
M  V30 3958 C 380.025 -3.31799 5.79194 0
M  V30 3959 H 379.295 -0.648659 0.358222 0
M  V30 3960 H 381.942 -1.22225 1.47422 0
M  V30 3961 H 380.247 -3.78675 1.00561 0
M  V30 3962 H 381.944 -3.75917 1.39598 0
M  V30 3963 H 378.534 -3.28757 2.74986 0
M  V30 3964 H 382.718 -3.27337 3.73047 0
M  V30 3965 H 377.974 -3.30562 5.14333 0
M  V30 3966 H 382.148 -3.30338 6.13066 0
M  V30 3967 H 379.775 -3.315 6.84114 0
M  V30 3968 N 381.35 -0.985608 -1.22978 0
M  V30 3969 C 382.598 -0.656087 -1.91154 0
M  V30 3970 C 382.919 0.813561 -1.77218 0
M  V30 3971 O 382.189 1.58244 -1.1548 0
M  V30 3972 H 380.769 -0.239674 -0.707506 0
M  V30 3973 H 383.431 -1.25054 -1.49491 0
M  V30 3974 H 382.527 -0.912253 -2.9847 0
M  V30 3975 N 382.828 1.3818 -0.7579 0
M  V30 3976 C 383.738 2.3421 -0.135247 0
M  V30 3977 C 384.754 1.59487 0.695683 0
M  V30 3978 O 385.93 1.91657 0.618832 0
M  V30 3979 C 382.995 3.3862 0.744139 0
M  V30 3980 C 382.056 4.2918 -0.101658 0
M  V30 3981 C 381.289 5.28603 0.735851 0
M  V30 3982 O 381.512 5.35166 1.97366 0
M  V30 3983 O 380.446 6.01707 0.152372 0
M  V30 3984 H 384.272 2.8916 -0.928436 0
M  V30 3985 H 381.857 1.40101 -0.518855 0
M  V30 3986 H 383.739 4.02539 1.2466 0
M  V30 3987 H 382.414 2.86019 1.51575 0
M  V30 3988 H 381.321 3.68407 -0.650167 0
M  V30 3989 H 382.654 4.85048 -0.836024 0
M  V30 3990 N 384.306 0.507319 1.49211 0
M  V30 3991 C 385.531 -0.033725 2.07373 0
M  V30 3992 C 385.956 -1.29485 1.36437 0
M  V30 3993 O 385.314 -1.76294 0.423087 0
M  V30 3994 C 385.362 -0.263945 3.59633 0
M  V30 3995 O 384.466 -1.33737 3.90113 0
M  V30 3996 H 383.807 0.0290331 0.663365 0
M  V30 3997 H 386.337 0.708749 1.91932 0
M  V30 3998 H 386.347 -0.493536 4.05004 0
M  V30 3999 H 385.022 0.657424 4.10671 0
M  V30 4000 H 383.599 -1.09224 3.56545 0
M  V30 4001 N 385.784 -1.5574 0.241426 0
M  V30 4002 C 386.714 -2.24133 -0.654722 0
M  V30 4003 C 387.695 -1.21974 -1.1856 0
M  V30 4004 O 388.88 -1.50612 -1.22595 0
M  V30 4005 C 386.01 -2.93659 -1.85423 0
M  V30 4006 C 384.964 -4.0246 -1.45636 0
M  V30 4007 C 384.29 -4.59383 -2.73626 0
M  V30 4008 C 385.59 -5.18468 -0.631506 0
M  V30 4009 H 387.284 -2.99281 -0.0844353 0
M  V30 4010 H 384.83 -1.43947 -0.0391707 0
M  V30 4011 H 386.783 -3.40203 -2.48676 0
M  V30 4012 H 385.507 -2.15991 -2.44981 0
M  V30 4013 H 384.166 -3.56676 -0.847202 0
M  V30 4014 H 383.814 -3.78422 -3.3137 0
M  V30 4015 H 383.514 -5.32826 -2.4773 0
M  V30 4016 H 385.038 -5.08658 -3.37786 0
M  V30 4017 H 386.452 -5.61272 -1.1682 0
M  V30 4018 H 384.849 -5.98266 -0.468831 0
M  V30 4019 H 385.919 -4.8358 0.357506 0
M  V30 4020 N 387.262 0.0317525 -1.57568 0
M  V30 4021 C 388.678 0.38735 -1.54828 0
M  V30 4022 C 388.878 1.7677 -0.967187 0
M  V30 4023 O 387.934 2.45581 -0.587063 0
M  V30 4024 C 389.247 0.291667 -2.99282 0
M  V30 4025 C 390.795 0.368946 -3.10818 0
M  V30 4026 C 391.27 0.302741 -4.56998 0
M  V30 4027 N 392.761 0.361617 -4.61786 0
M  V30 4028 C 393.496 0.333238 -5.72431 0
M  V30 4029 N 392.992 0.257308 -6.92322 0
M  V30 4030 N 394.785 0.382769 -5.60795 0
M  V30 4031 H 386.936 -0.871609 -1.93692 0
M  V30 4032 H 389.199 -0.331161 -0.888277 0
M  V30 4033 H 388.905 -0.656794 -3.45513 0
M  V30 4034 H 388.779 1.08638 -3.61217 0
M  V30 4035 H 391.166 1.30784 -2.64536 0
M  V30 4036 H 391.247 -0.455066 -2.5172 0
M  V30 4037 H 390.891 -0.632473 -5.03947 0
M  V30 4038 H 390.821 1.14482 -5.14005 0
M  V30 4039 H 393.312 0.422923 -3.75526 0
M  V30 4040 H 393.625 0.24068 -7.72425 0
M  V30 4041 H 391.97 0.223396 -6.94641 0
M  V30 4042 H 395.161 0.44006 -4.66027 0
M  V30 4043 H 395.334 0.357184 -6.47015 0
M  V30 4044 N 388.74 1.54641 0.303973 0
M  V30 4045 C 389.703 1.84646 1.35789 0
M  V30 4046 C 390.703 0.7192 1.4382 0
M  V30 4047 O 391.893 0.987491 1.43507 0
M  V30 4048 C 389.025 2.02407 2.74307 0
M  V30 4049 H 390.218 2.78829 1.10429 0
M  V30 4050 H 387.771 1.46658 0.540487 0
M  V30 4051 H 388.506 1.10502 3.04893 0
M  V30 4052 H 388.291 2.84453 2.69868 0
M  V30 4053 H 389.781 2.27002 3.50514 0
M  V30 4054 N 390.218 -0.567019 1.47046 0
M  V30 4055 C 391.466 -1.322 1.52864 0
M  V30 4056 C 391.787 -1.94088 0.188388 0
M  V30 4057 O 391.057 -1.7941 -0.786693 0
M  V30 4058 H 389.637 -0.490894 0.563056 0
M  V30 4059 H 392.299 -0.662879 1.83281 0
M  V30 4060 H 391.395 -2.12062 2.2899 0
M  V30 4061 N 391.696 -1.35014 -0.812953 0
M  V30 4062 C 393.107 -1.25035 -1.38648 0
M  V30 4063 C 393.458 0.119967 -1.95833 0
M  V30 4064 O 392.583 1.02069 -1.90816 0
M  V30 4065 C 393.178 -2.26394 -2.52054 0
M  V30 4066 C 391.737 -2.20175 -3.05287 0
M  V30 4067 C 390.884 -2.12451 -1.78213 0
M  V30 4068 H 393.835 -1.46235 -0.616516 0
M  V30 4069 H 393.856 -1.88672 -3.30429 0
M  V30 4070 H 393.368 -3.26116 -2.10404 0
M  V30 4071 H 391.469 -1.23841 -3.51417 0
M  V30 4072 H 391.582 -3.11863 -3.63701 0
M  V30 4073 H 389.946 -1.58328 -1.9951 0
M  V30 4074 H 390.729 -3.14024 -1.38723 0
M  V30 4075 N 393.175 1.03435 -1.18907 0
M  V30 4076 C 394.403 1.80381 -1.01342 0
M  V30 4077 C 394.818 1.83649 0.438005 0
M  V30 4078 O 394.175 1.27655 1.30424 0
M  V30 4079 C 394.226 3.25689 -1.56873 0
M  V30 4080 O 393.947 3.22673 -2.96334 0
M  V30 4081 C 395.448 4.19255 -1.44014 0
M  V30 4082 H 392.668 0.56784 -0.35749 0
M  V30 4083 H 395.212 1.30317 -1.576 0
M  V30 4084 H 393.367 3.72962 -1.04777 0
M  V30 4085 H 393.781 4.13748 -3.22355 0
M  V30 4086 H 395.255 5.19123 -1.87657 0
M  V30 4087 H 395.732 4.37467 -0.389815 0
M  V30 4088 H 396.338 3.77851 -1.95214 0
M  V30 4089 N 394.653 0.992116 1.22453 0
M  V30 4090 C 396.069 0.702713 1.43297 0
M  V30 4091 C 396.269 -0.726909 1.87932 0
M  V30 4092 O 395.325 -1.49792 2.0327 0
M  V30 4093 C 396.638 1.70762 2.47509 0
M  V30 4094 C 398.186 1.72298 2.61309 0
M  V30 4095 C 398.661 2.71649 3.68742 0
M  V30 4096 N 400.152 2.70239 3.76199 0
M  V30 4097 C 400.887 3.43778 4.58917 0
M  V30 4098 N 400.383 4.26914 5.45633 0
M  V30 4099 N 402.176 3.32487 4.5322 0
M  V30 4100 H 394.327 1.91543 0.917871 0
M  V30 4101 H 396.59 0.826031 0.465162 0
M  V30 4102 H 396.296 2.73059 2.21657 0
M  V30 4103 H 396.17 1.49985 3.46099 0
M  V30 4104 H 398.557 0.706989 2.86506 0
M  V30 4105 H 398.638 1.97143 1.62997 0
M  V30 4106 H 398.282 3.73397 3.44292 0
M  V30 4107 H 398.212 2.44074 4.66622 0
M  V30 4108 H 400.703 2.09912 3.14237 0
M  V30 4109 H 401.016 4.79855 6.05771 0
M  V30 4110 H 399.361 4.31002 5.45218 0
M  V30 4111 H 402.552 2.6698 3.84499 0
M  V30 4112 H 402.725 3.90058 5.17454 0
M  V30 4113 N 396.131 -1.37776 0.765217 0
M  V30 4114 C 397.094 -2.28686 0.153416 0
M  V30 4115 C 398.094 -1.47727 -0.635081 0
M  V30 4116 O 399.284 -1.68027 -0.459632 0
M  V30 4117 C 396.416 -3.31608 -0.790495 0
M  V30 4118 H 397.609 -2.84297 0.954723 0
M  V30 4119 H 395.162 -1.46932 0.53299 0
M  V30 4120 H 395.897 -2.81109 -1.61705 0
M  V30 4121 H 395.682 -3.9144 -0.227348 0
M  V30 4122 H 397.172 -3.99559 -1.21419 0
M  V30 4123 N 397.609 -0.515225 -1.4894 0
M  V30 4124 C 398.837 0.0206034 -2.0689 0
M  V30 4125 C 399.252 1.29514 -1.37374 0
M  V30 4126 O 398.609 1.76698 -0.456529 0
M  V30 4127 C 398.66 0.26351 -3.60538 0
M  V30 4128 O 398.381 -0.960517 -4.27441 0
M  V30 4129 C 399.882 0.841383 -4.35242 0
M  V30 4130 H 397.102 -0.0268608 -0.670462 0
M  V30 4131 H 399.646 -0.716651 -1.91532 0
M  V30 4132 H 397.801 0.950777 -3.75552 0
M  V30 4133 H 398.215 -0.73212 -5.19365 0
M  V30 4134 H 399.689 0.96085 -5.43573 0
M  V30 4135 H 400.166 1.8427 -3.98674 0
M  V30 4136 H 400.772 0.191143 -4.2487 0
M  V30 4137 N 399.087 1.5561 -0.249682 0
M  V30 4138 C 400.335 1.98618 0.373548 0
M  V30 4139 C 400.656 1.13919 1.58264 0
M  V30 4140 O 399.926 0.222637 1.94631 0
M  V30 4141 H 398.506 0.733571 0.141006 0
M  V30 4142 H 401.168 1.91748 -0.349117 0
M  V30 4143 H 400.264 3.04584 0.680796 0
M  V30 4144 N 400.565 -0.0233959 1.57583 0
M  V30 4145 C 401.981 -0.379134 1.55031 0
M  V30 4146 C 402.181 -1.76255 0.976548 0
M  V30 4147 O 401.237 -2.45266 0.600078 0
M  V30 4148 C 402.55 -0.275792 2.99433 0
M  V30 4149 C 404.098 -0.352458 3.11009 0
M  V30 4150 C 404.573 -0.278501 4.57152 0
M  V30 4151 N 406.064 -0.337123 4.61972 0
M  V30 4152 C 406.799 -0.302876 5.726 0
M  V30 4153 N 406.295 -0.220589 6.92449 0
M  V30 4154 N 408.088 -0.353023 5.6099 0
M  V30 4155 H 400.239 0.881869 1.93227 0
M  V30 4156 H 402.502 0.335867 0.886509 0
M  V30 4157 H 402.208 0.675108 3.4516 0
M  V30 4158 H 402.082 -1.06721 3.61788 0
M  V30 4159 H 404.469 -1.29379 2.65226 0
M  V30 4160 H 404.55 0.468409 2.51475 0
M  V30 4161 H 404.194 0.659189 5.03604 0
M  V30 4162 H 404.124 -1.11755 5.14605 0
M  V30 4163 H 406.615 -0.403002 3.75745 0
M  V30 4164 H 406.928 -0.199713 7.72542 0
M  V30 4165 H 405.273 -0.186555 6.9475 0
M  V30 4166 H 408.464 -0.415339 4.66254 0
M  V30 4167 H 408.637 -0.322866 6.47195 0
M  V30 4168 N 402.043 -1.548 -0.295768 0
M  V30 4169 C 403.454 -1.65274 -0.868411 0
M  V30 4170 C 403.805 -0.56481 -1.87894 0
M  V30 4171 O 402.93 0.29767 -2.14343 0
M  V30 4172 C 403.525 -2.99603 -1.58188 0
M  V30 4173 C 402.084 -3.12181 -2.10286 0
M  V30 4174 C 401.231 -2.6098 -0.93727 0
M  V30 4175 H 404.182 -1.58534 -0.0726422 0
M  V30 4176 H 404.203 -2.91319 -2.44772 0
M  V30 4177 H 403.715 -3.78764 -0.846151 0
M  V30 4178 H 401.816 -2.3775 -2.8689 0
M  V30 4179 H 401.929 -4.18415 -2.33379 0
M  V30 4180 H 400.293 -2.17564 -1.32431 0
M  V30 4181 H 401.076 -3.42623 -0.215414 0
M  V30 4182 N 403.521 0.559213 -1.47345 0
M  V30 4183 C 404.767 1.31614 -1.55079 0
M  V30 4184 C 405.122 1.91257 -0.209422 0
M  V30 4185 O 404.415 1.74796 0.784656 0
M  V30 4186 C 404.609 2.44853 -2.6035 0
M  V30 4187 C 404.438 1.96305 -4.04591 0
M  V30 4188 C 403.208 1.8024 -4.72061 0
M  V30 4189 C 405.406 1.50872 -4.91673 0
M  V30 4190 N 403.388 1.26011 -6.00828 0
M  V30 4191 C 404.759 1.08395 -6.10451 0
M  V30 4192 C 406.814 1.38905 -4.78132 0
M  V30 4193 C 405.517 0.551399 -7.17183 0
M  V30 4194 C 407.543 0.870518 -5.84958 0
M  V30 4195 C 406.905 0.455661 -7.02925 0
M  V30 4196 H 403.004 0.473712 -0.62219 0
M  V30 4197 H 405.588 0.634103 -1.84085 0
M  V30 4198 H 403.759 3.10589 -2.33215 0
M  V30 4199 H 405.491 3.11849 -2.57938 0
M  V30 4200 H 402.246 2.02895 -4.27937 0
M  V30 4201 H 402.67 1.00991 -6.69425 0
M  V30 4202 H 407.312 1.69591 -3.87297 0
M  V30 4203 H 405.03 0.232159 -8.07766 0
M  V30 4204 H 408.616 0.781507 -5.76527 0
M  V30 4205 H 407.496 0.0606414 -7.84177 0
M  V30 4206 N 404.999 1.35443 0.805782 0
M  V30 4207 C 405.931 1.24285 1.92577 0
M  V30 4208 C 406.944 0.165962 1.61952 0
M  V30 4209 O 408.133 0.419303 1.73505 0
M  V30 4210 C 405.233 0.891272 3.2697 0
M  V30 4211 C 404.406 2.06669 3.85495 0
M  V30 4212 C 403.465 1.69077 4.98297 0
M  V30 4213 O 402.491 2.4096 5.15681 0
M  V30 4214 N 403.693 0.614869 5.77234 0
M  V30 4215 H 406.458 2.20777 2.02676 0
M  V30 4216 H 404.019 1.28623 0.983243 0
M  V30 4217 H 406.011 0.621256 3.99903 0
M  V30 4218 H 404.581 0.016004 3.12596 0
M  V30 4219 H 403.801 2.50046 3.04747 0
M  V30 4220 H 405.089 2.85237 4.21328 0
M  V30 4221 H 404.487 0.017648 5.65697 0
M  V30 4222 H 403.044 0.404636 6.50543 0
M  V30 4223 N 406.477 -1.02803 1.19454 0
M  V30 4224 C 407.754 -1.73299 0.907013 0
M  V30 4225 C 408.134 -2.02772 -0.587086 0
M  V30 4226 O 407.482 -1.68304 -1.54551 0
M  V30 4227 C 407.692 -3.00912 1.76785 0
M  V30 4228 C 409.04 -3.74403 2.00268 0
M  V30 4229 O 410.064 -3.10841 1.73943 0
M  V30 4230 O 408.923 -4.88675 2.4466 0
M  V30 4231 H 406.017 -0.754727 0.338106 0
M  V30 4232 H 408.563 -1.08754 1.30271 0
M  V30 4233 H 407.335 -2.75366 2.7801 0
M  V30 4234 H 406.958 -3.73197 1.37149 0
M  V30 4235 N 407.956 -0.998596 -1.21925 0
M  V30 4236 C 408.904 -0.546641 -2.26085 0
M  V30 4237 C 409.898 0.405576 -1.64473 0
M  V30 4238 O 411.104 0.277471 -1.77849 0
M  V30 4239 H 407.479 -0.158403 -0.735127 0
M  V30 4240 H 409.45 -1.43645 -2.61551 0
M  V30 4241 C 408.199 0.117388 -3.47502 0
M  V30 4242 H 407.522 -0.606277 -3.95176 0
M  V30 4243 H 408.962 0.396993 -4.22137 0
M  V30 4244 C 407.421 1.35455 -3.0847 0
M  V30 4245 O 407.951 2.44944 -3.18379 0
M  V30 4246 N 406.157 1.23191 -2.63196 0
M  V30 4247 H 405.704 0.341006 -2.55333 0
M  V30 4248 H 405.662 2.06071 -2.37449 0
M  V30 4249 N 409.434 1.37368 -0.772513 0
M  V30 4250 C 410.85 1.53059 -0.452231 0
M  V30 4251 C 411.05 1.73065 1.03203 0
M  V30 4252 O 410.106 1.75245 1.81784 0
M  V30 4253 C 411.419 2.72659 -1.26797 0
M  V30 4254 C 412.967 2.86521 -1.25995 0
M  V30 4255 C 413.442 4.09105 -2.05905 0
M  V30 4256 N 414.933 4.16219 -2.03263 0
M  V30 4257 C 415.668 5.10107 -2.61875 0
M  V30 4258 N 415.164 6.09547 -3.29278 0
M  V30 4259 N 416.957 5.02596 -2.51701 0
M  V30 4260 H 409.108 1.22634 -1.7342 0
M  V30 4261 H 411.371 0.597206 -0.736239 0
M  V30 4262 H 411.077 2.64343 -2.31982 0
M  V30 4263 H 410.951 3.66363 -0.897672 0
M  V30 4264 H 413.338 2.94308 -0.216081 0
M  V30 4265 H 413.419 1.93774 -1.66989 0
M  V30 4266 H 413.063 4.0208 -3.10313 0
M  V30 4267 H 412.993 5.00968 -1.62292 0
M  V30 4268 H 415.484 3.45012 -1.54192 0
M  V30 4269 H 415.797 6.77718 -3.71374 0
M  V30 4270 H 414.142 6.09824 -3.33377 0
M  V30 4271 H 417.333 4.23855 -1.98657 0
M  V30 4272 H 417.506 5.75582 -2.97673 0
M  V30 4273 N 410.912 0.523116 1.48665 0
M  V30 4274 C 412.14 -0.0096312 2.06898 0
M  V30 4275 C 412.555 -1.28784 1.38059 0
M  V30 4276 O 411.912 -1.76453 0.465893 0
M  V30 4277 C 411.963 -0.244386 3.60673 0
M  V30 4278 O 411.684 0.983172 4.26925 0
M  V30 4279 C 413.185 -0.818289 4.35682 0
M  V30 4280 H 410.405 0.0304161 0.67031 0
M  V30 4281 H 412.949 0.726799 1.91149 0
M  V30 4282 H 411.104 -0.930847 3.76051 0
M  V30 4283 H 411.518 0.759653 5.1897 0
M  V30 4284 H 412.992 -0.93201 5.44075 0
M  V30 4285 H 413.469 -1.82153 3.99646 0
M  V30 4286 H 414.075 -0.168609 4.24966 0
M  V30 4287 N 412.39 -1.55475 0.257931 0
M  V30 4288 C 413.806 -1.59307 -0.0966563 0
M  V30 4289 C 414.006 -1.27514 -1.5602 0
M  V30 4290 O 413.062 -1.02774 -2.30637 0
M  V30 4291 C 414.375 -2.99552 0.262481 0
M  V30 4292 C 415.923 -3.1231 0.207683 0
M  V30 4293 C 416.398 -4.54793 0.541012 0
M  V30 4294 N 417.889 -4.6058 0.491921 0
M  V30 4295 C 418.624 -5.68825 0.722857 0
M  V30 4296 N 418.12 -6.85287 1.0175 0
M  V30 4297 N 419.913 -5.58296 0.652815 0
M  V30 4298 H 412.064 -1.74409 1.21224 0
M  V30 4299 H 414.327 -0.812424 0.48854 0
M  V30 4300 H 414.033 -3.27593 1.27967 0
M  V30 4301 H 413.907 -3.75019 -0.40508 0
M  V30 4302 H 416.294 -2.84044 -0.800195 0
M  V30 4303 H 416.375 -2.39095 0.909255 0
M  V30 4304 H 416.019 -4.83783 1.5465 0
M  V30 4305 H 415.949 -5.26285 -0.18216 0
M  V30 4306 H 418.44 -3.7691 0.273366 0
M  V30 4307 H 418.753 -7.63725 1.18084 0
M  V30 4308 H 417.098 -6.86945 1.05509 0
M  V30 4309 H 420.289 -4.66189 0.422592 0
M  V30 4310 H 420.462 -6.42582 0.836182 0
M  V30 4311 N 413.868 0.0150385 -1.57593 0
M  V30 4312 C 414.778 1.02791 -2.10882 0
M  V30 4313 C 415.794 1.38702 -1.0506 0
M  V30 4314 O 416.97 1.47739 -1.36877 0
M  V30 4315 C 414.035 2.30568 -2.58919 0
M  V30 4316 C 413.096 2.01108 -3.79281 0
M  V30 4317 C 412.329 3.22794 -4.25018 0
M  V30 4318 O 412.552 4.33959 -3.70183 0
M  V30 4319 O 411.486 3.07672 -5.17322 0
M  V30 4320 H 415.312 0.604973 -2.97613 0
M  V30 4321 H 412.897 0.23292 -1.47573 0
M  V30 4322 H 414.779 3.05662 -2.90084 0
M  V30 4323 H 413.454 2.72129 -1.75293 0
M  V30 4324 H 412.361 1.23537 -3.53114 0
M  V30 4325 H 413.694 1.64394 -4.63935 0
M  V30 4326 N 415.346 1.54954 0.287554 0
M  V30 4327 C 416.278 1.83224 1.37701 0
M  V30 4328 C 417.291 0.715898 1.46215 0
M  V30 4329 O 418.48 0.993565 1.48292 0
M  V30 4330 C 415.58 1.96723 2.75959 0
M  V30 4331 C 414.753 3.27253 2.90215 0
M  V30 4332 C 413.812 3.30998 4.09056 0
M  V30 4333 O 412.838 4.04457 4.00503 0
M  V30 4334 N 414.04 2.57353 5.20336 0
M  V30 4335 H 416.805 2.77254 1.138 0
M  V30 4336 H 414.366 1.54694 0.477652 0
M  V30 4337 H 416.358 1.96615 3.5373 0
M  V30 4338 H 414.928 1.09626 2.92747 0
M  V30 4339 H 414.148 3.40022 1.99447 0
M  V30 4340 H 415.436 4.13365 2.96659 0
M  V30 4341 H 414.834 1.97327 5.30169 0
M  V30 4342 H 413.391 2.62984 5.96391 0
M  V30 4343 N 416.824 -0.551391 1.4764 0
M  V30 4344 C 417.787 -1.64007 1.60107 0
M  V30 4345 C 418.787 -1.53601 0.47576 0
M  V30 4346 O 419.977 -1.57655 0.740988 0
M  V30 4347 C 417.109 -3.03569 1.55108 0
M  V30 4348 H 418.302 -1.543 2.57161 0
M  V30 4349 H 415.855 -0.771776 1.35917 0
M  V30 4350 H 416.59 -3.18804 0.594519 0
M  V30 4351 H 416.375 -3.12532 2.36783 0
M  V30 4352 H 417.865 -3.82762 1.66982 0
M  V30 4353 N 418.302 -1.35869 -0.798587 0
M  V30 4354 C 419.234 -1.25305 -1.91915 0
M  V30 4355 C 420.247 -0.174548 -1.61862 0
M  V30 4356 O 421.436 -0.428499 -1.73281 0
M  V30 4357 C 418.536 -0.9086 -3.26493 0
M  V30 4358 C 417.709 -2.08711 -3.84394 0
M  V30 4359 C 416.768 -1.71717 -4.97393 0
M  V30 4360 O 415.794 -2.43692 -5.14396 0
M  V30 4361 N 416.996 -0.645473 -5.769 0
M  V30 4362 H 419.761 -2.21849 -2.01502 0
M  V30 4363 H 417.322 -1.29143 -0.976408 0
M  V30 4364 H 419.314 -0.642455 -3.99568 0
M  V30 4365 H 417.884 -0.0325815 -3.12583 0
M  V30 4366 H 417.104 -2.51659 -3.03416 0
M  V30 4367 H 418.392 -2.87468 -4.19809 0
M  V30 4368 H 417.79 -0.047648 -5.6568 0
M  V30 4369 H 416.347 -0.43913 -6.50319 0
M  V30 4370 N 419.78 1.02168 -1.19998 0
M  V30 4371 C 420.743 2.08765 -0.94604 0
M  V30 4372 C 421.743 1.60618 0.0763846 0
M  V30 4373 O 422.933 1.73472 -0.159135 0
M  V30 4374 C 420.065 3.38262 -0.423255 0
M  V30 4375 H 421.258 2.32726 -1.89153 0
M  V30 4376 H 418.811 1.1889 -1.01464 0
M  V30 4377 H 419.546 3.19974 0.527938 0
M  V30 4378 H 419.331 3.74532 -1.16053 0
M  V30 4379 H 420.821 4.16759 -0.264911 0
M  V30 4380 N 421.258 1.00505 1.21394 0
M  V30 4381 C 422.188 0.585684 2.26035 0
M  V30 4382 C 423.169 -0.393525 1.65485 0
M  V30 4383 O 424.354 -0.281497 1.92149 0
M  V30 4384 C 421.484 -0.0884283 3.47187 0
M  V30 4385 C 420.438 0.810567 4.20254 0
M  V30 4386 C 419.764 0.00286382 5.347 0
M  V30 4387 C 421.064 2.1132 4.77641 0
M  V30 4388 H 422.758 1.46039 2.61368 0
M  V30 4389 H 420.304 0.703648 1.25638 0
M  V30 4390 H 422.257 -0.393286 4.19561 0
M  V30 4391 H 420.981 -0.997766 3.10986 0
M  V30 4392 H 419.64 1.09925 3.49731 0
M  V30 4393 H 419.288 -0.907765 4.94741 0
M  V30 4394 H 418.988 0.601444 5.84514 0
M  V30 4395 H 420.512 -0.295808 6.09883 0
M  V30 4396 H 421.926 1.87148 5.41893 0
M  V30 4397 H 420.323 2.66164 5.37845 0
M  V30 4398 H 421.393 2.78393 3.9702 0
M  V30 4399 N 422.737 -1.36956 0.779787 0
M  V30 4400 C 424.153 -1.52817 0.460342 0
M  V30 4401 C 424.353 -1.7361 -1.02283 0
M  V30 4402 O 423.409 -1.76207 -1.80852 0
M  V30 4403 C 424.722 -2.71983 1.28241 0
M  V30 4404 C 426.27 -2.85849 1.27512 0
M  V30 4405 C 426.745 -4.08008 2.08072 0
M  V30 4406 N 428.236 -4.15135 2.05467 0
M  V30 4407 C 428.971 -5.08711 2.64577 0
M  V30 4408 N 428.467 -6.07792 3.32506 0
M  V30 4409 N 430.26 -5.01254 2.54363 0
M  V30 4410 H 422.411 -1.21713 1.74068 0
M  V30 4411 H 424.674 -0.593294 0.739396 0
M  V30 4412 H 424.38 -2.63109 2.33381 0
M  V30 4413 H 424.254 -3.65882 0.917088 0
M  V30 4414 H 426.641 -2.94189 0.231686 0
M  V30 4415 H 426.722 -1.92886 1.68014 0
M  V30 4416 H 426.366 -4.00429 3.12441 0
M  V30 4417 H 426.296 -5.001 1.64947 0
M  V30 4418 H 428.787 -3.44189 1.5602 0
M  V30 4419 H 429.1 -6.75739 3.74963 0
M  V30 4420 H 427.445 -6.08047 3.36606 0
M  V30 4421 H 430.636 -4.22795 2.00902 0
M  V30 4422 H 430.809 -5.73995 3.00722 0
M  V30 4423 N 424.215 -0.530993 -1.48385 0
M  V30 4424 C 425.125 0.23503 -2.3342 0
M  V30 4425 C 426.141 0.93801 -1.46552 0
M  V30 4426 O 427.317 0.912745 -1.7953 0
M  V30 4427 C 424.382 1.26778 -3.22689 0
M  V30 4428 C 423.443 0.575038 -4.25431 0
M  V30 4429 C 422.676 1.55858 -5.10435 0
M  V30 4430 O 422.899 2.79129 -4.97437 0
M  V30 4431 O 421.833 1.09742 -5.91811 0
M  V30 4432 H 425.659 -0.461794 -3.00169 0
M  V30 4433 H 423.244 -0.291903 -1.46521 0
M  V30 4434 H 425.126 1.86457 -3.77904 0
M  V30 4435 H 423.801 1.94699 -2.586 0
M  V30 4436 H 422.708 -0.0622782 -3.74048 0
M  V30 4437 H 424.041 -0.062253 -4.92161 0
M  V30 4438 N 425.693 1.55336 -0.266172 0
M  V30 4439 C 426.656 2.20878 0.612001 0
M  V30 4440 C 427.656 1.18388 1.08816 0
M  V30 4441 O 428.846 1.4335 0.989774 0
M  V30 4442 C 425.978 2.86765 1.84332 0
M  V30 4443 H 427.171 2.99873 0.0398718 0
M  V30 4444 H 424.724 1.56291 -0.0167309 0
M  V30 4445 H 425.459 2.11759 2.45619 0
M  V30 4446 H 425.244 3.61862 1.5099 0
M  V30 4447 H 426.734 3.36867 2.46801 0
M  V30 4448 N 427.171 -0.0066808 1.57599 0
M  V30 4449 C 428.418 -0.69292 1.90276 0
M  V30 4450 C 428.746 -1.74148 0.866192 0
M  V30 4451 O 428.001 -1.95268 -0.129933 0
M  V30 4452 C 428.3 -1.37939 3.29708 0
M  V30 4453 C 427.966 -0.464679 4.48499 0
M  V30 4454 C 426.628 -0.212809 4.80729 0
M  V30 4455 C 428.98 0.16551 5.20937 0
M  V30 4456 C 426.308 0.677653 5.82773 0
M  V30 4457 C 428.66 1.04381 6.23929 0
M  V30 4458 C 427.324 1.30492 6.54621 0
M  V30 4459 H 426.594 -0.253558 0.696268 0
M  V30 4460 H 429.241 0.0474123 1.91441 0
M  V30 4461 H 427.546 -2.1936 3.24636 0
M  V30 4462 H 429.243 -1.9163 3.52249 0
M  V30 4463 H 425.833 -0.671153 4.23313 0
M  V30 4464 H 430.017 -0.0160756 4.96297 0
M  V30 4465 H 425.273 0.88803 6.04917 0
M  V30 4466 H 429.447 1.53851 6.79193 0
M  V30 4467 H 427.074 1.99662 7.33512 0
M  V30 4468 N 428.649 -1.55105 -0.279332 0
M  V30 4469 C 429.581 -1.83952 -1.36727 0
M  V30 4470 C 430.594 -0.723642 -1.45833 0
M  V30 4471 O 431.783 -1.00141 -1.47763 0
M  V30 4472 C 428.883 -1.98183 -2.74912 0
M  V30 4473 C 428.056 -3.28787 -2.88475 0
M  V30 4474 C 427.115 -3.33162 -4.07295 0
M  V30 4475 O 426.141 -4.06576 -3.98353 0
M  V30 4476 N 427.343 -2.60109 -5.18964 0
M  V30 4477 H 430.108 -2.77853 -1.12328 0
M  V30 4478 H 427.669 -1.54945 -0.469442 0
M  V30 4479 H 429.661 -1.98488 -3.52682 0
M  V30 4480 H 428.231 -1.11177 -2.92162 0
M  V30 4481 H 427.451 -3.41075 -1.97641 0
M  V30 4482 H 428.739 -4.14933 -2.94463 0
M  V30 4483 H 428.137 -2.00136 -5.29115 0
M  V30 4484 H 426.694 -2.66143 -5.94988 0
M  V30 4485 N 430.127 0.543554 -1.4793 0
M  V30 4486 C 431.355 1.32516 -1.58894 0
M  V30 4487 C 431.77 1.87215 -0.244131 0
M  V30 4488 O 431.127 1.65709 0.764652 0
M  V30 4489 C 431.178 2.48554 -2.62494 0
M  V30 4490 O 430.899 1.96112 -3.91755 0
M  V30 4491 C 432.4 3.40572 -2.8377 0
M  V30 4492 H 429.62 0.403472 -0.536145 0
M  V30 4493 H 432.164 0.657106 -1.93655 0
M  V30 4494 H 430.319 3.1127 -2.30629 0
M  V30 4495 H 430.733 2.71967 -4.4848 0
M  V30 4496 H 432.207 4.18375 -3.60093 0
M  V30 4497 H 432.684 3.94965 -1.92092 0
M  V30 4498 H 433.29 2.8366 -3.16887 0
M  V30 4499 N 431.605 1.3629 0.791371 0
M  V30 4500 C 432.851 1.30605 1.55146 0
M  V30 4501 C 433.184 -0.115042 1.93859 0
M  V30 4502 O 432.459 -1.06798 1.62556 0
M  V30 4503 C 432.742 2.22692 2.82985 0
M  V30 4504 C 432.595 3.73489 2.50651 0
M  V30 4505 C 433.914 2.13588 3.84796 0
M  V30 4506 H 431.033 0.475761 0.562868 0
M  V30 4507 H 433.675 1.66825 0.909358 0
M  V30 4508 H 431.825 1.91933 3.37778 0
M  V30 4509 H 433.497 4.14758 2.01924 0
M  V30 4510 H 431.74 3.93021 1.83622 0
M  V30 4511 H 432.411 4.3333 3.41949 0
M  V30 4512 H 434.887 2.40659 3.39445 0
M  V30 4513 H 433.763 2.80195 4.71998 0
M  V30 4514 H 434.024 1.12256 4.27611 0
M  V30 4515 N 433.083 -1.0153 1.20538 0
M  V30 4516 C 434.013 -2.11972 0.979295 0
M  V30 4517 C 434.994 -1.6985 -0.0921787 0
M  V30 4518 O 436.179 -1.94089 0.0655932 0
M  V30 4519 C 433.309 -3.43201 0.531984 0
M  V30 4520 C 432.263 -3.9907 1.54685 0
M  V30 4521 C 431.589 -5.26082 0.956127 0
M  V30 4522 C 432.889 -4.32313 2.93092 0
M  V30 4523 H 434.583 -2.31143 1.90298 0
M  V30 4524 H 432.129 -1.11079 0.916372 0
M  V30 4525 H 434.082 -4.1985 0.361044 0
M  V30 4526 H 432.806 -3.23792 -0.427327 0
M  V30 4527 H 431.465 -3.2453 1.70517 0
M  V30 4528 H 431.113 -5.02999 -0.0111538 0
M  V30 4529 H 430.813 -5.64426 1.63393 0
M  V30 4530 H 432.337 -6.05386 0.796284 0
M  V30 4531 H 433.751 -4.99845 2.80763 0
M  V30 4532 H 432.148 -4.81774 3.57791 0
M  V30 4533 H 433.218 -3.41025 3.44717 0
M  V30 4534 N 434.561 -1.01147 -1.20859 0
M  V30 4535 C 435.807 -0.698899 -1.90377 0
M  V30 4536 C 436.14 0.76904 -1.78324 0
M  V30 4537 O 435.415 1.55817 -1.16409 0
M  V30 4538 C 435.698 -1.12878 -3.41951 0
M  V30 4539 C 435.551 -2.65665 -3.62963 0
M  V30 4540 C 436.87 -0.696114 -4.3456 0
M  V30 4541 H 433.989 -0.255372 -0.691342 0
M  V30 4542 H 436.631 -1.25831 -1.42361 0
M  V30 4543 H 434.781 -0.652827 -3.82976 0
M  V30 4544 H 436.453 -3.21074 -3.31224 0
M  V30 4545 H 434.696 -3.06878 -3.06608 0
M  V30 4546 H 435.367 -2.90797 -4.69192 0
M  V30 4547 H 437.843 -1.10521 -4.01154 0
M  V30 4548 H 436.719 -1.025 -5.39245 0
M  V30 4549 H 436.98 0.402465 -4.40264 0
M  V30 4550 N 436.039 1.36541 -0.78704 0
M  V30 4551 C 437.288 1.98552 -0.35494 0
M  V30 4552 C 437.601 1.63171 1.07864 0
M  V30 4553 O 438.807 2.18399 1.61289 0
M  V30 4554 C 437.263 3.55136 -0.583671 0
M  V30 4555 C 436.871 3.99444 -2.02851 0
M  V30 4556 C 438.615 4.2395 -0.215957 0
M  V30 4557 C 436.522 5.48796 -2.20403 0
M  V30 4558 H 435.452 0.742888 -0.128972 0
M  V30 4559 H 438.103 1.5587 -0.968337 0
M  V30 4560 H 436.485 3.95875 0.0994046 0
M  V30 4561 H 437.659 3.6991 -2.74779 0
M  V30 4562 H 435.974 3.43459 -2.35425 0
M  V30 4563 H 438.571 5.33709 -0.325405 0
M  V30 4564 H 438.914 4.07827 0.835646 0
M  V30 4565 H 439.447 3.88565 -0.852175 0
M  V30 4566 H 436.186 5.69864 -3.23937 0
M  V30 4567 H 435.706 5.79964 -1.52977 0
M  V30 4568 H 437.385 6.14986 -2.01002 0
M  V30 4569 N 437.518 0.538854 1.48102 0
M  V30 4570 C 438.746 0.0123136 2.06896 0
M  V30 4571 C 439.161 -1.27312 1.39417 0
M  V30 4572 O 438.518 -1.75949 0.484582 0
M  V30 4573 C 438.569 -0.206118 3.60912 0
M  V30 4574 O 438.29 1.0284 4.25859 0
M  V30 4575 C 439.791 -0.772033 4.36526 0
M  V30 4576 H 437.011 0.0375239 0.66995 0
M  V30 4577 H 439.555 0.747032 1.90367 0
M  V30 4578 H 437.71 -0.89091 3.77017 0
M  V30 4579 H 438.124 0.814654 5.18135 0
M  V30 4580 H 439.598 -0.874251 5.45033 0
M  V30 4581 H 440.075 -1.77904 4.01555 0
M  V30 4582 H 440.681 -0.123526 4.25121 0
M  V30 4583 N 438.996 -1.55193 0.274407 0
M  V30 4584 C 440.226 -2.03692 -0.345442 0
M  V30 4585 C 440.634 -1.15224 -1.50067 0
M  V30 4586 O 439.977 -0.164749 -1.8296 0
M  V30 4587 C 440.039 -3.48325 -0.88939 0
M  V30 4588 C 439.703 -4.56794 0.137115 0
M  V30 4589 C 440.7 -5.11028 0.956378 0
M  V30 4590 C 438.385 -5.01568 0.27115 0
M  V30 4591 C 440.379 -6.08552 1.89587 0
M  V30 4592 C 438.066 -5.98918 1.21412 0
M  V30 4593 C 439.064 -6.52291 2.02498 0
M  V30 4594 O 438.752 -7.47738 2.952 0
M  V30 4595 H 438.484 -0.670893 -0.0829332 0
M  V30 4596 H 441.038 -2.01387 0.404056 0
M  V30 4597 H 439.268 -3.47867 -1.68895 0
M  V30 4598 H 440.957 -3.80167 -1.42225 0
M  V30 4599 H 441.723 -4.7725 0.863559 0
M  V30 4600 H 437.602 -4.5967 -0.349987 0
M  V30 4601 H 441.146 -6.50137 2.52918 0
M  V30 4602 H 437.043 -6.32114 1.30776 0
M  V30 4603 H 437.811 -7.65451 2.89874 0
M  V30 4604 N 440.474 -0.00167713 -1.576 0
M  V30 4605 C 441.89 0.354422 -1.55615 0
M  V30 4606 C 442.09 1.74679 -1.00447 0
M  V30 4607 O 441.146 2.4428 -0.639022 0
M  V30 4608 C 442.459 0.22812 -2.99833 0
M  V30 4609 C 444.007 0.302934 -3.11531 0
M  V30 4610 C 444.482 0.205737 -4.57538 0
M  V30 4611 N 445.973 0.263584 -4.62449 0
M  V30 4612 C 446.708 0.211742 -5.73009 0
M  V30 4613 N 446.204 0.110399 -6.92712 0
M  V30 4614 N 447.997 0.263729 -5.61481 0
M  V30 4615 H 440.148 -0.912498 -1.918 0
M  V30 4616 H 442.411 -0.349928 -0.881053 0
M  V30 4617 H 442.117 -0.729934 -3.44042 0
M  V30 4618 H 441.991 1.00951 -3.6344 0
M  V30 4619 H 444.378 1.25143 -2.67251 0
M  V30 4620 H 444.459 -0.508357 -2.50698 0
M  V30 4621 H 444.103 -0.739225 -5.02492 0
M  V30 4622 H 444.033 1.03554 -5.16318 0
M  V30 4623 H 446.524 0.343173 -3.76339 0
M  V30 4624 H 446.837 0.0767828 -7.72762 0
M  V30 4625 H 445.182 0.0760025 -6.94958 0
M  V30 4626 H 448.373 0.34111 -4.66855 0
M  V30 4627 H 448.546 0.219862 -6.47627 0
M  V30 4628 N 441.952 1.55251 0.271103 0
M  V30 4629 C 442.862 1.9136 1.35714 0
M  V30 4630 C 443.878 0.811075 1.5394 0
M  V30 4631 O 445.054 1.11031 1.6803 0
M  V30 4632 C 442.119 2.1798 2.69603 0
M  V30 4633 C 441.18 3.4153 2.60107 0
M  V30 4634 C 440.413 3.66871 3.8761 0
M  V30 4635 O 440.636 2.94689 4.8838 0
M  V30 4636 O 439.57 4.60405 3.87699 0
M  V30 4637 H 443.396 2.83815 1.08088 0
M  V30 4638 H 440.981 1.41821 0.469792 0
M  V30 4639 H 442.863 2.36518 3.48765 0
M  V30 4640 H 441.538 1.28708 2.97012 0
M  V30 4641 H 440.445 3.28325 1.79314 0
M  V30 4642 H 441.778 4.31027 2.37647 0
M  V30 4643 N 443.43 -0.535701 1.48216 0
M  V30 4644 C 444.841 -1.11769 1.49548 0
M  V30 4645 C 445.192 -1.94442 0.26207 0
M  V30 4646 O 444.317 -2.06987 -0.631287 0
M  V30 4647 C 444.912 -2.03367 2.70975 0
M  V30 4648 C 443.471 -2.56795 2.75196 0
M  V30 4649 C 442.618 -1.33631 2.42977 0
M  V30 4650 H 445.569 -0.321232 1.55415 0
M  V30 4651 H 445.59 -2.87569 2.49167 0
M  V30 4652 H 445.102 -1.43169 3.60727 0
M  V30 4653 H 443.203 -3.20731 1.89638 0
M  V30 4654 H 443.316 -2.9632 3.76472 0
M  V30 4655 H 441.68 -1.6502 1.94012 0
M  V30 4656 H 442.463 -0.75194 3.34964 0
M  V30 4657 N 444.908 -1.36708 -0.784132 0
M  V30 4658 C 446.319 -1.27947 -1.35965 0
M  V30 4659 C 446.67 0.0784013 -1.96043 0
M  V30 4660 O 445.795 0.979989 -1.92938 0
M  V30 4661 C 446.39 -2.31689 -2.47195 0
M  V30 4662 C 444.949 -2.26601 -3.00548 0
M  V30 4663 C 444.096 -2.16184 -1.73666 0
M  V30 4664 H 447.047 -1.4751 -0.585358 0
M  V30 4665 H 447.068 -1.95638 -3.26352 0
M  V30 4666 H 446.58 -3.30506 -2.03439 0
M  V30 4667 H 444.681 -1.31268 -3.48711 0
M  V30 4668 H 444.794 -3.19508 -3.57004 0
M  V30 4669 H 443.158 -1.62524 -1.96107 0
M  V30 4670 H 443.941 -3.16896 -1.32031 0
M  V30 4671 N 446.386 1.0089 -1.21074 0
M  V30 4672 C 447.334 2.11707 -0.963476 0
M  V30 4673 C 448.328 1.69172 0.0879032 0
M  V30 4674 O 449.534 1.79889 -0.0631415 0
M  V30 4675 H 445.909 0.692026 -0.294287 0
M  V30 4676 H 447.88 2.29743 -1.90422 0
M  V30 4677 C 446.629 3.43473 -0.540509 0
M  V30 4678 H 445.952 3.76634 -1.34114 0
M  V30 4679 H 447.392 4.22044 -0.406777 0
M  V30 4680 C 445.851 3.2849 0.748079 0
M  V30 4681 O 446.381 3.58883 1.8046 0
M  V30 4682 N 444.587 2.81715 0.713081 0
M  V30 4683 H 444.134 2.5718 -0.146973 0
M  V30 4684 H 444.092 2.72071 1.57558 0
M  V30 4685 N 447.864 1.01787 1.20321 0
M  V30 4686 C 449.275 0.739307 1.71438 0
M  V30 4687 C 449.626 -0.742041 1.81627 0
M  V30 4688 O 448.751 -1.57903 1.47971 0
M  V30 4689 C 449.346 1.33538 3.11373 0
M  V30 4690 C 447.905 1.10566 3.59795 0
M  V30 4691 C 447.052 1.44028 2.36962 0
M  V30 4692 H 450.003 1.18718 1.05317 0
M  V30 4693 H 450.024 0.726611 3.73498 0
M  V30 4694 H 449.536 2.41352 3.03926 0
M  V30 4695 H 447.637 0.0452405 3.72573 0
M  V30 4696 H 447.75 1.78661 4.44542 0
M  V30 4697 H 446.114 0.85933 2.39766 0
M  V30 4698 H 446.897 2.52901 2.32155 0
M  V30 4699 N 449.342 -1.36122 0.79427 0
M  V30 4700 C 450.252 -2.33769 0.197296 0
M  V30 4701 C 451.268 -1.61276 -0.653153 0
M  V30 4702 O 452.444 -1.9323 -0.5678 0
M  V30 4703 C 449.509 -3.40474 -0.654098 0
M  V30 4704 C 448.57 -4.28759 0.215411 0
M  V30 4705 C 447.803 -5.30368 -0.595443 0
M  V30 4706 O 448.026 -5.40211 -1.83107 0
M  V30 4707 O 446.96 -6.019 0.00721351 0
M  V30 4708 H 450.786 -2.86597 1.00478 0
M  V30 4709 H 448.371 -1.38676 0.555818 0
M  V30 4710 H 450.253 -4.05703 -1.13944 0
M  V30 4711 H 448.928 -2.89937 -1.43938 0
M  V30 4712 H 447.835 -3.66554 0.747615 0
M  V30 4713 H 449.168 -4.82661 0.964332 0
M  V30 4714 N 450.82 -0.546701 -1.47814 0
M  V30 4715 C 452.05 -0.0232519 -2.06587 0
M  V30 4716 C 452.458 1.2712 -1.40133 0
M  V30 4717 O 451.801 1.77091 -0.488305 0
M  V30 4718 C 451.863 0.254117 -3.58601 0
M  V30 4719 C 451.527 -0.949331 -4.47031 0
M  V30 4720 C 452.524 -1.85216 -4.85789 0
M  V30 4721 C 450.209 -1.16104 -4.88697 0
M  V30 4722 C 452.203 -2.95047 -5.65001 0
M  V30 4723 C 449.89 -2.26247 -5.67676 0
M  V30 4724 C 450.888 -3.1555 -6.05737 0
M  V30 4725 O 450.576 -4.23784 -6.83127 0
M  V30 4726 H 450.308 -0.0380082 -0.674931 0
M  V30 4727 H 452.862 -0.756631 -1.90956 0
M  V30 4728 H 451.092 1.04168 -3.72406 0
M  V30 4729 H 452.781 0.72167 -3.99433 0
M  V30 4730 H 453.547 -1.70061 -4.54207 0
M  V30 4731 H 449.426 -0.475159 -4.58545 0
M  V30 4732 H 452.97 -3.64778 -5.94628 0
M  V30 4733 H 448.867 -2.41379 -5.98671 0
M  V30 4734 H 449.635 -4.21701 -7.01506 0
M  V30 4735 N 452.299 1.55045 -0.282633 0
M  V30 4736 C 453.231 2.2023 0.634924 0
M  V30 4737 C 454.244 1.18931 1.11172 0
M  V30 4738 O 455.433 1.4562 1.03233 0
M  V30 4739 C 452.533 2.82041 1.87899 0
M  V30 4740 C 451.706 4.091 1.54776 0
M  V30 4741 C 450.765 4.54887 2.64507 0
M  V30 4742 O 449.791 5.20496 2.30375 0
M  V30 4743 N 450.993 4.25659 3.94709 0
M  V30 4744 H 453.758 2.99601 0.0769811 0
M  V30 4745 H 451.319 1.61565 -0.104048 0
M  V30 4746 H 453.311 3.09613 2.60619 0
M  V30 4747 H 451.881 2.06618 2.3458 0
M  V30 4748 H 451.101 3.88736 0.654049 0
M  V30 4749 H 452.389 4.9187 1.30158 0
M  V30 4750 H 451.787 3.7306 4.25256 0
M  V30 4751 H 450.344 4.57984 4.63782 0
M  V30 4752 N 453.777 0.010035 1.57597 0
M  V30 4753 C 454.687 -0.994226 2.12491 0
M  V30 4754 C 455.703 -1.37013 1.07254 0
M  V30 4755 O 456.879 -1.45542 1.3921 0
M  V30 4756 C 453.944 -2.2642 2.62555 0
M  V30 4757 C 453.005 -1.95049 3.82432 0
M  V30 4758 C 452.238 -3.15991 4.30099 0
M  V30 4759 O 452.461 -4.28015 3.7704 0
M  V30 4760 O 451.395 -2.99403 5.22151 0
M  V30 4761 H 455.221 -0.557549 2.98538 0
M  V30 4762 H 452.806 -0.209413 1.47925 0
M  V30 4763 H 454.688 -3.01009 2.9491 0
M  V30 4764 H 453.363 -2.69306 1.796 0
M  V30 4765 H 452.27 -1.17904 3.55034 0
M  V30 4766 H 453.603 -1.56992 4.66491 0
M  V30 4767 N 455.255 -1.55392 -0.262866 0
M  V30 4768 C 456.502 -1.76476 -0.993109 0
M  V30 4769 C 456.83 -0.571479 -1.85915 0
M  V30 4770 O 456.085 0.445733 -1.90556 0
M  V30 4771 C 456.384 -3.02889 -1.89718 0
M  V30 4772 C 456.05 -4.34974 -1.18781 0
M  V30 4773 C 454.712 -4.7087 -0.991699 0
M  V30 4774 C 457.064 -5.16695 -0.683798 0
M  V30 4775 C 454.392 -5.86036 -0.279024 0
M  V30 4776 C 456.744 -6.32598 0.0153327 0
M  V30 4777 C 455.408 -6.67127 0.223062 0
M  V30 4778 H 454.678 -0.64577 -0.363404 0
M  V30 4779 H 457.325 -1.89664 -0.264525 0
M  V30 4780 H 455.63 -2.84644 -2.6923 0
M  V30 4781 H 457.327 -3.16399 -2.46359 0
M  V30 4782 H 453.917 -4.06765 -1.35058 0
M  V30 4783 H 458.101 -4.8943 -0.8229 0
M  V30 4784 H 453.357 -6.11306 -0.107456 0
M  V30 4785 H 457.531 -6.95171 0.413584 0
M  V30 4786 H 455.158 -7.56216 0.777265 0
M  V30 4787 N 456.733 0.527833 -1.48498 0
M  V30 4788 C 457.665 1.6482 -1.5927 0
M  V30 4789 C 458.678 1.55659 -0.476869 0
M  V30 4790 O 459.867 1.62081 -0.747806 0
M  V30 4791 C 456.967 3.0348 -1.50842 0
M  V30 4792 C 456.14 3.381 -2.77502 0
M  V30 4793 C 455.199 4.5605 -2.62497 0
M  V30 4794 O 454.225 4.59165 -3.36387 0
M  V30 4795 N 455.427 5.54353 -1.72257 0
M  V30 4796 H 458.192 1.56015 -2.55889 0
M  V30 4797 H 455.753 0.715152 -1.45249 0
M  V30 4798 H 457.745 3.80264 -1.38496 0
M  V30 4799 H 456.315 3.06352 -0.621887 0
M  V30 4800 H 455.535 2.50473 -3.04396 0
M  V30 4801 H 456.823 3.58017 -3.61527 0
M  V30 4802 H 456.221 5.54617 -1.11431 0
M  V30 4803 H 454.778 6.30347 -1.65849 0
M  V30 4804 N 458.211 1.37122 0.776871 0
M  V30 4805 C 459.159 1.32549 1.91138 0
M  V30 4806 C 460.153 0.215119 1.68029 0
M  V30 4807 O 461.359 0.382852 1.75881 0
M  V30 4808 H 457.734 0.412952 0.62847 0
M  V30 4809 H 459.705 2.28332 1.92112 0
M  V30 4810 C 458.454 1.14422 3.28333 0
M  V30 4811 H 457.777 1.99115 3.46689 0
M  V30 4812 H 459.217 1.15272 4.0803 0
M  V30 4813 C 457.676 -0.150434 3.36564 0
M  V30 4814 O 458.206 -1.13584 3.85307 0
M  V30 4815 N 456.412 -0.19939 2.89915 0
M  V30 4816 H 455.959 0.603142 2.5044 0
M  V30 4817 H 455.917 -1.06526 2.95803 0
M  V30 4818 N 459.689 -1.00246 1.21608 0
M  V30 4819 C 461.105 -1.26435 0.973975 0
M  V30 4820 C 461.305 -1.98642 -0.338143 0
M  V30 4821 O 460.361 -2.29026 -1.06317 0
M  V30 4822 C 461.674 -2.08551 2.16626 0
M  V30 4823 C 463.222 -2.21769 2.20879 0
M  V30 4824 C 463.697 -3.07267 3.39633 0
M  V30 4825 N 465.188 -3.14855 3.39736 0
M  V30 4826 C 465.923 -3.81274 4.28273 0
M  V30 4827 N 465.419 -4.497 5.27012 0
M  V30 4828 N 467.212 -3.7794 4.16074 0
M  V30 4829 H 459.363 -0.518089 2.05984 0
M  V30 4830 H 461.626 -0.291368 0.902113 0
M  V30 4831 H 461.332 -1.62847 3.11727 0
M  V30 4832 H 461.206 -3.09303 2.15897 0
M  V30 4833 H 463.593 -2.66691 1.26332 0
M  V30 4834 H 463.674 -1.20478 2.25652 0
M  V30 4835 H 463.318 -2.63047 4.34475 0
M  V30 4836 H 463.248 -4.08678 3.321 0
M  V30 4837 H 465.739 -2.66147 2.6828 0
M  V30 4838 H 466.052 -4.98092 5.90867 0
M  V30 4839 H 464.397 -4.48479 5.30935 0
M  V30 4840 H 467.588 -3.23638 3.38195 0
M  V30 4841 H 467.761 -4.29424 4.85282 0
M  V30 4842 N 461.167 -1.02423 -1.1978 0
M  V30 4843 C 462.097 -0.62157 -2.25075 0
M  V30 4844 C 463.078 0.367148 -1.6609 0
M  V30 4845 O 464.263 0.250892 -1.92573 0
M  V30 4846 C 461.393 0.0331826 -3.47284 0
M  V30 4847 C 460.347 -0.877323 -4.18912 0
M  V30 4848 C 459.673 -0.0879296 -5.34628 0
M  V30 4849 C 460.973 -2.18892 -4.74219 0
M  V30 4850 H 462.667 -1.50179 -2.59011 0
M  V30 4851 H 460.213 -0.723547 -1.24502 0
M  V30 4852 H 462.166 0.326488 -4.20133 0
M  V30 4853 H 460.89 0.948164 -3.12534 0
M  V30 4854 H 459.549 -1.15475 -3.47938 0
M  V30 4855 H 459.197 0.828941 -4.96123 0
M  V30 4856 H 458.897 -0.694359 -5.83483 0
M  V30 4857 H 460.421 0.198743 -6.10276 0
M  V30 4858 H 461.835 -1.95746 -5.38847 0
M  V30 4859 H 460.232 -2.74686 -5.33542 0
M  V30 4860 H 461.302 -2.84674 -3.92541 0
M  V30 4861 N 462.645 1.35699 -0.801477 0
M  V30 4862 C 463.575 2.32436 -0.222658 0
M  V30 4863 C 464.556 1.5723 0.649057 0
M  V30 4864 O 465.741 1.85324 0.580387 0
M  V30 4865 C 462.871 3.41469 0.633719 0
M  V30 4866 C 461.825 4.27774 -0.139083 0
M  V30 4867 C 461.151 5.28082 0.838666 0
M  V30 4868 C 462.451 5.04946 -1.33517 0
M  V30 4869 H 464.145 2.81094 -1.03086 0
M  V30 4870 H 461.691 1.35146 -0.497155 0
M  V30 4871 H 463.644 4.08143 1.04868 0
M  V30 4872 H 462.368 2.91408 1.47475 0
M  V30 4873 H 461.027 3.62673 -0.535156 0
M  V30 4874 H 460.675 4.7429 1.67506 0
M  V30 4875 H 460.375 5.86695 0.32594 0
M  V30 4876 H 461.899 5.97628 1.25194 0
M  V30 4877 H 463.313 5.64593 -0.995349 0
M  V30 4878 H 461.71 5.7303 -1.78202 0
M  V30 4879 H 462.78 4.35886 -2.12442 0
M  V30 4880 N 464.123 0.554532 1.47522 0
M  V30 4881 C 465.372 0.0273458 2.01681 0
M  V30 4882 C 465.685 -1.32962 1.43459 0
M  V30 4883 O 466.891 -1.94657 1.89265 0
M  V30 4884 C 465.347 -0.00159057 3.599 0
M  V30 4885 C 464.955 1.35197 4.27113 0
M  V30 4886 C 466.699 -0.476311 4.21819 0
M  V30 4887 C 464.606 1.28229 5.77331 0
M  V30 4888 H 463.536 0.00645269 0.753972 0
M  V30 4889 H 466.187 0.701985 1.69542 0
M  V30 4890 H 464.569 -0.741821 3.8899 0
M  V30 4891 H 465.743 2.1097 4.09668 0
M  V30 4892 H 464.058 1.76441 3.77171 0
M  V30 4893 H 466.655 -0.5468 5.31897 0
M  V30 4894 H 466.998 -1.4877 3.8881 0
M  V30 4895 H 467.531 0.20898 3.97251 0
M  V30 4896 H 464.27 2.26959 6.14955 0
M  V30 4897 H 463.79 0.566314 5.97121 0
M  V30 4898 H 465.469 0.983226 6.39485 0
M  V30 4899 N 465.601 -1.54893 0.290851 0
M  V30 4900 C 467.017 -1.59476 -0.0628432 0
M  V30 4901 C 467.217 -1.30795 -1.5328 0
M  V30 4902 O 466.273 -1.07644 -2.28406 0
M  V30 4903 C 467.586 -2.98928 0.325962 0
M  V30 4904 C 469.134 -3.11799 0.273882 0
M  V30 4905 C 469.609 -4.53544 0.637359 0
M  V30 4906 N 471.1 -4.59433 0.589507 0
M  V30 4907 C 471.835 -5.67164 0.84335 0
M  V30 4908 N 471.331 -6.82975 1.16263 0
M  V30 4909 N 473.124 -5.56786 0.771091 0
M  V30 4910 H 465.275 -1.71798 1.24896 0
M  V30 4911 H 467.538 -0.801879 0.505663 0
M  V30 4912 H 467.244 -3.24805 1.34887 0
M  V30 4913 H 467.118 -3.75793 -0.325441 0
M  V30 4914 H 469.505 -2.85677 -0.739765 0
M  V30 4915 H 469.586 -2.37112 0.959766 0
M  V30 4916 H 469.23 -4.80394 1.64877 0
M  V30 4917 H 469.16 -5.26553 -0.0704866 0
M  V30 4918 H 471.651 -3.76245 0.353252 0
M  V30 4919 H 471.964 -7.61048 1.34257 0
M  V30 4920 H 470.309 -6.84552 1.20057 0
M  V30 4921 H 473.5 -4.65187 0.521383 0
M  V30 4922 H 473.673 -6.40664 0.972295 0
M  V30 4923 N 467.08 -0.0183926 -1.57589 0
M  V30 4924 C 468.043 0.951986 -2.08494 0
M  V30 4925 C 469.043 1.26092 -0.997874 0
M  V30 4926 O 470.233 1.20304 -1.25987 0
M  V30 4927 C 467.365 2.27165 -2.54182 0
M  V30 4928 H 468.558 0.511307 -2.95509 0
M  V30 4929 H 466.111 0.229444 -1.54607 0
M  V30 4930 H 466.846 2.75884 -1.70465 0
M  V30 4931 H 466.631 2.06057 -3.33591 0
M  V30 4932 H 468.121 2.9674 -2.93828 0
M  V30 4933 N 468.558 1.5553 0.254621 0
M  V30 4934 C 469.974 1.4778 0.602753 0
M  V30 4935 C 470.174 0.707047 1.88688 0
M  V30 4936 O 469.23 0.233288 2.5142 0
M  V30 4937 C 470.543 2.92133 0.712648 0
M  V30 4938 C 472.091 3.02458 0.805488 0
M  V30 4939 C 472.566 4.48102 0.947009 0
M  V30 4940 N 474.057 4.52008 1.01207 0
M  V30 4941 C 474.792 5.61939 1.1407 0
M  V30 4942 N 474.288 6.81697 1.23536 0
M  V30 4943 N 476.081 5.49719 1.17325 0
M  V30 4944 H 468.232 2.04085 -0.588463 0
M  V30 4945 H 470.495 0.926229 -0.202001 0
M  V30 4946 H 470.201 3.51332 -0.160766 0
M  V30 4947 H 470.075 3.42187 1.58707 0
M  V30 4948 H 472.462 2.43344 1.66936 0
M  V30 4949 H 472.543 2.55627 -0.0939266 0
M  V30 4950 H 472.187 5.07824 0.087725 0
M  V30 4951 H 472.117 4.92607 1.86135 0
M  V30 4952 H 474.608 3.65749 0.950577 0
M  V30 4953 H 474.921 7.61228 1.33236 0
M  V30 4954 H 473.266 6.84473 1.20508 0
M  V30 4955 H 476.457 4.55095 1.09573 0
M  V30 4956 H 476.63 6.35432 1.27005 0
M  V30 4957 N 470.036 -0.519951 1.48776 0
M  V30 4958 C 470.946 -1.65025 1.66745 0
M  V30 4959 C 471.962 -1.6508 0.549954 0
M  V30 4960 O 473.138 -1.83848 0.822295 0
M  V30 4961 C 470.203 -3.0146 1.71238 0
M  V30 4962 C 469.264 -3.12182 2.94688 0
M  V30 4963 C 468.497 -4.42109 2.98958 0
M  V30 4964 O 468.72 -5.29799 2.1135 0
M  V30 4965 O 467.654 -4.57406 3.91233 0
M  V30 4966 H 471.48 -1.52801 2.62461 0
M  V30 4967 H 469.065 -0.694157 1.32294 0
M  V30 4968 H 470.947 -3.82584 1.76657 0
M  V30 4969 H 469.622 -3.13988 0.786975 0
M  V30 4970 H 468.529 -2.30316 2.94797 0
M  V30 4971 H 469.862 -3.04574 3.86646 0
M  V30 4972 N 471.514 -1.37532 -0.769588 0
M  V30 4973 C 472.791 -1.23392 -1.51768 0
M  V30 4974 C 473.171 0.17157 -2.10402 0
M  V30 4975 O 472.519 1.17943 -1.95708 0
M  V30 4976 C 472.729 -2.33163 -2.59685 0
M  V30 4977 C 474.077 -2.70809 -3.27028 0
M  V30 4978 O 475.101 -2.32355 -2.69981 0
M  V30 4979 O 473.96 -3.37066 -4.30173 0
M  V30 4980 H 471.054 -0.481617 -0.67229 0
M  V30 4981 H 473.6 -1.49318 -0.806368 0
M  V30 4982 H 472.372 -3.27273 -2.14494 0
M  V30 4983 H 471.995 -2.08713 -3.38415 0
M  V30 4984 N 472.992 0.995999 -1.22138 0
M  V30 4985 C 474.239 1.7351 -1.04406 0
M  V30 4986 C 474.567 1.89884 0.421244 0
M  V30 4987 O 473.822 1.43683 1.32867 0
M  V30 4988 C 474.121 3.14553 -1.6968 0
M  V30 4989 C 473.787 3.18102 -3.19565 0
M  V30 4990 C 472.449 3.18778 -3.60464 0
M  V30 4991 C 474.801 3.14636 -4.15516 0
M  V30 4992 C 472.129 3.13684 -4.95801 0
M  V30 4993 C 474.481 3.11084 -5.50826 0
M  V30 4994 C 473.145 3.10074 -5.91109 0
M  V30 4995 H 472.415 0.634916 -0.38205 0
M  V30 4996 H 475.062 1.1667 -1.51857 0
M  V30 4997 H 473.367 3.74682 -1.14546 0
M  V30 4998 H 475.064 3.70477 -1.53454 0
M  V30 4999 H 471.654 3.18324 -2.86998 0
M  V30 5000 H 475.838 3.13266 -3.84939 0
M  V30 5001 H 471.094 3.11245 -5.26247 0
M  V30 5002 H 475.268 3.07357 -6.24904 0
M  V30 5003 H 472.895 3.05882 -6.95946 0
M  V30 5004 N 474.47 1.03057 1.19235 0
M  V30 5005 C 475.718 0.726581 1.88587 0
M  V30 5006 C 476.039 -0.747227 1.80115 0
M  V30 5007 O 475.309 -1.53849 1.21274 0
M  V30 5008 H 473.889 0.265768 0.698124 0
M  V30 5009 H 476.551 1.30516 1.44746 0
M  V30 5010 H 475.647 1.0224 2.94879 0
M  V30 5011 N 475.948 -1.35272 0.808662 0
M  V30 5012 C 477.194 -1.99003 0.390581 0
M  V30 5013 C 477.527 -1.63999 -1.0401 0
M  V30 5014 O 476.802 -0.904368 -1.72196 0
M  V30 5015 C 477.085 -3.55454 0.576566 0
M  V30 5016 C 476.938 -4.00249 2.05233 0
M  V30 5017 C 478.257 -4.401 0.00354277 0
M  V30 5018 H 475.376 -0.722917 0.143388 0
M  V30 5019 H 478.018 -1.6039 1.01858 0
M  V30 5020 H 476.168 -3.88477 0.0419766 0
M  V30 5021 H 477.84 -3.77626 2.64946 0
M  V30 5022 H 476.083 -3.51082 2.54801 0
M  V30 5023 H 476.754 -5.0911 2.13333 0
M  V30 5024 H 479.23 -4.13548 0.460117 0
M  V30 5025 H 478.106 -5.48656 0.163575 0
M  V30 5026 H 478.367 -4.28444 -1.09032 0
M  V30 5027 N 477.426 -0.562348 -1.47226 0
M  V30 5028 C 478.336 0.185466 -2.33866 0
M  V30 5029 C 479.352 0.906713 -1.48508 0
M  V30 5030 O 480.528 0.874458 -1.81425 0
M  V30 5031 C 477.593 1.19904 -3.25306 0
M  V30 5032 C 476.654 0.484669 -4.26555 0
M  V30 5033 C 475.887 1.44996 -5.13626 0
M  V30 5034 O 476.11 2.68515 -5.03245 0
M  V30 5035 O 475.044 0.971642 -5.94006 0
M  V30 5036 H 478.87 -0.525361 -2.99121 0
M  V30 5037 H 476.455 -0.322916 -1.45868 0
M  V30 5038 H 478.337 1.78399 -3.81774 0
M  V30 5039 H 477.012 1.8917 -2.62672 0
M  V30 5040 H 475.919 -0.141605 -3.73832 0
M  V30 5041 H 477.252 -0.166634 -4.91918 0
M  V30 5042 N 478.904 1.54736 -0.299062 0
M  V30 5043 C 479.834 2.26409 0.571085 0
M  V30 5044 C 480.815 1.2629 1.13951 0
M  V30 5045 O 482 1.55059 1.16921 0
M  V30 5046 C 479.13 3.00338 1.74396 0
M  V30 5047 C 478.084 4.07588 1.30599 0
M  V30 5048 C 477.41 4.69222 2.56387 0
M  V30 5049 C 478.71 5.20455 0.438645 0
M  V30 5050 H 480.404 2.99388 -0.0266991 0
M  V30 5051 H 477.95 1.43993 -0.0142812 0
M  V30 5052 H 479.903 3.49198 2.35878 0
M  V30 5053 H 478.627 2.24934 2.36796 0
M  V30 5054 H 477.286 3.59575 0.71424 0
M  V30 5055 H 476.934 3.9046 3.17097 0
M  V30 5056 H 476.634 5.41653 2.27784 0
M  V30 5057 H 478.158 5.20844 3.18675 0
M  V30 5058 H 479.572 5.65221 0.959085 0
M  V30 5059 H 477.969 5.99594 0.246466 0
M  V30 5060 H 479.039 4.8192 -0.536738 0
M  V30 5061 N 480.382 0.0267497 1.57577 0
M  V30 5062 C 481.63 -0.651116 1.91324 0
M  V30 5063 C 481.951 -1.72804 0.90353 0
M  V30 5064 O 481.221 -1.95822 -0.0552946 0
M  V30 5065 H 479.801 -0.243491 0.706202 0
M  V30 5066 H 482.463 0.0739935 1.94759 0
M  V30 5067 H 481.559 -1.10536 2.9187 0
M  V30 5068 N 481.861 -1.55662 -0.24637 0
M  V30 5069 C 483.272 -1.67953 -0.81539 0
M  V30 5070 C 483.623 -0.624302 -1.86002 0
M  V30 5071 O 482.748 0.229328 -2.15181 0
M  V30 5072 C 483.343 -3.04484 -1.48576 0
M  V30 5073 C 481.902 -3.18713 -2.00248 0
M  V30 5074 C 481.049 -2.6383 -0.853766 0
M  V30 5075 H 484 -1.58685 -0.0221692 0
M  V30 5076 H 484.021 -2.98959 -2.3538 0
M  V30 5077 H 483.533 -3.81264 -0.725222 0
M  V30 5078 H 481.634 -2.46757 -2.79181 0
M  V30 5079 H 481.747 -4.25628 -2.1995 0
M  V30 5080 H 480.111 -2.21667 -1.25442 0
M  V30 5081 H 480.894 -3.43135 -0.106302 0
M  V30 5082 N 483.339 0.512053 -1.4905 0
M  V30 5083 C 484.564 1.2959 -1.6193 0
M  V30 5084 C 484.989 1.85906 -0.286454 0
M  V30 5085 O 484.347 1.65312 0.744426 0
M  V30 5086 C 484.395 2.40987 -2.68249 0
M  V30 5087 O 483.499 3.44531 -2.26654 0
M  V30 5088 H 482.84 0.383053 -0.542371 0
M  V30 5089 H 485.37 0.614231 -1.95162 0
M  V30 5090 H 485.38 2.86913 -2.90078 0
M  V30 5091 H 484.055 1.99361 -3.65004 0
M  V30 5092 H 482.632 3.046 -2.15112 0
M  V30 5093 N 484.817 1.37938 0.762283 0
M  V30 5094 C 485.747 1.37176 1.88958 0
M  V30 5095 C 486.728 0.238945 1.68413 0
M  V30 5096 O 487.913 0.440726 1.89133 0
M  V30 5097 C 485.043 1.18742 3.2637 0
M  V30 5098 C 483.997 2.29136 3.61498 0
M  V30 5099 C 483.323 1.95816 4.97554 0
M  V30 5100 C 484.623 3.71363 3.6727 0
M  V30 5101 H 486.317 2.31509 1.89853 0
M  V30 5102 H 483.863 1.11438 0.912005 0
M  V30 5103 H 485.816 1.16837 4.04879 0
M  V30 5104 H 484.54 0.208683 3.25933 0
M  V30 5105 H 483.199 2.30213 2.85303 0
M  V30 5106 H 482.847 0.964475 4.93667 0
M  V30 5107 H 482.547 2.69745 5.22026 0
M  V30 5108 H 484.071 1.95513 5.78452 0
M  V30 5109 H 485.485 3.72364 4.35911 0
M  V30 5110 H 483.882 4.44425 4.03245 0
M  V30 5111 H 484.952 4.04305 2.67704 0
M  V30 5112 N 486.295 -0.989507 1.22664 0
M  V30 5113 C 487.228 -2.07805 0.942985 0
M  V30 5114 C 488.206 -1.6219 -0.115356 0
M  V30 5115 O 489.39 -1.88492 0.0169565 0
M  V30 5116 C 486.517 -3.361 0.418898 0
M  V30 5117 C 485.563 -4.00643 1.46244 0
M  V30 5118 S 486.396 -4.41059 3.03689 0
M  V30 5119 C 487.552 -5.7252 2.52927 0
M  V30 5120 H 487.785 -2.31547 1.86476 0
M  V30 5121 H 485.318 -1.12446 1.05808 0
M  V30 5122 H 487.276 -4.10315 0.123114 0
M  V30 5123 H 485.937 -3.10383 -0.481818 0
M  V30 5124 H 485.13 -4.93033 1.04569 0
M  V30 5125 H 484.732 -3.32767 1.7071 0
M  V30 5126 H 487.024 -6.49017 1.94379 0
M  V30 5127 H 487.967 -6.19026 3.4382 0
M  V30 5128 H 488.375 -5.30083 1.94094 0
M  V30 5129 N 487.773 -1.03688 -1.18687 0
M  V30 5130 C 488.721 -0.618292 -2.24232 0
M  V30 5131 C 489.715 0.353045 -1.6568 0
M  V30 5132 O 490.921 0.220749 -1.78641 0
M  V30 5133 H 487.296 -0.181711 -0.729716 0
M  V30 5134 H 489.267 -1.51893 -2.56848 0
M  V30 5135 C 488.016 0.00677342 -3.47699 0
M  V30 5136 H 487.339 -0.731692 -3.93047 0
M  V30 5137 H 488.779 0.262492 -4.23187 0
M  V30 5138 C 487.238 1.25572 -3.12623 0
M  V30 5139 O 487.768 2.34691 -3.26011 0
M  V30 5140 N 485.974 1.14755 -2.66982 0
M  V30 5141 H 485.521 0.259601 -2.56289 0
M  V30 5142 H 485.479 1.98412 -2.43885 0
M  V30 5143 N 489.251 1.34841 -0.815825 0
M  V30 5144 C 490.181 2.32187 -0.247298 0
M  V30 5145 C 491.162 1.5791 0.632344 0
M  V30 5146 O 492.347 1.8593 0.560698 0
M  V30 5147 C 489.477 3.42122 0.597466 0
M  V30 5148 C 488.431 4.27602 -0.184446 0
M  V30 5149 C 487.757 5.28942 0.782609 0
M  V30 5150 C 489.057 5.03502 -1.38865 0
M  V30 5151 H 490.751 2.79985 -1.06061 0
M  V30 5152 H 488.297 1.34611 -0.511461 0
M  V30 5153 H 490.25 4.09232 1.00533 0
M  V30 5154 H 488.974 2.92956 1.44376 0
M  V30 5155 H 487.633 3.62085 -0.573592 0
M  V30 5156 H 487.281 4.7604 1.62466 0
M  V30 5157 H 486.981 5.87008 0.263695 0
M  V30 5158 H 488.505 5.98922 1.18848 0
M  V30 5159 H 489.919 5.63506 -1.05518 0
M  V30 5160 H 488.316 5.71108 -1.8427 0
M  V30 5161 H 489.386 4.33608 -2.17054 0
M  V30 5162 N 490.729 0.570148 1.46925 0
M  V30 5163 C 491.978 0.0487352 2.01641 0
M  V30 5164 C 492.291 -1.31433 1.44861 0
M  V30 5165 O 493.497 -1.92638 1.91318 0
M  V30 5166 C 491.953 0.0365817 3.59881 0
M  V30 5167 C 491.561 1.39719 4.25655 0
M  V30 5168 C 493.305 -0.431545 4.22301 0
M  V30 5169 C 491.212 1.34345 5.75939 0
M  V30 5170 H 490.142 0.0144492 0.753862 0
M  V30 5171 H 492.793 0.719928 1.68788 0
M  V30 5172 H 491.175 -0.700522 3.89755 0
M  V30 5173 H 492.349 2.15303 4.07408 0
M  V30 5174 H 490.664 1.80431 3.75278 0
M  V30 5175 H 493.261 -0.490354 5.32447 0
M  V30 5176 H 493.604 -1.44638 3.90366 0
M  V30 5177 H 494.137 0.251102 3.97007 0
M  V30 5178 H 490.876 2.33469 6.12513 0
M  V30 5179 H 490.396 0.629615 5.96486 0
M  V30 5180 H 492.075 1.051 6.38407 0
M  V30 5181 N 492.207 -1.54576 0.307264 0
M  V30 5182 C 493.17 -2.22423 -0.553224 0
M  V30 5183 C 494.17 -1.21231 -1.05639 0
M  V30 5184 O 495.36 -1.45923 -0.951419 0
M  V30 5185 C 492.492 -2.91552 -1.76664 0
M  V30 5186 H 493.685 -2.99874 0.0396484 0
M  V30 5187 H 491.238 -1.56192 0.0581629 0
M  V30 5188 H 491.973 -2.18196 -2.39918 0
M  V30 5189 H 491.758 -3.65738 -1.41343 0
M  V30 5190 H 493.248 -3.43292 -2.37783 0
M  V30 5191 N 493.685 -0.035106 -1.57561 0
M  V30 5192 C 494.933 0.64096 -1.91667 0
M  V30 5193 C 495.254 1.72323 -0.912681 0
M  V30 5194 O 494.524 1.95849 0.0449089 0
M  V30 5195 H 493.104 0.239743 -0.707483 0
M  V30 5196 H 495.766 -0.084321 -1.94718 0
M  V30 5197 H 494.862 1.08987 -2.92452 0
M  V30 5198 N 495.163 1.55791 0.238111 0
M  V30 5199 C 496.403 1.79801 0.972163 0
M  V30 5200 C 496.767 0.606027 1.82185 0
M  V30 5201 O 497.968 0.725079 2.58836 0
M  V30 5202 C 496.239 3.08608 1.80266 0
M  V30 5203 S 497.798 3.53872 2.59461 0
M  V30 5204 H 494.616 0.631418 0.326852 0
M  V30 5205 H 497.218 1.94031 0.239212 0
M  V30 5206 H 495.922 3.93419 1.1683 0
M  V30 5207 H 495.453 2.9714 2.57821 0
M  V30 5208 H 497.468 3.15899 3.82651 0
M  V30 5209 N 496.642 -0.504142 1.49319 0
M  V30 5210 C 497.889 -1.25846 1.58647 0
M  V30 5211 C 498.217 -1.92592 0.27177 0
M  V30 5212 O 497.472 -1.81167 -0.74007 0
M  V30 5213 C 497.771 -2.35021 2.69258 0
M  V30 5214 C 497.437 -1.85755 4.1086 0
M  V30 5215 C 496.099 -1.72038 4.49395 0
M  V30 5216 C 498.451 -1.48844 4.99495 0
M  V30 5217 C 495.779 -1.19783 5.74342 0
M  V30 5218 C 498.131 -0.980422 6.24956 0
M  V30 5219 C 496.795 -0.829622 6.62324 0
M  V30 5220 H 496.065 -0.460505 0.580531 0
M  V30 5221 H 498.712 -0.559716 1.83138 0
M  V30 5222 H 497.017 -3.10672 2.38726 0
M  V30 5223 H 498.714 -2.93083 2.73685 0
M  V30 5224 H 495.304 -1.9739 3.80441 0
M  V30 5225 H 499.488 -1.5829 4.70381 0
M  V30 5226 H 494.744 -1.06817 6.01997 0
M  V30 5227 H 498.918 -0.685608 6.93017 0
M  V30 5228 H 496.545 -0.42253 7.59025 0
M  V30 5229 N 498.12 -1.38341 -0.754957 0
M  V30 5230 C 499.35 -1.37504 -1.54195 0
M  V30 5231 C 499.758 0.0373787 -1.89163 0
M  V30 5232 O 499.101 1.01402 -1.53178 0
M  V30 5233 C 499.163 -2.16488 -2.87008 0
M  V30 5234 C 498.827 -3.65311 -2.74585 0
M  V30 5235 C 499.824 -4.58834 -2.44474 0
M  V30 5236 C 497.509 -4.08649 -2.9208 0
M  V30 5237 C 499.503 -5.93675 -2.32011 0
M  V30 5238 C 497.19 -5.43571 -2.79237 0
M  V30 5239 C 498.188 -6.35898 -2.49245 0
M  V30 5240 O 497.876 -7.68338 -2.36458 0
M  V30 5241 H 497.608 -0.472159 -0.483779 0
M  V30 5242 H 500.162 -1.82515 -0.94221 0
M  V30 5243 H 498.392 -1.66194 -3.49166 0
M  V30 5244 H 500.081 -2.08076 -3.4851 0
M  V30 5245 H 500.847 -4.26657 -2.30627 0
M  V30 5246 H 496.726 -3.37134 -3.14422 0
M  V30 5247 H 500.27 -6.65706 -2.08522 0
M  V30 5248 H 496.167 -5.75345 -2.92657 0
M  V30 5249 H 496.935 -7.78845 -2.5168 0
M  V30 5250 N 499.598 0.982988 -1.23187 0
M  V30 5251 C 500.875 1.69814 -0.970707 0
M  V30 5252 C 501.255 2.04811 0.511424 0
M  V30 5253 O 500.603 1.73924 1.48198 0
M  V30 5254 C 500.813 2.94143 -1.87831 0
M  V30 5255 C 502.161 3.66712 -2.14026 0
M  V30 5256 O 503.185 3.04171 -1.8536 0
M  V30 5257 O 502.044 4.79258 -2.62629 0
M  V30 5258 H 499.138 0.741659 -0.365884 0
M  V30 5259 H 501.684 1.03844 -1.34218 0
M  V30 5260 H 500.456 2.64858 -2.88038 0
M  V30 5261 H 500.079 3.6785 -1.50905 0
M  V30 5262 N 501.076 1.04316 1.18135 0
M  V30 5263 C 502.324 0.746542 1.87806 0
M  V30 5264 C 502.645 -0.728082 1.80898 0
M  V30 5265 O 501.915 -1.52554 1.22899 0
M  V30 5266 H 500.495 0.273157 0.695265 0
M  V30 5267 H 503.157 1.32044 1.43354 0
M  V30 5268 H 502.253 1.05362 2.93778 0
M  V30 5269 N 502.554 -1.34406 0.822964 0
M  V30 5270 C 503.803 -1.97542 0.407458 0
M  V30 5271 C 504.116 -1.65973 -1.035 0
M  V30 5272 O 505.322 -2.22598 -1.55442 0
M  V30 5273 C 503.778 -3.53463 0.677623 0
M  V30 5274 C 503.386 -3.93925 2.1337 0
M  V30 5275 C 505.13 -4.23229 0.328284 0
M  V30 5276 C 503.037 -5.42759 2.34876 0
M  V30 5277 H 501.967 -0.739207 0.148623 0
M  V30 5278 H 504.618 -1.53248 1.00932 0
M  V30 5279 H 503 -3.96 0.00558965 0
M  V30 5280 H 504.174 -3.62494 2.8449 0
M  V30 5281 H 502.489 -3.37097 2.44448 0
M  V30 5282 H 505.086 -5.32659 0.466794 0
M  V30 5283 H 505.429 -4.09899 -0.727224 0
M  V30 5284 H 505.962 -3.86169 0.954896 0
M  V30 5285 H 502.701 -5.61075 3.38932 0
M  V30 5286 H 502.221 -5.75704 1.68299 0
M  V30 5287 H 503.9 -6.0944 2.17236 0
M  V30 5288 N 504.032 -0.577932 -1.46621 0
M  V30 5289 C 504.962 0.145917 -2.33044 0
M  V30 5290 C 505.943 0.888412 -1.45056 0
M  V30 5291 O 507.128 0.864812 -1.73881 0
M  V30 5292 C 504.258 1.16322 -3.27241 0
M  V30 5293 C 503.212 0.535868 -4.24632 0
M  V30 5294 C 502.538 1.65929 -5.08303 0
M  V30 5295 C 503.838 -0.523861 -5.19666 0
M  V30 5296 H 505.532 -0.575636 -2.93814 0
M  V30 5297 H 503.078 -0.278272 -1.41286 0
M  V30 5298 H 505.031 1.67793 -3.86553 0
M  V30 5299 H 503.755 1.91498 -2.64567 0
M  V30 5300 H 502.414 0.0422759 -3.66576 0
M  V30 5301 H 502.062 2.40061 -4.42018 0
M  V30 5302 H 501.762 1.2452 -5.74255 0
M  V30 5303 H 503.286 2.17686 -5.70478 0
M  V30 5304 H 504.7 -0.0944059 -5.73222 0
M  V30 5305 H 503.097 -0.858 -5.93935 0
M  V30 5306 H 504.167 -1.41197 -4.63887 0
M  V30 5307 N 505.51 1.54411 -0.315457 0
M  V30 5308 C 506.44 2.27002 0.547039 0
M  V30 5309 C 507.421 1.27492 1.12605 0
M  V30 5310 O 508.606 1.5629 1.15269 0
M  V30 5311 C 505.736 3.02171 1.71201 0
M  V30 5312 C 504.69 4.0895 1.26268 0
M  V30 5313 C 504.016 4.71915 2.51396 0
M  V30 5314 C 505.316 5.20891 0.383419 0
M  V30 5315 H 507.01 2.99343 -0.0584517 0
M  V30 5316 H 504.556 1.4397 -0.0295527 0
M  V30 5317 H 506.509 3.51681 2.32161 0
M  V30 5318 H 505.233 2.27433 2.34397 0
M  V30 5319 H 503.892 3.60312 0.676062 0
M  V30 5320 H 503.54 3.93801 3.12937 0
M  V30 5321 H 503.24 5.44039 2.22026 0
M  V30 5322 H 504.764 5.24195 3.13133 0
M  V30 5323 H 506.178 5.66206 0.899082 0
M  V30 5324 H 504.575 5.99821 0.182857 0
M  V30 5325 H 505.645 4.81324 -0.587821 0
M  V30 5326 N 506.988 0.0434614 1.5754 0
M  V30 5327 C 508.218 -0.640905 1.96408 0
M  V30 5328 C 508.626 -1.65365 0.919297 0
M  V30 5329 O 507.969 -1.83395 -0.105795 0
M  V30 5330 C 508.031 -1.39141 3.31482 0
M  V30 5331 C 507.695 -0.535375 4.53853 0
M  V30 5332 C 508.692 0.195335 5.19533 0
M  V30 5333 C 506.377 -0.468564 5.0011 0
M  V30 5334 C 508.371 0.981377 6.298 0
M  V30 5335 C 506.058 0.321171 6.10255 0
M  V30 5336 C 507.056 1.04484 6.74961 0
M  V30 5337 O 506.744 1.8216 7.8299 0
M  V30 5338 H 506.476 -0.180584 0.651433 0
M  V30 5339 H 509.03 0.103848 2.05137 0
M  V30 5340 H 507.26 -2.18162 3.19284 0
M  V30 5341 H 508.949 -1.96526 3.55151 0
M  V30 5342 H 509.715 0.15314 4.84758 0
M  V30 5343 H 505.594 -1.02142 4.49542 0
M  V30 5344 H 509.138 1.54674 6.80237 0
M  V30 5345 H 505.035 0.365032 6.44467 0
M  V30 5346 H 505.803 1.74289 7.99728 0
M  V30 5347 N 508.466 -1.55915 -0.229846 0
M  V30 5348 C 509.429 -1.90914 -1.26824 0
M  V30 5349 C 510.429 -0.786999 -1.40225 0
M  V30 5350 O 511.619 -1.05484 -1.38632 0
M  V30 5351 C 508.751 -2.15264 -2.64337 0
M  V30 5352 H 509.944 -2.8378 -0.969998 0
M  V30 5353 H 507.497 -1.49069 -0.4699 0
M  V30 5354 H 508.232 -1.24923 -2.99274 0
M  V30 5355 H 508.017 -2.97005 -2.55989 0
M  V30 5356 H 509.507 -2.43467 -3.39284 0
M  V30 5357 N 509.944 0.496216 -1.49584 0
M  V30 5358 C 510.854 1.62352 -1.69349 0
M  V30 5359 C 511.87 1.64184 -0.576147 0
M  V30 5360 O 513.046 1.82517 -0.85144 0
M  V30 5361 C 510.111 2.98698 -1.76013 0
M  V30 5362 C 509.172 3.07454 -2.99617 0
M  V30 5363 C 508.405 4.37296 -3.05953 0
M  V30 5364 O 508.628 5.2637 -2.19752 0
M  V30 5365 O 507.562 4.51124 -3.9846 0
M  V30 5366 H 511.388 1.48606 -2.64859 0
M  V30 5367 H 508.973 0.673022 -1.33382 0
M  V30 5368 H 510.855 3.79725 -1.82721 0
M  V30 5369 H 509.53 3.12696 -0.836828 0
M  V30 5370 H 508.437 2.25597 -2.98424 0
M  V30 5371 H 509.77 2.98385 -3.91443 0
M  V30 5372 N 511.423 1.38739 0.74761 0
M  V30 5373 C 512.669 1.35475 1.50912 0
M  V30 5374 C 513.002 -0.0533093 1.94127 0
M  V30 5375 O 512.277 -1.01572 1.65871 0
M  V30 5376 C 512.56 2.31582 2.75757 0
M  V30 5377 C 512.413 3.81274 2.38642 0
M  V30 5378 C 513.732 2.25722 3.77806 0
M  V30 5379 H 510.851 0.493427 0.547447 0
M  V30 5380 H 513.493 1.69634 0.855823 0
M  V30 5381 H 511.643 2.02582 3.31501 0
M  V30 5382 H 513.315 4.20972 1.88626 0
M  V30 5383 H 511.558 3.98664 1.71025 0
M  V30 5384 H 512.229 4.4399 3.27989 0
M  V30 5385 H 514.705 2.51336 3.31616 0
M  V30 5386 H 513.581 2.95069 4.62845 0
M  V30 5387 H 513.842 1.25803 4.23823 0
M  V30 5388 N 512.901 -0.976442 1.23707 0
M  V30 5389 C 513.831 -2.08749 1.04624 0
M  V30 5390 C 514.812 -1.70057 -0.0380956 0
M  V30 5391 O 515.997 -1.93782 0.127308 0
M  V30 5392 C 513.127 -3.41335 0.640902 0
M  V30 5393 C 512.081 -3.93947 1.67302 0
M  V30 5394 C 511.407 -5.22774 1.12301 0
M  V30 5395 C 512.707 -4.22769 3.06697 0
M  V30 5396 H 514.401 -2.24972 1.97555 0
M  V30 5397 H 511.947 -1.08108 0.951247 0
M  V30 5398 H 513.9 -4.18489 0.494434 0
M  V30 5399 H 512.624 -3.24988 -0.324099 0
M  V30 5400 H 511.283 -3.18941 1.80755 0
M  V30 5401 H 510.931 -5.0278 0.148877 0
M  V30 5402 H 510.631 -5.58942 1.81267 0
M  V30 5403 H 512.155 -6.02546 0.988479 0
M  V30 5404 H 513.569 -4.90659 2.96524 0
M  V30 5405 H 511.966 -4.70147 3.72937 0
M  V30 5406 H 513.036 -3.29885 3.55392 0
M  V30 5407 N 514.379 -1.04941 -1.1758 0
M  V30 5408 C 515.327 -0.64204 -2.23563 0
M  V30 5409 C 516.321 0.335453 -1.66045 0
M  V30 5410 O 517.527 0.20179 -1.78865 0
M  V30 5411 H 513.902 -0.18944 -0.727748 0
M  V30 5412 H 515.873 -1.54609 -2.55223 0
M  V30 5413 C 514.622 -0.0301051 -3.47687 0
M  V30 5414 H 513.945 -0.773339 -3.92249 0
M  V30 5415 H 515.385 0.217592 -4.23441 0
M  V30 5416 C 513.844 1.2225 -3.13937 0
M  V30 5417 O 514.374 2.3122 -3.28482 0
M  V30 5418 N 512.58 1.11917 -2.68185 0
M  V30 5419 H 512.127 0.232403 -2.5655 0
M  V30 5420 H 512.085 1.95814 -2.45976 0
M  V30 5421 N 515.857 1.33968 -0.830081 0
M  V30 5422 C 516.767 2.33164 -0.259207 0
M  V30 5423 C 517.783 1.62951 0.610164 0
M  V30 5424 O 518.959 1.94668 0.516369 0
M  V30 5425 C 516.024 3.42088 0.563598 0
M  V30 5426 C 515.085 4.28037 -0.329014 0
M  V30 5427 C 514.318 5.3176 0.454616 0
M  V30 5428 O 514.541 5.44876 1.6872 0
M  V30 5429 O 513.475 6.01669 -0.166794 0
M  V30 5430 H 517.301 2.83832 -1.08041 0
M  V30 5431 H 514.886 1.37154 -0.59239 0
M  V30 5432 H 516.768 4.08581 1.03147 0
M  V30 5433 H 515.443 2.93651 1.36201 0
M  V30 5434 H 514.35 3.64443 -0.844538 0
M  V30 5435 H 515.683 4.79934 -1.09196 0
M  V30 5436 N 517.335 0.585699 1.46312 0
M  V30 5437 C 518.563 0.0781299 2.06752 0
M  V30 5438 C 518.978 -1.22812 1.43396 0
M  V30 5439 O 518.335 -1.74318 0.540314 0
M  V30 5440 C 518.386 -0.0911927 3.61385 0
M  V30 5441 O 518.107 1.16336 4.22371 0
M  V30 5442 C 519.608 -0.632765 4.38761 0
M  V30 5443 H 516.828 0.0588188 0.668417 0
M  V30 5444 H 519.372 0.807218 1.87894 0
M  V30 5445 H 517.527 -0.770514 3.7966 0
M  V30 5446 H 517.941 0.979082 5.15281 0
M  V30 5447 H 519.415 -0.70041 5.47538 0
M  V30 5448 H 519.892 -1.65039 4.07012 0
M  V30 5449 H 520.498 0.0117856 4.25298 0
M  V30 5450 N 518.813 -1.54241 0.323641 0
M  V30 5451 C 520.062 -1.9975 -0.279806 0
M  V30 5452 C 520.375 -1.2156 -1.5324 0
M  V30 5453 O 521.581 -1.57447 -2.21185 0
M  V30 5454 C 520.037 -3.55686 -0.549115 0
M  V30 5455 C 519.645 -4.4271 0.686432 0
M  V30 5456 C 521.389 -4.09663 -1.11251 0
M  V30 5457 C 519.296 -5.90119 0.389022 0
M  V30 5458 H 518.226 -0.746177 -0.10833 0
M  V30 5459 H 520.877 -1.78248 0.435877 0
M  V30 5460 H 519.259 -3.73176 -1.32499 0
M  V30 5461 H 520.433 -4.36996 1.46188 0
M  V30 5462 H 518.748 -3.99623 1.17005 0
M  V30 5463 H 521.345 -5.17386 -1.34965 0
M  V30 5464 H 521.688 -3.61651 -2.06191 0
M  V30 5465 H 522.221 -3.95806 -0.39782 0
M  V30 5466 H 518.96 -6.42326 1.30759 0
M  V30 5467 H 518.48 -5.98785 -0.348722 0
M  V30 5468 H 520.159 -6.47 -0.0011164 0
M  V30 5469 N 520.291 -0.0518155 -1.57515 0
M  V30 5470 C 521.223 0.951542 -2.08515 0
M  V30 5471 C 522.236 1.27436 -1.01311 0
M  V30 5472 O 523.425 1.23504 -1.28876 0
M  V30 5473 C 520.525 2.27291 -2.5138 0
M  V30 5474 C 519.698 2.13191 -3.81927 0
M  V30 5475 C 518.757 3.28458 -4.11098 0
M  V30 5476 O 517.783 3.04334 -4.81009 0
M  V30 5477 N 518.985 4.52954 -3.63061 0
M  V30 5478 H 521.75 0.516242 -2.9522 0
M  V30 5479 H 519.311 0.13441 -1.61341 0
M  V30 5480 H 521.303 3.03272 -2.67971 0
M  V30 5481 H 519.873 2.62386 -1.69919 0
M  V30 5482 H 519.093 1.21798 -3.74912 0
M  V30 5483 H 520.381 2.00999 -4.67415 0
M  V30 5484 H 519.779 4.75444 -3.06545 0
M  V30 5485 H 518.336 5.26026 -3.84889 0
M  V30 5486 N 521.769 1.56035 0.221574 0
M  V30 5487 C 522.679 1.95581 1.29558 0
M  V30 5488 C 523.695 0.859639 1.51282 0
M  V30 5489 O 524.871 1.16321 1.64413 0
M  V30 5490 C 521.936 2.26447 2.62531 0
M  V30 5491 C 520.997 3.49632 2.4911 0
M  V30 5492 C 520.23 3.79017 3.75742 0
M  V30 5493 O 520.453 3.10077 4.78757 0
M  V30 5494 O 519.387 4.72507 3.72855 0
M  V30 5495 H 523.213 2.8711 0.990035 0
M  V30 5496 H 520.798 1.43244 0.424434 0
M  V30 5497 H 522.68 2.47494 3.41064 0
M  V30 5498 H 521.355 1.38092 2.92766 0
M  V30 5499 H 520.262 3.33864 1.68777 0
M  V30 5500 H 521.595 4.3837 2.23814 0
M  V30 5501 N 523.247 -0.488276 1.49845 0
M  V30 5502 C 524.495 -1.23911 1.59657 0
M  V30 5503 C 524.816 -1.92816 0.291005 0
M  V30 5504 O 524.086 -1.83328 -0.690485 0
M  V30 5505 H 522.666 -0.460357 0.588286 0
M  V30 5506 H 525.328 -0.564794 1.86537 0
M  V30 5507 H 524.424 -1.99625 2.39909 0
M  V30 5508 N 524.725 -1.39134 -0.740242 0
M  V30 5509 C 525.973 -1.35803 -1.49673 0
M  V30 5510 C 526.294 0.0470897 -1.94943 0
M  V30 5511 O 525.564 0.997347 -1.68611 0
M  V30 5512 H 524.144 -0.499736 -0.555224 0
M  V30 5513 H 526.806 -1.73947 -0.879107 0
M  V30 5514 H 525.902 -2.0174 -2.38133 0
M  V30 5515 N 526.204 0.969867 -1.24223 0
M  V30 5516 C 527.432 1.74756 -1.10761 0
M  V30 5517 C 527.847 1.85713 0.340041 0
M  V30 5518 O 527.204 1.34389 1.23474 0
M  V30 5519 C 527.255 3.16915 -1.73917 0
M  V30 5520 O 526.976 3.06511 -3.13021 0
M  V30 5521 C 528.477 4.11032 -1.66036 0
M  V30 5522 H 525.697 0.548092 -0.387087 0
M  V30 5523 H 528.241 1.2178 -1.64286 0
M  V30 5524 H 526.396 3.66884 -1.244 0
M  V30 5525 H 526.81 3.96079 -3.43834 0
M  V30 5526 H 528.284 5.08446 -2.14911 0
M  V30 5527 H 528.761 4.34785 -0.621159 0
M  V30 5528 H 529.367 3.66972 -2.14969 0
M  V30 5529 N 527.682 1.05563 1.17022 0
M  V30 5530 C 529.098 0.777684 1.39371 0
M  V30 5531 C 529.298 -0.626269 1.91521 0
M  V30 5532 O 528.354 -1.38806 2.10924 0
M  V30 5533 C 529.667 1.83642 2.3811 0
M  V30 5534 C 531.215 1.85907 2.51809 0
M  V30 5535 C 531.69 2.90813 3.53824 0
M  V30 5536 N 533.181 2.898 3.61345 0
M  V30 5537 C 533.916 3.6762 4.40049 0
M  V30 5538 N 533.412 4.55237 5.22237 0
M  V30 5539 N 535.205 3.56044 4.34959 0
M  V30 5540 H 527.356 1.9614 0.815047 0
M  V30 5541 H 529.619 0.849527 0.420722 0
M  V30 5542 H 529.325 2.84425 2.06871 0
M  V30 5543 H 529.199 1.6812 3.37662 0
M  V30 5544 H 531.586 0.857865 2.82356 0
M  V30 5545 H 531.667 2.05506 1.52318 0
M  V30 5546 H 531.311 3.91122 3.24015 0
M  V30 5547 H 531.241 2.68465 4.53028 0
M  V30 5548 H 533.732 2.26274 3.02669 0
M  V30 5549 H 534.045 5.11291 5.79484 0
M  V30 5550 H 532.39 4.59296 5.21605 0
M  V30 5551 H 535.581 2.86986 3.69806 0
M  V30 5552 H 535.754 4.16938 4.96051 0
M  V30 5553 N 529.16 -1.33526 0.837174 0
M  V30 5554 C 530.07 -2.33023 0.271568 0
M  V30 5555 C 531.086 -1.63272 -0.601514 0
M  V30 5556 O 532.262 -1.94939 -0.506038 0
M  V30 5557 C 529.327 -3.42382 -0.545448 0
M  V30 5558 C 528.388 -4.27857 0.351709 0
M  V30 5559 C 527.621 -5.31994 -0.426409 0
M  V30 5560 O 527.844 -5.45763 -1.65828 0
M  V30 5561 O 526.778 -6.01572 0.1987 0
M  V30 5562 H 530.604 -2.83256 1.09545 0
M  V30 5563 H 528.189 -1.36837 0.599655 0
M  V30 5564 H 530.071 -4.09122 -1.00979 0
M  V30 5565 H 528.746 -2.94369 -1.34641 0
M  V30 5566 H 527.653 -3.6399 0.863853 0
M  V30 5567 H 528.986 -4.79349 1.1174 0
M  V30 5568 N 530.638 -0.59345 -1.46 0
M  V30 5569 C 531.915 -0.0157933 -1.95594 0
M  V30 5570 C 532.295 1.44807 -1.53604 0
M  V30 5571 O 531.643 2.14342 -0.791824 0
M  V30 5572 C 531.853 -0.199081 -3.48432 0
M  V30 5573 C 533.201 -0.0724943 -4.24538 0
M  V30 5574 O 534.225 -0.128469 -3.55968 0
M  V30 5575 O 533.084 0.0542426 -5.46473 0
M  V30 5576 H 530.178 0.043749 -0.825842 0
M  V30 5577 H 532.724 -0.662522 -1.56233 0
M  V30 5578 H 531.496 -1.21631 -3.71916 0
M  V30 5579 H 531.119 0.483576 -3.94648 0
M  V30 5580 N 532.116 1.54067 -0.331816 0
M  V30 5581 C 533.364 2.00319 0.267739 0
M  V30 5582 C 533.685 1.22148 1.52003 0
M  V30 5583 O 532.955 0.325494 1.93177 0
M  V30 5584 H 531.535 0.740014 0.101922 0
M  V30 5585 H 534.197 1.89628 -0.450267 0
M  V30 5586 H 533.293 3.07765 0.518385 0
M  V30 5587 N 533.594 0.0601682 1.57485 0
M  V30 5588 C 534.524 -0.90889 2.15085 0
M  V30 5589 C 535.505 -1.31838 1.07484 0
M  V30 5590 O 536.69 -1.3915 1.35466 0
M  V30 5591 C 533.82 -2.18059 2.7031 0
M  V30 5592 C 532.774 -1.91088 3.82974 0
M  V30 5593 C 532.1 -3.24789 4.24754 0
M  V30 5594 C 533.4 -1.22535 5.07723 0
M  V30 5595 H 535.094 -0.429093 2.96309 0
M  V30 5596 H 532.64 -0.204952 1.42534 0
M  V30 5597 H 534.593 -2.86258 3.09248 0
M  V30 5598 H 533.317 -2.6826 1.8629 0
M  V30 5599 H 531.976 -1.25297 3.44523 0
M  V30 5600 H 531.624 -3.72809 3.37672 0
M  V30 5601 H 531.324 -3.07538 5.00694 0
M  V30 5602 H 532.848 -3.94205 4.66299 0
M  V30 5603 H 534.262 -1.80783 5.4405 0
M  V30 5604 H 532.659 -1.1558 5.88864 0
M  V30 5605 H 533.729 -0.202692 4.84476 0
M  V30 5606 N 535.072 -1.5615 -0.213296 0
M  V30 5607 C 536.488 -1.49327 -0.56336 0
M  V30 5608 C 536.688 -0.756826 -1.86747 0
M  V30 5609 O 535.744 -0.299866 -2.50713 0
M  V30 5610 C 537.057 -2.9392 -0.634944 0
M  V30 5611 C 538.605 -3.04487 -0.725013 0
M  V30 5612 C 539.08 -4.50456 -0.82787 0
M  V30 5613 N 540.571 -4.54533 -0.891876 0
M  V30 5614 C 541.306 -5.64766 -0.991315 0
M  V30 5615 N 540.802 -6.84733 -1.05419 0
M  V30 5616 N 542.595 -5.52637 -1.02709 0
M  V30 5617 H 534.746 -2.02453 0.642366 0
M  V30 5618 H 537.009 -0.920548 0.226487 0
M  V30 5619 H 536.715 -3.50783 0.253859 0
M  V30 5620 H 536.589 -3.46274 -1.49579 0
M  V30 5621 H 538.976 -2.47685 -1.60425 0
M  V30 5622 H 539.057 -2.55289 0.161669 0
M  V30 5623 H 538.701 -5.07878 0.0469464 0
M  V30 5624 H 538.631 -4.97369 -1.73009 0
M  V30 5625 H 541.122 -3.68141 -0.85327 0
M  V30 5626 H 541.435 -7.64493 -1.13007 0
M  V30 5627 H 539.78 -6.87427 -1.02318 0
M  V30 5628 H 542.971 -4.5784 -0.974687 0
M  V30 5629 H 543.144 -6.38576 -1.10113 0
M  V30 5630 N 536.55 0.480323 -1.50102 0
M  V30 5631 C 537.799 1.22979 -1.59872 0
M  V30 5632 C 538.112 1.93282 -0.30022 0
M  V30 5633 O 539.318 2.70086 -0.276709 0
M  V30 5634 C 537.774 2.23408 -2.82164 0
M  V30 5635 C 537.382 1.5895 -4.18854 0
M  V30 5636 C 539.126 2.99055 -3.01275 0
M  V30 5637 C 537.033 2.57611 -5.32344 0
M  V30 5638 H 535.963 0.462707 -0.59533 0
M  V30 5639 H 538.614 0.501291 -1.7652 0
M  V30 5640 H 536.996 2.99511 -2.59055 0
M  V30 5641 H 538.17 0.887 -4.52182 0
M  V30 5642 H 536.485 0.956191 -4.05273 0
M  V30 5643 H 539.082 3.72876 -3.83233 0
M  V30 5644 H 539.425 3.57897 -2.12639 0
M  V30 5645 H 539.958 2.30066 -3.24522 0
M  V30 5646 H 536.697 2.03521 -6.23105 0
M  V30 5647 H 536.217 3.26041 -5.03445 0
M  V30 5648 H 537.896 3.19627 -5.62537 0
M  V30 5649 N 538.028 1.39524 0.732853 0
M  V30 5650 C 539.274 1.37068 1.49467 0
M  V30 5651 C 539.607 -0.0327166 1.94172 0
M  V30 5652 O 538.882 -0.998071 1.66939 0
M  V30 5653 C 539.165 2.34494 2.73285 0
M  V30 5654 C 539.018 3.83784 2.34585 0
M  V30 5655 C 540.337 2.29717 3.75391 0
M  V30 5656 H 537.456 0.499206 0.542183 0
M  V30 5657 H 540.098 1.70532 0.837783 0
M  V30 5658 H 538.248 2.06087 3.29333 0
M  V30 5659 H 539.92 4.22949 1.84151 0
M  V30 5660 H 538.163 4.00455 1.66787 0
M  V30 5661 H 538.834 4.47444 3.23262 0
M  V30 5662 H 541.31 2.54839 3.28932 0
M  V30 5663 H 540.186 2.99962 4.59689 0
M  V30 5664 H 540.447 1.30291 4.22465 0
M  V30 5665 N 539.506 -0.963266 1.24736 0
M  V30 5666 C 540.416 -2.09246 1.06082 0
M  V30 5667 C 541.432 -1.74 0.000363101 0
M  V30 5668 O 542.608 -2.0041 0.199479 0
M  V30 5669 C 539.673 -3.40115 0.672498 0
M  V30 5670 C 538.734 -3.89282 1.80993 0
M  V30 5671 C 537.967 -5.13905 1.44004 0
M  V30 5672 O 538.19 -5.69434 0.331835 0
M  V30 5673 O 537.124 -5.57566 2.26723 0
M  V30 5674 H 540.95 -2.27881 2.00759 0
M  V30 5675 H 538.535 -1.07649 1.03595 0
M  V30 5676 H 540.417 -4.18797 0.467668 0
M  V30 5677 H 539.092 -3.22771 -0.245102 0
M  V30 5678 H 537.999 -3.11642 2.06955 0
M  V30 5679 H 539.332 -4.1111 2.70646 0
M  V30 5680 N 540.985 -1.06182 -1.16461 0
M  V30 5681 C 541.932 -0.671613 -2.20812 0
M  V30 5682 C 542.902 0.331186 -1.62765 0
M  V30 5683 O 544.087 0.22033 -1.89524 0
M  V30 5684 C 541.227 -0.063029 -3.45042 0
M  V30 5685 C 540.34 -1.11587 -4.1734 0
M  V30 5686 C 539.475 -0.473546 -5.29085 0
M  V30 5687 C 538.514 -1.51 -5.93182 0
M  V30 5688 N 537.651 -0.891118 -6.96422 0
M  V30 5689 H 542.491 -1.56589 -2.53542 0
M  V30 5690 H 540.028 -0.782951 -1.24532 0
M  V30 5691 H 541.986 0.307344 -4.16066 0
M  V30 5692 H 540.616 0.794663 -3.12866 0
M  V30 5693 H 539.668 -1.60396 -3.44931 0
M  V30 5694 H 540.98 -1.90221 -4.61104 0
M  V30 5695 H 540.134 -0.0501432 -6.06679 0
M  V30 5696 H 538.873 0.344687 -4.8648 0
M  V30 5697 H 537.878 -1.94331 -5.14311 0
M  V30 5698 H 539.103 -2.33031 -6.37866 0
M  V30 5699 H 537.049 -0.0935753 -6.55933 0
M  V30 5700 H 536.966 -1.61486 -7.38551 0
M  V30 5701 H 538.234 -0.492822 -7.77941 0
M  V30 5702 N 542.463 1.3308 -0.844243 0
M  V30 5703 C 543.396 2.27075 -0.226279 0
M  V30 5704 C 544.374 1.49911 0.629716 0
M  V30 5705 O 545.558 1.79068 0.588803 0
M  V30 5706 C 542.685 3.31767 0.681782 0
M  V30 5707 C 541.731 4.26384 -0.0994565 0
M  V30 5708 S 542.564 5.15186 -1.46094 0
M  V30 5709 C 543.72 6.23405 -0.558319 0
M  V30 5710 H 543.953 2.79141 -1.02312 0
M  V30 5711 H 541.486 1.40452 -0.641292 0
M  V30 5712 H 543.444 3.92566 1.20008 0
M  V30 5713 H 542.105 2.78507 1.45234 0
M  V30 5714 H 541.298 5.00514 0.591733 0
M  V30 5715 H 540.9 3.69949 -0.548991 0
M  V30 5716 H 543.192 6.77069 0.241672 0
M  V30 5717 H 544.135 6.96619 -1.26995 0
M  V30 5718 H 544.543 5.64333 -0.13728 0
M  V30 5719 N 543.941 0.601185 1.45683 0
M  V30 5720 C 544.873 -0.159446 2.28645 0
M  V30 5721 C 545.886 -0.837882 1.39583 0
M  V30 5722 O 547.075 -0.704344 1.64016 0
M  V30 5723 C 544.175 -1.24641 3.15147 0
M  V30 5724 C 543.348 -0.656334 4.32448 0
M  V30 5725 C 542.407 -1.63337 5.00208 0
M  V30 5726 O 541.433 -1.16217 5.57209 0
M  V30 5727 N 542.635 -2.96773 4.98905 0
M  V30 5728 H 545.4 0.5524 2.94565 0
M  V30 5729 H 542.961 0.440223 1.558 0
M  V30 5730 H 544.953 -1.8997 3.57342 0
M  V30 5731 H 543.523 -1.86087 2.51178 0
M  V30 5732 H 542.743 0.174879 3.93812 0
M  V30 5733 H 544.031 -0.242211 5.08223 0
M  V30 5734 H 543.429 -3.37662 4.53873 0
M  V30 5735 H 541.986 -3.57541 5.44984 0
M  V30 5736 N 545.419 -1.53889 0.339982 0
M  V30 5737 C 546.667 -2.00458 -0.257112 0
M  V30 5738 C 546.988 -1.22953 -1.51353 0
M  V30 5739 O 546.258 -0.335734 -1.93002 0
M  V30 5740 H 544.838 -0.740544 -0.0979965 0
M  V30 5741 H 547.5 -1.89386 0.460317 0
M  V30 5742 H 546.596 -3.08035 -0.502057 0
M  V30 5743 N 546.897 -0.0685191 -1.57451 0
M  V30 5744 C 548.313 0.288101 -1.56978 0
M  V30 5745 C 548.513 1.70262 -1.07765 0
M  V30 5746 O 547.569 2.4135 -0.742054 0
M  V30 5747 C 548.882 0.100745 -3.00531 0
M  V30 5748 C 550.43 0.170531 -3.12535 0
M  V30 5749 C 550.905 0.0114944 -4.57999 0
M  V30 5750 N 552.396 0.0672065 -4.63151 0
M  V30 5751 C 553.131 -0.0314813 -5.73391 0
M  V30 5752 N 552.627 -0.183503 -6.92557 0
M  V30 5753 N 554.42 0.0253489 -5.62094 0
M  V30 5754 H 546.571 -0.993026 -1.87757 0
M  V30 5755 H 548.834 -0.386981 -0.865419 0
M  V30 5756 H 548.54 -0.875197 -3.40636 0
M  V30 5757 H 548.414 0.854457 -3.67395 0
M  V30 5758 H 550.801 1.13696 -2.72318 0
M  V30 5759 H 550.882 -0.614229 -2.48316 0
M  V30 5760 H 550.526 -0.951684 -4.98904 0
M  V30 5761 H 550.456 0.815617 -5.20245 0
M  V30 5762 H 552.947 0.183246 -3.77455 0
M  V30 5763 H 553.26 -0.251041 -7.72392 0
M  V30 5764 H 551.605 -0.218822 -6.94655 0
M  V30 5765 H 554.796 0.142794 -4.67882 0
M  V30 5766 H 554.969 -0.0550166 -6.47977 0
M  V30 5767 N 548.375 1.56261 0.205012 0
M  V30 5768 C 549.791 1.49623 0.555433 0
M  V30 5769 C 549.991 0.766719 1.86343 0
M  V30 5770 O 549.047 0.313158 2.50551 0
M  V30 5771 C 550.36 2.94253 0.619347 0
M  V30 5772 C 551.908 3.04868 0.708855 0
M  V30 5773 C 552.383 4.50888 0.803969 0
M  V30 5774 N 553.874 4.54999 0.867758 0
M  V30 5775 C 554.609 5.65284 0.96135 0
M  V30 5776 N 554.105 6.85282 1.01786 0
M  V30 5777 N 555.898 5.53174 0.997771 0
M  V30 5778 H 548.049 2.0211 -0.653094 0
M  V30 5779 H 550.312 0.919333 -0.231366 0
M  V30 5780 H 550.018 3.50643 -0.272458 0
M  V30 5781 H 549.892 3.47063 1.47741 0
M  V30 5782 H 552.279 2.48532 1.5911 0
M  V30 5783 H 552.36 2.55199 -0.175205 0
M  V30 5784 H 552.004 5.07846 -0.0738798 0
M  V30 5785 H 551.934 4.98279 1.70369 0
M  V30 5786 H 554.425 3.68588 0.833735 0
M  V30 5787 H 554.738 7.65081 1.08951 0
M  V30 5788 H 553.083 6.8796 0.986706 0
M  V30 5789 H 556.274 4.5835 0.950392 0
M  V30 5790 H 556.447 6.39151 1.06725 0
M  V30 5791 N 549.853 -0.472356 1.50355 0
M  V30 5792 C 551.083 -1.24603 1.64796 0
M  V30 5793 C 551.491 -1.86297 0.330156 0
M  V30 5794 O 550.834 -1.69934 -0.697728 0
M  V30 5795 C 550.896 -2.39578 2.68035 0
M  V30 5796 C 550.56 -1.98531 4.11624 0
M  V30 5797 C 551.557 -1.50856 4.97532 0
M  V30 5798 C 549.242 -2.0729 4.57532 0
M  V30 5799 C 551.236 -1.12481 6.27397 0
M  V30 5800 C 548.923 -1.68527 5.87403 0
M  V30 5801 C 549.921 -1.212 6.7216 0
M  V30 5802 O 549.609 -0.829728 7.99607 0
M  V30 5803 H 549.341 -0.383035 0.55701 0
M  V30 5804 H 551.895 -0.570392 1.97321 0
M  V30 5805 H 550.125 -3.10309 2.30749 0
M  V30 5806 H 551.814 -3.01544 2.71709 0
M  V30 5807 H 552.58 -1.43511 4.63281 0
M  V30 5808 H 548.459 -2.43076 3.91708 0
M  V30 5809 H 552.003 -0.754698 6.93506 0
M  V30 5810 H 547.9 -1.7553 6.21176 0
M  V30 5811 H 548.668 -0.958689 8.12866 0
M  V30 5812 N 551.331 -1.39911 -0.725443 0
M  V30 5813 C 552.281 -1.35878 -1.83088 0
M  V30 5814 C 553.265 -0.237989 -1.5913 0
M  V30 5815 O 554.457 -0.476302 -1.70471 0
M  V30 5816 C 551.586 -1.21403 -3.21117 0
M  V30 5817 C 550.672 -2.38223 -3.50871 0
M  V30 5818 N 551.063 -3.63703 -3.51502 0
M  V30 5819 C 549.361 -2.31388 -3.81281 0
M  V30 5820 C 550.062 -4.4101 -3.79322 0
M  V30 5821 N 549.038 -3.7072 -3.97577 0
M  V30 5822 H 552.84 -2.3085 -1.81895 0
M  V30 5823 H 550.354 -1.33543 -0.924125 0
M  V30 5824 H 552.351 -1.16597 -4.00263 0
M  V30 5825 H 551.011 -0.273902 -3.23543 0
M  V30 5826 H 552.022 -3.96998 -3.32586 0
M  V30 5827 H 548.699 -1.45689 -3.91256 0
M  V30 5828 H 550.089 -5.49819 -3.86198 0
M  V30 5829 N 552.809 0.956637 -1.25245 0
M  V30 5830 C 554.057 1.69764 -1.09657 0
M  V30 5831 C 554.378 1.91583 0.363464 0
M  V30 5832 O 553.648 1.50149 1.25825 0
M  V30 5833 H 552.228 0.629097 -0.402798 0
M  V30 5834 H 554.89 1.15026 -1.57337 0
M  V30 5835 H 553.986 2.67769 -1.60331 0
M  V30 5836 N 554.287 1.06798 1.15896 0
M  V30 5837 C 555.533 0.788934 1.86825 0
M  V30 5838 C 555.866 -0.683084 1.8179 0
M  V30 5839 O 555.141 -1.50086 1.23711 0
M  V30 5840 C 555.424 1.29065 3.36176 0
M  V30 5841 C 555.277 2.8268 3.49874 0
M  V30 5842 C 556.596 0.902655 4.30744 0
M  V30 5843 H 553.715 0.288066 0.678371 0
M  V30 5844 H 556.357 1.32479 1.36195 0
M  V30 5845 H 554.507 0.834806 3.79425 0
M  V30 5846 H 556.179 3.36511 3.15528 0
M  V30 5847 H 554.422 3.21157 2.91617 0
M  V30 5848 H 555.093 3.12852 4.54783 0
M  V30 5849 H 557.569 1.29535 3.95424 0
M  V30 5850 H 556.445 1.28111 5.3374 0
M  V30 5851 H 556.706 -0.191951 4.41683 0
M  V30 5852 N 555.766 -1.3263 0.851289 0
M  V30 5853 C 556.994 -2.01563 0.466899 0
M  V30 5854 C 557.409 -1.63996 -0.935447 0
M  V30 5855 O 556.766 -0.85957 -1.6099 0
M  V30 5856 C 556.817 -3.56613 0.592433 0
M  V30 5857 O 556.538 -3.92828 1.93954 0
M  V30 5858 C 558.039 -4.42818 0.206612 0
M  V30 5859 H 555.259 -0.645307 0.183902 0
M  V30 5860 H 557.803 -1.69285 1.1473 0
M  V30 5861 H 555.958 -3.87379 -0.0401936 0
M  V30 5862 H 556.372 -4.87545 1.9339 0
M  V30 5863 H 557.846 -5.50918 0.345462 0
M  V30 5864 H 558.323 -4.30844 -0.85264 0
M  V30 5865 H 558.929 -4.17434 0.814176 0
M  V30 5866 N 557.244 -0.608902 -1.45362 0
M  V30 5867 C 558.492 -0.104401 -2.0183 0
M  V30 5868 C 558.813 1.27007 -1.47967 0
M  V30 5869 O 558.083 1.83924 -0.674455 0
M  V30 5870 H 556.663 -0.0356042 -0.746151 0
M  V30 5871 H 559.325 -0.790596 -1.78145 0
M  V30 5872 H 558.421 -0.0551793 -3.12051 0
M  V30 5873 N 558.722 1.53707 -0.348139 0
M  V30 5874 C 559.652 2.28111 0.498766 0
M  V30 5875 C 560.633 1.29851 1.09876 0
M  V30 5876 O 561.818 1.587 1.11928 0
M  V30 5877 C 558.948 3.05735 1.64753 0
M  V30 5878 C 557.902 4.11537 1.17565 0
M  V30 5879 C 557.228 4.77142 2.4133 0
M  V30 5880 C 558.528 5.21587 0.272844 0
M  V30 5881 H 560.222 2.99152 -0.121934 0
M  V30 5882 H 557.768 1.43875 -0.0600842 0
M  V30 5883 H 559.721 3.56526 2.24649 0
M  V30 5884 H 558.445 2.32354 2.2952 0
M  V30 5885 H 557.104 3.61665 0.599483 0
M  V30 5886 H 556.752 4.0035 3.04514 0
M  V30 5887 H 556.452 5.48626 2.10436 0
M  V30 5888 H 557.976 5.30719 3.01943 0
M  V30 5889 H 559.39 5.67986 0.778779 0
M  V30 5890 H 557.787 6.00074 0.0555849 0
M  V30 5891 H 558.857 4.79969 -0.689785 0
M  V30 5892 N 560.2 0.0768682 1.57412 0
M  V30 5893 C 561.446 -0.591961 1.93968 0
M  V30 5894 C 561.779 -1.68954 0.9575 0
M  V30 5895 O 561.054 -1.94496 -0.0124675 0
M  V30 5896 C 561.337 -1.16418 3.40762 0
M  V30 5897 C 561.19 -0.0728933 4.49741 0
M  V30 5898 C 562.509 -2.06814 3.88479 0
M  V30 5899 H 559.628 -0.213716 0.705333 0
M  V30 5900 H 562.27 0.14387 1.89455 0
M  V30 5901 H 560.42 -1.79128 3.4474 0
M  V30 5902 H 562.092 0.560446 4.57883 0
M  V30 5903 H 560.335 0.595859 4.29688 0
M  V30 5904 H 561.006 -0.513755 5.49604 0
M  V30 5905 H 563.482 -1.54033 3.8654 0
M  V30 5906 H 562.358 -2.43785 4.91793 0
M  V30 5907 H 562.619 -2.97844 3.26713 0
M  V30 5908 N 561.678 -1.56367 -0.196722 0
M  V30 5909 C 562.924 -1.80796 -0.918725 0
M  V30 5910 C 563.257 -0.650645 -1.82976 0
M  V30 5911 O 562.532 0.348889 -1.91345 0
M  V30 5912 C 562.815 -3.15472 -1.73636 0
M  V30 5913 C 562.668 -4.41693 -0.85015 0
M  V30 5914 C 563.987 -3.46824 -2.70927 0
M  V30 5915 H 561.106 -0.657702 -0.332561 0
M  V30 5916 H 563.748 -1.89086 -0.186186 0
M  V30 5917 H 561.898 -3.08536 -2.36088 0
M  V30 5918 H 563.57 -4.60673 -0.240459 0
M  V30 5919 H 561.813 -4.33517 -0.156785 0
M  V30 5920 H 562.484 -5.32419 -1.45719 0
M  V30 5921 H 564.96 -3.54049 -2.18607 0
M  V30 5922 H 563.836 -4.4218 -3.25219 0
M  V30 5923 H 564.097 -2.70236 -3.49893 0
M  V30 5924 N 563.156 0.464375 -1.50603 0
M  V30 5925 C 564.089 1.58052 -1.64605 0
M  V30 5926 C 565.067 1.54914 -0.494016 0
M  V30 5927 O 566.251 1.74438 -0.714393 0
M  V30 5928 C 563.378 2.96634 -1.63481 0
M  V30 5929 C 562.424 3.17901 -2.84325 0
M  V30 5930 S 563.257 2.97083 -4.45536 0
M  V30 5931 C 564.413 4.37994 -4.47115 0
M  V30 5932 H 564.646 1.45937 -2.59017 0
M  V30 5933 H 562.179 0.652189 -1.39949 0
M  V30 5934 H 564.137 3.76527 -1.63517 0
M  V30 5935 H 562.798 3.06134 -0.702928 0
M  V30 5936 H 561.991 4.19158 -2.79862 0
M  V30 5937 H 561.593 2.45792 -2.81891 0
M  V30 5938 H 563.885 5.30743 -4.21091 0
M  V30 5939 H 564.828 4.47499 -5.48772 0
M  V30 5940 H 565.236 4.20386 -3.76743 0
M  V30 5941 N 564.634 1.40294 0.718013 0
M  V30 5942 C 565.911 1.2894 1.47084 0
M  V30 5943 C 566.291 -0.0933625 2.10893 0
M  V30 5944 O 565.639 -1.10598 1.99951 0
M  V30 5945 C 565.849 2.4264 2.50852 0
M  V30 5946 C 567.197 2.8276 3.16752 0
M  V30 5947 O 568.221 2.42215 2.61171 0
M  V30 5948 O 567.08 3.528 4.17366 0
M  V30 5949 H 564.174 0.506236 0.653952 0
M  V30 5950 H 566.72 1.52208 0.750394 0
M  V30 5951 H 565.492 3.35009 2.022 0
M  V30 5952 H 565.115 2.21129 3.30435 0
M  V30 5953 N 566.112 -0.949982 1.2575 0
M  V30 5954 C 567.059 -2.04738 1.06541 0
M  V30 5955 C 568.029 -1.66078 -0.0268818 0
M  V30 5956 O 569.214 -1.90348 0.131196 0
M  V30 5957 C 566.354 -3.38027 0.695127 0
M  V30 5958 C 565.467 -3.89776 1.86276 0
M  V30 5959 C 564.602 -5.11411 1.4364 0
M  V30 5960 C 563.641 -5.554 2.57287 0
M  V30 5961 N 562.778 -6.68244 2.15395 0
M  V30 5962 H 567.618 -2.20502 2.00457 0
M  V30 5963 H 565.155 -1.0805 0.998178 0
M  V30 5964 H 567.113 -4.14641 0.461375 0
M  V30 5965 H 565.743 -3.22135 -0.207046 0
M  V30 5966 H 564.795 -3.0964 2.20969 0
M  V30 5967 H 566.107 -4.18368 2.71606 0
M  V30 5968 H 565.261 -5.95457 1.16257 0
M  V30 5969 H 564 -4.84545 0.553879 0
M  V30 5970 H 563.005 -4.69916 2.85409 0
M  V30 5971 H 564.23 -5.84272 3.46125 0
M  V30 5972 H 562.176 -6.43078 1.29565 0
M  V30 5973 H 562.093 -6.96377 2.94272 0
M  V30 5974 H 563.361 -7.55687 1.91201 0
M  V30 5975 N 567.59 -1.07411 -1.15328 0
M  V30 5976 C 568.538 -0.689316 -2.22151 0
M  V30 5977 C 569.532 0.300156 -1.6672 0
M  V30 5978 O 570.738 0.163804 -1.79253 0
M  V30 5979 H 567.113 -0.204834 -0.723566 0
M  V30 5980 H 569.084 -1.59988 -2.51886 0
M  V30 5981 C 567.833 -0.103848 -3.47545 0
M  V30 5982 H 567.156 -0.856367 -3.90521 0
M  V30 5983 H 568.596 0.127725 -4.23808 0
M  V30 5984 C 567.055 1.15563 -3.1646 0
M  V30 5985 O 567.585 2.242 -3.33312 0
M  V30 5986 N 565.791 1.06203 -2.70498 0
M  V30 5987 H 565.338 0.177933 -2.56985 0
M  V30 5988 H 565.296 1.90553 -2.50074 0
M  V30 5989 N 569.068 1.32177 -0.85831 0
M  V30 5990 C 570.016 2.30729 -0.294442 0
M  V30 5991 C 571.01 1.59009 0.584165 0
M  V30 5992 O 572.216 1.73713 0.471562 0
M  V30 5993 H 568.591 0.748097 -0.0765171 0
M  V30 5994 H 570.562 2.75774 -1.1398 0
M  V30 5995 C 569.311 3.44098 0.499208 0
M  V30 5996 H 568.634 3.99449 -0.167579 0
M  V30 5997 H 570.074 4.15202 0.859273 0
M  V30 5998 C 568.533 2.91684 1.68588 0
M  V30 5999 O 569.063 2.89481 2.78503 0
M  V30 6000 N 567.269 2.48036 1.51415 0
M  V30 6001 H 566.816 2.50027 0.620006 0
M  V30 6002 H 566.774 2.13322 2.30957 0
M  V30 6003 N 570.547 0.616602 1.45037 0
M  V30 6004 C 571.824 0.0469086 1.95544 0
M  V30 6005 C 572.204 -1.42345 1.55888 0
M  V30 6006 O 571.552 -2.13055 0.825824 0
M  V30 6007 C 571.762 0.254489 3.48071 0
M  V30 6008 C 573.11 0.140025 4.24369 0
M  V30 6009 O 574.134 0.185084 3.55719 0
M  V30 6010 O 572.993 0.0327034 5.4649 0
M  V30 6011 H 570.087 -0.0306051 0.826433 0
M  V30 6012 H 572.633 0.687293 1.55159 0
M  V30 6013 H 571.405 1.27532 3.69934 0
M  V30 6014 H 571.028 -0.42073 3.95368 0
M  V30 6015 N 572.025 -1.5352 0.356285 0
M  V30 6016 C 573.441 -1.59599 0.00485267 0
M  V30 6017 C 573.641 -1.37179 -1.47595 0
M  V30 6018 O 572.697 -1.17234 -2.23635 0
M  V30 6019 C 574.01 -2.97277 0.452454 0
M  V30 6020 C 575.558 -3.10357 0.405881 0
M  V30 6021 C 576.033 -4.50432 0.829148 0
M  V30 6022 N 577.524 -4.5652 0.783838 0
M  V30 6023 C 578.259 -5.63077 1.08315 0
M  V30 6024 N 577.755 -6.77429 1.45126 0
M  V30 6025 N 579.548 -5.53014 1.00655 0
M  V30 6026 H 571.699 -1.66346 1.32071 0
M  V30 6027 H 573.962 -0.77971 0.539218 0
M  V30 6028 H 573.668 -3.18792 1.48542 0
M  V30 6029 H 573.542 -3.76836 -0.165762 0
M  V30 6030 H 575.929 -2.88558 -0.617934 0
M  V30 6031 H 576.01 -2.32828 1.05947 0
M  V30 6032 H 575.654 -4.72968 1.85103 0
M  V30 6033 H 575.584 -5.26378 0.152906 0
M  V30 6034 H 578.075 -3.74408 0.512513 0
M  V30 6035 H 578.388 -7.54669 1.66415 0
M  V30 6036 H 576.733 -6.78844 1.48983 0
M  V30 6037 H 579.924 -4.62557 0.718215 0
M  V30 6038 H 580.097 -6.35964 1.24315 0
M  V30 6039 N 573.503 -0.0852151 -1.57369 0
M  V30 6040 C 574.413 0.891712 -2.16992 0
M  V30 6041 C 575.429 1.3174 -1.13669 0
M  V30 6042 O 576.605 1.38735 -1.45995 0
M  V30 6043 C 573.67 2.13635 -2.73059 0
M  V30 6044 C 572.731 1.7658 -3.91303 0
M  V30 6045 C 571.964 2.95111 -4.44686 0
M  V30 6046 O 572.187 4.09539 -3.97032 0
M  V30 6047 O 571.121 2.74149 -5.35841 0
M  V30 6048 H 574.947 0.414477 -3.00858 0
M  V30 6049 H 572.532 0.138598 -1.48756 0
M  V30 6050 H 574.414 2.86595 -3.08935 0
M  V30 6051 H 573.089 2.6043 -1.92244 0
M  V30 6052 H 571.996 1.00831 -3.60255 0
M  V30 6053 H 573.329 1.34557 -4.7345 0
M  V30 6054 N 574.981 1.5647 0.188427 0
M  V30 6055 C 576.209 1.85131 0.923803 0
M  V30 6056 C 576.624 0.668537 1.76567 0
M  V30 6057 O 575.981 -0.362662 1.7886 0
M  V30 6058 C 576.032 3.12661 1.81453 0
M  V30 6059 O 575.753 4.26378 1.00665 0
M  V30 6060 C 577.254 3.54548 2.66103 0
M  V30 6061 H 574.474 0.614624 0.269218 0
M  V30 6062 H 577.018 2.03581 0.193671 0
M  V30 6063 H 575.173 2.96088 2.49821 0
M  V30 6064 H 575.587 4.99041 1.61425 0
M  V30 6065 H 577.061 4.4673 3.24247 0
M  V30 6066 H 577.538 2.77853 3.40139 0
M  V30 6067 H 578.144 3.73674 2.03096 0
M  V30 6068 N 576.459 -0.456382 1.50847 0
M  V30 6069 C 577.736 -1.21739 1.53098 0
M  V30 6070 C 578.116 -2.09179 0.284132 0
M  V30 6071 O 577.464 -2.16466 -0.731773 0
M  V30 6072 C 577.674 -2.03573 2.83477 0
M  V30 6073 C 579.022 -2.61264 3.34703 0
M  V30 6074 O 580.046 -2.13802 2.84898 0
M  V30 6075 O 578.905 -3.47779 4.21559 0
M  V30 6076 H 575.999 -0.553219 0.614718 0
M  V30 6077 H 578.545 -0.467003 1.63148 0
M  V30 6078 H 577.317 -1.39232 3.65691 0
M  V30 6079 H 576.94 -2.85716 2.76499 0
M  V30 6080 N 577.937 -1.40673 -0.710563 0
M  V30 6081 C 579.184 -1.39222 -1.47049 0
M  V30 6082 C 579.512 0.0037691 -1.945 0
M  V30 6083 O 578.767 0.989224 -1.68857 0
M  V30 6084 C 579.066 -2.33253 -2.70791 0
M  V30 6085 C 578.732 -3.80406 -2.42079 0
M  V30 6086 C 577.394 -4.20496 -2.33959 0
M  V30 6087 C 579.746 -4.73375 -2.18094 0
M  V30 6088 C 577.074 -5.51584 -1.99929 0
M  V30 6089 C 579.426 -6.04768 -1.85576 0
M  V30 6090 C 578.09 -6.43895 -1.75941 0
M  V30 6091 H 577.36 -0.509449 -0.538092 0
M  V30 6092 H 580.007 -1.73363 -0.81348 0
M  V30 6093 H 578.312 -1.92314 -3.41354 0
M  V30 6094 H 580.009 -2.29412 -3.28894 0
M  V30 6095 H 576.599 -3.48645 -2.49288 0
M  V30 6096 H 580.783 -4.43217 -2.23321 0
M  V30 6097 H 576.039 -5.80797 -1.91011 0
M  V30 6098 H 580.213 -6.76318 -1.66033 0
M  V30 6099 H 577.84 -7.45387 -1.4934 0
M  V30 6100 N 579.415 0.9433 -1.26252 0
M  V30 6101 C 580.661 1.69175 -1.11837 0
M  V30 6102 C 580.994 1.91238 0.337891 0
M  V30 6103 O 580.269 1.49152 1.24836 0
M  V30 6104 C 580.552 3.06783 -1.88563 0
M  V30 6105 C 580.405 2.9206 -3.42083 0
M  V30 6106 C 581.724 4.06865 -1.67776 0
M  V30 6107 H 578.843 0.61399 -0.407658 0
M  V30 6108 H 581.485 1.09572 -1.55222 0
M  V30 6109 H 579.635 3.57663 -1.51689 0
M  V30 6110 H 581.307 2.48419 -3.88698 0
M  V30 6111 H 579.55 2.27731 -3.69217 0
M  V30 6112 H 580.221 3.89651 -3.90994 0
M  V30 6113 H 582.697 3.64939 -1.99897 0
M  V30 6114 H 581.573 5.01168 -2.23879 0
M  V30 6115 H 581.834 4.37705 -0.621816 0
M  V30 6116 N 580.893 1.08022 1.14757 0
M  V30 6117 C 581.823 0.728248 2.21853 0
M  V30 6118 C 582.804 -0.287486 1.67653 0
M  V30 6119 O 583.989 -0.158727 1.9355 0
M  V30 6120 C 581.119 0.132549 3.47047 0
M  V30 6121 C 580.073 1.07619 4.14249 0
M  V30 6122 C 579.399 0.342907 5.33599 0
M  V30 6123 C 580.699 2.41268 4.63235 0
M  V30 6124 H 582.393 1.62365 2.51551 0
M  V30 6125 H 579.939 0.782125 1.20908 0
M  V30 6126 H 581.892 -0.125665 4.21213 0
M  V30 6127 H 580.616 -0.797971 3.16702 0
M  V30 6128 H 579.275 1.31944 3.42033 0
M  V30 6129 H 578.923 -0.59129 4.99513 0
M  V30 6130 H 578.623 0.971955 5.79506 0
M  V30 6131 H 580.147 0.0926538 6.1053 0
M  V30 6132 H 581.561 2.21232 5.28894 0
M  V30 6133 H 579.958 2.9983 5.19829 0
M  V30 6134 H 581.028 3.03079 3.78512 0
M  V30 6135 N 582.371 -1.3172 0.865308 0
M  V30 6136 C 583.617 -1.97559 0.483944 0
M  V30 6137 C 583.972 -1.67181 -0.95227 0
M  V30 6138 O 583.265 -0.955392 -1.66081 0
M  V30 6139 C 583.459 -3.5102 0.672283 0
M  V30 6140 C 583.288 -3.96312 2.12525 0
M  V30 6141 C 582.058 -4.22877 2.76591 0
M  V30 6142 C 584.256 -4.10596 3.09702 0
M  V30 6143 N 582.238 -4.5449 4.12689 0
M  V30 6144 C 583.609 -4.45867 4.30816 0
M  V30 6145 C 585.664 -3.92961 3.05755 0
M  V30 6146 C 584.367 -4.65344 5.48495 0
M  V30 6147 C 586.393 -4.13628 4.22688 0
M  V30 6148 C 585.755 -4.49227 5.42563 0
M  V30 6149 H 581.854 -0.74862 0.226035 0
M  V30 6150 H 584.438 -1.59336 1.11893 0
M  V30 6151 H 582.609 -3.88342 0.0669224 0
M  V30 6152 H 584.341 -4.03865 0.259765 0
M  V30 6153 H 581.096 -4.15343 2.27567 0
M  V30 6154 H 581.52 -4.74464 4.82921 0
M  V30 6155 H 586.162 -3.64531 2.14188 0
M  V30 6156 H 583.88 -4.92624 6.40584 0
M  V30 6157 H 587.466 -4.01474 4.21082 0
M  V30 6158 H 586.346 -4.64895 6.31539 0
M  V30 6159 N 583.85 -0.624285 -1.44708 0
M  V30 6160 C 584.812 0.0749638 -2.29077 0
M  V30 6161 C 585.812 0.778965 -1.40673 0
M  V30 6162 O 587.003 0.624591 -1.62618 0
M  V30 6163 C 584.135 1.11663 -3.22094 0
M  V30 6164 H 585.327 -0.667013 -2.92388 0
M  V30 6165 H 582.88 -0.384098 -1.51507 0
M  V30 6166 H 583.615 1.88881 -2.63618 0
M  V30 6167 H 583.401 0.61583 -3.87234 0
M  V30 6168 H 584.891 1.60585 -3.8549 0
M  V30 6169 N 585.328 1.53329 -0.364422 0
M  V30 6170 C 586.261 2.22052 0.526145 0
M  V30 6171 C 587.239 1.21203 1.08391 0
M  V30 6172 O 588.423 1.50101 1.14026 0
M  V30 6173 C 585.55 2.91432 1.72583 0
M  V30 6174 C 584.596 4.06345 1.29562 0
M  V30 6175 S 585.429 5.34671 0.297885 0
M  V30 6176 C 586.585 6.07563 1.50392 0
M  V30 6177 H 586.818 2.97244 -0.0575055 0
M  V30 6178 H 584.351 1.53684 -0.148525 0
M  V30 6179 H 586.309 3.3202 2.41398 0
M  V30 6180 H 584.97 2.15966 2.28073 0
M  V30 6181 H 584.163 4.53901 2.19067 0
M  V30 6182 H 583.765 3.67642 0.686696 0
M  V30 6183 H 586.057 6.32224 2.43513 0
M  V30 6184 H 587 6.99973 1.06977 0
M  V30 6185 H 587.408 5.37994 1.70945 0
M  V30 6186 N 586.806 0.0935595 1.57322 0
M  V30 6187 C 588.054 -0.569383 1.93913 0
M  V30 6188 C 588.375 -1.68817 0.976009 0
M  V30 6189 O 587.645 -1.9588 0.0278099 0
M  V30 6190 H 586.225 -0.21332 0.715894 0
M  V30 6191 H 588.887 0.156531 1.9427 0
M  V30 6192 H 587.983 -0.980577 2.96296 0
M  V30 6193 N 588.284 -1.56567 -0.180126 0
M  V30 6194 C 589.561 -1.7235 -0.924931 0
M  V30 6195 C 589.941 -0.652523 -2.00762 0
M  V30 6196 O 589.289 0.334115 -2.26044 0
M  V30 6197 C 589.499 -3.1523 -1.49771 0
M  V30 6198 C 590.847 -3.75921 -1.97405 0
M  V30 6199 O 591.871 -3.18452 -1.59583 0
M  V30 6200 O 590.73 -4.7681 -2.67048 0
M  V30 6201 H 587.824 -0.703502 -0.434758 0
M  V30 6202 H 590.37 -1.6886 -0.168647 0
M  V30 6203 H 589.142 -3.84656 -0.718027 0
M  V30 6204 H 588.765 -3.23009 -2.31842 0
M  V30 6205 N 589.762 0.448376 -1.51087 0
M  V30 6206 C 590.692 1.55102 -1.74544 0
M  V30 6207 C 591.673 1.59357 -0.594932 0
M  V30 6208 O 592.858 1.75261 -0.836491 0
M  V30 6209 C 589.988 2.93268 -1.86041 0
M  V30 6210 C 588.942 3.03877 -3.01402 0
M  V30 6211 C 588.268 4.43914 -2.98068 0
M  V30 6212 C 589.568 2.7898 -4.41551 0
M  V30 6213 H 591.262 1.35724 -2.66869 0
M  V30 6214 H 588.808 0.651498 -1.28419 0
M  V30 6215 H 590.761 3.70356 -2.01034 0
M  V30 6216 H 589.485 3.13853 -0.903548 0
M  V30 6217 H 588.144 2.29227 -2.86096 0
M  V30 6218 H 587.792 4.6145 -2.00182 0
M  V30 6219 H 587.492 4.51944 -3.75527 0
M  V30 6220 H 589.016 5.22991 -3.1514 0
M  V30 6221 H 590.43 3.45805 -4.57265 0
M  V30 6222 H 588.827 2.98431 -5.20633 0
M  V30 6223 H 589.897 1.74663 -4.5235 0
M  V30 6224 N 591.24 1.41047 0.703093 0
M  V30 6225 C 592.517 1.30493 1.45708 0
M  V30 6226 C 592.897 -0.0709892 2.10981 0
M  V30 6227 O 592.245 -1.08471 2.01113 0
M  V30 6228 C 592.455 2.45287 2.48265 0
M  V30 6229 C 593.803 2.86104 3.13735 0
M  V30 6230 O 594.827 2.44971 2.58587 0
M  V30 6231 O 593.686 3.57206 4.13601 0
M  V30 6232 H 590.78 0.513144 0.648546 0
M  V30 6233 H 593.326 1.52995 0.734208 0
M  V30 6234 H 592.098 3.37135 1.98635 0
M  V30 6235 H 591.721 2.24622 3.28071 0
M  V30 6236 N 592.718 -0.936591 1.26751 0
M  V30 6237 C 593.943 -1.72288 1.15462 0
M  V30 6238 C 594.368 -1.85915 -0.285887 0
M  V30 6239 O 593.726 -1.35272 -1.20711 0
M  V30 6240 C 593.774 -3.10503 1.83359 0
M  V30 6241 O 592.878 -3.96745 1.1255 0
M  V30 6242 H 592.219 -0.52843 0.402067 0
M  V30 6243 H 594.749 -1.17271 1.67656 0
M  V30 6244 H 594.759 -3.60867 1.90365 0
M  V30 6245 H 593.434 -2.99901 2.88153 0
M  V30 6246 H 592.011 -3.55191 1.13551 0
M  V30 6247 N 594.196 -1.08629 -1.14182 0
M  V30 6248 C 595.444 -0.815731 -1.84906 0
M  V30 6249 C 595.765 0.660441 -1.83475 0
M  V30 6250 O 595.035 1.47888 -1.28476 0
M  V30 6251 H 593.615 -0.298773 -0.684648 0
M  V30 6252 H 596.277 -1.37274 -1.38354 0
M  V30 6253 H 595.373 -1.16193 -2.89665 0
M  V30 6254 N 595.674 1.31259 -0.872281 0
M  V30 6255 C 596.951 1.91362 -0.404943 0
M  V30 6256 C 597.331 1.79362 1.11321 0
M  V30 6257 O 596.679 1.20277 1.94283 0
M  V30 6258 C 596.889 3.3749 -0.888893 0
M  V30 6259 C 598.237 4.14593 -0.916384 0
M  V30 6260 O 599.261 3.46282 -0.834701 0
M  V30 6261 O 598.12 5.3661 -1.03498 0
M  V30 6262 H 595.214 0.818016 -0.121569 0
M  V30 6263 H 597.76 1.39912 -0.960346 0
M  V30 6264 H 596.532 3.40249 -1.93251 0
M  V30 6265 H 596.155 3.96375 -0.311932 0
M  V30 6266 N 597.152 0.631951 1.44375 0
M  V30 6267 C 598.399 0.136767 2.02038 0
M  V30 6268 C 598.727 -1.24168 1.49709 0
M  V30 6269 O 597.982 -1.83809 0.671763 0
M  V30 6270 C 598.281 0.0735861 3.57324 0
M  V30 6271 C 597.947 1.39092 4.28911 0
M  V30 6272 C 596.609 1.75171 4.48184 0
M  V30 6273 C 598.961 2.26042 4.69632 0
M  V30 6274 C 596.289 2.97907 5.05439 0
M  V30 6275 C 598.641 3.4805 5.28246 0
M  V30 6276 C 597.305 3.84351 5.45738 0
M  V30 6277 H 596.575 0.0500466 0.739308 0
M  V30 6278 H 599.222 0.818429 1.7313 0
M  V30 6279 H 597.527 -0.691449 3.8565 0
M  V30 6280 H 599.224 -0.326091 3.99672 0
M  V30 6281 H 595.814 1.10015 4.1424 0
M  V30 6282 H 599.998 1.99463 4.54454 0
M  V30 6283 H 595.254 3.26108 5.17169 0
M  V30 6284 H 599.428 4.15658 5.5875 0
M  V30 6285 H 597.055 4.79538 5.8987 0
M  V30 6286 N 598.631 -1.53133 0.372548 0
M  V30 6287 C 599.563 -2.23557 -0.505444 0
M  V30 6288 C 600.576 -1.25211 -1.04049 0
M  V30 6289 O 601.765 -1.51391 -0.945675 0
M  V30 6290 C 598.865 -2.92516 -1.71136 0
M  V30 6291 C 598.038 -4.17428 -1.30661 0
M  V30 6292 C 597.097 -4.69535 -2.37536 0
M  V30 6293 O 596.123 -5.33042 -1.99637 0
M  V30 6294 N 597.325 -4.47947 -3.6922 0
M  V30 6295 H 600.09 -2.9954 0.0978259 0
M  V30 6296 H 597.651 -1.60684 0.198068 0
M  V30 6297 H 599.643 -3.24281 -2.42124 0
M  V30 6298 H 598.213 -2.19944 -2.22134 0
M  V30 6299 H 597.433 -3.91888 -0.426292 0
M  V30 6300 H 598.721 -4.98622 -1.01259 0
M  V30 6301 H 598.119 -3.97219 -4.02783 0
M  V30 6302 H 596.676 -4.84245 -4.36292 0
M  V30 6303 N 600.109 -0.101901 -1.5727 0
M  V30 6304 C 601.52 0.426173 -1.81771 0
M  V30 6305 C 601.871 1.67725 -1.01797 0
M  V30 6306 O 600.996 2.14958 -0.249386 0
M  V30 6307 C 601.591 0.779962 -3.297 0
M  V30 6308 C 600.15 1.25275 -3.54941 0
M  V30 6309 C 599.297 0.252814 -2.76145 0
M  V30 6310 H 602.248 -0.32726 -1.55289 0
M  V30 6311 H 602.269 1.63891 -3.43395 0
M  V30 6312 H 601.781 -0.130778 -3.8788 0
M  V30 6313 H 599.882 2.18097 -3.021 0
M  V30 6314 H 599.995 1.20988 -4.63572 0
M  V30 6315 H 598.359 0.736362 -2.43823 0
M  V30 6316 H 599.142 -0.650724 -3.37076 0
M  V30 6317 N 601.587 1.56661 0.17182 0
M  V30 6318 C 602.55 1.9549 1.19651 0
M  V30 6319 C 603.55 0.838501 1.37207 0
M  V30 6320 O 604.74 1.10556 1.34622 0
M  V30 6321 C 601.872 2.24927 2.56166 0
M  V30 6322 H 603.065 2.87184 0.864007 0
M  V30 6323 H 600.618 1.50711 0.41425 0
M  V30 6324 H 601.353 1.35944 2.94431 0
M  V30 6325 H 601.138 3.06301 2.4479 0
M  V30 6326 H 602.628 2.55891 3.30014 0
M  V30 6327 N 603.065 -0.440357 1.51323 0
M  V30 6328 C 604.028 -1.51679 1.71832 0
M  V30 6329 C 605.028 -1.49648 0.588386 0
M  V30 6330 O 606.218 -1.51724 0.855891 0
M  V30 6331 C 603.35 -2.91228 1.77199 0
M  V30 6332 H 604.543 -1.34799 2.67898 0
M  V30 6333 H 602.096 -0.66883 1.41267 0
M  V30 6334 H 602.831 -3.13516 0.829363 0
M  V30 6335 H 602.616 -2.94107 2.59314 0
M  V30 6336 H 604.106 -3.69321 1.94915 0
M  V30 6337 N 604.543 -1.41418 -0.695603 0
M  V30 6338 C 605.493 -1.39731 -1.80165 0
M  V30 6339 C 606.477 -0.271689 -1.5859 0
M  V30 6340 O 607.669 -0.512354 -1.69422 0
M  V30 6341 C 604.798 -1.28187 -3.1847 0
M  V30 6342 C 603.884 -2.45612 -3.45739 0
M  V30 6343 N 604.275 -3.71077 -3.43708 0
M  V30 6344 C 602.573 -2.39424 -3.76288 0
M  V30 6345 C 603.274 -4.48957 -3.69882 0
M  V30 6346 N 602.25 -3.7907 -3.89624 0
M  V30 6347 H 606.052 -2.34656 -1.76957 0
M  V30 6348 H 603.566 -1.35473 -0.89559 0
M  V30 6349 H 605.563 -1.2506 -3.977 0
M  V30 6350 H 604.223 -0.342468 -3.22889 0
M  V30 6351 H 605.234 -4.03963 -3.2409 0
M  V30 6352 H 601.911 -1.53955 -3.88077 0
M  V30 6353 H 603.301 -5.57887 -3.74448 0
M  V30 6354 N 606.021 0.929856 -1.27246 0
M  V30 6355 C 607.251 1.70895 -1.16096 0
M  V30 6356 C 607.659 1.87039 0.285122 0
M  V30 6357 O 607.002 1.38557 1.20614 0
M  V30 6358 C 607.064 3.12919 -1.7698 0
M  V30 6359 C 606.728 3.2012 -3.26148 0
M  V30 6360 C 607.725 3.02533 -4.22812 0
M  V30 6361 C 605.41 3.43148 -3.66817 0
M  V30 6362 C 607.404 3.07861 -5.58122 0
M  V30 6363 C 605.091 3.48109 -5.02258 0
M  V30 6364 C 606.089 3.30483 -5.97721 0
M  V30 6365 O 605.777 3.35175 -7.30694 0
M  V30 6366 H 605.509 0.54152 -0.404639 0
M  V30 6367 H 608.063 1.17342 -1.68582 0
M  V30 6368 H 606.293 3.67945 -1.18969 0
M  V30 6369 H 607.982 3.72787 -1.60576 0
M  V30 6370 H 608.748 2.84586 -3.92728 0
M  V30 6371 H 604.627 3.55918 -2.9299 0
M  V30 6372 H 608.171 2.94021 -6.32612 0
M  V30 6373 H 604.068 3.65579 -5.31998 0
M  V30 6374 H 604.836 3.51644 -7.39114 0
M  V30 6375 N 607.499 1.09233 1.13605 0
M  V30 6376 C 608.724 0.849067 1.89224 0
M  V30 6377 C 609.149 -0.593875 1.78479 0
M  V30 6378 O 608.507 -1.41703 1.13092 0
M  V30 6379 C 608.555 1.28642 3.36873 0
M  V30 6380 O 607.659 0.44363 4.10007 0
M  V30 6381 H 607 0.30767 0.588417 0
M  V30 6382 H 609.53 1.45595 1.43748 0
M  V30 6383 H 609.54 1.27096 3.87699 0
M  V30 6384 H 608.215 2.33729 3.44011 0
M  V30 6385 H 606.792 0.523241 3.69211 0
M  V30 6386 N 608.977 -1.30795 0.87923 0
M  V30 6387 C 610.225 -1.95974 0.493809 0
M  V30 6388 C 610.546 -1.69787 -0.959021 0
M  V30 6389 O 609.816 -1.01832 -1.67353 0
M  V30 6390 H 608.396 -0.725083 0.179622 0
M  V30 6391 H 611.058 -1.59432 1.12105 0
M  V30 6392 H 610.154 -3.05058 0.659263 0
M  V30 6393 N 610.455 -0.639598 -1.44038 0
M  V30 6394 C 611.418 0.0506628 -2.29144 0
M  V30 6395 C 612.418 0.764001 -1.41491 0
M  V30 6396 O 613.608 0.607309 -1.63271 0
M  V30 6397 C 610.74 1.0824 -3.2326 0
M  V30 6398 H 611.933 -0.697987 -2.91664 0
M  V30 6399 H 609.486 -0.400146 -1.51091 0
M  V30 6400 H 610.221 1.86075 -2.65606 0
M  V30 6401 H 610.006 0.574725 -3.87865 0
M  V30 6402 H 611.496 1.56487 -3.87171 0
M  V30 6403 N 611.933 1.52934 -0.380664 0
M  V30 6404 C 612.843 2.29921 0.466192 0
M  V30 6405 C 613.859 1.36488 1.07922 0
M  V30 6406 O 615.035 1.69553 1.0869 0
M  V30 6407 C 612.1 3.08468 1.58266 0
M  V30 6408 C 611.161 4.17595 0.995627 0
M  V30 6409 C 610.394 4.92387 2.05889 0
M  V30 6410 O 610.617 4.67184 3.27254 0
M  V30 6411 O 609.551 5.77949 1.68102 0
M  V30 6412 H 613.377 3.03274 -0.160735 0
M  V30 6413 H 610.962 1.48698 -0.144617 0
M  V30 6414 H 612.844 3.57469 2.23145 0
M  V30 6415 H 611.519 2.37937 2.19471 0
M  V30 6416 H 610.426 3.72811 0.310332 0
M  V30 6417 H 611.759 4.90336 0.427918 0
M  V30 6418 N 613.412 0.11024 1.57214 0
M  V30 6419 C 614.359 -0.843195 2.14846 0
M  V30 6420 C 615.329 -1.26954 1.07107 0
M  V30 6421 O 616.514 -1.34861 1.34971 0
M  V30 6422 C 613.654 -2.09123 2.74521 0
M  V30 6423 C 612.767 -1.71404 3.96541 0
M  V30 6424 C 611.902 -2.91107 4.44331 0
M  V30 6425 C 610.941 -2.49586 5.58903 0
M  V30 6426 N 610.078 -3.62175 6.01477 0
M  V30 6427 H 614.918 -0.344886 2.95998 0
M  V30 6428 H 612.455 -0.15855 1.46243 0
M  V30 6429 H 614.413 -2.82234 3.07246 0
M  V30 6430 H 613.043 -2.56427 1.96074 0
M  V30 6431 H 612.095 -0.88201 3.70033 0
M  V30 6432 H 613.407 -1.36884 4.7965 0
M  V30 6433 H 612.561 -3.72454 4.78919 0
M  V30 6434 H 611.3 -3.28848 3.60153 0
M  V30 6435 H 610.305 -1.6667 5.23929 0
M  V30 6436 H 611.53 -2.12973 6.4484 0
M  V30 6437 H 609.476 -3.99605 5.20242 0
M  V30 6438 H 609.393 -3.3155 6.79419 0
M  V30 6439 H 610.661 -4.43987 6.407 0
M  V30 6440 N 614.89 -1.56749 -0.16351 0
M  V30 6441 C 615.822 -1.93587 -1.22705 0
M  V30 6442 C 616.835 -0.829824 -1.40063 0
M  V30 6443 O 618.024 -1.10826 -1.39928 0
M  V30 6444 C 615.124 -2.1803 -2.59454 0
M  V30 6445 C 614.297 -3.4928 -2.63292 0
M  V30 6446 C 613.356 -3.62457 -3.8146 0
M  V30 6447 O 612.382 -4.35004 -3.67096 0
M  V30 6448 N 613.584 -2.97888 -4.9824 0
M  V30 6449 H 616.349 -2.8542 -0.914081 0
M  V30 6450 H 613.91 -1.58 -0.353214 0
M  V30 6451 H 615.902 -2.24102 -3.36987 0
M  V30 6452 H 614.472 -1.32543 -2.8311 0
M  V30 6453 H 613.692 -3.54795 -1.71796 0
M  V30 6454 H 614.98 -4.35632 -2.62873 0
M  V30 6455 H 614.378 -2.38833 -5.12811 0
M  V30 6456 H 612.935 -3.09545 -5.73607 0
M  V30 6457 N 616.368 0.432326 -1.51554 0
M  V30 6458 C 617.617 1.17831 -1.63703 0
M  V30 6459 C 617.93 1.92229 -0.36156 0
M  V30 6460 O 619.136 2.69069 -0.362495 0
M  V30 6461 C 617.592 2.14318 -2.89129 0
M  V30 6462 C 617.2 1.45544 -4.23699 0
M  V30 6463 C 618.944 2.89319 -3.10636 0
M  V30 6464 C 616.851 2.40545 -5.4027 0
M  V30 6465 H 615.781 0.443533 -0.60975 0
M  V30 6466 H 618.432 0.444878 -1.78026 0
M  V30 6467 H 616.814 2.91117 -2.68452 0
M  V30 6468 H 617.988 0.742693 -4.54775 0
M  V30 6469 H 616.303 0.826772 -4.0811 0
M  V30 6470 H 618.9 3.60495 -3.94902 0
M  V30 6471 H 619.243 3.50951 -2.23918 0
M  V30 6472 H 619.776 2.19625 -3.31677 0
M  V30 6473 H 616.515 1.83594 -6.29264 0
M  V30 6474 H 616.035 3.09859 -5.13563 0
M  V30 6475 H 617.714 3.01569 -5.72421 0
M  V30 6476 N 617.846 1.41785 0.688094 0
M  V30 6477 C 619.092 1.42753 1.4489 0
M  V30 6478 C 619.447 0.0384235 1.92362 0
M  V30 6479 O 618.74 -0.937066 1.67122 0
M  V30 6480 C 618.934 2.37532 2.67046 0
M  V30 6481 C 618.763 3.85521 2.31525 0
M  V30 6482 C 617.533 4.54152 2.21527 0
M  V30 6483 C 619.731 4.76299 1.94019 0
M  V30 6484 N 617.713 5.87233 1.78969 0
M  V30 6485 C 619.084 5.98386 1.62279 0
M  V30 6486 C 621.139 4.63877 1.80895 0
M  V30 6487 C 619.842 7.09433 1.18732 0
M  V30 6488 C 621.868 5.74893 1.38752 0
M  V30 6489 C 621.23 6.96083 1.07927 0
M  V30 6490 H 617.329 0.577575 0.527192 0
M  V30 6491 H 619.913 1.77713 0.795375 0
M  V30 6492 H 618.084 2.04656 3.30107 0
M  V30 6493 H 619.816 2.29169 3.33562 0
M  V30 6494 H 616.571 4.08188 2.40166 0
M  V30 6495 H 616.995 6.57785 1.60151 0
M  V30 6496 H 621.637 3.70671 2.03378 0
M  V30 6497 H 619.355 8.02497 0.949937 0
M  V30 6498 H 622.941 5.67287 1.29136 0
M  V30 6499 H 621.821 7.80527 0.758111 0
M  V30 6500 N 619.324 -0.923095 1.27737 0
M  V30 6501 C 620.57 -1.67409 1.15524 0
M  V30 6502 C 620.925 -1.90124 -0.295072 0
M  V30 6503 O 620.218 -1.48382 -1.21216 0
M  V30 6504 C 620.412 -3.04125 1.8773 0
M  V30 6505 C 620.241 -2.94752 3.39634 0
M  V30 6506 C 619.011 -2.96783 4.0896 0
M  V30 6507 C 621.209 -2.73524 4.35533 0
M  V30 6508 N 619.191 -2.779 5.47398 0
M  V30 6509 C 620.562 -2.63391 5.61271 0
M  V30 6510 C 622.617 -2.58447 4.2557 0
M  V30 6511 C 621.32 -2.3972 6.78179 0
M  V30 6512 C 623.346 -2.36154 5.42204 0
M  V30 6513 C 622.708 -2.26768 6.669 0
M  V30 6514 H 618.807 -0.619196 0.477619 0
M  V30 6515 H 621.391 -1.09094 1.61266 0
M  V30 6516 H 619.562 -3.60545 1.44436 0
M  V30 6517 H 621.294 -3.6819 1.67982 0
M  V30 6518 H 618.049 -3.07186 3.60463 0
M  V30 6519 H 618.473 -2.71576 6.20141 0
M  V30 6520 H 623.115 -2.6446 3.2988 0
M  V30 6521 H 620.833 -2.32447 7.73947 0
M  V30 6522 H 624.419 -2.25367 5.36378 0
M  V30 6523 H 623.299 -2.09751 7.55628 0
M  V30 6524 N 620.802 -1.09834 -1.13024 0
M  V30 6525 C 622.03 -0.858902 -1.8823 0
M  V30 6526 C 622.445 0.590164 -1.79339 0
M  V30 6527 O 621.802 1.4065 -1.16292 0
M  V30 6528 C 621.853 -1.29066 -3.37675 0
M  V30 6529 O 621.574 -2.6829 -3.46341 0
M  V30 6530 C 623.075 -1.08421 -4.29837 0
M  V30 6531 H 620.295 -0.308713 -0.595766 0
M  V30 6532 H 622.839 -1.4614 -1.4305 0
M  V30 6533 H 620.994 -0.731961 -3.80422 0
M  V30 6534 H 621.408 -2.86598 -4.39274 0
M  V30 6535 H 622.882 -1.43553 -5.33007 0
M  V30 6536 H 623.359 -0.0223315 -4.39194 0
M  V30 6537 H 623.965 -1.62907 -3.92863 0
M  V30 6538 N 622.28 1.30327 -0.886154 0
M  V30 6539 C 623.528 1.9571 -0.504195 0
M  V30 6540 C 623.849 1.70294 0.950003 0
M  V30 6541 O 623.119 1.02718 1.66811 0
M  V30 6542 H 621.699 0.72412 -0.183465 0
M  V30 6543 H 624.361 1.58835 -1.12949 0
M  V30 6544 H 623.457 3.04704 -0.675431 0
M  V30 6545 N 623.758 0.647228 1.43697 0
M  V30 6546 C 625.174 0.314256 1.56476 0
M  V30 6547 C 625.374 -1.18191 1.63196 0
M  V30 6548 O 624.43 -1.96655 1.58376 0
M  V30 6549 C 625.743 1.02034 2.82859 0
M  V30 6550 C 627.291 1.00002 2.96595 0
M  V30 6551 C 627.766 1.68689 4.25803 0
M  V30 6552 N 629.257 1.65424 4.32654 0
M  V30 6553 C 629.992 2.1545 5.31384 0
M  V30 6554 N 629.488 2.73738 6.36427 0
M  V30 6555 N 631.281 2.05985 5.22998 0
M  V30 6556 H 623.432 1.61821 1.37578 0
M  V30 6557 H 625.695 0.680184 0.660344 0
M  V30 6558 H 625.401 2.07542 2.83935 0
M  V30 6559 H 625.275 0.568146 3.72897 0
M  V30 6560 H 627.662 -0.0466319 2.95063 0
M  V30 6561 H 627.743 1.49086 2.07863 0
M  V30 6562 H 627.387 2.73308 4.28095 0
M  V30 6563 H 627.317 1.17076 5.13421 0
M  V30 6564 H 629.808 1.22884 3.57363 0
M  V30 6565 H 630.121 3.09602 7.08072 0
M  V30 6566 H 628.466 2.77796 6.37067 0
M  V30 6567 H 631.657 1.60157 4.39849 0
M  V30 6568 H 631.83 2.45281 5.99784 0
M  V30 6569 N 625.236 -1.5273 0.388769 0
M  V30 6570 C 626.647 -1.86505 -0.0853788 0
M  V30 6571 C 626.998 -1.30847 -1.46197 0
M  V30 6572 O 626.123 -0.639609 -2.06732 0
M  V30 6573 C 626.718 -3.38414 -0.161703 0
M  V30 6574 C 625.277 -3.71902 -0.580144 0
M  V30 6575 C 624.424 -2.76095 0.258218 0
M  V30 6576 H 627.375 -1.46647 0.606665 0
M  V30 6577 H 627.396 -3.67638 -0.980936 0
M  V30 6578 H 626.908 -3.78893 0.840333 0
M  V30 6579 H 625.009 -3.36992 -1.58957 0
M  V30 6580 H 625.122 -4.77902 -0.338663 0
M  V30 6581 H 623.486 -2.53195 -0.276432 0
M  V30 6582 H 624.269 -3.19411 1.25822 0
M  V30 6583 N 626.714 -0.118576 -1.57153 0
M  V30 6584 C 627.963 0.539339 -1.94355 0
M  V30 6585 C 628.276 1.67858 -1.00415 0
M  V30 6586 O 629.482 2.39922 -1.27081 0
M  V30 6587 C 627.938 1.01082 -3.45414 0
M  V30 6588 C 627.546 -0.0999402 -4.47889 0
M  V30 6589 C 629.29 1.64013 -3.91535 0
M  V30 6590 C 627.197 0.388212 -5.90124 0
M  V30 6591 H 626.127 0.205247 -0.725527 0
M  V30 6592 H 628.778 -0.19836 -1.82425 0
M  V30 6593 H 627.16 1.80292 -3.52577 0
M  V30 6594 H 628.334 -0.876189 -4.52393 0
M  V30 6595 H 626.649 -0.635885 -4.11516 0
M  V30 6596 H 629.246 2.01649 -4.95219 0
M  V30 6597 H 629.589 2.51836 -3.31488 0
M  V30 6598 H 630.122 0.913439 -3.87171 0
M  V30 6599 H 626.861 -0.453963 -6.53926 0
M  V30 6600 H 626.381 1.13095 -5.89041 0
M  V30 6601 H 628.06 0.849574 -6.41398 0
M  V30 6602 N 628.193 1.56834 0.155195 0
M  V30 6603 C 629.604 1.72421 0.716082 0
M  V30 6604 C 629.955 0.731685 1.82046 0
M  V30 6605 O 629.08 -0.103481 2.16152 0
M  V30 6606 C 629.675 3.12629 1.30571 0
M  V30 6607 C 628.234 3.29846 1.81325 0
M  V30 6608 C 627.381 2.68359 0.698494 0
M  V30 6609 H 630.332 1.58544 -0.0703861 0
M  V30 6610 H 630.353 3.12174 2.1755 0
M  V30 6611 H 629.865 3.84844 0.501701 0
M  V30 6612 H 627.966 2.62614 2.64319 0
M  V30 6613 H 628.079 4.37727 1.9476 0
M  V30 6614 H 626.443 2.28604 1.12305 0
M  V30 6615 H 627.226 3.43171 -0.0939366 0
M  V30 6616 N 629.671 -0.424282 1.51781 0
M  V30 6617 C 630.917 -1.17117 1.66298 0
M  V30 6618 C 631.272 -1.88595 0.380767 0
M  V30 6619 O 630.565 -1.81151 -0.624094 0
M  V30 6620 C 630.759 -2.20418 2.81337 0
M  V30 6621 C 630.588 -1.59081 4.20622 0
M  V30 6622 C 629.358 -1.37007 4.86371 0
M  V30 6623 C 631.556 -1.05992 5.0326 0
M  V30 6624 N 629.538 -0.714049 6.09733 0
M  V30 6625 C 630.909 -0.529933 6.17731 0
M  V30 6626 C 632.964 -0.952927 4.88696 0
M  V30 6627 C 631.667 0.0965457 7.19235 0
M  V30 6628 C 633.693 -0.340325 5.9042 0
M  V30 6629 C 633.055 0.179057 7.04172 0
M  V30 6630 H 629.154 -0.41577 0.662314 0
M  V30 6631 H 631.738 -0.46579 1.89046 0
M  V30 6632 H 629.909 -2.8833 2.60231 0
M  V30 6633 H 631.641 -2.8736 2.84968 0
M  V30 6634 H 628.396 -1.63543 4.44467 0
M  V30 6635 H 628.82 -0.403101 6.75799 0
M  V30 6636 H 633.462 -1.34033 4.00993 0
M  V30 6637 H 631.18 0.496044 8.06576 0
M  V30 6638 H 634.766 -0.259266 5.81222 0
M  V30 6639 H 633.646 0.645626 7.81538 0
M  V30 6640 N 631.149 -1.42148 -0.680565 0
M  V30 6641 C 632.395 -1.42521 -1.44277 0
M  V30 6642 C 632.728 -0.0393718 -1.9416 0
M  V30 6643 O 632.003 0.935425 -1.70529 0
M  V30 6644 C 632.286 -2.44475 -2.64394 0
M  V30 6645 C 632.139 -3.92226 -2.20179 0
M  V30 6646 C 633.458 -2.43491 -3.66606 0
M  V30 6647 H 630.577 -0.518985 -0.523282 0
M  V30 6648 H 633.219 -1.73524 -0.773914 0
M  V30 6649 H 631.369 -2.18168 -3.21458 0
M  V30 6650 H 633.041 -4.29493 -1.68327 0
M  V30 6651 H 631.284 -4.0637 -1.5181 0
M  V30 6652 H 631.955 -4.59133 -3.06433 0
M  V30 6653 H 634.431 -2.66872 -3.19247 0
M  V30 6654 H 633.307 -3.16816 -4.4824 0
M  V30 6655 H 633.568 -1.45881 -4.17338 0
M  V30 6656 N 632.627 0.916307 -1.28225 0
M  V30 6657 C 633.574 2.01841 -1.11932 0
M  V30 6658 C 634.544 1.66091 -0.0171604 0
M  V30 6659 O 635.729 1.89934 -0.181617 0
M  V30 6660 C 632.869 3.36065 -0.784504 0
M  V30 6661 C 631.982 3.847 -1.96544 0
M  V30 6662 C 631.117 5.07423 -1.57149 0
M  V30 6663 C 630.156 5.48384 -2.71922 0
M  V30 6664 N 629.293 6.62298 -2.33037 0
M  V30 6665 H 634.133 2.1511 -2.06232 0
M  V30 6666 H 631.67 1.05366 -1.02647 0
M  V30 6667 H 633.628 4.13272 -0.571148 0
M  V30 6668 H 632.258 3.22571 0.121565 0
M  V30 6669 H 631.31 3.03673 -2.291 0
M  V30 6670 H 632.622 4.1102 -2.82603 0
M  V30 6671 H 631.776 5.92165 -1.32004 0
M  V30 6672 H 630.515 4.82906 -0.682153 0
M  V30 6673 H 629.52 4.62184 -2.97768 0
M  V30 6674 H 630.745 5.7489 -3.61494 0
M  V30 6675 H 628.691 6.39416 -1.4657 0
M  V30 6676 H 628.608 6.8833 -3.12631 0
M  V30 6677 H 629.876 7.50352 -2.11169 0
M  V30 6678 N 634.105 1.10431 1.1244 0
M  V30 6679 C 635.353 0.845045 1.83585 0
M  V30 6680 C 635.674 -0.631168 1.84503 0
M  V30 6681 O 634.944 -1.45825 1.30813 0
M  V30 6682 H 633.524 0.309628 0.679809 0
M  V30 6683 H 636.186 1.39458 1.36153 0
M  V30 6684 H 635.282 1.20786 2.8778 0
M  V30 6685 N 635.583 -1.29855 0.893053 0
M  V30 6686 C 636.546 -2.26183 0.370687 0
M  V30 6687 C 637.546 -1.53108 -0.491385 0
M  V30 6688 O 638.736 -1.71643 -0.297386 0
M  V30 6689 C 635.868 -3.37633 -0.470827 0
M  V30 6690 H 637.061 -2.73903 1.22135 0
M  V30 6691 H 634.614 -1.41183 0.67061 0
M  V30 6692 H 635.349 -2.95241 -1.34175 0
M  V30 6693 H 635.134 -3.91825 0.146784 0
M  V30 6694 H 636.624 -4.09313 -0.827825 0
M  V30 6695 N 637.061 -0.65484 -1.43351 0
M  V30 6696 C 638.472 -0.248506 -1.85039 0
M  V30 6697 C 638.823 1.20526 -1.54816 0
M  V30 6698 O 637.948 1.92016 -0.99794 0
M  V30 6699 C 638.543 -0.444241 -3.35875 0
M  V30 6700 C 637.102 -0.0922108 -3.76287 0
M  V30 6701 C 636.249 -0.746327 -2.67068 0
M  V30 6702 H 639.2 -0.8584 -1.33481 0
M  V30 6703 H 639.221 0.309762 -3.79237 0
M  V30 6704 H 638.733 -1.50239 -3.5784 0
M  V30 6705 H 636.834 0.96328 -3.59933 0
M  V30 6706 H 636.947 -0.518807 -4.76283 0
M  V30 6707 H 635.311 -0.179416 -2.54067 0
M  V30 6708 H 636.094 -1.80754 -2.91861 0
M  V30 6709 N 638.539 1.52521 -0.396863 0
M  V30 6710 C 639.95 1.86547 0.0754868 0
M  V30 6711 C 640.301 1.31621 1.45501 0
M  V30 6712 O 639.426 0.650563 2.0639 0
M  V30 6713 C 640.021 3.38495 0.143754 0
M  V30 6714 C 638.58 3.72205 0.560413 0
M  V30 6715 C 637.727 2.75954 -0.272856 0
M  V30 6716 H 640.678 1.46323 -0.614434 0
M  V30 6717 H 640.699 3.68153 0.961425 0
M  V30 6718 H 640.211 3.78442 -0.860415 0
M  V30 6719 H 638.312 3.3783 1.57167 0
M  V30 6720 H 638.425 4.78074 0.313314 0
M  V30 6721 H 636.789 2.53339 0.263 0
M  V30 6722 H 637.572 3.1874 -1.27515 0
M  V30 6723 N 640.017 0.126909 1.57088 0
M  V30 6724 C 641.242 -0.53997 2.00248 0
M  V30 6725 C 641.667 -1.58927 1.00618 0
M  V30 6726 O 641.025 -1.81288 -0.0210131 0
M  V30 6727 C 641.073 -1.13565 3.4225 0
M  V30 6728 O 640.177 -2.25103 3.45547 0
M  V30 6729 H 639.518 -0.13412 0.650314 0
M  V30 6730 H 642.048 0.217718 2.03438 0
M  V30 6731 H 642.058 -1.46925 3.80627 0
M  V30 6732 H 640.733 -0.367122 4.14277 0
M  V30 6733 H 639.31 -1.93123 3.18995 0
M  V30 6734 N 641.495 -1.56914 -0.146875 0
M  V30 6735 C 642.772 -1.74273 -0.888165 0
M  V30 6736 C 643.152 -0.69496 -1.99333 0
M  V30 6737 O 642.5 0.286093 -2.26702 0
M  V30 6738 C 642.71 -3.18336 -1.43051 0
M  V30 6739 C 644.058 -3.80024 -1.89387 0
M  V30 6740 O 645.082 -3.21765 -1.52792 0
M  V30 6741 O 643.941 -4.82367 -2.56874 0
M  V30 6742 H 641.035 -0.712565 -0.419738 0
M  V30 6743 H 643.581 -1.6918 -0.132791 0
M  V30 6744 H 642.353 -3.86092 -0.636274 0
M  V30 6745 H 641.976 -3.27854 -2.24938 0
M  V30 6746 N 642.974 0.416227 -1.52004 0
M  V30 6747 C 643.922 1.5272 -1.7544 0
M  V30 6748 C 644.916 1.57596 -0.621289 0
M  V30 6749 O 646.122 1.61087 -0.803172 0
M  V30 6750 H 642.497 0.507772 -0.554682 0
M  V30 6751 H 644.468 1.30136 -2.68528 0
M  V30 6752 C 643.217 2.90165 -1.91571 0
M  V30 6753 H 642.54 2.87154 -2.78178 0
M  V30 6754 H 643.98 3.67211 -2.11972 0
M  V30 6755 C 642.439 3.29947 -0.680942 0
M  V30 6756 O 642.969 4.01403 0.154527 0
M  V30 6757 N 641.175 2.8593 -0.518894 0
M  V30 6758 H 640.722 2.2795 -1.19986 0
M  V30 6759 H 640.68 3.12907 0.305985 0
M  V30 6760 N 644.452 1.42507 0.673017 0
M  V30 6761 C 645.863 1.38347 1.25367 0
M  V30 6762 C 646.214 0.0776327 1.96046 0
M  V30 6763 O 645.339 -0.823571 2.00116 0
M  V30 6764 C 645.934 2.506 2.28002 0
M  V30 6765 C 644.493 2.49767 2.81591 0
M  V30 6766 C 643.64 2.293 1.55938 0
M  V30 6767 H 646.591 1.51695 0.466288 0
M  V30 6768 H 646.612 2.20953 3.09774 0
M  V30 6769 H 646.124 3.45627 1.76532 0
M  V30 6770 H 644.225 1.58563 3.37177 0
M  V30 6771 H 644.338 3.46867 3.30485 0
M  V30 6772 H 642.702 1.77594 1.82572 0
M  V30 6773 H 643.485 3.26385 1.06431 0
M  V30 6774 N 645.93 -0.909495 1.28709 0
M  V30 6775 C 647.341 -1.47419 1.14563 0
M  V30 6776 C 647.692 -1.94432 -0.262832 0
M  V30 6777 O 646.817 -1.82842 -1.15748 0
M  V30 6778 C 647.412 -2.67933 2.07358 0
M  V30 6779 C 645.971 -3.20568 1.97264 0
M  V30 6780 C 645.118 -1.93269 1.98852 0
M  V30 6781 H 648.069 -0.721787 1.41336 0
M  V30 6782 H 648.09 -3.43339 1.64007 0
M  V30 6783 H 647.602 -2.33685 3.09859 0
M  V30 6784 H 645.703 -3.59531 0.978157 0
M  V30 6785 H 645.816 -3.85529 2.84436 0
M  V30 6786 H 644.18 -2.10553 1.43317 0
M  V30 6787 H 644.963 -1.61312 3.0304 0
M  V30 6788 N 647.408 -1.11026 -1.11852 0
M  V30 6789 C 648.648 -0.866348 -1.85132 0
M  V30 6790 C 649.012 0.597236 -1.82475 0
M  V30 6791 O 650.213 0.957744 -2.51159 0
M  V30 6792 C 648.484 -1.40721 -3.28531 0
M  V30 6793 S 650.043 -1.29964 -4.19112 0
M  V30 6794 H 646.861 -0.312899 -0.638447 0
M  V30 6795 H 649.463 -1.41691 -1.34699 0
M  V30 6796 H 648.167 -2.46631 -3.28027 0
M  V30 6797 H 647.698 -0.85349 -3.8403 0
M  V30 6798 H 649.713 -0.261333 -4.95511 0
M  V30 6799 N 648.886 1.2938 -0.899927 0
M  V30 6800 C 649.849 2.25983 -0.382677 0
M  V30 6801 C 650.849 1.53366 0.483259 0
M  V30 6802 O 652.039 1.71798 0.28828 0
M  V30 6803 C 649.171 3.37878 0.452915 0
M  V30 6804 H 650.364 2.73252 -1.23586 0
M  V30 6805 H 647.917 1.40825 -0.678088 0
M  V30 6806 H 648.652 2.95949 1.32608 0
M  V30 6807 H 648.437 3.91742 -0.167562 0
M  V30 6808 H 649.927 4.09746 0.806107 0
M  V30 6809 N 650.364 0.662433 1.43002 0
M  V30 6810 C 651.611 0.179591 2.01702 0
M  V30 6811 C 651.939 -1.20964 1.52309 0
M  V30 6812 O 651.194 -1.82343 0.7106 0
M  V30 6813 C 651.493 0.149363 3.57088 0
M  V30 6814 C 651.159 1.48158 4.25864 0
M  V30 6815 C 649.821 1.84638 4.44367 0
M  V30 6816 C 652.173 2.35953 4.64732 0
M  V30 6817 C 649.501 3.08561 4.99006 0
M  V30 6818 C 651.853 3.59176 5.20745 0
M  V30 6819 C 650.517 3.95841 5.37463 0
M  V30 6820 H 649.787 0.0657172 0.73808 0
M  V30 6821 H 652.434 0.854968 1.71355 0
M  V30 6822 H 650.739 -0.609491 3.8703 0
M  V30 6823 H 652.436 -0.241241 4.00274 0
M  V30 6824 H 649.026 1.18777 4.11813 0
M  V30 6825 H 653.21 2.09058 4.50121 0
M  V30 6826 H 648.466 3.37005 5.10135 0
M  V30 6827 H 652.64 4.27417 5.49807 0
M  V30 6828 H 650.267 4.91942 5.79566 0
M  V30 6829 N 651.842 -1.52309 0.404946 0
M  V30 6830 C 653.119 -1.94237 -0.230544 0
M  V30 6831 C 653.499 -1.34154 -1.6299 0
M  V30 6832 O 652.847 -0.515713 -2.22604 0
M  V30 6833 C 653.057 -3.48166 -0.241106 0
M  V30 6834 C 654.405 -4.22074 -0.462488 0
M  V30 6835 O 655.429 -3.54754 -0.320644 0
M  V30 6836 O 654.288 -5.41443 -0.741708 0
M  V30 6837 H 651.382 -0.813766 -0.147358 0
M  V30 6838 H 653.928 -1.6333 0.460587 0
M  V30 6839 H 652.7 -3.84269 0.738467 0
M  V30 6840 H 652.323 -3.85422 -0.97651 0
M  V30 6841 N 653.32 -0.135238 -1.57019 0
M  V30 6842 C 654.25 0.805235 -2.19176 0
M  V30 6843 C 655.231 1.2656 -1.13651 0
M  V30 6844 O 656.416 1.32528 -1.4195 0
M  V30 6845 C 653.546 2.04914 -2.80406 0
M  V30 6846 C 652.5 1.72598 -3.91655 0
M  V30 6847 C 651.826 3.04154 -4.39766 0
M  V30 6848 C 653.126 0.981709 -5.12991 0
M  V30 6849 H 654.82 0.287232 -2.98019 0
M  V30 6850 H 652.366 0.136714 -1.4335 0
M  V30 6851 H 654.319 2.71178 -3.22553 0
M  V30 6852 H 653.043 2.59067 -1.98877 0
M  V30 6853 H 651.702 1.08717 -3.50109 0
M  V30 6854 H 651.35 3.56274 -3.55075 0
M  V30 6855 H 651.05 2.83299 -5.14796 0
M  V30 6856 H 652.574 3.71509 -4.84576 0
M  V30 6857 H 653.988 1.5462 -5.52056 0
M  V30 6858 H 652.385 0.873533 -5.93708 0
M  V30 6859 H 653.455 -0.0286887 -4.84892 0
M  V30 6860 N 654.798 1.5699 0.138552 0
M  V30 6861 C 656.075 1.74741 0.87891 0
M  V30 6862 C 656.455 0.705522 1.98961 0
M  V30 6863 O 655.803 -0.274066 2.2685 0
M  V30 6864 C 656.013 3.1909 1.4136 0
M  V30 6865 C 657.361 3.81023 1.87368 0
M  V30 6866 O 658.385 3.22571 1.51084 0
M  V30 6867 O 657.244 4.83722 2.54312 0
M  V30 6868 H 654.338 0.714781 0.415953 0
M  V30 6869 H 656.884 1.69248 0.123817 0
M  V30 6870 H 655.656 3.86424 0.61579 0
M  V30 6871 H 655.279 3.29043 2.23196 0
M  V30 6872 N 656.276 -0.40816 1.52223 0
M  V30 6873 C 657.553 -1.16807 1.56893 0
M  V30 6874 C 657.933 -2.08169 0.350537 0
M  V30 6875 O 657.281 -2.18684 -0.662536 0
M  V30 6876 C 657.491 -1.94451 2.8981 0
M  V30 6877 C 658.839 -2.50484 3.42845 0
M  V30 6878 O 659.863 -2.0463 2.91556 0
M  V30 6879 O 658.722 -3.34192 4.3241 0
M  V30 6880 H 655.816 -0.533382 0.632007 0
M  V30 6881 H 658.362 -0.414862 1.64551 0
M  V30 6882 H 657.134 -1.27527 3.69936 0
M  V30 6883 H 656.757 -2.76775 2.85449 0
M  V30 6884 N 657.755 -1.42862 -0.66545 0
M  V30 6885 C 659.166 -1.3901 -1.24632 0
M  V30 6886 C 659.517 -0.0880285 -1.96002 0
M  V30 6887 O 658.642 0.812947 -2.0055 0
M  V30 6888 C 659.237 -2.51806 -2.2667 0
M  V30 6889 C 657.796 -2.51257 -2.80262 0
M  V30 6890 C 656.943 -2.30124 -1.5472 0
M  V30 6891 H 659.894 -1.5194 -0.458237 0
M  V30 6892 H 659.915 -2.22593 -3.08598 0
M  V30 6893 H 659.427 -3.46558 -1.74697 0
M  V30 6894 H 657.528 -1.60349 -3.36332 0
M  V30 6895 H 657.641 -3.48614 -3.28641 0
M  V30 6896 H 656.005 -1.7856 -1.81627 0
M  V30 6897 H 656.788 -3.26945 -1.04699 0
M  V30 6898 N 659.233 0.902656 -1.29189 0
M  V30 6899 C 660.458 1.69167 -1.19989 0
M  V30 6900 C 660.883 1.86607 0.236495 0
M  V30 6901 O 660.241 1.38425 1.17082 0
M  V30 6902 C 660.289 3.05532 -1.91527 0
M  V30 6903 O 659.393 3.93621 -1.2303 0
M  V30 6904 H 658.734 0.517584 -0.415936 0
M  V30 6905 H 661.264 1.12785 -1.70706 0
M  V30 6906 H 661.274 3.55693 -1.99866 0
M  V30 6907 H 659.949 2.92156 -2.96003 0
M  V30 6908 H 658.526 3.52055 -1.22928 0
M  V30 6909 N 660.711 1.11618 1.11262 0
M  V30 6910 C 661.951 0.876154 1.8467 0
M  V30 6911 C 662.315 -0.587551 1.82789 0
M  V30 6912 O 663.516 -0.944411 2.51663 0
M  V30 6913 C 661.787 1.42461 3.2778 0
M  V30 6914 S 663.346 1.32185 4.18417 0
M  V30 6915 H 660.164 0.31628 0.636779 0
M  V30 6916 H 662.766 1.42404 1.33946 0
M  V30 6917 H 661.47 2.48367 3.26714 0
M  V30 6918 H 661.001 0.873844 3.83572 0
M  V30 6919 H 663.016 0.287607 4.95366 0
M  V30 6920 N 662.189 -1.289 0.906776 0
M  V30 6921 C 663.466 -1.90221 0.455537 0
M  V30 6922 C 663.846 -1.82251 -1.06527 0
M  V30 6923 O 663.194 -1.25385 -1.91026 0
M  V30 6924 C 663.404 -3.35015 0.97806 0
M  V30 6925 C 664.752 -4.12018 1.02598 0
M  V30 6926 O 665.776 -3.43947 0.926218 0
M  V30 6927 O 664.635 -5.33677 1.17689 0
M  V30 6928 H 661.729 -0.814505 0.143214 0
M  V30 6929 H 664.275 -1.37317 0.997104 0
M  V30 6930 H 663.047 -3.35006 2.02204 0
M  V30 6931 H 662.67 -3.95408 0.416914 0
M  V30 6932 N 663.667 -0.670007 -1.42649 0
M  V30 6933 C 664.614 0.0112928 -2.30797 0
M  V30 6934 C 665.584 0.797627 -1.45695 0
M  V30 6935 O 666.769 0.770845 -1.74535 0
M  V30 6936 C 663.909 0.95998 -3.31479 0
M  V30 6937 C 663.022 0.167975 -4.31673 0
M  V30 6938 C 662.157 1.11198 -5.19431 0
M  V30 6939 C 661.196 0.311381 -6.11307 0
M  V30 6940 N 660.333 1.20784 -6.91633 0
M  V30 6941 H 665.173 -0.746231 -2.88505 0
M  V30 6942 H 662.71 -0.379739 -1.42114 0
M  V30 6943 H 664.668 1.52379 -3.88377 0
M  V30 6944 H 663.298 1.68419 -2.75382 0
M  V30 6945 H 662.35 -0.512385 -3.76933 0
M  V30 6946 H 663.662 -0.453814 -4.96731 0
M  V30 6947 H 662.816 1.74587 -5.81037 0
M  V30 6948 H 661.555 1.76766 -4.54538 0
M  V30 6949 H 660.56 -0.335758 -5.48774 0
M  V30 6950 H 661.785 -0.340135 -6.78248 0
M  V30 6951 H 659.731 1.85001 -6.29373 0
M  V30 6952 H 659.648 0.64102 -7.53277 0
M  V30 6953 H 660.916 1.82936 -7.5773 0
M  V30 6954 N 665.145 1.52092 -0.413018 0
M  V30 6955 C 666.373 2.06274 0.160881 0
M  V30 6956 C 666.788 1.28273 1.38533 0
M  V30 6957 O 666.145 0.33563 1.79387 0
M  V30 6958 C 666.196 3.57921 0.507443 0
M  V30 6959 O 665.917 4.32971 -0.668388 0
M  V30 6960 C 667.418 4.28533 1.13465 0
M  V30 6961 H 664.638 0.67074 0.0186759 0
M  V30 6962 H 667.182 1.95951 -0.585092 0
M  V30 6963 H 665.337 3.68238 1.20331 0
M  V30 6964 H 665.751 5.23135 -0.378169 0
M  V30 6965 H 667.225 5.35804 1.32732 0
M  V30 6966 H 667.702 3.85258 2.10886 0
M  V30 6967 H 668.308 4.22595 0.478876 0
M  V30 6968 N 666.623 0.143563 1.56945 0
M  V30 6969 C 668.034 -0.37783 1.82837 0
M  V30 6970 C 668.385 -1.64967 1.06209 0
M  V30 6971 O 667.51 -2.14221 0.306291 0
M  V30 6972 C 668.105 -0.692274 3.31652 0
M  V30 6973 C 666.664 -1.1582 3.58138 0
M  V30 6974 C 665.811 -0.17951 2.76718 0
M  V30 6975 H 668.762 0.368317 1.54367 0
M  V30 6976 H 668.783 -1.54729 3.47619 0
M  V30 6977 H 668.295 0.233572 3.87397 0
M  V30 6978 H 666.396 -2.10011 3.07776 0
M  V30 6979 H 666.509 -1.08655 4.66616 0
M  V30 6980 H 664.873 -0.671458 2.4569 0
M  V30 6981 H 665.656 0.739865 3.35233 0
M  V30 6982 N 668.101 -1.57061 -0.130224 0
M  V30 6983 C 669.031 -2.02552 -1.16168 0
M  V30 6984 C 670.012 -0.907971 -1.4384 0
M  V30 6985 O 671.197 -1.17693 -1.54473 0
M  V30 6986 C 668.327 -2.42035 -2.49071 0
M  V30 6987 C 667.281 -3.5713 -2.35886 0
M  V30 6988 C 666.607 -3.82478 -3.7365 0
M  V30 6989 C 667.907 -4.89236 -1.8288 0
M  V30 6990 H 669.601 -2.8897 -0.783359 0
M  V30 6991 H 667.147 -1.39021 -0.375376 0
M  V30 6992 H 669.1 -2.72462 -3.21469 0
M  V30 6993 H 667.824 -1.52573 -2.88771 0
M  V30 6994 H 666.483 -3.26895 -1.65938 0
M  V30 6995 H 666.131 -2.9024 -4.10816 0
M  V30 6996 H 665.831 -4.59944 -3.65685 0
M  V30 6997 H 667.355 -4.15347 -4.47571 0
M  V30 6998 H 668.769 -5.18272 -2.45085 0
M  V30 6999 H 667.166 -5.70624 -1.85763 0
M  V30 7000 H 668.236 -4.78494 -0.785571 0
M  V30 7001 N 669.579 0.400081 -1.52437 0
M  V30 7002 C 670.804 1.17221 -1.71096 0
M  V30 7003 C 671.229 1.83269 -0.423565 0
M  V30 7004 O 670.587 1.70378 0.619751 0
M  V30 7005 C 670.635 2.20425 -2.85386 0
M  V30 7006 O 669.739 3.26769 -2.51586 0
M  V30 7007 H 669.08 0.341766 -0.569291 0
M  V30 7008 H 671.61 0.467772 -1.99181 0
M  V30 7009 H 671.62 2.64605 -3.10561 0
M  V30 7010 H 670.295 1.71737 -3.78786 0
M  V30 7011 H 668.872 2.87804 -2.37114 0
M  V30 7012 N 671.057 1.43213 0.657864 0
M  V30 7013 C 672.285 1.48015 1.44566 0
M  V30 7014 C 672.7 0.0965951 1.88553 0
M  V30 7015 O 672.057 -0.892221 1.59203 0
M  V30 7016 C 672.108 2.42199 2.68369 0
M  V30 7017 O 671.829 3.75173 2.26223 0
M  V30 7018 C 673.33 2.56195 3.61772 0
M  V30 7019 H 670.55 0.502861 0.444266 0
M  V30 7020 H 673.094 1.87907 0.806917 0
M  V30 7021 H 671.249 2.05514 3.28394 0
M  V30 7022 H 671.663 4.25776 3.06293 0
M  V30 7023 H 673.137 3.26182 4.4532 0
M  V30 7024 H 673.614 1.60534 4.0881 0
M  V30 7025 H 674.22 2.93671 3.07632 0
M  V30 7026 N 672.536 -0.895792 1.29666 0
M  V30 7027 C 673.466 -2.01673 1.17688 0
M  V30 7028 C 674.447 -1.69955 0.0701317 0
M  V30 7029 O 675.632 -1.9258 0.250289 0
M  V30 7030 C 672.762 -3.36568 0.856681 0
M  V30 7031 C 671.716 -3.82509 1.92017 0
M  V30 7032 C 671.042 -5.14574 1.4532 0
M  V30 7033 C 672.342 -4.02409 3.32963 0
M  V30 7034 H 674.036 -2.11953 2.11463 0
M  V30 7035 H 671.582 -1.01839 1.01807 0
M  V30 7036 H 673.535 -4.14498 0.759577 0
M  V30 7037 H 672.259 -3.26391 -0.116763 0
M  V30 7038 H 670.918 -3.068 2.00673 0
M  V30 7039 H 670.566 -5.00815 0.468325 0
M  V30 7040 H 670.266 -5.46283 2.16447 0
M  V30 7041 H 671.79 -5.9504 1.36968 0
M  V30 7042 H 673.204 -4.70808 3.27127 0
M  V30 7043 H 671.601 -4.45478 4.02082 0
M  V30 7044 H 672.671 -3.06616 3.75652 0
M  V30 7045 N 674.014 -1.12206 -1.10668 0
M  V30 7046 C 674.977 -0.790867 -2.15123 0
M  V30 7047 C 675.977 0.193618 -1.5963 0
M  V30 7048 O 677.167 -0.0318728 -1.74171 0
M  V30 7049 C 674.299 -0.174797 -3.40452 0
M  V30 7050 H 675.492 -1.7163 -2.45933 0
M  V30 7051 H 673.045 -0.924993 -1.2599 0
M  V30 7052 H 673.78 0.760478 -3.15257 0
M  V30 7053 H 673.565 -0.88358 -3.82015 0
M  V30 7054 H 675.055 0.0405162 -4.1758 0
M  V30 7055 N 675.492 1.28418 -0.913599 0
M  V30 7056 C 676.741 1.94265 -0.542572 0
M  V30 7057 C 677.054 1.72709 0.918207 0
M  V30 7058 O 678.26 2.32778 1.39738 0
M  V30 7059 C 676.716 3.47956 -0.919507 0
M  V30 7060 C 676.324 3.78291 -2.4 0
M  V30 7061 C 678.068 4.19962 -0.619057 0
M  V30 7062 C 675.975 5.2529 -2.71707 0
M  V30 7063 H 674.905 0.727213 -0.199192 0
M  V30 7064 H 677.556 1.45931 -1.11249 0
M  V30 7065 H 675.938 3.9502 -0.278372 0
M  V30 7066 H 677.112 3.42035 -3.08786 0
M  V30 7067 H 675.427 3.19456 -2.67089 0
M  V30 7068 H 678.024 5.28178 -0.832623 0
M  V30 7069 H 678.367 4.13935 0.443126 0
M  V30 7070 H 678.9 3.78674 -1.21865 0
M  V30 7071 H 675.639 5.36394 -3.76778 0
M  V30 7072 H 675.159 5.62743 -2.07559 0
M  V30 7073 H 676.838 5.93027 -2.58703 0
M  V30 7074 N 676.97 0.677563 1.42291 0
M  V30 7075 C 678.216 0.201272 2.01799 0
M  V30 7076 C 678.549 -1.19004 1.53465 0
M  V30 7077 O 677.824 -1.79953 0.738039 0
M  V30 7078 C 678.107 0.238968 3.59306 0
M  V30 7079 C 677.96 1.66594 4.17812 0
M  V30 7080 C 679.279 -0.411287 4.38174 0
M  V30 7081 H 676.398 0.0746114 0.733214 0
M  V30 7082 H 679.04 0.862872 1.69276 0
M  V30 7083 H 677.19 -0.324368 3.87144 0
M  V30 7084 H 678.862 2.28173 4.00917 0
M  V30 7085 H 677.105 2.20576 3.73536 0
M  V30 7086 H 677.776 1.64398 5.26951 0
M  V30 7087 H 680.252 0.0682804 4.16044 0
M  V30 7088 H 679.128 -0.354286 5.47755 0
M  V30 7089 H 679.389 -1.4893 4.1626 0
M  V30 7090 N 678.448 -1.51871 0.421078 0
M  V30 7091 C 679.411 -2.25914 -0.386712 0
M  V30 7092 C 680.411 -1.28733 -0.963555 0
M  V30 7093 O 681.601 -1.52579 -0.840556 0
M  V30 7094 C 678.733 -3.03853 -1.54551 0
M  V30 7095 H 679.926 -2.98754 0.261978 0
M  V30 7096 H 677.479 -1.5533 0.173862 0
M  V30 7097 H 678.214 -2.35392 -2.23072 0
M  V30 7098 H 677.999 -3.75215 -1.13824 0
M  V30 7099 H 679.489 -3.59984 -2.11663 0
M  V30 7100 N 679.926 -0.151884 -1.56866 0
M  V30 7101 C 680.856 0.781943 -2.20018 0
M  V30 7102 C 681.837 1.25347 -1.14987 0
M  V30 7103 O 683.022 1.31015 -1.43348 0
M  V30 7104 C 680.152 2.01928 -2.82564 0
M  V30 7105 C 679.106 1.68434 -3.93464 0
M  V30 7106 C 678.432 2.99472 -4.42968 0
M  V30 7107 C 679.732 0.927244 -5.14003 0
M  V30 7108 H 681.426 0.255607 -2.98307 0
M  V30 7109 H 678.972 0.121502 -1.43486 0
M  V30 7110 H 680.925 2.67741 -3.25411 0
M  V30 7111 H 679.649 2.56943 -2.01614 0
M  V30 7112 H 678.308 1.04998 -3.51242 0
M  V30 7113 H 677.956 3.52488 -3.58834 0
M  V30 7114 H 677.656 2.77823 -5.17772 0
M  V30 7115 H 679.18 3.66348 -4.88489 0
M  V30 7116 H 680.594 1.48756 -5.53665 0
M  V30 7117 H 678.991 0.810513 -5.94601 0
M  V30 7118 H 680.061 -0.0801163 -4.84834 0
M  V30 7119 N 681.404 1.57128 0.121893 0
M  V30 7120 C 682.652 1.84335 0.828548 0
M  V30 7121 C 682.973 0.736632 1.80551 0
M  V30 7122 O 682.243 -0.23962 1.94429 0
M  V30 7123 H 680.823 0.680108 0.30897 0
M  V30 7124 H 683.485 1.9459 0.109906 0
M  V30 7125 H 682.581 2.80152 1.37554 0
M  V30 7126 N 682.882 -0.391992 1.52647 0
M  V30 7127 C 684.11 -1.1586 1.71418 0
M  V30 7128 C 684.525 -1.8381 0.431216 0
M  V30 7129 O 683.882 -1.7256 -0.594085 0
M  V30 7130 C 683.933 -2.20888 2.86165 0
M  V30 7131 O 683.654 -1.5571 4.09495 0
M  V30 7132 C 685.155 -3.103 3.1659 0
M  V30 7133 H 682.375 -0.347494 0.574011 0
M  V30 7134 H 684.919 -0.458972 1.99283 0
M  V30 7135 H 683.074 -2.86492 2.6077 0
M  V30 7136 H 683.488 -2.25474 4.73563 0
M  V30 7137 H 684.962 -3.8003 4.00351 0
M  V30 7138 H 685.439 -3.73639 2.30848 0
M  V30 7139 H 686.045 -2.50345 3.43813 0
M  V30 7140 N 684.36 -1.4356 -0.65026 0
M  V30 7141 C 685.608 -1.45046 -1.40734 0
M  V30 7142 C 685.929 -0.0769822 -1.94848 0
M  V30 7143 O 685.199 0.888098 -1.74613 0
M  V30 7144 H 683.779 -0.534034 -0.522318 0
M  V30 7145 H 686.441 -1.79186 -0.766703 0
M  V30 7146 H 685.537 -2.16476 -2.24822 0
M  V30 7147 N 685.838 0.888903 -1.30139 0
M  V30 7148 C 687.087 1.63507 -1.18103 0
M  V30 7149 C 687.4 1.93808 0.264141 0
M  V30 7150 O 688.606 2.66744 0.505966 0
M  V30 7151 C 687.062 2.94673 -2.0663 0
M  V30 7152 C 686.67 2.71926 -3.56034 0
M  V30 7153 C 688.414 3.72626 -2.03346 0
M  V30 7154 C 686.321 3.98884 -4.3663 0
M  V30 7155 H 685.251 0.613426 -0.438435 0
M  V30 7156 H 687.902 0.984427 -1.54859 0
M  V30 7157 H 686.284 3.61009 -1.62754 0
M  V30 7158 H 687.458 2.14116 -4.08033 0
M  V30 7159 H 685.773 2.07353 -3.61101 0
M  V30 7160 H 688.37 4.66775 -2.60816 0
M  V30 7161 H 688.713 4.03712 -1.016 0
M  V30 7162 H 689.246 3.13147 -2.45324 0
M  V30 7163 H 685.985 3.72959 -5.39056 0
M  V30 7164 H 685.505 4.56214 -3.89396 0
M  V30 7165 H 687.184 4.66938 -4.47859 0
M  V30 7166 N 687.317 1.12792 1.10072 0
M  V30 7167 C 688.545 0.908506 1.85886 0
M  V30 7168 C 688.96 -0.542408 1.80841 0
M  V30 7169 O 688.317 -1.37517 1.1998 0
M  V30 7170 C 688.368 1.37973 3.34134 0
M  V30 7171 O 688.089 2.77378 3.39106 0
M  V30 7172 C 689.59 1.1978 4.26811 0
M  V30 7173 H 686.81 0.3244 0.587372 0
M  V30 7174 H 689.354 1.49882 1.39125 0
M  V30 7175 H 687.509 0.832566 3.78348 0
M  V30 7176 H 687.923 2.98144 4.31521 0
M  V30 7177 H 689.397 1.57635 5.29014 0
M  V30 7178 H 689.874 0.138768 4.38981 0
M  V30 7179 H 690.48 1.73266 3.88406 0
M  V30 7180 N 688.795 -1.27931 0.920396 0
M  V30 7181 C 690.042 -1.94689 0.557007 0
M  V30 7182 C 690.37 -1.724 -0.900476 0
M  V30 7183 O 689.625 -1.04194 -1.65657 0
M  V30 7184 C 689.924 -3.47853 0.820558 0
M  V30 7185 C 689.59 -3.90252 2.25863 0
M  V30 7186 C 688.252 -4.01539 2.65179 0
M  V30 7187 C 690.604 -4.11853 3.19415 0
M  V30 7188 C 687.932 -4.3181 3.97187 0
M  V30 7189 C 690.284 -4.43606 4.50995 0
M  V30 7190 C 688.948 -4.53105 4.90155 0
M  V30 7191 H 688.218 -0.712416 0.203823 0
M  V30 7192 H 690.865 -1.52142 1.16298 0
M  V30 7193 H 689.17 -3.91578 0.131844 0
M  V30 7194 H 690.867 -3.97634 0.51847 0
M  V30 7195 H 687.457 -3.81999 1.94358 0
M  V30 7196 H 691.641 -4.0258 2.90246 0
M  V30 7197 H 686.897 -4.37371 4.2722 0
M  V30 7198 H 691.071 -4.59268 5.23494 0
M  V30 7199 H 688.698 -4.76315 5.92476 0
M  V30 7200 N 690.273 -0.685099 -1.4193 0
M  V30 7201 C 691.522 -0.208816 -2.00616 0
M  V30 7202 C 691.835 1.19506 -1.54847 0
M  V30 7203 O 693.041 1.76826 -2.06021 0
M  V30 7204 C 691.497 -0.322446 -3.58453 0
M  V30 7205 C 691.105 -1.73102 -4.13206 0
M  V30 7206 C 692.849 0.0945979 -4.24395 0
M  V30 7207 C 690.756 -1.79687 -5.63442 0
M  V30 7208 H 689.686 -0.0743092 -0.750329 0
M  V30 7209 H 692.337 -0.851778 -1.62533 0
M  V30 7210 H 690.719 0.388588 -3.94089 0
M  V30 7211 H 691.893 -2.46997 -3.8901 0
M  V30 7212 H 690.208 -2.09682 -3.59753 0
M  V30 7213 H 692.805 0.0656937 -5.3466 0
M  V30 7214 H 693.148 1.1316 -4.00625 0
M  V30 7215 H 693.681 -0.56579 -3.93756 0
M  V30 7216 H 690.42 -2.81404 -5.92024 0
M  V30 7217 H 689.94 -1.10162 -5.89597 0
M  V30 7218 H 691.619 -1.55498 -6.28036 0
M  V30 7219 N 691.751 1.51645 -0.429126 0
M  V30 7220 C 692.684 2.24083 0.431492 0
M  V30 7221 C 693.662 1.25691 1.03153 0
M  V30 7222 O 694.846 1.54802 1.07557 0
M  V30 7223 C 691.973 2.9849 1.60067 0
M  V30 7224 C 691.019 4.11474 1.12211 0
M  V30 7225 S 691.852 5.35453 0.0708449 0
M  V30 7226 C 693.008 6.13395 1.24488 0
M  V30 7227 H 693.241 2.96733 -0.183525 0
M  V30 7228 H 690.774 1.52916 -0.213574 0
M  V30 7229 H 692.732 3.4196 2.27099 0
M  V30 7230 H 691.393 2.25445 2.18708 0
M  V30 7231 H 690.586 4.62784 1.99618 0
M  V30 7232 H 690.188 3.70223 0.530149 0
M  V30 7233 H 692.48 6.41984 2.16479 0
M  V30 7234 H 693.423 7.0388 0.771921 0
M  V30 7235 H 693.831 5.44761 1.47973 0
M  V30 7236 N 693.229 0.160201 1.56784 0
M  V30 7237 C 694.476 -0.487588 1.96542 0
M  V30 7238 C 694.804 -1.63999 1.04569 0
M  V30 7239 O 694.059 -1.95546 0.0775211 0
M  V30 7240 C 694.358 -1.02259 3.42459 0
M  V30 7241 C 694.024 0.0127436 4.50898 0
M  V30 7242 C 692.686 0.297318 4.80281 0
M  V30 7243 C 695.038 0.716078 5.16257 0
M  V30 7244 C 692.366 1.29081 5.72324 0
M  V30 7245 C 694.718 1.69847 6.09372 0
M  V30 7246 C 693.382 1.99061 6.37127 0
M  V30 7247 H 692.652 -0.178421 0.719199 0
M  V30 7248 H 695.299 0.249818 1.89864 0
M  V30 7249 H 693.604 -1.8376 3.46034 0
M  V30 7250 H 695.301 -1.53261 3.70556 0
M  V30 7251 H 691.891 -0.219235 4.28039 0
M  V30 7252 H 696.075 0.509428 4.93679 0
M  V30 7253 H 691.331 1.52344 5.92116 0
M  V30 7254 H 695.505 2.2489 6.59088 0
M  V30 7255 H 693.132 2.76194 7.08252 0
M  V30 7256 N 694.707 -1.5719 -0.113559 0
M  V30 7257 C 695.955 -1.84772 -0.818761 0
M  V30 7258 C 696.276 -0.746196 -1.80158 0
M  V30 7259 O 695.546 0.229305 -1.94553 0
M  V30 7260 H 694.126 -0.681737 -0.305359 0
M  V30 7261 H 696.788 -1.94645 -0.0995845 0
M  V30 7262 H 695.884 -2.80878 -1.36067 0
M  V30 7263 N 696.185 0.383891 -1.52853 0
M  V30 7264 C 697.431 1.13009 -1.68395 0
M  V30 7265 C 697.764 1.89488 -0.425195 0
M  V30 7266 O 697.039 1.8574 0.577136 0
M  V30 7267 C 697.322 2.10419 -2.92226 0
M  V30 7268 C 697.175 1.3767 -4.28214 0
M  V30 7269 C 698.494 3.10781 -3.11614 0
M  V30 7270 H 695.613 0.409463 -0.612788 0
M  V30 7271 H 698.255 0.412895 -1.85459 0
M  V30 7272 H 696.405 2.71579 -2.77808 0
M  V30 7273 H 698.077 0.794352 -4.54409 0
M  V30 7274 H 696.32 0.678533 -4.2846 0
M  V30 7275 H 696.991 2.08874 -5.10956 0
M  V30 7276 H 699.467 2.59715 -3.25096 0
M  V30 7277 H 698.343 3.76179 -3.99725 0
M  V30 7278 H 698.604 3.79933 -2.2606 0
M  V30 7279 N 697.663 1.43903 0.642637 0
M  V30 7280 C 698.888 1.49758 1.43483 0
M  V30 7281 C 699.313 0.119911 1.87717 0
M  V30 7282 O 698.671 -0.888558 1.58033 0
M  V30 7283 C 698.719 2.45744 2.63898 0
M  V30 7284 O 697.823 1.95101 3.63331 0
M  V30 7285 H 697.164 0.506138 0.429791 0
M  V30 7286 H 699.694 1.88923 0.785438 0
M  V30 7287 H 699.704 2.63399 3.11584 0
M  V30 7288 H 698.379 3.45818 2.31046 0
M  V30 7289 H 696.956 1.87158 3.22531 0
M  V30 7290 N 699.141 -0.881989 1.30609 0
M  V30 7291 C 700.366 -1.67236 1.22665 0
M  V30 7292 C 700.791 -1.8696 -0.206777 0
M  V30 7293 O 700.149 -1.4027 -1.14865 0
M  V30 7294 C 700.197 -3.02446 1.96363 0
M  V30 7295 O 699.301 -3.91614 1.29276 0
M  V30 7296 H 698.642 -0.510902 0.424117 0
M  V30 7297 H 701.172 -1.10055 1.72479 0
M  V30 7298 H 701.182 -3.52468 2.055 0
M  V30 7299 H 699.857 -2.8741 3.00613 0
M  V30 7300 H 698.434 -3.50055 1.28514 0
M  V30 7301 N 700.619 -1.13374 -1.09472 0
M  V30 7302 C 701.866 -0.89519 -1.81639 0
M  V30 7303 C 702.194 0.57868 -1.85692 0
M  V30 7304 O 701.449 1.44426 -1.32059 0
M  V30 7305 C 701.748 -1.42759 -3.2765 0
M  V30 7306 C 701.414 -2.91822 -3.43731 0
M  V30 7307 C 700.076 -3.32521 -3.47827 0
M  V30 7308 C 702.428 -3.87727 -3.48307 0
M  V30 7309 C 699.756 -4.6781 -3.54078 0
M  V30 7310 C 702.108 -5.22859 -3.56091 0
M  V30 7311 C 700.772 -5.63086 -3.58456 0
M  V30 7312 H 700.042 -0.327573 -0.664663 0
M  V30 7313 H 702.689 -1.4156 -1.28969 0
M  V30 7314 H 700.994 -0.827871 -3.82954 0
M  V30 7315 H 702.691 -1.2191 -3.8202 0
M  V30 7316 H 699.281 -2.5935 -3.41226 0
M  V30 7317 H 703.465 -3.57371 -3.44383 0
M  V30 7318 H 698.721 -4.98353 -3.54195 0
M  V30 7319 H 702.895 -5.96989 -3.58577 0
M  V30 7320 H 700.522 -6.67905 -3.63052 0
M  V30 7321 N 702.098 1.27442 -0.927168 0
M  V30 7322 C 703.028 2.29256 -0.443188 0
M  V30 7323 C 704.009 1.62701 0.49624 0
M  V30 7324 O 705.194 1.90013 0.401105 0
M  V30 7325 C 702.324 3.45955 0.305366 0
M  V30 7326 C 701.278 4.24501 -0.546178 0
M  V30 7327 C 700.604 5.33671 0.331512 0
M  V30 7328 C 701.904 4.89921 -1.81037 0
M  V30 7329 H 703.598 2.69988 -1.29409 0
M  V30 7330 H 701.144 1.29792 -0.623705 0
M  V30 7331 H 703.097 4.1628 0.654885 0
M  V30 7332 H 701.821 3.04138 1.19029 0
M  V30 7333 H 700.48 3.55921 -0.878398 0
M  V30 7334 H 700.128 4.88096 1.21537 0
M  V30 7335 H 699.828 5.87131 -0.234746 0
M  V30 7336 H 701.352 6.0684 0.676614 0
M  V30 7337 H 702.766 5.52536 -1.52895 0
M  V30 7338 H 701.163 5.53436 -2.32009 0
M  V30 7339 H 702.233 4.13652 -2.53021 0
M  V30 7340 N 703.576 0.692616 1.41565 0
M  V30 7341 C 704.825 0.219452 2.00503 0
M  V30 7342 C 705.138 -1.18683 1.55479 0
M  V30 7343 O 706.344 -1.75731 2.06956 0
M  V30 7344 C 704.8 0.341451 3.58277 0
M  V30 7345 C 704.408 1.75291 4.12283 0
M  V30 7346 C 706.152 -0.0720899 4.24439 0
M  V30 7347 C 704.059 1.82673 5.62481 0
M  V30 7348 H 702.989 0.0782874 0.749925 0
M  V30 7349 H 705.64 0.860386 1.62079 0
M  V30 7350 H 704.022 -0.367683 3.94289 0
M  V30 7351 H 705.196 2.49057 3.87695 0
M  V30 7352 H 703.511 2.11587 3.58636 0
M  V30 7353 H 706.108 -0.0373385 5.34687 0
M  V30 7354 H 706.451 -1.11034 4.0122 0
M  V30 7355 H 706.984 0.586663 3.9345 0
M  V30 7356 H 703.723 2.84539 5.90523 0
M  V30 7357 H 703.243 1.13288 5.89004 0
M  V30 7358 H 704.922 1.58827 6.27203 0
M  V30 7359 N 705.054 -1.51416 0.437162 0
M  V30 7360 C 706.301 -2.02086 -0.129364 0
M  V30 7361 C 706.629 -1.32133 -1.42728 0
M  V30 7362 O 705.884 -0.424916 -1.91031 0
M  V30 7363 C 706.183 -3.55203 -0.39564 0
M  V30 7364 C 705.849 -4.43447 0.81644 0
M  V30 7365 C 704.511 -4.67285 1.14884 0
M  V30 7366 C 706.863 -4.95219 1.62503 0
M  V30 7367 C 704.191 -5.40141 2.29052 0
M  V30 7368 C 706.543 -5.69327 2.7577 0
M  V30 7369 C 705.207 -5.91429 3.09464 0
M  V30 7370 H 704.477 -0.739486 -0.0473375 0
M  V30 7371 H 707.124 -1.82368 0.584321 0
M  V30 7372 H 705.429 -3.73252 -1.19121 0
M  V30 7373 H 707.126 -3.91944 -0.847399 0
M  V30 7374 H 703.716 -4.2509 0.547422 0
M  V30 7375 H 707.9 -4.76686 1.38144 0
M  V30 7376 H 703.156 -5.55468 2.55471 0
M  V30 7377 H 707.33 -6.08433 3.38795 0
M  V30 7378 H 704.957 -6.47662 3.98042 0
M  V30 7379 N 706.532 -0.168513 -1.56696 0
M  V30 7380 C 707.948 0.187686 -1.58493 0
M  V30 7381 C 708.148 1.63063 -1.18375 0
M  V30 7382 O 707.204 2.36142 -0.894042 0
M  V30 7383 C 708.517 -0.0905858 -3.00564 0
M  V30 7384 C 710.065 -0.028575 -3.12987 0
M  V30 7385 C 710.54 -0.279799 -4.57145 0
M  V30 7386 N 712.031 -0.227476 -4.62641 0
M  V30 7387 C 712.766 -0.396073 -5.7203 0
M  V30 7388 N 712.262 -0.623572 -6.89988 0
M  V30 7389 N 714.055 -0.332173 -5.61118 0
M  V30 7390 H 706.206 -1.11042 -1.81062 0
M  V30 7391 H 708.469 -0.441235 -0.839056 0
M  V30 7392 H 708.175 -1.09006 -3.34381 0
M  V30 7393 H 708.049 0.619078 -3.72085 0
M  V30 7394 H 710.436 0.961471 -2.78998 0
M  V30 7395 H 710.517 -0.770905 -2.43907 0
M  V30 7396 H 710.161 -1.26704 -4.91842 0
M  V30 7397 H 710.091 0.48311 -5.24379 0
M  V30 7398 H 712.582 -0.0571723 -3.77857 0
M  V30 7399 H 712.895 -0.741745 -7.69232 0
M  V30 7400 H 711.24 -0.660153 -6.91858 0
M  V30 7401 H 714.431 -0.155051 -4.67843 0
M  V30 7402 H 714.604 -0.466994 -6.46315 0
M  V30 7403 N 708.01 1.57248 0.105221 0
M  V30 7404 C 708.957 2.01338 1.12835 0
M  V30 7405 C 709.927 0.887897 1.40377 0
M  V30 7406 O 711.112 1.15315 1.5201 0
M  V30 7407 C 708.252 2.43432 2.44611 0
M  V30 7408 C 707.365 3.69457 2.23888 0
M  V30 7409 C 706.5 4.00473 3.48991 0
M  V30 7410 C 705.539 5.19638 3.23485 0
M  V30 7411 N 704.676 5.46457 4.40828 0
M  V30 7412 H 709.516 2.88527 0.745386 0
M  V30 7413 H 707.053 1.42714 0.356535 0
M  V30 7414 H 709.011 2.65879 3.21503 0
M  V30 7415 H 707.641 1.59266 2.80774 0
M  V30 7416 H 706.693 3.54545 1.37847 0
M  V30 7417 H 708.005 4.56497 2.01026 0
M  V30 7418 H 707.159 4.23642 4.34295 0
M  V30 7419 H 705.898 3.11935 3.74897 0
M  V30 7420 H 704.903 4.96299 2.36574 0
M  V30 7421 H 706.128 6.09766 2.98935 0
M  V30 7422 H 704.074 4.60876 4.66829 0
M  V30 7423 H 703.991 6.27849 4.2112 0
M  V30 7424 H 705.259 5.74155 5.27225 0
M  V30 7425 N 709.488 -0.375779 1.53054 0
M  V30 7426 C 710.418 -1.46598 1.81745 0
M  V30 7427 C 711.399 -1.56337 0.670286 0
M  V30 7428 O 712.584 -1.71071 0.919158 0
M  V30 7429 C 709.714 -2.84058 1.99821 0
M  V30 7430 C 708.668 -2.8915 3.15557 0
M  V30 7431 C 707.994 -4.29187 3.18908 0
M  V30 7432 C 709.294 -2.57595 4.54359 0
M  V30 7433 H 710.988 -1.22837 2.73041 0
M  V30 7434 H 708.534 -0.589485 1.31381 0
M  V30 7435 H 710.487 -3.60342 2.18475 0
M  V30 7436 H 709.211 -3.09184 1.05226 0
M  V30 7437 H 707.87 -2.15316 2.96706 0
M  V30 7438 H 707.518 -4.51374 2.2197 0
M  V30 7439 H 707.218 -4.33512 3.96662 0
M  V30 7440 H 708.742 -5.07359 3.39734 0
M  V30 7441 H 710.156 -3.23595 4.73243 0
M  V30 7442 H 708.553 -2.73252 5.34279 0
M  V30 7443 H 709.623 -1.52882 4.60169 0
M  V30 7444 N 710.966 -1.44241 -0.634997 0
M  V30 7445 C 711.899 -1.45274 -1.75985 0
M  V30 7446 C 712.877 -0.312025 -1.59578 0
M  V30 7447 O 714.061 -0.508409 -1.81514 0
M  V30 7448 C 711.188 -1.28173 -3.13511 0
M  V30 7449 C 710.234 -2.45757 -3.48576 0
M  V30 7450 S 711.067 -4.08293 -3.46492 0
M  V30 7451 C 712.223 -3.93608 -4.86645 0
M  V30 7452 H 712.456 -2.40454 -1.74841 0
M  V30 7453 H 709.989 -1.31492 -0.809268 0
M  V30 7454 H 711.947 -1.18993 -3.92875 0
M  V30 7455 H 710.608 -0.34511 -3.12198 0
M  V30 7456 H 709.801 -2.29644 -4.48642 0
M  V30 7457 H 709.403 -2.51657 -2.76667 0
M  V30 7458 H 711.695 -3.57059 -5.75774 0
M  V30 7459 H 712.638 -4.9349 -5.07813 0
M  V30 7460 H 713.046 -3.25737 -4.61038 0
M  V30 7461 N 712.444 0.87505 -1.31075 0
M  V30 7462 C 713.374 1.99775 -1.20881 0
M  V30 7463 C 714.355 1.69822 -0.0971612 0
M  V30 7464 O 715.54 1.92158 -0.280895 0
M  V30 7465 C 712.67 3.35163 -0.910118 0
M  V30 7466 C 711.624 3.79406 -1.98078 0
M  V30 7467 C 710.95 5.12197 -1.53488 0
M  V30 7468 C 712.25 3.97061 -3.39323 0
M  V30 7469 H 713.944 2.08562 -2.14808 0
M  V30 7470 H 711.49 1.00207 -1.03415 0
M  V30 7471 H 713.443 4.13237 -0.825423 0
M  V30 7472 H 712.167 3.26536 0.064822 0
M  V30 7473 H 710.826 3.03568 -2.05528 0
M  V30 7474 H 710.474 5.00007 -0.547941 0
M  V30 7475 H 710.174 5.4277 -2.2511 0
M  V30 7476 H 711.698 5.92785 -1.46417 0
M  V30 7477 H 713.112 4.65545 -3.34576 0
M  V30 7478 H 711.509 4.39025 -4.09118 0
M  V30 7479 H 712.579 3.00601 -3.80483 0
M  V30 7480 N 713.922 1.13953 1.08869 0
M  V30 7481 C 714.832 0.835666 2.19212 0
M  V30 7482 C 715.848 -0.182005 1.73045 0
M  V30 7483 O 717.024 -0.0116661 2.01397 0
M  V30 7484 C 714.089 0.312325 3.4529 0
M  V30 7485 C 713.15 1.39196 4.06107 0
M  V30 7486 C 712.383 0.893496 5.26168 0
M  V30 7487 O 712.606 -0.266807 5.69776 0
M  V30 7488 O 711.54 1.67037 5.78258 0
M  V30 7489 H 715.366 1.75769 2.47667 0
M  V30 7490 H 712.951 0.917421 1.17914 0
M  V30 7491 H 714.833 0.0261582 4.21392 0
M  V30 7492 H 713.508 -0.582042 3.18424 0
M  V30 7493 H 712.415 1.73152 3.31616 0
M  V30 7494 H 713.748 2.26068 4.37212 0
M  V30 7495 N 715.4 -1.26948 0.933913 0
M  V30 7496 C 716.347 -2.26635 0.436484 0
M  V30 7497 C 717.317 -1.58397 -0.499953 0
M  V30 7498 O 718.502 -1.86171 -0.417753 0
M  V30 7499 C 715.642 -3.43803 -0.298951 0
M  V30 7500 C 714.755 -4.26736 0.672316 0
M  V30 7501 C 713.89 -5.31134 -0.0835872 0
M  V30 7502 C 712.929 -6.05742 0.879979 0
M  V30 7503 N 712.066 -7.01926 0.156301 0
M  V30 7504 H 716.906 -2.68558 1.29154 0
M  V30 7505 H 714.443 -1.32052 0.648118 0
M  V30 7506 H 716.401 -4.10554 -0.741723 0
M  V30 7507 H 715.031 -3.02814 -1.1182 0
M  V30 7508 H 714.083 -3.59842 1.23361 0
M  V30 7509 H 715.395 -4.78502 1.40846 0
M  V30 7510 H 714.549 -6.03863 -0.585984 0
M  V30 7511 H 713.288 -4.80188 -0.852661 0
M  V30 7512 H 712.293 -5.31846 1.39357 0
M  V30 7513 H 713.518 -6.58777 1.64894 0
M  V30 7514 H 711.464 -6.53301 -0.594413 0
M  V30 7515 H 711.381 -7.51409 0.831906 0
M  V30 7516 H 712.649 -7.78821 -0.325239 0
M  V30 7517 N 716.879 -0.700114 -1.41195 0
M  V30 7518 C 717.789 -0.0382854 -2.34569 0
M  V30 7519 C 718.805 0.761036 -1.56474 0
M  V30 7520 O 719.981 0.697553 -1.88934 0
M  V30 7521 C 717.046 0.883522 -3.35253 0
M  V30 7522 C 716.107 0.0758957 -4.29233 0
M  V30 7523 C 715.34 0.9538 -5.25108 0
M  V30 7524 O 715.563 2.19326 -5.26547 0
M  V30 7525 O 714.497 0.401049 -6.00562 0
M  V30 7526 H 718.323 -0.808073 -2.92752 0
M  V30 7527 H 715.908 -0.460479 -1.42127 0
M  V30 7528 H 717.79 1.41199 -3.9704 0
M  V30 7529 H 716.465 1.63272 -2.79506 0
M  V30 7530 H 715.372 -0.497274 -3.7078 0
M  V30 7531 H 716.705 -0.634741 -4.8809 0
M  V30 7532 N 718.357 1.51182 -0.445186 0
M  V30 7533 C 719.287 2.30821 0.352686 0
M  V30 7534 C 720.268 1.36576 1.01395 0
M  V30 7535 O 721.453 1.65497 1.01609 0
M  V30 7536 C 718.583 3.15593 1.44976 0
M  V30 7537 C 717.537 4.1818 0.911553 0
M  V30 7538 C 716.863 4.91523 2.10497 0
M  V30 7539 C 718.163 5.22266 -0.059418 0
M  V30 7540 H 719.857 2.97771 -0.311936 0
M  V30 7541 H 717.403 1.43201 -0.151461 0
M  V30 7542 H 719.356 3.70091 2.01521 0
M  V30 7543 H 718.08 2.4648 2.14278 0
M  V30 7544 H 716.739 3.64746 0.368264 0
M  V30 7545 H 716.387 4.18906 2.78437 0
M  V30 7546 H 716.087 5.60898 1.7512 0
M  V30 7547 H 717.611 5.48847 2.6758 0
M  V30 7548 H 719.025 5.71789 0.415985 0
M  V30 7549 H 717.422 5.99213 -0.326152 0
M  V30 7550 H 718.492 4.7461 -0.993631 0
M  V30 7551 N 719.835 0.176821 1.56605 0
M  V30 7552 C 720.798 -0.737429 2.17013 0
M  V30 7553 C 721.798 -1.15414 1.11965 0
M  V30 7554 O 722.988 -1.0702 1.37449 0
M  V30 7555 C 720.12 -2.00445 2.75744 0
M  V30 7556 H 721.313 -0.211455 2.99154 0
M  V30 7557 H 718.866 -0.0727582 1.56131 0
M  V30 7558 H 719.601 -2.57338 1.97352 0
M  V30 7559 H 719.386 -1.71456 3.52626 0
M  V30 7560 H 720.876 -2.65679 3.22187 0
M  V30 7561 N 721.313 -1.57302 -0.09688 0
M  V30 7562 C 722.538 -1.9058 -0.818169 0
M  V30 7563 C 722.963 -0.770921 -1.71576 0
M  V30 7564 O 722.321 0.277588 -1.79162 0
M  V30 7565 C 722.369 -3.22714 -1.60898 0
M  V30 7566 O 721.473 -3.10178 -2.71779 0
M  V30 7567 H 720.814 -0.624759 -0.224882 0
M  V30 7568 H 723.344 -2.04471 -0.07264 0
M  V30 7569 H 723.354 -3.55978 -1.99358 0
M  V30 7570 H 722.029 -4.04899 -0.950227 0
M  V30 7571 H 720.606 -2.88424 -2.3636 0
M  V30 7572 N 722.791 0.367657 -1.53252 0
M  V30 7573 C 723.724 1.47264 -1.74323 0
M  V30 7574 C 724.702 1.51458 -0.591535 0
M  V30 7575 O 725.886 1.69542 -0.823883 0
M  V30 7576 C 723.013 2.85637 -1.82015 0
M  V30 7577 C 722.059 2.99176 -3.03967 0
M  V30 7578 S 722.892 2.68147 -4.63527 0
M  V30 7579 C 724.048 4.08673 -4.74065 0
M  V30 7580 H 724.281 1.29169 -2.67773 0
M  V30 7581 H 721.814 0.561866 -1.43814 0
M  V30 7582 H 723.772 3.65365 -1.87132 0
M  V30 7583 H 722.433 3.01043 -0.896195 0
M  V30 7584 H 721.626 4.00511 -3.05953 0
M  V30 7585 H 721.228 2.27367 -2.96952 0
M  V30 7586 H 723.52 5.02889 -4.53992 0
M  V30 7587 H 724.463 4.11693 -5.7612 0
M  V30 7588 H 724.871 3.95576 -4.02716 0
M  V30 7589 N 724.269 1.44576 0.627338 0
M  V30 7590 C 725.199 1.54562 1.75022 0
M  V30 7591 C 726.18 0.398378 1.65369 0
M  V30 7592 O 727.365 0.61899 1.84071 0
M  V30 7593 C 724.495 1.49309 3.13567 0
M  V30 7594 C 723.449 2.62549 3.38012 0
M  V30 7595 C 722.775 2.42348 4.76625 0
M  V30 7596 C 724.075 4.04678 3.30202 0
M  V30 7597 H 725.769 2.4855 1.66922 0
M  V30 7598 H 723.315 1.19624 0.801636 0
M  V30 7599 H 725.268 1.54895 3.919 0
M  V30 7600 H 723.992 0.518392 3.2246 0
M  V30 7601 H 722.651 2.56358 2.62061 0
M  V30 7602 H 722.299 1.43062 4.82226 0
M  V30 7603 H 721.999 3.18273 4.93939 0
M  V30 7604 H 723.523 2.49758 5.57183 0
M  V30 7605 H 724.937 4.12217 3.98435 0
M  V30 7606 H 723.334 4.80836 3.5905 0
M  V30 7607 H 724.404 4.2798 2.27949 0
M  V30 7608 N 725.747 -0.868086 1.31537 0
M  V30 7609 C 726.993 -1.62359 1.2252 0
M  V30 7610 C 727.348 -1.91204 -0.214169 0
M  V30 7611 O 726.641 -1.5339 -1.14813 0
M  V30 7612 C 726.835 -2.95889 2.0046 0
M  V30 7613 C 726.664 -2.80082 3.5183 0
M  V30 7614 C 725.434 -2.7917 4.21179 0
M  V30 7615 C 727.632 -2.54805 4.46743 0
M  V30 7616 N 725.614 -2.54433 5.58692 0
M  V30 7617 C 726.985 -2.39349 5.71937 0
M  V30 7618 C 729.04 -2.40165 4.36148 0
M  V30 7619 C 727.743 -2.1074 6.87736 0
M  V30 7620 C 729.769 -2.12945 5.51732 0
M  V30 7621 C 729.131 -1.98278 6.75918 0
M  V30 7622 H 725.23 -0.598381 0.503452 0
M  V30 7623 H 727.814 -1.02156 1.65748 0
M  V30 7624 H 725.985 -3.54095 1.59598 0
M  V30 7625 H 727.717 -3.60734 1.83447 0
M  V30 7626 H 724.472 -2.91621 3.73168 0
M  V30 7627 H 724.896 -2.45029 6.31102 0
M  V30 7628 H 729.538 -2.50231 3.408 0
M  V30 7629 H 727.256 -1.99412 7.8311 0
M  V30 7630 H 730.842 -2.02415 5.45454 0
M  V30 7631 H 729.722 -1.77514 7.63845 0
M  V30 7632 N 727.225 -1.14528 -1.08264 0
M  V30 7633 C 728.641 -0.885976 -1.3275 0
M  V30 7634 C 728.841 0.472096 -1.95892 0
M  V30 7635 O 727.897 1.21606 -2.21288 0
M  V30 7636 C 729.21 -2.01982 -2.22764 0
M  V30 7637 C 730.758 -2.05329 -2.36239 0
M  V30 7638 C 731.233 -3.1801 -3.29596 0
M  V30 7639 N 732.724 -3.17598 -3.37173 0
M  V30 7640 C 733.459 -4.01426 -4.09444 0
M  V30 7641 N 732.955 -4.95297 -4.8441 0
M  V30 7642 N 734.748 -3.89482 -4.0529 0
M  V30 7643 H 726.899 -2.01996 -0.656607 0
M  V30 7644 H 729.162 -0.880274 -0.351884 0
M  V30 7645 H 728.868 -2.99964 -1.83615 0
M  V30 7646 H 728.742 -1.94421 -3.23234 0
M  V30 7647 H 731.129 -1.07953 -2.74646 0
M  V30 7648 H 731.21 -2.1696 -1.35506 0
M  V30 7649 H 730.854 -4.15633 -2.9191 0
M  V30 7650 H 730.784 -3.03616 -4.30261 0
M  V30 7651 H 733.275 -2.4961 -2.83731 0
M  V30 7652 H 733.588 -5.55723 -5.37021 0
M  V30 7653 H 731.933 -4.99293 -4.83457 0
M  V30 7654 H 735.124 -3.15465 -3.45832 0
M  V30 7655 H 735.297 -4.55039 -4.6135 0
M  V30 7656 N 728.703 1.26451 -0.940633 0
M  V30 7657 C 729.952 1.93071 -0.583656 0
M  V30 7658 C 730.265 1.74618 0.881366 0
M  V30 7659 O 731.471 2.35689 1.34769 0
M  V30 7660 C 729.927 3.45927 -0.993106 0
M  V30 7661 C 729.535 3.73115 -2.4797 0
M  V30 7662 C 731.279 4.18554 -0.707998 0
M  V30 7663 C 729.186 5.19408 -2.82788 0
M  V30 7664 H 728.116 0.722824 -0.214572 0
M  V30 7665 H 730.767 1.43538 -1.1432 0
M  V30 7666 H 729.149 3.94341 -0.362099 0
M  V30 7667 H 730.323 3.35408 -3.15971 0
M  V30 7668 H 728.638 3.13719 -2.73805 0
M  V30 7669 H 731.235 5.26293 -0.94447 0
M  V30 7670 H 731.578 4.14782 0.355225 0
M  V30 7671 H 732.111 3.76003 -1.2987 0
M  V30 7672 H 728.85 5.28281 -3.88071 0
M  V30 7673 H 728.37 5.58214 -2.19449 0
M  V30 7674 H 730.049 5.87407 -2.71224 0
M  V30 7675 N 730.181 0.707592 1.40822 0
M  V30 7676 C 731.597 0.38034 1.55002 0
M  V30 7677 C 731.797 -1.11163 1.68062 0
M  V30 7678 O 730.853 -1.89761 1.66574 0
M  V30 7679 C 732.166 1.1394 2.78277 0
M  V30 7680 C 733.714 1.12492 2.92087 0
M  V30 7681 C 734.189 1.86597 4.18265 0
M  V30 7682 N 735.68 1.83626 4.25248 0
M  V30 7683 C 736.415 2.37794 5.21768 0
M  V30 7684 N 735.911 3.00485 6.24244 0
M  V30 7685 N 737.704 2.27982 5.13791 0
M  V30 7686 H 729.855 1.67511 1.3059 0
M  V30 7687 H 732.118 0.707579 0.630901 0
M  V30 7688 H 731.824 2.19398 2.74877 0
M  V30 7689 H 731.698 0.725793 3.70151 0
M  V30 7690 H 734.085 0.0785564 2.94995 0
M  V30 7691 H 734.166 1.57768 2.01353 0
M  V30 7692 H 733.81 2.91219 4.16118 0
M  V30 7693 H 733.74 1.38746 5.07993 0
M  V30 7694 H 736.231 1.3793 3.51829 0
M  V30 7695 H 736.544 3.39355 6.94304 0
M  V30 7696 H 734.889 3.04567 6.24711 0
M  V30 7697 H 738.08 1.78669 4.3266 0
M  V30 7698 H 738.253 2.70499 5.88841 0
M  V30 7699 N 731.66 -1.50943 0.453197 0
M  V30 7700 C 732.906 -2.03153 -0.100277 0
M  V30 7701 C 733.261 -1.33032 -1.38997 0
M  V30 7702 O 732.554 -0.441423 -1.86446 0
M  V30 7703 C 732.748 -3.55603 -0.357944 0
M  V30 7704 C 732.577 -4.40495 0.905223 0
M  V30 7705 C 731.347 -4.84247 1.44337 0
M  V30 7706 C 733.545 -4.81931 1.79575 0
M  V30 7707 N 731.527 -5.53403 2.65742 0
M  V30 7708 C 732.898 -5.50314 2.85577 0
M  V30 7709 C 734.953 -4.63903 1.80828 0
M  V30 7710 C 733.656 -6.02581 3.92797 0
M  V30 7711 C 735.682 -5.17097 2.86993 0
M  V30 7712 C 735.044 -5.8544 3.91713 0
M  V30 7713 H 731.143 -0.781995 0.00287755 0
M  V30 7714 H 733.727 -1.84651 0.617411 0
M  V30 7715 H 731.898 -3.74087 -1.04467 0
M  V30 7716 H 733.63 -3.9447 -0.904175 0
M  V30 7717 H 730.385 -4.63029 0.995045 0
M  V30 7718 H 730.809 -5.92598 3.27348 0
M  V30 7719 H 735.451 -4.10512 1.0119 0
M  V30 7720 H 733.169 -6.55018 4.73262 0
M  V30 7721 H 736.755 -5.0499 2.88923 0
M  V30 7722 H 735.635 -6.25861 4.72512 0
M  V30 7723 N 733.138 -0.185124 -1.56509 0
M  V30 7724 C 734.048 0.751908 -2.22224 0
M  V30 7725 C 735.064 1.24244 -1.21817 0
M  V30 7726 O 736.24 1.29169 -1.54523 0
M  V30 7727 C 733.305 1.95837 -2.86092 0
M  V30 7728 C 732.366 1.51337 -4.01741 0
M  V30 7729 C 731.599 2.66233 -4.62554 0
M  V30 7730 O 731.822 3.8346 -4.22273 0
M  V30 7731 O 730.756 2.39517 -5.52191 0
M  V30 7732 H 734.582 0.222304 -3.02885 0
M  V30 7733 H 732.167 0.0437141 -1.49336 0
M  V30 7734 H 734.049 2.66368 -3.26536 0
M  V30 7735 H 732.724 2.47677 -2.08417 0
M  V30 7736 H 731.631 0.777155 -3.65939 0
M  V30 7737 H 732.964 1.04175 -4.81049 0
M  V30 7738 N 734.616 1.57351 0.0885366 0
M  V30 7739 C 735.526 2.05858 1.12516 0
M  V30 7740 C 736.542 0.984758 1.43452 0
M  V30 7741 O 737.718 1.29836 1.53963 0
M  V30 7742 C 734.783 2.47882 2.42395 0
M  V30 7743 C 733.844 3.69487 2.18582 0
M  V30 7744 C 733.077 4.09497 3.42268 0
M  V30 7745 O 733.3 3.49536 4.50755 0
M  V30 7746 O 732.234 5.02406 3.31469 0
M  V30 7747 H 736.06 2.94467 0.743146 0
M  V30 7748 H 733.645 1.46326 0.301507 0
M  V30 7749 H 735.527 2.75509 3.18862 0
M  V30 7750 H 734.202 1.62408 2.8001 0
M  V30 7751 H 733.109 3.46967 1.39875 0
M  V30 7752 H 734.442 4.55761 1.85857 0
M  V30 7753 N 736.094 -0.359525 1.53444 0
M  V30 7754 C 737.024 -1.44662 1.8329 0
M  V30 7755 C 738.005 -1.55617 0.68683 0
M  V30 7756 O 739.19 -1.70086 0.93725 0
M  V30 7757 C 736.32 -2.81923 2.02822 0
M  V30 7758 C 735.274 -2.85787 3.18606 0
M  V30 7759 C 734.6 -4.25781 3.23442 0
M  V30 7760 C 735.9 -2.52762 4.57065 0
M  V30 7761 H 737.594 -1.19934 2.74329 0
M  V30 7762 H 735.14 -0.575517 1.31999 0
M  V30 7763 H 737.093 -3.58005 2.22285 0
M  V30 7764 H 735.817 -3.08051 1.085 0
M  V30 7765 H 734.476 -2.12157 2.98973 0
M  V30 7766 H 734.124 -4.48994 2.26745 0
M  V30 7767 H 733.824 -4.29281 4.01238 0
M  V30 7768 H 735.348 -5.03727 3.45096 0
M  V30 7769 H 736.762 -3.18557 4.76649 0
M  V30 7770 H 735.159 -2.67569 5.37147 0
M  V30 7771 H 736.229 -1.47993 4.61764 0
M  V30 7772 N 737.572 -1.44907 -0.619662 0
M  V30 7773 C 738.504 -1.48652 -1.74457 0
M  V30 7774 C 739.517 -0.378596 -1.58337 0
M  V30 7775 O 740.706 -0.644987 -1.6644 0
M  V30 7776 C 737.806 -1.31568 -3.12319 0
M  V30 7777 C 736.979 -2.55816 -3.54792 0
M  V30 7778 C 736.038 -2.33465 -4.71573 0
M  V30 7779 O 735.064 -3.07015 -4.79302 0
M  V30 7780 N 736.266 -1.37254 -5.6404 0
M  V30 7781 H 739.031 -2.45632 -1.71712 0
M  V30 7782 H 736.592 -1.40492 -0.804582 0
M  V30 7783 H 738.584 -1.14445 -3.88181 0
M  V30 7784 H 737.154 -0.429095 -3.09641 0
M  V30 7785 H 736.374 -2.88137 -2.69018 0
M  V30 7786 H 737.662 -3.38431 -3.79924 0
M  V30 7787 H 737.06 -0.765309 -5.60499 0
M  V30 7788 H 735.617 -1.26106 -6.39485 0
M  V30 7789 N 739.05 0.861098 -1.31996 0
M  V30 7790 C 740.297 1.61481 -1.22188 0
M  V30 7791 C 740.625 1.93276 0.217853 0
M  V30 7792 O 739.88 1.56942 1.16909 0
M  V30 7793 C 740.179 2.94822 -2.02027 0
M  V30 7794 C 739.845 2.82483 -3.51446 0
M  V30 7795 C 738.507 2.78825 -3.92186 0
M  V30 7796 C 740.859 2.68878 -4.46491 0
M  V30 7797 C 738.187 2.59433 -5.26224 0
M  V30 7798 C 740.539 2.51022 -5.80664 0
M  V30 7799 C 739.203 2.45753 -6.20614 0
M  V30 7800 H 738.473 0.590902 -0.447119 0
M  V30 7801 H 741.12 0.999376 -1.63355 0
M  V30 7802 H 739.425 3.6045 -1.53569 0
M  V30 7803 H 741.122 3.52149 -1.91812 0
M  V30 7804 H 737.712 2.86152 -3.19085 0
M  V30 7805 H 741.896 2.70754 -4.1594 0
M  V30 7806 H 737.152 2.53784 -5.5624 0
M  V30 7807 H 741.326 2.39473 -6.53931 0
M  V30 7808 H 738.953 2.30485 -7.24417 0
M  V30 7809 N 740.528 1.15101 1.07655 0
M  V30 7810 C 741.776 0.922149 1.79836 0
M  V30 7811 C 742.097 -0.552346 1.87014 0
M  V30 7812 O 741.367 -1.40145 1.3688 0
M  V30 7813 H 739.947 0.338182 0.666064 0
M  V30 7814 H 742.609 1.45107 1.30115 0
M  V30 7815 H 741.705 1.32883 2.82398 0
M  V30 7816 N 742.006 -1.2595 0.947325 0
M  V30 7817 C 742.954 -2.28152 0.452687 0
M  V30 7818 C 743.948 -1.62655 -0.473239 0
M  V30 7819 O 745.154 -1.76549 -0.350774 0
M  V30 7820 H 741.529 -0.741049 0.12787 0
M  V30 7821 H 743.5 -2.67267 1.32707 0
M  V30 7822 C 742.249 -3.46719 -0.26098 0
M  V30 7823 H 741.572 -3.97345 0.442352 0
M  V30 7824 H 743.012 -4.20135 -0.571208 0
M  V30 7825 C 741.471 -3.02605 -1.48094 0
M  V30 7826 O 742.001 -3.07979 -2.57899 0
M  V30 7827 N 740.207 -2.57877 -1.33969 0
M  V30 7828 H 739.754 -2.53704 -0.446295 0
M  V30 7829 H 739.712 -2.28725 -2.15713 0
M  V30 7830 N 743.484 -0.715051 -1.40445 0
M  V30 7831 C 744.709 -0.26254 -2.05732 0
M  V30 7832 C 745.134 1.08691 -1.53519 0
M  V30 7833 O 744.492 1.68453 -0.670328 0
M  V30 7834 C 744.54 -0.25195 -3.59719 0
M  V30 7835 O 743.644 0.766998 -4.05205 0
M  V30 7836 H 742.985 -0.123398 -0.652433 0
M  V30 7837 H 745.515 -0.975382 -1.79854 0
M  V30 7838 H 745.525 -0.0894537 -4.07902 0
M  V30 7839 H 744.2 -1.23672 -3.97087 0
M  V30 7840 H 742.777 0.572269 -3.68483 0
M  V30 7841 N 744.962 1.50701 -0.461195 0
M  V30 7842 C 745.872 2.32069 0.343661 0
M  V30 7843 C 746.888 1.42016 1.00535 0
M  V30 7844 O 748.064 1.75077 0.995498 0
M  V30 7845 C 745.129 3.16424 1.41692 0
M  V30 7846 C 744.19 4.22286 0.772869 0
M  V30 7847 C 743.423 5.02609 1.79499 0
M  V30 7848 O 743.646 4.83874 3.0203 0
M  V30 7849 O 742.58 5.86047 1.3723 0
M  V30 7850 H 746.406 3.01996 -0.321268 0
M  V30 7851 H 743.991 1.47723 -0.223235 0
M  V30 7852 H 745.873 3.68795 2.03883 0
M  V30 7853 H 744.548 2.49236 2.0655 0
M  V30 7854 H 743.455 3.73931 0.112277 0
M  V30 7855 H 744.788 4.91915 0.167399 0
M  V30 7856 N 746.441 0.193421 1.56409 0
M  V30 7857 C 747.857 -0.162447 1.58771 0
M  V30 7858 C 748.057 -1.6116 1.20954 0
M  V30 7859 O 747.113 -2.3469 0.931497 0
M  V30 7860 C 748.426 0.138391 3.00381 0
M  V30 7861 C 749.974 0.0783649 3.12902 0
M  V30 7862 C 750.449 0.352491 4.56642 0
M  V30 7863 N 751.94 0.30105 4.62221 0
M  V30 7864 C 752.675 0.487028 5.71328 0
M  V30 7865 N 752.171 0.733265 6.88909 0
M  V30 7866 N 753.964 0.4214 5.60518 0
M  V30 7867 H 746.115 1.13909 1.79272 0
M  V30 7868 H 748.378 0.454528 0.83193 0
M  V30 7869 H 748.084 1.14312 3.32604 0
M  V30 7870 H 747.958 -0.559804 3.73023 0
M  V30 7871 H 750.345 -0.916963 2.80492 0
M  V30 7872 H 750.426 0.809611 2.4265 0
M  V30 7873 H 750.07 1.34513 4.89764 0
M  V30 7874 H 750 -0.399624 5.25081 0
M  V30 7875 H 752.491 0.117279 3.77718 0
M  V30 7876 H 752.804 0.86403 7.67955 0
M  V30 7877 H 751.149 0.770138 6.9072 0
M  V30 7878 H 754.34 0.229461 4.67537 0
M  V30 7879 H 754.513 0.569758 6.4549 0
M  V30 7880 N 747.919 -1.57396 -0.0801906 0
M  V30 7881 C 749.149 -1.90778 -0.792924 0
M  V30 7882 C 749.557 -0.786814 -1.72064 0
M  V30 7883 O 748.9 0.249259 -1.82001 0
M  V30 7884 C 748.962 -3.19552 -1.64702 0
M  V30 7885 C 748.626 -4.48259 -0.889567 0
M  V30 7886 C 749.623 -5.19465 -0.212602 0
M  V30 7887 C 747.308 -4.94896 -0.859229 0
M  V30 7888 C 749.302 -6.35555 0.484566 0
M  V30 7889 C 746.989 -6.10895 -0.158284 0
M  V30 7890 C 747.987 -6.81075 0.512421 0
M  V30 7891 O 747.675 -7.94862 1.20209 0
M  V30 7892 H 747.407 -0.63527 -0.231103 0
M  V30 7893 H 749.961 -2.0532 -0.0573081 0
M  V30 7894 H 748.191 -3.01196 -2.42524 0
M  V30 7895 H 749.88 -3.38649 -2.23767 0
M  V30 7896 H 750.646 -4.84467 -0.227403 0
M  V30 7897 H 746.525 -4.4015 -1.37073 0
M  V30 7898 H 750.069 -6.9027 1.00864 0
M  V30 7899 H 745.966 -6.45345 -0.141381 0
M  V30 7900 H 746.734 -8.10932 1.11051 0
M  V30 7901 N 749.397 0.351382 -1.53633 0
M  V30 7902 C 750.347 1.4316 -1.77452 0
M  V30 7903 C 751.331 1.48076 -0.62946 0
M  V30 7904 O 752.523 1.53078 -0.888599 0
M  V30 7905 C 749.652 2.80409 -1.98055 0
M  V30 7906 C 748.738 2.79915 -3.18604 0
M  V30 7907 N 749.129 2.49057 -4.40232 0
M  V30 7908 C 747.427 3.11067 -3.19614 0
M  V30 7909 C 748.128 2.566 -5.22045 0
M  V30 7910 N 747.104 2.919 -4.5858 0
M  V30 7911 H 750.906 1.18188 -2.69089 0
M  V30 7912 H 748.42 0.559684 -1.52451 0
M  V30 7913 H 750.417 3.58231 -2.13251 0
M  V30 7914 H 749.077 3.06334 -1.07655 0
M  V30 7915 H 750.088 2.22395 -4.67719 0
M  V30 7916 H 746.765 3.42215 -2.39154 0
M  V30 7917 H 748.155 2.35968 -6.29101 0
M  V30 7918 N 750.875 1.45233 0.611969 0
M  V30 7919 C 751.822 1.5357 1.72293 0
M  V30 7920 C 752.792 0.381912 1.6165 0
M  V30 7921 O 753.977 0.594765 1.81293 0
M  V30 7922 C 751.117 1.50419 3.10593 0
M  V30 7923 C 750.23 2.76316 3.32074 0
M  V30 7924 C 749.365 2.64866 4.60456 0
M  V30 7925 C 748.404 3.85838 4.7518 0
M  V30 7926 N 747.541 3.72949 5.94856 0
M  V30 7927 H 752.381 2.4848 1.64504 0
M  V30 7928 H 749.918 1.23302 0.802191 0
M  V30 7929 H 751.876 1.4658 3.90602 0
M  V30 7930 H 750.506 0.590621 3.17351 0
M  V30 7931 H 749.558 2.90261 2.45872 0
M  V30 7932 H 750.87 3.66055 3.38829 0
M  V30 7933 H 750.024 2.58969 5.48653 0
M  V30 7934 H 748.763 1.72719 4.56092 0
M  V30 7935 H 747.768 3.92099 3.85407 0
M  V30 7936 H 748.993 4.79045 4.81344 0
M  V30 7937 H 746.939 2.83567 5.91545 0
M  V30 7938 H 746.856 4.56319 6.02751 0
M  V30 7939 H 748.124 3.70976 6.85563 0
M  V30 7940 N 752.353 -0.854086 1.3245 0
M  V30 7941 C 753.601 -1.60513 1.228 0
M  V30 7942 C 753.922 -1.93865 -0.210073 0
M  V30 7943 O 753.192 -1.59673 -1.13496 0
M  V30 7944 H 751.772 -0.595099 0.451516 0
M  V30 7945 H 754.434 -1.0216 1.6598 0
M  V30 7946 H 753.53 -2.54182 1.81102 0
M  V30 7947 N 753.831 -1.1567 -1.07043 0
M  V30 7948 C 754.794 -0.858906 -2.12498 0
M  V30 7949 C 755.794 0.142735 -1.60165 0
M  V30 7950 O 756.984 -0.0872678 -1.73981 0
M  V30 7951 C 754.116 -0.283021 -3.39723 0
M  V30 7952 H 755.309 -1.79368 -2.40348 0
M  V30 7953 H 752.862 -0.964608 -1.22984 0
M  V30 7954 H 753.597 0.659796 -3.17517 0
M  V30 7955 H 753.382 -1.00467 -3.7901 0
M  V30 7956 H 754.872 -0.0923543 -4.17498 0
M  V30 7957 N 755.309 1.25446 -0.953992 0
M  V30 7958 C 756.557 1.92762 -0.607227 0
M  V30 7959 C 756.878 1.7509 0.858399 0
M  V30 7960 O 756.148 1.11416 1.61132 0
M  V30 7961 H 754.728 0.713377 -0.221591 0
M  V30 7962 H 757.39 1.52625 -1.21209 0
M  V30 7963 H 756.486 3.00695 -0.835998 0
M  V30 7964 N 756.787 0.722489 1.40064 0
M  V30 7965 C 758.012 0.273446 2.05589 0
M  V30 7966 C 758.437 -1.07875 1.54093 0
M  V30 7967 O 757.795 -1.68095 0.679252 0
M  V30 7968 C 757.843 0.271023 3.5958 0
M  V30 7969 O 756.947 -0.745499 4.05606 0
M  V30 7970 H 756.288 0.126856 0.65177 0
M  V30 7971 H 758.818 0.984906 1.79334 0
M  V30 7972 H 758.828 0.111084 4.07849 0
M  V30 7973 H 757.503 1.25776 3.96425 0
M  V30 7974 H 756.08 -0.552719 3.68781 0
M  V30 7975 N 758.265 -1.50454 0.469181 0
M  V30 7976 C 759.681 -1.59124 0.123226 0
M  V30 7977 C 759.881 -1.47749 -1.37013 0
M  V30 7978 O 758.937 -1.335 -2.14322 0
M  V30 7979 C 760.25 -2.93101 0.67172 0
M  V30 7980 C 761.798 -3.06491 0.634978 0
M  V30 7981 C 762.273 -4.43041 1.16098 0
M  V30 7982 N 763.764 -4.49448 1.12031 0
M  V30 7983 C 764.499 -5.53491 1.49784 0
M  V30 7984 N 763.995 -6.64798 1.94976 0
M  V30 7985 N 765.788 -5.44025 1.41399 0
M  V30 7986 H 757.939 -1.56091 1.44046 0
M  V30 7987 H 760.202 -0.737564 0.59557 0
M  V30 7988 H 759.908 -3.06895 1.7178 0
M  V30 7989 H 759.782 -3.77027 0.114222 0
M  V30 7990 H 762.169 -2.92346 -0.402187 0
M  V30 7991 H 762.25 -2.24328 1.22926 0
M  V30 7992 H 761.894 -4.57935 2.19677 0
M  V30 7993 H 761.824 -5.23794 0.542939 0
M  V30 7994 H 764.315 -3.69575 0.788828 0
M  V30 7995 H 764.628 -7.40246 2.21936 0
M  V30 7996 H 762.973 -6.65923 1.98927 0
M  V30 7997 H 766.164 -4.55955 1.05935 0
M  V30 7998 H 766.337 -6.2499 1.71147 0
M  V30 7999 N 759.743 -0.201713 -1.56304 0
M  V30 8000 C 760.673 0.71155 -2.22394 0
M  V30 8001 C 761.654 1.21625 -1.18917 0
M  V30 8002 O 762.839 1.26388 -1.47444 0
M  V30 8003 C 759.969 1.92837 -2.88845 0
M  V30 8004 C 758.923 1.55831 -3.98623 0
M  V30 8005 C 758.249 2.85228 -4.52271 0
M  V30 8006 C 759.549 0.763249 -5.16693 0
M  V30 8007 H 761.243 0.160573 -2.98969 0
M  V30 8008 H 758.789 0.0757916 -1.438 0
M  V30 8009 H 760.742 2.57253 -3.33764 0
M  V30 8010 H 759.466 2.50398 -2.09686 0
M  V30 8011 H 758.125 0.9377 -3.54405 0
M  V30 8012 H 757.773 3.40893 -3.69866 0
M  V30 8013 H 757.473 2.6121 -5.26349 0
M  V30 8014 H 758.997 3.50622 -4.99897 0
M  V30 8015 H 760.411 1.31066 -5.58117 0
M  V30 8016 H 758.808 0.620935 -5.96879 0
M  V30 8017 H 759.878 -0.234322 -4.84334 0
M  V30 8018 N 761.222 1.57436 0.0718424 0
M  V30 8019 C 762.45 1.91474 0.783932 0
M  V30 8020 C 762.865 0.797669 1.71122 0
M  V30 8021 O 762.222 -0.228989 1.81058 0
M  V30 8022 C 762.273 3.25259 1.57761 0
M  V30 8023 O 761.994 4.3267 0.687596 0
M  V30 8024 C 763.495 3.7331 2.3907 0
M  V30 8025 H 760.715 0.632901 0.222885 0
M  V30 8026 H 763.259 2.04457 0.0421262 0
M  V30 8027 H 761.414 3.13804 2.27169 0
M  V30 8028 H 761.828 5.09641 1.23962 0
M  V30 8029 H 763.302 4.69551 2.90216 0
M  V30 8030 H 763.779 3.02318 3.18591 0
M  V30 8031 H 764.385 3.8771 1.74818 0
M  V30 8032 N 762.7 -0.34323 1.53817 0
M  V30 8033 C 763.63 -1.42709 1.84814 0
M  V30 8034 C 764.611 -1.5488 0.703297 0
M  V30 8035 O 765.796 -1.69082 0.955237 0
M  V30 8036 C 762.926 -2.79756 2.05801 0
M  V30 8037 C 761.88 -2.82392 3.21619 0
M  V30 8038 C 761.206 -4.22326 3.2794 0
M  V30 8039 C 762.506 -2.479 4.59721 0
M  V30 8040 H 764.2 -1.17018 2.75585 0
M  V30 8041 H 761.746 -0.561485 1.32602 0
M  V30 8042 H 763.699 -3.55627 2.26069 0
M  V30 8043 H 762.423 -3.06883 1.11761 0
M  V30 8044 H 761.082 -2.08974 3.01207 0
M  V30 8045 H 760.73 -4.46564 2.31494 0
M  V30 8046 H 760.43 -4.25001 4.05768 0
M  V30 8047 H 761.954 -5.00039 3.50419 0
M  V30 8048 H 763.368 -3.13484 4.80001 0
M  V30 8049 H 761.765 -2.61857 5.39954 0
M  V30 8050 H 762.835 -1.43087 4.63308 0
M  V30 8051 N 764.178 -1.45556 -0.604258 0
M  V30 8052 C 765.403 -1.53509 -1.39462 0
M  V30 8053 C 765.828 -0.169638 -1.87333 0
M  V30 8054 O 765.186 0.846346 -1.60333 0
M  V30 8055 C 765.234 -2.52654 -2.5729 0
M  V30 8056 O 764.338 -2.04666 -3.5803 0
M  V30 8057 H 763.679 -0.517355 -0.416221 0
M  V30 8058 H 766.209 -1.90939 -0.735072 0
M  V30 8059 H 766.219 -2.71568 -3.04491 0
M  V30 8060 H 764.894 -3.51823 -2.21797 0
M  V30 8061 H 763.471 -1.95643 -3.17456 0
M  V30 8062 N 765.656 0.84705 -1.32902 0
M  V30 8063 C 766.586 1.97166 -1.25091 0
M  V30 8064 C 767.567 1.69578 -0.133161 0
M  V30 8065 O 768.752 1.91519 -0.321591 0
M  V30 8066 C 765.882 3.33157 -0.981006 0
M  V30 8067 C 764.836 3.75119 -2.06082 0
M  V30 8068 C 764.162 5.08826 -1.64318 0
M  V30 8069 C 765.462 3.89774 -3.47669 0
M  V30 8070 H 767.156 2.03958 -2.19184 0
M  V30 8071 H 764.702 0.979907 -1.05517 0
M  V30 8072 H 766.655 4.11393 -0.912891 0
M  V30 8073 H 765.379 3.266 -0.00445559 0
M  V30 8074 H 764.038 2.9914 -2.11921 0
M  V30 8075 H 763.686 4.98732 -0.653876 0
M  V30 8076 H 763.386 5.37873 -2.36572 0
M  V30 8077 H 764.91 5.89546 -1.58958 0
M  V30 8078 H 766.324 4.58343 -3.44376 0
M  V30 8079 H 764.721 4.30248 -4.18338 0
M  V30 8080 H 765.791 2.92463 -3.86773 0
M  V30 8081 N 767.134 1.16236 1.06428 0
M  V30 8082 C 768.55 0.906983 1.31324 0
M  V30 8083 C 768.75 -0.440872 1.96618 0
M  V30 8084 O 767.806 -1.1807 2.23194 0
M  V30 8085 C 769.119 2.05501 2.19522 0
M  V30 8086 C 770.667 2.09061 2.32943 0
M  V30 8087 C 771.142 3.23214 3.24495 0
M  V30 8088 N 772.633 3.22922 3.32078 0
M  V30 8089 C 773.368 4.07889 4.03006 0
M  V30 8090 N 772.864 5.02941 4.76469 0
M  V30 8091 N 774.657 3.95881 3.99043 0
M  V30 8092 H 766.808 2.03015 0.624388 0
M  V30 8093 H 769.071 0.88576 0.337835 0
M  V30 8094 H 768.777 3.02847 1.78819 0
M  V30 8095 H 768.651 1.99538 3.201 0
M  V30 8096 H 771.038 1.12308 2.72893 0
M  V30 8097 H 771.119 2.19089 1.32037 0
M  V30 8098 H 770.763 4.20225 2.85261 0
M  V30 8099 H 770.693 3.10423 4.25377 0
M  V30 8100 H 773.184 2.54093 2.79724 0
M  V30 8101 H 773.497 5.64196 5.28112 0
M  V30 8102 H 771.842 5.06922 4.75453 0
M  V30 8103 H 775.033 3.20927 3.40769 0
M  V30 8104 H 775.206 4.62321 4.54052 0
M  V30 8105 N 768.612 -1.24939 0.960631 0
M  V30 8106 C 769.86 -1.92437 0.617441 0
M  V30 8107 C 770.181 -1.75543 -0.849101 0
M  V30 8108 O 769.451 -1.12269 -1.60538 0
M  V30 8109 H 768.031 -0.712192 0.225371 0
M  V30 8110 H 770.693 -1.5198 1.22017 0
M  V30 8111 H 769.789 -3.00247 0.851933 0
M  V30 8112 N 770.09 -0.729906 -1.39679 0
M  V30 8113 C 771.315 -0.284345 -2.05442 0
M  V30 8114 C 771.74 1.07056 -1.54663 0
M  V30 8115 O 771.098 1.67732 -0.688157 0
M  V30 8116 C 771.146 -0.290089 -3.59431 0
M  V30 8117 O 770.25 0.723978 -4.05995 0
M  V30 8118 H 769.591 -0.130311 -0.651088 0
M  V30 8119 H 772.121 -0.994403 -1.78809 0
M  V30 8120 H 772.131 -0.132712 -4.07784 0
M  V30 8121 H 770.806 -1.27877 -3.95753 0
M  V30 8122 H 769.383 0.533154 -3.69069 0
M  V30 8123 N 771.568 1.50203 -0.477153 0
M  V30 8124 C 772.793 2.07263 0.0754986 0
M  V30 8125 C 773.218 1.33801 1.32208 0
M  V30 8126 O 772.576 0.387482 1.77111 0
M  V30 8127 C 772.624 3.59028 0.336348 0
M  V30 8128 O 771.728 3.87339 1.4157 0
M  V30 8129 H 771.069 0.663815 -0.015662 0
M  V30 8130 H 773.599 1.93321 -0.669936 0
M  V30 8131 H 773.609 4.03927 0.575034 0
M  V30 8132 H 772.284 4.11912 -0.574551 0
M  V30 8133 H 770.861 3.54272 1.16385 0
M  V30 8134 N 773.046 0.209999 1.56195 0
M  V30 8135 C 774.276 -0.429373 2.02089 0
M  V30 8136 C 774.684 -1.54703 1.0892 0
M  V30 8137 O 774.027 -1.83485 0.0889535 0
M  V30 8138 C 774.089 -1.03266 3.44349 0
M  V30 8139 C 773.753 -0.0518873 4.56971 0
M  V30 8140 C 774.75 0.744249 5.14545 0
M  V30 8141 C 772.435 0.0635185 5.0226 0
M  V30 8142 C 774.429 1.64261 6.15871 0
M  V30 8143 C 772.116 0.965423 6.03426 0
M  V30 8144 C 773.114 1.75352 6.60106 0
M  V30 8145 O 772.802 2.64029 7.59305 0
M  V30 8146 H 772.534 -0.110604 0.66689 0
M  V30 8147 H 775.088 0.320436 2.02885 0
M  V30 8148 H 773.318 -1.83134 3.40586 0
M  V30 8149 H 775.007 -1.57823 3.73961 0
M  V30 8150 H 775.773 0.665476 4.80413 0
M  V30 8151 H 771.652 -0.539762 4.57829 0
M  V30 8152 H 775.196 2.25819 6.60039 0
M  V30 8153 H 771.093 1.04526 6.36981 0
M  V30 8154 H 771.861 2.57974 7.76783 0
M  V30 8155 N 774.524 -1.57472 -0.0634922 0
M  V30 8156 C 775.772 -1.87283 -0.759563 0
M  V30 8157 C 776.093 -0.803135 -1.77693 0
M  V30 8158 O 775.363 0.167293 -1.95184 0
M  V30 8159 H 773.943 -0.691106 -0.283516 0
M  V30 8160 H 776.605 -1.94864 -0.0376091 0
M  V30 8161 H 775.701 -2.85064 -1.27062 0
M  V30 8162 N 776.003 0.335068 -1.53997 0
M  V30 8163 C 777.228 1.09859 -1.75914 0
M  V30 8164 C 777.653 1.81308 -0.500915 0
M  V30 8165 O 777.011 1.72854 0.54693 0
M  V30 8166 C 777.059 2.08122 -2.94478 0
M  V30 8167 O 776.163 3.15805 -2.65219 0
M  V30 8168 H 775.504 0.317313 -0.583274 0
M  V30 8169 H 778.034 0.382872 -2.00986 0
M  V30 8170 H 778.044 2.51195 -3.21504 0
M  V30 8171 H 776.719 1.55517 -3.8573 0
M  V30 8172 H 775.296 2.77489 -2.49107 0
M  V30 8173 N 777.481 1.45874 0.596531 0
M  V30 8174 C 778.411 1.5824 1.71705 0
M  V30 8175 C 779.392 0.433366 1.64487 0
M  V30 8176 O 780.577 0.657895 1.82717 0
M  V30 8177 C 777.707 1.55927 3.10329 0
M  V30 8178 C 776.661 2.69659 3.32367 0
M  V30 8179 C 775.987 2.52403 4.71377 0
M  V30 8180 C 777.287 4.11591 3.21544 0
M  V30 8181 H 778.981 2.52035 1.61613 0
M  V30 8182 H 776.527 1.21297 0.776082 0
M  V30 8183 H 778.48 1.63173 3.88526 0
M  V30 8184 H 777.204 0.586674 3.21288 0
M  V30 8185 H 775.863 2.61859 2.56564 0
M  V30 8186 H 775.511 1.53258 4.79083 0
M  V30 8187 H 775.211 3.28679 4.87077 0
M  V30 8188 H 776.735 2.6152 5.5176 0
M  V30 8189 H 778.149 4.20576 3.89601 0
M  V30 8190 H 776.546 4.88344 3.4877 0
M  V30 8191 H 777.616 4.32719 2.1882 0
M  V30 8192 N 778.959 -0.83999 1.33349 0
M  V30 8193 C 779.892 -1.95415 1.17848 0
M  V30 8194 C 780.87 -1.6243 0.0742296 0
M  V30 8195 O 782.054 -1.87014 0.23626 0
M  V30 8196 C 779.181 -3.28938 0.807295 0
M  V30 8197 C 778.227 -3.80895 1.91888 0
M  V30 8198 S 779.06 -4.02709 3.52967 0
M  V30 8199 C 780.216 -5.39185 3.17853 0
M  V30 8200 H 780.449 -2.08265 2.12162 0
M  V30 8201 H 777.982 -0.993643 1.18178 0
M  V30 8202 H 779.94 -4.06093 0.599914 0
M  V30 8203 H 778.601 -3.13881 -0.117234 0
M  V30 8204 H 777.794 -4.77508 1.6125 0
M  V30 8205 H 777.396 -3.10633 2.08286 0
M  V30 8206 H 779.688 -6.21978 2.68608 0
M  V30 8207 H 780.631 -5.74795 4.13542 0
M  V30 8208 H 781.039 -5.03885 2.5448 0
M  V30 8209 N 780.437 -1.16799 -1.0581 0
M  V30 8210 C 781.665 -0.97687 -1.82387 0
M  V30 8211 C 782.08 0.474917 -1.82729 0
M  V30 8212 O 781.437 1.3297 -1.25001 0
M  V30 8213 C 781.488 -1.50279 -3.28783 0
M  V30 8214 O 781.209 -2.89772 -3.28578 0
M  V30 8215 C 782.71 -1.35538 -4.22071 0
M  V30 8216 H 779.93 -0.345977 -0.574927 0
M  V30 8217 H 782.474 -1.54942 -1.33466 0
M  V30 8218 H 780.629 -0.972414 -3.74997 0
M  V30 8219 H 781.043 -3.13954 -4.20159 0
M  V30 8220 H 782.517 -1.7716 -5.22799 0
M  V30 8221 H 782.994 -0.301598 -4.38163 0
M  V30 8222 H 783.6 -1.87562 -3.81708 0
M  V30 8223 N 781.915 1.24427 -0.967243 0
M  V30 8224 C 782.878 2.23637 -0.501927 0
M  V30 8225 C 783.878 1.55712 0.401283 0
M  V30 8226 O 785.068 1.73085 0.196808 0
M  V30 8227 C 782.2 3.39804 0.273176 0
M  V30 8228 H 783.393 2.66317 -1.37897 0
M  V30 8229 H 780.946 1.37033 -0.751783 0
M  V30 8230 H 781.681 3.02562 1.16733 0
M  V30 8231 H 781.466 3.90303 -0.37498 0
M  V30 8232 H 782.956 4.13443 0.587776 0
M  V30 8233 N 783.393 0.737304 1.3929 0
M  V30 8234 C 784.343 0.0748537 2.27877 0
M  V30 8235 C 785.327 -0.71022 1.44377 0
M  V30 8236 O 786.519 -0.578851 1.67267 0
M  V30 8237 C 783.648 -0.82991 3.33118 0
M  V30 8238 C 782.734 -0.0388619 4.24082 0
M  V30 8239 N 783.125 0.989182 4.96033 0
M  V30 8240 C 781.423 -0.268167 4.45193 0
M  V30 8241 C 782.124 1.46639 5.62914 0
M  V30 8242 N 781.1 0.784581 5.37908 0
M  V30 8243 H 784.902 0.862457 2.80961 0
M  V30 8244 H 782.416 0.571845 1.51999 0
M  V30 8245 H 784.413 -1.31999 3.95452 0
M  V30 8246 H 783.073 -1.61665 2.81593 0
M  V30 8247 H 784.084 1.3706 4.99435 0
M  V30 8248 H 780.761 -1.02953 4.04607 0
M  V30 8249 H 782.151 2.32182 6.30508 0
M  V30 8250 N 784.871 -1.49948 0.485112 0
M  V30 8251 C 786.119 -2.01996 -0.0648775 0
M  V30 8252 C 786.44 -1.36819 -1.38945 0
M  V30 8253 O 785.71 -0.518163 -1.88923 0
M  V30 8254 H 784.29 -0.746513 -0.0269662 0
M  V30 8255 H 786.952 -1.84136 0.638733 0
M  V30 8256 H 786.048 -3.11418 -0.20617 0
M  V30 8257 N 786.349 -0.21828 -1.56081 0
M  V30 8258 C 787.296 0.693189 -2.20144 0
M  V30 8259 C 788.266 1.19274 -1.15598 0
M  V30 8260 O 789.451 1.25243 -1.4394 0
M  V30 8261 C 786.591 1.89715 -2.88275 0
M  V30 8262 C 785.704 1.4368 -4.07407 0
M  V30 8263 C 784.839 2.59807 -4.63329 0
M  V30 8264 C 783.878 2.10492 -5.74769 0
M  V30 8265 N 783.015 3.1988 -6.24997 0
M  V30 8266 H 787.855 0.14016 -2.9767 0
M  V30 8267 H 785.392 0.0574292 -1.46988 0
M  V30 8268 H 787.35 2.60398 -3.25958 0
M  V30 8269 H 785.98 2.42311 -2.13273 0
M  V30 8270 H 785.032 0.625007 -3.7523 0
M  V30 8271 H 786.344 1.03517 -4.8794 0
M  V30 8272 H 785.498 3.38577 -5.03438 0
M  V30 8273 H 784.237 3.03256 -3.81951 0
M  V30 8274 H 783.242 1.30182 -5.34165 0
M  V30 8275 H 784.467 1.68045 -6.5798 0
M  V30 8276 H 782.413 3.62817 -5.46534 0
M  V30 8277 H 782.33 2.83958 -7.00645 0
M  V30 8278 H 783.598 3.98796 -6.69763 0
M  V30 8279 N 787.827 1.57504 0.0551401 0
M  V30 8280 C 789.057 1.92015 0.762472 0
M  V30 8281 C 789.465 0.814088 1.7079 0
M  V30 8282 O 788.808 -0.220273 1.82375 0
M  V30 8283 C 788.87 3.22132 1.59598 0
M  V30 8284 C 788.534 4.49617 0.818141 0
M  V30 8285 C 789.531 5.19738 0.129933 0
M  V30 8286 C 787.216 4.96201 0.780387 0
M  V30 8287 C 789.21 6.34704 -0.585616 0
M  V30 8288 C 786.897 6.11069 0.0610756 0
M  V30 8289 C 787.895 6.80174 -0.62071 0
M  V30 8290 O 787.583 7.92849 -1.3284 0
M  V30 8291 H 787.315 0.638866 0.220967 0
M  V30 8292 H 789.869 2.05385 0.0246362 0
M  V30 8293 H 788.099 3.05016 2.37701 0
M  V30 8294 H 789.788 3.42166 2.18351 0
M  V30 8295 H 790.554 4.84767 0.150299 0
M  V30 8296 H 786.433 4.42275 1.30054 0
M  V30 8297 H 789.977 6.88578 -1.11833 0
M  V30 8298 H 785.874 6.45488 0.0386945 0
M  V30 8299 H 786.642 8.09062 -1.23938 0
M  V30 8300 N 789.305 -0.326896 1.54172 0
M  V30 8301 C 790.237 -1.42319 1.79661 0
M  V30 8302 C 791.25 -1.47989 0.678456 0
M  V30 8303 O 792.439 -1.50773 0.955503 0
M  V30 8304 C 789.539 -2.80876 1.89636 0
M  V30 8305 C 788.712 -2.98449 3.19761 0
M  V30 8306 C 787.771 -4.17347 3.2048 0
M  V30 8307 O 786.797 -4.10667 3.94134 0
M  V30 8308 N 787.999 -5.26717 2.44027 0
M  V30 8309 H 790.764 -1.20819 2.74268 0
M  V30 8310 H 788.325 -0.516866 1.53428 0
M  V30 8311 H 790.317 -3.58619 1.87549 0
M  V30 8312 H 788.887 -2.95442 1.02141 0
M  V30 8313 H 788.107 -2.08035 3.34836 0
M  V30 8314 H 789.395 -3.07083 4.05681 0
M  V30 8315 H 788.793 -5.35019 1.8377 0
M  V30 8316 H 787.35 -6.02891 2.47721 0
M  V30 8317 N 790.784 -1.46188 -0.588786 0
M  V30 8318 C 792.033 -1.50452 -1.34339 0
M  V30 8319 C 792.346 -0.158096 -1.9496 0
M  V30 8320 O 793.552 -0.0784918 -2.71387 0
M  V30 8321 C 792.008 -2.65074 -2.43441 0
M  V30 8322 C 791.616 -4.06111 -1.8915 0
M  V30 8323 C 793.36 -2.78603 -3.20282 0
M  V30 8324 C 791.267 -5.12084 -2.95845 0
M  V30 8325 H 790.197 -0.559905 -0.504997 0
M  V30 8326 H 792.848 -1.72382 -0.629014 0
M  V30 8327 H 791.23 -2.36462 -3.1765 0
M  V30 8328 H 792.404 -4.44487 -1.21524 0
M  V30 8329 H 790.719 -3.97197 -1.24995 0
M  V30 8330 H 793.316 -3.54944 -3.99898 0
M  V30 8331 H 793.659 -1.85902 -3.72486 0
M  V30 8332 H 794.192 -3.06832 -2.53178 0
M  V30 8333 H 790.931 -6.06556 -2.48535 0
M  V30 8334 H 790.451 -4.78259 -3.61979 0
M  V30 8335 H 792.13 -5.37661 -3.59902 0
M  V30 8336 N 792.262 0.832906 -1.33792 0
M  V30 8337 C 793.509 1.58853 -1.25586 0
M  V30 8338 C 793.837 1.93695 0.176807 0
M  V30 8339 O 793.092 1.59386 1.13554 0
M  V30 8340 C 793.391 2.9047 -2.08235 0
M  V30 8341 C 793.057 2.74965 -3.57358 0
M  V30 8342 C 791.719 2.70444 -3.98012 0
M  V30 8343 C 794.071 2.59347 -4.52093 0
M  V30 8344 C 791.399 2.48212 -5.31608 0
M  V30 8345 C 793.751 2.38649 -5.85858 0
M  V30 8346 C 792.415 2.32533 -6.25687 0
M  V30 8347 H 791.685 0.581285 -0.459553 0
M  V30 8348 H 794.332 0.964501 -1.65438 0
M  V30 8349 H 792.637 3.57111 -1.6118 0
M  V30 8350 H 794.334 3.48001 -1.99239 0
M  V30 8351 H 790.924 2.79319 -3.25083 0
M  V30 8352 H 795.108 2.6187 -4.2159 0
M  V30 8353 H 790.364 2.41929 -5.61498 0
M  V30 8354 H 794.538 2.25549 -6.58863 0
M  V30 8355 H 792.165 2.15067 -7.29143 0
M  V30 8356 N 793.74 1.17359 1.05189 0
M  V30 8357 C 794.703 0.892604 2.11105 0
M  V30 8358 C 795.703 -0.117236 1.60372 0
M  V30 8359 O 796.893 0.114936 1.7382 0
M  V30 8360 C 794.025 0.337032 3.3923 0
M  V30 8361 H 795.218 1.83169 2.37464 0
M  V30 8362 H 792.771 0.984051 1.21434 0
M  V30 8363 H 793.506 -0.609198 3.18527 0
M  V30 8364 H 793.291 1.06484 3.77364 0
M  V30 8365 H 794.781 0.158763 4.17298 0
M  V30 8366 N 795.218 -1.23913 0.973828 0
M  V30 8367 C 796.166 -2.27141 0.50098 0
M  V30 8368 C 797.16 -1.63623 -0.438631 0
M  V30 8369 O 798.366 -1.77253 -0.313247 0
M  V30 8370 H 794.741 -0.73817 0.14356 0
M  V30 8371 H 796.712 -2.64392 1.38346 0
M  V30 8372 C 795.461 -3.47195 -0.187377 0
M  V30 8373 H 794.784 -3.96318 0.526535 0
M  V30 8374 H 796.224 -4.21252 -0.481962 0
M  V30 8375 C 794.683 -3.05678 -1.41642 0
M  V30 8376 O 795.213 -3.1338 -2.51309 0
M  V30 8377 N 793.419 -2.60661 -1.28469 0
M  V30 8378 H 792.966 -2.54594 -0.39238 0
M  V30 8379 H 792.924 -2.33249 -2.10813 0
M  V30 8380 N 796.696 -0.74468 -1.38897 0
M  V30 8381 C 797.924 -0.307428 -2.04603 0
M  V30 8382 C 798.339 1.06115 -1.56157 0
M  V30 8383 O 797.696 1.67233 -0.730701 0
M  V30 8384 C 797.747 -0.31101 -3.6016 0
M  V30 8385 O 797.468 -1.62557 -4.06825 0
M  V30 8386 C 798.969 0.141213 -4.43075 0
M  V30 8387 H 796.189 -0.132741 -0.657739 0
M  V30 8388 H 798.733 -1.01104 -1.77759 0
M  V30 8389 H 796.888 0.343792 -3.85872 0
M  V30 8390 H 797.302 -1.54569 -5.01207 0
M  V30 8391 H 798.776 0.0875449 -5.51931 0
M  V30 8392 H 799.253 1.18782 -4.22833 0
M  V30 8393 H 799.859 -0.484383 -4.22533 0
M  V30 8394 N 798.174 1.49689 -0.493057 0
M  V30 8395 C 799.422 2.02027 0.0541642 0
M  V30 8396 C 799.743 1.37554 1.38217 0
M  V30 8397 O 799.013 0.528174 1.88646 0
M  V30 8398 H 797.593 0.746646 0.0230069 0
M  V30 8399 H 800.255 1.83795 -0.648489 0
M  V30 8400 H 799.351 3.11523 0.189652 0
M  V30 8401 N 799.652 0.226554 1.55963 0
M  V30 8402 C 800.602 -0.694986 2.1715 0
M  V30 8403 C 801.586 -1.15394 1.12129 0
M  V30 8404 O 802.778 -1.1071 1.38102 0
M  V30 8405 C 799.907 -1.9007 2.85882 0
M  V30 8406 C 798.993 -1.46119 3.98133 0
M  V30 8407 N 799.384 -0.734584 5.00437 0
M  V30 8408 C 797.682 -1.74809 4.10314 0
M  V30 8409 C 798.383 -0.509773 5.79462 0
M  V30 8410 N 797.359 -1.06796 5.33006 0
M  V30 8411 H 801.161 -0.131469 2.93606 0
M  V30 8412 H 798.675 0.0280165 1.62376 0
M  V30 8413 H 800.672 -2.57169 3.28131 0
M  V30 8414 H 799.332 -2.46864 2.10923 0
M  V30 8415 H 800.343 -0.386757 5.16454 0
M  V30 8416 H 797.02 -2.32887 3.46511 0
M  V30 8417 H 798.41 0.0688847 6.71865 0
M  V30 8418 N 801.13 -1.57531 -0.0467866 0
M  V30 8419 C 802.377 -1.88451 -0.74112 0
M  V30 8420 C 802.705 -0.821592 -1.76296 0
M  V30 8421 O 801.96 0.179585 -1.94874 0
M  V30 8422 C 802.259 -3.26091 -1.46285 0
M  V30 8423 C 801.925 -4.47171 -0.578669 0
M  V30 8424 C 800.587 -4.80032 -0.335083 0
M  V30 8425 C 802.939 -5.2119 0.0328809 0
M  V30 8426 C 800.267 -5.84309 0.529121 0
M  V30 8427 C 802.619 -6.26383 0.884684 0
M  V30 8428 C 801.283 -6.57729 1.1379 0
M  V30 8429 H 800.553 -0.68959 -0.271195 0
M  V30 8430 H 803.2 -1.915 -0.00132378 0
M  V30 8431 H 801.505 -3.18948 -2.27551 0
M  V30 8432 H 803.202 -3.47258 -2.00532 0
M  V30 8433 H 799.792 -4.21467 -0.778666 0
M  V30 8434 H 803.976 -4.96096 -0.142375 0
M  V30 8435 H 799.232 -6.06981 0.733794 0
M  V30 8436 H 803.406 -6.82888 1.36516 0
M  V30 8437 H 801.033 -7.38355 1.80929 0
M  V30 8438 N 802.608 0.318715 -1.54344 0
M  V30 8439 C 803.555 1.39242 -1.84066 0
M  V30 8440 C 804.525 1.51175 -0.688134 0
M  V30 8441 O 805.71 1.66318 -0.935039 0
M  V30 8442 C 802.85 2.75528 -2.07794 0
M  V30 8443 C 801.963 2.72187 -3.35467 0
M  V30 8444 C 801.098 4.00352 -3.4913 0
M  V30 8445 C 800.137 3.91338 -4.7066 0
M  V30 8446 N 799.274 5.11242 -4.81224 0
M  V30 8447 H 804.114 1.13196 -2.75664 0
M  V30 8448 H 801.651 0.547857 -1.36517 0
M  V30 8449 H 803.609 3.54763 -2.19543 0
M  V30 8450 H 802.239 2.99873 -1.19482 0
M  V30 8451 H 801.291 1.84917 -3.3243 0
M  V30 8452 H 802.603 2.61411 -4.24812 0
M  V30 8453 H 801.757 4.88019 -3.60448 0
M  V30 8454 H 800.496 4.1394 -2.57886 0
M  V30 8455 H 799.501 3.02055 -4.59394 0
M  V30 8456 H 800.726 3.7931 -5.63294 0
M  V30 8457 H 798.672 5.25327 -3.92897 0
M  V30 8458 H 798.589 5.0282 -5.64543 0
M  V30 8459 H 799.857 6.0061 -4.96879 0
M  V30 8460 N 804.086 1.46499 0.581025 0
M  V30 8461 C 805.334 1.51596 1.33653 0
M  V30 8462 C 805.655 0.169859 1.94259 0
M  V30 8463 O 804.925 -0.803776 1.78651 0
M  V30 8464 H 803.505 0.558346 0.496244 0
M  V30 8465 H 806.167 1.8264 0.680338 0
M  V30 8466 H 805.263 2.26956 2.14237 0
M  V30 8467 N 805.565 -0.825799 1.34232 0
M  V30 8468 C 806.513 -1.95792 1.25572 0
M  V30 8469 C 807.507 -1.68695 0.154404 0
M  V30 8470 O 808.713 -1.77147 0.319196 0
M  V30 8471 H 805.088 -0.642949 0.390027 0
M  V30 8472 H 807.059 -2.00219 2.21258 0
M  V30 8473 C 805.808 -3.32245 1.02511 0
M  V30 8474 H 805.131 -3.53642 1.86487 0
M  V30 8475 H 806.571 -4.1192 1.00487 0
M  V30 8476 C 805.03 -3.35803 -0.27167 0
M  V30 8477 O 805.56 -3.80962 -1.274 0
M  V30 8478 N 803.766 -2.89008 -0.303778 0
M  V30 8479 H 803.313 -2.52451 0.512464 0
M  V30 8480 H 803.271 -2.9177 -1.17121 0
M  V30 8481 N 807.043 -1.17915 -1.04565 0
M  V30 8482 C 808.289 -0.972863 -1.77942 0
M  V30 8483 C 808.622 0.496753 -1.87739 0
M  V30 8484 O 807.897 1.3688 -1.38181 0
M  V30 8485 C 808.18 -1.62227 -3.21488 0
M  V30 8486 C 808.033 -3.16441 -3.19664 0
M  V30 8487 C 809.352 -1.33137 -4.19479 0
M  V30 8488 H 806.471 -0.354843 -0.645953 0
M  V30 8489 H 809.113 -1.45508 -1.22178 0
M  V30 8490 H 807.263 -1.21224 -3.69103 0
M  V30 8491 H 808.935 -3.66544 -2.80077 0
M  V30 8492 H 807.178 -3.48863 -2.57832 0
M  V30 8493 H 807.849 -3.57012 -4.21006 0
M  V30 8494 H 810.325 -1.68654 -3.80388 0
M  V30 8495 H 809.201 -1.81151 -5.18146 0
M  V30 8496 H 809.462 -0.253319 -4.41374 0
M  V30 8497 N 808.521 1.23394 -0.980386 0
M  V30 8498 C 809.767 1.92094 -0.650223 0
M  V30 8499 C 810.1 1.76309 0.814173 0
M  V30 8500 O 809.375 1.12406 1.5873 0
M  V30 8501 C 809.658 3.44713 -1.04139 0
M  V30 8502 C 809.511 3.69606 -2.56342 0
M  V30 8503 C 810.83 4.36191 -0.585296 0
M  V30 8504 H 807.949 0.697618 -0.237695 0
M  V30 8505 H 810.591 1.45517 -1.22167 0
M  V30 8506 H 808.741 3.84513 -0.55515 0
M  V30 8507 H 810.413 3.39288 -3.1254 0
M  V30 8508 H 808.656 3.14318 -2.98976 0
M  V30 8509 H 809.327 4.76441 -2.78762 0
M  V30 8510 H 811.803 4.03836 -1.00276 0
M  V30 8511 H 810.679 5.41679 -0.887428 0
M  V30 8512 H 810.94 4.39097 0.51438 0
M  V30 8513 N 809.999 0.752036 1.385 0
M  V30 8514 C 810.962 0.131587 2.28822 0
M  V30 8515 C 811.962 -0.649149 1.47115 0
M  V30 8516 O 813.152 -0.475645 1.67581 0
M  V30 8517 C 810.284 -0.822101 3.30839 0
M  V30 8518 H 811.477 0.927551 2.85196 0
M  V30 8519 H 809.03 0.518945 1.47434 0
M  V30 8520 H 809.765 -1.6438 2.79553 0
M  V30 8521 H 809.55 -0.264689 3.91206 0
M  V30 8522 H 811.04 -1.25226 3.98382 0
M  V30 8523 N 811.477 -1.49425 0.500989 0
M  V30 8524 C 812.726 -2.01649 -0.04538 0
M  V30 8525 C 813.039 -1.38572 -1.38047 0
M  V30 8526 O 814.245 -1.82124 -2.01353 0
M  V30 8527 C 812.701 -3.5966 -0.131337 0
M  V30 8528 C 812.309 -4.3171 1.19711 0
M  V30 8529 C 814.053 -4.19828 -0.628071 0
M  V30 8530 C 811.96 -5.81579 1.07332 0
M  V30 8531 H 810.89 -0.753715 -0.0207329 0
M  V30 8532 H 813.541 -1.71962 0.640407 0
M  V30 8533 H 811.923 -3.86063 -0.881574 0
M  V30 8534 H 813.097 -4.17008 1.96064 0
M  V30 8535 H 811.412 -3.83286 1.62729 0
M  V30 8536 H 814.009 -5.2958 -0.738198 0
M  V30 8537 H 814.352 -3.83194 -1.6269 0
M  V30 8538 H 814.885 -3.97746 0.0656314 0
M  V30 8539 H 811.624 -6.22738 2.04642 0
M  V30 8540 H 811.144 -5.98774 0.350679 0
M  V30 8541 H 812.823 -6.42614 0.752047 0
M  V30 8542 N 812.955 -0.234822 -1.55841 0
M  V30 8543 C 813.902 0.6698 -2.20867 0
M  V30 8544 C 814.872 1.18042 -1.16856 0
M  V30 8545 O 816.057 1.23709 -1.45261 0
M  V30 8546 C 813.197 1.86646 -2.90271 0
M  V30 8547 C 812.31 1.39351 -4.08908 0
M  V30 8548 C 811.445 2.54878 -4.66059 0
M  V30 8549 C 810.484 2.04384 -5.76969 0
M  V30 8550 N 809.621 3.13233 -6.28355 0
M  V30 8551 H 814.461 0.10858 -2.97802 0
M  V30 8552 H 811.998 0.041836 -1.4704 0
M  V30 8553 H 813.956 2.56926 -3.28702 0
M  V30 8554 H 812.586 2.40035 -2.15831 0
M  V30 8555 H 811.638 0.585173 -3.75872 0
M  V30 8556 H 812.95 0.983356 -4.89011 0
M  V30 8557 H 812.104 3.33219 -5.07001 0
M  V30 8558 H 810.843 2.99188 -3.85146 0
M  V30 8559 H 809.848 1.24509 -5.35516 0
M  V30 8560 H 811.073 1.61057 -6.59725 0
M  V30 8561 H 809.019 3.57 -5.50352 0
M  V30 8562 H 808.936 2.76511 -7.03618 0
M  V30 8563 H 810.204 3.91669 -6.73955 0
M  V30 8564 N 814.433 1.57553 0.0384317 0
M  V30 8565 C 815.383 2.02404 1.0496 0
M  V30 8566 C 816.367 0.911705 1.32577 0
M  V30 8567 O 817.559 1.17561 1.32319 0
M  V30 8568 C 814.688 2.49924 2.35357 0
M  V30 8569 C 813.774 3.6796 2.1087 0
M  V30 8570 N 814.165 4.81009 1.56411 0
M  V30 8571 C 812.463 3.75153 2.41197 0
M  V30 8572 C 813.164 5.62686 1.47512 0
M  V30 8573 N 812.14 5.0752 1.94742 0
M  V30 8574 H 815.942 2.87234 0.622399 0
M  V30 8575 H 813.456 1.60543 0.244916 0
M  V30 8576 H 815.453 2.80312 3.08595 0
M  V30 8577 H 814.113 1.66496 2.78763 0
M  V30 8578 H 815.124 5.02636 1.2481 0
M  V30 8579 H 811.801 3.02507 2.87742 0
M  V30 8580 H 813.191 6.6349 1.05976 0
M  V30 8581 N 815.911 -0.310526 1.54511 0
M  V30 8582 C 817.157 -1.04846 1.73595 0
M  V30 8583 C 817.49 -1.87244 0.515118 0
M  V30 8584 O 816.765 -1.88282 -0.48786 0
M  V30 8585 C 817.048 -1.96237 3.01932 0
M  V30 8586 C 816.901 -1.17082 4.34295 0
M  V30 8587 C 818.22 -2.9556 3.26086 0
M  V30 8588 H 815.339 -0.37976 0.631626 0
M  V30 8589 H 817.981 -0.32394 1.87218 0
M  V30 8590 H 816.131 -2.58015 2.90449 0
M  V30 8591 H 817.803 -0.576643 4.57682 0
M  V30 8592 H 816.046 -0.473336 4.3121 0
M  V30 8593 H 816.717 -1.84257 5.20339 0
M  V30 8594 H 819.193 -2.43908 3.37117 0
M  V30 8595 H 818.069 -3.5668 4.17218 0
M  V30 8596 H 818.33 -3.68715 2.4393 0
M  V30 8597 N 817.389 -1.46805 -0.573248 0
M  V30 8598 C 818.337 -1.58468 -1.70267 0
M  V30 8599 C 819.331 -0.452694 -1.63239 0
M  V30 8600 O 820.537 -0.629915 -1.68618 0
M  V30 8601 H 816.912 -0.498408 -0.56311 0
M  V30 8602 H 818.883 -2.5341 -1.57563 0
M  V30 8603 C 817.632 -1.60104 -3.08645 0
M  V30 8604 H 816.955 -2.4655 -3.14727 0
M  V30 8605 H 818.395 -1.72318 -3.87405 0
M  V30 8606 C 816.854 -0.33138 -3.35266 0
M  V30 8607 O 817.384 0.57438 -3.97572 0
M  V30 8608 N 815.59 -0.216358 -2.89793 0
M  V30 8609 H 815.137 -0.954345 -2.3927 0
M  V30 8610 H 815.095 0.632253 -3.07977 0
M  V30 8611 N 818.867 0.818669 -1.34668 0
M  V30 8612 C 819.814 1.92983 -1.26595 0
M  V30 8613 C 820.784 1.65506 -0.140315 0
M  V30 8614 O 821.969 1.88063 -0.322005 0
M  V30 8615 C 819.109 3.2932 -1.03163 0
M  V30 8616 C 818.222 3.69061 -2.24539 0
M  V30 8617 C 817.357 4.94368 -1.94355 0
M  V30 8618 C 816.396 5.26702 -3.11851 0
M  V30 8619 N 815.533 6.43187 -2.81522 0
M  V30 8620 H 820.373 1.99219 -2.2162 0
M  V30 8621 H 817.91 0.974612 -1.1018 0
M  V30 8622 H 819.868 4.07897 -0.87613 0
M  V30 8623 H 818.498 3.22584 -0.118045 0
M  V30 8624 H 817.55 2.85842 -2.50995 0
M  V30 8625 H 818.862 3.88924 -3.12313 0
M  V30 8626 H 818.016 5.80742 -1.75566 0
M  V30 8627 H 816.755 4.76515 -1.03848 0
M  V30 8628 H 815.76 4.38823 -3.31231 0
M  V30 8629 H 816.985 5.46492 -4.03142 0
M  V30 8630 H 814.931 6.26783 -1.93596 0
M  V30 8631 H 814.848 6.63243 -3.62829 0
M  V30 8632 H 816.116 7.32621 -2.66247 0
M  V30 8633 N 820.346 1.18468 1.03938 0
M  V30 8634 C 821.293 0.912859 2.1198 0
M  V30 8635 C 822.263 -0.14824 1.65437 0
M  V30 8636 O 823.448 -0.008331 1.90798 0
M  V30 8637 C 820.588 0.446114 3.42204 0
M  V30 8638 C 819.701 1.57278 4.02353 0
M  V30 8639 C 818.836 1.05863 5.20544 0
M  V30 8640 C 817.875 2.1599 5.72726 0
M  V30 8641 N 817.012 1.65959 6.82204 0
M  V30 8642 H 821.852 1.83798 2.34569 0
M  V30 8643 H 819.389 0.916504 1.15059 0
M  V30 8644 H 821.347 0.15697 4.16905 0
M  V30 8645 H 819.977 -0.442025 3.19759 0
M  V30 8646 H 819.029 1.97737 3.24968 0
M  V30 8647 H 820.341 2.40289 4.37107 0
M  V30 8648 H 819.495 0.724087 6.02364 0
M  V30 8649 H 818.234 0.198116 4.87297 0
M  V30 8650 H 817.239 2.50287 4.89527 0
M  V30 8651 H 818.464 3.02479 6.08016 0
M  V30 8652 H 816.41 0.82199 6.5083 0
M  V30 8653 H 816.327 2.42567 7.16029 0
M  V30 8654 H 817.595 1.35436 7.67644 0
M  V30 8655 N 821.824 -1.22873 0.986916 0
M  V30 8656 C 823.24 -1.43594 0.696633 0
M  V30 8657 C 823.44 -1.87622 -0.734869 0
M  V30 8658 O 822.496 -2.02633 -1.50652 0
M  V30 8659 C 823.809 -2.48231 1.69711 0
M  V30 8660 C 825.357 -2.62037 1.71188 0
M  V30 8661 C 825.832 -3.6989 2.70084 0
M  V30 8662 N 827.323 -3.77341 2.68641 0
M  V30 8663 C 828.058 -4.6037 3.41829 0
M  V30 8664 N 827.554 -5.47438 4.24598 0
M  V30 8665 N 829.347 -4.54626 3.30563 0
M  V30 8666 H 821.498 -0.925982 1.91153 0
M  V30 8667 H 823.761 -0.46866 0.824052 0
M  V30 8668 H 823.467 -2.22812 2.72117 0
M  V30 8669 H 823.341 -3.46731 1.48516 0
M  V30 8670 H 825.728 -2.86803 0.694837 0
M  V30 8671 H 825.809 -1.63831 1.96451 0
M  V30 8672 H 825.453 -3.45872 3.71934 0
M  V30 8673 H 825.383 -4.67652 2.42093 0
M  V30 8674 H 827.874 -3.15124 2.08578 0
M  V30 8675 H 828.187 -6.078 4.77283 0
M  V30 8676 H 826.532 -5.4704 4.28687 0
M  V30 8677 H 829.723 -3.85627 2.65347 0
M  V30 8678 H 829.896 -5.19103 3.8786 0
M  V30 8679 N 823.302 -0.75937 -1.38099 0
M  V30 8680 C 824.551 -0.314864 -1.99227 0
M  V30 8681 C 824.864 1.1113 -1.60964 0
M  V30 8682 O 826.07 1.65657 -2.15105 0
M  V30 8683 C 824.526 -0.512001 -3.56239 0
M  V30 8684 C 824.134 -1.94762 -4.0345 0
M  V30 8685 C 825.878 -0.130497 -4.24299 0
M  V30 8686 C 823.785 -2.09301 -5.53125 0
M  V30 8687 H 822.715 -0.113978 -0.745335 0
M  V30 8688 H 825.366 -0.936736 -1.57789 0
M  V30 8689 H 823.748 0.179144 -3.95595 0
M  V30 8690 H 824.922 -2.67271 -3.75371 0
M  V30 8691 H 823.237 -2.28457 -3.48133 0
M  V30 8692 H 825.834 -0.21781 -5.34256 0
M  V30 8693 H 826.177 0.917644 -4.0606 0
M  V30 8694 H 826.71 -0.773716 -3.90203 0
M  V30 8695 H 823.449 -3.1239 -5.76275 0
M  V30 8696 H 822.969 -1.41261 -5.82928 0
M  V30 8697 H 824.648 -1.88571 -6.1891 0
M  V30 8698 N 824.78 1.49157 -0.508906 0
M  V30 8699 C 825.69 2.33045 0.269656 0
M  V30 8700 C 826.706 1.45143 0.959662 0
M  V30 8701 O 827.882 1.78155 0.939295 0
M  V30 8702 C 824.947 3.20772 1.31554 0
M  V30 8703 C 824.008 4.24531 0.638131 0
M  V30 8704 C 823.241 5.08065 1.63418 0
M  V30 8705 O 823.464 4.93238 2.86483 0
M  V30 8706 O 822.398 5.90117 1.18516 0
M  V30 8707 H 826.224 3.00821 -0.417183 0
M  V30 8708 H 823.809 1.46938 -0.270119 0
M  V30 8709 H 825.691 3.75095 1.92047 0
M  V30 8710 H 824.366 2.55681 1.98516 0
M  V30 8711 H 823.273 3.74099 -0.00674357 0
M  V30 8712 H 824.606 4.92199 0.0108155 0
M  V30 8713 N 826.258 0.243083 1.55714 0
M  V30 8714 C 827.188 -0.652336 2.24203 0
M  V30 8715 C 828.169 -1.1843 1.221 0
M  V30 8716 O 829.354 -1.22435 1.50743 0
M  V30 8717 C 826.484 -1.85111 2.93856 0
M  V30 8718 C 825.438 -1.45208 4.02615 0
M  V30 8719 C 824.764 -2.73137 4.59674 0
M  V30 8720 C 826.064 -0.625988 5.18535 0
M  V30 8721 H 827.758 -0.0812504 2.9929 0
M  V30 8722 H 825.304 -0.0376388 1.43951 0
M  V30 8723 H 827.257 -2.48314 3.40468 0
M  V30 8724 H 825.981 -2.44751 2.16251 0
M  V30 8725 H 824.64 -0.843406 3.56766 0
M  V30 8726 H 824.288 -3.30967 3.78774 0
M  V30 8727 H 823.988 -2.47163 5.33089 0
M  V30 8728 H 825.512 -3.37245 5.09017 0
M  V30 8729 H 826.926 -1.16223 5.61396 0
M  V30 8730 H 825.323 -0.462465 5.98315 0
M  V30 8731 H 826.393 0.362652 4.83542 0
M  V30 8732 N 827.736 -1.57571 -0.0300757 0
M  V30 8733 C 828.964 -1.93485 -0.732891 0
M  V30 8734 C 829.379 -0.842758 -1.68947 0
M  V30 8735 O 828.736 0.180904 -1.81601 0
M  V30 8736 C 828.787 -3.29328 -1.49082 0
M  V30 8737 O 828.508 -4.34341 -0.572639 0
M  V30 8738 C 830.009 -3.79517 -2.29088 0
M  V30 8739 H 827.229 -0.638588 -0.206026 0
M  V30 8740 H 829.773 -2.04496 0.0120966 0
M  V30 8741 H 827.928 -3.19716 -2.1877 0
M  V30 8742 H 828.342 -5.12748 -1.10406 0
M  V30 8743 H 829.816 -4.77081 -2.77665 0
M  V30 8744 H 830.293 -3.10659 -3.10464 0
M  V30 8745 H 830.899 -3.92208 -1.64477 0
M  V30 8746 N 829.214 0.302327 -1.54673 0
M  V30 8747 C 830.63 0.647911 -1.45857 0
M  V30 8748 C 830.83 1.90773 -0.64869 0
M  V30 8749 O 829.886 2.52018 -0.155865 0
M  V30 8750 C 831.199 0.802144 -2.89804 0
M  V30 8751 C 832.747 0.898114 -2.99838 0
M  V30 8752 C 833.222 1.08436 -4.44978 0
M  V30 8753 N 834.713 1.15059 -4.48682 0
M  V30 8754 C 835.448 1.31296 -5.58166 0
M  V30 8755 N 834.944 1.4444 -6.77576 0
M  V30 8756 N 836.737 1.34174 -5.45851 0
M  V30 8757 H 828.888 -0.525428 -2.05798 0
M  V30 8758 H 831.151 -0.173423 -0.932002 0
M  V30 8759 H 830.857 -0.0526531 -3.51661 0
M  V30 8760 H 830.731 1.69155 -3.37145 0
M  V30 8761 H 833.118 1.7434 -2.38096 0
M  V30 8762 H 833.199 -0.0152752 -2.55795 0
M  V30 8763 H 832.843 0.243843 -5.07314 0
M  V30 8764 H 832.773 2.01195 -4.8665 0
M  V30 8765 H 835.264 1.0626 -3.62653 0
M  V30 8766 H 835.577 1.56582 -7.56771 0
M  V30 8767 H 833.922 1.41499 -6.80443 0
M  V30 8768 H 837.113 1.23516 -4.5151 0
M  V30 8769 H 837.286 1.46485 -6.31226 0
M  V30 8770 N 830.692 1.47107 0.565454 0
M  V30 8771 C 831.624 1.55024 1.6882 0
M  V30 8772 C 832.637 0.4371 1.56822 0
M  V30 8773 O 833.826 0.706315 1.63931 0
M  V30 8774 C 830.926 1.43069 3.0722 0
M  V30 8775 C 830.099 2.68807 3.45053 0
M  V30 8776 C 829.158 2.50806 4.62583 0
M  V30 8777 O 828.184 3.24593 4.67577 0
M  V30 8778 N 829.386 1.58093 5.58558 0
M  V30 8779 H 832.151 2.51836 1.62477 0
M  V30 8780 H 829.712 1.43382 0.751885 0
M  V30 8781 H 831.704 1.28773 3.83666 0
M  V30 8782 H 830.274 0.543721 3.07835 0
M  V30 8783 H 829.494 2.97923 2.58138 0
M  V30 8784 H 830.782 3.52298 3.67101 0
M  V30 8785 H 830.18 0.972807 5.57273 0
M  V30 8786 H 828.737 1.49753 6.34364 0
M  V30 8787 N 832.17 -0.811516 1.35101 0
M  V30 8788 C 833.416 -1.57068 1.28287 0
M  V30 8789 C 833.749 -1.93667 -0.143808 0
M  V30 8790 O 833.024 -1.60953 -1.09199 0
M  V30 8791 C 833.307 -2.86259 2.18466 0
M  V30 8792 C 833.16 -2.56168 3.69727 0
M  V30 8793 C 834.479 -3.87924 2.07852 0
M  V30 8794 H 831.598 -0.569869 0.467353 0
M  V30 8795 H 834.24 -0.934023 1.65457 0
M  V30 8796 H 832.39 -3.4059 1.86898 0
M  V30 8797 H 834.062 -2.08059 4.11715 0
M  V30 8798 H 832.305 -1.89436 3.90252 0
M  V30 8799 H 832.976 -3.48344 4.28206 0
M  V30 8800 H 835.452 -3.4298 2.35593 0
M  V30 8801 H 834.328 -4.76106 2.73157 0
M  V30 8802 H 834.589 -4.2923 1.05896 0
M  V30 8803 N 833.648 -1.19017 -1.03309 0
M  V30 8804 C 834.578 -0.94772 -2.13402 0
M  V30 8805 C 835.559 0.117383 -1.69694 0
M  V30 8806 O 836.744 -0.0367733 -1.94165 0
M  V30 8807 C 833.874 -0.480977 -3.43953 0
M  V30 8808 C 832.828 -1.48743 -4.01322 0
M  V30 8809 C 832.154 -0.877924 -5.27443 0
M  V30 8810 C 833.454 -2.86642 -4.36616 0
M  V30 8811 H 835.148 -1.86846 -2.33942 0
M  V30 8812 H 832.694 -0.899781 -1.12427 0
M  V30 8813 H 834.647 -0.298677 -4.2034 0
M  V30 8814 H 833.371 0.475348 -3.23122 0
M  V30 8815 H 832.03 -1.65681 -3.27025 0
M  V30 8816 H 831.678 0.0858232 -5.02927 0
M  V30 8817 H 831.378 -1.54996 -5.66789 0
M  V30 8818 H 832.902 -0.706326 -6.06501 0
M  V30 8819 H 834.316 -2.73312 -5.03958 0
M  V30 8820 H 832.713 -3.50599 -4.87032 0
M  V30 8821 H 833.783 -3.39617 -3.46105 0
M  V30 8822 N 835.127 1.22348 -0.993418 0
M  V30 8823 C 836.374 1.9111 -0.669568 0
M  V30 8824 C 836.702 1.77357 0.79843 0
M  V30 8825 O 835.957 1.13675 1.593 0
M  V30 8826 C 836.256 3.42477 -1.02197 0
M  V30 8827 C 835.922 3.7642 -2.48232 0
M  V30 8828 C 834.584 3.85395 -2.88139 0
M  V30 8829 C 836.936 3.9253 -3.42884 0
M  V30 8830 C 834.264 4.07918 -4.21687 0
M  V30 8831 C 836.616 4.16557 -4.76091 0
M  V30 8832 C 835.28 4.23757 -5.15739 0
M  V30 8833 H 834.55 0.699321 -0.245012 0
M  V30 8834 H 837.197 1.45102 -1.2497 0
M  V30 8835 H 835.502 3.90143 -0.359921 0
M  V30 8836 H 837.199 3.93935 -0.74942 0
M  V30 8837 H 833.789 3.70017 -2.16299 0
M  V30 8838 H 837.973 3.84974 -3.13224 0
M  V30 8839 H 833.229 4.11719 -4.51993 0
M  V30 8840 H 837.403 4.27966 -5.4938 0
M  V30 8841 H 835.03 4.40962 -6.19239 0
M  V30 8842 N 836.605 0.766683 1.37694 0
M  V30 8843 C 837.515 0.150158 2.34119 0
M  V30 8844 C 838.531 -0.685513 1.59927 0
M  V30 8845 O 839.707 -0.606616 1.92047 0
M  V30 8846 C 836.772 -0.722562 3.39087 0
M  V30 8847 C 835.833 0.128983 4.29106 0
M  V30 8848 C 835.066 -0.702178 5.29061 0
M  V30 8849 O 835.289 -1.93954 5.36412 0
M  V30 8850 O 834.223 -0.114056 6.01792 0
M  V30 8851 H 838.049 0.946829 2.88563 0
M  V30 8852 H 835.634 0.527765 1.39768 0
M  V30 8853 H 837.516 -1.22095 4.03325 0
M  V30 8854 H 836.191 -1.49751 2.86978 0
M  V30 8855 H 835.098 0.673612 3.67985 0
M  V30 8856 H 836.431 0.866892 4.84506 0
M  V30 8857 N 838.083 -1.48885 0.516809 0
M  V30 8858 C 839.013 -2.32241 -0.242157 0
M  V30 8859 C 839.994 -1.41258 -0.947633 0
M  V30 8860 O 841.179 -1.70156 -0.935973 0
M  V30 8861 C 838.309 -3.22151 -1.29754 0
M  V30 8862 C 837.263 -4.22053 -0.710995 0
M  V30 8863 C 836.589 -5.01007 -1.86806 0
M  V30 8864 C 837.889 -5.21388 0.30853 0
M  V30 8865 H 839.583 -2.95943 0.453651 0
M  V30 8866 H 837.129 -1.42316 0.219612 0
M  V30 8867 H 839.082 -3.79284 -1.83634 0
M  V30 8868 H 837.806 -2.56423 -2.02274 0
M  V30 8869 H 836.465 -3.66087 -0.193819 0
M  V30 8870 H 836.113 -4.31713 -2.58133 0
M  V30 8871 H 835.813 -5.68615 -1.48159 0
M  V30 8872 H 837.337 -5.60989 -2.4109 0
M  V30 8873 H 838.751 -5.73122 -0.142703 0
M  V30 8874 H 837.148 -5.96975 0.611673 0
M  V30 8875 H 838.218 -4.69329 1.21894 0
M  V30 8876 N 839.561 -0.251338 -1.55583 0
M  V30 8877 C 840.508 0.646337 -2.21565 0
M  V30 8878 C 841.478 1.16796 -1.18102 0
M  V30 8879 O 842.663 1.22162 -1.46564 0
M  V30 8880 C 839.803 1.83557 -2.92234 0
M  V30 8881 C 838.916 1.35006 -4.10363 0
M  V30 8882 C 838.051 2.4992 -4.68736 0
M  V30 8883 C 837.09 1.98253 -5.79105 0
M  V30 8884 N 836.227 3.06551 -6.31642 0
M  V30 8885 H 841.067 0.0769881 -2.97901 0
M  V30 8886 H 838.604 0.026238 -1.47077 0
M  V30 8887 H 840.562 2.53425 -3.31408 0
M  V30 8888 H 839.192 2.37733 -2.18364 0
M  V30 8889 H 838.244 0.545274 -3.76472 0
M  V30 8890 H 839.556 0.931435 -4.90026 0
M  V30 8891 H 838.71 3.27823 -5.10507 0
M  V30 8892 H 837.449 2.95086 -3.88298 0
M  V30 8893 H 836.454 1.18822 -5.36807 0
M  V30 8894 H 837.679 1.54051 -6.61396 0
M  V30 8895 H 835.625 3.51143 -5.54107 0
M  V30 8896 H 835.542 2.69033 -7.06511 0
M  V30 8897 H 836.81 3.84499 -6.78071 0
M  V30 8898 N 841.039 1.57585 0.0217189 0
M  V30 8899 C 841.989 2.03506 1.02807 0
M  V30 8900 C 842.973 0.925716 1.31603 0
M  V30 8901 O 844.165 1.18958 1.31065 0
M  V30 8902 C 841.294 2.52407 2.32693 0
M  V30 8903 C 840.38 3.70176 2.06955 0
M  V30 8904 N 840.771 4.82641 1.513 0
M  V30 8905 C 839.069 3.77691 2.37204 0
M  V30 8906 C 839.77 5.64218 1.41536 0
M  V30 8907 N 838.746 5.09557 1.89348 0
M  V30 8908 H 842.548 2.87878 0.591899 0
M  V30 8909 H 840.062 1.60793 0.227875 0
M  V30 8910 H 842.059 2.83569 3.05605 0
M  V30 8911 H 840.719 1.69444 2.76982 0
M  V30 8912 H 841.73 5.03931 1.19472 0
M  V30 8913 H 838.407 3.05542 2.84517 0
M  V30 8914 H 839.797 6.64576 0.989333 0
M  V30 8915 N 842.517 -0.29412 1.54831 0
M  V30 8916 C 843.45 -1.38779 1.81151 0
M  V30 8917 C 844.428 -1.48464 0.663124 0
M  V30 8918 O 845.612 -1.65418 0.903835 0
M  V30 8919 C 842.739 -2.76627 1.95436 0
M  V30 8920 C 841.785 -2.84333 3.17895 0
M  V30 8921 S 842.618 -2.45726 4.75793 0
M  V30 8922 C 843.774 -3.85589 4.93023 0
M  V30 8923 H 844.007 -1.16246 2.73631 0
M  V30 8924 H 841.54 -0.492611 1.46331 0
M  V30 8925 H 843.498 -3.56021 2.04351 0
M  V30 8926 H 842.159 -2.96425 1.03881 0
M  V30 8927 H 841.352 -3.85457 3.24713 0
M  V30 8928 H 840.954 -2.1294 3.07461 0
M  V30 8929 H 843.246 -4.80656 4.77468 0
M  V30 8930 H 844.189 -3.83737 5.95107 0
M  V30 8931 H 844.597 -3.75911 4.21131 0
M  V30 8932 N 843.995 -1.47404 -0.557645 0
M  V30 8933 C 845.411 -1.32913 -0.88353 0
M  V30 8934 C 845.611 -0.31929 -1.98954 0
M  V30 8935 O 844.667 0.26934 -2.51059 0
M  V30 8936 C 845.98 -2.72229 -1.27718 0
M  V30 8937 C 847.528 -2.8051 -1.38863 0
M  V30 8938 C 848.003 -4.20466 -1.81583 0
M  V30 8939 N 849.494 -4.23005 -1.88735 0
M  V30 8940 C 850.229 -5.2821 -2.23118 0
M  V30 8941 N 849.725 -6.4372 -2.56117 0
M  V30 8942 N 851.518 -5.15588 -2.23888 0
M  V30 8943 H 843.669 -2.11698 0.172557 0
M  V30 8944 H 845.932 -0.947889 0.0145334 0
M  V30 8945 H 845.638 -3.47556 -0.538329 0
M  V30 8946 H 845.512 -3.03971 -2.23342 0
M  V30 8947 H 847.899 -2.05457 -2.11829 0
M  V30 8948 H 847.98 -2.52423 -0.414274 0
M  V30 8949 H 847.624 -4.96025 -1.09187 0
M  V30 8950 H 847.554 -4.45977 -2.80021 0
M  V30 8951 H 850.045 -3.39674 -1.65621 0
M  V30 8952 H 850.358 -7.19754 -2.81378 0
M  V30 8953 H 848.703 -6.47041 -2.53698 0
M  V30 8954 H 851.894 -4.24374 -1.97546 0
M  V30 8955 H 852.067 -5.97685 -2.50353 0
M  V30 8956 N 845.473 0.80434 -1.35529 0
M  V30 8957 C 846.75 1.5486 -1.1949 0
M  V30 8958 C 847.13 2.09897 0.22506 0
M  V30 8959 O 846.478 1.92643 1.22886 0
M  V30 8960 C 846.688 2.65535 -2.26478 0
M  V30 8961 C 848.036 3.33814 -2.62399 0
M  V30 8962 O 849.06 2.75807 -2.25409 0
M  V30 8963 O 847.919 4.38612 -3.26009 0
M  V30 8964 H 845.013 0.68433 -0.464351 0
M  V30 8965 H 847.559 0.844107 -1.47217 0
M  V30 8966 H 846.331 2.22754 -3.21709 0
M  V30 8967 H 845.954 3.43617 -2.00033 0
M  V30 8968 N 846.951 1.19563 1.02676 0
M  V30 8969 C 848.197 1.00105 1.76371 0
M  V30 8970 C 848.53 -0.466823 1.88506 0
M  V30 8971 O 847.805 -1.34665 1.40341 0
M  V30 8972 C 848.088 1.67321 3.18866 0
M  V30 8973 C 847.941 3.21486 3.1459 0
M  V30 8974 C 849.26 1.39794 4.17308 0
M  V30 8975 H 846.379 0.365075 0.640226 0
M  V30 8976 H 849.021 1.47433 1.19848 0
M  V30 8977 H 847.171 1.27081 3.67128 0
M  V30 8978 H 848.843 3.70953 2.7421 0
M  V30 8979 H 847.086 3.5292 2.52249 0
M  V30 8980 H 847.757 3.63665 4.15273 0
M  V30 8981 H 850.233 1.74685 3.77657 0
M  V30 8982 H 849.109 1.89371 5.15199 0
M  V30 8983 H 849.37 0.323505 4.40915 0
M  V30 8984 N 848.429 -1.21819 0.999893 0
M  V30 8985 C 849.361 -2.23356 0.514256 0
M  V30 8986 C 850.374 -1.5795 -0.394413 0
M  V30 8987 O 851.563 -1.77427 -0.195428 0
M  V30 8988 C 848.663 -3.37797 -0.273207 0
M  V30 8989 C 847.836 -4.32791 0.633293 0
M  V30 8990 C 846.895 -5.26098 -0.103673 0
M  V30 8991 O 845.921 -5.66881 0.513269 0
M  V30 8992 N 847.123 -5.63764 -1.38383 0
M  V30 8993 H 849.888 -2.65653 1.3874 0
M  V30 8994 H 847.449 -1.3619 0.875431 0
M  V30 8995 H 849.441 -3.97209 -0.775053 0
M  V30 8996 H 848.011 -2.94527 -1.0475 0
M  V30 8997 H 847.231 -3.71595 1.31571 0
M  V30 8998 H 848.519 -4.93196 1.25039 0
M  V30 8999 H 847.917 -5.32614 -1.90627 0
M  V30 9000 H 846.474 -6.25562 -1.83073 0
M  V30 9001 N 849.908 -0.773975 -1.37286 0
M  V30 9002 C 851.155 -0.339306 -1.99637 0
M  V30 9003 C 851.483 1.08478 -1.61439 0
M  V30 9004 O 850.738 1.7612 -0.853252 0
M  V30 9005 C 851.037 -0.432651 -3.54772 0
M  V30 9006 C 850.703 -1.81531 -4.12744 0
M  V30 9007 C 849.365 -2.19366 -4.2829 0
M  V30 9008 C 851.717 -2.72137 -4.44512 0
M  V30 9009 C 849.045 -3.47239 -4.72908 0
M  V30 9010 C 851.397 -3.99421 -4.90556 0
M  V30 9011 C 850.061 -4.37298 -5.04308 0
M  V30 9012 H 849.331 -0.124161 -0.730524 0
M  V30 9013 H 851.978 -0.988432 -1.64019 0
M  V30 9014 H 850.283 0.30001 -3.9065 0
M  V30 9015 H 851.98 -0.0776 -4.00925 0
M  V30 9016 H 848.57 -1.51126 -4.01072 0
M  V30 9017 H 852.754 -2.44165 -4.32084 0
M  V30 9018 H 848.01 -3.76477 -4.81742 0
M  V30 9019 H 852.184 -4.69756 -5.14104 0
M  V30 9020 H 849.811 -5.36442 -5.38641 0
M  V30 9021 N 851.386 1.48609 -0.524698 0
M  V30 9022 C 852.334 2.31205 0.254398 0
M  V30 9023 C 853.328 1.40894 0.940491 0
M  V30 9024 O 854.534 1.57827 0.865478 0
M  V30 9025 H 850.909 0.745199 0.100907 0
M  V30 9026 H 852.88 2.94804 -0.461876 0
M  V30 9027 C 851.629 3.2282 1.2916 0
M  V30 9028 H 850.952 3.92255 0.773074 0
M  V30 9029 H 852.392 3.83508 1.80825 0
M  V30 9030 C 850.851 2.4406 2.32242 0
M  V30 9031 O 851.381 2.16163 3.3858 0
M  V30 9032 N 849.587 2.05651 2.05319 0
M  V30 9033 H 849.134 2.28539 1.18861 0
M  V30 9034 H 849.092 1.53265 2.74513 0
M  V30 9035 N 852.864 0.259585 1.55447 0
M  V30 9036 C 853.814 -0.648769 2.18575 0
M  V30 9037 C 854.798 -1.1299 1.14552 0
M  V30 9038 O 855.99 -1.07756 1.4042 0
M  V30 9039 C 853.119 -1.83963 2.89849 0
M  V30 9040 C 852.205 -1.37641 4.01143 0
M  V30 9041 N 852.596 -0.628269 5.01883 0
M  V30 9042 C 850.894 -1.66066 4.1393 0
M  V30 9043 C 851.595 -0.386746 5.80413 0
M  V30 9044 N 850.571 -0.954665 5.35151 0
M  V30 9045 H 854.373 -0.0691616 2.93819 0
M  V30 9046 H 851.887 0.0624525 1.6228 0
M  V30 9047 H 853.884 -2.50151 3.33512 0
M  V30 9048 H 852.544 -2.42334 2.16112 0
M  V30 9049 H 853.555 -0.277123 5.17158 0
M  V30 9050 H 850.232 -2.25484 3.51373 0
M  V30 9051 H 851.622 0.211382 6.71567 0
M  V30 9052 N 854.342 -1.57594 -0.0133615 0
M  V30 9053 C 855.272 -2.10611 -1.00823 0
M  V30 9054 C 856.253 -1.01217 -1.36708 0
M  V30 9055 O 857.438 -1.28827 -1.45318 0
M  V30 9056 C 854.568 -2.59844 -2.30431 0
M  V30 9057 C 853.522 -3.73644 -2.08745 0
M  V30 9058 C 852.848 -4.09141 -3.4425 0
M  V30 9059 C 854.148 -5.01454 -1.46086 0
M  V30 9060 H 855.842 -2.93985 -0.566849 0
M  V30 9061 H 853.388 -1.41423 -0.271219 0
M  V30 9062 H 855.341 -2.95557 -3.00373 0
M  V30 9063 H 854.065 -1.73573 -2.76658 0
M  V30 9064 H 852.724 -3.38303 -1.41232 0
M  V30 9065 H 852.372 -3.19914 -3.88155 0
M  V30 9066 H 852.072 -4.85802 -3.3056 0
M  V30 9067 H 853.596 -4.47402 -4.15528 0
M  V30 9068 H 855.01 -5.35024 -2.05966 0
M  V30 9069 H 853.407 -5.82832 -1.42924 0
M  V30 9070 H 854.477 -4.83003 -0.428471 0
M  V30 9071 N 855.82 0.285905 -1.54985 0
M  V30 9072 C 857.048 1.03776 -1.78992 0
M  V30 9073 C 857.463 1.80402 -0.556814 0
M  V30 9074 O 856.82 1.76242 0.473801 0
M  V30 9075 C 856.871 2.0065 -3.00702 0
M  V30 9076 O 856.592 1.27131 -4.19249 0
M  V30 9077 C 858.093 2.87753 -3.37214 0
M  V30 9078 H 855.313 0.307126 -0.596586 0
M  V30 9079 H 857.857 0.3206 -2.01971 0
M  V30 9080 H 856.012 2.67847 -2.79887 0
M  V30 9081 H 856.426 1.92316 -4.8797 0
M  V30 9082 H 857.9 3.51548 -4.2558 0
M  V30 9083 H 858.377 3.56848 -2.56039 0
M  V30 9084 H 858.983 2.26065 -3.60242 0
M  V30 9085 N 857.298 1.47698 0.54982 0
M  V30 9086 C 858.714 1.3338 0.876468 0
M  V30 9087 C 858.914 0.329837 1.98782 0
M  V30 9088 O 857.97 -0.256022 2.51199 0
M  V30 9089 C 859.283 2.72903 1.26272 0
M  V30 9090 C 860.831 2.81243 1.37373 0
M  V30 9091 C 861.306 4.21423 1.79351 0
M  V30 9092 N 862.797 4.24 1.86489 0
M  V30 9093 C 863.532 5.29386 2.20313 0
M  V30 9094 N 863.028 6.4507 2.527 0
M  V30 9095 N 864.821 5.16768 2.2115 0
M  V30 9096 H 856.972 2.11603 -0.183781 0
M  V30 9097 H 859.235 0.947798 -0.0195601 0
M  V30 9098 H 858.941 3.47836 0.519889 0
M  V30 9099 H 858.815 3.05151 2.21727 0
M  V30 9100 H 861.202 2.06577 2.10737 0
M  V30 9101 H 861.283 2.52639 0.400882 0
M  V30 9102 H 860.927 4.96597 1.06555 0
M  V30 9103 H 860.857 4.47456 2.77652 0
M  V30 9104 H 863.348 3.40547 1.63817 0
M  V30 9105 H 863.661 7.21236 2.77557 0
M  V30 9106 H 862.006 6.48377 2.50263 0
M  V30 9107 H 865.197 4.25416 1.95293 0
M  V30 9108 H 865.37 5.99004 2.4718 0
M  V30 9109 N 858.776 -0.797141 1.35954 0
M  V30 9110 C 860.023 -1.55468 1.29754 0
M  V30 9111 C 860.351 -1.94095 -0.125391 0
M  V30 9112 O 859.606 -1.62341 -1.09288 0
M  V30 9113 C 859.905 -2.84847 2.15863 0
M  V30 9114 C 859.571 -2.65394 3.64523 0
M  V30 9115 C 858.233 -2.59796 4.05042 0
M  V30 9116 C 860.585 -2.4727 4.58811 0
M  V30 9117 C 857.913 -2.3403 5.38002 0
M  V30 9118 C 860.265 -2.23032 5.91979 0
M  V30 9119 C 858.929 -2.15862 6.31633 0
M  V30 9120 H 858.199 -0.568897 0.474803 0
M  V30 9121 H 860.846 -0.920299 1.67937 0
M  V30 9122 H 859.151 -3.52712 1.70591 0
M  V30 9123 H 860.848 -3.42597 2.08395 0
M  V30 9124 H 857.438 -2.70602 3.32374 0
M  V30 9125 H 861.622 -2.506 4.28384 0
M  V30 9126 H 856.878 -2.26956 5.67715 0
M  V30 9127 H 861.052 -2.08001 6.64612 0
M  V30 9128 H 858.679 -1.9566 7.34589 0
M  V30 9129 N 860.254 -1.20106 -1.0204 0
M  V30 9130 C 861.503 -1.00316 -1.74985 0
M  V30 9131 C 861.816 0.465814 -1.89972 0
M  V30 9132 O 863.022 0.782749 -2.59972 0
M  V30 9133 C 861.478 -1.74608 -3.14706 0
M  V30 9134 C 861.086 -3.25573 -3.07744 0
M  V30 9135 C 862.83 -1.63172 -3.91887 0
M  V30 9136 C 860.737 -3.92419 -4.42449 0
M  V30 9137 H 859.667 -0.371728 -0.655999 0
M  V30 9138 H 862.318 -1.43688 -1.14131 0
M  V30 9139 H 860.7 -1.24021 -3.76078 0
M  V30 9140 H 861.874 -3.83345 -2.55702 0
M  V30 9141 H 860.189 -3.3738 -2.44057 0
M  V30 9142 H 862.786 -2.10457 -4.9154 0
M  V30 9143 H 863.129 -0.58728 -4.12137 0
M  V30 9144 H 863.662 -2.11152 -3.37135 0
M  V30 9145 H 860.401 -4.96998 -4.27403 0
M  V30 9146 H 859.921 -3.39436 -4.94513 0
M  V30 9147 H 861.6 -3.96453 -5.11306 0
M  V30 9148 N 861.732 1.21287 -1.00634 0
M  V30 9149 C 862.98 1.90013 -0.688438 0
M  V30 9150 C 863.301 1.78573 0.783365 0
M  V30 9151 O 862.571 1.1815 1.56261 0
M  V30 9152 H 861.151 0.703336 -0.251648 0
M  V30 9153 H 863.813 1.47346 -1.27574 0
M  V30 9154 H 862.909 2.96879 -0.962781 0
M  V30 9155 N 863.21 0.781244 1.36873 0
M  V30 9156 C 864.173 0.180094 2.28491 0
M  V30 9157 C 865.173 -0.617798 1.48458 0
M  V30 9158 O 866.363 -0.439991 1.68552 0
M  V30 9159 C 863.495 -0.751741 3.32508 0
M  V30 9160 H 864.688 0.987837 2.83164 0
M  V30 9161 H 862.241 0.550102 1.463 0
M  V30 9162 H 862.976 -1.58413 2.82977 0
M  V30 9163 H 862.761 -0.181649 3.91679 0
M  V30 9164 H 864.251 -1.16748 4.00949 0
M  V30 9165 N 864.689 -1.48329 0.532571 0
M  V30 9166 C 865.929 -2.044 0.00145618 0
M  V30 9167 C 866.293 -1.40053 -1.31336 0
M  V30 9168 O 867.494 -1.87026 -1.93066 0
M  V30 9169 C 865.765 -3.57214 -0.115376 0
M  V30 9170 S 867.324 -4.34731 -0.59618 0
M  V30 9171 H 864.142 -0.710876 0.0133038 0
M  V30 9172 H 866.744 -1.82006 0.71372 0
M  V30 9173 H 865.448 -4.01579 0.846335 0
M  V30 9174 H 864.979 -3.84065 -0.85194 0
M  V30 9175 H 866.994 -4.6001 -1.86025 0
M  V30 9176 N 866.167 -0.267825 -1.55308 0
M  V30 9177 C 867.416 0.351635 -1.98611 0
M  V30 9178 C 867.729 1.57522 -1.15957 0
M  V30 9179 O 868.935 2.26717 -1.49371 0
M  V30 9180 C 867.391 0.676986 -3.53475 0
M  V30 9181 C 866.999 -0.526385 -4.44897 0
M  V30 9182 C 868.743 1.25948 -4.05386 0
M  V30 9183 C 866.65 -0.176026 -5.91138 0
M  V30 9184 H 865.58 0.13516 -0.741787 0
M  V30 9185 H 868.231 -0.371333 -1.79704 0
M  V30 9186 H 866.613 1.45866 -3.68156 0
M  V30 9187 H 867.787 -1.30339 -4.41982 0
M  V30 9188 H 866.102 -1.02522 -4.03582 0
M  V30 9189 H 868.699 1.53529 -5.12184 0
M  V30 9190 H 869.042 2.19094 -3.53982 0
M  V30 9191 H 869.575 0.540253 -3.94114 0
M  V30 9192 H 866.314 -1.07518 -6.46622 0
M  V30 9193 H 865.834 0.564363 -5.97139 0
M  V30 9194 H 867.513 0.234365 -6.46575 0
M  V30 9195 N 867.645 1.57599 0.00500368 0
M  V30 9196 C 868.922 1.81561 0.727654 0
M  V30 9197 C 869.302 0.871604 1.92266 0
M  V30 9198 O 868.65 -0.0808232 2.28357 0
M  V30 9199 C 868.86 3.29922 1.13809 0
M  V30 9200 C 870.208 3.95531 1.54403 0
M  V30 9201 O 871.232 3.34215 1.23202 0
M  V30 9202 O 870.091 5.03535 2.12402 0
M  V30 9203 H 867.185 0.747462 0.353878 0
M  V30 9204 H 869.731 1.69688 -0.0200667 0
M  V30 9205 H 868.503 3.90253 0.286078 0
M  V30 9206 H 868.126 3.46775 1.94507 0
M  V30 9207 N 869.123 -0.277682 1.55134 0
M  V30 9208 C 870.534 -0.849063 1.66276 0
M  V30 9209 C 870.885 -1.87223 0.5867 0
M  V30 9210 O 870.01 -2.14676 -0.272635 0
M  V30 9211 C 870.605 -1.54681 3.01429 0
M  V30 9212 C 869.164 -2.06628 3.14614 0
M  V30 9213 C 868.311 -0.906748 2.62056 0
M  V30 9214 H 871.262 -0.0541357 1.58608 0
M  V30 9215 H 871.283 -2.41356 2.94156 0
M  V30 9216 H 870.795 -0.80189 3.79725 0
M  V30 9217 H 868.896 -2.84095 2.41082 0
M  V30 9218 H 869.009 -2.2848 4.2111 0
M  V30 9219 H 867.373 -1.29882 2.19095 0
M  V30 9220 H 868.156 -0.175414 3.42852 0
M  V30 9221 N 870.601 -1.47988 -0.541979 0
M  V30 9222 C 872.012 -1.49073 -1.12402 0
M  V30 9223 C 872.363 -0.253825 -1.94551 0
M  V30 9224 O 871.488 0.640056 -2.06718 0
M  V30 9225 C 872.083 -2.7011 -2.04514 0
M  V30 9226 C 870.642 -2.74105 -2.5796 0
M  V30 9227 C 869.789 -2.42409 -1.3466 0
M  V30 9228 H 872.74 -1.55277 -0.327818 0
M  V30 9229 H 872.761 -2.47946 -2.88623 0
M  V30 9230 H 872.273 -3.60117 -1.44697 0
M  V30 9231 H 870.374 -1.88276 -3.21532 0
M  V30 9232 H 870.487 -3.75213 -2.97913 0
M  V30 9233 H 868.851 -1.9331 -1.65841 0
M  V30 9234 H 869.634 -3.34642 -0.766133 0
M  V30 9235 N 872.079 0.78992 -1.36375 0
M  V30 9236 C 873.027 1.92394 -1.30719 0
M  V30 9237 C 874.021 1.68226 -0.199076 0
M  V30 9238 O 875.227 1.76239 -0.366051 0
M  V30 9239 H 871.602 0.632382 -0.406936 0
M  V30 9240 H 873.573 1.94282 -2.26488 0
M  V30 9241 C 872.322 3.2941 -1.11284 0
M  V30 9242 H 871.645 3.48573 -1.95798 0
M  V30 9243 H 873.085 4.09111 -1.11373 0
M  V30 9244 C 871.544 3.36405 0.182543 0
M  V30 9245 O 872.074 3.84206 1.17255 0
M  V30 9246 N 870.28 2.89712 0.227046 0
M  V30 9247 H 869.827 2.51004 -0.579217 0
M  V30 9248 H 869.785 2.94773 1.09344 0
M  V30 9249 N 873.557 1.20646 1.01402 0
M  V30 9250 C 874.806 1.01242 1.7445 0
M  V30 9251 C 875.119 -0.455732 1.90217 0
M  V30 9252 O 876.325 -0.768951 2.60383 0
M  V30 9253 C 874.781 1.76275 3.13776 0
M  V30 9254 C 874.389 3.27201 3.06013 0
M  V30 9255 C 876.133 1.65248 3.91016 0
M  V30 9256 C 874.04 3.9476 4.40362 0
M  V30 9257 H 872.97 0.375202 0.654018 0
M  V30 9258 H 875.621 1.44292 1.13367 0
M  V30 9259 H 874.003 1.26013 3.75415 0
M  V30 9260 H 875.177 3.84695 2.53665 0
M  V30 9261 H 873.492 3.38669 2.42265 0
M  V30 9262 H 876.089 2.13061 4.90417 0
M  V30 9263 H 876.432 0.609128 4.1182 0
M  V30 9264 H 876.965 2.12937 3.3601 0
M  V30 9265 H 873.704 4.99258 4.24761 0
M  V30 9266 H 873.224 3.42054 4.92706 0
M  V30 9267 H 874.903 3.99159 5.09196 0
M  V30 9268 N 875.035 -1.20752 1.01276 0
M  V30 9269 C 876.275 -1.91733 0.708372 0
M  V30 9270 C 876.639 -1.76836 -0.747855 0
M  V30 9271 O 877.84 -2.42262 -1.16458 0
M  V30 9272 C 876.111 -3.39155 1.12732 0
M  V30 9273 S 877.67 -4.28518 0.944325 0
M  V30 9274 H 874.488 -0.662394 0.25837 0
M  V30 9275 H 877.09 -1.46085 1.29921 0
M  V30 9276 H 875.794 -3.47516 2.18313 0
M  V30 9277 H 875.325 -3.89826 0.5291 0
M  V30 9278 H 877.34 -4.9596 -0.154278 0
M  V30 9279 N 876.513 -0.788492 -1.36457 0
M  V30 9280 C 877.762 -0.357052 -1.98515 0
M  V30 9281 C 878.075 1.0769 -1.63285 0
M  V30 9282 O 879.281 1.61057 -2.1857 0
M  V30 9283 C 877.737 -0.587449 -3.55073 0
M  V30 9284 C 877.345 -2.03276 -3.99228 0
M  V30 9285 C 879.089 -0.220468 -4.23927 0
M  V30 9286 C 876.996 -2.20987 -5.48561 0
M  V30 9287 H 875.926 -0.129762 -0.74275 0
M  V30 9288 H 878.577 -0.969995 -1.55767 0
M  V30 9289 H 876.959 0.0951918 -3.95886 0
M  V30 9290 H 878.133 -2.75173 -3.69617 0
M  V30 9291 H 876.448 -2.3579 -3.43208 0
M  V30 9292 H 879.045 -0.331085 -5.33674 0
M  V30 9293 H 879.388 0.831306 -4.07915 0
M  V30 9294 H 879.921 -0.856309 -3.88474 0
M  V30 9295 H 876.66 -3.24543 -5.69519 0
M  V30 9296 H 876.18 -1.53594 -5.79801 0
M  V30 9297 H 877.859 -2.01656 -6.14771 0
M  V30 9298 N 877.991 1.48044 -0.54043 0
M  V30 9299 C 879.237 2.02797 -0.0101718 0
M  V30 9300 C 879.57 1.41565 1.32939 0
M  V30 9301 O 878.845 0.565139 1.86109 0
M  V30 9302 C 879.128 3.59959 0.100758 0
M  V30 9303 C 878.981 4.31654 -1.26471 0
M  V30 9304 C 880.3 4.32347 0.822455 0
M  V30 9305 H 877.419 0.736982 -0.00517052 0
M  V30 9306 H 880.061 1.76656 -0.69948 0
M  V30 9307 H 878.211 3.82363 0.687824 0
M  V30 9308 H 879.883 4.20639 -1.89369 0
M  V30 9309 H 878.126 3.92663 -1.84386 0
M  V30 9310 H 878.797 5.401 -1.13998 0
M  V30 9311 H 881.273 4.14835 0.324164 0
M  V30 9312 H 880.149 5.41978 0.868993 0
M  V30 9313 H 880.41 4.00369 1.87501 0
M  V30 9314 N 879.47 0.276058 1.55163 0
M  V30 9315 C 880.698 -0.343772 2.04024 0
M  V30 9316 C 881.113 -1.49397 1.15438 0
M  V30 9317 O 880.47 -1.81662 0.174692 0
M  V30 9318 C 880.521 -0.823885 3.51986 0
M  V30 9319 O 880.242 0.280507 4.37201 0
M  V30 9320 C 881.743 -1.51143 4.16738 0
M  V30 9321 H 878.963 -0.07828 0.666418 0
M  V30 9322 H 881.507 0.408427 2.0038 0
M  V30 9323 H 879.662 -1.52617 3.56071 0
M  V30 9324 H 880.076 -0.0887831 5.24425 0
M  V30 9325 H 881.55 -1.79878 5.2187 0
M  V30 9326 H 882.027 -2.44327 3.64967 0
M  V30 9327 H 882.633 -0.852975 4.16659 0
M  V30 9328 N 880.948 -1.576 0.00335426 0
M  V30 9329 C 881.858 -2.12067 -1.00322 0
M  V30 9330 C 882.874 -1.06672 -1.37467 0
M  V30 9331 O 884.05 -1.38592 -1.46131 0
M  V30 9332 C 881.115 -2.61593 -2.27531 0
M  V30 9333 C 880.176 -3.81602 -1.96668 0
M  V30 9334 C 879.409 -4.28756 -3.17811 0
M  V30 9335 O 879.632 -3.75222 -4.2961 0
M  V30 9336 O 878.566 -5.20877 -3.01613 0
M  V30 9337 H 882.392 -2.98299 -0.570199 0
M  V30 9338 H 879.977 -1.47835 -0.215682 0
M  V30 9339 H 881.859 -2.93631 -3.02256 0
M  V30 9340 H 880.534 -1.78457 -2.70065 0
M  V30 9341 H 879.441 -3.54531 -1.19408 0
M  V30 9342 H 880.774 -4.65822 -1.58968 0
M  V30 9343 N 882.426 0.269451 -1.5528 0
M  V30 9344 C 883.656 1.01724 -1.79821 0
M  V30 9345 C 884.064 1.80298 -0.573532 0
M  V30 9346 O 883.407 1.77666 0.466963 0
M  V30 9347 C 883.469 2.02043 -2.97353 0
M  V30 9348 C 883.133 1.42375 -4.34256 0
M  V30 9349 C 884.13 0.837611 -5.13108 0
M  V30 9350 C 881.815 1.44988 -4.8092 0
M  V30 9351 C 883.809 0.285557 -6.3676 0
M  V30 9352 C 881.496 0.893969 -6.04526 0
M  V30 9353 C 882.494 0.312809 -6.82283 0
M  V30 9354 O 882.182 -0.234582 -8.03558 0
M  V30 9355 H 881.914 0.30604 -0.602757 0
M  V30 9356 H 884.468 0.30454 -2.0313 0
M  V30 9357 H 882.698 2.77082 -2.69745 0
M  V30 9358 H 884.387 2.6298 -3.09187 0
M  V30 9359 H 885.153 0.81009 -4.78187 0
M  V30 9360 H 881.032 1.89162 -4.20403 0
M  V30 9361 H 884.576 -0.168696 -6.97396 0
M  V30 9362 H 880.473 0.918742 -6.38928 0
M  V30 9363 H 881.241 -0.124282 -8.18406 0
M  V30 9364 N 883.904 1.48273 0.534124 0
M  V30 9365 C 885.144 1.57674 1.3007 0
M  V30 9366 C 885.508 0.243256 1.90453 0
M  V30 9367 O 886.709 0.212231 2.67961 0
M  V30 9368 C 884.98 2.68044 2.36405 0
M  V30 9369 S 886.539 2.97183 3.22843 0
M  V30 9370 H 883.357 0.55652 0.442501 0
M  V30 9371 H 885.959 1.85774 0.60896 0
M  V30 9372 H 884.663 3.63498 1.90518 0
M  V30 9373 H 884.194 2.41833 3.10291 0
M  V30 9374 H 886.209 2.36164 4.36396 0
M  V30 9375 N 885.382 -0.782676 1.36792 0
M  V30 9376 C 886.793 -1.35828 1.28092 0
M  V30 9377 C 887.144 -1.96052 -0.076315 0
M  V30 9378 O 886.269 -1.93042 -0.977935 0
M  V30 9379 C 886.864 -2.46949 2.31952 0
M  V30 9380 C 885.423 -3.00307 2.2692 0
M  V30 9381 C 884.57 -1.73436 2.16368 0
M  V30 9382 H 887.521 -0.583788 1.47572 0
M  V30 9383 H 887.542 -3.26144 1.95986 0
M  V30 9384 H 887.054 -2.03087 3.30722 0
M  V30 9385 H 885.155 -3.48571 1.31639 0
M  V30 9386 H 885.268 -3.56663 3.19887 0
M  V30 9387 H 883.632 -1.95934 1.62733 0
M  V30 9388 H 884.415 -1.31693 3.17036 0
M  V30 9389 N 886.86 -1.21182 -1.00761 0
M  V30 9390 C 888.276 -0.968607 -1.26847 0
M  V30 9391 C 888.476 0.346561 -1.98497 0
M  V30 9392 O 887.532 1.07287 -2.28573 0
M  V30 9393 C 888.845 -2.1574 -2.09467 0
M  V30 9394 C 890.393 -2.19937 -2.22703 0
M  V30 9395 C 890.868 -3.38328 -3.08704 0
M  V30 9396 N 892.359 -3.38398 -3.16293 0
M  V30 9397 C 893.094 -4.26653 -3.83086 0
M  V30 9398 N 892.59 -5.25101 -4.5193 0
M  V30 9399 N 894.383 -4.14469 -3.797 0
M  V30 9400 H 886.534 -2.05763 -0.526816 0
M  V30 9401 H 888.797 -0.90087 -0.29519 0
M  V30 9402 H 888.503 -3.11034 -1.64167 0
M  V30 9403 H 888.377 -2.14584 -3.10216 0
M  V30 9404 H 890.764 -1.25201 -2.67224 0
M  V30 9405 H 890.845 -2.25139 -1.21433 0
M  V30 9406 H 890.489 -4.33356 -2.64886 0
M  V30 9407 H 890.419 -3.30364 -4.10082 0
M  V30 9408 H 892.91 -2.67149 -2.67282 0
M  V30 9409 H 893.223 -5.8875 -5.00592 0
M  V30 9410 H 891.568 -5.29029 -4.50726 0
M  V30 9411 H 894.759 -3.3682 -3.25069 0
M  V30 9412 H 894.932 -4.83458 -4.31477 0
M  V30 9413 N 888.338 1.20213 -1.01915 0
M  V30 9414 C 889.586 1.89272 -0.708552 0
M  V30 9415 C 889.907 1.79394 0.76438 0
M  V30 9416 O 889.177 1.198 1.54999 0
M  V30 9417 H 887.757 0.700628 -0.259094 0
M  V30 9418 H 890.419 1.45985 -1.29129 0
M  V30 9419 H 889.515 2.95841 -0.994215 0
M  V30 9420 N 889.816 0.795718 1.36037 0
M  V30 9421 C 891.041 0.38204 2.03851 0
M  V30 9422 C 891.466 -0.995553 1.59594 0
M  V30 9423 O 890.824 -1.64258 0.767401 0
M  V30 9424 C 890.872 0.461248 3.57638 0
M  V30 9425 O 889.976 -0.529448 4.08987 0
M  V30 9426 H 889.317 0.161227 0.644129 0
M  V30 9427 H 891.847 1.07858 1.73861 0
M  V30 9428 H 891.857 0.32712 4.06687 0
M  V30 9429 H 890.532 1.46613 3.89201 0
M  V30 9430 H 889.109 -0.35646 3.71192 0
M  V30 9431 N 891.294 -1.47756 0.548274 0
M  V30 9432 C 892.224 -2.32702 -0.19284 0
M  V30 9433 C 893.205 -1.43237 -0.917457 0
M  V30 9434 O 894.39 -1.72103 -0.89967 0
M  V30 9435 C 891.52 -3.24831 -1.22891 0
M  V30 9436 C 890.474 -4.23466 -0.621312 0
M  V30 9437 C 889.8 -5.04856 -1.76137 0
M  V30 9438 C 891.1 -5.20616 0.419055 0
M  V30 9439 H 892.794 -2.94914 0.516323 0
M  V30 9440 H 890.34 -1.41818 0.24975 0
M  V30 9441 H 892.293 -3.83094 -1.75547 0
M  V30 9442 H 891.017 -2.60656 -1.9679 0
M  V30 9443 H 889.676 -3.66416 -0.116123 0
M  V30 9444 H 889.324 -4.37091 -2.48918 0
M  V30 9445 H 889.024 -5.71629 -1.36065 0
M  V30 9446 H 890.548 -5.65976 -2.29136 0
M  V30 9447 H 891.962 -5.73296 -0.0211034 0
M  V30 9448 H 890.359 -5.95543 0.738163 0
M  V30 9449 H 891.429 -4.66638 1.31822 0
M  V30 9450 N 892.772 -0.284283 -1.55015 0
M  V30 9451 C 893.704 0.63258 -2.20298 0
M  V30 9452 C 894.717 1.11045 -1.1905 0
M  V30 9453 O 895.906 1.03078 -1.4573 0
M  V30 9454 C 893.006 1.87599 -2.82241 0
M  V30 9455 C 892.179 1.5434 -4.09265 0
M  V30 9456 C 891.238 2.64023 -4.55169 0
M  V30 9457 O 890.264 2.29821 -5.20741 0
M  V30 9458 N 891.466 3.94255 -4.26079 0
M  V30 9459 H 894.231 0.0737928 -2.99609 0
M  V30 9460 H 891.792 -0.105767 -1.61554 0
M  V30 9461 H 893.784 2.60289 -3.0989 0
M  V30 9462 H 892.354 2.3436 -2.06868 0
M  V30 9463 H 891.574 0.649912 -3.88806 0
M  V30 9464 H 892.862 1.29634 -4.92009 0
M  V30 9465 H 892.26 4.24859 -3.73512 0
M  V30 9466 H 890.817 4.63295 -4.58477 0
M  V30 9467 N 894.251 1.57596 -0.0117121 0
M  V30 9468 C 895.528 1.82323 0.708356 0
M  V30 9469 C 895.908 0.891947 1.91331 0
M  V30 9470 O 895.256 -0.0565984 2.2843 0
M  V30 9471 C 895.466 3.31111 1.10303 0
M  V30 9472 C 896.814 3.97147 1.50199 0
M  V30 9473 O 897.838 3.35503 1.1965 0
M  V30 9474 O 896.697 5.0576 2.07049 0
M  V30 9475 H 893.791 0.751173 0.345931 0
M  V30 9476 H 896.337 1.69657 -0.0380632 0
M  V30 9477 H 895.109 3.90534 0.24467 0
M  V30 9478 H 894.732 3.48818 1.90818 0
M  V30 9479 N 895.729 -0.261212 1.5542 0
M  V30 9480 C 896.978 -0.989072 1.75785 0
M  V30 9481 C 897.291 -1.8702 0.572961 0
M  V30 9482 O 898.497 -2.63374 0.659289 0
M  V30 9483 C 896.953 -1.80857 3.11157 0
M  V30 9484 C 896.561 -0.975535 4.3725 0
M  V30 9485 C 898.305 -2.53003 3.40866 0
M  V30 9486 C 896.212 -1.7901 5.63657 0
M  V30 9487 H 895.142 -0.373019 0.655266 0
M  V30 9488 H 897.793 -0.244267 1.81867 0
M  V30 9489 H 896.175 -2.59479 2.99144 0
M  V30 9490 H 897.349 -0.232661 4.60212 0
M  V30 9491 H 895.664 -0.368083 4.1477 0
M  V30 9492 H 898.261 -3.14372 4.32521 0
M  V30 9493 H 898.604 -3.23891 2.61535 0
M  V30 9494 H 899.137 -1.81403 3.54031 0
M  V30 9495 H 895.876 -1.12522 6.4577 0
M  V30 9496 H 895.396 -2.50863 5.44819 0
M  V30 9497 H 897.075 -2.36082 6.0239 0
M  V30 9498 N 897.207 -1.48554 -0.526253 0
M  V30 9499 C 898.137 -1.66252 -1.63959 0
M  V30 9500 C 899.118 -0.511351 -1.62232 0
M  V30 9501 O 900.303 -0.744322 -1.7937 0
M  V30 9502 C 897.433 -1.70556 -3.02536 0
M  V30 9503 C 896.387 -2.8521 -3.19123 0
M  V30 9504 C 895.713 -2.74606 -4.58798 0
M  V30 9505 C 897.013 -4.26463 -3.0154 0
M  V30 9506 H 898.707 -2.59459 -1.49404 0
M  V30 9507 H 896.253 -1.24862 -0.717326 0
M  V30 9508 H 898.206 -1.81524 -3.80298 0
M  V30 9509 H 896.93 -0.739297 -3.18123 0
M  V30 9510 H 895.589 -2.73802 -2.43779 0
M  V30 9511 H 895.237 -1.75941 -4.71226 0
M  V30 9512 H 894.937 -3.51544 -4.70841 0
M  V30 9513 H 896.461 -2.87548 -5.38655 0
M  V30 9514 H 897.875 -4.38685 -3.69091 0
M  V30 9515 H 896.272 -5.04428 -3.25073 0
M  V30 9516 H 897.342 -4.42667 -1.97925 0
M  V30 9517 N 898.685 0.775411 -1.37205 0
M  V30 9518 C 899.595 1.91967 -1.34855 0
M  V30 9519 C 900.611 1.72214 -0.248656 0
M  V30 9520 O 901.787 1.95512 -0.483421 0
M  V30 9521 C 898.852 3.27038 -1.15096 0
M  V30 9522 C 897.913 3.5947 -2.34691 0
M  V30 9523 C 897.146 4.88097 -2.15865 0
M  V30 9524 O 897.369 5.58871 -1.14102 0
M  V30 9525 O 896.303 5.19507 -3.03967 0
M  V30 9526 H 900.129 1.969 -2.31223 0
M  V30 9527 H 897.714 0.917647 -1.17897 0
M  V30 9528 H 899.596 4.07837 -1.0605 0
M  V30 9529 H 898.271 3.22965 -0.217999 0
M  V30 9530 H 897.178 2.7892 -2.49308 0
M  V30 9531 H 898.511 3.68282 -3.26541 0
M  V30 9532 N 900.163 1.21714 1.00117 0
M  V30 9533 C 901.111 0.976937 2.11089 0
M  V30 9534 C 902.105 -0.0771295 1.69224 0
M  V30 9535 O 903.311 0.0745945 1.79845 0
M  V30 9536 H 899.686 0.298687 0.690138 0
M  V30 9537 H 901.657 1.91881 2.28526 0
M  V30 9538 C 900.406 0.562369 3.43122 0
M  V30 9539 H 899.729 1.36509 3.75773 0
M  V30 9540 H 901.169 0.433642 4.21777 0
M  V30 9541 C 899.628 -0.727148 3.28959 0
M  V30 9542 O 900.158 -1.78171 3.60025 0
M  V30 9543 N 898.364 -0.695129 2.82164 0
M  V30 9544 H 897.911 0.163346 2.57082 0
M  V30 9545 H 897.869 -1.55822 2.73069 0
M  V30 9546 N 901.641 -1.19671 1.02551 0
M  V30 9547 C 902.918 -1.85014 0.634771 0
M  V30 9548 C 903.298 -1.91574 -0.886706 0
M  V30 9549 O 902.646 -1.43022 -1.78205 0
M  V30 9550 C 902.856 -3.24167 1.29292 0
M  V30 9551 C 904.204 -4.00363 1.41402 0
M  V30 9552 O 905.228 -3.33553 1.24983 0
M  V30 9553 O 904.087 -5.2003 1.6802 0
M  V30 9554 H 901.181 -0.797147 0.220196 0
M  V30 9555 H 903.727 -1.27188 1.12345 0
M  V30 9556 H 902.499 -3.14208 2.33215 0
M  V30 9557 H 902.122 -3.89634 0.791895 0
M  V30 9558 N 903.119 -0.802921 -1.35613 0
M  V30 9559 C 904.344 -0.392846 -2.03645 0
M  V30 9560 C 904.769 0.987075 -1.6012 0
M  V30 9561 O 904.127 1.63849 -0.776101 0
M  V30 9562 C 904.175 -0.480208 -3.57388 0
M  V30 9563 O 903.279 0.507751 -4.09262 0
M  V30 9564 H 902.62 -0.16464 -0.643265 0
M  V30 9565 H 905.15 -1.08779 -1.73287 0
M  V30 9566 H 905.16 -0.348683 -4.06507 0
M  V30 9567 H 903.835 -1.48675 -3.88418 0
M  V30 9568 H 902.412 0.336769 -3.71376 0
M  V30 9569 N 904.597 1.47463 -0.556102 0
M  V30 9570 C 905.846 2.01678 -0.029492 0
M  V30 9571 C 906.159 1.436 1.32809 0
M  V30 9572 O 907.365 1.89472 1.94455 0
M  V30 9573 C 905.821 3.599 -0.00223937 0
M  V30 9574 C 905.429 4.26969 -1.35651 0
M  V30 9575 C 907.173 4.2187 0.471822 0
M  V30 9576 C 905.08 5.77194 -1.28843 0
M  V30 9577 H 904.01 0.753965 -0.00725504 0
M  V30 9578 H 906.661 1.69467 -0.703789 0
M  V30 9579 H 905.043 3.89068 0.737682 0
M  V30 9580 H 906.217 4.09444 -2.11406 0
M  V30 9581 H 904.532 3.76983 -1.76842 0
M  V30 9582 H 907.129 5.31955 0.541139 0
M  V30 9583 H 907.472 3.88968 1.48356 0
M  V30 9584 H 908.005 3.97228 -0.213207 0
M  V30 9585 H 904.744 6.14713 -2.27613 0
M  V30 9586 H 904.264 5.9706 -0.572668 0
M  V30 9587 H 905.943 6.3938 -0.990031 0
M  V30 9588 N 906.075 0.2925 1.54862 0
M  V30 9589 C 907.023 -0.603186 2.24643 0
M  V30 9590 C 908.017 -1.1439 1.24946 0
M  V30 9591 O 909.223 -1.09552 1.42823 0
M  V30 9592 H 905.598 -0.213105 0.721173 0
M  V30 9593 H 907.569 0.00799278 2.98399 0
M  V30 9594 C 906.318 -1.76769 2.99413 0
M  V30 9595 H 905.641 -1.36084 3.75927 0
M  V30 9596 H 907.081 -2.37066 3.51533 0
M  V30 9597 C 905.54 -2.66669 2.05886 0
M  V30 9598 O 906.07 -3.67525 1.62136 0
M  V30 9599 N 904.276 -2.34216 1.7202 0
M  V30 9600 H 903.823 -1.52246 2.07795 0
M  V30 9601 H 903.781 -2.94635 1.09717 0
M  V30 9602 N 907.553 -1.57587 0.0200696 0
M  V30 9603 C 908.483 -2.12702 -0.963333 0
M  V30 9604 C 909.464 -1.04094 -1.34531 0
M  V30 9605 O 910.649 -1.31881 -1.42552 0
M  V30 9606 C 907.779 -2.64673 -2.24868 0
M  V30 9607 C 906.733 -3.77987 -2.00772 0
M  V30 9608 C 906.059 -4.16351 -3.35494 0
M  V30 9609 C 907.359 -5.0444 -1.35416 0
M  V30 9610 H 909.053 -2.95121 -0.504363 0
M  V30 9611 H 906.599 -1.41966 -0.24116 0
M  V30 9612 H 908.552 -3.01862 -2.94036 0
M  V30 9613 H 907.276 -1.79403 -2.72914 0
M  V30 9614 H 905.935 -3.41223 -1.34025 0
M  V30 9615 H 905.583 -3.28075 -3.81282 0
M  V30 9616 H 905.283 -4.92705 -3.20181 0
M  V30 9617 H 906.807 -4.56115 -4.05945 0
M  V30 9618 H 908.221 -5.39273 -1.94571 0
M  V30 9619 H 906.618 -5.85732 -1.30529 0
M  V30 9620 H 907.688 -4.83803 -0.325923 0
M  V30 9621 N 909.032 0.252966 -1.55557 0
M  V30 9622 C 910.309 1.00432 -1.67847 0
M  V30 9623 C 910.689 2.03587 -0.55816 0
M  V30 9624 O 910.037 2.24239 0.439197 0
M  V30 9625 C 910.247 1.64313 -3.079 0
M  V30 9626 C 911.595 2.14726 -3.66303 0
M  V30 9627 O 912.619 1.74264 -3.10661 0
M  V30 9628 O 911.478 2.89 -4.63833 0
M  V30 9629 H 908.572 0.467102 -0.682455 0
M  V30 9630 H 911.118 0.247233 -1.67889 0
M  V30 9631 H 909.89 0.896681 -3.80888 0
M  V30 9632 H 909.513 2.46657 -3.11843 0
M  V30 9633 N 910.51 1.48831 0.518367 0
M  V30 9634 C 911.756 1.58649 1.27287 0
M  V30 9635 C 912.111 0.262085 1.90607 0
M  V30 9636 O 911.404 -0.736154 1.76894 0
M  V30 9637 C 911.598 2.67003 2.3758 0
M  V30 9638 C 911.427 4.09851 1.85073 0
M  V30 9639 C 910.197 4.76852 1.67154 0
M  V30 9640 C 912.395 4.95646 1.37256 0
M  V30 9641 N 910.377 6.04075 1.09394 0
M  V30 9642 C 911.748 6.13208 0.915189 0
M  V30 9643 C 913.803 4.8178 1.25666 0
M  V30 9644 C 912.506 7.18431 0.353411 0
M  V30 9645 C 914.532 5.87136 0.708873 0
M  V30 9646 C 913.894 7.03914 0.261642 0
M  V30 9647 H 909.993 0.635017 0.456374 0
M  V30 9648 H 912.577 1.85763 0.583097 0
M  V30 9649 H 910.748 2.41691 3.04039 0
M  V30 9650 H 912.48 2.6644 3.04617 0
M  V30 9651 H 909.235 4.3337 1.91017 0
M  V30 9652 H 909.659 6.71955 0.824917 0
M  V30 9653 H 914.301 3.91826 1.58846 0
M  V30 9654 H 912.019 8.08099 0.00931313 0
M  V30 9655 H 915.605 5.78463 0.622221 0
M  V30 9656 H 914.485 7.84046 -0.155634 0
M  V30 9657 N 911.988 -0.768124 1.37614 0
M  V30 9658 C 912.921 -1.88894 1.2804 0
M  V30 9659 C 913.899 -1.61809 0.160226 0
M  V30 9660 O 915.083 -1.85498 0.33506 0
M  V30 9661 C 912.21 -3.24197 0.980523 0
M  V30 9662 C 911.256 -3.70188 2.11808 0
M  V30 9663 S 912.089 -3.83433 3.73817 0
M  V30 9664 C 913.245 -5.21578 3.45987 0
M  V30 9665 H 913.478 -1.96726 2.22904 0
M  V30 9666 H 911.011 -0.929602 1.23279 0
M  V30 9667 H 912.969 -4.02342 0.814331 0
M  V30 9668 H 911.63 -3.14061 0.0493122 0
M  V30 9669 H 910.823 -4.6829 1.86335 0
M  V30 9670 H 910.425 -2.99155 2.2446 0
M  V30 9671 H 912.717 -6.06865 3.012 0
M  V30 9672 H 913.66 -5.52065 4.43429 0
M  V30 9673 H 914.068 -4.89687 2.80832 0
M  V30 9674 N 913.466 -1.22244 -0.994698 0
M  V30 9675 C 914.713 -1.04591 -1.73398 0
M  V30 9676 C 915.041 0.419223 -1.89928 0
M  V30 9677 O 914.296 1.32714 -1.43824 0
M  V30 9678 C 914.595 -1.70014 -3.14372 0
M  V30 9679 C 914.261 -3.19903 -3.17762 0
M  V30 9680 C 912.923 -3.60803 -3.18394 0
M  V30 9681 C 915.275 -4.15851 -3.14194 0
M  V30 9682 C 912.603 -4.96135 -3.13157 0
M  V30 9683 C 914.955 -5.51157 -3.10498 0
M  V30 9684 C 913.619 -5.91439 -3.09445 0
M  V30 9685 H 912.889 -0.382725 -0.63451 0
M  V30 9686 H 915.536 -1.51981 -1.16508 0
M  V30 9687 H 913.841 -1.14945 -3.7456 0
M  V30 9688 H 915.538 -1.53848 -3.70313 0
M  V30 9689 H 912.128 -2.87336 -3.18019 0
M  V30 9690 H 916.312 -3.85272 -3.12857 0
M  V30 9691 H 911.568 -5.26578 -3.10685 0
M  V30 9692 H 915.742 -6.2523 -3.06692 0
M  V30 9693 H 913.369 -6.96271 -3.05141 0
M  V30 9694 N 914.944 1.19125 -1.03184 0
M  V30 9695 C 916.36 1.40909 -0.749447 0
M  V30 9696 C 916.56 1.9022 0.664729 0
M  V30 9697 O 915.616 2.08085 1.43028 0
M  V30 9698 C 916.929 2.41761 -1.78807 0
M  V30 9699 C 918.477 2.55503 -1.80796 0
M  V30 9700 C 918.952 3.59612 -2.83626 0
M  V30 9701 N 920.443 3.6711 -2.82461 0
M  V30 9702 C 921.178 4.47366 -3.5868 0
M  V30 9703 N 920.674 5.31302 -4.44623 0
M  V30 9704 N 922.467 4.42044 -3.47208 0
M  V30 9705 H 914.618 0.854399 -1.94458 0
M  V30 9706 H 916.881 0.437753 -0.840878 0
M  V30 9707 H 916.587 2.12559 -2.80199 0
M  V30 9708 H 916.461 3.40981 -1.61283 0
M  V30 9709 H 918.848 2.84027 -0.800803 0
M  V30 9710 H 918.929 1.56427 -2.02396 0
M  V30 9711 H 918.573 3.3183 -3.84515 0
M  V30 9712 H 918.503 4.58345 -2.59283 0
M  V30 9713 H 920.994 3.07166 -2.2013 0
M  V30 9714 H 921.307 5.89667 -4.99512 0
M  V30 9715 H 919.652 5.30753 -4.48694 0
M  V30 9716 H 922.843 3.75513 -2.79477 0
M  V30 9717 H 923.016 5.0435 -4.06859 0
M  V30 9718 N 916.422 0.810101 1.35185 0
M  V30 9719 C 917.652 0.404109 2.02609 0
M  V30 9720 C 918.06 -0.990748 1.61186 0
M  V30 9721 O 917.403 -1.65038 0.80674 0
M  V30 9722 C 917.465 0.412047 3.57131 0
M  V30 9723 C 917.129 1.75802 4.21832 0
M  V30 9724 C 918.126 2.71687 4.43263 0
M  V30 9725 C 915.811 2.04299 4.58876 0
M  V30 9726 C 917.805 3.9425 5.00845 0
M  V30 9727 C 915.492 3.27125 5.16171 0
M  V30 9728 C 916.49 4.21918 5.37098 0
M  V30 9729 O 916.178 5.42576 5.93184 0
M  V30 9730 H 915.91 0.161914 0.656323 0
M  V30 9731 H 918.464 1.09605 1.73712 0
M  V30 9732 H 916.694 -0.336509 3.85233 0
M  V30 9733 H 918.383 0.0278817 4.0589 0
M  V30 9734 H 919.149 2.50964 4.15021 0
M  V30 9735 H 915.028 1.31324 4.41899 0
M  V30 9736 H 918.572 4.68251 5.17094 0
M  V30 9737 H 914.469 3.47718 5.43841 0
M  V30 9738 H 915.237 5.43921 6.11631 0
M  V30 9739 N 917.9 -1.47166 0.563914 0
M  V30 9740 C 919.125 -2.0735 0.0454698 0
M  V30 9741 C 919.55 -1.41281 -1.24182 0
M  V30 9742 O 918.908 -0.490084 -1.7455 0
M  V30 9743 C 918.956 -3.60378 -0.126453 0
M  V30 9744 O 918.06 -3.94934 -1.18746 0
M  V30 9745 H 917.401 -0.661773 0.0543377 0
M  V30 9746 H 919.931 -1.89086 0.781508 0
M  V30 9747 H 919.941 -4.06593 -0.338554 0
M  V30 9748 H 918.616 -4.07862 0.81373 0
M  V30 9749 H 917.193 -3.60455 -0.955318 0
M  V30 9750 N 919.378 -0.300708 -1.54705 0
M  V30 9751 C 920.308 0.568675 -2.26469 0
M  V30 9752 C 921.289 1.13817 -1.26411 0
M  V30 9753 O 922.474 1.16756 -1.55183 0
M  V30 9754 C 919.604 1.74077 -3.00524 0
M  V30 9755 C 918.558 1.30165 -4.07727 0
M  V30 9756 C 917.884 2.55888 -4.69495 0
M  V30 9757 C 919.184 0.433106 -5.20501 0
M  V30 9758 H 920.878 -0.0298851 -2.99385 0
M  V30 9759 H 918.424 -0.0158135 -1.43991 0
M  V30 9760 H 920.377 2.35506 -3.49449 0
M  V30 9761 H 919.101 2.36556 -2.25186 0
M  V30 9762 H 917.76 0.710414 -3.59651 0
M  V30 9763 H 917.408 3.16681 -3.90797 0
M  V30 9764 H 917.108 2.27207 -5.41895 0
M  V30 9765 H 918.632 3.18121 -5.21183 0
M  V30 9766 H 920.046 0.95307 -5.65322 0
M  V30 9767 H 918.443 0.240085 -5.9962 0
M  V30 9768 H 919.513 -0.541866 -4.81863 0
M  V30 9769 N 920.856 1.57574 -0.0284266 0
M  V30 9770 C 922.105 1.9095 0.649704 0
M  V30 9771 C 922.418 0.906421 1.7333 0
M  V30 9772 O 923.624 1.1314 2.46803 0
M  V30 9773 C 922.08 3.39061 1.20687 0
M  V30 9774 C 921.688 4.47726 0.156597 0
M  V30 9775 C 923.432 3.81505 1.86156 0
M  V30 9776 C 921.339 5.86935 0.725365 0
M  V30 9777 H 920.269 0.712589 0.24644 0
M  V30 9778 H 922.92 1.83261 -0.0936143 0
M  V30 9779 H 921.302 3.41679 2.00178 0
M  V30 9780 H 922.476 4.56667 -0.6158 0
M  V30 9781 H 920.791 4.14481 -0.399288 0
M  V30 9782 H 923.388 4.82865 2.29665 0
M  V30 9783 H 923.731 3.16529 2.70398 0
M  V30 9784 H 924.264 3.81307 1.13356 0
M  V30 9785 H 921.003 6.55453 -0.0789081 0
M  V30 9786 H 920.523 5.81602 1.46627 0
M  V30 9787 H 922.202 6.35483 1.21532 0
M  V30 9788 N 922.334 -0.244713 1.55689 0
M  V30 9789 C 923.282 -1.32276 1.91326 0
M  V30 9790 C 924.276 -1.49714 0.792589 0
M  V30 9791 O 925.482 -1.51163 0.977227 0
M  V30 9792 H 921.857 -0.442979 0.607679 0
M  V30 9793 H 923.828 -0.99486 2.81327 0
M  V30 9794 C 922.577 -2.67077 2.22633 0
M  V30 9795 H 921.9 -2.54458 3.08368 0
M  V30 9796 H 923.34 -3.41378 2.5147 0
M  V30 9797 C 921.799 -3.20335 1.04342 0
M  V30 9798 O 922.329 -4.00633 0.292543 0
M  V30 9799 N 920.535 -2.78392 0.833457 0
M  V30 9800 H 920.082 -2.13202 1.44577 0
M  V30 9801 H 920.04 -3.1437 0.0436713 0
M  V30 9802 N 923.813 -1.49104 -0.510467 0
M  V30 9803 C 925.09 -1.48609 -1.27179 0
M  V30 9804 C 925.47 -0.208537 -2.10067 0
M  V30 9805 O 924.818 0.809335 -2.13687 0
M  V30 9806 C 925.028 -2.75953 -2.1366 0
M  V30 9807 C 926.376 -3.25067 -2.73161 0
M  V30 9808 O 927.4 -2.77005 -2.23934 0
M  V30 9809 O 926.259 -4.08747 -3.62751 0
M  V30 9810 H 923.353 -0.594374 -0.57502 0
M  V30 9811 H 925.899 -1.61358 -0.525515 0
M  V30 9812 H 924.671 -3.60434 -1.52325 0
M  V30 9813 H 924.294 -2.66019 -2.95499 0
M  V30 9814 N 925.291 0.760815 -1.38019 0
M  V30 9815 C 926.221 1.88811 -1.37377 0
M  V30 9816 C 927.202 1.68388 -0.240737 0
M  V30 9817 O 928.387 1.89086 -0.442739 0
M  V30 9818 C 925.517 3.26244 -1.1909 0
M  V30 9819 C 924.471 3.61254 -2.29521 0
M  V30 9820 C 923.797 4.97346 -1.96345 0
M  V30 9821 C 925.097 3.66874 -3.71753 0
M  V30 9822 H 926.791 1.89606 -2.31711 0
M  V30 9823 H 924.337 0.910818 -1.11535 0
M  V30 9824 H 926.29 4.04755 -1.17267 0
M  V30 9825 H 925.014 3.2591 -0.212152 0
M  V30 9826 H 923.673 2.85057 -2.30517 0
M  V30 9827 H 923.321 4.93564 -0.969728 0
M  V30 9828 H 923.021 5.21739 -2.703 0
M  V30 9829 H 924.545 5.78244 -1.96129 0
M  V30 9830 H 925.959 4.35514 -3.72828 0
M  V30 9831 H 924.356 4.02772 -4.44853 0
M  V30 9832 H 925.426 2.67273 -4.0459 0
M  V30 9833 N 926.769 1.22769 0.988202 0
M  V30 9834 C 928.015 1.05665 1.73097 0
M  V30 9835 C 928.348 -0.406615 1.89895 0
M  V30 9836 O 927.623 -1.30132 1.44554 0
M  V30 9837 C 927.906 1.77381 3.13382 0
M  V30 9838 C 927.759 3.31332 3.04203 0
M  V30 9839 C 929.078 1.52999 4.12649 0
M  V30 9840 H 926.197 0.385258 0.628288 0
M  V30 9841 H 928.839 1.51171 1.15097 0
M  V30 9842 H 926.989 1.38696 3.62899 0
M  V30 9843 H 928.661 3.79489 2.6227 0
M  V30 9844 H 926.904 3.60767 2.40894 0
M  V30 9845 H 927.575 3.76692 4.03493 0
M  V30 9846 H 930.051 1.86611 3.71908 0
M  V30 9847 H 928.927 2.05666 5.08913 0
M  V30 9848 H 929.188 0.463615 4.39662 0
M  V30 9849 N 928.247 -1.18576 1.03814 0
M  V30 9850 C 929.194 -2.2212 0.626988 0
M  V30 9851 C 930.164 -1.62064 -0.363912 0
M  V30 9852 O 931.349 -1.89041 -0.258469 0
M  V30 9853 C 928.489 -3.45099 -0.00650133 0
M  V30 9854 C 927.602 -4.19503 1.03156 0
M  V30 9855 C 926.737 -5.29932 0.366852 0
M  V30 9856 C 925.776 -5.96104 1.39018 0
M  V30 9857 N 924.913 -6.98076 0.750625 0
M  V30 9858 H 929.753 -2.56646 1.51449 0
M  V30 9859 H 927.29 -1.26084 0.757702 0
M  V30 9860 H 929.248 -4.15363 -0.391108 0
M  V30 9861 H 927.878 -3.11201 -0.857536 0
M  V30 9862 H 926.93 -3.48092 1.53414 0
M  V30 9863 H 928.242 -4.64843 1.80893 0
M  V30 9864 H 927.396 -6.06657 -0.0720979 0
M  V30 9865 H 926.135 -4.85687 -0.442631 0
M  V30 9866 H 925.14 -5.18122 1.8393 0
M  V30 9867 H 926.365 -6.42432 2.20132 0
M  V30 9868 H 924.311 -6.55989 -0.0385981 0
M  V30 9869 H 924.228 -7.41655 1.46574 0
M  V30 9870 H 925.496 -7.78776 0.335986 0
M  V30 9871 N 929.725 -0.817259 -1.34754 0
M  V30 9872 C 930.973 -0.401852 -1.98065 0
M  V30 9873 C 931.294 1.03718 -1.65129 0
M  V30 9874 O 930.564 1.71921 -0.939141 0
M  V30 9875 H 929.144 -0.145603 -0.732672 0
M  V30 9876 H 931.806 -1.04545 -1.64488 0
M  V30 9877 H 930.902 -0.516241 -3.07801 0
M  V30 9878 N 931.203 1.46865 -0.571711 0
M  V30 9879 C 932.136 2.27176 0.215944 0
M  V30 9880 C 933.114 1.34951 0.907035 0
M  V30 9881 O 934.298 1.64349 0.923127 0
M  V30 9882 C 931.425 3.12388 1.30888 0
M  V30 9883 C 930.471 4.20296 0.724804 0
M  V30 9884 S 931.304 5.33691 -0.439839 0
M  V30 9885 C 932.46 6.22468 0.654564 0
M  V30 9886 H 932.693 2.93633 -0.465518 0
M  V30 9887 H 930.226 1.50184 -0.358351 0
M  V30 9888 H 932.184 3.62049 1.93471 0
M  V30 9889 H 930.845 2.45265 1.96224 0
M  V30 9890 H 930.038 4.79703 1.54599 0
M  V30 9891 H 929.64 3.73591 0.174861 0
M  V30 9892 H 931.932 6.59694 1.54304 0
M  V30 9893 H 932.875 7.08033 0.0975111 0
M  V30 9894 H 933.283 5.56384 0.953762 0
M  V30 9895 N 932.681 0.308908 1.54543 0
M  V30 9896 C 933.644 -0.550857 2.22482 0
M  V30 9897 C 934.644 -1.0551 1.21344 0
M  V30 9898 O 935.834 -0.949866 1.46025 0
M  V30 9899 C 932.966 -1.76354 2.9174 0
M  V30 9900 H 934.159 0.0428395 2.99869 0
M  V30 9901 H 931.712 0.059825 1.56185 0
M  V30 9902 H 932.447 -2.39686 2.18451 0
M  V30 9903 H 932.232 -1.40954 3.65889 0
M  V30 9904 H 933.722 -2.37417 3.43545 0
M  V30 9905 N 934.159 -1.57557 0.0367827 0
M  V30 9906 C 935.406 -1.92114 -0.640185 0
M  V30 9907 C 935.734 -0.913887 -1.71693 0
M  V30 9908 O 934.989 0.0760343 -1.95552 0
M  V30 9909 C 935.288 -3.33387 -1.28794 0
M  V30 9910 C 934.954 -4.4961 -0.340819 0
M  V30 9911 C 933.616 -4.81133 -0.0801574 0
M  V30 9912 C 935.968 -5.20283 0.309106 0
M  V30 9913 C 933.296 -5.80683 0.838107 0
M  V30 9914 C 935.648 -6.20813 1.21547 0
M  V30 9915 C 934.312 -6.50773 1.48495 0
M  V30 9916 H 933.582 -0.702996 -0.23426 0
M  V30 9917 H 936.229 -1.91238 0.100188 0
M  V30 9918 H 934.534 -3.30561 -2.10324 0
M  V30 9919 H 936.231 -3.57399 -1.81843 0
M  V30 9920 H 932.821 -4.25002 -0.554161 0
M  V30 9921 H 937.005 -4.96153 0.120794 0
M  V30 9922 H 932.261 -6.02238 1.05451 0
M  V30 9923 H 936.435 -6.74692 1.72522 0
M  V30 9924 H 934.062 -7.27727 2.19814 0
M  V30 9925 N 935.637 0.236453 -1.55816 0
M  V30 9926 C 936.567 1.29639 -1.94206 0
M  V30 9927 C 937.548 1.49667 -0.808319 0
M  V30 9928 O 938.733 1.621 -1.06945 0
M  V30 9929 C 935.863 2.64914 -2.24584 0
M  V30 9930 C 934.817 2.59565 -3.40308 0
M  V30 9931 C 934.143 3.98732 -3.56254 0
M  V30 9932 C 935.443 2.15642 -4.75706 0
M  V30 9933 H 937.137 0.977552 -2.82992 0
M  V30 9934 H 934.683 0.468804 -1.36155 0
M  V30 9935 H 936.636 3.39209 -2.50031 0
M  V30 9936 H 935.36 2.98455 -1.32636 0
M  V30 9937 H 934.019 1.87728 -3.14887 0
M  V30 9938 H 933.667 4.29556 -2.61707 0
M  V30 9939 H 933.367 3.96039 -4.34082 0
M  V30 9940 H 934.891 4.74711 -3.84033 0
M  V30 9941 H 936.305 2.79673 -5.00456 0
M  V30 9942 H 934.702 2.24039 -5.56711 0
M  V30 9943 H 935.772 1.10831 -4.72064 0
M  V30 9944 N 937.115 1.49373 0.502552 0
M  V30 9945 C 938.065 1.62321 1.60112 0
M  V30 9946 C 939.049 0.47895 1.53606 0
M  V30 9947 O 940.241 0.731824 1.61162 0
M  V30 9948 C 937.37 1.69162 2.98729 0
M  V30 9949 C 936.456 2.89161 3.10237 0
M  V30 9950 N 936.847 4.13256 2.91638 0
M  V30 9951 C 935.145 2.87065 3.41335 0
M  V30 9952 C 935.846 4.93913 3.07287 0
M  V30 9953 N 934.822 4.27249 3.36094 0
M  V30 9954 H 938.624 2.55989 1.44384 0
M  V30 9955 H 936.138 1.46123 0.708644 0
M  V30 9956 H 938.135 1.76536 3.77678 0
M  V30 9957 H 936.795 0.766301 3.15528 0
M  V30 9958 H 937.806 4.4326 2.67844 0
M  V30 9959 H 934.483 2.03905 3.6432 0
M  V30 9960 H 935.873 6.02491 2.97413 0
M  V30 9961 N 938.594 -0.753485 1.38421 0
M  V30 9962 C 939.542 -1.8886 1.35774 0
M  V30 9963 C 940.536 -1.67639 0.243608 0
M  V30 9964 O 941.742 -1.75206 0.412649 0
M  V30 9965 H 938.117 -0.62137 0.42356 0
M  V30 9966 H 940.088 -1.88209 2.3156 0
M  V30 9967 C 938.837 -3.26344 1.19979 0
M  V30 9968 H 938.16 -3.43259 2.04971 0
M  V30 9969 H 939.6 -4.06015 1.22181 0
M  V30 9970 C 938.059 -3.36771 -0.0932867 0
M  V30 9971 O 938.589 -3.8718 -1.07027 0
M  V30 9972 N 936.795 -2.90212 -0.150154 0
M  V30 9973 H 936.342 -2.4938 0.645562 0
M  V30 9974 H 936.3 -2.97569 -1.0149 0
M  V30 9975 N 940.072 -1.23292 -0.981677 0
M  V30 9976 C 941.297 -1.09176 -1.76339 0
M  V30 9977 C 941.722 0.352726 -1.84763 0
M  V30 9978 O 941.08 1.25509 -1.30832 0
M  V30 9979 C 941.128 -1.72046 -3.16911 0
M  V30 9980 O 940.232 -0.98174 -4.00544 0
M  V30 9981 H 939.573 -0.382755 -0.542581 0
M  V30 9982 H 942.103 -1.63319 -1.23239 0
M  V30 9983 H 942.113 -1.77232 -3.67495 0
M  V30 9984 H 940.788 -2.77154 -3.10095 0
M  V30 9985 H 939.365 -1.00672 -3.59054 0
M  V30 9986 N 941.55 1.18024 -1.04442 0
M  V30 9987 C 942.799 1.8743 -0.745185 0
M  V30 9988 C 943.112 1.81459 0.730206 0
M  V30 9989 O 944.318 2.46263 1.1431 0
M  V30 9990 C 942.774 3.36266 -1.28271 0
M  V30 9991 C 942.382 3.50757 -2.787 0
M  V30 9992 C 944.126 4.11048 -1.06018 0
M  V30 9993 C 942.033 4.93573 -3.25791 0
M  V30 9994 H 940.963 0.702038 -0.27506 0
M  V30 9995 H 943.614 1.33333 -1.26073 0
M  V30 9996 H 941.996 3.89853 -0.695002 0
M  V30 9997 H 943.17 3.07423 -3.43261 0
M  V30 9998 H 941.485 2.89385 -2.99408 0
M  V30 9999 H 944.082 5.16395 -1.38711 0
M  V30 10000 H 944.425 4.163 0.00241716 0
M  V30 10001 H 944.958 3.63644 -1.61269 0
M  V30 10002 H 941.697 4.93491 -4.31447 0
M  V30 10003 H 941.217 5.37607 -2.65968 0
M  V30 10004 H 942.896 5.62307 -3.20031 0
M  V30 10005 N 943.028 0.824394 1.34319 0
M  V30 10006 C 944.277 0.40956 1.97498 0
M  V30 10007 C 944.59 -1.03323 1.66083 0
M  V30 10008 O 945.796 -1.55205 2.22764 0
M  V30 10009 C 944.252 0.681384 3.53391 0
M  V30 10010 C 943.86 2.1379 3.93698 0
M  V30 10011 C 945.604 0.332788 4.23194 0
M  V30 10012 C 943.511 2.35453 5.42509 0
M  V30 10013 H 942.441 0.149409 0.739049 0
M  V30 10014 H 945.092 1.01095 1.5314 0
M  V30 10015 H 943.474 0.00980375 3.95999 0
M  V30 10016 H 944.648 2.84876 3.62191 0
M  V30 10017 H 942.963 2.44807 3.36836 0
M  V30 10018 H 945.56 0.472463 5.32609 0
M  V30 10019 H 945.903 -0.722862 4.09976 0
M  V30 10020 H 946.436 0.959005 3.86067 0
M  V30 10021 H 943.175 3.39529 5.60714 0
M  V30 10022 H 942.695 1.68912 5.75525 0
M  V30 10023 H 944.374 2.17885 6.09209 0
M  V30 10024 N 944.506 -1.46559 0.579492 0
M  V30 10025 C 945.731 -2.0729 0.0674595 0
M  V30 10026 C 946.156 -1.4259 -1.22677 0
M  V30 10027 O 945.514 -0.50857 -1.74021 0
M  V30 10028 C 945.562 -3.60492 -0.0882227 0
M  V30 10029 O 944.666 -3.96172 -1.14551 0
M  V30 10030 H 944.007 -0.661159 0.0613536 0
M  V30 10031 H 946.537 -1.88247 0.801519 0
M  V30 10032 H 946.547 -4.06929 -0.295411 0
M  V30 10033 H 945.222 -4.06976 0.856943 0
M  V30 10034 H 943.799 -3.61448 -0.917033 0
M  V30 10035 N 945.984 -0.3171 -1.54377 0
M  V30 10036 C 947.209 0.292311 -2.0533 0
M  V30 10037 C 947.634 1.45503 -1.19207 0
M  V30 10038 O 946.992 1.80197 -0.199721 0
M  V30 10039 C 947.04 0.710787 -3.53525 0
M  V30 10040 O 946.144 1.81387 -3.70368 0
M  V30 10041 H 945.485 0.0539976 -0.661801 0
M  V30 10042 H 948.015 -0.463629 -1.99278 0
M  V30 10043 H 948.025 0.995216 -3.95676 0
M  V30 10044 H 946.7 -0.139668 -4.15665 0
M  V30 10045 H 945.277 1.52875 -3.40123 0
M  V30 10046 N 947.462 1.57535 -0.0451378 0
M  V30 10047 C 948.412 2.07683 0.940829 0
M  V30 10048 C 949.396 0.9807 1.27558 0
M  V30 10049 O 950.588 1.2441 1.25901 0
M  V30 10050 C 947.717 2.62049 2.21778 0
M  V30 10051 C 946.803 3.78621 1.91068 0
M  V30 10052 N 947.194 4.88623 1.30694 0
M  V30 10053 C 945.492 3.87411 2.20972 0
M  V30 10054 C 946.193 5.69714 1.17478 0
M  V30 10055 N 945.169 5.17129 1.67566 0
M  V30 10056 H 948.971 2.90129 0.469267 0
M  V30 10057 H 946.485 1.61615 0.159472 0
M  V30 10058 H 948.482 2.96276 2.93302 0
M  V30 10059 H 947.142 1.81039 2.69546 0
M  V30 10060 H 948.153 5.08545 0.979907 0
M  V30 10061 H 944.83 3.17335 2.71302 0
M  V30 10062 H 946.22 6.68174 0.706574 0
M  V30 10063 N 948.94 -0.228186 1.55939 0
M  V30 10064 C 950.188 -0.951668 1.78291 0
M  V30 10065 C 950.509 -1.85132 0.612474 0
M  V30 10066 O 949.779 -1.92356 -0.370942 0
M  V30 10067 H 948.359 -0.354388 0.657585 0
M  V30 10068 H 951.021 -0.241635 1.93396 0
M  V30 10069 H 950.117 -1.56239 2.70177 0
M  V30 10070 N 950.418 -1.49637 -0.494624 0
M  V30 10071 C 951.643 -1.63431 -1.27691 0
M  V30 10072 C 952.068 -0.30813 -1.85559 0
M  V30 10073 O 951.426 0.725083 -1.66169 0
M  V30 10074 C 951.474 -2.71043 -2.3784 0
M  V30 10075 O 950.578 -2.3066 -3.41862 0
M  V30 10076 H 949.919 -0.546804 -0.376698 0
M  V30 10077 H 952.449 -1.95866 -0.591413 0
M  V30 10078 H 952.459 -2.93406 -2.83508 0
M  V30 10079 H 951.134 -3.67306 -1.95088 0
M  V30 10080 H 949.711 -2.18652 -3.02069 0
M  V30 10081 N 951.896 0.746133 -1.38819 0
M  V30 10082 C 952.826 1.87344 -1.39372 0
M  V30 10083 C 953.807 1.68123 -0.258583 0
M  V30 10084 O 954.992 1.88606 -0.462769 0
M  V30 10085 C 952.122 3.24962 -1.22543 0
M  V30 10086 C 951.076 3.58799 -2.33339 0
M  V30 10087 C 950.402 4.95235 -2.01609 0
M  V30 10088 C 951.702 3.62911 -3.75624 0
M  V30 10089 H 953.396 1.87138 -2.33709 0
M  V30 10090 H 950.942 0.898937 -1.12495 0
M  V30 10091 H 952.895 4.03488 -1.21554 0
M  V30 10092 H 951.619 3.25667 -0.246707 0
M  V30 10093 H 950.278 2.82596 -2.33527 0
M  V30 10094 H 949.926 4.92508 -1.02202 0
M  V30 10095 H 949.626 5.18843 -2.75819 0
M  V30 10096 H 951.15 5.76131 -2.02251 0
M  V30 10097 H 952.564 4.31535 -3.77426 0
M  V30 10098 H 950.961 3.98031 -4.491 0
M  V30 10099 H 952.031 2.62967 -4.07402 0
M  V30 10100 N 953.375 1.23811 0.975125 0
M  V30 10101 C 954.322 1.02394 2.06843 0
M  V30 10102 C 955.292 -0.060337 1.6599 0
M  V30 10103 O 956.477 0.0928187 1.90574 0
M  V30 10104 C 953.617 0.626882 3.39359 0
M  V30 10105 C 952.73 1.78385 3.9345 0
M  V30 10106 C 951.865 1.33307 5.14201 0
M  V30 10107 C 950.904 2.46045 5.60471 0
M  V30 10108 N 950.041 2.01888 6.72448 0
M  V30 10109 H 954.881 1.95973 2.24496 0
M  V30 10110 H 952.418 0.976206 1.10039 0
M  V30 10111 H 954.376 0.377742 4.15486 0
M  V30 10112 H 953.006 -0.271907 3.21653 0
M  V30 10113 H 952.058 2.14685 3.14029 0
M  V30 10114 H 953.37 2.63122 4.23755 0
M  V30 10115 H 952.524 1.04237 5.97678 0
M  V30 10116 H 951.263 0.456143 4.85562 0
M  V30 10117 H 950.268 2.75884 4.75571 0
M  V30 10118 H 951.493 3.34283 5.91127 0
M  V30 10119 H 949.439 1.16583 6.45558 0
M  V30 10120 H 949.356 2.80182 7.02164 0
M  V30 10121 H 950.624 1.75937 7.59386 0
M  V30 10122 N 954.853 -1.17469 1.05066 0
M  V30 10123 C 956.078 -1.92162 0.780298 0
M  V30 10124 C 956.503 -1.76222 -0.657832 0
M  V30 10125 O 955.861 -1.0791 -1.45688 0
M  V30 10126 C 955.909 -3.41292 1.16414 0
M  V30 10127 O 955.013 -4.1134 0.295531 0
M  V30 10128 H 954.354 -0.599127 0.286257 0
M  V30 10129 H 956.884 -1.48903 1.40318 0
M  V30 10130 H 956.894 -3.92029 1.13036 0
M  V30 10131 H 955.569 -3.52214 2.21175 0
M  V30 10132 H 954.146 -3.70857 0.389797 0
M  V30 10133 N 956.331 -0.831506 -1.3388 0
M  V30 10134 C 957.556 -0.435954 -2.02766 0
M  V30 10135 C 957.981 0.952889 -1.62178 0
M  V30 10136 O 957.339 1.62166 -0.810681 0
M  V30 10137 C 957.387 -0.555907 -3.56289 0
M  V30 10138 O 956.491 0.420826 -4.10247 0
M  V30 10139 H 955.832 -0.178248 -0.639628 0
M  V30 10140 H 958.362 -1.1243 -1.70941 0
M  V30 10141 H 958.372 -0.434831 -4.05676 0
M  V30 10142 H 957.047 -1.56881 -3.85177 0
M  V30 10143 H 955.624 0.257919 -3.72007 0
M  V30 10144 N 957.809 1.4625 -0.587256 0
M  V30 10145 C 958.757 2.32076 0.156108 0
M  V30 10146 C 959.751 1.44756 0.879887 0
M  V30 10147 O 960.957 1.61356 0.797759 0
M  V30 10148 H 957.332 0.748808 0.0692098 0
M  V30 10149 H 959.303 2.9258 -0.586497 0
M  V30 10150 C 958.052 3.28008 1.15352 0
M  V30 10151 H 957.375 3.9518 0.60601 0
M  V30 10152 H 958.815 3.90832 1.64396 0
M  V30 10153 C 957.274 2.53691 2.21681 0
M  V30 10154 O 957.804 2.30329 3.29107 0
M  V30 10155 N 956.01 2.14174 1.96412 0
M  V30 10156 H 955.557 2.33374 1.09061 0
M  V30 10157 H 955.515 1.6477 2.67765 0
M  V30 10158 N 959.287 0.325282 1.54207 0
M  V30 10159 C 960.527 -0.277347 2.0251 0
M  V30 10160 C 960.891 -1.49211 1.20831 0
M  V30 10161 O 962.092 -2.16771 1.58945 0
M  V30 10162 C 960.363 -0.601517 3.52302 0
M  V30 10163 S 961.922 -1.18356 4.22537 0
M  V30 10164 H 958.74 -0.08378 0.706047 0
M  V30 10165 H 961.342 0.458804 1.9004 0
M  V30 10166 H 960.046 0.290696 4.09369 0
M  V30 10167 H 959.577 -1.36782 3.68855 0
M  V30 10168 H 961.592 -2.47029 4.30338 0
M  V30 10169 N 960.765 -1.57509 0.0534917 0
M  V30 10170 C 962.011 -1.93068 -0.62069 0
M  V30 10171 C 962.344 -0.932313 -1.70357 0
M  V30 10172 O 961.619 0.0413393 -1.94456 0
M  V30 10173 C 961.902 -3.38997 -1.21463 0
M  V30 10174 C 961.755 -4.49583 -0.13965 0
M  V30 10175 C 963.074 -3.85366 -2.12558 0
M  V30 10176 H 960.193 -0.702083 -0.224163 0
M  V30 10177 H 962.835 -1.89647 0.115729 0
M  V30 10178 H 960.985 -3.42043 -1.84226 0
M  V30 10179 H 962.657 -4.58664 0.492411 0
M  V30 10180 H 960.9 -4.30525 0.532006 0
M  V30 10181 H 961.571 -5.48781 -0.595287 0
M  V30 10182 H 964.047 -3.8421 -1.59755 0
M  V30 10183 H 962.923 -4.8812 -2.51058 0
M  V30 10184 H 963.184 -3.22256 -3.02661 0
M  V30 10185 N 962.243 0.219913 -1.56058 0
M  V30 10186 C 963.489 0.945463 -1.79412 0
M  V30 10187 C 963.822 1.83922 -0.62341 0
M  V30 10188 O 963.097 1.90806 0.377256 0
M  V30 10189 C 963.38 1.783 -3.1286 0
M  V30 10190 C 963.233 0.915626 -4.40382 0
M  V30 10191 C 964.552 2.76045 -3.42764 0
M  V30 10192 H 961.671 0.342288 -0.652693 0
M  V30 10193 H 964.313 0.214235 -1.88788 0
M  V30 10194 H 962.463 2.40642 -3.04998 0
M  V30 10195 H 964.135 0.30882 -4.60265 0
M  V30 10196 H 962.378 0.221124 -4.33236 0
M  V30 10197 H 963.049 1.53607 -5.30197 0
M  V30 10198 H 965.525 2.23838 -3.50764 0
M  V30 10199 H 964.401 3.31748 -4.37304 0
M  V30 10200 H 964.662 3.53866 -2.65012 0
M  V30 10201 N 963.721 1.49897 0.486681 0
M  V30 10202 C 964.998 1.50614 1.24799 0
M  V30 10203 C 965.378 0.24193 2.09709 0
M  V30 10204 O 964.726 -0.775237 2.14947 0
M  V30 10205 C 964.936 2.79318 2.09243 0
M  V30 10206 C 966.284 3.29371 2.67955 0
M  V30 10207 O 967.308 2.80533 2.19499 0
M  V30 10208 O 966.167 4.14466 3.56202 0
M  V30 10209 H 963.261 0.603447 0.565491 0
M  V30 10210 H 965.807 1.62174 0.499778 0
M  V30 10211 H 964.579 3.62812 1.46572 0
M  V30 10212 H 964.202 2.70687 2.91229 0
M  V30 10213 N 965.199 -0.738761 1.39212 0
M  V30 10214 C 966.424 -1.5331 1.39681 0
M  V30 10215 C 966.849 -1.88098 -0.00768715 0
M  V30 10216 O 966.207 -1.51642 -0.993699 0
M  V30 10217 C 966.255 -2.79958 2.27279 0
M  V30 10218 O 965.359 -3.75727 1.70008 0
M  V30 10219 H 964.7 -0.463131 0.475821 0
M  V30 10220 H 967.23 -0.911768 1.83161 0
M  V30 10221 H 967.24 -3.28732 2.41659 0
M  V30 10222 H 965.915 -2.5397 3.29351 0
M  V30 10223 H 964.492 -3.34483 1.64851 0
M  V30 10224 N 966.677 -1.24326 -0.968545 0
M  V30 10225 C 968.093 -1.00847 -1.23701 0
M  V30 10226 C 968.293 0.283235 -1.99499 0
M  V30 10227 O 967.349 0.999607 -2.31871 0
M  V30 10228 C 968.662 -2.22295 -2.02498 0
M  V30 10229 C 970.21 -2.26911 -2.15593 0
M  V30 10230 C 970.685 -3.47978 -2.97784 0
M  V30 10231 N 972.176 -3.48289 -3.05367 0
M  V30 10232 C 972.911 -4.38625 -3.69318 0
M  V30 10233 N 972.407 -5.39213 -4.34995 0
M  V30 10234 N 974.2 -4.26339 -3.66322 0
M  V30 10235 H 966.351 -2.07335 -0.461087 0
M  V30 10236 H 968.614 -0.909805 -0.26638 0
M  V30 10237 H 968.32 -3.161 -1.54188 0
M  V30 10238 H 968.194 -2.24344 -3.03232 0
M  V30 10239 H 970.581 -1.33639 -2.63106 0
M  V30 10240 H 970.662 -2.28888 -1.14209 0
M  V30 10241 H 970.306 -4.41564 -2.50965 0
M  V30 10242 H 970.236 -3.43244 -3.99364 0
M  V30 10243 H 972.727 -2.75517 -2.58648 0
M  V30 10244 H 973.04 -6.04378 -4.81608 0
M  V30 10245 H 971.385 -5.43101 -4.33667 0
M  V30 10246 H 974.576 -3.46991 -3.14189 0
M  V30 10247 H 974.749 -4.9694 -4.15878 0
M  V30 10248 N 968.156 1.1691 -1.05688 0
M  V30 10249 C 969.403 1.87292 -0.76993 0
M  V30 10250 C 969.731 1.81339 0.703295 0
M  V30 10251 O 968.986 1.21959 1.5305 0
M  V30 10252 C 969.285 3.36578 -1.20207 0
M  V30 10253 C 968.951 3.62732 -2.67836 0
M  V30 10254 C 967.613 3.69579 -3.08163 0
M  V30 10255 C 969.965 3.73803 -3.63209 0
M  V30 10256 C 967.293 3.84992 -4.42717 0
M  V30 10257 C 969.645 3.90735 -4.97503 0
M  V30 10258 C 968.309 3.95823 -5.37476 0
M  V30 10259 H 967.579 0.68535 -0.281737 0
M  V30 10260 H 970.226 1.38274 -1.32486 0
M  V30 10261 H 968.531 3.87687 -0.566222 0
M  V30 10262 H 970.228 3.89409 -0.957183 0
M  V30 10263 H 966.818 3.58031 -2.35609 0
M  V30 10264 H 971.002 3.67829 -3.3319 0
M  V30 10265 H 966.258 3.87181 -4.73182 0
M  V30 10266 H 970.432 3.98243 -5.71293 0
M  V30 10267 H 968.059 4.07518 -6.41742 0
M  V30 10268 N 969.634 0.838594 1.33437 0
M  V30 10269 C 970.88 0.434813 1.98084 0
M  V30 10270 C 971.213 -1.00331 1.66275 0
M  V30 10271 O 970.488 -1.70139 0.942501 0
M  V30 10272 C 970.771 0.655602 3.54082 0
M  V30 10273 C 970.624 2.14097 3.95578 0
M  V30 10274 C 971.943 0.101576 4.39983 0
M  V30 10275 H 969.062 0.159456 0.719544 0
M  V30 10276 H 971.704 1.05406 1.58081 0
M  V30 10277 H 969.854 0.128501 3.88287 0
M  V30 10278 H 971.526 2.73292 3.71631 0
M  V30 10279 H 969.769 2.62558 3.4532 0
M  V30 10280 H 970.44 2.24621 5.04231 0
M  V30 10281 H 972.916 0.552122 4.12421 0
M  V30 10282 H 971.792 0.28575 5.48156 0
M  V30 10283 H 972.053 -0.994616 4.30767 0
M  V30 10284 N 971.112 -1.45937 0.595003 0
M  V30 10285 C 972.042 -2.33198 -0.11871 0
M  V30 10286 C 973.023 -1.46083 -0.871423 0
M  V30 10287 O 974.208 -1.74879 -0.844461 0
M  V30 10288 C 971.338 -3.28576 -1.12495 0
M  V30 10289 C 970.292 -4.25229 -0.486275 0
M  V30 10290 C 969.618 -5.10204 -1.59986 0
M  V30 10291 C 970.918 -5.19019 0.584473 0
M  V30 10292 H 972.612 -2.93122 0.609886 0
M  V30 10293 H 970.158 -1.40951 0.294742 0
M  V30 10294 H 972.111 -3.88485 -1.6327 0
M  V30 10295 H 970.835 -2.66784 -1.88398 0
M  V30 10296 H 969.494 -3.666 0.000507962 0
M  V30 10297 H 969.142 -4.44789 -2.34886 0
M  V30 10298 H 968.842 -5.75669 -1.1781 0
M  V30 10299 H 970.366 -5.7298 -2.11014 0
M  V30 10300 H 971.78 -5.73073 0.161297 0
M  V30 10301 H 970.177 -5.92893 0.927256 0
M  V30 10302 H 971.247 -4.62208 1.46601 0
M  V30 10303 N 972.59 -0.333456 -1.54032 0
M  V30 10304 C 973.537 0.527981 -2.2468 0
M  V30 10305 C 974.507 1.10371 -1.24127 0
M  V30 10306 O 975.692 1.14221 -1.52834 0
M  V30 10307 C 972.832 1.67808 -3.01553 0
M  V30 10308 C 971.945 1.13064 -4.16942 0
M  V30 10309 C 971.08 2.24722 -4.81325 0
M  V30 10310 C 970.119 1.67277 -5.88799 0
M  V30 10311 N 969.256 2.72638 -6.47003 0
M  V30 10312 H 974.096 -0.0810308 -2.9789 0
M  V30 10313 H 971.633 -0.051761 -1.47009 0
M  V30 10314 H 973.591 2.35502 -3.44376 0
M  V30 10315 H 972.221 2.25823 -2.30659 0
M  V30 10316 H 971.273 0.344948 -3.78833 0
M  V30 10317 H 972.585 0.670373 -4.94275 0
M  V30 10318 H 971.739 3.00301 -5.27166 0
M  V30 10319 H 970.478 2.74089 -4.03394 0
M  V30 10320 H 969.483 0.902002 -5.4235 0
M  V30 10321 H 970.708 1.18775 -6.68632 0
M  V30 10322 H 968.654 3.21277 -5.71941 0
M  V30 10323 H 968.571 2.31204 -7.19778 0
M  V30 10324 H 969.839 3.48015 -6.97499 0
M  V30 10325 N 974.068 1.57479 -0.061844 0
M  V30 10326 C 975.317 1.92285 0.609055 0
M  V30 10327 C 975.63 0.942983 1.71369 0
M  V30 10328 O 976.836 1.18349 2.44348 0
M  V30 10329 C 975.292 3.41545 1.13468 0
M  V30 10330 C 974.9 4.47958 0.0615926 0
M  V30 10331 C 976.644 3.85368 1.78022 0
M  V30 10332 C 974.551 5.88341 0.600705 0
M  V30 10333 H 973.481 0.717656 0.23127 0
M  V30 10334 H 976.132 1.83021 -0.132466 0
M  V30 10335 H 974.514 3.45848 1.92886 0
M  V30 10336 H 975.688 4.55258 -0.712527 0
M  V30 10337 H 974.003 4.13541 -0.487116 0
M  V30 10338 H 976.6 4.87627 2.19371 0
M  V30 10339 H 976.943 3.22193 2.63623 0
M  V30 10340 H 977.476 3.83626 1.05242 0
M  V30 10341 H 974.215 6.55138 -0.217922 0
M  V30 10342 H 973.735 5.84581 1.34257 0
M  V30 10343 H 975.414 6.37918 1.08025 0
M  V30 10344 N 975.546 -0.211634 1.56173 0
M  V30 10345 C 976.774 -0.951184 1.83739 0
M  V30 10346 C 977.189 -1.7754 0.642252 0
M  V30 10347 O 976.546 -1.78302 -0.389174 0
M  V30 10348 C 976.597 -1.86075 3.09933 0
M  V30 10349 O 976.318 -1.06983 4.24837 0
M  V30 10350 C 977.819 -2.71337 3.50559 0
M  V30 10351 H 975.039 -0.278312 0.61056 0
M  V30 10352 H 977.583 -0.223871 2.03271 0
M  V30 10353 H 975.738 -2.54189 2.92347 0
M  V30 10354 H 976.152 -1.68815 4.9659 0
M  V30 10355 H 977.626 -3.30843 4.41868 0
M  V30 10356 H 978.103 -3.44226 2.72773 0
M  V30 10357 H 978.709 -2.0862 3.70618 0
M  V30 10358 N 977.024 -1.50153 -0.478725 0
M  V30 10359 C 978.301 -1.51274 -1.23999 0
M  V30 10360 C 978.681 -0.253048 -2.09578 0
M  V30 10361 O 978.029 0.763827 -2.15355 0
M  V30 10362 C 978.239 -2.80423 -2.07759 0
M  V30 10363 C 979.587 -3.30788 -2.66204 0
M  V30 10364 O 980.611 -2.81693 -2.18008 0
M  V30 10365 O 979.47 -4.1635 -3.53999 0
M  V30 10366 H 976.564 -0.606438 -0.562283 0
M  V30 10367 H 979.11 -1.62436 -0.491171 0
M  V30 10368 H 977.882 -3.63584 -1.44645 0
M  V30 10369 H 977.505 -2.72228 -2.89789 0
M  V30 10370 N 978.502 0.731368 -1.39602 0
M  V30 10371 C 979.732 1.51839 -1.40102 0
M  V30 10372 C 980.14 1.89199 0.00526634 0
M  V30 10373 O 979.483 1.54877 0.987874 0
M  V30 10374 C 979.545 2.83292 -2.21328 0
M  V30 10375 C 979.209 2.68345 -3.69919 0
M  V30 10376 C 980.206 2.36651 -4.62917 0
M  V30 10377 C 977.891 2.85102 -4.13548 0
M  V30 10378 C 979.885 2.21901 -5.97527 0
M  V30 10379 C 977.572 2.69971 -5.48233 0
M  V30 10380 C 978.57 2.38416 -6.40037 0
M  V30 10381 O 978.258 2.23383 -7.72241 0
M  V30 10382 H 977.99 0.475695 -0.480302 0
M  V30 10383 H 980.544 0.911096 -1.84087 0
M  V30 10384 H 978.774 3.46294 -1.72096 0
M  V30 10385 H 980.463 3.44928 -2.13961 0
M  V30 10386 H 981.229 2.23352 -4.3051 0
M  V30 10387 H 977.108 3.08655 -3.42423 0
M  V30 10388 H 980.652 1.97193 -6.69149 0
M  V30 10389 H 976.549 2.82849 -5.8023 0
M  V30 10390 H 977.317 2.38425 -7.83004 0
M  V30 10391 N 979.98 1.24838 0.961938 0
M  V30 10392 C 981.228 1.08936 1.70227 0
M  V30 10393 C 981.549 -0.371582 1.91427 0
M  V30 10394 O 980.819 -1.26461 1.49614 0
M  V30 10395 H 979.399 0.400128 0.630799 0
M  V30 10396 H 982.061 1.56848 1.15692 0
M  V30 10397 H 981.157 1.59195 2.68446 0
M  V30 10398 N 981.458 -1.16348 1.06306 0
M  V30 10399 C 982.388 -2.2291 0.695234 0
M  V30 10400 C 983.369 -1.67208 -0.312343 0
M  V30 10401 O 984.554 -1.93293 -0.187442 0
M  V30 10402 C 981.684 -3.47205 0.0810149 0
M  V30 10403 C 980.638 -4.15801 1.01458 0
M  V30 10404 C 979.964 -5.3405 0.263656 0
M  V30 10405 C 981.264 -4.66766 2.34365 0
M  V30 10406 H 982.958 -2.53934 1.58613 0
M  V30 10407 H 980.504 -1.22056 0.76409 0
M  V30 10408 H 982.457 -4.2098 -0.18818 0
M  V30 10409 H 981.181 -3.15482 -0.844897 0
M  V30 10410 H 979.84 -3.43954 1.26852 0
M  V30 10411 H 979.488 -4.9858 -0.665378 0
M  V30 10412 H 979.188 -5.80885 0.88582 0
M  V30 10413 H 980.712 -6.106 0.00200994 0
M  V30 10414 H 982.126 -5.3212 2.13356 0
M  V30 10415 H 980.523 -5.24223 2.9208 0
M  V30 10416 H 981.593 -3.82969 2.97426 0
M  V30 10417 N 982.937 -0.845659 -1.3299 0
M  V30 10418 C 983.9 -0.288905 -2.27372 0
M  V30 10419 C 984.9 0.546263 -1.51237 0
M  V30 10420 O 986.09 0.359072 -1.70459 0
M  V30 10421 C 983.222 0.59224 -3.35716 0
M  V30 10422 H 984.415 -1.12181 -2.78128 0
M  V30 10423 H 981.968 -0.619276 -1.43508 0
M  V30 10424 H 982.703 1.44732 -2.90212 0
M  V30 10425 H 982.488 -0.00543255 -3.921 0
M  V30 10426 H 983.978 0.974848 -4.06062 0
M  V30 10427 N 984.415 1.45619 -0.602734 0
M  V30 10428 C 985.64 2.07157 -0.100429 0
M  V30 10429 C 986.065 1.44524 1.20393 0
M  V30 10430 O 985.423 0.536191 1.7319 0
M  V30 10431 C 985.471 3.60587 0.0308604 0
M  V30 10432 O 984.575 3.97944 1.08234 0
M  V30 10433 H 983.916 0.6601 -0.0718643 0
M  V30 10434 H 986.446 1.86948 -0.831366 0
M  V30 10435 H 986.456 4.07348 0.230634 0
M  V30 10436 H 985.131 4.05561 -0.921581 0
M  V30 10437 H 983.708 3.62862 0.859414 0
M  V30 10438 N 985.893 0.34162 1.53853 0
M  V30 10439 C 987.14 -0.255484 2.00882 0
M  V30 10440 C 987.468 -1.50711 1.22949 0
M  V30 10441 O 986.723 -1.93315 0.304625 0
M  V30 10442 C 987.022 -0.616989 3.52034 0
M  V30 10443 C 986.688 0.537536 4.47684 0
M  V30 10444 C 985.35 0.854379 4.73554 0
M  V30 10445 C 987.702 1.31217 5.04412 0
M  V30 10446 C 985.03 1.94826 5.53407 0
M  V30 10447 C 987.382 2.39628 5.85458 0
M  V30 10448 C 986.046 2.71874 6.09623 0
M  V30 10449 H 985.316 -0.0934881 0.735079 0
M  V30 10450 H 987.963 0.469135 1.85665 0
M  V30 10451 H 986.268 -1.42229 3.65073 0
M  V30 10452 H 987.965 -1.09084 3.85878 0
M  V30 10453 H 984.555 0.280524 4.27681 0
M  V30 10454 H 988.739 1.08064 4.84392 0
M  V30 10455 H 983.995 2.20235 5.70356 0
M  V30 10456 H 988.169 3.00084 6.28429 0
M  V30 10457 H 985.796 3.56762 6.71286 0
M  V30 10458 N 987.371 -1.57444 0.0701946 0
M  V30 10459 C 988.787 -1.57009 -0.286431 0
M  V30 10460 C 988.987 -1.07946 -1.70147 0
M  V30 10461 O 988.043 -0.744622 -2.41271 0
M  V30 10462 C 989.356 -3.00542 -0.0975466 0
M  V30 10463 C 990.904 -3.12553 -0.167205 0
M  V30 10464 C 991.379 -4.58 -0.00662047 0
M  V30 10465 N 992.87 -4.63158 -0.0622778 0
M  V30 10466 C 993.605 -5.73388 0.0375831 0
M  V30 10467 N 993.101 -6.92537 0.190873 0
M  V30 10468 N 994.894 -5.62097 -0.0193672 0
M  V30 10469 H 987.045 -1.87651 0.995023 0
M  V30 10470 H 989.308 -0.865006 0.387902 0
M  V30 10471 H 989.014 -3.40543 0.878822 0
M  V30 10472 H 988.888 -3.67485 -0.850547 0
M  V30 10473 H 991.275 -2.72439 -1.13406 0
M  V30 10474 H 991.356 -2.48251 0.616871 0
M  V30 10475 H 991 -4.98803 0.956992 0
M  V30 10476 H 990.93 -5.20332 -0.810081 0
M  V30 10477 H 993.421 -3.77475 -0.179229 0
M  V30 10478 H 993.734 -7.72365 0.25926 0
M  V30 10479 H 992.079 -6.94632 0.226214 0
M  V30 10480 H 995.27 -4.67897 -0.137815 0
M  V30 10481 H 995.443 -6.4797 0.0619121 0
M  V30 10482 N 988.849 0.203349 -1.56283 0
M  V30 10483 C 990.074 0.945548 -1.84592 0
M  V30 10484 C 990.499 1.7641 -0.652772 0
M  V30 10485 O 989.857 1.76867 0.398468 0
M  V30 10486 C 989.905 1.82416 -3.11057 0
M  V30 10487 O 989.009 2.92191 -2.9103 0
M  V30 10488 H 988.35 0.266739 -0.608068 0
M  V30 10489 H 990.88 0.211158 -2.03507 0
M  V30 10490 H 990.89 2.23044 -3.41636 0
M  V30 10491 H 989.565 1.22267 -3.97522 0
M  V30 10492 H 988.142 2.55378 -2.71728 0
M  V30 10493 N 990.327 1.50405 0.470755 0
M  V30 10494 C 991.555 1.65168 1.24608 0
M  V30 10495 C 991.97 0.335153 1.85801 0
M  V30 10496 O 991.327 -0.682919 1.69241 0
M  V30 10497 C 991.378 2.74305 2.35455 0
M  V30 10498 O 991.099 4.00854 1.76771 0
M  V30 10499 C 992.6 3.00044 3.26326 0
M  V30 10500 H 989.82 0.555186 0.376842 0
M  V30 10501 H 992.364 1.9663 0.56187 0
M  V30 10502 H 990.519 2.45536 2.99651 0
M  V30 10503 H 990.933 4.61211 2.49769 0
M  V30 10504 H 992.407 3.8007 4.00313 0
M  V30 10505 H 992.884 2.11128 3.85126 0
M  V30 10506 H 993.49 3.30345 2.67866 0
M  V30 10507 N 991.805 -0.723954 1.39988 0
M  V30 10508 C 992.768 -1.81973 1.3935 0
M  V30 10509 C 993.768 -1.58187 0.288702 0
M  V30 10510 O 994.958 -1.65383 0.547181 0
M  V30 10511 C 992.09 -3.19937 1.177 0
M  V30 10512 H 993.283 -1.83939 2.36868 0
M  V30 10513 H 990.836 -0.928742 1.25714 0
M  V30 10514 H 991.571 -3.23625 0.209093 0
M  V30 10515 H 991.356 -3.386 1.97719 0
M  V30 10516 H 992.846 -3.99981 1.20022 0
M  V30 10517 N 993.283 -1.25346 -0.955304 0
M  V30 10518 C 994.193 -1.07412 -2.08566 0
M  V30 10519 C 995.209 -0.0114424 -1.73996 0
M  V30 10520 O 996.385 -0.212236 -2.00279 0
M  V30 10521 C 993.45 -0.694141 -3.3968 0
M  V30 10522 C 992.511 -1.83468 -3.88121 0
M  V30 10523 C 991.744 -1.47274 -5.12978 0
M  V30 10524 O 991.967 -0.368086 -5.69211 0
M  V30 10525 O 990.901 -2.30269 -5.56111 0
M  V30 10526 H 994.727 -2.02206 -2.26598 0
M  V30 10527 H 992.312 -1.04279 -1.06988 0
M  V30 10528 H 994.194 -0.494325 -4.18491 0
M  V30 10529 H 992.869 0.224545 -3.2292 0
M  V30 10530 H 991.776 -2.08935 -3.10318 0
M  V30 10531 H 993.109 -2.73258 -4.09379 0
M  V30 10532 N 994.761 1.15782 -1.06922 0
M  V30 10533 C 996.172 1.68062 -0.813144 0
M  V30 10534 C 996.523 1.84681 0.662374 0
M  V30 10535 O 995.648 1.54696 1.51321 0
M  V30 10536 C 996.243 3.05273 -1.46949 0
M  V30 10537 C 994.802 3.54647 -1.26104 0
M  V30 10538 C 993.949 2.30477 -1.54194 0
M  V30 10539 H 996.9 1.00056 -1.23185 0
M  V30 10540 H 996.921 3.69986 -0.888308 0
M  V30 10541 H 996.433 2.93145 -2.54337 0
M  V30 10542 H 994.534 3.72024 -0.20718 0
M  V30 10543 H 994.647 4.36354 -1.97819 0
M  V30 10544 H 993.011 2.35803 -0.96276 0
M  V30 10545 H 993.794 2.2094 -2.62755 0
M  V30 10546 N 996.239 0.8527 1.3254 0
M  V30 10547 C 997.516 0.376491 1.91942 0
M  V30 10548 C 997.896 -1.13972 1.7769 0
M  V30 10549 O 997.244 -1.96047 1.17379 0
M  V30 10550 C 997.454 0.838694 3.38773 0
M  V30 10551 C 998.802 0.854736 4.15908 0
M  V30 10552 O 999.826 0.783203 3.47483 0
M  V30 10553 O 998.685 0.955207 5.38087 0
M  V30 10554 H 995.779 0.109412 0.81973 0
M  V30 10555 H 998.325 0.93947 1.41322 0
M  V30 10556 H 997.097 1.88179 3.43081 0
M  V30 10557 H 996.72 0.253055 3.96794 0
M  V30 10558 N 997.718 -1.45297 0.610449 0
M  V30 10559 C 998.995 -1.95562 0.0386189 0
M  V30 10560 C 999.375 -1.55284 -1.43004 0
M  V30 10561 O 998.723 -0.816785 -2.13403 0
M  V30 10562 C 998.933 -3.48176 0.239731 0
M  V30 10563 C 1000.28 -4.24425 0.122035 0
M  V30 10564 O 1001.3 -3.55794 0.170003 0
M  V30 10565 O 1000.16 -5.46499 0.00953695 0
M  V30 10566 H 997.258 -0.826296 -0.0341081 0
M  V30 10567 H 999.804 -1.55449 0.68071 0
M  V30 10568 H 998.576 -3.70471 1.25963 0
M  V30 10569 H 998.199 -3.95186 -0.437486 0
M  V30 10570 N 999.196 -0.349774 -1.5367 0
M  V30 10571 C 1000.42 0.248692 -2.05904 0
M  V30 10572 C 1000.85 1.42942 -1.22267 0
M  V30 10573 O 1000.2 1.79732 -0.237899 0
M  V30 10574 C 1000.25 0.635639 -3.54953 0
M  V30 10575 O 999.356 1.7349 -3.74132 0
M  V30 10576 H 998.697 0.0399477 -0.662797 0
M  V30 10577 H 1001.23 -0.505795 -1.9825 0
M  V30 10578 H 1001.24 0.911064 -3.97698 0
M  V30 10579 H 999.912 -0.227805 -4.15276 0
M  V30 10580 H 998.489 1.45626 -3.43289 0
M  V30 10581 N 1000.67 1.57404 -0.0785433 0
M  V30 10582 C 1001.62 2.09632 0.896565 0
M  V30 10583 C 1002.61 1.00754 1.25449 0
M  V30 10584 O 1003.8 1.27053 1.23234 0
M  V30 10585 C 1000.93 2.66694 2.16169 0
M  V30 10586 C 1000.01 3.82588 1.82994 0
M  V30 10587 N 1000.41 4.91286 1.203 0
M  V30 10588 C 998.704 3.92011 2.12704 0
M  V30 10589 C 999.405 5.72077 1.05367 0
M  V30 10590 N 998.381 5.20567 1.56559 0
M  V30 10591 H 1002.18 2.9106 0.407621 0
M  V30 10592 H 999.697 1.61917 0.125155 0
M  V30 10593 H 1001.69 3.0243 2.86952 0
M  V30 10594 H 1000.35 1.86716 2.65645 0
M  V30 10595 H 1001.36 5.10509 0.871817 0
M  V30 10596 H 998.042 3.23018 2.6451 0
M  V30 10597 H 999.432 6.69523 0.564685 0
M  V30 10598 N 1002.15 -0.195058 1.56388 0
M  V30 10599 C 1003.11 -1.2254 1.93692 0
M  V30 10600 C 1004.11 -1.38437 0.81804 0
M  V30 10601 O 1005.3 -1.36248 1.08545 0
M  V30 10602 C 1002.44 -2.59476 2.21099 0
M  V30 10603 H 1003.63 -0.906544 2.8587 0
M  V30 10604 H 1001.18 -0.436577 1.50079 0
M  V30 10605 H 1001.92 -2.96417 1.31558 0
M  V30 10606 H 1001.7 -2.4931 3.02634 0
M  V30 10607 H 1003.19 -3.33777 2.50964 0
M  V30 10608 N 1003.63 -1.50653 -0.462772 0
M  V30 10609 C 1004.56 -1.73056 -1.5676 0
M  V30 10610 C 1005.54 -0.579699 -1.59917 0
M  V30 10611 O 1006.73 -0.819729 -1.76051 0
M  V30 10612 C 1003.86 -1.83234 -2.9503 0
M  V30 10613 C 1002.81 -2.98488 -3.06739 0
M  V30 10614 C 1002.14 -2.93818 -4.46738 0
M  V30 10615 C 1003.44 -4.38869 -2.83181 0
M  V30 10616 H 1005.13 -2.65562 -1.38265 0
M  V30 10617 H 1002.68 -1.27792 -0.663722 0
M  V30 10618 H 1004.63 -1.97491 -3.72257 0
M  V30 10619 H 1003.35 -0.873558 -3.14701 0
M  V30 10620 H 1002.01 -2.83895 -2.31946 0
M  V30 10621 H 1001.66 -1.95769 -4.63339 0
M  V30 10622 H 1001.36 -3.71197 -4.55507 0
M  V30 10623 H 1002.88 -3.10135 -5.25974 0
M  V30 10624 H 1004.3 -4.53945 -3.50153 0
M  V30 10625 H 1002.69 -5.17762 -3.03386 0
M  V30 10626 H 1003.76 -4.50663 -1.78972 0
M  V30 10627 N 1005.11 0.71652 -1.4037 0
M  V30 10628 C 1006.34 1.50344 -1.41704 0
M  V30 10629 C 1006.75 1.89194 -0.0148011 0
M  V30 10630 O 1006.09 1.55916 0.971391 0
M  V30 10631 C 1006.15 2.80928 -2.2432 0
M  V30 10632 C 1005.82 2.64406 -3.72744 0
M  V30 10633 C 1006.81 2.31727 -4.65401 0
M  V30 10634 C 1004.5 2.807 -4.16549 0
M  V30 10635 C 1006.49 2.15551 -5.99847 0
M  V30 10636 C 1004.18 2.64141 -5.51065 0
M  V30 10637 C 1005.18 2.31614 -6.42529 0
M  V30 10638 O 1004.86 2.15179 -7.74566 0
M  V30 10639 H 1004.6 0.470574 -0.48532 0
M  V30 10640 H 1007.15 0.89152 -1.85043 0
M  V30 10641 H 1005.38 3.4445 -1.75759 0
M  V30 10642 H 1007.07 3.4264 -2.17607 0
M  V30 10643 H 1007.84 2.18773 -4.32855 0
M  V30 10644 H 1003.71 3.05005 -3.45677 0
M  V30 10645 H 1007.26 1.90084 -6.71203 0
M  V30 10646 H 1003.16 2.76679 -5.83197 0
M  V30 10647 H 1003.92 2.30106 -7.85489 0
M  V30 10648 N 1006.59 1.25851 0.948643 0
M  V30 10649 C 1007.55 1.0683 2.0278 0
M  V30 10650 C 1008.55 0.0191016 1.60789 0
M  V30 10651 O 1009.74 0.261836 1.72221 0
M  V30 10652 C 1006.87 0.623318 3.35153 0
M  V30 10653 H 1008.06 2.02635 2.21086 0
M  V30 10654 H 1005.62 1.08343 1.12657 0
M  V30 10655 H 1006.35 -0.337053 3.22544 0
M  V30 10656 H 1006.14 1.38082 3.66982 0
M  V30 10657 H 1007.63 0.511854 4.14451 0
M  V30 10658 N 1008.06 -1.15214 1.07534 0
M  V30 10659 C 1009.01 -2.20013 0.697337 0
M  V30 10660 C 1009.98 -1.6314 -0.312168 0
M  V30 10661 O 1011.17 -1.89768 -0.198196 0
M  V30 10662 C 1008.31 -3.44945 0.103293 0
M  V30 10663 C 1007.42 -4.16009 1.1645 0
M  V30 10664 C 1006.55 -5.28496 0.535261 0
M  V30 10665 C 1005.59 -5.9138 1.57912 0
M  V30 10666 N 1004.73 -6.95335 0.972332 0
M  V30 10667 H 1009.57 -2.51698 1.59538 0
M  V30 10668 H 1007.11 -1.2361 0.797431 0
M  V30 10669 H 1009.07 -4.16397 -0.258766 0
M  V30 10670 H 1007.7 -3.13772 -0.758096 0
M  V30 10671 H 1006.75 -3.43035 1.64411 0
M  V30 10672 H 1008.06 -4.58853 1.9559 0
M  V30 10673 H 1007.21 -6.06579 0.120942 0
M  V30 10674 H 1005.95 -4.8685 -0.287889 0
M  V30 10675 H 1004.96 -5.12008 2.0032 0
M  V30 10676 H 1006.18 -6.35103 2.40459 0
M  V30 10677 H 1004.13 -6.55779 0.170119 0
M  V30 10678 H 1004.05 -7.36616 1.70095 0
M  V30 10679 H 1005.31 -7.77312 0.583577 0
M  V30 10680 N 1009.54 -0.859717 -1.32086 0
M  V30 10681 C 1010.49 -0.306042 -2.28762 0
M  V30 10682 C 1011.46 0.589801 -1.55276 0
M  V30 10683 O 1012.64 0.523633 -1.83474 0
M  V30 10684 C 1009.78 0.495256 -3.41528 0
M  V30 10685 C 1008.9 -0.426947 -4.29885 0
M  V30 10686 C 1008.03 0.387474 -5.29785 0
M  V30 10687 C 1007.07 -0.531807 -6.09785 0
M  V30 10688 N 1006.21 0.245741 -7.0167 0
M  V30 10689 H 1011.05 -1.1357 -2.7551 0
M  V30 10690 H 1008.59 -0.571468 -1.35546 0
M  V30 10691 H 1010.54 0.97551 -4.05635 0
M  V30 10692 H 1009.17 1.28969 -2.95917 0
M  V30 10693 H 1008.23 -1.02561 -3.66313 0
M  V30 10694 H 1009.54 -1.13226 -4.85779 0
M  V30 10695 H 1008.69 0.930677 -5.99519 0
M  V30 10696 H 1007.43 1.12612 -4.74521 0
M  V30 10697 H 1006.44 -1.08685 -5.3895 0
M  V30 10698 H 1007.66 -1.26915 -6.67135 0
M  V30 10699 H 1005.61 0.967391 -6.48828 0
M  V30 10700 H 1005.52 -0.400432 -7.54939 0
M  V30 10701 H 1006.79 0.770507 -7.75683 0
M  V30 10702 N 1011.02 1.44971 -0.618145 0
M  V30 10703 C 1011.95 2.33357 0.0815955 0
M  V30 10704 C 1012.93 1.47451 0.848072 0
M  V30 10705 O 1014.12 1.762 0.816532 0
M  V30 10706 C 1011.25 3.30324 1.07253 0
M  V30 10707 C 1010.2 4.25948 0.418563 0
M  V30 10708 C 1009.53 5.12685 1.51849 0
M  V30 10709 C 1010.83 5.18024 -0.66697 0
M  V30 10710 H 1012.52 2.92115 -0.656442 0
M  V30 10711 H 1010.07 1.40465 -0.317129 0
M  V30 10712 H 1012.02 3.91033 1.57069 0
M  V30 10713 H 1010.74 2.69748 1.8413 0
M  V30 10714 H 1009.4 3.66553 -0.0588308 0
M  V30 10715 H 1009.05 4.4847 2.2778 0
M  V30 10716 H 1008.75 5.7747 1.08637 0
M  V30 10717 H 1010.27 5.76264 2.01871 0
M  V30 10718 H 1011.69 5.72744 -0.252448 0
M  V30 10719 H 1010.09 5.91343 -1.02146 0
M  V30 10720 H 1011.16 4.59817 -1.53936 0
M  V30 10721 N 1012.5 0.357919 1.53482 0
M  V30 10722 C 1013.74 -0.22712 2.02128 0
M  V30 10723 C 1014.1 -1.47044 1.2408 0
M  V30 10724 O 1013.39 -1.88841 0.323966 0
M  V30 10725 C 1013.59 -0.579617 3.52669 0
M  V30 10726 C 1013.42 0.627992 4.45294 0
M  V30 10727 C 1012.19 1.13772 4.92325 0
M  V30 10728 C 1014.38 1.49087 4.92217 0
M  V30 10729 N 1012.37 2.30615 5.68937 0
M  V30 10730 C 1013.74 2.50604 5.67096 0
M  V30 10731 C 1015.79 1.51464 4.74303 0
M  V30 10732 C 1014.49 3.54346 6.25964 0
M  V30 10733 C 1016.52 2.54095 5.34032 0
M  V30 10734 C 1015.88 3.54337 6.0879 0
M  V30 10735 H 1011.98 -0.0460295 0.780644 0
M  V30 10736 H 1014.57 0.500733 1.88151 0
M  V30 10737 H 1012.74 -1.27656 3.66822 0
M  V30 10738 H 1014.47 -1.14908 3.88044 0
M  V30 10739 H 1011.22 0.703546 4.68345 0
M  V30 10740 H 1011.65 2.8965 6.11909 0
M  V30 10741 H 1016.29 0.753213 4.16037 0
M  V30 10742 H 1014.01 4.31375 6.83331 0
M  V30 10743 H 1017.59 2.56779 5.22069 0
M  V30 10744 H 1016.47 4.32449 6.54184 0
M  V30 10745 N 1013.98 -1.5736 0.0868897 0
M  V30 10746 C 1015.2 -1.98388 -0.587349 0
M  V30 10747 C 1015.62 -0.965757 -1.6223 0
M  V30 10748 O 1014.98 0.0456981 -1.82443 0
M  V30 10749 C 1015.03 -3.39479 -1.24242 0
M  V30 10750 O 1014.75 -4.37393 -0.248878 0
M  V30 10751 C 1016.25 -3.95465 -2.00305 0
M  V30 10752 H 1013.47 -0.652111 -0.15809 0
M  V30 10753 H 1016.01 -2.03843 0.163754 0
M  V30 10754 H 1014.17 -3.35063 -1.94451 0
M  V30 10755 H 1014.58 -5.19525 -0.720678 0
M  V30 10756 H 1016.06 -4.96363 -2.41511 0
M  V30 10757 H 1016.53 -3.32832 -2.86565 0
M  V30 10758 H 1017.14 -4.03328 -1.34931 0
M  V30 10759 N 1015.45 0.186762 -1.56489 0
M  V30 10760 C 1016.42 1.21511 -1.94339 0
M  V30 10761 C 1017.42 1.38001 -0.82537 0
M  V30 10762 O 1018.61 1.3567 -1.09266 0
M  V30 10763 C 1015.74 2.583 -2.22472 0
M  V30 10764 H 1016.93 0.891371 -2.86347 0
M  V30 10765 H 1014.49 0.428612 -1.50308 0
M  V30 10766 H 1015.22 2.95715 -1.33129 0
M  V30 10767 H 1015.01 2.47701 -3.03951 0
M  V30 10768 H 1016.5 3.32441 -2.5273 0
M  V30 10769 N 1016.93 1.50896 0.454776 0
M  V30 10770 C 1018.34 1.55372 1.0352 0
M  V30 10771 C 1018.69 0.366822 1.9274 0
M  V30 10772 O 1017.82 -0.518444 2.10098 0
M  V30 10773 C 1018.41 2.81574 1.88418 0
M  V30 10774 C 1016.97 2.88679 2.4154 0
M  V30 10775 C 1016.12 2.49847 1.20298 0
M  V30 10776 H 1019.07 1.56924 0.236729 0
M  V30 10777 H 1019.09 2.64352 2.73676 0
M  V30 10778 H 1018.6 3.67941 1.23455 0
M  V30 10779 H 1016.71 2.06702 3.10008 0
M  V30 10780 H 1016.82 3.91944 2.7553 0
M  V30 10781 H 1015.18 2.02651 1.54288 0
M  V30 10782 H 1015.97 3.3854 0.569723 0
M  V30 10783 N 1018.41 -0.709066 1.40748 0
M  V30 10784 C 1019.32 -1.85314 1.43861 0
M  V30 10785 C 1020.34 -1.70832 0.330539 0
M  V30 10786 O 1021.51 -1.92983 0.576152 0
M  V30 10787 C 1018.58 -3.21174 1.30568 0
M  V30 10788 C 1017.64 -3.47863 2.51574 0
M  V30 10789 C 1016.87 -4.77241 2.38906 0
M  V30 10790 O 1017.09 -5.52791 1.40636 0
M  V30 10791 O 1016.03 -5.04413 3.28407 0
M  V30 10792 H 1019.85 -1.85644 2.40354 0
M  V30 10793 H 1017.44 -0.860352 1.2214 0
M  V30 10794 H 1019.32 -4.02313 1.25388 0
M  V30 10795 H 1018 -3.21557 0.371841 0
M  V30 10796 H 1016.9 -2.66708 2.62331 0
M  V30 10797 H 1018.24 -3.52283 3.43741 0
M  V30 10798 N 1019.89 -1.26353 -0.941956 0
M  V30 10799 C 1020.82 -1.10341 -2.05784 0
M  V30 10800 C 1021.8 -0.00881565 -1.70098 0
M  V30 10801 O 1022.99 -0.180699 -1.93357 0
M  V30 10802 C 1020.12 -0.734788 -3.39438 0
M  V30 10803 C 1019.07 -1.78103 -3.89183 0
M  V30 10804 C 1018.4 -1.26675 -5.19478 0
M  V30 10805 C 1019.7 -3.1824 -4.14151 0
M  V30 10806 H 1021.39 -2.03684 -2.19438 0
M  V30 10807 H 1018.94 -0.980698 -1.05443 0
M  V30 10808 H 1020.89 -0.609653 -4.16967 0
M  V30 10809 H 1019.61 0.234354 -3.25758 0
M  V30 10810 H 1018.27 -1.89482 -3.13835 0
M  V30 10811 H 1017.92 -0.287472 -5.02178 0
M  V30 10812 H 1017.62 -1.96612 -5.53731 0
M  V30 10813 H 1019.14 -1.15427 -5.99591 0
M  V30 10814 H 1020.56 -3.09942 -4.82296 0
M  V30 10815 H 1018.95 -3.8576 -4.59684 0
M  V30 10816 H 1020.02 -3.64354 -3.19959 0
M  V30 10817 N 1021.37 1.14642 -1.08144 0
M  V30 10818 C 1022.3 2.21775 -0.730609 0
M  V30 10819 C 1023.28 1.67683 0.285702 0
M  V30 10820 O 1024.46 1.93567 0.156667 0
M  V30 10821 C 1021.59 3.47033 -0.136242 0
M  V30 10822 C 1020.55 4.14134 -1.0806 0
M  V30 10823 C 1019.87 5.33563 -0.348585 0
M  V30 10824 C 1021.17 4.62978 -2.41761 0
M  V30 10825 H 1022.87 2.51378 -1.62633 0
M  V30 10826 H 1020.41 1.20825 -0.783411 0
M  V30 10827 H 1022.37 4.21226 0.121182 0
M  V30 10828 H 1021.09 3.16786 0.7946 0
M  V30 10829 H 1019.75 3.41892 -1.32308 0
M  V30 10830 H 1019.4 4.99575 0.585974 0
M  V30 10831 H 1019.1 5.79402 -0.978122 0
M  V30 10832 H 1020.62 6.10519 -0.0991508 0
M  V30 10833 H 1022.04 5.28659 -2.21795 0
M  V30 10834 H 1020.43 5.1951 -3.00383 0
M  V30 10835 H 1021.5 3.78189 -3.03482 0
M  V30 10836 N 1022.85 0.866709 1.31628 0
M  V30 10837 C 1024.07 0.48956 2.01539 0
M  V30 10838 C 1024.5 -0.909556 1.64647 0
M  V30 10839 O 1023.85 -1.59959 0.853391 0
M  V30 10840 C 1023.9 0.650176 3.5469 0
M  V30 10841 O 1023.01 -0.311908 4.11219 0
M  V30 10842 H 1022.35 0.195144 0.634677 0
M  V30 10843 H 1024.88 1.16923 1.679 0
M  V30 10844 H 1024.89 0.542236 4.04381 0
M  V30 10845 H 1023.56 1.67038 3.80882 0
M  V30 10846 H 1022.14 -0.159197 3.7256 0
M  V30 10847 N 1024.32 -1.44642 0.625825 0
M  V30 10848 C 1025.57 -2.01695 0.127948 0
M  V30 10849 C 1025.89 -1.49439 -1.25271 0
M  V30 10850 O 1025.16 -0.695873 -1.83124 0
M  V30 10851 H 1023.74 -0.745685 0.0443096 0
M  V30 10852 H 1026.4 -1.7721 0.811332 0
M  V30 10853 H 1025.5 -3.11966 0.0915933 0
M  V30 10854 N 1025.8 -0.366053 -1.5329 0
M  V30 10855 C 1026.75 0.495319 -2.27265 0
M  V30 10856 C 1027.74 1.08298 -1.30261 0
M  V30 10857 O 1028.95 1.02613 -1.47887 0
M  V30 10858 H 1025.32 0.178454 -0.730519 0
M  V30 10859 H 1027.3 -0.150354 -2.98021 0
M  V30 10860 C 1026.04 1.62283 -3.07505 0
M  V30 10861 H 1025.37 1.17993 -3.81992 0
M  V30 10862 H 1026.81 2.20024 -3.62444 0
M  V30 10863 C 1025.27 2.56542 -2.18375 0
M  V30 10864 O 1025.8 3.59371 -1.79486 0
M  V30 10865 N 1024 2.25742 -1.82999 0
M  V30 10866 H 1023.55 1.42159 -2.14822 0
M  V30 10867 H 1023.51 2.89064 -1.2365 0
M  V30 10868 N 1027.28 1.57312 -0.0952337 0
M  V30 10869 C 1028.69 1.81589 0.433875 0
M  V30 10870 C 1029.04 1.01086 1.68155 0
M  V30 10871 O 1028.17 0.240272 2.15062 0
M  V30 10872 C 1028.76 3.29366 0.793931 0
M  V30 10873 C 1027.32 3.54407 1.26778 0
M  V30 10874 C 1026.47 2.76035 0.264518 0
M  V30 10875 H 1029.42 1.55426 -0.320675 0
M  V30 10876 H 1029.44 3.42697 1.65345 0
M  V30 10877 H 1028.95 3.87932 -0.114334 0
M  V30 10878 H 1027.05 3.01173 2.19376 0
M  V30 10879 H 1027.17 4.63055 1.22952 0
M  V30 10880 H 1025.53 2.43509 0.746691 0
M  V30 10881 H 1026.31 3.37349 -0.636429 0
M  V30 10882 N 1028.76 -0.17846 1.56586 0
M  V30 10883 C 1029.69 -1.22342 1.98884 0
M  V30 10884 C 1030.67 -1.46564 0.86331 0
M  V30 10885 O 1031.85 -1.58019 1.12887 0
M  V30 10886 C 1028.98 -2.56396 2.34261 0
M  V30 10887 C 1027.94 -2.46756 3.49708 0
M  V30 10888 C 1027.26 -3.85235 3.70807 0
M  V30 10889 C 1028.56 -1.97838 4.83381 0
M  V30 10890 H 1030.26 -0.871848 2.86425 0
M  V30 10891 H 1027.8 -0.417948 1.37801 0
M  V30 10892 H 1029.76 -3.29695 2.62448 0
M  V30 10893 H 1028.48 -2.93327 1.43621 0
M  V30 10894 H 1027.14 -1.75912 3.21637 0
M  V30 10895 H 1026.79 -4.19547 2.7747 0
M  V30 10896 H 1026.49 -3.79655 4.48481 0
M  V30 10897 H 1028.01 -4.60131 4.01387 0
M  V30 10898 H 1029.43 -2.60906 5.10491 0
M  V30 10899 H 1027.82 -2.03223 5.64642 0
M  V30 10900 H 1028.89 -0.932339 4.75852 0
M  V30 10901 N 1030.24 -1.51135 -0.446768 0
M  V30 10902 C 1031.65 -1.55919 -1.02694 0
M  V30 10903 C 1032 -0.377038 -1.92543 0
M  V30 10904 O 1031.12 0.507295 -2.1037 0
M  V30 10905 C 1031.72 -2.8257 -1.86922 0
M  V30 10906 C 1030.28 -2.89956 -2.40005 0
M  V30 10907 C 1029.42 -2.50482 -1.18971 0
M  V30 10908 H 1032.37 -1.57048 -0.228403 0
M  V30 10909 H 1032.4 -2.65799 -2.7227 0
M  V30 10910 H 1031.91 -3.6859 -1.21502 0
M  V30 10911 H 1030.01 -2.08343 -3.08907 0
M  V30 10912 H 1030.12 -3.93399 -2.73448 0
M  V30 10913 H 1028.49 -2.03466 -1.53211 0
M  V30 10914 H 1029.27 -3.38837 -0.551762 0
M  V30 10915 N 1031.71 0.701592 -1.41122 0
M  V30 10916 C 1032.94 1.49049 -1.43499 0
M  V30 10917 C 1033.36 1.88761 -0.0385684 0
M  V30 10918 O 1032.71 1.56384 0.940755 0
M  V30 10919 C 1032.76 2.7569 -2.33832 0
M  V30 10920 O 1032.49 2.37653 -3.68039 0
M  V30 10921 C 1033.99 3.69479 -2.44949 0
M  V30 10922 H 1031.21 0.459519 -0.488961 0
M  V30 10923 H 1033.75 0.864318 -1.85337 0
M  V30 10924 H 1031.91 3.34559 -1.95318 0
M  V30 10925 H 1032.32 3.19241 -4.16156 0
M  V30 10926 H 1033.79 4.55139 -3.12334 0
M  V30 10927 H 1034.27 4.13553 -1.47887 0
M  V30 10928 H 1034.88 3.16517 -2.84072 0
M  V30 10929 N 1033.19 1.2685 0.935242 0
M  V30 10930 C 1034.42 1.15538 1.71635 0
M  V30 10931 C 1034.83 -0.288698 1.8658 0
M  V30 10932 O 1034.19 -1.19721 1.37743 0
M  V30 10933 C 1034.24 1.8259 3.11999 0
M  V30 10934 O 1033.96 3.21355 2.97763 0
M  V30 10935 C 1035.46 1.77307 4.06297 0
M  V30 10936 H 1032.68 0.402055 0.537208 0
M  V30 10937 H 1035.23 1.67582 1.17203 0
M  V30 10938 H 1033.38 1.3447 3.63313 0
M  V30 10939 H 1033.8 3.54626 3.86446 0
M  V30 10940 H 1035.27 2.28851 5.02326 0
M  V30 10941 H 1035.75 0.740823 4.32907 0
M  V30 10942 H 1036.35 2.25007 3.60904 0
M  V30 10943 N 1034.67 -1.14067 1.0875 0
M  V30 10944 C 1035.92 -1.84819 0.817698 0
M  V30 10945 C 1036.24 -1.83545 -0.658488 0
M  V30 10946 O 1035.51 -1.28633 -1.47751 0
M  V30 10947 H 1034.09 -0.68433 0.299502 0
M  V30 10948 H 1036.75 -1.38208 1.37421 0
M  V30 10949 H 1035.85 -2.89541 1.16501 0
M  V30 10950 N 1036.15 -0.873678 -1.31166 0
M  V30 10951 C 1037.08 -0.276805 -2.26515 0
M  V30 10952 C 1038.06 0.596166 -1.51277 0
M  V30 10953 O 1039.24 0.548769 -1.80335 0
M  V30 10954 C 1036.37 0.607711 -3.33203 0
M  V30 10955 C 1035.42 -0.194411 -4.26057 0
M  V30 10956 S 1036.25 -1.57534 -5.11804 0
M  V30 10957 C 1037.41 -0.697047 -6.22006 0
M  V30 10958 H 1037.64 -1.08505 -2.76792 0
M  V30 10959 H 1035.17 -0.672419 -1.38989 0
M  V30 10960 H 1037.13 1.11234 -3.95142 0
M  V30 10961 H 1035.79 1.38994 -2.81673 0
M  V30 10962 H 1034.98 0.480094 -5.01708 0
M  V30 10963 H 1034.59 -0.631262 -3.68634 0
M  V30 10964 H 1036.88 0.0907919 -6.77439 0
M  V30 10965 H 1037.82 -1.42481 -6.93617 0
M  V30 10966 H 1038.23 -0.262954 -5.63887 0
M  V30 10967 N 1037.63 1.44308 -0.633487 0
M  V30 10968 C 1038.56 2.28943 0.108474 0
M  V30 10969 C 1039.57 1.41415 0.806582 0
M  V30 10970 O 1040.76 1.65544 0.667634 0
M  V30 10971 C 1037.86 3.17845 1.1759 0
M  V30 10972 C 1037.03 4.33802 0.559842 0
M  V30 10973 C 1036.09 5.03722 1.52154 0
M  V30 10974 O 1035.12 5.5966 1.03776 0
M  V30 10975 N 1036.32 5.05392 2.85586 0
M  V30 10976 H 1039.09 2.93262 -0.617879 0
M  V30 10977 H 1036.65 1.54781 -0.474819 0
M  V30 10978 H 1038.64 3.61485 1.81963 0
M  V30 10979 H 1037.21 2.55261 1.80445 0
M  V30 10980 H 1036.43 3.93325 -0.262559 0
M  V30 10981 H 1037.72 5.08637 0.128942 0
M  V30 10982 H 1037.11 4.61282 3.27468 0
M  V30 10983 H 1035.67 5.52813 3.45313 0
M  V30 10984 N 1039.1 0.374177 1.53094 0
M  V30 10985 C 1040.05 -0.468226 2.26001 0
M  V30 10986 C 1041.02 -1.07041 1.27009 0
M  V30 10987 O 1042.21 -1.10129 1.55809 0
M  V30 10988 C 1039.35 -1.59754 3.05896 0
M  V30 10989 C 1038.46 -1.01969 4.19793 0
M  V30 10990 C 1037.59 -2.11882 4.87113 0
M  V30 10991 C 1036.63 -1.51607 5.93028 0
M  V30 10992 N 1035.77 -2.55388 6.54004 0
M  V30 10993 H 1040.61 0.159983 2.9757 0
M  V30 10994 H 1038.15 0.0907196 1.4682 0
M  V30 10995 H 1040.11 -2.26288 3.50499 0
M  V30 10996 H 1038.74 -2.19628 2.36565 0
M  V30 10997 H 1037.79 -0.244386 3.79614 0
M  V30 10998 H 1039.1 -0.539089 4.95878 0
M  V30 10999 H 1038.25 -2.86218 5.34943 0
M  V30 11000 H 1036.99 -2.63297 4.10519 0
M  V30 11001 H 1036 -0.757891 5.44551 0
M  V30 11002 H 1037.22 -1.01006 6.71546 0
M  V30 11003 H 1035.17 -3.06 5.80258 0
M  V30 11004 H 1035.09 -2.12039 7.25655 0
M  V30 11005 H 1036.35 -3.294 7.06481 0
M  V30 11006 N 1040.58 -1.57259 0.103575 0
M  V30 11007 C 1041.55 -2.13337 -0.837859 0
M  V30 11008 C 1042.55 -1.06459 -1.20512 0
M  V30 11009 O 1043.74 -1.32307 -1.13316 0
M  V30 11010 C 1040.87 -2.66093 -2.13089 0
M  V30 11011 H 1042.06 -2.97842 -0.350775 0
M  V30 11012 H 1039.61 -1.55621 -0.145511 0
M  V30 11013 H 1040.35 -1.85133 -2.66264 0
M  V30 11014 H 1040.13 -3.44244 -1.87719 0
M  V30 11015 H 1041.62 -3.09443 -2.80419 0
M  V30 11016 N 1042.06 0.170153 -1.56679 0
M  V30 11017 C 1043.34 0.913938 -1.72935 0
M  V30 11018 C 1043.72 2.00342 -0.665293 0
M  V30 11019 O 1043.07 2.26252 0.319715 0
M  V30 11020 C 1043.28 1.47761 -3.16177 0
M  V30 11021 C 1044.62 1.95007 -3.7717 0
M  V30 11022 O 1045.65 1.57552 -3.19462 0
M  V30 11023 O 1044.51 2.64007 -4.78501 0
M  V30 11024 H 1041.6 0.43027 -0.706256 0
M  V30 11025 H 1044.15 0.157891 -1.68964 0
M  V30 11026 H 1042.92 0.69352 -3.85105 0
M  V30 11027 H 1042.54 2.2978 -3.24479 0
M  V30 11028 N 1043.54 1.5137 0.438746 0
M  V30 11029 C 1044.78 1.64211 1.19006 0
M  V30 11030 C 1045.12 0.356607 1.90898 0
M  V30 11031 O 1044.39 -0.643722 1.83539 0
M  V30 11032 C 1044.68 2.8445 2.20817 0
M  V30 11033 C 1044.53 4.22972 1.53018 0
M  V30 11034 C 1045.85 3.00207 3.21813 0
M  V30 11035 H 1042.97 0.597628 0.431288 0
M  V30 11036 H 1045.61 1.8385 0.479487 0
M  V30 11037 H 1043.76 2.67836 2.81418 0
M  V30 11038 H 1045.43 4.5125 0.957654 0
M  V30 11039 H 1043.67 4.25736 0.832556 0
M  V30 11040 H 1044.34 5.03094 2.27158 0
M  V30 11041 H 1046.82 3.15522 2.71266 0
M  V30 11042 H 1045.7 3.85904 3.90345 0
M  V30 11043 H 1045.96 2.12216 3.87836 0
M  V30 11044 N 1045.02 -0.694098 1.41492 0
M  V30 11045 C 1046.25 -1.48071 1.44078 0
M  V30 11046 C 1046.65 -1.89147 0.0448984 0
M  V30 11047 O 1046 -1.57441 -0.946464 0
M  V30 11048 C 1046.06 -2.77324 2.28761 0
M  V30 11049 C 1045.72 -2.58443 3.76904 0
M  V30 11050 C 1046.72 -2.24294 4.69029 0
M  V30 11051 C 1044.41 -2.74037 4.20962 0
M  V30 11052 C 1046.4 -2.0598 6.03201 0
M  V30 11053 C 1044.09 -2.5534 5.55198 0
M  V30 11054 C 1045.08 -2.21362 6.46133 0
M  V30 11055 O 1044.77 -2.02829 7.77892 0
M  V30 11056 H 1044.5 -0.462794 0.492745 0
M  V30 11057 H 1047.06 -0.861968 1.86438 0
M  V30 11058 H 1045.29 -3.4161 1.81217 0
M  V30 11059 H 1046.98 -3.39134 2.23031 0
M  V30 11060 H 1047.74 -2.11859 4.36281 0
M  V30 11061 H 1043.62 -2.99467 3.50486 0
M  V30 11062 H 1047.17 -1.79382 6.74142 0
M  V30 11063 H 1043.06 -2.67366 5.87525 0
M  V30 11064 H 1043.83 -2.17581 7.89051 0
M  V30 11065 N 1046.49 -1.27344 -0.928501 0
M  V30 11066 C 1047.72 -1.16557 -1.7155 0
M  V30 11067 C 1048.14 0.274044 -1.86093 0
M  V30 11068 O 1047.5 1.19847 -1.36038 0
M  V30 11069 C 1047.55 -1.85332 -3.09329 0
M  V30 11070 O 1046.65 -1.15074 -3.9602 0
M  V30 11071 H 1046 -0.405423 -0.525859 0
M  V30 11072 H 1048.53 -1.68399 -1.16202 0
M  V30 11073 H 1048.54 -1.92659 -3.59648 0
M  V30 11074 H 1047.21 -2.90056 -2.98061 0
M  V30 11075 H 1045.79 -1.1581 -3.54461 0
M  V30 11076 N 1047.97 1.13488 -1.09353 0
M  V30 11077 C 1049.22 1.84748 -0.829126 0
M  V30 11078 C 1049.55 1.83485 0.645247 0
M  V30 11079 O 1048.8 1.26767 1.49093 0
M  V30 11080 C 1049.1 3.32584 -1.30854 0
M  V30 11081 C 1048.77 3.54028 -2.7924 0
M  V30 11082 C 1047.43 3.59588 -3.19765 0
M  V30 11083 C 1049.78 3.62058 -3.74918 0
M  V30 11084 C 1047.11 3.70712 -4.54741 0
M  V30 11085 C 1049.46 3.7471 -5.09682 0
M  V30 11086 C 1048.13 3.78523 -5.49797 0
M  V30 11087 H 1047.4 0.67604 -0.303399 0
M  V30 11088 H 1050.04 1.33989 -1.36818 0
M  V30 11089 H 1048.35 3.85689 -0.689275 0
M  V30 11090 H 1050.04 3.86166 -1.08059 0
M  V30 11091 H 1046.63 3.50354 -2.4688 0
M  V30 11092 H 1050.82 3.57043 -3.44723 0
M  V30 11093 H 1046.07 3.71931 -4.8526 0
M  V30 11094 H 1050.25 3.79866 -5.83674 0
M  V30 11095 H 1047.88 3.86895 -6.54382 0
M  V30 11096 N 1049.45 0.880621 1.30701 0
M  V30 11097 C 1050.7 0.495894 1.95922 0
M  V30 11098 C 1051.02 -0.957214 1.69889 0
M  V30 11099 O 1050.29 -1.67245 1.0201 0
M  V30 11100 H 1048.87 0.180394 0.724891 0
M  V30 11101 H 1051.53 1.12274 1.59313 0
M  V30 11102 H 1050.63 0.662508 3.04987 0
M  V30 11103 N 1050.93 -1.4397 0.641131 0
M  V30 11104 C 1052.18 -2.01163 0.147026 0
M  V30 11105 C 1052.49 -1.51099 -1.24211 0
M  V30 11106 O 1053.7 -2.00487 -1.83078 0
M  V30 11107 C 1052.15 -3.59275 0.212068 0
M  V30 11108 C 1051.76 -4.18334 1.60314 0
M  V30 11109 C 1053.51 -4.23903 -0.225057 0
M  V30 11110 C 1051.41 -5.68701 1.62276 0
M  V30 11111 H 1050.34 -0.75226 0.051201 0
M  V30 11112 H 1052.99 -1.65075 0.801396 0
M  V30 11113 H 1051.38 -3.92708 -0.509589 0
M  V30 11114 H 1052.55 -3.96422 2.34918 0
M  V30 11115 H 1050.86 -3.66031 1.9852 0
M  V30 11116 H 1053.46 -5.34205 -0.230074 0
M  V30 11117 H 1053.8 -3.96956 -1.25426 0
M  V30 11118 H 1054.34 -3.95309 0.44444 0
M  V30 11119 H 1051.08 -6.00397 2.63066 0
M  V30 11120 H 1050.6 -5.92705 0.919797 0
M  V30 11121 H 1052.28 -6.32521 1.36112 0
M  V30 11122 N 1052.41 -0.382291 -1.52893 0
M  V30 11123 C 1053.66 0.203342 -2.00672 0
M  V30 11124 C 1053.97 1.48487 -1.27322 0
M  V30 11125 O 1055.18 2.15013 -1.65776 0
M  V30 11126 C 1053.63 0.412922 -3.57523 0
M  V30 11127 C 1053.24 -0.854949 -4.39767 0
M  V30 11128 C 1054.98 0.955301 -4.13611 0
M  V30 11129 C 1052.89 -0.614033 -5.88204 0
M  V30 11130 H 1051.82 0.0797635 -0.749769 0
M  V30 11131 H 1054.47 -0.50361 -1.76454 0
M  V30 11132 H 1052.85 1.18155 -3.77962 0
M  V30 11133 H 1054.03 -1.62765 -4.31096 0
M  V30 11134 H 1052.34 -1.32176 -3.94865 0
M  V30 11135 H 1054.94 1.15114 -5.22162 0
M  V30 11136 H 1055.28 1.92233 -3.69259 0
M  V30 11137 H 1055.82 0.24642 -3.97036 0
M  V30 11138 H 1052.55 -1.55187 -6.36865 0
M  V30 11139 H 1052.07 0.119865 -5.9968 0
M  V30 11140 H 1053.75 -0.245895 -6.46533 0
M  V30 11141 N 1053.89 1.57202 -0.111913 0
M  V30 11142 C 1054.82 2.17957 0.837683 0
M  V30 11143 C 1055.8 1.1176 1.28233 0
M  V30 11144 O 1056.98 1.39967 1.34621 0
M  V30 11145 C 1054.11 2.77333 2.09054 0
M  V30 11146 C 1053.07 3.8905 1.78393 0
M  V30 11147 C 1052.39 4.35203 3.10649 0
M  V30 11148 C 1053.69 5.11477 1.05775 0
M  V30 11149 H 1055.39 2.9756 0.331441 0
M  V30 11150 H 1052.93 1.43131 0.157979 0
M  V30 11151 H 1054.88 3.18492 2.75936 0
M  V30 11152 H 1053.61 1.95009 2.6199 0
M  V30 11153 H 1052.27 3.48456 1.13903 0
M  V30 11154 H 1051.92 3.49747 3.61506 0
M  V30 11155 H 1051.62 5.10534 2.9091 0
M  V30 11156 H 1053.14 4.79007 3.78661 0
M  V30 11157 H 1054.55 5.497 1.62798 0
M  V30 11158 H 1052.95 5.92346 0.961573 0
M  V30 11159 H 1054.02 4.84881 0.043297 0
M  V30 11160 N 1055.36 -0.161842 1.56767 0
M  V30 11161 C 1056.3 -1.22499 1.93718 0
M  V30 11162 C 1057.31 -1.39975 0.831314 0
M  V30 11163 O 1058.5 -1.3981 1.10975 0
M  V30 11164 C 1055.6 -2.59222 2.18306 0
M  V30 11165 C 1054.77 -2.6292 3.4956 0
M  V30 11166 C 1053.83 -3.81074 3.62863 0
M  V30 11167 O 1052.86 -3.66633 4.35395 0
M  V30 11168 N 1054.06 -4.97923 2.98418 0
M  V30 11169 H 1056.82 -0.911043 2.85517 0
M  V30 11170 H 1054.38 -0.351533 1.58038 0
M  V30 11171 H 1056.38 -3.36749 2.24461 0
M  V30 11172 H 1054.95 -2.82969 1.32844 0
M  V30 11173 H 1054.17 -1.71418 3.54978 0
M  V30 11174 H 1055.45 -2.62409 4.35911 0
M  V30 11175 H 1054.85 -5.12557 2.39378 0
M  V30 11176 H 1053.41 -5.73277 3.10155 0
M  V30 11177 N 1056.84 -1.516 -0.430713 0
M  V30 11178 C 1057.75 -1.76247 -1.54836 0
M  V30 11179 C 1058.77 -0.646985 -1.61524 0
M  V30 11180 O 1059.94 -0.929987 -1.78643 0
M  V30 11181 C 1057.01 -1.88833 -2.90763 0
M  V30 11182 C 1056.07 -3.12701 -2.94137 0
M  V30 11183 C 1055.3 -3.24676 -4.23581 0
M  V30 11184 O 1055.53 -2.42429 -5.16318 0
M  V30 11185 O 1054.46 -4.17697 -4.33374 0
M  V30 11186 H 1058.29 -2.71069 -1.3695 0
M  V30 11187 H 1055.87 -1.36182 -0.614396 0
M  V30 11188 H 1057.75 -1.99057 -3.71422 0
M  V30 11189 H 1056.43 -0.971987 -3.08762 0
M  V30 11190 H 1055.33 -3.0795 -2.1241 0
M  V30 11191 H 1056.67 -4.04045 -2.81084 0
M  V30 11192 N 1058.32 0.686584 -1.41858 0
M  V30 11193 C 1059.57 1.44235 -1.40994 0
M  V30 11194 C 1059.88 1.95583 -0.0254979 0
M  V30 11195 O 1061.09 2.71294 0.10576 0
M  V30 11196 C 1059.54 2.6086 -2.47952 0
M  V30 11197 C 1059.15 2.16259 -3.92347 0
M  V30 11198 C 1060.9 3.38441 -2.56237 0
M  V30 11199 C 1058.8 3.29896 -4.90838 0
M  V30 11200 H 1057.73 0.54181 -0.524364 0
M  V30 11201 H 1060.38 0.744486 -1.67719 0
M  V30 11202 H 1058.77 3.32957 -2.14373 0
M  V30 11203 H 1059.94 1.51392 -4.35221 0
M  V30 11204 H 1058.25 1.51648 -3.87804 0
M  V30 11205 H 1060.85 4.23052 -3.27003 0
M  V30 11206 H 1061.19 3.84238 -1.6021 0
M  V30 11207 H 1061.73 2.73406 -2.88953 0
M  V30 11208 H 1058.47 2.89104 -5.88302 0
M  V30 11209 H 1057.99 3.93584 -4.52606 0
M  V30 11210 H 1059.67 3.95541 -5.12012 0
M  V30 11211 N 1059.8 1.27835 0.921735 0
M  V30 11212 C 1060.76 1.11108 2.00469 0
M  V30 11213 C 1061.76 0.053203 1.60712 0
M  V30 11214 O 1062.95 0.298308 1.71627 0
M  V30 11215 C 1060.08 0.694269 3.33755 0
M  V30 11216 H 1061.28 2.07279 2.16738 0
M  V30 11217 H 1058.83 1.10708 1.10333 0
M  V30 11218 H 1059.56 -0.268561 3.23186 0
M  V30 11219 H 1059.35 1.45836 3.6397 0
M  V30 11220 H 1060.84 0.59965 4.13272 0
M  V30 11221 N 1061.28 -1.12907 1.09954 0
M  V30 11222 C 1062.21 -2.20585 0.765799 0
M  V30 11223 C 1063.19 -1.68117 -0.258989 0
M  V30 11224 O 1064.37 -1.93792 -0.125853 0
M  V30 11225 C 1061.5 -3.46772 0.191435 0
M  V30 11226 C 1060.46 -4.12363 1.14635 0
M  V30 11227 C 1059.78 -5.3294 0.433426 0
M  V30 11228 C 1061.08 -4.59073 2.49096 0
M  V30 11229 H 1062.78 -2.48759 1.66612 0
M  V30 11230 H 1060.32 -1.19563 0.802534 0
M  V30 11231 H 1062.27 -4.21365 -0.0541535 0
M  V30 11232 H 1061 -3.18011 -0.744101 0
M  V30 11233 H 1059.66 -3.39744 1.37731 0
M  V30 11234 H 1059.31 -5.00444 -0.506422 0
M  V30 11235 H 1059.01 -5.77772 1.07018 0
M  V30 11236 H 1060.53 -6.10284 0.196267 0
M  V30 11237 H 1061.94 -5.25063 2.30177 0
M  V30 11238 H 1060.34 -5.14665 3.0861 0
M  V30 11239 H 1061.41 -3.73313 3.0946 0
M  V30 11240 N 1062.75 -0.88754 -1.30232 0
M  V30 11241 C 1064.17 -0.581904 -1.48614 0
M  V30 11242 C 1064.37 0.879711 -1.81282 0
M  V30 11243 O 1063.43 1.66076 -1.90198 0
M  V30 11244 C 1064.74 -1.49726 -2.60773 0
M  V30 11245 C 1066.29 -1.50117 -2.74653 0
M  V30 11246 C 1066.76 -2.40251 -3.89927 0
M  V30 11247 N 1068.25 -2.38229 -3.97242 0
M  V30 11248 C 1068.99 -3.04682 -4.85754 0
M  V30 11249 N 1068.48 -3.80369 -5.79043 0
M  V30 11250 N 1070.28 -2.93901 -4.79144 0
M  V30 11251 H 1062.43 -1.83304 -1.073 0
M  V30 11252 H 1064.69 -0.78477 -0.531826 0
M  V30 11253 H 1064.4 -2.5381 -2.43462 0
M  V30 11254 H 1064.27 -1.20874 -3.57308 0
M  V30 11255 H 1066.66 -0.467832 -2.91368 0
M  V30 11256 H 1066.74 -1.83001 -1.7873 0
M  V30 11257 H 1066.38 -3.43671 -3.73969 0
M  V30 11258 H 1066.31 -2.04682 -4.85194 0
M  V30 11259 H 1068.8 -1.83229 -3.30508 0
M  V30 11260 H 1069.12 -4.28159 -6.4335 0
M  V30 11261 H 1067.46 -3.84477 -5.78967 0
M  V30 11262 H 1070.65 -2.34296 -4.05245 0
M  V30 11263 H 1070.83 -3.45967 -5.47915 0
M  V30 11264 N 1064.23 1.43628 -0.648757 0
M  V30 11265 C 1065.46 2.06732 -0.166284 0
M  V30 11266 C 1065.88 1.48281 1.15734 0
M  V30 11267 O 1065.24 0.591018 1.71396 0
M  V30 11268 C 1065.29 3.60502 -0.0838732 0
M  V30 11269 O 1064.39 4.01186 0.955185 0
M  V30 11270 H 1063.73 0.657479 -0.0928285 0
M  V30 11271 H 1066.26 1.84208 -0.890421 0
M  V30 11272 H 1066.27 4.07875 0.100923 0
M  V30 11273 H 1064.95 4.02424 -1.05014 0
M  V30 11274 H 1063.53 3.65412 0.743537 0
M  V30 11275 N 1065.71 0.390394 1.52688 0
M  V30 11276 C 1066.96 -0.191067 2.01195 0
M  V30 11277 C 1067.28 -1.47229 1.27862 0
M  V30 11278 O 1066.55 -1.91793 0.399007 0
M  V30 11279 H 1065.13 -0.073596 0.743366 0
M  V30 11280 H 1067.79 0.522334 1.8777 0
M  V30 11281 H 1066.89 -0.40051 3.0952 0
M  V30 11282 N 1067.19 -1.57141 0.120249 0
M  V30 11283 C 1068.6 -1.82256 -0.404931 0
M  V30 11284 C 1068.95 -1.03748 -1.66526 0
M  V30 11285 O 1068.08 -0.274456 -2.14653 0
M  V30 11286 C 1068.67 -3.30588 -0.741431 0
M  V30 11287 C 1067.23 -3.56379 -1.21124 0
M  V30 11288 C 1066.38 -2.76421 -0.220569 0
M  V30 11289 H 1069.33 -1.54897 0.345361 0
M  V30 11290 H 1069.35 -3.45284 -1.59872 0
M  V30 11291 H 1068.86 -3.87701 0.176036 0
M  V30 11292 H 1066.96 -3.04625 -2.14556 0
M  V30 11293 H 1067.07 -4.64952 -1.1557 0
M  V30 11294 H 1065.44 -2.44666 -0.707857 0
M  V30 11295 H 1066.22 -3.36294 0.690018 0
M  V30 11296 N 1068.67 0.153526 -1.5685 0
M  V30 11297 C 1069.91 0.867232 -1.8299 0
M  V30 11298 C 1070.24 1.81462 -0.700125 0
M  V30 11299 O 1069.5 1.93207 0.311348 0
M  V30 11300 C 1069.8 1.68066 -3.15418 0
M  V30 11301 C 1069.46 0.880635 -4.42217 0
M  V30 11302 C 1068.12 0.659899 -4.76654 0
M  V30 11303 C 1070.48 0.320698 -5.20212 0
M  V30 11304 C 1067.8 -0.131588 -5.86552 0
M  V30 11305 C 1070.16 -0.457794 -6.30941 0
M  V30 11306 C 1068.82 -0.689168 -6.63933 0
M  V30 11307 H 1068.09 0.317343 -0.669608 0
M  V30 11308 H 1070.74 0.131208 -1.9105 0
M  V30 11309 H 1069.04 2.4866 -3.02779 0
M  V30 11310 H 1070.74 2.23623 -3.32857 0
M  V30 11311 H 1067.33 1.06274 -4.15215 0
M  V30 11312 H 1071.51 0.47853 -4.93988 0
M  V30 11313 H 1066.77 -0.320413 -6.1056 0
M  V30 11314 H 1070.94 -0.898839 -6.90575 0
M  V30 11315 H 1068.57 -1.30433 -7.48927 0
M  V30 11316 N 1070.14 1.51827 0.422667 0
M  V30 11317 C 1071.37 1.68803 1.19117 0
M  V30 11318 C 1071.78 0.391228 1.85111 0
M  V30 11319 O 1071.13 -0.64148 1.72136 0
M  V30 11320 C 1071.19 2.75767 2.30636 0
M  V30 11321 C 1070.85 4.17929 1.8489 0
M  V30 11322 C 1071.85 5.02223 1.34416 0
M  V30 11323 C 1069.53 4.641 1.92136 0
M  V30 11324 C 1071.53 6.30756 0.917925 0
M  V30 11325 C 1069.21 5.92626 1.49123 0
M  V30 11326 C 1070.21 6.75782 0.990352 0
M  V30 11327 O 1069.9 8.01902 0.566386 0
M  V30 11328 H 1069.63 0.569303 0.364514 0
M  V30 11329 H 1072.19 1.9909 0.505208 0
M  V30 11330 H 1070.42 2.40827 3.02555 0
M  V30 11331 H 1072.11 2.81476 2.92448 0
M  V30 11332 H 1072.87 4.67749 1.28202 0
M  V30 11333 H 1068.75 3.99488 2.30066 0
M  V30 11334 H 1072.29 6.95612 0.52628 0
M  V30 11335 H 1068.19 6.26611 1.55012 0
M  V30 11336 H 1068.96 8.15579 0.690918 0
M  V30 11337 N 1071.62 -0.679052 1.4222 0
M  V30 11338 C 1072.55 -1.80481 1.48152 0
M  V30 11339 C 1073.53 -1.66698 0.338502 0
M  V30 11340 O 1074.72 -1.86183 0.552228 0
M  V30 11341 C 1071.85 -3.18746 1.37908 0
M  V30 11342 C 1070.8 -3.47258 2.50192 0
M  V30 11343 C 1070.13 -4.85052 2.25008 0
M  V30 11344 C 1071.43 -3.44576 3.92511 0
M  V30 11345 H 1073.12 -1.75774 2.42371 0
M  V30 11346 H 1070.67 -0.844241 1.16656 0
M  V30 11347 H 1072.62 -3.97229 1.40666 0
M  V30 11348 H 1071.35 -3.24119 0.401806 0
M  V30 11349 H 1070 -2.71133 2.46744 0
M  V30 11350 H 1069.65 -4.8707 1.25584 0
M  V30 11351 H 1069.35 -5.05092 3.00259 0
M  V30 11352 H 1070.88 -5.65825 2.29508 0
M  V30 11353 H 1072.29 -4.13036 3.97585 0
M  V30 11354 H 1070.69 -3.76151 4.67579 0
M  V30 11355 H 1071.76 -2.4323 4.19484 0
M  V30 11356 N 1073.1 -1.28322 -0.914942 0
M  V30 11357 C 1074.01 -1.13993 -2.05043 0
M  V30 11358 C 1075.03 -0.0667921 -1.73872 0
M  V30 11359 O 1076.2 -0.275845 -1.99502 0
M  V30 11360 C 1073.27 -0.801856 -3.373 0
M  V30 11361 C 1072.33 -1.95723 -3.82088 0
M  V30 11362 C 1071.56 -1.63519 -5.08033 0
M  V30 11363 O 1071.78 -0.54899 -5.67752 0
M  V30 11364 O 1070.72 -2.47844 -5.48504 0
M  V30 11365 H 1074.54 -2.09313 -2.2005 0
M  V30 11366 H 1072.13 -1.0763 -1.03616 0
M  V30 11367 H 1074.01 -0.627214 -4.16706 0
M  V30 11368 H 1072.69 0.121696 -3.23471 0
M  V30 11369 H 1071.59 -2.18702 -3.03514 0
M  V30 11370 H 1072.93 -2.86144 -4.00478 0
M  V30 11371 N 1074.58 1.12322 -1.10551 0
M  V30 11372 C 1075.83 1.83495 -0.846998 0
M  V30 11373 C 1076.15 1.8457 0.629205 0
M  V30 11374 O 1075.42 1.30968 1.45686 0
M  V30 11375 H 1074 0.679479 -0.310351 0
M  V30 11376 H 1076.66 1.36004 -1.39602 0
M  V30 11377 H 1075.76 2.87651 -1.21092 0
M  V30 11378 N 1076.06 0.894434 1.2976 0
M  V30 11379 C 1076.99 0.3847 2.30309 0
M  V30 11380 C 1077.97 -0.537486 1.61385 0
M  V30 11381 O 1079.15 -0.449332 1.8893 0
M  V30 11382 C 1076.28 -0.393311 3.45066 0
M  V30 11383 C 1075.24 0.437968 4.25753 0
M  V30 11384 C 1074.56 -0.467221 5.32655 0
M  V30 11385 C 1075.86 1.6851 4.9437 0
M  V30 11386 H 1077.56 1.22496 2.73194 0
M  V30 11387 H 1075.1 0.590471 1.31337 0
M  V30 11388 H 1077.06 -0.760614 4.14479 0
M  V30 11389 H 1075.78 -1.2673 3.0101 0
M  V30 11390 H 1074.44 0.787533 3.58041 0
M  V30 11391 H 1074.09 -1.33919 4.84845 0
M  V30 11392 H 1073.79 0.0852482 5.87538 0
M  V30 11393 H 1075.31 -0.830833 6.04921 0
M  V30 11394 H 1076.72 1.38784 5.56248 0
M  V30 11395 H 1075.12 2.17849 5.59162 0
M  V30 11396 H 1076.19 2.42412 4.19958 0
M  V30 11397 N 1077.53 -1.43282 0.656365 0
M  V30 11398 C 1078.81 -1.9534 0.100816 0
M  V30 11399 C 1079.19 -1.59755 -1.37992 0
M  V30 11400 O 1078.54 -0.884264 -2.10697 0
M  V30 11401 C 1078.75 -3.47237 0.35038 0
M  V30 11402 C 1080.1 -4.23822 0.257001 0
M  V30 11403 O 1081.12 -3.55073 0.283111 0
M  V30 11404 O 1079.98 -5.46192 0.183397 0
M  V30 11405 H 1077.07 -0.826963 -0.00780287 0
M  V30 11406 H 1079.62 -1.53205 0.72982 0
M  V30 11407 H 1078.39 -3.66276 1.37685 0
M  V30 11408 H 1078.02 -3.96378 -0.311539 0
M  V30 11409 N 1079.01 -0.398486 -1.52479 0
M  V30 11410 C 1079.94 0.423498 -2.29627 0
M  V30 11411 C 1080.92 1.05547 -1.33394 0
M  V30 11412 O 1082.11 1.0665 -1.62294 0
M  V30 11413 C 1079.24 1.54612 -3.10986 0
M  V30 11414 C 1078.19 1.03971 -4.15179 0
M  V30 11415 C 1077.52 2.25512 -4.84818 0
M  V30 11416 C 1078.82 0.10121 -5.22202 0
M  V30 11417 H 1080.51 -0.220222 -2.98589 0
M  V30 11418 H 1078.06 -0.107355 -1.43599 0
M  V30 11419 H 1080.01 2.12806 -3.63719 0
M  V30 11420 H 1078.74 2.21756 -2.39774 0
M  V30 11421 H 1077.4 0.480251 -3.63441 0
M  V30 11422 H 1077.04 2.91187 -4.10145 0
M  V30 11423 H 1076.74 1.92285 -5.55248 0
M  V30 11424 H 1078.27 2.84331 -5.40359 0
M  V30 11425 H 1079.68 0.591617 -5.70239 0
M  V30 11426 H 1078.08 -0.141737 -5.99933 0
M  V30 11427 H 1079.15 -0.847216 -4.77441 0
M  V30 11428 N 1080.49 1.57075 -0.12858 0
M  V30 11429 C 1081.72 2.00305 0.537839 0
M  V30 11430 C 1082.14 1.00787 1.58819 0
M  V30 11431 O 1081.5 -0.0190839 1.8129 0
M  V30 11432 C 1081.55 3.42371 1.13201 0
M  V30 11433 O 1080.65 3.45786 2.24735 0
M  V30 11434 H 1079.99 0.650456 0.133428 0
M  V30 11435 H 1082.52 2.03415 -0.219882 0
M  V30 11436 H 1082.53 3.80783 1.4652 0
M  V30 11437 H 1081.21 4.14315 0.362713 0
M  V30 11438 H 1079.78 3.19201 1.92783 0
M  V30 11439 N 1081.97 -0.145205 1.5693 0
M  V30 11440 C 1083.38 -0.705089 1.72874 0
M  V30 11441 C 1083.73 -1.81577 0.743261 0
M  V30 11442 O 1082.86 -2.16214 -0.0897153 0
M  V30 11443 C 1083.45 -1.28578 3.13454 0
M  V30 11444 C 1082.01 -1.79221 3.30994 0
M  V30 11445 C 1081.16 -0.681392 2.68798 0
M  V30 11446 H 1084.11 0.0804798 1.58496 0
M  V30 11447 H 1084.13 -2.15558 3.13552 0
M  V30 11448 H 1083.64 -0.477186 3.85155 0
M  V30 11449 H 1081.74 -2.62642 2.64292 0
M  V30 11450 H 1081.86 -1.91969 4.38959 0
M  V30 11451 H 1080.22 -1.10847 2.29314 0
M  V30 11452 H 1081 0.115786 3.43105 0
M  V30 11453 N 1083.45 -1.52049 -0.414609 0
M  V30 11454 C 1084.39 -1.74998 -1.5048 0
M  V30 11455 C 1085.36 -0.592251 -1.55182 0
M  V30 11456 O 1086.55 -0.829203 -1.7184 0
M  V30 11457 C 1083.69 -1.90157 -2.87983 0
M  V30 11458 C 1082.8 -3.17789 -2.92633 0
M  V30 11459 C 1081.94 -3.23411 -4.21401 0
M  V30 11460 C 1080.98 -4.45267 -4.20004 0
M  V30 11461 N 1080.11 -4.48312 -5.40334 0
M  V30 11462 H 1084.95 -2.68046 -1.30212 0
M  V30 11463 H 1082.49 -1.32824 -0.632154 0
M  V30 11464 H 1084.45 -1.96929 -3.67797 0
M  V30 11465 H 1083.08 -1.00496 -3.06758 0
M  V30 11466 H 1082.13 -3.20216 -2.05343 0
M  V30 11467 H 1083.44 -4.07634 -2.87465 0
M  V30 11468 H 1082.6 -3.29224 -5.09604 0
M  V30 11469 H 1081.34 -2.31495 -4.29257 0
M  V30 11470 H 1080.34 -4.39606 -3.30192 0
M  V30 11471 H 1081.57 -5.38472 -4.13793 0
M  V30 11472 H 1079.51 -3.59277 -5.48868 0
M  V30 11473 H 1079.43 -5.31994 -5.37139 0
M  V30 11474 H 1080.7 -4.58347 -6.30506 0
M  V30 11475 N 1084.93 0.6715 -1.42579 0
M  V30 11476 C 1085.84 1.81435 -1.48723 0
M  V30 11477 C 1086.85 1.69895 -0.375716 0
M  V30 11478 O 1088.03 1.91388 -0.627115 0
M  V30 11479 C 1085.09 3.17599 -1.39038 0
M  V30 11480 C 1084.15 3.41071 -2.60709 0
M  V30 11481 C 1083.39 4.7074 -2.51476 0
M  V30 11482 O 1083.61 5.48868 -1.55243 0
M  V30 11483 O 1082.54 4.95528 -3.41666 0
M  V30 11484 H 1086.37 1.79206 -2.45191 0
M  V30 11485 H 1083.95 0.827666 -1.24379 0
M  V30 11486 H 1085.84 3.98847 -1.3601 0
M  V30 11487 H 1084.51 3.20458 -0.456966 0
M  V30 11488 H 1083.42 2.59659 -2.69311 0
M  V30 11489 H 1084.75 3.43045 -3.5296 0
M  V30 11490 N 1086.4 1.28806 0.908124 0
M  V30 11491 C 1087.65 1.15663 1.65242 0
M  V30 11492 C 1087.97 -0.292883 1.93395 0
M  V30 11493 O 1089.17 -0.545509 2.65963 0
M  V30 11494 C 1087.63 2.02233 2.97707 0
M  V30 11495 C 1087.24 3.51958 2.77181 0
M  V30 11496 C 1088.98 1.97792 3.75604 0
M  V30 11497 C 1086.89 4.3066 4.05322 0
M  V30 11498 H 1085.82 0.42928 0.619867 0
M  V30 11499 H 1088.47 1.5338 1.00731 0
M  V30 11500 H 1086.85 1.57377 3.63385 0
M  V30 11501 H 1088.02 4.0481 2.20149 0
M  V30 11502 H 1086.34 3.57983 2.12691 0
M  V30 11503 H 1088.94 2.53858 4.70596 0
M  V30 11504 H 1089.28 0.955956 4.05175 0
M  V30 11505 H 1089.81 2.40648 3.16755 0
M  V30 11506 H 1086.55 5.3346 3.8092 0
M  V30 11507 H 1086.07 3.8258 4.61944 0
M  V30 11508 H 1087.75 4.40878 4.73535 0
M  V30 11509 N 1087.88 -1.11734 1.11145 0
M  V30 11510 C 1089.13 -1.83677 0.859684 0
M  V30 11511 C 1089.46 -1.84265 -0.613182 0
M  V30 11512 O 1088.74 -1.29351 -1.45254 0
M  V30 11513 C 1089.02 -3.31003 1.41805 0
M  V30 11514 C 1088.87 -3.38827 2.95831 0
M  V30 11515 C 1090.19 -4.26984 1.06645 0
M  V30 11516 H 1087.31 -0.666879 0.313754 0
M  V30 11517 H 1089.95 -1.31038 1.37583 0
M  V30 11518 H 1088.1 -3.75961 0.979054 0
M  V30 11519 H 1089.77 -3.02451 3.48312 0
M  V30 11520 H 1088.02 -2.79143 3.32056 0
M  V30 11521 H 1088.69 -4.42508 3.29986 0
M  V30 11522 H 1091.16 -3.9019 1.44537 0
M  V30 11523 H 1090.04 -5.2846 1.48394 0
M  V30 11524 H 1090.3 -4.42094 -0.0231866 0
M  V30 11525 N 1089.36 -0.901303 -1.29284 0
M  V30 11526 C 1090.29 -0.337552 -2.26701 0
M  V30 11527 C 1091.3 0.517039 -1.54371 0
M  V30 11528 O 1092.49 0.333937 -1.75349 0
M  V30 11529 C 1089.59 0.537214 -3.34615 0
M  V30 11530 C 1088.77 -0.292017 -4.36424 0
M  V30 11531 C 1087.83 0.515837 -5.23666 0
M  V30 11532 O 1086.85 -0.0672303 -5.6916 0
M  V30 11533 N 1088.05 1.82159 -5.51179 0
M  V30 11534 H 1090.82 -1.17484 -2.75713 0
M  V30 11535 H 1088.38 -0.765957 -1.42635 0
M  V30 11536 H 1090.37 1.0841 -3.8991 0
M  V30 11537 H 1088.94 1.2752 -2.85408 0
M  V30 11538 H 1088.16 -1.02031 -3.80767 0
M  V30 11539 H 1089.45 -0.859855 -5.01482 0
M  V30 11540 H 1088.85 2.318 -5.16028 0
M  V30 11541 H 1087.4 2.31556 -6.09282 0
M  V30 11542 N 1090.84 1.42931 -0.663954 0
M  V30 11543 C 1091.78 2.3079 0.0210764 0
M  V30 11544 C 1092.75 1.45356 0.803796 0
M  V30 11545 O 1093.94 1.74207 0.778237 0
M  V30 11546 C 1091.08 3.31069 0.974023 0
M  V30 11547 C 1090.19 4.31598 0.186273 0
M  V30 11548 C 1089.33 5.18955 1.13399 0
M  V30 11549 C 1088.37 6.1117 0.337292 0
M  V30 11550 N 1087.5 6.91114 1.23715 0
M  V30 11551 H 1092.34 2.88819 -0.733995 0
M  V30 11552 H 1089.88 1.42274 -0.373711 0
M  V30 11553 H 1091.84 3.87727 1.54024 0
M  V30 11554 H 1090.47 2.74665 1.69585 0
M  V30 11555 H 1089.52 3.77147 -0.496402 0
M  V30 11556 H 1090.83 4.96919 -0.432753 0
M  V30 11557 H 1089.99 5.80292 1.77049 0
M  V30 11558 H 1088.73 4.53785 1.78691 0
M  V30 11559 H 1087.73 5.48911 -0.312492 0
M  V30 11560 H 1088.96 6.78386 -0.31138 0
M  V30 11561 H 1086.9 6.28583 1.87668 0
M  V30 11562 H 1086.82 7.52999 0.672946 0
M  V30 11563 H 1088.09 7.56948 1.86146 0
M  V30 11564 N 1092.32 0.406567 1.52266 0
M  V30 11565 C 1093.56 -0.170305 2.02084 0
M  V30 11566 C 1093.89 -1.45008 1.29176 0
M  V30 11567 O 1093.17 -1.90399 0.39731 0
M  V30 11568 C 1093.45 -0.420627 3.57635 0
M  V30 11569 C 1093.31 0.87564 4.41194 0
M  V30 11570 C 1094.62 -1.20387 4.23314 0
M  V30 11571 H 1091.74 -0.0604219 0.734519 0
M  V30 11572 H 1094.39 0.539529 1.82179 0
M  V30 11573 H 1092.54 -1.0253 3.74726 0
M  V30 11574 H 1094.21 1.51192 4.35819 0
M  V30 11575 H 1092.45 1.48718 4.07511 0
M  V30 11576 H 1093.12 0.654916 5.48101 0
M  V30 11577 H 1095.6 -0.691972 4.10306 0
M  V30 11578 H 1094.47 -1.34776 5.32096 0
M  V30 11579 H 1094.73 -2.2238 3.82099 0
M  V30 11580 N 1093.79 -1.57004 0.136909 0
M  V30 11581 C 1095.21 -1.58082 -0.21958 0
M  V30 11582 C 1095.41 -1.15065 -1.65415 0
M  V30 11583 O 1094.47 -0.846284 -2.37896 0
M  V30 11584 C 1095.78 -3.00685 0.0300112 0
M  V30 11585 C 1097.33 -3.12981 -0.0344899 0
M  V30 11586 C 1097.8 -4.57615 0.187639 0
M  V30 11587 N 1099.29 -4.63005 0.134219 0
M  V30 11588 C 1100.03 -5.72712 0.280743 0
M  V30 11589 N 1099.52 -6.91104 0.48443 0
M  V30 11590 N 1101.32 -5.61673 0.219055 0
M  V30 11591 H 1093.47 -1.83262 1.07372 0
M  V30 11592 H 1095.73 -0.847776 0.424241 0
M  V30 11593 H 1095.44 -3.36509 1.02247 0
M  V30 11594 H 1095.31 -3.70762 -0.693918 0
M  V30 11595 H 1097.7 -2.77004 -1.01749 0
M  V30 11596 H 1097.78 -2.45411 0.721608 0
M  V30 11597 H 1097.42 -4.94295 1.16769 0
M  V30 11598 H 1097.35 -5.23299 -0.588661 0
M  V30 11599 H 1099.84 -3.77895 -0.0189681 0
M  V30 11600 H 1100.16 -7.7057 0.586613 0
M  V30 11601 H 1098.5 -6.93047 0.520627 0
M  V30 11602 H 1101.69 -4.68061 0.0607606 0
M  V30 11603 H 1101.87 -6.47125 0.336683 0
M  V30 11604 N 1095.27 0.136881 -1.57004 0
M  V30 11605 C 1096.22 1.18782 -1.99984 0
M  V30 11606 C 1097.21 1.43899 -0.893841 0
M  V30 11607 O 1098.42 1.44072 -1.07904 0
M  V30 11608 H 1094.8 0.400065 -0.636751 0
M  V30 11609 H 1096.77 0.798696 -2.87512 0
M  V30 11610 C 1095.52 2.51105 -2.40502 0
M  V30 11611 H 1094.84 2.32611 -3.25165 0
M  V30 11612 H 1096.28 3.23244 -2.74389 0
M  V30 11613 C 1094.74 3.12386 -1.26161 0
M  V30 11614 O 1095.27 3.97666 -0.567836 0
M  V30 11615 N 1093.47 2.71989 -1.02326 0
M  V30 11616 H 1093.02 2.02736 -1.58921 0
M  V30 11617 H 1092.98 3.13322 -0.26013 0
M  V30 11618 N 1096.75 1.52266 0.40654 0
M  V30 11619 C 1098 1.66123 1.15097 0
M  V30 11620 C 1098.32 0.394836 1.90961 0
M  V30 11621 O 1097.59 -0.590349 1.86793 0
M  V30 11622 H 1096.17 0.612317 0.427875 0
M  V30 11623 H 1098.83 1.89318 0.463106 0
M  V30 11624 H 1097.93 2.50351 1.86361 0
M  V30 11625 N 1098.23 -0.663929 1.42933 0
M  V30 11626 C 1099.16 -1.78946 1.43217 0
M  V30 11627 C 1100.17 -1.59426 0.329727 0
M  V30 11628 O 1101.36 -1.68344 0.5935 0
M  V30 11629 C 1098.46 -3.16217 1.21902 0
M  V30 11630 C 1097.64 -3.6249 2.44785 0
M  V30 11631 C 1096.69 -4.78529 2.18853 0
M  V30 11632 O 1095.72 -4.88516 2.92131 0
M  V30 11633 N 1096.92 -5.67994 1.19845 0
M  V30 11634 H 1099.69 -1.79184 2.40236 0
M  V30 11635 H 1097.25 -0.847404 1.37952 0
M  V30 11636 H 1099.24 -3.91517 1.02454 0
M  V30 11637 H 1097.81 -3.10814 0.333676 0
M  V30 11638 H 1097.03 -2.77751 2.79729 0
M  V30 11639 H 1098.32 -3.90151 3.26588 0
M  V30 11640 H 1097.72 -5.62588 0.59259 0
M  V30 11641 H 1096.27 -6.4306 1.06382 0
M  V30 11642 N 1099.71 -1.29285 -0.901281 0
M  V30 11643 C 1101.12 -1.07263 -1.18182 0
M  V30 11644 C 1101.32 0.177087 -2.0072 0
M  V30 11645 O 1100.38 0.875292 -2.36844 0
M  V30 11646 C 1101.69 -2.32717 -1.9043 0
M  V30 11647 C 1103.24 -2.3802 -2.03262 0
M  V30 11648 C 1103.71 -3.63273 -2.7892 0
M  V30 11649 N 1105.21 -3.63986 -2.86475 0
M  V30 11650 C 1105.94 -4.57585 -3.45549 0
M  V30 11651 N 1105.44 -5.61513 -4.05801 0
M  V30 11652 N 1107.23 -4.45157 -3.43208 0
M  V30 11653 H 1099.38 -2.09487 -0.350536 0
M  V30 11654 H 1101.64 -0.922647 -0.217778 0
M  V30 11655 H 1101.35 -3.23828 -1.37216 0
M  V30 11656 H 1101.22 -2.40102 -2.90913 0
M  V30 11657 H 1103.61 -1.47398 -2.55652 0
M  V30 11658 H 1103.69 -2.3462 -1.01916 0
M  V30 11659 H 1103.34 -4.54246 -2.27206 0
M  V30 11660 H 1103.27 -3.6393 -3.80608 0
M  V30 11661 H 1105.76 -2.8884 -2.43679 0
M  V30 11662 H 1106.07 -6.29058 -4.48894 0
M  V30 11663 H 1104.41 -5.65325 -4.04268 0
M  V30 11664 H 1107.61 -3.63158 -2.95354 0
M  V30 11665 H 1107.78 -5.18286 -3.88952 0
M  V30 11666 N 1101.18 1.11143 -1.11736 0
M  V30 11667 C 1102.6 1.64462 -0.883693 0
M  V30 11668 C 1102.95 1.87324 0.583448 0
M  V30 11669 O 1102.07 1.60975 1.44623 0
M  V30 11670 C 1102.67 2.98765 -1.59764 0
M  V30 11671 C 1101.23 3.4898 -1.41032 0
M  V30 11672 C 1100.37 2.23729 -1.63831 0
M  V30 11673 H 1103.32 0.947415 -1.27317 0
M  V30 11674 H 1103.34 3.65885 -1.04443 0
M  V30 11675 H 1102.86 2.82094 -2.66542 0
M  V30 11676 H 1100.96 3.7081 -0.364781 0
M  V30 11677 H 1101.07 4.27571 -2.16148 0
M  V30 11678 H 1099.43 2.31507 -1.06191 0
M  V30 11679 H 1100.22 2.09597 -2.7189 0
M  V30 11680 N 1102.66 0.908147 1.28804 0
M  V30 11681 C 1103.89 0.553287 1.99054 0
M  V30 11682 C 1104.3 -0.868455 1.68091 0
M  V30 11683 O 1103.64 -1.58599 0.926939 0
M  V30 11684 C 1103.71 0.675823 3.5309 0
M  V30 11685 C 1103.37 2.06608 4.0763 0
M  V30 11686 C 1104.37 3.03819 4.21889 0
M  V30 11687 C 1102.05 2.37775 4.42457 0
M  V30 11688 C 1104.05 4.30316 4.7022 0
M  V30 11689 C 1101.73 3.64512 4.90484 0
M  V30 11690 C 1102.73 4.60597 5.04321 0
M  V30 11691 O 1102.42 5.85082 5.51302 0
M  V30 11692 H 1102.15 0.210152 0.642504 0
M  V30 11693 H 1104.7 1.22188 1.65104 0
M  V30 11694 H 1102.93 -0.0498253 3.86668 0
M  V30 11695 H 1104.62 0.328884 4.04565 0
M  V30 11696 H 1105.39 2.81057 3.95262 0
M  V30 11697 H 1101.27 1.63742 4.3094 0
M  V30 11698 H 1104.81 5.05318 4.80936 0
M  V30 11699 H 1100.71 3.87101 5.1655 0
M  V30 11700 H 1101.48 5.87791 5.69599 0
M  V30 11701 N 1104.14 -1.42577 0.671525 0
M  V30 11702 C 1105.39 -2.01584 0.192431 0
M  V30 11703 C 1105.72 -1.53076 -1.19992 0
M  V30 11704 O 1104.97 -0.722196 -1.81887 0
M  V30 11705 C 1105.27 -3.56985 0.172097 0
M  V30 11706 C 1104.94 -4.24912 1.50867 0
M  V30 11707 C 1103.6 -4.43182 1.87464 0
M  V30 11708 C 1105.95 -4.6322 2.38908 0
M  V30 11709 C 1103.28 -4.97031 3.11732 0
M  V30 11710 C 1105.63 -5.18447 3.62485 0
M  V30 11711 C 1104.29 -5.34932 3.99255 0
M  V30 11712 H 1103.56 -0.737647 0.0704155 0
M  V30 11713 H 1106.21 -1.70807 0.865862 0
M  V30 11714 H 1104.52 -3.87411 -0.584835 0
M  V30 11715 H 1106.21 -4.00419 -0.215749 0
M  V30 11716 H 1102.8 -4.11048 1.21397 0
M  V30 11717 H 1106.99 -4.4878 2.1192 0
M  V30 11718 H 1102.24 -5.07979 3.40246 0
M  V30 11719 H 1106.42 -5.47075 4.30909 0
M  V30 11720 H 1104.04 -5.76422 4.95623 0
M  V30 11721 N 1105.62 -0.414636 -1.52048 0
M  V30 11722 C 1107.03 -0.0657806 -1.59464 0
M  V30 11723 C 1107.23 1.4225 -1.42713 0
M  V30 11724 O 1106.29 2.18996 -1.25687 0
M  V30 11725 C 1107.6 -0.565618 -2.95332 0
M  V30 11726 C 1109.15 -0.524072 -3.08581 0
M  V30 11727 C 1109.63 -1.00051 -4.46938 0
M  V30 11728 N 1111.12 -0.957555 -4.53194 0
M  V30 11729 C 1111.85 -1.29733 -5.58531 0
M  V30 11730 N 1111.35 -1.70883 -6.71395 0
M  V30 11731 N 1113.14 -1.21694 -5.48769 0
M  V30 11732 H 1105.29 -1.38325 -1.61183 0
M  V30 11733 H 1107.56 -0.568593 -0.758556 0
M  V30 11734 H 1107.26 -1.60604 -3.12888 0
M  V30 11735 H 1107.14 0.0217735 -3.77194 0
M  V30 11736 H 1109.52 0.507319 -2.90707 0
M  V30 11737 H 1109.6 -1.14759 -2.28613 0
M  V30 11738 H 1109.25 -2.03025 -4.65557 0
M  V30 11739 H 1109.18 -0.353754 -5.2541 0
M  V30 11740 H 1111.67 -0.65508 -3.72179 0
M  V30 11741 H 1111.98 -1.95105 -7.47766 0
M  V30 11742 H 1110.33 -1.74791 -6.72661 0
M  V30 11743 H 1113.52 -0.894286 -4.59478 0
M  V30 11744 H 1113.69 -1.48504 -6.30754 0
M  V30 11745 N 1107.1 1.56929 -0.145233 0
M  V30 11746 C 1108.51 1.82877 0.375884 0
M  V30 11747 C 1108.86 1.06384 1.64854 0
M  V30 11748 O 1107.98 0.30857 2.14189 0
M  V30 11749 C 1108.58 3.31725 0.688744 0
M  V30 11750 C 1107.14 3.58261 1.15439 0
M  V30 11751 C 1106.28 2.76737 0.176565 0
M  V30 11752 H 1109.24 1.54328 -0.36996 0
M  V30 11753 H 1109.26 3.47784 1.54359 0
M  V30 11754 H 1108.77 3.87371 -0.237694 0
M  V30 11755 H 1106.87 3.08 2.09683 0
M  V30 11756 H 1106.98 4.66732 1.08158 0
M  V30 11757 H 1105.35 2.45761 0.668843 0
M  V30 11758 H 1106.13 3.35154 -0.743432 0
M  V30 11759 N 1108.58 -0.128553 1.57075 0
M  V30 11760 C 1109.8 -0.8564 1.88893 0
M  V30 11761 C 1110.23 -1.73095 0.736196 0
M  V30 11762 O 1109.58 -1.78567 -0.313629 0
M  V30 11763 C 1109.63 -1.67368 3.19406 0
M  V30 11764 O 1108.74 -2.77973 3.04639 0
M  V30 11765 H 1108.08 -0.237424 0.620102 0
M  V30 11766 H 1110.61 -0.113821 2.04283 0
M  V30 11767 H 1110.62 -2.0649 3.51889 0
M  V30 11768 H 1109.29 -1.03161 4.02903 0
M  V30 11769 H 1107.87 -2.42123 2.83603 0
M  V30 11770 N 1110.05 -1.5248 -0.398459 0
M  V30 11771 C 1111.3 -1.66287 -1.14155 0
M  V30 11772 C 1111.62 -0.40429 -1.91376 0
M  V30 11773 O 1112.82 -0.422341 -2.68195 0
M  V30 11774 C 1111.28 -2.93831 -2.07825 0
M  V30 11775 C 1110.89 -4.26836 -1.3607 0
M  V30 11776 C 1112.63 -3.17004 -2.82327 0
M  V30 11777 C 1110.54 -5.45495 -2.28451 0
M  V30 11778 H 1109.47 -0.619478 -0.42984 0
M  V30 11779 H 1112.12 -1.78972 -0.405112 0
M  V30 11780 H 1110.5 -2.7487 -2.85065 0
M  V30 11781 H 1111.67 -4.56317 -0.641205 0
M  V30 11782 H 1109.99 -4.0985 -0.735659 0
M  V30 11783 H 1112.59 -4.02834 -3.51609 0
M  V30 11784 H 1112.93 -2.3168 -3.45876 0
M  V30 11785 H 1113.46 -3.36487 -2.12183 0
M  V30 11786 H 1110.2 -6.33198 -1.69532 0
M  V30 11787 H 1109.72 -5.20338 -2.98343 0
M  V30 11788 H 1111.4 -5.78996 -2.88743 0
M  V30 11789 N 1111.53 0.65634 -1.43283 0
M  V30 11790 C 1112.81 1.41339 -1.35213 0
M  V30 11791 C 1113.19 2.111 0.00158494 0
M  V30 11792 O 1112.54 2.0457 1.018 0
M  V30 11793 C 1112.75 2.40066 -2.53317 0
M  V30 11794 C 1114.09 3.04159 -2.96264 0
M  V30 11795 O 1115.12 2.50393 -2.53341 0
M  V30 11796 O 1113.98 4.01633 -3.70612 0
M  V30 11797 H 1111.07 0.631325 -0.534189 0
M  V30 11798 H 1113.62 0.68351 -1.55326 0
M  V30 11799 H 1112.39 1.87444 -3.43483 0
M  V30 11800 H 1112.01 3.20509 -2.35287 0
M  V30 11801 N 1113.01 1.29761 0.894412 0
M  V30 11802 C 1114.43 1.07888 1.17611 0
M  V30 11803 C 1114.63 -0.16644 2.00811 0
M  V30 11804 O 1113.68 -0.86272 2.37304 0
M  V30 11805 C 1114.99 2.33723 1.89193 0
M  V30 11806 C 1116.54 2.39095 2.01997 0
M  V30 11807 C 1117.02 3.64747 2.7699 0
M  V30 11808 N 1118.51 3.65501 2.84541 0
M  V30 11809 C 1119.24 4.59411 3.43117 0
M  V30 11810 N 1118.74 5.63657 4.02818 0
M  V30 11811 N 1120.53 4.46971 3.40842 0
M  V30 11812 H 1112.68 2.0967 0.339421 0
M  V30 11813 H 1114.95 0.923788 0.212882 0
M  V30 11814 H 1114.65 3.24551 1.35496 0
M  V30 11815 H 1114.53 2.41642 2.89636 0
M  V30 11816 H 1116.91 1.48751 2.54867 0
M  V30 11817 H 1116.99 2.35158 1.0067 0
M  V30 11818 H 1116.64 4.55445 2.24794 0
M  V30 11819 H 1116.57 3.65944 3.78672 0
M  V30 11820 H 1119.06 2.90129 2.42144 0
M  V30 11821 H 1119.37 6.31429 4.45552 0
M  V30 11822 H 1117.72 5.67461 4.01265 0
M  V30 11823 H 1120.91 3.64719 2.93424 0
M  V30 11824 H 1121.08 5.20341 3.86198 0
M  V30 11825 N 1114.49 -1.10549 1.12324 0
M  V30 11826 C 1115.72 -1.8627 0.900618 0
M  V30 11827 C 1116.13 -1.80609 -0.550069 0
M  V30 11828 O 1115.49 -1.19396 -1.38025 0
M  V30 11829 C 1115.54 -3.34716 1.36556 0
M  V30 11830 O 1115.26 -3.40279 2.75938 0
M  V30 11831 C 1116.76 -4.27315 1.17969 0
M  V30 11832 H 1113.98 -0.588741 0.321908 0
M  V30 11833 H 1116.52 -1.39759 1.49291 0
M  V30 11834 H 1114.68 -3.78697 0.81652 0
M  V30 11835 H 1115.09 -4.32781 2.96312 0
M  V30 11836 H 1116.57 -5.29677 1.55391 0
M  V30 11837 H 1117.04 -4.39036 0.120158 0
M  V30 11838 H 1117.65 -3.89137 1.71617 0
M  V30 11839 N 1115.97 -0.914965 -1.28321 0
M  V30 11840 C 1116.9 -0.361578 -2.2633 0
M  V30 11841 C 1117.91 0.500637 -1.54911 0
M  V30 11842 O 1119.1 0.31532 -1.75693 0
M  V30 11843 C 1116.2 0.501693 -3.35166 0
M  V30 11844 C 1115.37 -0.338289 -4.3609 0
M  V30 11845 C 1114.43 0.460267 -5.24183 0
M  V30 11846 O 1113.46 -0.127594 -5.69057 0
M  V30 11847 N 1114.66 1.76302 -5.5308 0
M  V30 11848 H 1117.42 -1.20402 -2.74451 0
M  V30 11849 H 1114.99 -0.781042 -1.41814 0
M  V30 11850 H 1116.98 1.04268 -3.91037 0
M  V30 11851 H 1115.55 1.24485 -2.86744 0
M  V30 11852 H 1114.77 -1.06064 -3.79663 0
M  V30 11853 H 1116.06 -0.912996 -5.00542 0
M  V30 11854 H 1115.45 2.26314 -5.18458 0
M  V30 11855 H 1114.01 2.25081 -6.11704 0
M  V30 11856 N 1117.44 1.42219 -0.679077 0
M  V30 11857 C 1118.37 2.33493 -0.0174528 0
M  V30 11858 C 1119.35 1.50915 0.78477 0
M  V30 11859 O 1120.54 1.79504 0.741065 0
M  V30 11860 C 1117.67 3.34576 0.931463 0
M  V30 11861 C 1116.62 4.2734 0.237527 0
M  V30 11862 C 1115.95 5.18664 1.29967 0
M  V30 11863 C 1117.25 5.14729 -0.886082 0
M  V30 11864 H 1118.94 2.89068 -0.779748 0
M  V30 11865 H 1116.49 1.38993 -0.376419 0
M  V30 11866 H 1118.44 3.97343 1.40343 0
M  V30 11867 H 1117.17 2.77315 1.72523 0
M  V30 11868 H 1115.83 3.65973 -0.214245 0
M  V30 11869 H 1115.47 4.57727 2.08554 0
M  V30 11870 H 1115.17 5.81558 0.840463 0
M  V30 11871 H 1116.7 5.84308 1.77249 0
M  V30 11872 H 1118.11 5.71158 -0.495141 0
M  V30 11873 H 1116.51 5.86478 -1.27135 0
M  V30 11874 H 1117.58 4.52874 -1.733 0
M  V30 11875 N 1118.92 0.422693 1.51826 0
M  V30 11876 C 1119.87 -0.41063 2.28947 0
M  V30 11877 C 1120.86 -1.03389 1.34191 0
M  V30 11878 O 1122.07 -0.970533 1.51594 0
M  V30 11879 H 1118.44 -0.151219 0.736639 0
M  V30 11880 H 1120.42 0.260859 2.97258 0
M  V30 11881 C 1119.16 -1.50758 3.13317 0
M  V30 11882 H 1118.49 -1.03734 3.86108 0
M  V30 11883 H 1119.93 -2.0642 3.7036 0
M  V30 11884 C 1118.39 -2.48261 2.27746 0
M  V30 11885 O 1118.92 -3.52462 1.92701 0
M  V30 11886 N 1117.12 -2.18795 1.91251 0
M  V30 11887 H 1116.67 -1.34088 2.1995 0
M  V30 11888 H 1116.63 -2.84276 1.34293 0
M  V30 11889 N 1120.4 -1.5685 0.153553 0
M  V30 11890 C 1121.31 -2.20664 -0.796528 0
M  V30 11891 C 1122.33 -1.19289 -1.26674 0
M  V30 11892 O 1123.5 -1.51889 -1.32256 0
M  V30 11893 C 1120.57 -2.82088 -2.01561 0
M  V30 11894 C 1119.63 -3.9861 -1.59401 0
M  V30 11895 C 1118.86 -4.57096 -2.75498 0
M  V30 11896 O 1119.08 -4.14462 -3.9189 0
M  V30 11897 O 1118.02 -5.47254 -2.50593 0
M  V30 11898 H 1121.84 -3.02376 -0.283282 0
M  V30 11899 H 1119.43 -1.49218 -0.0737927 0
M  V30 11900 H 1121.31 -3.21103 -2.72893 0
M  V30 11901 H 1119.99 -2.03385 -2.51826 0
M  V30 11902 H 1118.89 -3.64299 -0.850725 0
M  V30 11903 H 1120.23 -4.78853 -1.13845 0
M  V30 11904 N 1121.88 0.120221 -1.57141 0
M  V30 11905 C 1122.79 1.16641 -2.03549 0
M  V30 11906 C 1123.8 1.45407 -0.955656 0
M  V30 11907 O 1124.98 1.56547 -1.26708 0
M  V30 11908 C 1122.04 2.4734 -2.42948 0
M  V30 11909 C 1121.11 2.25982 -3.65008 0
M  V30 11910 C 1120.34 3.50449 -4.02518 0
M  V30 11911 O 1120.56 4.57706 -3.40384 0
M  V30 11912 O 1119.5 3.41524 -4.95626 0
M  V30 11913 H 1123.32 0.802323 -2.9291 0
M  V30 11914 H 1120.91 0.330927 -1.45689 0
M  V30 11915 H 1122.79 3.24348 -2.69029 0
M  V30 11916 H 1121.46 2.83225 -1.56733 0
M  V30 11917 H 1120.37 1.46837 -3.44078 0
M  V30 11918 H 1121.7 1.95002 -4.51924 0
M  V30 11919 N 1123.36 1.52689 0.390367 0
M  V30 11920 C 1124.29 1.80338 1.48325 0
M  V30 11921 C 1125.27 0.655338 1.56969 0
M  V30 11922 O 1126.45 0.902792 1.7194 0
M  V30 11923 C 1123.58 1.97101 2.85952 0
M  V30 11924 C 1122.54 3.12783 2.92148 0
M  V30 11925 C 1121.86 3.14798 4.32211 0
M  V30 11926 C 1123.16 4.5188 2.61919 0
M  V30 11927 H 1124.86 2.71857 1.25437 0
M  V30 11928 H 1122.4 1.30813 0.601995 0
M  V30 11929 H 1124.36 2.15027 3.62411 0
M  V30 11930 H 1123.08 1.02271 3.10174 0
M  V30 11931 H 1121.74 2.94638 2.18137 0
M  V30 11932 H 1121.39 2.17653 4.53471 0
M  V30 11933 H 1121.09 3.92507 4.37278 0
M  V30 11934 H 1122.61 3.34877 5.10578 0
M  V30 11935 H 1124.02 4.70134 3.28096 0
M  V30 11936 H 1122.42 5.31647 2.78337 0
M  V30 11937 H 1123.49 4.58689 1.57266 0
M  V30 11938 N 1124.83 -0.648732 1.43629 0
M  V30 11939 C 1126.08 -1.41066 1.45699 0
M  V30 11940 C 1126.41 -1.94024 0.082612 0
M  V30 11941 O 1125.69 -1.7257 -0.897207 0
M  V30 11942 C 1125.97 -2.58882 2.50304 0
M  V30 11943 C 1125.82 -2.11387 3.97033 0
M  V30 11944 C 1127.14 -3.61092 2.51597 0
M  V30 11945 H 1124.26 -0.511591 0.530512 0
M  V30 11946 H 1126.9 -0.735069 1.75205 0
M  V30 11947 H 1125.05 -3.16518 2.25274 0
M  V30 11948 H 1126.73 -1.58718 4.33136 0
M  V30 11949 H 1124.97 -1.4272 4.0965 0
M  V30 11950 H 1125.64 -2.96129 4.65845 0
M  V30 11951 H 1128.12 -3.13223 2.73917 0
M  V30 11952 H 1126.99 -4.41071 3.26722 0
M  V30 11953 H 1127.25 -4.13985 1.55141 0
M  V30 11954 N 1126.31 -1.30234 -0.887518 0
M  V30 11955 C 1127.24 -1.18969 -2.00919 0
M  V30 11956 C 1128.22 -0.080952 -1.69907 0
M  V30 11957 O 1129.41 -0.262546 -1.92417 0
M  V30 11958 C 1126.54 -0.878094 -3.36016 0
M  V30 11959 C 1125.49 -1.94449 -3.81279 0
M  V30 11960 C 1124.82 -1.48594 -5.13638 0
M  V30 11961 C 1126.12 -3.35519 -4.00281 0
M  V30 11962 H 1127.81 -2.12808 -2.10602 0
M  V30 11963 H 1125.36 -1.02454 -1.01189 0
M  V30 11964 H 1127.31 -0.785954 -4.14006 0
M  V30 11965 H 1126.04 0.0959779 -3.26459 0
M  V30 11966 H 1124.69 -2.02622 -3.05516 0
M  V30 11967 H 1124.34 -0.500204 -5.00507 0
M  V30 11968 H 1124.04 -2.19921 -5.44893 0
M  V30 11969 H 1125.57 -1.40754 -5.94156 0
M  V30 11970 H 1126.98 -3.30119 -4.68716 0
M  V30 11971 H 1125.38 -4.0491 -4.42909 0
M  V30 11972 H 1126.45 -3.77597 -3.04218 0
M  V30 11973 N 1127.79 1.09952 -1.12909 0
M  V30 11974 C 1128.72 2.18477 -0.824014 0
M  V30 11975 C 1129.7 1.68744 0.214324 0
M  V30 11976 O 1130.89 1.94057 0.0744281 0
M  V30 11977 C 1128.02 3.46143 -0.283308 0
M  V30 11978 C 1126.97 4.09178 -1.25528 0
M  V30 11979 C 1126.3 5.31604 -0.574574 0
M  V30 11980 C 1127.6 4.52308 -2.6118 0
M  V30 11981 H 1129.29 2.44254 -1.73148 0
M  V30 11982 H 1126.84 1.17394 -0.833952 0
M  V30 11983 H 1128.79 4.21361 -0.057583 0
M  V30 11984 H 1127.51 3.19872 0.659525 0
M  V30 11985 H 1126.17 3.35973 -1.4669 0
M  V30 11986 H 1125.82 5.01611 0.37356 0
M  V30 11987 H 1125.52 5.74732 -1.22299 0
M  V30 11988 H 1127.04 6.0955 -0.358004 0
M  V30 11989 H 1128.46 5.18776 -2.44017 0
M  V30 11990 H 1126.86 5.06302 -3.22147 0
M  V30 11991 H 1127.93 3.64977 -3.19249 0
M  V30 11992 N 1129.27 0.921757 1.27833 0
M  V30 11993 C 1130.2 0.360683 2.25332 0
M  V30 11994 C 1131.18 -0.53961 1.53385 0
M  V30 11995 O 1132.36 -0.48146 1.82248 0
M  V30 11996 C 1129.49 -0.483626 3.35229 0
M  V30 11997 C 1128.54 0.352405 4.25042 0
M  V30 11998 S 1129.37 1.76421 5.05605 0
M  V30 11999 C 1130.53 0.92742 6.18991 0
M  V30 12000 H 1130.76 1.18703 2.72574 0
M  V30 12001 H 1128.29 0.72354 1.36397 0
M  V30 12002 H 1130.25 -0.964914 3.98998 0
M  V30 12003 H 1128.91 -1.28444 2.86637 0
M  V30 12004 H 1128.1 -0.293558 5.03144 0
M  V30 12005 H 1127.71 0.767643 3.66037 0
M  V30 12006 H 1130 0.160698 6.77309 0
M  V30 12007 H 1130.94 1.68126 6.87851 0
M  V30 12008 H 1131.35 0.472056 5.62523 0
M  V30 12009 N 1130.75 -1.41857 0.686609 0
M  V30 12010 C 1131.66 -2.34595 0.0159005 0
M  V30 12011 C 1132.67 -1.55741 -0.775933 0
M  V30 12012 O 1133.85 -1.8826 -0.71555 0
M  V30 12013 C 1130.91 -3.34395 -0.915473 0
M  V30 12014 C 1129.97 -4.29141 -0.116851 0
M  V30 12015 C 1129.21 -5.24174 -1.00386 0
M  V30 12016 O 1129.43 -5.24431 -2.2434 0
M  V30 12017 O 1128.36 -6.00152 -0.458337 0
M  V30 12018 H 1132.19 -2.9351 0.780101 0
M  V30 12019 H 1129.78 -1.42559 0.446896 0
M  V30 12020 H 1131.66 -3.95675 -1.44981 0
M  V30 12021 H 1130.33 -2.77936 -1.65932 0
M  V30 12022 H 1129.24 -3.71238 0.461871 0
M  V30 12023 H 1130.57 -4.88673 0.588138 0
M  V30 12024 N 1132.22 -0.430739 -1.51599 0
M  V30 12025 C 1133.64 -0.0826902 -1.59386 0
M  V30 12026 C 1133.84 1.40729 -1.44214 0
M  V30 12027 O 1132.9 2.1765 -1.28002 0
M  V30 12028 C 1134.21 -0.59691 -2.94716 0
M  V30 12029 C 1135.76 -0.556772 -3.08008 0
M  V30 12030 C 1136.23 -1.04786 -4.45852 0
M  V30 12031 N 1137.72 -1.00557 -4.52153 0
M  V30 12032 C 1138.46 -1.35649 -5.57124 0
M  V30 12033 N 1137.95 -1.77994 -6.69545 0
M  V30 12034 N 1139.75 -1.27508 -5.47447 0
M  V30 12035 H 1131.9 -1.40027 -1.59707 0
M  V30 12036 H 1134.16 -0.576606 -0.752482 0
M  V30 12037 H 1133.87 -1.63914 -3.11167 0
M  V30 12038 H 1133.74 -0.0182342 -3.77196 0
M  V30 12039 H 1136.13 0.476457 -2.91228 0
M  V30 12040 H 1136.21 -1.17177 -2.27383 0
M  V30 12041 H 1135.85 -2.07952 -4.63377 0
M  V30 12042 H 1135.78 -0.409461 -5.25006 0
M  V30 12043 H 1138.27 -0.694518 -3.71463 0
M  V30 12044 H 1138.59 -2.03026 -7.45654 0
M  V30 12045 H 1136.93 -1.81916 -6.70769 0
M  V30 12046 H 1140.12 -0.942969 -4.58504 0
M  V30 12047 H 1140.3 -1.55185 -6.29143 0
M  V30 12048 N 1133.7 1.56767 -0.161869 0
M  V30 12049 C 1134.94 1.98487 0.488067 0
M  V30 12050 C 1135.31 1.04527 1.61053 0
M  V30 12051 O 1136.51 1.35351 2.32236 0
M  V30 12052 C 1134.78 3.44057 0.967446 0
M  V30 12053 S 1136.34 4.07805 1.61989 0
M  V30 12054 H 1133.16 0.693377 0.157318 0
M  V30 12055 H 1135.76 1.93802 -0.257099 0
M  V30 12056 H 1134.46 4.10161 0.139959 0
M  V30 12057 H 1133.99 3.52488 1.74688 0
M  V30 12058 H 1136.01 4.02078 2.90772 0
M  V30 12059 N 1135.18 -0.111886 1.57202 0
M  V30 12060 C 1136.43 -0.8146 1.86376 0
M  V30 12061 C 1136.78 -1.77156 0.750558 0
M  V30 12062 O 1136.07 -1.89977 -0.248867 0
M  V30 12063 C 1136.27 -1.59644 3.19763 0
M  V30 12064 C 1136.1 -0.71669 4.43952 0
M  V30 12065 C 1134.87 -0.36881 5.03952 0
M  V30 12066 C 1137.07 -0.0311316 5.14291 0
M  V30 12067 N 1135.05 0.520861 6.11686 0
M  V30 12068 C 1136.42 0.71726 6.15837 0
M  V30 12069 C 1138.47 0.0445453 4.9788 0
M  V30 12070 C 1137.18 1.53423 7.02747 0
M  V30 12071 C 1139.2 0.848364 5.85283 0
M  V30 12072 C 1138.56 1.58493 6.86338 0
M  V30 12073 H 1134.66 -0.274785 0.732132 0
M  V30 12074 H 1137.25 -0.0779628 1.94544 0
M  V30 12075 H 1135.42 -2.30407 3.12678 0
M  V30 12076 H 1137.15 -2.24504 3.36719 0
M  V30 12077 H 1133.91 -0.712671 4.68207 0
M  V30 12078 H 1134.33 0.957756 6.70191 0
M  V30 12079 H 1138.97 -0.510564 4.19706 0
M  V30 12080 H 1136.69 2.10047 7.80324 0
M  V30 12081 H 1140.28 0.909372 5.74649 0
M  V30 12082 H 1139.16 2.19691 7.52798 0
M  V30 12083 N 1136.66 -1.52894 -0.382264 0
M  V30 12084 C 1137.62 -1.77497 -1.45008 0
M  V30 12085 C 1138.62 -0.64509 -1.47293 0
M  V30 12086 O 1139.81 -0.913192 -1.48346 0
M  V30 12087 C 1136.94 -1.88188 -2.8425 0
M  V30 12088 H 1138.14 -2.72849 -1.24473 0
M  V30 12089 H 1135.69 -1.43717 -0.61441 0
M  V30 12090 H 1136.42 -0.948451 -3.10121 0
M  V30 12091 H 1136.21 -2.70353 -2.83992 0
M  V30 12092 H 1137.7 -2.08873 -3.6161 0
M  V30 12093 N 1138.14 0.641106 -1.43971 0
M  V30 12094 C 1139.07 1.76645 -1.46046 0
M  V30 12095 C 1140.08 1.58881 -0.355049 0
M  V30 12096 O 1141.27 1.67379 -0.620207 0
M  V30 12097 C 1138.37 3.14237 -1.26918 0
M  V30 12098 C 1137.54 3.5855 -2.50521 0
M  V30 12099 C 1136.6 4.74986 -2.26438 0
M  V30 12100 O 1135.63 4.83807 -2.99866 0
M  V30 12101 N 1136.83 5.66016 -1.28866 0
M  V30 12102 H 1139.6 1.75339 -2.43056 0
M  V30 12103 H 1137.16 0.82535 -1.39282 0
M  V30 12104 H 1139.15 3.89837 -1.0867 0
M  V30 12105 H 1137.72 3.10244 -0.383082 0
M  V30 12106 H 1136.94 2.73265 -2.84112 0
M  V30 12107 H 1138.23 3.84906 -3.32754 0
M  V30 12108 H 1137.63 5.61574 -0.682018 0
M  V30 12109 H 1136.18 6.41286 -1.16599 0
M  V30 12110 N 1139.62 1.30703 0.880598 0
M  V30 12111 C 1140.89 1.1043 1.61445 0
M  V30 12112 C 1141.27 -0.344837 2.08264 0
M  V30 12113 O 1140.62 -1.33711 1.85293 0
M  V30 12114 C 1140.83 2.10908 2.78063 0
M  V30 12115 C 1142.18 2.42861 3.48287 0
M  V30 12116 O 1143.2 2.09252 2.88257 0
M  V30 12117 O 1142.06 3.00369 4.56553 0
M  V30 12118 H 1139.16 0.424419 0.709787 0
M  V30 12119 H 1141.7 1.42144 0.926991 0
M  V30 12120 H 1140.47 3.08431 2.40803 0
M  V30 12121 H 1140.1 1.80036 3.54503 0
M  V30 12122 N 1141.09 -1.09351 1.1349 0
M  V30 12123 C 1142.5 -1.63035 0.909746 0
M  V30 12124 C 1142.86 -1.88229 -0.553573 0
M  V30 12125 O 1141.98 -1.63256 -1.42044 0
M  V30 12126 C 1142.58 -2.96186 1.64497 0
M  V30 12127 C 1141.13 -3.46692 1.46566 0
M  V30 12128 C 1140.28 -2.21095 1.67369 0
M  V30 12129 H 1143.23 -0.92704 1.28809 0
M  V30 12130 H 1143.25 -3.64177 1.10251 0
M  V30 12131 H 1142.77 -2.77818 2.70996 0
M  V30 12132 H 1140.87 -3.70183 0.423728 0
M  V30 12133 H 1140.98 -4.24078 2.22923 0
M  V30 12134 H 1139.34 -2.29789 1.0986 0
M  V30 12135 H 1140.13 -2.05245 2.7519 0
M  V30 12136 N 1142.57 -0.928524 -1.27343 0
M  V30 12137 C 1143.53 -0.43292 -2.25074 0
M  V30 12138 C 1144.53 0.448976 -1.54405 0
M  V30 12139 O 1145.72 0.249939 -1.72398 0
M  V30 12140 C 1142.86 0.377539 -3.38803 0
M  V30 12141 H 1144.05 -1.29642 -2.70431 0
M  V30 12142 H 1141.6 -0.709289 -1.3928 0
M  V30 12143 H 1142.34 1.25982 -2.98829 0
M  V30 12144 H 1142.12 -0.254782 -3.91271 0
M  V30 12145 H 1143.61 0.714634 -4.1144 0
M  V30 12146 N 1144.05 1.41491 -0.694123 0
M  V30 12147 C 1144.96 2.34583 -0.0283414 0
M  V30 12148 C 1145.98 1.5615 0.767662 0
M  V30 12149 O 1147.15 1.88637 0.705556 0
M  V30 12150 C 1144.22 3.34876 0.897726 0
M  V30 12151 C 1143.28 4.29197 0.0940905 0
M  V30 12152 C 1142.51 5.24699 0.976051 0
M  V30 12153 O 1142.73 5.25613 2.21556 0
M  V30 12154 O 1141.67 6.00387 0.426503 0
M  V30 12155 H 1145.49 2.93092 -0.795656 0
M  V30 12156 H 1143.08 1.4232 -0.45445 0
M  V30 12157 H 1144.96 3.96438 1.4288 0
M  V30 12158 H 1143.64 2.78812 1.64456 0
M  V30 12159 H 1142.54 3.70988 -0.481552 0
M  V30 12160 H 1143.88 4.88355 -0.614045 0
M  V30 12161 N 1145.53 0.438773 1.51369 0
M  V30 12162 C 1146.94 0.0911416 1.5934 0
M  V30 12163 C 1147.14 -1.39962 1.44958 0
M  V30 12164 O 1146.2 -2.16968 1.29155 0
M  V30 12165 C 1147.51 0.612531 2.94395 0
M  V30 12166 C 1149.06 0.573098 3.07709 0
M  V30 12167 C 1149.54 1.07149 4.4529 0
M  V30 12168 N 1151.03 1.02953 4.51614 0
M  V30 12169 C 1151.76 1.38602 5.56397 0
M  V30 12170 N 1151.26 1.81543 6.68591 0
M  V30 12171 N 1153.05 1.30409 5.46763 0
M  V30 12172 H 1145.2 1.40872 1.58962 0
M  V30 12173 H 1147.46 0.580589 0.749414 0
M  V30 12174 H 1147.17 1.65562 3.10294 0
M  V30 12175 H 1147.04 0.0382375 3.77181 0
M  V30 12176 H 1149.43 -0.461006 2.91477 0
M  V30 12177 H 1149.51 1.18381 2.26759 0
M  V30 12178 H 1149.16 2.10406 4.62268 0
M  V30 12179 H 1149.09 0.437297 5.24781 0
M  V30 12180 H 1151.58 0.714208 3.7109 0
M  V30 12181 H 1151.89 2.06977 7.44567 0
M  V30 12182 H 1150.24 1.8547 6.69795 0
M  V30 12183 H 1153.43 0.967272 4.57997 0
M  V30 12184 H 1153.6 1.5852 6.28312 0
M  V30 12185 N 1147.01 -1.56678 0.170181 0
M  V30 12186 C 1148.42 -1.83452 -0.346742 0
M  V30 12187 C 1148.77 -1.08993 -1.63141 0
M  V30 12188 O 1147.89 -0.342607 -2.13671 0
M  V30 12189 C 1148.49 -3.32779 -0.635882 0
M  V30 12190 C 1147.05 -3.60052 -1.09725 0
M  V30 12191 C 1146.19 -2.76983 -0.132516 0
M  V30 12192 H 1149.14 -1.53719 0.394465 0
M  V30 12193 H 1149.17 -3.50195 -1.48806 0
M  V30 12194 H 1148.68 -3.86944 0.299291 0
M  V30 12195 H 1146.78 -3.11297 -2.04756 0
M  V30 12196 H 1146.89 -4.68393 -1.00719 0
M  V30 12197 H 1145.26 -2.46794 -0.62966 0
M  V30 12198 H 1146.04 -3.33929 0.796658 0
M  V30 12199 N 1148.48 0.103547 -1.57259 0
M  V30 12200 C 1149.76 0.839768 -1.76656 0
M  V30 12201 C 1150.14 1.9734 -0.749666 0
M  V30 12202 O 1149.49 2.27405 0.223466 0
M  V30 12203 C 1149.7 1.34218 -3.22159 0
M  V30 12204 C 1151.05 1.78835 -3.85102 0
M  V30 12205 O 1152.07 1.43861 -3.25857 0
M  V30 12206 O 1150.93 2.43474 -4.89267 0
M  V30 12207 H 1148.02 0.399928 -0.723869 0
M  V30 12208 H 1150.57 0.0860857 -1.69482 0
M  V30 12209 H 1149.34 0.52956 -3.877 0
M  V30 12210 H 1148.96 2.15811 -3.33933 0
M  V30 12211 N 1149.96 1.53094 0.37415 0
M  V30 12212 C 1151.21 1.68861 1.11769 0
M  V30 12213 C 1151.54 0.436032 1.89549 0
M  V30 12214 O 1150.79 -0.581879 1.86849 0
M  V30 12215 C 1151.09 2.88432 2.11049 0
M  V30 12216 C 1150.76 4.25284 1.49814 0
M  V30 12217 C 1149.42 4.62501 1.32841 0
M  V30 12218 C 1151.77 5.10425 1.05433 0
M  V30 12219 C 1149.1 5.82502 0.700567 0
M  V30 12220 C 1151.45 6.31064 0.440525 0
M  V30 12221 C 1150.11 6.67 0.258216 0
M  V30 12222 H 1149.38 0.617906 0.40899 0
M  V30 12223 H 1152.03 1.87265 0.4005 0
M  V30 12224 H 1150.34 2.64505 2.8904 0
M  V30 12225 H 1152.03 2.97825 2.68517 0
M  V30 12226 H 1148.62 3.95976 1.64016 0
M  V30 12227 H 1152.81 4.82229 1.17342 0
M  V30 12228 H 1148.06 6.08942 0.547652 0
M  V30 12229 H 1152.24 6.96344 0.0883962 0
M  V30 12230 H 1149.86 7.59851 -0.230354 0
M  V30 12231 N 1151.44 -0.633461 1.44309 0
M  V30 12232 C 1152.69 -1.39031 1.46679 0
M  V30 12233 C 1153.01 -1.94745 0.0997165 0
M  V30 12234 O 1152.28 -1.75637 -0.867659 0
M  V30 12235 H 1150.86 -0.516051 0.540093 0
M  V30 12236 H 1153.52 -0.745739 1.80069 0
M  V30 12237 H 1152.62 -2.2228 2.19085 0
M  V30 12238 N 1152.92 -1.31168 -0.873655 0
M  V30 12239 C 1153.85 -1.14325 -1.98651 0
M  V30 12240 C 1154.86 -0.0833421 -1.62587 0
M  V30 12241 O 1156.05 -0.330477 -1.75414 0
M  V30 12242 C 1153.15 -0.723747 -3.31082 0
M  V30 12243 C 1152.33 -1.86787 -3.95512 0
M  V30 12244 C 1151.38 -1.43503 -5.06254 0
M  V30 12245 O 1150.41 -2.14409 -5.27273 0
M  V30 12246 N 1151.61 -0.320362 -5.79615 0
M  V30 12247 H 1154.38 -2.10179 -2.13647 0
M  V30 12248 H 1151.94 -1.23454 -1.04742 0
M  V30 12249 H 1153.93 -0.416971 -4.02546 0
M  V30 12250 H 1152.5 0.143073 -3.12272 0
M  V30 12251 H 1151.72 -2.34216 -3.17075 0
M  V30 12252 H 1153.01 -2.6343 -4.35296 0
M  V30 12253 H 1152.41 0.270215 -5.65054 0
M  V30 12254 H 1150.96 -0.0731 -6.51759 0
M  V30 12255 N 1154.4 1.08748 -1.14068 0
M  V30 12256 C 1155.65 1.8044 -0.901352 0
M  V30 12257 C 1155.96 1.86995 0.573791 0
M  V30 12258 O 1157.16 2.55065 0.930275 0
M  V30 12259 C 1155.62 3.24185 -1.56308 0
M  V30 12260 C 1155.23 3.25875 -3.07424 0
M  V30 12261 C 1156.97 4.00584 -1.40473 0
M  V30 12262 C 1154.88 4.64186 -3.66449 0
M  V30 12263 H 1153.81 0.676201 -0.333569 0
M  V30 12264 H 1156.46 1.22169 -1.3692 0
M  V30 12265 H 1154.84 3.82561 -1.0229 0
M  V30 12266 H 1156.02 2.77225 -3.6808 0
M  V30 12267 H 1154.33 2.62969 -3.22856 0
M  V30 12268 H 1156.93 5.02781 -1.81976 0
M  V30 12269 H 1157.27 4.14823 -0.350408 0
M  V30 12270 H 1157.8 3.48668 -1.91508 0
M  V30 12271 H 1154.54 4.5515 -4.71719 0
M  V30 12272 H 1154.06 5.13132 -3.10574 0
M  V30 12273 H 1155.74 5.33161 -3.66536 0
M  V30 12274 N 1155.87 0.935264 1.26849 0
M  V30 12275 C 1156.82 0.438896 2.26588 0
M  V30 12276 C 1157.79 -0.498267 1.5845 0
M  V30 12277 O 1158.98 -0.415771 1.86215 0
M  V30 12278 C 1156.12 -0.295293 3.43834 0
M  V30 12279 C 1155.23 0.676857 4.26665 0
M  V30 12280 C 1154.36 -0.0779349 5.31143 0
M  V30 12281 C 1153.4 0.886425 6.05648 0
M  V30 12282 N 1152.54 0.163771 7.01909 0
M  V30 12283 H 1157.38 1.29439 2.6842 0
M  V30 12284 H 1154.92 0.649523 1.31983 0
M  V30 12285 H 1156.88 -0.737354 4.10632 0
M  V30 12286 H 1155.51 -1.11497 3.02933 0
M  V30 12287 H 1154.56 1.23744 3.5971 0
M  V30 12288 H 1155.87 1.41355 4.78351 0
M  V30 12289 H 1155.02 -0.579557 6.03926 0
M  V30 12290 H 1153.76 -0.84755 4.80279 0
M  V30 12291 H 1152.77 1.39923 5.31697 0
M  V30 12292 H 1153.99 1.65595 6.58601 0
M  V30 12293 H 1151.94 -0.58746 6.53364 0
M  V30 12294 H 1151.86 0.839902 7.5132 0
M  V30 12295 H 1153.12 -0.316951 7.78855 0
M  V30 12296 N 1157.35 -1.41121 0.701616 0
M  V30 12297 C 1158.6 -2.00733 0.234682 0
M  V30 12298 C 1158.92 -1.55869 -1.17174 0
M  V30 12299 O 1158.19 -0.791965 -1.79178 0
M  V30 12300 H 1156.77 -0.742288 0.0837745 0
M  V30 12301 H 1159.43 -1.7266 0.904127 0
M  V30 12302 H 1158.53 -3.11041 0.256831 0
M  V30 12303 N 1158.83 -0.446794 -1.51134 0
M  V30 12304 C 1160.08 0.116493 -2.02165 0
M  V30 12305 C 1160.41 1.41884 -1.33039 0
M  V30 12306 O 1159.66 1.90757 -0.437071 0
M  V30 12307 C 1159.96 0.373015 -3.55448 0
M  V30 12308 C 1159.63 -0.844659 -4.42918 0
M  V30 12309 C 1158.29 -1.17857 -4.66544 0
M  V30 12310 C 1160.64 -1.65653 -4.94174 0
M  V30 12311 C 1157.97 -2.32486 -5.38672 0
M  V30 12312 C 1160.32 -2.7939 -5.6756 0
M  V30 12313 C 1158.98 -3.13224 -5.89446 0
M  V30 12314 H 1158.25 0.0426279 -0.739773 0
M  V30 12315 H 1160.9 -0.595921 -1.81992 0
M  V30 12316 H 1159.21 1.16742 -3.74003 0
M  V30 12317 H 1160.9 0.822425 -3.92476 0
M  V30 12318 H 1157.49 -0.574478 -4.24733 0
M  V30 12319 H 1161.68 -1.41176 -4.75797 0
M  V30 12320 H 1156.93 -2.59003 -5.5383 0
M  V30 12321 H 1161.11 -3.42662 -6.06264 0
M  V30 12322 H 1158.73 -4.02158 -6.45115 0
M  V30 12323 N 1160.31 1.56586 -0.178487 0
M  V30 12324 C 1161.56 1.96273 0.464745 0
M  V30 12325 C 1161.87 1.0675 1.63902 0
M  V30 12326 O 1163.08 1.36148 2.34896 0
M  V30 12327 C 1161.53 3.49021 0.878207 0
M  V30 12328 C 1161.14 4.4718 -0.270861 0
M  V30 12329 C 1162.88 3.97512 1.48946 0
M  V30 12330 C 1160.79 5.91176 0.162632 0
M  V30 12331 H 1159.72 0.732834 0.177398 0
M  V30 12332 H 1162.37 1.81534 -0.267861 0
M  V30 12333 H 1160.75 3.59203 1.667 0
M  V30 12334 H 1161.93 4.48718 -1.04826 0
M  V30 12335 H 1160.24 4.08788 -0.792529 0
M  V30 12336 H 1162.84 5.02556 1.82595 0
M  V30 12337 H 1163.18 3.40861 2.38997 0
M  V30 12338 H 1163.72 3.90376 0.76496 0
M  V30 12339 H 1160.46 6.51716 -0.703286 0
M  V30 12340 H 1159.98 5.9293 0.905243 0
M  V30 12341 H 1161.65 6.44174 0.604084 0
M  V30 12342 N 1161.79 -0.095206 1.57312 0
M  V30 12343 C 1163.2 -0.449411 1.53142 0
M  V30 12344 C 1163.4 -1.80523 0.895187 0
M  V30 12345 O 1162.46 -2.47746 0.487649 0
M  V30 12346 C 1163.77 -0.412002 2.97864 0
M  V30 12347 C 1165.32 -0.493866 3.09079 0
M  V30 12348 C 1165.79 -0.486606 4.55408 0
M  V30 12349 N 1167.29 -0.547363 4.59955 0
M  V30 12350 C 1168.02 -0.563582 5.70624 0
M  V30 12351 N 1167.52 -0.536015 6.90723 0
M  V30 12352 N 1169.31 -0.608385 5.58798 0
M  V30 12353 H 1161.46 0.792869 1.97047 0
M  V30 12354 H 1163.72 0.295106 0.900898 0
M  V30 12355 H 1163.43 0.517064 3.47878 0
M  V30 12356 H 1163.3 -1.23102 3.56547 0
M  V30 12357 H 1165.69 -1.41335 2.59053 0
M  V30 12358 H 1165.77 0.353286 2.53349 0
M  V30 12359 H 1165.42 0.428935 5.06086 0
M  V30 12360 H 1165.35 -1.35097 5.08976 0
M  V30 12361 H 1167.84 -0.573867 3.73517 0
M  V30 12362 H 1168.15 -0.551671 7.70828 0
M  V30 12363 H 1166.49 -0.503064 6.93177 0
M  V30 12364 H 1169.69 -0.627451 4.63876 0
M  V30 12365 H 1169.86 -0.617556 6.45051 0
M  V30 12366 N 1163.26 -1.53291 -0.366026 0
M  V30 12367 C 1164.68 -1.43053 -0.707669 0
M  V30 12368 C 1164.88 -0.56925 -1.93292 0
M  V30 12369 O 1163.94 -0.0515214 -2.52447 0
M  V30 12370 C 1165.25 -2.86239 -0.921292 0
M  V30 12371 C 1166.8 -2.95868 -1.02133 0
M  V30 12372 C 1167.27 -4.40114 -1.26743 0
M  V30 12373 N 1168.76 -4.43541 -1.33514 0
M  V30 12374 C 1169.5 -5.52259 -1.54264 0
M  V30 12375 N 1168.99 -6.71024 -1.72335 0
M  V30 12376 N 1170.79 -5.39836 -1.5663 0
M  V30 12377 H 1162.94 -2.07795 0.43988 0
M  V30 12378 H 1165.2 -0.938376 0.134736 0
M  V30 12379 H 1164.91 -3.51578 -0.0928042 0
M  V30 12380 H 1164.78 -3.29862 -1.82951 0
M  V30 12381 H 1167.17 -2.30683 -1.84036 0
M  V30 12382 H 1167.25 -2.5564 -0.0905097 0
M  V30 12383 H 1166.89 -5.05872 -0.453409 0
M  V30 12384 H 1166.82 -4.77914 -2.21146 0
M  V30 12385 H 1169.31 -3.57949 -1.21165 0
M  V30 12386 H 1169.63 -7.49649 -1.8774 0
M  V30 12387 H 1167.97 -6.7401 -1.69514 0
M  V30 12388 H 1171.16 -4.46017 -1.4208 0
M  V30 12389 H 1171.34 -6.24629 -1.72461 0
M  V30 12390 N 1164.74 0.6258 -1.44643 0
M  V30 12391 C 1165.99 1.38525 -1.47706 0
M  V30 12392 C 1166.32 1.94179 -0.111703 0
M  V30 12393 O 1165.57 1.74432 0.887237 0
M  V30 12394 C 1165.87 2.56466 -2.48917 0
M  V30 12395 C 1165.54 2.19069 -3.94106 0
M  V30 12396 C 1164.2 2.08583 -4.33643 0
M  V30 12397 C 1166.55 1.89608 -4.85488 0
M  V30 12398 C 1163.88 1.66831 -5.6248 0
M  V30 12399 C 1166.23 1.49347 -6.14718 0
M  V30 12400 C 1164.9 1.37406 -6.53204 0
M  V30 12401 H 1164.17 0.506899 -0.540494 0
M  V30 12402 H 1166.81 0.709128 -1.77887 0
M  V30 12403 H 1165.12 3.29335 -2.12239 0
M  V30 12404 H 1166.81 3.14695 -2.48532 0
M  V30 12405 H 1163.4 2.28151 -3.62829 0
M  V30 12406 H 1167.59 1.96616 -4.55693 0
M  V30 12407 H 1162.84 1.56195 -5.91112 0
M  V30 12408 H 1167.02 1.2559 -6.84982 0
M  V30 12409 H 1164.65 1.04826 -7.52938 0
M  V30 12410 N 1166.22 1.31629 0.866686 0
M  V30 12411 C 1167.17 1.19492 1.99561 0
M  V30 12412 C 1168.16 0.102456 1.6909 0
M  V30 12413 O 1169.37 0.264571 1.78045 0
M  V30 12414 H 1165.74 0.370071 0.654638 0
M  V30 12415 H 1167.71 2.14996 2.06928 0
M  V30 12416 C 1166.46 0.92246 3.3524 0
M  V30 12417 H 1165.79 1.75524 3.59209 0
M  V30 12418 H 1167.23 0.877726 4.14816 0
M  V30 12419 C 1165.69 -0.374803 3.34809 0
M  V30 12420 O 1166.22 -1.39055 3.76864 0
M  V30 12421 N 1164.42 -0.392506 2.87937 0
M  V30 12422 H 1163.97 0.434591 2.53908 0
M  V30 12423 H 1163.93 -1.26038 2.88031 0
M  V30 12424 N 1167.7 -1.08142 1.14644 0
M  V30 12425 C 1168.65 -2.15133 0.835845 0
M  V30 12426 C 1169.62 -1.64795 -0.207785 0
M  V30 12427 O 1170.8 -1.90644 -0.07711 0
M  V30 12428 C 1167.94 -3.4359 0.322456 0
M  V30 12429 C 1167.05 -4.07761 1.42671 0
M  V30 12430 C 1166.19 -5.24022 0.870281 0
M  V30 12431 C 1165.23 -5.8014 1.95202 0
M  V30 12432 N 1164.37 -6.87743 1.41257 0
M  V30 12433 H 1169.21 -2.41042 1.75222 0
M  V30 12434 H 1166.74 -1.18288 0.874428 0
M  V30 12435 H 1168.7 -4.17199 0.00657059 0
M  V30 12436 H 1167.33 -3.17958 -0.557014 0
M  V30 12437 H 1166.38 -3.31885 1.85893 0
M  V30 12438 H 1167.69 -4.45485 2.24375 0
M  V30 12439 H 1166.85 -6.04582 0.506459 0
M  V30 12440 H 1165.59 -4.87695 0.0223118 0
M  V30 12441 H 1164.59 -4.98232 2.32476 0
M  V30 12442 H 1165.82 -6.18525 2.80363 0
M  V30 12443 H 1163.76 -6.5337 0.586826 0
M  V30 12444 H 1163.68 -7.24308 2.16596 0
M  V30 12445 H 1164.95 -7.72028 1.07674 0
M  V30 12446 N 1169.18 -0.941978 -1.26351 0
M  V30 12447 C 1170.09 -0.45833 -2.30079 0
M  V30 12448 C 1171.1 0.468084 -1.67586 0
M  V30 12449 O 1172.28 0.347418 -1.98381 0
M  V30 12450 C 1169.34 0.26797 -3.45663 0
M  V30 12451 C 1168.41 -0.695102 -4.23635 0
M  V30 12452 C 1167.64 -0.003369 -5.337 0
M  V30 12453 O 1167.86 1.21342 -5.57344 0
M  V30 12454 O 1166.8 -0.682476 -5.98018 0
M  V30 12455 H 1170.62 -1.31998 -2.73514 0
M  V30 12456 H 1168.21 -0.707897 -1.31564 0
M  V30 12457 H 1170.09 0.677061 -4.15925 0
M  V30 12458 H 1168.76 1.105 -3.04256 0
M  V30 12459 H 1167.67 -1.15415 -3.55851 0
M  V30 12460 H 1169 -1.49977 -4.68794 0
M  V30 12461 N 1170.66 1.40747 -0.709091 0
M  V30 12462 C 1171.9 2.00606 -0.245324 0
M  V30 12463 C 1172.22 1.56489 1.16346 0
M  V30 12464 O 1171.49 0.801456 1.78755 0
M  V30 12465 H 1170.07 0.741833 -0.0877098 0
M  V30 12466 H 1172.74 1.72178 -0.913271 0
M  V30 12467 H 1171.83 3.10901 -0.273322 0
M  V30 12468 N 1172.13 0.454803 1.50895 0
M  V30 12469 C 1173.38 -0.105562 2.01824 0
M  V30 12470 C 1173.7 -1.41673 1.33992 0
M  V30 12471 O 1172.97 -1.89929 0.479994 0
M  V30 12472 H 1171.55 -0.0420011 0.745818 0
M  V30 12473 H 1174.21 0.601504 1.85386 0
M  V30 12474 H 1173.31 -0.268872 3.1094 0
M  V30 12475 N 1173.61 -1.56489 0.186789 0
M  V30 12476 C 1174.84 -2.01722 -0.459993 0
M  V30 12477 C 1175.25 -1.06697 -1.5576 0
M  V30 12478 O 1174.61 -0.0704212 -1.82364 0
M  V30 12479 C 1174.66 -3.46693 -1.02401 0
M  V30 12480 O 1174.38 -4.3809 0.0297916 0
M  V30 12481 C 1175.88 -4.07403 -1.7475 0
M  V30 12482 H 1173.1 -0.660845 -0.116298 0
M  V30 12483 H 1175.65 -2.02389 0.293059 0
M  V30 12484 H 1173.8 -3.46752 -1.72749 0
M  V30 12485 H 1174.22 -5.23057 -0.388821 0
M  V30 12486 H 1175.69 -5.10718 -2.09455 0
M  V30 12487 H 1176.17 -3.50383 -2.64818 0
M  V30 12488 H 1176.77 -4.11093 -1.09007 0
M  V30 12489 N 1175.09 0.086862 -1.5736 0
M  V30 12490 C 1176.31 0.806017 -1.91097 0
M  V30 12491 C 1176.74 1.71082 -0.78183 0
M  V30 12492 O 1176.1 1.79335 0.266175 0
M  V30 12493 C 1176.15 1.5884 -3.23732 0
M  V30 12494 O 1175.25 2.69798 -3.11902 0
M  V30 12495 H 1174.59 0.220899 -0.626179 0
M  V30 12496 H 1177.12 0.059619 -2.04513 0
M  V30 12497 H 1177.13 1.97088 -3.5724 0
M  V30 12498 H 1175.81 0.924426 -4.05496 0
M  V30 12499 H 1174.38 2.34519 -2.89923 0
M  V30 12500 N 1176.57 1.53483 0.357892 0
M  V30 12501 C 1177.82 1.69256 1.09706 0
M  V30 12502 C 1178.13 0.454888 1.90237 0
M  V30 12503 O 1179.34 0.4933 2.66981 0
M  V30 12504 C 1177.79 2.99238 1.99961 0
M  V30 12505 C 1177.4 4.30293 1.24706 0
M  V30 12506 C 1179.14 3.24378 2.73823 0
M  V30 12507 C 1177.05 5.5136 2.13907 0
M  V30 12508 H 1175.98 0.630657 0.413265 0
M  V30 12509 H 1178.63 1.79983 0.357518 0
M  V30 12510 H 1177.01 2.82332 2.77677 0
M  V30 12511 H 1178.19 4.57857 0.519995 0
M  V30 12512 H 1176.5 4.11656 0.626736 0
M  V30 12513 H 1179.1 4.12015 3.40805 0
M  V30 12514 H 1179.44 2.40769 3.39612 0
M  V30 12515 H 1179.98 3.41994 2.03187 0
M  V30 12516 H 1176.71 6.3747 1.52684 0
M  V30 12517 H 1176.23 5.28065 2.84442 0
M  V30 12518 H 1177.91 5.86448 2.7329 0
M  V30 12519 N 1178.05 -0.61812 1.44973 0
M  V30 12520 C 1178.98 -1.74035 1.55673 0
M  V30 12521 C 1179.96 -1.65112 0.4089 0
M  V30 12522 O 1181.14 -1.83673 0.630698 0
M  V30 12523 C 1178.27 -3.1261 1.51303 0
M  V30 12524 C 1177.23 -3.36334 2.64696 0
M  V30 12525 C 1176.55 -4.75072 2.45378 0
M  V30 12526 C 1177.85 -3.27618 4.06772 0
M  V30 12527 H 1179.55 -1.65336 2.49608 0
M  V30 12528 H 1177.09 -0.794003 1.20132 0
M  V30 12529 H 1179.04 -3.90906 1.57388 0
M  V30 12530 H 1177.77 -3.22123 0.538914 0
M  V30 12531 H 1176.43 -2.60423 2.58022 0
M  V30 12532 H 1176.08 -4.81306 1.46129 0
M  V30 12533 H 1175.78 -4.91903 3.21412 0
M  V30 12534 H 1177.3 -5.55582 2.53301 0
M  V30 12535 H 1178.71 -3.95802 4.14746 0
M  V30 12536 H 1177.11 -3.55981 4.83113 0
M  V30 12537 H 1178.18 -2.25219 4.29423 0
M  V30 12538 N 1179.52 -1.32087 -0.859693 0
M  V30 12539 C 1180.8 -1.12984 -1.59668 0
M  V30 12540 C 1181.18 0.311661 -2.08787 0
M  V30 12541 O 1180.53 1.30746 -1.87397 0
M  V30 12542 C 1180.74 -2.15305 -2.74672 0
M  V30 12543 C 1182.09 -2.48371 -3.44379 0
M  V30 12544 O 1183.11 -2.13811 -2.84891 0
M  V30 12545 O 1181.97 -3.07594 -4.51717 0
M  V30 12546 H 1179.06 -0.435657 -0.702945 0
M  V30 12547 H 1181.61 -1.43601 -0.90426 0
M  V30 12548 H 1180.38 -3.12223 -2.35866 0
M  V30 12549 H 1180 -1.85653 -3.51594 0
M  V30 12550 N 1181 1.07532 -1.15215 0
M  V30 12551 C 1181.95 2.16785 -0.843022 0
M  V30 12552 C 1182.94 1.68411 0.182802 0
M  V30 12553 O 1184.15 1.7996 0.0380164 0
M  V30 12554 H 1180.52 0.707465 -0.254945 0
M  V30 12555 H 1182.5 2.40078 -1.77215 0
M  V30 12556 C 1181.24 3.45967 -0.346699 0
M  V30 12557 H 1180.57 3.83574 -1.12744 0
M  V30 12558 H 1182.01 4.23663 -0.169039 0
M  V30 12559 C 1180.47 3.23768 0.931437 0
M  V30 12560 O 1181 3.48179 2.00336 0
M  V30 12561 N 1179.2 2.77264 0.870217 0
M  V30 12562 H 1178.75 2.576 -0.00226223 0
M  V30 12563 H 1178.71 2.6279 1.72594 0
M  V30 12564 N 1182.48 0.948665 1.2585 0
M  V30 12565 C 1183.41 0.482036 2.2847 0
M  V30 12566 C 1184.39 -0.468553 1.63519 0
M  V30 12567 O 1185.58 -0.368796 1.90666 0
M  V30 12568 C 1182.71 -0.246603 3.46423 0
M  V30 12569 C 1181.66 0.61815 4.23513 0
M  V30 12570 C 1180.99 -0.240884 5.34157 0
M  V30 12571 C 1182.29 1.89327 4.86778 0
M  V30 12572 H 1183.98 1.33973 2.67753 0
M  V30 12573 H 1181.53 0.645645 1.28715 0
M  V30 12574 H 1183.48 -0.584135 4.17332 0
M  V30 12575 H 1182.2 -1.13849 3.06114 0
M  V30 12576 H 1180.86 0.938682 3.54379 0
M  V30 12577 H 1180.51 -1.13235 4.90089 0
M  V30 12578 H 1180.21 0.334367 5.86648 0
M  V30 12579 H 1181.73 -0.573517 6.07901 0
M  V30 12580 H 1183.15 1.62252 5.49861 0
M  V30 12581 H 1181.55 2.41369 5.49419 0
M  V30 12582 H 1182.62 2.60006 4.09298 0
M  V30 12583 N 1183.96 -1.40369 0.716545 0
M  V30 12584 C 1184.89 -2.33365 0.0793533 0
M  V30 12585 C 1185.87 -1.52943 -0.744482 0
M  V30 12586 O 1187.05 -1.81406 -0.693212 0
M  V30 12587 C 1184.18 -3.36928 -0.842429 0
M  V30 12588 C 1183.14 -4.2782 -0.124142 0
M  V30 12589 C 1182.46 -5.21928 -1.1617 0
M  V30 12590 C 1183.76 -5.12199 1.02224 0
M  V30 12591 H 1185.46 -2.86899 0.856115 0
M  V30 12592 H 1183 -1.37946 0.413138 0
M  V30 12593 H 1184.96 -4.00925 -1.29759 0
M  V30 12594 H 1183.68 -2.81791 -1.6511 0
M  V30 12595 H 1182.34 -3.65277 0.311201 0
M  V30 12596 H 1181.99 -4.63096 -1.96345 0
M  V30 12597 H 1181.69 -5.83582 -0.685978 0
M  V30 12598 H 1183.21 -5.88802 -1.61694 0
M  V30 12599 H 1184.63 -5.69644 0.646399 0
M  V30 12600 H 1183.02 -5.82901 1.4264 0
M  V30 12601 H 1184.09 -4.4812 1.85246 0
M  V30 12602 N 1185.44 -0.462799 -1.50652 0
M  V30 12603 C 1186.37 0.325724 -2.31217 0
M  V30 12604 C 1187.35 0.997942 -1.3775 0
M  V30 12605 O 1188.53 0.996707 -1.66671 0
M  V30 12606 C 1185.66 1.41283 -3.17264 0
M  V30 12607 C 1184.62 0.862687 -4.19216 0
M  V30 12608 C 1183.94 2.04746 -4.93946 0
M  V30 12609 C 1185.24 -0.120365 -5.22161 0
M  V30 12610 H 1186.94 -0.346666 -2.97386 0
M  V30 12611 H 1184.48 -0.168163 -1.43015 0
M  V30 12612 H 1186.44 1.97188 -3.72418 0
M  V30 12613 H 1185.16 2.11387 -2.48964 0
M  V30 12614 H 1183.82 0.325671 -3.65151 0
M  V30 12615 H 1183.47 2.73529 -4.22127 0
M  V30 12616 H 1183.17 1.68562 -5.62904 0
M  V30 12617 H 1184.69 2.61157 -5.51932 0
M  V30 12618 H 1186.1 0.349226 -5.72235 0
M  V30 12619 H 1184.5 -0.396061 -5.98792 0
M  V30 12620 H 1185.57 -1.04895 -4.73418 0
M  V30 12621 N 1186.91 1.56388 -0.195085 0
M  V30 12622 C 1188.33 1.58788 0.160758 0
M  V30 12623 C 1188.53 1.21125 1.61031 0
M  V30 12624 O 1187.59 0.933994 2.34591 0
M  V30 12625 C 1188.9 3.00366 -0.141588 0
M  V30 12626 C 1190.45 3.12893 -0.0816947 0
M  V30 12627 C 1190.92 4.56604 -0.35735 0
M  V30 12628 N 1192.41 4.62188 -0.305968 0
M  V30 12629 C 1193.15 5.71276 -0.493108 0
M  V30 12630 N 1192.64 6.8883 -0.740595 0
M  V30 12631 N 1194.44 5.60473 -0.427365 0
M  V30 12632 H 1186.59 1.79151 -1.14099 0
M  V30 12633 H 1188.85 0.831446 -0.455413 0
M  V30 12634 H 1188.56 3.32483 -1.14666 0
M  V30 12635 H 1188.43 3.73082 0.555834 0
M  V30 12636 H 1190.82 2.80589 0.913978 0
M  V30 12637 H 1190.9 2.42564 -0.812193 0
M  V30 12638 H 1190.54 4.8962 -1.35034 0
M  V30 12639 H 1190.47 5.25124 0.394036 0
M  V30 12640 H 1192.96 3.77705 -0.121298 0
M  V30 12641 H 1193.28 7.67862 -0.872201 0
M  V30 12642 H 1191.62 6.90637 -0.777488 0
M  V30 12643 H 1194.81 4.67513 -0.234436 0
M  V30 12644 H 1194.99 6.45429 -0.576627 0
M  V30 12645 N 1188.39 -0.0785156 1.57404 0
M  V30 12646 C 1189.33 -1.12563 1.98506 0
M  V30 12647 C 1190.3 -1.3794 0.860891 0
M  V30 12648 O 1191.49 -1.51425 1.12262 0
M  V30 12649 C 1188.61 -2.47139 2.31603 0
M  V30 12650 C 1187.66 -2.3794 3.53959 0
M  V30 12651 S 1188.49 -1.77997 5.05052 0
M  V30 12652 C 1189.65 -3.14164 5.41342 0
M  V30 12653 H 1189.88 -0.775328 2.87012 0
M  V30 12654 H 1187.42 -0.286806 1.51713 0
M  V30 12655 H 1189.37 -3.24554 2.51346 0
M  V30 12656 H 1188.03 -2.79333 1.43638 0
M  V30 12657 H 1187.23 -3.37168 3.74612 0
M  V30 12658 H 1186.83 -1.68659 3.33812 0
M  V30 12659 H 1189.12 -4.10467 5.39002 0
M  V30 12660 H 1190.06 -2.98298 6.42202 0
M  V30 12661 H 1190.47 -3.1446 4.68802 0
M  V30 12662 N 1189.87 -1.5367 -0.349747 0
M  V30 12663 C 1190.78 -1.84207 -1.45275 0
M  V30 12664 C 1191.8 -0.731695 -1.57868 0
M  V30 12665 O 1192.97 -1.02337 -1.73462 0
M  V30 12666 C 1190.04 -2.0398 -2.80345 0
M  V30 12667 C 1189.1 -3.27853 -2.77148 0
M  V30 12668 C 1188.33 -3.46673 -4.05775 0
M  V30 12669 O 1188.55 -2.69457 -5.02741 0
M  V30 12670 O 1187.49 -4.40082 -4.10623 0
M  V30 12671 H 1191.31 -2.77947 -1.22389 0
M  V30 12672 H 1188.9 -1.39247 -0.541345 0
M  V30 12673 H 1190.78 -2.18466 -3.60348 0
M  V30 12674 H 1189.46 -1.13429 -3.03176 0
M  V30 12675 H 1188.36 -3.18776 -1.95787 0
M  V30 12676 H 1189.7 -4.18377 -2.59271 0
M  V30 12677 N 1191.35 0.610423 -1.45298 0
M  V30 12678 C 1192.28 1.73507 -1.4976 0
M  V30 12679 C 1193.29 1.58092 -0.38867 0
M  V30 12680 O 1194.48 1.66026 -0.655571 0
M  V30 12681 C 1191.58 3.11475 -1.33554 0
M  V30 12682 C 1190.76 3.53156 -2.5807 0
M  V30 12683 C 1189.81 4.70076 -2.36463 0
M  V30 12684 O 1188.84 4.77337 -3.10061 0
M  V30 12685 N 1190.04 5.63155 -1.40843 0
M  V30 12686 H 1192.81 1.70144 -2.46721 0
M  V30 12687 H 1190.37 0.79562 -1.41002 0
M  V30 12688 H 1192.36 3.87444 -1.16914 0
M  V30 12689 H 1190.93 3.09361 -0.448803 0
M  V30 12690 H 1190.15 2.67178 -2.89844 0
M  V30 12691 H 1191.44 3.77761 -3.40843 0
M  V30 12692 H 1190.84 5.60001 -0.800982 0
M  V30 12693 H 1189.39 6.38669 -1.30175 0
M  V30 12694 N 1192.83 1.32541 0.852676 0
M  V30 12695 C 1194.06 1.26037 1.63702 0
M  V30 12696 C 1194.46 -0.173583 1.88402 0
M  V30 12697 O 1193.81 -1.12175 1.45473 0
M  V30 12698 C 1193.87 1.95245 3.01861 0
M  V30 12699 C 1193.53 3.44576 3.00193 0
M  V30 12700 C 1194.53 4.40026 2.76899 0
M  V30 12701 C 1192.22 3.86541 3.20766 0
M  V30 12702 C 1194.21 5.75414 2.74185 0
M  V30 12703 C 1191.9 5.22038 3.17678 0
M  V30 12704 C 1192.89 6.16286 2.94416 0
M  V30 12705 O 1192.58 7.49303 2.91206 0
M  V30 12706 H 1192.31 0.436073 0.516543 0
M  V30 12707 H 1194.87 1.75251 1.07127 0
M  V30 12708 H 1193.1 1.40603 3.60233 0
M  V30 12709 H 1194.79 1.82423 3.62597 0
M  V30 12710 H 1195.55 4.0893 2.6077 0
M  V30 12711 H 1191.43 3.13603 3.37897 0
M  V30 12712 H 1194.98 6.4895 2.55947 0
M  V30 12713 H 1190.87 5.52762 3.33353 0
M  V30 12714 H 1191.64 7.58686 3.07146 0
M  V30 12715 N 1194.3 -1.0692 1.15784 0
M  V30 12716 C 1195.27 -2.12407 0.861167 0
M  V30 12717 C 1196.27 -1.6018 -0.141031 0
M  V30 12718 O 1197.46 -1.73972 0.0891192 0
M  V30 12719 C 1194.59 -3.39693 0.286636 0
M  V30 12720 H 1195.78 -2.40157 1.79623 0
M  V30 12721 H 1193.34 -1.22881 0.965916 0
M  V30 12722 H 1194.07 -3.17587 -0.656417 0
M  V30 12723 H 1193.86 -3.78903 1.0087 0
M  V30 12724 H 1195.35 -4.17488 0.0967971 0
M  V30 12725 N 1195.78 -0.955326 -1.25345 0
M  V30 12726 C 1196.73 -0.467205 -2.2786 0
M  V30 12727 C 1197.72 0.462873 -1.62954 0
M  V30 12728 O 1198.93 0.339526 -1.76769 0
M  V30 12729 H 1195.31 -0.132586 -0.74022 0
M  V30 12730 H 1197.28 -1.34406 -2.66416 0
M  V30 12731 C 1196.03 0.238898 -3.46878 0
M  V30 12732 H 1195.35 -0.467644 -3.97056 0
M  V30 12733 H 1196.79 0.544444 -4.2049 0
M  V30 12734 C 1195.25 1.46164 -3.03542 0
M  V30 12735 O 1195.78 2.55933 -3.09615 0
M  V30 12736 N 1193.98 1.32324 -2.58725 0
M  V30 12737 H 1193.53 0.430131 -2.53984 0
M  V30 12738 H 1193.49 2.14253 -2.30094 0
M  V30 12739 N 1197.26 1.39987 -0.723979 0
M  V30 12740 C 1198.21 2.32507 -0.0658033 0
M  V30 12741 C 1199.2 1.52484 0.737908 0
M  V30 12742 O 1200.41 1.68225 0.640332 0
M  V30 12743 H 1196.78 0.751996 -0.00247717 0
M  V30 12744 H 1198.76 2.85657 -0.862696 0
M  V30 12745 C 1197.5 3.37509 0.835628 0
M  V30 12746 H 1196.83 3.99157 0.226589 0
M  V30 12747 H 1198.27 4.04722 1.26396 0
M  V30 12748 C 1196.73 2.73665 1.96492 0
M  V30 12749 O 1197.26 2.60649 3.05655 0
M  V30 12750 N 1195.46 2.3192 1.75104 0
M  V30 12751 H 1195.01 2.42707 0.863204 0
M  V30 12752 H 1194.97 1.89542 2.50841 0
M  V30 12753 N 1198.74 0.470782 1.50404 0
M  V30 12754 C 1199.67 -0.313458 2.31386 0
M  V30 12755 C 1200.65 -0.990623 1.38278 0
M  V30 12756 O 1201.84 -0.987854 1.67198 0
M  V30 12757 C 1198.97 -1.39599 3.18009 0
M  V30 12758 C 1197.92 -0.840443 4.19667 0
M  V30 12759 C 1197.25 -2.02124 4.95025 0
M  V30 12760 C 1198.55 0.148055 5.2209 0
M  V30 12761 H 1200.24 0.362432 2.97198 0
M  V30 12762 H 1197.79 0.175745 1.42924 0
M  V30 12763 H 1199.74 -1.9521 3.73458 0
M  V30 12764 H 1198.46 -2.10064 2.50081 0
M  V30 12765 H 1197.12 -0.306302 3.65318 0
M  V30 12766 H 1196.77 -2.71286 4.23571 0
M  V30 12767 H 1196.47 -1.65574 5.6379 0
M  V30 12768 H 1197.99 -2.58226 5.5331 0
M  V30 12769 H 1199.41 -0.318874 5.72413 0
M  V30 12770 H 1197.8 0.427811 5.98573 0
M  V30 12771 H 1198.87 1.07404 4.72855 0
M  V30 12772 N 1200.22 -1.56282 0.203376 0
M  V30 12773 C 1201.13 -2.23086 -0.725922 0
M  V30 12774 C 1202.14 -1.23258 -1.22814 0
M  V30 12775 O 1203.32 -1.5602 -1.27357 0
M  V30 12776 C 1200.38 -2.88358 -1.92485 0
M  V30 12777 C 1199.45 -4.03479 -1.46639 0
M  V30 12778 C 1198.68 -4.65629 -2.60816 0
M  V30 12779 O 1198.9 -4.2672 -3.78506 0
M  V30 12780 O 1197.84 -5.54949 -2.33056 0
M  V30 12781 H 1201.66 -3.03124 -0.18694 0
M  V30 12782 H 1199.25 -1.49377 -0.0262829 0
M  V30 12783 H 1201.13 -3.29623 -2.62539 0
M  V30 12784 H 1199.8 -2.11294 -2.45228 0
M  V30 12785 H 1198.71 -3.66821 -0.734396 0
M  V30 12786 H 1200.04 -4.82232 -0.985535 0
M  V30 12787 N 1201.7 0.070167 -1.57444 0
M  V30 12788 C 1202.64 1.08322 -2.03801 0
M  V30 12789 C 1203.61 1.38364 -0.918946 0
M  V30 12790 O 1204.8 1.49404 -1.18672 0
M  V30 12791 C 1201.94 2.39128 -2.48821 0
M  V30 12792 C 1201.05 2.15603 -3.74352 0
M  V30 12793 C 1200.19 3.39984 -4.08148 0
M  V30 12794 C 1199.22 3.1183 -5.26715 0
M  V30 12795 N 1198.36 4.28546 -5.56141 0
M  V30 12796 H 1203.2 0.680931 -2.90116 0
M  V30 12797 H 1200.74 0.324657 -1.43473 0
M  V30 12798 H 1202.7 3.15501 -2.72975 0
M  V30 12799 H 1201.33 2.77157 -1.65481 0
M  V30 12800 H 1200.38 1.29915 -3.57528 0
M  V30 12801 H 1201.69 1.90808 -4.60862 0
M  V30 12802 H 1200.84 4.2475 -4.33211 0
M  V30 12803 H 1199.58 3.67856 -3.20208 0
M  V30 12804 H 1198.59 2.2546 -5.01446 0
M  V30 12805 H 1199.81 2.85278 -6.16273 0
M  V30 12806 H 1197.76 4.56447 -4.71161 0
M  V30 12807 H 1197.68 4.0703 -6.37073 0
M  V30 12808 H 1198.94 5.14305 -5.85757 0
M  V30 12809 N 1203.17 1.53854 0.341593 0
M  V30 12810 C 1204.1 1.84966 1.42513 0
M  V30 12811 C 1205.08 0.704944 1.54805 0
M  V30 12812 O 1206.27 0.957036 1.68981 0
M  V30 12813 C 1203.4 2.06099 2.79536 0
M  V30 12814 C 1202.35 3.21919 2.82049 0
M  V30 12815 C 1201.68 3.28389 4.21977 0
M  V30 12816 C 1202.98 4.59984 2.4741 0
M  V30 12817 H 1204.67 2.7571 1.16724 0
M  V30 12818 H 1202.22 1.32662 0.560073 0
M  V30 12819 H 1204.17 2.26448 3.55386 0
M  V30 12820 H 1202.9 1.12087 3.06764 0
M  V30 12821 H 1201.56 3.01429 2.08653 0
M  V30 12822 H 1201.2 2.3197 4.46317 0
M  V30 12823 H 1200.9 4.0622 4.24569 0
M  V30 12824 H 1202.43 3.50951 4.99666 0
M  V30 12825 H 1203.84 4.80334 3.12973 0
M  V30 12826 H 1202.24 5.40233 2.61282 0
M  V30 12827 H 1203.31 4.6346 1.42594 0
M  V30 12828 N 1204.65 -0.602709 1.4562 0
M  V30 12829 C 1205.9 -1.36359 1.50113 0
M  V30 12830 C 1206.23 -1.93663 0.144297 0
M  V30 12831 O 1205.51 -1.75337 -0.841851 0
M  V30 12832 C 1205.79 -2.50788 2.58413 0
M  V30 12833 C 1205.64 -1.98649 4.03557 0
M  V30 12834 C 1206.96 -3.52905 2.62957 0
M  V30 12835 H 1204.08 -0.494455 0.54652 0
M  V30 12836 H 1206.72 -0.678957 1.77455 0
M  V30 12837 H 1204.87 -3.09191 2.3523 0
M  V30 12838 H 1206.54 -1.44857 4.37966 0
M  V30 12839 H 1204.79 -1.29615 4.13984 0
M  V30 12840 H 1205.46 -2.81159 4.7503 0
M  V30 12841 H 1207.93 -3.0435 2.83743 0
M  V30 12842 H 1206.81 -4.30454 3.40589 0
M  V30 12843 H 1207.07 -4.0884 1.68233 0
M  V30 12844 N 1206.13 -1.32992 -0.845635 0
M  V30 12845 C 1207.04 -1.24701 -1.98713 0
M  V30 12846 C 1208.06 -0.158864 -1.73273 0
M  V30 12847 O 1209.23 -0.381209 -1.97759 0
M  V30 12848 C 1206.3 -0.979524 -3.32575 0
M  V30 12849 C 1205.36 -2.15701 -3.71176 0
M  V30 12850 C 1204.59 -1.90219 -4.98651 0
M  V30 12851 O 1204.81 -0.849171 -5.64044 0
M  V30 12852 O 1203.75 -2.76571 -5.34595 0
M  V30 12853 H 1207.57 -2.20683 -2.08645 0
M  V30 12854 H 1205.16 -1.12971 -0.97765 0
M  V30 12855 H 1207.04 -0.847219 -4.12796 0
M  V30 12856 H 1205.72 -0.0499398 -3.23661 0
M  V30 12857 H 1204.62 -2.34483 -2.91494 0
M  V30 12858 H 1205.96 -3.0697 -3.84747 0
M  V30 12859 N 1207.61 1.06304 -1.1635 0
M  V30 12860 C 1208.52 2.17296 -0.884289 0
M  V30 12861 C 1209.53 1.73408 0.143414 0
M  V30 12862 O 1210.71 2.01373 -0.0331987 0
M  V30 12863 C 1207.77 3.44509 -0.389163 0
M  V30 12864 C 1206.84 4.02906 -1.48208 0
M  V30 12865 C 1206.07 5.24047 -1.01048 0
M  V30 12866 O 1206.29 5.70229 0.139821 0
M  V30 12867 O 1205.23 5.74394 -1.79876 0
M  V30 12868 H 1209.05 2.4369 -1.81243 0
M  V30 12869 H 1206.64 1.15841 -0.943459 0
M  V30 12870 H 1208.52 4.21229 -0.120018 0
M  V30 12871 H 1207.19 3.19642 0.510968 0
M  V30 12872 H 1206.1 3.27677 -1.80496 0
M  V30 12873 H 1207.43 4.32068 -2.35751 0
M  V30 12874 N 1209.09 0.96196 1.24836 0
M  V30 12875 C 1210.5 0.667561 1.44968 0
M  V30 12876 C 1210.7 -0.772521 1.86103 0
M  V30 12877 O 1209.76 -1.54704 1.99557 0
M  V30 12878 C 1211.07 1.64675 2.516 0
M  V30 12879 C 1212.62 1.65874 2.65433 0
M  V30 12880 C 1213.09 2.62576 3.75257 0
M  V30 12881 N 1214.58 2.60984 3.82677 0
M  V30 12882 C 1215.32 3.32484 4.67163 0
M  V30 12883 N 1214.82 4.13482 5.55882 0
M  V30 12884 N 1216.61 3.21336 4.61193 0
M  V30 12885 H 1208.76 1.89248 0.964307 0
M  V30 12886 H 1211.02 0.814443 0.485167 0
M  V30 12887 H 1210.73 2.67572 2.2825 0
M  V30 12888 H 1210.6 1.415 3.49653 0
M  V30 12889 H 1212.99 0.636912 2.88145 0
M  V30 12890 H 1213.07 1.9311 1.67756 0
M  V30 12891 H 1212.71 3.6489 3.53295 0
M  V30 12892 H 1212.64 2.32622 4.72435 0
M  V30 12893 H 1215.14 2.02187 3.19263 0
M  V30 12894 H 1215.45 4.6494 6.17293 0
M  V30 12895 H 1213.79 4.17578 5.55566 0
M  V30 12896 H 1216.98 2.57524 3.90895 0
M  V30 12897 H 1217.16 3.77323 5.26812 0
M  V30 12898 N 1210.56 -1.39601 0.731392 0
M  V30 12899 C 1211.79 -2.04887 0.28789 0
M  V30 12900 C 1212.21 -1.55138 -1.076 0
M  V30 12901 O 1211.56 -0.71471 -1.67923 0
M  V30 12902 C 1211.61 -3.6044 0.276629 0
M  V30 12903 O 1211.34 -4.08358 1.58668 0
M  V30 12904 C 1212.84 -4.4292 -0.183485 0
M  V30 12905 H 1210.06 -0.658976 0.126459 0
M  V30 12906 H 1212.6 -1.78716 0.994031 0
M  V30 12907 H 1210.76 -3.85526 -0.380597 0
M  V30 12908 H 1211.17 -5.02659 1.4978 0
M  V30 12909 H 1212.64 -5.51822 -0.140207 0
M  V30 12910 H 1213.12 -4.2168 -1.22811 0
M  V30 12911 H 1213.73 -4.22976 0.444042 0
M  V30 12912 N 1212.04 -0.478751 -1.50152 0
M  V30 12913 C 1212.97 0.347829 -2.26545 0
M  V30 12914 C 1213.99 0.950354 -1.32182 0
M  V30 12915 O 1215.18 0.837462 -1.57635 0
M  V30 12916 C 1212.28 1.50255 -3.0377 0
M  V30 12917 C 1211.45 1.01142 -4.25546 0
M  V30 12918 C 1210.51 2.0411 -4.85 0
M  V30 12919 O 1209.53 1.61862 -5.45701 0
M  V30 12920 N 1210.74 3.36982 -4.72677 0
M  V30 12921 H 1213.5 -0.307113 -2.98122 0
M  V30 12922 H 1211.06 -0.309981 -1.58905 0
M  V30 12923 H 1213.05 2.18848 -3.40423 0
M  V30 12924 H 1211.62 2.06205 -2.34943 0
M  V30 12925 H 1210.84 0.151124 -3.9391 0
M  V30 12926 H 1212.13 0.661326 -5.04484 0
M  V30 12927 H 1211.53 3.74011 -4.2442 0
M  V30 12928 H 1210.09 4.0135 -5.13577 0
M  V30 12929 N 1213.52 1.56172 -0.211661 0
M  V30 12930 C 1214.48 2.18602 0.688906 0
M  V30 12931 C 1215.48 1.14508 1.12892 0
M  V30 12932 O 1216.67 1.39799 1.03932 0
M  V30 12933 C 1213.81 2.80141 1.94253 0
M  V30 12934 H 1215 2.9955 0.144765 0
M  V30 12935 H 1212.55 1.56254 0.0379615 0
M  V30 12936 H 1213.29 2.03035 2.52878 0
M  V30 12937 H 1213.07 3.56358 1.63558 0
M  V30 12938 H 1214.56 3.28026 2.58436 0
M  V30 12939 N 1215 -0.0618163 1.57479 0
M  V30 12940 C 1216.23 -0.770605 1.9169 0
M  V30 12941 C 1216.64 -1.71134 0.806841 0
M  V30 12942 O 1215.98 -1.8228 -0.228002 0
M  V30 12943 C 1216.04 -1.60962 3.21452 0
M  V30 12944 C 1215.71 -0.837193 4.49266 0
M  V30 12945 C 1216.7 -0.151964 5.19678 0
M  V30 12946 C 1214.39 -0.801414 4.95866 0
M  V30 12947 C 1216.38 0.558705 6.34947 0
M  V30 12948 C 1214.07 -0.0869788 6.11038 0
M  V30 12949 C 1215.07 0.591871 6.80431 0
M  V30 12950 O 1214.75 1.29478 7.93405 0
M  V30 12951 H 1214.49 -0.223673 0.637923 0
M  V30 12952 H 1217.04 -0.0333424 2.05373 0
M  V30 12953 H 1215.27 -2.38992 3.04006 0
M  V30 12954 H 1216.96 -2.19799 3.41238 0
M  V30 12955 H 1217.73 -0.170848 4.84699 0
M  V30 12956 H 1213.6 -1.31927 4.4172 0
M  V30 12957 H 1217.15 1.08913 6.89046 0
M  V30 12958 H 1213.05 -0.066057 6.45466 0
M  V30 12959 H 1213.81 1.20507 8.0958 0
M  V30 12960 N 1216.48 -1.54033 -0.333429 0
M  V30 12961 C 1217.41 -1.85719 -1.4153 0
M  V30 12962 C 1218.39 -0.713144 -1.54429 0
M  V30 12963 O 1219.57 -0.965984 -1.68471 0
M  V30 12964 C 1216.7 -2.07578 -2.78439 0
M  V30 12965 C 1215.66 -3.23411 -2.80338 0
M  V30 12966 C 1214.98 -3.30622 -4.2023 0
M  V30 12967 C 1216.28 -4.6129 -2.44968 0
M  V30 12968 H 1217.98 -2.76325 -1.15261 0
M  V30 12969 H 1215.52 -1.32957 -0.55303 0
M  V30 12970 H 1217.48 -2.28329 -3.5418 0
M  V30 12971 H 1216.2 -1.13713 -3.06165 0
M  V30 12972 H 1214.86 -3.02531 -2.07052 0
M  V30 12973 H 1214.51 -2.34333 -4.45081 0
M  V30 12974 H 1214.21 -4.08466 -4.22409 0
M  V30 12975 H 1215.73 -3.53596 -4.97798 0
M  V30 12976 H 1217.14 -4.81987 -3.10421 0
M  V30 12977 H 1215.54 -5.41611 -2.58414 0
M  V30 12978 H 1216.61 -4.6421 -1.40134 0
M  V30 12979 N 1217.95 0.594978 -1.45938 0
M  V30 12980 C 1218.86 1.73296 -1.58132 0
M  V30 12981 C 1219.88 1.67665 -0.465245 0
M  V30 12982 O 1221.06 1.87794 -0.727684 0
M  V30 12983 C 1218.12 3.09783 -1.55677 0
M  V30 12984 C 1217.18 3.26772 -2.78422 0
M  V30 12985 C 1216.42 4.56748 -2.76075 0
M  V30 12986 O 1216.64 5.39867 -1.84119 0
M  V30 12987 O 1215.57 4.76721 -3.67452 0
M  V30 12988 H 1219.4 1.65957 -2.54346 0
M  V30 12989 H 1216.98 0.760572 -1.28591 0
M  V30 12990 H 1218.87 3.91077 -1.56961 0
M  V30 12991 H 1217.54 3.17585 -0.626191 0
M  V30 12992 H 1216.45 2.45018 -2.82696 0
M  V30 12993 H 1217.78 3.23853 -3.70648 0
M  V30 12994 N 1219.43 1.33438 0.838571 0
M  V30 12995 C 1220.34 1.25753 1.98049 0
M  V30 12996 C 1221.36 0.168051 1.73187 0
M  V30 12997 O 1222.53 0.391691 1.97554 0
M  V30 12998 C 1219.6 0.997148 3.32051 0
M  V30 12999 C 1218.66 2.17667 3.70027 0
M  V30 13000 C 1217.89 1.92861 4.97635 0
M  V30 13001 O 1218.12 0.879072 5.63585 0
M  V30 13002 O 1217.05 2.79402 5.33121 0
M  V30 13003 H 1220.88 2.21786 2.07472 0
M  V30 13004 H 1218.46 1.13488 0.971645 0
M  V30 13005 H 1220.34 0.869099 4.1234 0
M  V30 13006 H 1219.02 0.0671036 3.2363 0
M  V30 13007 H 1217.93 2.36025 2.90246 0
M  V30 13008 H 1219.26 3.09006 3.83114 0
M  V30 13009 N 1220.91 -1.05686 1.16912 0
M  V30 13010 C 1221.86 -2.13312 0.88129 0
M  V30 13011 C 1222.83 -1.65199 -0.172783 0
M  V30 13012 O 1224.01 -1.90765 -0.0366542 0
M  V30 13013 C 1221.15 -3.42829 0.395264 0
M  V30 13014 C 1220.27 -4.04643 1.51288 0
M  V30 13015 C 1219.4 -5.22059 0.981238 0
M  V30 13016 C 1218.44 -5.75869 2.07464 0
M  V30 13017 N 1217.58 -6.84592 1.55813 0
M  V30 13018 H 1222.42 -2.37271 1.80295 0
M  V30 13019 H 1219.95 -1.16407 0.899322 0
M  V30 13020 H 1221.91 -4.17092 0.0950633 0
M  V30 13021 H 1220.54 -3.19068 -0.489445 0
M  V30 13022 H 1219.59 -3.27867 1.92891 0
M  V30 13023 H 1220.91 -4.40626 2.33774 0
M  V30 13024 H 1220.06 -6.03372 0.634586 0
M  V30 13025 H 1218.8 -4.87538 0.125754 0
M  V30 13026 H 1217.8 -4.93188 2.42992 0
M  V30 13027 H 1219.03 -6.12439 2.93419 0
M  V30 13028 H 1216.97 -6.51978 0.725283 0
M  V30 13029 H 1216.89 -7.19551 2.31911 0
M  V30 13030 H 1218.16 -7.6957 1.24025 0
M  V30 13031 N 1222.39 -0.968567 -1.24324 0
M  V30 13032 C 1223.8 -0.675239 -1.44612 0
M  V30 13033 C 1224 0.762641 -1.8651 0
M  V30 13034 O 1223.06 1.53644 -2.00374 0
M  V30 13035 C 1224.37 -1.66007 -2.50723 0
M  V30 13036 C 1225.92 -1.6728 -2.6455 0
M  V30 13037 C 1226.4 -2.64563 -3.73859 0
M  V30 13038 N 1227.89 -2.6301 -3.81287 0
M  V30 13039 C 1228.62 -3.34957 -4.65394 0
M  V30 13040 N 1228.12 -4.16424 -5.53681 0
M  V30 13041 N 1229.91 -3.23778 -4.59483 0
M  V30 13042 H 1222.06 -1.89757 -0.954257 0
M  V30 13043 H 1224.33 -0.817004 -0.480841 0
M  V30 13044 H 1224.03 -2.68779 -2.26827 0
M  V30 13045 H 1223.91 -1.43353 -3.48898 0
M  V30 13046 H 1226.29 -0.652184 -2.87803 0
M  V30 13047 H 1226.37 -1.93997 -1.6673 0
M  V30 13048 H 1226.02 -3.66759 -3.51355 0
M  V30 13049 H 1225.95 -2.35124 -4.71194 0
M  V30 13050 H 1228.44 -2.03877 -3.18186 0
M  V30 13051 H 1228.75 -4.68207 -6.14818 0
M  V30 13052 H 1227.1 -4.20518 -5.53344 0
M  V30 13053 H 1230.29 -2.59594 -3.89524 0
M  V30 13054 H 1230.46 -3.80112 -5.24804 0
M  V30 13055 N 1223.87 1.39211 -0.738786 0
M  V30 13056 C 1224.81 2.30578 -0.10129 0
M  V30 13057 C 1225.78 1.49412 0.725616 0
M  V30 13058 O 1226.97 1.78087 0.684799 0
M  V30 13059 C 1224.11 3.35767 0.797161 0
M  V30 13060 C 1223.22 4.31979 -0.0427701 0
M  V30 13061 C 1222.36 5.24236 0.857306 0
M  V30 13062 C 1221.4 6.12099 0.0128501 0
M  V30 13063 N 1220.53 6.96701 0.869067 0
M  V30 13064 H 1225.37 2.84522 -0.88606 0
M  V30 13065 H 1222.91 1.40093 -0.448602 0
M  V30 13066 H 1224.87 3.95347 1.33255 0
M  V30 13067 H 1223.5 2.83268 1.54787 0
M  V30 13068 H 1222.55 3.73986 -0.695622 0
M  V30 13069 H 1223.86 4.93927 -0.69555 0
M  V30 13070 H 1223.02 5.88861 1.4604 0
M  V30 13071 H 1221.75 4.62619 1.54386 0
M  V30 13072 H 1220.76 5.46483 -0.603018 0
M  V30 13073 H 1221.98 6.75781 -0.67054 0
M  V30 13074 H 1219.93 6.37647 1.54084 0
M  V30 13075 H 1219.85 7.55507 0.272852 0
M  V30 13076 H 1221.12 7.65751 1.4576 0
M  V30 13077 N 1225.34 0.486708 1.49896 0
M  V30 13078 C 1226.31 -0.288126 2.27382 0
M  V30 13079 C 1227.31 -0.906675 1.32801 0
M  V30 13080 O 1228.5 -0.773425 1.56089 0
M  V30 13081 C 1225.63 -1.41194 3.10285 0
M  V30 13082 H 1226.82 0.391618 2.97332 0
M  V30 13083 H 1224.38 0.24123 1.54427 0
M  V30 13084 H 1225.11 -2.12627 2.44868 0
M  V30 13085 H 1224.9 -0.974033 3.79809 0
M  V30 13086 H 1226.39 -1.95812 3.68846 0
M  V30 13087 N 1226.82 -1.56058 0.219941 0
M  V30 13088 C 1227.73 -2.23844 -0.70222 0
M  V30 13089 C 1228.75 -1.24554 -1.215 0
M  V30 13090 O 1229.93 -1.57362 -1.25695 0
M  V30 13091 C 1226.99 -2.90384 -1.89416 0
M  V30 13092 C 1226.05 -4.05012 -1.42351 0
M  V30 13093 C 1225.28 -4.68369 -2.55863 0
M  V30 13094 O 1225.51 -4.3071 -3.73958 0
M  V30 13095 O 1224.44 -5.5739 -2.27157 0
M  V30 13096 H 1228.27 -3.03305 -0.15478 0
M  V30 13097 H 1225.85 -1.49396 -0.010438 0
M  V30 13098 H 1227.73 -3.32389 -2.59028 0
M  V30 13099 H 1226.41 -2.13883 -2.42973 0
M  V30 13100 H 1225.32 -3.67579 -0.695448 0
M  V30 13101 H 1226.65 -4.83251 -0.934332 0
M  V30 13102 N 1228.3 0.053464 -1.57509 0
M  V30 13103 C 1229.26 1.04604 -2.03938 0
M  V30 13104 C 1230.26 1.30509 -0.939357 0
M  V30 13105 O 1231.45 1.25922 -1.20371 0
M  V30 13106 C 1228.59 2.38516 -2.43563 0
M  V30 13107 H 1229.78 0.645484 -2.92871 0
M  V30 13108 H 1227.33 0.299683 -1.534 0
M  V30 13109 H 1228.07 2.83368 -1.57712 0
M  V30 13110 H 1227.85 2.2105 -3.23851 0
M  V30 13111 H 1229.34 3.09826 -2.79996 0
M  V30 13112 N 1229.78 1.54207 0.325255 0
M  V30 13113 C 1230.71 1.86467 1.40543 0
M  V30 13114 C 1231.69 0.721324 1.54048 0
M  V30 13115 O 1232.88 0.974905 1.67956 0
M  V30 13116 C 1230.01 2.09052 2.77335 0
M  V30 13117 C 1228.96 3.24893 2.78619 0
M  V30 13118 C 1228.29 3.32846 4.1847 0
M  V30 13119 C 1229.59 4.62582 2.42518 0
M  V30 13120 H 1231.28 2.76932 1.13794 0
M  V30 13121 H 1228.83 1.33248 0.545971 0
M  V30 13122 H 1230.78 2.30204 3.52964 0
M  V30 13123 H 1229.5 1.15335 3.05558 0
M  V30 13124 H 1228.16 3.03625 2.05444 0
M  V30 13125 H 1227.81 2.3669 4.43832 0
M  V30 13126 H 1227.51 4.10701 4.20237 0
M  V30 13127 H 1229.03 3.56231 4.95915 0
M  V30 13128 H 1230.45 4.83627 3.07861 0
M  V30 13129 H 1228.84 5.42974 2.55538 0
M  V30 13130 H 1229.91 4.64946 1.3767 0
M  V30 13131 N 1231.26 -0.58723 1.46251 0
M  V30 13132 C 1232.19 -1.70694 1.5933 0
M  V30 13133 C 1233.17 -1.64208 0.443831 0
M  V30 13134 O 1234.35 -1.82294 0.669516 0
M  V30 13135 C 1231.48 -3.0933 1.579 0
M  V30 13136 C 1230.44 -3.30643 2.7177 0
M  V30 13137 C 1229.76 -4.69761 2.554 0
M  V30 13138 C 1231.06 -3.18916 4.1363 0
M  V30 13139 H 1232.76 -1.60004 2.53059 0
M  V30 13140 H 1230.3 -0.768343 1.21789 0
M  V30 13141 H 1232.26 -3.87479 1.65644 0
M  V30 13142 H 1230.98 -3.20907 0.60712 0
M  V30 13143 H 1229.64 -2.54892 2.63488 0
M  V30 13144 H 1229.29 -4.78098 1.56306 0
M  V30 13145 H 1228.99 -4.84974 3.31774 0
M  V30 13146 H 1230.51 -5.50084 2.65028 0
M  V30 13147 H 1231.93 -3.86915 4.23048 0
M  V30 13148 H 1230.32 -3.45653 4.90555 0
M  V30 13149 H 1231.39 -2.1606 4.34104 0
M  V30 13150 N 1232.74 -1.33881 -0.831482 0
M  V30 13151 C 1233.97 -1.28625 -1.61676 0
M  V30 13152 C 1234.37 0.143588 -1.88654 0
M  V30 13153 O 1233.72 1.09847 -1.47239 0
M  V30 13154 C 1233.78 -2.00022 -2.98716 0
M  V30 13155 C 1233.44 -3.49309 -2.94674 0
M  V30 13156 C 1234.44 -4.44375 -2.69864 0
M  V30 13157 C 1232.12 -3.91596 -3.14576 0
M  V30 13158 C 1234.12 -5.79703 -2.64996 0
M  V30 13159 C 1231.81 -5.27026 -3.09333 0
M  V30 13160 C 1232.8 -6.20892 -2.84575 0
M  V30 13161 O 1232.49 -7.53841 -2.79248 0
M  V30 13162 H 1232.22 -0.444235 -0.50954 0
M  V30 13163 H 1234.78 -1.76933 -1.04326 0
M  V30 13164 H 1233.01 -1.46316 -3.57951 0
M  V30 13165 H 1234.7 -1.88168 -3.59649 0
M  V30 13166 H 1235.46 -4.13027 -2.54231 0
M  V30 13167 H 1231.34 -3.18938 -3.32865 0
M  V30 13168 H 1234.89 -6.5294 -2.45591 0
M  V30 13169 H 1230.78 -5.57996 -3.24516 0
M  V30 13170 H 1231.55 -7.63476 -2.95037 0
M  V30 13171 N 1234.21 1.05064 -1.1747 0
M  V30 13172 C 1235.15 2.12842 -0.850344 0
M  V30 13173 C 1236.16 1.62128 0.147796 0
M  V30 13174 O 1237.35 1.78327 -0.0786774 0
M  V30 13175 C 1234.45 3.37995 -0.247486 0
M  V30 13176 C 1233.62 4.17981 -1.28881 0
M  V30 13177 C 1232.68 5.21476 -0.703476 0
M  V30 13178 O 1231.71 5.52327 -1.37561 0
M  V30 13179 N 1232.91 5.78309 0.50387 0
M  V30 13180 H 1235.67 2.41264 -1.77797 0
M  V30 13181 H 1233.23 1.21172 -1.07373 0
M  V30 13182 H 1235.23 4.04394 0.157424 0
M  V30 13183 H 1233.8 3.07097 0.583952 0
M  V30 13184 H 1233.02 3.47054 -1.86942 0
M  V30 13185 H 1234.3 4.6822 -1.99116 0
M  V30 13186 H 1233.7 5.5553 1.06787 0
M  V30 13187 H 1232.26 6.46223 0.850828 0
M  V30 13188 N 1235.69 0.975146 1.23809 0
M  V30 13189 C 1236.94 0.636678 1.91388 0
M  V30 13190 C 1237.25 -0.832876 1.76982 0
M  V30 13191 O 1238.46 -1.28218 2.39316 0
M  V30 13192 C 1236.92 1.08813 3.43057 0
M  V30 13193 C 1236.52 2.58165 3.66135 0
M  V30 13194 C 1238.27 0.823154 4.16443 0
M  V30 13195 C 1236.17 2.97004 5.11412 0
M  V30 13196 H 1235.1 0.234424 0.716632 0
M  V30 13197 H 1237.76 1.18235 1.40331 0
M  V30 13198 H 1236.14 0.470709 3.93192 0
M  V30 13199 H 1237.31 3.25101 3.26567 0
M  V30 13200 H 1235.63 2.82353 3.06049 0
M  V30 13201 H 1238.22 1.08925 5.23488 0
M  V30 13202 H 1238.57 -0.240705 4.15604 0
M  V30 13203 H 1239.1 1.4019 3.72279 0
M  V30 13204 H 1235.84 4.02492 5.17378 0
M  V30 13205 H 1235.36 2.34759 5.51949 0
M  V30 13206 H 1237.04 2.8732 5.79704 0
M  V30 13207 N 1237.17 -1.38817 0.746158 0
M  V30 13208 C 1238.1 -2.33144 0.128836 0
M  V30 13209 C 1239.08 -1.54487 -0.711873 0
M  V30 13210 O 1240.27 -1.82836 -0.654577 0
M  V30 13211 C 1237.4 -3.38639 -0.770772 0
M  V30 13212 C 1236.35 -4.27987 -0.0333669 0
M  V30 13213 C 1235.68 -5.24274 -1.05073 0
M  V30 13214 C 1236.98 -5.09915 1.13066 0
M  V30 13215 H 1238.67 -2.85019 0.916778 0
M  V30 13216 H 1236.22 -1.37039 0.442306 0
M  V30 13217 H 1238.17 -4.03587 -1.21225 0
M  V30 13218 H 1236.89 -2.8523 -1.59095 0
M  V30 13219 H 1235.55 -3.64534 0.388612 0
M  V30 13220 H 1235.2 -4.67156 -1.86478 0
M  V30 13221 H 1234.9 -5.84906 -0.562037 0
M  V30 13222 H 1236.42 -5.92099 -1.49169 0
M  V30 13223 H 1237.84 -5.68145 0.767084 0
M  V30 13224 H 1236.23 -5.79744 1.54972 0
M  V30 13225 H 1237.3 -4.4409 1.94709 0
M  V30 13226 N 1238.65 -0.49465 -1.49636 0
M  V30 13227 C 1240.06 -0.0452894 -1.86645 0
M  V30 13228 C 1240.41 1.36686 -1.40753 0
M  V30 13229 O 1239.53 2.01751 -0.78265 0
M  V30 13230 C 1240.13 -0.0754115 -3.38716 0
M  V30 13231 C 1238.69 0.318579 -3.75049 0
M  V30 13232 C 1237.84 -0.450712 -2.73613 0
M  V30 13233 H 1240.79 -0.707758 -1.42044 0
M  V30 13234 H 1240.81 0.721372 -3.73599 0
M  V30 13235 H 1240.32 -1.10331 -3.72087 0
M  V30 13236 H 1238.42 1.34995 -3.47285 0
M  V30 13237 H 1238.53 0.00354416 -4.791 0
M  V30 13238 H 1236.9 0.0986455 -2.54509 0
M  V30 13239 H 1237.68 -1.47857 -3.09828 0
M  V30 13240 N 1240.13 1.55939 -0.228214 0
M  V30 13241 C 1241.08 2.17223 0.692674 0
M  V30 13242 C 1242.06 1.12252 1.15275 0
M  V30 13243 O 1243.25 1.3822 1.10563 0
M  V30 13244 C 1240.38 2.86084 1.89766 0
M  V30 13245 C 1239.47 3.98288 1.45695 0
M  V30 13246 N 1239.86 5.00515 0.729258 0
M  V30 13247 C 1238.16 4.105 1.74372 0
M  V30 13248 C 1238.86 5.79516 0.503606 0
M  V30 13249 N 1237.83 5.33119 1.06229 0
M  V30 13250 H 1241.63 2.9362 0.128345 0
M  V30 13251 H 1239.15 1.62373 -0.0297445 0
M  V30 13252 H 1241.15 3.28404 2.5682 0
M  V30 13253 H 1239.81 2.11185 2.46639 0
M  V30 13254 H 1240.82 5.16495 0.381261 0
M  V30 13255 H 1237.49 3.46759 2.32518 0
M  V30 13256 H 1238.88 6.71857 -0.0760344 0
M  V30 13257 N 1241.6 -0.0451101 1.57535 0
M  V30 13258 C 1242.83 -0.755068 1.93167 0
M  V30 13259 C 1243.25 -1.68949 0.826915 0
M  V30 13260 O 1242.61 -1.79978 -0.218534 0
M  V30 13261 C 1242.66 -1.50201 3.27829 0
M  V30 13262 O 1241.76 -2.61434 3.18945 0
M  V30 13263 H 1241.11 -0.204219 0.631815 0
M  V30 13264 H 1243.64 -0.00537504 2.04599 0
M  V30 13265 H 1243.65 -1.87547 3.6234 0
M  V30 13266 H 1242.32 -0.816591 4.07805 0
M  V30 13267 H 1240.9 -2.26749 2.96039 0
M  V30 13268 N 1243.08 -1.54377 -0.317073 0
M  V30 13269 C 1244.33 -1.73149 -1.05581 0
M  V30 13270 C 1244.66 -0.507176 -1.8746 0
M  V30 13271 O 1243.94 0.495837 -1.88074 0
M  V30 13272 C 1244.22 -3.01098 -1.97515 0
M  V30 13273 C 1244.07 -4.33794 -1.18922 0
M  V30 13274 C 1245.39 -3.24831 -2.9694 0
M  V30 13275 H 1242.51 -0.630011 -0.382434 0
M  V30 13276 H 1245.15 -1.87079 -0.331873 0
M  V30 13277 H 1243.3 -2.89352 -2.59244 0
M  V30 13278 H 1244.97 -4.57433 -0.596039 0
M  V30 13279 H 1243.22 -4.31005 -0.491612 0
M  V30 13280 H 1243.89 -5.19554 -1.86462 0
M  V30 13281 H 1246.36 -3.3608 -2.45335 0
M  V30 13282 H 1245.24 -4.15702 -3.58445 0
M  V30 13283 H 1245.5 -2.42365 -3.69745 0
M  V30 13284 N 1244.56 0.579466 -1.4656 0
M  V30 13285 C 1245.52 1.67033 -1.56948 0
M  V30 13286 C 1246.52 1.54481 -0.446361 0
M  V30 13287 O 1247.71 1.5904 -0.710767 0
M  V30 13288 C 1244.85 3.06474 -1.49286 0
M  V30 13289 H 1246.04 1.59179 -2.54169 0
M  V30 13290 H 1243.59 0.797573 -1.34419 0
M  V30 13291 H 1244.33 3.1988 -0.533572 0
M  V30 13292 H 1244.11 3.16993 -2.30776 0
M  V30 13293 H 1245.6 3.85879 -1.59648 0
M  V30 13294 N 1246.04 1.3432 0.824371 0
M  V30 13295 C 1246.95 1.27847 1.96704 0
M  V30 13296 C 1247.96 0.18641 1.72999 0
M  V30 13297 O 1249.14 0.412623 1.97128 0
M  V30 13298 C 1246.21 1.03231 3.30975 0
M  V30 13299 C 1245.27 2.21579 3.67697 0
M  V30 13300 C 1244.5 1.98128 4.95561 0
M  V30 13301 O 1244.72 0.938798 5.62621 0
M  V30 13302 O 1243.66 2.85041 5.30128 0
M  V30 13303 H 1247.48 2.23974 2.05108 0
M  V30 13304 H 1245.07 1.14512 0.959554 0
M  V30 13305 H 1246.95 0.912784 4.11395 0
M  V30 13306 H 1245.62 0.101425 3.23541 0
M  V30 13307 H 1244.53 2.3909 2.87727 0
M  V30 13308 H 1245.86 3.13052 3.79815 0
M  V30 13309 N 1247.52 -1.0444 1.18026 0
M  V30 13310 C 1248.45 -2.12388 0.86162 0
M  V30 13311 C 1249.46 -1.62204 -0.139196 0
M  V30 13312 O 1250.65 -1.78282 0.0881334 0
M  V30 13313 C 1247.75 -3.37859 0.265407 0
M  V30 13314 C 1246.92 -4.17292 1.31096 0
M  V30 13315 C 1245.98 -5.21096 0.731121 0
M  V30 13316 O 1245.01 -5.5159 1.40488 0
M  V30 13317 N 1246.21 -5.78568 -0.473194 0
M  V30 13318 H 1248.98 -2.40317 1.79074 0
M  V30 13319 H 1246.54 -1.20601 1.08014 0
M  V30 13320 H 1248.53 -4.04472 -0.135976 0
M  V30 13321 H 1247.1 -3.07403 -0.567658 0
M  V30 13322 H 1246.32 -3.46057 1.8878 0
M  V30 13323 H 1247.61 -4.67158 2.01596 0
M  V30 13324 H 1247 -5.56088 -1.03839 0
M  V30 13325 H 1245.56 -6.46665 -0.816545 0
M  V30 13326 N 1248.99 -0.981699 -1.2329 0
M  V30 13327 C 1249.92 -0.542441 -2.27112 0
M  V30 13328 C 1250.91 0.425034 -1.64704 0
M  V30 13329 O 1252.09 0.318114 -1.91577 0
M  V30 13330 C 1249.22 0.154668 -3.46955 0
M  V30 13331 C 1248.17 -0.73022 -4.21725 0
M  V30 13332 C 1247.5 0.0991766 -5.34608 0
M  V30 13333 C 1248.8 -2.02166 -4.81587 0
M  V30 13334 H 1250.49 -1.41024 -2.64107 0
M  V30 13335 H 1248.04 -0.679544 -1.26957 0
M  V30 13336 H 1249.99 0.473281 -4.18734 0
M  V30 13337 H 1248.72 1.05693 -3.09025 0
M  V30 13338 H 1247.38 -1.03231 -3.51765 0
M  V30 13339 H 1247.02 1.00201 -4.92919 0
M  V30 13340 H 1246.72 -0.489788 -5.85555 0
M  V30 13341 H 1248.25 0.412141 -6.09207 0
M  V30 13342 H 1249.66 -1.76773 -5.45366 0
M  V30 13343 H 1248.06 -2.55851 -5.42826 0
M  V30 13344 H 1249.13 -2.70766 -4.02261 0
M  V30 13345 N 1250.47 1.3842 -0.753509 0
M  V30 13346 C 1251.42 2.30457 -0.12574 0
M  V30 13347 C 1252.39 1.50173 0.709728 0
M  V30 13348 O 1253.57 1.78804 0.665872 0
M  V30 13349 C 1250.71 3.36593 0.761503 0
M  V30 13350 C 1249.83 4.31909 -0.0885848 0
M  V30 13351 C 1248.96 5.25116 0.801655 0
M  V30 13352 C 1248 6.12078 -0.0520719 0
M  V30 13353 N 1247.14 6.97583 0.795124 0
M  V30 13354 H 1251.98 2.83567 -0.916187 0
M  V30 13355 H 1249.52 1.39609 -0.463436 0
M  V30 13356 H 1251.47 3.96738 1.29054 0
M  V30 13357 H 1250.1 2.84894 1.51774 0
M  V30 13358 H 1249.16 3.73227 -0.735249 0
M  V30 13359 H 1250.47 4.93161 -0.747899 0
M  V30 13360 H 1249.62 5.90377 1.39786 0
M  V30 13361 H 1248.36 4.6423 1.4947 0
M  V30 13362 H 1247.37 5.45813 -0.660946 0
M  V30 13363 H 1248.59 6.75032 -0.742178 0
M  V30 13364 H 1246.54 6.39246 1.47312 0
M  V30 13365 H 1246.45 7.55754 0.192705 0
M  V30 13366 H 1247.72 7.67254 1.3763 0
M  V30 13367 N 1251.95 0.502579 1.49372 0
M  V30 13368 C 1253.37 0.158641 1.5881 0
M  V30 13369 C 1253.57 -1.33688 1.50764 0
M  V30 13370 O 1252.62 -2.11295 1.38241 0
M  V30 13371 C 1253.94 0.736843 2.91532 0
M  V30 13372 C 1255.48 0.703093 3.05001 0
M  V30 13373 C 1255.96 1.25938 4.40345 0
M  V30 13374 N 1257.45 1.22015 4.46841 0
M  V30 13375 C 1258.18 1.62076 5.50017 0
M  V30 13376 N 1257.68 2.09736 6.6029 0
M  V30 13377 N 1259.47 1.53482 5.4074 0
M  V30 13378 H 1251.62 1.47487 1.52844 0
M  V30 13379 H 1253.89 0.611851 0.724115 0
M  V30 13380 H 1253.59 1.78573 3.02992 0
M  V30 13381 H 1253.47 0.198178 3.76679 0
M  V30 13382 H 1255.85 -0.336965 2.9317 0
M  V30 13383 H 1255.94 1.27892 2.21534 0
M  V30 13384 H 1255.58 2.29823 4.52928 0
M  V30 13385 H 1255.51 0.659481 5.22454 0
M  V30 13386 H 1258 0.870957 3.67726 0
M  V30 13387 H 1258.31 2.3837 7.35119 0
M  V30 13388 H 1256.66 2.13712 6.61326 0
M  V30 13389 H 1259.85 1.16065 4.53483 0
M  V30 13390 H 1260.02 1.85026 6.21023 0
M  V30 13391 N 1253.43 -1.55816 0.23648 0
M  V30 13392 C 1254.68 -1.98294 -0.390373 0
M  V30 13393 C 1255 -1.12573 -1.59224 0
M  V30 13394 O 1254.27 -0.206128 -1.94813 0
M  V30 13395 H 1252.85 -0.732349 -0.14722 0
M  V30 13396 H 1255.51 -1.92037 0.332848 0
M  V30 13397 H 1254.61 -3.03996 -0.706595 0
M  V30 13398 N 1254.91 0.036755 -1.57557 0
M  V30 13399 C 1255.82 1.05687 -2.09446 0
M  V30 13400 C 1256.83 1.40137 -1.03139 0
M  V30 13401 O 1258.01 1.49611 -1.34828 0
M  V30 13402 C 1255.07 2.34114 -2.55717 0
M  V30 13403 C 1254.13 2.06316 -3.76473 0
M  V30 13404 C 1253.37 3.2862 -4.20529 0
M  V30 13405 O 1253.59 4.3902 -3.64167 0
M  V30 13406 O 1252.52 3.14772 -5.13033 0
M  V30 13407 H 1256.35 0.64593 -2.96751 0
M  V30 13408 H 1253.94 0.253235 -1.47238 0
M  V30 13409 H 1255.82 3.09631 -2.85844 0
M  V30 13410 H 1254.49 2.74519 -1.71526 0
M  V30 13411 H 1253.4 1.28392 -3.51378 0
M  V30 13412 H 1254.73 1.70772 -4.61625 0
M  V30 13413 N 1256.39 1.54543 0.308881 0
M  V30 13414 C 1257.61 1.77431 1.06422 0
M  V30 13415 C 1258.03 0.529972 1.81209 0
M  V30 13416 O 1257.39 -0.499912 1.7552 0
M  V30 13417 C 1257.44 2.9769 2.05092 0
M  V30 13418 O 1257.16 4.17315 1.33341 0
M  V30 13419 C 1258.66 3.32905 2.92727 0
M  V30 13420 H 1255.88 0.591961 0.315948 0
M  V30 13421 H 1258.42 2.01473 0.350547 0
M  V30 13422 H 1256.58 2.7588 2.71973 0
M  V30 13423 H 1256.99 4.85061 1.99539 0
M  V30 13424 H 1258.47 4.20314 3.57827 0
M  V30 13425 H 1258.94 2.50713 3.6061 0
M  V30 13426 H 1259.55 3.56847 2.31388 0
M  V30 13427 N 1257.86 -0.571685 1.46866 0
M  V30 13428 C 1259.11 -1.33145 1.52972 0
M  V30 13429 C 1259.44 -1.93314 0.185344 0
M  V30 13430 O 1258.72 -1.77083 -0.80447 0
M  V30 13431 C 1259 -2.4525 2.63675 0
M  V30 13432 C 1258.85 -1.90044 4.0768 0
M  V30 13433 C 1260.17 -3.47247 2.70384 0
M  V30 13434 H 1257.29 -0.482751 0.556885 0
M  V30 13435 H 1259.93 -0.641163 1.78855 0
M  V30 13436 H 1258.08 -3.04132 2.41735 0
M  V30 13437 H 1259.76 -1.35535 4.4094 0
M  V30 13438 H 1258 -1.20805 4.1664 0
M  V30 13439 H 1258.67 -2.71019 4.80887 0
M  V30 13440 H 1261.15 -2.98263 2.90135 0
M  V30 13441 H 1260.02 -4.23132 3.49643 0
M  V30 13442 H 1260.28 -4.05179 1.76868 0
M  V30 13443 N 1259.34 -1.34755 -0.817236 0
M  V30 13444 C 1260.27 -1.22648 -1.93624 0
M  V30 13445 C 1261.29 -0.152226 -1.62087 0
M  V30 13446 O 1262.48 -0.404578 -1.73855 0
M  V30 13447 C 1259.58 -0.863519 -3.27714 0
M  V30 13448 C 1258.75 -2.03394 -3.87233 0
M  V30 13449 C 1257.81 -1.64846 -4.99712 0
M  V30 13450 O 1256.83 -2.3658 -5.17705 0
M  V30 13451 N 1258.04 -0.565909 -5.77735 0
M  V30 13452 H 1260.8 -2.19051 -2.0454 0
M  V30 13453 H 1258.36 -1.27785 -0.994113 0
M  V30 13454 H 1260.35 -0.58733 -4.00415 0
M  V30 13455 H 1258.92 0.0104987 -3.12598 0
M  V30 13456 H 1258.14 -2.47454 -3.06856 0
M  V30 13457 H 1259.43 -2.81655 -4.23731 0
M  V30 13458 H 1258.83 0.030313 -5.65692 0
M  V30 13459 H 1257.39 -0.349467 -6.50862 0
M  V30 13460 N 1260.82 1.03812 -1.18578 0
M  V30 13461 C 1261.78 2.10049 -0.91718 0
M  V30 13462 C 1262.78 1.60498 0.0985122 0
M  V30 13463 O 1263.97 1.73674 -0.135213 0
M  V30 13464 C 1261.1 3.38813 -0.376599 0
M  V30 13465 H 1262.3 2.3531 -1.85927 0
M  V30 13466 H 1259.85 1.20277 -0.998156 0
M  V30 13467 H 1260.59 3.19216 0.571983 0
M  V30 13468 H 1260.37 3.76096 -1.10881 0
M  V30 13469 H 1261.86 4.17084 -0.207453 0
M  V30 13470 N 1262.3 0.988223 1.22768 0
M  V30 13471 C 1263.21 0.543407 2.2822 0
M  V30 13472 C 1264.22 -0.405563 1.69208 0
M  V30 13473 O 1265.4 -0.273551 1.99534 0
M  V30 13474 C 1262.46 -0.139495 3.46419 0
M  V30 13475 C 1261.53 0.851853 4.20764 0
M  V30 13476 C 1260.76 0.201446 5.3332 0
M  V30 13477 O 1260.98 -1.00573 5.61464 0
M  V30 13478 O 1259.92 0.903956 5.95073 0
M  V30 13479 H 1263.74 1.42059 2.68427 0
M  V30 13480 H 1261.33 0.756239 1.28846 0
M  V30 13481 H 1263.21 -0.522226 4.18152 0
M  V30 13482 H 1261.88 -0.991315 3.08147 0
M  V30 13483 H 1260.79 1.28543 3.51322 0
M  V30 13484 H 1262.12 1.67273 4.62905 0
M  V30 13485 N 1263.78 -1.38018 0.760839 0
M  V30 13486 C 1264.74 -2.28734 0.146154 0
M  V30 13487 C 1265.74 -1.47525 -0.639768 0
M  V30 13488 O 1266.93 -1.6788 -0.464964 0
M  V30 13489 C 1264.06 -3.31356 -0.801019 0
M  V30 13490 H 1265.25 -2.84599 0.945692 0
M  V30 13491 H 1262.81 -1.471 0.528323 0
M  V30 13492 H 1263.54 -2.80594 -1.62597 0
M  V30 13493 H 1263.33 -3.91366 -0.239775 0
M  V30 13494 H 1264.82 -3.99171 -1.22687 0
M  V30 13495 N 1265.25 -0.510493 -1.49103 0
M  V30 13496 C 1266.5 0.0306436 -2.02477 0
M  V30 13497 C 1266.83 1.36113 -1.38937 0
M  V30 13498 O 1266.08 1.88731 -0.517584 0
M  V30 13499 C 1266.38 0.221921 -3.5671 0
M  V30 13500 C 1266.05 -1.03176 -4.38937 0
M  V30 13501 C 1264.71 -1.37539 -4.61125 0
M  V30 13502 C 1267.06 -1.86464 -4.86704 0
M  V30 13503 C 1264.39 -2.55124 -5.28326 0
M  V30 13504 C 1266.74 -3.03211 -5.55199 0
M  V30 13505 C 1265.41 -3.37943 -5.75631 0
M  V30 13506 H 1264.68 0.0112133 -0.740915 0
M  V30 13507 H 1267.32 -0.672574 -1.79301 0
M  V30 13508 H 1265.63 1.00775 -3.78618 0
M  V30 13509 H 1267.33 0.655223 -3.95611 0
M  V30 13510 H 1263.92 -0.754105 -4.21914 0
M  V30 13511 H 1268.1 -1.61229 -4.69381 0
M  V30 13512 H 1263.36 -2.8226 -5.42346 0
M  V30 13513 H 1267.53 -3.68068 -5.91185 0
M  V30 13514 H 1265.16 -4.29158 -6.27477 0
M  V30 13515 N 1266.73 1.55688 -0.24474 0
M  V30 13516 C 1268.01 1.90796 0.430821 0
M  V30 13517 C 1268.39 1.1652 1.76029 0
M  V30 13518 O 1267.74 0.281978 2.26753 0
M  V30 13519 C 1267.95 3.43786 0.601027 0
M  V30 13520 C 1269.29 4.14998 0.897894 0
M  V30 13521 O 1270.32 3.49513 0.68697 0
M  V30 13522 O 1269.18 5.30826 1.29945 0
M  V30 13523 H 1266.27 0.794086 0.230991 0
M  V30 13524 H 1268.82 1.67227 -0.288646 0
M  V30 13525 H 1267.59 3.89856 -0.335804 0
M  V30 13526 H 1267.21 3.73211 1.37112 0
M  V30 13527 N 1268.21 -0.0283989 1.57574 0
M  V30 13528 C 1269.43 -0.734537 1.93957 0
M  V30 13529 C 1269.86 -1.68062 0.844787 0
M  V30 13530 O 1269.22 -1.802 -0.199432 0
M  V30 13531 C 1269.27 -1.46716 3.29404 0
M  V30 13532 O 1268.37 -2.58036 3.217 0
M  V30 13533 H 1267.71 -0.197507 0.633946 0
M  V30 13534 H 1270.24 0.0163258 2.04593 0
M  V30 13535 H 1270.25 -1.83693 3.64309 0
M  V30 13536 H 1268.93 -0.773292 4.08648 0
M  V30 13537 H 1267.5 -2.23597 2.98427 0
M  V30 13538 N 1269.69 -1.54705 -0.300681 0
M  V30 13539 C 1270.93 -1.74259 -1.03738 0
M  V30 13540 C 1271.27 -0.52703 -1.86912 0
M  V30 13541 O 1270.54 0.475862 -1.88589 0
M  V30 13542 C 1270.82 -3.03175 -1.94311 0
M  V30 13543 C 1270.68 -4.35031 -1.14315 0
M  V30 13544 C 1272 -3.27962 -2.93478 0
M  V30 13545 H 1269.12 -0.634031 -0.37573 0
M  V30 13546 H 1271.76 -1.87421 -0.312012 0
M  V30 13547 H 1269.91 -2.92086 -2.5616 0
M  V30 13548 H 1271.58 -4.5804 -0.547489 0
M  V30 13549 H 1269.82 -4.31503 -0.44587 0
M  V30 13550 H 1270.49 -5.21502 -1.80941 0
M  V30 13551 H 1272.97 -3.38663 -2.41757 0
M  V30 13552 H 1271.85 -4.19481 -3.54016 0
M  V30 13553 H 1272.11 -2.46273 -3.67154 0
M  V30 13554 N 1271.17 0.563888 -1.47167 0
M  V30 13555 C 1272.39 1.34693 -1.57052 0
M  V30 13556 C 1272.81 1.87534 -0.218308 0
M  V30 13557 O 1272.17 1.64639 0.787416 0
M  V30 13558 C 1272.22 2.52148 -2.59044 0
M  V30 13559 O 1271.94 2.01492 -3.89015 0
M  V30 13560 C 1273.44 3.4445 -2.7905 0
M  V30 13561 H 1270.66 0.410822 -0.530534 0
M  V30 13562 H 1273.2 0.683731 -1.92731 0
M  V30 13563 H 1271.36 3.14419 -2.26317 0
M  V30 13564 H 1271.77 2.78122 -4.44689 0
M  V30 13565 H 1273.25 4.23297 -3.54293 0
M  V30 13566 H 1273.72 3.97575 -1.86631 0
M  V30 13567 H 1274.33 2.88 -3.12948 0
M  V30 13568 N 1272.64 1.35187 0.810078 0
M  V30 13569 C 1273.89 1.27602 1.56207 0
M  V30 13570 C 1274.21 -0.148621 1.95035 0
M  V30 13571 O 1275.41 -0.346721 2.69277 0
M  V30 13572 C 1273.87 2.23759 2.81886 0
M  V30 13573 C 1273.48 3.71549 2.5031 0
M  V30 13574 C 1275.22 2.25109 3.59898 0
M  V30 13575 C 1273.13 4.5954 3.7226 0
M  V30 13576 H 1272.06 0.474078 0.586316 0
M  V30 13577 H 1274.71 1.6043 0.890759 0
M  V30 13578 H 1273.09 1.83898 3.5071 0
M  V30 13579 H 1274.26 4.20025 1.89515 0
M  V30 13580 H 1272.58 3.72773 1.85551 0
M  V30 13581 H 1275.18 2.88066 4.50469 0
M  V30 13582 H 1275.52 1.25387 3.96968 0
M  V30 13583 H 1276.05 2.63481 2.98031 0
M  V30 13584 H 1272.79 5.60246 3.403 0
M  V30 13585 H 1272.31 4.15792 4.32293 0
M  V30 13586 H 1273.99 4.74789 4.39528 0
M  V30 13587 N 1274.12 -1.03182 1.19127 0
M  V30 13588 C 1275.35 -1.79904 1.01578 0
M  V30 13589 C 1275.76 -1.84044 -0.438697 0
M  V30 13590 O 1275.1 -1.28117 -1.3165 0
M  V30 13591 C 1275.17 -3.26473 1.50519 0
M  V30 13592 C 1274.83 -3.45975 2.98581 0
M  V30 13593 C 1275.83 -3.36436 3.96367 0
M  V30 13594 C 1273.51 -3.72284 3.37209 0
M  V30 13595 C 1275.51 -3.52925 5.30775 0
M  V30 13596 C 1273.19 -3.8842 4.71777 0
M  V30 13597 C 1274.19 -3.78742 5.68369 0
M  V30 13598 O 1273.88 -3.94405 7.005 0
M  V30 13599 H 1273.61 -0.573103 0.35851 0
M  V30 13600 H 1276.16 -1.30871 1.5831 0
M  V30 13601 H 1274.39 -3.76517 0.881593 0
M  V30 13602 H 1276.08 -3.84781 1.29223 0
M  V30 13603 H 1276.85 -3.16064 3.6787 0
M  V30 13604 H 1272.73 -3.78911 2.62579 0
M  V30 13605 H 1276.27 -3.45288 6.06153 0
M  V30 13606 H 1272.17 -4.08288 4.99971 0
M  V30 13607 H 1272.94 -4.11514 7.0753 0
M  V30 13608 N 1275.6 -0.99472 -1.22242 0
M  V30 13609 C 1276.85 -0.671602 -1.91039 0
M  V30 13610 C 1277.18 0.796543 -1.77441 0
M  V30 13611 O 1276.43 1.59179 -1.13845 0
M  V30 13612 C 1276.73 -1.02561 -3.42368 0
M  V30 13613 C 1276.4 -2.48632 -3.76155 0
M  V30 13614 C 1275.06 -2.88549 -3.85088 0
M  V30 13615 C 1277.41 -3.43302 -3.92165 0
M  V30 13616 C 1274.74 -4.22121 -4.07469 0
M  V30 13617 C 1277.09 -4.76534 -4.1605 0
M  V30 13618 C 1275.75 -5.1619 -4.23207 0
M  V30 13619 H 1275.02 -0.245756 -0.69906 0
M  V30 13620 H 1277.67 -1.25125 -1.44969 0
M  V30 13621 H 1275.98 -0.364073 -3.90105 0
M  V30 13622 H 1277.67 -0.753612 -3.93855 0
M  V30 13623 H 1274.26 -2.16693 -3.69787 0
M  V30 13624 H 1278.45 -3.13633 -3.8464 0
M  V30 13625 H 1273.7 -4.52431 -4.11238 0
M  V30 13626 H 1277.88 -5.49835 -4.27381 0
M  V30 13627 H 1275.5 -6.19708 -4.40303 0
M  V30 13628 N 1277.08 1.37613 -0.768148 0
M  V30 13629 C 1278.3 2.04579 -0.340892 0
M  V30 13630 C 1278.73 1.57556 1.02751 0
M  V30 13631 O 1278.09 0.734151 1.65771 0
M  V30 13632 C 1278.13 3.58495 -0.389099 0
M  V30 13633 O 1277.24 4.07838 0.611741 0
M  V30 13634 H 1276.58 0.647246 -0.148216 0
M  V30 13635 H 1279.11 1.75999 -1.04333 0
M  V30 13636 H 1279.12 4.07263 -0.245116 0
M  V30 13637 H 1277.79 3.92076 -1.38742 0
M  V30 13638 H 1276.37 3.70399 0.431173 0
M  V30 13639 N 1278.56 0.518393 1.4883 0
M  V30 13640 C 1279.83 -0.0837498 1.95421 0
M  V30 13641 C 1280.21 -1.52435 1.46037 0
M  V30 13642 O 1279.56 -2.18093 0.681736 0
M  V30 13643 C 1279.77 0.0215333 3.48993 0
M  V30 13644 C 1281.12 -0.143615 4.24357 0
M  V30 13645 O 1282.14 -0.0528223 3.56161 0
M  V30 13646 O 1281 -0.332231 5.45489 0
M  V30 13647 H 1278.1 -0.0857132 0.822546 0
M  V30 13648 H 1280.64 0.582169 1.59402 0
M  V30 13649 H 1279.41 1.02549 3.77623 0
M  V30 13650 H 1279.04 -0.683756 3.91677 0
M  V30 13651 N 1280.03 -1.55556 0.252993 0
M  V30 13652 C 1281.28 -1.98267 -0.370571 0
M  V30 13653 C 1281.6 -1.14449 -1.58622 0
M  V30 13654 O 1282.8 -1.472 -2.28132 0
M  V30 13655 C 1281.26 -3.52813 -0.710685 0
M  V30 13656 C 1280.87 -4.45379 0.483908 0
M  V30 13657 C 1282.61 -4.04165 -1.2981 0
M  V30 13658 C 1280.52 -5.91279 0.119611 0
M  V30 13659 H 1279.45 -0.740463 -0.142232 0
M  V30 13660 H 1282.1 -1.8005 0.354169 0
M  V30 13661 H 1280.48 -3.66748 -1.49372 0
M  V30 13662 H 1281.65 -4.43206 1.26116 0
M  V30 13663 H 1279.97 -4.04542 0.986664 0
M  V30 13664 H 1282.57 -5.10696 -1.5841 0
M  V30 13665 H 1282.91 -3.51875 -2.22462 0
M  V30 13666 H 1283.44 -3.93581 -0.577836 0
M  V30 13667 H 1280.18 -6.47619 1.01343 0
M  V30 13668 H 1279.7 -5.96573 -0.621318 0
M  V30 13669 H 1281.38 -6.46322 -0.296052 0
M  V30 13670 N 1281.51 0.0200419 -1.57587 0
M  V30 13671 C 1282.76 0.710078 -1.89962 0
M  V30 13672 C 1283.09 1.74521 -0.851829 0
M  V30 13673 O 1282.37 1.94052 0.132005 0
M  V30 13674 C 1282.65 1.37145 -3.32961 0
M  V30 13675 C 1282.5 0.349221 -4.48442 0
M  V30 13676 C 1283.82 2.30304 -3.75031 0
M  V30 13677 H 1280.94 0.25667 -0.690862 0
M  V30 13678 H 1283.58 -0.0271362 -1.89981 0
M  V30 13679 H 1281.73 1.99981 -3.33076 0
M  V30 13680 H 1283.4 -0.277916 -4.60462 0
M  V30 13681 H 1281.65 -0.330594 -4.32538 0
M  V30 13682 H 1282.32 0.850636 -5.45406 0
M  V30 13683 H 1284.79 1.77503 -3.7634 0
M  V30 13684 H 1283.67 2.73555 -4.75877 0
M  V30 13685 H 1283.93 3.17364 -3.07786 0
M  V30 13686 N 1282.99 1.54862 0.292472 0
M  V30 13687 C 1284.24 1.74203 1.02458 0
M  V30 13688 C 1284.56 0.535398 1.87506 0
M  V30 13689 O 1283.83 -0.450164 1.90658 0
M  V30 13690 H 1282.41 0.642369 0.381276 0
M  V30 13691 H 1285.07 1.92232 0.321398 0
M  V30 13692 H 1284.17 2.63486 1.67277 0
M  V30 13693 N 1284.47 -0.556076 1.47464 0
M  V30 13694 C 1285.72 -1.3132 1.54147 0
M  V30 13695 C 1286.04 -1.93425 0.204221 0
M  V30 13696 O 1285.3 -1.78467 -0.803002 0
M  V30 13697 C 1285.6 -2.44298 2.6087 0
M  V30 13698 C 1285.26 -2.00016 4.04109 0
M  V30 13699 C 1283.93 -1.87656 4.43101 0
M  V30 13700 C 1286.28 -1.66228 4.93981 0
M  V30 13701 C 1283.61 -1.39805 5.698 0
M  V30 13702 C 1285.96 -1.19848 6.21144 0
M  V30 13703 C 1284.62 -1.06084 6.59016 0
M  V30 13704 H 1283.89 -0.480534 0.564064 0
M  V30 13705 H 1286.54 -0.623449 1.81067 0
M  V30 13706 H 1284.84 -3.18834 2.27711 0
M  V30 13707 H 1286.54 -3.02479 2.63263 0
M  V30 13708 H 1283.13 -2.1058 3.73302 0
M  V30 13709 H 1287.31 -1.7465 4.64555 0
M  V30 13710 H 1282.57 -1.27814 5.97891 0
M  V30 13711 H 1286.74 -0.927657 6.90194 0
M  V30 13712 H 1284.37 -0.687834 7.57082 0
M  V30 13713 N 1285.95 -1.35615 -0.802897 0
M  V30 13714 C 1287.18 -1.32217 -1.59142 0
M  V30 13715 C 1287.59 0.0995496 -1.88537 0
M  V30 13716 O 1286.95 1.05258 -1.49087 0
M  V30 13717 C 1287 -2.13048 -2.92049 0
M  V30 13718 O 1286.72 -3.49677 -2.63927 0
M  V30 13719 C 1288.22 -2.17278 -3.864 0
M  V30 13720 H 1285.44 -0.454054 -0.49404 0
M  V30 13721 H 1287.98 -1.78521 -0.997516 0
M  V30 13722 H 1286.14 -1.70334 -3.47944 0
M  V30 13723 H 1286.55 -3.917 -3.48814 0
M  V30 13724 H 1288.03 -2.7822 -4.76758 0
M  V30 13725 H 1288.5 -1.17253 -4.23259 0
M  V30 13726 H 1289.11 -2.6017 -3.3644 0
M  V30 13727 N 1287.43 1.02549 -1.19673 0
M  V30 13728 C 1288.39 2.09064 -0.939407 0
M  V30 13729 C 1289.39 1.60593 0.0814837 0
M  V30 13730 O 1290.58 1.73521 -0.153626 0
M  V30 13731 C 1287.71 3.38395 -0.412513 0
M  V30 13732 H 1288.9 2.33325 -1.88413 0
M  V30 13733 H 1286.46 1.19211 -1.01086 0
M  V30 13734 H 1287.19 3.19805 0.538094 0
M  V30 13735 H 1286.98 3.74898 -1.14863 0
M  V30 13736 H 1288.47 4.16841 -0.251678 0
M  V30 13737 N 1288.9 1.00119 1.21713 0
M  V30 13738 C 1289.83 0.578504 2.2622 0
M  V30 13739 C 1290.81 -0.398777 1.6536 0
M  V30 13740 O 1292 -0.287596 1.92059 0
M  V30 13741 C 1289.13 -0.0994508 3.47158 0
M  V30 13742 C 1288.08 0.79722 4.2051 0
M  V30 13743 C 1287.41 -0.0141125 5.34698 0
M  V30 13744 C 1288.71 2.09802 4.7831 0
M  V30 13745 H 1290.4 1.45208 2.6183 0
M  V30 13746 H 1287.95 0.699656 1.2586 0
M  V30 13747 H 1289.9 -0.406605 4.19434 0
M  V30 13748 H 1288.63 -1.00763 3.10667 0
M  V30 13749 H 1287.29 1.08814 3.50079 0
M  V30 13750 H 1286.93 -0.923468 4.9445 0
M  V30 13751 H 1286.63 0.582883 5.84702 0
M  V30 13752 H 1288.16 -0.31517 6.09786 0
M  V30 13753 H 1289.57 1.85427 5.42485 0
M  V30 13754 H 1287.97 2.64455 5.38687 0
M  V30 13755 H 1289.04 2.77132 3.97902 0
M  V30 13756 N 1290.38 -1.37203 0.775435 0
M  V30 13757 C 1291.61 -2.04396 0.351737 0
M  V30 13758 C 1292.03 -1.58099 -1.01913 0
M  V30 13759 O 1291.39 -0.742932 -1.65379 0
M  V30 13760 C 1291.44 -3.58283 0.408105 0
M  V30 13761 O 1290.54 -4.08156 -0.590104 0
M  V30 13762 H 1289.88 -0.646451 0.151647 0
M  V30 13763 H 1292.41 -1.75443 1.05265 0
M  V30 13764 H 1292.42 -4.07127 0.266711 0
M  V30 13765 H 1291.1 -3.91335 1.40819 0
M  V30 13766 H 1289.67 -3.70622 -0.411524 0
M  V30 13767 N 1291.86 -0.526279 -1.48553 0
M  V30 13768 C 1292.82 0.227739 -2.28066 0
M  V30 13769 C 1293.82 0.871146 -1.35158 0
M  V30 13770 O 1295.01 0.731769 -1.58085 0
M  V30 13771 C 1292.14 1.32918 -3.1392 0
M  V30 13772 H 1293.34 -0.470313 -2.96189 0
M  V30 13773 H 1290.89 -0.282089 -1.53733 0
M  V30 13774 H 1291.63 2.0606 -2.50419 0
M  V30 13775 H 1291.41 0.872991 -3.82258 0
M  V30 13776 H 1292.9 1.85964 -3.73908 0
M  V30 13777 N 1293.34 1.5542 -0.261239 0
M  V30 13778 C 1294.25 2.25627 0.642625 0
M  V30 13779 C 1295.26 1.27732 1.18155 0
M  V30 13780 O 1296.44 1.60639 1.21479 0
M  V30 13781 C 1293.5 2.95303 1.8165 0
M  V30 13782 C 1292.57 4.08644 1.31563 0
M  V30 13783 C 1291.8 4.74988 2.43355 0
M  V30 13784 O 1292.02 4.40474 3.62407 0
M  V30 13785 O 1290.96 5.63217 2.12299 0
M  V30 13786 H 1294.78 3.03609 0.0743091 0
M  V30 13787 H 1292.37 1.49372 -0.0291754 0
M  V30 13788 H 1294.25 3.3914 2.50125 0
M  V30 13789 H 1292.92 2.2025 2.37217 0
M  V30 13790 H 1291.83 3.69294 0.597746 0
M  V30 13791 H 1293.16 4.85558 0.805878 0
M  V30 13792 N 1294.82 -0.0116844 1.57596 0
M  V30 13793 C 1296.04 -0.713924 1.94725 0
M  V30 13794 C 1296.47 -1.67157 0.862565 0
M  V30 13795 O 1295.82 -1.80401 -0.180308 0
M  V30 13796 C 1295.87 -1.43214 3.30941 0
M  V30 13797 O 1294.98 -2.5461 3.24419 0
M  V30 13798 H 1294.32 -0.190772 0.636005 0
M  V30 13799 H 1296.85 0.0380247 2.04565 0
M  V30 13800 H 1296.86 -1.79819 3.66237 0
M  V30 13801 H 1295.53 -0.729906 4.09445 0
M  V30 13802 H 1294.11 -2.20419 3.00782 0
M  V30 13803 N 1296.29 -1.55015 -0.284256 0
M  V30 13804 C 1297.52 -1.79102 -1.03586 0
M  V30 13805 C 1297.94 -0.558733 -1.80343 0
M  V30 13806 O 1297.29 0.471925 -1.76293 0
M  V30 13807 C 1297.34 -3.00915 -2.0033 0
M  V30 13808 O 1297.07 -4.19384 -1.26685 0
M  V30 13809 C 1298.57 -3.3752 -2.87394 0
M  V30 13810 H 1295.79 -0.596912 -0.306491 0
M  V30 13811 H 1298.33 -2.02005 -0.31845 0
M  V30 13812 H 1296.49 -2.80171 -2.67549 0
M  V30 13813 H 1296.9 -4.88175 -1.91796 0
M  V30 13814 H 1298.37 -4.25953 -3.51095 0
M  V30 13815 H 1298.85 -2.56418 -3.56576 0
M  V30 13816 H 1299.46 -3.60483 -2.25682 0
M  V30 13817 N 1297.77 0.548248 -1.47757 0
M  V30 13818 C 1299.18 1.13033 -1.48595 0
M  V30 13819 C 1299.53 1.94657 -0.245575 0
M  V30 13820 O 1298.66 2.06445 0.648813 0
M  V30 13821 C 1299.25 2.05657 -2.69241 0
M  V30 13822 C 1297.81 2.59119 -2.73009 0
M  V30 13823 C 1296.96 1.35686 -2.41836 0
M  V30 13824 H 1299.91 0.334397 -1.55137 0
M  V30 13825 H 1299.93 2.89671 -2.4672 0
M  V30 13826 H 1299.44 1.46222 -3.595 0
M  V30 13827 H 1297.54 3.22327 -1.86912 0
M  V30 13828 H 1297.66 2.99501 -3.73946 0
M  V30 13829 H 1296.02 1.66659 -1.92606 0
M  V30 13830 H 1296.8 0.780311 -3.34314 0
M  V30 13831 N 1299.25 1.36039 0.795694 0
M  V30 13832 C 1300.18 1.24209 1.91435 0
M  V30 13833 C 1301.16 0.127593 1.62099 0
M  V30 13834 O 1302.34 0.297619 1.86136 0
M  V30 13835 C 1299.47 0.915006 3.26106 0
M  V30 13836 C 1298.52 2.04307 3.74381 0
M  V30 13837 S 1299.35 3.66016 3.90887 0
M  V30 13838 C 1300.51 3.35408 5.28443 0
M  V30 13839 H 1300.74 2.18895 2.01177 0
M  V30 13840 H 1298.27 1.21381 0.954251 0
M  V30 13841 H 1300.23 0.733104 4.03901 0
M  V30 13842 H 1298.89 -0.0139734 3.14097 0
M  V30 13843 H 1298.08 1.76863 4.71949 0
M  V30 13844 H 1297.69 2.18387 3.03617 0
M  V30 13845 H 1299.98 2.88912 6.1281 0
M  V30 13846 H 1300.92 4.32216 5.60887 0
M  V30 13847 H 1301.33 2.70909 4.95246 0
M  V30 13848 N 1300.73 -1.01913 1.20215 0
M  V30 13849 C 1301.66 -2.10513 0.906476 0
M  V30 13850 C 1302.67 -1.62463 -0.104758 0
M  V30 13851 O 1303.86 -1.78055 0.12593 0
M  V30 13852 C 1300.96 -3.3722 0.337012 0
M  V30 13853 C 1300.14 -4.14417 1.39917 0
M  V30 13854 C 1299.19 -5.19428 0.841489 0
M  V30 13855 O 1298.22 -5.48486 1.52157 0
M  V30 13856 N 1299.42 -5.79442 -0.350365 0
M  V30 13857 H 1302.19 -2.36465 1.84132 0
M  V30 13858 H 1299.75 -1.18283 1.10548 0
M  V30 13859 H 1301.74 -4.04669 -0.0501507 0
M  V30 13860 H 1300.31 -3.08538 -0.502325 0
M  V30 13861 H 1299.53 -3.41975 1.96078 0
M  V30 13862 H 1300.82 -4.62777 2.1146 0
M  V30 13863 H 1300.22 -5.58166 -0.920204 0
M  V30 13864 H 1298.77 -6.48252 -0.679194 0
M  V30 13865 N 1302.21 -1.00763 -1.2118 0
M  V30 13866 C 1303.45 -0.692851 -1.90598 0
M  V30 13867 C 1303.79 0.774698 -1.78079 0
M  V30 13868 O 1303.06 1.56186 -1.15914 0
M  V30 13869 C 1303.34 -1.11792 -3.42308 0
M  V30 13870 C 1303.2 -2.64511 -3.63805 0
M  V30 13871 C 1304.52 -0.682314 -4.34779 0
M  V30 13872 H 1301.63 -0.253175 -0.69215 0
M  V30 13873 H 1304.28 -1.25378 -1.4276 0
M  V30 13874 H 1302.43 -0.640665 -3.83181 0
M  V30 13875 H 1304.1 -3.20021 -3.32242 0
M  V30 13876 H 1302.34 -3.05903 -3.0758 0
M  V30 13877 H 1303.01 -2.89306 -4.70113 0
M  V30 13878 H 1305.49 -1.09247 -4.01503 0
M  V30 13879 H 1304.36 -1.00787 -5.39568 0
M  V30 13880 H 1304.63 0.416441 -4.40134 0
M  V30 13881 N 1303.68 1.3679 -0.7827 0
M  V30 13882 C 1304.93 1.99712 -0.352533 0
M  V30 13883 C 1305.26 1.61984 1.0712 0
M  V30 13884 O 1304.54 0.871342 1.7389 0
M  V30 13885 C 1304.82 3.5649 -0.508628 0
M  V30 13886 C 1304.67 4.04093 -1.97557 0
M  V30 13887 C 1305.99 4.40026 0.0804447 0
M  V30 13888 H 1303.11 0.725522 -0.129566 0
M  V30 13889 H 1305.75 1.62305 -0.987788 0
M  V30 13890 H 1303.9 3.88487 0.0321664 0
M  V30 13891 H 1305.58 3.82613 -2.57691 0
M  V30 13892 H 1303.82 3.55881 -2.48055 0
M  V30 13893 H 1304.49 5.13088 -2.03579 0
M  V30 13894 H 1306.97 4.14351 -0.381113 0
M  V30 13895 H 1305.84 5.48868 -0.0588424 0
M  V30 13896 H 1306.1 4.26285 1.17189 0
M  V30 13897 N 1305.16 0.53415 1.48272 0
M  V30 13898 C 1306.39 0.00574475 2.06899 0
M  V30 13899 C 1306.81 -1.27754 1.39012 0
M  V30 13900 O 1306.16 -1.76102 0.478993 0
M  V30 13901 C 1306.21 -0.217576 3.60845 0
M  V30 13902 O 1305.93 1.01487 4.26183 0
M  V30 13903 C 1307.44 -0.785888 4.36278 0
M  V30 13904 H 1304.66 0.0353967 0.670066 0
M  V30 13905 H 1307.2 0.740984 1.90603 0
M  V30 13906 H 1305.35 -0.902875 3.76732 0
M  V30 13907 H 1305.77 0.7982 5.18391 0
M  V30 13908 H 1307.24 -0.891551 5.44753 0
M  V30 13909 H 1307.72 -1.79178 4.00989 0
M  V30 13910 H 1308.33 -0.137022 4.25079 0
M  V30 13911 N 1306.64 -1.55279 0.269478 0
M  V30 13912 C 1307.57 -2.25278 -0.614188 0
M  V30 13913 C 1308.55 -1.24092 -1.1634 0
M  V30 13914 O 1309.74 -1.52799 -1.19858 0
M  V30 13915 C 1306.87 -2.96956 -1.80096 0
M  V30 13916 C 1305.82 -4.05021 -1.38353 0
M  V30 13917 C 1305.15 -4.64244 -2.65295 0
M  V30 13918 C 1306.45 -5.19523 -0.537886 0
M  V30 13919 H 1308.14 -2.99385 -0.0304397 0
M  V30 13920 H 1305.69 -1.43994 -0.0132004 0
M  V30 13921 H 1307.64 -3.44633 -2.42499 0
M  V30 13922 H 1306.36 -2.20374 -2.41045 0
M  V30 13923 H 1305.02 -3.58146 -0.78273 0
M  V30 13924 H 1304.67 -3.84337 -3.2449 0
M  V30 13925 H 1304.37 -5.37208 -2.38079 0
M  V30 13926 H 1305.89 -5.14668 -3.28557 0
M  V30 13927 H 1307.31 -5.63287 -1.06677 0
M  V30 13928 H 1305.71 -5.99014 -0.360845 0
M  V30 13929 H 1306.78 -4.82857 0.444672 0
M  V30 13930 N 1308.12 0.00332656 -1.576 0
M  V30 13931 C 1309.05 0.994803 -2.11248 0
M  V30 13932 C 1310.03 1.36061 -1.02085 0
M  V30 13933 O 1311.21 1.44494 -1.2975 0
M  V30 13934 C 1308.34 2.28772 -2.61306 0
M  V30 13935 C 1307.3 2.06362 -3.74965 0
M  V30 13936 C 1306.62 3.41638 -4.11324 0
M  V30 13937 C 1307.92 1.4289 -5.02374 0
M  V30 13938 H 1309.62 0.548119 -2.9434 0
M  V30 13939 H 1307.16 0.262208 -1.41593 0
M  V30 13940 H 1309.12 2.98485 -2.97464 0
M  V30 13941 H 1307.84 2.75547 -1.75332 0
M  V30 13942 H 1306.5 1.39076 -3.39195 0
M  V30 13943 H 1306.15 3.8611 -3.22379 0
M  V30 13944 H 1305.85 3.2746 -4.87897 0
M  V30 13945 H 1307.37 4.12671 -4.50039 0
M  V30 13946 H 1308.79 2.02555 -5.36325 0
M  V30 13947 H 1307.18 1.3921 -5.8373 0
M  V30 13948 H 1308.25 0.397708 -4.83266 0
M  V30 13949 N 1309.6 1.55164 0.276031 0
M  V30 13950 C 1310.54 1.88623 1.36104 0
M  V30 13951 C 1311.54 0.762265 1.51281 0
M  V30 13952 O 1312.74 0.946573 1.53101 0
M  V30 13953 H 1309.12 0.59863 0.455133 0
M  V30 13954 H 1311.09 2.79266 1.05134 0
M  V30 13955 C 1309.84 2.17207 2.71508 0
M  V30 13956 H 1309.16 3.03179 2.6062 0
M  V30 13957 H 1310.6 2.44541 3.46375 0
M  V30 13958 C 1309.06 0.978671 3.22372 0
M  V30 13959 O 1309.59 0.211766 4.01141 0
M  V30 13960 N 1307.8 0.777199 2.80014 0
M  V30 13961 H 1307.34 1.40252 2.16072 0
M  V30 13962 H 1307.3 -0.0196754 3.14394 0
M  V30 13963 N 1311.07 -0.540404 1.48045 0
M  V30 13964 C 1312.35 -1.30148 1.46017 0
M  V30 13965 C 1312.73 -2.10445 0.166171 0
M  V30 13966 O 1312.08 -2.12013 -0.852223 0
M  V30 13967 C 1312.29 -2.19177 2.71593 0
M  V30 13968 C 1313.64 -2.79655 3.19497 0
M  V30 13969 O 1314.66 -2.2947 2.72437 0
M  V30 13970 O 1313.52 -3.70912 4.01356 0
M  V30 13971 H 1310.61 -0.586879 0.582668 0
M  V30 13972 H 1313.16 -0.557918 1.60267 0
M  V30 13973 H 1311.93 -1.59556 3.57292 0
M  V30 13974 H 1311.56 -3.00798 2.60012 0
M  V30 13975 N 1312.55 -1.36459 -0.788468 0
M  V30 13976 C 1313.48 -1.33545 -1.91541 0
M  V30 13977 C 1314.46 -0.206762 -1.68839 0
M  V30 13978 O 1315.65 -0.404553 -1.89939 0
M  V30 13979 C 1312.78 -1.12492 -3.28577 0
M  V30 13980 C 1311.73 -2.22196 -3.65805 0
M  V30 13981 C 1311.06 -1.86285 -5.01201 0
M  V30 13982 C 1312.36 -3.64286 -3.7429 0
M  V30 13983 H 1314.05 -2.27844 -1.94236 0
M  V30 13984 H 1311.6 -1.09677 -0.933105 0
M  V30 13985 H 1313.55 -1.09089 -4.07035 0
M  V30 13986 H 1312.28 -0.146446 -3.26272 0
M  V30 13987 H 1310.93 -2.24727 -2.89644 0
M  V30 13988 H 1310.58 -0.87009 -4.95417 0
M  V30 13989 H 1310.28 -2.59734 -5.27079 0
M  V30 13990 H 1311.81 -1.84439 -5.82078 0
M  V30 13991 H 1313.22 -3.63977 -4.42937 0
M  V30 13992 H 1311.62 -4.36648 -4.11653 0
M  V30 13993 H 1312.69 -3.99123 -2.75371 0
M  V30 13994 N 1314.03 1.01274 -1.20754 0
M  V30 13995 C 1315.26 1.78265 -1.04427 0
M  V30 13996 C 1315.67 1.84718 0.409361 0
M  V30 13997 O 1315.01 1.30195 1.29595 0
M  V30 13998 C 1315.07 3.24037 -1.55693 0
M  V30 13999 C 1314.74 3.41181 -3.04047 0
M  V30 14000 C 1315.73 3.30087 -4.0167 0
M  V30 14001 C 1313.42 3.66872 -3.43089 0
M  V30 14002 C 1315.41 3.44436 -5.36323 0
M  V30 14003 C 1313.1 3.80865 -4.77896 0
M  V30 14004 C 1314.1 3.69652 -5.74322 0
M  V30 14005 O 1313.79 3.83211 -7.06686 0
M  V30 14006 H 1313.52 0.567327 -0.367582 0
M  V30 14007 H 1316.07 1.28336 -1.60372 0
M  V30 14008 H 1314.3 3.75067 -0.941382 0
M  V30 14009 H 1315.99 3.82676 -1.35328 0
M  V30 14010 H 1316.76 3.10172 -3.72852 0
M  V30 14011 H 1312.64 3.74685 -2.68574 0
M  V30 14012 H 1316.18 3.35601 -6.1157 0
M  V30 14013 H 1312.08 4.00282 -5.06403 0
M  V30 14014 H 1312.85 4.00205 -7.13987 0
M  V30 14015 N 1315.51 1.01404 1.20644 0
M  V30 14016 C 1316.74 0.72104 1.93929 0
M  V30 14017 C 1317.15 -0.717853 1.7462 0
M  V30 14018 O 1316.51 -1.48664 1.05855 0
M  V30 14019 C 1316.56 1.04399 3.46097 0
M  V30 14020 O 1316.28 2.42637 3.64773 0
M  V30 14021 C 1317.78 0.771678 4.36532 0
M  V30 14022 H 1315 0.264983 0.616462 0
M  V30 14023 H 1317.55 1.35453 1.53208 0
M  V30 14024 H 1315.7 0.455946 3.84708 0
M  V30 14025 H 1316.12 2.54201 4.58783 0
M  V30 14026 H 1317.59 1.04774 5.41965 0
M  V30 14027 H 1318.07 -0.294188 4.38214 0
M  V30 14028 H 1318.67 1.34176 4.0358 0
M  V30 14029 N 1316.99 -1.36373 0.789944 0
M  V30 14030 C 1318.23 -2.0106 0.367995 0
M  V30 14031 C 1318.59 -1.61336 -1.0409 0
M  V30 14032 O 1319.79 -2.18618 -1.56396 0
M  V30 14033 C 1318.06 -3.53492 0.527106 0
M  V30 14034 S 1319.62 -4.38375 0.193113 0
M  V30 14035 H 1316.44 -0.696965 0.140573 0
M  V30 14036 H 1319.04 -1.66256 1.02855 0
M  V30 14037 H 1317.75 -3.7989 1.55279 0
M  V30 14038 H 1317.28 -3.93116 -0.149364 0
M  V30 14039 H 1319.29 -4.85913 -1.00513 0
M  V30 14040 N 1318.47 -0.542005 -1.47987 0
M  V30 14041 C 1319.71 -0.0123116 -2.02496 0
M  V30 14042 C 1320.04 1.33136 -1.41793 0
M  V30 14043 O 1319.3 1.87591 -0.557501 0
M  V30 14044 C 1319.59 0.146208 -3.57101 0
M  V30 14045 C 1319.26 -1.12463 -4.3665 0
M  V30 14046 C 1317.92 -1.47289 -4.58104 0
M  V30 14047 C 1320.27 -1.96746 -4.82639 0
M  V30 14048 C 1317.6 -2.66273 -5.22796 0
M  V30 14049 C 1319.95 -3.14919 -5.48643 0
M  V30 14050 C 1318.62 -3.50077 -5.68333 0
M  V30 14051 H 1317.89 -0.00450514 -0.740986 0
M  V30 14052 H 1320.54 -0.710455 -1.77834 0
M  V30 14053 H 1318.84 0.927209 -3.80671 0
M  V30 14054 H 1320.54 0.571161 -3.96912 0
M  V30 14055 H 1317.13 -0.843429 -4.20219 0
M  V30 14056 H 1321.31 -1.71149 -4.65856 0
M  V30 14057 H 1316.57 -2.937 -5.36237 0
M  V30 14058 H 1320.74 -3.80525 -5.83244 0
M  V30 14059 H 1318.37 -4.42371 -6.18233 0
M  V30 14060 N 1319.94 1.55134 -0.277709 0
M  V30 14061 C 1321.22 1.91667 0.390253 0
M  V30 14062 C 1321.6 1.20228 1.73518 0
M  V30 14063 O 1320.95 0.330013 2.26104 0
M  V30 14064 C 1321.16 3.44983 0.52797 0
M  V30 14065 C 1322.51 4.16809 0.809665 0
M  V30 14066 O 1323.53 3.50891 0.612679 0
M  V30 14067 O 1322.39 5.33463 1.18656 0
M  V30 14068 H 1319.48 0.798807 0.214095 0
M  V30 14069 H 1322.03 1.66577 -0.324053 0
M  V30 14070 H 1320.8 3.89056 -0.418422 0
M  V30 14071 H 1320.42 3.76035 1.29164 0
M  V30 14072 N 1321.42 0.00503138 1.57599 0
M  V30 14073 C 1322.38 -0.969628 2.0768 0
M  V30 14074 C 1323.38 -1.26933 0.987148 0
M  V30 14075 O 1324.57 -1.21368 1.24962 0
M  V30 14076 C 1321.71 -2.29312 2.52247 0
M  V30 14077 H 1322.9 -0.536342 2.95065 0
M  V30 14078 H 1320.45 -0.242543 1.54407 0
M  V30 14079 H 1321.19 -2.7732 1.6812 0
M  V30 14080 H 1320.97 -2.08878 3.31832 0
M  V30 14081 H 1322.46 -2.99221 2.91302 0
M  V30 14082 N 1322.9 -1.55308 -0.267798 0
M  V30 14083 C 1324.15 -1.75364 -0.996515 0
M  V30 14084 C 1324.46 -0.565028 -1.87261 0
M  V30 14085 O 1325.67 -0.648119 -2.63651 0
M  V30 14086 C 1324.12 -3.10388 -1.82175 0
M  V30 14087 C 1323.73 -4.36832 -0.994062 0
M  V30 14088 C 1325.48 -3.39791 -2.54445 0
M  V30 14089 C 1323.38 -5.62893 -1.81398 0
M  V30 14090 H 1322.31 -0.653679 -0.375793 0
M  V30 14091 H 1324.96 -1.81762 -0.251975 0
M  V30 14092 H 1323.35 -2.98041 -2.60744 0
M  V30 14093 H 1324.52 -4.6011 -0.252167 0
M  V30 14094 H 1322.83 -4.1461 -0.385662 0
M  V30 14095 H 1325.43 -4.31184 -3.16203 0
M  V30 14096 H 1325.77 -2.60159 -3.24997 0
M  V30 14097 H 1326.31 -3.53259 -1.82902 0
M  V30 14098 H 1323.05 -6.45287 -1.15258 0
M  V30 14099 H 1322.57 -5.43751 -2.5317 0
M  V30 14100 H 1324.25 -6.01384 -2.38634 0
M  V30 14101 N 1324.38 0.532545 -1.4833 0
M  V30 14102 C 1325.63 1.28498 -1.55471 0
M  V30 14103 C 1325.94 1.94214 -0.232412 0
M  V30 14104 O 1327.15 2.70889 -0.182044 0
M  V30 14105 C 1325.6 2.33144 -2.74175 0
M  V30 14106 C 1325.21 1.73508 -4.13036 0
M  V30 14107 C 1326.95 3.09413 -2.90627 0
M  V30 14108 C 1324.86 2.76079 -5.23005 0
M  V30 14109 H 1323.79 0.483253 -0.578777 0
M  V30 14110 H 1326.44 0.562744 -1.74658 0
M  V30 14111 H 1324.82 3.08391 -2.48417 0
M  V30 14112 H 1326 1.04466 -4.48802 0
M  V30 14113 H 1324.31 1.0974 -4.01679 0
M  V30 14114 H 1326.91 3.86056 -3.69953 0
M  V30 14115 H 1327.25 3.65118 -1.99987 0
M  V30 14116 H 1327.79 2.4128 -3.16274 0
M  V30 14117 H 1324.52 2.25197 -6.15602 0
M  V30 14118 H 1324.04 3.43456 -4.9173 0
M  V30 14119 H 1325.72 3.39113 -5.51009 0
M  V30 14120 N 1325.86 1.36875 0.78122 0
M  V30 14121 C 1327.13 1.22101 1.52809 0
M  V30 14122 C 1327.51 -0.189402 2.10249 0
M  V30 14123 O 1326.86 -1.19598 1.94701 0
M  V30 14124 C 1327.07 2.30953 2.61652 0
M  V30 14125 C 1328.42 2.68027 3.29313 0
M  V30 14126 O 1329.44 2.30058 2.71941 0
M  V30 14127 O 1328.3 3.33407 4.33015 0
M  V30 14128 H 1325.4 0.4759 0.676349 0
M  V30 14129 H 1327.94 1.48629 0.818998 0
M  V30 14130 H 1326.71 3.25443 2.17261 0
M  V30 14131 H 1326.34 2.05837 3.40172 0
M  V30 14132 N 1327.33 -1.00632 1.21289 0
M  V30 14133 C 1328.28 -2.11502 0.96798 0
M  V30 14134 C 1329.28 -1.6919 -0.0843024 0
M  V30 14135 O 1330.48 -1.79875 0.06697 0
M  V30 14136 H 1326.86 -0.691398 0.295759 0
M  V30 14137 H 1328.83 -2.29337 1.90911 0
M  V30 14138 C 1327.58 -3.43357 0.547818 0
M  V30 14139 H 1326.9 -3.76348 1.34915 0
M  V30 14140 H 1328.34 -4.21957 0.415759 0
M  V30 14141 C 1326.8 -3.28648 -0.741086 0
M  V30 14142 O 1327.33 -3.59267 -1.79695 0
M  V30 14143 N 1325.53 -2.81866 -0.707084 0
M  V30 14144 H 1325.08 -2.57149 0.152447 0
M  V30 14145 H 1325.04 -2.72406 -1.56979 0
M  V30 14146 N 1328.81 -1.02043 -1.20104 0
M  V30 14147 C 1330.06 -0.711973 -1.89571 0
M  V30 14148 C 1330.39 0.758725 -1.79091 0
M  V30 14149 O 1329.64 1.56728 -1.17195 0
M  V30 14150 C 1329.94 -1.098 -3.40116 0
M  V30 14151 C 1329.61 -2.56555 -3.70797 0
M  V30 14152 C 1328.27 -2.96653 -3.78881 0
M  V30 14153 C 1330.62 -3.51543 -3.84795 0
M  V30 14154 C 1327.95 -4.30669 -3.98424 0
M  V30 14155 C 1330.3 -4.85252 -4.05849 0
M  V30 14156 C 1328.96 -5.2505 -4.12163 0
M  V30 14157 H 1328.23 -0.260529 -0.69369 0
M  V30 14158 H 1330.88 -1.28172 -1.42282 0
M  V30 14159 H 1329.19 -0.446738 -3.89245 0
M  V30 14160 H 1330.88 -0.836985 -3.92168 0
M  V30 14161 H 1327.47 -2.24488 -3.65107 0
M  V30 14162 H 1331.66 -3.21721 -3.77901 0
M  V30 14163 H 1326.91 -4.61052 -4.01548 0
M  V30 14164 H 1331.09 -5.58777 -4.15622 0
M  V30 14165 H 1328.71 -6.28908 -4.27059 0
M  V30 14166 N 1330.29 1.35952 -0.797165 0
M  V30 14167 C 1331.57 1.93335 -0.2968 0
M  V30 14168 C 1331.95 1.72825 1.21222 0
M  V30 14169 O 1331.3 1.09172 2.00733 0
M  V30 14170 C 1331.51 3.41951 -0.697894 0
M  V30 14171 C 1332.85 4.19087 -0.682026 0
M  V30 14172 O 1333.88 3.50424 -0.638849 0
M  V30 14173 O 1332.74 5.41577 -0.73189 0
M  V30 14174 H 1329.83 0.823554 -0.0754223 0
M  V30 14175 H 1332.38 1.45086 -0.88023 0
M  V30 14176 H 1331.15 3.50569 -1.73831 0
M  V30 14177 H 1330.77 3.97501 -0.088764 0
M  V30 14178 N 1331.77 0.549846 1.47697 0
M  V30 14179 C 1333.01 0.0230845 2.02787 0
M  V30 14180 C 1333.35 -1.32035 1.42409 0
M  V30 14181 O 1332.62 -1.85745 0.576978 0
M  V30 14182 C 1332.91 -0.0778363 3.60016 0
M  V30 14183 C 1332.76 1.29217 4.3084 0
M  V30 14184 C 1334.08 -0.794909 4.32862 0
M  V30 14185 H 1331.2 0.00986307 0.736934 0
M  V30 14186 H 1333.84 0.710714 1.76207 0
M  V30 14187 H 1331.99 -0.663464 3.82793 0
M  V30 14188 H 1333.66 1.92044 4.19424 0
M  V30 14189 H 1331.9 1.86883 3.91481 0
M  V30 14190 H 1332.57 1.17435 5.39364 0
M  V30 14191 H 1335.05 -0.297743 4.15033 0
M  V30 14192 H 1333.93 -0.834466 5.4252 0
M  V30 14193 H 1334.19 -1.84948 4.01555 0
M  V30 14194 N 1333.25 -1.54984 0.285932 0
M  V30 14195 C 1334.48 -2.03943 -0.330295 0
M  V30 14196 C 1334.88 -1.16336 -1.49207 0
M  V30 14197 O 1334.23 -0.178341 -1.82832 0
M  V30 14198 C 1334.29 -3.48976 -0.863479 0
M  V30 14199 C 1333.95 -4.5668 0.171058 0
M  V30 14200 C 1334.95 -5.10303 0.994329 0
M  V30 14201 C 1332.64 -5.01352 0.308416 0
M  V30 14202 C 1334.63 -6.07126 1.94104 0
M  V30 14203 C 1332.32 -5.97999 1.25859 0
M  V30 14204 C 1333.31 -6.50768 2.0734 0
M  V30 14205 O 1333 -7.45524 3.00749 0
M  V30 14206 H 1332.73 -0.671491 -0.0779452 0
M  V30 14207 H 1335.29 -2.01081 0.419011 0
M  V30 14208 H 1333.52 -3.49113 -1.66305 0
M  V30 14209 H 1335.21 -3.81213 -1.39396 0
M  V30 14210 H 1335.97 -4.76595 0.899002 0
M  V30 14211 H 1331.85 -4.59917 -0.315817 0
M  V30 14212 H 1335.4 -6.48239 2.57743 0
M  V30 14213 H 1331.29 -6.31125 1.35469 0
M  V30 14214 H 1332.06 -7.63276 2.95554 0
M  V30 14215 N 1334.72 -0.0133892 -1.57594 0
M  V30 14216 C 1335.67 0.97367 -2.09257 0
M  V30 14217 C 1336.64 1.33298 -0.990998 0
M  V30 14218 O 1337.83 1.42903 -1.26425 0
M  V30 14219 C 1334.97 2.25603 -2.61147 0
M  V30 14220 C 1334.08 1.95456 -3.85254 0
M  V30 14221 C 1333.21 3.17871 -4.25596 0
M  V30 14222 C 1332.25 2.83471 -5.42504 0
M  V30 14223 N 1331.39 3.98464 -5.78075 0
M  V30 14224 H 1336.23 0.526189 -2.93318 0
M  V30 14225 H 1333.77 0.248148 -1.44992 0
M  V30 14226 H 1335.73 3.00587 -2.89315 0
M  V30 14227 H 1334.36 2.67995 -1.7994 0
M  V30 14228 H 1333.41 1.10781 -3.63912 0
M  V30 14229 H 1334.72 1.6611 -4.70328 0
M  V30 14230 H 1333.87 4.0119 -4.55117 0
M  V30 14231 H 1332.61 3.50365 -3.39257 0
M  V30 14232 H 1331.62 1.98562 -5.12692 0
M  V30 14233 H 1332.84 2.5221 -6.30529 0
M  V30 14234 H 1330.79 4.3083 -4.94694 0
M  V30 14235 H 1330.71 3.72688 -6.57753 0
M  V30 14236 H 1331.97 4.82532 -6.12195 0
M  V30 14237 N 1336.2 1.55448 0.259558 0
M  V30 14238 C 1337.45 1.76948 0.990816 0
M  V30 14239 C 1337.78 0.576401 1.85449 0
M  V30 14240 O 1337.06 -0.425693 1.89784 0
M  V30 14241 C 1337.34 3.08221 1.86204 0
M  V30 14242 C 1337.19 4.37909 1.0274 0
M  V30 14243 C 1338.51 3.35627 2.84679 0
M  V30 14244 H 1335.63 0.64377 0.358788 0
M  V30 14245 H 1338.27 1.88182 0.262211 0
M  V30 14246 H 1336.42 2.98775 2.48326 0
M  V30 14247 H 1338.09 4.5933 0.425855 0
M  V30 14248 H 1336.34 4.32533 0.331308 0
M  V30 14249 H 1337.01 5.26116 1.6705 0
M  V30 14250 H 1339.48 3.44954 2.32693 0
M  V30 14251 H 1338.36 4.28719 3.42769 0
M  V30 14252 H 1338.62 2.55921 3.60496 0
M  V30 14253 N 1337.68 -0.524672 1.4861 0
M  V30 14254 C 1338.59 -1.65554 1.6622 0
M  V30 14255 C 1339.61 -1.65254 0.54471 0
M  V30 14256 O 1340.78 -1.84109 0.816454 0
M  V30 14257 C 1337.85 -3.02003 1.7028 0
M  V30 14258 C 1336.91 -3.13116 2.93695 0
M  V30 14259 C 1336.14 -4.43055 2.97553 0
M  V30 14260 O 1336.36 -5.30468 2.09667 0
M  V30 14261 O 1335.3 -4.58646 3.89779 0
M  V30 14262 H 1339.12 -1.53633 2.61974 0
M  V30 14263 H 1336.71 -0.698354 1.32073 0
M  V30 14264 H 1338.59 -3.83143 1.75441 0
M  V30 14265 H 1337.27 -3.14236 0.777002 0
M  V30 14266 H 1336.17 -2.31251 2.94064 0
M  V30 14267 H 1337.51 -3.058 3.85677 0
M  V30 14268 N 1339.16 -1.37287 -0.77395 0
M  V30 14269 C 1340.39 -1.35563 -1.56302 0
M  V30 14270 C 1340.8 0.0595356 -1.88706 0
M  V30 14271 O 1340.16 1.02072 -1.51286 0
M  V30 14272 C 1340.21 -2.19195 -2.87464 0
M  V30 14273 O 1339.93 -3.55197 -2.5645 0
M  V30 14274 C 1341.43 -2.25425 -3.81704 0
M  V30 14275 H 1338.65 -0.464431 -0.484298 0
M  V30 14276 H 1341.2 -1.80597 -0.959425 0
M  V30 14277 H 1339.35 -1.77676 -3.44253 0
M  V30 14278 H 1339.76 -3.99011 -3.40427 0
M  V30 14279 H 1341.24 -2.8827 -4.70749 0
M  V30 14280 H 1341.72 -1.26205 -4.20677 0
M  V30 14281 H 1342.32 -2.67247 -3.30846 0
M  V30 14282 N 1340.64 0.999871 -1.21821 0
M  V30 14283 C 1341.89 1.73257 -1.03271 0
M  V30 14284 C 1342.2 1.90736 0.433502 0
M  V30 14285 O 1343.4 2.61263 0.738511 0
M  V30 14286 C 1341.86 3.11697 -1.79925 0
M  V30 14287 C 1341.47 3.02173 -3.3075 0
M  V30 14288 C 1343.21 3.89061 -1.698 0
M  V30 14289 C 1341.12 4.35725 -3.99872 0
M  V30 14290 H 1340.05 0.649595 -0.382809 0
M  V30 14291 H 1342.7 1.11676 -1.45605 0
M  V30 14292 H 1341.08 3.73919 -1.30386 0
M  V30 14293 H 1342.26 2.49158 -3.8763 0
M  V30 14294 H 1340.57 2.38296 -3.41473 0
M  V30 14295 H 1343.17 4.87897 -2.1877 0
M  V30 14296 H 1343.51 4.11081 -0.657148 0
M  V30 14297 H 1344.04 3.33502 -2.16844 0
M  V30 14298 H 1340.78 4.18906 -5.04181 0
M  V30 14299 H 1340.3 4.8868 -3.47781 0
M  V30 14300 H 1341.98 5.04503 -4.05075 0
M  V30 14301 N 1342.11 1.02678 1.19562 0
M  V30 14302 C 1343.36 0.72059 1.88817 0
M  V30 14303 C 1343.68 -0.752942 1.79877 0
M  V30 14304 O 1342.95 -1.54233 1.20785 0
M  V30 14305 H 1341.53 0.26355 0.698964 0
M  V30 14306 H 1344.2 1.30056 1.4516 0
M  V30 14307 H 1343.29 1.01303 2.95202 0
M  V30 14308 N 1343.59 -1.35528 0.804364 0
M  V30 14309 C 1344.87 -1.93175 0.307049 0
M  V30 14310 C 1345.25 -1.73466 -1.20303 0
M  V30 14311 O 1344.6 -1.10235 -2.00151 0
M  V30 14312 C 1344.81 -3.41576 0.716018 0
M  V30 14313 C 1346.16 -4.18719 0.704242 0
M  V30 14314 O 1347.18 -3.50081 0.657423 0
M  V30 14315 O 1346.04 -5.41181 0.760601 0
M  V30 14316 H 1343.13 -0.823142 0.0797888 0
M  V30 14317 H 1345.68 -1.44617 0.887912 0
M  V30 14318 H 1344.45 -3.49642 1.75688 0
M  V30 14319 H 1344.07 -3.97448 0.109843 0
M  V30 14320 N 1345.07 -0.557671 -1.47404 0
M  V30 14321 C 1346.03 0.179311 -2.28498 0
M  V30 14322 C 1347.03 0.842281 -1.36975 0
M  V30 14323 O 1348.22 0.698072 -1.59601 0
M  V30 14324 C 1345.36 1.26229 -3.16668 0
M  V30 14325 H 1346.55 -0.533033 -2.95125 0
M  V30 14326 H 1344.1 -0.314634 -1.531 0
M  V30 14327 H 1344.84 2.00702 -2.54733 0
M  V30 14328 H 1344.62 0.791712 -3.84024 0
M  V30 14329 H 1346.11 1.77991 -3.77768 0
M  V30 14330 N 1346.55 1.54831 -0.294147 0
M  V30 14331 C 1347.78 2.04115 0.319474 0
M  V30 14332 C 1348.19 1.17125 1.48588 0
M  V30 14333 O 1347.53 0.188034 1.82735 0
M  V30 14334 C 1347.59 3.49429 0.84496 0
M  V30 14335 C 1347.26 4.56583 -0.195275 0
M  V30 14336 C 1348.25 5.09768 -1.02138 0
M  V30 14337 C 1345.94 5.01182 -0.335 0
M  V30 14338 C 1347.93 6.06088 -1.97321 0
M  V30 14339 C 1345.62 5.97323 -1.29029 0
M  V30 14340 C 1346.62 6.49659 -2.10788 0
M  V30 14341 O 1346.31 7.43918 -3.04698 0
M  V30 14342 H 1346.04 0.671895 0.074383 0
M  V30 14343 H 1348.59 2.00856 -0.429669 0
M  V30 14344 H 1346.82 3.4999 1.64451 0
M  V30 14345 H 1348.51 3.81947 1.37372 0
M  V30 14346 H 1349.28 4.76112 -0.924264 0
M  V30 14347 H 1345.16 4.60078 0.291422 0
M  V30 14348 H 1348.7 6.46863 -2.61177 0
M  V30 14349 H 1344.6 6.30397 -1.38815 0
M  V30 14350 H 1345.36 7.61698 -2.99598 0
M  V30 14351 N 1348.03 0.0217466 1.57585 0
M  V30 14352 C 1348.96 -0.997112 2.05263 0
M  V30 14353 C 1349.94 -1.32186 0.946873 0
M  V30 14354 O 1351.12 -1.43979 1.21665 0
M  V30 14355 C 1348.25 -2.3191 2.46851 0
M  V30 14356 C 1347.3 -2.14948 3.68375 0
M  V30 14357 S 1348.13 -1.45517 5.15349 0
M  V30 14358 C 1349.28 -2.79101 5.60226 0
M  V30 14359 H 1349.52 -0.591229 2.91362 0
M  V30 14360 H 1347.05 -0.189741 1.5323 0
M  V30 14361 H 1349.01 -3.07913 2.71477 0
M  V30 14362 H 1347.67 -2.69633 1.61112 0
M  V30 14363 H 1346.86 -3.12661 3.95296 0
M  V30 14364 H 1346.46 -1.47088 3.43862 0
M  V30 14365 H 1348.76 -3.75357 5.64015 0
M  V30 14366 H 1349.7 -2.56853 6.59873 0
M  V30 14367 H 1350.11 -2.84009 4.87851 0
M  V30 14368 N 1349.51 -1.55583 -0.251311 0
M  V30 14369 C 1350.75 -1.77471 -0.981418 0
M  V30 14370 C 1351.08 -0.586228 -1.85141 0
M  V30 14371 O 1350.36 0.415623 -1.90007 0
M  V30 14372 C 1350.64 -3.09204 -1.84567 0
M  V30 14373 C 1350.5 -4.38448 -1.00417 0
M  V30 14374 C 1351.81 -3.37133 -2.82895 0
M  V30 14375 H 1348.93 -0.645664 -0.355369 0
M  V30 14376 H 1351.58 -1.88318 -0.252228 0
M  V30 14377 H 1349.73 -3.00087 -2.46738 0
M  V30 14378 H 1351.4 -4.5955 -0.40149 0
M  V30 14379 H 1349.64 -4.32703 -0.308365 0
M  V30 14380 H 1350.31 -5.26995 -1.64258 0
M  V30 14381 H 1352.79 -3.46183 -2.3086 0
M  V30 14382 H 1351.66 -4.30531 -3.40491 0
M  V30 14383 H 1351.92 -2.57829 -3.59133 0
M  V30 14384 N 1350.98 0.516783 -1.48886 0
M  V30 14385 C 1352.23 1.27375 -1.57808 0
M  V30 14386 C 1352.56 1.92492 -0.256963 0
M  V30 14387 O 1351.84 1.79947 0.738193 0
M  V30 14388 C 1352.12 2.35295 -2.72595 0
M  V30 14389 C 1351.97 1.74783 -4.14453 0
M  V30 14390 C 1353.29 3.36973 -2.83085 0
M  V30 14391 H 1350.41 0.46175 -0.574418 0
M  V30 14392 H 1353.05 0.57434 -1.81111 0
M  V30 14393 H 1351.2 2.94951 -2.52857 0
M  V30 14394 H 1352.88 1.19076 -4.45666 0
M  V30 14395 H 1351.12 1.05258 -4.20836 0
M  V30 14396 H 1351.79 2.52985 -4.90615 0
M  V30 14397 H 1354.27 2.87289 -3.01005 0
M  V30 14398 H 1353.14 4.09864 -3.65106 0
M  V30 14399 H 1353.4 3.98336 -1.91784 0
M  V30 14400 N 1352.46 1.37696 0.766659 0
M  V30 14401 C 1353.69 1.36564 1.56093 0
M  V30 14402 C 1354.11 -0.0455828 1.88045 0
M  V30 14403 O 1353.47 -1.02405 1.49609 0
M  V30 14404 C 1353.52 2.21592 2.84481 0
M  V30 14405 O 1352.62 1.62404 3.79076 0
M  V30 14406 H 1351.96 0.466394 0.472623 0
M  V30 14407 H 1354.49 1.81287 0.948486 0
M  V30 14408 H 1354.5 2.34987 3.33534 0
M  V30 14409 H 1353.18 3.24167 2.60554 0
M  V30 14410 H 1351.75 1.58078 3.37736 0
M  V30 14411 N 1353.94 -0.993397 1.22349 0
M  V30 14412 C 1355.19 -1.72945 1.04568 0
M  V30 14413 C 1355.51 -1.90419 -0.420178 0
M  V30 14414 O 1354.78 -1.46348 -1.30227 0
M  V30 14415 H 1353.36 -0.640777 0.383945 0
M  V30 14416 H 1356.02 -1.19647 1.53853 0
M  V30 14417 H 1355.12 -2.72411 1.52311 0
M  V30 14418 N 1355.42 -1.03311 -1.19015 0
M  V30 14419 C 1356.35 -0.638279 -2.24607 0
M  V30 14420 C 1357.33 0.354795 -1.66359 0
M  V30 14421 O 1358.51 0.236574 -1.92754 0
M  V30 14422 C 1355.64 0.00737316 -3.47299 0
M  V30 14423 C 1354.6 -0.908431 -4.18248 0
M  V30 14424 C 1353.92 -0.127658 -5.34548 0
M  V30 14425 C 1355.22 -2.2241 -4.72579 0
M  V30 14426 H 1356.92 -1.52099 -2.57888 0
M  V30 14427 H 1354.46 -0.732779 -1.23961 0
M  V30 14428 H 1356.42 0.295256 -4.20364 0
M  V30 14429 H 1355.14 0.924912 -3.1323 0
M  V30 14430 H 1353.8 -1.18058 -3.47071 0
M  V30 14431 H 1353.45 0.792048 -4.96725 0
M  V30 14432 H 1353.15 -0.737702 -5.82951 0
M  V30 14433 H 1354.67 0.153385 -6.10407 0
M  V30 14434 H 1356.09 -1.99745 -5.37378 0
M  V30 14435 H 1354.48 -2.78644 -5.31486 0
M  V30 14436 H 1355.55 -2.87584 -3.90415 0
M  V30 14437 N 1356.9 1.35099 -0.81154 0
M  V30 14438 C 1358.31 1.81082 -0.454543 0
M  V30 14439 C 1358.66 1.67361 1.02395 0
M  V30 14440 O 1357.78 1.20707 1.79607 0
M  V30 14441 C 1358.38 3.2877 -0.818274 0
M  V30 14442 C 1356.94 3.72877 -0.513808 0
M  V30 14443 C 1356.08 2.57008 -1.04125 0
M  V30 14444 H 1359.03 1.23007 -1.00274 0
M  V30 14445 H 1359.06 3.80318 -0.117683 0
M  V30 14446 H 1358.57 3.38725 -1.89439 0
M  V30 14447 H 1356.67 3.68468 0.553368 0
M  V30 14448 H 1356.78 4.67455 -1.0499 0
M  V30 14449 H 1355.15 2.5045 -0.463337 0
M  V30 14450 H 1355.93 2.69738 -2.12358 0
M  V30 14451 N 1358.37 0.56548 1.47106 0
M  V30 14452 C 1359.62 0.0444375 2.02051 0
M  V30 14453 C 1359.94 -1.31344 1.44131 0
M  V30 14454 O 1359.21 -1.85845 0.619556 0
M  V30 14455 H 1357.79 0.0134375 0.746879 0
M  V30 14456 H 1360.45 0.737362 1.80413 0
M  V30 14457 H 1359.55 -0.0374834 3.12077 0
M  V30 14458 N 1359.85 -1.54672 0.302354 0
M  V30 14459 C 1361.27 -1.59519 -0.0509899 0
M  V30 14460 C 1361.47 -1.31931 -1.52304 0
M  V30 14461 O 1360.52 -1.09338 -2.27599 0
M  V30 14462 C 1361.84 -2.98678 0.348168 0
M  V30 14463 C 1363.39 -3.11587 0.297046 0
M  V30 14464 C 1363.86 -4.53057 0.671046 0
M  V30 14465 N 1365.35 -4.58983 0.623633 0
M  V30 14466 C 1366.09 -5.66522 0.885476 0
M  V30 14467 N 1365.58 -6.82092 1.21336 0
M  V30 14468 N 1367.38 -5.56198 0.812448 0
M  V30 14469 H 1359.53 -1.70865 1.2617 0
M  V30 14470 H 1361.79 -0.798099 0.511608 0
M  V30 14471 H 1361.5 -3.23794 1.37297 0
M  V30 14472 H 1361.37 -3.76025 -0.297505 0
M  V30 14473 H 1363.76 -2.86219 -0.718515 0
M  V30 14474 H 1363.84 -2.36392 0.977361 0
M  V30 14475 H 1363.48 -4.79155 1.68442 0
M  V30 14476 H 1363.41 -5.26591 -0.0313537 0
M  V30 14477 H 1365.9 -3.75972 0.381203 0
M  V30 14478 H 1366.22 -7.6003 1.39909 0
M  V30 14479 H 1364.56 -6.83641 1.25141 0
M  V30 14480 H 1367.75 -4.64787 0.555939 0
M  V30 14481 H 1367.92 -6.39924 1.01988 0
M  V30 14482 N 1361.33 -0.0301034 -1.57571 0
M  V30 14483 C 1362.28 0.969425 -2.11435 0
M  V30 14484 C 1363.27 1.33627 -1.04116 0
M  V30 14485 O 1364.48 1.31839 -1.2255 0
M  V30 14486 H 1360.85 0.330407 -0.675526 0
M  V30 14487 H 1362.82 0.489828 -2.94352 0
M  V30 14488 C 1361.57 2.24233 -2.65734 0
M  V30 14489 H 1360.9 1.9688 -3.47963 0
M  V30 14490 H 1362.34 2.92378 -3.07068 0
M  V30 14491 C 1360.8 2.97274 -1.58524 0
M  V30 14492 O 1361.33 3.8942 -0.985641 0
M  V30 14493 N 1359.53 2.59627 -1.30545 0
M  V30 14494 H 1359.08 1.84773 -1.79491 0
M  V30 14495 H 1359.04 3.08807 -0.590372 0
M  V30 14496 N 1362.81 1.55714 0.243056 0
M  V30 14497 C 1364.06 1.77375 0.968638 0
M  V30 14498 C 1364.38 0.594781 1.85708 0
M  V30 14499 O 1363.65 -0.38928 1.91993 0
M  V30 14500 H 1362.23 0.654174 0.360646 0
M  V30 14501 H 1364.89 1.93157 0.260079 0
M  V30 14502 H 1363.99 2.68674 1.5881 0
M  V30 14503 N 1364.29 -0.50888 1.49158 0
M  V30 14504 C 1365.22 -1.62778 1.61356 0
M  V30 14505 C 1366.23 -1.55039 0.496653 0
M  V30 14506 O 1367.42 -1.61115 0.768386 0
M  V30 14507 C 1364.52 -3.01534 1.54694 0
M  V30 14508 C 1363.69 -3.34539 2.81785 0
M  V30 14509 C 1362.75 -4.5267 2.68283 0
M  V30 14510 O 1361.78 -4.54844 3.42207 0
M  V30 14511 N 1362.98 -5.52115 1.79303 0
M  V30 14512 H 1365.75 -1.52744 2.57855 0
M  V30 14513 H 1363.31 -0.696597 1.46148 0
M  V30 14514 H 1365.3 -3.7847 1.43327 0
M  V30 14515 H 1363.87 -3.05535 0.660849 0
M  V30 14516 H 1363.09 -2.46576 3.07561 0
M  V30 14517 H 1364.38 -3.53384 3.66057 0
M  V30 14518 H 1363.77 -5.53153 1.18485 0
M  V30 14519 H 1362.33 -6.28184 1.73863 0
M  V30 14520 N 1365.76 -1.381 -0.759346 0
M  V30 14521 C 1367.18 -1.19171 -1.06162 0
M  V30 14522 C 1367.38 -0.0364043 -2.01467 0
M  V30 14523 O 1366.44 0.619635 -2.44779 0
M  V30 14524 C 1367.75 -2.51569 -1.64723 0
M  V30 14525 C 1369.3 -2.58201 -1.76921 0
M  V30 14526 C 1369.77 -3.9076 -2.38894 0
M  V30 14527 N 1371.26 -3.92269 -2.46331 0
M  V30 14528 C 1372 -4.91595 -2.95164 0
M  V30 14529 N 1371.49 -6.01318 -3.44075 0
M  V30 14530 N 1373.29 -4.7899 -2.94152 0
M  V30 14531 H 1365.44 -2.12021 -0.126788 0
M  V30 14532 H 1367.7 -0.940517 -0.118877 0
M  V30 14533 H 1367.41 -3.36535 -1.02162 0
M  V30 14534 H 1367.28 -2.69551 -2.6386 0
M  V30 14535 H 1369.67 -1.73634 -2.38611 0
M  V30 14536 H 1369.75 -2.44092 -0.765047 0
M  V30 14537 H 1369.39 -4.75747 -1.7784 0
M  V30 14538 H 1369.32 -4.02179 -3.39941 0
M  V30 14539 H 1371.81 -3.13015 -2.11731 0
M  V30 14540 H 1372.13 -6.73046 -3.79776 0
M  V30 14541 H 1370.47 -6.04946 -3.42148 0
M  V30 14542 H 1373.66 -3.92385 -2.55248 0
M  V30 14543 H 1373.84 -5.5655 -3.31897 0
M  V30 14544 N 1367.24 0.986894 -1.22875 0
M  V30 14545 C 1368.19 2.06271 -0.971398 0
M  V30 14546 C 1369.18 1.607 0.0802173 0
M  V30 14547 O 1370.37 1.76514 -0.131079 0
M  V30 14548 C 1367.5 3.38743 -0.557524 0
M  V30 14549 C 1366.58 3.90931 -1.64419 0
M  V30 14550 N 1366.97 4.16273 -2.87315 0
M  V30 14551 C 1365.27 4.19398 -1.51727 0
M  V30 14552 C 1365.97 4.5878 -3.57625 0
M  V30 14553 N 1364.95 4.62828 -2.85116 0
M  V30 14554 H 1368.75 2.23814 -1.90485 0
M  V30 14555 H 1366.27 1.16913 -1.12717 0
M  V30 14556 H 1368.26 4.1539 -0.354453 0
M  V30 14557 H 1366.92 3.22597 0.368957 0
M  V30 14558 H 1367.93 4.04288 -3.23684 0
M  V30 14559 H 1364.61 4.12291 -0.65742 0
M  V30 14560 H 1366 4.8696 -4.62947 0
M  V30 14561 N 1368.72 1.0394 1.18466 0
M  V30 14562 C 1369.68 0.633804 2.20262 0
M  V30 14563 C 1370.68 -0.308136 1.5782 0
M  V30 14564 O 1371.87 -0.0937087 1.73948 0
M  V30 14565 C 1369.01 -0.0709693 3.40826 0
M  V30 14566 H 1370.2 1.53463 2.57661 0
M  V30 14567 H 1367.75 0.831806 1.32328 0
M  V30 14568 H 1368.49 -0.985659 3.08958 0
M  V30 14569 H 1368.27 0.606023 3.87388 0
M  V30 14570 H 1369.76 -0.341298 4.16203 0
M  V30 14571 N 1370.2 -1.34667 0.818693 0
M  V30 14572 C 1371.61 -1.80839 0.46414 0
M  V30 14573 C 1371.96 -1.67902 -1.01506 0
M  V30 14574 O 1371.09 -1.21658 -1.78964 0
M  V30 14575 C 1371.68 -3.28331 0.835698 0
M  V30 14576 C 1370.24 -3.72599 0.533575 0
M  V30 14577 C 1369.39 -2.56452 1.05487 0
M  V30 14578 H 1372.34 -1.22474 1.00925 0
M  V30 14579 H 1372.36 -3.8025 0.13785 0
M  V30 14580 H 1371.87 -3.37715 1.91233 0
M  V30 14581 H 1369.97 -3.68756 -0.533819 0
M  V30 14582 H 1370.08 -4.66891 1.07468 0
M  V30 14583 H 1368.45 -2.50201 0.476612 0
M  V30 14584 H 1369.23 -2.68608 2.13786 0
M  V30 14585 N 1371.68 -0.573274 -1.46804 0
M  V30 14586 C 1372.59 0.168081 -2.33997 0
M  V30 14587 C 1373.6 0.895652 -1.49178 0
M  V30 14588 O 1374.78 0.860951 -1.8207 0
M  V30 14589 C 1371.84 1.17483 -3.26188 0
M  V30 14590 C 1370.9 0.452956 -4.26904 0
M  V30 14591 C 1370.14 1.41175 -5.1469 0
M  V30 14592 O 1370.36 2.64767 -5.05227 0
M  V30 14593 O 1369.29 0.927472 -5.94711 0
M  V30 14594 H 1373.12 -0.547576 -2.98723 0
M  V30 14595 H 1370.71 -0.333747 -1.45624 0
M  V30 14596 H 1372.59 1.75557 -3.8309 0
M  V30 14597 H 1371.26 1.87213 -2.6407 0
M  V30 14598 H 1370.17 -0.169383 -3.73716 0
M  V30 14599 H 1371.5 -0.203186 -4.9178 0
M  V30 14600 N 1373.15 1.5451 -0.310553 0
M  V30 14601 C 1374.4 1.99505 0.296731 0
M  V30 14602 C 1374.72 1.20257 1.54265 0
M  V30 14603 O 1375.92 1.55566 2.22512 0
M  V30 14604 C 1374.38 3.55208 0.579251 0
M  V30 14605 C 1373.99 4.43276 -0.648874 0
M  V30 14606 C 1375.73 4.08705 1.1472 0
M  V30 14607 C 1373.64 5.90428 -0.338978 0
M  V30 14608 H 1372.57 0.745232 0.114652 0
M  V30 14609 H 1375.22 1.78611 -0.420749 0
M  V30 14610 H 1373.6 3.72039 1.35658 0
M  V30 14611 H 1374.77 4.3822 -1.42478 0
M  V30 14612 H 1373.09 4.00601 -1.13613 0
M  V30 14613 H 1375.69 5.16223 1.39346 0
M  V30 14614 H 1376.03 3.59889 2.09249 0
M  V30 14615 H 1376.56 3.95454 0.431363 0
M  V30 14616 H 1373.3 6.43411 -1.25309 0
M  V30 14617 H 1372.82 5.98468 0.399475 0
M  V30 14618 H 1374.5 6.46976 0.0559696 0
M  V30 14619 N 1374.63 0.0384594 1.57553 0
M  V30 14620 C 1375.6 -0.925358 2.0969 0
M  V30 14621 C 1376.6 -1.24811 1.01385 0
M  V30 14622 O 1377.79 -1.1869 1.27508 0
M  V30 14623 C 1374.92 -2.2391 2.57055 0
M  V30 14624 H 1376.11 -0.473633 2.96136 0
M  V30 14625 H 1373.66 -0.209736 1.54886 0
M  V30 14626 H 1374.4 -2.73691 1.73964 0
M  V30 14627 H 1374.18 -2.01793 3.36188 0
M  V30 14628 H 1375.67 -2.92974 2.97583 0
M  V30 14629 N 1376.11 -1.55841 -0.234795 0
M  V30 14630 C 1377.53 -1.48536 -0.583885 0
M  V30 14631 C 1377.73 -0.731018 -1.87772 0
M  V30 14632 O 1376.78 -0.265287 -2.51103 0
M  V30 14633 C 1378.1 -2.93017 -0.675389 0
M  V30 14634 C 1379.64 -3.03459 -0.766906 0
M  V30 14635 C 1380.12 -4.49272 -0.889868 0
M  V30 14636 N 1381.61 -4.5326 -0.95443 0
M  V30 14637 C 1382.35 -5.63346 -1.06905 0
M  V30 14638 N 1381.84 -6.83215 -1.14845 0
M  V30 14639 N 1383.63 -5.51169 -1.10315 0
M  V30 14640 H 1375.79 -2.0332 0.614405 0
M  V30 14641 H 1378.05 -0.923581 0.213779 0
M  V30 14642 H 1377.75 -3.51099 0.205493 0
M  V30 14643 H 1377.63 -3.4418 -1.54337 0
M  V30 14644 H 1380.02 -2.4545 -1.63823 0
M  V30 14645 H 1380.1 -2.55487 0.126472 0
M  V30 14646 H 1379.74 -5.07895 -0.0230489 0
M  V30 14647 H 1379.67 -4.94937 -1.79847 0
M  V30 14648 H 1382.16 -3.6693 -0.903923 0
M  V30 14649 H 1382.47 -7.62863 -1.23532 0
M  V30 14650 H 1380.82 -6.85952 -1.11781 0
M  V30 14651 H 1384.01 -4.56453 -1.03769 0
M  V30 14652 H 1384.18 -6.36998 -1.18903 0
M  V30 14653 N 1377.59 0.500963 -1.49426 0
M  V30 14654 C 1378.52 1.62019 -1.60701 0
M  V30 14655 C 1379.5 1.56072 -0.456092 0
M  V30 14656 O 1380.68 1.76128 -0.671642 0
M  V30 14657 C 1377.81 3.00532 -1.56199 0
M  V30 14658 C 1376.86 3.2474 -2.76489 0
M  V30 14659 S 1377.69 3.07859 -4.38159 0
M  V30 14660 C 1378.85 4.48767 -4.36301 0
M  V30 14661 H 1379.08 1.5221 -2.55381 0
M  V30 14662 H 1376.61 0.686122 -1.38317 0
M  V30 14663 H 1378.57 3.80402 -1.54287 0
M  V30 14664 H 1377.23 3.07757 -0.628067 0
M  V30 14665 H 1376.42 4.25858 -2.69558 0
M  V30 14666 H 1376.03 2.52593 -2.75813 0
M  V30 14667 H 1378.32 5.40854 -4.08023 0
M  V30 14668 H 1379.26 4.60748 -5.37696 0
M  V30 14669 H 1379.67 4.29448 -3.6638 0
M  V30 14670 N 1379.07 1.38501 0.752011 0
M  V30 14671 C 1380.03 1.35655 1.84744 0
M  V30 14672 C 1381.03 0.256772 1.58737 0
M  V30 14673 O 1382.22 0.513749 1.66452 0
M  V30 14674 C 1379.35 1.11231 3.22243 0
M  V30 14675 H 1380.55 2.33114 1.88674 0
M  V30 14676 H 1378.1 1.23818 0.953882 0
M  V30 14677 H 1378.83 0.143848 3.23981 0
M  V30 14678 H 1378.62 1.90857 3.42515 0
M  V30 14679 H 1380.11 1.11939 4.02318 0
M  V30 14680 N 1380.55 -0.980364 1.23396 0
M  V30 14681 C 1381.48 -2.0908 1.0396 0
M  V30 14682 C 1382.46 -1.70044 -0.0434946 0
M  V30 14683 O 1383.64 -1.93822 0.121155 0
M  V30 14684 C 1380.77 -3.41537 0.630061 0
M  V30 14685 C 1379.73 -3.94476 1.66051 0
M  V30 14686 C 1379.05 -5.23128 1.10641 0
M  V30 14687 C 1380.35 -4.23741 3.05354 0
M  V30 14688 H 1382.05 -2.25598 1.9684 0
M  V30 14689 H 1379.59 -1.08409 0.94781 0
M  V30 14690 H 1381.54 -4.18644 0.481145 0
M  V30 14691 H 1380.27 -3.24883 -0.334416 0
M  V30 14692 H 1378.93 -3.19513 1.79742 0
M  V30 14693 H 1378.58 -5.02824 0.132913 0
M  V30 14694 H 1378.28 -5.59515 1.79492 0
M  V30 14695 H 1379.8 -6.02857 0.969344 0
M  V30 14696 H 1381.21 -4.91598 2.94964 0
M  V30 14697 H 1379.61 -4.71329 3.71442 0
M  V30 14698 H 1380.68 -3.31012 3.54343 0
M  V30 14699 N 1382.02 -1.04567 -1.17913 0
M  V30 14700 C 1382.99 -0.645476 -2.19923 0
M  V30 14701 C 1383.99 0.299763 -1.57981 0
M  V30 14702 O 1385.18 0.0844825 -1.73995 0
M  V30 14703 C 1382.31 0.0528935 -3.40859 0
M  V30 14704 H 1383.5 -1.54828 -2.56843 0
M  V30 14705 H 1381.05 -0.838812 -1.31885 0
M  V30 14706 H 1381.79 0.969261 -3.09477 0
M  V30 14707 H 1381.57 -0.626558 -3.87062 0
M  V30 14708 H 1383.06 0.319221 -4.16378 0
M  V30 14709 N 1383.5 1.34231 -0.825823 0
M  V30 14710 C 1384.43 2.31997 -0.264546 0
M  V30 14711 C 1385.41 1.58375 0.620592 0
M  V30 14712 O 1386.6 1.86341 0.546865 0
M  V30 14713 C 1383.73 3.42557 0.572025 0
M  V30 14714 C 1382.68 4.27454 -0.216219 0
M  V30 14715 C 1382.01 5.29509 0.743279 0
M  V30 14716 C 1383.31 5.02456 -1.42603 0
M  V30 14717 H 1385 2.79189 -1.08139 0
M  V30 14718 H 1382.55 1.34227 -0.521451 0
M  V30 14719 H 1384.5 4.09968 0.974889 0
M  V30 14720 H 1383.22 2.94021 1.42195 0
M  V30 14721 H 1381.88 3.61649 -0.600485 0
M  V30 14722 H 1381.53 4.77234 1.58924 0
M  V30 14723 H 1381.23 5.87188 0.220064 0
M  V30 14724 H 1382.76 5.99789 1.14394 0
M  V30 14725 H 1384.17 5.62706 -1.09702 0
M  V30 14726 H 1382.57 5.69723 -1.88509 0
M  V30 14727 H 1383.64 4.31983 -2.2027 0
M  V30 14728 N 1384.98 0.581051 1.46498 0
M  V30 14729 C 1385.91 -0.140957 2.33074 0
M  V30 14730 C 1386.89 -0.885323 1.45245 0
M  V30 14731 O 1388.08 -0.86111 1.74065 0
M  V30 14732 C 1385.21 -1.15625 3.27488 0
M  V30 14733 C 1384.16 -0.526829 4.24745 0
M  V30 14734 C 1383.49 -1.64847 5.08655 0
M  V30 14735 C 1384.79 0.53492 5.19554 0
M  V30 14736 H 1386.48 0.581888 2.93691 0
M  V30 14737 H 1384.03 0.281278 1.41226 0
M  V30 14738 H 1385.98 -1.6697 3.8691 0
M  V30 14739 H 1384.7 -1.90935 2.64974 0
M  V30 14740 H 1383.36 -0.0344738 3.66584 0
M  V30 14741 H 1383.01 -2.3912 4.42528 0
M  V30 14742 H 1382.71 -1.23298 5.74518 0
M  V30 14743 H 1384.23 -2.16472 5.7094 0
M  V30 14744 H 1385.65 0.106606 5.73201 0
M  V30 14745 H 1384.04 0.870639 5.93751 0
M  V30 14746 H 1385.11 1.42184 4.63586 0
M  V30 14747 N 1386.46 -1.54343 0.318742 0
M  V30 14748 C 1387.73 -1.92635 -0.339299 0
M  V30 14749 C 1388.11 -1.24786 -1.7027 0
M  V30 14750 O 1387.46 -0.389844 -2.2515 0
M  V30 14751 C 1387.67 -3.46262 -0.436318 0
M  V30 14752 C 1389.02 -4.18809 -0.698871 0
M  V30 14753 O 1390.04 -3.52392 -0.519431 0
M  V30 14754 O 1388.9 -5.36422 -1.04471 0
M  V30 14755 H 1386 -0.804202 -0.192841 0
M  V30 14756 H 1388.54 -1.6566 0.368104 0
M  V30 14757 H 1387.32 -3.8781 0.521427 0
M  V30 14758 H 1386.94 -3.79327 -1.19149 0
M  V30 14759 N 1387.94 -0.0468143 -1.5753 0
M  V30 14760 C 1388.9 0.914225 -2.10177 0
M  V30 14761 C 1389.9 1.24271 -1.02045 0
M  V30 14762 O 1391.09 1.18012 -1.28136 0
M  V30 14763 C 1388.22 2.22544 -2.58238 0
M  V30 14764 H 1389.41 0.457922 -2.96383 0
M  V30 14765 H 1386.97 0.20152 -1.54995 0
M  V30 14766 H 1387.7 2.72765 -1.75413 0
M  V30 14767 H 1387.49 2.00007 -3.37253 0
M  V30 14768 H 1388.98 2.91392 -2.99133 0
M  V30 14769 N 1389.41 1.55964 0.226527 0
M  V30 14770 C 1390.66 1.7901 0.95306 0
M  V30 14771 C 1390.99 0.615608 1.84184 0
M  V30 14772 O 1390.27 -0.385341 1.90645 0
M  V30 14773 C 1390.55 3.12101 1.79624 0
M  V30 14774 C 1390.4 4.3999 0.934286 0
M  V30 14775 C 1391.72 3.4159 2.77496 0
M  V30 14776 H 1388.84 0.651236 0.345052 0
M  V30 14777 H 1391.48 1.88696 0.222236 0
M  V30 14778 H 1389.63 3.03975 2.41933 0
M  V30 14779 H 1391.31 4.6013 0.328328 0
M  V30 14780 H 1389.55 4.33138 0.239487 0
M  V30 14781 H 1390.22 5.29541 1.55853 0
M  V30 14782 H 1392.7 3.49812 2.25323 0
M  V30 14783 H 1391.57 4.35894 3.33599 0
M  V30 14784 H 1391.83 2.6351 3.54986 0
M  V30 14785 N 1390.89 -0.493031 1.4969 0
M  V30 14786 C 1392.12 -1.27517 1.63567 0
M  V30 14787 C 1392.54 -1.85526 0.310105 0
M  V30 14788 O 1391.9 -1.66246 -0.723314 0
M  V30 14789 C 1391.95 -2.37551 2.71296 0
M  V30 14790 O 1391.05 -3.41617 2.31023 0
M  V30 14791 H 1390.39 -0.376116 0.547205 0
M  V30 14792 H 1392.92 -0.589328 1.95929 0
M  V30 14793 H 1392.93 -2.83196 2.93708 0
M  V30 14794 H 1391.61 -1.94697 3.67513 0
M  V30 14795 H 1390.19 -3.01836 2.18974 0
M  V30 14796 N 1392.37 -1.38898 -0.744656 0
M  V30 14797 C 1393.6 -1.3903 -1.53901 0
M  V30 14798 C 1394.02 0.0156607 -1.88093 0
M  V30 14799 O 1393.38 1.00012 -1.51219 0
M  V30 14800 C 1393.43 -2.2609 -2.80919 0
M  V30 14801 O 1392.53 -1.68414 -3.76444 0
M  V30 14802 H 1391.87 -0.473854 -0.465144 0
M  V30 14803 H 1394.4 -1.82773 -0.919525 0
M  V30 14804 H 1394.41 -2.40264 -3.29754 0
M  V30 14805 H 1393.09 -3.28271 -2.55364 0
M  V30 14806 H 1391.66 -1.63431 -3.35179 0
M  V30 14807 N 1393.85 0.973806 -1.23914 0
M  V30 14808 C 1395.1 1.71598 -1.07519 0
M  V30 14809 C 1395.42 1.90613 0.386926 0
M  V30 14810 O 1394.68 1.46056 1.30254 0
M  V30 14811 C 1394.98 3.11441 -1.75326 0
M  V30 14812 C 1394.64 3.12286 -3.25251 0
M  V30 14813 C 1393.31 3.12224 -3.66155 0
M  V30 14814 C 1395.66 3.0709 -4.21124 0
M  V30 14815 C 1392.99 3.0469 -5.01379 0
M  V30 14816 C 1395.34 3.01098 -5.56348 0
M  V30 14817 C 1394 2.99362 -5.96606 0
M  V30 14818 H 1393.27 0.627922 -0.39344 0
M  V30 14819 H 1395.92 1.13912 -1.53936 0
M  V30 14820 H 1394.22 3.72555 -1.21286 0
M  V30 14821 H 1395.92 3.67649 -1.60111 0
M  V30 14822 H 1392.51 3.13096 -2.92693 0
M  V30 14823 H 1396.69 3.06272 -3.90527 0
M  V30 14824 H 1391.95 3.01703 -5.31776 0
M  V30 14825 H 1396.12 2.96036 -6.30346 0
M  V30 14826 H 1393.75 2.93279 -7.0135 0
M  V30 14827 N 1395.33 1.05191 1.17357 0
M  V30 14828 C 1396.74 0.773255 1.39617 0
M  V30 14829 C 1396.94 -0.632346 1.91321 0
M  V30 14830 O 1396 -1.39475 2.10483 0
M  V30 14831 C 1397.31 1.82885 2.38692 0
M  V30 14832 C 1398.86 1.85106 2.52398 0
M  V30 14833 C 1399.33 2.89689 3.54746 0
M  V30 14834 N 1400.83 2.88651 3.62263 0
M  V30 14835 C 1401.56 3.66221 4.41214 0
M  V30 14836 N 1401.06 4.53577 5.23679 0
M  V30 14837 N 1402.85 3.54661 4.36087 0
M  V30 14838 H 1395 1.9588 0.82127 0
M  V30 14839 H 1397.26 0.848187 0.423417 0
M  V30 14840 H 1396.97 2.83766 2.07773 0
M  V30 14841 H 1396.84 1.67047 3.38194 0
M  V30 14842 H 1399.23 0.848896 2.82627 0
M  V30 14843 H 1399.31 2.05022 1.5297 0
M  V30 14844 H 1398.96 3.90091 3.25255 0
M  V30 14845 H 1398.89 2.67025 4.53878 0
M  V30 14846 H 1401.38 2.25312 3.03386 0
M  V30 14847 H 1401.69 5.09449 5.81104 0
M  V30 14848 H 1400.03 4.57638 5.23061 0
M  V30 14849 H 1403.23 2.8581 3.70716 0
M  V30 14850 H 1403.4 4.15361 4.97372 0
M  V30 14851 N 1396.8 -1.33791 0.83293 0
M  V30 14852 C 1398.05 -1.97233 0.422127 0
M  V30 14853 C 1398.37 -1.66738 -1.02264 0
M  V30 14854 O 1399.57 -2.23747 -1.53783 0
M  V30 14855 C 1398.03 -3.5295 0.703872 0
M  V30 14856 C 1397.64 -3.92329 2.16292 0
M  V30 14857 C 1399.38 -4.22973 0.359727 0
M  V30 14858 C 1397.29 -5.40999 2.38903 0
M  V30 14859 H 1396.22 -0.738082 0.154112 0
M  V30 14860 H 1398.87 -1.52494 1.02068 0
M  V30 14861 H 1397.25 -3.95985 0.0350184 0
M  V30 14862 H 1398.42 -3.6037 2.87176 0
M  V30 14863 H 1396.74 -3.35271 2.46947 0
M  V30 14864 H 1399.34 -5.32297 0.506366 0
M  V30 14865 H 1399.68 -4.10428 -0.696743 0
M  V30 14866 H 1400.21 -3.85449 0.983568 0
M  V30 14867 H 1396.95 -5.58541 3.43093 0
M  V30 14868 H 1396.47 -5.74438 1.72573 0
M  V30 14869 H 1398.15 -6.07809 2.2176 0
M  V30 14870 N 1398.28 -0.588812 -1.46187 0
M  V30 14871 C 1399.7 -0.250962 -1.57615 0
M  V30 14872 C 1399.9 1.2467 -1.58302 0
M  V30 14873 O 1398.95 2.02876 -1.50325 0
M  V30 14874 C 1400.27 -0.905561 -2.8674 0
M  V30 14875 C 1401.82 -0.879721 -3.00383 0
M  V30 14876 C 1402.29 -1.51398 -4.32253 0
M  V30 14877 N 1403.78 -1.4786 -4.38967 0
M  V30 14878 C 1404.52 -1.93868 -5.39632 0
M  V30 14879 N 1404.01 -2.47876 -6.46938 0
M  V30 14880 N 1405.81 -1.84748 -5.30872 0
M  V30 14881 H 1397.96 -1.56148 -1.43985 0
M  V30 14882 H 1400.22 -0.653028 -0.68721 0
M  V30 14883 H 1399.93 -1.95935 -2.92066 0
M  V30 14884 H 1399.8 -0.417456 -3.74883 0
M  V30 14885 H 1402.19 0.165466 -2.94636 0
M  V30 14886 H 1402.27 -1.40591 -2.137 0
M  V30 14887 H 1401.91 -2.55839 -4.38758 0
M  V30 14888 H 1401.84 -0.962965 -5.17721 0
M  V30 14889 H 1404.33 -1.08387 -3.62023 0
M  V30 14890 H 1404.65 -2.80824 -7.1997 0
M  V30 14891 H 1402.99 -2.51905 -6.47741 0
M  V30 14892 H 1406.18 -1.42307 -4.45944 0
M  V30 14893 H 1406.35 -2.20919 -6.09179 0
M  V30 14894 N 1399.76 1.54172 -0.326923 0
M  V30 14895 C 1400.71 2.21189 0.553126 0
M  V30 14896 C 1401.69 1.19356 1.07903 0
M  V30 14897 O 1402.89 1.44972 1.01549 0
M  V30 14898 C 1400.02 2.97573 1.71188 0
M  V30 14899 C 1399.1 4.06748 1.20071 0
M  V30 14900 N 1399.49 5.0414 0.409473 0
M  V30 14901 C 1397.79 4.20759 1.47913 0
M  V30 14902 C 1398.49 5.81546 0.134036 0
M  V30 14903 N 1397.47 5.38796 0.721097 0
M  V30 14904 H 1401.27 2.93841 -0.0586462 0
M  V30 14905 H 1398.78 1.61855 -0.132947 0
M  V30 14906 H 1400.78 3.44072 2.35415 0
M  V30 14907 H 1399.44 2.26443 2.32709 0
M  V30 14908 H 1400.45 5.17874 0.0520181 0
M  V30 14909 H 1397.13 3.60844 2.09995 0
M  V30 14910 H 1398.52 6.70013 -0.503156 0
M  V30 14911 N 1401.24 0.0551678 1.57503 0
M  V30 14912 C 1402.65 -0.3014 1.56728 0
M  V30 14913 C 1402.85 -1.71169 1.06317 0
M  V30 14914 O 1401.91 -2.4197 0.721566 0
M  V30 14915 C 1403.22 -0.12622 3.00435 0
M  V30 14916 C 1404.77 -0.197022 3.12379 0
M  V30 14917 C 1405.25 -0.0503235 4.57972 0
M  V30 14918 N 1406.74 -0.106471 4.63078 0
M  V30 14919 C 1407.47 -0.0171325 5.73397 0
M  V30 14920 N 1406.97 0.124781 6.92688 0
M  V30 14921 N 1408.76 -0.0730028 5.62053 0
M  V30 14922 H 1400.91 0.977072 1.88592 0
M  V30 14923 H 1403.18 0.37963 0.868668 0
M  V30 14924 H 1402.88 0.846286 3.41366 0
M  V30 14925 H 1402.76 -0.885574 3.66657 0
M  V30 14926 H 1405.14 -1.16 2.71345 0
M  V30 14927 H 1405.22 0.593155 2.48828 0
M  V30 14928 H 1404.87 0.909352 4.99693 0
M  V30 14929 H 1404.8 -0.859695 5.19535 0
M  V30 14930 H 1407.29 -0.215241 3.77287 0
M  V30 14931 H 1407.6 0.185548 7.72577 0
M  V30 14932 H 1405.95 0.15992 6.94816 0
M  V30 14933 H 1409.14 -0.182456 4.67744 0
M  V30 14934 H 1409.31 7.85052e-05 6.48 0
M  V30 14935 N 1402.72 -1.56081 -0.218252 0
M  V30 14936 C 1404.13 -1.69397 -0.784964 0
M  V30 14937 C 1404.48 -0.65775 -1.84846 0
M  V30 14938 O 1403.6 0.190478 -2.1556 0
M  V30 14939 C 1404.2 -3.07114 -1.4306 0
M  V30 14940 C 1402.76 -3.22273 -1.94466 0
M  V30 14941 C 1401.9 -2.65327 -0.80604 0
M  V30 14942 H 1404.86 -1.58699 0.0064566 0
M  V30 14943 H 1404.88 -3.03156 -2.2995 0
M  V30 14944 H 1404.39 -3.8251 -0.656335 0
M  V30 14945 H 1402.49 -2.51752 -2.74684 0
M  V30 14946 H 1402.6 -4.29526 -2.12237 0
M  V30 14947 H 1400.97 -2.23894 -1.21423 0
M  V30 14948 H 1401.75 -3.43271 -0.0443928 0
M  V30 14949 N 1404.2 0.485086 -1.49949 0
M  V30 14950 C 1405.15 1.58207 -1.64179 0
M  V30 14951 C 1406.13 1.53037 -0.496844 0
M  V30 14952 O 1407.32 1.60297 -0.750582 0
M  V30 14953 C 1404.45 2.96735 -1.72637 0
M  V30 14954 C 1403.54 3.06841 -2.92762 0
M  V30 14955 N 1403.93 2.86795 -4.16632 0
M  V30 14956 C 1402.23 3.37961 -2.91029 0
M  V30 14957 C 1402.93 3.01502 -4.97465 0
M  V30 14958 N 1401.9 3.31085 -4.31142 0
M  V30 14959 H 1405.7 1.41387 -2.57657 0
M  V30 14960 H 1403.22 0.691542 -1.4694 0
M  V30 14961 H 1405.22 3.75592 -1.80932 0
M  V30 14962 H 1403.88 3.14612 -0.803072 0
M  V30 14963 H 1404.89 2.62653 -4.46356 0
M  V30 14964 H 1401.56 3.61915 -2.08143 0
M  V30 14965 H 1402.95 2.90361 -6.05921 0
M  V30 14966 N 1405.67 1.39291 0.737279 0
M  V30 14967 C 1406.95 1.26901 1.48847 0
M  V30 14968 C 1407.33 -0.122417 2.10745 0
M  V30 14969 O 1406.68 -1.13343 1.98408 0
M  V30 14970 C 1406.89 2.3916 2.54172 0
M  V30 14971 C 1408.24 2.78368 3.20619 0
M  V30 14972 O 1409.26 2.38593 2.64484 0
M  V30 14973 O 1408.12 3.47014 4.22189 0
M  V30 14974 H 1405.21 0.497176 0.660867 0
M  V30 14975 H 1407.76 1.51159 0.771299 0
M  V30 14976 H 1406.53 3.3219 2.06797 0
M  V30 14977 H 1406.15 2.16555 3.33451 0
M  V30 14978 N 1407.15 -0.967221 1.24429 0
M  V30 14979 C 1408.08 -2.06479 0.994946 0
M  V30 14980 C 1409.1 -1.62761 -0.0357582 0
M  V30 14981 O 1410.29 -1.77361 0.201336 0
M  V30 14982 C 1407.39 -3.35487 0.479736 0
M  V30 14983 C 1406.56 -4.0811 1.57368 0
M  V30 14984 C 1405.62 -5.15392 1.06104 0
M  V30 14985 O 1404.64 -5.41539 1.75283 0
M  V30 14986 N 1405.85 -5.80406 -0.104288 0
M  V30 14987 H 1408.61 -2.28443 1.93995 0
M  V30 14988 H 1406.17 -1.13488 1.15465 0
M  V30 14989 H 1408.16 -4.04517 0.121528 0
M  V30 14990 H 1406.73 -3.1039 -0.371012 0
M  V30 14991 H 1405.95 -3.33351 2.10406 0
M  V30 14992 H 1407.24 -4.53391 2.30897 0
M  V30 14993 H 1406.64 -5.61566 -0.682638 0
M  V30 14994 H 1405.2 -6.50549 -0.403638 0
M  V30 14995 N 1408.63 -1.05812 -1.16797 0
M  V30 14996 C 1409.56 -0.685778 -2.23202 0
M  V30 14997 C 1410.54 0.319428 -1.67074 0
M  V30 14998 O 1411.73 0.195635 -1.93212 0
M  V30 14999 C 1408.86 -0.0662958 -3.47237 0
M  V30 15000 C 1407.81 -0.996943 -4.16227 0
M  V30 15001 C 1407.14 -0.241015 -5.34157 0
M  V30 15002 C 1408.44 -2.32384 -4.67755 0
M  V30 15003 H 1410.13 -1.57535 -2.54604 0
M  V30 15004 H 1407.68 -0.758909 -1.22379 0
M  V30 15005 H 1409.63 0.206024 -4.20896 0
M  V30 15006 H 1408.35 0.858263 -3.15121 0
M  V30 15007 H 1407.01 -1.25393 -3.44488 0
M  V30 15008 H 1406.66 0.686508 -4.98293 0
M  V30 15009 H 1406.36 -0.861188 -5.81255 0
M  V30 15010 H 1407.88 0.0238739 -6.10595 0
M  V30 15011 H 1409.3 -2.11099 -5.3302 0
M  V30 15012 H 1407.69 -2.89855 -5.25456 0
M  V30 15013 H 1408.76 -2.958 -3.84227 0
M  V30 15014 N 1410.11 1.33347 -0.840014 0
M  V30 15015 C 1411.52 1.50615 -0.52795 0
M  V30 15016 C 1411.72 1.77993 0.944493 0
M  V30 15017 O 1410.78 1.84087 1.72824 0
M  V30 15018 C 1412.09 2.66001 -1.40228 0
M  V30 15019 C 1413.64 2.79886 -1.40117 0
M  V30 15020 C 1414.12 3.98335 -2.26038 0
M  V30 15021 N 1415.61 4.05572 -2.23753 0
M  V30 15022 C 1416.34 4.96422 -2.86972 0
M  V30 15023 N 1415.84 5.9238 -3.59247 0
M  V30 15024 N 1417.63 4.89428 -2.76436 0
M  V30 15025 H 1409.78 1.13839 -1.79317 0
M  V30 15026 H 1412.04 0.559772 -0.765088 0
M  V30 15027 H 1411.75 2.52453 -2.44868 0
M  V30 15028 H 1411.62 3.61434 -1.07914 0
M  V30 15029 H 1414.01 2.92865 -0.362487 0
M  V30 15030 H 1414.09 1.85211 -1.76439 0
M  V30 15031 H 1413.74 3.86115 -3.29966 0
M  V30 15032 H 1413.67 4.92257 -1.87057 0
M  V30 15033 H 1416.16 3.36899 -1.71195 0
M  V30 15034 H 1416.47 6.58367 -4.04688 0
M  V30 15035 H 1414.82 5.92451 -3.63354 0
M  V30 15036 H 1418.01 4.13428 -2.19534 0
M  V30 15037 H 1418.18 5.60032 -3.25989 0
M  V30 15038 N 1411.59 0.596556 1.45873 0
M  V30 15039 C 1412.52 -0.116229 2.33211 0
M  V30 15040 C 1413.5 -0.869868 1.46176 0
M  V30 15041 O 1414.68 -0.842599 1.74968 0
M  V30 15042 C 1411.81 -1.12145 3.28696 0
M  V30 15043 C 1410.77 -0.481749 4.2528 0
M  V30 15044 C 1410.09 -1.59443 5.10374 0
M  V30 15045 C 1411.39 0.589996 5.18957 0
M  V30 15046 H 1413.09 0.613005 2.93057 0
M  V30 15047 H 1410.63 0.296242 1.4092 0
M  V30 15048 H 1412.58 -1.62857 3.88659 0
M  V30 15049 H 1411.31 -1.88114 2.66985 0
M  V30 15050 H 1409.97 0.0044092 3.666 0
M  V30 15051 H 1409.62 -2.34413 4.45039 0
M  V30 15052 H 1409.32 -1.17197 5.75794 0
M  V30 15053 H 1410.84 -2.10404 5.73204 0
M  V30 15054 H 1412.25 0.167395 5.73056 0
M  V30 15055 H 1410.65 0.933565 5.92794 0
M  V30 15056 H 1411.72 1.47093 4.62052 0
M  V30 15057 N 1413.06 -1.53996 0.335095 0
M  V30 15058 C 1414.48 -1.59591 -0.0171422 0
M  V30 15059 C 1414.68 -1.35132 -1.49471 0
M  V30 15060 O 1413.74 -1.14141 -2.25229 0
M  V30 15061 C 1415.05 -2.97872 0.411443 0
M  V30 15062 C 1416.6 -3.10887 0.363072 0
M  V30 15063 C 1417.07 -4.51532 0.766995 0
M  V30 15064 N 1418.56 -4.57557 0.72085 0
M  V30 15065 C 1419.3 -5.64516 1.00544 0
M  V30 15066 N 1418.79 -6.79365 1.35777 0
M  V30 15067 N 1420.59 -5.54349 0.930243 0
M  V30 15068 H 1412.74 -1.68151 1.29766 0
M  V30 15069 H 1415 -0.787067 0.528422 0
M  V30 15070 H 1414.71 -3.20809 1.44134 0
M  V30 15071 H 1414.58 -3.76571 -0.217678 0
M  V30 15072 H 1416.97 -2.87679 -0.657642 0
M  V30 15073 H 1417.05 -2.34266 1.02728 0
M  V30 15074 H 1416.69 -4.75474 1.78568 0
M  V30 15075 H 1416.62 -5.26539 0.0803511 0
M  V30 15076 H 1419.11 -3.75079 0.460867 0
M  V30 15077 H 1419.43 -7.56891 1.55999 0
M  V30 15078 H 1417.77 -6.80833 1.39614 0
M  V30 15079 H 1420.96 -4.63503 0.654402 0
M  V30 15080 H 1421.14 -6.37616 1.15539 0
M  V30 15081 N 1414.54 -0.0635198 -1.57472 0
M  V30 15082 C 1415.79 0.607008 -1.92349 0
M  V30 15083 C 1416.1 1.71268 -0.944806 0
M  V30 15084 O 1417.31 2.44221 -1.18609 0
M  V30 15085 C 1415.77 1.13105 -3.41666 0
M  V30 15086 C 1415.37 0.0568256 -4.47964 0
M  V30 15087 C 1417.12 1.77611 -3.85557 0
M  V30 15088 C 1415.02 0.594443 -5.88405 0
M  V30 15089 H 1413.95 0.230506 -0.717902 0
M  V30 15090 H 1416.61 -0.134413 -1.83007 0
M  V30 15091 H 1414.99 1.92517 -3.46054 0
M  V30 15092 H 1416.16 -0.717371 -4.55182 0
M  V30 15093 H 1414.48 -0.491517 -4.13489 0
M  V30 15094 H 1417.07 2.18852 -4.87861 0
M  V30 15095 H 1417.42 2.6328 -3.22474 0
M  V30 15096 H 1417.95 1.04834 -3.83738 0
M  V30 15097 H 1414.69 -0.224893 -6.55114 0
M  V30 15098 H 1414.21 1.33635 -5.84724 0
M  V30 15099 H 1415.89 1.07346 -6.38033 0
M  V30 15100 N 1416.02 1.56195 0.209972 0
M  V30 15101 C 1417.27 1.7939 0.930796 0
M  V30 15102 C 1417.59 0.634038 1.84404 0
M  V30 15103 O 1416.86 -0.348467 1.92776 0
M  V30 15104 H 1415.44 0.661676 0.346689 0
M  V30 15105 H 1418.1 1.93665 0.219049 0
M  V30 15106 H 1417.2 2.71982 1.53075 0
M  V30 15107 N 1417.5 -0.477127 1.50204 0
M  V30 15108 C 1418.74 -1.23147 1.6113 0
M  V30 15109 C 1419.08 -1.91743 0.307909 0
M  V30 15110 O 1418.35 -1.81841 -0.690223 0
M  V30 15111 C 1418.63 -2.27985 2.78738 0
M  V30 15112 C 1418.49 -1.63733 4.18941 0
M  V30 15113 C 1419.81 -3.29349 2.9192 0
M  V30 15114 H 1416.93 -0.446358 0.586459 0
M  V30 15115 H 1419.57 -0.52612 1.8257 0
M  V30 15116 H 1417.72 -2.88143 2.60588 0
M  V30 15117 H 1419.39 -1.07218 4.48667 0
M  V30 15118 H 1417.63 -0.940634 4.23479 0
M  V30 15119 H 1418.3 -2.39888 4.9715 0
M  V30 15120 H 1420.78 -2.79208 3.08516 0
M  V30 15121 H 1419.66 -4.0004 3.75845 0
M  V30 15122 H 1419.92 -3.93111 2.02278 0
M  V30 15123 N 1418.98 -1.3968 -0.729882 0
M  V30 15124 C 1419.93 -1.35296 -1.83518 0
M  V30 15125 C 1420.91 -0.232935 -1.59205 0
M  V30 15126 O 1422.1 -0.470887 -1.70621 0
M  V30 15127 C 1419.23 -1.20383 -3.21501 0
M  V30 15128 C 1418.32 -2.37108 -3.51626 0
M  V30 15129 N 1418.71 -3.62585 -3.52655 0
M  V30 15130 C 1417.01 -2.30177 -3.82014 0
M  V30 15131 C 1417.71 -4.39803 -3.8072 0
M  V30 15132 N 1416.68 -3.69456 -3.98752 0
M  V30 15133 H 1420.49 -2.30271 -1.82627 0
M  V30 15134 H 1418 -1.33249 -0.92836 0
M  V30 15135 H 1420 -1.15325 -4.00632 0
M  V30 15136 H 1418.66 -0.263628 -3.23628 0
M  V30 15137 H 1419.67 -3.9594 -3.33845 0
M  V30 15138 H 1416.34 -1.44446 -3.91716 0
M  V30 15139 H 1417.73 -5.4859 -3.87941 0
M  V30 15140 N 1420.45 0.960609 -1.2494 0
M  V30 15141 C 1421.68 1.73928 -1.12057 0
M  V30 15142 C 1422.1 1.8596 0.32623 0
M  V30 15143 O 1421.45 1.35303 1.22472 0
M  V30 15144 C 1421.51 3.15614 -1.76267 0
M  V30 15145 O 1421.23 3.04177 -3.15291 0
M  V30 15146 C 1422.73 4.09786 -1.69086 0
M  V30 15147 H 1419.95 0.5452 -0.39115 0
M  V30 15148 H 1422.49 1.20556 -1.65186 0
M  V30 15149 H 1420.65 3.65949 -1.27123 0
M  V30 15150 H 1421.06 3.93513 -3.46768 0
M  V30 15151 H 1422.53 5.06835 -2.18683 0
M  V30 15152 H 1423.01 4.34312 -0.653453 0
M  V30 15153 H 1423.62 3.65365 -2.1769 0
M  V30 15154 N 1421.93 1.0643 1.16234 0
M  V30 15155 C 1423.18 0.780296 1.86429 0
M  V30 15156 C 1423.5 -0.695335 1.82181 0
M  V30 15157 O 1422.77 -1.50312 1.2563 0
M  V30 15158 H 1421.35 0.285654 0.690225 0
M  V30 15159 H 1424.01 1.34609 1.40949 0
M  V30 15160 H 1423.11 1.10644 2.91829 0
M  V30 15161 N 1423.41 -1.329 0.847073 0
M  V30 15162 C 1424.82 -1.79813 0.502394 0
M  V30 15163 C 1425.17 -1.70017 -0.979218 0
M  V30 15164 O 1424.3 -1.25427 -1.76344 0
M  V30 15165 C 1424.89 -3.26485 0.905154 0
M  V30 15166 C 1423.45 -3.71383 0.612489 0
M  V30 15167 C 1422.6 -2.54157 1.10903 0
M  V30 15168 H 1425.55 -1.20306 1.035 0
M  V30 15169 H 1425.57 -3.79872 0.218476 0
M  V30 15170 H 1425.08 -3.33583 1.98353 0
M  V30 15171 H 1423.18 -3.69806 -0.45548 0
M  V30 15172 H 1423.3 -4.64507 1.17347 0
M  V30 15173 H 1421.66 -2.49134 0.529576 0
M  V30 15174 H 1422.44 -2.64013 2.19435 0
M  V30 15175 N 1424.89 -0.604284 -1.45555 0
M  V30 15176 C 1426.13 -0.0983316 -2.02561 0
M  V30 15177 C 1426.47 1.26659 -1.47211 0
M  V30 15178 O 1425.74 1.83476 -0.645519 0
M  V30 15179 C 1426.03 -0.0558349 -3.60057 0
M  V30 15180 C 1425.88 -1.45119 -4.25747 0
M  V30 15181 C 1427.2 0.633708 -4.35514 0
M  V30 15182 H 1424.32 -0.0372071 -0.73606 0
M  V30 15183 H 1426.96 -0.775623 -1.73448 0
M  V30 15184 H 1425.11 0.520935 -3.84992 0
M  V30 15185 H 1426.78 -2.07478 -4.12008 0
M  V30 15186 H 1425.02 -2.01283 -3.84275 0
M  V30 15187 H 1425.69 -1.37372 -5.34633 0
M  V30 15188 H 1428.17 0.143501 -4.15852 0
M  V30 15189 H 1427.05 0.632538 -5.45243 0
M  V30 15190 H 1427.31 1.69917 -4.08143 0
M  V30 15191 N 1426.37 1.53816 -0.343257 0
M  V30 15192 C 1427.61 2.0282 0.253695 0
M  V30 15193 C 1427.97 1.22564 1.47791 0
M  V30 15194 O 1429.17 1.61464 2.14902 0
M  V30 15195 C 1427.44 3.5298 0.560361 0
M  V30 15196 S 1429 4.23889 1.13416 0
M  V30 15197 H 1425.82 0.706976 0.0755344 0
M  V30 15198 H 1428.42 1.89492 -0.480951 0
M  V30 15199 H 1427.13 4.09002 -0.338451 0
M  V30 15200 H 1426.66 3.70426 1.32468 0
M  V30 15201 H 1428.67 4.33192 2.4199 0
M  V30 15202 N 1427.84 0.0718701 1.57436 0
M  V30 15203 C 1428.81 -0.880671 2.11605 0
M  V30 15204 C 1429.81 -1.22632 1.0401 0
M  V30 15205 O 1431 -1.15958 1.29997 0
M  V30 15206 C 1428.13 -2.18407 2.61746 0
M  V30 15207 H 1429.32 -0.410712 2.97074 0
M  V30 15208 H 1426.88 -0.176836 1.55296 0
M  V30 15209 H 1427.61 -2.6994 1.79731 0
M  V30 15210 H 1427.4 -1.94616 3.40392 0
M  V30 15211 H 1428.89 -2.86596 3.03731 0
M  V30 15212 N 1429.32 -1.56304 -0.201686 0
M  V30 15213 C 1430.57 -1.79881 -0.921269 0
M  V30 15214 C 1430.89 -0.643809 -1.84065 0
M  V30 15215 O 1430.16 0.338239 -1.92958 0
M  V30 15216 H 1428.74 -0.663506 -0.343175 0
M  V30 15217 H 1431.4 -1.93779 -0.208775 0
M  V30 15218 H 1430.5 -2.7279 -1.51631 0
M  V30 15219 N 1430.8 0.469154 -1.50455 0
M  V30 15220 C 1432.05 1.2229 -1.6178 0
M  V30 15221 C 1432.38 1.91577 -0.318073 0
M  V30 15222 O 1431.65 1.82205 0.68057 0
M  V30 15223 C 1431.94 2.26504 -2.79943 0
M  V30 15224 C 1431.79 1.61509 -4.19804 0
M  V30 15225 C 1433.11 3.27796 -2.93662 0
M  V30 15226 H 1430.23 0.443241 -0.588817 0
M  V30 15227 H 1432.87 0.516431 -1.82847 0
M  V30 15228 H 1431.02 2.86757 -2.62112 0
M  V30 15229 H 1432.69 1.04838 -4.49229 0
M  V30 15230 H 1430.94 0.918162 -4.23972 0
M  V30 15231 H 1431.61 2.37248 -4.98415 0
M  V30 15232 H 1434.08 2.77568 -3.09992 0
M  V30 15233 H 1432.96 3.98041 -3.77961 0
M  V30 15234 H 1433.22 3.92033 -2.04359 0
M  V30 15235 N 1432.28 1.40065 0.722464 0
M  V30 15236 C 1433.52 1.38175 1.48444 0
M  V30 15237 C 1433.86 -0.0182857 1.94191 0
M  V30 15238 O 1433.13 -0.985638 1.67677 0
M  V30 15239 C 1433.42 2.36518 2.71535 0
M  V30 15240 C 1433.27 3.85517 2.31726 0
M  V30 15241 C 1434.59 2.325 3.73673 0
M  V30 15242 H 1431.71 0.503221 0.538458 0
M  V30 15243 H 1434.35 1.7115 0.825087 0
M  V30 15244 H 1432.5 2.08529 3.27793 0
M  V30 15245 H 1434.17 4.24306 1.81003 0
M  V30 15246 H 1432.41 4.01684 1.63807 0
M  V30 15247 H 1433.08 4.49834 3.19928 0
M  V30 15248 H 1435.56 2.57277 3.27029 0
M  V30 15249 H 1434.44 3.03369 4.57447 0
M  V30 15250 H 1434.7 1.33427 4.21485 0
M  V30 15251 N 1433.76 -0.95397 1.25448 0
M  V30 15252 C 1435.01 -1.6953 1.10018 0
M  V30 15253 C 1435.33 -1.9166 -0.359385 0
M  V30 15254 O 1434.6 -1.50417 -1.25506 0
M  V30 15255 H 1433.18 -0.628238 0.404136 0
M  V30 15256 H 1435.84 -1.14691 1.57581 0
M  V30 15257 H 1434.93 -2.67427 1.60901 0
M  V30 15258 N 1435.24 -1.07045 -1.15668 0
M  V30 15259 C 1436.17 -0.709413 -2.22463 0
M  V30 15260 C 1437.15 0.30169 -1.67403 0
M  V30 15261 O 1438.33 0.175131 -1.93409 0
M  V30 15262 C 1435.46 -0.103121 -3.47147 0
M  V30 15263 C 1434.42 -1.04103 -4.15146 0
M  V30 15264 C 1433.74 -0.297656 -5.33871 0
M  V30 15265 C 1435.04 -2.37332 -4.65264 0
M  V30 15266 H 1436.74 -1.60227 -2.52918 0
M  V30 15267 H 1434.28 -0.771846 -1.21567 0
M  V30 15268 H 1436.23 0.161371 -4.21091 0
M  V30 15269 H 1434.96 0.824792 -3.16014 0
M  V30 15270 H 1433.62 -1.2904 -3.43139 0
M  V30 15271 H 1433.27 0.633618 -4.98993 0
M  V30 15272 H 1432.97 -0.922789 -5.80309 0
M  V30 15273 H 1434.49 -0.0408892 -6.10586 0
M  V30 15274 H 1435.9 -2.1674 -5.30751 0
M  V30 15275 H 1434.3 -2.95412 -5.22352 0
M  V30 15276 H 1435.37 -2.99859 -3.81068 0
M  V30 15277 N 1436.71 1.32449 -0.85411 0
M  V30 15278 C 1437.66 2.2889 -0.296341 0
M  V30 15279 C 1438.63 1.55024 0.596378 0
M  V30 15280 O 1439.82 1.8325 0.531406 0
M  V30 15281 C 1436.96 3.41315 0.509729 0
M  V30 15282 C 1436.07 4.30062 -0.40872 0
M  V30 15283 C 1435.2 5.29616 0.409928 0
M  V30 15284 C 1434.24 6.10005 -0.505953 0
M  V30 15285 N 1433.38 7.01559 0.275483 0
M  V30 15286 H 1438.22 2.75989 -1.12401 0
M  V30 15287 H 1435.76 1.35787 -0.565717 0
M  V30 15288 H 1437.71 4.05218 0.992697 0
M  V30 15289 H 1436.34 2.95367 1.30223 0
M  V30 15290 H 1435.4 3.66745 -1.01007 0
M  V30 15291 H 1436.71 4.86255 -1.11165 0
M  V30 15292 H 1435.86 5.99119 0.956083 0
M  V30 15293 H 1434.6 4.74039 1.14623 0
M  V30 15294 H 1433.61 5.39406 -1.064 0
M  V30 15295 H 1434.83 6.67667 -1.24086 0
M  V30 15296 H 1432.78 6.48412 0.994887 0
M  V30 15297 H 1432.69 7.55102 -0.368426 0
M  V30 15298 H 1433.96 7.75349 0.803382 0
M  V30 15299 N 1438.19 0.611994 1.45232 0
M  V30 15300 C 1439.12 -0.153214 2.27685 0
M  V30 15301 C 1440.1 -0.869474 1.37401 0
M  V30 15302 O 1441.29 -0.877453 1.66832 0
M  V30 15303 C 1438.41 -1.22224 3.15878 0
M  V30 15304 C 1437.46 -0.608624 4.22135 0
M  V30 15305 S 1438.29 0.586848 5.32275 0
M  V30 15306 C 1439.45 -0.482657 6.24036 0
M  V30 15307 H 1439.68 0.546316 2.92237 0
M  V30 15308 H 1437.21 0.399631 1.49139 0
M  V30 15309 H 1439.17 -1.83413 3.67246 0
M  V30 15310 H 1437.83 -1.89386 2.50583 0
M  V30 15311 H 1437.03 -1.41312 4.83784 0
M  V30 15312 H 1436.63 -0.0717689 3.73931 0
M  V30 15313 H 1438.92 -1.36053 6.63699 0
M  V30 15314 H 1439.86 0.0977803 7.08032 0
M  V30 15315 H 1440.27 -0.799965 5.58803 0
M  V30 15316 N 1439.67 -1.53632 0.351409 0
M  V30 15317 C 1441.08 -1.86241 -0.130834 0
M  V30 15318 C 1441.43 -1.27243 -1.49344 0
M  V30 15319 O 1440.56 -0.589006 -2.0823 0
M  V30 15320 C 1441.15 -3.37919 -0.244179 0
M  V30 15321 C 1439.71 -3.70377 -0.670662 0
M  V30 15322 C 1438.86 -2.76643 0.190813 0
M  V30 15323 H 1441.81 -1.48083 0.570724 0
M  V30 15324 H 1441.83 -3.65137 -1.07029 0
M  V30 15325 H 1441.34 -3.8083 0.747688 0
M  V30 15326 H 1439.44 -3.33015 -1.67127 0
M  V30 15327 H 1439.56 -4.76934 -0.455102 0
M  V30 15328 H 1437.92 -2.52446 -0.338092 0
M  V30 15329 H 1438.7 -3.22385 1.17996 0
M  V30 15330 N 1441.15 -0.0802183 -1.57396 0
M  V30 15331 C 1442.56 0.276428 -1.57188 0
M  V30 15332 C 1442.76 1.69456 -1.09027 0
M  V30 15333 O 1441.82 2.40792 -0.75997 0
M  V30 15334 C 1443.13 0.0784079 -3.00598 0
M  V30 15335 C 1444.68 0.1473 -3.12653 0
M  V30 15336 C 1445.16 -0.0225423 -4.57994 0
M  V30 15337 N 1446.65 0.0327854 -4.63188 0
M  V30 15338 C 1447.38 -0.0740922 -5.73352 0
M  V30 15339 N 1446.88 -0.234966 -6.92401 0
M  V30 15340 N 1448.67 -0.0164241 -5.62098 0
M  V30 15341 H 1440.82 -1.00695 -1.87014 0
M  V30 15342 H 1443.08 -0.393402 -0.862519 0
M  V30 15343 H 1442.79 -0.900488 -3.39977 0
M  V30 15344 H 1442.66 0.82713 -3.6802 0
M  V30 15345 H 1445.05 1.11669 -2.73156 0
M  V30 15346 H 1445.13 -0.632666 -2.47853 0
M  V30 15347 H 1444.78 -0.988733 -4.98183 0
M  V30 15348 H 1444.71 0.776933 -5.20837 0
M  V30 15349 H 1447.2 0.15519 -3.77581 0
M  V30 15350 H 1447.51 -0.308435 -7.72184 0
M  V30 15351 H 1445.86 -0.270439 -6.94474 0
M  V30 15352 H 1449.05 0.108019 -4.67975 0
M  V30 15353 H 1449.22 -0.10317 -6.47918 0
M  V30 15354 N 1442.63 1.56409 0.193394 0
M  V30 15355 C 1443.86 1.84569 0.928328 0
M  V30 15356 C 1444.26 0.660788 1.77286 0
M  V30 15357 O 1443.61 -0.379752 1.79732 0
M  V30 15358 C 1443.67 3.06854 1.87299 0
M  V30 15359 C 1443.33 4.40684 1.21025 0
M  V30 15360 C 1444.33 5.16583 0.58635 0
M  V30 15361 C 1442.01 4.87419 1.21359 0
M  V30 15362 C 1444.01 6.37395 -0.0253573 0
M  V30 15363 C 1441.7 6.08167 0.598052 0
M  V30 15364 C 1442.69 6.82997 -0.0203414 0
M  V30 15365 O 1442.38 8.01457 -0.626232 0
M  V30 15366 H 1442.11 0.616966 0.276277 0
M  V30 15367 H 1444.67 2.04373 0.205102 0
M  V30 15368 H 1442.9 2.82938 2.63596 0
M  V30 15369 H 1444.59 3.21645 2.47587 0
M  V30 15370 H 1445.35 4.81569 0.575894 0
M  V30 15371 H 1441.23 4.29129 1.68432 0
M  V30 15372 H 1444.78 6.95743 -0.508644 0
M  V30 15373 H 1440.67 6.42649 0.606017 0
M  V30 15374 H 1441.44 8.16825 -0.523305 0
M  V30 15375 N 1444.1 -0.461169 1.50702 0
M  V30 15376 C 1445.34 -1.22225 1.6383 0
M  V30 15377 C 1445.71 -1.8904 0.335858 0
M  V30 15378 O 1446.91 -2.66607 0.342674 0
M  V30 15379 C 1445.18 -2.2305 2.79256 0
M  V30 15380 S 1446.74 -3.07964 3.12576 0
M  V30 15381 H 1443.56 -0.41483 0.57744 0
M  V30 15382 H 1446.16 -0.517625 1.88523 0
M  V30 15383 H 1444.86 -1.72562 3.72358 0
M  V30 15384 H 1444.39 -2.98126 2.56679 0
M  V30 15385 H 1446.41 -4.24358 2.57167 0
M  V30 15386 N 1445.58 -1.40446 -0.715026 0
M  V30 15387 C 1446.51 -1.43511 -1.84193 0
M  V30 15388 C 1447.49 -0.295969 -1.67505 0
M  V30 15389 O 1448.68 -0.504667 -1.87528 0
M  V30 15390 C 1445.81 -1.29751 -3.22152 0
M  V30 15391 C 1444.76 -2.41274 -3.53512 0
M  V30 15392 C 1444.09 -2.12591 -4.90621 0
M  V30 15393 C 1445.39 -3.83614 -3.54454 0
M  V30 15394 H 1447.08 -2.37819 -1.81885 0
M  V30 15395 H 1444.63 -1.14469 -0.873655 0
M  V30 15396 H 1446.58 -1.30511 -4.0068 0
M  V30 15397 H 1445.3 -0.319189 -3.25037 0
M  V30 15398 H 1443.96 -2.39764 -2.77324 0
M  V30 15399 H 1443.61 -1.13148 -4.90109 0
M  V30 15400 H 1443.31 -2.87308 -5.1257 0
M  V30 15401 H 1444.84 -2.15034 -5.71483 0
M  V30 15402 H 1446.25 -3.86945 -4.23021 0
M  V30 15403 H 1444.65 -4.57855 -3.87929 0
M  V30 15404 H 1445.72 -4.13159 -2.53827 0
M  V30 15405 N 1447.06 0.947303 -1.25952 0
M  V30 15406 C 1448.31 1.69279 -1.11135 0
M  V30 15407 C 1448.63 1.9139 0.346407 0
M  V30 15408 O 1447.89 1.48786 1.27126 0
M  V30 15409 C 1448.19 3.07652 -1.81892 0
M  V30 15410 C 1447.85 3.05317 -3.31802 0
M  V30 15411 C 1446.52 3.04387 -3.72695 0
M  V30 15412 C 1448.87 2.98088 -4.27543 0
M  V30 15413 C 1446.2 2.93987 -5.07729 0
M  V30 15414 C 1448.55 2.89229 -5.62609 0
M  V30 15415 C 1447.21 2.86639 -6.02822 0
M  V30 15416 H 1446.48 0.619435 -0.40667 0
M  V30 15417 H 1449.13 1.10621 -1.56318 0
M  V30 15418 H 1447.43 3.69898 -1.29161 0
M  V30 15419 H 1449.13 3.6417 -1.67873 0
M  V30 15420 H 1445.72 3.06817 -2.99268 0
M  V30 15421 H 1449.91 2.9792 -3.96935 0
M  V30 15422 H 1445.16 2.90355 -5.38056 0
M  V30 15423 H 1449.34 2.82598 -6.36483 0
M  V30 15424 H 1446.96 2.78336 -7.07413 0
M  V30 15425 N 1448.54 1.07657 1.15099 0
M  V30 15426 C 1449.79 0.800025 1.85591 0
M  V30 15427 C 1450.11 -0.675973 1.82909 0
M  V30 15428 O 1449.38 -1.48971 1.27218 0
M  V30 15429 H 1447.96 0.292958 0.687157 0
M  V30 15430 H 1450.62 1.36096 1.39513 0
M  V30 15431 H 1449.72 1.13733 2.90639 0
M  V30 15432 N 1450.02 -1.31994 0.861122 0
M  V30 15433 C 1451.29 -1.91699 0.388705 0
M  V30 15434 C 1451.67 -1.78412 -1.12838 0
M  V30 15435 O 1451.02 -1.18625 -1.95296 0
M  V30 15436 C 1451.23 -3.38232 0.860248 0
M  V30 15437 C 1452.58 -4.15355 0.881201 0
M  V30 15438 O 1453.6 -3.46977 0.805313 0
M  V30 15439 O 1452.46 -5.37468 0.98945 0
M  V30 15440 H 1449.56 -0.819017 0.114629 0
M  V30 15441 H 1452.1 -1.40721 0.94845 0
M  V30 15442 H 1450.87 -3.41876 1.9036 0
M  V30 15443 H 1450.5 -3.96625 0.278316 0
M  V30 15444 N 1451.49 -0.619688 -1.44906 0
M  V30 15445 C 1452.72 -0.126363 -2.06514 0
M  V30 15446 C 1453.14 1.19432 -1.46224 0
M  V30 15447 O 1452.49 1.7301 -0.580851 0
M  V30 15448 C 1452.55 0.00682319 -3.61499 0
M  V30 15449 O 1452.27 -1.26162 -4.19541 0
M  V30 15450 C 1453.77 0.530189 -4.40118 0
M  V30 15451 H 1450.99 -0.0744032 -0.666862 0
M  V30 15452 H 1453.53 -0.850851 -1.85959 0
M  V30 15453 H 1451.69 0.681694 -3.81355 0
M  V30 15454 H 1452.1 -1.09908 -5.12855 0
M  V30 15455 H 1453.57 0.572428 -5.49024 0
M  V30 15456 H 1454.05 1.55494 -4.10753 0
M  V30 15457 H 1454.66 -0.111044 -4.25155 0
M  V30 15458 N 1452.97 1.53444 -0.359552 0
M  V30 15459 C 1454.22 2.01464 0.232366 0
M  V30 15460 C 1454.55 1.24656 1.48911 0
M  V30 15461 O 1453.83 0.338574 1.9153 0
M  V30 15462 C 1454.11 3.56172 0.530403 0
M  V30 15463 C 1453.96 4.43678 -0.739556 0
M  V30 15464 C 1455.28 4.19412 1.33347 0
M  V30 15465 H 1452.4 0.732314 0.0829802 0
M  V30 15466 H 1455.04 1.83752 -0.483253 0
M  V30 15467 H 1453.19 3.71396 1.14004 0
M  V30 15468 H 1454.86 4.40263 -1.37719 0
M  V30 15469 H 1453.11 4.11892 -1.36117 0
M  V30 15470 H 1453.78 5.49856 -0.486062 0
M  V30 15471 H 1456.25 4.07984 0.817816 0
M  V30 15472 H 1455.13 5.277 1.51075 0
M  V30 15473 H 1455.39 3.7508 2.34024 0
M  V30 15474 N 1454.45 0.0885642 1.57351 0
M  V30 15475 C 1455.4 -0.890284 2.14888 0
M  V30 15476 C 1456.39 -1.29671 1.09004 0
M  V30 15477 O 1457.6 -1.272 1.27359 0
M  V30 15478 H 1453.97 -0.305107 0.687324 0
M  V30 15479 H 1455.94 -0.380243 2.95967 0
M  V30 15480 C 1454.69 -2.14216 2.73874 0
M  V30 15481 H 1454.02 -1.8383 3.55031 0
M  V30 15482 H 1455.46 -2.8078 3.17708 0
M  V30 15483 C 1453.92 -2.91186 1.69448 0
M  V30 15484 O 1454.45 -3.85494 1.12949 0
M  V30 15485 N 1452.65 -2.54603 1.40091 0
M  V30 15486 H 1452.2 -1.77984 1.86225 0
M  V30 15487 H 1452.16 -3.06403 0.704577 0
M  V30 15488 N 1455.93 -1.56509 -0.185096 0
M  V30 15489 C 1457.16 -1.85327 -0.91986 0
M  V30 15490 C 1457.57 -0.672294 -1.76425 0
M  V30 15491 O 1456.93 0.358854 -1.78937 0
M  V30 15492 C 1456.98 -3.13047 -1.80787 0
M  V30 15493 O 1456.7 -4.26591 -0.997569 0
M  V30 15494 C 1458.2 -3.55114 -2.65347 0
M  V30 15495 H 1455.42 -0.615196 -0.267909 0
M  V30 15496 H 1457.97 -2.03622 -0.189338 0
M  V30 15497 H 1456.12 -2.96619 -2.4919 0
M  V30 15498 H 1456.53 -4.99384 -1.60362 0
M  V30 15499 H 1458.01 -4.47419 -3.23295 0
M  V30 15500 H 1458.49 -2.78576 -3.39547 0
M  V30 15501 H 1459.09 -3.74105 -2.023 0
M  V30 15502 N 1457.41 0.45317 -1.50944 0
M  V30 15503 C 1458.37 1.5313 -1.7054 0
M  V30 15504 C 1459.37 1.50142 -0.575678 0
M  V30 15505 O 1460.56 1.52444 -0.842997 0
M  V30 15506 C 1457.69 2.92719 -1.74723 0
M  V30 15507 H 1458.88 1.37066 -2.66745 0
M  V30 15508 H 1456.44 0.680783 -1.40695 0
M  V30 15509 H 1457.17 3.14208 -0.802753 0
M  V30 15510 H 1456.96 2.96295 -2.56811 0
M  V30 15511 H 1458.45 3.7096 -1.91777 0
M  V30 15512 N 1458.88 1.40823 0.707568 0
M  V30 15513 C 1460.11 1.43061 1.50161 0
M  V30 15514 C 1460.53 0.0342144 1.88069 0
M  V30 15515 O 1459.89 -0.959674 1.53818 0
M  V30 15516 C 1459.94 2.33459 2.74826 0
M  V30 15517 O 1459.04 1.78336 3.71847 0
M  V30 15518 H 1458.39 0.48602 0.452417 0
M  V30 15519 H 1460.92 1.85147 0.870742 0
M  V30 15520 H 1460.93 2.48922 3.23267 0
M  V30 15521 H 1459.6 3.34927 2.46571 0
M  V30 15522 H 1458.18 1.7226 3.30728 0
M  V30 15523 N 1460.36 -0.94061 1.26453 0
M  V30 15524 C 1461.78 -1.21424 1.03578 0
M  V30 15525 C 1461.98 -2.00081 -0.238726 0
M  V30 15526 O 1461.03 -2.3404 -0.947709 0
M  V30 15527 C 1462.35 -1.97496 2.26751 0
M  V30 15528 C 1463.9 -2.10485 2.31657 0
M  V30 15529 C 1464.37 -2.89959 3.54525 0
M  V30 15530 N 1465.86 -2.97533 3.55005 0
M  V30 15531 C 1466.6 -3.59456 4.46742 0
M  V30 15532 N 1466.09 -4.22876 5.48769 0
M  V30 15533 N 1467.89 -3.56734 4.34393 0
M  V30 15534 H 1460.04 -0.414788 2.08311 0
M  V30 15535 H 1462.3 -0.246047 0.915513 0
M  V30 15536 H 1462.01 -1.47109 3.19456 0
M  V30 15537 H 1461.88 -2.98159 2.31043 0
M  V30 15538 H 1464.27 -2.60064 1.39466 0
M  V30 15539 H 1464.35 -1.09082 2.31376 0
M  V30 15540 H 1463.99 -2.41067 4.47045 0
M  V30 15541 H 1463.92 -3.91619 3.52054 0
M  V30 15542 H 1466.41 -2.52446 2.81211 0
M  V30 15543 H 1466.73 -4.68026 6.14956 0
M  V30 15544 H 1465.07 -4.21461 5.52626 0
M  V30 15545 H 1468.26 -3.06381 3.53904 0
M  V30 15546 H 1468.43 -4.04706 5.0608 0
M  V30 15547 N 1461.84 -1.08266 -1.14527 0
M  V30 15548 C 1462.77 -0.655392 -2.18586 0
M  V30 15549 C 1463.75 0.332109 -1.59172 0
M  V30 15550 O 1464.94 0.236315 -1.87013 0
M  V30 15551 C 1462.06 0.0362295 -3.38681 0
M  V30 15552 C 1461.11 -0.91119 -4.16653 0
M  V30 15553 S 1461.94 -2.4171 -4.77846 0
M  V30 15554 C 1463.1 -1.73755 -6.01299 0
M  V30 15555 H 1463.33 -1.53694 -2.54491 0
M  V30 15556 H 1460.86 -0.897499 -1.25636 0
M  V30 15557 H 1462.82 0.428996 -4.08252 0
M  V30 15558 H 1461.48 0.894253 -3.01101 0
M  V30 15559 H 1460.68 -0.374143 -5.02609 0
M  V30 15560 H 1460.28 -1.24478 -3.52677 0
M  V30 15561 H 1462.57 -1.05465 -6.69241 0
M  V30 15562 H 1463.51 -2.5758 -6.59589 0
M  V30 15563 H 1463.92 -1.21153 -5.51346 0
M  V30 15564 N 1463.32 1.31536 -0.86811 0
M  V30 15565 C 1464.23 2.32326 -0.32588 0
M  V30 15566 C 1465.25 1.64632 0.563243 0
M  V30 15567 O 1466.42 1.96067 0.460403 0
M  V30 15568 C 1463.49 3.43562 0.46539 0
M  V30 15569 C 1462.55 4.26919 -0.451472 0
M  V30 15570 C 1461.78 5.32844 0.302129 0
M  V30 15571 O 1462 5.49485 1.53045 0
M  V30 15572 O 1460.94 6.00944 -0.339048 0
M  V30 15573 H 1464.76 2.80622 -1.16126 0
M  V30 15574 H 1462.35 1.35401 -0.631428 0
M  V30 15575 H 1464.23 4.11368 0.914028 0
M  V30 15576 H 1462.91 2.97432 1.27734 0
M  V30 15577 H 1461.81 3.61874 -0.948571 0
M  V30 15578 H 1463.15 4.7661 -1.22897 0
M  V30 15579 N 1464.8 0.627364 1.44575 0
M  V30 15580 C 1466.02 0.135576 2.06956 0
M  V30 15581 C 1466.45 -1.17922 1.46547 0
M  V30 15582 O 1465.81 -1.72255 0.565509 0
M  V30 15583 C 1465.85 0.030347 3.60587 0
M  V30 15584 O 1464.96 -1.01464 3.99724 0
M  V30 15585 H 1464.3 0.083058 0.658785 0
M  V30 15586 H 1466.83 0.862977 1.8551 0
M  V30 15587 H 1466.84 -0.161461 4.0768 0
M  V30 15588 H 1465.51 0.990285 4.03938 0
M  V30 15589 H 1464.09 -0.797701 3.64268 0
M  V30 15590 N 1466.28 -1.53251 0.367684 0
M  V30 15591 C 1467.22 -2.27318 -0.4929 0
M  V30 15592 C 1468.22 -1.30376 -1.08159 0
M  V30 15593 O 1469.42 -1.47996 -1.02455 0
M  V30 15594 H 1465.8 -0.730709 -0.177677 0
M  V30 15595 H 1467.77 -2.98005 0.153525 0
M  V30 15596 C 1466.52 -3.07678 -1.61955 0
M  V30 15597 H 1465.84 -3.82117 -1.17587 0
M  V30 15598 H 1467.28 -3.62678 -2.19638 0
M  V30 15599 C 1465.74 -2.18648 -2.5631 0
M  V30 15600 O 1466.27 -1.79869 -3.5918 0
M  V30 15601 N 1464.48 -1.83239 -2.25548 0
M  V30 15602 H 1464.02 -2.14973 -1.4193 0
M  V30 15603 H 1463.98 -1.23957 -2.88933 0
M  V30 15604 N 1467.75 -0.0969077 -1.57302 0
M  V30 15605 C 1469 0.565254 -1.94034 0
M  V30 15606 C 1469.32 1.68609 -0.9796 0
M  V30 15607 O 1468.59 1.95874 -0.0319788 0
M  V30 15608 H 1467.17 0.211796 -0.716346 0
M  V30 15609 H 1469.83 -0.160665 -1.94237 0
M  V30 15610 H 1468.93 0.974268 -2.96504 0
M  V30 15611 N 1469.23 1.56605 0.176793 0
M  V30 15612 C 1470.16 1.9254 1.24342 0
M  V30 15613 C 1471.18 0.81792 1.40762 0
M  V30 15614 O 1472.37 1.09636 1.40862 0
M  V30 15615 C 1469.47 2.15822 2.61293 0
M  V30 15616 C 1468.64 3.47035 2.66243 0
M  V30 15617 C 1467.7 3.5921 3.84519 0
M  V30 15618 O 1466.72 4.31876 3.70771 0
M  V30 15619 N 1467.93 2.93653 5.00748 0
M  V30 15620 H 1470.69 2.84635 0.938246 0
M  V30 15621 H 1468.25 1.57695 0.366597 0
M  V30 15622 H 1470.24 2.21237 3.38875 0
M  V30 15623 H 1468.81 1.30138 2.84223 0
M  V30 15624 H 1468.03 3.53326 1.74798 0
M  V30 15625 H 1469.32 4.33388 2.66557 0
M  V30 15626 H 1468.72 2.34476 5.14818 0
M  V30 15627 H 1467.28 3.04671 5.76211 0
M  V30 15628 N 1470.71 -0.445159 1.51182 0
M  V30 15629 C 1471.67 -1.52224 1.71349 0
M  V30 15630 C 1472.67 -1.49834 0.583632 0
M  V30 15631 O 1473.86 -1.51995 0.85107 0
M  V30 15632 C 1470.99 -2.91789 1.76273 0
M  V30 15633 H 1472.19 -1.35649 2.67468 0
M  V30 15634 H 1469.74 -0.673312 1.41054 0
M  V30 15635 H 1470.48 -3.13777 0.819405 0
M  V30 15636 H 1470.26 -2.94928 2.58379 0
M  V30 15637 H 1471.75 -3.69938 1.93741 0
M  V30 15638 N 1472.19 -1.41197 -0.700089 0
M  V30 15639 C 1473.12 -1.45456 -1.8266 0
M  V30 15640 C 1474.1 -0.313719 -1.67182 0
M  V30 15641 O 1475.28 -0.524528 -1.86982 0
M  V30 15642 C 1472.41 -1.33161 -3.20758 0
M  V30 15643 C 1471.37 -2.4501 -3.50933 0
M  V30 15644 C 1470.69 -2.17782 -4.88339 0
M  V30 15645 C 1471.99 -3.87352 -3.50365 0
M  V30 15646 H 1473.69 -2.39735 -1.79353 0
M  V30 15647 H 1471.23 -1.1539 -0.861465 0
M  V30 15648 H 1473.19 -1.34754 -3.99274 0
M  V30 15649 H 1471.91 -0.353646 -3.2468 0
M  V30 15650 H 1470.57 -2.42692 -2.74766 0
M  V30 15651 H 1470.22 -1.1834 -4.88881 0
M  V30 15652 H 1469.92 -2.92728 -5.09494 0
M  V30 15653 H 1471.44 -2.21083 -5.6917 0
M  V30 15654 H 1472.86 -3.9141 -4.18893 0
M  V30 15655 H 1471.25 -4.61944 -3.83051 0
M  V30 15656 H 1472.32 -4.15827 -2.4943 0
M  V30 15657 N 1473.67 0.933891 -1.2695 0
M  V30 15658 C 1474.61 2.03365 -1.09139 0
M  V30 15659 C 1475.58 1.66099 0.00573029 0
M  V30 15660 O 1476.77 1.90166 -0.155425 0
M  V30 15661 C 1473.91 3.37114 -0.738117 0
M  V30 15662 C 1473.02 3.87372 -1.91224 0
M  V30 15663 C 1472.16 5.0954 -1.50141 0
M  V30 15664 C 1471.19 5.52079 -2.64339 0
M  V30 15665 N 1470.33 6.65446 -2.23887 0
M  V30 15666 H 1475.17 2.17932 -2.03248 0
M  V30 15667 H 1472.71 1.0677 -1.01186 0
M  V30 15668 H 1474.67 4.1402 -0.514141 0
M  V30 15669 H 1473.3 3.22373 0.166007 0
M  V30 15670 H 1472.35 3.06801 -2.24894 0
M  V30 15671 H 1473.66 4.14875 -2.76912 0
M  V30 15672 H 1472.81 5.93928 -1.23831 0
M  V30 15673 H 1471.55 4.838 -0.615539 0
M  V30 15674 H 1470.56 4.66244 -2.9137 0
M  V30 15675 H 1471.78 5.79817 -3.53537 0
M  V30 15676 H 1469.73 6.41376 -1.37744 0
M  V30 15677 H 1469.65 6.92573 -3.03116 0
M  V30 15678 H 1470.91 7.53191 -2.00809 0
M  V30 15679 N 1475.14 1.08871 1.13951 0
M  V30 15680 C 1476.39 0.816198 1.84448 0
M  V30 15681 C 1476.71 -0.660396 1.84114 0
M  V30 15682 O 1477.91 -1.04825 2.50448 0
M  V30 15683 C 1476.37 1.41015 3.31123 0
M  V30 15684 C 1475.98 2.91888 3.39861 0
M  V30 15685 C 1477.72 1.21633 4.06701 0
M  V30 15686 C 1475.63 3.44397 4.80775 0
M  V30 15687 H 1474.56 0.301662 0.691025 0
M  V30 15688 H 1477.21 1.31072 1.28423 0
M  V30 15689 H 1475.59 0.843333 3.86916 0
M  V30 15690 H 1476.76 3.54747 2.94094 0
M  V30 15691 H 1475.08 3.10238 2.77743 0
M  V30 15692 H 1477.68 1.58324 5.10723 0
M  V30 15693 H 1478.02 0.156519 4.16006 0
M  V30 15694 H 1478.55 1.75035 3.57222 0
M  V30 15695 H 1475.29 4.49973 4.7666 0
M  V30 15696 H 1474.81 2.86299 5.27061 0
M  V30 15697 H 1476.49 3.41266 5.49679 0
M  V30 15698 N 1476.62 -1.31073 0.875073 0
M  V30 15699 C 1477.57 -2.25936 0.306104 0
M  V30 15700 C 1478.56 -1.50848 -0.559782 0
M  V30 15701 O 1479.75 -1.72285 -0.405824 0
M  V30 15702 C 1476.88 -3.39828 -0.486995 0
M  V30 15703 C 1475.96 -4.22281 0.392421 0
M  V30 15704 N 1476.35 -4.83409 1.48828 0
M  V30 15705 C 1474.65 -4.45613 0.185762 0
M  V30 15706 C 1475.35 -5.45092 2.031 0
M  V30 15707 N 1474.33 -5.27147 1.3273 0
M  V30 15708 H 1478.13 -2.70738 1.14359 0
M  V30 15709 H 1475.64 -1.45399 0.72339 0
M  V30 15710 H 1477.64 -4.06821 -0.911171 0
M  V30 15711 H 1476.3 -2.96568 -1.32203 0
M  V30 15712 H 1477.31 -4.82915 1.87118 0
M  V30 15713 H 1473.99 -4.12977 -0.61291 0
M  V30 15714 H 1475.38 -6.03641 2.95071 0
M  V30 15715 N 1478.1 -0.635022 -1.4424 0
M  V30 15716 C 1479.35 -0.141276 -2.02307 0
M  V30 15717 C 1479.68 1.23508 -1.49865 0
M  V30 15718 O 1478.95 1.82065 -0.684291 0
M  V30 15719 C 1479.24 -0.132196 -3.59857 0
M  V30 15720 C 1479.09 -1.54117 -4.22573 0
M  V30 15721 C 1480.41 0.541186 -4.3676 0
M  V30 15722 H 1477.53 -0.0528117 -0.735105 0
M  V30 15723 H 1480.17 -0.812239 -1.71763 0
M  V30 15724 H 1478.32 0.439156 -3.8601 0
M  V30 15725 H 1479.99 -2.16171 -4.07514 0
M  V30 15726 H 1478.24 -2.09389 -3.79919 0
M  V30 15727 H 1478.91 -1.48682 -5.31599 0
M  V30 15728 H 1481.38 0.0552603 -4.16063 0
M  V30 15729 H 1480.26 0.516742 -5.46462 0
M  V30 15730 H 1480.52 1.61222 -4.11655 0
M  V30 15731 N 1479.58 1.53054 -0.375806 0
M  V30 15732 C 1480.8 2.06296 0.213708 0
M  V30 15733 C 1481.23 1.24675 1.40846 0
M  V30 15734 O 1480.59 0.268371 1.79303 0
M  V30 15735 C 1480.63 3.55981 0.575301 0
M  V30 15736 O 1479.74 3.77023 1.67115 0
M  V30 15737 H 1479.08 0.66338 0.0286922 0
M  V30 15738 H 1481.61 1.97362 -0.539371 0
M  V30 15739 H 1481.62 3.99187 0.843431 0
M  V30 15740 H 1480.29 4.14829 -0.298258 0
M  V30 15741 H 1478.87 3.45712 1.39778 0
M  V30 15742 N 1481.06 0.105248 1.57248 0
M  V30 15743 C 1482.28 -0.567515 1.99484 0
M  V30 15744 C 1482.71 -1.60298 0.984182 0
M  V30 15745 O 1482.06 -1.81242 -0.0459944 0
M  V30 15746 C 1482.11 -1.18271 3.40653 0
M  V30 15747 O 1481.22 -2.29843 3.42412 0
M  V30 15748 H 1480.56 -0.143069 0.648404 0
M  V30 15749 H 1483.09 0.189661 2.03719 0
M  V30 15750 H 1483.1 -1.52157 3.78566 0
M  V30 15751 H 1481.77 -0.424179 4.13731 0
M  V30 15752 H 1480.35 -1.975 3.16304 0
M  V30 15753 N 1482.53 -1.56697 -0.168486 0
M  V30 15754 C 1483.76 -1.86292 -0.900152 0
M  V30 15755 C 1484.18 -0.690968 -1.75702 0
M  V30 15756 O 1483.53 0.339855 -1.79308 0
M  V30 15757 C 1483.59 -3.14946 -1.77457 0
M  V30 15758 O 1483.31 -4.27625 -0.952267 0
M  V30 15759 C 1484.81 -3.57908 -2.61566 0
M  V30 15760 H 1482.03 -0.618003 -0.261369 0
M  V30 15761 H 1484.57 -2.03811 -0.16773 0
M  V30 15762 H 1482.73 -2.99246 -2.4603 0
M  V30 15763 H 1483.14 -5.01057 -1.55056 0
M  V30 15764 H 1484.61 -4.50823 -3.18532 0
M  V30 15765 H 1485.09 -2.82162 -3.36573 0
M  V30 15766 H 1485.7 -3.7623 -1.98321 0
M  V30 15767 N 1484.01 0.437135 -1.51416 0
M  V30 15768 C 1485.24 1.20898 -1.67903 0
M  V30 15769 C 1485.66 1.85009 -0.376458 0
M  V30 15770 O 1485.01 1.7072 0.645051 0
M  V30 15771 C 1485.06 2.29286 -2.79482 0
M  V30 15772 O 1484.78 1.67798 -4.04692 0
M  V30 15773 C 1486.29 3.19561 -3.07238 0
M  V30 15774 H 1483.51 0.364381 -0.563442 0
M  V30 15775 H 1486.05 0.517931 -1.97833 0
M  V30 15776 H 1484.2 2.94107 -2.5215 0
M  V30 15777 H 1484.62 2.39433 -4.6666 0
M  V30 15778 H 1486.09 3.91748 -3.88893 0
M  V30 15779 H 1486.57 3.80327 -2.19654 0
M  V30 15780 H 1487.18 2.60441 -3.3623 0
M  V30 15781 N 1485.49 1.41566 0.692592 0
M  V30 15782 C 1486.44 1.43648 1.80648 0
M  V30 15783 C 1487.41 0.290497 1.6354 0
M  V30 15784 O 1488.59 0.491979 1.84348 0
M  V30 15785 C 1485.73 1.32733 3.18553 0
M  V30 15786 C 1484.85 2.57224 3.47073 0
M  V30 15787 C 1483.98 2.38581 4.74608 0
M  V30 15788 C 1483.02 3.58534 4.96105 0
M  V30 15789 N 1482.16 3.38942 6.14868 0
M  V30 15790 H 1487 2.38847 1.78203 0
M  V30 15791 H 1484.53 1.186 0.870193 0
M  V30 15792 H 1486.49 1.24405 3.9822 0
M  V30 15793 H 1485.12 0.411407 3.20168 0
M  V30 15794 H 1484.17 2.7599 2.6179 0
M  V30 15795 H 1485.49 3.46443 3.58858 0
M  V30 15796 H 1484.64 2.27738 5.62335 0
M  V30 15797 H 1483.38 1.46824 4.65074 0
M  V30 15798 H 1482.38 3.69828 4.06826 0
M  V30 15799 H 1483.61 4.51248 5.07496 0
M  V30 15800 H 1481.55 2.49887 6.06541 0
M  V30 15801 H 1481.47 4.21737 6.27434 0
M  V30 15802 H 1482.74 3.31877 7.05321 0
M  V30 15803 N 1486.97 -0.927146 1.27443 0
M  V30 15804 C 1488.25 -1.65322 1.04538 0
M  V30 15805 C 1488.63 -2.06886 -0.419694 0
M  V30 15806 O 1487.97 -1.80352 -1.40304 0
M  V30 15807 C 1488.18 -2.85486 2.00746 0
M  V30 15808 C 1489.53 -3.56816 2.30147 0
M  V30 15809 O 1490.56 -2.95613 1.98724 0
M  V30 15810 O 1489.41 -4.67085 2.83714 0
M  V30 15811 H 1486.51 -0.724627 0.398554 0
M  V30 15812 H 1489.05 -0.977633 1.3871 0
M  V30 15813 H 1487.83 -2.51766 2.99549 0
M  V30 15814 H 1487.45 -3.60763 1.67139 0
M  V30 15815 N 1488.45 -1.09474 -1.13372 0
M  V30 15816 C 1489.41 -0.738173 -2.16988 0
M  V30 15817 C 1490.41 0.232488 -1.5911 0
M  V30 15818 O 1491.6 0.0106093 -1.74197 0
M  V30 15819 C 1488.73 -0.091724 -3.40777 0
M  V30 15820 H 1489.92 -1.65582 -2.50045 0
M  V30 15821 H 1487.48 -0.893994 -1.28209 0
M  V30 15822 H 1488.21 0.837129 -3.13309 0
M  V30 15823 H 1488 -0.790161 -3.84056 0
M  V30 15824 H 1489.49 0.142334 -4.17357 0
M  V30 15825 N 1489.92 1.30607 -0.882012 0
M  V30 15826 C 1490.85 2.30666 -0.362706 0
M  V30 15827 C 1491.84 1.60865 0.552861 0
M  V30 15828 O 1493.02 1.88493 0.467339 0
M  V30 15829 C 1490.15 3.44675 0.42622 0
M  V30 15830 C 1489.1 4.26152 -0.397322 0
M  V30 15831 C 1488.43 5.32185 0.518027 0
M  V30 15832 C 1489.73 4.95955 -1.63785 0
M  V30 15833 H 1491.42 2.74351 -1.19883 0
M  V30 15834 H 1488.97 1.31895 -0.577912 0
M  V30 15835 H 1490.92 4.13734 0.80013 0
M  V30 15836 H 1489.65 2.99787 1.29597 0
M  V30 15837 H 1488.31 3.58776 -0.753332 0
M  V30 15838 H 1487.95 4.83545 1.3854 0
M  V30 15839 H 1487.65 5.87593 -0.0291802 0
M  V30 15840 H 1489.18 6.04101 0.888518 0
M  V30 15841 H 1490.59 5.57547 -1.3347 0
M  V30 15842 H 1488.99 5.61215 -2.12504 0
M  V30 15843 H 1490.06 4.22252 -2.38394 0
M  V30 15844 N 1491.4 0.642663 1.43901 0
M  V30 15845 C 1492.68 0.0821715 1.95427 0
M  V30 15846 C 1493.06 -1.3951 1.58431 0
M  V30 15847 O 1492.41 -2.11531 0.864118 0
M  V30 15848 C 1492.62 0.317229 3.47555 0
M  V30 15849 C 1493.97 0.216547 4.24047 0
M  V30 15850 O 1494.99 0.249216 3.55327 0
M  V30 15851 O 1493.85 0.131269 5.46342 0
M  V30 15852 H 1490.94 -0.0156936 0.826851 0
M  V30 15853 H 1493.49 0.715168 1.53894 0
M  V30 15854 H 1492.26 1.34184 3.67574 0
M  V30 15855 H 1491.88 -0.349348 3.96062 0
M  V30 15856 N 1492.88 -1.52852 0.383918 0
M  V30 15857 C 1493.79 -2.3002 -0.461298 0
M  V30 15858 C 1494.81 -1.36717 -1.07631 0
M  V30 15859 O 1495.98 -1.69784 -1.08329 0
M  V30 15860 C 1493.05 -3.08804 -1.57609 0
M  V30 15861 C 1492.11 -4.17806 -0.986737 0
M  V30 15862 C 1491.34 -4.92825 -2.04841 0
M  V30 15863 O 1491.57 -4.67879 -3.26259 0
M  V30 15864 O 1490.5 -5.78306 -1.66871 0
M  V30 15865 H 1494.33 -3.03239 0.167189 0
M  V30 15866 H 1491.91 -1.48667 0.147781 0
M  V30 15867 H 1493.79 -3.57943 -2.22384 0
M  V30 15868 H 1492.47 -2.38404 -2.18964 0
M  V30 15869 H 1491.37 -3.72876 -0.302396 0
M  V30 15870 H 1492.71 -4.90426 -0.417481 0
M  V30 15871 N 1494.36 -0.113586 -1.5719 0
M  V30 15872 C 1495.29 0.835363 -2.18046 0
M  V30 15873 C 1496.27 1.28114 -1.11897 0
M  V30 15874 O 1497.46 1.34472 -1.40111 0
M  V30 15875 C 1494.59 2.08759 -2.77556 0
M  V30 15876 C 1493.54 1.77979 -3.8924 0
M  V30 15877 C 1492.87 3.10185 -4.35533 0
M  V30 15878 C 1494.17 1.05231 -5.11589 0
M  V30 15879 H 1495.86 0.328275 -2.97595 0
M  V30 15880 H 1493.41 0.156456 -1.43148 0
M  V30 15881 H 1495.36 2.75597 -3.18785 0
M  V30 15882 H 1494.08 2.61783 -1.95288 0
M  V30 15883 H 1492.74 1.13532 -3.48577 0
M  V30 15884 H 1492.39 3.61133 -3.50131 0
M  V30 15885 H 1492.09 2.90367 -5.10843 0
M  V30 15886 H 1493.61 3.78151 -4.7941 0
M  V30 15887 H 1495.03 1.62213 -5.49872 0
M  V30 15888 H 1493.42 0.955269 -5.92448 0
M  V30 15889 H 1494.49 0.038137 -4.84885 0
M  V30 15890 N 1495.84 1.56784 0.160173 0
M  V30 15891 C 1497.09 1.8226 0.873253 0
M  V30 15892 C 1497.41 0.692384 1.82294 0
M  V30 15893 O 1496.68 -0.286961 1.93787 0
M  V30 15894 H 1495.26 0.672371 0.325463 0
M  V30 15895 H 1497.92 1.94264 0.157325 0
M  V30 15896 H 1497.01 2.76714 1.44345 0
M  V30 15897 N 1497.32 -0.429099 1.51646 0
M  V30 15898 C 1498.56 -1.18722 1.66386 0
M  V30 15899 C 1498.92 -1.88285 0.375881 0
M  V30 15900 O 1500.12 -2.6582 0.399149 0
M  V30 15901 C 1498.39 -2.17076 2.83924 0
M  V30 15902 S 1499.95 -3.01264 3.19038 0
M  V30 15903 H 1496.77 -0.402488 0.586109 0
M  V30 15904 H 1499.37 -0.47752 1.89578 0
M  V30 15905 H 1498.07 -1.64625 3.75935 0
M  V30 15906 H 1497.61 -2.92615 2.62945 0
M  V30 15907 H 1499.62 -4.18807 2.66111 0
M  V30 15908 N 1498.79 -1.41931 -0.685074 0
M  V30 15909 C 1500.04 -1.41852 -1.44514 0
M  V30 15910 C 1500.37 -0.0313137 -1.94475 0
M  V30 15911 O 1499.62 0.958606 -1.70614 0
M  V30 15912 C 1499.92 -2.38099 -2.6654 0
M  V30 15913 C 1499.59 -3.8471 -2.35178 0
M  V30 15914 C 1498.25 -4.24647 -2.26336 0
M  V30 15915 C 1500.6 -4.77232 -2.0952 0
M  V30 15916 C 1497.93 -5.55101 -1.89947 0
M  V30 15917 C 1500.28 -6.08017 -1.74638 0
M  V30 15918 C 1498.95 -6.46964 -1.64299 0
M  V30 15919 H 1498.22 -0.519072 -0.528815 0
M  V30 15920 H 1500.86 -1.74802 -0.782078 0
M  V30 15921 H 1499.17 -1.9844 -3.3783 0
M  V30 15922 H 1500.87 -2.35306 -3.24703 0
M  V30 15923 H 1497.46 -3.53085 -2.42959 0
M  V30 15924 H 1501.64 -4.47173 -2.1529 0
M  V30 15925 H 1496.9 -5.84148 -1.80503 0
M  V30 15926 H 1501.07 -6.79203 -1.53807 0
M  V30 15927 H 1498.7 -7.47959 -1.35871 0
M  V30 15928 N 1500.27 0.920374 -1.27933 0
M  V30 15929 C 1501.2 2.02644 -1.07089 0
M  V30 15930 C 1502.22 1.62781 -0.024674 0
M  V30 15931 O 1503.41 1.76491 -0.267023 0
M  V30 15932 C 1500.51 3.33476 -0.603919 0
M  V30 15933 C 1499.68 4.01988 -1.72407 0
M  V30 15934 C 1498.74 5.11098 -1.25159 0
M  V30 15935 O 1497.76 5.3466 -1.95261 0
M  V30 15936 N 1498.97 5.80393 -0.111197 0
M  V30 15937 H 1501.73 2.21085 -2.0234 0
M  V30 15938 H 1499.29 1.09124 -1.19597 0
M  V30 15939 H 1501.28 4.03788 -0.271579 0
M  V30 15940 H 1499.85 3.11554 0.255557 0
M  V30 15941 H 1499.07 3.25312 -2.22633 0
M  V30 15942 H 1500.36 4.4451 -2.47566 0
M  V30 15943 H 1499.76 5.63713 0.473746 0
M  V30 15944 H 1498.32 6.51599 0.161912 0
M  V30 15945 N 1501.75 1.10074 1.1279 0
M  V30 15946 C 1502.68 0.768146 2.20503 0
M  V30 15947 C 1503.66 -0.257199 1.68144 0
M  V30 15948 O 1504.85 -0.12379 1.93805 0
M  V30 15949 C 1501.98 0.195125 3.46751 0
M  V30 15950 C 1500.93 1.15074 4.1224 0
M  V30 15951 C 1500.26 0.439098 5.32894 0
M  V30 15952 C 1501.56 2.49584 4.58808 0
M  V30 15953 H 1503.25 1.66876 2.48581 0
M  V30 15954 H 1500.8 0.803806 1.19478 0
M  V30 15955 H 1502.75 -0.0496695 4.21371 0
M  V30 15956 H 1501.47 -0.740717 3.1809 0
M  V30 15957 H 1500.13 1.38092 3.39597 0
M  V30 15958 H 1499.78 -0.501096 5.00498 0
M  V30 15959 H 1499.48 1.07632 5.77658 0
M  V30 15960 H 1501 0.202761 6.10263 0
M  V30 15961 H 1502.42 2.30736 5.24818 0
M  V30 15962 H 1500.81 3.09157 5.14336 0
M  V30 15963 H 1501.88 3.09857 3.72984 0
M  V30 15964 N 1503.23 -1.30138 0.888926 0
M  V30 15965 C 1504.14 -2.31778 0.3628 0
M  V30 15966 C 1505.15 -1.65507 -0.53698 0
M  V30 15967 O 1506.33 -1.96775 -0.429152 0
M  V30 15968 C 1503.39 -3.44259 -0.410673 0
M  V30 15969 C 1502.46 -4.26147 0.519334 0
M  V30 15970 C 1501.69 -5.33257 -0.21732 0
M  V30 15971 O 1501.91 -5.5185 -1.44284 0
M  V30 15972 O 1500.85 -6.00329 0.43461 0
M  V30 15973 H 1504.67 -2.78739 1.20575 0
M  V30 15974 H 1502.26 -1.34379 0.65289 0
M  V30 15975 H 1504.14 -4.1277 -0.848467 0
M  V30 15976 H 1502.81 -2.99426 -1.22986 0
M  V30 15977 H 1501.72 -3.60319 1.00602 0
M  V30 15978 H 1503.05 -4.74595 1.30464 0
M  V30 15979 N 1504.71 -0.650285 -1.43559 0
M  V30 15980 C 1505.64 0.0295939 -2.33481 0
M  V30 15981 C 1506.62 0.815017 -1.49303 0
M  V30 15982 O 1507.8 0.77708 -1.77975 0
M  V30 15983 C 1504.93 0.998683 -3.32631 0
M  V30 15984 C 1503.89 0.323577 -4.26775 0
M  V30 15985 C 1503.21 1.40391 -5.1594 0
M  V30 15986 C 1504.51 -0.782197 -5.1641 0
M  V30 15987 H 1506.21 -0.721349 -2.9058 0
M  V30 15988 H 1503.75 -0.348339 -1.39723 0
M  V30 15989 H 1505.7 1.4832 -3.94435 0
M  V30 15990 H 1504.43 1.78075 -2.73782 0
M  V30 15991 H 1503.09 -0.140467 -3.66331 0
M  V30 15992 H 1502.74 2.17734 -4.53432 0
M  V30 15993 H 1502.44 0.957462 -5.79747 0
M  V30 15994 H 1503.96 1.88985 -5.80618 0
M  V30 15995 H 1505.37 -0.379966 -5.72039 0
M  V30 15996 H 1503.77 -1.15293 -5.88921 0
M  V30 15997 H 1504.84 -1.6414 -4.56274 0
M  V30 15998 N 1506.18 1.52647 -0.392018 0
M  V30 15999 C 1507.6 1.59544 -0.0421007 0
M  V30 16000 C 1507.8 1.40586 1.44353 0
M  V30 16001 O 1506.86 1.22422 2.20837 0
M  V30 16002 C 1508.17 2.9614 -0.521713 0
M  V30 16003 C 1509.72 3.09325 -0.478205 0
M  V30 16004 C 1510.19 4.48374 -0.93405 0
M  V30 16005 N 1511.68 4.54566 -0.890173 0
M  V30 16006 C 1512.42 5.60395 -1.21427 0
M  V30 16007 N 1511.91 6.73858 -1.60897 0
M  V30 16008 N 1513.71 5.50515 -1.13534 0
M  V30 16009 H 1505.86 1.63219 -1.35917 0
M  V30 16010 H 1508.12 0.766913 -0.557269 0
M  V30 16011 H 1507.83 3.15238 -1.55942 0
M  V30 16012 H 1507.7 3.7712 0.0777658 0
M  V30 16013 H 1510.09 2.89921 0.550418 0
M  V30 16014 H 1510.17 2.30292 -1.11352 0
M  V30 16015 H 1509.81 4.68519 -1.96092 0
M  V30 16016 H 1509.74 5.25878 -0.275717 0
M  V30 16017 H 1512.23 3.7311 -0.599758 0
M  V30 16018 H 1512.55 7.5058 -1.83983 0
M  V30 16019 H 1510.89 6.75182 -1.64786 0
M  V30 16020 H 1514.08 4.60755 -0.825977 0
M  V30 16021 H 1514.26 6.32889 -1.39124 0
M  V30 16022 N 1507.66 0.121921 1.57128 0
M  V30 16023 C 1508.91 -0.534313 1.94909 0
M  V30 16024 C 1509.23 -1.67029 1.0063 0
M  V30 16025 O 1508.5 -1.95798 0.0631366 0
M  V30 16026 H 1507.08 -0.200372 0.719625 0
M  V30 16027 H 1509.74 0.191546 1.93956 0
M  V30 16028 H 1508.84 -0.926974 2.98016 0
M  V30 16029 N 1509.14 -1.56867 -0.151857 0
M  V30 16030 C 1510.42 -1.7399 -0.893694 0
M  V30 16031 C 1510.8 -0.688628 -1.99552 0
M  V30 16032 O 1510.15 0.293289 -2.2661 0
M  V30 16033 C 1510.36 -3.1788 -1.44061 0
M  V30 16034 C 1511.7 -3.7942 -1.90592 0
M  V30 16035 O 1512.73 -3.21279 -1.53813 0
M  V30 16036 O 1511.59 -4.81549 -2.58404 0
M  V30 16037 H 1508.68 -0.711229 -0.421998 0
M  V30 16038 H 1511.23 -1.69137 -0.138162 0
M  V30 16039 H 1510 -3.85888 -0.648529 0
M  V30 16040 H 1509.62 -3.27139 -2.25978 0
M  V30 16041 N 1510.62 0.421051 -1.51871 0
M  V30 16042 C 1511.86 1.17082 -1.65589 0
M  V30 16043 C 1512.2 1.90469 -0.378861 0
M  V30 16044 O 1511.47 1.84277 0.622259 0
M  V30 16045 C 1511.76 2.17483 -2.87007 0
M  V30 16046 C 1511.61 1.48071 -4.24729 0
M  V30 16047 C 1512.93 3.18288 -3.03942 0
M  V30 16048 H 1510.05 0.424284 -0.602621 0
M  V30 16049 H 1512.69 0.457998 -1.84397 0
M  V30 16050 H 1510.84 2.78273 -2.71102 0
M  V30 16051 H 1512.51 0.904926 -4.52337 0
M  V30 16052 H 1510.75 0.782814 -4.26678 0
M  V30 16053 H 1511.42 2.21272 -5.0571 0
M  V30 16054 H 1513.9 2.67565 -3.18666 0
M  V30 16055 H 1512.78 3.85815 -3.90433 0
M  V30 16056 H 1513.04 3.85333 -2.16728 0
M  V30 16057 N 1512.1 1.42293 0.677538 0
M  V30 16058 C 1513.01 1.47953 1.82063 0
M  V30 16059 C 1514.02 0.36851 1.70053 0
M  V30 16060 O 1515.2 0.618996 1.91652 0
M  V30 16061 C 1512.26 1.3769 3.18186 0
M  V30 16062 C 1511.32 2.59261 3.42173 0
M  V30 16063 C 1510.56 2.49478 4.71801 0
M  V30 16064 O 1510.78 1.52915 5.49521 0
M  V30 16065 O 1509.71 3.39562 4.96972 0
M  V30 16066 H 1513.54 2.4443 1.80244 0
M  V30 16067 H 1511.13 1.24027 0.832932 0
M  V30 16068 H 1513.01 1.34319 3.9942 0
M  V30 16069 H 1511.68 0.443377 3.20649 0
M  V30 16070 H 1510.59 2.68207 2.60798 0
M  V30 16071 H 1511.92 3.51503 3.44538 0
M  V30 16072 N 1513.57 -0.913576 1.28419 0
M  V30 16073 C 1514.51 -2.01727 1.06683 0
M  V30 16074 C 1515.49 -1.62591 -0.0171379 0
M  V30 16075 O 1516.67 -1.88045 0.130827 0
M  V30 16076 C 1513.8 -3.32954 0.621229 0
M  V30 16077 C 1512.84 -3.91074 1.70187 0
M  V30 16078 S 1513.68 -4.21902 3.29786 0
M  V30 16079 C 1514.83 -5.5619 2.8706 0
M  V30 16080 H 1515.06 -2.19855 2.00127 0
M  V30 16081 H 1512.6 -1.05846 1.1241 0
M  V30 16082 H 1514.56 -4.08822 0.370832 0
M  V30 16083 H 1513.22 -3.12727 -0.293381 0
M  V30 16084 H 1512.41 -4.85813 1.3417 0
M  V30 16085 H 1512.01 -3.21843 1.90507 0
M  V30 16086 H 1514.3 -6.36085 2.33242 0
M  V30 16087 H 1515.25 -5.97119 3.80598 0
M  V30 16088 H 1515.65 -5.17386 2.25771 0
M  V30 16089 N 1515.05 -1.1067 -1.12204 0
M  V30 16090 C 1516 -0.757745 -2.18007 0
M  V30 16091 C 1516.97 0.26706 -1.63939 0
M  V30 16092 O 1518.15 0.145789 -1.90242 0
M  V30 16093 C 1515.29 -0.198379 -3.44529 0
M  V30 16094 C 1514.41 -1.27878 -4.12639 0
M  V30 16095 C 1513.54 -0.6808 -5.26819 0
M  V30 16096 C 1512.58 -1.74161 -5.868 0
M  V30 16097 N 1511.72 -1.16372 -6.92389 0
M  V30 16098 H 1516.56 -1.66418 -2.47202 0
M  V30 16099 H 1514.1 -0.831216 -1.21364 0
M  V30 16100 H 1516.05 0.143838 -4.16952 0
M  V30 16101 H 1514.68 0.671279 -3.15743 0
M  V30 16102 H 1513.74 -1.73808 -3.38371 0
M  V30 16103 H 1515.05 -2.08169 -4.53285 0
M  V30 16104 H 1514.2 -0.288172 -6.06015 0
M  V30 16105 H 1512.94 0.153521 -4.87458 0
M  V30 16106 H 1511.95 -2.14364 -5.06289 0
M  V30 16107 H 1513.17 -2.57882 -6.28231 0
M  V30 16108 H 1511.12 -0.350899 -6.55061 0
M  V30 16109 H 1511.03 -1.90344 -7.31646 0
M  V30 16110 H 1512.3 -0.797715 -7.75407 0
M  V30 16111 N 1516.53 1.29665 -0.895815 0
M  V30 16112 C 1517.78 1.9533 -0.518725 0
M  V30 16113 C 1518.1 1.70995 0.937322 0
M  V30 16114 O 1517.37 1.03955 1.66043 0
M  V30 16115 H 1515.95 0.722736 -0.188841 0
M  V30 16116 H 1518.61 1.57991 -1.14126 0
M  V30 16117 H 1517.71 3.04193 -0.698057 0
M  V30 16118 N 1518.01 0.657889 1.43212 0
M  V30 16119 C 1518.96 -0.0308596 2.30779 0
M  V30 16120 C 1519.93 -0.809951 1.45014 0
M  V30 16121 O 1521.11 -0.785615 1.73876 0
M  V30 16122 C 1518.25 -0.988048 3.30653 0
M  V30 16123 C 1517.36 -0.204567 4.31515 0
M  V30 16124 C 1516.5 -1.15598 5.1847 0
M  V30 16125 C 1515.54 -0.363197 6.11022 0
M  V30 16126 N 1514.67 -1.26644 6.90584 0
M  V30 16127 H 1519.51 0.721745 2.89128 0
M  V30 16128 H 1517.05 0.367677 1.42431 0
M  V30 16129 H 1519.01 -1.55666 3.87071 0
M  V30 16130 H 1517.64 -1.70747 2.73944 0
M  V30 16131 H 1516.69 0.48041 3.77354 0
M  V30 16132 H 1518 0.411684 4.97098 0
M  V30 16133 H 1517.16 -1.79507 5.79536 0
M  V30 16134 H 1515.9 -1.80613 4.53023 0
M  V30 16135 H 1514.9 0.28922 5.49039 0
M  V30 16136 H 1516.13 0.28262 6.78512 0
M  V30 16137 H 1514.07 -1.90331 6.27782 0
M  V30 16138 H 1513.99 -0.70486 7.52707 0
M  V30 16139 H 1515.26 -1.89353 7.56152 0
M  V30 16140 N 1519.49 -1.52437 0.400108 0
M  V30 16141 C 1520.73 -2.01312 -0.178252 0
M  V30 16142 C 1521.06 -1.28797 -1.46411 0
M  V30 16143 O 1520.33 -0.411211 -1.91536 0
M  V30 16144 H 1518.91 -0.743819 -0.0688613 0
M  V30 16145 H 1521.57 -1.87434 0.53428 0
M  V30 16146 H 1520.66 -3.09768 -0.380793 0
M  V30 16147 N 1520.96 -0.130252 -1.57061 0
M  V30 16148 C 1521.91 0.815767 -2.15902 0
M  V30 16149 C 1522.88 1.2558 -1.08715 0
M  V30 16150 O 1524.07 1.33132 -1.36677 0
M  V30 16151 C 1521.21 2.0561 -2.77162 0
M  V30 16152 C 1520.32 1.6634 -3.98692 0
M  V30 16153 C 1519.45 2.85425 -4.48002 0
M  V30 16154 C 1518.49 2.42449 -5.62036 0
M  V30 16155 N 1517.63 3.54486 -6.0604 0
M  V30 16156 H 1522.47 0.307164 -2.96413 0
M  V30 16157 H 1520.01 0.139913 -1.46433 0
M  V30 16158 H 1521.97 2.78298 -3.10815 0
M  V30 16159 H 1520.6 2.5391 -1.99323 0
M  V30 16160 H 1519.65 0.834817 -3.71127 0
M  V30 16161 H 1520.96 1.30765 -4.81354 0
M  V30 16162 H 1520.11 3.66325 -4.83623 0
M  V30 16163 H 1518.85 3.24235 -3.64312 0
M  V30 16164 H 1517.86 1.59985 -5.26008 0
M  V30 16165 H 1519.08 2.04744 -6.475 0
M  V30 16166 H 1517.03 3.92948 -5.25289 0
M  V30 16167 H 1516.95 3.22871 -6.83586 0
M  V30 16168 H 1518.21 4.35792 -6.46302 0
M  V30 16169 N 1522.44 1.56945 0.143535 0
M  V30 16170 C 1523.38 1.93682 1.20675 0
M  V30 16171 C 1524.35 0.803117 1.41382 0
M  V30 16172 O 1525.54 1.05905 1.55937 0
M  V30 16173 C 1522.67 2.21185 2.56505 0
M  V30 16174 C 1521.71 3.43817 2.52372 0
M  V30 16175 S 1522.54 4.9726 1.98728 0
M  V30 16176 C 1523.7 5.27889 3.3628 0
M  V30 16177 H 1523.93 2.83561 0.893345 0
M  V30 16178 H 1521.47 1.50397 0.349294 0
M  V30 16179 H 1523.42 2.3771 3.3467 0
M  V30 16180 H 1522.09 1.31964 2.85034 0
M  V30 16181 H 1521.28 3.60349 3.5237 0
M  V30 16182 H 1520.88 3.26552 1.82318 0
M  V30 16183 H 1523.17 5.21568 4.32404 0
M  V30 16184 H 1524.12 6.29318 3.24598 0
M  V30 16185 H 1524.52 4.55398 3.33576 0
M  V30 16186 N 1523.92 -0.412991 1.52093 0
M  V30 16187 C 1525.34 -0.751324 1.40809 0
M  V30 16188 C 1525.54 -1.94951 0.509543 0
M  V30 16189 O 1524.59 -2.52486 -0.026132 0
M  V30 16190 C 1525.91 -1.00888 2.8327 0
M  V30 16191 C 1527.45 -1.11183 2.92587 0
M  V30 16192 C 1527.93 -1.40217 4.36008 0
M  V30 16193 N 1529.42 -1.4709 4.39225 0
M  V30 16194 C 1530.16 -1.71174 5.47254 0
M  V30 16195 N 1529.65 -1.92887 6.65407 0
M  V30 16196 N 1531.44 -1.73157 5.34765 0
M  V30 16197 H 1523.6 0.375774 2.0905 0
M  V30 16198 H 1525.86 0.105817 0.942076 0
M  V30 16199 H 1525.56 -0.200872 3.51126 0
M  V30 16200 H 1525.44 -1.93008 3.2408 0
M  V30 16201 H 1527.83 -1.91043 2.24915 0
M  V30 16202 H 1527.91 -0.169078 2.55241 0
M  V30 16203 H 1527.55 -0.608754 5.04239 0
M  V30 16204 H 1527.48 -2.35737 4.70888 0
M  V30 16205 H 1529.97 -1.32114 3.54054 0
M  V30 16206 H 1530.28 -2.10704 7.43521 0
M  V30 16207 H 1528.63 -1.9016 6.68479 0
M  V30 16208 H 1531.82 -1.55728 4.41437 0
M  V30 16209 H 1531.99 -1.91587 6.1903 0
M  V30 16210 N 1525.4 -1.4265 -0.669982 0
M  V30 16211 C 1526.63 -1.46784 -1.45816 0
M  V30 16212 C 1527.04 -0.080606 -1.88628 0
M  V30 16213 O 1526.4 0.905687 -1.58441 0
M  V30 16214 C 1526.45 -2.39915 -2.70413 0
M  V30 16215 O 1526.17 -3.73241 -2.29396 0
M  V30 16216 C 1527.67 -2.53118 -3.63931 0
M  V30 16217 H 1524.89 -0.499076 -0.448513 0
M  V30 16218 H 1527.44 -1.87216 -0.822819 0
M  V30 16219 H 1525.59 -2.02722 -3.30125 0
M  V30 16220 H 1526.01 -4.23164 -3.09891 0
M  V30 16221 H 1527.48 -3.22395 -4.48069 0
M  V30 16222 H 1527.96 -1.57062 -4.10156 0
M  V30 16223 H 1528.56 -2.91052 -3.10111 0
M  V30 16224 N 1526.88 0.906753 -1.28902 0
M  V30 16225 C 1528.11 1.68774 -1.1916 0
M  V30 16226 C 1528.52 1.87523 0.251339 0
M  V30 16227 O 1527.86 1.4071 1.18095 0
M  V30 16228 C 1527.92 3.09676 -1.82596 0
M  V30 16229 C 1527.58 3.14185 -3.31869 0
M  V30 16230 C 1528.58 2.94858 -4.282 0
M  V30 16231 C 1526.27 3.36476 -3.72947 0
M  V30 16232 C 1528.26 2.97744 -5.63584 0
M  V30 16233 C 1525.95 3.38993 -5.08456 0
M  V30 16234 C 1526.95 3.19648 -6.03584 0
M  V30 16235 O 1526.63 3.2194 -7.3662 0
M  V30 16236 H 1526.37 0.534133 -0.41434 0
M  V30 16237 H 1528.92 1.14282 -1.70671 0
M  V30 16238 H 1527.15 3.65739 -1.25587 0
M  V30 16239 H 1528.84 3.6983 -1.67273 0
M  V30 16240 H 1529.6 2.77456 -3.97798 0
M  V30 16241 H 1525.48 3.50576 -2.99362 0
M  V30 16242 H 1529.03 2.82563 -6.37812 0
M  V30 16243 H 1524.92 3.55924 -5.38506 0
M  V30 16244 H 1525.69 3.38255 -7.45336 0
M  V30 16245 N 1528.36 1.11264 1.11616 0
M  V30 16246 C 1529.6 0.871546 1.83781 0
M  V30 16247 C 1529.96 -0.596417 1.82922 0
M  V30 16248 O 1529.25 -1.43461 1.27002 0
M  V30 16249 C 1529.44 1.36481 3.30315 0
M  V30 16250 C 1529.27 2.87919 3.45446 0
M  V30 16251 C 1528.04 3.5602 3.58577 0
M  V30 16252 C 1530.24 3.85983 3.39885 0
M  V30 16253 N 1528.22 4.95695 3.6216 0
M  V30 16254 C 1529.59 5.11716 3.50066 0
M  V30 16255 C 1531.65 3.78568 3.23405 0
M  V30 16256 C 1530.35 6.30908 3.45467 0
M  V30 16257 C 1532.38 4.97268 3.20122 0
M  V30 16258 C 1531.74 6.21854 3.30873 0
M  V30 16259 H 1527.84 0.372039 0.687831 0
M  V30 16260 H 1530.42 1.41664 1.33564 0
M  V30 16261 H 1528.59 0.84692 3.79054 0
M  V30 16262 H 1530.33 1.06705 3.90379 0
M  V30 16263 H 1527.08 3.06483 3.61061 0
M  V30 16264 H 1527.5 5.6851 3.67595 0
M  V30 16265 H 1532.15 2.83154 3.13981 0
M  V30 16266 H 1529.86 7.26602 3.5366 0
M  V30 16267 H 1533.45 4.93249 3.0854 0
M  V30 16268 H 1532.33 7.12163 3.28319 0
M  V30 16269 N 1529.83 -1.29188 0.902679 0
M  V30 16270 C 1530.76 -2.3006 0.399357 0
M  V30 16271 C 1531.74 -1.61724 -0.527199 0
M  V30 16272 O 1532.93 -1.89213 -0.437293 0
M  V30 16273 C 1530.06 -3.45309 -0.371331 0
M  V30 16274 C 1529.01 -4.25466 0.465068 0
M  V30 16275 C 1528.34 -5.32941 -0.433295 0
M  V30 16276 C 1529.64 -4.93287 1.71655 0
M  V30 16277 H 1531.33 -2.72409 1.24233 0
M  V30 16278 H 1528.88 -1.30958 0.598822 0
M  V30 16279 H 1530.83 -4.14955 -0.734207 0
M  V30 16280 H 1529.56 -3.01811 -1.24811 0
M  V30 16281 H 1528.22 -3.57532 0.810315 0
M  V30 16282 H 1527.86 -4.85688 -1.3083 0
M  V30 16283 H 1527.56 -5.87472 0.122657 0
M  V30 16284 H 1529.09 -6.05438 -0.792298 0
M  V30 16285 H 1530.5 -5.55353 1.42323 0
M  V30 16286 H 1528.9 -5.57763 2.21405 0
M  V30 16287 H 1529.97 -4.18406 2.45081 0
M  V30 16288 N 1531.31 -0.665475 -1.42861 0
M  V30 16289 C 1532.24 0.00482845 -2.335 0
M  V30 16290 C 1533.22 0.799135 -1.50159 0
M  V30 16291 O 1534.41 0.75816 -1.78789 0
M  V30 16292 C 1531.54 0.963347 -3.33672 0
M  V30 16293 C 1530.49 0.278294 -4.27094 0
M  V30 16294 C 1529.82 1.34911 -5.174 0
M  V30 16295 C 1531.12 -0.836925 -5.15551 0
M  V30 16296 H 1532.81 -0.752129 -2.89799 0
M  V30 16297 H 1530.36 -0.363139 -1.39346 0
M  V30 16298 H 1532.31 1.44128 -3.95986 0
M  V30 16299 H 1531.03 1.75161 -2.75656 0
M  V30 16300 H 1529.69 -0.179314 -3.66161 0
M  V30 16301 H 1529.34 2.12912 -4.55716 0
M  V30 16302 H 1529.04 0.895919 -5.8073 0
M  V30 16303 H 1530.57 1.82816 -5.8259 0
M  V30 16304 H 1531.98 -0.440617 -5.71604 0
M  V30 16305 H 1530.38 -1.21533 -5.87665 0
M  V30 16306 H 1531.45 -1.6897 -4.54507 0
M  V30 16307 N 1532.79 1.52222 -0.408187 0
M  V30 16308 C 1534.04 2.01404 0.167574 0
M  V30 16309 C 1534.36 1.29572 1.45726 0
M  V30 16310 O 1533.63 0.421363 1.91315 0
M  V30 16311 H 1532.21 0.744174 0.0649156 0
M  V30 16312 H 1534.87 1.87148 -0.544212 0
M  V30 16313 H 1533.97 3.09966 0.36436 0
M  V30 16314 N 1534.27 0.138579 1.5699 0
M  V30 16315 C 1535.18 -0.817548 2.19894 0
M  V30 16316 C 1536.19 -1.27806 1.18075 0
M  V30 16317 O 1537.37 -1.33699 1.5062 0
M  V30 16318 C 1534.43 -2.04244 2.80152 0
M  V30 16319 C 1533.5 -1.63197 3.97071 0
M  V30 16320 C 1532.73 -2.79847 4.54446 0
M  V30 16321 O 1532.95 -3.95827 4.10703 0
M  V30 16322 O 1531.89 -2.55804 5.44838 0
M  V30 16323 H 1535.71 -0.312123 3.02092 0
M  V30 16324 H 1533.3 -0.0880281 1.4914 0
M  V30 16325 H 1535.18 -2.75945 3.18485 0
M  V30 16326 H 1533.85 -2.53755 2.00973 0
M  V30 16327 H 1532.76 -0.885448 3.6347 0
M  V30 16328 H 1534.09 -1.1841 4.77745 0
M  V30 16329 N 1535.75 -1.57019 -0.13521 0
M  V30 16330 C 1537.16 -1.51949 -0.48824 0
M  V30 16331 C 1537.36 -0.848955 -1.82743 0
M  V30 16332 O 1536.42 -0.424441 -2.48907 0
M  V30 16333 C 1537.73 -2.96719 -0.487673 0
M  V30 16334 C 1539.28 -3.07722 -0.572365 0
M  V30 16335 C 1539.75 -4.54022 -0.602347 0
M  V30 16336 N 1541.24 -4.58413 -0.664242 0
M  V30 16337 C 1541.98 -5.69005 -0.70862 0
M  V30 16338 N 1541.48 -6.89135 -0.711626 0
M  V30 16339 N 1543.27 -5.57069 -0.750399 0
M  V30 16340 H 1535.42 -1.99001 0.742465 0
M  V30 16341 H 1537.68 -0.908116 0.272083 0
M  V30 16342 H 1537.39 -3.49082 0.428363 0
M  V30 16343 H 1537.26 -3.53299 -1.32136 0
M  V30 16344 H 1539.65 -2.55372 -1.47882 0
M  V30 16345 H 1539.73 -2.54166 0.288696 0
M  V30 16346 H 1539.37 -5.07013 0.3 0
M  V30 16347 H 1539.3 -5.05373 -1.48006 0
M  V30 16348 H 1541.8 -3.71936 -0.668739 0
M  V30 16349 H 1542.11 -7.69175 -0.747663 0
M  V30 16350 H 1540.45 -6.91672 -0.679311 0
M  V30 16351 H 1543.64 -4.62129 -0.745301 0
M  V30 16352 H 1543.82 -6.4327 -0.781518 0
M  V30 16353 N 1537.22 0.404919 -1.52309 0
M  V30 16354 C 1538.17 1.49363 -1.75953 0
M  V30 16355 C 1539.14 1.54802 -0.60212 0
M  V30 16356 O 1540.33 1.71308 -0.840128 0
M  V30 16357 C 1537.47 2.86767 -1.91987 0
M  V30 16358 C 1536.58 2.90603 -3.19646 0
M  V30 16359 C 1535.71 4.19333 -3.26088 0
M  V30 16360 C 1534.75 4.17161 -4.47932 0
M  V30 16361 N 1533.89 5.37469 -4.51743 0
M  V30 16362 H 1538.73 1.28503 -2.6887 0
M  V30 16363 H 1536.27 0.623684 -1.33224 0
M  V30 16364 H 1538.23 3.66536 -1.99267 0
M  V30 16365 H 1536.86 3.06112 -1.02447 0
M  V30 16366 H 1535.91 2.033 -3.21517 0
M  V30 16367 H 1537.22 2.84864 -4.09456 0
M  V30 16368 H 1536.37 5.07497 -3.32463 0
M  V30 16369 H 1535.11 4.27774 -2.34224 0
M  V30 16370 H 1534.12 3.27386 -4.417 0
M  V30 16371 H 1535.34 4.10356 -5.41096 0
M  V30 16372 H 1533.29 5.46569 -3.62764 0
M  V30 16373 H 1533.21 5.3374 -5.35404 0
M  V30 16374 H 1534.47 6.27575 -4.62353 0
M  V30 16375 N 1538.7 1.43003 0.662408 0
M  V30 16376 C 1539.95 1.43848 1.41958 0
M  V30 16377 C 1540.27 0.06046 1.94906 0
M  V30 16378 O 1539.54 -0.90287 1.73854 0
M  V30 16379 H 1538.12 0.529587 0.526827 0
M  V30 16380 H 1540.78 1.7853 0.781867 0
M  V30 16381 H 1539.88 2.14562 2.26649 0
M  V30 16382 N 1540.18 -0.899904 1.29381 0
M  V30 16383 C 1541.59 -1.46563 1.15655 0
M  V30 16384 C 1541.94 -1.94622 -0.248375 0
M  V30 16385 O 1541.07 -1.83698 -1.14386 0
M  V30 16386 C 1541.66 -2.66384 2.09344 0
M  V30 16387 C 1540.22 -3.19093 1.99641 0
M  V30 16388 C 1539.37 -1.91786 2.00283 0
M  V30 16389 H 1542.32 -0.711264 1.41869 0
M  V30 16390 H 1542.34 -3.42111 1.66554 0
M  V30 16391 H 1541.85 -2.31376 3.11587 0
M  V30 16392 H 1539.95 -3.58795 1.00485 0
M  V30 16393 H 1540.07 -3.83405 2.87293 0
M  V30 16394 H 1538.43 -2.09482 1.44878 0
M  V30 16395 H 1539.21 -1.59055 3.04231 0
M  V30 16396 N 1541.66 -1.11854 -1.11024 0
M  V30 16397 C 1543.07 -0.885443 -1.64368 0
M  V30 16398 C 1543.42 0.581455 -1.87386 0
M  V30 16399 O 1542.55 1.44452 -1.61129 0
M  V30 16400 C 1543.14 -1.60082 -2.98595 0
M  V30 16401 C 1541.7 -1.41403 -3.4883 0
M  V30 16402 C 1540.85 -1.64069 -2.23555 0
M  V30 16403 H 1543.8 -1.27418 -0.94606 0
M  V30 16404 H 1543.82 -1.04832 -3.65774 0
M  V30 16405 H 1543.33 -2.66842 -2.8181 0
M  V30 16406 H 1541.43 -0.368727 -3.70771 0
M  V30 16407 H 1541.54 -2.16603 -4.27341 0
M  V30 16408 H 1539.91 -1.06437 -2.31394 0
M  V30 16409 H 1540.69 -2.72112 -2.09308 0
M  V30 16410 N 1543.14 1.28707 -0.909517 0
M  V30 16411 C 1544.38 1.94768 -0.539413 0
M  V30 16412 C 1544.71 1.7198 0.919133 0
M  V30 16413 O 1543.98 1.0571 1.64931 0
M  V30 16414 H 1542.56 0.720693 -0.196496 0
M  V30 16415 H 1545.22 1.56772 -1.15795 0
M  V30 16416 H 1544.31 3.03436 -0.730281 0
M  V30 16417 N 1544.61 0.673042 1.42506 0
M  V30 16418 C 1545.54 0.00755467 2.33499 0
M  V30 16419 C 1546.53 -0.791161 1.50581 0
M  V30 16420 O 1547.71 -0.748668 1.79189 0
M  V30 16421 C 1544.84 -0.945638 3.34178 0
M  V30 16422 C 1543.79 -0.25564 4.27236 0
M  V30 16423 C 1543.12 -1.32165 5.18109 0
M  V30 16424 C 1544.42 0.864254 5.151 0
M  V30 16425 H 1546.11 0.767487 2.89396 0
M  V30 16426 H 1543.66 0.370524 1.39151 0
M  V30 16427 H 1545.61 -1.42026 3.96745 0
M  V30 16428 H 1544.34 -1.73697 2.76581 0
M  V30 16429 H 1543 0.19873 3.66061 0
M  V30 16430 H 1542.64 -2.10492 4.56839 0
M  V30 16431 H 1542.34 -0.865109 5.81197 0
M  V30 16432 H 1543.87 -1.79724 5.83551 0
M  V30 16433 H 1545.28 0.470924 5.71363 0
M  V30 16434 H 1543.68 1.24648 5.87012 0
M  V30 16435 H 1544.75 1.71378 4.53605 0
M  V30 16436 N 1546.09 -1.52004 0.416254 0
M  V30 16437 C 1547.02 -2.30106 -0.396671 0
M  V30 16438 C 1548 -1.34616 -1.03983 0
M  V30 16439 O 1549.19 -1.63528 -1.04749 0
M  V30 16440 C 1546.32 -3.12769 -1.50972 0
M  V30 16441 C 1545.27 -4.16365 -0.99119 0
M  V30 16442 C 1544.6 -4.87417 -2.19838 0
M  V30 16443 C 1545.9 -5.22284 -0.0402599 0
M  V30 16444 H 1547.59 -2.98312 0.255054 0
M  V30 16445 H 1545.14 -1.43464 0.124106 0
M  V30 16446 H 1547.09 -3.66178 -2.08547 0
M  V30 16447 H 1545.82 -2.42346 -2.18943 0
M  V30 16448 H 1544.47 -3.63976 -0.437803 0
M  V30 16449 H 1544.12 -4.13516 -2.8638 0
M  V30 16450 H 1543.82 -5.57454 -1.85792 0
M  V30 16451 H 1545.35 -5.43641 -2.78006 0
M  V30 16452 H 1546.76 -5.70891 -0.525027 0
M  V30 16453 H 1545.16 -5.99726 0.211742 0
M  V30 16454 H 1546.23 -4.7642 0.902877 0
M  V30 16455 O 1547.61 -0.287684 -1.58917 0
M  V30 16456 H 1548.3 0.279713 -1.9167 0
M  V30 END ATOM
M  V30 BEGIN BOND
M  V30 END BOND
M  V30 END CTAB
M  END
$$$$
