drugbank_target|P20674 Cytochrome c oxidase subunit 5A, mitochondrial (DB02659; DB04464)
 OpenBabel12092120443D

  0  0  0     0  0            999 V3000
M  V30 BEGIN CTAB
M  V30 COUNTS 2367 2391 0 0 0
M  V30 BEGIN ATOM
M  V30 1 H -0.908 1.98254 -0.117106 0
M  V30 2 N 0 1.576 0 0
M  V30 3 C 0.933 2.03868 1.02534 0
M  V30 4 C 1.911 0.928543 1.3348 0
M  V30 5 O 3.095 1.19667 1.45644 0
M  V30 6 C 0.222 2.43627 2.35294 0
M  V30 7 C -0.732 3.65373 2.2001 0
M  V30 8 S 0.101 5.13292 1.52614 0
M  V30 9 C 1.257 5.56322 2.86805 0
M  V30 10 H 1.49 2.90518 0.631377 0
M  V30 11 H -0.977 1.52953 0.210867 0
M  V30 12 H 0.981 2.67203 3.11629 0
M  V30 13 H -0.358 1.57376 2.7183 0
M  V30 14 H -1.165 3.90944 3.18086 0
M  V30 15 H -1.563 3.418 1.51819 0
M  V30 16 H 0.729 5.58782 3.83104 0
M  V30 17 H 1.672 6.56266 2.65933 0
M  V30 18 H 2.08 4.83886 2.90714 0
M  V30 19 N 1.4781 -0.272755 1.55222 0
M  V30 20 C 2.4081 -1.34136 1.91127 0
M  V30 21 C 3.3891 -1.51513 0.773168 0
M  V30 22 O 4.5741 -1.64552 1.03132 0
M  V30 23 C 1.7041 -2.70083 2.1834 0
M  V30 24 C 0.6581 -2.67437 3.34158 0
M  V30 25 C -0.0159 -4.06938 3.46851 0
M  V30 26 C 1.2841 -2.26686 4.70543 0
M  V30 27 H 2.9781 -1.04333 2.80633 0
M  V30 28 H 0.5241 -0.500454 1.35024 0
M  V30 29 H 2.4771 -3.44952 2.42046 0
M  V30 30 H 1.2011 -3.01469 1.25634 0
M  V30 31 H -0.1399 -1.95026 3.1042 0
M  V30 32 H -0.4919 -4.35547 2.51611 0
M  V30 33 H -0.7919 -4.06062 4.2472 0
M  V30 34 H 0.7321 -4.83545 3.72849 0
M  V30 35 H 2.1461 -2.91277 4.93792 0
M  V30 36 H 0.5431 -2.36971 5.5133 0
M  V30 37 H 1.6131 -1.21818 4.69349 0
M  V30 38 N 2.9562 -1.48159 -0.537278 0
M  V30 39 C 4.2042 -1.55497 -1.29094 0
M  V30 40 C 4.5252 -0.227454 -1.93669 0
M  V30 41 O 3.7952 0.750386 -1.80959 0
M  V30 42 H 2.3752 -0.572832 -0.47945 0
M  V30 43 H 5.0372 -1.84579 -0.625818 0
M  V30 44 H 4.1332 -2.33216 -2.07405 0
M  V30 45 N 4.4343 0.785586 -1.36625 0
M  V30 46 C 5.3973 1.87999 -1.31107 0
M  V30 47 C 6.3973 1.59316 -0.217959 0
M  V30 48 O 7.5873 1.67656 -0.472977 0
M  V30 49 C 4.7193 3.24861 -1.03334 0
M  V30 50 H 5.9123 1.94307 -2.2844 0
M  V30 51 H 3.4653 0.983813 -1.21453 0
M  V30 52 H 4.2003 3.24235 -0.0647432 0
M  V30 53 H 3.9853 3.4707 -1.82441 0
M  V30 54 H 5.4753 4.04929 -1.02088 0
M  V30 55 N 5.9124 1.20967 1.01018 0
M  V30 56 C 6.8754 0.965918 2.07853 0
M  V30 57 C 7.8754 -0.0610545 1.60684 0
M  V30 58 O 9.0654 0.175681 1.73312 0
M  V30 59 C 6.1974 0.455513 3.37843 0
M  V30 60 H 7.3904 1.91365 2.3091 0
M  V30 61 H 4.9434 1.02594 1.17916 0
M  V30 62 H 5.6784 -0.497381 3.20463 0
M  V30 63 H 5.4634 1.19622 3.73407 0
M  V30 64 H 6.9534 0.304667 4.16487 0
M  V30 65 N 7.3905 -1.2043 1.01659 0
M  V30 66 C 8.3205 -2.25466 0.607226 0
M  V30 67 C 9.3015 -1.65853 -0.377716 0
M  V30 68 O 10.4865 -1.92409 -0.263149 0
M  V30 69 C 7.6165 -3.47256 -0.0552949 0
M  V30 70 C 6.5705 -4.19462 0.850632 0
M  V30 71 C 5.8965 -5.34673 0.0538859 0
M  V30 72 C 7.1965 -4.75603 2.15868 0
M  V30 73 H 8.8905 -2.59962 1.48526 0
M  V30 74 H 6.4365 -1.2496 0.715605 0
M  V30 75 H 8.3895 -4.19917 -0.353233 0
M  V30 76 H 7.1135 -3.11924 -0.968045 0
M  V30 77 H 5.7725 -3.48667 1.13257 0
M  V30 78 H 5.4205 -4.95585 -0.860514 0
M  V30 79 H 5.1205 -5.83913 0.657192 0
M  V30 80 H 6.6445 -6.10138 -0.237598 0
M  V30 81 H 8.0585 -5.40083 1.92311 0
M  V30 82 H 6.4555 -5.3528 2.71284 0
M  V30 83 H 7.5255 -3.94346 2.82169 0
M  V30 84 N 8.8686 -0.792821 -1.36206 0
M  V30 85 C 10.2846 -0.474903 -1.52371 0
M  V30 86 C 10.4846 1.00622 -1.74578 0
M  V30 87 O 9.5406 1.79162 -1.77924 0
M  V30 88 C 10.8536 -1.3083 -2.70747 0
M  V30 89 C 12.4016 -1.30234 -2.84619 0
M  V30 90 C 12.8766 -2.11956 -4.06004 0
M  V30 91 N 14.3676 -2.09419 -4.13156 0
M  V30 92 C 15.1026 -2.69419 -5.06163 0
M  V30 93 N 14.5986 -3.3829 -6.04592 0
M  V30 94 N 16.3916 -2.59134 -4.98804 0
M  V30 95 H 8.5426 -1.75222 -1.20046 0
M  V30 96 H 10.8056 -0.745024 -0.586211 0
M  V30 97 H 10.5116 -2.35881 -2.6087 0
M  V30 98 H 10.3856 -0.95196 -3.6499 0
M  V30 99 H 12.7726 -0.259748 -2.93955 0
M  V30 100 H 12.8536 -1.69847 -1.91274 0
M  V30 101 H 12.4976 -3.16248 -3.97429 0
M  V30 102 H 12.4276 -1.69711 -4.98503 0
M  V30 103 H 14.9186 -1.59297 -3.42685 0
M  V30 104 H 15.2316 -3.81394 -6.7213 0
M  V30 105 H 13.5766 -3.42393 -6.04807 0
M  V30 106 H 16.7676 -2.04927 -4.20859 0
M  V30 107 H 16.9406 -3.06185 -5.711 0
M  V30 108 N 10.3467 1.47872 -0.545128 0
M  V30 109 C 11.7627 1.5829 -0.204032 0
M  V30 110 C 11.9627 1.54529 1.29317 0
M  V30 111 O 11.0187 1.44232 2.07252 0
M  V30 112 C 12.3317 2.89304 -0.819987 0
M  V30 113 C 13.8797 3.02864 -0.790105 0
M  V30 114 C 14.3547 4.3656 -1.38491 0
M  V30 115 N 15.8457 4.43165 -1.34755 0
M  V30 116 C 16.5807 5.45153 -1.77753 0
M  V30 117 N 16.0767 6.54016 -2.2855 0
M  V30 118 N 17.8697 5.36125 -1.68897 0
M  V30 119 H 10.0207 1.4856 -1.51802 0
M  V30 120 H 12.2837 0.706305 -0.632327 0
M  V30 121 H 11.9897 2.97757 -1.87173 0
M  V30 122 H 11.8637 3.75957 -0.305915 0
M  V30 123 H 14.2507 2.94014 0.252913 0
M  V30 124 H 14.3317 2.17782 -1.34181 0
M  V30 125 H 13.9757 4.46164 -2.42693 0
M  V30 126 H 13.9057 5.20353 -0.808754 0
M  V30 127 H 16.3967 3.65083 -0.975855 0
M  V30 128 H 16.7097 7.27994 -2.59314 0
M  V30 129 H 15.0547 6.54938 -2.32553 0
M  V30 130 H 18.2457 4.49975 -1.28998 0
M  V30 131 H 18.4187 6.15472 -2.02726 0
M  V30 132 N 11.8248 0.280983 1.55075 0
M  V30 133 C 13.0648 -0.335234 2.01632 0
M  V30 134 C 13.4288 -1.5261 1.16508 0
M  V30 135 O 14.6298 -2.21235 1.52672 0
M  V30 136 C 12.9008 -0.702172 3.50434 0
M  V30 137 S 14.4598 -1.30409 4.18974 0
M  V30 138 H 11.2778 -0.103967 0.703358 0
M  V30 139 H 13.8798 0.404187 1.91276 0
M  V30 140 H 12.5838 0.17333 4.10034 0
M  V30 141 H 12.1148 -1.4729 3.64786 0
M  V30 142 H 14.1298 -2.59253 4.23087 0
M  V30 143 N 13.3029 -1.57598 0.00835791 0
M  V30 144 C 14.2659 -2.07884 -0.965242 0
M  V30 145 C 15.2659 -0.989825 -1.26725 0
M  V30 146 O 16.4559 -1.25218 -1.21104 0
M  V30 147 C 13.5879 -2.52731 -2.28779 0
M  V30 148 H 14.7809 -2.95178 -0.530112 0
M  V30 149 H 12.3339 -1.54458 -0.239283 0
M  V30 150 H 13.0689 -1.68705 -2.76964 0
M  V30 151 H 12.8539 -3.32272 -2.08177 0
M  V30 152 H 14.3439 -2.91933 -2.98605 0
M  V30 153 N 14.781 0.264519 -1.55364 0
M  V30 154 C 16.027 0.99646 -1.76631 0
M  V30 155 C 16.36 1.85632 -0.570478 0
M  V30 156 O 15.635 1.89647 0.43175 0
M  V30 157 C 15.918 1.87187 -3.07625 0
M  V30 158 C 15.771 1.04138 -4.37579 0
M  V30 159 C 17.09 2.85749 -3.34717 0
M  V30 160 H 14.209 0.360841 -0.642622 0
M  V30 161 H 16.851 0.268218 -1.88097 0
M  V30 162 H 15.001 2.49279 -2.9798 0
M  V30 163 H 16.673 0.440517 -4.59192 0
M  V30 164 H 14.916 0.345115 -4.32425 0
M  V30 165 H 15.587 1.68729 -5.2558 0
M  V30 166 H 18.063 2.33793 -3.4421 0
M  V30 167 H 16.939 3.44136 -4.27623 0
M  V30 168 H 17.2 3.61311 -2.54768 0
M  V30 169 N 16.2591 1.48442 0.529413 0
M  V30 170 C 17.2221 1.62524 1.61612 0
M  V30 171 C 18.2221 0.498509 1.52877 0
M  V30 172 O 19.4121 0.76431 1.56537 0
M  V30 173 C 16.5441 1.59597 3.01233 0
M  V30 174 H 17.7371 2.59423 1.50465 0
M  V30 175 H 15.2901 1.37047 0.751514 0
M  V30 176 H 16.0251 0.641781 3.17886 0
M  V30 177 H 15.8101 2.41397 3.08982 0
M  V30 178 H 17.3001 1.72646 3.80241 0
M  V30 179 N 17.7372 -0.778329 1.37039 0
M  V30 180 C 18.7002 -1.87301 1.32102 0
M  V30 181 C 19.7002 -1.59198 0.226405 0
M  V30 182 O 20.8902 -1.67403 0.481861 0
M  V30 183 C 18.0222 -3.24309 1.05055 0
M  V30 184 H 19.2152 -1.93093 2.29467 0
M  V30 185 H 16.7682 -0.977358 1.21973 0
M  V30 186 H 17.5032 -3.24196 0.0819373 0
M  V30 187 H 17.2882 -3.46098 1.84279 0
M  V30 188 H 18.7782 -4.04382 1.04234 0
M  V30 189 N 19.2153 -1.21501 -1.00376 0
M  V30 190 C 20.4433 -1.059 -1.77744 0
M  V30 191 C 20.8583 0.391125 -1.84704 0
M  V30 192 O 20.2153 1.27133 -1.30933 0
M  V30 193 C 20.2663 -1.65111 -3.21591 0
M  V30 194 O 19.9873 -3.0445 -3.15027 0
M  V30 195 C 21.4883 -1.54637 -4.15454 0
M  V30 196 H 18.7083 -0.371825 -0.558558 0
M  V30 197 H 21.2523 -1.60865 -1.26264 0
M  V30 198 H 19.4073 -1.14235 -3.70175 0
M  V30 199 H 19.8213 -3.3278 -4.0541 0
M  V30 200 H 21.2953 -2.00808 -5.14179 0
M  V30 201 H 21.7723 -0.501022 -4.36333 0
M  V30 202 H 22.3783 -2.04767 -3.72761 0
M  V30 203 N 20.6934 1.19889 -1.02296 0
M  V30 204 C 21.9214 1.9339 -0.735399 0
M  V30 205 C 22.3364 1.75148 0.704887 0
M  V30 206 O 21.6934 1.06954 1.47875 0
M  V30 207 C 21.7444 3.45313 -1.06962 0
M  V30 208 O 21.4654 3.62964 -2.45334 0
M  V30 209 C 22.9664 4.35948 -0.804021 0
M  V30 210 H 20.1864 0.61448 -0.269546 0
M  V30 211 H 22.7304 1.522 -1.36585 0
M  V30 212 H 20.8854 3.84359 -0.484455 0
M  V30 213 H 21.2994 4.56886 -2.57595 0
M  V30 214 H 22.7734 5.41174 -1.0879 0
M  V30 215 H 23.2504 4.3842 0.261691 0
M  V30 216 H 23.8564 4.02574 -1.37164 0
M  V30 217 N 22.1715 0.800033 1.35784 0
M  V30 218 C 23.5875 0.482977 1.52117 0
M  V30 219 C 23.7875 -0.996948 1.75109 0
M  V30 220 O 22.8435 -1.78216 1.78872 0
M  V30 221 C 24.1565 1.32264 2.70049 0
M  V30 222 C 25.7045 1.31742 2.83924 0
M  V30 223 C 26.1795 2.14106 4.04874 0
M  V30 224 N 27.6705 2.11607 4.12039 0
M  V30 225 C 28.4055 2.72099 5.04727 0
M  V30 226 N 27.9015 3.41492 6.02789 0
M  V30 227 N 29.6945 2.61776 4.97423 0
M  V30 228 H 21.8455 1.75856 1.19115 0
M  V30 229 H 24.1085 0.748122 0.582252 0
M  V30 230 H 23.8145 2.37261 2.59616 0
M  V30 231 H 23.6885 0.971303 3.6448 0
M  V30 232 H 26.0755 0.275333 2.93813 0
M  V30 233 H 26.1565 1.70859 1.9037 0
M  V30 234 H 25.8005 3.18351 3.95746 0
M  V30 235 H 25.7305 1.72353 4.97596 0
M  V30 236 H 28.2215 1.61112 3.41835 0
M  V30 237 H 28.5345 3.84953 6.70098 0
M  V30 238 H 26.8795 3.45596 6.02983 0
M  V30 239 H 30.0705 2.07157 4.19766 0
M  V30 240 H 30.2435 3.0921 5.69468 0
M  V30 241 N 23.6496 -1.47581 0.552962 0
M  V30 242 C 24.6126 -2.28439 -0.186605 0
M  V30 243 C 25.6126 -1.36706 -0.84665 0
M  V30 244 O 26.8026 -1.59378 -0.703164 0
M  V30 245 C 23.9346 -3.16264 -1.2724 0
M  V30 246 H 25.1276 -2.95294 0.523609 0
M  V30 247 H 22.6806 -1.532 0.309745 0
M  V30 248 H 23.4156 -2.54091 -2.01514 0
M  V30 249 H 23.2006 -3.83769 -0.803968 0
M  V30 250 H 24.6906 -3.77198 -1.79196 0
M  V30 251 N 25.1277 -0.289203 -1.54924 0
M  V30 252 C 26.4047 0.376032 -1.91951 0
M  V30 253 C 26.7847 1.72622 -1.21511 0
M  V30 254 O 26.1327 2.25853 -0.346767 0
M  V30 255 C 26.3427 0.502378 -3.45365 0
M  V30 256 C 27.6907 0.778741 -4.17398 0
M  V30 257 O 28.7147 0.586647 -3.51336 0
M  V30 258 O 27.5737 1.14698 -5.34328 0
M  V30 259 H 24.6677 0.208167 -0.800372 0
M  V30 260 H 27.2137 -0.336394 -1.66332 0
M  V30 261 H 25.9857 -0.447255 -3.88736 0
M  V30 262 H 25.6087 1.26373 -3.76982 0
M  V30 263 N 26.6058 1.57591 -0.0167156 0
M  V30 264 C 28.0168 1.79201 0.523834 0
M  V30 265 C 28.3678 0.925796 1.72984 0
M  V30 266 O 27.4928 0.132792 2.15992 0
M  V30 267 C 28.0878 3.25 0.957091 0
M  V30 268 C 26.6468 3.47648 1.44283 0
M  V30 269 C 25.7938 2.74374 0.401757 0
M  V30 270 H 28.7448 1.56831 -0.242816 0
M  V30 271 H 28.7658 3.34031 1.82219 0
M  V30 272 H 28.2778 3.88019 0.0791415 0
M  V30 273 H 26.3788 2.89866 2.34113 0
M  V30 274 H 26.4918 4.56352 1.45877 0
M  V30 275 H 24.8558 2.39485 0.867121 0
M  V30 276 H 25.6388 3.40102 -0.467513 0
M  V30 277 N 28.0839 -0.256276 1.55502 0
M  V30 278 C 29.4999 -0.604325 1.47716 0
M  V30 279 C 29.6999 -1.88763 0.705039 0
M  V30 280 O 28.7559 -2.51445 0.230613 0
M  V30 281 C 30.0689 -0.715756 2.92057 0
M  V30 282 C 31.6169 -0.808706 3.02372 0
M  V30 283 C 32.0919 -0.951777 4.48001 0
M  V30 284 N 33.5829 -1.01688 4.519 0
M  V30 285 C 34.3179 -1.14668 5.61817 0
M  V30 286 N 33.8139 -1.24261 6.81565 0
M  V30 287 N 35.6069 -1.1791 5.49594 0
M  V30 288 H 27.7579 0.586291 2.04148 0
M  V30 289 H 30.0209 0.201015 0.926443 0
M  V30 290 H 29.7269 0.157027 3.51349 0
M  V30 291 H 29.6009 -1.59071 3.42018 0
M  V30 292 H 31.9879 -1.67195 2.43166 0
M  V30 293 H 32.0689 0.0912063 2.55637 0
M  V30 294 H 31.7129 -0.0931291 5.07815 0
M  V30 295 H 31.6429 -1.86659 4.92408 0
M  V30 296 H 34.1339 -0.954468 3.65648 0
M  V30 297 H 34.4469 -1.34046 7.61086 0
M  V30 298 H 32.7919 -1.21236 6.84344 0
M  V30 299 H 35.9829 -1.10057 4.54978 0
M  V30 300 H 36.1559 -1.27681 6.35296 0
M  V30 301 N 29.562 -1.4872 -0.521534 0
M  V30 302 C 30.81 -1.56857 -1.27437 0
M  V30 303 C 31.131 -0.247982 -1.93417 0
M  V30 304 O 30.401 0.731151 -1.81744 0
M  V30 305 H 28.981 -0.577885 -0.473347 0
M  V30 306 H 31.643 -1.85233 -0.606205 0
M  V30 307 H 30.739 -2.35402 -2.0492 0
M  V30 308 N 31.0401 0.771051 -1.3745 0
M  V30 309 C 31.9701 1.89827 -1.3597 0
M  V30 310 C 32.9511 1.68562 -0.228216 0
M  V30 311 O 34.1361 1.8941 -0.428675 0
M  V30 312 C 31.2661 3.2712 -1.16662 0
M  V30 313 C 30.2201 3.6295 -2.2683 0
M  V30 314 C 29.5461 4.98791 -1.92644 0
M  V30 315 C 30.8461 3.69627 -3.69017 0
M  V30 316 H 32.5401 1.91323 -2.30295 0
M  V30 317 H 30.0861 0.919082 -1.10855 0
M  V30 318 H 32.0391 4.05615 -1.14256 0
M  V30 319 H 30.7631 3.26059 -0.187926 0
M  V30 320 H 29.4221 2.86763 -2.28392 0
M  V30 321 H 29.0701 4.94271 -0.933021 0
M  V30 322 H 28.7701 5.23733 -2.66416 0
M  V30 323 H 30.2941 5.79685 -1.91826 0
M  V30 324 H 31.7081 4.38273 -3.69581 0
M  V30 325 H 30.1051 4.06067 -4.41848 0
M  V30 326 H 31.1751 2.70273 -4.02592 0
M  V30 327 N 32.5182 1.22032 0.997298 0
M  V30 328 C 33.4482 1.01065 2.10495 0
M  V30 329 C 34.4292 -0.0669542 1.69968 0
M  V30 330 O 35.6142 0.0943987 1.9397 0
M  V30 331 C 32.7442 0.582874 3.42374 0
M  V30 332 C 31.6982 1.60592 3.96729 0
M  V30 333 C 31.0242 1.03412 5.24605 0
M  V30 334 C 32.3242 2.99478 4.27914 0
M  V30 335 H 34.0182 1.93708 2.28292 0
M  V30 336 H 31.5642 0.932761 1.09707 0
M  V30 337 H 33.5172 0.423332 4.19268 0
M  V30 338 H 32.2412 -0.379213 3.24391 0
M  V30 339 H 30.9002 1.75316 3.21963 0
M  V30 340 H 30.5482 0.063518 5.0296 0
M  V30 341 H 30.2482 1.71754 5.61938 0
M  V30 342 H 31.7722 0.886066 6.04137 0
M  V30 343 H 33.1862 2.88153 4.95622 0
M  V30 344 H 31.5832 3.64903 4.76409 0
M  V30 345 H 32.6532 3.49742 3.3587 0
M  V30 346 N 33.9963 -1.19345 1.0293 0
M  V30 347 C 34.9463 -2.20472 0.58104 0
M  V30 348 C 35.9303 -1.56578 -0.370442 0
M  V30 349 O 37.1223 -1.75963 -0.191344 0
M  V30 350 C 34.2513 -3.43236 -0.066306 0
M  V30 351 C 33.3373 -4.14274 0.907642 0
M  V30 352 N 33.7283 -4.61492 2.07023 0
M  V30 353 C 32.0263 -4.39966 0.731177 0
M  V30 354 C 32.7273 -5.1605 2.68454 0
M  V30 355 N 31.7033 -5.06875 1.96414 0
M  V30 356 H 35.5053 -2.54659 1.46717 0
M  V30 357 H 33.0193 -1.35423 0.896345 0
M  V30 358 H 35.0163 -4.14927 -0.405068 0
M  V30 359 H 33.6763 -3.10549 -0.948118 0
M  V30 360 H 34.6873 -4.56304 2.44963 0
M  V30 361 H 31.3643 -4.17377 -0.101507 0
M  V30 362 H 32.7543 -5.6287 3.66915 0
M  V30 363 N 35.4744 -0.807222 -1.35358 0
M  V30 364 C 36.6994 -0.399309 -2.0352 0
M  V30 365 C 37.1244 0.981986 -1.60433 0
M  V30 366 O 36.4824 1.63601 -0.781299 0
M  V30 367 C 36.5304 -0.491552 -3.57234 0
M  V30 368 O 35.6344 0.494754 -4.09421 0
M  V30 369 H 34.9754 -0.166682 -0.642739 0
M  V30 370 H 37.5054 -1.09328 -1.72941 0
M  V30 371 H 37.5154 -0.361588 -4.06395 0
M  V30 372 H 36.1904 -1.49907 -3.87944 0
M  V30 373 H 34.7674 0.324977 -3.71481 0
M  V30 374 N 36.9525 1.47285 -0.560781 0
M  V30 375 C 37.9155 2.28535 0.174488 0
M  V30 376 C 38.9155 1.37153 0.839388 0
M  V30 377 O 40.1055 1.59748 0.694702 0
M  V30 378 C 37.2375 3.16934 1.25561 0
M  V30 379 H 38.4305 2.95012 -0.539262 0
M  V30 380 H 35.9835 1.53034 -0.317865 0
M  V30 381 H 36.7185 2.55157 2.00164 0
M  V30 382 H 36.5035 3.8419 0.783604 0
M  V30 383 H 37.9935 3.78143 1.77193 0
M  V30 384 N 38.4306 0.297415 1.54768 0
M  V30 385 C 39.8466 -0.0560823 1.59501 0
M  V30 386 C 40.0466 -1.52725 1.31444 0
M  V30 387 O 39.1026 -2.27947 1.08611 0
M  V30 388 C 40.4156 0.338631 2.98787 0
M  V30 389 C 41.9636 0.287097 3.11681 0
M  V30 390 C 42.4386 0.656579 4.53269 0
M  V30 391 N 43.9296 0.608977 4.59179 0
M  V30 392 C 44.6646 0.867385 5.66802 0
M  V30 393 N 44.1606 1.19157 6.82476 0
M  V30 394 N 45.9536 0.794687 5.56454 0
M  V30 395 H 38.1046 1.25624 1.71267 0
M  V30 396 H 40.3676 0.509057 0.799728 0
M  V30 397 H 40.0736 1.36263 3.2423 0
M  V30 398 H 39.9476 -0.309508 3.75928 0
M  V30 399 H 42.3346 -0.727649 2.85988 0
M  V30 400 H 42.4156 0.969809 2.36703 0
M  V30 401 H 42.0596 1.66912 4.7969 0
M  V30 402 H 41.9896 -0.0481649 5.26578 0
M  V30 403 H 44.4806 0.369198 3.76092 0
M  V30 404 H 44.7936 1.37482 7.60473 0
M  V30 405 H 43.1386 1.22958 6.84037 0
M  V30 406 H 46.3296 0.541098 4.64962 0
M  V30 407 H 46.5026 0.999445 6.40246 0
M  V30 408 N 39.9087 -1.5758 0.0250728 0
M  V30 409 C 41.1367 -1.9593 -0.664747 0
M  V30 410 C 41.5517 -0.901352 -1.65895 0
M  V30 411 O 40.9087 0.117255 -1.82123 0
M  V30 412 C 40.9597 -3.34342 -1.37468 0
M  V30 413 O 40.6807 -4.36079 -0.420324 0
M  V30 414 C 42.1817 -3.873 -2.1567 0
M  V30 415 H 39.4017 -0.645405 -0.183557 0
M  V30 416 H 41.9457 -2.04329 0.0836372 0
M  V30 417 H 40.1007 -3.27175 -2.0745 0
M  V30 418 H 40.5147 -5.16297 -0.923991 0
M  V30 419 H 41.9887 -4.86504 -2.60803 0
M  V30 420 H 42.4657 -3.21331 -2.99405 0
M  V30 421 H 43.0717 -3.97723 -1.50654 0
M  V30 422 N 41.3868 0.248026 -1.55636 0
M  V30 423 C 42.7978 0.817177 -1.67866 0
M  V30 424 C 43.1488 1.86069 -0.622322 0
M  V30 425 O 42.2738 2.15157 0.231618 0
M  V30 426 C 42.8688 1.489 -3.04326 0
M  V30 427 C 41.4278 2.00587 -3.185 0
M  V30 428 C 40.5748 0.856573 -2.63739 0
M  V30 429 H 43.5258 0.0238579 -1.58682 0
M  V30 430 H 43.5468 2.35698 -2.98708 0
M  V30 431 H 43.0588 0.729279 -3.81186 0
M  V30 432 H 41.1598 2.79443 -2.4646 0
M  V30 433 H 41.2728 2.20402 -4.25393 0
M  V30 434 H 39.6368 1.25678 -2.21534 0
M  V30 435 H 40.4198 0.109953 -3.43124 0
M  V30 436 N 42.8649 1.48995 0.513639 0
M  V30 437 C 44.1129 1.57531 1.26604 0
M  V30 438 C 44.4339 0.258236 1.93283 0
M  V30 439 O 43.7039 -0.721502 1.8213 0
M  V30 440 H 42.2839 0.580387 0.470276 0
M  V30 441 H 44.9459 1.85552 0.596373 0
M  V30 442 H 44.0419 2.36486 2.03669 0
M  V30 443 N 44.343 -0.763751 1.37857 0
M  V30 444 C 45.754 -1.3405 1.29952 0
M  V30 445 C 46.105 -1.96138 -0.0492898 0
M  V30 446 O 45.23 -1.94372 -0.951239 0
M  V30 447 C 45.825 -2.43729 2.35333 0
M  V30 448 C 44.384 -2.97151 2.31037 0
M  V30 449 C 43.531 -1.70438 2.18738 0
M  V30 450 H 46.482 -0.563396 1.48363 0
M  V30 451 H 46.503 -3.23412 2.00462 0
M  V30 452 H 46.015 -1.9851 3.33489 0
M  V30 453 H 44.116 -3.46724 1.3643 0
M  V30 454 H 44.229 -3.52221 3.24772 0
M  V30 455 H 42.593 -1.93673 1.65418 0
M  V30 456 H 43.376 -1.27312 3.18821 0
M  V30 457 N 45.8211 -1.22559 -0.990812 0
M  V30 458 C 46.7841 -0.998863 -2.0629 0
M  V30 459 C 47.7841 0.0354834 -1.60761 0
M  V30 460 O 48.9741 -0.203231 -1.7301 0
M  V30 461 C 46.1061 -0.509203 -3.37076 0
M  V30 462 H 47.2991 -1.95014 -2.27837 0
M  V30 463 H 44.8521 -1.04456 -1.16269 0
M  V30 464 H 45.5871 0.446335 -3.21214 0
M  V30 465 H 45.3721 -1.25547 -3.71457 0
M  V30 466 H 46.8621 -0.370888 -4.1595 0
M  V30 467 N 47.2992 1.18797 -1.03562 0
M  V30 468 C 48.5452 1.8893 -0.737113 0
M  V30 469 C 48.8782 1.79837 0.732956 0
M  V30 470 O 48.1532 1.19525 1.5344 0
M  V30 471 C 48.4362 3.39607 -1.19745 0
M  V30 472 C 48.2892 3.57537 -2.72924 0
M  V30 473 C 49.6082 4.33069 -0.783526 0
M  V30 474 H 46.7272 0.686057 -0.269249 0
M  V30 475 H 49.3692 1.39797 -1.28673 0
M  V30 476 H 47.5192 3.81583 -0.729855 0
M  V30 477 H 49.1912 3.24688 -3.27682 0
M  V30 478 H 47.4342 3.00363 -3.12993 0
M  V30 479 H 48.1052 4.63238 -3.00191 0
M  V30 480 H 50.5812 3.98846 -1.18581 0
M  V30 481 H 49.4572 5.3707 -1.13343 0
M  V30 482 H 49.7182 4.40986 0.313681 0
M  V30 483 N 48.7773 0.814389 1.34928 0
M  V30 484 C 49.7403 0.235759 2.27984 0
M  V30 485 C 50.7403 -0.581412 1.49921 0
M  V30 486 O 51.9303 -0.398758 1.69575 0
M  V30 487 C 49.0623 -0.670433 3.34242 0
M  V30 488 H 50.2553 1.05659 2.80671 0
M  V30 489 H 47.8083 0.585614 1.44915 0
M  V30 490 H 48.5433 -1.51466 2.86755 0
M  V30 491 H 48.3283 -0.0860822 3.92005 0
M  V30 492 H 49.8183 -1.06935 4.03676 0
M  V30 493 N 50.2554 -1.46986 0.568584 0
M  V30 494 C 51.5044 -2.01646 0.0465894 0
M  V30 495 C 51.8174 -1.44721 -1.31587 0
M  V30 496 O 53.0234 -1.91113 -1.92842 0
M  V30 497 C 51.4794 -3.59885 0.032752 0
M  V30 498 C 51.0874 -4.25804 1.39266 0
M  V30 499 C 52.8314 -4.22255 -0.436038 0
M  V30 500 C 50.7384 -5.76081 1.33732 0
M  V30 501 H 49.6684 -0.753876 0.013647 0
M  V30 502 H 52.3194 -1.68864 0.718131 0
M  V30 503 H 50.7014 -3.8968 -0.704669 0
M  V30 504 H 51.8754 -4.07637 2.1487 0
M  V30 505 H 50.1904 -3.7547 1.80032 0
M  V30 506 H 52.7874 -5.32394 -0.49602 0
M  V30 507 H 53.1304 -3.90212 -1.45053 0
M  V30 508 H 53.6634 -3.97033 0.246877 0
M  V30 509 H 50.4024 -6.12761 2.32817 0
M  V30 510 H 49.9224 -5.96553 0.623267 0
M  V30 511 H 51.6014 -6.38518 1.0442 0
M  V30 512 N 51.7335 -0.305618 -1.54608 0
M  V30 513 C 52.6655 0.602161 -2.21149 0
M  V30 514 C 53.6785 1.09394 -1.20569 0
M  V30 515 O 54.8675 1.0106 -1.47136 0
M  V30 516 C 51.9675 1.83692 -2.84799 0
M  V30 517 C 51.1405 1.48686 -4.11353 0
M  V30 518 C 50.1995 2.57725 -4.58764 0
M  V30 519 O 49.2255 2.22623 -5.23858 0
M  V30 520 N 50.4275 3.88346 -4.31471 0
M  V30 521 H 53.1925 0.0324966 -2.99682 0
M  V30 522 H 50.7535 -0.128021 -1.61393 0
M  V30 523 H 52.7455 2.55994 -3.13448 0
M  V30 524 H 51.3155 2.31486 -2.10078 0
M  V30 525 H 50.5355 0.596269 -3.89664 0
M  V30 526 H 51.8235 1.22842 -4.93748 0
M  V30 527 H 51.2215 4.19671 -3.79331 0
M  V30 528 H 49.7785 4.56932 -4.64818 0
M  V30 529 N 53.2116 1.57565 -0.0334293 0
M  V30 530 C 54.4366 1.96689 0.657895 0
M  V30 531 C 54.8616 0.910057 1.64619 0
M  V30 532 O 54.2196 -0.128598 1.80843 0
M  V30 533 C 54.2676 3.34905 1.33683 0
M  V30 534 O 53.3716 3.31574 2.45219 0
M  V30 535 H 52.7126 0.641205 0.172489 0
M  V30 536 H 55.2426 2.04372 -0.0965621 0
M  V30 537 H 55.2526 3.71234 1.69262 0
M  V30 538 H 53.9276 4.11366 0.612411 0
M  V30 539 H 52.5046 3.06968 2.11719 0
M  V30 540 N 54.6897 -0.239769 1.55765 0
M  V30 541 C 55.9357 -0.968234 1.78194 0
M  V30 542 C 56.2687 -1.84701 0.599938 0
M  V30 543 O 55.5437 -1.9031 -0.401524 0
M  V30 544 C 55.8267 -1.8227 3.10564 0
M  V30 545 C 55.6797 -0.971633 4.3918 0
M  V30 546 C 56.9987 -2.80388 3.39221 0
M  V30 547 H 54.1177 -0.350572 0.648281 0
M  V30 548 H 56.7597 -0.238259 1.885 0
M  V30 549 H 54.9097 -2.44507 3.01908 0
M  V30 550 H 56.5817 -0.367408 4.59835 0
M  V30 551 H 54.8247 -0.276276 4.32919 0
M  V30 552 H 55.4957 -1.60346 5.28198 0
M  V30 553 H 57.9717 -2.28287 3.47885 0
M  V30 554 H 56.8477 -3.3729 4.33044 0
M  V30 555 H 57.1087 -3.57212 2.60484 0
M  V30 556 N 56.1678 -1.49265 -0.50573 0
M  V30 557 C 57.5838 -1.35923 -0.836486 0
M  V30 558 C 57.7838 -0.388704 -1.97715 0
M  V30 559 O 56.8398 0.181336 -2.51848 0
M  V30 560 C 58.1528 -2.76531 -1.18115 0
M  V30 561 C 59.7008 -2.85197 -1.28964 0
M  V30 562 C 60.1758 -4.26561 -1.66761 0
M  V30 563 N 61.6668 -4.2935 -1.73819 0
M  V30 564 C 62.4018 -5.35693 -2.045 0
M  V30 565 N 61.8978 -6.52287 -2.33438 0
M  V30 566 N 63.6908 -5.23105 -2.05711 0
M  V30 567 H 55.8418 -2.10965 0.246519 0
M  V30 568 H 58.1048 -0.9468 0.0476887 0
M  V30 569 H 57.8108 -3.49226 -0.416398 0
M  V30 570 H 57.6848 -3.11599 -2.1257 0
M  V30 571 H 60.0718 -2.12742 -2.04511 0
M  V30 572 H 60.1528 -2.53718 -0.325704 0
M  V30 573 H 59.7968 -4.99541 -0.917656 0
M  V30 574 H 59.7268 -4.55502 -2.64246 0
M  V30 575 H 62.2178 -3.4526 -1.53635 0
M  V30 576 H 62.5308 -7.29158 -2.56024 0
M  V30 577 H 60.8758 -6.55521 -2.30905 0
M  V30 578 H 64.0668 -4.31026 -1.82577 0
M  V30 579 H 64.2398 -6.06078 -2.29289 0
M  V30 580 N 57.6459 0.756429 -1.3826 0
M  V30 581 C 58.8859 1.52833 -1.35725 0
M  V30 582 C 59.2499 1.91926 0.0534106 0
M  V30 583 O 60.4509 2.68028 0.203613 0
M  V30 584 C 58.7219 2.74919 -2.28373 0
M  V30 585 S 60.2809 3.64817 -2.43832 0
M  V30 586 H 57.0989 0.523043 -0.481608 0
M  V30 587 H 59.7009 0.888212 -1.74158 0
M  V30 588 H 58.4049 2.44304 -3.29763 0
M  V30 589 H 57.9359 3.43878 -1.91079 0
M  V30 590 H 59.9509 4.676 -1.66027 0
M  V30 591 N 59.124 1.23083 0.984299 0
M  V30 592 C 60.354 1.08556 1.75781 0
M  V30 593 C 60.762 -0.366171 1.85623 0
M  V30 594 O 60.105 -1.26524 1.33182 0
M  V30 595 C 60.167 1.63208 3.20318 0
M  V30 596 C 59.831 3.11922 3.33997 0
M  V30 597 C 60.828 4.09259 3.2063 0
M  V30 598 C 58.513 3.51552 3.58771 0
M  V30 599 C 60.507 5.4421 3.31835 0
M  V30 600 C 58.194 4.86649 3.69616 0
M  V30 601 C 59.192 5.82787 3.56157 0
M  V30 602 O 58.88 7.15431 3.66626 0
M  V30 603 H 58.612 0.380713 0.5586 0
M  V30 604 H 61.166 1.63321 1.2456 0
M  V30 605 H 59.396 1.0286 3.72769 0
M  V30 606 H 61.085 1.44216 3.79416 0
M  V30 607 H 61.851 3.79984 3.01392 0
M  V30 608 H 57.73 2.77239 3.6832 0
M  V30 609 H 61.274 6.1923 3.21247 0
M  V30 610 H 57.171 5.15601 3.88363 0
M  V30 611 H 57.939 7.23127 3.83445 0
M  V30 612 N 60.6021 -1.18246 1.0419 0
M  V30 613 C 61.8271 -1.92736 0.765996 0
M  V30 614 C 62.2521 -1.75728 -0.67091 0
M  V30 615 O 61.6101 -1.06825 -1.46486 0
M  V30 616 C 61.6581 -3.42148 1.13875 0
M  V30 617 O 60.7621 -4.11548 0.264954 0
M  V30 618 H 60.1031 -0.601238 0.281797 0
M  V30 619 H 62.6331 -1.49942 1.39207 0
M  V30 620 H 62.6431 -3.92858 1.1012 0
M  V30 621 H 61.3181 -3.53848 2.18551 0
M  V30 622 H 59.8951 -3.71137 0.362226 0
M  V30 623 N 62.0802 -0.821533 -1.34494 0
M  V30 624 C 63.0302 -0.214793 -2.26986 0
M  V30 625 C 64.0142 0.620125 -1.4847 0
M  V30 626 O 65.2062 0.474933 -1.70509 0
M  V30 627 C 62.3352 0.623566 -3.37589 0
M  V30 628 C 61.4212 -0.221904 -4.23519 0
M  V30 629 N 61.8122 -1.29223 -4.89014 0
M  V30 630 C 60.1102 -0.00600922 -4.46 0
M  V30 631 C 60.8112 -1.80965 -5.52835 0
M  V30 632 N 59.7872 -1.11376 -5.32068 0
M  V30 633 H 63.5892 -1.03354 -2.75128 0
M  V30 634 H 61.1032 -0.6642 -1.48196 0
M  V30 635 H 63.1002 1.0744 -4.02818 0
M  V30 636 H 61.7602 1.44049 -2.90998 0
M  V30 637 H 62.7712 -1.67502 -4.90065 0
M  V30 638 H 59.4482 0.77886 -4.10171 0
M  V30 639 H 60.8382 -2.70502 -6.15043 0
M  V30 640 N 63.5583 1.46682 -0.576371 0
M  V30 641 C 64.8063 2.02013 -0.0594163 0
M  V30 642 C 65.1273 1.45101 1.30271 0
M  V30 643 O 64.3973 0.633317 1.8538 0
M  V30 644 H 62.9773 0.746759 -0.0189745 0
M  V30 645 H 65.6393 1.79862 -0.750717 0
M  V30 646 H 64.7353 3.12097 0.014345 0
M  V30 647 N 65.0364 0.313813 1.54444 0
M  V30 648 C 66.2614 -0.296681 2.05267 0
M  V30 649 C 66.6864 -1.45757 1.18897 0
M  V30 650 O 66.0444 -1.80239 0.195886 0
M  V30 651 C 66.0924 -0.71831 3.53373 0
M  V30 652 O 65.1964 -1.82175 3.69981 0
M  V30 653 H 64.5374 -0.0554061 0.661684 0
M  V30 654 H 67.0674 0.459387 1.99376 0
M  V30 655 H 67.0774 -1.00364 3.95463 0
M  V30 656 H 65.7524 0.130821 4.15694 0
M  V30 657 H 64.3294 -1.53598 3.39797 0
M  V30 658 N 66.5145 -1.57545 0.0417849 0
M  V30 659 C 67.4465 -2.07904 -0.964799 0
M  V30 660 C 68.4595 -1.00497 -1.28079 0
M  V30 661 O 69.6485 -1.28087 -1.24322 0
M  V30 662 C 66.7485 -2.49928 -2.28887 0
M  V30 663 C 65.9215 -3.80562 -2.15619 0
M  V30 664 C 64.9805 -4.08999 -3.31069 0
M  V30 665 O 64.0065 -4.79061 -3.0739 0
M  V30 666 N 65.2085 -3.6017 -4.55256 0
M  V30 667 H 67.9735 -2.94886 -0.535029 0
M  V30 668 H 65.5345 -1.61252 -0.144681 0
M  V30 669 H 67.5265 -2.66034 -3.04972 0
M  V30 670 H 66.0965 -1.68245 -2.63463 0
M  V30 671 H 65.3165 -3.74129 -1.24183 0
M  V30 672 H 66.6045 -4.66126 -2.03971 0
M  V30 673 H 66.0025 -3.03512 -4.77386 0
M  V30 674 H 64.5595 -3.81532 -5.28466 0
M  V30 675 N 67.9926 0.231505 -1.5589 0
M  V30 676 C 68.9026 1.308 -1.94752 0
M  V30 677 C 69.9186 1.51826 -0.849989 0
M  V30 678 O 71.0946 1.6515 -1.15271 0
M  V30 679 C 68.1596 2.63968 -2.24771 0
M  V30 680 C 67.2206 2.51331 -3.48039 0
M  V30 681 C 66.4536 3.78148 -3.76616 0
M  V30 682 O 66.6766 4.80722 -3.07022 0
M  V30 683 O 65.6106 3.75857 -4.70123 0
M  V30 684 H 69.4366 1.0083 -2.86474 0
M  V30 685 H 67.0216 0.433547 -1.42971 0
M  V30 686 H 68.9036 3.42633 -2.45318 0
M  V30 687 H 67.5786 2.9364 -1.36225 0
M  V30 688 H 66.4856 1.709 -3.32782 0
M  V30 689 H 67.8186 2.26601 -4.36936 0
M  V30 690 N 69.4707 1.49531 0.497807 0
M  V30 691 C 70.6987 1.62893 1.27567 0
M  V30 692 C 71.1137 0.301585 1.86376 0
M  V30 693 O 70.4707 -0.713335 1.67982 0
M  V30 694 C 70.5217 2.70013 2.40364 0
M  V30 695 O 70.2427 3.976 1.83972 0
M  V30 696 C 71.7437 2.94109 3.31685 0
M  V30 697 H 68.9637 0.548298 0.386794 0
M  V30 698 H 71.5077 1.95584 0.597245 0
M  V30 699 H 69.6627 2.40092 3.04031 0
M  V30 700 H 70.0767 4.56631 2.58047 0
M  V30 701 H 71.5507 3.72788 4.07104 0
M  V30 702 H 72.0277 2.04147 3.88871 0
M  V30 703 H 72.6337 3.2546 2.73781 0
M  V30 704 N 70.9488 -0.749086 1.3866 0
M  V30 705 C 72.2258 -1.4992 1.25632 0
M  V30 706 C 72.6058 -2.10633 -0.140317 0
M  V30 707 O 71.9538 -1.97437 -1.15025 0
M  V30 708 C 72.1638 -2.56195 2.36992 0
M  V30 709 C 73.5118 -3.22972 2.75634 0
M  V30 710 O 74.5358 -2.66502 2.36337 0
M  V30 711 O 73.3948 -4.25122 3.43415 0
M  V30 712 H 70.4888 -0.665067 0.491544 0
M  V30 713 H 73.0348 -0.784113 1.50498 0
M  V30 714 H 71.8068 -2.09612 3.30422 0
M  V30 715 H 71.4298 -3.35279 2.13714 0
M  V30 716 N 72.4269 -1.23603 -0.977757 0
M  V30 717 C 73.3369 -1.03632 -2.1047 0
M  V30 718 C 74.3529 0.0199435 -1.73989 0
M  V30 719 O 75.5289 -0.176076 -2.00629 0
M  V30 720 C 72.5939 -0.63276 -3.40877 0
M  V30 721 C 71.6549 -1.76437 -3.91367 0
M  V30 722 C 70.8879 -1.37997 -5.15551 0
M  V30 723 O 71.1109 -0.265357 -5.69782 0
M  V30 724 O 70.0449 -2.20201 -5.60174 0
M  V30 725 H 73.8709 -1.98086 -2.30208 0
M  V30 726 H 71.4559 -1.02332 -1.08851 0
M  V30 727 H 73.3379 -0.418761 -4.19314 0
M  V30 728 H 72.0129 0.282754 -3.22463 0
M  V30 729 H 70.9199 -2.03304 -3.14036 0
M  V30 730 H 72.2529 -2.6583 -4.14241 0
M  V30 731 N 73.905 1.17692 -1.04816 0
M  V30 732 C 74.815 2.25229 -0.65643 0
M  V30 733 C 75.831 1.71018 0.320761 0
M  V30 734 O 77.007 2.00649 0.173805 0
M  V30 735 C 74.072 3.46684 -0.0332629 0
M  V30 736 C 73.133 4.15997 -1.06042 0
M  V30 737 C 72.366 5.31654 -0.466893 0
M  V30 738 O 72.589 5.65777 0.724758 0
M  V30 739 O 71.523 5.89831 -1.1993 0
M  V30 740 H 75.349 2.61016 -1.55255 0
M  V30 741 H 72.934 1.24919 -0.81949 0
M  V30 742 H 74.816 4.20234 0.313256 0
M  V30 743 H 73.491 3.12703 0.836566 0
M  V30 744 H 72.398 3.44482 -1.45886 0
M  V30 745 H 73.731 4.53996 -1.90127 0
M  V30 746 N 75.3831 0.828654 1.34056 0
M  V30 747 C 76.6301 0.419458 1.98108 0
M  V30 748 C 76.9581 -1.01886 1.65679 0
M  V30 749 O 76.2131 -1.72539 0.923512 0
M  V30 750 C 76.5121 0.575226 3.52741 0
M  V30 751 C 76.1781 1.98012 4.05095 0
M  V30 752 C 74.8401 2.36442 4.19104 0
M  V30 753 C 77.1921 2.89824 4.33188 0
M  V30 754 C 74.5201 3.66009 4.58535 0
M  V30 755 C 76.8721 4.1886 4.74066 0
M  V30 756 C 75.5361 4.5726 4.86281 0
M  V30 757 H 74.8061 0.153491 0.724929 0
M  V30 758 H 77.4531 1.05371 1.59904 0
M  V30 759 H 75.7581 -0.142385 3.91541 0
M  V30 760 H 77.4551 0.239057 4.00287 0
M  V30 761 H 74.0451 1.67162 3.94658 0
M  V30 762 H 78.2291 2.61375 4.21897 0
M  V30 763 H 73.4851 3.95579 4.66184 0
M  V30 764 H 77.6591 4.90086 4.94761 0
M  V30 765 H 75.2861 5.57707 5.16592 0
M  V30 766 N 76.8612 -1.46375 0.584142 0
M  V30 767 C 78.1382 -1.956 0.0033388 0
M  V30 768 C 78.5182 -1.52679 -1.45782 0
M  V30 769 O 77.8662 -0.77816 -2.14842 0
M  V30 770 C 78.0762 -3.48551 0.176891 0
M  V30 771 C 79.4242 -4.24576 0.0454609 0
M  V30 772 O 80.4482 -3.56043 0.105801 0
M  V30 773 O 79.3072 -5.46427 -0.0890376 0
M  V30 774 H 76.4012 -0.825547 -0.0490066 0
M  V30 775 H 78.9472 -1.56652 0.65256 0
M  V30 776 H 77.7192 -3.72683 1.1926 0
M  V30 777 H 77.3422 -3.94332 -0.508695 0
M  V30 778 N 78.3393 -0.321999 -1.54275 0
M  V30 779 C 79.3023 0.531975 -2.22941 0
M  V30 780 C 80.3023 1.04478 -1.22234 0
M  V30 781 O 81.4923 0.937452 -1.46825 0
M  V30 782 C 78.6243 1.73874 -2.93224 0
M  V30 783 H 79.8173 -0.0682612 -2.99822 0
M  V30 784 H 77.3703 -0.0730644 -1.56129 0
M  V30 785 H 78.1053 2.37825 -2.20476 0
M  V30 786 H 77.8903 1.37847 -3.6707 0
M  V30 787 H 79.3803 2.34496 -3.45545 0
M  V30 788 N 79.8174 1.5752 -0.0501392 0
M  V30 789 C 81.2334 1.56631 0.306402 0
M  V30 790 C 81.4334 1.0577 1.71508 0
M  V30 791 O 80.4894 0.713837 2.422 0
M  V30 792 C 81.8024 3.00393 0.135811 0
M  V30 793 C 83.3504 3.12315 0.206993 0
M  V30 794 C 83.8254 4.57954 0.064944 0
M  V30 795 N 85.3164 4.63041 0.121254 0
M  V30 796 C 86.0514 5.73389 0.0354381 0
M  V30 797 N 85.5474 6.92724 -0.102666 0
M  V30 798 N 87.3404 5.62026 0.090946 0
M  V30 799 H 79.4914 1.88903 -0.971046 0
M  V30 800 H 81.7544 0.869876 -0.376855 0
M  V30 801 H 81.4604 3.41635 -0.835384 0
M  V30 802 H 81.3344 3.66373 0.897275 0
M  V30 803 H 83.7214 2.70973 1.16866 0
M  V30 804 H 83.8024 2.49016 -0.585208 0
M  V30 805 H 83.4464 4.99981 -0.893394 0
M  V30 806 H 83.3764 5.19258 0.876277 0
M  V30 807 H 85.8674 3.77216 0.227284 0
M  V30 808 H 86.1804 7.72633 -0.160882 0
M  V30 809 H 84.5254 6.94864 -0.137737 0
M  V30 810 H 87.7164 4.67684 0.197388 0
M  V30 811 H 87.8894 6.47997 0.0206089 0
M  V30 812 N 81.2955 -0.223234 1.56011 0
M  V30 813 C 82.5415 -0.944891 1.8012 0
M  V30 814 C 82.8965 -1.82039 0.622862 0
M  V30 815 O 82.1895 -1.8773 -0.383143 0
M  V30 816 C 82.3835 -1.81948 3.0762 0
M  V30 817 C 82.2125 -1.03014 4.37742 0
M  V30 818 C 80.9825 -0.72574 5.00061 0
M  V30 819 C 83.1805 -0.396256 5.12771 0
M  V30 820 N 81.1625 0.0851816 6.13841 0
M  V30 821 C 82.5335 0.278137 6.19376 0
M  V30 822 C 84.5885 -0.309117 4.9694 0
M  V30 823 C 83.2915 1.03133 7.11868 0
M  V30 824 C 85.3175 0.430607 5.8983 0
M  V30 825 C 84.6795 1.09355 6.9586 0
M  V30 826 H 80.7785 -0.326081 0.710771 0
M  V30 827 H 83.3625 -0.215914 1.93499 0
M  V30 828 H 81.5335 -2.52029 2.95527 0
M  V30 829 H 83.2655 -2.47848 3.19927 0
M  V30 830 H 80.0205 -1.04335 4.61964 0
M  V30 831 H 80.4445 0.479428 6.753 0
M  V30 832 H 85.0865 -0.807313 4.15021 0
M  V30 833 H 82.8045 1.54105 7.9327 0
M  V30 834 H 86.3905 0.499012 5.79656 0
M  V30 835 H 85.2705 1.65679 7.66499 0
M  V30 836 N 82.7736 -1.49793 -0.48987 0
M  V30 837 C 84.0196 -1.60078 -1.24511 0
M  V30 838 C 84.3526 -0.291608 -1.91998 0
M  V30 839 O 83.6276 0.705647 -1.81248 0
M  V30 840 C 83.9106 -2.76791 -2.30345 0
M  V30 841 C 83.7636 -4.17535 -1.67286 0
M  V30 842 C 85.0826 -2.89111 -3.31817 0
M  V30 843 H 82.2016 -0.582645 -0.451324 0
M  V30 844 H 84.8436 -1.82117 -0.541612 0
M  V30 845 H 82.9936 -2.5813 -2.90346 0
M  V30 846 H 84.6656 -4.4774 -1.11026 0
M  V30 847 H 82.9086 -4.22665 -0.976577 0
M  V30 848 H 83.5796 -4.95094 -2.44103 0
M  V30 849 H 86.0556 -3.06133 -2.81819 0
M  V30 850 H 84.9316 -3.72433 -4.03219 0
M  V30 851 H 85.1926 -1.9893 -3.94815 0
M  V30 852 N 84.2517 0.741722 -1.39055 0
M  V30 853 C 85.4797 1.53098 -1.39171 0
M  V30 854 C 85.8947 1.88794 0.0155099 0
M  V30 855 O 85.2517 1.53626 0.985159 0
M  V30 856 C 85.3027 2.82274 -2.2584 0
M  V30 857 O 85.0237 2.48097 -3.61081 0
M  V30 858 C 86.5247 3.76343 -2.34266 0
M  V30 859 H 83.7447 0.473335 -0.4756 0
M  V30 860 H 86.2887 0.917045 -1.82785 0
M  V30 861 H 84.4437 3.40015 -1.85656 0
M  V30 862 H 84.8577 3.31029 -4.06842 0
M  V30 863 H 86.3317 4.63898 -2.9917 0
M  V30 864 H 86.8087 4.17619 -1.35982 0
M  V30 865 H 87.4147 3.24523 -2.74891 0
M  V30 866 N 85.7298 1.2412 0.971189 0
M  V30 867 C 86.9598 1.10415 1.7462 0
M  V30 868 C 87.3678 -0.346462 1.86001 0
M  V30 869 O 86.7108 -1.25104 1.34517 0
M  V30 870 C 86.7728 1.66596 3.18568 0
M  V30 871 C 86.4368 3.15446 3.3067 0
M  V30 872 C 87.4338 4.12636 3.16271 0
M  V30 873 C 85.1188 3.55337 3.55022 0
M  V30 874 C 87.1128 5.47699 3.26044 0
M  V30 875 C 84.7998 4.90542 3.64434 0
M  V30 876 C 85.7978 5.86532 3.49956 0
M  V30 877 O 85.4858 7.19279 3.59017 0
M  V30 878 H 85.2178 0.386616 0.55453 0
M  V30 879 H 87.7718 1.64633 1.22821 0
M  V30 880 H 86.0018 1.06808 3.71657 0
M  V30 881 H 87.6908 1.48232 3.77865 0
M  V30 882 H 88.4568 3.8316 2.97344 0
M  V30 883 H 84.3358 2.8113 3.65359 0
M  V30 884 H 87.8798 6.22603 3.14661 0
M  V30 885 H 83.7768 5.19691 3.82873 0
M  V30 886 H 84.5448 7.27153 3.75754 0
M  V30 887 N 87.2079 -1.17134 1.05439 0
M  V30 888 C 88.4549 -1.87456 0.765942 0
M  V30 889 C 88.7829 -1.81189 -0.707153 0
M  V30 890 O 88.0379 -1.21633 -1.5331 0
M  V30 891 C 88.3369 -3.36833 1.19491 0
M  V30 892 C 88.0029 -3.63301 2.67063 0
M  V30 893 C 86.6649 -3.70234 3.07376 0
M  V30 894 C 89.0169 -3.74575 3.62413 0
M  V30 895 C 86.3449 -3.85933 4.41896 0
M  V30 896 C 88.6969 -3.91793 4.9667 0
M  V30 897 C 87.3609 -3.96966 5.36633 0
M  V30 898 H 86.6309 -0.685948 0.280278 0
M  V30 899 H 89.2779 -1.38556 1.32192 0
M  V30 900 H 87.5829 -3.87807 0.557969 0
M  V30 901 H 89.2799 -3.89611 0.948893 0
M  V30 902 H 85.8699 -3.58532 2.34846 0
M  V30 903 H 90.0539 -3.68537 3.32406 0
M  V30 904 H 85.3099 -3.88187 4.72357 0
M  V30 905 H 89.4839 -3.99458 5.70444 0
M  V30 906 H 87.1109 -4.08883 6.40874 0
M  V30 907 N 88.686 -0.835752 -1.33615 0
M  V30 908 C 89.634 -0.255238 -2.31195 0
M  V30 909 C 90.628 0.61107 -1.57995 0
M  V30 910 O 91.834 0.500979 -1.72888 0
M  V30 911 H 88.209 -0.0638085 -0.749288 0
M  V30 912 H 90.18 -1.09283 -2.77669 0
M  V30 913 C 88.929 0.55754 -3.43201 0
M  V30 914 H 88.252 -0.0997553 -3.99676 0
M  V30 915 H 89.692 0.929622 -4.13683 0
M  V30 916 C 88.151 1.73515 -2.88781 0
M  V30 917 O 88.681 2.83376 -2.84712 0
M  V30 918 N 86.887 1.55603 -2.4543 0
M  V30 919 H 86.434 0.662354 -2.48939 0
M  V30 920 H 86.392 2.34545 -2.09371 0
M  V30 921 N 90.1641 1.46063 -0.591896 0
M  V30 922 C 91.1111 2.30399 0.136069 0
M  V30 923 C 92.0811 1.41169 0.875238 0
M  V30 924 O 93.2661 1.70112 0.86409 0
M  V30 925 C 90.4061 3.25804 1.13781 0
M  V30 926 C 89.5191 4.30134 0.401137 0
M  V30 927 C 88.6541 5.12659 1.39121 0
M  V30 928 C 87.6931 6.0873 0.641462 0
M  V30 929 N 86.8301 6.8409 1.58004 0
M  V30 930 H 91.6701 2.92118 -0.589144 0
M  V30 931 H 89.2071 1.43959 -0.302342 0
M  V30 932 H 91.1651 3.79569 1.73156 0
M  V30 933 H 89.7951 2.65872 1.83062 0
M  V30 934 H 88.8471 3.79152 -0.307826 0
M  V30 935 H 90.1591 4.98458 -0.184565 0
M  V30 936 H 89.3131 5.70747 2.05749 0
M  V30 937 H 88.0521 4.44316 2.01084 0
M  V30 938 H 87.0571 5.49786 -0.0385419 0
M  V30 939 H 88.2821 6.79095 0.0270945 0
M  V30 940 H 86.2281 6.18449 2.18761 0
M  V30 941 H 86.1451 7.48709 1.04738 0
M  V30 942 H 87.4131 7.4673 2.23639 0
M  V30 943 N 91.6422 0.330177 1.54103 0
M  V30 944 C 93.0532 -0.15652 1.86043 0
M  V30 945 C 93.4042 -1.51086 1.2517 0
M  V30 946 O 92.5292 -2.09023 0.560217 0
M  V30 947 C 93.1242 -0.290784 3.3755 0
M  V30 948 C 91.6832 -0.721705 3.69416 0
M  V30 949 C 90.8302 0.152622 2.7688 0
M  V30 950 H 93.7812 0.550237 1.48856 0
M  V30 951 H 93.8022 -1.12058 3.63625 0
M  V30 952 H 93.3142 0.695068 3.81825 0
M  V30 953 H 91.4152 -1.71706 3.30678 0
M  V30 954 H 91.5282 -0.520869 4.7626 0
M  V30 955 H 89.8922 -0.372894 2.51956 0
M  V30 956 H 90.6752 1.13536 3.23982 0
M  V30 957 N 93.1203 -1.57491 0.0584922 0
M  V30 958 C 94.3973 -1.84346 -0.653918 0
M  V30 959 C 94.7773 -0.948355 -1.88599 0
M  V30 960 O 94.1253 -0.0112403 -2.28497 0
M  V30 961 C 94.3353 -3.34239 -1.00425 0
M  V30 962 C 95.6833 -4.01431 -1.38342 0
M  V30 963 O 96.7073 -3.38907 -1.09637 0
M  V30 964 O 95.5663 -5.11683 -1.91943 0
M  V30 965 H 92.6603 -0.761112 -0.323478 0
M  V30 966 H 95.2063 -1.6947 0.0884125 0
M  V30 967 H 93.9783 -3.91089 -0.128625 0
M  V30 968 H 93.6013 -3.54329 -1.80378 0
M  V30 969 N 94.5984 0.214957 -1.56127 0
M  V30 970 C 95.8474 0.936451 -1.78643 0
M  V30 971 C 96.1604 1.85237 -0.628229 0
M  V30 972 O 97.3664 2.613 -0.737186 0
M  V30 973 C 95.8224 1.7154 -3.16389 0
M  V30 974 C 95.4304 0.845299 -4.39953 0
M  V30 975 C 97.1744 2.42772 -3.48227 0
M  V30 976 C 95.0814 1.62198 -5.68723 0
M  V30 977 H 94.0114 0.353401 -0.666051 0
M  V30 978 H 96.6624 0.190169 -1.82512 0
M  V30 979 H 95.0444 2.50484 -3.06715 0
M  V30 980 H 96.2184 0.0959353 -4.607 0
M  V30 981 H 94.5334 0.244789 -4.1568 0
M  V30 982 H 97.1304 3.01394 -4.41663 0
M  V30 983 H 97.4734 3.15984 -2.71035 0
M  V30 984 H 98.0064 1.70813 -3.5926 0
M  V30 985 H 94.7454 0.933011 -6.48826 0
M  V30 986 H 94.2654 2.34579 -5.52026 0
M  V30 987 H 95.9444 2.18095 -6.09133 0
M  V30 988 N 96.0765 1.50051 0.48192 0
M  V30 989 C 97.3535 1.51009 1.2432 0
M  V30 990 C 97.7335 0.248587 2.09631 0
M  V30 991 O 97.0815 -0.768409 2.15192 0
M  V30 992 C 97.2915 2.79981 2.08355 0
M  V30 993 C 98.6395 3.3022 2.66908 0
M  V30 994 O 99.6635 2.81228 2.18607 0
M  V30 995 O 98.5225 4.15595 3.54884 0
M  V30 996 H 95.6165 0.605239 0.563573 0
M  V30 997 H 98.1625 1.62332 0.494627 0
M  V30 998 H 96.9345 3.63275 1.45419 0
M  V30 999 H 96.5575 2.7161 2.90368 0
M  V30 1000 N 97.5546 -0.734337 1.39446 0
M  V30 1001 C 98.5176 -1.83004 1.37994 0
M  V30 1002 C 99.5176 -1.58397 0.276938 0
M  V30 1003 O 100.708 -1.65785 0.534875 0
M  V30 1004 C 97.8396 -3.20802 1.1532 0
M  V30 1005 H 99.0326 -1.85694 2.35494 0
M  V30 1006 H 96.5856 -0.938059 1.25021 0
M  V30 1007 H 97.3206 -3.23772 0.185036 0
M  V30 1008 H 97.1056 -3.4006 1.95197 0
M  V30 1009 H 98.5956 -4.00862 1.17046 0
M  V30 1010 N 99.0327 -1.24633 -0.964593 0
M  V30 1011 C 100.279 -1.09957 -1.71117 0
M  V30 1012 C 100.634 0.357422 -1.89051 0
M  V30 1013 O 99.9267 1.26029 -1.44317 0
M  V30 1014 C 100.121 -1.7763 -3.10133 0
M  V30 1015 C 99.9497 -3.29759 -3.05759 0
M  V30 1016 C 98.7197 -3.98981 -3.10068 0
M  V30 1017 C 100.918 -4.26305 -2.87695 0
M  V30 1018 N 98.8997 -5.37966 -2.95747 0
M  V30 1019 C 100.271 -5.52308 -2.81702 0
M  V30 1020 C 102.326 -4.16842 -2.72299 0
M  V30 1021 C 101.029 -6.69931 -2.61887 0
M  V30 1022 C 103.055 -5.34147 -2.53853 0
M  V30 1023 C 102.417 -6.59084 -2.48572 0
M  V30 1024 H 98.5157 -0.457003 -0.634564 0
M  V30 1025 H 101.1 -1.57592 -1.14337 0
M  V30 1026 H 99.2707 -1.32504 -3.65099 0
M  V30 1027 H 101.003 -1.55786 -3.73514 0
M  V30 1028 H 97.7577 -3.50169 -3.18871 0
M  V30 1029 H 98.1817 -6.10877 -2.91818 0
M  V30 1030 H 102.824 -3.21007 -2.75163 0
M  V30 1031 H 100.542 -7.65886 -2.57767 0
M  V30 1032 H 104.128 -5.28678 -2.4288 0
M  V30 1033 H 103.008 -7.48324 -2.34481 0
M  V30 1034 N 100.511 1.16574 -1.06058 0
M  V30 1035 C 101.421 2.2452 -0.680282 0
M  V30 1036 C 102.437 1.71348 0.302604 0
M  V30 1037 O 103.613 2.00822 0.152513 0
M  V30 1038 C 100.678 3.46629 -0.0700315 0
M  V30 1039 C 99.7388 4.14849 -1.10448 0
M  V30 1040 C 98.9718 5.31129 -0.523256 0
M  V30 1041 O 99.1948 5.66514 0.664709 0
M  V30 1042 O 98.1288 5.88526 -1.26179 0
M  V30 1043 H 101.955 2.59355 -1.58015 0
M  V30 1044 H 99.5398 1.24043 -0.832694 0
M  V30 1045 H 101.422 4.20543 0.268667 0
M  V30 1046 H 100.097 3.13573 0.803353 0
M  V30 1047 H 99.0038 3.42916 -1.49532 0
M  V30 1048 H 100.337 4.51954 -1.94931 0
M  V30 1049 N 101.989 0.842826 1.3317 0
M  V30 1050 C 102.919 0.294028 2.31641 0
M  V30 1051 C 103.9 -0.600401 1.59151 0
M  V30 1052 O 105.085 -0.523124 1.87022 0
M  V30 1053 C 102.215 -0.528416 3.43257 0
M  V30 1054 C 101.169 0.27056 4.27144 0
M  V30 1055 C 100.495 -0.675881 5.30411 0
M  V30 1056 C 101.795 1.48981 5.00602 0
M  V30 1057 H 103.489 1.11681 2.77791 0
M  V30 1058 H 101.035 0.538478 1.33553 0
M  V30 1059 H 102.988 -0.922674 4.11175 0
M  V30 1060 H 101.712 -1.38445 2.95805 0
M  V30 1061 H 100.371 0.646427 3.60856 0
M  V30 1062 H 100.019 -1.52842 4.79216 0
M  V30 1063 H 99.7189 -0.145374 5.8742 0
M  V30 1064 H 101.243 -1.06757 6.01195 0
M  V30 1065 H 102.657 1.16849 5.61266 0
M  V30 1066 H 101.054 1.95739 5.6728 0
M  V30 1067 H 102.124 2.25746 4.29147 0
M  V30 1068 N 103.467 -1.45747 0.599634 0
M  V30 1069 C 104.883 -1.57424 0.26264 0
M  V30 1070 C 105.083 -1.59222 -1.23493 0
M  V30 1071 O 104.139 -1.51825 -2.01756 0
M  V30 1072 C 105.452 -2.86061 0.926795 0
M  V30 1073 C 107 -2.99722 0.901967 0
M  V30 1074 C 107.475 -4.31119 1.54598 0
M  V30 1075 N 108.966 -4.37858 1.5111 0
M  V30 1076 C 109.701 -5.3818 1.97863 0
M  V30 1077 N 109.197 -6.45083 2.52666 0
M  V30 1078 N 110.99 -5.29487 1.88679 0
M  V30 1079 H 103.141 -1.42823 1.57211 0
M  V30 1080 H 105.404 -0.68235 0.658105 0
M  V30 1081 H 105.11 -2.90605 1.98095 0
M  V30 1082 H 104.984 -3.74563 0.445238 0
M  V30 1083 H 107.371 -2.9475 -0.143617 0
M  V30 1084 H 107.452 -2.12652 1.42171 0
M  V30 1085 H 107.096 -4.36849 2.59085 0
M  V30 1086 H 107.026 -5.16992 1.00132 0
M  V30 1087 H 109.517 -3.61209 1.11068 0
M  V30 1088 H 109.83 -7.17869 2.86155 0
M  V30 1089 H 108.175 -6.45856 2.56701 0
M  V30 1090 H 111.366 -4.44877 1.4561 0
M  V30 1091 H 111.539 -6.07524 2.25429 0
M  V30 1092 N 104.945 -0.338344 -1.53925 0
M  V30 1093 C 105.892 0.520845 -2.24846 0
M  V30 1094 C 106.862 1.09976 -1.24477 0
M  V30 1095 O 108.047 1.13735 -1.53196 0
M  V30 1096 C 105.187 1.6685 -3.02084 0
M  V30 1097 C 104.3 1.11739 -4.17299 0
M  V30 1098 C 103.435 2.23193 -4.82036 0
M  V30 1099 C 102.474 1.65407 -5.89328 0
M  V30 1100 N 101.611 2.70582 -6.47866 0
M  V30 1101 H 106.451 -0.0904881 -2.97863 0
M  V30 1102 H 103.988 -0.0564282 -1.46992 0
M  V30 1103 H 105.946 2.34407 -3.45122 0
M  V30 1104 H 104.576 2.2509 -2.31375 0
M  V30 1105 H 103.628 0.332919 -3.7894 0
M  V30 1106 H 104.94 0.654677 -4.94485 0
M  V30 1107 H 104.094 2.98626 -5.28117 0
M  V30 1108 H 102.833 2.72807 -4.04262 0
M  V30 1109 H 101.838 0.884779 -5.42634 0
M  V30 1110 H 103.063 1.16652 -6.69006 0
M  V30 1111 H 101.009 3.1946 -5.72959 0
M  V30 1112 H 100.926 2.28917 -7.20509 0
M  V30 1113 H 102.194 3.45799 -6.98601 0
M  V30 1114 N 106.423 1.57458 -0.0668435 0
M  V30 1115 C 107.671 1.92919 0.602214 0
M  V30 1116 C 107.992 0.947215 1.70449 0
M  V30 1117 O 107.262 -0.00544117 1.95899 0
M  V30 1118 H 105.842 0.71217 0.22544 0
M  V30 1119 H 108.504 1.94508 -0.123535 0
M  V30 1120 H 107.6 2.94589 1.03073 0
M  V30 1121 N 107.901 -0.206675 1.56239 0
M  V30 1122 C 109.15 -0.926964 1.79138 0
M  V30 1123 C 109.463 -1.84901 0.638043 0
M  V30 1124 O 110.669 -2.60906 0.751033 0
M  V30 1125 C 109.125 -1.6986 3.17294 0
M  V30 1126 C 108.733 -0.821956 4.40395 0
M  V30 1127 C 110.477 -2.40922 3.4951 0
M  V30 1128 C 108.384 -1.59179 5.69575 0
M  V30 1129 H 107.314 -0.349864 0.667915 0
M  V30 1130 H 109.965 -0.180487 1.8261 0
M  V30 1131 H 108.347 -2.48853 3.08039 0
M  V30 1132 H 109.521 -0.0715019 4.60745 0
M  V30 1133 H 107.836 -0.222741 4.15804 0
M  V30 1134 H 110.433 -2.99047 4.43255 0
M  V30 1135 H 110.776 -3.14542 2.72707 0
M  V30 1136 H 111.309 -1.68905 3.60161 0
M  V30 1137 H 108.048 -0.898589 6.49312 0
M  V30 1138 H 107.568 -2.31648 5.53262 0
M  V30 1139 H 109.247 -2.14862 6.10281 0
M  V30 1140 N 109.379 -1.50304 -0.473955 0
M  V30 1141 C 110.327 -1.69482 -1.59307 0
M  V30 1142 C 111.321 -0.560669 -1.59853 0
M  V30 1143 O 112.527 -0.741087 -1.64036 0
M  V30 1144 H 108.902 -0.534892 -0.528578 0
M  V30 1145 H 110.873 -2.63364 -1.40293 0
M  V30 1146 C 109.622 -1.80354 -2.97267 0
M  V30 1147 H 108.945 -2.67012 -2.97564 0
M  V30 1148 H 110.385 -1.97798 -3.75036 0
M  V30 1149 C 108.844 -0.55448 -3.32306 0
M  V30 1150 O 109.374 0.307661 -4.0052 0
M  V30 1151 N 107.58 -0.409354 -2.87702 0
M  V30 1152 H 107.127 -1.11196 -2.32364 0
M  V30 1153 H 107.085 0.425223 -3.11511 0
M  V30 1154 N 110.857 0.726932 -1.39834 0
M  V30 1155 C 112.085 1.51613 -1.40787 0
M  V30 1156 C 112.5 1.88799 -0.00451505 0
M  V30 1157 O 111.857 1.54662 0.968809 0
M  V30 1158 C 111.908 2.79863 -2.28821 0
M  V30 1159 O 111.629 2.44253 -3.63692 0
M  V30 1160 C 113.13 3.73837 -2.38245 0
M  V30 1161 H 110.35 0.468264 -0.480593 0
M  V30 1162 H 112.894 0.897607 -1.83748 0
M  V30 1163 H 111.049 3.38027 -1.89252 0
M  V30 1164 H 111.463 3.26695 -4.1033 0
M  V30 1165 H 112.937 4.60699 -3.04073 0
M  V30 1166 H 113.414 4.16153 -1.40403 0
M  V30 1167 H 114.02 3.21589 -2.78317 0
M  V30 1168 N 112.336 1.25143 0.95797 0
M  V30 1169 C 113.266 1.07711 2.07173 0
M  V30 1170 C 114.247 -0.0128462 1.70095 0
M  V30 1171 O 115.432 0.156061 1.93572 0
M  V30 1172 C 112.562 0.691503 3.40346 0
M  V30 1173 C 111.516 1.73132 3.9142 0
M  V30 1174 C 110.842 1.20049 5.21049 0
M  V30 1175 C 112.142 3.1294 4.1817 0
M  V30 1176 H 113.836 2.00873 2.22014 0
M  V30 1177 H 111.382 0.967191 1.06684 0
M  V30 1178 H 113.335 0.556505 4.17709 0
M  V30 1179 H 112.059 -0.275819 3.25433 0
M  V30 1180 H 110.718 1.8547 3.16222 0
M  V30 1181 H 110.366 0.223499 5.02503 0
M  V30 1182 H 110.066 1.89545 5.56189 0
M  V30 1183 H 111.59 1.07782 6.01012 0
M  V30 1184 H 113.004 3.03775 4.86203 0
M  V30 1185 H 111.401 3.79875 4.64559 0
M  V30 1186 H 112.471 3.6025 3.24573 0
M  V30 1187 N 113.814 -1.1601 1.06675 0
M  V30 1188 C 115.06 -1.86909 0.786945 0
M  V30 1189 C 115.393 -1.81717 -0.685018 0
M  V30 1190 O 114.668 -1.23551 -1.50218 0
M  V30 1191 C 114.951 -3.36313 1.28707 0
M  V30 1192 C 114.804 -3.50175 2.82308 0
M  V30 1193 C 116.123 -4.3084 0.898071 0
M  V30 1194 H 113.242 -0.678677 0.287343 0
M  V30 1195 H 115.884 -1.36336 1.32334 0
M  V30 1196 H 114.034 -3.79513 0.830768 0
M  V30 1197 H 115.706 -3.15886 3.36175 0
M  V30 1198 H 113.949 -2.91959 3.20847 0
M  V30 1199 H 114.62 -4.55116 3.12368 0
M  V30 1200 H 117.096 -3.95561 1.29114 0
M  V30 1201 H 115.972 -5.33876 1.27543 0
M  V30 1202 H 116.233 -4.41662 -0.196651 0
M  V30 1203 N 115.292 -0.849877 -1.32721 0
M  V30 1204 C 116.52 -0.464754 -2.01613 0
M  V30 1205 C 116.935 0.937191 -1.63897 0
M  V30 1206 O 116.292 1.61081 -0.857856 0
M  V30 1207 C 116.343 -0.588638 -3.56675 0
M  V30 1208 O 116.064 -1.93535 -3.93034 0
M  V30 1209 C 117.565 -0.2019 -4.4284 0
M  V30 1210 H 114.785 -0.183215 -0.645502 0
M  V30 1211 H 117.329 -1.1455 -1.69407 0
M  V30 1212 H 115.484 0.0443159 -3.87375 0
M  V30 1213 H 115.898 -1.92871 -4.87751 0
M  V30 1214 H 117.372 -0.339599 -5.50954 0
M  V30 1215 H 117.849 0.857224 -4.30753 0
M  V30 1216 H 118.455 -0.809733 -4.17521 0
M  V30 1217 N 116.77 1.45427 -0.607355 0
M  V30 1218 C 118 2.06314 -0.108656 0
M  V30 1219 C 118.408 1.45269 1.21217 0
M  V30 1220 O 117.751 0.561115 1.74921 0
M  V30 1221 C 117.813 3.59345 0.105618 0
M  V30 1222 C 117.477 4.42723 -1.13337 0
M  V30 1223 C 118.474 4.77715 -2.05145 0
M  V30 1224 C 116.159 4.83478 -1.36213 0
M  V30 1225 C 118.153 5.52317 -3.18158 0
M  V30 1226 C 115.84 5.57835 -2.49527 0
M  V30 1227 C 116.838 5.92171 -3.40327 0
M  V30 1228 O 116.526 6.65019 -4.51669 0
M  V30 1229 H 116.258 0.672782 -0.0658842 0
M  V30 1230 H 118.812 1.87664 -0.834945 0
M  V30 1231 H 117.042 3.76394 0.886796 0
M  V30 1232 H 118.731 4.02076 0.555886 0
M  V30 1233 H 119.497 4.46787 -1.88697 0
M  V30 1234 H 115.376 4.56188 -0.664362 0
M  V30 1235 H 118.92 5.79036 -3.89054 0
M  V30 1236 H 114.817 5.88177 -2.65928 0
M  V30 1237 H 115.585 6.83469 -4.50348 0
M  V30 1238 N 118.248 0.346503 1.53744 0
M  V30 1239 C 119.525 -0.304532 1.93215 0
M  V30 1240 C 119.905 -1.67993 1.27834 0
M  V30 1241 O 119.253 -2.24411 0.430352 0
M  V30 1242 C 119.463 -0.373852 3.46992 0
M  V30 1243 C 120.811 -0.62329 4.2 0
M  V30 1244 O 121.835 -0.455847 3.53271 0
M  V30 1245 O 120.694 -0.947879 5.38217 0
M  V30 1246 H 117.788 -0.178318 0.807547 0
M  V30 1247 H 120.334 0.397895 1.64969 0
M  V30 1248 H 119.106 0.591224 3.86808 0
M  V30 1249 H 118.729 -1.12294 3.81413 0
M  V30 1250 N 119.726 -1.57421 0.075193 0
M  V30 1251 C 120.659 -2.08528 -0.926904 0
M  V30 1252 C 121.637 -0.991171 -1.28898 0
M  V30 1253 O 122.821 -1.26479 -1.39769 0
M  V30 1254 C 119.948 -2.54576 -2.23402 0
M  V30 1255 C 118.994 -3.75454 -2.02327 0
M  V30 1256 S 119.827 -5.19989 -1.27951 0
M  V30 1257 C 120.983 -5.69372 -2.59935 0
M  V30 1258 H 121.216 -2.932 -0.492048 0
M  V30 1259 H 118.749 -1.53785 -0.137651 0
M  V30 1260 H 120.707 -2.81767 -2.98526 0
M  V30 1261 H 119.368 -1.70166 -2.64012 0
M  V30 1262 H 118.561 -4.05675 -2.99071 0
M  V30 1263 H 118.163 -3.48654 -1.35339 0
M  V30 1264 H 120.455 -5.76424 -3.56008 0
M  V30 1265 H 121.398 -6.68207 -2.34319 0
M  V30 1266 H 121.806 -4.97205 -2.67296 0
M  V30 1267 N 121.204 0.198386 -1.56346 0
M  V30 1268 C 122.45 0.920648 -1.80698 0
M  V30 1269 C 122.783 1.83045 -0.648697 0
M  V30 1270 O 122.058 1.91308 0.350925 0
M  V30 1271 C 122.341 1.73971 -3.15287 0
M  V30 1272 C 122.194 0.85485 -4.41602 0
M  V30 1273 C 123.513 2.71296 -3.46535 0
M  V30 1274 H 120.632 0.333261 -0.657348 0
M  V30 1275 H 123.274 0.188198 -1.89066 0
M  V30 1276 H 121.424 2.36416 -3.08285 0
M  V30 1277 H 123.096 0.245362 -4.60647 0
M  V30 1278 H 121.339 0.161398 -4.335 0
M  V30 1279 H 122.01 1.46286 -5.32264 0
M  V30 1280 H 124.486 2.18983 -3.53816 0
M  V30 1281 H 123.362 3.2569 -4.41834 0
M  V30 1282 H 123.623 3.5018 -2.69864 0
M  V30 1283 N 122.682 1.50554 0.465978 0
M  V30 1284 C 124.093 1.54599 1.04671 0
M  V30 1285 C 124.444 0.352488 1.93008 0
M  V30 1286 O 123.569 -0.534044 2.09707 0
M  V30 1287 C 124.164 2.80166 1.90505 0
M  V30 1288 C 122.723 2.86876 2.43678 0
M  V30 1289 C 121.87 2.48947 1.22151 0
M  V30 1290 H 124.821 1.56744 0.248384 0
M  V30 1291 H 124.842 2.62311 2.75633 0
M  V30 1292 H 124.354 3.67013 1.26186 0
M  V30 1293 H 122.455 2.04393 3.11536 0
M  V30 1294 H 122.568 3.89885 2.78436 0
M  V30 1295 H 120.932 2.01498 1.5579 0
M  V30 1296 H 121.715 3.38107 0.594866 0
M  V30 1297 N 124.16 -0.719506 1.40217 0
M  V30 1298 C 125.07 -1.86378 1.42479 0
M  V30 1299 C 126.086 -1.71073 0.317834 0
M  V30 1300 O 127.262 -1.93406 0.561794 0
M  V30 1301 C 124.327 -3.22136 1.28178 0
M  V30 1302 C 123.388 -3.49723 2.48982 0
M  V30 1303 C 122.621 -4.79004 2.35353 0
M  V30 1304 O 122.844 -5.53821 1.36524 0
M  V30 1305 O 121.778 -5.06839 3.2465 0
M  V30 1306 H 125.604 -1.87425 2.38968 0
M  V30 1307 H 123.189 -0.869405 1.21498 0
M  V30 1308 H 125.071 -4.03234 1.22395 0
M  V30 1309 H 123.746 -3.21825 0.347934 0
M  V30 1310 H 122.653 -2.6865 2.60342 0
M  V30 1311 H 123.986 -3.54828 3.41113 0
M  V30 1312 N 125.638 -1.25649 -0.95132 0
M  V30 1313 C 127.049 -1.09654 -1.51106 0
M  V30 1314 C 127.4 0.326615 -1.93462 0
M  V30 1315 O 126.525 1.21697 -1.78938 0
M  V30 1316 C 127.12 -1.98437 -2.74605 0
M  V30 1317 C 125.679 -1.86618 -3.2688 0
M  V30 1318 C 124.826 -1.9239 -1.99703 0
M  V30 1319 H 127.777 -1.38887 -0.767865 0
M  V30 1320 H 127.798 -1.5263 -3.48546 0
M  V30 1321 H 127.31 -3.02009 -2.43746 0
M  V30 1322 H 125.411 -0.859421 -3.62553 0
M  V30 1323 H 125.524 -2.71607 -3.94673 0
M  V30 1324 H 123.888 -1.36317 -2.15151 0
M  V30 1325 H 124.671 -2.97573 -1.71188 0
M  V30 1326 N 127.117 1.15442 -1.07289 0
M  V30 1327 C 128.064 2.20161 -0.692653 0
M  V30 1328 C 129.034 1.63073 0.31564 0
M  V30 1329 O 130.219 1.89725 0.202235 0
M  V30 1330 C 127.359 3.44967 -0.0959509 0
M  V30 1331 C 126.472 4.16256 -1.15564 0
M  V30 1332 C 125.607 5.28609 -0.524011 0
M  V30 1333 C 124.646 5.91715 -1.56653 0
M  V30 1334 N 123.783 6.9554 -0.957531 0
M  V30 1335 H 128.623 2.52037 -1.59002 0
M  V30 1336 H 126.16 1.2378 -0.794798 0
M  V30 1337 H 128.118 4.16341 0.267628 0
M  V30 1338 H 126.748 3.1361 0.764772 0
M  V30 1339 H 125.8 3.43385 -1.6368 0
M  V30 1340 H 127.112 4.59268 -1.94613 0
M  V30 1341 H 126.266 6.06604 -0.108032 0
M  V30 1342 H 125.005 4.86787 0.29825 0
M  V30 1343 H 124.01 5.12433 -1.9923 0
M  V30 1344 H 125.235 6.35614 -2.39107 0
M  V30 1345 H 123.181 6.55814 -0.156162 0
M  V30 1346 H 123.098 7.36977 -1.68526 0
M  V30 1347 H 124.366 7.77435 -0.567032 0
M  V30 1348 N 128.595 0.856903 1.32268 0
M  V30 1349 C 129.844 0.457599 1.96441 0
M  V30 1350 C 130.157 -0.992426 1.68553 0
M  V30 1351 O 131.363 -1.49727 2.26482 0
M  V30 1352 C 129.819 0.767358 3.51624 0
M  V30 1353 C 129.427 2.23326 3.88367 0
M  V30 1354 C 131.171 0.435887 4.22256 0
M  V30 1355 C 129.078 2.48613 5.36606 0
M  V30 1356 H 128.008 0.167387 0.735185 0
M  V30 1357 H 130.659 1.048 1.5063 0
M  V30 1358 H 129.041 0.106367 3.95857 0
M  V30 1359 H 130.215 2.93623 3.55137 0
M  V30 1360 H 128.53 2.52948 3.30766 0
M  V30 1361 H 131.127 0.602202 5.31298 0
M  V30 1362 H 131.47 -0.622672 4.11617 0
M  V30 1363 H 132.003 1.05286 3.83614 0
M  V30 1364 H 128.742 3.53101 5.52268 0
M  V30 1365 H 128.262 1.82896 5.71235 0
M  V30 1366 H 129.941 2.32676 6.03714 0
M  V30 1367 N 130.073 -1.45103 0.615059 0
M  V30 1368 C 131.322 -2.01396 0.110718 0
M  V30 1369 C 131.635 -1.48834 -1.26916 0
M  V30 1370 O 132.841 -1.97152 -1.86664 0
M  V30 1371 C 131.297 -3.59599 0.14723 0
M  V30 1372 C 130.905 -4.21158 1.52743 0
M  V30 1373 C 132.649 -4.23428 -0.30148 0
M  V30 1374 C 130.556 -5.71535 1.51992 0
M  V30 1375 H 129.486 -0.753061 0.0376241 0
M  V30 1376 H 132.137 -1.66494 0.77149 0
M  V30 1377 H 130.519 -3.91724 -0.580339 0
M  V30 1378 H 131.693 -4.00594 2.2773 0
M  V30 1379 H 130.008 -3.69552 1.91886 0
M  V30 1380 H 132.605 -5.33703 -0.326392 0
M  V30 1381 H 132.948 -3.94629 -1.32565 0
M  V30 1382 H 133.481 -3.96047 0.373065 0
M  V30 1383 H 130.22 -6.05044 2.52193 0
M  V30 1384 H 129.74 -5.94268 0.81274 0
M  V30 1385 H 131.419 -6.34873 1.24681 0
M  V30 1386 N 131.551 -0.354651 -1.53558 0
M  V30 1387 C 132.828 0.294281 -1.93374 0
M  V30 1388 C 133.208 1.67313 -1.28723 0
M  V30 1389 O 132.556 2.24179 -0.442247 0
M  V30 1390 C 132.766 0.355445 -3.47185 0
M  V30 1391 C 134.114 0.601007 -4.20325 0
M  V30 1392 O 135.138 0.437106 -3.53508 0
M  V30 1393 O 133.997 0.919322 -5.38712 0
M  V30 1394 H 131.091 0.174033 -0.808481 0
M  V30 1395 H 133.637 -0.406638 -1.64756 0
M  V30 1396 H 132.409 -0.611729 -3.86489 0
M  V30 1397 H 132.032 1.1027 -3.82003 0
M  V30 1398 N 133.029 1.57378 -0.0835403 0
M  V30 1399 C 133.992 2.12252 0.864959 0
M  V30 1400 C 134.992 1.04916 1.21858 0
M  V30 1401 O 136.182 1.30853 1.14991 0
M  V30 1402 C 133.314 2.63358 2.16461 0
M  V30 1403 H 134.507 2.97371 0.388676 0
M  V30 1404 H 132.06 1.55423 0.165317 0
M  V30 1405 H 132.795 1.81727 2.686 0
M  V30 1406 H 132.58 3.41826 1.92087 0
M  V30 1407 H 134.07 3.05847 2.84337 0
M  V30 1408 N 134.507 -0.190092 1.56449 0
M  V30 1409 C 135.47 -1.21925 1.9408 0
M  V30 1410 C 136.47 -1.38176 0.822431 0
M  V30 1411 O 137.66 -1.35903 1.08977 0
M  V30 1412 C 134.792 -2.58773 2.21922 0
M  V30 1413 H 135.985 -0.897464 2.86157 0
M  V30 1414 H 133.538 -0.43181 1.50217 0
M  V30 1415 H 134.273 -2.95998 1.32499 0
M  V30 1416 H 134.058 -2.48348 3.03424 0
M  V30 1417 H 135.548 -3.32978 2.52022 0
M  V30 1418 N 135.985 -1.50799 -0.457987 0
M  V30 1419 C 136.915 -1.73553 -1.5621 0
M  V30 1420 C 137.896 -0.584774 -1.59732 0
M  V30 1421 O 139.081 -0.825314 -1.7579 0
M  V30 1422 C 136.211 -1.84169 -2.94447 0
M  V30 1423 C 135.165 -2.99461 -3.0579 0
M  V30 1424 C 134.491 -2.95235 -4.45803 0
M  V30 1425 C 135.791 -4.39766 -2.81786 0
M  V30 1426 H 137.485 -2.66 -1.37421 0
M  V30 1427 H 135.031 -1.28002 -0.659662 0
M  V30 1428 H 136.984 -1.98672 -3.71628 0
M  V30 1429 H 135.708 -0.883545 -3.14422 0
M  V30 1430 H 134.367 -2.8463 -2.31044 0
M  V30 1431 H 134.015 -1.97239 -4.62715 0
M  V30 1432 H 133.715 -3.72642 -4.54326 0
M  V30 1433 H 135.239 -3.11803 -5.24987 0
M  V30 1434 H 136.653 -4.55054 -3.4871 0
M  V30 1435 H 135.05 -5.18722 -3.0174 0
M  V30 1436 H 136.12 -4.51229 -1.7754 0
M  V30 1437 N 137.463 0.71206 -1.40597 0
M  V30 1438 C 138.879 1.02058 -1.22704 0
M  V30 1439 C 139.079 2.01228 -0.104729 0
M  V30 1440 O 138.135 2.4674 0.53624 0
M  V30 1441 C 139.448 1.56094 -2.57012 0
M  V30 1442 C 140.996 1.6806 -2.64054 0
M  V30 1443 C 141.471 2.25501 -3.9864 0
M  V30 1444 N 142.962 2.32882 -4.004 0
M  V30 1445 C 143.697 2.78317 -5.01325 0
M  V30 1446 N 143.193 3.23478 -6.12645 0
M  V30 1447 N 144.986 2.77733 -4.88693 0
M  V30 1448 H 137.137 0.0547896 -2.12329 0
M  V30 1449 H 139.4 0.0869027 -0.944008 0
M  V30 1450 H 139.106 0.906865 -3.39807 0
M  V30 1451 H 138.98 2.54564 -2.78347 0
M  V30 1452 H 141.367 2.32583 -1.81629 0
M  V30 1453 H 141.448 0.681802 -2.46546 0
M  V30 1454 H 141.092 1.61598 -4.81506 0
M  V30 1455 H 141.022 3.26102 -4.13479 0
M  V30 1456 H 143.513 2.00991 -3.20017 0
M  V30 1457 H 143.826 3.56725 -6.85542 0
M  V30 1458 H 142.171 3.21429 -6.16205 0
M  V30 1459 H 145.362 2.4179 -4.00818 0
M  V30 1460 H 145.535 3.12826 -5.67489 0
M  V30 1461 N 138.941 1.26152 0.944643 0
M  V30 1462 C 139.904 1.07474 2.0244 0
M  V30 1463 C 140.904 0.0242064 1.60782 0
M  V30 1464 O 142.094 0.267302 1.72137 0
M  V30 1465 C 139.226 0.633956 3.34953 0
M  V30 1466 H 140.419 2.03336 2.20442 0
M  V30 1467 H 137.972 1.087 1.12312 0
M  V30 1468 H 138.707 -0.326811 3.22649 0
M  V30 1469 H 138.492 1.39247 3.66542 0
M  V30 1470 H 139.982 0.52501 4.14287 0
M  V30 1471 N 140.419 -1.14872 1.07899 0
M  V30 1472 C 141.659 -1.8745 0.814965 0
M  V30 1473 C 142.023 -1.80758 -0.64733 0
M  V30 1474 O 143.224 -2.48422 -1.02664 0
M  V30 1475 C 141.495 -3.32286 1.31607 0
M  V30 1476 S 143.054 -4.22537 1.18357 0
M  V30 1477 H 139.872 -0.646833 0.295174 0
M  V30 1478 H 142.474 -1.38555 1.37923 0
M  V30 1479 H 141.178 -3.34703 2.37491 0
M  V30 1480 H 140.709 -3.86238 0.747261 0
M  V30 1481 H 142.724 -4.96044 0.124586 0
M  V30 1482 N 141.898 -0.863906 -1.31812 0
M  V30 1483 C 143.314 -0.555004 -1.49639 0
M  V30 1484 C 143.514 0.912266 -1.79666 0
M  V30 1485 O 142.57 1.69479 -1.87171 0
M  V30 1486 C 143.883 -1.44998 -2.63431 0
M  V30 1487 C 145.431 -1.45138 -2.77316 0
M  V30 1488 C 145.906 -2.33179 -3.94197 0
M  V30 1489 N 147.397 -2.31025 -4.01474 0
M  V30 1490 C 148.132 -2.95871 -4.9117 0
M  V30 1491 N 147.628 -3.69863 -5.8581 0
M  V30 1492 N 149.421 -2.85211 -4.84367 0
M  V30 1493 H 141.572 -1.81339 -1.10589 0
M  V30 1494 H 143.835 -0.77505 -0.545895 0
M  V30 1495 H 143.541 -2.49377 -2.48 0
M  V30 1496 H 143.415 -1.14409 -3.59431 0
M  V30 1497 H 145.802 -0.415201 -2.92164 0
M  V30 1498 H 145.883 -1.79747 -1.82001 0
M  V30 1499 H 145.527 -3.3687 -3.80107 0
M  V30 1500 H 145.457 -1.95897 -4.88807 0
M  V30 1501 H 147.948 -1.77238 -3.33759 0
M  V30 1502 H 148.261 -4.16486 -6.50968 0
M  V30 1503 H 146.606 -3.73971 -5.85808 0
M  V30 1504 H 149.797 -2.26948 -4.09405 0
M  V30 1505 H 149.97 -3.36027 -5.54066 0
M  V30 1506 N 143.376 1.44774 -0.622745 0
M  V30 1507 C 144.792 1.56986 -0.287652 0
M  V30 1508 C 144.992 1.61167 1.20944 0
M  V30 1509 O 144.048 1.55015 1.99315 0
M  V30 1510 C 145.361 2.84551 -0.972188 0
M  V30 1511 C 146.909 2.9825 -0.949536 0
M  V30 1512 C 147.384 4.28605 -1.61437 0
M  V30 1513 N 148.875 4.35399 -1.58057 0
M  V30 1514 C 149.61 5.34964 -2.064 0
M  V30 1515 N 149.106 6.40981 -2.62897 0
M  V30 1516 N 150.899 5.26419 -1.97078 0
M  V30 1517 H 143.05 1.40304 -1.59463 0
M  V30 1518 H 145.313 0.671794 -0.668878 0
M  V30 1519 H 145.019 2.87417 -2.02693 0
M  V30 1520 H 144.893 3.73807 -0.504771 0
M  V30 1521 H 147.28 2.94941 0.0967067 0
M  V30 1522 H 147.361 2.10364 -1.45536 0
M  V30 1523 H 147.005 4.32672 -2.66002 0
M  V30 1524 H 146.935 5.15334 -1.08344 0
M  V30 1525 H 149.426 3.59397 -1.16801 0
M  V30 1526 H 149.739 7.13225 -2.97539 0
M  V30 1527 H 148.084 6.4169 -2.66943 0
M  V30 1528 H 151.275 4.42504 -1.52669 0
M  V30 1529 H 151.448 6.03861 -2.35066 0
M  V30 1530 N 144.854 0.36279 1.53368 0
M  V30 1531 C 145.784 -0.476976 2.28576 0
M  V30 1532 C 146.765 -1.08631 1.30894 0
M  V30 1533 O 147.95 -1.10409 1.59761 0
M  V30 1534 C 145.08 -1.61828 3.07293 0
M  V30 1535 C 144.034 -1.13633 4.1264 0
M  V30 1536 C 143.36 -2.36766 4.79423 0
M  V30 1537 C 144.66 -0.223061 5.21823 0
M  V30 1538 H 146.354 0.150474 2.99022 0
M  V30 1539 H 143.9 0.0738103 1.43811 0
M  V30 1540 H 145.853 -2.21237 3.58653 0
M  V30 1541 H 144.577 -2.27292 2.34533 0
M  V30 1542 H 143.236 -0.564945 3.62221 0
M  V30 1543 H 142.884 -3.0068 4.03238 0
M  V30 1544 H 142.584 -2.05192 5.50609 0
M  V30 1545 H 144.108 -2.96865 5.33576 0
M  V30 1546 H 145.522 -0.724545 5.68703 0
M  V30 1547 H 143.919 0.001678 6.001 0
M  V30 1548 H 144.989 0.735553 4.79289 0
M  V30 1549 N 146.332 -1.57332 0.0918853 0
M  V30 1550 C 147.28 -2.15075 -0.885747 0
M  V30 1551 C 148.274 -1.09277 -1.29441 0
M  V30 1552 O 149.48 -1.27627 -1.26931 0
M  V30 1553 H 145.855 -0.687966 -0.303656 0
M  V30 1554 H 147.826 -2.96047 -0.373995 0
M  V30 1555 C 146.575 -2.74325 -2.13638 0
M  V30 1556 H 145.898 -3.55418 -1.8308 0
M  V30 1557 H 147.338 -3.183 -2.80109 0
M  V30 1558 C 145.797 -1.70062 -2.90827 0
M  V30 1559 O 146.327 -1.13763 -3.85254 0
M  V30 1560 N 144.533 -1.40628 -2.54307 0
M  V30 1561 H 144.08 -1.866 -1.7759 0
M  V30 1562 H 144.038 -0.711043 -3.06254 0
M  V30 1563 N 147.81 0.181792 -1.56548 0
M  V30 1564 C 149.087 0.926765 -1.72251 0
M  V30 1565 C 149.467 2.00831 -0.650386 0
M  V30 1566 O 148.815 2.26008 0.336521 0
M  V30 1567 C 149.025 1.50106 -3.1507 0
M  V30 1568 C 150.373 1.97805 -3.75711 0
M  V30 1569 O 151.397 1.59922 -3.18282 0
M  V30 1570 O 150.256 2.67555 -4.76525 0
M  V30 1571 H 147.35 0.435506 -0.703039 0
M  V30 1572 H 149.896 0.170443 -1.68842 0
M  V30 1573 H 148.668 0.72212 -3.84579 0
M  V30 1574 H 148.291 2.32186 -3.22763 0
M  V30 1575 N 149.288 1.51039 0.449983 0
M  V30 1576 C 150.535 1.63081 1.20045 0
M  V30 1577 C 150.863 0.341024 1.91487 0
M  V30 1578 O 150.118 -0.674276 1.83717 0
M  V30 1579 C 150.417 2.77556 2.25161 0
M  V30 1580 C 150.083 4.17289 1.70823 0
M  V30 1581 C 148.745 4.55305 1.55725 0
M  V30 1582 C 151.097 5.04536 1.3074 0
M  V30 1583 C 148.425 5.78287 0.989999 0
M  V30 1584 C 150.777 6.28085 0.754482 0
M  V30 1585 C 149.441 6.64885 0.590308 0
M  V30 1586 H 148.711 0.596755 0.439277 0
M  V30 1587 H 151.358 1.85037 0.49333 0
M  V30 1588 H 149.663 2.49771 3.01863 0
M  V30 1589 H 151.36 2.84073 2.83026 0
M  V30 1590 H 147.95 3.8731 1.83546 0
M  V30 1591 H 152.134 4.75782 1.41229 0
M  V30 1592 H 147.39 6.05456 0.850451 0
M  V30 1593 H 151.564 6.95038 0.435324 0
M  V30 1594 H 149.191 7.60055 0.14862 0
M  V30 1595 N 150.766 -0.704594 1.40972 0
M  V30 1596 C 151.729 -1.80035 1.41845 0
M  V30 1597 C 152.729 -1.57774 0.310474 0
M  V30 1598 O 153.919 -1.64613 0.56992 0
M  V30 1599 C 151.051 -3.18284 1.22098 0
M  V30 1600 H 152.244 -1.80658 2.3938 0
M  V30 1601 H 149.797 -0.911329 1.26982 0
M  V30 1602 H 150.532 -3.23306 0.253672 0
M  V30 1603 H 150.317 -3.35843 2.02366 0
M  V30 1604 H 151.807 -3.98289 1.25522 0
M  V30 1605 N 152.244 -1.26651 -0.937939 0
M  V30 1606 C 153.469 -1.15279 -1.72411 0
M  V30 1607 C 153.894 0.287866 -1.85884 0
M  V30 1608 O 153.252 1.20855 -1.35143 0
M  V30 1609 C 153.3 -1.83028 -3.10698 0
M  V30 1610 O 152.404 -1.12128 -3.96864 0
M  V30 1611 H 151.745 -0.401504 -0.528858 0
M  V30 1612 H 154.275 -1.67531 -1.1745 0
M  V30 1613 H 154.285 -1.89981 -3.6107 0
M  V30 1614 H 152.96 -2.87833 -3.00208 0
M  V30 1615 H 151.537 -1.13173 -3.55312 0
M  V30 1616 N 153.722 1.14298 -1.08507 0
M  V30 1617 C 154.95 1.89219 -0.836876 0
M  V30 1618 C 155.365 1.78638 0.611054 0
M  V30 1619 O 154.722 1.14643 1.41998 0
M  V30 1620 C 154.773 3.39158 -1.25116 0
M  V30 1621 O 154.494 3.49449 -2.64229 0
M  V30 1622 C 155.995 4.31073 -1.03398 0
M  V30 1623 H 153.215 0.599328 -0.301739 0
M  V30 1624 H 155.759 1.44746 -1.44461 0
M  V30 1625 H 153.914 3.81251 -0.687514 0
M  V30 1626 H 154.328 4.42589 -2.81452 0
M  V30 1627 H 155.802 5.34646 -1.37323 0
M  V30 1628 H 156.279 4.3919 0.0289259 0
M  V30 1629 H 156.885 3.94738 -1.58311 0
M  V30 1630 N 155.201 0.870884 1.31352 0
M  V30 1631 C 156.447 0.482987 1.96965 0
M  V30 1632 C 156.78 -0.962462 1.68672 0
M  V30 1633 O 156.055 -1.6779 0.98371 0
M  V30 1634 C 156.338 0.741752 3.52378 0
M  V30 1635 C 156.191 2.2368 3.9024 0
M  V30 1636 C 157.51 0.208838 4.39604 0
M  V30 1637 H 154.629 0.176955 0.715441 0
M  V30 1638 H 157.271 1.09229 1.55464 0
M  V30 1639 H 155.421 0.223149 3.87859 0
M  V30 1640 H 157.093 2.82273 3.64856 0
M  V30 1641 H 155.336 2.70901 3.38814 0
M  V30 1642 H 156.007 2.3685 4.98604 0
M  V30 1643 H 158.483 0.652529 4.10952 0
M  V30 1644 H 157.359 0.419336 5.47296 0
M  V30 1645 H 157.62 -0.889275 4.33064 0
M  V30 1646 N 156.679 -1.44442 0.630414 0
M  V30 1647 C 158.095 -1.56832 0.295973 0
M  V30 1648 C 158.295 -1.61806 -1.20088 0
M  V30 1649 O 157.351 -1.5607 -1.9849 0
M  V30 1650 C 158.664 -2.84031 0.987264 0
M  V30 1651 C 160.212 -2.97742 0.96534 0
M  V30 1652 C 160.687 -4.27743 1.63708 0
M  V30 1653 N 162.178 -4.34555 1.60364 0
M  V30 1654 C 162.913 -5.33862 2.09234 0
M  V30 1655 N 162.409 -6.39578 2.66292 0
M  V30 1656 N 164.202 -5.25366 1.99867 0
M  V30 1657 H 156.353 -1.39457 1.60205 0
M  V30 1658 H 158.616 -0.668237 0.672431 0
M  V30 1659 H 158.322 -2.86338 2.04215 0
M  V30 1660 H 158.196 -3.73534 0.524588 0
M  V30 1661 H 160.583 -2.94989 -0.0810639 0
M  V30 1662 H 160.664 -2.09589 1.4665 0
M  V30 1663 H 160.308 -4.31255 2.68293 0
M  V30 1664 H 160.238 -5.14752 1.11076 0
M  V30 1665 H 162.729 -3.58772 1.18705 0
M  V30 1666 H 163.042 -7.11637 3.01317 0
M  V30 1667 H 161.387 -6.40265 2.70343 0
M  V30 1668 H 164.578 -4.41688 1.55013 0
M  V30 1669 H 164.751 -6.02606 2.38265 0
M  V30 1670 N 158.157 -0.370918 -1.53173 0
M  V30 1671 C 159.406 0.218249 -2.00516 0
M  V30 1672 C 159.719 1.49429 -1.26215 0
M  V30 1673 O 160.925 2.16239 -1.64174 0
M  V30 1674 C 159.381 0.43948 -3.57207 0
M  V30 1675 C 158.989 -0.822244 -4.4039 0
M  V30 1676 C 160.733 0.986012 -4.1289 0
M  V30 1677 C 158.64 -0.570304 -5.88644 0
M  V30 1678 H 157.57 0.0853333 -0.749156 0
M  V30 1679 H 160.221 -0.490483 -1.76823 0
M  V30 1680 H 158.603 1.20961 -3.77074 0
M  V30 1681 H 159.777 -1.59557 -4.32294 0
M  V30 1682 H 158.092 -1.29238 -3.95836 0
M  V30 1683 H 160.689 1.18991 -5.21292 0
M  V30 1684 H 161.032 1.94972 -3.6782 0
M  V30 1685 H 161.565 0.27592 -3.96842 0
M  V30 1686 H 158.304 -1.50449 -6.38001 0
M  V30 1687 H 157.824 0.164427 -5.99575 0
M  V30 1688 H 159.503 -0.19784 -6.46697 0
M  V30 1689 N 159.635 1.57281 -0.100228 0
M  V30 1690 C 160.565 2.17328 0.853857 0
M  V30 1691 C 161.546 1.10804 1.2906 0
M  V30 1692 O 162.731 1.38963 1.35657 0
M  V30 1693 C 159.861 2.75772 2.11109 0
M  V30 1694 C 158.815 3.87713 1.81279 0
M  V30 1695 C 158.141 4.32882 3.13874 0
M  V30 1696 C 159.441 5.10677 1.09574 0
M  V30 1697 H 161.135 2.97305 0.353545 0
M  V30 1698 H 158.681 1.43009 0.168612 0
M  V30 1699 H 160.634 3.16433 2.78296 0
M  V30 1700 H 159.358 1.93057 2.63432 0
M  V30 1701 H 158.017 3.476 1.16489 0
M  V30 1702 H 157.665 3.47051 3.64095 0
M  V30 1703 H 157.365 5.08358 2.94696 0
M  V30 1704 H 158.889 4.7618 3.82211 0
M  V30 1705 H 160.303 5.48474 1.66879 0
M  V30 1706 H 158.7 5.91615 1.00557 0
M  V30 1707 H 159.77 4.84835 0.0793299 0
M  V30 1708 N 161.113 -0.173488 1.56642 0
M  V30 1709 C 162.023 -1.23482 1.99473 0
M  V30 1710 C 163.039 -1.48567 0.905752 0
M  V30 1711 O 164.215 -1.60758 1.21321 0
M  V30 1712 C 161.28 -2.55444 2.34413 0
M  V30 1713 C 160.341 -2.38241 3.57127 0
M  V30 1714 C 159.574 -3.63909 3.90392 0
M  V30 1715 O 159.797 -4.68996 3.24653 0
M  V30 1716 O 158.731 -3.58149 4.83749 0
M  V30 1717 H 162.557 -0.901279 2.90018 0
M  V30 1718 H 160.142 -0.380185 1.44482 0
M  V30 1719 H 162.024 -3.33292 2.57865 0
M  V30 1720 H 160.699 -2.88382 1.4703 0
M  V30 1721 H 159.606 -1.58431 3.38896 0
M  V30 1722 H 160.939 -2.10228 4.45045 0
M  V30 1723 N 162.591 -1.51276 -0.441967 0
M  V30 1724 C 163.837 -1.63958 -1.19355 0
M  V30 1725 C 164.17 -0.352543 -1.90973 0
M  V30 1726 O 163.445 0.647627 -1.83401 0
M  V30 1727 C 163.728 -2.83979 -2.21422 0
M  V30 1728 C 163.581 -4.22646 -1.53918 0
M  V30 1729 C 164.9 -2.99521 -3.22451 0
M  V30 1730 H 162.019 -0.596709 -0.432559 0
M  V30 1731 H 164.661 -1.83748 -0.483398 0
M  V30 1732 H 162.811 -2.67237 -2.81987 0
M  V30 1733 H 164.483 -4.51045 -0.967256 0
M  V30 1734 H 162.726 -4.25558 -0.841615 0
M  V30 1735 H 163.397 -5.02609 -2.28229 0
M  V30 1736 H 165.873 -3.14944 -2.71937 0
M  V30 1737 H 164.749 -3.85072 -3.91166 0
M  V30 1738 H 165.01 -2.11391 -3.88287 0
M  V30 1739 N 164.069 0.697108 -1.41344 0
M  V30 1740 C 165.315 1.4593 -1.40827 0
M  V30 1741 C 165.648 1.94193 -0.0167098 0
M  V30 1742 O 164.923 1.69425 0.955263 0
M  V30 1743 C 165.206 2.67229 -2.41373 0
M  V30 1744 C 165.059 2.24741 -3.8963 0
M  V30 1745 C 166.378 3.69423 -2.39196 0
M  V30 1746 H 163.497 0.529303 -0.512842 0
M  V30 1747 H 166.139 0.794112 -1.72609 0
M  V30 1748 H 164.289 3.23982 -2.14401 0
M  V30 1749 H 165.961 1.73327 -4.27499 0
M  V30 1750 H 164.204 1.56542 -4.0457 0
M  V30 1751 H 164.875 3.1177 -4.55525 0
M  V30 1752 H 167.351 3.2234 -2.63128 0
M  V30 1753 H 166.227 4.51907 -3.11563 0
M  V30 1754 H 166.488 4.19012 -1.41001 0
M  V30 1755 N 165.547 1.27147 0.931209 0
M  V30 1756 C 166.494 1.09568 2.03134 0
M  V30 1757 C 167.464 -0.00222433 1.661 0
M  V30 1758 O 168.649 0.159439 1.90133 0
M  V30 1759 C 165.789 0.745231 3.36957 0
M  V30 1760 C 164.902 1.92041 3.86968 0
M  V30 1761 C 164.037 1.51216 5.09222 0
M  V30 1762 C 163.076 2.65504 5.5152 0
M  V30 1763 N 162.213 2.25291 6.64972 0
M  V30 1764 H 167.053 2.03708 2.17502 0
M  V30 1765 H 164.59 1.01411 1.06556 0
M  V30 1766 H 166.548 0.522878 4.1391 0
M  V30 1767 H 165.178 -0.159202 3.22407 0
M  V30 1768 H 164.23 2.25541 3.06326 0
M  V30 1769 H 165.542 2.77787 4.1429 0
M  V30 1770 H 164.696 1.25084 5.93666 0
M  V30 1771 H 163.435 0.625749 4.83669 0
M  V30 1772 H 162.44 2.92354 4.65628 0
M  V30 1773 H 163.665 3.54761 5.7907 0
M  V30 1774 H 161.611 1.39098 6.41083 0
M  V30 1775 H 161.528 3.04577 6.91931 0
M  V30 1776 H 162.796 2.02398 7.52765 0
M  V30 1777 N 167.025 -1.13721 1.09112 0
M  V30 1778 C 168.302 -1.81155 0.737706 0
M  V30 1779 C 168.682 -1.96253 -0.777683 0
M  V30 1780 O 168.03 -1.52807 -1.69889 0
M  V30 1781 C 168.24 -3.16392 1.47299 0
M  V30 1782 C 169.588 -3.91787 1.63671 0
M  V30 1783 O 170.612 -3.26005 1.43524 0
M  V30 1784 O 169.471 -5.0977 1.96969 0
M  V30 1785 H 166.565 -0.783518 0.26463 0
M  V30 1786 H 169.111 -1.20676 1.19312 0
M  V30 1787 H 167.883 -3.0061 2.50498 0
M  V30 1788 H 167.506 -3.8457 1.00953 0
M  V30 1789 N 168.503 -0.877838 -1.30888 0
M  V30 1790 C 169.45 -0.337538 -2.28318 0
M  V30 1791 C 170.42 0.568346 -1.56074 0
M  V30 1792 O 171.605 0.498298 -1.84178 0
M  V30 1793 C 168.745 0.448142 -3.42178 0
M  V30 1794 C 167.858 -0.48615 -4.29256 0
M  V30 1795 C 166.993 0.314427 -5.30269 0
M  V30 1796 C 166.032 -0.615791 -6.08995 0
M  V30 1797 N 165.169 0.14902 -7.01942 0
M  V30 1798 H 170.009 -1.17356 -2.73919 0
M  V30 1799 H 167.546 -0.590094 -1.34745 0
M  V30 1800 H 169.504 0.919517 -4.06941 0
M  V30 1801 H 168.134 1.24879 -2.97666 0
M  V30 1802 H 167.186 -1.076 -3.64865 0
M  V30 1803 H 168.498 -1.19909 -4.84173 0
M  V30 1804 H 167.652 0.847969 -6.00745 0
M  V30 1805 H 166.391 1.06062 -4.76027 0
M  V30 1806 H 165.396 -1.16102 -5.37401 0
M  V30 1807 H 166.621 -1.36097 -6.65323 0
M  V30 1808 H 164.567 0.877884 -6.50099 0
M  V30 1809 H 164.484 -0.504433 -7.54315 0
M  V30 1810 H 165.752 0.663537 -7.76671 0
M  V30 1811 N 169.982 1.44106 -0.638065 0
M  V30 1812 C 170.945 2.29138 0.0531013 0
M  V30 1813 C 171.945 1.41409 0.765506 0
M  V30 1814 O 173.135 1.63206 0.609046 0
M  V30 1815 C 170.267 3.23144 1.08584 0
M  V30 1816 H 171.46 2.91739 -0.694883 0
M  V30 1817 H 169.013 1.51134 -0.398538 0
M  V30 1818 H 169.748 2.65408 1.86357 0
M  V30 1819 H 169.533 3.87804 0.578852 0
M  V30 1820 H 171.023 3.87004 1.56899 0
M  V30 1821 N 171.46 0.379036 1.52974 0
M  V30 1822 C 172.708 -0.206014 2.01047 0
M  V30 1823 C 173.029 -1.48175 1.26765 0
M  V30 1824 O 172.299 -1.92085 0.384743 0
M  V30 1825 H 170.879 -0.0791184 0.742798 0
M  V30 1826 H 173.541 0.508366 1.88153 0
M  V30 1827 H 172.637 -0.423501 3.09213 0
M  V30 1828 N 172.938 -1.57226 0.108567 0
M  V30 1829 C 174.349 -1.8195 -0.418464 0
M  V30 1830 C 174.7 -1.02508 -1.67292 0
M  V30 1831 O 173.825 -0.258496 -2.14851 0
M  V30 1832 C 174.42 -3.30028 -0.765979 0
M  V30 1833 C 172.979 -3.55469 -1.23769 0
M  V30 1834 C 172.126 -2.7625 -0.241106 0
M  V30 1835 H 175.077 -1.55149 0.33384 0
M  V30 1836 H 175.098 -3.44086 -1.62434 0
M  V30 1837 H 174.61 -3.87821 0.147219 0
M  V30 1838 H 172.711 -3.03022 -2.16814 0
M  V30 1839 H 172.824 -4.6408 -1.19022 0
M  V30 1840 H 171.188 -2.44133 -0.72602 0
M  V30 1841 H 171.971 -3.36797 0.665007 0
M  V30 1842 N 174.416 0.165178 -1.56732 0
M  V30 1843 C 175.366 1.20917 -1.93295 0
M  V30 1844 C 176.35 1.39488 -0.801985 0
M  V30 1845 O 177.542 1.41356 -1.06525 0
M  V30 1846 C 174.671 2.54718 -2.3016 0
M  V30 1847 C 173.757 2.39815 -3.49785 0
M  V30 1848 N 174.148 1.94637 -4.66851 0
M  V30 1849 C 172.446 2.70623 -3.54513 0
M  V30 1850 C 173.147 1.92344 -5.4898 0
M  V30 1851 N 172.123 2.34978 -4.9019 0
M  V30 1852 H 175.925 0.851675 -2.81289 0
M  V30 1853 H 173.439 0.373399 -1.58049 0
M  V30 1854 H 175.436 3.30165 -2.54552 0
M  V30 1855 H 174.096 2.91265 -1.43508 0
M  V30 1856 H 175.107 1.6488 -4.90953 0
M  V30 1857 H 171.784 3.11167 -2.78354 0
M  V30 1858 H 173.174 1.5906 -6.52801 0
M  V30 1859 N 175.894 1.51508 0.433938 0
M  V30 1860 C 176.841 1.73068 1.52696 0
M  V30 1861 C 177.811 0.572441 1.55924 0
M  V30 1862 O 178.996 0.807253 1.72882 0
M  V30 1863 C 176.136 1.86474 2.90381 0
M  V30 1864 C 175.249 3.14037 2.96656 0
M  V30 1865 C 174.384 3.18019 4.25485 0
M  V30 1866 C 173.423 4.39882 4.2564 0
M  V30 1867 N 172.56 4.41394 5.45999 0
M  V30 1868 H 177.4 2.66366 1.33615 0
M  V30 1869 H 174.937 1.32008 0.649018 0
M  V30 1870 H 176.895 1.92229 3.70275 0
M  V30 1871 H 175.525 0.965809 3.08013 0
M  V30 1872 H 174.577 3.17575 2.09404 0
M  V30 1873 H 175.889 4.0394 2.92633 0
M  V30 1874 H 175.043 3.22708 5.13755 0
M  V30 1875 H 173.782 2.2601 4.3217 0
M  V30 1876 H 172.787 4.35366 3.35763 0
M  V30 1877 H 174.012 5.33159 4.20617 0
M  V30 1878 H 171.958 3.52258 5.53399 0
M  V30 1879 H 171.875 5.25111 5.4387 0
M  V30 1880 H 173.143 4.50281 6.36292 0
M  V30 1881 N 177.372 -0.689602 1.41712 0
M  V30 1882 C 178.282 -1.83314 1.46401 0
M  V30 1883 C 179.298 -1.7036 0.35405 0
M  V30 1884 O 180.474 -1.92171 0.602692 0
M  V30 1885 C 177.539 -3.19344 1.34982 0
M  V30 1886 C 176.6 -3.44363 2.56344 0
M  V30 1887 C 175.833 -4.73904 2.45461 0
M  V30 1888 O 176.056 -5.508 1.48241 0
M  V30 1889 O 174.99 -4.99839 3.35328 0
M  V30 1890 H 178.816 -1.82314 2.42889 0
M  V30 1891 H 176.401 -0.843438 1.23315 0
M  V30 1892 H 178.283 -4.00547 1.3092 0
M  V30 1893 H 176.958 -3.21014 0.41612 0
M  V30 1894 H 175.865 -2.63067 2.65982 0
M  V30 1895 H 177.198 -3.47512 3.48563 0
M  V30 1896 N 178.85 -1.27639 -0.924453 0
M  V30 1897 C 180.099 -1.13549 -1.66702 0
M  V30 1898 C 180.412 0.317487 -1.93006 0
M  V30 1899 O 181.618 0.579333 -2.65247 0
M  V30 1900 C 180.074 -1.98426 -3.00259 0
M  V30 1901 C 179.682 -3.484 -2.81641 0
M  V30 1902 C 181.426 -1.92993 -3.78092 0
M  V30 1903 C 179.333 -4.25464 -4.10773 0
M  V30 1904 H 178.263 -0.421351 -0.625283 0
M  V30 1905 H 180.914 -1.52085 -1.02676 0
M  V30 1906 H 179.296 -1.52736 -3.6536 0
M  V30 1907 H 180.47 -4.01973 -2.25287 0
M  V30 1908 H 178.785 -3.55245 -2.17232 0
M  V30 1909 H 181.382 -2.47844 -4.7379 0
M  V30 1910 H 181.725 -0.904281 -4.0636 0
M  V30 1911 H 182.258 -2.36595 -3.19793 0
M  V30 1912 H 178.997 -5.28566 -3.87683 0
M  V30 1913 H 178.517 -3.76667 -4.66779 0
M  V30 1914 H 180.196 -4.34812 -4.79111 0
M  V30 1915 N 180.328 1.1314 -1.09713 0
M  V30 1916 C 181.558 1.88048 -0.855656 0
M  V30 1917 C 181.966 1.79537 0.596919 0
M  V30 1918 O 181.309 1.16196 1.42282 0
M  V30 1919 C 181.371 3.38314 -1.21589 0
M  V30 1920 C 181.035 3.70605 -2.67397 0
M  V30 1921 C 182.032 3.69596 -3.65643 0
M  V30 1922 C 179.717 4.0017 -3.03593 0
M  V30 1923 C 181.711 3.977 -4.9811 0
M  V30 1924 C 179.398 4.27935 -4.36251 0
M  V30 1925 C 180.396 4.26685 -5.33318 0
M  V30 1926 O 180.084 4.53767 -6.63589 0
M  V30 1927 H 179.816 0.60208 -0.307368 0
M  V30 1928 H 182.37 1.44128 -1.46343 0
M  V30 1929 H 180.6 3.82752 -0.551177 0
M  V30 1930 H 182.289 3.94552 -0.953083 0
M  V30 1931 H 183.055 3.46826 -3.39023 0
M  V30 1932 H 178.934 4.00289 -2.2867 0
M  V30 1933 H 182.478 3.9664 -5.73866 0
M  V30 1934 H 178.375 4.50178 -4.62613 0
M  V30 1935 H 179.143 4.71422 -6.69107 0
M  V30 1936 N 181.806 0.884767 1.30421 0
M  V30 1937 C 183.217 0.553656 1.78302 0
M  V30 1938 C 183.568 -0.930153 1.7275 0
M  V30 1939 O 182.693 -1.72681 1.30423 0
M  V30 1940 C 183.288 0.998234 3.2376 0
M  V30 1941 C 181.847 0.71854 3.69478 0
M  V30 1942 C 180.994 1.18132 2.50879 0
M  V30 1943 H 183.945 1.06901 1.17294 0
M  V30 1944 H 183.966 0.327118 3.79091 0
M  V30 1945 H 183.478 2.0782 3.27769 0
M  V30 1946 H 181.579 -0.349444 3.70958 0
M  V30 1947 H 181.692 1.30595 4.60958 0
M  V30 1948 H 180.056 0.600669 2.47516 0
M  V30 1949 H 180.839 2.26902 2.57624 0
M  V30 1950 N 183.284 -1.43765 0.645699 0
M  V30 1951 C 184.514 -2.05953 0.163318 0
M  V30 1952 C 184.922 -1.48432 -1.17322 0
M  V30 1953 O 184.265 -0.607295 -1.73371 0
M  V30 1954 C 184.327 -3.59499 -0.0103065 0
M  V30 1955 C 183.991 -4.39563 1.25035 0
M  V30 1956 C 184.988 -4.72108 2.17739 0
M  V30 1957 C 182.673 -4.79697 1.48983 0
M  V30 1958 C 184.667 -5.43688 3.3269 0
M  V30 1959 C 182.354 -5.51023 2.64229 0
M  V30 1960 C 183.352 -5.8294 3.55908 0
M  V30 1961 O 183.04 -6.5281 4.69142 0
M  V30 1962 H 182.772 -0.670798 0.0836986 0
M  V30 1963 H 185.326 -1.85384 0.884407 0
M  V30 1964 H 183.556 -3.78613 -0.78669 0
M  V30 1965 H 185.245 -4.03408 -0.449087 0
M  V30 1966 H 186.011 -4.41627 2.00476 0
M  V30 1967 H 181.89 -4.54266 0.785078 0
M  V30 1968 H 185.434 -5.68517 4.04269 0
M  V30 1969 H 181.331 -5.8092 2.81429 0
M  V30 1970 H 182.099 -6.71288 4.6831 0
M  V30 1971 N 184.763 -0.387143 -1.52771 0
M  V30 1972 C 186.009 0.196025 -2.0185 0
M  V30 1973 C 186.342 1.46641 -1.27319 0
M  V30 1974 O 185.617 1.90889 -0.373032 0
M  V30 1975 C 185.9 0.466136 -3.5707 0
M  V30 1976 C 185.753 -0.819385 -4.42274 0
M  V30 1977 C 187.072 1.25768 -4.21747 0
M  V30 1978 H 184.191 0.0697708 -0.73369 0
M  V30 1979 H 186.833 -0.516286 -1.82851 0
M  V30 1980 H 184.983 1.07293 -3.7339 0
M  V30 1981 H 186.655 -1.4563 -4.37709 0
M  V30 1982 H 184.898 -1.43517 -4.09372 0
M  V30 1983 H 185.569 -0.585065 -5.48891 0
M  V30 1984 H 188.045 0.744167 -4.09391 0
M  V30 1985 H 186.921 1.41541 -5.30337 0
M  V30 1986 H 187.182 2.27228 -3.79236 0
M  V30 1987 N 186.241 1.57166 -0.116904 0
M  V30 1988 C 187.49 1.94298 0.541407 0
M  V30 1989 C 187.803 1.00236 1.67964 0
M  V30 1990 O 189.009 1.26826 2.40057 0
M  V30 1991 C 187.465 3.45306 1.01449 0
M  V30 1992 C 187.073 4.47899 -0.0951738 0
M  V30 1993 C 188.817 3.91361 1.6443 0
M  V30 1994 C 186.724 5.90083 0.394491 0
M  V30 1995 H 185.654 0.725308 0.206019 0
M  V30 1996 H 188.305 1.82446 -0.196419 0
M  V30 1997 H 186.687 3.52385 1.80667 0
M  V30 1998 H 187.861 4.52486 -0.871374 0
M  V30 1999 H 186.176 4.11583 -0.631505 0
M  V30 2000 H 188.773 4.95004 2.02176 0
M  V30 2001 H 189.116 3.3122 2.52189 0
M  V30 2002 H 189.649 3.87073 0.917559 0
M  V30 2003 H 186.388 6.53974 -0.447004 0
M  V30 2004 H 185.908 5.88921 1.13722 0
M  V30 2005 H 187.587 6.41307 0.856399 0
M  V30 2006 N 187.719 -0.156864 1.56817 0
M  V30 2007 C 188.651 -1.21883 1.94106 0
M  V30 2008 C 189.664 -1.3971 0.835754 0
M  V30 2009 O 190.853 -1.39457 1.11418 0
M  V30 2010 C 187.953 -2.58527 2.19127 0
M  V30 2011 C 187.126 -2.61809 3.50393 0
M  V30 2012 C 186.185 -3.7992 3.64071 0
M  V30 2013 O 185.211 -3.65249 4.36557 0
M  V30 2014 N 186.413 -4.96973 2.99997 0
M  V30 2015 H 189.178 -0.901974 2.85805 0
M  V30 2016 H 186.739 -0.346513 1.58148 0
M  V30 2017 H 188.731 -3.36034 2.25529 0
M  V30 2018 H 187.301 -2.82545 1.33742 0
M  V30 2019 H 186.521 -1.7029 3.5552 0
M  V30 2020 H 187.809 -2.61024 4.36742 0
M  V30 2021 H 187.207 -5.11794 2.41004 0
M  V30 2022 H 185.764 -5.7229 3.11974 0
M  V30 2023 N 189.197 -1.51736 -0.425897 0
M  V30 2024 C 190.107 -1.76738 -1.54275 0
M  V30 2025 C 191.123 -0.65211 -1.61318 0
M  V30 2026 O 192.299 -0.935654 -1.78346 0
M  V30 2027 C 189.364 -1.89755 -2.90162 0
M  V30 2028 C 188.425 -3.13633 -2.93143 0
M  V30 2029 C 187.658 -3.2602 -4.22548 0
M  V30 2030 O 187.881 -2.44067 -5.15546 0
M  V30 2031 O 186.815 -4.19071 -4.32046 0
M  V30 2032 H 190.641 -2.71502 -1.36089 0
M  V30 2033 H 188.226 -1.36376 -0.610069 0
M  V30 2034 H 190.108 -2.00236 -3.70788 0
M  V30 2035 H 188.783 -0.981785 -3.08452 0
M  V30 2036 H 187.69 -3.08622 -2.11431 0
M  V30 2037 H 189.023 -4.04936 -2.798 0
M  V30 2038 N 190.675 0.682077 -1.42076 0
M  V30 2039 C 191.605 1.80796 -1.47767 0
M  V30 2040 C 192.586 1.6677 -0.334954 0
M  V30 2041 O 193.771 1.863 -0.548264 0
M  V30 2042 C 190.901 3.19038 -1.37229 0
M  V30 2043 C 189.855 3.47789 -2.49453 0
M  V30 2044 C 189.181 4.8553 -2.23975 0
M  V30 2045 C 190.481 3.45411 -3.91776 0
M  V30 2046 H 192.175 1.7629 -2.41997 0
M  V30 2047 H 189.721 0.846721 -1.16476 0
M  V30 2048 H 191.674 3.97528 -1.39821 0
M  V30 2049 H 190.398 3.24204 -0.394907 0
M  V30 2050 H 189.057 2.71657 -2.46166 0
M  V30 2051 H 188.705 4.87337 -1.24547 0
M  V30 2052 H 188.405 5.0573 -2.99184 0
M  V30 2053 H 189.929 5.66312 -2.28304 0
M  V30 2054 H 191.343 4.13882 -3.96705 0
M  V30 2055 H 189.74 3.77145 -4.66778 0
M  V30 2056 H 190.81 2.44122 -4.18966 0
M  V30 2057 N 192.153 1.28127 0.917671 0
M  V30 2058 C 193.569 1.05749 1.19538 0
M  V30 2059 C 193.769 -0.202633 2.00479 0
M  V30 2060 O 192.825 -0.905382 2.3571 0
M  V30 2061 C 194.138 2.30273 1.93378 0
M  V30 2062 C 195.686 2.35412 2.06277 0
M  V30 2063 C 196.161 3.59692 2.83524 0
M  V30 2064 N 197.652 3.60309 2.91087 0
M  V30 2065 C 198.387 4.53147 3.51348 0
M  V30 2066 N 197.883 5.563 4.12919 0
M  V30 2067 N 199.676 4.40751 3.48849 0
M  V30 2068 H 191.827 2.09024 0.377184 0
M  V30 2069 H 194.09 0.919798 0.22951 0
M  V30 2070 H 193.796 3.22055 1.41328 0
M  V30 2071 H 193.67 2.36378 2.93947 0
M  V30 2072 H 196.057 1.4413 2.57508 0
M  V30 2073 H 196.138 2.33304 1.04895 0
M  V30 2074 H 195.782 4.51316 2.32973 0
M  V30 2075 H 195.712 3.59054 3.85211 0
M  V30 2076 H 198.203 2.85714 2.47338 0
M  V30 2077 H 198.516 6.2329 4.56869 0
M  V30 2078 H 196.861 5.60131 4.11435 0
M  V30 2079 H 200.052 3.59367 2.99955 0
M  V30 2080 H 200.225 5.13291 3.9552 0
M  V30 2081 N 193.631 -1.12557 1.10312 0
M  V30 2082 C 195.042 -1.65574 0.862678 0
M  V30 2083 C 195.393 -1.86566 -0.607256 0
M  V30 2084 O 194.518 -1.59121 -1.46662 0
M  V30 2085 C 195.113 -3.00776 1.55947 0
M  V30 2086 C 193.672 -3.50748 1.36576 0
M  V30 2087 C 192.819 -2.25797 1.60968 0
M  V30 2088 H 195.77 -0.963552 1.26101 0
M  V30 2089 H 195.791 -3.67185 0.997753 0
M  V30 2090 H 195.303 -2.85465 2.62928 0
M  V30 2091 H 193.404 -3.71245 0.317531 0
M  V30 2092 H 193.517 -4.30289 2.10686 0
M  V30 2093 H 191.881 -2.32841 1.03234 0
M  V30 2094 H 192.664 -2.13043 2.69198 0
M  V30 2095 N 195.109 -0.891671 -1.2995 0
M  V30 2096 C 196.337 -0.52866 -2.00032 0
M  V30 2097 C 196.752 0.884574 -1.66795 0
M  V30 2098 O 196.109 1.5827 -0.908669 0
M  V30 2099 C 196.16 -0.701814 -3.54622 0
M  V30 2100 O 195.881 -2.05942 -3.86678 0
M  V30 2101 C 197.382 -0.342683 -4.41973 0
M  V30 2102 H 194.602 -0.203659 -0.639347 0
M  V30 2103 H 197.146 -1.19881 -1.65677 0
M  V30 2104 H 195.301 -0.0789468 -3.8732 0
M  V30 2105 H 195.715 -2.08291 -4.81368 0
M  V30 2106 H 197.189 -0.514709 -5.49595 0
M  V30 2107 H 197.666 0.71975 -4.33262 0
M  V30 2108 H 198.272 -0.942154 -4.14733 0
M  V30 2109 N 196.587 1.43421 -0.653314 0
M  V30 2110 C 197.517 2.33487 0.0246656 0
M  V30 2111 C 198.498 1.49475 0.811863 0
M  V30 2112 O 199.683 1.78139 0.773322 0
M  V30 2113 C 196.813 3.32841 0.99166 0
M  V30 2114 C 195.767 4.26842 0.314568 0
M  V30 2115 C 195.093 5.16236 1.39302 0
M  V30 2116 C 196.393 5.16243 -0.793095 0
M  V30 2117 H 198.087 2.90427 -0.727481 0
M  V30 2118 H 195.633 1.39649 -0.351287 0
M  V30 2119 H 197.586 3.94747 1.47487 0
M  V30 2120 H 196.31 2.74158 1.77497 0
M  V30 2121 H 194.969 3.663 -0.148199 0
M  V30 2122 H 194.617 4.53891 2.16776 0
M  V30 2123 H 194.317 5.79948 0.945223 0
M  V30 2124 H 195.841 5.81015 1.87759 0
M  V30 2125 H 197.255 5.71958 -0.392039 0
M  V30 2126 H 195.652 5.88676 -1.16536 0
M  V30 2127 H 196.722 4.55927 -1.65103 0
M  V30 2128 N 198.065 0.39524 1.52563 0
M  V30 2129 C 199.013 -0.451859 2.28169 0
M  V30 2130 C 200.007 -1.05792 1.32304 0
M  V30 2131 O 201.213 -0.997718 1.49818 0
M  V30 2132 H 197.588 -0.164481 0.733792 0
M  V30 2133 H 199.559 0.207199 2.9768 0
M  V30 2134 C 198.308 -1.56385 3.10546 0
M  V30 2135 H 197.631 -1.10682 3.84174 0
M  V30 2136 H 199.071 -2.13067 3.66577 0
M  V30 2137 C 197.53 -2.52328 2.23231 0
M  V30 2138 O 198.06 -3.5588 1.86312 0
M  V30 2139 N 196.266 -2.22209 1.87274 0
M  V30 2140 H 195.813 -1.38033 2.17496 0
M  V30 2141 H 195.771 -2.86652 1.29143 0
M  V30 2142 N 199.544 -1.57102 0.125237 0
M  V30 2143 C 200.454 -2.19191 -0.8362 0
M  V30 2144 C 201.47 -1.16985 -1.28805 0
M  V30 2145 O 202.646 -1.49479 -1.34974 0
M  V30 2146 C 199.711 -2.78407 -2.06617 0
M  V30 2147 C 198.772 -3.9567 -1.66565 0
M  V30 2148 C 198.005 -4.52052 -2.83698 0
M  V30 2149 O 198.228 -4.07326 -3.99302 0
M  V30 2150 O 197.162 -5.42645 -2.60423 0
M  V30 2151 H 200.988 -3.01816 -0.337776 0
M  V30 2152 H 198.573 -1.4906 -0.100695 0
M  V30 2153 H 200.455 -3.16129 -2.7864 0
M  V30 2154 H 199.13 -1.9881 -2.55453 0
M  V30 2155 H 198.037 -3.62705 -0.916296 0
M  V30 2156 H 199.37 -4.76722 -1.22464 0
M  V30 2157 N 201.022 0.148545 -1.56898 0
M  V30 2158 C 201.952 1.18524 -2.01182 0
M  V30 2159 C 202.933 1.4489 -0.891123 0
M  V30 2160 O 204.118 1.55836 -1.15882 0
M  V30 2161 C 201.248 2.51879 -2.39112 0
M  V30 2162 C 200.202 2.40038 -3.54353 0
M  V30 2163 C 199.528 3.78089 -3.78091 0
M  V30 2164 C 200.828 1.88577 -4.87069 0
M  V30 2165 H 202.522 0.817029 -2.88036 0
M  V30 2166 H 200.068 0.391575 -1.38574 0
M  V30 2167 H 202.021 3.24627 -2.68692 0
M  V30 2168 H 200.745 2.90532 -1.49193 0
M  V30 2169 H 199.404 1.69742 -3.24936 0
M  V30 2170 H 199.052 4.14175 -2.85426 0
M  V30 2171 H 198.752 3.71028 -4.55645 0
M  V30 2172 H 200.276 4.52387 -4.10095 0
M  V30 2173 H 201.69 2.51117 -5.15377 0
M  V30 2174 H 200.087 1.9241 -5.68417 0
M  V30 2175 H 201.157 0.84136 -4.77545 0
M  V30 2176 N 202.5 1.5196 0.417844 0
M  V30 2177 C 203.748 1.65263 1.16329 0
M  V30 2178 C 204.069 0.380634 1.91249 0
M  V30 2179 O 203.339 -0.604214 1.86349 0
M  V30 2180 H 201.919 0.60912 0.432414 0
M  V30 2181 H 204.581 1.88969 0.477162 0
M  V30 2182 H 203.677 2.4896 1.88217 0
M  V30 2183 N 203.978 -0.674533 1.42435 0
M  V30 2184 C 205.227 -1.43034 1.42212 0
M  V30 2185 C 205.54 -1.95555 0.0420788 0
M  V30 2186 O 206.746 -2.71374 -0.0827558 0
M  V30 2187 C 205.202 -2.58748 2.50155 0
M  V30 2188 C 204.81 -2.12925 3.94166 0
M  V30 2189 C 206.554 -3.36257 2.59098 0
M  V30 2190 C 204.461 -3.25723 4.93618 0
M  V30 2191 H 203.391 -0.537345 0.528939 0
M  V30 2192 H 206.042 -0.73024 1.68344 0
M  V30 2193 H 204.424 -3.31128 2.17188 0
M  V30 2194 H 205.598 -1.47697 4.36488 0
M  V30 2195 H 203.913 -1.48354 3.89076 0
M  V30 2196 H 206.51 -4.20264 3.30578 0
M  V30 2197 H 206.853 -3.82866 1.63461 0
M  V30 2198 H 207.386 -2.70947 2.9126 0
M  V30 2199 H 204.125 -2.84105 5.90732 0
M  V30 2200 H 203.645 -3.89732 4.55926 0
M  V30 2201 H 205.324 -3.91186 5.15347 0
M  V30 2202 N 205.456 -1.28612 -0.910864 0
M  V30 2203 C 206.681 -1.1891 -1.69927 0
M  V30 2204 C 207.106 0.248372 -1.86453 0
M  V30 2205 O 206.464 1.17961 -1.37676 0
M  V30 2206 C 206.512 -1.89578 -3.06745 0
M  V30 2207 O 205.616 -1.20521 -3.94396 0
M  V30 2208 H 204.957 -0.412632 -0.520222 0
M  V30 2209 H 207.487 -1.69985 -1.1387 0
M  V30 2210 H 207.497 -1.97597 -3.56958 0
M  V30 2211 H 206.172 -2.94136 -2.94035 0
M  V30 2212 H 204.749 -1.20684 -3.52831 0
M  V30 2213 N 206.934 1.1197 -1.10907 0
M  V30 2214 C 208.162 1.87402 -0.876824 0
M  V30 2215 C 208.577 1.79894 0.573025 0
M  V30 2216 O 207.934 1.17629 1.39534 0
M  V30 2217 C 207.985 3.36428 -1.32282 0
M  V30 2218 O 207.706 3.43765 -2.71582 0
M  V30 2219 C 209.207 4.28783 -1.12518 0
M  V30 2220 H 206.427 0.592793 -0.314384 0
M  V30 2221 H 208.971 1.41649 -1.47499 0
M  V30 2222 H 207.126 3.79706 -0.768229 0
M  V30 2223 H 207.54 4.3652 -2.90776 0
M  V30 2224 H 209.014 5.31613 -1.48633 0
M  V30 2225 H 209.491 4.39153 -0.0642394 0
M  V30 2226 H 210.097 3.91291 -1.66648 0
M  V30 2227 N 208.412 0.89855 1.29475 0
M  V30 2228 C 209.823 0.572537 1.77705 0
M  V30 2229 C 210.174 -0.911778 1.73727 0
M  V30 2230 O 209.299 -1.71288 1.32247 0
M  V30 2231 C 209.894 1.03252 3.22683 0
M  V30 2232 C 208.453 0.757687 3.68695 0
M  V30 2233 C 207.6 1.20787 2.49612 0
M  V30 2234 H 210.551 1.08139 1.16153 0
M  V30 2235 H 210.572 0.367307 3.78723 0
M  V30 2236 H 210.084 2.11285 3.25546 0
M  V30 2237 H 208.185 -0.310079 3.71308 0
M  V30 2238 H 208.298 1.35476 4.59547 0
M  V30 2239 H 206.662 0.626888 2.46865 0
M  V30 2240 H 207.445 2.29622 2.55203 0
M  V30 2241 N 209.89 -1.43072 0.660911 0
M  V30 2242 C 210.8 -2.34585 -0.0264163 0
M  V30 2243 C 211.816 -1.54316 -0.803898 0
M  V30 2244 O 212.992 -1.86939 -0.749391 0
M  V30 2245 C 210.057 -3.32689 -0.975639 0
M  V30 2246 C 209.118 -4.2886 -0.194236 0
M  V30 2247 C 208.351 -5.22278 -1.09825 0
M  V30 2248 O 208.574 -5.20299 -2.33763 0
M  V30 2249 O 207.508 -5.99228 -0.566513 0
M  V30 2250 H 211.334 -2.94869 0.727034 0
M  V30 2251 H 208.919 -1.43342 0.42111 0
M  V30 2252 H 210.801 -3.92995 -1.52094 0
M  V30 2253 H 209.476 -2.74898 -1.70918 0
M  V30 2254 H 208.383 -3.72011 0.394835 0
M  V30 2255 H 209.716 -4.89655 0.499899 0
M  V30 2256 N 211.368 -0.403325 -1.52352 0
M  V30 2257 C 212.278 0.432009 -2.30588 0
M  V30 2258 C 213.294 1.05884 -1.38075 0
M  V30 2259 O 214.47 1.06161 -1.71148 0
M  V30 2260 C 211.535 1.53669 -3.10784 0
M  V30 2261 C 210.596 0.933525 -4.19027 0
M  V30 2262 C 209.829 1.98557 -4.9539 0
M  V30 2263 O 210.052 3.20283 -4.71991 0
M  V30 2264 O 208.986 1.59504 -5.80381 0
M  V30 2265 H 212.812 -0.205739 -3.03002 0
M  V30 2266 H 210.397 -0.166675 -1.48467 0
M  V30 2267 H 212.279 2.17814 -3.60742 0
M  V30 2268 H 210.954 2.15915 -2.41169 0
M  V30 2269 H 209.861 0.254954 -3.7323 0
M  V30 2270 H 211.194 0.35508 -4.90918 0
M  V30 2271 N 212.846 1.57033 -0.133567 0
M  V30 2272 C 213.776 2.1909 0.807567 0
M  V30 2273 C 214.757 1.13517 1.26681 0
M  V30 2274 O 215.942 1.41809 1.32679 0
M  V30 2275 C 213.072 2.80188 2.05212 0
M  V30 2276 C 212.026 3.91471 1.73015 0
M  V30 2277 C 211.352 4.39443 3.04622 0
M  V30 2278 C 212.652 5.12886 0.987168 0
M  V30 2279 H 214.346 2.97988 0.290403 0
M  V30 2280 H 211.892 1.43335 0.138239 0
M  V30 2281 H 213.845 3.22264 2.71521 0
M  V30 2282 H 212.569 1.98601 2.59278 0
M  V30 2283 H 211.228 3.49993 1.0909 0
M  V30 2284 H 210.876 3.54695 3.56651 0
M  V30 2285 H 210.576 5.14495 2.83847 0
M  V30 2286 H 212.1 4.8418 3.72024 0
M  V30 2287 H 213.514 5.51891 1.55208 0
M  V30 2288 H 211.911 5.93615 0.87985 0
M  V30 2289 H 212.981 4.84894 -0.0235286 0
M  V30 2290 N 214.325 -0.140222 1.56975 0
M  V30 2291 C 215.573 -0.850005 1.83356 0
M  V30 2292 C 215.894 -1.81399 0.71551 0
M  V30 2293 O 215.164 -1.94136 -0.262294 0
M  V30 2294 H 213.744 -0.316886 0.676456 0
M  V30 2295 H 216.406 -0.132608 1.94448 0
M  V30 2296 H 215.502 -1.40814 2.78528 0
M  V30 2297 N 215.803 -1.52179 -0.40978 0
M  V30 2298 C 216.733 -1.78435 -1.5061 0
M  V30 2299 C 217.714 -0.635295 -1.57791 0
M  V30 2300 O 218.899 -0.880823 -1.73076 0
M  V30 2301 C 216.029 -1.93444 -2.88439 0
M  V30 2302 C 214.983 -3.09038 -2.96108 0
M  V30 2303 C 214.309 -3.09268 -4.36185 0
M  V30 2304 C 215.609 -4.48508 -2.67652 0
M  V30 2305 H 217.303 -2.70237 -1.28889 0
M  V30 2306 H 214.849 -1.30036 -0.618605 0
M  V30 2307 H 216.802 -2.10394 -3.65119 0
M  V30 2308 H 215.526 -0.983129 -3.11452 0
M  V30 2309 H 214.185 -2.91837 -2.21872 0
M  V30 2310 H 213.833 -2.11861 -4.56206 0
M  V30 2311 H 213.533 -3.86907 -4.42241 0
M  V30 2312 H 215.057 -3.28348 -5.14801 0
M  V30 2313 H 216.471 -4.65918 -3.34056 0
M  V30 2314 H 214.868 -5.28059 -2.85085 0
M  V30 2315 H 215.938 -4.56649 -1.63095 0
M  V30 2316 N 217.281 0.66697 -1.42791 0
M  V30 2317 C 218.558 1.4234 -1.34159 0
M  V30 2318 C 218.938 2.11093 0.0172729 0
M  V30 2319 O 218.286 2.03808 1.03318 0
M  V30 2320 C 218.496 2.41942 -2.51526 0
M  V30 2321 C 219.844 3.06353 -2.93995 0
M  V30 2322 O 220.868 2.52269 -2.51473 0
M  V30 2323 O 219.727 4.04376 -3.67617 0
M  V30 2324 H 216.821 0.635277 -0.529483 0
M  V30 2325 H 219.367 0.695034 -1.54814 0
M  V30 2326 H 218.139 1.89991 -3.42081 0
M  V30 2327 H 217.762 3.22249 -2.32898 0
M  V30 2328 N 218.759 1.29093 0.90403 0
M  V30 2329 C 219.706 1.13853 2.00764 0
M  V30 2330 C 220.676 0.0330084 1.66067 0
M  V30 2331 O 221.861 0.199733 1.89752 0
M  V30 2332 C 219.001 0.816537 3.35301 0
M  V30 2333 C 218.114 2.00206 3.82807 0
M  V30 2334 C 217.249 1.61983 5.059 0
M  V30 2335 C 216.288 2.77143 5.45764 0
M  V30 2336 N 215.425 2.39346 6.60044 0
M  V30 2337 H 220.265 2.08276 2.13132 0
M  V30 2338 H 217.802 1.03648 1.04381 0
M  V30 2339 H 219.76 0.610557 4.12708 0
M  V30 2340 H 218.39 -0.090779 3.22672 0
M  V30 2341 H 217.442 2.31988 3.01473 0
M  V30 2342 H 218.754 2.86512 4.08304 0
M  V30 2343 H 217.908 1.37649 5.90879 0
M  V30 2344 H 216.647 0.728202 4.82233 0
M  V30 2345 H 215.652 3.02165 4.59322 0
M  V30 2346 H 216.877 3.66964 5.71414 0
M  V30 2347 H 214.823 1.52665 6.37989 0
M  V30 2348 H 214.74 3.19185 6.85315 0
M  V30 2349 H 216.008 2.1832 7.48303 0
M  V30 2350 N 220.237 -1.11381 1.11499 0
M  V30 2351 C 221.483 -1.83403 0.865512 0
M  V30 2352 C 221.816 -1.84459 -0.607329 0
M  V30 2353 O 221.091 -1.29811 -1.44842 0
M  V30 2354 C 221.374 -3.30552 1.42855 0
M  V30 2355 C 221.227 -3.37886 2.96906 0
M  V30 2356 C 222.546 -4.26643 1.08 0
M  V30 2357 H 219.665 -0.665879 0.31587 0
M  V30 2358 H 222.307 -1.30601 1.37998 0
M  V30 2359 H 220.457 -3.75648 0.990985 0
M  V30 2360 H 222.129 -3.01343 3.49271 0
M  V30 2361 H 220.372 -2.78088 3.32941 0
M  V30 2362 H 221.043 -4.41458 3.31389 0
M  V30 2363 H 223.519 -3.89729 1.45775 0
M  V30 2364 H 222.395 -5.27986 1.50072 0
M  V30 2365 H 222.656 -4.42099 -0.00915037 0
M  V30 2366 O 221.754 -1.0376 -1.23758 0
M  V30 2367 H 222.445 -0.707174 -1.8033 0
M  V30 END ATOM
M  V30 BEGIN BOND
M  V30 END BOND
M  V30 END CTAB
M  END
$$$$
