drugbank_target|P20702 Integrin alpha-X (DB00095)
 OpenBabel12092121233D

  0  0  0     0  0            999 V3000
M  V30 BEGIN CTAB
M  V30 COUNTS 17895 18094 0 0 0
M  V30 BEGIN ATOM
M  V30 1 H -0.908 1.98254 -0.117106 0
M  V30 2 N 0 1.576 0 0
M  V30 3 C 0.933 2.03868 1.02534 0
M  V30 4 C 1.911 0.928543 1.3348 0
M  V30 5 O 3.095 1.19667 1.45644 0
M  V30 6 C 0.222 2.43627 2.35294 0
M  V30 7 C -0.732 3.65373 2.2001 0
M  V30 8 S 0.101 5.13292 1.52614 0
M  V30 9 C 1.257 5.56322 2.86805 0
M  V30 10 H 1.49 2.90518 0.631377 0
M  V30 11 H -0.977 1.52953 0.210867 0
M  V30 12 H 0.981 2.67203 3.11629 0
M  V30 13 H -0.358 1.57376 2.7183 0
M  V30 14 H -1.165 3.90944 3.18086 0
M  V30 15 H -1.563 3.418 1.51819 0
M  V30 16 H 0.729 5.58782 3.83104 0
M  V30 17 H 1.672 6.56266 2.65933 0
M  V30 18 H 2.08 4.83886 2.90714 0
M  V30 19 N 1.4781 -0.272755 1.55222 0
M  V30 20 C 2.7061 -1.02255 1.79865 0
M  V30 21 C 3.1211 -1.79924 0.572088 0
M  V30 22 O 2.4781 -1.76638 -0.458842 0
M  V30 23 C 2.5291 -1.98094 3.02392 0
M  V30 24 O 2.2501 -1.23572 4.20311 0
M  V30 25 C 3.7511 -2.84884 3.39641 0
M  V30 26 H 0.9711 -0.302057 0.599168 0
M  V30 27 H 3.5151 -0.303465 2.02236 0
M  V30 28 H 1.6701 -2.65465 2.82147 0
M  V30 29 H 2.0841 -1.88172 4.89583 0
M  V30 30 H 3.5581 -3.47927 4.28545 0
M  V30 31 H 4.0351 -3.54665 2.59055 0
M  V30 32 H 4.6411 -2.23003 3.62146 0
M  V30 33 N 2.9562 -1.48159 -0.537278 0
M  V30 34 C 4.3722 -1.34118 -0.865129 0
M  V30 35 C 4.5722 -0.346678 -1.98495 0
M  V30 36 O 3.6282 0.234715 -2.51407 0
M  V30 37 C 4.9412 -2.73963 -1.23954 0
M  V30 38 C 6.4892 -2.82397 -1.34984 0
M  V30 39 C 6.9642 -4.22928 -1.75772 0
M  V30 40 N 8.4552 -4.25566 -1.82887 0
M  V30 41 C 9.1902 -5.31235 -2.15817 0
M  V30 42 N 8.6862 -6.47189 -2.47222 0
M  V30 43 N 10.4792 -5.18624 -2.16761 0
M  V30 44 H 2.6302 -2.1144 0.201715 0
M  V30 45 H 4.8932 -0.947598 0.0275949 0
M  V30 46 H 4.5992 -3.48264 -0.490381 0
M  V30 47 H 4.4732 -3.0702 -2.19132 0
M  V30 48 H 6.8602 -2.08356 -2.08978 0
M  V30 49 H 6.9412 -2.5297 -0.379448 0
M  V30 50 H 6.5852 -4.97482 -1.02341 0
M  V30 51 H 6.5152 -4.49794 -2.73848 0
M  V30 52 H 9.0062 -3.41924 -1.60924 0
M  V30 53 H 9.3192 -7.23564 -2.71433 0
M  V30 54 H 7.6642 -6.50476 -2.44757 0
M  V30 55 H 10.8552 -4.27056 -1.91679 0
M  V30 56 H 11.0282 -6.01078 -2.42093 0
M  V30 57 N 4.4343 0.785586 -1.36625 0
M  V30 58 C 5.6623 1.57448 -1.3423 0
M  V30 59 C 6.0773 1.88649 0.0755653 0
M  V30 60 O 5.4343 1.50414 1.03354 0
M  V30 61 C 5.4853 2.89316 -2.16745 0
M  V30 62 O 5.2063 2.59459 -3.53005 0
M  V30 63 C 6.7073 3.83606 -2.22174 0
M  V30 64 H 3.9273 0.488226 -0.4603 0
M  V30 65 H 6.4713 0.974733 -1.79775 0
M  V30 66 H 4.6263 3.4575 -1.74745 0
M  V30 67 H 5.0403 3.43804 -3.96105 0
M  V30 68 H 6.5143 4.73181 -2.8426 0
M  V30 69 H 6.9913 4.21734 -1.22627 0
M  V30 70 H 7.5973 3.33104 -2.64427 0
M  V30 71 N 5.9124 1.20967 1.01018 0
M  V30 72 C 7.3284 0.965905 1.27053 0
M  V30 73 C 7.5284 -0.350785 1.98423 0
M  V30 74 O 6.5844 -1.07773 2.28344 0
M  V30 75 C 7.8974 2.15294 2.09926 0
M  V30 76 C 9.4454 2.19463 2.23171 0
M  V30 77 C 9.9204 3.3767 3.09424 0
M  V30 78 N 11.4114 3.37724 3.17012 0
M  V30 79 C 12.1464 4.25837 3.83993 0
M  V30 80 N 11.6424 5.24138 4.53047 0
M  V30 81 N 13.4354 4.1366 3.80581 0
M  V30 82 H 5.5864 2.0565 0.531194 0
M  V30 83 H 7.8494 0.90024 0.297106 0
M  V30 84 H 7.5554 3.10684 1.64828 0
M  V30 85 H 7.4294 2.13923 3.10672 0
M  V30 86 H 9.8164 1.24632 2.6749 0
M  V30 87 H 9.8974 2.2488 1.21912 0
M  V30 88 H 9.5414 4.32791 2.65808 0
M  V30 89 H 9.4714 3.29491 4.10784 0
M  V30 90 H 11.9624 2.6658 2.6785 0
M  V30 91 H 12.2754 5.87684 5.01844 0
M  V30 92 H 10.6204 5.28068 4.5185 0
M  V30 93 H 13.8114 3.36127 3.25785 0
M  V30 94 H 13.9844 4.82538 4.32505 0
M  V30 95 N 7.3905 -1.2043 1.01659 0
M  V30 96 C 8.3535 -2.21433 0.591616 0
M  V30 97 C 9.3535 -1.57203 -0.338226 0
M  V30 98 O 10.5435 -1.73737 -0.126918 0
M  V30 99 C 7.6755 -3.40628 -0.136058 0
M  V30 100 H 8.8685 -2.60545 1.48514 0
M  V30 101 H 6.4215 -1.33893 0.806379 0
M  V30 102 H 7.1565 -3.07019 -1.04449 0
M  V30 103 H 6.9415 -3.88475 0.531917 0
M  V30 104 H 8.4315 -4.15475 -0.420735 0
M  V30 105 N 8.8686 -0.792821 -1.36206 0
M  V30 106 C 9.8316 -0.199459 -2.2833 0
M  V30 107 C 10.8316 0.605189 -1.48977 0
M  V30 108 O 12.0216 0.425685 -1.68919 0
M  V30 109 C 9.1536 0.723523 -3.33134 0
M  V30 110 H 10.3466 -1.01181 -2.82316 0
M  V30 111 H 7.8996 -0.562485 -1.45828 0
M  V30 112 H 8.6346 1.56008 -2.84309 0
M  V30 113 H 8.4196 0.148436 -3.91819 0
M  V30 114 H 9.9096 1.13344 -4.01924 0
M  V30 115 N 10.3467 1.47872 -0.545128 0
M  V30 116 C 11.2767 2.32661 0.197793 0
M  V30 117 C 12.2577 1.43041 0.920504 0
M  V30 118 O 13.4427 1.71912 0.90333 0
M  V30 119 C 10.5727 3.24569 1.23582 0
M  V30 120 C 9.5267 4.23333 0.630323 0
M  V30 121 C 8.8527 5.0448 1.77211 0
M  V30 122 C 10.1527 5.20704 -0.407974 0
M  V30 123 H 11.8467 2.95024 -0.510045 0
M  V30 124 H 9.3927 1.4187 -0.246731 0
M  V30 125 H 11.3457 3.8272 1.76362 0
M  V30 126 H 10.0697 2.60236 1.97344 0
M  V30 127 H 8.7287 3.6639 0.123922 0
M  V30 128 H 8.3767 4.36561 2.49847 0
M  V30 129 H 8.0767 5.71339 1.37281 0
M  V30 130 H 9.6007 5.65487 2.3034 0
M  V30 131 H 11.0147 5.7329 0.033305 0
M  V30 132 H 9.4117 5.95699 -0.725486 0
M  V30 133 H 10.4817 4.66917 -1.30828 0
M  V30 134 N 11.8248 0.280983 1.55075 0
M  V30 135 C 12.7548 -0.597469 2.25727 0
M  V30 136 C 13.7358 -1.15417 1.24952 0
M  V30 137 O 14.9208 -1.18722 1.53684 0
M  V30 138 C 12.0508 -1.7789 2.98283 0
M  V30 139 C 11.0048 -1.35347 4.06036 0
M  V30 140 C 10.3308 -2.61846 4.66198 0
M  V30 141 C 11.6308 -0.499354 5.19907 0
M  V30 142 H 13.3248 -0.00824265 2.99399 0
M  V30 143 H 10.8708 -0.0025244 1.44 0
M  V30 144 H 12.8238 -2.39937 3.46422 0
M  V30 145 H 11.5478 -2.39405 2.22155 0
M  V30 146 H 10.2068 -0.756156 3.58717 0
M  V30 147 H 9.8548 -3.21632 3.86732 0
M  V30 148 H 9.5548 -2.3409 5.38958 0
M  V30 149 H 11.0788 -3.24732 5.1709 0
M  V30 150 H 12.4928 -1.02498 5.64063 0
M  V30 151 H 10.8898 -0.316424 5.99265 0
M  V30 152 H 11.9598 0.480459 4.82514 0
M  V30 153 N 13.3029 -1.57598 0.00835791 0
M  V30 154 C 14.2329 -2.1198 -0.979113 0
M  V30 155 C 15.2139 -1.03091 -1.35301 0
M  V30 156 O 16.3989 -1.30818 -1.43528 0
M  V30 157 C 13.5289 -2.62995 -2.26828 0
M  V30 158 C 12.4829 -3.76485 -2.03576 0
M  V30 159 C 11.8089 -4.13846 -3.38579 0
M  V30 160 C 13.1089 -5.0342 -1.39161 0
M  V30 161 H 14.8029 -2.94738 -0.526281 0
M  V30 162 H 12.3489 -1.41783 -0.251704 0
M  V30 163 H 14.3019 -2.99669 -2.96271 0
M  V30 164 H 13.0259 -1.7737 -2.7424 0
M  V30 165 H 11.6849 -3.40217 -1.36557 0
M  V30 166 H 11.3329 -3.25232 -3.83709 0
M  V30 167 H 11.0329 -4.90312 -3.23834 0
M  V30 168 H 12.5569 -4.53086 -4.09323 0
M  V30 169 H 13.9709 -5.37812 -1.98573 0
M  V30 170 H 12.3679 -5.84746 -1.34878 0
M  V30 171 H 13.4379 -4.83548 -0.361868 0
M  V30 172 N 14.781 0.264519 -1.55364 0
M  V30 173 C 16.028 0.994986 -1.7637 0
M  V30 174 C 16.356 1.85976 -0.5695 0
M  V30 175 O 15.611 1.90509 0.44776 0
M  V30 176 C 15.91 1.9004 -3.02687 0
M  V30 177 C 15.576 1.19243 -4.34847 0
M  V30 178 C 14.238 0.996709 -4.70764 0
M  V30 179 C 16.59 0.689296 -5.16622 0
M  V30 180 C 13.918 0.285261 -5.86006 0
M  V30 181 C 16.27 -0.00860079 -6.32599 0
M  V30 182 C 14.934 -0.215963 -6.67151 0
M  V30 183 H 14.204 0.364091 -0.645383 0
M  V30 184 H 16.851 0.266543 -1.89636 0
M  V30 185 H 15.156 2.69533 -2.84357 0
M  V30 186 H 16.853 2.46695 -3.16137 0
M  V30 187 H 13.443 1.3549 -4.06621 0
M  V30 188 H 17.627 0.828108 -4.89342 0
M  V30 189 H 12.883 0.113961 -6.11294 0
M  V30 190 H 17.057 -0.406186 -6.95214 0
M  V30 191 H 14.684 -0.769217 -7.56298 0
M  V30 192 N 16.2591 1.48442 0.529413 0
M  V30 193 C 17.4871 1.60151 1.30994 0
M  V30 194 C 17.9021 0.261985 1.86973 0
M  V30 195 O 17.2591 -0.748805 1.66431 0
M  V30 196 C 17.3101 2.64854 2.46038 0
M  V30 197 O 17.0311 3.93608 1.92365 0
M  V30 198 C 18.5321 2.87007 3.37849 0
M  V30 199 H 15.7521 0.539971 0.398338 0
M  V30 200 H 18.2961 1.94273 0.638597 0
M  V30 201 H 16.4511 2.33589 3.09055 0
M  V30 202 H 16.8651 4.51055 2.67675 0
M  V30 203 H 18.3391 3.64068 4.14919 0
M  V30 204 H 18.8161 1.95852 3.93114 0
M  V30 205 H 19.4221 3.19579 2.80623 0
M  V30 206 N 17.7372 -0.778329 1.37039 0
M  V30 207 C 18.7002 -1.87301 1.32102 0
M  V30 208 C 19.7002 -1.59198 0.226405 0
M  V30 209 O 20.8902 -1.67403 0.481861 0
M  V30 210 C 18.0222 -3.24309 1.05055 0
M  V30 211 H 19.2152 -1.93093 2.29467 0
M  V30 212 H 16.7682 -0.977358 1.21973 0
M  V30 213 H 17.5032 -3.24196 0.0819373 0
M  V30 214 H 17.2882 -3.46098 1.84279 0
M  V30 215 H 18.7782 -4.04382 1.04234 0
M  V30 216 N 19.2153 -1.21501 -1.00376 0
M  V30 217 C 20.1453 -0.999478 -2.11028 0
M  V30 218 C 21.1263 0.0759671 -1.6993 0
M  V30 219 O 22.3113 -0.0841106 -1.94018 0
M  V30 220 C 19.4413 -0.564709 -3.42678 0
M  V30 221 C 18.3953 -1.58486 -3.97576 0
M  V30 222 C 17.7213 -1.00628 -5.25146 0
M  V30 223 C 19.0213 -2.97204 -4.29496 0
M  V30 224 H 20.7153 -1.92495 -2.29317 0
M  V30 225 H 18.2613 -0.92693 -1.102 0
M  V30 226 H 20.2143 -0.401091 -4.19487 0
M  V30 227 H 18.9383 0.396411 -3.24185 0
M  V30 228 H 17.5973 -1.73606 -3.22888 0
M  V30 229 H 17.2453 -0.0368439 -5.02987 0
M  V30 230 H 16.9453 -1.68771 -5.62841 0
M  V30 231 H 18.4693 -0.854015 -6.04598 0
M  V30 232 H 19.8833 -2.8552 -4.97143 0
M  V30 233 H 18.2803 -3.62372 -4.78338 0
M  V30 234 H 19.3503 -3.47956 -3.3772 0
M  V30 235 N 20.6934 1.19889 -1.02296 0
M  V30 236 C 21.6564 2.21116 -0.603351 0
M  V30 237 C 22.6564 1.5738 0.329884 0
M  V30 238 O 23.8464 1.73802 0.117702 0
M  V30 239 C 20.9784 3.40696 0.117992 0
M  V30 240 H 22.1714 2.59754 -1.49893 0
M  V30 241 H 19.7244 1.33463 -0.813468 0
M  V30 242 H 20.4594 3.07569 1.0282 0
M  V30 243 H 20.2444 3.88188 -0.552511 0
M  V30 244 H 21.7344 4.15692 0.398696 0
M  V30 245 N 22.1715 0.800033 1.35784 0
M  V30 246 C 23.3995 0.389606 2.03199 0
M  V30 247 C 23.8145 -0.997375 1.60306 0
M  V30 248 O 23.1715 -1.64154 0.797481 0
M  V30 249 C 23.2225 0.455855 3.58614 0
M  V30 250 O 22.9435 1.78815 3.99946 0
M  V30 251 C 24.4445 0.0374032 4.43284 0
M  V30 252 H 21.6645 0.159132 0.651857 0
M  V30 253 H 24.2085 1.08183 1.73541 0
M  V30 254 H 22.3635 -0.188057 3.86943 0
M  V30 255 H 22.7775 1.74636 4.94573 0
M  V30 256 H 24.2515 0.134882 5.51835 0
M  V30 257 H 24.7285 -1.01651 4.27275 0
M  V30 258 H 25.3345 0.654215 4.20238 0
M  V30 259 N 23.6496 -1.47581 0.552962 0
M  V30 260 C 24.8746 -2.07378 0.0300593 0
M  V30 261 C 25.2996 -1.40355 -1.25229 0
M  V30 262 O 24.6576 -0.477099 -1.7491 0
M  V30 263 C 24.7056 -3.60274 -0.153231 0
M  V30 264 O 23.8096 -3.94041 -1.21678 0
M  V30 265 H 23.1506 -0.662158 0.0494182 0
M  V30 266 H 25.6806 -1.89662 0.767434 0
M  V30 267 H 25.6906 -4.0633 -0.368761 0
M  V30 268 H 24.3656 -4.08455 0.783397 0
M  V30 269 H 22.9426 -3.59735 -0.982079 0
M  V30 270 N 25.1277 -0.289203 -1.54924 0
M  V30 271 C 26.0577 0.58549 -2.2604 0
M  V30 272 C 27.0387 1.14753 -1.25562 0
M  V30 273 O 28.2237 1.17906 -1.54311 0
M  V30 274 C 25.3537 1.76305 -2.99222 0
M  V30 275 C 24.3077 1.33191 -4.06748 0
M  V30 276 C 23.6337 2.5937 -4.6758 0
M  V30 277 C 24.9337 0.471775 -5.20165 0
M  V30 278 H 26.6277 -0.00763532 -2.99399 0
M  V30 279 H 24.1737 -0.00511229 -1.43999 0
M  V30 280 H 26.1267 2.38097 -3.47689 0
M  V30 281 H 24.8507 2.38223 -2.23422 0
M  V30 282 H 23.5097 0.737121 -3.59113 0
M  V30 283 H 23.1577 3.19576 -3.88433 0
M  V30 284 H 22.8577 2.31228 -5.40192 0
M  V30 285 H 24.3817 3.21985 -5.18804 0
M  V30 286 H 25.7957 0.995056 -5.64599 0
M  V30 287 H 24.1927 0.284639 -5.99425 0
M  V30 288 H 25.2627 -0.506041 -4.82252 0
M  V30 289 N 26.6058 1.57591 -0.0167156 0
M  V30 290 C 27.8538 1.90906 0.663285 0
M  V30 291 C 28.1748 0.892509 1.73376 0
M  V30 292 O 27.4448 -0.0677623 1.95783 0
M  V30 293 H 26.0248 0.704637 0.247983 0
M  V30 294 H 28.6868 1.94803 -0.0615909 0
M  V30 295 H 27.7828 2.9116 1.12393 0
M  V30 296 N 28.0839 -0.256276 1.55502 0
M  V30 297 C 29.3309 -0.985619 1.76895 0
M  V30 298 C 29.6589 -1.85671 0.579355 0
M  V30 299 O 28.9139 -1.90744 -0.437651 0
M  V30 300 C 29.2129 -1.88432 3.03691 0
M  V30 301 C 28.8789 -1.16936 4.35473 0
M  V30 302 C 27.5409 -0.97173 4.71286 0
M  V30 303 C 29.8929 -0.661889 5.1698 0
M  V30 304 C 27.2209 -0.254179 5.86149 0
M  V30 305 C 29.5729 0.042149 6.32586 0
M  V30 306 C 28.2369 0.25134 6.67027 0
M  V30 307 H 27.5069 -0.360663 0.647304 0
M  V30 308 H 30.1539 -0.256483 1.89775 0
M  V30 309 H 28.4589 -2.68021 2.85783 0
M  V30 310 H 30.1559 -2.45015 3.1744 0
M  V30 311 H 26.7459 -1.33332 4.07333 0
M  V30 312 H 30.9299 -0.802145 4.89775 0
M  V30 313 H 26.1859 -0.0815408 6.11346 0
M  V30 314 H 30.3599 0.443049 6.94989 0
M  V30 315 H 27.9869 0.809314 7.5588 0
M  V30 316 N 29.562 -1.4872 -0.521534 0
M  V30 317 C 30.51 -1.64328 -1.64618 0
M  V30 318 C 31.504 -0.50953 -1.61555 0
M  V30 319 O 32.71 -0.688525 -1.66311 0
M  V30 320 H 29.085 -0.517805 -0.545328 0
M  V30 321 H 31.056 -2.58767 -1.48601 0
M  V30 322 C 29.805 -1.70805 -3.02855 0
M  V30 323 H 29.128 -2.5741 -3.05909 0
M  V30 324 H 30.568 -1.85766 -3.81139 0
M  V30 325 C 29.027 -0.448479 -3.33902 0
M  V30 326 O 29.557 0.434928 -3.99339 0
M  V30 327 N 27.763 -0.317616 -2.88859 0
M  V30 328 H 27.31 -1.03748 -2.35784 0
M  V30 329 H 27.268 0.524113 -3.10001 0
M  V30 330 N 31.0401 0.771051 -1.3745 0
M  V30 331 C 31.9701 1.89827 -1.3597 0
M  V30 332 C 32.9511 1.68562 -0.228216 0
M  V30 333 O 34.1361 1.8941 -0.428675 0
M  V30 334 C 31.2661 3.2712 -1.16662 0
M  V30 335 C 30.2201 3.6295 -2.2683 0
M  V30 336 C 29.5461 4.98791 -1.92644 0
M  V30 337 C 30.8461 3.69627 -3.69017 0
M  V30 338 H 32.5401 1.91323 -2.30295 0
M  V30 339 H 30.0861 0.919082 -1.10855 0
M  V30 340 H 32.0391 4.05615 -1.14256 0
M  V30 341 H 30.7631 3.26059 -0.187926 0
M  V30 342 H 29.4221 2.86763 -2.28392 0
M  V30 343 H 29.0701 4.94271 -0.933021 0
M  V30 344 H 28.7701 5.23733 -2.66416 0
M  V30 345 H 30.2941 5.79685 -1.91826 0
M  V30 346 H 31.7081 4.38273 -3.69581 0
M  V30 347 H 30.1051 4.06067 -4.41848 0
M  V30 348 H 31.1751 2.70273 -4.02592 0
M  V30 349 N 32.5182 1.22032 0.997298 0
M  V30 350 C 33.7952 0.950823 1.70935 0
M  V30 351 C 34.1752 -0.535292 2.042 0
M  V30 352 O 33.5232 -1.50217 1.72183 0
M  V30 353 C 33.7332 1.84386 2.96315 0
M  V30 354 C 35.0812 2.09732 3.69185 0
M  V30 355 O 36.1052 1.81798 3.06314 0
M  V30 356 O 34.9642 2.57018 4.82291 0
M  V30 357 H 32.0582 0.357204 0.745878 0
M  V30 358 H 34.6042 1.32997 1.05404 0
M  V30 359 H 33.3762 2.84928 2.68201 0
M  V30 360 H 32.9992 1.46602 3.69586 0
M  V30 361 N 33.9963 -1.19345 1.0293 0
M  V30 362 C 35.2243 -1.92997 0.745644 0
M  V30 363 C 35.6393 -1.75519 -0.695589 0
M  V30 364 O 34.9963 -1.07737 -1.47306 0
M  V30 365 C 35.0473 -3.44741 1.08792 0
M  V30 366 O 34.7683 -3.61658 2.47256 0
M  V30 367 C 36.2693 -4.35515 0.827129 0
M  V30 368 H 33.4893 -0.613042 0.272801 0
M  V30 369 H 36.0333 -1.51473 1.3739 0
M  V30 370 H 34.1883 -3.84097 0.504832 0
M  V30 371 H 34.6023 -4.55514 2.60015 0
M  V30 372 H 36.0763 -5.40589 1.11658 0
M  V30 373 H 36.5533 -4.38552 -0.238436 0
M  V30 374 H 37.1593 -4.01841 1.39297 0
M  V30 375 N 35.4744 -0.807222 -1.35358 0
M  V30 376 C 36.3844 -0.219594 -2.3357 0
M  V30 377 C 37.4004 0.637734 -1.61892 0
M  V30 378 O 38.5764 0.549336 -1.93763 0
M  V30 379 C 35.6414 0.62158 -3.41083 0
M  V30 380 C 34.7024 -0.256315 -4.28534 0
M  V30 381 C 33.9354 0.544807 -5.30912 0
M  V30 382 O 34.1584 1.77944 -5.41934 0
M  V30 383 O 33.0924 -0.0646478 -6.01865 0
M  V30 384 H 36.9184 -1.03208 -2.85625 0
M  V30 385 H 34.5034 -0.569025 -1.38139 0
M  V30 386 H 36.3854 1.10067 -4.06772 0
M  V30 387 H 35.0604 1.41165 -2.91297 0
M  V30 388 H 33.9674 -0.782559 -3.65823 0
M  V30 389 H 35.3004 -1.01034 -4.81719 0
M  V30 390 N 36.9525 1.47285 -0.560781 0
M  V30 391 C 37.8625 2.33846 0.187954 0
M  V30 392 C 38.8785 1.48412 0.908293 0
M  V30 393 O 40.0545 1.81332 0.876388 0
M  V30 394 C 37.1195 3.25178 1.2025 0
M  V30 395 C 36.1805 4.26504 0.489208 0
M  V30 396 C 35.4135 5.13472 1.45542 0
M  V30 397 O 35.6365 5.02959 2.6905 0
M  V30 398 O 34.5705 5.93902 0.977963 0
M  V30 399 H 38.3965 2.99177 -0.522177 0
M  V30 400 H 35.9815 1.45903 -0.321364 0
M  V30 401 H 37.8635 3.81584 1.78805 0
M  V30 402 H 36.5385 2.6247 1.89449 0
M  V30 403 H 35.4455 3.73847 -0.137627 0
M  V30 404 H 36.7785 4.91935 -0.161399 0
M  V30 405 N 38.4306 0.297415 1.54768 0
M  V30 406 C 39.3606 -0.573494 2.26348 0
M  V30 407 C 40.3416 -1.14085 1.26169 0
M  V30 408 O 41.5266 -1.17086 1.54934 0
M  V30 409 C 38.6566 -1.74716 3.00153 0
M  V30 410 C 37.6106 -1.31032 4.07449 0
M  V30 411 C 36.9366 -2.56887 4.68949 0
M  V30 412 C 38.2366 -0.444183 5.20408 0
M  V30 413 H 39.9306 0.0235131 2.99391 0
M  V30 414 H 37.4766 0.0127488 1.43994 0
M  V30 415 H 39.4296 -2.3625 3.48947 0
M  V30 416 H 38.1536 -2.37035 2.24682 0
M  V30 417 H 36.8126 -0.718066 3.59499 0
M  V30 418 H 36.4606 -3.17512 3.90122 0
M  V30 419 H 36.1606 -2.2836 5.41411 0
M  V30 420 H 37.6846 -3.19229 5.20505 0
M  V30 421 H 39.0986 -0.9651 5.65118 0
M  V30 422 H 37.4956 -0.252846 5.99567 0
M  V30 423 H 38.5656 0.531609 4.81977 0
M  V30 424 N 39.9087 -1.5758 0.0250728 0
M  V30 425 C 41.1367 -1.9593 -0.664747 0
M  V30 426 C 41.5517 -0.901352 -1.65895 0
M  V30 427 O 40.9087 0.117255 -1.82123 0
M  V30 428 C 40.9597 -3.34342 -1.37468 0
M  V30 429 O 40.6807 -4.36079 -0.420324 0
M  V30 430 C 42.1817 -3.873 -2.1567 0
M  V30 431 H 39.4017 -0.645405 -0.183557 0
M  V30 432 H 41.9457 -2.04329 0.0836372 0
M  V30 433 H 40.1007 -3.27175 -2.0745 0
M  V30 434 H 40.5147 -5.16297 -0.923991 0
M  V30 435 H 41.9887 -4.86504 -2.60803 0
M  V30 436 H 42.4657 -3.21331 -2.99405 0
M  V30 437 H 43.0717 -3.97723 -1.50654 0
M  V30 438 N 41.3868 0.248026 -1.55636 0
M  V30 439 C 42.3498 1.29044 -1.89421 0
M  V30 440 C 43.3498 1.41134 -0.770581 0
M  V30 441 O 44.5398 1.39854 -1.03858 0
M  V30 442 C 41.6718 2.66831 -2.12165 0
M  V30 443 H 42.8648 1.00305 -2.82629 0
M  V30 444 H 40.4178 0.487265 -1.48511 0
M  V30 445 H 41.1528 3.00711 -1.21422 0
M  V30 446 H 40.9378 2.59438 -2.93997 0
M  V30 447 H 42.4278 3.42103 -2.3949 0
M  V30 448 N 42.8649 1.48995 0.513639 0
M  V30 449 C 44.1119 1.57843 1.26854 0
M  V30 450 C 44.4399 0.259501 1.92761 0
M  V30 451 O 43.6949 -0.75159 1.80692 0
M  V30 452 C 43.9939 2.67756 2.36731 0
M  V30 453 C 43.6599 4.09669 1.88368 0
M  V30 454 C 42.3219 4.48291 1.74896 0
M  V30 455 C 44.6739 4.98537 1.52021 0
M  V30 456 C 42.0019 5.73568 1.23438 0
M  V30 457 C 44.3539 6.24319 1.0202 0
M  V30 458 C 43.0179 6.61783 0.871778 0
M  V30 459 H 42.2879 0.577587 0.464192 0
M  V30 460 H 44.9349 1.82778 0.571366 0
M  V30 461 H 43.2399 2.36743 3.12185 0
M  V30 462 H 44.9369 2.71813 2.9482 0
M  V30 463 H 41.5269 3.79176 1.99808 0
M  V30 464 H 45.7109 4.69363 1.61281 0
M  V30 465 H 40.9669 6.01304 1.10648 0
M  V30 466 H 45.1409 6.92566 0.729722 0
M  V30 467 H 42.7679 7.5874 0.470852 0
M  V30 468 N 44.343 -0.763751 1.37857 0
M  V30 469 C 45.759 -1.06542 1.18832 0
M  V30 470 C 45.959 -2.01478 0.0299722 0
M  V30 471 O 45.015 -2.4458 -0.627447 0
M  V30 472 C 46.328 -1.65525 2.51042 0
M  V30 473 C 47.876 -1.77745 2.57635 0
M  V30 474 C 48.351 -2.4014 3.89996 0
M  V30 475 N 49.842 -2.47582 3.91481 0
M  V30 476 C 50.577 -2.96732 4.9065 0
M  V30 477 N 50.073 -3.45993 6.00217 0
M  V30 478 N 51.866 -2.95679 4.78048 0
M  V30 479 H 44.017 -0.133556 2.1198 0
M  V30 480 H 46.28 -0.121879 0.940133 0
M  V30 481 H 45.986 -1.03236 3.36207 0
M  V30 482 H 45.86 -2.64719 2.68707 0
M  V30 483 H 48.247 -2.39164 1.72872 0
M  V30 484 H 48.328 -0.772836 2.43846 0
M  V30 485 H 47.972 -1.79358 4.75177 0
M  V30 486 H 47.902 -3.41223 4.01092 0
M  V30 487 H 50.393 -2.1273 3.12337 0
M  V30 488 H 50.706 -3.81922 6.7183 0
M  V30 489 H 49.051 -3.44077 6.03851 0
M  V30 490 H 52.242 -2.56499 3.91568 0
M  V30 491 H 52.415 -3.33672 5.55488 0
M  V30 492 N 45.8211 -1.22559 -0.990812 0
M  V30 493 C 47.0671 -1.05297 -1.73322 0
M  V30 494 C 47.4001 0.410655 -1.89808 0
M  V30 495 O 46.6751 1.30439 -1.44277 0
M  V30 496 C 46.9581 -1.76713 -3.13759 0
M  V30 497 C 46.8111 -3.30684 -3.04907 0
M  V30 498 C 48.1301 -1.52121 -4.12974 0
M  V30 499 H 45.2491 -0.38392 -0.629106 0
M  V30 500 H 47.8911 -1.50926 -1.15418 0
M  V30 501 H 46.0411 -1.37924 -3.63193 0
M  V30 502 H 47.7131 -3.7893 -2.63077 0
M  V30 503 H 45.9561 -3.60253 -2.41661 0
M  V30 504 H 46.6271 -3.75833 -4.04294 0
M  V30 505 H 49.1031 -1.85819 -3.72304 0
M  V30 506 H 47.9791 -2.04582 -5.0935 0
M  V30 507 H 48.2401 -0.454257 -4.3976 0
M  V30 508 N 47.2992 1.18797 -1.03562 0
M  V30 509 C 48.5762 1.84469 -0.650434 0
M  V30 510 C 48.9562 1.92319 0.870433 0
M  V30 511 O 48.3042 1.44528 1.76986 0
M  V30 512 C 48.5142 3.2306 -1.32036 0
M  V30 513 C 49.8622 3.9915 -1.44792 0
M  V30 514 O 50.8862 3.32481 -1.27806 0
M  V30 515 O 49.7452 5.18587 -1.72423 0
M  V30 516 H 46.8392 0.795251 -0.226946 0
M  V30 517 H 49.3852 1.26231 -1.13419 0
M  V30 518 H 48.1572 3.1222 -2.3587 0
M  V30 519 H 47.7802 3.88949 -0.8249 0
M  V30 520 N 48.7773 0.814389 1.34928 0
M  V30 521 C 50.0023 0.410097 2.03305 0
M  V30 522 C 50.4273 -0.973464 1.60951 0
M  V30 523 O 49.7853 -1.63185 0.789964 0
M  V30 524 C 49.8333 0.51049 3.56968 0
M  V30 525 O 48.9373 -0.473035 4.09678 0
M  V30 526 H 48.2783 0.170088 0.641846 0
M  V30 527 H 50.8083 1.10244 1.72358 0
M  V30 528 H 50.8183 0.383135 4.06197 0
M  V30 529 H 49.4933 1.51963 3.87144 0
M  V30 530 H 48.0703 -0.305272 3.71648 0
M  V30 531 N 50.2554 -1.46986 0.568584 0
M  V30 532 C 51.2184 -2.28624 -0.162366 0
M  V30 533 C 52.2184 -1.37596 -0.832103 0
M  V30 534 O 53.4084 -1.60115 -0.68622 0
M  V30 535 C 50.5404 -3.17596 -1.23878 0
M  V30 536 H 51.7334 -2.94722 0.554899 0
M  V30 537 H 49.2864 -1.52863 0.325976 0
M  V30 538 H 50.0214 -2.56214 -1.98808 0
M  V30 539 H 49.8064 -3.846 -0.763219 0
M  V30 540 H 51.2964 -3.79078 -1.75185 0
M  V30 541 N 51.7335 -0.305618 -1.54608 0
M  V30 542 C 52.9815 0.301701 -1.99835 0
M  V30 543 C 53.3025 1.54054 -1.19551 0
M  V30 544 O 52.5725 1.93702 -0.292658 0
M  V30 545 H 51.1525 0.114468 -0.738178 0
M  V30 546 H 53.8145 -0.418016 -1.90364 0
M  V30 547 H 52.9105 0.570548 -3.06841 0
M  V30 548 N 53.2116 1.57565 -0.0334293 0
M  V30 549 C 54.4586 1.91978 0.644272 0
M  V30 550 C 54.7866 0.910231 1.71887 0
M  V30 551 O 54.0416 -0.0801961 1.95536 0
M  V30 552 C 54.3406 3.33112 1.29504 0
M  V30 553 C 54.0066 4.49537 0.350388 0
M  V30 554 C 52.6686 4.81115 0.0903974 0
M  V30 555 C 55.0206 5.20347 -0.298032 0
M  V30 556 C 52.3486 5.8086 -0.825746 0
M  V30 557 C 54.7006 6.2107 -1.20226 0
M  V30 558 C 53.3646 6.51088 -1.4711 0
M  V30 559 H 52.6346 0.702496 0.235756 0
M  V30 560 H 55.2816 1.91259 -0.0961176 0
M  V30 561 H 53.5866 3.30113 2.11028 0
M  V30 562 H 55.2836 3.57011 1.82603 0
M  V30 563 H 51.8736 4.24883 0.563205 0
M  V30 564 H 56.0576 4.96178 -0.110234 0
M  V30 565 H 51.3136 6.02461 -1.04169 0
M  V30 566 H 55.4876 6.75057 -1.71086 0
M  V30 567 H 53.1146 7.28193 -2.18264 0
M  V30 568 N 54.6897 -0.239769 1.55765 0
M  V30 569 C 55.9377 -0.964892 1.77579 0
M  V30 570 C 56.2587 -1.85582 0.598699 0
M  V30 571 O 55.5287 -1.92075 -0.385226 0
M  V30 572 H 54.1087 -0.359265 0.654933 0
M  V30 573 H 56.7707 -0.256001 1.93211 0
M  V30 574 H 55.8667 -1.58243 2.69009 0
M  V30 575 N 56.1678 -1.49265 -0.50573 0
M  V30 576 C 57.4448 -1.49012 -1.26707 0
M  V30 577 C 57.8248 -0.215205 -2.1 0
M  V30 578 O 57.1728 0.802547 -2.13943 0
M  V30 579 C 57.3828 -2.7663 -2.12783 0
M  V30 580 C 58.7308 -3.25932 -2.72127 0
M  V30 581 O 59.7548 -2.77715 -2.23054 0
M  V30 582 O 58.6138 -4.09897 -3.61451 0
M  V30 583 H 55.7078 -0.596197 -0.57313 0
M  V30 584 H 58.2538 -1.61524 -0.52039 0
M  V30 585 H 57.0258 -3.60916 -1.5118 0
M  V30 586 H 56.6488 -2.66956 -2.94653 0
M  V30 587 N 57.6459 0.756429 -1.3826 0
M  V30 588 C 58.8709 1.55077 -1.37717 0
M  V30 589 C 59.2959 1.88073 0.03164 0
M  V30 590 O 58.6539 1.50364 1.01293 0
M  V30 591 C 58.7019 2.8283 -2.23695 0
M  V30 592 O 57.8059 3.77862 -1.6521 0
M  V30 593 H 57.1469 0.469152 -0.469885 0
M  V30 594 H 59.6769 0.935019 -1.81985 0
M  V30 595 H 59.6869 3.31783 -2.37453 0
M  V30 596 H 58.3619 2.58144 -3.2609 0
M  V30 597 H 56.9389 3.36555 -1.60578 0
M  V30 598 N 59.124 1.23083 0.984299 0
M  V30 599 C 60.37 1.06214 1.72761 0
M  V30 600 C 60.703 -0.400584 1.90024 0
M  V30 601 O 59.978 -1.29672 1.44967 0
M  V30 602 C 60.261 1.78375 3.12817 0
M  V30 603 C 60.114 3.32296 3.03149 0
M  V30 604 C 61.433 1.54309 4.12161 0
M  V30 605 H 58.552 0.387251 0.627061 0
M  V30 606 H 61.194 1.51536 1.14616 0
M  V30 607 H 59.344 1.39848 3.62457 0
M  V30 608 H 61.016 3.8032 2.61064 0
M  V30 609 H 59.259 3.6153 2.39747 0
M  V30 610 H 59.93 3.77972 4.02295 0
M  V30 611 H 62.406 1.87791 3.71314 0
M  V30 612 H 61.282 2.07281 5.08258 0
M  V30 613 H 61.543 0.477572 4.39513 0
M  V30 614 N 60.6021 -1.18246 1.0419 0
M  V30 615 C 61.8481 -1.88536 0.747122 0
M  V30 616 C 62.1811 -1.80223 -0.723409 0
M  V30 617 O 61.4561 -1.20337 -1.52804 0
M  V30 618 C 61.7391 -3.38968 1.21544 0
M  V30 619 C 61.5921 -3.56084 2.74816 0
M  V30 620 C 62.9111 -4.32648 0.806482 0
M  V30 621 H 60.0301 -0.684619 0.272883 0
M  V30 622 H 62.6721 -1.39113 1.29413 0
M  V30 623 H 60.8221 -3.8119 0.750081 0
M  V30 624 H 62.4941 -3.22946 3.29399 0
M  V30 625 H 60.7371 -2.98699 3.14582 0
M  V30 626 H 61.4081 -4.61639 3.02644 0
M  V30 627 H 63.8841 -3.98211 1.20695 0
M  V30 628 H 62.7601 -5.36462 1.1619 0
M  V30 629 H 63.0211 -4.41146 -0.29029 0
M  V30 630 N 62.0802 -0.821533 -1.34494 0
M  V30 631 C 63.0122 -0.199946 -2.28326 0
M  V30 632 C 64.0252 0.609377 -1.50965 0
M  V30 633 O 65.2142 0.439285 -1.7301 0
M  V30 634 C 62.3142 0.738431 -3.30757 0
M  V30 635 C 61.4872 -0.0277632 -4.37391 0
M  V30 636 C 60.5462 0.831332 -5.19591 0
M  V30 637 O 59.5722 0.276822 -5.68526 0
M  V30 638 N 60.7742 2.15132 -5.39165 0
M  V30 639 H 63.5392 -1.00609 -2.82308 0
M  V30 640 H 61.1002 -0.678366 -1.47003 0
M  V30 641 H 63.0922 1.31773 -3.82646 0
M  V30 642 H 61.6622 1.44533 -2.7718 0
M  V30 643 H 60.8822 -0.788359 -3.86236 0
M  V30 644 H 62.1702 -0.555251 -5.05761 0
M  V30 645 H 61.5682 2.62559 -5.01078 0
M  V30 646 H 60.1252 2.6795 -5.94177 0
M  V30 647 N 63.5583 1.46682 -0.576371 0
M  V30 648 C 64.7883 2.06498 -0.0648694 0
M  V30 649 C 65.1963 1.42665 1.24271 0
M  V30 650 O 64.5393 0.523886 1.76071 0
M  V30 651 C 64.6013 3.5904 0.181816 0
M  V30 652 C 64.2653 4.45028 -1.0392 0
M  V30 653 C 65.2623 4.81959 -1.94966 0
M  V30 654 C 62.9473 4.86259 -1.25927 0
M  V30 655 C 64.9413 5.58942 -3.06371 0
M  V30 656 C 62.6283 5.63002 -2.37638 0
M  V30 657 C 63.6263 5.99257 -3.2769 0
M  V30 658 O 63.3143 6.7445 -4.37461 0
M  V30 659 H 63.0463 0.674028 -0.0515987 0
M  V30 660 H 65.6003 1.89393 -0.794951 0
M  V30 661 H 63.8303 3.74429 0.966436 0
M  V30 662 H 65.5193 4.00806 0.641047 0
M  V30 663 H 66.2853 4.50689 -1.79177 0
M  V30 664 H 62.1643 4.57494 -0.567448 0
M  V30 665 H 65.7083 5.87158 -3.76684 0
M  V30 666 H 61.6053 5.93686 -2.53392 0
M  V30 667 H 62.3733 6.92867 -4.35749 0
M  V30 668 N 65.0364 0.313813 1.54444 0
M  V30 669 C 65.9994 -0.54379 2.22656 0
M  V30 670 C 66.9994 -1.05124 1.21678 0
M  V30 671 O 68.1894 -0.945225 1.46325 0
M  V30 672 C 65.3214 -1.75427 2.92298 0
M  V30 673 H 66.5144 0.0523599 2.99854 0
M  V30 674 H 64.0674 0.0647834 1.56166 0
M  V30 675 H 64.8024 -2.38991 2.19211 0
M  V30 676 H 64.5874 -1.39791 3.66334 0
M  V30 677 H 66.0774 -2.36325 3.44297 0
M  V30 678 N 66.5145 -1.57545 0.0417849 0
M  V30 679 C 67.4625 -2.12148 -0.953723 0
M  V30 680 C 68.4565 -1.05104 -1.32852 0
M  V30 681 O 69.6625 -1.23524 -1.30927 0
M  V30 682 H 66.0375 -0.677957 -0.325389 0
M  V30 683 H 68.0085 -2.94707 -0.467991 0
M  V30 684 C 66.7575 -2.6739 -2.22257 0
M  V30 685 H 66.0805 -3.49413 -1.94295 0
M  V30 686 H 67.5205 -3.09227 -2.90094 0
M  V30 687 C 65.9795 -1.60723 -2.96091 0
M  V30 688 O 66.5095 -1.01449 -3.88679 0
M  V30 689 N 64.7155 -1.32466 -2.58652 0
M  V30 690 H 64.2625 -1.80856 -1.83437 0
M  V30 691 H 64.2205 -0.61325 -3.08361 0
M  V30 692 N 67.9926 0.231505 -1.5589 0
M  V30 693 C 69.2176 0.978689 -1.82856 0
M  V30 694 C 69.6426 1.77559 -0.620846 0
M  V30 695 O 69.0006 1.76119 0.430305 0
M  V30 696 C 69.0486 1.87997 -3.07716 0
M  V30 697 O 68.1526 2.97393 -2.85712 0
M  V30 698 H 67.4936 0.277663 -0.603158 0
M  V30 699 H 70.0236 0.24783 -2.03093 0
M  V30 700 H 70.0336 2.2917 -3.37558 0
M  V30 701 H 68.7086 1.29417 -3.95252 0
M  V30 702 H 67.2856 2.60238 -2.67078 0
M  V30 703 N 69.4707 1.49531 0.497807 0
M  V30 704 C 70.7167 1.60388 1.25089 0
M  V30 705 C 71.0717 0.288328 1.90227 0
M  V30 706 O 70.3647 -0.711706 1.77891 0
M  V30 707 C 70.5587 2.70252 2.33878 0
M  V30 708 C 70.3877 4.12363 1.79408 0
M  V30 709 C 69.1577 4.7911 1.60566 0
M  V30 710 C 71.3557 4.97491 1.30412 0
M  V30 711 N 69.3377 6.05525 1.01059 0
M  V30 712 C 70.7087 6.14411 0.830595 0
M  V30 713 C 72.7637 4.83466 1.19015 0
M  V30 714 C 71.4667 7.1885 0.254371 0
M  V30 715 C 73.4927 5.88057 0.627892 0
M  V30 716 C 72.8547 7.04208 0.16461 0
M  V30 717 H 68.9537 0.641246 0.447579 0
M  V30 718 H 71.5377 1.86549 0.557441 0
M  V30 719 H 69.7087 2.45858 3.0068 0
M  V30 720 H 71.4407 2.70613 3.00917 0
M  V30 721 H 68.1957 4.35961 1.85026 0
M  V30 722 H 68.6197 6.73028 0.732236 0
M  V30 723 H 73.2617 3.93978 1.53431 0
M  V30 724 H 70.9797 8.08036 -0.102052 0
M  V30 725 H 74.5657 5.79266 0.542444 0
M  V30 726 H 73.4457 7.83757 -0.263669 0
M  V30 727 N 70.9488 -0.749086 1.3866 0
M  V30 728 C 72.1948 -1.51056 1.35314 0
M  V30 729 C 72.5278 -1.94121 -0.0553751 0
M  V30 730 O 71.8028 -1.65763 -1.01749 0
M  V30 731 C 72.0858 -2.76003 2.31288 0
M  V30 732 C 71.9388 -2.39047 3.8102 0
M  V30 733 C 73.2578 -3.78046 2.2532 0
M  V30 734 H 70.3768 -0.547972 0.492844 0
M  V30 735 H 73.0188 -0.857628 1.69543 0
M  V30 736 H 71.1688 -3.31716 2.02229 0
M  V30 737 H 72.8408 -1.89074 4.20771 0
M  V30 738 H 71.0838 -1.71449 3.98482 0
M  V30 739 H 71.7548 -3.28462 4.4364 0
M  V30 740 H 74.2308 -3.31884 2.50983 0
M  V30 741 H 73.1068 -4.63159 2.94576 0
M  V30 742 H 73.3678 -4.23957 1.25352 0
M  V30 743 N 72.4269 -1.23603 -0.977757 0
M  V30 744 C 73.6729 -1.07129 -1.72195 0
M  V30 745 C 74.0059 0.390501 -1.90233 0
M  V30 746 O 73.2809 1.28902 -1.45653 0
M  V30 747 C 73.5639 -1.80031 -3.11867 0
M  V30 748 C 73.4169 -3.33899 -3.01383 0
M  V30 749 C 74.7359 -1.56492 -4.11337 0
M  V30 750 H 71.8549 -0.390571 -0.624999 0
M  V30 751 H 74.4969 -1.52142 -1.13811 0
M  V30 752 H 72.6469 -1.41768 -3.6171 0
M  V30 753 H 74.3189 -3.81699 -2.59043 0
M  V30 754 H 72.5619 -3.62796 -2.37827 0
M  V30 755 H 73.2329 -3.801 -4.00285 0
M  V30 756 H 75.7089 -1.89757 -3.70313 0
M  V30 757 H 74.5849 -2.09973 -5.07151 0
M  V30 758 H 74.8459 -0.500874 -4.39254 0
M  V30 759 N 73.905 1.17692 -1.04816 0
M  V30 760 C 75.151 1.88137 -0.75711 0
M  V30 761 C 75.484 1.80604 0.713841 0
M  V30 762 O 74.759 1.21146 1.52164 0
M  V30 763 C 75.042 3.38318 -1.2334 0
M  V30 764 C 74.895 3.54622 -2.76701 0
M  V30 765 C 76.214 4.32214 -0.829415 0
M  V30 766 H 73.333 0.683163 -0.27651 0
M  V30 767 H 75.975 1.38424 -1.30149 0
M  V30 768 H 74.125 3.80787 -0.770286 0
M  V30 769 H 75.797 3.21194 -3.31107 0
M  V30 770 H 74.04 2.97026 -3.16161 0
M  V30 771 H 74.711 4.60028 -3.05088 0
M  V30 772 H 77.187 3.97565 -1.22805 0
M  V30 773 H 76.063 5.35838 -1.19033 0
M  V30 774 H 76.324 4.41294 0.266891 0
M  V30 775 N 75.3831 0.828654 1.34056 0
M  V30 776 C 76.6311 0.41863 1.97717 0
M  V30 777 C 76.9521 -1.02314 1.66002 0
M  V30 778 O 76.2221 -1.71119 0.953683 0
M  V30 779 H 74.8021 0.151809 0.731412 0
M  V30 780 H 77.4641 1.05936 1.63596 0
M  V30 781 H 76.5601 0.542318 3.07352 0
M  V30 782 N 76.8612 -1.46375 0.584142 0
M  V30 783 C 77.8242 -2.28784 -0.138108 0
M  V30 784 C 78.8242 -1.38471 -0.817462 0
M  V30 785 O 80.0142 -1.60833 -0.669199 0
M  V30 786 C 77.1462 -3.18892 -1.20503 0
M  V30 787 H 78.3392 -2.94117 0.586127 0
M  V30 788 H 75.8922 -1.52509 0.342171 0
M  V30 789 H 76.6272 -2.58309 -1.96079 0
M  V30 790 H 76.4122 -3.85388 -0.722384 0
M  V30 791 H 77.9022 -3.80914 -1.71155 0
M  V30 792 N 78.3393 -0.321999 -1.54275 0
M  V30 793 C 79.7503 0.166384 -1.85957 0
M  V30 794 C 80.1013 1.51747 -1.24367 0
M  V30 795 O 79.2263 2.09317 -0.549124 0
M  V30 796 C 79.8213 0.308681 -3.37391 0
M  V30 797 C 78.3803 0.741286 -3.69028 0
M  V30 798 C 77.5273 -0.137937 -2.76957 0
M  V30 799 H 80.4783 -0.542335 -1.49146 0
M  V30 800 H 80.4993 1.13984 -3.63026 0
M  V30 801 H 80.0113 -0.674809 -3.82188 0
M  V30 802 H 78.1123 1.73458 -3.29762 0
M  V30 803 H 78.2253 0.546118 -4.75977 0
M  V30 804 H 76.5893 0.386251 -2.51754 0
M  V30 805 H 77.3723 -1.11816 -3.2458 0
M  V30 806 N 79.8174 1.5752 -0.0501392 0
M  V30 807 C 80.7494 2.08413 0.95376 0
M  V30 808 C 81.7624 1.01175 1.27544 0
M  V30 809 O 82.9514 1.28744 1.23641 0
M  V30 810 C 80.0514 2.51138 2.27559 0
M  V30 811 C 79.2244 3.817 2.13598 0
M  V30 812 C 78.2834 4.10749 3.28895 0
M  V30 813 O 77.3094 4.80685 3.04845 0
M  V30 814 N 78.5114 3.62579 4.5334 0
M  V30 815 H 81.2764 2.95165 0.519383 0
M  V30 816 H 78.8374 1.61327 0.136127 0
M  V30 817 H 80.8294 2.67648 3.03557 0
M  V30 818 H 79.3994 1.6964 2.62567 0
M  V30 819 H 78.6194 3.74782 1.22197 0
M  V30 820 H 79.9074 4.67201 2.01496 0
M  V30 821 H 79.3054 3.06039 4.75769 0
M  V30 822 H 77.8624 3.84329 5.26436 0
M  V30 823 N 81.2955 -0.223234 1.56011 0
M  V30 824 C 82.2425 -1.27664 1.92277 0
M  V30 825 C 83.2125 -1.46659 0.779763 0
M  V30 826 O 84.3975 -1.60256 1.03551 0
M  V30 827 C 81.5375 -2.62234 2.24338 0
M  V30 828 C 80.6505 -2.51051 3.51564 0
M  V30 829 C 79.7855 -3.78133 3.7308 0
M  V30 830 C 78.8245 -3.61665 4.93827 0
M  V30 831 N 77.9615 -4.80693 5.11741 0
M  V30 832 H 82.8015 -0.960358 2.82101 0
M  V30 833 H 80.3385 -0.462901 1.39627 0
M  V30 834 H 82.2965 -3.40596 2.40936 0
M  V30 835 H 80.9265 -2.91961 1.3769 0
M  V30 836 H 79.9785 -1.64132 3.43169 0
M  V30 837 H 81.2905 -2.34803 4.40079 0
M  V30 838 H 80.4445 -4.64938 3.89766 0
M  V30 839 H 79.1835 -3.97304 2.82844 0
M  V30 840 H 78.1885 -2.73244 4.77093 0
M  V30 841 H 79.4135 -3.43966 5.85546 0
M  V30 842 H 77.3595 -5.00181 4.24446 0
M  V30 843 H 77.2765 -4.67165 5.94384 0
M  V30 844 H 78.5445 -5.6893 5.3286 0
M  V30 845 N 82.7736 -1.49793 -0.48987 0
M  V30 846 C 84.0226 -1.59085 -1.23995 0
M  V30 847 C 84.3356 -0.287907 -1.9347 0
M  V30 848 O 85.5416 -0.259506 -2.70257 0
M  V30 849 C 83.9976 -2.80736 -2.252 0
M  V30 850 C 83.6056 -4.17833 -1.61614 0
M  V30 851 C 85.3496 -2.99364 -3.00967 0
M  V30 852 C 83.2566 -5.30693 -2.60996 0
M  V30 853 H 82.1866 -0.592372 -0.466488 0
M  V30 854 H 84.8376 -1.76197 -0.51252 0
M  V30 855 H 83.2196 -2.57142 -3.01154 0
M  V30 856 H 84.3936 -4.51608 -0.915774 0
M  V30 857 H 82.7086 -4.04656 -0.981977 0
M  V30 858 H 85.3056 -3.80851 -3.75308 0
M  V30 859 H 85.6486 -2.10356 -3.59244 0
M  V30 860 H 86.1816 -3.2305 -2.32128 0
M  V30 861 H 82.9206 -6.21796 -2.07485 0
M  V30 862 H 82.4406 -5.01359 -3.2924 0
M  V30 863 H 84.1196 -5.6049 -3.23202 0
M  V30 864 N 84.2517 0.741722 -1.39055 0
M  V30 865 C 85.4797 1.53098 -1.39171 0
M  V30 866 C 85.8947 1.88794 0.0155099 0
M  V30 867 O 85.2517 1.53626 0.985159 0
M  V30 868 C 85.3027 2.82274 -2.2584 0
M  V30 869 O 85.0237 2.48097 -3.61081 0
M  V30 870 C 86.5247 3.76343 -2.34266 0
M  V30 871 H 83.7447 0.473335 -0.4756 0
M  V30 872 H 86.2887 0.917045 -1.82785 0
M  V30 873 H 84.4437 3.40015 -1.85656 0
M  V30 874 H 84.8577 3.31029 -4.06842 0
M  V30 875 H 86.3317 4.63898 -2.9917 0
M  V30 876 H 86.8087 4.17619 -1.35982 0
M  V30 877 H 87.4147 3.24523 -2.74891 0
M  V30 878 N 85.7298 1.2412 0.971189 0
M  V30 879 C 86.6928 1.03156 2.04674 0
M  V30 880 C 87.6928 -0.00990322 1.60797 0
M  V30 881 O 88.8828 0.230729 1.72665 0
M  V30 882 C 86.0148 0.562765 3.36223 0
M  V30 883 H 87.2078 1.98614 2.24705 0
M  V30 884 H 84.7608 1.06293 1.14593 0
M  V30 885 H 85.4958 -0.395176 3.21883 0
M  V30 886 H 85.2808 1.31441 3.69413 0
M  V30 887 H 86.7708 0.437015 4.15307 0
M  V30 888 N 87.2079 -1.17134 1.05439 0
M  V30 889 C 88.1709 -2.19439 0.661764 0
M  V30 890 C 89.1709 -1.58199 -0.288042 0
M  V30 891 O 90.3609 -1.74053 -0.0715803 0
M  V30 892 C 87.4929 -3.40889 -0.0276209 0
M  V30 893 H 88.6859 -2.55688 1.56728 0
M  V30 894 H 86.2389 -1.31259 0.848567 0
M  V30 895 H 86.9739 -3.10187 -0.94629 0
M  V30 896 H 86.7589 -3.86586 0.655238 0
M  V30 897 H 88.2489 -4.16603 -0.288342 0
M  V30 898 N 88.686 -0.835752 -1.33615 0
M  V30 899 C 89.634 -0.255238 -2.31195 0
M  V30 900 C 90.628 0.61107 -1.57995 0
M  V30 901 O 91.834 0.500979 -1.72888 0
M  V30 902 H 88.209 -0.0638085 -0.749288 0
M  V30 903 H 90.18 -1.09283 -2.77669 0
M  V30 904 C 88.929 0.55754 -3.43201 0
M  V30 905 H 88.252 -0.0997553 -3.99676 0
M  V30 906 H 89.692 0.929622 -4.13683 0
M  V30 907 C 88.151 1.73515 -2.88781 0
M  V30 908 O 88.681 2.83376 -2.84712 0
M  V30 909 N 86.887 1.55603 -2.4543 0
M  V30 910 H 86.434 0.662354 -2.48939 0
M  V30 911 H 86.392 2.34545 -2.09371 0
M  V30 912 N 90.1641 1.46063 -0.591896 0
M  V30 913 C 91.0961 2.28539 0.174001 0
M  V30 914 C 92.1091 1.39047 0.846753 0
M  V30 915 O 93.2981 1.63564 0.714774 0
M  V30 916 C 90.3981 3.14347 1.26645 0
M  V30 917 C 89.5711 4.32021 0.683856 0
M  V30 918 C 88.6301 4.99157 1.66518 0
M  V30 919 O 87.6561 5.56458 1.19763 0
M  V30 920 N 88.8581 4.97005 2.99943 0
M  V30 921 H 91.6231 2.94911 -0.533633 0
M  V30 922 H 89.1841 1.56077 -0.430294 0
M  V30 923 H 91.1761 3.56125 1.92242 0
M  V30 924 H 89.7461 2.49988 1.87682 0
M  V30 925 H 88.9661 3.93915 -0.1498 0
M  V30 926 H 90.2541 5.08059 0.274567 0
M  V30 927 H 89.6521 4.51714 3.40545 0
M  V30 928 H 88.2091 5.42696 3.61004 0
M  V30 929 N 91.6422 0.330177 1.54103 0
M  V30 930 C 92.8702 -0.272179 2.05102 0
M  V30 931 C 93.2852 -1.45267 1.20595 0
M  V30 932 O 92.6422 -1.8094 0.238144 0
M  V30 933 C 92.6932 -0.70023 3.54653 0
M  V30 934 O 92.4142 0.433301 4.35952 0
M  V30 935 C 93.9152 -1.3647 4.21771 0
M  V30 936 H 91.1352 -0.0549159 0.668749 0
M  V30 937 H 93.6792 0.478285 1.98828 0
M  V30 938 H 91.8342 -1.40066 3.61193 0
M  V30 939 H 92.2482 0.0947539 5.24414 0
M  V30 940 H 93.7222 -1.61509 5.27843 0
M  V30 941 H 94.1992 -2.31409 3.73292 0
M  V30 942 H 94.8052 -0.706675 4.19388 0
M  V30 943 N 93.1203 -1.57491 0.0584922 0
M  V30 944 C 94.3683 -1.92597 -0.612436 0
M  V30 945 C 94.6893 -0.938162 -1.70949 0
M  V30 946 O 93.9593 0.0158301 -1.95894 0
M  V30 947 H 92.5393 -0.710964 -0.229214 0
M  V30 948 H 95.2013 -1.94571 0.113218 0
M  V30 949 H 94.2973 -2.94038 -1.04633 0
M  V30 950 N 94.5984 0.214957 -1.56127 0
M  V30 951 C 95.8464 0.936518 -1.79091 0
M  V30 952 C 96.1674 1.84606 -0.628148 0
M  V30 953 O 95.4374 1.92664 0.35462 0
M  V30 954 H 94.0174 0.3488 -0.660566 0
M  V30 955 H 96.6794 0.22523 -1.93594 0
M  V30 956 H 95.7754 1.53943 -2.71492 0
M  V30 957 N 96.0765 1.50051 0.48192 0
M  V30 958 C 97.0065 1.71046 1.58951 0
M  V30 959 C 97.9875 0.559288 1.60642 0
M  V30 960 O 99.1725 0.797243 1.77081 0
M  V30 961 C 96.3025 1.79462 2.97339 0
M  V30 962 C 95.2565 2.94558 3.10515 0
M  V30 963 C 94.5825 2.88105 4.50444 0
M  V30 964 C 95.8825 4.35227 2.88747 0
M  V30 965 H 97.5765 2.6378 1.41635 0
M  V30 966 H 95.1225 1.26936 0.679942 0
M  V30 967 H 97.0755 1.92734 3.74742 0
M  V30 968 H 95.7995 0.833412 3.15788 0
M  V30 969 H 94.4585 2.80918 2.35543 0
M  V30 970 H 94.1065 1.89853 4.65795 0
M  V30 971 H 93.8065 3.65366 4.60197 0
M  V30 972 H 95.3305 3.03412 5.29881 0
M  V30 973 H 96.7445 4.49449 3.55905 0
M  V30 974 H 95.1415 5.13856 3.09955 0
M  V30 975 H 96.2115 4.48347 1.84696 0
M  V30 976 N 97.5546 -0.734337 1.39446 0
M  V30 977 C 98.7846 -1.52137 1.39778 0
M  V30 978 C 99.1926 -1.89198 -0.00929312 0
M  V30 979 O 98.5356 -1.54666 -0.991168 0
M  V30 980 C 98.5976 -2.83762 2.20724 0
M  V30 981 C 98.2616 -2.69131 3.69347 0
M  V30 982 C 99.2586 -2.37635 4.62413 0
M  V30 983 C 96.9436 -2.85982 4.1294 0
M  V30 984 C 98.9376 -2.23172 5.97054 0
M  V30 985 C 96.6246 -2.71137 5.47657 0
M  V30 986 C 97.6226 -2.39777 6.39528 0
M  V30 987 O 97.3106 -2.25026 7.71763 0
M  V30 988 H 97.0426 -0.476717 0.479288 0
M  V30 989 H 99.5966 -0.915012 1.83893 0
M  V30 990 H 97.8266 -3.4666 1.71359 0
M  V30 991 H 99.5156 -3.45383 2.13226 0
M  V30 992 H 100.282 -2.24267 4.30034 0
M  V30 993 H 96.1606 -3.09383 3.41765 0
M  V30 994 H 99.7046 -1.98617 6.68728 0
M  V30 995 H 95.6016 -2.84083 5.79626 0
M  V30 996 H 96.3696 -2.40091 7.82495 0
M  V30 997 N 99.0327 -1.24633 -0.964593 0
M  V30 998 C 99.9647 -0.999302 -2.06268 0
M  V30 999 C 100.978 0.0323226 -1.62768 0
M  V30 1000 O 102.167 -0.205079 -1.77318 0
M  V30 1001 C 99.2667 -0.486816 -3.35385 0
M  V30 1002 C 98.4397 -1.5823 -4.07777 0
M  V30 1003 C 97.4987 -1.07191 -5.15166 0
M  V30 1004 O 96.5247 -1.76426 -5.41168 0
M  V30 1005 N 97.7267 0.0920373 -5.80427 0
M  V30 1006 H 100.492 -1.94477 -2.28033 0
M  V30 1007 H 98.0527 -1.15704 -1.13244 0
M  V30 1008 H 100.045 -0.130066 -4.04491 0
M  V30 1009 H 98.6147 0.364459 -3.10468 0
M  V30 1010 H 97.8347 -2.11109 -3.32906 0
M  V30 1011 H 99.1227 -2.31854 -4.52903 0
M  V30 1012 H 98.5207 0.670784 -5.61709 0
M  V30 1013 H 97.0777 0.389905 -6.50633 0
M  V30 1014 N 100.511 1.16574 -1.06058 0
M  V30 1015 C 101.751 1.88723 -0.78504 0
M  V30 1016 C 102.115 1.79706 0.676006 0
M  V30 1017 O 103.316 2.46757 1.06603 0
M  V30 1018 C 101.587 3.34338 -1.26304 0
M  V30 1019 S 103.146 4.24366 -1.1162 0
M  V30 1020 H 99.9638 0.651448 -0.284846 0
M  V30 1021 H 102.566 1.40732 -1.35701 0
M  V30 1022 H 101.27 3.38439 -2.32136 0
M  V30 1023 H 100.801 3.87378 -0.685719 0
M  V30 1024 H 102.816 4.96179 -0.0456539 0
M  V30 1025 N 101.989 0.842826 1.3317 0
M  V30 1026 C 103.237 0.439577 1.97262 0
M  V30 1027 C 103.558 -1.00548 1.67078 0
M  V30 1028 O 102.828 -1.70098 0.971779 0
M  V30 1029 H 101.408 0.159558 0.72976 0
M  V30 1030 H 104.07 1.07665 1.62463 0
M  V30 1031 H 103.166 0.574886 3.0676 0
M  V30 1032 N 103.467 -1.45747 0.599634 0
M  V30 1033 C 104.697 -2.06369 0.0977132 0
M  V30 1034 C 105.105 -1.44624 -1.21985 0
M  V30 1035 O 104.448 -0.551831 -1.75216 0
M  V30 1036 C 104.51 -3.59284 -0.124673 0
M  V30 1037 C 104.174 -4.43318 1.10987 0
M  V30 1038 C 105.171 -4.78796 2.02609 0
M  V30 1039 C 102.856 -4.84194 1.33647 0
M  V30 1040 C 104.85 -5.53997 3.15224 0
M  V30 1041 C 102.537 -5.5915 2.46565 0
M  V30 1042 C 103.535 -5.93968 3.37182 0
M  V30 1043 O 103.223 -6.67405 4.48136 0
M  V30 1044 H 102.955 -0.673122 0.0623153 0
M  V30 1045 H 105.509 -1.88104 0.824981 0
M  V30 1046 H 103.739 -3.75919 -0.906745 0
M  V30 1047 H 105.428 -4.01775 -0.577201 0
M  V30 1048 H 106.194 -4.47781 1.86325 0
M  V30 1049 H 102.073 -4.56534 0.64016 0
M  V30 1050 H 105.617 -5.81091 3.85978 0
M  V30 1051 H 101.514 -5.89579 2.62805 0
M  V30 1052 H 102.282 -6.85847 4.46717 0
M  V30 1053 N 104.945 -0.338344 -1.53925 0
M  V30 1054 C 106.17 0.263987 -2.05713 0
M  V30 1055 C 106.595 1.43847 -1.21201 0
M  V30 1056 O 105.953 1.79904 -0.224535 0
M  V30 1057 C 106.001 0.662 -3.54471 0
M  V30 1058 O 105.105 1.76265 -3.72833 0
M  V30 1059 H 104.446 0.0448722 -0.662482 0
M  V30 1060 H 106.976 -0.491048 -1.9862 0
M  V30 1061 H 106.986 0.940594 -3.9701 0
M  V30 1062 H 105.661 -0.196937 -4.15433 0
M  V30 1063 H 104.238 1.48173 -3.42198 0
M  V30 1064 N 106.423 1.57458 -0.0668435 0
M  V30 1065 C 107.651 1.97624 0.612565 0
M  V30 1066 C 108.066 0.94502 1.63447 0
M  V30 1067 O 107.423 -0.0689276 1.8237 0
M  V30 1068 C 107.474 3.37869 1.28555 0
M  V30 1069 O 107.195 4.3704 0.304557 0
M  V30 1070 C 108.696 3.92882 2.05325 0
M  V30 1071 H 105.916 0.650045 0.166381 0
M  V30 1072 H 108.46 2.04035 -0.137782 0
M  V30 1073 H 106.615 3.3256 1.98702 0
M  V30 1074 H 107.029 5.18565 0.786779 0
M  V30 1075 H 108.503 4.93247 2.47812 0
M  V30 1076 H 108.98 3.29156 2.9078 0
M  V30 1077 H 109.586 4.01577 1.40056 0
M  V30 1078 N 107.901 -0.206675 1.56239 0
M  V30 1079 C 109.149 -0.927007 1.79586 0
M  V30 1080 C 109.47 -1.8427 0.637929 0
M  V30 1081 O 108.74 -1.92849 -0.344398 0
M  V30 1082 H 107.32 -0.345292 0.662407 0
M  V30 1083 H 109.982 -0.21496 1.93711 0
M  V30 1084 H 109.078 -1.52501 2.72305 0
M  V30 1085 N 109.379 -1.50304 -0.473955 0
M  V30 1086 C 110.342 -1.6841 -1.55469 0
M  V30 1087 C 111.342 -0.554905 -1.50922 0
M  V30 1088 O 112.532 -0.821882 -1.53593 0
M  V30 1089 C 109.664 -1.70667 -2.95102 0
M  V30 1090 H 110.857 -2.64828 -1.40733 0
M  V30 1091 H 108.41 -1.39742 -0.700132 0
M  V30 1092 H 109.145 -0.75932 -3.15285 0
M  V30 1093 H 108.93 -2.52698 -2.9981 0
M  V30 1094 H 110.42 -1.8664 -3.73571 0
M  V30 1095 N 110.857 0.726932 -1.39834 0
M  V30 1096 C 112.097 1.4992 -1.38936 0
M  V30 1097 C 112.461 1.91996 0.0126883 0
M  V30 1098 O 113.662 2.68399 0.146715 0
M  V30 1099 C 111.933 2.70013 -2.34153 0
M  V30 1100 S 113.492 3.59563 -2.51515 0
M  V30 1101 H 110.31 0.51271 -0.492595 0
M  V30 1102 H 112.912 0.85107 -1.76003 0
M  V30 1103 H 111.616 2.37254 -3.34871 0
M  V30 1104 H 111.147 3.39748 -1.98331 0
M  V30 1105 H 113.162 4.63973 -1.75909 0
M  V30 1106 N 112.336 1.25143 0.95797 0
M  V30 1107 C 113.246 1.06968 2.08794 0
M  V30 1108 C 114.262 0.00773911 1.73998 0
M  V30 1109 O 115.438 0.207972 2.00323 0
M  V30 1110 C 112.503 0.68691 3.39827 0
M  V30 1111 C 111.564 1.82641 3.88511 0
M  V30 1112 C 110.797 1.46181 5.1329 0
M  V30 1113 O 111.02 0.355971 5.69288 0
M  V30 1114 O 109.954 2.29085 5.566 0
M  V30 1115 H 113.78 2.01723 2.27027 0
M  V30 1116 H 111.365 1.04051 1.07209 0
M  V30 1117 H 113.247 0.485417 4.18595 0
M  V30 1118 H 111.922 -0.231417 3.22872 0
M  V30 1119 H 110.829 2.08274 3.10762 0
M  V30 1120 H 112.162 2.72386 4.09959 0
M  V30 1121 N 113.814 -1.1601 1.06675 0
M  V30 1122 C 115.225 -1.68235 0.809565 0
M  V30 1123 C 115.576 -1.8454 -0.666303 0
M  V30 1124 O 114.701 -1.54374 -1.5165 0
M  V30 1125 C 115.296 -3.05585 1.46299 0
M  V30 1126 C 113.855 -3.54915 1.25349 0
M  V30 1127 C 113.002 -2.30804 1.53703 0
M  V30 1128 H 115.953 -1.00318 1.22971 0
M  V30 1129 H 115.974 -3.70174 0.880431 0
M  V30 1130 H 115.486 -2.93686 2.53713 0
M  V30 1131 H 113.587 -3.72067 0.199261 0
M  V30 1132 H 113.7 -4.36774 1.9689 0
M  V30 1133 H 112.064 -2.36007 0.957739 0
M  V30 1134 H 112.847 -2.21499 2.62284 0
M  V30 1135 N 115.292 -0.849877 -1.32721 0
M  V30 1136 C 116.541 -0.447175 -1.96681 0
M  V30 1137 C 116.854 1.00135 -1.68025 0
M  V30 1138 O 118.06 1.50926 -2.25685 0
M  V30 1139 C 116.516 -0.7487 -3.52026 0
M  V30 1140 C 116.124 -2.21264 -3.89546 0
M  V30 1141 C 117.868 -0.413487 -4.22481 0
M  V30 1142 C 115.775 -2.45763 -5.37917 0
M  V30 1143 H 114.705 -0.163486 -0.736063 0
M  V30 1144 H 117.356 -1.03999 -1.51183 0
M  V30 1145 H 115.738 -0.0853727 -3.95908 0
M  V30 1146 H 116.912 -2.91736 -3.56689 0
M  V30 1147 H 115.227 -2.5119 -3.32103 0
M  V30 1148 H 117.824 -0.574017 -5.3161 0
M  V30 1149 H 118.167 0.644492 -4.11281 0
M  V30 1150 H 118.7 -1.03251 -3.84167 0
M  V30 1151 H 115.439 -3.50168 -5.54132 0
M  V30 1152 H 114.959 -1.79864 -5.72197 0
M  V30 1153 H 116.638 -2.29471 -6.0494 0
M  V30 1154 N 116.77 1.45427 -0.607355 0
M  V30 1155 C 118.018 2.01841 -0.102253 0
M  V30 1156 C 118.339 1.47832 1.27164 0
M  V30 1157 O 117.609 0.672497 1.83995 0
M  V30 1158 H 116.189 0.746188 -0.0348101 0
M  V30 1159 H 118.851 1.78229 -0.7887 0
M  V30 1160 H 117.947 3.12057 -0.0518585 0
M  V30 1161 N 118.248 0.346503 1.53744 0
M  V30 1162 C 119.178 -0.501193 2.28058 0
M  V30 1163 C 120.159 -1.10014 1.29734 0
M  V30 1164 O 121.344 -1.12097 1.58581 0
M  V30 1165 C 118.474 -1.65078 3.05559 0
M  V30 1166 C 117.428 -1.18003 4.11411 0
M  V30 1167 C 116.754 -2.41837 4.76884 0
M  V30 1168 C 118.054 -0.278394 5.21558 0
M  V30 1169 H 119.748 0.11875 2.99164 0
M  V30 1170 H 117.294 0.0585531 1.43881 0
M  V30 1171 H 119.247 -2.25028 3.56287 0
M  V30 1172 H 117.971 -2.29767 2.32109 0
M  V30 1173 H 116.63 -0.603331 3.61601 0
M  V30 1174 H 116.278 -3.0494 4.00026 0
M  V30 1175 H 115.978 -2.1102 5.48402 0
M  V30 1176 H 117.502 -3.02508 5.30397 0
M  V30 1177 H 118.916 -0.784823 5.67903 0
M  V30 1178 H 117.313 -0.0619707 6.00068 0
M  V30 1179 H 118.383 0.684677 4.80042 0
M  V30 1180 N 119.726 -1.57421 0.075193 0
M  V30 1181 C 120.658 -2.09904 -0.920483 0
M  V30 1182 C 121.671 -1.03191 -1.25918 0
M  V30 1183 O 122.86 -1.30695 -1.21577 0
M  V30 1184 C 119.96 -2.54726 -2.23534 0
M  V30 1185 C 119.133 -3.8505 -2.07498 0
M  V30 1186 C 118.192 -4.15929 -3.22319 0
M  V30 1187 O 117.218 -4.85474 -2.9716 0
M  V30 1188 N 118.42 -3.69745 -4.47514 0
M  V30 1189 H 121.185 -2.95954 -0.472359 0
M  V30 1190 H 118.746 -1.61523 -0.110444 0
M  V30 1191 H 120.738 -2.72443 -2.9926 0
M  V30 1192 H 119.308 -1.73795 -2.59835 0
M  V30 1193 H 118.528 -3.76679 -1.16219 0
M  V30 1194 H 119.816 -4.70348 -1.94038 0
M  V30 1195 H 119.214 -3.13569 -4.7084 0
M  V30 1196 H 117.771 -3.92655 -5.20255 0
M  V30 1197 N 121.204 0.198386 -1.56346 0
M  V30 1198 C 122.45 0.920648 -1.80698 0
M  V30 1199 C 122.783 1.83045 -0.648697 0
M  V30 1200 O 122.058 1.91308 0.350925 0
M  V30 1201 C 122.341 1.73971 -3.15287 0
M  V30 1202 C 122.194 0.85485 -4.41602 0
M  V30 1203 C 123.513 2.71296 -3.46535 0
M  V30 1204 H 120.632 0.333261 -0.657348 0
M  V30 1205 H 123.274 0.188198 -1.89066 0
M  V30 1206 H 121.424 2.36416 -3.08285 0
M  V30 1207 H 123.096 0.245362 -4.60647 0
M  V30 1208 H 121.339 0.161398 -4.335 0
M  V30 1209 H 122.01 1.46286 -5.32264 0
M  V30 1210 H 124.486 2.18983 -3.53816 0
M  V30 1211 H 123.362 3.2569 -4.41834 0
M  V30 1212 H 123.623 3.5018 -2.69864 0
M  V30 1213 N 122.682 1.50554 0.465978 0
M  V30 1214 C 124.093 1.54599 1.04671 0
M  V30 1215 C 124.444 0.352488 1.93008 0
M  V30 1216 O 123.569 -0.534044 2.09707 0
M  V30 1217 C 124.164 2.80166 1.90505 0
M  V30 1218 C 122.723 2.86876 2.43678 0
M  V30 1219 C 121.87 2.48947 1.22151 0
M  V30 1220 H 124.821 1.56744 0.248384 0
M  V30 1221 H 124.842 2.62311 2.75633 0
M  V30 1222 H 124.354 3.67013 1.26186 0
M  V30 1223 H 122.455 2.04393 3.11536 0
M  V30 1224 H 122.568 3.89885 2.78436 0
M  V30 1225 H 120.932 2.01498 1.5579 0
M  V30 1226 H 121.715 3.38107 0.594866 0
M  V30 1227 N 124.16 -0.719506 1.40217 0
M  V30 1228 C 125.571 -1.29848 1.34151 0
M  V30 1229 C 125.922 -1.96196 0.0131349 0
M  V30 1230 O 125.047 -1.973 -0.88892 0
M  V30 1231 C 125.642 -2.36118 2.42968 0
M  V30 1232 C 124.201 -2.8965 2.40374 0
M  V30 1233 C 123.348 -1.63393 2.24049 0
M  V30 1234 H 126.299 -0.51591 1.5008 0
M  V30 1235 H 126.32 -3.16871 2.10649 0
M  V30 1236 H 125.832 -1.878 3.39636 0
M  V30 1237 H 123.933 -3.42208 1.47392 0
M  V30 1238 H 124.046 -3.4171 3.35814 0
M  V30 1239 H 122.41 -1.88312 1.71495 0
M  V30 1240 H 123.193 -1.17104 3.2271 0
M  V30 1241 N 125.638 -1.25649 -0.95132 0
M  V30 1242 C 126.548 -1.08073 -2.08224 0
M  V30 1243 C 127.564 -0.0169666 -1.73992 0
M  V30 1244 O 128.74 -0.218593 -2.0021 0
M  V30 1245 C 125.805 -0.704922 -3.39458 0
M  V30 1246 C 124.866 -1.84699 -3.87537 0
M  V30 1247 C 124.099 -1.48902 -5.12508 0
M  V30 1248 O 124.322 -0.386156 -5.69091 0
M  V30 1249 O 123.256 -2.32033 -5.55378 0
M  V30 1250 H 127.082 -2.02924 -2.25954 0
M  V30 1251 H 124.667 -1.04618 -1.06656 0
M  V30 1252 H 126.549 -0.507609 -4.18332 0
M  V30 1253 H 125.224 0.214291 -3.2299 0
M  V30 1254 H 124.131 -2.09919 -3.09653 0
M  V30 1255 H 125.464 -2.74557 -4.08509 0
M  V30 1256 N 127.117 1.15442 -1.07289 0
M  V30 1257 C 128.08 2.18358 -0.696591 0
M  V30 1258 C 129.08 1.58637 0.262837 0
M  V30 1259 O 130.27 1.74145 0.0438809 0
M  V30 1260 C 127.402 3.4089 -0.0266151 0
M  V30 1261 H 128.595 2.53162 -1.60776 0
M  V30 1262 H 126.148 1.29893 -0.869342 0
M  V30 1263 H 126.883 3.11653 0.896822 0
M  V30 1264 H 126.668 3.85495 -0.716657 0
M  V30 1265 H 128.158 4.17009 0.222028 0
M  V30 1266 N 128.595 0.856903 1.32268 0
M  V30 1267 C 129.841 0.462069 1.97466 0
M  V30 1268 C 130.174 -0.980298 1.67642 0
M  V30 1269 O 129.449 -1.68824 0.965858 0
M  V30 1270 C 129.732 0.704336 3.53145 0
M  V30 1271 C 129.585 2.19529 3.9259 0
M  V30 1272 C 130.904 0.1622 4.39801 0
M  V30 1273 H 128.023 0.169357 0.717278 0
M  V30 1274 H 130.665 1.07574 1.56614 0
M  V30 1275 H 128.815 0.181999 3.88073 0
M  V30 1276 H 130.487 2.78387 3.67829 0
M  V30 1277 H 128.73 2.67292 3.41668 0
M  V30 1278 H 129.401 2.31549 5.01088 0
M  V30 1279 H 131.877 0.608905 4.11621 0
M  V30 1280 H 130.753 0.361265 5.4771 0
M  V30 1281 H 131.014 -0.935158 4.32096 0
M  V30 1282 N 130.073 -1.45103 0.615059 0
M  V30 1283 C 131.021 -2.32331 -0.111791 0
M  V30 1284 C 132.015 -1.46409 -0.852102 0
M  V30 1285 O 133.221 -1.62849 -0.766821 0
M  V30 1286 H 129.596 -0.749993 -0.0549072 0
M  V30 1287 H 131.567 -2.91407 0.642225 0
M  V30 1288 C 130.316 -3.3015 -1.09071 0
M  V30 1289 H 129.639 -3.96265 -0.530485 0
M  V30 1290 H 131.079 -3.93898 -1.56908 0
M  V30 1291 C 129.538 -2.57875 -2.168 0
M  V30 1292 O 130.068 -2.36567 -3.24652 0
M  V30 1293 N 128.274 -2.17884 -1.92289 0
M  V30 1294 H 127.821 -2.35413 -1.04587 0
M  V30 1295 H 127.779 -1.6985 -2.64572 0
M  V30 1296 N 131.551 -0.354651 -1.53558 0
M  V30 1297 C 132.484 0.540273 -2.21712 0
M  V30 1298 C 133.462 1.09161 -1.2051 0
M  V30 1299 O 134.646 1.14979 -1.49372 0
M  V30 1300 C 131.773 1.74435 -2.90328 0
M  V30 1301 C 130.819 1.32146 -4.05512 0
M  V30 1302 S 131.652 0.331924 -5.3447 0
M  V30 1303 C 132.808 1.54258 -6.06593 0
M  V30 1304 H 133.041 -0.0385776 -2.97275 0
M  V30 1305 H 130.574 -0.138736 -1.53775 0
M  V30 1306 H 132.532 2.43507 -3.30476 0
M  V30 1307 H 131.193 2.29444 -2.1451 0
M  V30 1308 H 130.386 2.21952 -4.52497 0
M  V30 1309 H 129.988 0.710091 -3.67197 0
M  V30 1310 H 132.28 2.47534 -6.30661 0
M  V30 1311 H 133.223 1.11431 -6.99277 0
M  V30 1312 H 133.631 1.74367 -5.36895 0
M  V30 1313 N 133.029 1.57378 -0.0835403 0
M  V30 1314 C 134.254 1.98682 0.594987 0
M  V30 1315 C 134.679 0.961969 1.61641 0
M  V30 1316 O 134.037 -0.0709989 1.81161 0
M  V30 1317 C 134.085 3.38988 1.2296 0
M  V30 1318 O 133.189 3.39208 2.34546 0
M  V30 1319 H 132.53 0.646368 0.152002 0
M  V30 1320 H 135.06 2.03961 -0.161533 0
M  V30 1321 H 135.07 3.76431 1.57366 0
M  V30 1322 H 133.745 4.13107 0.481228 0
M  V30 1323 H 132.322 3.13548 2.01846 0
M  V30 1324 N 134.507 -0.190092 1.56449 0
M  V30 1325 C 135.437 -1.23816 1.97969 0
M  V30 1326 C 136.418 -1.47201 0.852395 0
M  V30 1327 O 137.603 -1.58854 1.1171 0
M  V30 1328 C 134.733 -2.5813 2.3235 0
M  V30 1329 C 133.687 -2.49348 3.47864 0
M  V30 1330 C 133.013 -3.8798 3.67934 0
M  V30 1331 C 134.313 -2.01424 4.81898 0
M  V30 1332 H 136.007 -0.89311 2.85769 0
M  V30 1333 H 133.553 -0.428177 1.37487 0
M  V30 1334 H 135.506 -3.31637 2.59991 0
M  V30 1335 H 134.23 -2.94386 1.41438 0
M  V30 1336 H 132.889 -1.78297 3.20321 0
M  V30 1337 H 132.537 -4.21597 2.74344 0
M  V30 1338 H 132.237 -3.82978 4.45648 0
M  V30 1339 H 133.761 -4.63101 3.97957 0
M  V30 1340 H 135.175 -2.64693 5.08538 0
M  V30 1341 H 133.572 -2.07413 5.63116 0
M  V30 1342 H 134.642 -0.967677 4.75146 0
M  V30 1343 N 135.985 -1.50799 -0.457987 0
M  V30 1344 C 137.233 -1.62121 -1.2067 0
M  V30 1345 C 137.554 -0.329793 -1.92191 0
M  V30 1346 O 136.824 0.653409 -1.84682 0
M  V30 1347 H 135.404 -0.597441 -0.448411 0
M  V30 1348 H 138.066 -1.87637 -0.527096 0
M  V30 1349 H 137.162 -2.43882 -1.94751 0
M  V30 1350 N 137.463 0.71206 -1.40597 0
M  V30 1351 C 138.393 1.83889 -1.43899 0
M  V30 1352 C 139.374 1.67442 -0.299504 0
M  V30 1353 O 140.559 1.87421 -0.508624 0
M  V30 1354 C 137.689 3.21877 -1.30431 0
M  V30 1355 C 136.643 3.53002 -2.42019 0
M  V30 1356 C 135.969 4.90172 -2.13626 0
M  V30 1357 C 137.269 3.53643 -3.84362 0
M  V30 1358 H 138.963 1.81383 -2.38203 0
M  V30 1359 H 136.509 0.871237 -1.14654 0
M  V30 1360 H 138.462 4.00404 -1.31357 0
M  V30 1361 H 137.186 3.24968 -0.326049 0
M  V30 1362 H 135.845 2.76818 -2.40349 0
M  V30 1363 H 135.493 4.89869 -1.14182 0
M  V30 1364 H 135.193 5.11962 -2.88389 0
M  V30 1365 H 136.717 5.71028 -2.1624 0
M  V30 1366 H 138.131 4.22203 -3.87837 0
M  V30 1367 H 136.528 3.86961 -4.58673 0
M  V30 1368 H 137.598 2.52954 -4.13693 0
M  V30 1369 N 138.941 1.26152 0.944643 0
M  V30 1370 C 140.166 1.14363 1.7302 0
M  V30 1371 C 140.591 -0.29772 1.85729 0
M  V30 1372 O 139.949 -1.2157 1.34501 0
M  V30 1373 C 139.997 1.81378 3.11664 0
M  V30 1374 O 139.101 1.10022 3.97453 0
M  V30 1375 H 138.442 0.398694 0.53098 0
M  V30 1376 H 140.972 1.66906 1.18337 0
M  V30 1377 H 140.982 1.88064 3.62072 0
M  V30 1378 H 139.657 2.86237 3.0173 0
M  V30 1379 H 138.234 1.11287 3.55907 0
M  V30 1380 N 140.419 -1.14872 1.07899 0
M  V30 1381 C 141.349 -2.2193 0.725887 0
M  V30 1382 C 142.33 -1.67622 -0.28927 0
M  V30 1383 O 143.515 -1.93533 -0.160787 0
M  V30 1384 C 140.645 -3.47061 0.128856 0
M  V30 1385 C 139.599 -4.14363 1.07178 0
M  V30 1386 C 138.925 -5.33636 0.337229 0
M  V30 1387 C 140.225 -4.63492 2.40775 0
M  V30 1388 H 141.919 -2.51724 1.62097 0
M  V30 1389 H 139.465 -1.20991 0.780838 0
M  V30 1390 H 141.418 -4.21199 -0.130147 0
M  V30 1391 H 140.142 -3.16617 -0.80134 0
M  V30 1392 H 138.801 -3.42173 1.3158 0
M  V30 1393 H 138.449 -4.99449 -0.596606 0
M  V30 1394 H 138.149 -5.79609 0.965788 0
M  V30 1395 H 139.673 -6.10539 0.0861567 0
M  V30 1396 H 141.087 -5.2913 2.20669 0
M  V30 1397 H 139.484 -5.20148 2.99276 0
M  V30 1398 H 140.554 -3.78834 3.02676 0
M  V30 1399 N 141.898 -0.863906 -1.31812 0
M  V30 1400 C 142.861 -0.320212 -2.26952 0
M  V30 1401 C 143.861 0.525369 -1.51975 0
M  V30 1402 O 145.051 0.335547 -1.70938 0
M  V30 1403 C 142.183 0.545919 -3.365 0
M  V30 1404 H 143.376 -1.16004 -2.76556 0
M  V30 1405 H 140.929 -0.638995 -1.42641 0
M  V30 1406 H 141.664 1.40718 -2.92179 0
M  V30 1407 H 141.449 -0.0594674 -3.92055 0
M  V30 1408 H 142.939 0.918796 -4.07367 0
M  V30 1409 N 143.376 1.44774 -0.622745 0
M  V30 1410 C 144.601 2.06999 -0.128968 0
M  V30 1411 C 145.026 1.4617 1.1839 0
M  V30 1412 O 144.384 0.560007 1.72434 0
M  V30 1413 C 144.432 3.60595 -0.0188351 0
M  V30 1414 O 143.536 3.99398 1.02739 0
M  V30 1415 H 142.877 0.659047 -0.0809544 0
M  V30 1416 H 145.407 1.85784 -0.85705 0
M  V30 1417 H 145.417 4.07627 0.174476 0
M  V30 1418 H 144.092 4.04252 -0.977384 0
M  V30 1419 H 142.669 3.64011 0.809326 0
M  V30 1420 N 144.854 0.36279 1.53368 0
M  V30 1421 C 146.082 -0.228613 2.05633 0
M  V30 1422 C 146.497 -1.42676 1.23649 0
M  V30 1423 O 145.854 -1.80394 0.27647 0
M  V30 1424 C 145.905 -0.624845 3.56059 0
M  V30 1425 O 145.626 0.525675 4.34935 0
M  V30 1426 C 147.127 -1.27493 4.24571 0
M  V30 1427 H 144.347 -0.0407183 0.669763 0
M  V30 1428 H 146.891 0.520352 1.97769 0
M  V30 1429 H 145.046 -1.32373 3.64083 0
M  V30 1430 H 145.46 0.205969 5.24095 0
M  V30 1431 H 146.934 -1.50277 5.31151 0
M  V30 1432 H 147.411 -2.23439 3.78116 0
M  V30 1433 H 148.017 -0.617558 4.20792 0
M  V30 1434 N 146.332 -1.57332 0.0918853 0
M  V30 1435 C 147.56 -1.98574 -0.581048 0
M  V30 1436 C 147.975 -0.970903 -1.61923 0
M  V30 1437 O 147.332 0.0399054 -1.82456 0
M  V30 1438 C 147.383 -3.39872 -1.23164 0
M  V30 1439 O 147.104 -4.37469 -0.234989 0
M  V30 1440 C 148.605 -3.96099 -1.99049 0
M  V30 1441 H 145.825 -0.65261 -0.156018 0
M  V30 1442 H 148.369 -2.0379 0.170225 0
M  V30 1443 H 146.524 -3.35679 -1.93386 0
M  V30 1444 H 146.938 -5.19751 -0.70418 0
M  V30 1445 H 148.412 -4.97127 -2.39934 0
M  V30 1446 H 148.889 -3.3374 -2.85507 0
M  V30 1447 H 149.495 -4.03755 -1.3365 0
M  V30 1448 N 147.81 0.181792 -1.56548 0
M  V30 1449 C 149.035 0.920019 -1.85877 0
M  V30 1450 C 149.46 1.75494 -0.677021 0
M  V30 1451 O 148.818 1.77399 0.374056 0
M  V30 1452 C 148.866 1.78112 -3.13542 0
M  V30 1453 O 147.97 2.88152 -2.95029 0
M  V30 1454 H 147.311 0.258334 -0.611686 0
M  V30 1455 H 149.841 0.183092 -2.03779 0
M  V30 1456 H 149.851 2.18314 -3.44678 0
M  V30 1457 H 148.526 1.16777 -3.99169 0
M  V30 1458 H 147.103 2.51609 -2.75222 0
M  V30 1459 N 149.288 1.51039 0.449983 0
M  V30 1460 C 150.699 1.557 1.03026 0
M  V30 1461 C 151.05 0.372939 1.92623 0
M  V30 1462 O 150.175 -0.511771 2.10261 0
M  V30 1463 C 150.77 2.82171 1.87523 0
M  V30 1464 C 149.329 2.89444 2.40622 0
M  V30 1465 C 148.476 2.50228 1.19504 0
M  V30 1466 H 151.427 1.56999 0.231745 0
M  V30 1467 H 151.448 2.65219 2.72835 0
M  V30 1468 H 150.96 3.68331 1.22286 0
M  V30 1469 H 149.061 2.07685 3.0935 0
M  V30 1470 H 149.174 3.92816 2.74285 0
M  V30 1471 H 147.538 2.03139 1.53644 0
M  V30 1472 H 148.321 3.38719 0.558972 0
M  V30 1473 N 150.766 -0.704594 1.40972 0
M  V30 1474 C 151.991 -1.49858 1.43378 0
M  V30 1475 C 152.416 -1.88061 0.038184 0
M  V30 1476 O 151.774 -1.5402 -0.956425 0
M  V30 1477 C 151.822 -2.74333 2.34038 0
M  V30 1478 O 150.926 -3.7147 1.7912 0
M  V30 1479 H 150.267 -0.45139 0.486974 0
M  V30 1480 H 152.797 -0.866832 1.8533 0
M  V30 1481 H 152.807 -3.22741 2.49604 0
M  V30 1482 H 151.482 -2.45863 3.35446 0
M  V30 1483 H 150.059 -3.30363 1.72958 0
M  V30 1484 N 152.244 -1.26651 -0.937939 0
M  V30 1485 C 153.176 -1.04283 -2.04102 0
M  V30 1486 C 154.189 -0.00221014 -1.628 0
M  V30 1487 O 155.378 -0.242645 -1.76843 0
M  V30 1488 C 152.478 -0.557846 -3.34277 0
M  V30 1489 C 151.651 -1.66843 -4.04329 0
M  V30 1490 C 150.71 -1.18095 -5.12777 0
M  V30 1491 O 149.736 -1.87865 -5.37304 0
M  V30 1492 N 150.938 -0.0311006 -5.80492 0
M  V30 1493 H 153.703 -1.9927 -2.23856 0
M  V30 1494 H 151.264 -1.1808 -1.10764 0
M  V30 1495 H 153.256 -0.215836 -4.04124 0
M  V30 1496 H 151.826 0.298523 -3.11171 0
M  V30 1497 H 151.046 -2.18123 -3.28353 0
M  V30 1498 H 152.334 -2.41408 -4.47883 0
M  V30 1499 H 151.732 0.551486 -5.63005 0
M  V30 1500 H 150.289 0.251809 -6.51313 0
M  V30 1501 N 153.722 1.14298 -1.08507 0
M  V30 1502 C 154.652 2.21542 -0.737646 0
M  V30 1503 C 155.633 1.67773 0.280377 0
M  V30 1504 O 156.818 1.93616 0.150521 0
M  V30 1505 C 153.948 3.46988 -0.147259 0
M  V30 1506 C 152.902 4.13789 -1.09374 0
M  V30 1507 C 152.228 5.33449 -0.365524 0
M  V30 1508 C 153.528 4.62208 -2.4323 0
M  V30 1509 H 155.222 2.5086 -1.6343 0
M  V30 1510 H 152.768 1.20576 -0.787243 0
M  V30 1511 H 154.721 4.21262 0.107808 0
M  V30 1512 H 153.445 3.17037 0.784538 0
M  V30 1513 H 152.104 3.4147 -1.33393 0
M  V30 1514 H 151.752 4.99759 0.57011 0
M  V30 1515 H 151.452 5.79088 -0.996512 0
M  V30 1516 H 152.976 6.10485 -0.118534 0
M  V30 1517 H 154.39 5.27952 -2.23472 0
M  V30 1518 H 152.787 5.18553 -3.02031 0
M  V30 1519 H 153.857 3.77224 -3.04681 0
M  V30 1520 N 155.201 0.870884 1.31352 0
M  V30 1521 C 156.131 0.343096 2.30966 0
M  V30 1522 C 157.112 -0.566507 1.60389 0
M  V30 1523 O 158.297 -0.483336 1.88089 0
M  V30 1524 C 155.427 -0.455487 3.443 0
M  V30 1525 C 154.381 0.361103 4.26474 0
M  V30 1526 C 153.707 -0.563221 5.31725 0
M  V30 1527 C 155.007 1.59566 4.97329 0
M  V30 1528 H 156.701 1.17548 2.75359 0
M  V30 1529 H 154.247 0.566686 1.32381 0
M  V30 1530 H 156.2 -0.83525 4.13039 0
M  V30 1531 H 154.924 -1.32139 2.98675 0
M  V30 1532 H 153.583 0.722825 3.59403 0
M  V30 1533 H 153.231 -1.42643 4.82351 0
M  V30 1534 H 152.931 -0.0207409 5.87596 0
M  V30 1535 H 154.455 -0.939808 6.03324 0
M  V30 1536 H 155.869 1.28728 5.58661 0
M  V30 1537 H 154.266 2.07728 5.63 0
M  V30 1538 H 155.336 2.34798 4.24262 0
M  V30 1539 N 156.679 -1.44442 0.630414 0
M  V30 1540 C 157.642 -2.29107 -0.0652523 0
M  V30 1541 C 158.642 -1.41002 -0.772995 0
M  V30 1542 O 159.832 -1.62881 -0.617692 0
M  V30 1543 C 156.964 -3.22564 -1.10296 0
M  V30 1544 H 158.157 -2.92103 0.679401 0
M  V30 1545 H 155.71 -1.51343 0.390517 0
M  V30 1546 H 156.445 -2.64416 -1.87762 0
M  V30 1547 H 156.23 -3.87491 -0.59941 0
M  V30 1548 H 157.72 -3.86167 -1.5895 0
M  V30 1549 N 158.157 -0.370918 -1.53173 0
M  V30 1550 C 159.397 0.217106 -2.03244 0
M  V30 1551 C 159.761 1.45558 -1.25207 0
M  V30 1552 O 160.962 2.11957 -1.65311 0
M  V30 1553 C 159.233 0.496664 -3.53932 0
M  V30 1554 S 160.792 1.0576 -4.25864 0
M  V30 1555 H 157.61 0.0627827 -0.708223 0
M  V30 1556 H 160.212 -0.515019 -1.88594 0
M  V30 1557 H 158.916 -0.412096 -4.08326 0
M  V30 1558 H 158.447 1.25772 -3.72753 0
M  V30 1559 H 160.462 2.34145 -4.37482 0
M  V30 1560 N 159.635 1.57281 -0.100228 0
M  V30 1561 C 160.883 1.94153 0.561157 0
M  V30 1562 C 161.204 0.983157 1.68401 0
M  V30 1563 O 160.474 0.0361132 1.95867 0
M  V30 1564 H 159.054 0.716791 0.210283 0
M  V30 1565 H 161.716 1.94202 -0.164765 0
M  V30 1566 H 160.812 2.96709 0.968008 0
M  V30 1567 N 161.113 -0.173488 1.56642 0
M  V30 1568 C 162.524 -0.736155 1.71574 0
M  V30 1569 C 162.875 -1.82888 0.710389 0
M  V30 1570 O 162 -2.16017 -0.1287 0
M  V30 1571 C 162.595 -1.34211 3.11083 0
M  V30 1572 C 161.154 -1.85162 3.27707 0
M  V30 1573 C 160.301 -0.729765 2.67525 0
M  V30 1574 H 163.252 0.0518786 1.58615 0
M  V30 1575 H 163.273 -2.21178 3.09613 0
M  V30 1576 H 162.785 -0.546579 3.84232 0
M  V30 1577 H 160.886 -2.67366 2.59512 0
M  V30 1578 H 160.999 -1.99855 4.35425 0
M  V30 1579 H 159.363 -1.14965 2.27278 0
M  V30 1580 H 160.146 0.0538806 3.43258 0
M  V30 1581 N 162.591 -1.51276 -0.441967 0
M  V30 1582 C 163.819 -1.67516 -1.21434 0
M  V30 1583 C 164.234 -0.37055 -1.85128 0
M  V30 1584 O 163.591 0.650498 -1.70513 0
M  V30 1585 C 163.642 -2.78748 -2.30177 0
M  V30 1586 O 163.363 -4.04154 -1.69089 0
M  V30 1587 C 164.864 -3.06217 -3.20541 0
M  V30 1588 H 162.084 -0.562276 -0.366178 0
M  V30 1589 H 164.628 -1.97666 -0.524244 0
M  V30 1590 H 162.783 -2.5121 -2.94911 0
M  V30 1591 H 163.197 -4.65894 -2.40922 0
M  V30 1592 H 164.671 -3.8764 -3.92987 0
M  V30 1593 H 165.148 -2.18439 -3.81026 0
M  V30 1594 H 165.754 -3.35397 -2.61513 0
M  V30 1595 N 164.069 0.697108 -1.41344 0
M  V30 1596 C 165.315 1.4593 -1.40827 0
M  V30 1597 C 165.648 1.94193 -0.0167098 0
M  V30 1598 O 164.923 1.69425 0.955263 0
M  V30 1599 C 165.206 2.67229 -2.41373 0
M  V30 1600 C 165.059 2.24741 -3.8963 0
M  V30 1601 C 166.378 3.69423 -2.39196 0
M  V30 1602 H 163.497 0.529303 -0.512842 0
M  V30 1603 H 166.139 0.794112 -1.72609 0
M  V30 1604 H 164.289 3.23982 -2.14401 0
M  V30 1605 H 165.961 1.73327 -4.27499 0
M  V30 1606 H 164.204 1.56542 -4.0457 0
M  V30 1607 H 164.875 3.1177 -4.55525 0
M  V30 1608 H 167.351 3.2234 -2.63128 0
M  V30 1609 H 166.227 4.51907 -3.11563 0
M  V30 1610 H 166.488 4.19012 -1.41001 0
M  V30 1611 N 165.547 1.27147 0.931209 0
M  V30 1612 C 166.497 1.06227 2.01742 0
M  V30 1613 C 167.481 -0.00859065 1.60898 0
M  V30 1614 O 168.673 0.209537 1.75755 0
M  V30 1615 C 165.802 0.707787 3.35924 0
M  V30 1616 C 164.888 1.81661 3.83223 0
M  V30 1617 N 165.279 3.05564 4.03069 0
M  V30 1618 C 163.577 1.70249 4.12227 0
M  V30 1619 C 164.278 3.77697 4.42403 0
M  V30 1620 N 163.254 3.0544 4.49675 0
M  V30 1621 H 167.056 2.00261 2.15111 0
M  V30 1622 H 164.57 1.1781 1.11779 0
M  V30 1623 H 166.567 0.539043 4.134 0
M  V30 1624 H 165.227 -0.224964 3.2392 0
M  V30 1625 H 166.238 3.41363 3.89476 0
M  V30 1626 H 162.915 0.840329 4.08956 0
M  V30 1627 H 164.305 4.84168 4.65866 0
M  V30 1628 N 167.025 -1.13721 1.09112 0
M  V30 1629 C 167.975 -2.17082 0.697091 0
M  V30 1630 C 168.959 -1.58321 -0.286923 0
M  V30 1631 O 170.151 -1.7673 -0.0978008 0
M  V30 1632 C 167.28 -3.43105 0.115729 0
M  V30 1633 C 166.366 -4.0888 1.12596 0
M  V30 1634 N 166.757 -4.4987 2.31195 0
M  V30 1635 C 165.055 -4.35471 0.963366 0
M  V30 1636 C 165.756 -5.01094 2.95431 0
M  V30 1637 N 164.732 -4.95751 2.23006 0
M  V30 1638 H 168.534 -2.46524 1.6001 0
M  V30 1639 H 166.048 -1.30481 0.966869 0
M  V30 1640 H 168.045 -4.16491 -0.184555 0
M  V30 1641 H 166.705 -3.15138 -0.78217 0
M  V30 1642 H 167.716 -4.42678 2.68806 0
M  V30 1643 H 164.393 -4.17328 0.119878 0
M  V30 1644 H 165.783 -5.4263 3.96236 0
M  V30 1645 N 168.503 -0.877838 -1.30888 0
M  V30 1646 C 169.413 -0.343096 -2.32078 0
M  V30 1647 C 170.429 0.551022 -1.65045 0
M  V30 1648 O 171.605 0.445854 -1.96403 0
M  V30 1649 C 168.67 0.439905 -3.43898 0
M  V30 1650 C 167.731 -0.483111 -4.26573 0
M  V30 1651 C 166.964 0.262616 -5.33053 0
M  V30 1652 O 167.187 1.48967 -5.50604 0
M  V30 1653 O 166.121 -0.383593 -6.00676 0
M  V30 1654 H 169.947 -1.18203 -2.79753 0
M  V30 1655 H 167.532 -0.64145 -1.34929 0
M  V30 1656 H 169.414 0.883504 -4.12034 0
M  V30 1657 H 168.089 1.25526 -2.98371 0
M  V30 1658 H 166.996 -0.975374 -3.61161 0
M  V30 1659 H 168.329 -1.26427 -4.75686 0
M  V30 1660 N 169.982 1.44106 -0.638065 0
M  V30 1661 C 171.222 2.03858 -0.148733 0
M  V30 1662 C 171.586 1.49153 1.20903 0
M  V30 1663 O 172.787 2.00452 1.79088 0
M  V30 1664 C 171.058 3.57117 -0.142314 0
M  V30 1665 S 172.617 4.37897 0.281385 0
M  V30 1666 H 169.435 0.708069 -0.0644912 0
M  V30 1667 H 172.037 1.7639 -0.843009 0
M  V30 1668 H 170.741 3.94436 -1.13349 0
M  V30 1669 H 170.272 3.89205 0.572988 0
M  V30 1670 H 172.287 4.72218 1.52395 0
M  V30 1671 N 171.46 0.379036 1.52974 0
M  V30 1672 C 172.708 -0.206014 2.01047 0
M  V30 1673 C 173.029 -1.48175 1.26765 0
M  V30 1674 O 172.299 -1.92085 0.384743 0
M  V30 1675 H 170.879 -0.0791184 0.742798 0
M  V30 1676 H 173.541 0.508366 1.88153 0
M  V30 1677 H 172.637 -0.423501 3.09213 0
M  V30 1678 N 172.938 -1.57226 0.108567 0
M  V30 1679 C 174.354 -1.5766 -0.248058 0
M  V30 1680 C 174.554 -1.12063 -1.67464 0
M  V30 1681 O 173.61 -0.803236 -2.39383 0
M  V30 1682 C 174.923 -3.0069 -0.0242287 0
M  V30 1683 C 176.471 -3.12868 -0.0909372 0
M  V30 1684 C 176.946 -4.57879 0.105067 0
M  V30 1685 N 178.437 -4.63172 0.0506846 0
M  V30 1686 C 179.172 -5.73126 0.177396 0
M  V30 1687 N 178.668 -6.91866 0.359696 0
M  V30 1688 N 180.461 -5.61977 0.117709 0
M  V30 1689 H 172.612 -1.85169 1.04049 0
M  V30 1690 H 174.875 -0.85529 0.40888 0
M  V30 1691 H 174.581 -3.38299 0.961604 0
M  V30 1692 H 174.455 -3.6945 -0.76068 0
M  V30 1693 H 176.842 -2.75124 -1.06729 0
M  V30 1694 H 176.923 -2.46672 0.677225 0
M  V30 1695 H 176.567 -4.96321 1.07834 0
M  V30 1696 H 176.497 -5.22153 -0.682954 0
M  V30 1697 H 178.988 -3.778 -0.0871266 0
M  V30 1698 H 179.301 -7.71503 0.447529 0
M  V30 1699 H 177.646 -6.93874 0.395536 0
M  V30 1700 H 180.837 -4.68094 -0.0236741 0
M  V30 1701 H 181.01 -6.47627 0.219905 0
M  V30 1702 N 174.416 0.165178 -1.56732 0
M  V30 1703 C 175.364 1.22369 -1.97809 0
M  V30 1704 C 176.358 1.45488 -0.867741 0
M  V30 1705 O 177.564 1.45995 -1.05288 0
M  V30 1706 H 173.939 0.411486 -0.629431 0
M  V30 1707 H 175.91 0.850425 -2.86025 0
M  V30 1708 C 174.659 2.55403 -2.35934 0
M  V30 1709 H 173.982 2.38438 -3.20916 0
M  V30 1710 H 175.422 3.2814 -2.68514 0
M  V30 1711 C 173.881 3.14611 -1.20506 0
M  V30 1712 O 174.411 3.98626 -0.496016 0
M  V30 1713 N 172.617 2.7379 -0.97403 0
M  V30 1714 H 172.164 2.0557 -1.55238 0
M  V30 1715 H 172.122 3.1374 -0.203573 0
M  V30 1716 N 175.894 1.51508 0.433938 0
M  V30 1717 C 176.827 1.67756 1.54704 0
M  V30 1718 C 177.805 0.525127 1.53887 0
M  V30 1719 O 178.989 0.749393 1.72963 0
M  V30 1720 C 176.116 1.69424 2.9328 0
M  V30 1721 C 175.162 2.90673 3.12108 0
M  V30 1722 S 175.995 4.51431 2.88046 0
M  V30 1723 C 177.151 4.55849 4.28897 0
M  V30 1724 H 177.384 2.61904 1.40689 0
M  V30 1725 H 174.917 1.41235 0.62386 0
M  V30 1726 H 176.875 1.7107 3.73156 0
M  V30 1727 H 175.536 0.764464 3.04655 0
M  V30 1728 H 174.729 2.88251 4.13434 0
M  V30 1729 H 174.331 2.86786 2.40062 0
M  V30 1730 H 176.623 4.31699 5.22152 0
M  V30 1731 H 177.566 5.57676 4.36351 0
M  V30 1732 H 177.974 3.85137 4.12711 0
M  V30 1733 N 177.372 -0.689602 1.41712 0
M  V30 1734 C 178.602 -1.47613 1.44548 0
M  V30 1735 C 179.01 -1.89132 0.0509034 0
M  V30 1736 O 178.353 -1.57741 -0.94146 0
M  V30 1737 C 178.415 -2.76596 2.2964 0
M  V30 1738 C 178.079 -2.57245 3.77722 0
M  V30 1739 C 179.076 -2.22804 4.69739 0
M  V30 1740 C 176.761 -2.727 4.2183 0
M  V30 1741 C 178.755 -2.04064 6.03851 0
M  V30 1742 C 176.442 -2.53576 5.56006 0
M  V30 1743 C 177.44 -2.1931 6.46832 0
M  V30 1744 O 177.128 -2.00359 7.78532 0
M  V30 1745 H 176.86 -0.461227 0.494212 0
M  V30 1746 H 179.414 -0.856045 1.86711 0
M  V30 1747 H 177.644 -3.41033 1.82301 0
M  V30 1748 H 179.333 -3.38424 2.24107 0
M  V30 1749 H 180.099 -2.10473 4.36951 0
M  V30 1750 H 175.978 -2.98353 3.51435 0
M  V30 1751 H 179.522 -1.77241 6.74708 0
M  V30 1752 H 175.419 -2.65499 5.88371 0
M  V30 1753 H 176.187 -2.15075 7.89737 0
M  V30 1754 N 178.85 -1.27639 -0.924453 0
M  V30 1755 C 179.78 -1.13166 -2.04244 0
M  V30 1756 C 180.761 -0.032256 -1.70069 0
M  V30 1757 O 181.946 -0.207328 -1.9309 0
M  V30 1758 C 179.076 -0.781496 -3.38393 0
M  V30 1759 C 178.03 -1.83449 -3.86692 0
M  V30 1760 C 177.356 -1.33822 -5.17683 0
M  V30 1761 C 178.656 -3.23917 -4.09726 0
M  V30 1762 H 180.35 -2.06689 -2.1661 0
M  V30 1763 H 177.896 -0.995136 -1.04082 0
M  V30 1764 H 179.849 -0.667057 -4.16087 0
M  V30 1765 H 178.573 0.189439 -3.2605 0
M  V30 1766 H 177.232 -1.93789 -3.11193 0
M  V30 1767 H 176.88 -0.35665 -5.01734 0
M  V30 1768 H 176.58 -2.04224 -5.50968 0
M  V30 1769 H 178.104 -1.23679 -5.97943 0
M  V30 1770 H 179.518 -3.16559 -4.77978 0
M  V30 1771 H 177.915 -3.92059 -4.54324 0
M  V30 1772 H 178.985 -3.68729 -3.14908 0
M  V30 1773 N 180.328 1.1314 -1.09713 0
M  V30 1774 C 181.556 1.88321 -0.856898 0
M  V30 1775 C 181.971 1.79276 0.592073 0
M  V30 1776 O 181.328 1.16142 1.40774 0
M  V30 1777 C 181.379 3.37812 -1.28706 0
M  V30 1778 O 181.1 3.46627 -2.67921 0
M  V30 1779 C 182.601 4.29952 -1.07964 0
M  V30 1780 H 179.821 0.596094 -0.308079 0
M  V30 1781 H 182.365 1.43205 -1.45988 0
M  V30 1782 H 180.52 3.805 -0.727912 0
M  V30 1783 H 180.934 4.39579 -2.8613 0
M  V30 1784 H 182.408 5.33159 -1.42986 0
M  V30 1785 H 182.885 4.39196 -0.0176577 0
M  V30 1786 H 183.491 3.93036 -1.62489 0
M  V30 1787 N 181.806 0.884767 1.30421 0
M  V30 1788 C 183.054 0.502112 1.95763 0
M  V30 1789 C 183.375 -0.951815 1.70192 0
M  V30 1790 O 182.645 -1.6692 1.0254 0
M  V30 1791 H 181.225 0.182694 0.724315 0
M  V30 1792 H 183.887 1.1278 1.58955 0
M  V30 1793 H 182.983 0.672188 3.04775 0
M  V30 1794 N 183.284 -1.43765 0.645699 0
M  V30 1795 C 184.214 -2.33471 -0.0370477 0
M  V30 1796 C 185.195 -1.49042 -0.819779 0
M  V30 1797 O 186.38 -1.77726 -0.782758 0
M  V30 1798 C 183.51 -3.32311 -1.0093 0
M  V30 1799 C 182.464 -4.2667 -0.337201 0
M  V30 1800 C 181.79 -5.1549 -1.42037 0
M  V30 1801 C 183.09 -5.16657 0.765706 0
M  V30 1802 H 184.784 -2.90809 0.712069 0
M  V30 1803 H 182.33 -1.39834 0.343876 0
M  V30 1804 H 184.283 -3.9396 -1.49578 0
M  V30 1805 H 183.007 -2.73213 -1.78948 0
M  V30 1806 H 181.666 -3.66374 0.128771 0
M  V30 1807 H 181.314 -4.52735 -2.1918 0
M  V30 1808 H 181.014 -5.79438 -0.975966 0
M  V30 1809 H 182.538 -5.80012 -1.90838 0
M  V30 1810 H 183.952 -5.72158 0.361702 0
M  V30 1811 H 182.349 -5.89286 1.13413 0
M  V30 1812 H 183.419 -4.56796 1.62683 0
M  V30 1813 N 184.763 -0.387143 -1.52771 0
M  V30 1814 C 186.003 0.195537 -2.03463 0
M  V30 1815 C 186.367 1.44222 -1.26744 0
M  V30 1816 O 187.568 2.10192 -1.67549 0
M  V30 1817 C 185.839 0.459097 -3.54439 0
M  V30 1818 S 187.398 1.01237 -4.26962 0
M  V30 1819 H 184.216 0.0552675 -0.708849 0
M  V30 1820 H 186.818 -0.534992 -1.88037 0
M  V30 1821 H 185.522 -0.455382 -4.07866 0
M  V30 1822 H 185.053 1.21811 -3.74066 0
M  V30 1823 H 187.068 2.29492 -4.39941 0
M  V30 1824 N 186.241 1.57166 -0.116904 0
M  V30 1825 C 187.488 1.95123 0.541603 0
M  V30 1826 C 187.816 1.00006 1.6682 0
M  V30 1827 O 187.071 0.0235658 1.95686 0
M  V30 1828 C 187.37 3.39508 1.11664 0
M  V30 1829 C 187.036 4.50762 0.111606 0
M  V30 1830 C 185.698 4.80918 -0.164758 0
M  V30 1831 C 188.05 5.18036 -0.573438 0
M  V30 1832 C 185.378 5.75666 -1.13249 0
M  V30 1833 C 187.73 6.13824 -1.52978 0
M  V30 1834 C 186.394 6.42374 -1.81415 0
M  V30 1835 H 185.664 0.714005 0.198187 0
M  V30 1836 H 188.311 1.9048 -0.197365 0
M  V30 1837 H 186.616 3.40835 1.93232 0
M  V30 1838 H 188.313 3.66189 1.63422 0
M  V30 1839 H 184.903 4.27272 0.337192 0
M  V30 1840 H 189.087 4.94896 -0.373092 0
M  V30 1841 H 184.343 5.96092 -1.35958 0
M  V30 1842 H 188.517 6.65039 -2.06629 0
M  V30 1843 H 186.144 7.15599 -2.56557 0
M  V30 1844 N 187.719 -0.156864 1.56817 0
M  V30 1845 C 188.649 -1.19589 2.00551 0
M  V30 1846 C 189.63 -1.4536 0.883426 0
M  V30 1847 O 190.815 -1.56449 1.15054 0
M  V30 1848 C 187.945 -2.53143 2.37773 0
M  V30 1849 C 186.899 -2.41913 3.53075 0
M  V30 1850 C 186.225 -3.80088 3.76081 0
M  V30 1851 C 187.525 -1.91157 4.86062 0
M  V30 1852 H 189.219 -0.832293 2.87599 0
M  V30 1853 H 186.765 -0.398918 1.38364 0
M  V30 1854 H 188.718 -3.26047 2.66967 0
M  V30 1855 H 187.442 -2.91319 1.4765 0
M  V30 1856 H 186.101 -1.71462 3.24031 0
M  V30 1857 H 185.749 -4.15683 2.83225 0
M  V30 1858 H 185.449 -3.73439 4.53671 0
M  V30 1859 H 186.973 -4.54556 4.0769 0
M  V30 1860 H 188.387 -2.53846 5.14038 0
M  V30 1861 H 186.784 -1.95422 5.67389 0
M  V30 1862 H 187.854 -0.866673 4.77092 0
M  V30 1863 N 189.197 -1.51736 -0.425897 0
M  V30 1864 C 190.127 -1.76827 -1.52494 0
M  V30 1865 C 191.108 -0.618524 -1.58456 0
M  V30 1866 O 192.293 -0.862416 -1.74 0
M  V30 1867 C 189.423 -1.90374 -2.90474 0
M  V30 1868 C 188.377 -3.0588 -2.99369 0
M  V30 1869 C 187.703 -3.04625 -4.3944 0
M  V30 1870 C 189.003 -4.45644 -2.72394 0
M  V30 1871 H 190.697 -2.68855 -1.31748 0
M  V30 1872 H 188.243 -1.29372 -0.632362 0
M  V30 1873 H 190.196 -2.0651 -3.6733 0
M  V30 1874 H 188.92 -0.95004 -3.12477 0
M  V30 1875 H 187.579 -2.89467 -2.24954 0
M  V30 1876 H 187.227 -2.0701 -4.58428 0
M  V30 1877 H 186.927 -3.82195 -4.46319 0
M  V30 1878 H 188.451 -3.22869 -5.18255 0
M  V30 1879 H 189.865 -4.62348 -3.38979 0
M  V30 1880 H 188.262 -5.25006 -2.9067 0
M  V30 1881 H 189.332 -4.54893 -1.67929 0
M  V30 1882 N 190.675 0.682077 -1.42076 0
M  V30 1883 C 191.923 1.4393 -1.41876 0
M  V30 1884 C 192.244 1.94971 -0.0335599 0
M  V30 1885 O 191.514 1.72591 0.926773 0
M  V30 1886 H 190.094 0.534085 -0.522267 0
M  V30 1887 H 192.756 0.806427 -1.77434 0
M  V30 1888 H 191.852 2.29588 -2.11414 0
M  V30 1889 N 192.153 1.28127 0.917671 0
M  V30 1890 C 193.564 1.13622 1.48145 0
M  V30 1891 C 193.915 -0.275207 1.9426 0
M  V30 1892 O 193.04 -1.1691 1.82102 0
M  V30 1893 C 193.635 2.05648 2.69248 0
M  V30 1894 C 192.194 1.95219 3.21818 0
M  V30 1895 C 191.341 1.97618 1.94532 0
M  V30 1896 H 194.292 1.40874 0.730772 0
M  V30 1897 H 194.313 1.61818 3.44377 0
M  V30 1898 H 193.825 3.08365 2.35653 0
M  V30 1899 H 191.926 0.955244 3.60147 0
M  V30 1900 H 192.039 2.81976 3.87333 0
M  V30 1901 H 190.403 1.41973 2.11461 0
M  V30 1902 H 191.186 3.02007 1.63238 0
M  V30 1903 N 193.631 -1.12557 1.10312 0
M  V30 1904 C 194.859 -1.87864 0.866873 0
M  V30 1905 C 195.274 -1.79588 -0.582557 0
M  V30 1906 O 194.631 -1.16887 -1.40156 0
M  V30 1907 C 194.682 -3.37125 1.30496 0
M  V30 1908 O 194.403 -3.45201 2.69755 0
M  V30 1909 C 195.904 -4.29373 1.10243 0
M  V30 1910 H 193.124 -0.594452 0.311236 0
M  V30 1911 H 195.668 -1.42429 1.46745 0
M  V30 1912 H 193.823 -3.80109 0.748081 0
M  V30 1913 H 194.237 -4.38056 2.88457 0
M  V30 1914 H 195.711 -5.32394 1.45811 0
M  V30 1915 H 196.188 -4.39181 0.0409492 0
M  V30 1916 H 196.794 -3.92169 1.64571 0
M  V30 1917 N 195.109 -0.891671 -1.2995 0
M  V30 1918 C 196.041 -0.320695 -2.26945 0
M  V30 1919 C 197.054 0.528497 -1.53983 0
M  V30 1920 O 198.243 0.346959 -1.75096 0
M  V30 1921 C 195.343 0.562066 -3.34207 0
M  V30 1922 C 194.516 -0.259576 -4.36629 0
M  V30 1923 C 193.575 0.554739 -5.23268 0
M  V30 1924 O 192.601 -0.0249311 -5.69195 0
M  V30 1925 N 193.803 1.8625 -5.4981 0
M  V30 1926 H 196.568 -1.15432 -2.76578 0
M  V30 1927 H 194.129 -0.755336 -1.432 0
M  V30 1928 H 196.121 1.11304 -3.89093 0
M  V30 1929 H 194.691 1.29637 -2.84452 0
M  V30 1930 H 193.911 -0.991986 -3.81514 0
M  V30 1931 H 195.199 -0.822564 -5.02107 0
M  V30 1932 H 194.597 2.35628 -5.14292 0
M  V30 1933 H 193.154 2.36078 -6.07545 0
M  V30 1934 N 196.587 1.43421 -0.653314 0
M  V30 1935 C 197.517 2.33487 0.0246656 0
M  V30 1936 C 198.498 1.49475 0.811863 0
M  V30 1937 O 199.683 1.78139 0.773322 0
M  V30 1938 C 196.813 3.32841 0.99166 0
M  V30 1939 C 195.767 4.26842 0.314568 0
M  V30 1940 C 195.093 5.16236 1.39302 0
M  V30 1941 C 196.393 5.16243 -0.793095 0
M  V30 1942 H 198.087 2.90427 -0.727481 0
M  V30 1943 H 195.633 1.39649 -0.351287 0
M  V30 1944 H 197.586 3.94747 1.47487 0
M  V30 1945 H 196.31 2.74158 1.77497 0
M  V30 1946 H 194.969 3.663 -0.148199 0
M  V30 1947 H 194.617 4.53891 2.16776 0
M  V30 1948 H 194.317 5.79948 0.945223 0
M  V30 1949 H 195.841 5.81015 1.87759 0
M  V30 1950 H 197.255 5.71958 -0.392039 0
M  V30 1951 H 195.652 5.88676 -1.16536 0
M  V30 1952 H 196.722 4.55927 -1.65103 0
M  V30 1953 N 198.065 0.39524 1.52563 0
M  V30 1954 C 199.293 -0.184943 2.06072 0
M  V30 1955 C 199.708 -1.40021 1.26647 0
M  V30 1956 O 199.065 -1.79767 0.314672 0
M  V30 1957 C 199.116 -0.549179 3.57304 0
M  V30 1958 O 198.837 0.617813 4.33722 0
M  V30 1959 C 200.338 -1.18459 4.2718 0
M  V30 1960 H 197.558 -0.0265025 0.670476 0
M  V30 1961 H 200.102 0.562184 1.96621 0
M  V30 1962 H 198.257 -1.2462 3.66809 0
M  V30 1963 H 198.671 0.317091 5.23541 0
M  V30 1964 H 200.145 -1.38976 5.34219 0
M  V30 1965 H 200.622 -2.15368 3.82771 0
M  V30 1966 H 201.228 -0.528163 4.22008 0
M  V30 1967 N 199.544 -1.57102 0.125237 0
M  V30 1968 C 200.476 -2.12726 -0.853237 0
M  V30 1969 C 201.489 -1.07145 -1.22571 0
M  V30 1970 O 202.678 -1.34497 -1.17358 0
M  V30 1971 C 199.778 -2.61709 -2.15317 0
M  V30 1972 C 198.951 -3.91456 -1.95143 0
M  V30 1973 C 198.01 -4.25973 -3.08923 0
M  V30 1974 O 197.036 -4.94682 -2.81564 0
M  V30 1975 N 198.238 -3.83795 -4.35524 0
M  V30 1976 H 201.003 -2.97307 -0.377964 0
M  V30 1977 H 198.564 -1.61792 -0.0590011 0
M  V30 1978 H 200.556 -2.81826 -2.90441 0
M  V30 1979 H 199.126 -1.81974 -2.54174 0
M  V30 1980 H 198.346 -3.80185 -1.04177 0
M  V30 1981 H 199.634 -4.76283 -1.78976 0
M  V30 1982 H 199.032 -3.2839 -4.60626 0
M  V30 1983 H 197.589 -4.09008 -5.07499 0
M  V30 1984 N 201.022 0.148545 -1.56898 0
M  V30 1985 C 202.438 0.501131 -1.51528 0
M  V30 1986 C 202.638 1.83458 -0.833399 0
M  V30 1987 O 201.694 2.49259 -0.40328 0
M  V30 1988 C 203.007 0.512864 -2.96294 0
M  V30 1989 C 204.555 0.598487 -3.07225 0
M  V30 1990 C 205.03 0.640897 -4.53494 0
M  V30 1991 N 206.521 0.703163 -4.57832 0
M  V30 1992 C 207.256 0.756935 -5.68382 0
M  V30 1993 N 206.752 0.770147 -6.88506 0
M  V30 1994 N 208.545 0.797698 -5.56411 0
M  V30 1995 H 200.696 -0.725532 -1.99624 0
M  V30 1996 H 202.959 -0.264358 -0.910395 0
M  V30 1997 H 202.665 -0.398691 -3.49433 0
M  V30 1998 H 202.539 1.35133 -3.52163 0
M  V30 1999 H 204.926 1.50046 -2.54106 0
M  V30 2000 H 205.007 -0.267093 -2.54402 0
M  V30 2001 H 204.651 -0.256915 -5.0725 0
M  V30 2002 H 204.581 1.52295 -5.04097 0
M  V30 2003 H 207.072 0.700314 -3.71354 0
M  V30 2004 H 207.385 0.812983 -7.68512 0
M  V30 2005 H 205.73 0.738049 -6.9107 0
M  V30 2006 H 208.921 0.784535 -4.61479 0
M  V30 2007 H 209.094 0.83614 -6.42583 0
M  V30 2008 N 202.5 1.5196 0.417844 0
M  V30 2009 C 203.43 1.77634 1.51554 0
M  V30 2010 C 204.411 0.626918 1.58126 0
M  V30 2011 O 205.596 0.871632 1.7354 0
M  V30 2012 C 202.726 1.91911 2.8946 0
M  V30 2013 C 201.68 3.07463 2.97743 0
M  V30 2014 C 201.006 3.06951 4.37819 0
M  V30 2015 C 202.306 4.47082 2.70027 0
M  V30 2016 H 204 2.6955 1.3032 0
M  V30 2017 H 201.546 1.29706 0.625492 0
M  V30 2018 H 203.499 2.08455 3.6623 0
M  V30 2019 H 202.223 0.966598 3.11969 0
M  V30 2020 H 200.882 2.90656 2.23416 0
M  V30 2021 H 200.53 2.09438 4.57323 0
M  V30 2022 H 200.23 3.84556 4.44286 0
M  V30 2023 H 201.754 3.25613 5.16535 0
M  V30 2024 H 203.168 4.6414 3.36522 0
M  V30 2025 H 201.565 5.2654 2.87881 0
M  V30 2026 H 202.635 4.55777 1.65514 0
M  V30 2027 N 203.978 -0.674533 1.42435 0
M  V30 2028 C 205.389 -1.25514 1.38214 0
M  V30 2029 C 205.74 -1.96055 0.0755464 0
M  V30 2030 O 204.865 -2.00028 -0.8257 0
M  V30 2031 C 205.46 -2.28269 2.50357 0
M  V30 2032 C 204.019 -2.81856 2.49467 0
M  V30 2033 C 203.166 -1.56182 2.29134 0
M  V30 2034 H 206.117 -0.467902 1.51646 0
M  V30 2035 H 206.138 -3.10009 2.20624 0
M  V30 2036 H 205.65 -1.769 3.45439 0
M  V30 2037 H 203.751 -3.37346 1.58204 0
M  V30 2038 H 203.864 -3.30854 3.46515 0
M  V30 2039 H 202.228 -1.82761 1.774 0
M  V30 2040 H 203.011 -1.06778 3.26272 0
M  V30 2041 N 205.456 -1.28612 -0.910864 0
M  V30 2042 C 206.702 -1.16106 -1.66274 0
M  V30 2043 C 207.035 0.289113 -1.92036 0
M  V30 2044 O 206.31 1.21 -1.52281 0
M  V30 2045 C 206.593 -1.96309 -3.01885 0
M  V30 2046 C 206.446 -3.49405 -2.8326 0
M  V30 2047 C 207.765 -1.78076 -4.02463 0
M  V30 2048 H 204.884 -0.423152 -0.603417 0
M  V30 2049 H 207.526 -1.57961 -1.05586 0
M  V30 2050 H 205.676 -1.60742 -3.53687 0
M  V30 2051 H 207.348 -3.94894 -2.38446 0
M  V30 2052 H 205.591 -3.74893 -2.18261 0
M  V30 2053 H 206.262 -4.00784 -3.79574 0
M  V30 2054 H 208.738 -2.0912 -3.59733 0
M  V30 2055 H 207.614 -2.36561 -4.95308 0
M  V30 2056 H 207.875 -0.733008 -4.35981 0
M  V30 2057 N 206.934 1.1197 -1.10907 0
M  V30 2058 C 208.159 1.87942 -0.877064 0
M  V30 2059 C 208.584 1.79341 0.567314 0
M  V30 2060 O 207.942 1.15184 1.40009 0
M  V30 2061 C 207.99 3.34926 -1.33629 0
M  V30 2062 O 207.094 4.09303 -0.504447 0
M  V30 2063 H 206.435 0.583785 -0.316371 0
M  V30 2064 H 208.965 1.4157 -1.47712 0
M  V30 2065 H 208.975 3.8577 -1.32837 0
M  V30 2066 H 207.65 3.40504 -2.3881 0
M  V30 2067 H 206.227 3.68393 -0.577993 0
M  V30 2068 N 208.412 0.89855 1.29475 0
M  V30 2069 C 209.828 0.594483 1.48115 0
M  V30 2070 C 210.028 -0.86431 1.82022 0
M  V30 2071 O 209.084 -1.64457 1.91599 0
M  V30 2072 C 210.397 1.51932 2.59494 0
M  V30 2073 C 211.945 1.5244 2.7337 0
M  V30 2074 C 212.42 2.43548 3.87877 0
M  V30 2075 N 213.911 2.41589 3.95208 0
M  V30 2076 C 214.646 3.08789 4.83153 0
M  V30 2077 N 214.142 3.85265 5.75798 0
M  V30 2078 N 215.935 2.97952 4.76635 0
M  V30 2079 H 208.086 1.84207 1.05742 0
M  V30 2080 H 210.349 0.789251 0.525154 0
M  V30 2081 H 210.055 2.55865 2.41301 0
M  V30 2082 H 209.929 1.23899 3.56271 0
M  V30 2083 H 212.316 0.492518 2.90961 0
M  V30 2084 H 212.397 1.8451 1.77172 0
M  V30 2085 H 212.041 3.46829 3.71041 0
M  V30 2086 H 211.971 2.08788 4.83441 0
M  V30 2087 H 214.462 1.86025 3.28943 0
M  V30 2088 H 214.775 4.33598 6.39697 0
M  V30 2089 H 213.12 3.89371 5.75687 0
M  V30 2090 H 216.311 2.37723 4.03244 0
M  V30 2091 H 216.484 3.50599 5.44962 0
M  V30 2092 N 209.89 -1.43072 0.660911 0
M  V30 2093 C 210.822 -2.29108 -0.0647641 0
M  V30 2094 C 211.835 -1.42928 -0.779448 0
M  V30 2095 O 213.024 -1.66788 -0.635921 0
M  V30 2096 C 210.124 -3.20032 -1.11503 0
M  V30 2097 C 209.297 -4.34792 -0.476955 0
M  V30 2098 C 208.356 -5.06534 -1.42513 0
M  V30 2099 O 207.382 -5.61538 -0.930771 0
M  V30 2100 N 208.584 -5.1075 -2.75889 0
M  V30 2101 H 211.349 -2.92029 0.673731 0
M  V30 2102 H 208.91 -1.53846 0.50427 0
M  V30 2103 H 210.902 -3.64892 -1.75032 0
M  V30 2104 H 209.472 -2.58658 -1.75541 0
M  V30 2105 H 208.692 -3.92752 0.337572 0
M  V30 2106 H 209.98 -5.0879 -0.0318525 0
M  V30 2107 H 209.378 -4.67447 -3.18606 0
M  V30 2108 H 207.935 -5.59302 -3.347 0
M  V30 2109 N 211.368 -0.403325 -1.52352 0
M  V30 2110 C 212.278 0.432009 -2.30588 0
M  V30 2111 C 213.294 1.05884 -1.38075 0
M  V30 2112 O 214.47 1.06161 -1.71148 0
M  V30 2113 C 211.535 1.53669 -3.10784 0
M  V30 2114 C 210.596 0.933525 -4.19027 0
M  V30 2115 C 209.829 1.98557 -4.9539 0
M  V30 2116 O 210.052 3.20283 -4.71991 0
M  V30 2117 O 208.986 1.59504 -5.80381 0
M  V30 2118 H 212.812 -0.205739 -3.03002 0
M  V30 2119 H 210.397 -0.166675 -1.48467 0
M  V30 2120 H 212.279 2.17814 -3.60742 0
M  V30 2121 H 210.954 2.15915 -2.41169 0
M  V30 2122 H 209.861 0.254954 -3.7323 0
M  V30 2123 H 211.194 0.35508 -4.90918 0
M  V30 2124 N 212.846 1.57033 -0.133567 0
M  V30 2125 C 214.086 1.97575 0.523789 0
M  V30 2126 C 214.45 1.01605 1.62912 0
M  V30 2127 O 215.651 1.3114 2.3464 0
M  V30 2128 C 213.922 3.42256 1.02935 0
M  V30 2129 S 215.481 4.04817 1.69319 0
M  V30 2130 H 212.299 0.690427 0.169799 0
M  V30 2131 H 214.901 1.94234 -0.222101 0
M  V30 2132 H 213.605 4.09842 0.213917 0
M  V30 2133 H 213.136 3.4928 1.81017 0
M  V30 2134 H 215.151 3.96767 2.97977 0
M  V30 2135 N 214.325 -0.140222 1.56975 0
M  V30 2136 C 215.736 -0.699596 1.73097 0
M  V30 2137 C 216.087 -1.8134 0.749022 0
M  V30 2138 O 215.212 -2.16241 -0.0828503 0
M  V30 2139 C 215.807 -1.27582 3.1386 0
M  V30 2140 C 214.366 -1.78169 3.31561 0
M  V30 2141 C 213.513 -0.672855 2.69013 0
M  V30 2142 H 216.464 0.0855115 1.58469 0
M  V30 2143 H 216.485 -2.14561 3.14235 0
M  V30 2144 H 215.997 -0.464955 3.85305 0
M  V30 2145 H 214.098 -2.61801 2.65124 0
M  V30 2146 H 214.211 -1.90574 4.39566 0
M  V30 2147 H 212.575 -1.10118 2.29665 0
M  V30 2148 H 213.358 0.126679 3.43066 0
M  V30 2149 N 215.803 -1.52179 -0.40978 0
M  V30 2150 C 217.219 -1.40968 -0.74835 0
M  V30 2151 C 217.419 -0.513657 -1.94843 0
M  V30 2152 O 216.475 0.0208026 -2.52491 0
M  V30 2153 C 217.788 -2.83483 -1.0029 0
M  V30 2154 C 219.336 -2.92821 -1.10565 0
M  V30 2155 C 219.811 -4.36303 -1.39296 0
M  V30 2156 N 221.302 -4.39535 -1.46162 0
M  V30 2157 C 222.037 -5.47614 -1.70018 0
M  V30 2158 N 221.533 -6.65812 -1.91483 0
M  V30 2159 N 223.326 -5.35129 -1.72027 0
M  V30 2160 H 215.477 -2.0897 0.380186 0
M  V30 2161 H 217.74 -0.94185 0.107805 0
M  V30 2162 H 217.446 -3.51168 -0.193461 0
M  V30 2163 H 217.32 -3.24487 -1.92323 0
M  V30 2164 H 219.707 -2.25318 -1.90568 0
M  V30 2165 H 219.788 -2.55276 -0.16369 0
M  V30 2166 H 219.432 -5.04366 -0.598109 0
M  V30 2167 H 219.362 -4.71385 -2.34743 0
M  V30 2168 H 221.853 -3.54332 -1.31367 0
M  V30 2169 H 222.166 -7.43964 -2.09134 0
M  V30 2170 H 220.511 -6.68879 -1.88749 0
M  V30 2171 H 223.702 -4.41764 -1.54796 0
M  V30 2172 H 223.875 -6.19433 -1.9028 0
M  V30 2173 N 217.281 0.66697 -1.42791 0
M  V30 2174 C 218.213 1.7925 -1.42836 0
M  V30 2175 C 219.226 1.59496 -0.326333 0
M  V30 2176 O 220.415 1.6847 -0.589916 0
M  V30 2177 C 217.515 3.16476 -1.21229 0
M  V30 2178 C 216.688 3.63011 -2.44013 0
M  V30 2179 C 215.747 4.78993 -2.17834 0
M  V30 2180 O 214.773 4.89137 -2.91091 0
M  V30 2181 N 215.975 5.68248 -1.18635 0
M  V30 2182 H 218.74 1.79695 -2.39854 0
M  V30 2183 H 216.301 0.850338 -1.37771 0
M  V30 2184 H 218.293 3.91734 -1.01621 0
M  V30 2185 H 216.863 3.10884 -0.32706 0
M  V30 2186 H 216.083 2.78346 -2.79137 0
M  V30 2187 H 217.371 3.90845 -3.25757 0
M  V30 2188 H 216.769 5.62712 -0.580615 0
M  V30 2189 H 215.326 6.43285 -1.05013 0
M  V30 2190 N 218.759 1.29093 0.90403 0
M  V30 2191 C 219.669 1.15727 2.0407 0
M  V30 2192 C 220.685 0.0815308 1.73809 0
M  V30 2193 O 221.861 0.292749 1.99261 0
M  V30 2194 C 218.926 0.830424 3.36608 0
M  V30 2195 C 217.987 1.98955 3.80415 0
M  V30 2196 C 217.22 1.6782 5.06628 0
M  V30 2197 O 217.443 0.597105 5.67266 0
M  V30 2198 O 216.377 2.52486 5.46383 0
M  V30 2199 H 220.203 2.11171 2.18267 0
M  V30 2200 H 217.788 1.08504 1.027 0
M  V30 2201 H 219.67 0.662521 4.16159 0
M  V30 2202 H 218.345 -0.0942678 3.23563 0
M  V30 2203 H 217.252 2.21267 3.01648 0
M  V30 2204 H 218.585 2.89529 3.98037 0
M  V30 2205 N 220.237 -1.11381 1.11499 0
M  V30 2206 C 221.169 -2.17207 0.731704 0
M  V30 2207 C 222.182 -1.61066 -0.236957 0
M  V30 2208 O 223.371 -1.78489 -0.0197591 0
M  V30 2209 C 220.471 -3.38846 0.0607624 0
M  V30 2210 C 219.644 -4.24451 1.0564 0
M  V30 2211 C 218.703 -5.24562 0.4149 0
M  V30 2212 O 217.729 -5.59071 1.069 0
M  V30 2213 N 218.931 -5.74651 -0.821943 0
M  V30 2214 H 221.696 -2.50699 1.64225 0
M  V30 2215 H 219.257 -1.26908 1.00529 0
M  V30 2216 H 221.249 -4.02911 -0.380139 0
M  V30 2217 H 219.819 -3.03411 -0.752376 0
M  V30 2218 H 219.039 -3.56833 1.67524 0
M  V30 2219 H 220.327 -4.78486 1.72998 0
M  V30 2220 H 219.725 -5.48797 -1.37252 0
M  V30 2221 H 218.282 -6.40549 -1.20582 0
M  V30 2222 N 221.715 -0.905404 -1.28997 0
M  V30 2223 C 222.992 -0.453513 -1.9027 0
M  V30 2224 C 223.372 1.06721 -1.82137 0
M  V30 2225 O 222.72 1.91159 -1.25182 0
M  V30 2226 C 222.93 -0.974494 -3.35119 0
M  V30 2227 C 224.278 -1.0216 -4.12127 0
M  V30 2228 O 225.302 -0.922557 -3.44046 0
M  V30 2229 O 224.161 -1.17121 -5.33802 0
M  V30 2230 H 221.255 -0.142347 -0.814657 0
M  V30 2231 H 223.801 -0.995642 -1.37423 0
M  V30 2232 H 222.573 -2.01848 -3.35221 0
M  V30 2233 H 222.196 -0.412706 -3.95452 0
M  V30 2234 N 223.193 1.4272 -0.668489 0
M  V30 2235 C 224.442 2.00846 -0.185389 0
M  V30 2236 C 224.755 1.53442 1.21305 0
M  V30 2237 O 225.961 2.03944 1.79218 0
M  V30 2238 C 224.417 3.58805 -0.280591 0
M  V30 2239 C 224.025 4.15198 -1.68268 0
M  V30 2240 C 225.769 4.24255 0.14412 0
M  V30 2241 C 223.676 5.655 -1.73099 0
M  V30 2242 H 222.606 0.751145 -0.0655475 0
M  V30 2243 H 225.257 1.63516 -0.832752 0
M  V30 2244 H 223.639 3.93608 0.434553 0
M  V30 2245 H 224.813 3.91866 -2.42441 0
M  V30 2246 H 223.128 3.62176 -2.05469 0
M  V30 2247 H 225.725 5.34547 0.128086 0
M  V30 2248 H 226.068 3.99277 1.17827 0
M  V30 2249 H 226.601 3.94389 -0.519798 0
M  V30 2250 H 223.34 5.95268 -2.74475 0
M  V30 2251 H 222.86 5.90842 -1.03274 0
M  V30 2252 H 224.539 6.29808 -1.48158 0
M  V30 2253 N 224.671 0.411399 1.52136 0
M  V30 2254 C 225.917 -0.163888 2.02137 0
M  V30 2255 C 226.25 -1.44597 1.29636 0
M  V30 2256 O 225.525 -1.90272 0.403353 0
M  V30 2257 C 225.808 -0.40927 3.57767 0
M  V30 2258 C 225.661 0.889643 4.40914 0
M  V30 2259 C 226.98 -1.19042 4.23694 0
M  V30 2260 H 224.099 -0.0580896 0.734707 0
M  V30 2261 H 226.741 0.54531 1.82007 0
M  V30 2262 H 224.891 -1.0134 3.7505 0
M  V30 2263 H 226.563 1.52575 4.35337 0
M  V30 2264 H 224.806 1.50011 4.07037 0
M  V30 2265 H 225.477 0.672314 5.4789 0
M  V30 2266 H 227.953 -0.678942 4.10524 0
M  V30 2267 H 226.829 -1.33086 5.32522 0
M  V30 2268 H 227.09 -2.21166 3.82803 0
M  V30 2269 N 226.149 -1.5696 0.141893 0
M  V30 2270 C 227.396 -1.9596 -0.510492 0
M  V30 2271 C 227.724 -1.02648 -1.65208 0
M  V30 2272 O 226.979 -0.0546947 -1.95624 0
M  V30 2273 C 227.278 -3.41242 -1.06249 0
M  V30 2274 C 226.944 -4.50882 -0.0398791 0
M  V30 2275 C 225.606 -4.80595 0.241247 0
M  V30 2276 C 227.958 -5.17058 0.65578 0
M  V30 2277 C 225.286 -5.73792 1.22393 0
M  V30 2278 C 227.638 -6.11313 1.62724 0
M  V30 2279 C 226.302 -6.39407 1.91612 0
M  V30 2280 H 225.572 -0.717068 -0.186802 0
M  V30 2281 H 228.219 -1.90142 0.227643 0
M  V30 2282 H 226.524 -3.43866 -1.87785 0
M  V30 2283 H 228.221 -3.68742 -1.57576 0
M  V30 2284 H 224.811 -4.27754 -0.269174 0
M  V30 2285 H 228.995 -4.94239 0.451779 0
M  V30 2286 H 224.251 -5.93853 1.45424 0
M  V30 2287 H 228.425 -6.61668 2.17183 0
M  V30 2288 H 226.052 -7.11427 2.6791 0
M  V30 2289 N 227.627 0.131896 -1.57047 0
M  V30 2290 C 228.557 1.16384 -2.02428 0
M  V30 2291 C 229.538 1.43936 -0.90644 0
M  V30 2292 O 230.723 1.54599 -1.17528 0
M  V30 2293 C 227.853 2.49328 -2.4177 0
M  V30 2294 C 226.807 2.36266 -3.56879 0
M  V30 2295 C 226.133 3.74057 -3.8208 0
M  V30 2296 C 227.433 1.834 -4.89042 0
M  V30 2297 H 229.127 0.786433 -2.88887 0
M  V30 2298 H 226.673 0.376855 -1.38981 0
M  V30 2299 H 228.626 3.21759 -2.7212 0
M  V30 2300 H 227.35 2.88934 -1.52266 0
M  V30 2301 H 226.009 1.66286 -3.26718 0
M  V30 2302 H 225.657 4.11125 -2.89803 0
M  V30 2303 H 225.357 3.66174 -4.59554 0
M  V30 2304 H 226.881 4.48012 -4.1487 0
M  V30 2305 H 228.295 2.45636 -5.18011 0
M  V30 2306 H 226.692 1.8637 -5.70426 0
M  V30 2307 H 227.762 0.790662 -4.7841 0
M  V30 2308 N 229.106 1.52395 0.401703 0
M  V30 2309 C 230.355 1.66044 1.14509 0
M  V30 2310 C 230.668 0.400216 1.91462 0
M  V30 2311 O 231.874 0.416632 2.68284 0
M  V30 2312 C 230.33 2.93388 2.0845 0
M  V30 2313 C 229.938 4.26545 1.36978 0
M  V30 2314 C 231.682 3.16402 2.83001 0
M  V30 2315 C 229.589 5.45007 2.29611 0
M  V30 2316 H 228.519 0.618562 0.431158 0
M  V30 2317 H 231.17 1.78886 0.40892 0
M  V30 2318 H 229.552 2.74263 2.8565 0
M  V30 2319 H 230.726 4.56179 0.650916 0
M  V30 2320 H 229.041 4.09692 0.74438 0
M  V30 2321 H 231.638 4.02085 3.52465 0
M  V30 2322 H 231.981 2.30943 3.46368 0
M  V30 2323 H 232.514 3.36034 2.12898 0
M  V30 2324 H 229.253 6.32835 1.70879 0
M  V30 2325 H 228.773 5.19702 2.9945 0
M  V30 2326 H 230.452 5.7838 2.89974 0
M  V30 2327 N 230.584 -0.659388 1.43143 0
M  V30 2328 C 231.861 -1.41627 1.34912 0
M  V30 2329 C 232.241 -2.11099 -0.00607785 0
M  V30 2330 O 231.589 -2.04353 -1.02236 0
M  V30 2331 C 231.799 -2.40604 2.52805 0
M  V30 2332 C 233.147 -3.04789 2.95616 0
M  V30 2333 O 234.171 -2.50932 2.52807 0
M  V30 2334 O 233.03 -4.02421 3.69756 0
M  V30 2335 H 230.124 -0.63246 0.532844 0
M  V30 2336 H 232.67 -0.686814 1.5518 0
M  V30 2337 H 231.442 -1.88174 3.43083 0
M  V30 2338 H 231.065 -3.21009 2.34604 0
M  V30 2339 N 232.062 -1.29571 -0.897171 0
M  V30 2340 C 233.31 -1.17456 -1.64464 0
M  V30 2341 C 233.631 0.273698 -1.9307 0
M  V30 2342 O 232.901 1.18684 -1.55855 0
M  V30 2343 H 231.481 -0.431706 -0.609622 0
M  V30 2344 H 234.143 -1.62531 -1.07562 0
M  V30 2345 H 233.239 -1.72648 -2.59998 0
M  V30 2346 N 233.54 1.10788 -1.12088 0
M  V30 2347 C 234.765 1.87002 -0.896949 0
M  V30 2348 C 235.19 1.79933 0.548261 0
M  V30 2349 O 234.548 1.16662 1.38779 0
M  V30 2350 C 234.596 3.3349 -1.37174 0
M  V30 2351 O 233.7 4.08745 -0.547831 0
M  V30 2352 H 233.041 0.580397 -0.322545 0
M  V30 2353 H 235.571 1.39996 -1.49206 0
M  V30 2354 H 235.581 3.84339 -1.36922 0
M  V30 2355 H 234.256 3.37951 -2.42408 0
M  V30 2356 H 232.833 3.6776 -0.617034 0
M  V30 2357 N 235.018 0.912232 1.28515 0
M  V30 2358 C 236.266 0.543523 1.94654 0
M  V30 2359 C 236.587 -0.9155 1.72173 0
M  V30 2360 O 235.857 -1.64708 1.06058 0
M  V30 2361 H 234.437 0.198017 0.720277 0
M  V30 2362 H 237.099 1.16126 1.56527 0
M  V30 2363 H 236.195 0.736684 3.03281 0
M  V30 2364 N 236.496 -1.42363 0.676048 0
M  V30 2365 C 237.721 -2.06377 0.205705 0
M  V30 2366 C 238.146 -1.50463 -1.12883 0
M  V30 2367 O 237.504 -0.623619 -1.70237 0
M  V30 2368 C 237.552 -3.60277 0.152655 0
M  V30 2369 O 236.656 -4.02935 -0.87845 0
M  V30 2370 H 235.997 -0.655588 0.105359 0
M  V30 2371 H 238.527 -1.82475 0.925412 0
M  V30 2372 H 238.537 -4.07993 -0.0230675 0
M  V30 2373 H 237.212 -4.00346 1.12675 0
M  V30 2374 H 235.789 -3.66764 -0.673668 0
M  V30 2375 N 237.974 -0.419461 -1.51915 0
M  V30 2376 C 239.223 0.154346 -2.01109 0
M  V30 2377 C 239.536 1.45338 -1.30905 0
M  V30 2378 O 240.742 2.10906 -1.7097 0
M  V30 2379 C 239.198 0.325615 -3.58424 0
M  V30 2380 C 238.806 -0.961934 -4.37551 0
M  V30 2381 C 240.55 0.854155 -4.15818 0
M  V30 2382 C 238.457 -0.757287 -5.86531 0
M  V30 2383 H 237.387 0.0614563 -0.751491 0
M  V30 2384 H 240.038 -0.54649 -1.75173 0
M  V30 2385 H 238.42 1.08903 -3.80731 0
M  V30 2386 H 239.594 -1.7323 -4.26999 0
M  V30 2387 H 237.909 -1.41766 -3.91524 0
M  V30 2388 H 240.506 1.02346 -5.24814 0
M  V30 2389 H 240.849 1.83172 -3.73837 0
M  V30 2390 H 241.382 0.149528 -3.97519 0
M  V30 2391 H 238.121 -1.70671 -6.32892 0
M  V30 2392 H 237.641 -0.0264061 -5.99794 0
M  V30 2393 H 239.32 -0.403482 -6.45741 0
M  V30 2394 N 239.452 1.56882 -0.150215 0
M  V30 2395 C 240.677 2.01027 0.510184 0
M  V30 2396 C 241.102 1.02966 1.57415 0
M  V30 2397 O 240.46 0.00590158 1.81299 0
M  V30 2398 C 240.508 3.43899 1.08472 0
M  V30 2399 O 239.612 3.4885 2.19948 0
M  V30 2400 H 238.953 0.652233 0.124451 0
M  V30 2401 H 241.483 2.03093 -0.247894 0
M  V30 2402 H 241.493 3.82766 1.41259 0
M  V30 2403 H 240.168 4.14776 0.305582 0
M  V30 2404 H 238.745 3.21827 1.88366 0
M  V30 2405 N 240.93 -0.123565 1.57115 0
M  V30 2406 C 242.155 -0.850398 1.89164 0
M  V30 2407 C 242.58 -1.7286 0.741688 0
M  V30 2408 O 241.938 -1.78665 -0.307958 0
M  V30 2409 C 241.986 -1.66353 3.19936 0
M  V30 2410 O 241.09 -2.77004 3.0552 0
M  V30 2411 H 240.431 -0.235454 0.620852 0
M  V30 2412 H 242.961 -0.107335 2.04318 0
M  V30 2413 H 242.971 -2.05372 3.52543 0
M  V30 2414 H 241.646 -1.01881 4.03228 0
M  V30 2415 H 240.223 -2.41221 2.84371 0
M  V30 2416 N 242.408 -1.52605 -0.393616 0
M  V30 2417 C 243.824 -1.41753 -0.733357 0
M  V30 2418 C 244.024 -0.534293 -1.94287 0
M  V30 2419 O 243.08 -0.0059787 -2.52499 0
M  V30 2420 C 244.393 -2.84531 -0.972772 0
M  V30 2421 C 245.941 -2.93978 -1.07453 0
M  V30 2422 C 246.416 -4.37756 -1.3466 0
M  V30 2423 N 247.907 -4.4106 -1.41492 0
M  V30 2424 C 248.642 -5.49387 -1.642 0
M  V30 2425 N 248.138 -6.67806 -1.8441 0
M  V30 2426 N 249.931 -5.36923 -1.66342 0
M  V30 2427 H 242.082 -2.08555 0.402328 0
M  V30 2428 H 244.345 -0.940654 0.117789 0
M  V30 2429 H 244.051 -3.51353 -0.156204 0
M  V30 2430 H 243.925 -3.26508 -1.88871 0
M  V30 2431 H 246.312 -2.27326 -1.88167 0
M  V30 2432 H 246.393 -2.55435 -0.136605 0
M  V30 2433 H 246.037 -5.04972 -0.544581 0
M  V30 2434 H 245.967 -4.73848 -2.2973 0
M  V30 2435 H 248.458 -3.55705 -1.27601 0
M  V30 2436 H 248.771 -7.46141 -2.01231 0
M  V30 2437 H 247.116 -6.70843 -1.81644 0
M  V30 2438 H 250.307 -4.43381 -1.50102 0
M  V30 2439 H 250.48 -6.21416 -1.837 0
M  V30 2440 N 243.887 0.651787 -1.4349 0
M  V30 2441 C 244.835 1.78586 -1.49029 0
M  V30 2442 C 245.829 1.65448 -0.363767 0
M  V30 2443 O 247.035 1.71777 -0.537821 0
M  V30 2444 H 243.41 0.589236 -0.467231 0
M  V30 2445 H 245.381 1.71035 -2.44519 0
M  V30 2446 C 244.13 3.16851 -1.43181 0
M  V30 2447 H 243.453 3.27598 -2.29171 0
M  V30 2448 H 244.893 3.96156 -1.51118 0
M  V30 2449 C 243.352 3.36568 -0.149616 0
M  V30 2450 O 243.882 3.93885 0.788509 0
M  V30 2451 N 242.088 2.90539 -0.0593484 0
M  V30 2452 H 241.635 2.4408 -0.823575 0
M  V30 2453 H 241.593 3.04108 0.797853 0
M  V30 2454 N 245.365 1.30045 0.890287 0
M  V30 2455 C 246.612 1.18561 1.64163 0
M  V30 2456 C 246.94 -0.260852 1.92743 0
M  V30 2457 O 246.195 -1.20376 1.54299 0
M  V30 2458 C 246.494 1.95409 2.99249 0
M  V30 2459 C 246.16 3.45066 2.90242 0
M  V30 2460 C 244.822 3.85878 2.87492 0
M  V30 2461 C 247.174 4.4039 2.78758 0
M  V30 2462 C 244.502 5.20314 2.7109 0
M  V30 2463 C 246.854 5.74928 2.63894 0
M  V30 2464 C 245.518 6.14986 2.59516 0
M  V30 2465 H 244.788 0.433846 0.600715 0
M  V30 2466 H 247.435 1.61088 1.03552 0
M  V30 2467 H 245.74 1.45501 3.63781 0
M  V30 2468 H 247.437 1.8392 3.56334 0
M  V30 2469 H 244.027 3.12631 2.93189 0
M  V30 2470 H 248.211 4.09806 2.79952 0
M  V30 2471 H 243.467 5.50449 2.66112 0
M  V30 2472 H 247.641 6.48434 2.53981 0
M  V30 2473 H 245.268 7.19104 2.46565 0
M  V30 2474 N 246.843 -1.10192 1.12674 0
M  V30 2475 C 247.806 -2.14786 0.799979 0
M  V30 2476 C 248.806 -1.59711 -0.18685 0
M  V30 2477 O 249.996 -1.74156 0.0392558 0
M  V30 2478 C 247.128 -3.40374 0.189228 0
M  V30 2479 H 248.321 -2.45203 1.72671 0
M  V30 2480 H 245.874 -1.25597 0.930326 0
M  V30 2481 H 246.609 -3.15577 -0.747107 0
M  V30 2482 H 246.394 -3.81637 0.899766 0
M  V30 2483 H 247.884 -4.17594 -0.0228143 0
M  V30 2484 N 248.321 -0.919034 -1.28029 0
M  V30 2485 C 249.549 -0.570971 -1.98866 0
M  V30 2486 C 249.964 0.848996 -1.68634 0
M  V30 2487 O 249.321 1.56307 -0.942036 0
M  V30 2488 C 249.372 -0.776876 -3.53054 0
M  V30 2489 O 249.093 -2.14097 -3.82222 0
M  V30 2490 C 250.594 -0.436356 -4.41147 0
M  V30 2491 H 247.814 -0.217175 -0.634883 0
M  V30 2492 H 250.358 -1.23368 -1.63097 0
M  V30 2493 H 248.513 -0.161085 -3.87065 0
M  V30 2494 H 248.927 -2.18455 -4.76841 0
M  V30 2495 H 250.401 -0.63117 -5.4838 0
M  V30 2496 H 250.878 0.627686 -4.34692 0
M  V30 2497 H 251.484 -1.02991 -4.12641 0
M  V30 2498 N 249.799 1.42003 -0.683588 0
M  V30 2499 C 250.732 2.28166 0.039592 0
M  V30 2500 C 251.71 1.41562 0.799942 0
M  V30 2501 O 252.894 1.70997 0.793248 0
M  V30 2502 C 250.021 3.21575 1.06335 0
M  V30 2503 C 249.067 4.24643 0.397562 0
M  V30 2504 S 249.9 5.2869 -0.851296 0
M  V30 2505 C 251.056 6.25666 0.171166 0
M  V30 2506 H 251.289 2.89153 -0.691229 0
M  V30 2507 H 248.822 1.46962 -0.473435 0
M  V30 2508 H 250.78 3.75928 1.6489 0
M  V30 2509 H 249.441 2.59707 1.76667 0
M  V30 2510 H 248.634 4.90223 1.17035 0
M  V30 2511 H 248.236 3.73824 -0.114611 0
M  V30 2512 H 250.528 6.69653 1.02819 0
M  V30 2513 H 251.471 7.06666 -0.450397 0
M  V30 2514 H 251.879 5.62095 0.520578 0
M  V30 2515 N 251.277 0.427512 1.51691 0
M  V30 2516 C 252.21 -0.433876 2.24037 0
M  V30 2517 C 253.188 -1.03287 1.25581 0
M  V30 2518 O 254.372 -1.07722 1.54688 0
M  V30 2519 C 251.499 -1.60385 2.98319 0
M  V30 2520 C 250.545 -1.12648 4.11355 0
M  V30 2521 S 251.378 -0.076543 5.35445 0
M  V30 2522 C 252.534 -1.25141 6.13262 0
M  V30 2523 H 252.767 0.180367 2.96752 0
M  V30 2524 H 250.3 0.211946 1.52938 0
M  V30 2525 H 252.258 -2.27462 3.41718 0
M  V30 2526 H 250.919 -2.18948 2.25213 0
M  V30 2527 H 250.112 -2.0011 4.62571 0
M  V30 2528 H 249.714 -0.534088 3.70167 0
M  V30 2529 H 252.006 -2.17162 6.41753 0
M  V30 2530 H 252.949 -0.779411 7.03797 0
M  V30 2531 H 253.357 -1.48553 5.44603 0
M  V30 2532 N 252.755 -1.56801 0.158532 0
M  V30 2533 C 253.703 -2.18638 -0.793729 0
M  V30 2534 C 254.697 -1.14669 -1.24689 0
M  V30 2535 O 255.903 -1.32895 -1.21403 0
M  V30 2536 H 252.278 -0.700226 -0.274204 0
M  V30 2537 H 254.249 -2.97367 -0.248095 0
M  V30 2538 C 252.998 -2.83139 -2.0181 0
M  V30 2539 H 252.321 -3.62863 -1.67841 0
M  V30 2540 H 253.761 -3.29894 -2.66357 0
M  V30 2541 C 252.22 -1.82244 -2.83353 0
M  V30 2542 O 252.75 -1.3 -3.80083 0
M  V30 2543 N 250.956 -1.51288 -2.48114 0
M  V30 2544 H 250.503 -1.93964 -1.69516 0
M  V30 2545 H 250.461 -0.840296 -3.02963 0
M  V30 2546 N 254.233 0.115231 -1.57178 0
M  V30 2547 C 255.48 0.822351 -1.8505 0
M  V30 2548 C 255.808 1.79701 -0.744168 0
M  V30 2549 O 255.063 1.93909 0.26414 0
M  V30 2550 C 255.362 1.60324 -3.19423 0
M  V30 2551 C 255.028 0.772536 -4.44233 0
M  V30 2552 C 253.69 0.543468 -4.78121 0
M  V30 2553 C 256.042 0.193746 -5.2084 0
M  V30 2554 C 253.37 -0.274583 -5.86057 0
M  V30 2555 C 255.722 -0.611517 -6.29637 0
M  V30 2556 C 254.386 -0.850867 -6.62055 0
M  V30 2557 H 253.656 0.30092 -0.677147 0
M  V30 2558 H 256.303 0.0845802 -1.91313 0
M  V30 2559 H 254.608 2.41203 -3.08753 0
M  V30 2560 H 256.305 2.1544 -3.38211 0
M  V30 2561 H 252.895 0.96117 -4.17683 0
M  V30 2562 H 257.079 0.357926 -4.95008 0
M  V30 2563 H 252.335 -0.469206 -6.09597 0
M  V30 2564 H 256.509 -1.06697 -6.88178 0
M  V30 2565 H 254.136 -1.48657 -7.45523 0
M  V30 2566 N 255.711 1.52812 0.385517 0
M  V30 2567 C 256.957 1.68275 1.13188 0
M  V30 2568 C 257.29 0.423179 1.89533 0
M  V30 2569 O 256.565 -0.579113 1.85679 0
M  V30 2570 C 256.848 2.92001 2.1073 0
M  V30 2571 C 256.701 4.28067 1.38125 0
M  V30 2572 C 258.02 3.11283 3.11113 0
M  V30 2573 H 255.139 0.612352 0.410115 0
M  V30 2574 H 257.781 1.85415 0.414869 0
M  V30 2575 H 255.931 2.77519 2.71874 0
M  V30 2576 H 257.603 4.54324 0.799187 0
M  V30 2577 H 255.846 4.28388 0.683092 0
M  V30 2578 H 256.517 5.10733 2.09417 0
M  V30 2579 H 258.993 3.2482 2.6006 0
M  V30 2580 H 257.869 3.99325 3.76605 0
M  V30 2581 H 258.13 2.25656 3.80173 0
M  V30 2582 N 257.189 -0.644168 1.43834 0
M  V30 2583 C 258.605 -0.960875 1.27434 0
M  V30 2584 C 258.805 -2.00499 0.200618 0
M  V30 2585 O 257.861 -2.49018 -0.417906 0
M  V30 2586 C 259.174 -1.43653 2.64167 0
M  V30 2587 C 260.722 -1.55271 2.71772 0
M  V30 2588 C 261.197 -2.06224 4.08944 0
M  V30 2589 N 262.688 -2.13513 4.11055 0
M  V30 2590 C 263.423 -2.54081 5.14033 0
M  V30 2591 N 262.919 -2.9388 6.27381 0
M  V30 2592 N 264.712 -2.54101 5.01387 0
M  V30 2593 H 256.863 0.0465779 2.12349 0
M  V30 2594 H 259.126 -0.0417638 0.94708 0
M  V30 2595 H 258.832 -0.743706 3.43747 0
M  V30 2596 H 258.706 -2.40993 2.90176 0
M  V30 2597 H 261.093 -2.23653 1.92519 0
M  V30 2598 H 261.174 -0.563395 2.49519 0
M  V30 2599 H 260.818 -1.38441 4.88668 0
M  V30 2600 H 260.748 -3.06003 4.28567 0
M  V30 2601 H 263.239 -1.85493 3.29242 0
M  V30 2602 H 263.552 -3.2361 7.01781 0
M  V30 2603 H 261.897 -2.91663 6.30839 0
M  V30 2604 H 265.088 -2.22391 4.11898 0
M  V30 2605 H 265.261 -2.85394 5.81768 0
M  V30 2606 N 258.668 -1.30515 -0.883378 0
M  V30 2607 C 259.631 -1.1701 -1.97082 0
M  V30 2608 C 260.631 -0.10089 -1.60483 0
M  V30 2609 O 261.821 -0.349127 -1.70666 0
M  V30 2610 C 258.953 -0.793045 -3.31547 0
M  V30 2611 H 260.146 -2.13622 -2.10489 0
M  V30 2612 H 257.699 -1.13935 -1.06998 0
M  V30 2613 H 258.434 0.172499 -3.23841 0
M  V30 2614 H 258.219 -1.56576 -3.5948 0
M  V30 2615 H 259.709 -0.722073 -4.1131 0
M  V30 2616 N 260.146 1.09593 -1.13257 0
M  V30 2617 C 261.392 1.82003 -0.89458 0
M  V30 2618 C 261.725 1.85402 0.577906 0
M  V30 2619 O 261 1.32099 1.42759 0
M  V30 2620 C 261.283 3.28237 -1.48096 0
M  V30 2621 C 261.136 3.3312 -3.02244 0
M  V30 2622 C 262.455 4.24871 -1.14774 0
M  V30 2623 H 259.574 0.66077 -0.326424 0
M  V30 2624 H 262.216 1.28389 -1.40058 0
M  V30 2625 H 260.366 3.74024 -1.05062 0
M  V30 2626 H 262.038 2.95748 -3.54021 0
M  V30 2627 H 260.281 2.72756 -3.37323 0
M  V30 2628 H 260.952 4.3613 -3.38371 0
M  V30 2629 H 263.428 3.87361 -1.51957 0
M  V30 2630 H 262.304 5.25532 -1.58452 0
M  V30 2631 H 262.565 4.42058 -0.0611849 0
M  V30 2632 N 261.624 0.925811 1.2754 0
M  V30 2633 C 262.873 0.561084 1.93739 0
M  V30 2634 C 263.186 -0.901685 1.73577 0
M  V30 2635 O 264.392 -1.37511 2.34101 0
M  V30 2636 C 262.848 0.952668 3.47062 0
M  V30 2637 C 262.456 2.43599 3.75983 0
M  V30 2638 C 264.2 0.659103 4.19352 0
M  V30 2639 C 262.107 2.76707 5.22673 0
M  V30 2640 H 261.037 0.206122 0.725279 0
M  V30 2641 H 263.688 1.12637 1.44863 0
M  V30 2642 H 262.07 0.316053 3.94737 0
M  V30 2643 H 263.244 3.12035 3.39073 0
M  V30 2644 H 261.559 2.70125 3.16893 0
M  V30 2645 H 264.156 0.882985 5.27359 0
M  V30 2646 H 264.499 -0.403607 4.14339 0
M  V30 2647 H 265.032 1.25473 3.77494 0
M  V30 2648 H 261.771 3.8188 5.32774 0
M  V30 2649 H 261.291 2.12919 5.60737 0
M  V30 2650 H 262.97 2.6435 5.90532 0
M  V30 2651 N 263.102 -1.41638 0.69111 0
M  V30 2652 C 264.327 -2.06148 0.227583 0
M  V30 2653 C 264.752 -1.51652 -1.11281 0
M  V30 2654 O 264.11 -0.64164 -1.69566 0
M  V30 2655 C 264.158 -3.60095 0.190858 0
M  V30 2656 O 263.262 -4.03845 -0.835664 0
M  V30 2657 H 262.603 -0.654434 0.112306 0
M  V30 2658 H 265.133 -1.81484 0.944714 0
M  V30 2659 H 265.143 -4.07995 0.020207 0
M  V30 2660 H 263.818 -3.99129 1.16915 0
M  V30 2661 H 262.395 -3.67458 -0.63473 0
M  V30 2662 N 264.58 -0.43555 -1.51462 0
M  V30 2663 C 265.512 0.41257 -2.25456 0
M  V30 2664 C 266.525 0.987822 -1.29406 0
M  V30 2665 O 267.714 0.882266 -1.55172 0
M  V30 2666 C 264.814 1.58894 -2.99342 0
M  V30 2667 C 263.987 1.13288 -4.22474 0
M  V30 2668 C 263.046 2.17917 -4.78956 0
M  V30 2669 O 262.072 1.77425 -5.40841 0
M  V30 2670 N 263.274 3.50382 -4.62832 0
M  V30 2671 H 266.039 -0.221603 -2.9888 0
M  V30 2672 H 263.6 -0.264342 -1.59727 0
M  V30 2673 H 265.592 2.28508 -3.34015 0
M  V30 2674 H 264.162 2.12849 -2.28941 0
M  V30 2675 H 263.382 0.263881 -3.93316 0
M  V30 2676 H 264.67 0.805542 -5.02383 0
M  V30 2677 H 264.068 3.86013 -4.13534 0
M  V30 2678 H 262.625 4.15895 -5.01871 0
M  V30 2679 N 266.058 1.56714 -0.166846 0
M  V30 2680 C 267.305 1.96747 0.479252 0
M  V30 2681 C 267.633 1.05263 1.63554 0
M  V30 2682 O 266.888 0.0858098 1.95512 0
M  V30 2683 C 267.187 3.42889 1.00806 0
M  V30 2684 C 266.853 4.50889 -0.0318574 0
M  V30 2685 C 265.515 4.8015 -0.317675 0
M  V30 2686 C 267.867 5.15949 -0.737956 0
M  V30 2687 C 265.195 5.71772 -1.31506 0
M  V30 2688 C 267.547 6.08647 -1.72429 0
M  V30 2689 C 266.211 6.36277 -2.0176 0
M  V30 2690 H 265.481 0.719949 0.175371 0
M  V30 2691 H 268.128 1.89756 -0.257864 0
M  V30 2692 H 266.433 3.4681 1.82291 0
M  V30 2693 H 268.13 3.71203 1.51689 0
M  V30 2694 H 264.72 4.28128 0.201088 0
M  V30 2695 H 268.904 4.93458 -0.530351 0
M  V30 2696 H 264.16 5.91465 -1.54853 0
M  V30 2697 H 268.334 6.58129 -2.27682 0
M  V30 2698 H 265.961 7.07075 -2.79194 0
M  V30 2699 N 267.536 -0.106894 1.57237 0
M  V30 2700 C 268.468 -1.15646 1.97885 0
M  V30 2701 C 269.481 -1.36981 0.879779 0
M  V30 2702 O 270.67 -1.35841 1.15799 0
M  V30 2703 C 267.77 -2.51425 2.27241 0
M  V30 2704 C 266.943 -2.50529 3.58545 0
M  V30 2705 C 266.002 -3.68145 3.75973 0
M  V30 2706 O 265.028 -3.51176 4.47956 0
M  V30 2707 N 266.23 -4.87177 3.15656 0
M  V30 2708 H 268.995 -0.81059 2.8853 0
M  V30 2709 H 266.556 -0.296024 1.59171 0
M  V30 2710 H 268.548 -3.28689 2.36105 0
M  V30 2711 H 267.118 -2.78147 1.42663 0
M  V30 2712 H 266.338 -1.58894 3.60758 0
M  V30 2713 H 267.626 -2.46997 4.44826 0
M  V30 2714 H 267.024 -5.03868 2.57165 0
M  V30 2715 H 265.581 -5.62075 3.30023 0
M  V30 2716 N 269.014 -1.53014 -0.377408 0
M  V30 2717 C 270.43 -1.42523 -0.718281 0
M  V30 2718 C 270.63 -0.55487 -1.9371 0
M  V30 2719 O 269.686 -0.0327593 -2.52479 0
M  V30 2720 C 270.999 -2.85546 -0.942539 0
M  V30 2721 C 272.547 -2.95101 -1.04329 0
M  V30 2722 C 273.022 -4.3916 -1.3001 0
M  V30 2723 N 274.513 -4.42536 -1.36806 0
M  V30 2724 C 275.248 -5.51097 -1.58364 0
M  V30 2725 N 274.744 -6.69724 -1.77317 0
M  V30 2726 N 276.537 -5.38657 -1.60638 0
M  V30 2727 H 268.688 -2.08116 0.424426 0
M  V30 2728 H 270.951 -0.939352 0.127759 0
M  V30 2729 H 270.657 -3.51499 -0.118929 0
M  V30 2730 H 270.531 -3.28493 -1.85397 0
M  V30 2731 H 272.918 -2.29309 -1.85745 0
M  V30 2732 H 272.999 -2.55566 -0.109505 0
M  V30 2733 H 272.643 -5.05521 -0.490991 0
M  V30 2734 H 272.573 -4.76258 -2.24691 0
M  V30 2735 H 275.064 -3.57039 -1.23821 0
M  V30 2736 H 275.377 -7.48233 -1.93306 0
M  V30 2737 H 273.722 -6.72732 -1.74518 0
M  V30 2738 H 276.913 -4.44948 -1.45391 0
M  V30 2739 H 277.086 -6.2333 -1.77098 0
M  V30 2740 N 270.492 0.636531 -1.44174 0
M  V30 2741 C 271.903 1.21806 -1.41493 0
M  V30 2742 C 272.254 1.95785 -0.1275 0
M  V30 2743 O 271.379 2.02147 0.772376 0
M  V30 2744 C 271.974 2.21551 -2.56321 0
M  V30 2745 C 270.533 2.75143 -2.56853 0
M  V30 2746 C 269.68 1.50052 -2.33195 0
M  V30 2747 H 272.631 0.427531 -1.52833 0
M  V30 2748 H 272.652 3.0405 -2.28765 0
M  V30 2749 H 272.164 1.67679 -3.50008 0
M  V30 2750 H 270.265 3.33033 -1.67093 0
M  V30 2751 H 270.378 3.2155 -3.55165 0
M  V30 2752 H 268.742 1.77993 -1.82183 0
M  V30 2753 H 269.525 0.980903 -3.28988 0
M  V30 2754 N 271.97 1.30982 0.876444 0
M  V30 2755 C 273.195 1.23373 1.66715 0
M  V30 2756 C 273.62 -0.19885 1.87046 0
M  V30 2757 O 272.978 -1.1427 1.40756 0
M  V30 2758 C 273.026 1.97644 3.01611 0
M  V30 2759 O 272.13 1.30935 3.91062 0
M  V30 2760 H 271.471 0.426279 0.509099 0
M  V30 2761 H 274.001 1.72944 1.09323 0
M  V30 2762 H 274.011 2.06992 3.51594 0
M  V30 2763 H 272.686 3.01829 2.86133 0
M  V30 2764 H 271.263 1.29996 3.49507 0
M  V30 2765 N 273.449 -1.08991 1.13837 0
M  V30 2766 C 274.677 -1.85011 0.926202 0
M  V30 2767 C 275.092 -1.8135 -0.525127 0
M  V30 2768 O 274.449 -1.21287 -1.36366 0
M  V30 2769 C 274.5 -3.32802 1.41155 0
M  V30 2770 O 274.221 -3.36444 2.80601 0
M  V30 2771 C 275.722 -4.25649 1.23847 0
M  V30 2772 H 272.942 -0.584249 0.32999 0
M  V30 2773 H 275.486 -1.37688 1.51202 0
M  V30 2774 H 273.641 -3.77536 0.868631 0
M  V30 2775 H 274.055 -4.28657 3.02248 0
M  V30 2776 H 275.529 -5.27485 1.62675 0
M  V30 2777 H 276.006 -4.38828 0.18065 0
M  V30 2778 H 276.612 -3.86735 1.76964 0
M  V30 2779 N 274.927 -0.932562 -1.27047 0
M  V30 2780 C 275.859 -0.392734 -2.2581 0
M  V30 2781 C 276.872 0.479241 -1.55586 0
M  V30 2782 O 278.061 0.291078 -1.76111 0
M  V30 2783 C 275.161 0.455456 -3.35826 0
M  V30 2784 C 274.334 -0.398355 -4.35582 0
M  V30 2785 C 273.393 0.387985 -5.24768 0
M  V30 2786 O 272.419 -0.206003 -5.68827 0
M  V30 2787 N 273.621 1.68664 -5.55457 0
M  V30 2788 H 276.386 -1.24173 -2.72766 0
M  V30 2789 H 273.947 -0.800511 -1.40725 0
M  V30 2790 H 275.939 0.988692 -3.92437 0
M  V30 2791 H 274.509 1.20522 -2.88432 0
M  V30 2792 H 273.729 -1.11286 -3.78165 0
M  V30 2793 H 275.017 -0.981889 -4.99236 0
M  V30 2794 H 274.415 2.19147 -5.21528 0
M  V30 2795 H 272.972 2.1663 -6.14748 0
M  V30 2796 N 276.405 1.4127 -0.698611 0
M  V30 2797 C 277.652 2.0118 -0.230865 0
M  V30 2798 C 277.98 1.55338 1.17049 0
M  V30 2799 O 277.235 0.756775 1.80475 0
M  V30 2800 C 277.534 3.56592 -0.240192 0
M  V30 2801 C 277.2 4.21955 -1.58948 0
M  V30 2802 C 275.862 4.39524 -1.95887 0
M  V30 2803 C 278.214 4.58576 -2.47704 0
M  V30 2804 C 275.542 4.90992 -3.2116 0
M  V30 2805 C 277.894 5.11435 -3.72313 0
M  V30 2806 C 276.558 5.27215 -4.0939 0
M  V30 2807 H 275.828 0.736169 -0.0844796 0
M  V30 2808 H 278.475 1.69124 -0.8983 0
M  V30 2809 H 276.78 3.88456 0.510797 0
M  V30 2810 H 278.477 4.00758 0.139296 0
M  V30 2811 H 275.067 4.08657 -1.29219 0
M  V30 2812 H 279.251 4.44654 -2.20445 0
M  V30 2813 H 274.507 5.01393 -3.49878 0
M  V30 2814 H 278.681 5.38752 -4.4127 0
M  V30 2815 H 276.308 5.66859 -5.06533 0
M  V30 2816 N 277.883 0.443576 1.51229 0
M  V30 2817 C 279.108 -0.121648 2.07043 0
M  V30 2818 C 279.533 -1.35156 1.30823 0
M  V30 2819 O 278.891 -1.7793 0.347934 0
M  V30 2820 C 278.939 -0.41624 3.5819 0
M  V30 2821 O 278.043 -1.50163 3.8409 0
M  V30 2822 H 277.384 0.000871367 0.663999 0
M  V30 2823 H 279.914 0.626706 1.94765 0
M  V30 2824 H 279.924 -0.664867 4.02546 0
M  V30 2825 H 278.599 0.482653 4.1309 0
M  V30 2826 H 277.176 -1.24248 3.51592 0
M  V30 2827 N 279.361 -1.56624 0.175154 0
M  V30 2828 C 280.291 -2.21155 -0.749195 0
M  V30 2829 C 281.272 -1.16836 -1.23626 0
M  V30 2830 O 282.457 -1.45277 -1.28873 0
M  V30 2831 C 279.587 -2.8553 -1.97711 0
M  V30 2832 C 278.541 -3.95921 -1.62575 0
M  V30 2833 C 277.867 -4.47365 -2.92864 0
M  V30 2834 C 279.167 -5.15323 -0.850838 0
M  V30 2835 H 280.861 -2.98653 -0.211295 0
M  V30 2836 H 278.407 -1.43651 -0.100188 0
M  V30 2837 H 280.36 -3.2935 -2.62881 0
M  V30 2838 H 279.084 -2.05406 -2.53921 0
M  V30 2839 H 277.743 -3.52762 -0.997719 0
M  V30 2840 H 277.391 -3.64027 -3.47122 0
M  V30 2841 H 277.091 -5.21839 -2.70106 0
M  V30 2842 H 278.615 -4.93873 -3.59056 0
M  V30 2843 H 280.029 -5.55812 -1.40521 0
M  V30 2844 H 278.426 -5.95739 -0.722154 0
M  V30 2845 H 279.496 -4.84661 0.152082 0
M  V30 2846 N 280.839 0.0985539 -1.57292 0
M  V30 2847 C 281.772 1.15082 -1.97057 0
M  V30 2848 C 282.75 1.39025 -0.843255 0
M  V30 2849 O 283.934 1.52842 -1.10325 0
M  V30 2850 C 281.061 2.50069 -2.28437 0
M  V30 2851 C 280.107 2.42428 -3.509 0
M  V30 2852 S 280.94 1.84414 -5.02744 0
M  V30 2853 C 282.096 3.21032 -5.37298 0
M  V30 2854 H 282.329 0.811815 -2.86002 0
M  V30 2855 H 279.862 0.306102 -1.51335 0
M  V30 2856 H 281.82 3.27729 -2.47192 0
M  V30 2857 H 280.481 2.8114 -1.40069 0
M  V30 2858 H 279.674 3.41911 -3.70288 0
M  V30 2859 H 279.276 1.72896 -3.31637 0
M  V30 2860 H 281.568 4.17297 -5.33731 0
M  V30 2861 H 282.511 3.06452 -6.38352 0
M  V30 2862 H 282.919 3.20404 -4.64759 0
M  V30 2863 N 282.317 1.53212 0.369288 0
M  V30 2864 C 283.249 1.75668 1.47219 0
M  V30 2865 C 284.262 0.637387 1.49804 0
M  V30 2866 O 285.451 0.913561 1.5335 0
M  V30 2867 C 282.551 1.81818 2.85999 0
M  V30 2868 C 281.724 3.11409 3.07153 0
M  V30 2869 C 280.783 3.08849 4.26026 0
M  V30 2870 O 279.809 3.82659 4.2138 0
M  V30 2871 N 281.011 2.29409 5.33246 0
M  V30 2872 H 283.776 2.70832 1.28337 0
M  V30 2873 H 281.337 1.51944 0.55898 0
M  V30 2874 H 283.329 1.77588 3.63655 0
M  V30 2875 H 281.899 0.939544 2.98146 0
M  V30 2876 H 281.119 3.28971 2.1719 0
M  V30 2877 H 282.407 3.97059 3.18154 0
M  V30 2878 H 281.805 1.68946 5.39883 0
M  V30 2879 H 280.362 2.31001 6.09493 0
M  V30 2880 N 283.795 -0.628877 1.44509 0
M  V30 2881 C 285.042 -1.38839 1.47411 0
M  V30 2882 C 285.37 -1.94202 0.10757 0
M  V30 2883 O 284.625 -1.74243 -0.890947 0
M  V30 2884 C 284.924 -2.56995 2.48371 0
M  V30 2885 C 284.59 -2.19908 3.93639 0
M  V30 2886 C 283.252 -2.09506 4.33198 0
M  V30 2887 C 285.604 -1.9064 4.85083 0
M  V30 2888 C 282.932 -1.68028 5.62124 0
M  V30 2889 C 285.284 -1.50655 6.14399 0
M  V30 2890 C 283.948 -1.38796 6.5291 0
M  V30 2891 H 283.218 -0.508048 0.539414 0
M  V30 2892 H 285.865 -0.712913 1.77735 0
M  V30 2893 H 284.17 -3.29786 2.11538 0
M  V30 2894 H 285.867 -3.15223 2.47861 0
M  V30 2895 H 282.457 -2.28922 3.62343 0
M  V30 2896 H 286.641 -1.97585 4.55273 0
M  V30 2897 H 281.897 -1.57452 5.90778 0
M  V30 2898 H 286.071 -1.27048 6.84713 0
M  V30 2899 H 283.698 -1.06429 7.52713 0
M  V30 2900 N 285.273 -1.31445 -0.869486 0
M  V30 2901 C 286.498 -1.24256 -1.66058 0
M  V30 2902 C 286.923 0.188928 -1.87149 0
M  V30 2903 O 286.281 1.13522 -1.4136 0
M  V30 2904 C 286.329 -1.9924 -3.00559 0
M  V30 2905 O 285.433 -1.33007 -3.90362 0
M  V30 2906 H 284.774 -0.428973 -0.506831 0
M  V30 2907 H 287.304 -1.73521 -1.08404 0
M  V30 2908 H 287.314 -2.08854 -3.50491 0
M  V30 2909 H 285.989 -3.03342 -2.84528 0
M  V30 2910 H 284.566 -1.31848 -3.48813 0
M  V30 2911 N 286.751 1.08385 -1.14413 0
M  V30 2912 C 287.699 2.17406 -0.826888 0
M  V30 2913 C 288.693 1.6827 0.195312 0
M  V30 2914 O 289.899 1.79927 0.0513892 0
M  V30 2915 H 286.274 0.70934 -0.249681 0
M  V30 2916 H 288.245 2.41388 -1.75426 0
M  V30 2917 C 286.994 3.46215 -0.320979 0
M  V30 2918 H 286.317 3.84401 -1.0989 0
M  V30 2919 H 287.757 4.23777 -0.137549 0
M  V30 2920 C 286.216 3.23067 0.955472 0
M  V30 2921 O 286.746 3.4668 2.02918 0
M  V30 2922 N 284.952 2.7661 0.890798 0
M  V30 2923 H 284.499 2.57594 0.0168815 0
M  V30 2924 H 284.457 2.61501 1.74542 0
M  V30 2925 N 288.23 0.939286 1.26551 0
M  V30 2926 C 289.177 0.446088 2.26448 0
M  V30 2927 C 290.147 -0.493234 1.58608 0
M  V30 2928 O 291.332 -0.409857 1.86346 0
M  V30 2929 C 288.472 -0.284375 3.43926 0
M  V30 2930 C 287.585 0.690399 4.26448 0
M  V30 2931 C 286.72 -0.0610712 5.31165 0
M  V30 2932 C 285.759 0.905649 6.05363 0
M  V30 2933 N 284.896 0.186055 7.01853 0
M  V30 2934 H 289.736 1.30291 2.68008 0
M  V30 2935 H 287.273 0.65371 1.31776 0
M  V30 2936 H 289.231 -0.724313 4.10864 0
M  V30 2937 H 287.861 -1.10535 3.03285 0
M  V30 2938 H 286.913 1.24885 3.59316 0
M  V30 2939 H 288.225 1.42873 4.779 0
M  V30 2940 H 287.379 -0.56038 6.04106 0
M  V30 2941 H 286.118 -0.832297 4.80546 0
M  V30 2942 H 285.123 1.4161 5.3125 0
M  V30 2943 H 286.348 1.67685 6.58072 0
M  V30 2944 H 284.294 -0.566714 6.53548 0
M  V30 2945 H 284.211 0.863752 7.51049 0
M  V30 2946 H 285.479 -0.292221 7.78952 0
M  V30 2947 N 289.708 -1.40897 0.706093 0
M  V30 2948 C 290.955 -2.01054 0.241531 0
M  V30 2949 C 291.283 -1.55956 -1.16223 0
M  V30 2950 O 290.538 -0.766336 -1.80072 0
M  V30 2951 C 290.837 -3.5646 0.259099 0
M  V30 2952 C 290.503 -4.21106 1.61184 0
M  V30 2953 C 289.165 -4.38479 1.98216 0
M  V30 2954 C 291.517 -4.57256 2.50132 0
M  V30 2955 C 288.845 -4.89282 3.2376 0
M  V30 2956 C 291.197 -5.09454 3.7502 0
M  V30 2957 C 289.861 -5.25037 4.12181 0
M  V30 2958 H 289.131 -0.73571 0.0883825 0
M  V30 2959 H 291.778 -1.68645 0.907257 0
M  V30 2960 H 290.083 -3.88721 -0.490189 0
M  V30 2961 H 291.78 -4.00826 -0.11804 0
M  V30 2962 H 288.37 -4.07966 1.31384 0
M  V30 2963 H 292.554 -4.43479 2.228 0
M  V30 2964 H 287.81 -4.99531 3.52532 0
M  V30 2965 H 291.984 -5.36404 4.44121 0
M  V30 2966 H 289.611 -5.64164 5.09532 0
M  V30 2967 N 291.186 -0.45159 -1.50991 0
M  V30 2968 C 292.118 0.388634 -2.25881 0
M  V30 2969 C 293.131 0.974041 -1.30446 0
M  V30 2970 O 294.32 0.865758 -1.56099 0
M  V30 2971 C 291.42 1.5571 -3.01011 0
M  V30 2972 C 290.593 1.08801 -4.23652 0
M  V30 2973 C 289.652 2.12825 -4.8124 0
M  V30 2974 O 288.678 1.71678 -5.42693 0
M  V30 2975 N 289.88 3.45453 -4.66522 0
M  V30 2976 H 292.645 -0.25329 -2.98628 0
M  V30 2977 H 290.206 -0.281268 -1.59438 0
M  V30 2978 H 292.198 2.24952 -3.3642 0
M  V30 2979 H 290.768 2.10409 -2.31186 0
M  V30 2980 H 289.988 0.22215 -3.93574 0
M  V30 2981 H 291.276 0.752213 -5.03209 0
M  V30 2982 H 290.674 3.81605 -4.17605 0
M  V30 2983 H 289.231 4.10549 -5.06254 0
M  V30 2984 N 292.664 1.56529 -0.183458 0
M  V30 2985 C 293.892 2.01623 0.464285 0
M  V30 2986 C 294.307 1.06366 1.55986 0
M  V30 2987 O 293.664 0.0665398 1.82379 0
M  V30 2988 C 293.715 3.46475 1.03139 0
M  V30 2989 O 293.436 4.38095 -0.0204675 0
M  V30 2990 C 294.937 4.0703 1.75617 0
M  V30 2991 H 292.157 0.660596 0.117704 0
M  V30 2992 H 294.701 2.02451 -0.288751 0
M  V30 2993 H 292.856 3.46383 1.73486 0
M  V30 2994 H 293.27 5.22973 0.399952 0
M  V30 2995 H 294.744 5.10271 2.10542 0
M  V30 2996 H 295.221 3.49819 2.65563 0
M  V30 2997 H 295.827 4.1086 1.09882 0
M  V30 2998 N 294.142 -0.090211 1.57342 0
M  V30 2999 C 295.092 -1.11557 1.98844 0
M  V30 3000 C 296.076 -1.35503 0.867624 0
M  V30 3001 O 297.268 -1.36113 1.13148 0
M  V30 3002 C 294.397 -2.43446 2.42051 0
M  V30 3003 C 293.483 -2.22853 3.60828 0
M  V30 3004 N 293.874 -1.72141 4.75606 0
M  V30 3005 C 292.172 -2.53401 3.67021 0
M  V30 3006 C 292.873 -1.65932 5.57531 0
M  V30 3007 N 291.849 -2.11323 5.00843 0
M  V30 3008 H 295.651 -0.716499 2.85032 0
M  V30 3009 H 293.165 -0.297567 1.59651 0
M  V30 3010 H 295.162 -3.17644 2.70014 0
M  V30 3011 H 293.822 -2.84087 1.57241 0
M  V30 3012 H 294.833 -1.41268 4.98261 0
M  V30 3013 H 291.51 -2.97532 2.92884 0
M  V30 3014 H 292.9 -1.27733 6.59647 0
M  V30 3015 N 295.62 -1.53406 -0.361157 0
M  V30 3016 C 296.867 -1.69802 -1.10333 0
M  V30 3017 C 297.195 -0.452087 -1.89173 0
M  V30 3018 O 296.45 0.566017 -1.87336 0
M  V30 3019 C 296.749 -2.90211 -2.08596 0
M  V30 3020 C 296.415 -4.26539 -1.46203 0
M  V30 3021 C 295.077 -4.6361 -1.28915 0
M  V30 3022 C 297.429 -5.113 -1.01101 0
M  V30 3023 C 294.757 -5.83075 -0.651157 0
M  V30 3024 C 297.109 -6.31415 -0.387007 0
M  V30 3025 C 295.773 -6.67195 -0.201657 0
M  V30 3026 H 295.043 -0.621351 -0.403737 0
M  V30 3027 H 297.69 -1.87598 -0.384609 0
M  V30 3028 H 295.995 -2.66946 -2.86788 0
M  V30 3029 H 297.692 -3.00091 -2.65982 0
M  V30 3030 H 294.282 -3.97352 -1.60653 0
M  V30 3031 H 298.466 -4.83206 -1.13249 0
M  V30 3032 H 293.722 -6.09385 -0.496006 0
M  V30 3033 H 297.896 -6.96394 -0.0293563 0
M  V30 3034 H 295.523 -7.59628 0.294766 0
M  V30 3035 N 297.098 0.621204 -1.44841 0
M  V30 3036 C 298.326 1.40752 -1.51646 0
M  V30 3037 C 298.741 1.88246 -0.144549 0
M  V30 3038 O 298.098 1.61422 0.851416 0
M  V30 3039 C 298.149 2.62119 -2.4895 0
M  V30 3040 O 297.87 2.16602 -3.80808 0
M  V30 3041 C 299.371 3.55135 -2.65319 0
M  V30 3042 H 296.591 0.431325 -0.514004 0
M  V30 3043 H 299.135 0.758835 -1.899 0
M  V30 3044 H 297.29 3.23058 -2.13805 0
M  V30 3045 H 297.704 2.95358 -4.33433 0
M  V30 3046 H 299.178 4.36874 -3.37409 0
M  V30 3047 H 299.655 4.04592 -1.70886 0
M  V30 3048 H 300.261 3.00058 -3.01405 0
M  V30 3049 N 298.576 1.31904 0.862503 0
M  V30 3050 C 299.823 1.22017 1.61611 0
M  V30 3051 C 300.151 -0.21991 1.93253 0
M  V30 3052 O 299.406 -1.17076 1.56817 0
M  V30 3053 C 299.705 2.01713 2.95037 0
M  V30 3054 C 299.371 3.51145 2.82857 0
M  V30 3055 C 298.033 3.91889 2.79243 0
M  V30 3056 C 300.385 4.46204 2.69353 0
M  V30 3057 C 297.713 5.25947 2.59993 0
M  V30 3058 C 300.065 5.80397 2.5164 0
M  V30 3059 C 298.729 6.20352 2.46413 0
M  V30 3060 H 297.999 0.44649 0.591378 0
M  V30 3061 H 300.646 1.63248 1.00111 0
M  V30 3062 H 298.951 1.53185 3.60613 0
M  V30 3063 H 300.648 1.91437 3.52353 0
M  V30 3064 H 297.238 3.1878 2.86491 0
M  V30 3065 H 301.422 4.15652 2.71196 0
M  V30 3066 H 296.678 5.5597 2.54376 0
M  V30 3067 H 300.852 6.53676 2.40169 0
M  V30 3068 H 298.479 7.24172 2.31256 0
M  V30 3069 N 300.054 -1.07777 1.14986 0
M  V30 3070 C 300.964 -2.18404 0.856546 0
M  V30 3071 C 301.98 -1.73211 -0.165485 0
M  V30 3072 O 303.156 -2.01399 0.00755219 0
M  V30 3073 C 300.221 -3.44977 0.34526 0
M  V30 3074 C 299.282 -4.0476 1.43065 0
M  V30 3075 C 298.515 -5.25291 0.943663 0
M  V30 3076 O 298.738 -5.70004 -0.212426 0
M  V30 3077 O 297.672 -5.76638 1.72547 0
M  V30 3078 H 301.498 -2.45978 1.78125 0
M  V30 3079 H 299.083 -1.17033 0.928631 0
M  V30 3080 H 300.965 -4.21348 0.0663671 0
M  V30 3081 H 299.64 -3.18965 -0.551631 0
M  V30 3082 H 298.547 -3.29949 1.76309 0
M  V30 3083 H 299.88 -4.35035 2.30229 0
M  V30 3084 N 301.532 -0.945985 -1.26051 0
M  V30 3085 C 302.442 -0.465633 -2.29933 0
M  V30 3086 C 303.458 0.462761 -1.67733 0
M  V30 3087 O 304.634 0.341118 -1.9849 0
M  V30 3088 C 301.699 0.256994 -3.45746 0
M  V30 3089 C 300.76 -0.708549 -4.23412 0
M  V30 3090 C 299.993 -0.0203135 -5.33696 0
M  V30 3091 O 300.216 1.19571 -5.57726 0
M  V30 3092 O 299.15 -0.701459 -5.97799 0
M  V30 3093 H 302.976 -1.32866 -2.73094 0
M  V30 3094 H 300.561 -0.712071 -1.31339 0
M  V30 3095 H 302.443 0.663852 -4.16138 0
M  V30 3096 H 301.118 1.09533 -3.04605 0
M  V30 3097 H 300.025 -1.16545 -3.55483 0
M  V30 3098 H 301.358 -1.51465 -4.68315 0
M  V30 3099 N 303.011 1.40521 -0.713556 0
M  V30 3100 C 304.258 2.00923 -0.25219 0
M  V30 3101 C 304.586 1.56571 1.15395 0
M  V30 3102 O 303.841 0.775874 1.79663 0
M  V30 3103 C 304.14 3.56317 -0.278 0
M  V30 3104 C 303.806 4.20246 -1.63415 0
M  V30 3105 C 302.468 4.37422 -2.00538 0
M  V30 3106 C 304.82 4.55923 -2.52554 0
M  V30 3107 C 302.148 4.87558 -3.2635 0
M  V30 3108 C 304.5 5.07458 -3.77716 0
M  V30 3109 C 303.164 5.22843 -4.14959 0
M  V30 3110 H 302.434 0.735231 -0.0922829 0
M  V30 3111 H 305.081 1.68161 -0.916188 0
M  V30 3112 H 303.386 3.88976 0.469567 0
M  V30 3113 H 305.083 4.00883 0.0967819 0
M  V30 3114 H 301.673 4.07263 -1.33546 0
M  V30 3115 H 305.857 4.42291 -2.25149 0
M  V30 3116 H 301.113 4.97654 -3.55176 0
M  V30 3117 H 305.287 5.34041 -4.4696 0
M  V30 3118 H 302.914 5.61454 -5.12516 0
M  V30 3119 N 304.489 0.459591 1.5075 0
M  V30 3120 C 305.905 0.113092 1.59199 0
M  V30 3121 C 306.105 -1.37951 1.46874 0
M  V30 3122 O 305.161 -2.15168 1.32132 0
M  V30 3123 C 306.474 0.653043 2.93523 0
M  V30 3124 C 308.022 0.615449 3.0689 0
M  V30 3125 C 308.497 1.13275 4.43771 0
M  V30 3126 N 309.988 1.09167 4.50152 0
M  V30 3127 C 310.723 1.46256 5.54434 0
M  V30 3128 N 310.219 1.90739 6.66026 0
M  V30 3129 N 312.012 1.37932 5.44914 0
M  V30 3130 H 304.163 1.43049 1.57005 0
M  V30 3131 H 306.426 0.590861 0.741341 0
M  V30 3132 H 306.132 1.69822 3.07983 0
M  V30 3133 H 306.006 0.0902132 3.77092 0
M  V30 3134 H 308.393 -0.420793 2.92084 0
M  V30 3135 H 308.474 1.21495 2.25106 0
M  V30 3136 H 308.118 2.16757 4.59324 0
M  V30 3137 H 308.048 0.509576 5.24129 0
M  V30 3138 H 310.539 0.76528 3.7007 0
M  V30 3139 H 310.852 2.17218 7.41644 0
M  V30 3140 H 309.197 1.94683 6.67176 0
M  V30 3141 H 312.388 1.0303 4.56621 0
M  V30 3142 H 312.561 1.67164 6.26067 0
M  V30 3143 N 305.967 -1.56429 0.191757 0
M  V30 3144 C 307.383 -1.58754 -0.164137 0
M  V30 3145 C 307.583 -1.20782 -1.61288 0
M  V30 3146 O 306.639 -0.928999 -2.34789 0
M  V30 3147 C 307.952 -3.00396 0.135195 0
M  V30 3148 C 309.5 -3.1291 0.0750351 0
M  V30 3149 C 309.975 -4.56679 0.347632 0
M  V30 3150 N 311.466 -4.62252 0.296131 0
M  V30 3151 C 312.201 -5.71379 0.480948 0
M  V30 3152 N 311.697 -6.88986 0.725933 0
M  V30 3153 N 313.49 -5.60563 0.415435 0
M  V30 3154 H 305.641 -1.79393 1.13718 0
M  V30 3155 H 307.904 -0.832414 0.453643 0
M  V30 3156 H 307.61 -3.32726 1.13958 0
M  V30 3157 H 307.484 -3.72963 -0.563773 0
M  V30 3158 H 309.871 -2.80394 -0.919948 0
M  V30 3159 H 309.952 -2.42736 0.807029 0
M  V30 3160 H 309.596 -4.89907 1.33992 0
M  V30 3161 H 309.526 -5.25039 -0.405212 0
M  V30 3162 H 312.017 -3.7773 0.113259 0
M  V30 3163 H 312.33 -7.68046 0.855857 0
M  V30 3164 H 310.675 -6.90801 0.762788 0
M  V30 3165 H 313.866 -4.67561 0.224486 0
M  V30 3166 H 314.039 -6.45551 0.562889 0
M  V30 3167 N 307.445 0.0818655 -1.57387 0
M  V30 3168 C 308.67 0.799946 -1.91352 0
M  V30 3169 C 309.095 1.70833 -0.787258 0
M  V30 3170 O 308.453 1.79419 0.26048 0
M  V30 3171 C 308.501 1.57812 -3.24234 0
M  V30 3172 O 307.605 2.68806 -3.12757 0
M  V30 3173 H 306.946 0.21891 -0.626877 0
M  V30 3174 H 309.476 0.0531256 -2.04531 0
M  V30 3175 H 309.486 1.95952 -3.57864 0
M  V30 3176 H 308.161 0.911548 -4.05788 0
M  V30 3177 H 306.738 2.33597 -2.90666 0
M  V30 3178 N 308.923 1.53595 0.353017 0
M  V30 3179 C 310.148 1.7462 1.11904 0
M  V30 3180 C 310.573 0.479721 1.8188 0
M  V30 3181 O 309.931 -0.567066 1.72204 0
M  V30 3182 C 309.979 2.92029 2.11545 0
M  V30 3183 O 309.083 2.61516 3.18878 0
M  V30 3184 H 308.424 0.579531 0.324099 0
M  V30 3185 H 310.954 2.00525 0.406301 0
M  V30 3186 H 310.964 3.18551 2.5493 0
M  V30 3187 H 309.639 3.83888 1.60008 0
M  V30 3188 H 308.216 2.45852 2.80377 0
M  V30 3189 N 310.401 -0.613514 1.45168 0
M  V30 3190 C 311.349 -1.74572 1.53712 0
M  V30 3191 C 312.343 -1.64426 0.407505 0
M  V30 3192 O 313.549 -1.70291 0.583176 0
M  V30 3193 H 309.924 -0.576641 0.48269 0
M  V30 3194 H 311.895 -1.64492 2.48968 0
M  V30 3195 C 310.644 -3.12943 1.51532 0
M  V30 3196 H 309.967 -3.21407 2.37776 0
M  V30 3197 H 311.407 -3.9201 1.61569 0
M  V30 3198 C 309.866 -3.36053 0.238798 0
M  V30 3199 O 310.396 -3.95837 -0.6838 0
M  V30 3200 N 308.602 -2.9028 0.136359 0
M  V30 3201 H 308.149 -2.41811 0.887999 0
M  V30 3202 H 308.107 -3.06116 -0.716944 0
M  V30 3203 N 311.879 -1.3236 -0.855495 0
M  V30 3204 C 313.29 -1.2056 -1.42556 0
M  V30 3205 C 313.641 0.182209 -1.95352 0
M  V30 3206 O 312.766 1.08088 -1.87472 0
M  V30 3207 C 313.361 -2.1826 -2.59129 0
M  V30 3208 C 311.92 -2.10351 -3.12137 0
M  V30 3209 C 311.067 -2.06674 -1.84882 0
M  V30 3210 H 314.018 -1.442 -0.662727 0
M  V30 3211 H 314.039 -1.78064 -3.36264 0
M  V30 3212 H 313.551 -3.19257 -2.20673 0
M  V30 3213 H 311.652 -1.12599 -3.55179 0
M  V30 3214 H 311.765 -3.00135 -3.73438 0
M  V30 3215 H 310.129 -1.51901 -2.04446 0
M  V30 3216 H 310.912 -3.09451 -1.48643 0
M  V30 3217 N 313.357 1.07166 -1.15556 0
M  V30 3218 C 314.287 2.16403 -0.877046 0
M  V30 3219 C 315.268 1.69217 0.173111 0
M  V30 3220 O 316.453 1.94181 0.027084 0
M  V30 3221 C 313.583 3.45349 -0.367632 0
M  V30 3222 C 312.537 4.05995 -1.35468 0
M  V30 3223 C 311.863 5.30045 -0.704038 0
M  V30 3224 C 313.163 4.45804 -2.72132 0
M  V30 3225 H 314.857 2.39959 -1.79053 0
M  V30 3226 H 312.403 1.15325 -0.862331 0
M  V30 3227 H 314.356 4.21095 -0.160317 0
M  V30 3228 H 313.08 3.21385 0.581326 0
M  V30 3229 H 311.739 3.32296 -1.54839 0
M  V30 3230 H 311.387 5.02373 0.251128 0
M  V30 3231 H 311.087 5.71579 -1.36277 0
M  V30 3232 H 312.611 6.08495 -0.50654 0
M  V30 3233 H 314.025 5.12671 -2.56595 0
M  V30 3234 H 312.422 4.98296 -3.34397 0
M  V30 3235 H 313.492 3.57083 -3.28054 0
M  V30 3236 N 314.835 0.952656 1.25548 0
M  V30 3237 C 316.06 0.623025 1.97821 0
M  V30 3238 C 316.485 -0.7976 1.70352 0
M  V30 3239 O 315.843 -1.53905 0.958283 0
M  V30 3240 C 315.891 0.885532 3.49558 0
M  V30 3241 O 314.995 -0.0366641 4.12384 0
M  V30 3242 H 314.336 0.237082 0.620232 0
M  V30 3243 H 316.866 1.27871 1.59719 0
M  V30 3244 H 316.876 0.811009 3.99858 0
M  V30 3245 H 315.551 1.92094 3.6888 0
M  V30 3246 H 314.128 0.0898954 3.72792 0
M  V30 3247 N 316.313 -1.40141 0.720998 0
M  V30 3248 C 317.243 -2.33339 0.0867621 0
M  V30 3249 C 318.224 -1.53178 -0.739622 0
M  V30 3250 O 319.409 -1.81625 -0.687449 0
M  V30 3251 C 316.539 -3.37194 -0.831728 0
M  V30 3252 C 315.493 -4.27857 -0.110558 0
M  V30 3253 C 314.819 -5.22294 -1.14513 0
M  V30 3254 C 316.119 -5.11872 1.0385 0
M  V30 3255 H 317.813 -2.86626 0.865219 0
M  V30 3256 H 315.359 -1.37814 0.417516 0
M  V30 3257 H 317.312 -4.01335 -1.28485 0
M  V30 3258 H 316.036 -2.82314 -1.64214 0
M  V30 3259 H 314.695 -3.65176 0.322797 0
M  V30 3260 H 314.343 -4.63717 -1.94874 0
M  V30 3261 H 314.043 -5.83797 -0.667446 0
M  V30 3262 H 315.567 -5.89312 -1.59824 0
M  V30 3263 H 316.981 -5.69436 0.664482 0
M  V30 3264 H 315.378 -5.82445 1.4449 0
M  V30 3265 H 316.448 -4.4753 1.86668 0
M  V30 3266 N 317.792 -0.46758 -1.50504 0
M  V30 3267 C 318.722 0.318381 -2.31319 0
M  V30 3268 C 319.703 0.993564 -1.38066 0
M  V30 3269 O 320.888 0.991411 -1.66987 0
M  V30 3270 C 318.018 1.40275 -3.17711 0
M  V30 3271 C 316.972 0.849373 -4.19487 0
M  V30 3272 C 316.298 2.03177 -4.94594 0
M  V30 3273 C 317.598 -0.136942 -5.2212 0
M  V30 3274 H 319.292 -0.356106 -2.97275 0
M  V30 3275 H 316.838 -0.172703 -1.42961 0
M  V30 3276 H 318.791 1.96004 -3.73042 0
M  V30 3277 H 317.515 2.10596 -2.49634 0
M  V30 3278 H 316.174 0.314076 -3.65252 0
M  V30 3279 H 315.822 2.72187 -4.22993 0
M  V30 3280 H 315.522 1.66774 -5.63436 0
M  V30 3281 H 317.046 2.59403 -5.52759 0
M  V30 3282 H 318.46 0.331056 -5.72343 0
M  V30 3283 H 316.857 -0.41507 -5.98663 0
M  V30 3284 H 317.927 -1.06398 -4.73083 0
M  V30 3285 N 319.27 1.56325 -0.20005 0
M  V30 3286 C 320.233 2.18084 0.705132 0
M  V30 3287 C 321.233 1.13666 1.1374 0
M  V30 3288 O 322.423 1.39023 1.04968 0
M  V30 3289 C 319.555 2.78689 1.96329 0
M  V30 3290 H 320.748 2.99435 0.167023 0
M  V30 3291 H 318.301 1.56221 0.0495725 0
M  V30 3292 H 319.036 2.0115 2.5438 0
M  V30 3293 H 318.821 3.55133 1.66202 0
M  V30 3294 H 320.311 3.26096 2.60866 0
M  V30 3295 N 320.748 -0.0735177 1.57428 0
M  V30 3296 C 321.973 -0.789787 1.91774 0
M  V30 3297 C 322.398 -1.70413 0.796306 0
M  V30 3298 O 321.756 -1.79555 -0.250961 0
M  V30 3299 C 321.804 -1.5609 3.25067 0
M  V30 3300 O 320.908 -2.67144 3.14178 0
M  V30 3301 H 320.249 -0.215582 0.628029 0
M  V30 3302 H 322.779 -0.0422781 2.04556 0
M  V30 3303 H 322.789 -1.94052 3.58898 0
M  V30 3304 H 321.464 -0.890015 4.06265 0
M  V30 3305 H 320.041 -2.32052 2.91901 0
M  V30 3306 N 322.226 -1.5378 -0.344866 0
M  V30 3307 C 323.472 -1.71216 -1.08687 0
M  V30 3308 C 323.805 -0.473281 -1.88345 0
M  V30 3309 O 323.08 0.52968 -1.87149 0
M  V30 3310 C 323.363 -2.97486 -2.02914 0
M  V30 3311 C 323.216 -4.31579 -1.26727 0
M  V30 3312 C 324.535 -3.19422 -3.0275 0
M  V30 3313 H 321.654 -0.62301 -0.393735 0
M  V30 3314 H 324.296 -1.8645 -0.365563 0
M  V30 3315 H 322.446 -2.84629 -2.64421 0
M  V30 3316 H 324.118 -4.56284 -0.67845 0
M  V30 3317 H 322.361 -4.30049 -0.569273 0
M  V30 3318 H 323.032 -5.16106 -1.95803 0
M  V30 3319 H 325.508 -3.316 -2.51357 0
M  V30 3320 H 324.384 -4.09169 -3.65885 0
M  V30 3321 H 324.645 -2.35656 -3.74057 0
M  V30 3322 N 323.704 0.605807 -1.45491 0
M  V30 3323 C 324.654 1.71074 -1.50724 0
M  V30 3324 C 325.638 1.5658 -0.37033 0
M  V30 3325 O 326.83 1.65887 -0.617299 0
M  V30 3326 C 323.959 3.0983 -1.47852 0
M  V30 3327 C 323.045 3.29704 -2.66751 0
M  V30 3328 N 323.436 3.19831 -3.91844 0
M  V30 3329 C 321.734 3.60579 -2.62486 0
M  V30 3330 C 322.435 3.41083 -4.71208 0
M  V30 3331 N 321.411 3.65157 -4.02693 0
M  V30 3332 H 325.213 1.61937 -2.45263 0
M  V30 3333 H 322.727 0.80912 -1.40808 0
M  V30 3334 H 324.724 3.89101 -1.49686 0
M  V30 3335 H 323.384 3.20115 -0.543714 0
M  V30 3336 H 324.395 2.98194 -4.23439 0
M  V30 3337 H 321.072 3.7769 -1.77922 0
M  V30 3338 H 322.462 3.38828 -5.80211 0
M  V30 3339 N 325.182 1.32811 0.848464 0
M  V30 3340 C 326.114 1.18095 1.96433 0
M  V30 3341 C 327.127 0.114354 1.62398 0
M  V30 3342 O 328.316 0.363892 1.74751 0
M  V30 3343 C 325.416 0.786798 3.2964 0
M  V30 3344 C 324.589 1.943 3.91875 0
M  V30 3345 C 323.648 1.53138 5.03423 0
M  V30 3346 O 322.674 2.24432 5.23086 0
M  V30 3347 N 323.876 0.430915 5.78898 0
M  V30 3348 H 326.641 2.14218 2.09597 0
M  V30 3349 H 324.202 1.2543 1.02367 0
M  V30 3350 H 326.194 0.493715 4.01677 0
M  V30 3351 H 324.764 -0.0834541 3.12489 0
M  V30 3352 H 323.984 2.40224 3.12547 0
M  V30 3353 H 325.272 2.71689 4.30189 0
M  V30 3354 H 324.67 -0.162333 5.65467 0
M  V30 3355 H 323.227 0.197466 6.51501 0
M  V30 3356 N 326.66 -1.06551 1.16123 0
M  V30 3357 C 327.59 -2.15935 0.88851 0
M  V30 3358 C 328.571 -1.69306 -0.164135 0
M  V30 3359 O 329.756 -1.94193 -0.0167857 0
M  V30 3360 C 326.886 -3.45149 0.385942 0
M  V30 3361 C 325.84 -4.05271 1.3762 0
M  V30 3362 C 325.166 -5.29664 0.732137 0
M  V30 3363 C 326.466 -4.44355 2.74493 0
M  V30 3364 H 328.16 -2.39006 1.80323 0
M  V30 3365 H 325.706 -1.14866 0.868435 0
M  V30 3366 H 327.659 -4.21004 0.182647 0
M  V30 3367 H 326.383 -3.21689 -0.564274 0
M  V30 3368 H 325.042 -3.3147 1.56599 0
M  V30 3369 H 324.69 -5.02499 -0.224483 0
M  V30 3370 H 324.39 -5.70848 1.39307 0
M  V30 3371 H 325.914 -6.08218 0.538802 0
M  V30 3372 H 327.328 -5.11303 2.59311 0
M  V30 3373 H 325.725 -4.96515 3.37035 0
M  V30 3374 H 326.795 -3.55339 3.29943 0
M  V30 3375 N 328.138 -0.959301 -1.25041 0
M  V30 3376 C 329.07 -0.440543 -2.24926 0
M  V30 3377 C 330.083 0.446131 -1.56568 0
M  V30 3378 O 331.272 0.253657 -1.76689 0
M  V30 3379 C 328.372 0.38412 -3.36716 0
M  V30 3380 C 327.545 -0.490658 -4.34639 0
M  V30 3381 C 326.604 0.276587 -5.25473 0
M  V30 3382 O 325.63 -0.326614 -5.68262 0
M  V30 3383 N 326.832 1.56844 -5.5891 0
M  V30 3384 H 329.597 -1.29931 -2.70071 0
M  V30 3385 H 327.158 -0.830181 -1.38995 0
M  V30 3386 H 329.15 0.905228 -3.94446 0
M  V30 3387 H 327.72 1.14377 -2.90924 0
M  V30 3388 H 326.94 -1.19282 -3.7572 0
M  V30 3389 H 328.228 -1.08756 -4.97041 0
M  V30 3390 H 327.626 2.08036 -5.26059 0
M  V30 3391 H 326.183 2.03541 -6.19205 0
M  V30 3392 N 329.616 1.39756 -0.72842 0
M  V30 3393 C 330.864 2.00248 -0.272946 0
M  V30 3394 C 331.185 1.58077 1.14178 0
M  V30 3395 O 330.455 0.826014 1.77634 0
M  V30 3396 H 329.035 0.740554 -0.0979247 0
M  V30 3397 H 331.697 1.70903 -0.936912 0
M  V30 3398 H 330.793 3.10495 -0.316142 0
M  V30 3399 N 331.094 0.475555 1.50254 0
M  V30 3400 C 332.341 -0.0778919 2.0235 0
M  V30 3401 C 332.669 -1.39319 1.35722 0
M  V30 3402 O 331.924 -1.89888 0.473395 0
M  V30 3403 C 332.223 -0.305114 3.56095 0
M  V30 3404 C 331.889 0.92903 4.41225 0
M  V30 3405 C 330.551 1.26739 4.6421 0
M  V30 3406 C 332.903 1.75054 4.90923 0
M  V30 3407 C 330.231 2.42724 5.34137 0
M  V30 3408 C 332.583 2.9017 5.62125 0
M  V30 3409 C 331.247 3.24416 5.83362 0
M  V30 3410 H 330.517 -0.0285027 0.740452 0
M  V30 3411 H 333.164 0.630543 1.80821 0
M  V30 3412 H 331.469 -1.09584 3.76163 0
M  V30 3413 H 333.166 -0.747377 3.93974 0
M  V30 3414 H 329.756 0.655428 4.23559 0
M  V30 3415 H 333.94 1.50231 4.73016 0
M  V30 3416 H 329.196 2.69525 5.48786 0
M  V30 3417 H 333.37 3.54169 5.99614 0
M  V30 3418 H 330.997 4.14396 6.37323 0
M  V30 3419 N 332.573 -1.56217 0.208337 0
M  V30 3420 C 333.801 -2.02337 -0.43215 0
M  V30 3421 C 334.216 -1.08834 -1.54275 0
M  V30 3422 O 333.573 -0.0955462 -1.8225 0
M  V30 3423 C 333.624 -3.48072 -0.976138 0
M  V30 3424 O 333.345 -4.38007 0.0901621 0
M  V30 3425 C 334.846 -4.09773 -1.69119 0
M  V30 3426 H 332.066 -0.662385 -0.10718 0
M  V30 3427 H 334.61 -2.01966 0.320923 0
M  V30 3428 H 332.765 -3.49099 -1.67954 0
M  V30 3429 H 333.179 -5.23543 -0.316701 0
M  V30 3430 H 334.653 -5.13556 -2.02397 0
M  V30 3431 H 335.13 -3.53999 -2.59964 0
M  V30 3432 H 335.736 -4.12556 -1.03332 0
M  V30 3433 N 334.051 0.0651679 -1.57465 0
M  V30 3434 C 335.281 0.774683 -1.91526 0
M  V30 3435 C 335.689 1.71305 -0.803196 0
M  V30 3436 O 335.032 1.82231 0.231881 0
M  V30 3437 C 335.094 1.61645 -3.21109 0
M  V30 3438 C 334.758 0.846753 -4.49087 0
M  V30 3439 C 335.755 0.163024 -5.19644 0
M  V30 3440 C 333.44 0.811966 -4.95694 0
M  V30 3441 C 335.434 -0.54519 -6.35064 0
M  V30 3442 C 333.121 0.0999836 -6.11018 0
M  V30 3443 C 334.119 -0.577388 -6.80555 0
M  V30 3444 O 333.807 -1.27789 -7.93678 0
M  V30 3445 H 333.539 0.225031 -0.637446 0
M  V30 3446 H 336.093 0.0377134 -2.05365 0
M  V30 3447 H 334.323 2.39638 -3.03497 0
M  V30 3448 H 336.012 2.20525 -3.40769 0
M  V30 3449 H 336.778 0.181163 -4.84662 0
M  V30 3450 H 332.657 1.32867 -4.41438 0
M  V30 3451 H 336.201 -1.07446 -6.89276 0
M  V30 3452 H 332.098 0.0797945 -6.45451 0
M  V30 3453 H 332.866 -1.18784 -8.09835 0
M  V30 3454 N 335.529 1.53961 0.336706 0
M  V30 3455 C 336.757 1.75483 1.09605 0
M  V30 3456 C 337.172 0.4972 1.82136 0
M  V30 3457 O 336.529 -0.53149 1.74589 0
M  V30 3458 C 336.58 2.93943 2.10428 0
M  V30 3459 O 336.301 4.14842 1.40846 0
M  V30 3460 C 337.802 3.27571 2.98684 0
M  V30 3461 H 335.022 0.586166 0.326574 0
M  V30 3462 H 337.566 2.00808 0.38683 0
M  V30 3463 H 335.721 2.70929 2.76905 0
M  V30 3464 H 336.135 4.81383 2.08255 0
M  V30 3465 H 337.609 4.13791 3.6535 0
M  V30 3466 H 338.086 2.44168 3.65074 0
M  V30 3467 H 338.692 3.52615 2.37787 0
M  V30 3468 N 337.007 -0.598083 1.45811 0
M  V30 3469 C 337.97 -1.69018 1.54808 0
M  V30 3470 C 338.97 -1.55037 0.426652 0
M  V30 3471 O 340.16 -1.59932 0.690456 0
M  V30 3472 C 337.292 -3.0835 1.45371 0
M  V30 3473 H 338.485 -1.62403 2.52121 0
M  V30 3474 H 336.038 -0.814626 1.33392 0
M  V30 3475 H 336.773 -3.20534 0.492793 0
M  V30 3476 H 336.558 -3.19907 2.26721 0
M  V30 3477 H 338.048 -3.8788 1.54721 0
M  V30 3478 N 338.485 -1.33259 -0.841409 0
M  V30 3479 C 339.713 -1.27605 -1.62864 0
M  V30 3480 C 340.128 0.153507 -1.88175 0
M  V30 3481 O 339.485 1.09485 -1.46011 0
M  V30 3482 C 339.536 -2.04596 -2.98031 0
M  V30 3483 O 339.257 -3.41975 -2.73834 0
M  V30 3484 C 340.758 -2.06122 -3.92465 0
M  V30 3485 H 337.978 -0.439718 -0.506842 0
M  V30 3486 H 340.522 -1.75591 -1.04824 0
M  V30 3487 H 338.677 -1.60299 -3.5268 0
M  V30 3488 H 339.091 -3.81549 -3.59889 0
M  V30 3489 H 340.565 -2.64451 -4.84531 0
M  V30 3490 H 341.042 -1.05083 -4.26444 0
M  V30 3491 H 341.648 -2.50427 -3.43753 0
M  V30 3492 N 339.963 1.05934 -1.16686 0
M  V30 3493 C 340.926 2.11669 -0.879144 0
M  V30 3494 C 341.926 1.60294 0.127445 0
M  V30 3495 O 343.116 1.7389 -0.103865 0
M  V30 3496 C 340.248 3.39438 -0.315425 0
M  V30 3497 H 341.441 2.38626 -1.81653 0
M  V30 3498 H 338.994 1.22058 -0.976299 0
M  V30 3499 H 339.729 3.18132 0.629468 0
M  V30 3500 H 339.514 3.78034 -1.04079 0
M  V30 3501 H 341.004 4.17391 -0.132189 0
M  V30 3502 N 341.441 0.965919 1.2453 0
M  V30 3503 C 342.69 0.622437 1.91856 0
M  V30 3504 C 343.003 -0.846006 1.76358 0
M  V30 3505 O 344.209 -1.29993 2.38357 0
M  V30 3506 C 342.665 1.0626 3.43856 0
M  V30 3507 C 342.273 2.55437 3.68043 0
M  V30 3508 C 344.017 0.792183 4.17043 0
M  V30 3509 C 341.924 2.93196 5.13605 0
M  V30 3510 H 340.854 0.229092 0.718354 0
M  V30 3511 H 343.505 1.17189 1.41206 0
M  V30 3512 H 341.887 0.441476 3.93531 0
M  V30 3513 H 343.061 3.22665 3.28974 0
M  V30 3514 H 341.376 2.8007 3.08139 0
M  V30 3515 H 343.973 1.05031 5.24283 0
M  V30 3516 H 344.316 -0.271584 4.15413 0
M  V30 3517 H 344.849 1.37419 3.73311 0
M  V30 3518 H 341.588 3.98636 5.20355 0
M  V30 3519 H 341.108 2.30651 5.53679 0
M  V30 3520 H 342.787 2.83004 5.81823 0
M  V30 3521 N 342.919 -1.39368 0.735821 0
M  V30 3522 C 343.851 -2.2913 0.0567723 0
M  V30 3523 C 344.864 -1.46859 -0.702589 0
M  V30 3524 O 346.053 -1.69925 -0.546616 0
M  V30 3525 C 343.153 -3.25492 -0.943823 0
M  V30 3526 C 342.326 -4.36709 -0.24581 0
M  V30 3527 C 341.385 -5.13376 -1.15463 0
M  V30 3528 O 340.411 -5.65683 -0.631803 0
M  V30 3529 N 341.613 -5.24656 -2.48427 0
M  V30 3530 H 344.378 -2.88047 0.827582 0
M  V30 3531 H 341.939 -1.50957 0.585112 0
M  V30 3532 H 343.931 -3.73657 -1.55443 0
M  V30 3533 H 342.501 -2.676 -1.61583 0
M  V30 3534 H 341.721 -3.9041 0.545286 0
M  V30 3535 H 343.009 -5.08244 0.237891 0
M  V30 3536 H 342.407 -4.83679 -2.93379 0
M  V30 3537 H 340.964 -5.76258 -3.04582 0
M  V30 3538 N 344.397 -0.483516 -1.5 0
M  V30 3539 C 345.345 0.318061 -2.30415 0
M  V30 3540 C 346.339 0.978988 -1.38247 0
M  V30 3541 O 347.545 0.908673 -1.55381 0
M  V30 3542 H 343.92 0.121419 -0.742133 0
M  V30 3543 H 345.891 -0.380403 -2.95965 0
M  V30 3544 C 344.64 1.38013 -3.19136 0
M  V30 3545 H 343.963 0.880952 -3.89973 0
M  V30 3546 H 345.403 1.91332 -3.78375 0
M  V30 3547 C 343.862 2.38884 -2.37563 0
M  V30 3548 O 344.392 3.44412 -2.06744 0
M  V30 3549 N 342.598 2.10912 -1.99911 0
M  V30 3550 H 342.145 1.25118 -2.25174 0
M  V30 3551 H 342.103 2.78635 -1.45636 0
M  V30 3552 N 345.875 1.56104 -0.216619 0
M  V30 3553 C 347.121 1.98466 0.417033 0
M  V30 3554 C 347.454 1.10403 1.59765 0
M  V30 3555 O 346.729 0.160632 1.93836 0
M  V30 3556 C 347.012 3.49769 0.85637 0
M  V30 3557 C 346.865 4.48606 -0.327546 0
M  V30 3558 C 348.184 4.05339 1.7143 0
M  V30 3559 H 345.303 0.721551 0.150112 0
M  V30 3560 H 347.945 1.87423 -0.311864 0
M  V30 3561 H 346.095 3.5931 1.47745 0
M  V30 3562 H 347.767 4.5108 -0.965618 0
M  V30 3563 H 346.01 4.22682 -0.975805 0
M  V30 3564 H 346.681 5.51995 0.0227149 0
M  V30 3565 H 349.157 3.98712 1.19031 0
M  V30 3566 H 348.033 5.11533 1.99061 0
M  V30 3567 H 348.294 3.51918 2.67593 0
M  V30 3568 N 347.353 -0.0568162 1.57498 0
M  V30 3569 C 348.599 -0.75422 1.88253 0
M  V30 3570 C 348.932 -1.76461 0.810865 0
M  V30 3571 O 348.207 -1.93691 -0.177259 0
M  V30 3572 C 348.49 -1.44878 3.2967 0
M  V30 3573 C 348.343 -0.453789 4.47505 0
M  V30 3574 C 349.662 -2.38994 3.69554 0
M  V30 3575 H 346.781 -0.272724 0.684683 0
M  V30 3576 H 349.423 -0.0172113 1.89992 0
M  V30 3577 H 347.573 -2.077 3.28318 0
M  V30 3578 H 349.245 0.170371 4.60985 0
M  V30 3579 H 347.488 0.229552 4.33192 0
M  V30 3580 H 348.159 -0.977699 5.43273 0
M  V30 3581 H 350.635 -1.86239 3.72095 0
M  V30 3582 H 349.511 -2.84587 4.69363 0
M  V30 3583 H 349.772 -3.24461 3.00296 0
M  V30 3584 N 348.832 -1.54138 -0.328536 0
M  V30 3585 C 349.782 -1.79557 -1.4051 0
M  V30 3586 C 350.766 -0.651373 -1.47126 0
M  V30 3587 O 351.958 -0.911226 -1.51742 0
M  V30 3588 C 349.087 -2.02196 -2.77438 0
M  V30 3589 C 348.173 -3.22724 -2.75155 0
M  V30 3590 N 348.564 -4.43881 -2.42494 0
M  V30 3591 C 346.862 -3.24196 -3.06289 0
M  V30 3592 C 347.563 -5.25797 -2.48822 0
M  V30 3593 N 346.539 -4.62862 -2.8506 0
M  V30 3594 H 350.341 -2.70814 -1.1418 0
M  V30 3595 H 347.855 -1.53265 -0.536991 0
M  V30 3596 H 349.852 -2.18546 -3.55026 0
M  V30 3597 H 348.512 -1.12191 -3.04702 0
M  V30 3598 H 349.523 -4.70969 -2.15428 0
M  V30 3599 H 346.2 -2.44208 -3.38627 0
M  V30 3600 H 347.59 -6.32535 -2.26603 0
M  V30 3601 N 350.31 0.590341 -1.46126 0
M  V30 3602 C 351.726 0.912917 -1.30912 0
M  V30 3603 C 351.926 1.99616 -0.274893 0
M  V30 3604 O 350.982 2.50397 0.325197 0
M  V30 3605 C 352.295 1.3375 -2.69317 0
M  V30 3606 C 353.843 1.45077 -2.77348 0
M  V30 3607 C 354.318 1.90904 -4.16317 0
M  V30 3608 N 355.809 1.9811 -4.18696 0
M  V30 3609 C 356.544 2.34828 -5.23109 0
M  V30 3610 N 356.04 2.70393 -6.37856 0
M  V30 3611 N 357.833 2.35317 -5.10473 0
M  V30 3612 H 349.984 -0.125358 -2.1203 0
M  V30 3613 H 352.247 0.00658481 -0.947977 0
M  V30 3614 H 351.953 0.615614 -3.4627 0
M  V30 3615 H 351.827 2.30058 -2.9892 0
M  V30 3616 H 354.214 2.16353 -2.00687 0
M  V30 3617 H 354.295 0.4704 -2.51438 0
M  V30 3618 H 353.939 1.20209 -4.9347 0
M  V30 3619 H 353.869 2.89886 -4.39629 0
M  V30 3620 H 356.36 1.73146 -3.359 0
M  V30 3621 H 356.673 2.97341 -7.13308 0
M  V30 3622 H 355.018 2.68048 -6.41229 0
M  V30 3623 H 358.209 2.0695 -4.19868 0
M  V30 3624 H 358.382 2.63605 -5.9196 0
M  V30 3625 N 351.788 1.33704 0.83433 0
M  V30 3626 C 352.718 1.26967 1.95963 0
M  V30 3627 C 353.699 0.149337 1.69443 0
M  V30 3628 O 354.884 0.339852 1.91203 0
M  V30 3629 C 352.014 1.01275 3.32206 0
M  V30 3630 C 350.968 2.09652 3.73136 0
M  V30 3631 C 350.294 1.69166 5.07235 0
M  V30 3632 C 351.594 3.51372 3.86439 0
M  V30 3633 H 353.288 2.2112 2.01857 0
M  V30 3634 H 350.834 1.06447 0.969793 0
M  V30 3635 H 352.787 0.952106 4.10503 0
M  V30 3636 H 351.511 0.0356203 3.26581 0
M  V30 3637 H 350.17 2.14766 2.97104 0
M  V30 3638 H 349.818 0.701437 4.98085 0
M  V30 3639 H 349.518 2.41694 5.35591 0
M  V30 3640 H 351.042 1.64576 5.88003 0
M  V30 3641 H 352.456 3.48734 4.55036 0
M  V30 3642 H 350.853 4.22425 4.26236 0
M  V30 3643 H 351.923 3.89546 2.88759 0
M  V30 3644 N 353.266 -1.05314 1.17247 0
M  V30 3645 C 354.513 -1.78293 0.960091 0
M  V30 3646 C 354.841 -1.87658 -0.51136 0
M  V30 3647 O 354.096 -1.3718 -1.39571 0
M  V30 3648 C 354.395 -3.2229 1.54479 0
M  V30 3649 C 354.061 -3.32987 3.04024 0
M  V30 3650 C 352.723 -3.35613 3.44844 0
M  V30 3651 C 355.075 -3.34102 4.00031 0
M  V30 3652 C 352.403 -3.36982 4.8027 0
M  V30 3653 C 354.755 -3.3701 5.35357 0
M  V30 3654 C 353.419 -3.37923 5.75642 0
M  V30 3655 H 352.689 -0.652422 0.351322 0
M  V30 3656 H 355.336 -1.23782 1.46117 0
M  V30 3657 H 353.641 -3.7972 0.965391 0
M  V30 3658 H 355.338 -3.77376 1.35603 0
M  V30 3659 H 351.928 -3.31655 2.71483 0
M  V30 3660 H 356.112 -3.31276 3.69554 0
M  V30 3661 H 351.368 -3.35999 5.10798 0
M  V30 3662 H 355.542 -3.36822 6.09528 0
M  V30 3663 H 353.169 -3.38738 6.80559 0
M  V30 3664 N 354.744 -0.972509 -1.24016 0
M  V30 3665 C 355.694 -0.477561 -2.22942 0
M  V30 3666 C 356.678 0.44308 -1.54679 0
M  V30 3667 O 357.87 0.273219 -1.74879 0
M  V30 3668 C 354.999 0.226348 -3.42553 0
M  V30 3669 C 354.085 -0.713403 -4.18057 0
M  V30 3670 N 354.476 -1.8527 -4.70647 0
M  V30 3671 C 352.774 -0.525145 -4.42898 0
M  V30 3672 C 353.475 -2.44089 -5.28011 0
M  V30 3673 N 352.451 -1.72556 -5.15486 0
M  V30 3674 H 356.253 -1.34678 -2.61226 0
M  V30 3675 H 353.767 -0.832196 -1.39457 0
M  V30 3676 H 355.764 0.598184 -4.12586 0
M  V30 3677 H 354.424 1.09195 -3.05788 0
M  V30 3678 H 355.435 -2.2341 -4.67235 0
M  V30 3679 H 352.112 0.296096 -4.16449 0
M  V30 3680 H 353.502 -3.40259 -5.79374 0
M  V30 3681 N 356.222 1.38976 -0.743202 0
M  V30 3682 C 357.185 2.28901 -0.117014 0
M  V30 3683 C 358.185 1.46698 0.658503 0
M  V30 3684 O 359.375 1.67274 0.486305 0
M  V30 3685 C 356.507 3.30309 0.84315 0
M  V30 3686 H 357.7 2.8578 -0.909373 0
M  V30 3687 H 355.253 1.47761 -0.509547 0
M  V30 3688 H 355.988 2.785 1.66157 0
M  V30 3689 H 355.773 3.91029 0.289594 0
M  V30 3690 H 357.263 3.97577 1.2776 0
M  V30 3691 N 357.7 0.491464 1.49741 0
M  V30 3692 C 358.925 -0.0557177 2.07325 0
M  V30 3693 C 359.35 -1.30925 1.35056 0
M  V30 3694 O 358.708 -1.76733 0.404365 0
M  V30 3695 C 358.756 -0.302074 3.59333 0
M  V30 3696 O 357.86 -1.37868 3.88672 0
M  V30 3697 H 357.201 0.0219956 0.663636 0
M  V30 3698 H 359.731 0.688352 1.92673 0
M  V30 3699 H 359.741 -0.536464 4.04458 0
M  V30 3700 H 358.416 0.61383 4.11345 0
M  V30 3701 H 356.993 -1.12999 3.55367 0
M  V30 3702 N 359.178 -1.55987 0.224894 0
M  V30 3703 C 360.408 -2.02489 -0.41007 0
M  V30 3704 C 360.816 -1.10391 -1.53657 0
M  V30 3705 O 360.159 -0.106458 -1.83391 0
M  V30 3706 C 360.221 -3.45319 -0.999757 0
M  V30 3707 C 359.885 -4.56999 -0.00827976 0
M  V30 3708 C 360.882 -5.13812 0.793314 0
M  V30 3709 C 358.567 -5.02176 0.111442 0
M  V30 3710 C 360.561 -6.14276 1.7013 0
M  V30 3711 C 358.248 -6.02477 1.02296 0
M  V30 3712 C 359.246 -6.58403 1.81643 0
M  V30 3713 O 358.934 -7.56751 2.71262 0
M  V30 3714 H 358.666 -0.667915 -0.104235 0
M  V30 3715 H 361.22 -2.0257 0.339782 0
M  V30 3716 H 359.45 -3.42318 -1.79876 0
M  V30 3717 H 361.139 -3.7545 -1.54248 0
M  V30 3718 H 361.905 -4.79756 0.711288 0
M  V30 3719 H 357.784 -4.58323 -0.49605 0
M  V30 3720 H 361.328 -6.57854 2.32107 0
M  V30 3721 H 357.225 -6.35954 1.10599 0
M  V30 3722 H 357.993 -7.74286 2.65375 0
M  V30 3723 N 360.656 0.0484629 -1.57525 0
M  V30 3724 C 361.904 0.741657 -1.88 0
M  V30 3725 C 362.225 1.76918 -0.820054 0
M  V30 3726 O 361.495 1.95335 0.148661 0
M  V30 3727 H 360.075 0.276908 -0.69378 0
M  V30 3728 H 362.737 0.019013 -1.94891 0
M  V30 3729 H 361.833 1.24336 -2.86264 0
M  V30 3730 N 362.134 1.5431 0.320358 0
M  V30 3731 C 363.097 1.83195 1.3774 0
M  V30 3732 C 364.097 0.703906 1.44575 0
M  V30 3733 O 365.287 0.972214 1.44546 0
M  V30 3734 C 362.419 1.99487 2.76438 0
M  V30 3735 H 363.612 2.77642 1.1338 0
M  V30 3736 H 361.165 1.46076 0.556012 0
M  V30 3737 H 361.9 1.07262 3.06048 0
M  V30 3738 H 361.685 2.81575 2.7287 0
M  V30 3739 H 363.175 2.23271 3.52902 0
M  V30 3740 N 363.613 -0.582584 1.46437 0
M  V30 3741 C 365.029 -0.905962 1.31394 0
M  V30 3742 C 365.229 -1.99468 0.285476 0
M  V30 3743 O 364.285 -2.50566 -0.311914 0
M  V30 3744 C 365.598 -1.3232 2.70022 0
M  V30 3745 C 367.146 -1.43604 2.78113 0
M  V30 3746 C 367.621 -1.88694 4.17323 0
M  V30 3747 N 369.112 -1.95887 4.19741 0
M  V30 3748 C 369.847 -2.32051 5.24347 0
M  V30 3749 N 369.343 -2.67006 6.39281 0
M  V30 3750 N 371.136 -2.32606 5.11713 0
M  V30 3751 H 363.287 0.1366 2.1196 0
M  V30 3752 H 365.55 -0.00155736 0.947999 0
M  V30 3753 H 365.256 -0.597242 3.46592 0
M  V30 3754 H 365.13 -2.28469 3.00136 0
M  V30 3755 H 367.517 -2.15286 2.01832 0
M  V30 3756 H 367.598 -0.457059 2.51684 0
M  V30 3757 H 367.242 -1.1759 4.941 0
M  V30 3758 H 367.172 -2.8755 4.4116 0
M  V30 3759 H 369.663 -1.71362 3.36814 0
M  V30 3760 H 369.976 -2.93554 7.14875 0
M  V30 3761 H 368.321 -2.64644 6.42642 0
M  V30 3762 H 371.512 -2.04721 4.2096 0
M  V30 3763 H 371.685 -2.60462 5.93349 0
M  V30 3764 N 365.091 -1.34144 -0.827227 0
M  V30 3765 C 366.507 -1.13732 -1.11969 0
M  V30 3766 C 366.707 0.0640463 -2.01398 0
M  V30 3767 O 365.763 0.740856 -2.41387 0
M  V30 3768 C 367.076 -2.43047 -1.77055 0
M  V30 3769 C 368.624 -2.49063 -1.89569 0
M  V30 3770 C 369.099 -3.78369 -2.58072 0
M  V30 3771 N 370.59 -3.79505 -2.65575 0
M  V30 3772 C 371.325 -4.76274 -3.19297 0
M  V30 3773 N 370.821 -5.83424 -3.73616 0
M  V30 3774 N 372.614 -4.63735 -3.17658 0
M  V30 3775 H 364.765 -2.11126 -0.232296 0
M  V30 3776 H 367.028 -0.933424 -0.165602 0
M  V30 3777 H 366.734 -3.31025 -1.18807 0
M  V30 3778 H 366.608 -2.56066 -2.76966 0
M  V30 3779 H 368.995 -1.61527 -2.46968 0
M  V30 3780 H 369.076 -2.39975 -0.885745 0
M  V30 3781 H 368.72 -4.66293 -2.01329 0
M  V30 3782 H 368.65 -3.84737 -3.59562 0
M  V30 3783 H 371.141 -3.02074 -2.27068 0
M  V30 3784 H 371.454 -6.53282 -4.12846 0
M  V30 3785 H 369.799 -5.87143 -3.71871 0
M  V30 3786 H 372.99 -3.79177 -2.74486 0
M  V30 3787 H 373.163 -5.39318 -3.59221 0
M  V30 3788 N 366.569 1.04691 -1.17803 0
M  V30 3789 C 367.846 1.7472 -0.879328 0
M  V30 3790 C 368.226 2.01812 0.619271 0
M  V30 3791 O 367.574 1.65824 1.57209 0
M  V30 3792 C 367.784 3.03686 -1.71976 0
M  V30 3793 C 369.132 3.77542 -1.94286 0
M  V30 3794 O 370.156 3.13569 -1.68976 0
M  V30 3795 O 369.015 4.92506 -2.36855 0
M  V30 3796 H 366.109 0.760011 -0.326056 0
M  V30 3797 H 368.655 1.10813 -1.28525 0
M  V30 3798 H 367.427 2.79754 -2.73594 0
M  V30 3799 H 367.05 3.75332 -1.31194 0
M  V30 3800 N 368.047 0.979072 1.23499 0
M  V30 3801 C 369.01 0.523244 2.23147 0
M  V30 3802 C 370.01 -0.386406 1.56088 0
M  V30 3803 O 371.2 -0.180283 1.73265 0
M  V30 3804 C 368.332 -0.240739 3.40049 0
M  V30 3805 H 369.525 1.40432 2.64989 0
M  V30 3806 H 367.078 0.764824 1.36309 0
M  V30 3807 H 367.813 -1.13841 3.03662 0
M  V30 3808 H 367.598 0.412207 3.89927 0
M  V30 3809 H 369.088 -0.548297 4.13985 0
M  V30 3810 N 369.525 -1.3858 0.750561 0
M  V30 3811 C 370.488 -2.28836 0.129152 0
M  V30 3812 C 371.488 -1.47045 -0.650714 0
M  V30 3813 O 372.678 -1.6753 -0.477428 0
M  V30 3814 C 369.81 -3.30751 -0.825622 0
M  V30 3815 H 371.003 -2.85294 0.924516 0
M  V30 3816 H 368.556 -1.47489 0.517376 0
M  V30 3817 H 369.291 -2.79378 -1.64677 0
M  V30 3818 H 369.076 -3.91177 -0.268852 0
M  V30 3819 H 370.566 -3.98249 -1.2565 0
M  V30 3820 N 371.003 -0.499398 -1.49478 0
M  V30 3821 C 371.95 0.279881 -2.29097 0
M  V30 3822 C 372.92 0.961805 -1.3542 0
M  V30 3823 O 374.105 0.968777 -1.64376 0
M  V30 3824 C 371.245 1.33932 -3.18051 0
M  V30 3825 C 370.358 0.669333 -4.26783 0
M  V30 3826 C 369.493 1.70907 -5.02955 0
M  V30 3827 C 368.532 1.02087 -6.03527 0
M  V30 3828 N 367.669 2.00474 -6.7287 0
M  V30 3829 H 372.509 -0.405317 -2.95231 0
M  V30 3830 H 370.046 -0.211726 -1.45568 0
M  V30 3831 H 372.004 1.96553 -3.67998 0
M  V30 3832 H 370.634 1.9933 -2.53904 0
M  V30 3833 H 369.686 -0.0701234 -3.80335 0
M  V30 3834 H 370.998 0.127503 -4.98637 0
M  V30 3835 H 370.152 2.41037 -5.56764 0
M  V30 3836 H 368.891 2.28476 -4.30871 0
M  V30 3837 H 367.896 0.305338 -5.48951 0
M  V30 3838 H 369.121 0.451708 -6.77596 0
M  V30 3839 H 367.067 2.57007 -6.03559 0
M  V30 3840 H 366.984 1.51353 -7.40694 0
M  V30 3841 H 368.252 2.69897 -7.31284 0
M  V30 3842 N 372.481 1.55866 -0.233164 0
M  V30 3843 C 373.73 1.97779 0.39579 0
M  V30 3844 C 374.043 1.12419 1.60066 0
M  V30 3845 O 375.249 1.44283 2.29988 0
M  V30 3846 C 373.705 3.5188 0.755556 0
M  V30 3847 C 373.313 4.45959 -0.427152 0
M  V30 3848 C 375.057 4.02479 1.34946 0
M  V30 3849 C 372.964 5.91383 -0.0443043 0
M  V30 3850 H 371.894 0.738592 0.15165 0
M  V30 3851 H 374.545 1.80486 -0.331212 0
M  V30 3852 H 372.927 3.64816 1.5403 0
M  V30 3853 H 374.101 4.44776 -1.20462 0
M  V30 3854 H 372.416 4.05765 -0.935068 0
M  V30 3855 H 375.013 5.08637 1.649 0
M  V30 3856 H 375.356 3.49014 2.26925 0
M  V30 3857 H 375.889 3.92813 0.62791 0
M  V30 3858 H 372.628 6.48857 -0.930874 0
M  V30 3859 H 372.148 5.95734 0.697238 0
M  V30 3860 H 373.827 6.45893 0.378334 0
M  V30 3861 N 373.959 -0.0401083 1.57549 0
M  V30 3862 C 374.889 -1.04384 2.08869 0
M  V30 3863 C 375.87 -1.38407 0.988817 0
M  V30 3864 O 377.055 -1.47483 1.26342 0
M  V30 3865 C 374.185 -2.34808 2.55895 0
M  V30 3866 C 373.139 -2.15057 3.70047 0
M  V30 3867 C 372.465 -3.51145 4.03239 0
M  V30 3868 C 373.765 -1.54576 4.98902 0
M  V30 3869 H 375.459 -0.616666 2.92981 0
M  V30 3870 H 373.005 -0.295184 1.40942 0
M  V30 3871 H 374.958 -3.05346 2.90417 0
M  V30 3872 H 373.682 -2.79565 1.68853 0
M  V30 3873 H 372.341 -1.46954 3.35857 0
M  V30 3874 H 371.989 -3.93529 3.13279 0
M  V30 3875 H 371.689 -3.38758 4.80122 0
M  V30 3876 H 373.213 -4.23062 4.40285 0
M  V30 3877 H 374.627 -2.15017 5.31451 0
M  V30 3878 H 373.024 -1.52796 5.80322 0
M  V30 3879 H 374.094 -0.51039 4.82206 0
M  V30 3880 N 375.437 -1.54477 -0.31217 0
M  V30 3881 C 376.686 -1.72438 -1.04633 0
M  V30 3882 C 376.999 -0.511163 -1.88803 0
M  V30 3883 O 378.205 -0.572341 -2.65399 0
M  V30 3884 C 376.661 -3.05043 -1.9099 0
M  V30 3885 C 376.269 -4.33806 -1.11877 0
M  V30 3886 C 378.013 -3.32364 -2.64073 0
M  V30 3887 C 375.92 -5.57467 -1.97445 0
M  V30 3888 H 374.85 -0.642647 -0.394361 0
M  V30 3889 H 377.501 -1.80966 -0.303929 0
M  V30 3890 H 375.883 -2.90451 -2.69173 0
M  V30 3891 H 377.057 -4.59199 -0.383843 0
M  V30 3892 H 375.372 -4.13336 -0.504252 0
M  V30 3893 H 377.969 -4.21951 -3.28423 0
M  V30 3894 H 378.312 -2.50745 -3.32314 0
M  V30 3895 H 378.845 -3.47875 -1.92944 0
M  V30 3896 H 375.584 -6.41722 -1.33692 0
M  V30 3897 H 375.104 -5.36277 -2.6864 0
M  V30 3898 H 376.783 -5.94303 -2.5576 0
M  V30 3899 N 376.915 0.57481 -1.46744 0
M  V30 3900 C 378.161 1.3347 -1.52688 0
M  V30 3901 C 378.494 1.93353 -0.181229 0
M  V30 3902 O 377.769 1.76912 0.808237 0
M  V30 3903 C 378.052 2.45811 -2.63152 0
M  V30 3904 C 377.905 1.90912 -4.07275 0
M  V30 3905 C 379.224 3.47822 -2.69644 0
M  V30 3906 H 376.343 0.483935 -0.555856 0
M  V30 3907 H 378.985 0.644968 -1.78718 0
M  V30 3908 H 377.135 3.04646 -2.41088 0
M  V30 3909 H 378.807 1.36473 -4.4065 0
M  V30 3910 H 377.05 1.21691 -4.16382 0
M  V30 3911 H 377.721 2.72042 -4.80309 0
M  V30 3912 H 380.197 2.9888 -2.895 0
M  V30 3913 H 379.073 4.23876 -3.48742 0
M  V30 3914 H 379.334 4.05555 -1.76005 0
M  V30 3915 N 378.394 1.34581 0.820102 0
M  V30 3916 C 379.643 1.26437 1.57151 0
M  V30 3917 C 379.956 -0.163111 1.94919 0
M  V30 3918 O 381.162 -0.366722 2.69012 0
M  V30 3919 C 379.618 2.21658 2.83541 0
M  V30 3920 C 379.226 3.69679 2.53065 0
M  V30 3921 C 380.97 2.22428 3.61561 0
M  V30 3922 C 378.877 4.56761 3.75664 0
M  V30 3923 H 377.807 0.469707 0.589823 0
M  V30 3924 H 380.458 1.59763 0.902656 0
M  V30 3925 H 378.84 1.81287 3.52067 0
M  V30 3926 H 380.014 4.18605 1.92631 0
M  V30 3927 H 378.329 3.71384 1.88316 0
M  V30 3928 H 380.926 2.8471 4.52597 0
M  V30 3929 H 381.269 1.22434 3.97889 0
M  V30 3930 H 381.802 2.61259 2.99981 0
M  V30 3931 H 378.541 5.57702 3.44454 0
M  V30 3932 H 378.061 4.12568 4.35371 0
M  V30 3933 H 379.74 4.71509 4.43044 0
M  V30 3934 N 379.872 -1.04064 1.18357 0
M  V30 3935 C 381.1 -1.80916 1.00384 0
M  V30 3936 C 381.515 -1.83414 -0.447738 0
M  V30 3937 O 380.872 -1.26962 -1.31099 0
M  V30 3938 C 380.923 -3.26516 1.55144 0
M  V30 3939 O 380.644 -3.2424 2.94618 0
M  V30 3940 C 382.145 -4.20013 1.41789 0
M  V30 3941 H 379.365 -0.569728 0.354474 0
M  V30 3942 H 381.909 -1.31151 1.56906 0
M  V30 3943 H 380.064 -3.73512 1.02798 0
M  V30 3944 H 380.478 -4.15452 3.20156 0
M  V30 3945 H 381.952 -5.20111 1.84901 0
M  V30 3946 H 382.429 -4.37667 0.36661 0
M  V30 3947 H 383.035 -3.78881 1.93207 0
M  V30 3948 N 381.35 -0.985608 -1.22978 0
M  V30 3949 C 382.627 -0.573599 -1.87001 0
M  V30 3950 C 383.007 0.949213 -1.88555 0
M  V30 3951 O 382.355 1.82811 -1.37086 0
M  V30 3952 C 382.565 -1.18564 -3.28243 0
M  V30 3953 C 383.913 -1.28163 -4.04796 0
M  V30 3954 O 384.937 -1.13949 -3.37482 0
M  V30 3955 O 383.796 -1.50832 -5.25273 0
M  V30 3956 H 380.89 -0.193868 -0.803955 0
M  V30 3957 H 383.436 -1.08102 -1.30813 0
M  V30 3958 H 382.208 -2.22758 -3.21706 0
M  V30 3959 H 381.831 -0.663363 -3.92027 0
M  V30 3960 N 382.828 1.3818 -0.7579 0
M  V30 3961 C 384.076 1.99624 -0.315361 0
M  V30 3962 C 384.397 1.60464 1.10799 0
M  V30 3963 O 383.667 0.863507 1.75842 0
M  V30 3964 H 382.247 0.73831 -0.113611 0
M  V30 3965 H 384.909 1.68878 -0.972952 0
M  V30 3966 H 384.005 3.09754 -0.381931 0
M  V30 3967 N 384.306 0.507319 1.49211 0
M  V30 3968 C 385.253 -0.267728 2.29242 0
M  V30 3969 C 386.223 -0.954609 1.35928 0
M  V30 3970 O 387.408 -0.960046 1.64887 0
M  V30 3971 C 384.548 -1.32243 3.18756 0
M  V30 3972 C 383.661 -0.64669 4.27132 0
M  V30 3973 C 382.796 -1.68238 5.03855 0
M  V30 3974 C 381.835 -0.98885 6.0406 0
M  V30 3975 N 380.972 -1.96903 6.73924 0
M  V30 3976 H 385.812 0.420968 2.95012 0
M  V30 3977 H 383.349 0.219443 1.45454 0
M  V30 3978 H 385.307 -1.94599 3.69036 0
M  V30 3979 H 383.937 -1.97981 2.54958 0
M  V30 3980 H 382.989 0.0902926 3.80293 0
M  V30 3981 H 384.301 -0.101058 4.98698 0
M  V30 3982 H 383.455 -2.38081 5.58034 0
M  V30 3983 H 382.194 -2.26187 4.32077 0
M  V30 3984 H 381.199 -0.276222 5.49106 0
M  V30 3985 H 382.424 -0.415767 6.77826 0
M  V30 3986 H 380.37 -2.53803 6.04913 0
M  V30 3987 H 380.287 -1.47423 7.41487 0
M  V30 3988 H 381.555 -2.66015 7.32705 0
M  V30 3989 N 385.784 -1.5574 0.241426 0
M  V30 3990 C 386.731 -2.21149 -0.660432 0
M  V30 3991 C 387.701 -1.17356 -1.17545 0
M  V30 3992 O 388.886 -1.45784 -1.23093 0
M  V30 3993 C 386.026 -2.91059 -1.85414 0
M  V30 3994 C 385.139 -4.09495 -1.37616 0
M  V30 3995 C 384.274 -4.67135 -2.529 0
M  V30 3996 C 383.313 -5.77831 -2.01936 0
M  V30 3997 N 382.45 -6.29677 -3.10566 0
M  V30 3998 H 387.29 -2.97845 -0.095955 0
M  V30 3999 H 384.827 -1.47057 -0.0356024 0
M  V30 4000 H 386.785 -3.29788 -2.5553 0
M  V30 4001 H 385.415 -2.16846 -2.39118 0
M  V30 4002 H 384.467 -3.76117 -0.569235 0
M  V30 4003 H 385.779 -4.89423 -0.962618 0
M  V30 4004 H 384.933 -5.08409 -3.31067 0
M  V30 4005 H 383.672 -3.86411 -2.97553 0
M  V30 4006 H 382.677 -5.36039 -1.22238 0
M  V30 4007 H 383.902 -6.60402 -1.58259 0
M  V30 4008 H 381.848 -5.5186 -3.54664 0
M  V30 4009 H 381.765 -7.04783 -2.73526 0
M  V30 4010 H 383.033 -6.75609 -3.88809 0
M  V30 4011 N 387.262 0.0317525 -1.57568 0
M  V30 4012 C 388.172 1.05021 -2.0978 0
M  V30 4013 C 389.188 1.39809 -1.03583 0
M  V30 4014 O 390.364 1.49182 -1.35302 0
M  V30 4015 C 387.429 2.33301 -2.56459 0
M  V30 4016 C 386.49 2.0512 -3.77127 0
M  V30 4017 C 385.723 3.27283 -4.2157 0
M  V30 4018 O 385.946 4.37861 -3.65559 0
M  V30 4019 O 384.88 3.13141 -5.14029 0
M  V30 4020 H 388.706 0.636505 -2.96955 0
M  V30 4021 H 386.291 0.248559 -1.47318 0
M  V30 4022 H 388.173 3.08722 -2.86825 0
M  V30 4023 H 386.848 2.73973 -1.72397 0
M  V30 4024 H 385.755 1.27276 -3.51784 0
M  V30 4025 H 387.088 1.69305 -4.62165 0
M  V30 4026 N 388.74 1.54641 0.303973 0
M  V30 4027 C 389.988 1.73437 1.0375 0
M  V30 4028 C 390.309 0.521449 1.87899 0
M  V30 4029 O 389.579 -0.46432 1.90318 0
M  V30 4030 H 388.159 0.639518 0.386039 0
M  V30 4031 H 390.821 1.91988 0.335675 0
M  V30 4032 H 389.917 2.62235 1.69231 0
M  V30 4033 N 390.218 -0.567019 1.47046 0
M  V30 4034 C 391.495 -1.3276 1.43646 0
M  V30 4035 C 391.875 -2.1071 0.128186 0
M  V30 4036 O 391.223 -2.10441 -0.890326 0
M  V30 4037 C 391.433 -2.2404 2.67595 0
M  V30 4038 C 392.781 -2.85372 3.14401 0
M  V30 4039 O 393.805 -2.34346 2.68254 0
M  V30 4040 O 392.664 -3.78091 3.946 0
M  V30 4041 H 389.758 -0.597293 0.571988 0
M  V30 4042 H 392.304 -0.586735 1.59234 0
M  V30 4043 H 391.076 -1.65975 3.54356 0
M  V30 4044 H 390.699 -3.05439 2.54544 0
M  V30 4045 N 391.696 -1.35014 -0.812953 0
M  V30 4046 C 392.921 -1.31187 -1.60639 0
M  V30 4047 C 393.346 0.109382 -1.87782 0
M  V30 4048 O 392.704 1.07424 -1.46047 0
M  V30 4049 C 392.752 -2.11809 -2.91838 0
M  V30 4050 O 391.856 -1.49444 -3.8437 0
M  V30 4051 H 391.197 -0.450084 -0.488181 0
M  V30 4052 H 393.727 -1.77963 -1.00947 0
M  V30 4053 H 393.737 -2.23531 -3.41318 0
M  V30 4054 H 392.412 -3.15137 -2.71407 0
M  V30 4055 H 390.989 -1.46524 -3.42907 0
M  V30 4056 N 393.175 1.03435 -1.18907 0
M  V30 4057 C 394.105 2.13503 -0.945448 0
M  V30 4058 C 395.086 1.69682 0.119189 0
M  V30 4059 O 396.271 1.94169 -0.034707 0
M  V30 4060 C 393.401 3.44004 -0.477316 0
M  V30 4061 C 392.355 4.0148 -1.48316 0
M  V30 4062 C 391.681 5.27537 -0.872311 0
M  V30 4063 C 392.981 4.36921 -2.86177 0
M  V30 4064 H 394.675 2.34141 -1.86597 0
M  V30 4065 H 392.221 1.12523 -0.898584 0
M  V30 4066 H 394.174 4.20372 -0.294204 0
M  V30 4067 H 392.898 3.23072 0.478786 0
M  V30 4068 H 391.557 3.27201 -1.65332 0
M  V30 4069 H 391.205 5.02917 0.0911752 0
M  V30 4070 H 390.905 5.66954 -1.54393 0
M  V30 4071 H 392.429 6.06576 -0.699871 0
M  V30 4072 H 393.843 5.04248 -2.72776 0
M  V30 4073 H 392.24 4.87405 -3.50081 0
M  V30 4074 H 393.31 3.46466 -3.39248 0
M  V30 4075 N 394.653 0.992116 1.22453 0
M  V30 4076 C 395.93 0.583508 1.86694 0
M  V30 4077 C 396.31 -0.9392 1.89056 0
M  V30 4078 O 395.658 -1.82081 1.38053 0
M  V30 4079 C 395.868 1.20304 3.2761 0
M  V30 4080 C 397.216 1.30308 4.0411 0
M  V30 4081 O 398.24 1.15737 3.36873 0
M  V30 4082 O 397.099 1.53615 5.24466 0
M  V30 4083 H 394.193 0.198129 0.802916 0
M  V30 4084 H 396.739 1.08794 1.30238 0
M  V30 4085 H 395.511 2.24461 3.2052 0
M  V30 4086 H 395.134 0.684144 3.9167 0
M  V30 4087 N 396.131 -1.37776 0.765217 0
M  V30 4088 C 397.361 -2.03828 0.337277 0
M  V30 4089 C 397.769 -1.57841 -1.04321 0
M  V30 4090 O 397.112 -0.752043 -1.67601 0
M  V30 4091 C 397.174 -3.58292 0.294407 0
M  V30 4092 C 396.838 -4.27384 1.61838 0
M  V30 4093 C 397.835 -4.51956 2.56967 0
M  V30 4094 C 395.52 -4.65345 1.89102 0
M  V30 4095 C 397.514 -5.13536 3.77571 0
M  V30 4096 C 395.201 -5.26647 3.09978 0
M  V30 4097 C 396.199 -5.50679 4.04032 0
M  V30 4098 O 395.887 -6.10702 5.2278 0
M  V30 4099 H 395.619 -0.661292 0.140248 0
M  V30 4100 H 398.173 -1.77222 1.03834 0
M  V30 4101 H 396.403 -3.83918 -0.462983 0
M  V30 4102 H 398.092 -4.05763 -0.105581 0
M  V30 4103 H 398.858 -4.23048 2.37183 0
M  V30 4104 H 394.737 -4.45978 1.16725 0
M  V30 4105 H 398.281 -5.3221 4.50997 0
M  V30 4106 H 394.178 -5.54979 3.29649 0
M  V30 4107 H 394.946 -6.29183 5.23517 0
M  V30 4108 N 397.609 -0.515225 -1.4894 0
M  V30 4109 C 398.556 0.255567 -2.29381 0
M  V30 4110 C 399.526 0.947387 -1.36432 0
M  V30 4111 O 400.711 0.951288 -1.65394 0
M  V30 4112 C 397.851 1.30551 -3.19453 0
M  V30 4113 C 396.964 0.624029 -4.27469 0
M  V30 4114 C 396.099 1.65563 -5.0474 0
M  V30 4115 C 395.138 0.956802 -6.04576 0
M  V30 4116 N 394.275 1.93326 -6.74959 0
M  V30 4117 H 399.115 -0.436607 -2.94784 0
M  V30 4118 H 396.652 -0.227154 -1.45336 0
M  V30 4119 H 398.61 1.92639 -3.70062 0
M  V30 4120 H 397.24 1.96626 -2.56004 0
M  V30 4121 H 396.292 -0.110459 -3.8024 0
M  V30 4122 H 397.604 0.0746092 -4.98744 0
M  V30 4123 H 396.758 2.35119 -5.59289 0
M  V30 4124 H 395.497 2.23893 -4.3327 0
M  V30 4125 H 394.502 0.247097 -5.49244 0
M  V30 4126 H 395.727 0.379814 -6.78037 0
M  V30 4127 H 393.673 2.50591 -6.06251 0
M  V30 4128 H 393.59 1.43489 -7.42258 0
M  V30 4129 H 394.858 2.62126 -7.34105 0
M  V30 4130 N 399.087 1.5561 -0.249682 0
M  V30 4131 C 400.364 1.90932 0.424761 0
M  V30 4132 C 400.744 1.17078 1.75658 0
M  V30 4133 O 400.092 0.289176 2.26663 0
M  V30 4134 C 400.302 3.43975 0.590109 0
M  V30 4135 C 401.65 4.15281 0.884714 0
M  V30 4136 O 402.674 3.49729 0.67587 0
M  V30 4137 O 401.533 5.31236 1.28259 0
M  V30 4138 H 398.627 0.794815 0.228468 0
M  V30 4139 H 401.173 1.67135 -0.293954 0
M  V30 4140 H 399.945 3.89748 -0.34818 0
M  V30 4141 H 399.568 3.73644 1.35926 0
M  V30 4142 N 400.565 -0.0233959 1.57583 0
M  V30 4143 C 401.811 -0.714119 1.89811 0
M  V30 4144 C 402.144 -1.74702 0.848113 0
M  V30 4145 O 401.419 -1.94023 -0.136135 0
M  V30 4146 C 401.702 -1.37853 3.32669 0
M  V30 4147 C 401.555 -0.358764 4.48367 0
M  V30 4148 C 402.874 -2.31101 3.7454 0
M  V30 4149 H 399.993 -0.25814 0.690314 0
M  V30 4150 H 402.635 0.0230927 1.89986 0
M  V30 4151 H 400.785 -2.00689 3.3265 0
M  V30 4152 H 402.457 0.268115 4.6052 0
M  V30 4153 H 400.7 0.321387 4.32608 0
M  V30 4154 H 401.371 -0.862242 5.45224 0
M  V30 4155 H 403.847 -1.78304 3.75961 0
M  V30 4156 H 402.723 -2.74567 4.75294 0
M  V30 4157 H 402.984 -3.18018 3.0711 0
M  V30 4158 N 402.043 -1.548 -0.295768 0
M  V30 4159 C 403.292 -1.73538 -1.02798 0
M  V30 4160 C 403.605 -0.531159 -1.8825 0
M  V30 4161 O 404.811 -0.600458 -2.64777 0
M  V30 4162 C 403.267 -3.07051 -1.87744 0
M  V30 4163 C 402.875 -4.34968 -1.07269 0
M  V30 4164 C 404.619 -3.35146 -2.60533 0
M  V30 4165 C 402.526 -5.5953 -1.91521 0
M  V30 4166 H 401.456 -0.646794 -0.387522 0
M  V30 4167 H 404.107 -1.81278 -0.284718 0
M  V30 4168 H 402.489 -2.93289 -2.66078 0
M  V30 4169 H 403.663 -4.5958 -0.335117 0
M  V30 4170 H 401.978 -4.13847 -0.460384 0
M  V30 4171 H 404.575 -4.2541 -3.23929 0
M  V30 4172 H 404.918 -2.54255 -3.29636 0
M  V30 4173 H 405.451 -3.49902 -1.89244 0
M  V30 4174 H 402.19 -6.43103 -1.26878 0
M  V30 4175 H 401.71 -5.39096 -2.62937 0
M  V30 4176 H 403.389 -5.96982 -2.49442 0
M  V30 4177 N 403.521 0.559213 -1.47345 0
M  V30 4178 C 404.932 1.14134 -1.47751 0
M  V30 4179 C 405.283 1.94834 -0.231103 0
M  V30 4180 O 404.408 2.05957 0.664137 0
M  V30 4181 C 405.003 2.07653 -2.67705 0
M  V30 4182 C 403.562 2.61141 -2.71076 0
M  V30 4183 C 402.709 1.3748 -2.40821 0
M  V30 4184 H 405.66 0.345917 -1.54884 0
M  V30 4185 H 405.681 2.91497 -2.44561 0
M  V30 4186 H 405.193 1.4889 -3.58404 0
M  V30 4187 H 403.294 3.23707 -1.84511 0
M  V30 4188 H 403.407 3.02272 -3.7171 0
M  V30 4189 H 401.771 1.68086 -1.91362 0
M  V30 4190 H 402.554 0.805135 -3.33725 0
M  V30 4191 N 404.999 1.35443 0.805782 0
M  V30 4192 C 405.932 1.22783 1.92353 0
M  V30 4193 C 406.91 0.115543 1.62189 0
M  V30 4194 O 408.094 0.283778 1.86352 0
M  V30 4195 C 405.221 0.890746 3.26777 0
M  V30 4196 C 404.267 2.01519 3.75889 0
M  V30 4197 S 405.1 3.63101 3.93596 0
M  V30 4198 C 406.256 3.31472 5.30921 0
M  V30 4199 H 406.489 2.17394 2.02798 0
M  V30 4200 H 404.022 1.20669 0.963245 0
M  V30 4201 H 405.98 0.703068 4.04434 0
M  V30 4202 H 404.641 -0.0373152 3.14078 0
M  V30 4203 H 403.834 1.7335 4.7325 0
M  V30 4204 H 403.436 2.16124 3.05231 0
M  V30 4205 H 405.728 2.8435 6.1494 0
M  V30 4206 H 406.671 4.28036 5.64084 0
M  V30 4207 H 407.079 2.67221 4.97246 0
M  V30 4208 N 406.477 -1.02803 1.19454 0
M  V30 4209 C 407.44 -2.09264 0.934955 0
M  V30 4210 C 408.44 -1.60576 -0.0849015 0
M  V30 4211 O 409.63 -1.73554 0.149933 0
M  V30 4212 C 406.762 -3.38482 0.40531 0
M  V30 4213 H 407.955 -2.33726 1.87916 0
M  V30 4214 H 405.508 -1.19426 1.00832 0
M  V30 4215 H 406.243 -3.19689 -0.544899 0
M  V30 4216 H 406.028 -3.75142 1.14065 0
M  V30 4217 H 407.518 -4.16894 0.242806 0
M  V30 4218 N 407.956 -0.998596 -1.21925 0
M  V30 4219 C 409.233 -0.593401 -1.86382 0
M  V30 4220 C 409.613 0.92916 -1.89552 0
M  V30 4221 O 408.961 1.81347 -1.39017 0
M  V30 4222 C 409.171 -1.22039 -3.26967 0
M  V30 4223 C 410.519 -1.32449 -4.03413 0
M  V30 4224 O 411.543 -1.17522 -3.36254 0
M  V30 4225 O 410.402 -1.56395 -5.23644 0
M  V30 4226 H 407.496 -0.202385 -0.801854 0
M  V30 4227 H 410.042 -1.09484 -1.29659 0
M  V30 4228 H 408.814 -2.26158 -3.19325 0
M  V30 4229 H 408.437 -0.704906 -3.91301 0
M  V30 4230 N 409.434 1.37368 -0.772513 0
M  V30 4231 C 410.397 2.28601 -0.165541 0
M  V30 4232 C 411.397 1.48062 0.627238 0
M  V30 4233 O 412.587 1.68268 0.450715 0
M  V30 4234 C 409.719 3.32023 0.772897 0
M  V30 4235 H 410.912 2.83787 -0.969787 0
M  V30 4236 H 408.465 1.46647 -0.540775 0
M  V30 4237 H 409.2 2.81962 1.60212 0
M  V30 4238 H 408.985 3.91555 0.206585 0
M  V30 4239 H 410.475 4.00197 1.19298 0
M  V30 4240 N 410.912 0.523116 1.48665 0
M  V30 4241 C 411.875 -0.232592 2.28017 0
M  V30 4242 C 412.875 -0.874021 1.34972 0
M  V30 4243 O 414.065 -0.735132 1.57929 0
M  V30 4244 C 411.197 -1.33586 3.13636 0
M  V30 4245 H 412.39 0.464008 2.96289 0
M  V30 4246 H 409.943 0.278816 1.53793 0
M  V30 4247 H 410.678 -2.06593 2.4998 0
M  V30 4248 H 410.463 -0.881125 3.82071 0
M  V30 4249 H 411.953 -1.86759 3.73511 0
M  V30 4250 N 412.39 -1.55475 0.257931 0
M  V30 4251 C 413.638 -1.98813 -0.363009 0
M  V30 4252 C 413.959 -1.14757 -1.57657 0
M  V30 4253 O 413.229 -0.232956 -1.9451 0
M  V30 4254 H 411.809 -0.734308 -0.137113 0
M  V30 4255 H 414.471 -1.9156 0.359281 0
M  V30 4256 H 413.567 -3.04941 -0.664634 0
M  V30 4257 N 413.868 0.0150385 -1.57593 0
M  V30 4258 C 415.117 0.702115 -1.89085 0
M  V30 4259 C 415.43 1.75764 -0.858277 0
M  V30 4260 O 416.636 2.49829 -1.0629 0
M  V30 4261 C 415.092 1.29992 -3.35604 0
M  V30 4262 C 414.7 0.280007 -4.47124 0
M  V30 4263 C 416.444 1.96606 -3.76227 0
M  V30 4264 C 414.351 0.886949 -5.84711 0
M  V30 4265 H 413.281 0.265997 -0.705522 0
M  V30 4266 H 415.932 -0.0430408 -1.8345 0
M  V30 4267 H 414.314 2.09525 -3.36029 0
M  V30 4268 H 415.488 -0.489631 -4.58191 0
M  V30 4269 H 413.803 -0.284835 -4.15425 0
M  V30 4270 H 416.4 2.42893 -4.76347 0
M  V30 4271 H 416.743 2.79024 -3.08952 0
M  V30 4272 H 417.276 1.23828 -3.78036 0
M  V30 4273 H 414.015 0.101876 -6.55421 0
M  V30 4274 H 413.535 1.6261 -5.77337 0
M  V30 4275 H 415.214 1.39011 -6.3189 0
M  V30 4276 N 415.346 1.54954 0.287554 0
M  V30 4277 C 416.595 1.74081 1.01877 0
M  V30 4278 C 416.908 0.541135 1.87966 0
M  V30 4279 O 418.114 0.614491 2.64455 0
M  V30 4280 C 416.57 3.08042 1.86113 0
M  V30 4281 C 416.178 4.35531 1.04961 0
M  V30 4282 C 417.922 3.36523 2.58752 0
M  V30 4283 C 415.829 5.60538 1.88551 0
M  V30 4284 H 414.759 0.64884 0.384087 0
M  V30 4285 H 417.41 1.81426 0.275101 0
M  V30 4286 H 415.792 2.94696 2.64519 0
M  V30 4287 H 416.966 4.59751 0.31074 0
M  V30 4288 H 415.281 4.14085 0.43843 0
M  V30 4289 H 417.878 4.27122 3.21668 0
M  V30 4290 H 418.221 2.56 3.28283 0
M  V30 4291 H 418.754 3.50901 1.87386 0
M  V30 4292 H 415.493 6.43767 1.23466 0
M  V30 4293 H 415.013 5.40483 2.60074 0
M  V30 4294 H 416.692 5.98297 2.46273 0
M  V30 4295 N 416.824 -0.551391 1.4764 0
M  V30 4296 C 418.24 -0.877887 1.33287 0
M  V30 4297 C 418.44 -1.98817 0.327721 0
M  V30 4298 O 417.496 -2.51171 -0.258695 0
M  V30 4299 C 418.809 -1.26563 2.72768 0
M  V30 4300 C 420.357 -1.37673 2.81097 0
M  V30 4301 C 420.832 -1.79799 4.21232 0
M  V30 4302 N 422.323 -1.8694 4.23802 0
M  V30 4303 C 423.058 -2.20876 5.29151 0
M  V30 4304 N 422.554 -2.53386 6.448 0
M  V30 4305 N 424.347 -2.217 5.16532 0
M  V30 4306 H 416.498 0.18153 2.11623 0
M  V30 4307 H 418.761 0.0185514 0.947818 0
M  V30 4308 H 418.467 -0.523591 3.47781 0
M  V30 4309 H 418.341 -2.22052 3.04915 0
M  V30 4310 H 420.728 -2.10956 2.06353 0
M  V30 4311 H 420.809 -0.40357 2.52596 0
M  V30 4312 H 420.453 -1.07083 4.96483 0
M  V30 4313 H 420.383 -2.78128 4.4716 0
M  V30 4314 H 422.874 -1.64179 3.40373 0
M  V30 4315 H 423.187 -2.78325 7.20941 0
M  V30 4316 H 421.532 -2.50953 6.48111 0
M  V30 4317 H 424.723 -1.95745 4.25207 0
M  V30 4318 H 424.896 -2.47818 5.98741 0
M  V30 4319 N 418.302 -1.35869 -0.798587 0
M  V30 4320 C 419.532 -1.32529 -1.58491 0
M  V30 4321 C 419.94 0.0975405 -1.88948 0
M  V30 4322 O 419.283 1.06224 -1.49874 0
M  V30 4323 C 419.345 -2.07247 -2.9375 0
M  V30 4324 C 419.009 -3.56391 -2.86068 0
M  V30 4325 C 420.006 -4.50824 -2.58947 0
M  V30 4326 C 417.691 -3.9915 -3.04933 0
M  V30 4327 C 419.685 -5.85993 -2.5078 0
M  V30 4328 C 417.372 -5.34413 -2.96389 0
M  V30 4329 C 418.37 -6.27646 -2.69349 0
M  V30 4330 O 418.058 -7.60426 -2.60782 0
M  V30 4331 H 417.79 -0.456529 -0.498556 0
M  V30 4332 H 420.344 -1.79425 -0.999799 0
M  V30 4333 H 418.574 -1.55001 -3.54276 0
M  V30 4334 H 420.263 -1.96883 -3.54954 0
M  V30 4335 H 421.029 -4.19104 -2.44084 0
M  V30 4336 H 416.908 -3.26961 -3.24989 0
M  V30 4337 H 420.452 -6.58735 -2.29595 0
M  V30 4338 H 416.349 -5.65743 -3.10813 0
M  V30 4339 H 417.117 -7.70444 -2.76331 0
M  V30 4340 N 419.78 1.02168 -1.19998 0
M  V30 4341 C 420.743 2.08765 -0.94604 0
M  V30 4342 C 421.743 1.60618 0.0763846 0
M  V30 4343 O 422.933 1.73472 -0.159135 0
M  V30 4344 C 420.065 3.38262 -0.423255 0
M  V30 4345 H 421.258 2.32726 -1.89153 0
M  V30 4346 H 418.811 1.1889 -1.01464 0
M  V30 4347 H 419.546 3.19974 0.527938 0
M  V30 4348 H 419.331 3.74532 -1.16053 0
M  V30 4349 H 420.821 4.16759 -0.264911 0
M  V30 4350 N 421.258 1.00505 1.21394 0
M  V30 4351 C 422.507 0.683159 1.89778 0
M  V30 4352 C 422.82 -0.789471 1.7896 0
M  V30 4353 O 424.026 -1.22344 2.42372 0
M  V30 4354 C 422.482 1.17146 3.40301 0
M  V30 4355 C 422.09 2.67017 3.5973 0
M  V30 4356 C 423.834 0.924461 4.14311 0
M  V30 4357 C 421.741 3.09387 5.04017 0
M  V30 4358 H 420.671 0.25183 0.710702 0
M  V30 4359 H 423.322 1.21622 1.37406 0
M  V30 4360 H 421.704 0.566451 3.91928 0
M  V30 4361 H 422.878 3.32968 3.18542 0
M  V30 4362 H 421.193 2.89732 2.99073 0
M  V30 4363 H 423.79 1.21658 5.20676 0
M  V30 4364 H 424.133 -0.139286 4.16067 0
M  V30 4365 H 424.666 1.49226 3.6875 0
M  V30 4366 H 421.405 4.14989 5.07409 0
M  V30 4367 H 420.925 2.48149 5.46061 0
M  V30 4368 H 422.604 3.01371 5.72525 0
M  V30 4369 N 422.737 -1.36956 0.779787 0
M  V30 4370 C 423.985 -1.99097 0.347079 0
M  V30 4371 C 424.306 -1.62206 -1.08232 0
M  V30 4372 O 423.576 -0.891373 -1.74446 0
M  V30 4373 H 422.156 -0.736409 0.125342 0
M  V30 4374 H 424.818 -1.67308 0.999696 0
M  V30 4375 H 423.914 -3.09107 0.431162 0
M  V30 4376 N 424.215 -0.530993 -1.48385 0
M  V30 4377 C 425.461 0.00274135 -2.028 0
M  V30 4378 C 425.794 1.33838 -1.40716 0
M  V30 4379 O 425.069 1.86465 -0.553277 0
M  V30 4380 C 425.352 0.123676 -3.59888 0
M  V30 4381 C 425.205 -1.2372 -4.3245 0
M  V30 4382 C 426.524 0.849967 -4.31814 0
M  V30 4383 H 423.643 -0.000477758 -0.737 0
M  V30 4384 H 426.285 -0.688217 -1.77098 0
M  V30 4385 H 424.435 0.712157 -3.81917 0
M  V30 4386 H 426.107 -1.86687 -4.21836 0
M  V30 4387 H 424.35 -1.81882 -3.93829 0
M  V30 4388 H 425.021 -1.10557 -5.40815 0
M  V30 4389 H 427.497 0.350572 -4.14621 0
M  V30 4390 H 426.373 0.903486 -5.41413 0
M  V30 4391 H 426.634 1.90047 -3.99167 0
M  V30 4392 N 425.693 1.55336 -0.266172 0
M  V30 4393 C 426.941 1.99003 0.35246 0
M  V30 4394 C 427.262 1.15591 1.57047 0
M  V30 4395 O 426.532 0.243268 1.94384 0
M  V30 4396 H 425.112 0.735025 0.133217 0
M  V30 4397 H 427.774 1.91367 -0.369434 0
M  V30 4398 H 426.87 3.05289 0.648453 0
M  V30 4399 N 427.171 -0.0066808 1.57599 0
M  V30 4400 C 428.101 -0.999296 2.11036 0
M  V30 4401 C 429.082 -1.36278 1.01795 0
M  V30 4402 O 430.267 -1.4477 1.29442 0
M  V30 4403 C 427.397 -2.29328 2.60818 0
M  V30 4404 C 426.351 -2.07159 3.74525 0
M  V30 4405 C 425.677 -3.42512 4.10596 0
M  V30 4406 C 426.977 -1.43959 5.02069 0
M  V30 4407 H 428.671 -0.554382 2.94223 0
M  V30 4408 H 426.217 -0.265221 1.41536 0
M  V30 4409 H 428.17 -2.99117 2.96828 0
M  V30 4410 H 426.894 -2.7592 1.74745 0
M  V30 4411 H 425.553 -1.39797 3.38899 0
M  V30 4412 H 425.201 -3.86795 3.21556 0
M  V30 4413 H 424.901 -3.28498 4.87199 0
M  V30 4414 H 426.425 -4.13628 4.4916 0
M  V30 4415 H 427.839 -2.03696 5.35893 0
M  V30 4416 H 426.236 -1.40452 5.83432 0
M  V30 4417 H 427.306 -0.407992 4.83181 0
M  V30 4418 N 428.649 -1.55105 -0.279332 0
M  V30 4419 C 429.612 -1.86783 -1.32834 0
M  V30 4420 C 430.612 -0.74199 -1.42657 0
M  V30 4421 O 431.802 -1.0102 -1.41918 0
M  V30 4422 C 428.934 -2.06746 -2.71052 0
M  V30 4423 H 430.127 -2.8055 -1.05979 0
M  V30 4424 H 427.68 -1.47499 -0.517087 0
M  V30 4425 H 428.415 -1.15339 -3.03097 0
M  V30 4426 H 428.2 -2.88711 -2.65309 0
M  V30 4427 H 429.69 -2.32549 -3.46858 0
M  V30 4428 N 430.127 0.543554 -1.4793 0
M  V30 4429 C 431.374 1.30008 -1.55255 0
M  V30 4430 C 431.702 1.93245 -0.220612 0
M  V30 4431 O 430.957 1.79141 0.787843 0
M  V30 4432 C 431.256 2.42078 -2.62932 0
M  V30 4433 C 430.922 1.96583 -4.0579 0
M  V30 4434 C 429.584 1.83893 -4.44676 0
M  V30 4435 C 431.936 1.62034 -4.95373 0
M  V30 4436 C 429.264 1.34969 -5.70964 0
M  V30 4437 C 431.616 1.14577 -6.22137 0
M  V30 4438 C 430.28 1.00493 -6.59892 0
M  V30 4439 H 429.55 0.475735 -0.568117 0
M  V30 4440 H 432.197 0.608075 -1.81589 0
M  V30 4441 H 430.502 3.16892 -2.30406 0
M  V30 4442 H 432.199 3.00236 -2.65818 0
M  V30 4443 H 428.789 2.07407 -3.75074 0
M  V30 4444 H 432.973 1.70705 -4.66019 0
M  V30 4445 H 428.229 1.2274 -5.98953 0
M  V30 4446 H 432.403 0.869109 -6.90955 0
M  V30 4447 H 430.03 0.623624 -7.57638 0
M  V30 4448 N 431.605 1.3629 0.791371 0
M  V30 4449 C 432.537 1.26321 1.91248 0
M  V30 4450 C 433.55 0.18313 1.61767 0
M  V30 4451 O 434.739 0.437682 1.73051 0
M  V30 4452 C 431.839 0.925901 3.26007 0
M  V30 4453 C 431.012 2.10746 3.83281 0
M  V30 4454 C 430.071 1.74352 4.96475 0
M  V30 4455 O 429.097 2.46416 5.13096 0
M  V30 4456 N 430.299 0.676058 5.7655 0
M  V30 4457 H 433.064 2.22915 2.00323 0
M  V30 4458 H 430.625 1.29659 0.969546 0
M  V30 4459 H 432.617 0.663636 3.99222 0
M  V30 4460 H 431.187 0.0491581 3.12561 0
M  V30 4461 H 430.407 2.53264 3.02077 0
M  V30 4462 H 431.695 2.8969 4.18279 0
M  V30 4463 H 431.093 0.0776467 5.65647 0
M  V30 4464 H 429.65 0.473612 6.50077 0
M  V30 4465 N 433.083 -1.0153 1.20538 0
M  V30 4466 C 434.031 -2.12215 0.952235 0
M  V30 4467 C 435.025 -1.69123 -0.0968735 0
M  V30 4468 O 436.231 -1.7992 0.0536006 0
M  V30 4469 H 432.606 -0.693576 0.290613 0
M  V30 4470 H 434.577 -2.3075 1.89201 0
M  V30 4471 C 433.326 -3.43755 0.522287 0
M  V30 4472 H 432.649 -3.7734 1.32115 0
M  V30 4473 H 434.089 -4.22254 0.384389 0
M  V30 4474 C 432.548 -3.28088 -0.765489 0
M  V30 4475 O 433.078 -3.57921 -1.8236 0
M  V30 4476 N 431.284 -2.81333 -0.728011 0
M  V30 4477 H 430.831 -2.57255 0.133332 0
M  V30 4478 H 430.789 -2.71232 -1.58999 0
M  V30 4479 N 434.561 -1.01147 -1.20859 0
M  V30 4480 C 435.977 -0.725422 -1.42161 0
M  V30 4481 C 436.177 0.696919 -1.89064 0
M  V30 4482 O 435.233 1.46539 -2.05627 0
M  V30 4483 C 436.546 -1.74678 -2.44761 0
M  V30 4484 C 438.094 -1.76433 -2.58535 0
M  V30 4485 C 438.569 -2.77481 -3.64374 0
M  V30 4486 N 440.06 -2.76189 -3.71852 0
M  V30 4487 C 440.795 -3.51035 -4.53389 0
M  V30 4488 N 440.291 -4.35541 -5.38773 0
M  V30 4489 N 442.084 -3.39655 -4.47873 0
M  V30 4490 H 434.235 -1.92979 -0.887282 0
M  V30 4491 H 436.498 -0.833327 -0.451962 0
M  V30 4492 H 436.204 -2.76551 -2.17285 0
M  V30 4493 H 436.078 -1.55472 -3.43669 0
M  V30 4494 H 438.465 -0.75248 -2.85345 0
M  V30 4495 H 438.546 -1.99712 -1.5984 0
M  V30 4496 H 438.19 -3.78827 -3.38308 0
M  V30 4497 H 438.12 -2.51466 -4.6268 0
M  V30 4498 H 440.611 -2.14885 -3.10858 0
M  V30 4499 H 440.924 -4.89432 -5.98061 0
M  V30 4500 H 439.269 -4.39621 -5.38292 0
M  V30 4501 H 442.46 -2.73063 -3.80203 0
M  V30 4502 H 442.633 -3.9824 -5.11184 0
M  V30 4503 N 436.039 1.36541 -0.78704 0
M  V30 4504 C 436.987 2.31965 -0.171724 0
M  V30 4505 C 437.981 1.55689 0.667631 0
M  V30 4506 O 439.187 1.70969 0.562981 0
M  V30 4507 H 435.562 0.751101 -0.0367545 0
M  V30 4508 H 437.533 2.81428 -0.992017 0
M  V30 4509 C 436.282 3.40968 0.680904 0
M  V30 4510 H 435.605 3.99775 0.0443961 0
M  V30 4511 H 437.045 4.10063 1.07815 0
M  V30 4512 C 435.504 2.82338 1.83813 0
M  V30 4513 O 436.034 2.74311 2.93456 0
M  V30 4514 N 434.24 2.39661 1.6435 0
M  V30 4515 H 433.787 2.46389 0.751668 0
M  V30 4516 H 433.745 2.00779 2.4194 0
M  V30 4517 N 437.518 0.538854 1.48102 0
M  V30 4518 C 438.743 0.0102694 2.07397 0
M  V30 4519 C 439.168 -1.26562 1.39153 0
M  V30 4520 O 438.526 -1.75357 0.460387 0
M  V30 4521 C 438.574 -0.187602 3.60112 0
M  V30 4522 O 437.678 -1.25432 3.92862 0
M  V30 4523 H 437.019 0.0430975 0.6626 0
M  V30 4524 H 439.549 0.749301 1.90385 0
M  V30 4525 H 439.559 -0.407517 4.0596 0
M  V30 4526 H 438.234 0.744386 4.09184 0
M  V30 4527 H 436.811 -1.01636 3.58782 0
M  V30 4528 N 438.996 -1.55193 0.274407 0
M  V30 4529 C 440.242 -2.00604 -0.33608 0
M  V30 4530 C 440.597 -1.15948 -1.53538 0
M  V30 4531 O 439.89 -0.221385 -1.90317 0
M  V30 4532 C 440.084 -3.49019 -0.769458 0
M  V30 4533 C 439.913 -4.48038 0.386301 0
M  V30 4534 C 438.683 -4.97757 0.869854 0
M  V30 4535 C 440.881 -4.99558 1.22254 0
M  V30 4536 N 438.863 -5.80575 1.99515 0
M  V30 4537 C 440.234 -5.79816 2.19575 0
M  V30 4538 C 442.289 -4.81799 1.25597 0
M  V30 4539 C 440.992 -6.44208 3.19981 0
M  V30 4540 C 443.018 -5.46989 2.24848 0
M  V30 4541 C 442.38 -6.27058 3.20901 0
M  V30 4542 H 438.479 -0.777013 -0.088172 0
M  V30 4543 H 441.063 -1.90583 0.398266 0
M  V30 4544 H 439.234 -3.59383 -1.47303 0
M  V30 4545 H 440.966 -3.81263 -1.35722 0
M  V30 4546 H 437.721 -4.71464 0.449281 0
M  V30 4547 H 438.145 -6.26675 2.5614 0
M  V30 4548 H 442.787 -4.19501 0.527158 0
M  V30 4549 H 440.505 -7.05656 3.93796 0
M  V30 4550 H 444.091 -5.35189 2.28174 0
M  V30 4551 H 442.971 -6.7661 3.96445 0
M  V30 4552 N 440.474 -0.00167713 -1.576 0
M  V30 4553 C 441.421 0.989195 -2.08527 0
M  V30 4554 C 442.391 1.34031 -0.981065 0
M  V30 4555 O 443.576 1.43839 -1.2536 0
M  V30 4556 C 440.716 2.27537 -2.59463 0
M  V30 4557 C 439.829 1.98314 -3.83791 0
M  V30 4558 C 438.964 3.21025 -4.23222 0
M  V30 4559 C 438.003 2.87495 -5.40382 0
M  V30 4560 N 437.14 4.02749 -5.75098 0
M  V30 4561 H 441.98 0.547973 -2.92919 0
M  V30 4562 H 439.517 0.258917 -1.44803 0
M  V30 4563 H 441.475 3.02729 -2.87073 0
M  V30 4564 H 440.105 2.69325 -1.77943 0
M  V30 4565 H 439.157 1.13482 -3.63078 0
M  V30 4566 H 440.469 1.69601 -4.69081 0
M  V30 4567 H 439.623 4.04561 -4.52123 0
M  V30 4568 H 438.362 3.52877 -3.36644 0
M  V30 4569 H 437.367 2.02367 -5.11202 0
M  V30 4570 H 438.592 2.56889 -6.28637 0
M  V30 4571 H 436.538 4.34494 -4.91478 0
M  V30 4572 H 436.455 3.77566 -6.54966 0
M  V30 4573 H 437.723 4.87068 -6.08592 0
M  V30 4574 N 441.952 1.55251 0.271103 0
M  V30 4575 C 442.862 1.9136 1.35714 0
M  V30 4576 C 443.878 0.811075 1.5394 0
M  V30 4577 O 445.054 1.11031 1.6803 0
M  V30 4578 C 442.119 2.1798 2.69603 0
M  V30 4579 C 441.18 3.4153 2.60107 0
M  V30 4580 C 440.413 3.66871 3.8761 0
M  V30 4581 O 440.636 2.94689 4.8838 0
M  V30 4582 O 439.57 4.60405 3.87699 0
M  V30 4583 H 443.396 2.83815 1.08088 0
M  V30 4584 H 440.981 1.41821 0.469792 0
M  V30 4585 H 442.863 2.36518 3.48765 0
M  V30 4586 H 441.538 1.28708 2.97012 0
M  V30 4587 H 440.445 3.28325 1.79314 0
M  V30 4588 H 441.778 4.31027 2.37647 0
M  V30 4589 N 443.43 -0.535701 1.48216 0
M  V30 4590 C 444.36 -1.65014 1.65204 0
M  V30 4591 C 445.341 -1.62554 0.501011 0
M  V30 4592 O 446.526 -1.7984 0.732886 0
M  V30 4593 C 443.656 -3.03616 1.68626 0
M  V30 4594 C 442.61 -3.20932 2.83172 0
M  V30 4595 C 441.936 -4.60537 2.71679 0
M  V30 4596 C 443.236 -3.04249 4.24535 0
M  V30 4597 H 444.93 -1.51053 2.58502 0
M  V30 4598 H 442.476 -0.725262 1.24402 0
M  V30 4599 H 444.429 -3.81446 1.79099 0
M  V30 4600 H 443.153 -3.18587 0.719026 0
M  V30 4601 H 441.812 -2.45517 2.72244 0
M  V30 4602 H 441.46 -4.72336 1.72937 0
M  V30 4603 H 441.16 -4.73069 3.48538 0
M  V30 4604 H 442.684 -5.40475 2.84112 0
M  V30 4605 H 444.098 -3.71877 4.36326 0
M  V30 4606 H 442.495 -3.28278 5.02348 0
M  V30 4607 H 443.565 -2.00739 4.41397 0
M  V30 4608 N 444.908 -1.36708 -0.784132 0
M  V30 4609 C 445.856 -1.31533 -1.91838 0
M  V30 4610 C 446.85 -0.206205 -1.6814 0
M  V30 4611 O 448.056 -0.373519 -1.76082 0
M  V30 4612 H 444.431 -0.409613 -0.630651 0
M  V30 4613 H 446.402 -2.2731 -1.9332 0
M  V30 4614 C 445.151 -1.12679 -3.28936 0
M  V30 4615 H 444.474 -1.97274 -3.4774 0
M  V30 4616 H 445.914 -1.13106 -4.08636 0
M  V30 4617 C 444.373 0.168281 -3.36479 0
M  V30 4618 O 444.903 1.15625 -3.84699 0
M  V30 4619 N 443.109 0.214762 -2.89805 0
M  V30 4620 H 442.656 -0.589852 -2.50756 0
M  V30 4621 H 442.614 1.08094 -2.95234 0
M  V30 4622 N 446.386 1.0089 -1.21074 0
M  V30 4623 C 447.663 1.71834 -0.934469 0
M  V30 4624 C 448.043 2.0368 0.554753 0
M  V30 4625 O 447.391 1.70742 1.51854 0
M  V30 4626 C 447.601 2.98061 -1.8155 0
M  V30 4627 C 448.949 3.7117 -2.06199 0
M  V30 4628 O 449.973 3.08034 -1.78867 0
M  V30 4629 O 448.832 4.84721 -2.52404 0
M  V30 4630 H 445.926 0.749253 -0.35007 0
M  V30 4631 H 448.472 1.06668 -1.31985 0
M  V30 4632 H 447.244 2.70908 -2.82355 0
M  V30 4633 H 446.867 3.70968 -1.43068 0
M  V30 4634 N 447.864 1.01787 1.20321 0
M  V30 4635 C 449.113 0.703249 1.89043 0
M  V30 4636 C 449.426 -0.770445 1.79787 0
M  V30 4637 O 450.632 -1.19767 2.43656 0
M  V30 4638 C 449.088 1.20749 3.3904 0
M  V30 4639 C 448.696 2.70817 3.56878 0
M  V30 4640 C 450.44 0.968352 4.13308 0
M  V30 4641 C 448.347 3.14716 5.00708 0
M  V30 4642 H 447.277 0.259354 0.707991 0
M  V30 4643 H 449.928 1.23072 1.36108 0
M  V30 4644 H 448.31 0.607989 3.91305 0
M  V30 4645 H 449.484 3.36327 3.14993 0
M  V30 4646 H 447.799 2.92888 2.95983 0
M  V30 4647 H 450.396 1.27173 5.19356 0
M  V30 4648 H 450.739 -0.095149 4.16191 0
M  V30 4649 H 451.272 1.53129 3.67146 0
M  V30 4650 H 448.011 4.20347 5.02979 0
M  V30 4651 H 447.531 2.53927 5.43398 0
M  V30 4652 H 449.21 3.07426 5.69296 0
M  V30 4653 N 449.342 -1.36122 0.79427 0
M  V30 4654 C 450.305 -2.28309 0.201889 0
M  V30 4655 C 451.305 -1.49041 -0.603603 0
M  V30 4656 O 452.495 -1.68964 -0.423888 0
M  V30 4657 C 449.627 -3.3321 -0.719978 0
M  V30 4658 H 450.82 -2.82208 1.01481 0
M  V30 4659 H 448.373 -1.45768 0.564037 0
M  V30 4660 H 449.108 -2.84475 -1.55706 0
M  V30 4661 H 448.893 -3.91835 -0.144266 0
M  V30 4662 H 450.383 -4.02044 -1.12916 0
M  V30 4663 N 450.82 -0.546701 -1.47814 0
M  V30 4664 C 452.045 -0.021268 -2.07389 0
M  V30 4665 C 452.47 1.25822 -1.39822 0
M  V30 4666 O 451.828 1.75111 -0.46968 0
M  V30 4667 C 451.876 0.168502 -3.60206 0
M  V30 4668 O 450.98 1.23347 -3.93522 0
M  V30 4669 H 450.321 -0.0466108 -0.662362 0
M  V30 4670 H 452.851 -0.759387 -1.89985 0
M  V30 4671 H 452.861 0.385982 -4.0617 0
M  V30 4672 H 451.536 -0.766075 -4.08784 0
M  V30 4673 H 450.113 0.997319 -3.59316 0
M  V30 4674 N 452.299 1.55045 -0.282633 0
M  V30 4675 C 453.246 2.22822 0.601566 0
M  V30 4676 C 454.216 1.20431 1.14392 0
M  V30 4677 O 455.401 1.48996 1.19184 0
M  V30 4678 C 452.541 2.95873 1.77632 0
M  V30 4679 C 451.654 4.12999 1.26711 0
M  V30 4680 C 450.789 4.73676 2.40426 0
M  V30 4681 C 449.828 5.82981 1.86545 0
M  V30 4682 N 448.965 6.3769 2.93762 0
M  V30 4683 H 453.805 2.97995 0.0169528 0
M  V30 4684 H 451.342 1.471 -0.00339964 0
M  V30 4685 H 453.3 3.36447 2.46697 0
M  V30 4686 H 451.93 2.2311 2.33285 0
M  V30 4687 H 450.982 3.77494 0.469314 0
M  V30 4688 H 452.294 4.91803 0.832518 0
M  V30 4689 H 451.448 5.17008 3.17471 0
M  V30 4690 H 450.187 3.94164 2.87203 0
M  V30 4691 H 449.192 5.39092 1.07983 0
M  V30 4692 H 450.417 6.64366 1.40694 0
M  V30 4693 H 448.363 5.61069 3.39908 0
M  V30 4694 H 448.28 7.11788 2.54744 0
M  V30 4695 H 449.548 6.8568 3.7076 0
M  V30 4696 N 453.777 0.010035 1.57597 0
M  V30 4697 C 455.188 -0.531426 1.78977 0
M  V30 4698 C 455.539 -1.73375 0.918454 0
M  V30 4699 O 454.664 -2.16047 0.123635 0
M  V30 4700 C 455.259 -0.97086 3.24592 0
M  V30 4701 C 453.818 -1.45756 3.47033 0
M  V30 4702 C 452.965 -0.413384 2.74201 0
M  V30 4703 H 455.916 0.236166 1.56933 0
M  V30 4704 H 455.937 -1.83633 3.33255 0
M  V30 4705 H 455.449 -0.0955893 3.87982 0
M  V30 4706 H 453.55 -2.35339 2.88871 0
M  V30 4707 H 453.663 -1.4781 4.55729 0
M  V30 4708 H 452.027 -0.877266 2.39115 0
M  V30 4709 H 452.81 0.453092 3.40297 0
M  V30 4710 N 455.255 -1.55392 -0.262866 0
M  V30 4711 C 456.48 -1.80847 -1.01533 0
M  V30 4712 C 456.905 -0.584946 -1.78774 0
M  V30 4713 O 456.263 0.465701 -1.75217 0
M  V30 4714 C 456.311 -3.03866 -1.94159 0
M  V30 4715 O 455.415 -2.79662 -3.03089 0
M  V30 4716 H 454.756 -0.597441 -0.289759 0
M  V30 4717 H 457.286 -2.02553 -0.288698 0
M  V30 4718 H 457.296 -3.32872 -2.35924 0
M  V30 4719 H 455.971 -3.92564 -1.37354 0
M  V30 4720 H 454.548 -2.61781 -2.65566 0
M  V30 4721 N 456.733 0.527833 -1.48498 0
M  V30 4722 C 457.665 1.6482 -1.5927 0
M  V30 4723 C 458.678 1.55659 -0.476869 0
M  V30 4724 O 459.867 1.62081 -0.747806 0
M  V30 4725 C 456.967 3.0348 -1.50842 0
M  V30 4726 C 456.14 3.381 -2.77502 0
M  V30 4727 C 455.199 4.5605 -2.62497 0
M  V30 4728 O 454.225 4.59165 -3.36387 0
M  V30 4729 N 455.427 5.54353 -1.72257 0
M  V30 4730 H 458.192 1.56015 -2.55889 0
M  V30 4731 H 455.753 0.715152 -1.45249 0
M  V30 4732 H 457.745 3.80264 -1.38496 0
M  V30 4733 H 456.315 3.06352 -0.621887 0
M  V30 4734 H 455.535 2.50473 -3.04396 0
M  V30 4735 H 456.823 3.58017 -3.61527 0
M  V30 4736 H 456.221 5.54617 -1.11431 0
M  V30 4737 H 454.778 6.30347 -1.65849 0
M  V30 4738 N 458.211 1.37122 0.776871 0
M  V30 4739 C 459.121 1.34651 1.9211 0
M  V30 4740 C 460.137 0.246824 1.7224 0
M  V30 4741 O 461.313 0.48134 1.95563 0
M  V30 4742 C 458.378 1.14748 3.2716 0
M  V30 4743 C 457.439 2.34308 3.5972 0
M  V30 4744 C 456.672 2.15345 4.88326 0
M  V30 4745 O 456.895 1.13507 5.58992 0
M  V30 4746 O 455.829 3.03414 5.1983 0
M  V30 4747 H 459.655 2.31013 1.97146 0
M  V30 4748 H 457.24 1.17799 0.918901 0
M  V30 4749 H 459.122 1.05616 4.0795 0
M  V30 4750 H 457.797 0.214562 3.22988 0
M  V30 4751 H 456.704 2.49011 2.79185 0
M  V30 4752 H 458.037 3.26149 3.68629 0
M  V30 4753 N 459.689 -1.00246 1.21608 0
M  V30 4754 C 460.639 -2.07492 0.945051 0
M  V30 4755 C 461.623 -1.60585 -0.100675 0
M  V30 4756 O 462.815 -1.76667 0.10859 0
M  V30 4757 C 459.944 -3.39425 0.514342 0
M  V30 4758 C 459.03 -3.92993 1.59428 0
M  V30 4759 N 459.421 -4.19898 2.81991 0
M  V30 4760 C 457.719 -4.21297 1.46374 0
M  V30 4761 C 458.42 -4.63297 3.51754 0
M  V30 4762 N 457.396 -4.66421 2.79199 0
M  V30 4763 H 461.198 -2.26222 1.87619 0
M  V30 4764 H 458.712 -1.18339 1.11219 0
M  V30 4765 H 460.709 -4.15808 0.301527 0
M  V30 4766 H 459.369 -3.22101 -0.410008 0
M  V30 4767 H 460.38 -4.08377 3.1851 0
M  V30 4768 H 457.057 -4.13095 0.604863 0
M  V30 4769 H 458.447 -4.92816 4.56708 0
M  V30 4770 N 461.167 -1.02423 -1.1978 0
M  V30 4771 C 462.416 -0.713265 -1.88667 0
M  V30 4772 C 462.729 0.7609 -1.80193 0
M  V30 4773 O 463.935 1.18473 -2.44288 0
M  V30 4774 C 462.391 -1.22545 -3.38394 0
M  V30 4775 C 461.999 -2.72706 -3.55437 0
M  V30 4776 C 463.743 -0.990257 -4.12788 0
M  V30 4777 C 461.65 -3.17367 -4.99031 0
M  V30 4778 H 460.58 -0.263105 -0.706606 0
M  V30 4779 H 463.231 -1.23792 -1.35454 0
M  V30 4780 H 461.613 -0.628732 -3.90977 0
M  V30 4781 H 462.787 -3.37993 -3.13205 0
M  V30 4782 H 461.102 -2.94453 -2.94425 0
M  V30 4783 H 463.699 -1.29926 -5.18675 0
M  V30 4784 H 464.042 0.0730761 -4.16236 0
M  V30 4785 H 464.575 -1.55074 -3.66329 0
M  V30 4786 H 461.314 -4.23009 -5.00743 0
M  V30 4787 H 460.834 -2.56805 -5.42044 0
M  V30 4788 H 462.513 -3.10441 -5.67658 0
M  V30 4789 N 462.645 1.35699 -0.801477 0
M  V30 4790 C 463.892 1.98913 -0.379459 0
M  V30 4791 C 464.22 1.63592 1.05204 0
M  V30 4792 O 463.475 0.888563 1.74365 0
M  V30 4793 C 463.774 3.53828 -0.504041 0
M  V30 4794 C 463.44 4.09002 -1.8981 0
M  V30 4795 C 462.102 4.23783 -2.27951 0
M  V30 4796 C 464.454 4.38939 -2.81038 0
M  V30 4797 C 461.782 4.65816 -3.56696 0
M  V30 4798 C 464.134 4.82409 -4.09224 0
M  V30 4799 C 462.798 4.95395 -4.4737 0
M  V30 4800 H 462.068 0.727874 -0.138854 0
M  V30 4801 H 464.715 1.61994 -1.02128 0
M  V30 4802 H 463.02 3.91175 0.221242 0
M  V30 4803 H 464.717 4.00687 -0.158361 0
M  V30 4804 H 461.307 3.97946 -1.59176 0
M  V30 4805 H 465.491 4.27077 -2.52821 0
M  V30 4806 H 460.747 4.74059 -3.86106 0
M  V30 4807 H 464.921 5.04535 -4.80018 0
M  V30 4808 H 462.548 5.27724 -5.47185 0
M  V30 4809 N 464.123 0.554532 1.47522 0
M  V30 4810 C 465.07 -0.19466 2.29978 0
M  V30 4811 C 466.04 -0.910882 1.38896 0
M  V30 4812 O 467.225 -0.907102 1.67858 0
M  V30 4813 C 464.365 -1.22035 3.22802 0
M  V30 4814 C 463.478 -0.510474 4.28973 0
M  V30 4815 C 462.613 -1.52123 5.08952 0
M  V30 4816 C 461.652 -0.796173 6.069 0
M  V30 4817 N 460.789 -1.75363 6.79847 0
M  V30 4818 H 465.629 0.51461 2.93523 0
M  V30 4819 H 463.166 0.265607 1.44682 0
M  V30 4820 H 465.124 -1.8276 3.7504 0
M  V30 4821 H 463.754 -1.89769 2.61127 0
M  V30 4822 H 462.806 0.211234 3.79813 0
M  V30 4823 H 464.118 0.0576503 4.98767 0
M  V30 4824 H 463.272 -2.20207 5.65326 0
M  V30 4825 H 462.011 -2.12327 4.39054 0
M  V30 4826 H 461.016 -0.101388 5.49707 0
M  V30 4827 H 462.241 -0.199911 6.78806 0
M  V30 4828 H 460.187 -2.3443 6.12682 0
M  V30 4829 H 460.104 -1.23759 7.45801 0
M  V30 4830 H 461.372 -2.4257 7.40797 0
M  V30 4831 N 465.601 -1.54893 0.290851 0
M  V30 4832 C 466.847 -2.0023 -0.321867 0
M  V30 4833 C 467.18 -1.179 -1.54316 0
M  V30 4834 O 466.455 -0.25293 -1.92848 0
M  V30 4835 C 466.738 -3.53456 -0.688515 0
M  V30 4836 C 466.591 -4.46532 0.541209 0
M  V30 4837 C 467.91 -4.13057 -1.51895 0
M  V30 4838 H 465.029 -0.727891 -0.115515 0
M  V30 4839 H 467.671 -1.85722 0.400931 0
M  V30 4840 H 465.821 -3.6595 -1.30433 0
M  V30 4841 H 467.493 -4.4596 1.17973 0
M  V30 4842 H 465.736 -4.17545 1.17636 0
M  V30 4843 H 466.407 -5.51475 0.240675 0
M  V30 4844 H 468.883 -4.03937 -0.99872 0
M  V30 4845 H 467.759 -5.20448 -1.74429 0
M  V30 4846 H 468.02 -3.64284 -2.50498 0
M  V30 4847 N 467.08 -0.0183926 -1.57589 0
M  V30 4848 C 467.99 0.982943 -2.13015 0
M  V30 4849 C 469.006 1.36443 -1.07979 0
M  V30 4850 O 470.182 1.44802 -1.3998 0
M  V30 4851 C 467.247 2.25024 -2.63752 0
M  V30 4852 C 466.308 1.93018 -3.83461 0
M  V30 4853 C 465.541 3.13706 -4.31769 0
M  V30 4854 O 465.764 4.2601 -3.79305 0
M  V30 4855 O 464.698 2.96629 -5.23732 0
M  V30 4856 H 468.524 0.541709 -2.9883 0
M  V30 4857 H 466.109 0.201565 -1.48034 0
M  V30 4858 H 467.991 2.99441 -2.96502 0
M  V30 4859 H 466.666 2.68349 -1.81026 0
M  V30 4860 H 465.573 1.16019 -3.55655 0
M  V30 4861 H 466.906 1.54516 -4.67317 0
M  V30 4862 N 468.558 1.5553 0.254621 0
M  V30 4863 C 469.835 1.6774 1.00611 0
M  V30 4864 C 470.215 0.555993 2.03647 0
M  V30 4865 O 469.563 -0.441583 2.24193 0
M  V30 4866 C 469.773 3.07725 1.6464 0
M  V30 4867 C 471.121 3.66074 2.15116 0
M  V30 4868 O 472.145 3.10476 1.74595 0
M  V30 4869 O 471.004 4.63526 2.89493 0
M  V30 4870 H 468.098 0.681958 0.467828 0
M  V30 4871 H 470.644 1.67863 0.24902 0
M  V30 4872 H 469.416 3.80792 0.900734 0
M  V30 4873 H 469.039 3.1158 2.46989 0
M  V30 4874 N 470.036 -0.519951 1.48776 0
M  V30 4875 C 471.283 -1.27522 1.57303 0
M  V30 4876 C 471.611 -1.92869 0.251328 0
M  V30 4877 O 470.866 -1.80372 -0.759243 0
M  V30 4878 C 471.165 -2.37864 2.6675 0
M  V30 4879 C 470.831 -1.90103 4.08867 0
M  V30 4880 C 469.493 -1.76795 4.47546 0
M  V30 4881 C 471.845 -1.54133 4.97888 0
M  V30 4882 C 469.173 -1.25868 5.73039 0
M  V30 4883 C 471.525 -1.04665 6.23881 0
M  V30 4884 C 470.189 -0.899823 6.61407 0
M  V30 4885 H 469.459 -0.466636 0.575614 0
M  V30 4886 H 472.106 -0.579109 1.82534 0
M  V30 4887 H 470.411 -3.13186 2.35418 0
M  V30 4888 H 472.108 -2.95969 2.70561 0
M  V30 4889 H 468.698 -2.01414 3.78326 0
M  V30 4890 H 472.882 -1.6327 4.68675 0
M  V30 4891 H 468.138 -1.13196 6.0083 0
M  V30 4892 H 472.312 -0.759074 6.92251 0
M  V30 4893 H 469.939 -0.503011 7.58534 0
M  V30 4894 N 471.514 -1.37532 -0.769588 0
M  V30 4895 C 472.791 -1.23392 -1.51768 0
M  V30 4896 C 473.171 0.17157 -2.10402 0
M  V30 4897 O 472.519 1.17943 -1.95708 0
M  V30 4898 C 472.729 -2.33163 -2.59685 0
M  V30 4899 C 474.077 -2.70809 -3.27028 0
M  V30 4900 O 475.101 -2.32355 -2.69981 0
M  V30 4901 O 473.96 -3.37066 -4.30173 0
M  V30 4902 H 471.054 -0.481617 -0.67229 0
M  V30 4903 H 473.6 -1.49318 -0.806368 0
M  V30 4904 H 472.372 -3.27273 -2.14494 0
M  V30 4905 H 471.995 -2.08713 -3.38415 0
M  V30 4906 N 472.992 0.995999 -1.22138 0
M  V30 4907 C 473.955 2.06711 -0.990109 0
M  V30 4908 C 474.955 1.60744 0.0422978 0
M  V30 4909 O 476.145 1.73095 -0.195895 0
M  V30 4910 C 473.277 3.37288 -0.49491 0
M  V30 4911 H 474.47 2.28661 -1.94047 0
M  V30 4912 H 472.023 1.16711 -1.03963 0
M  V30 4913 H 472.758 3.21022 0.459948 0
M  V30 4914 H 472.543 3.71986 -1.23971 0
M  V30 4915 H 474.033 4.16103 -0.353253 0
M  V30 4916 N 474.47 1.03057 1.19235 0
M  V30 4917 C 475.4 0.633497 2.24742 0
M  V30 4918 C 476.381 -0.358335 1.66283 0
M  V30 4919 O 477.566 -0.240676 1.92703 0
M  V30 4920 C 474.696 -0.0147648 3.47297 0
M  V30 4921 C 473.65 0.899527 4.18441 0
M  V30 4922 C 472.976 0.116281 5.34574 0
M  V30 4923 C 474.276 2.21404 4.73051 0
M  V30 4924 H 475.97 1.5155 2.58211 0
M  V30 4925 H 473.516 0.73014 1.24117 0
M  V30 4926 H 475.469 -0.304202 4.20301 0
M  V30 4927 H 474.193 -0.931577 3.13032 0
M  V30 4928 H 472.852 1.17319 3.47321 0
M  V30 4929 H 472.5 -0.802619 4.96555 0
M  V30 4930 H 472.2 0.725293 5.83107 0
M  V30 4931 H 473.724 -0.166376 6.10373 0
M  V30 4932 H 475.138 1.98601 5.37802 0
M  V30 4933 H 473.535 2.77512 5.32078 0
M  V30 4934 H 474.605 2.86752 3.91026 0
M  V30 4935 N 475.948 -1.35272 0.808662 0
M  V30 4936 C 476.895 -2.29764 0.218482 0
M  V30 4937 C 477.865 -1.52911 -0.648652 0
M  V30 4938 O 479.05 -1.81341 -0.593297 0
M  V30 4939 C 476.19 -3.39388 -0.625282 0
M  V30 4940 C 475.303 -4.31202 0.262516 0
M  V30 4941 C 474.438 -5.27919 -0.589451 0
M  V30 4942 C 473.477 -6.11371 0.298617 0
M  V30 4943 N 472.614 -7.0022 -0.513443 0
M  V30 4944 H 477.454 -2.79645 1.02968 0
M  V30 4945 H 474.991 -1.37629 0.519303 0
M  V30 4946 H 476.949 -4.01615 -1.12966 0
M  V30 4947 H 475.579 -2.90777 -1.40173 0
M  V30 4948 H 474.631 -3.69962 0.885013 0
M  V30 4949 H 475.943 -4.89748 0.945971 0
M  V30 4950 H 475.097 -5.95529 -1.15888 0
M  V30 4951 H 473.836 -4.69875 -1.30647 0
M  V30 4952 H 472.841 -5.42707 0.880301 0
M  V30 4953 H 474.066 -6.71494 1.01352 0
M  V30 4954 H 472.012 -6.44662 -1.21439 0
M  V30 4955 H 471.929 -7.55917 0.111922 0
M  V30 4956 H 473.197 -7.72175 -1.06608 0
M  V30 4957 N 477.426 -0.562348 -1.47226 0
M  V30 4958 C 478.703 0.0256985 -1.95583 0
M  V30 4959 C 479.083 1.48032 -1.50498 0
M  V30 4960 O 478.431 2.15973 -0.746181 0
M  V30 4961 C 478.641 -0.125129 -3.48776 0
M  V30 4962 C 479.989 0.0175728 -4.24596 0
M  V30 4963 O 481.013 -0.0529341 -3.56161 0
M  V30 4964 O 479.872 0.170145 -5.46235 0
M  V30 4965 H 476.966 0.0612565 -0.824728 0
M  V30 4966 H 479.512 -0.629233 -1.57603 0
M  V30 4967 H 478.284 -1.13715 -3.74412 0
M  V30 4968 H 477.907 0.567178 -3.93534 0
M  V30 4969 N 478.904 1.54736 -0.299062 0
M  V30 4970 C 480.153 1.99279 0.311549 0
M  V30 4971 C 480.466 1.19107 1.55154 0
M  V30 4972 O 481.672 1.53908 2.23662 0
M  V30 4973 C 480.128 3.54768 0.605632 0
M  V30 4974 C 479.736 4.43746 -0.615914 0
M  V30 4975 C 481.48 4.07841 1.17754 0
M  V30 4976 C 479.387 5.90663 -0.29509 0
M  V30 4977 H 478.317 0.744359 0.120187 0
M  V30 4978 H 480.968 1.78919 -0.407464 0
M  V30 4979 H 479.35 3.71021 1.38419 0
M  V30 4980 H 480.524 4.39267 -1.39218 0
M  V30 4981 H 478.839 4.01434 -1.10633 0
M  V30 4982 H 481.436 5.15174 1.43179 0
M  V30 4983 H 481.779 3.58324 2.11918 0
M  V30 4984 H 482.312 3.95123 0.460739 0
M  V30 4985 H 479.051 6.44325 -1.20524 0
M  V30 4986 H 478.571 5.98155 0.44394 0
M  V30 4987 H 480.25 6.46916 0.104048 0
M  V30 4988 N 480.382 0.0267497 1.57577 0
M  V30 4989 C 481.314 -0.984594 2.06974 0
M  V30 4990 C 482.327 -1.29032 0.992705 0
M  V30 4991 O 483.516 -1.25539 1.26895 0
M  V30 4992 C 480.616 -2.31262 2.47732 0
M  V30 4993 C 479.789 -2.1924 3.78487 0
M  V30 4994 C 478.848 -3.34956 4.05821 0
M  V30 4995 O 477.874 -3.11948 4.76106 0
M  V30 4996 N 479.076 -4.58672 3.55809 0
M  V30 4997 H 481.841 -0.563143 2.94362 0
M  V30 4998 H 479.402 -0.160061 1.61107 0
M  V30 4999 H 481.394 -3.07496 2.63112 0
M  V30 5000 H 479.964 -2.65056 1.65723 0
M  V30 5001 H 479.184 -1.27747 3.72927 0
M  V30 5002 H 480.472 -2.08409 4.64158 0
M  V30 5003 H 479.87 -4.8026 2.98942 0
M  V30 5004 H 478.427 -5.32083 3.76472 0
M  V30 5005 N 481.861 -1.55662 -0.24637 0
M  V30 5006 C 482.809 -1.91186 -1.3248 0
M  V30 5007 C 483.803 -0.790996 -1.49799 0
M  V30 5008 O 485.009 -0.975617 -1.51267 0
M  V30 5009 H 481.384 -0.607207 -0.443626 0
M  V30 5010 H 483.355 -2.81221 -0.997853 0
M  V30 5011 C 482.104 -2.22349 -2.67313 0
M  V30 5012 H 481.427 -3.08097 -2.54786 0
M  V30 5013 H 482.867 -2.51107 -3.41645 0
M  V30 5014 C 481.326 -1.04001 -3.20446 0
M  V30 5015 O 481.856 -0.28828 -4.00664 0
M  V30 5016 N 480.062 -0.830494 -2.7848 0
M  V30 5017 H 479.609 -1.4435 -2.13356 0
M  V30 5018 H 479.567 -0.0403258 -3.14374 0
M  V30 5019 N 483.339 0.512053 -1.4905 0
M  V30 5020 C 484.271 1.63121 -1.6101 0
M  V30 5021 C 485.284 1.55145 -0.493352 0
M  V30 5022 O 486.473 1.61278 -0.764955 0
M  V30 5023 C 483.573 3.01863 -1.54052 0
M  V30 5024 C 482.746 3.35138 -2.81072 0
M  V30 5025 C 481.805 4.5324 -2.67319 0
M  V30 5026 O 480.831 4.55571 -3.41238 0
M  V30 5027 N 482.033 5.52495 -1.78127 0
M  V30 5028 H 484.798 1.53292 -2.5753 0
M  V30 5029 H 482.359 0.699706 -1.45999 0
M  V30 5030 H 484.351 3.78774 -1.42521 0
M  V30 5031 H 482.921 3.05675 -0.654345 0
M  V30 5032 H 482.141 2.4723 -3.07036 0
M  V30 5033 H 483.429 3.54162 -3.65304 0
M  V30 5034 H 482.827 5.53403 -1.17308 0
M  V30 5035 H 481.384 6.28553 -1.72525 0
M  V30 5036 N 484.817 1.37938 0.762283 0
M  V30 5037 C 485.747 1.37176 1.88958 0
M  V30 5038 C 486.728 0.238945 1.68413 0
M  V30 5039 O 487.913 0.440726 1.89133 0
M  V30 5040 C 485.043 1.18742 3.2637 0
M  V30 5041 C 483.997 2.29136 3.61498 0
M  V30 5042 C 483.323 1.95816 4.97554 0
M  V30 5043 C 484.623 3.71363 3.6727 0
M  V30 5044 H 486.317 2.31509 1.89853 0
M  V30 5045 H 483.863 1.11438 0.912005 0
M  V30 5046 H 485.816 1.16837 4.04879 0
M  V30 5047 H 484.54 0.208683 3.25933 0
M  V30 5048 H 483.199 2.30213 2.85303 0
M  V30 5049 H 482.847 0.964475 4.93667 0
M  V30 5050 H 482.547 2.69745 5.22026 0
M  V30 5051 H 484.071 1.95513 5.78452 0
M  V30 5052 H 485.485 3.72364 4.35911 0
M  V30 5053 H 483.882 4.44425 4.03245 0
M  V30 5054 H 484.952 4.04305 2.67704 0
M  V30 5055 N 486.295 -0.989507 1.22664 0
M  V30 5056 C 487.242 -2.08024 0.999733 0
M  V30 5057 C 488.212 -1.65909 -0.0797047 0
M  V30 5058 O 489.397 -1.90669 0.0705715 0
M  V30 5059 C 486.537 -3.40067 0.587234 0
M  V30 5060 C 485.65 -3.95505 1.73781 0
M  V30 5061 C 484.785 -5.15722 1.27297 0
M  V30 5062 C 483.824 -5.63305 2.39488 0
M  V30 5063 N 482.961 -6.74758 1.94026 0
M  V30 5064 H 487.801 -2.26768 1.9334 0
M  V30 5065 H 485.338 -1.11171 0.963297 0
M  V30 5066 H 487.296 -4.15899 0.329227 0
M  V30 5067 H 485.926 -3.21314 -0.309426 0
M  V30 5068 H 484.978 -3.16513 2.11006 0
M  V30 5069 H 486.29 -4.26797 2.58158 0
M  V30 5070 H 485.444 -5.98854 0.972546 0
M  V30 5071 H 484.183 -4.86061 0.399445 0
M  V30 5072 H 483.188 -4.78759 2.70315 0
M  V30 5073 H 484.413 -5.94988 3.27362 0
M  V30 5074 H 482.359 -6.46874 1.09041 0
M  V30 5075 H 482.276 -7.05386 2.71968 0
M  V30 5076 H 483.544 -7.61387 1.67062 0
M  V30 5077 N 487.773 -1.03688 -1.18687 0
M  V30 5078 C 488.683 -0.634908 -2.25845 0
M  V30 5079 C 489.699 0.337065 -1.70704 0
M  V30 5080 O 490.875 0.192943 -2.00474 0
M  V30 5081 C 487.94 -0.000180054 -3.467 0
M  V30 5082 C 487.001 -1.02067 -4.1699 0
M  V30 5083 C 486.234 -0.41614 -5.32075 0
M  V30 5084 O 486.457 0.778712 -5.65059 0
M  V30 5085 O 485.391 -1.14296 -5.90948 0
M  V30 5086 H 489.217 -1.52757 -2.62486 0
M  V30 5087 H 486.802 -0.807533 -1.25695 0
M  V30 5088 H 488.684 0.353342 -4.19916 0
M  V30 5089 H 487.359 0.866367 -3.11891 0
M  V30 5090 H 486.266 -1.42592 -3.45859 0
M  V30 5091 H 487.599 -1.85786 -4.5579 0
M  V30 5092 N 489.251 1.34841 -0.815825 0
M  V30 5093 C 490.198 2.29644 -0.230664 0
M  V30 5094 C 491.168 1.53253 0.640533 0
M  V30 5095 O 492.353 1.81653 0.583672 0
M  V30 5096 C 489.493 3.39715 0.607275 0
M  V30 5097 C 488.606 4.31056 -0.28538 0
M  V30 5098 C 487.741 5.28225 0.561446 0
M  V30 5099 C 486.78 6.11204 -0.331035 0
M  V30 5100 N 485.917 7.00483 0.476302 0
M  V30 5101 H 490.757 2.79095 -1.0445 0
M  V30 5102 H 488.294 1.37351 -0.526595 0
M  V30 5103 H 490.252 4.02208 1.10835 0
M  V30 5104 H 488.882 2.91517 1.38629 0
M  V30 5105 H 487.934 3.69487 -0.904621 0
M  V30 5106 H 489.246 4.89239 -0.97193 0
M  V30 5107 H 488.4 5.96135 1.12728 0
M  V30 5108 H 487.139 4.70562 1.28153 0
M  V30 5109 H 486.144 5.42232 -0.909069 0
M  V30 5110 H 487.369 6.70947 -1.04912 0
M  V30 5111 H 485.315 6.45296 1.18019 0
M  V30 5112 H 485.232 7.55847 -0.152008 0
M  V30 5113 H 486.5 7.7273 1.02512 0
M  V30 5114 N 490.729 0.570148 1.46925 0
M  V30 5115 C 491.978 0.0487352 2.01641 0
M  V30 5116 C 492.291 -1.31433 1.44861 0
M  V30 5117 O 493.497 -1.92638 1.91318 0
M  V30 5118 C 491.953 0.0365817 3.59881 0
M  V30 5119 C 491.561 1.39719 4.25655 0
M  V30 5120 C 493.305 -0.431545 4.22301 0
M  V30 5121 C 491.212 1.34345 5.75939 0
M  V30 5122 H 490.142 0.0144492 0.753862 0
M  V30 5123 H 492.793 0.719928 1.68788 0
M  V30 5124 H 491.175 -0.700522 3.89755 0
M  V30 5125 H 492.349 2.15303 4.07408 0
M  V30 5126 H 490.664 1.80431 3.75278 0
M  V30 5127 H 493.261 -0.490354 5.32447 0
M  V30 5128 H 493.604 -1.44638 3.90366 0
M  V30 5129 H 494.137 0.251102 3.97007 0
M  V30 5130 H 490.876 2.33469 6.12513 0
M  V30 5131 H 490.396 0.629615 5.96486 0
M  V30 5132 H 492.075 1.051 6.38407 0
M  V30 5133 N 492.207 -1.54576 0.307264 0
M  V30 5134 C 493.454 -2.00263 -0.300167 0
M  V30 5135 C 493.782 -1.19561 -1.53413 0
M  V30 5136 O 493.037 -0.261487 -1.93945 0
M  V30 5137 C 493.336 -3.50572 -0.695253 0
M  V30 5138 C 493.002 -4.48771 0.437679 0
M  V30 5139 C 491.664 -4.7534 0.748681 0
M  V30 5140 C 494.016 -5.0721 1.19949 0
M  V30 5141 C 491.344 -5.5761 1.8245 0
M  V30 5142 C 493.696 -5.90651 2.26527 0
M  V30 5143 C 492.36 -6.15528 2.58227 0
M  V30 5144 H 491.63 -0.732814 -0.109839 0
M  V30 5145 H 494.277 -1.86664 0.427661 0
M  V30 5146 H 492.582 -3.61814 -1.50326 0
M  V30 5147 H 494.279 -3.83352 -1.17653 0
M  V30 5148 H 490.869 -4.282 0.185187 0
M  V30 5149 H 495.053 -4.86679 0.972474 0
M  V30 5150 H 490.309 -5.75121 2.07476 0
M  V30 5151 H 494.483 -6.34957 2.86011 0
M  V30 5152 H 492.11 -6.79066 3.4172 0
M  V30 5153 N 493.685 -0.035106 -1.57561 0
M  V30 5154 C 494.648 0.929819 -2.09492 0
M  V30 5155 C 495.648 1.25026 -1.01119 0
M  V30 5156 O 496.838 1.18961 -1.27255 0
M  V30 5157 C 493.97 2.24457 -2.56577 0
M  V30 5158 H 495.163 0.479935 -2.96035 0
M  V30 5159 H 492.716 0.213033 -1.54841 0
M  V30 5160 H 493.451 2.74061 -1.73382 0
M  V30 5161 H 493.236 2.02508 -3.35757 0
M  V30 5162 H 494.726 2.93607 -2.96959 0
M  V30 5163 N 495.163 1.55791 0.238111 0
M  V30 5164 C 496.412 1.77234 0.962868 0
M  V30 5165 C 496.725 0.600661 1.86149 0
M  V30 5166 O 497.931 0.698315 2.62366 0
M  V30 5167 C 496.387 3.13808 1.76218 0
M  V30 5168 C 495.995 4.3865 0.910518 0
M  V30 5169 C 497.739 3.44585 2.47914 0
M  V30 5170 C 495.646 5.66252 1.70623 0
M  V30 5171 H 494.576 0.660731 0.36325 0
M  V30 5172 H 497.227 1.8221 0.217242 0
M  V30 5173 H 495.609 3.02963 2.55009 0
M  V30 5174 H 496.783 4.60507 0.164316 0
M  V30 5175 H 495.098 4.15271 0.30647 0
M  V30 5176 H 497.695 4.3714 3.07917 0
M  V30 5177 H 498.038 2.66314 3.19973 0
M  V30 5178 H 498.571 3.56685 1.76127 0
M  V30 5179 H 495.31 6.47369 1.02923 0
M  V30 5180 H 494.83 5.48483 2.42748 0
M  V30 5181 H 496.509 6.05829 2.27114 0
M  V30 5182 N 496.642 -0.504142 1.49319 0
M  V30 5183 C 497.552 -1.63248 1.68486 0
M  V30 5184 C 498.568 -1.64488 0.567432 0
M  V30 5185 O 499.744 -1.82966 0.841749 0
M  V30 5186 C 496.809 -2.99627 1.74426 0
M  V30 5187 C 495.87 -3.09039 2.97982 0
M  V30 5188 C 495.103 -4.38913 3.0363 0
M  V30 5189 O 495.326 -5.27528 2.16958 0
M  V30 5190 O 494.26 -4.53231 3.96062 0
M  V30 5191 H 498.086 -1.50008 2.64067 0
M  V30 5192 H 495.671 -0.680086 1.33023 0
M  V30 5193 H 497.553 -3.80689 1.80705 0
M  V30 5194 H 496.228 -3.13136 0.820233 0
M  V30 5195 H 495.135 -2.27177 2.97223 0
M  V30 5196 H 496.468 -3.00456 3.89855 0
M  V30 5197 N 498.12 -1.38341 -0.754957 0
M  V30 5198 C 499.368 -1.34208 -1.51105 0
M  V30 5199 C 499.689 0.0677634 -1.94882 0
M  V30 5200 O 498.959 1.01517 -1.67544 0
M  V30 5201 H 497.539 -0.493819 -0.560493 0
M  V30 5202 H 500.201 -1.73005 -0.897507 0
M  V30 5203 H 499.297 -1.99203 -2.4026 0
M  V30 5204 N 499.598 0.982988 -1.23187 0
M  V30 5205 C 500.826 1.75921 -1.08901 0
M  V30 5206 C 501.241 1.85341 0.359719 0
M  V30 5207 O 500.598 1.33072 1.24892 0
M  V30 5208 C 500.649 3.18742 -1.70545 0
M  V30 5209 O 500.37 3.09814 -3.09753 0
M  V30 5210 C 501.871 4.1277 -1.61667 0
M  V30 5211 H 499.091 0.552166 -0.381252 0
M  V30 5212 H 501.635 1.23516 -1.62985 0
M  V30 5213 H 499.79 3.68182 -1.20501 0
M  V30 5214 H 500.204 3.99703 -3.39614 0
M  V30 5215 H 501.678 5.10697 -2.09506 0
M  V30 5216 H 502.155 4.3542 -0.575009 0
M  V30 5217 H 502.761 3.69232 -2.11064 0
M  V30 5218 N 501.076 1.04316 1.18135 0
M  V30 5219 C 501.986 0.646876 2.25505 0
M  V30 5220 C 503.002 -0.328008 1.7088 0
M  V30 5221 O 504.178 -0.182309 2.00573 0
M  V30 5222 C 501.243 0.0185664 3.46695 0
M  V30 5223 C 500.304 1.04277 4.16443 0
M  V30 5224 C 499.537 0.444352 5.31847 0
M  V30 5225 O 499.76 -0.748735 5.65465 0
M  V30 5226 O 498.694 1.17428 5.90334 0
M  V30 5227 H 502.52 1.54147 2.61672 0
M  V30 5228 H 500.105 0.814188 1.25265 0
M  V30 5229 H 501.987 -0.331068 4.20097 0
M  V30 5230 H 500.662 -0.849814 3.12346 0
M  V30 5231 H 499.569 1.44425 3.45098 0
M  V30 5232 H 500.902 1.882 4.54798 0
M  V30 5233 N 502.554 -1.34406 0.822964 0
M  V30 5234 C 503.782 -2.02508 0.424039 0
M  V30 5235 C 504.197 -1.61975 -0.970022 0
M  V30 5236 O 503.554 -0.825228 -1.62777 0
M  V30 5237 C 503.605 -3.57789 0.516657 0
M  V30 5238 O 503.326 -3.96853 1.85577 0
M  V30 5239 C 504.827 -4.43157 0.112637 0
M  V30 5240 H 502.047 -0.649063 0.170173 0
M  V30 5241 H 504.591 -1.7168 1.11113 0
M  V30 5242 H 502.746 -3.87207 -0.122353 0
M  V30 5243 H 503.16 -4.91538 1.83005 0
M  V30 5244 H 504.634 -5.51527 0.228526 0
M  V30 5245 H 505.111 -4.28939 -0.943837 0
M  V30 5246 H 505.717 -4.19067 0.725449 0
M  V30 5247 N 504.032 -0.577932 -1.46621 0
M  V30 5248 C 505.26 -0.0671642 -2.06791 0
M  V30 5249 C 505.675 1.23571 -1.42743 0
M  V30 5250 O 505.032 1.74602 -0.531062 0
M  V30 5251 C 505.083 0.110357 -3.61332 0
M  V30 5252 O 504.804 -1.14095 -4.22982 0
M  V30 5253 C 506.305 0.656025 -4.38419 0
M  V30 5254 H 503.525 -0.0552732 -0.66872 0
M  V30 5255 H 506.069 -0.797242 -1.8832 0
M  V30 5256 H 504.224 0.790637 -3.79246 0
M  V30 5257 H 504.638 -0.951742 -5.15793 0
M  V30 5258 H 506.112 0.729438 -5.47159 0
M  V30 5259 H 506.589 1.67195 -4.06131 0
M  V30 5260 H 507.195 0.0107692 -4.25299 0
M  V30 5261 N 505.51 1.54411 -0.315457 0
M  V30 5262 C 506.735 2.05299 0.294496 0
M  V30 5263 C 507.16 1.19052 1.4563 0
M  V30 5264 O 506.518 0.197804 1.80218 0
M  V30 5265 C 506.566 3.5345 0.714549 0
M  V30 5266 O 505.67 3.70175 1.81781 0
M  V30 5267 H 505.011 0.661743 0.0547019 0
M  V30 5268 H 507.541 1.99327 -0.461508 0
M  V30 5269 H 507.551 3.9557 0.999426 0
M  V30 5270 H 506.226 4.1568 -0.135244 0
M  V30 5271 H 504.803 3.3996 1.53236 0
M  V30 5272 N 506.988 0.0434614 1.5754 0
M  V30 5273 C 508.213 -0.645358 1.97104 0
M  V30 5274 C 508.638 -1.64037 0.920521 0
M  V30 5275 O 507.996 -1.80922 -0.11708 0
M  V30 5276 C 508.044 -1.31547 3.35749 0
M  V30 5277 O 507.148 -2.43103 3.33129 0
M  V30 5278 H 506.489 -0.168403 0.64229 0
M  V30 5279 H 509.019 0.109573 2.04306 0
M  V30 5280 H 509.029 -1.66895 3.72304 0
M  V30 5281 H 507.704 -0.586205 4.11748 0
M  V30 5282 H 506.281 -2.0976 3.0831 0
M  V30 5283 N 508.466 -1.55915 -0.229846 0
M  V30 5284 C 509.691 -1.8296 -0.976743 0
M  V30 5285 C 510.116 -0.622735 -1.77493 0
M  V30 5286 O 509.474 0.428431 -1.76165 0
M  V30 5287 C 509.522 -3.07916 -1.8767 0
M  V30 5288 O 508.626 -2.86028 -2.97088 0
M  V30 5289 H 507.967 -0.603453 -0.277021 0
M  V30 5290 H 510.497 -2.0312 -0.245669 0
M  V30 5291 H 510.507 -3.37802 -2.2881 0
M  V30 5292 H 509.182 -3.95389 -1.28996 0
M  V30 5293 H 507.759 -2.67355 -2.59954 0
M  V30 5294 N 509.944 0.496216 -1.49584 0
M  V30 5295 C 511.169 1.27865 -1.63295 0
M  V30 5296 C 511.594 1.85592 -0.306156 0
M  V30 5297 O 510.952 1.66092 0.726851 0
M  V30 5298 C 511 2.38128 -2.7079 0
M  V30 5299 O 510.104 3.42108 -2.30296 0
M  V30 5300 H 509.445 0.377279 -0.546403 0
M  V30 5301 H 511.975 0.593497 -1.95803 0
M  V30 5302 H 511.985 2.8382 -2.93104 0
M  V30 5303 H 510.66 1.95479 -3.67098 0
M  V30 5304 H 509.237 3.02301 -2.18331 0
M  V30 5305 N 511.423 1.38739 0.74761 0
M  V30 5306 C 512.67 1.35274 1.50689 0
M  V30 5307 C 512.998 -0.0553359 1.94421 0
M  V30 5308 O 512.253 -1.03365 1.66175 0
M  V30 5309 C 512.552 2.25992 2.7688 0
M  V30 5310 C 512.218 3.73854 2.5208 0
M  V30 5311 C 510.88 4.14145 2.45025 0
M  V30 5312 C 513.232 4.67427 2.30568 0
M  V30 5313 C 510.56 5.4609 2.14483 0
M  V30 5314 C 512.912 5.99635 2.01545 0
M  V30 5315 C 511.576 6.39004 1.92951 0
M  V30 5316 H 510.846 0.495003 0.55141 0
M  V30 5317 H 513.493 1.71145 0.859158 0
M  V30 5318 H 511.798 1.83196 3.46333 0
M  V30 5319 H 513.495 2.20611 3.34861 0
M  V30 5320 H 510.085 3.41913 2.58444 0
M  V30 5321 H 514.269 4.3714 2.34994 0
M  V30 5322 H 509.525 5.75528 2.06342 0
M  V30 5323 H 513.699 6.71678 1.83906 0
M  V30 5324 H 511.326 7.41165 1.6905 0
M  V30 5325 N 512.901 -0.976442 1.23707 0
M  V30 5326 C 513.811 -2.10359 1.03856 0
M  V30 5327 C 514.827 -1.73991 -0.0180919 0
M  V30 5328 O 516.003 -2.0061 0.178211 0
M  V30 5329 C 513.068 -3.40809 0.636387 0
M  V30 5330 C 512.129 -3.91179 1.76854 0
M  V30 5331 C 511.362 -5.15404 1.38546 0
M  V30 5332 O 511.585 -5.69754 0.27142 0
M  V30 5333 O 510.519 -5.5994 2.20797 0
M  V30 5334 H 514.345 -2.29997 1.98331 0
M  V30 5335 H 511.93 -1.08742 1.02448 0
M  V30 5336 H 513.812 -4.19269 0.423223 0
M  V30 5337 H 512.487 -3.22493 -0.279322 0
M  V30 5338 H 511.394 -3.13819 2.03638 0
M  V30 5339 H 512.727 -4.13958 2.6627 0
M  V30 5340 N 514.379 -1.04941 -1.1758 0
M  V30 5341 C 515.309 -0.669172 -2.23706 0
M  V30 5342 C 516.29 0.331835 -1.66832 0
M  V30 5343 O 517.475 0.209988 -1.93061 0
M  V30 5344 C 514.605 -0.0404889 -3.47276 0
M  V30 5345 C 513.559 -0.965983 -4.16957 0
M  V30 5346 C 512.885 -0.201312 -5.34321 0
M  V30 5347 C 514.185 -2.28902 -4.69469 0
M  V30 5348 H 515.879 -1.55639 -2.55767 0
M  V30 5349 H 513.425 -0.749793 -1.22939 0
M  V30 5350 H 515.378 0.237298 -4.20731 0
M  V30 5351 H 514.102 0.881658 -3.14475 0
M  V30 5352 H 512.761 -1.22829 -3.45411 0
M  V30 5353 H 512.409 0.723519 -4.97769 0
M  V30 5354 H 512.109 -0.817968 -5.81879 0
M  V30 5355 H 513.633 0.0692499 -6.10561 0
M  V30 5356 H 515.047 -2.07132 -5.34574 0
M  V30 5357 H 513.444 -2.85942 -5.27596 0
M  V30 5358 H 514.514 -2.92937 -3.86414 0
M  V30 5359 N 515.857 1.33968 -0.830081 0
M  V30 5360 C 516.767 2.33164 -0.259207 0
M  V30 5361 C 517.783 1.62951 0.610164 0
M  V30 5362 O 518.959 1.94668 0.516369 0
M  V30 5363 C 516.024 3.42088 0.563598 0
M  V30 5364 C 515.085 4.28037 -0.329014 0
M  V30 5365 C 514.318 5.3176 0.454616 0
M  V30 5366 O 514.541 5.44876 1.6872 0
M  V30 5367 O 513.475 6.01669 -0.166794 0
M  V30 5368 H 517.301 2.83832 -1.08041 0
M  V30 5369 H 514.886 1.37154 -0.59239 0
M  V30 5370 H 516.768 4.08581 1.03147 0
M  V30 5371 H 515.443 2.93651 1.36201 0
M  V30 5372 H 514.35 3.64443 -0.844538 0
M  V30 5373 H 515.683 4.79934 -1.09196 0
M  V30 5374 N 517.335 0.585699 1.46312 0
M  V30 5375 C 518.268 -0.194257 2.27372 0
M  V30 5376 C 519.246 -0.894116 1.3581 0
M  V30 5377 O 520.43 -0.907402 1.65222 0
M  V30 5378 C 517.557 -1.27901 3.13622 0
M  V30 5379 C 516.603 -0.684666 4.20969 0
M  V30 5380 S 517.436 0.490745 5.33247 0
M  V30 5381 C 518.592 -0.595137 6.23064 0
M  V30 5382 H 518.825 0.493515 2.93175 0
M  V30 5383 H 516.358 0.372666 1.49835 0
M  V30 5384 H 518.316 -1.90008 3.63878 0
M  V30 5385 H 516.977 -1.93875 2.47126 0
M  V30 5386 H 516.17 -1.50015 4.81156 0
M  V30 5387 H 515.772 -0.139204 3.73741 0
M  V30 5388 H 518.064 -1.48002 6.61137 0
M  V30 5389 H 519.007 -0.0299446 7.08094 0
M  V30 5390 H 519.415 -0.900627 5.57269 0
M  V30 5391 N 518.813 -1.54241 0.323641 0
M  V30 5392 C 519.776 -2.22997 -0.529602 0
M  V30 5393 C 520.776 -1.22345 -1.04347 0
M  V30 5394 O 521.966 -1.46924 -0.935889 0
M  V30 5395 C 519.098 -2.93409 -1.73562 0
M  V30 5396 H 520.291 -2.99815 0.0714518 0
M  V30 5397 H 517.844 -1.56121 0.0747258 0
M  V30 5398 H 518.579 -2.20729 -2.37591 0
M  V30 5399 H 518.364 -3.67217 -1.37456 0
M  V30 5400 H 519.854 -3.45794 -2.34128 0
M  V30 5401 N 520.291 -0.0518155 -1.57515 0
M  V30 5402 C 521.223 0.951542 -2.08515 0
M  V30 5403 C 522.236 1.27436 -1.01311 0
M  V30 5404 O 523.425 1.23504 -1.28876 0
M  V30 5405 C 520.525 2.27291 -2.5138 0
M  V30 5406 C 519.698 2.13191 -3.81927 0
M  V30 5407 C 518.757 3.28458 -4.11098 0
M  V30 5408 O 517.783 3.04334 -4.81009 0
M  V30 5409 N 518.985 4.52954 -3.63061 0
M  V30 5410 H 521.75 0.516242 -2.9522 0
M  V30 5411 H 519.311 0.13441 -1.61341 0
M  V30 5412 H 521.303 3.03272 -2.67971 0
M  V30 5413 H 519.873 2.62386 -1.69919 0
M  V30 5414 H 519.093 1.21798 -3.74912 0
M  V30 5415 H 520.381 2.00999 -4.67415 0
M  V30 5416 H 519.779 4.75444 -3.06545 0
M  V30 5417 H 518.336 5.26026 -3.84889 0
M  V30 5418 N 521.769 1.56035 0.221574 0
M  V30 5419 C 522.679 1.95581 1.29558 0
M  V30 5420 C 523.695 0.859639 1.51282 0
M  V30 5421 O 524.871 1.16321 1.64413 0
M  V30 5422 C 521.936 2.26447 2.62531 0
M  V30 5423 C 520.997 3.49632 2.4911 0
M  V30 5424 C 520.23 3.79017 3.75742 0
M  V30 5425 O 520.453 3.10077 4.78757 0
M  V30 5426 O 519.387 4.72507 3.72855 0
M  V30 5427 H 523.213 2.8711 0.990035 0
M  V30 5428 H 520.798 1.43244 0.424434 0
M  V30 5429 H 522.68 2.47494 3.41064 0
M  V30 5430 H 521.355 1.38092 2.92766 0
M  V30 5431 H 520.262 3.33864 1.68777 0
M  V30 5432 H 521.595 4.3837 2.23814 0
M  V30 5433 N 523.247 -0.488276 1.49845 0
M  V30 5434 C 524.495 -1.23911 1.59657 0
M  V30 5435 C 524.816 -1.92816 0.291005 0
M  V30 5436 O 524.086 -1.83328 -0.690485 0
M  V30 5437 H 522.666 -0.460357 0.588286 0
M  V30 5438 H 525.328 -0.564794 1.86537 0
M  V30 5439 H 524.424 -1.99625 2.39909 0
M  V30 5440 N 524.725 -1.39134 -0.740242 0
M  V30 5441 C 525.972 -1.36071 -1.49969 0
M  V30 5442 C 526.3 0.0450245 -1.94448 0
M  V30 5443 O 525.555 1.02482 -1.66721 0
M  V30 5444 C 525.854 -2.27457 -2.75678 0
M  V30 5445 C 525.52 -3.75185 -2.50094 0
M  V30 5446 C 524.182 -4.15439 -2.42825 0
M  V30 5447 C 526.534 -4.68643 -2.28086 0
M  V30 5448 C 523.862 -5.4722 -2.11584 0
M  V30 5449 C 526.214 -6.00695 -1.98363 0
M  V30 5450 C 524.878 -6.40018 -1.8956 0
M  V30 5451 H 524.148 -0.497921 -0.548777 0
M  V30 5452 H 526.795 -1.71599 -0.85007 0
M  V30 5453 H 525.1 -1.8503 -3.45356 0
M  V30 5454 H 526.797 -2.22384 -3.33686 0
M  V30 5455 H 523.387 -3.43279 -2.56627 0
M  V30 5456 H 527.571 -4.3838 -2.32672 0
M  V30 5457 H 522.827 -5.76615 -2.03287 0
M  V30 5458 H 527.001 -6.72644 -1.80341 0
M  V30 5459 H 524.628 -7.42051 -1.65117 0
M  V30 5460 N 526.204 0.969867 -1.24223 0
M  V30 5461 C 527.429 1.75289 -1.10853 0
M  V30 5462 C 527.854 1.85091 0.335079 0
M  V30 5463 O 527.212 1.32024 1.24255 0
M  V30 5464 C 527.26 3.15255 -1.75062 0
M  V30 5465 O 526.364 3.99589 -1.01992 0
M  V30 5466 H 525.705 0.538904 -0.387915 0
M  V30 5467 H 528.235 1.21675 -1.64488 0
M  V30 5468 H 528.245 3.65787 -1.80731 0
M  V30 5469 H 526.92 3.07436 -2.801 0
M  V30 5470 H 525.497 3.58077 -1.04094 0
M  V30 5471 N 527.682 1.05563 1.17022 0
M  V30 5472 C 528.645 0.664098 2.19368 0
M  V30 5473 C 529.645 -0.286358 1.5823 0
M  V30 5474 O 530.835 -0.069728 1.7406 0
M  V30 5475 C 527.967 -0.0239932 3.40892 0
M  V30 5476 H 529.16 1.57 2.55521 0
M  V30 5477 H 526.713 0.849964 1.31169 0
M  V30 5478 H 527.448 -0.942988 3.10287 0
M  V30 5479 H 527.233 0.659351 3.86516 0
M  V30 5480 H 528.723 -0.283909 4.16634 0
M  V30 5481 N 529.16 -1.33526 0.837174 0
M  V30 5482 C 530.406 -1.9813 0.432704 0
M  V30 5483 C 530.739 -1.66168 -1.00508 0
M  V30 5484 O 530.014 -0.94069 -1.70239 0
M  V30 5485 C 530.297 -3.54151 0.651834 0
M  V30 5486 C 530.15 -3.95806 2.13676 0
M  V30 5487 C 531.469 -4.39993 0.0968937 0
M  V30 5488 H 528.588 -0.719713 0.15869 0
M  V30 5489 H 531.23 -1.58193 1.05237 0
M  V30 5490 H 529.38 -3.88301 0.124369 0
M  V30 5491 H 531.052 -3.71921 2.72896 0
M  V30 5492 H 529.295 -3.45599 2.62191 0
M  V30 5493 H 529.966 -5.0447 2.24084 0
M  V30 5494 H 532.442 -4.12479 0.547733 0
M  V30 5495 H 531.318 -5.48186 0.279917 0
M  V30 5496 H 531.579 -4.3066 -0.9992 0
M  V30 5497 N 530.638 -0.59345 -1.46 0
M  V30 5498 C 531.885 -0.0831523 -2.02329 0
M  V30 5499 C 532.213 1.28093 -1.46364 0
M  V30 5500 O 531.468 1.85526 -0.622793 0
M  V30 5501 C 531.767 0.021178 -3.57394 0
M  V30 5502 C 531.433 -1.27671 -4.32448 0
M  V30 5503 C 530.095 -1.63227 -4.5267 0
M  V30 5504 C 532.447 -2.13511 -4.7546 0
M  V30 5505 C 529.775 -2.84401 -5.1316 0
M  V30 5506 C 532.127 -3.33922 -5.37289 0
M  V30 5507 C 530.791 -3.69747 -5.55737 0
M  V30 5508 H 530.061 -0.0304276 -0.740375 0
M  V30 5509 H 532.708 -0.772239 -1.75239 0
M  V30 5510 H 531.013 0.793454 -3.83682 0
M  V30 5511 H 532.71 0.431942 -3.98667 0
M  V30 5512 H 529.3 -0.989937 -4.17011 0
M  V30 5513 H 533.484 -1.87344 -4.59582 0
M  V30 5514 H 528.74 -3.12282 -5.25633 0
M  V30 5515 H 532.914 -4.00698 -5.69574 0
M  V30 5516 H 530.541 -4.6373 -6.02377 0
M  V30 5517 N 532.116 1.54067 -0.331816 0
M  V30 5518 C 533.344 2.05131 0.269996 0
M  V30 5519 C 533.759 1.20749 1.45138 0
M  V30 5520 O 533.116 0.240069 1.80914 0
M  V30 5521 C 533.167 3.54728 0.696456 0
M  V30 5522 O 532.888 4.35906 -0.43794 0
M  V30 5523 C 534.389 4.21916 1.36021 0
M  V30 5524 H 531.609 0.668807 0.0542042 0
M  V30 5525 H 534.153 1.98777 -0.4804 0
M  V30 5526 H 532.308 3.61342 1.39681 0
M  V30 5527 H 532.722 5.24404 -0.100334 0
M  V30 5528 H 534.196 5.28015 1.60947 0
M  V30 5529 H 534.673 3.73538 2.31011 0
M  V30 5530 H 535.279 4.19463 0.702212 0
M  V30 5531 N 533.594 0.0601682 1.57485 0
M  V30 5532 C 535.005 -0.474217 1.80577 0
M  V30 5533 C 535.356 -1.70365 0.973147 0
M  V30 5534 O 534.481 -2.15544 0.192306 0
M  V30 5535 C 535.076 -0.867102 3.27516 0
M  V30 5536 C 533.635 -1.34642 3.51495 0
M  V30 5537 C 532.782 -0.32594 2.75378 0
M  V30 5538 H 535.733 0.285973 1.56102 0
M  V30 5539 H 535.754 -1.72938 3.38929 0
M  V30 5540 H 535.266 0.0278927 3.8809 0
M  V30 5541 H 533.367 -2.2603 2.96212 0
M  V30 5542 H 533.48 -1.33237 4.60201 0
M  V30 5543 H 531.844 -0.800749 2.41785 0
M  V30 5544 H 532.627 0.561125 3.38683 0
M  V30 5545 N 535.072 -1.5615 -0.213296 0
M  V30 5546 C 536.349 -1.70349 -0.961281 0
M  V30 5547 C 536.729 -0.609791 -2.02101 0
M  V30 5548 O 536.077 0.381987 -2.25285 0
M  V30 5549 C 536.287 -3.11982 -1.56424 0
M  V30 5550 C 537.635 -3.71649 -2.05334 0
M  V30 5551 O 538.659 -3.14995 -1.66302 0
M  V30 5552 O 537.518 -4.71038 -2.77102 0
M  V30 5553 H 534.612 -0.694121 -0.449582 0
M  V30 5554 H 537.158 -1.68464 -0.204426 0
M  V30 5555 H 535.93 -3.83046 -0.799457 0
M  V30 5556 H 535.553 -3.18019 -2.38641 0
M  V30 5557 N 536.55 0.480323 -1.50102 0
M  V30 5558 C 537.798 1.23063 -1.60312 0
M  V30 5559 C 538.119 1.92659 -0.301226 0
M  V30 5560 O 537.389 1.83691 0.680753 0
M  V30 5561 H 535.969 0.457231 -0.590719 0
M  V30 5562 H 538.631 0.554893 -1.86834 0
M  V30 5563 H 537.727 1.9835 -2.40964 0
M  V30 5564 N 538.028 1.39524 0.732853 0
M  V30 5565 C 539.439 1.32905 1.31122 0
M  V30 5566 C 539.79 -0.00558708 1.96199 0
M  V30 5567 O 538.915 -0.907706 1.96443 0
M  V30 5568 C 539.51 2.40704 2.38426 0
M  V30 5569 C 538.069 2.37599 2.91931 0
M  V30 5570 C 537.216 2.2248 1.65523 0
M  V30 5571 H 540.167 1.49581 0.530207 0
M  V30 5572 H 540.188 2.07616 3.18867 0
M  V30 5573 H 539.7 3.37829 1.91033 0
M  V30 5574 H 537.801 1.44119 3.43599 0
M  V30 5575 H 537.914 3.32538 3.44899 0
M  V30 5576 H 536.278 1.69691 1.8994 0
M  V30 5577 H 537.061 3.21577 1.20178 0
M  V30 5578 N 539.506 -0.963266 1.24736 0
M  V30 5579 C 540.752 -1.70933 1.09131 0
M  V30 5580 C 541.085 -1.90676 -0.368273 0
M  V30 5581 O 540.36 -1.47147 -1.27193 0
M  V30 5582 C 540.643 -3.09744 1.83658 0
M  V30 5583 C 540.496 -2.97465 3.37394 0
M  V30 5584 C 541.815 -4.09483 1.61282 0
M  V30 5585 H 538.934 -0.620398 0.397838 0
M  V30 5586 H 541.576 -1.12028 1.53459 0
M  V30 5587 H 539.726 -3.60031 1.4598 0
M  V30 5588 H 541.398 -2.54571 3.84696 0
M  V30 5589 H 539.641 -2.33576 3.65547 0
M  V30 5590 H 540.312 -3.95822 3.84745 0
M  V30 5591 H 542.788 -3.68073 1.94066 0
M  V30 5592 H 541.664 -5.04666 2.15878 0
M  V30 5593 H 541.925 -4.38639 0.552102 0
M  V30 5594 N 540.985 -1.06182 -1.16461 0
M  V30 5595 C 541.915 -0.692861 -2.22984 0
M  V30 5596 C 542.896 0.314122 -1.67174 0
M  V30 5597 O 544.081 0.189499 -1.93273 0
M  V30 5598 C 541.211 -0.07732 -3.47214 0
M  V30 5599 C 540.165 -1.01015 -4.15909 0
M  V30 5600 C 539.491 -0.257973 -5.34077 0
M  V30 5601 C 540.791 -2.33868 -4.67015 0
M  V30 5602 H 542.485 -1.58343 -2.54102 0
M  V30 5603 H 540.031 -0.76279 -1.22137 0
M  V30 5604 H 541.984 0.19266 -4.20959 0
M  V30 5605 H 540.708 0.848254 -3.15392 0
M  V30 5606 H 539.367 -1.26486 -3.44088 0
M  V30 5607 H 539.015 0.670684 -4.98509 0
M  V30 5608 H 538.715 -0.879638 -5.80979 0
M  V30 5609 H 540.239 0.00448788 -6.106 0
M  V30 5610 H 541.653 -2.1279 -5.32347 0
M  V30 5611 H 540.05 -2.91522 -5.24533 0
M  V30 5612 H 541.12 -2.97019 -3.83286 0
M  V30 5613 N 542.463 1.3308 -0.844243 0
M  V30 5614 C 543.711 1.97215 -0.441676 0
M  V30 5615 C 544.032 1.67185 1.0037 0
M  V30 5616 O 543.302 0.973588 1.69994 0
M  V30 5617 H 541.882 0.72959 -0.160335 0
M  V30 5618 H 544.544 1.62348 -1.07838 0
M  V30 5619 H 543.64 3.06698 -0.57815 0
M  V30 5620 N 543.941 0.601185 1.45683 0
M  V30 5621 C 544.904 -0.111398 2.28929 0
M  V30 5622 C 545.904 -0.801246 1.39416 0
M  V30 5623 O 547.094 -0.650383 1.61603 0
M  V30 5624 C 544.226 -1.16773 3.20276 0
M  V30 5625 H 545.419 0.620412 2.93413 0
M  V30 5626 H 542.972 0.359946 1.52099 0
M  V30 5627 H 543.707 -1.93051 2.60579 0
M  V30 5628 H 543.492 -0.677358 3.86205 0
M  V30 5629 H 544.982 -1.66698 3.82886 0
M  V30 5630 N 545.419 -1.53889 0.339982 0
M  V30 5631 C 546.665 -2.01152 -0.258003 0
M  V30 5632 C 546.998 -1.22749 -1.50487 0
M  V30 5633 O 546.273 -0.314156 -1.91946 0
M  V30 5634 C 546.556 -3.55468 -0.575717 0
M  V30 5635 C 546.409 -4.44584 0.682996 0
M  V30 5636 C 547.728 -4.1768 -1.38677 0
M  V30 5637 H 544.847 -0.731198 -0.0922992 0
M  V30 5638 H 547.489 -1.84352 0.459814 0
M  V30 5639 H 545.639 -3.69914 -1.18725 0
M  V30 5640 H 547.311 -4.41981 1.32102 0
M  V30 5641 H 545.554 -4.13592 1.3086 0
M  V30 5642 H 546.225 -5.5043 0.416001 0
M  V30 5643 H 548.701 -4.0691 -0.869705 0
M  V30 5644 H 547.577 -5.25734 -1.57783 0
M  V30 5645 H 547.838 -3.72069 -2.38782 0
M  V30 5646 N 546.897 -0.0685191 -1.57451 0
M  V30 5647 C 548.145 0.60016 -1.92983 0
M  V30 5648 C 548.466 1.70348 -0.949028 0
M  V30 5649 O 547.736 1.959 0.00335647 0
M  V30 5650 H 546.316 0.224682 -0.712409 0
M  V30 5651 H 548.978 -0.125605 -1.94495 0
M  V30 5652 H 548.074 1.02759 -2.94698 0
M  V30 5653 N 548.375 1.56261 0.205012 0
M  V30 5654 C 549.6 1.84491 0.947512 0
M  V30 5655 C 550.025 0.650894 1.76479 0
M  V30 5656 O 549.383 -0.40035 1.76824 0
M  V30 5657 C 549.431 3.10863 1.82747 0
M  V30 5658 O 548.535 2.90719 2.925 0
M  V30 5659 H 547.876 0.607783 0.267386 0
M  V30 5660 H 550.406 2.03485 0.213323 0
M  V30 5661 H 550.416 3.41399 2.23407 0
M  V30 5662 H 549.091 3.97392 1.2269 0
M  V30 5663 H 547.668 2.71457 2.55667 0
M  V30 5664 N 549.853 -0.472356 1.50355 0
M  V30 5665 C 551.1 -1.22453 1.61281 0
M  V30 5666 C 551.428 -1.91972 0.31256 0
M  V30 5667 O 550.683 -1.82696 -0.701475 0
M  V30 5668 C 550.982 -2.29257 2.74182 0
M  V30 5669 C 550.648 -1.76999 4.14708 0
M  V30 5670 C 549.31 -1.62467 4.52944 0
M  V30 5671 C 551.662 -1.38215 5.0254 0
M  V30 5672 C 548.99 -1.07574 5.76754 0
M  V30 5673 C 551.342 -0.847638 6.26895 0
M  V30 5674 C 550.006 -0.688946 6.63935 0
M  V30 5675 H 549.276 -0.448087 0.590168 0
M  V30 5676 H 551.923 -0.520744 1.84284 0
M  V30 5677 H 550.228 -3.05538 2.45263 0
M  V30 5678 H 551.925 -2.87212 2.7984 0
M  V30 5679 H 548.515 -1.89276 3.84542 0
M  V30 5680 H 552.699 -1.48276 4.73633 0
M  V30 5681 H 547.955 -0.940237 6.04127 0
M  V30 5682 H 552.129 -0.538455 6.94315 0
M  V30 5683 H 549.756 -0.261435 7.5975 0
M  V30 5684 N 551.331 -1.39911 -0.725443 0
M  V30 5685 C 552.559 -1.40949 -1.51463 0
M  V30 5686 C 552.974 -0.0065242 -1.88799 0
M  V30 5687 O 552.331 0.967163 -1.54765 0
M  V30 5688 C 552.382 -2.29119 -2.79619 0
M  V30 5689 O 552.103 -3.63952 -2.43866 0
M  V30 5690 C 553.604 -2.38642 -3.73584 0
M  V30 5691 H 550.824 -0.481091 -0.467752 0
M  V30 5692 H 553.368 -1.83843 -0.895651 0
M  V30 5693 H 551.523 -1.89612 -3.37826 0
M  V30 5694 H 551.937 -4.10677 -3.26258 0
M  V30 5695 H 553.411 -3.04563 -4.60375 0
M  V30 5696 H 553.888 -1.40846 -4.16004 0
M  V30 5697 H 554.494 -2.78659 -3.21293 0
M  V30 5698 N 552.809 0.956637 -1.25245 0
M  V30 5699 C 554.055 1.70413 -1.11044 0
M  V30 5700 C 554.41 1.89275 0.345377 0
M  V30 5701 O 553.703 1.45116 1.25107 0
M  V30 5702 C 553.897 3.08996 -1.79601 0
M  V30 5703 C 553.726 3.03654 -3.317 0
M  V30 5704 C 552.496 3.07521 -4.00947 0
M  V30 5705 C 554.694 2.84975 -4.28128 0
M  V30 5706 N 552.676 2.92316 -5.39838 0
M  V30 5707 C 554.047 2.7818 -5.5409 0
M  V30 5708 C 556.102 2.6964 -4.18568 0
M  V30 5709 C 554.805 2.57616 -6.71585 0
M  V30 5710 C 556.831 2.50447 -5.35752 0
M  V30 5711 C 556.193 2.4437 -6.60653 0
M  V30 5712 H 552.292 0.631642 -0.461035 0
M  V30 5713 H 554.876 1.13331 -1.58317 0
M  V30 5714 H 553.047 3.64248 -1.34826 0
M  V30 5715 H 554.779 3.72515 -1.58161 0
M  V30 5716 H 551.534 3.16635 -3.52192 0
M  V30 5717 H 551.958 2.87923 -6.12723 0
M  V30 5718 H 556.6 2.73113 -3.22752 0
M  V30 5719 H 554.318 2.52885 -7.67512 0
M  V30 5720 H 557.904 2.39509 -5.30214 0
M  V30 5721 H 556.784 2.29712 -7.49801 0
M  V30 5722 N 554.287 1.06798 1.15896 0
M  V30 5723 C 555.512 0.808739 1.90982 0
M  V30 5724 C 555.937 -0.6316 1.77179 0
M  V30 5725 O 555.295 -1.4407 1.10061 0
M  V30 5726 C 555.343 1.21468 3.39526 0
M  V30 5727 O 554.447 0.356562 4.10856 0
M  V30 5728 H 553.788 0.29512 0.594811 0
M  V30 5729 H 556.318 1.42513 1.46804 0
M  V30 5730 H 556.328 1.18844 3.90308 0
M  V30 5731 H 555.003 2.26379 3.48891 0
M  V30 5732 H 553.58 0.444808 3.70238 0
M  V30 5733 N 555.766 -1.3263 0.851289 0
M  V30 5734 C 557.014 -1.96978 0.452128 0
M  V30 5735 C 557.335 -1.67715 -0.99482 0
M  V30 5736 O 556.605 -0.98259 -1.69476 0
M  V30 5737 H 555.185 -0.72873 0.164202 0
M  V30 5738 H 557.847 -1.61774 1.08698 0
M  V30 5739 H 556.943 -3.06387 0.594407 0
M  V30 5740 N 557.244 -0.608902 -1.45362 0
M  V30 5741 C 558.492 -0.104401 -2.0183 0
M  V30 5742 C 558.813 1.27007 -1.47967 0
M  V30 5743 O 558.083 1.83924 -0.674455 0
M  V30 5744 H 556.663 -0.0356042 -0.746151 0
M  V30 5745 H 559.325 -0.790596 -1.78145 0
M  V30 5746 H 558.421 -0.0551793 -3.12051 0
M  V30 5747 N 558.722 1.53707 -0.348139 0
M  V30 5748 C 559.685 2.23812 0.494058 0
M  V30 5749 C 560.685 1.23989 1.02388 0
M  V30 5750 O 561.875 1.48395 0.912396 0
M  V30 5751 C 559.007 2.96133 1.68872 0
M  V30 5752 H 560.2 2.99663 -0.119141 0
M  V30 5753 H 557.753 1.55983 -0.0995539 0
M  V30 5754 H 558.488 2.24481 2.34049 0
M  V30 5755 H 558.273 3.69357 1.31596 0
M  V30 5756 H 559.763 3.49475 2.28597 0
M  V30 5757 N 560.2 0.0768682 1.57412 0
M  V30 5758 C 561.447 -0.591085 1.93681 0
M  V30 5759 C 561.775 -1.69311 0.957286 0
M  V30 5760 O 561.03 -1.95682 -0.0262428 0
M  V30 5761 C 561.329 -1.20268 3.36557 0
M  V30 5762 C 560.995 -0.226286 4.50332 0
M  V30 5763 C 559.657 0.0423142 4.81181 0
M  V30 5764 C 562.009 0.441415 5.19327 0
M  V30 5765 C 559.337 0.985616 5.78362 0
M  V30 5766 C 561.689 1.37307 6.17519 0
M  V30 5767 C 560.353 1.65009 6.46783 0
M  V30 5768 H 559.623 -0.216293 0.70873 0
M  V30 5769 H 562.27 0.148824 1.90921 0
M  V30 5770 H 560.575 -2.01844 3.35807 0
M  V30 5771 H 562.272 -1.72688 3.61911 0
M  V30 5772 H 558.862 -0.445821 4.26275 0
M  V30 5773 H 563.046 0.247023 4.95685 0
M  V30 5774 H 558.302 1.20743 5.99359 0
M  V30 5775 H 562.476 1.89637 6.70083 0
M  V30 5776 H 560.103 2.38263 7.21897 0
M  V30 5777 N 561.678 -1.56367 -0.196722 0
M  V30 5778 C 562.608 -1.97442 -1.24655 0
M  V30 5779 C 563.589 -0.846147 -1.47561 0
M  V30 5780 O 564.774 -1.11035 -1.59326 0
M  V30 5781 C 561.904 -2.31253 -2.59112 0
M  V30 5782 C 560.858 -3.46804 -2.50821 0
M  V30 5783 C 560.184 -3.66286 -3.89536 0
M  V30 5784 C 561.484 -4.8104 -2.03465 0
M  V30 5785 H 563.178 -2.85388 -0.905216 0
M  V30 5786 H 560.724 -1.37304 -0.434002 0
M  V30 5787 H 562.677 -2.58583 -3.32736 0
M  V30 5788 H 561.401 -1.40188 -2.94983 0
M  V30 5789 H 560.06 -3.19563 -1.79653 0
M  V30 5790 H 559.708 -2.72555 -4.22756 0
M  V30 5791 H 559.408 -4.4402 -3.84864 0
M  V30 5792 H 560.932 -3.9599 -4.64784 0
M  V30 5793 H 562.346 -5.07411 -2.66846 0
M  V30 5794 H 560.743 -5.62232 -2.09798 0
M  V30 5795 H 561.813 -4.74732 -0.98781 0
M  V30 5796 N 563.156 0.464375 -1.50603 0
M  V30 5797 C 564.386 1.23727 -1.65454 0
M  V30 5798 C 564.794 1.86119 -0.340032 0
M  V30 5799 O 564.137 1.70301 0.688706 0
M  V30 5800 C 564.199 2.38153 -2.69301 0
M  V30 5801 C 563.863 1.96345 -4.12671 0
M  V30 5802 C 564.86 1.48215 -4.98326 0
M  V30 5803 C 562.545 2.04861 -4.58625 0
M  V30 5804 C 564.539 1.09152 -6.27985 0
M  V30 5805 C 562.226 1.65409 -5.88288 0
M  V30 5806 C 563.224 1.17634 -6.72794 0
M  V30 5807 O 562.912 0.787312 -8.00035 0
M  V30 5808 H 562.644 0.380075 -0.559034 0
M  V30 5809 H 565.198 0.559919 -1.97621 0
M  V30 5810 H 563.428 3.09081 -2.32392 0
M  V30 5811 H 565.117 3.00099 -2.73304 0
M  V30 5812 H 565.883 1.41052 -4.64036 0
M  V30 5813 H 561.762 2.40996 -3.92991 0
M  V30 5814 H 565.306 0.717909 -6.93896 0
M  V30 5815 H 561.203 1.72233 -6.22098 0
M  V30 5816 H 561.971 0.915567 -8.13363 0
M  V30 5817 N 564.634 1.40294 0.718013 0
M  V30 5818 C 566.045 1.34289 1.29705 0
M  V30 5819 C 566.396 0.0152228 1.96194 0
M  V30 5820 O 565.521 -0.88682 1.97394 0
M  V30 5821 C 566.116 2.43219 2.3586 0
M  V30 5822 C 564.675 2.40682 2.89394 0
M  V30 5823 C 563.822 2.24223 1.63154 0
M  V30 5824 H 566.773 1.50135 0.514312 0
M  V30 5825 H 566.794 2.10986 3.16647 0
M  V30 5826 H 566.306 3.39836 1.87439 0
M  V30 5827 H 564.407 1.47756 3.42051 0
M  V30 5828 H 564.52 3.36177 3.41353 0
M  V30 5829 H 562.884 1.71696 1.88129 0
M  V30 5830 H 563.667 3.22834 1.16761 0
M  V30 5831 N 566.112 -0.949982 1.2575 0
M  V30 5832 C 567.523 -1.50989 1.09815 0
M  V30 5833 C 567.874 -1.93497 -0.324556 0
M  V30 5834 O 566.999 -1.79068 -1.21506 0
M  V30 5835 C 567.594 -2.74394 1.98729 0
M  V30 5836 C 566.153 -3.26682 1.86965 0
M  V30 5837 C 565.3 -1.99498 1.92603 0
M  V30 5838 H 568.251 -0.766387 1.38968 0
M  V30 5839 H 568.272 -3.48383 1.53001 0
M  V30 5840 H 567.784 -2.43425 3.02268 0
M  V30 5841 H 565.885 -3.62461 0.863279 0
M  V30 5842 H 565.998 -3.94383 2.72027 0
M  V30 5843 H 564.362 -2.15005 1.36546 0
M  V30 5844 H 565.145 -1.70871 2.97755 0
M  V30 5845 N 567.59 -1.07411 -1.15328 0
M  V30 5846 C 568.538 -0.689316 -2.22151 0
M  V30 5847 C 569.532 0.300156 -1.6672 0
M  V30 5848 O 570.738 0.163804 -1.79253 0
M  V30 5849 H 567.113 -0.204834 -0.723566 0
M  V30 5850 H 569.084 -1.59988 -2.51886 0
M  V30 5851 C 567.833 -0.103848 -3.47545 0
M  V30 5852 H 567.156 -0.856367 -3.90521 0
M  V30 5853 H 568.596 0.127725 -4.23808 0
M  V30 5854 C 567.055 1.15563 -3.1646 0
M  V30 5855 O 567.585 2.242 -3.33312 0
M  V30 5856 N 565.791 1.06203 -2.70498 0
M  V30 5857 H 565.338 0.177933 -2.56985 0
M  V30 5858 H 565.296 1.90553 -2.50074 0
M  V30 5859 N 569.068 1.32177 -0.85831 0
M  V30 5860 C 570.001 2.26823 -0.25035 0
M  V30 5861 C 570.979 1.50571 0.61378 0
M  V30 5862 O 572.163 1.79682 0.569777 0
M  V30 5863 C 569.29 3.32472 0.646556 0
M  V30 5864 C 568.336 4.26255 -0.144675 0
M  V30 5865 S 569.169 5.13608 -1.5155 0
M  V30 5866 C 570.325 6.22778 -0.624408 0
M  V30 5867 H 570.558 2.7804 -1.05267 0
M  V30 5868 H 568.091 1.39764 -0.656152 0
M  V30 5869 H 570.049 3.93817 1.15837 0
M  V30 5870 H 568.71 2.80031 1.42272 0
M  V30 5871 H 567.903 5.01114 0.538613 0
M  V30 5872 H 567.505 3.69346 -0.588198 0
M  V30 5873 H 569.797 6.77287 0.169846 0
M  V30 5874 H 570.74 6.95233 -1.34376 0
M  V30 5875 H 571.148 5.64156 -0.197128 0
M  V30 5876 N 570.547 0.616602 1.45037 0
M  V30 5877 C 571.772 0.120192 2.07051 0
M  V30 5878 C 572.197 -1.19008 1.45666 0
M  V30 5879 O 571.555 -1.7267 0.552692 0
M  V30 5880 C 571.603 0.00354901 3.606 0
M  V30 5881 O 570.707 -1.04431 3.98958 0
M  V30 5882 H 570.048 0.0781599 0.659384 0
M  V30 5883 H 572.578 0.849167 1.86146 0
M  V30 5884 H 572.588 -0.191754 4.07549 0
M  V30 5885 H 571.263 0.960239 4.04663 0
M  V30 5886 H 569.84 -0.824749 3.63665 0
M  V30 5887 N 572.025 -1.5352 0.356285 0
M  V30 5888 C 573.436 -1.86282 -0.12492 0
M  V30 5889 C 573.787 -1.27717 -1.48939 0
M  V30 5890 O 572.912 -0.595614 -2.08042 0
M  V30 5891 C 573.507 -3.37995 -0.23345 0
M  V30 5892 C 572.066 -3.70588 -0.658899 0
M  V30 5893 C 571.213 -2.76581 0.199596 0
M  V30 5894 H 574.164 -1.47901 0.575423 0
M  V30 5895 H 574.185 -3.65475 -1.0587 0
M  V30 5896 H 573.697 -3.8059 0.759776 0
M  V30 5897 H 571.798 -3.33544 -1.66069 0
M  V30 5898 H 571.911 -4.77076 -0.439957 0
M  V30 5899 H 570.275 -2.52552 -0.330076 0
M  V30 5900 H 571.058 -3.22008 1.19019 0
M  V30 5901 N 573.503 -0.0852151 -1.57369 0
M  V30 5902 C 574.731 0.58946 -1.98325 0
M  V30 5903 C 575.146 1.62333 -0.96403 0
M  V30 5904 O 574.503 1.82438 0.0476395 0
M  V30 5905 C 574.554 1.24604 -3.39347 0
M  V30 5906 O 574.275 0.253532 -4.37366 0
M  V30 5907 C 575.776 2.00726 -3.95252 0
M  V30 5908 H 572.996 0.158783 -0.651942 0
M  V30 5909 H 575.54 -0.161584 -2.03861 0
M  V30 5910 H 573.695 1.94808 -3.34856 0
M  V30 5911 H 574.109 0.726207 -5.19448 0
M  V30 5912 H 575.583 2.42039 -4.96106 0
M  V30 5913 H 576.06 2.86919 -3.32527 0
M  V30 5914 H 576.666 1.3536 -4.03185 0
M  V30 5915 N 574.981 1.5647 0.188427 0
M  V30 5916 C 576.228 1.81013 0.907779 0
M  V30 5917 C 576.556 0.65953 1.82977 0
M  V30 5918 O 575.811 -0.354308 1.92466 0
M  V30 5919 C 576.11 3.11596 1.7505 0
M  V30 5920 C 575.776 4.40145 0.978922 0
M  V30 5921 C 574.438 4.75066 0.765912 0
M  V30 5922 C 576.79 5.19369 0.436498 0
M  V30 5923 C 574.118 5.867 -0.00089868 0
M  V30 5924 C 576.47 6.31805 -0.317136 0
M  V30 5925 C 575.134 6.65303 -0.541103 0
M  V30 5926 H 574.404 0.662373 0.33218 0
M  V30 5927 H 577.051 1.9071 0.173732 0
M  V30 5928 H 575.356 2.97165 2.55343 0
M  V30 5929 H 577.053 3.27793 2.30983 0
M  V30 5930 H 573.643 4.12745 1.15497 0
M  V30 5931 H 577.827 4.92799 0.588449 0
M  V30 5932 H 573.083 6.11122 -0.184329 0
M  V30 5933 H 577.257 6.92406 -0.744788 0
M  V30 5934 H 574.884 7.51646 -1.13718 0
M  V30 5935 N 576.459 -0.456382 1.50847 0
M  V30 5936 C 577.708 -1.2042 1.61808 0
M  V30 5937 C 578.021 -1.9278 0.330932 0
M  V30 5938 O 579.227 -2.69612 0.319643 0
M  V30 5939 C 577.683 -2.18891 2.85683 0
M  V30 5940 C 577.291 -1.52267 4.2133 0
M  V30 5941 C 579.035 -2.94224 3.05994 0
M  V30 5942 C 576.942 -2.4911 5.36375 0
M  V30 5943 H 575.872 -0.453177 0.602616 0
M  V30 5944 H 578.523 -0.473144 1.77295 0
M  V30 5945 H 576.905 -2.95351 2.63787 0
M  V30 5946 H 578.079 -0.814949 4.53536 0
M  V30 5947 H 576.394 -0.891594 4.06743 0
M  V30 5948 H 578.991 -3.66732 3.89117 0
M  V30 5949 H 579.334 -3.54469 2.18306 0
M  V30 5950 H 579.867 -2.24874 3.28141 0
M  V30 5951 H 576.606 -1.93582 6.26264 0
M  V30 5952 H 576.126 -3.17991 5.08569 0
M  V30 5953 H 577.805 -3.10637 5.67551 0
M  V30 5954 N 577.937 -1.40673 -0.710563 0
M  V30 5955 C 578.885 -1.41517 -1.84596 0
M  V30 5956 C 579.879 -0.295043 -1.66811 0
M  V30 5957 O 581.085 -0.466331 -1.73854 0
M  V30 5958 H 577.46 -0.442467 -0.608052 0
M  V30 5959 H 579.431 -2.37238 -1.80999 0
M  V30 5960 C 578.18 -1.29957 -3.225 0
M  V30 5961 H 577.503 -2.15429 -3.36794 0
M  V30 5962 H 578.943 -1.34608 -4.02066 0
M  V30 5963 C 577.402 -0.0103164 -3.36898 0
M  V30 5964 O 577.932 0.950707 -3.90288 0
M  V30 5965 N 576.138 0.0608409 -2.90536 0
M  V30 5966 H 575.685 -0.721943 -2.47277 0
M  V30 5967 H 575.643 0.92292 -3.00549 0
M  V30 5968 N 579.415 0.9433 -1.26252 0
M  V30 5969 C 580.348 2.04162 -1.01946 0
M  V30 5970 C 581.326 1.62507 0.0550808 0
M  V30 5971 O 582.51 1.883 -0.0869025 0
M  V30 5972 C 579.637 3.34313 -0.54335 0
M  V30 5973 C 578.683 3.94939 -1.61013 0
M  V30 5974 S 579.516 4.29484 -3.19849 0
M  V30 5975 C 580.672 5.62738 -2.74001 0
M  V30 5976 H 580.905 2.24466 -1.94942 0
M  V30 5977 H 578.438 1.08441 -1.09909 0
M  V30 5978 H 580.396 4.09576 -0.275315 0
M  V30 5979 H 579.057 3.11957 0.36629 0
M  V30 5980 H 578.25 4.88812 -1.22795 0
M  V30 5981 H 577.852 3.26202 -1.82943 0
M  V30 5982 H 580.144 6.41356 -2.18333 0
M  V30 5983 H 581.087 6.05839 -3.66558 0
M  V30 5984 H 581.495 5.22514 -2.13634 0
M  V30 5985 N 580.893 1.08022 1.14757 0
M  V30 5986 C 582.118 0.82895 1.90114 0
M  V30 5987 C 582.543 -0.612772 1.77839 0
M  V30 5988 O 581.901 -1.42895 1.11583 0
M  V30 5989 C 581.949 1.25062 3.38219 0
M  V30 5990 O 581.053 0.400119 4.10454 0
M  V30 5991 H 580.394 0.301412 0.591648 0
M  V30 5992 H 582.924 1.44062 1.45284 0
M  V30 5993 H 582.934 1.22977 3.89025 0
M  V30 5994 H 581.609 2.30067 3.46471 0
M  V30 5995 H 580.186 0.484052 3.69745 0
M  V30 5996 N 582.371 -1.3172 0.865308 0
M  V30 5997 C 583.303 -2.27545 0.274906 0
M  V30 5998 C 584.316 -1.52887 -0.559413 0
M  V30 5999 O 585.505 -1.74361 -0.382166 0
M  V30 6000 C 582.605 -3.33006 -0.629286 0
M  V30 6001 C 581.778 -4.37063 0.171553 0
M  V30 6002 C 580.837 -5.22044 -0.660052 0
M  V30 6003 O 579.863 -5.69129 -0.0897527 0
M  V30 6004 N 581.065 -5.45946 -1.97289 0
M  V30 6005 H 583.83 -2.78848 1.09836 0
M  V30 6006 H 581.391 -1.44693 0.726331 0
M  V30 6007 H 583.383 -3.86772 -1.19121 0
M  V30 6008 H 581.953 -2.81782 -1.35342 0
M  V30 6009 H 581.173 -3.83436 0.914919 0
M  V30 6010 H 582.461 -5.03662 0.721235 0
M  V30 6011 H 581.859 -5.0944 -2.45942 0
M  V30 6012 H 580.416 -6.02665 -2.4827 0
M  V30 6013 N 583.85 -0.624285 -1.44708 0
M  V30 6014 C 584.76 0.0861083 -2.34442 0
M  V30 6015 C 585.776 0.84291 -1.5222 0
M  V30 6016 O 586.952 0.796723 -1.84971 0
M  V30 6017 C 584.017 1.05999 -3.30099 0
M  V30 6018 C 583.077 0.303316 -4.28227 0
M  V30 6019 C 582.311 1.23081 -5.19314 0
M  V30 6020 O 582.534 2.46929 -5.14181 0
M  V30 6021 O 581.468 0.71883 -5.97592 0
M  V30 6022 H 585.293 -0.651756 -2.96624 0
M  V30 6023 H 582.879 -0.384493 -1.44368 0
M  V30 6024 H 584.76 1.62046 -3.88997 0
M  V30 6025 H 583.436 1.77859 -2.70459 0
M  V30 6026 H 582.343 -0.300033 -3.72895 0
M  V30 6027 H 583.676 -0.375123 -4.90768 0
M  V30 6028 N 585.328 1.53329 -0.364422 0
M  V30 6029 C 586.276 2.27212 0.497737 0
M  V30 6030 C 587.27 1.30146 1.08437 0
M  V30 6031 O 588.476 1.47778 1.0277 0
M  V30 6032 H 584.851 0.730329 0.179232 0
M  V30 6033 H 586.822 2.98037 -0.147182 0
M  V30 6034 C 585.571 3.07333 1.6261 0
M  V30 6035 H 584.894 3.81866 1.184 0
M  V30 6036 H 586.334 3.62209 2.20409 0
M  V30 6037 C 584.793 2.18102 2.56775 0
M  V30 6038 O 585.323 1.79104 3.59562 0
M  V30 6039 N 583.529 1.82759 2.25937 0
M  V30 6040 H 583.076 2.14671 1.42387 0
M  V30 6041 H 583.034 1.23342 2.89196 0
M  V30 6042 N 586.806 0.0935595 1.57322 0
M  V30 6043 C 588.052 -0.571355 1.94585 0
M  V30 6044 C 588.385 -1.67929 0.975366 0
M  V30 6045 O 587.66 -1.94498 0.00816206 0
M  V30 6046 C 587.943 -1.12797 3.41978 0
M  V30 6047 C 587.796 -0.0251881 4.49793 0
M  V30 6048 C 589.115 -2.02682 3.90651 0
M  V30 6049 H 586.234 -0.206223 0.70756 0
M  V30 6050 H 588.876 0.163956 1.89291 0
M  V30 6051 H 587.026 -1.75461 3.4662 0
M  V30 6052 H 588.698 0.608979 4.57263 0
M  V30 6053 H 586.941 0.641399 4.29032 0
M  V30 6054 H 587.612 -0.455433 5.50118 0
M  V30 6055 H 590.088 -1.49925 3.88152 0
M  V30 6056 H 588.964 -2.38555 4.94351 0
M  V30 6057 H 589.225 -2.94362 3.29854 0
M  V30 6058 N 588.284 -1.56567 -0.180126 0
M  V30 6059 C 589.561 -1.7235 -0.924931 0
M  V30 6060 C 589.941 -0.652523 -2.00762 0
M  V30 6061 O 589.289 0.334115 -2.26044 0
M  V30 6062 C 589.499 -3.1523 -1.49771 0
M  V30 6063 C 590.847 -3.75921 -1.97405 0
M  V30 6064 O 591.871 -3.18452 -1.59583 0
M  V30 6065 O 590.73 -4.7681 -2.67048 0
M  V30 6066 H 587.824 -0.703502 -0.434758 0
M  V30 6067 H 590.37 -1.6886 -0.168647 0
M  V30 6068 H 589.142 -3.84656 -0.718027 0
M  V30 6069 H 588.765 -3.23009 -2.31842 0
M  V30 6070 N 589.762 0.448376 -1.51087 0
M  V30 6071 C 590.695 1.56298 -1.66272 0
M  V30 6072 C 591.673 1.54381 -0.510419 0
M  V30 6073 O 592.857 1.73671 -0.732854 0
M  V30 6074 C 589.984 2.94883 -1.66618 0
M  V30 6075 C 589.03 3.14868 -2.87681 0
M  V30 6076 S 589.863 2.9234 -4.48662 0
M  V30 6077 C 591.019 4.33227 -4.51735 0
M  V30 6078 H 591.252 1.43182 -2.6055 0
M  V30 6079 H 588.785 0.637309 -1.40633 0
M  V30 6080 H 590.743 3.74771 -1.67502 0
M  V30 6081 H 589.404 3.05371 -0.735358 0
M  V30 6082 H 588.597 4.16166 -2.84292 0
M  V30 6083 H 588.199 2.42788 -2.84482 0
M  V30 6084 H 590.491 5.26247 -4.26697 0
M  V30 6085 H 591.434 4.41653 -5.53487 0
M  V30 6086 H 591.842 4.16367 -3.81181 0
M  V30 6087 N 591.24 1.41047 0.703093 0
M  V30 6088 C 592.656 1.23351 1.01275 0
M  V30 6089 C 592.856 0.11754 2.01157 0
M  V30 6090 O 591.912 -0.520518 2.47077 0
M  V30 6091 C 593.225 2.58001 1.54454 0
M  V30 6092 C 594.773 2.65119 1.66376 0
M  V30 6093 C 595.248 4.00067 2.22958 0
M  V30 6094 N 596.739 4.01875 2.30328 0
M  V30 6095 C 597.474 5.03087 2.75119 0
M  V30 6096 N 596.97 6.14692 3.19571 0
M  V30 6097 N 598.763 4.90451 2.74616 0
M  V30 6098 H 590.914 2.1236 0.0412686 0
M  V30 6099 H 593.177 0.944543 0.08089 0
M  V30 6100 H 592.883 3.40378 0.88521 0
M  V30 6101 H 592.757 2.79962 2.52786 0
M  V30 6102 H 595.144 1.83106 2.31422 0
M  V30 6103 H 595.225 2.46975 0.666089 0
M  V30 6104 H 594.869 4.82526 1.58529 0
M  V30 6105 H 594.799 4.15547 3.23462 0
M  V30 6106 H 597.29 3.21291 1.98949 0
M  V30 6107 H 597.603 6.87799 3.52352 0
M  V30 6108 H 595.948 6.18239 3.17498 0
M  V30 6109 H 599.139 4.0235 2.39233 0
M  V30 6110 H 599.312 5.6947 3.09206 0
M  V30 6111 N 592.718 -0.936591 1.26751 0
M  V30 6112 C 593.995 -1.66094 1.03306 0
M  V30 6113 C 594.375 -2.06568 -0.435058 0
M  V30 6114 O 593.723 -1.79305 -1.41641 0
M  V30 6115 C 593.933 -2.86969 1.98619 0
M  V30 6116 C 595.281 -3.58516 2.27489 0
M  V30 6117 O 596.305 -2.97082 1.96522 0
M  V30 6118 O 595.164 -4.69181 2.80235 0
M  V30 6119 H 592.258 -0.727568 0.393158 0
M  V30 6120 H 594.804 -0.987914 1.3798 0
M  V30 6121 H 593.576 -2.53985 2.9767 0
M  V30 6122 H 593.199 -3.61996 1.64454 0
M  V30 6123 N 594.196 -1.08629 -1.14182 0
M  V30 6124 C 595.421 -0.83902 -1.89671 0
M  V30 6125 C 595.846 0.603332 -1.78161 0
M  V30 6126 O 595.204 1.42301 -1.12339 0
M  V30 6127 C 595.252 -1.26854 -3.37551 0
M  V30 6128 O 594.356 -0.42188 -4.10236 0
M  V30 6129 H 593.697 -0.304545 -0.590041 0
M  V30 6130 H 596.227 -1.4483 -1.44518 0
M  V30 6131 H 596.237 -1.25038 -3.88368 0
M  V30 6132 H 594.912 -2.31901 -3.45246 0
M  V30 6133 H 593.489 -0.503654 -3.69483 0
M  V30 6134 N 595.674 1.31259 -0.872281 0
M  V30 6135 C 596.904 2.00504 -0.498183 0
M  V30 6136 C 597.312 1.65632 0.914479 0
M  V30 6137 O 596.655 0.882849 1.61095 0
M  V30 6138 C 596.717 3.5482 -0.578194 0
M  V30 6139 C 596.381 4.13172 -1.95289 0
M  V30 6140 C 597.378 4.30107 -2.92069 0
M  V30 6141 C 595.063 4.48846 -2.25483 0
M  V30 6142 C 597.057 4.81908 -4.17185 0
M  V30 6143 C 594.744 5.00349 -3.50847 0
M  V30 6144 C 595.742 5.16831 -4.46514 0
M  V30 6145 O 595.43 5.67228 -5.69656 0
M  V30 6146 H 595.162 0.648055 -0.192354 0
M  V30 6147 H 597.716 1.6841 -1.17589 0
M  V30 6148 H 595.946 3.86383 0.156438 0
M  V30 6149 H 597.635 4.05318 -0.217192 0
M  V30 6150 H 598.401 4.02862 -2.7005 0
M  V30 6151 H 594.28 4.35292 -1.51795 0
M  V30 6152 H 597.824 4.94688 -4.91863 0
M  V30 6153 H 593.721 5.27028 -3.72708 0
M  V30 6154 H 594.489 5.85592 -5.7186 0
M  V30 6155 N 597.152 0.631951 1.44375 0
M  V30 6156 C 598.082 -0.0593243 2.33425 0
M  V30 6157 C 599.063 -0.833964 1.48253 0
M  V30 6158 O 600.248 -0.799682 1.76971 0
M  V30 6159 C 597.378 -1.04096 3.31333 0
M  V30 6160 C 596.332 -0.377899 4.26328 0
M  V30 6161 C 595.658 -1.4695 5.14111 0
M  V30 6162 C 596.958 0.716371 5.17364 0
M  V30 6163 H 598.652 0.684287 2.91475 0
M  V30 6164 H 596.198 0.330518 1.40156 0
M  V30 6165 H 598.151 -1.53331 3.92514 0
M  V30 6166 H 596.875 -1.81547 2.71493 0
M  V30 6167 H 595.534 0.0938054 3.6648 0
M  V30 6168 H 595.182 -2.2349 4.50623 0
M  V30 6169 H 594.882 -1.03121 5.78481 0
M  V30 6170 H 596.406 -1.96363 5.78164 0
M  V30 6171 H 597.82 0.307089 5.72477 0
M  V30 6172 H 596.217 1.07784 5.90341 0
M  V30 6173 H 597.287 1.58316 4.58327 0
M  V30 6174 N 598.631 -1.53133 0.372548 0
M  V30 6175 C 599.879 -2.00958 -0.214534 0
M  V30 6176 C 600.2 -1.26135 -1.48711 0
M  V30 6177 O 599.47 -0.376597 -1.92246 0
M  V30 6178 H 598.05 -0.742456 -0.0822664 0
M  V30 6179 H 600.712 -1.88367 0.500385 0
M  V30 6180 H 599.808 -3.09031 -0.436605 0
M  V30 6181 N 600.109 -0.101901 -1.5727 0
M  V30 6182 C 601.339 0.567568 -1.98651 0
M  V30 6183 C 601.747 1.61839 -0.980037 0
M  V30 6184 O 601.09 1.83661 0.0376564 0
M  V30 6185 C 601.152 1.26742 -3.36417 0
M  V30 6186 C 600.816 0.366561 -4.55528 0
M  V30 6187 C 601.813 -0.388022 -5.1845 0
M  V30 6188 C 599.498 0.282629 -5.01504 0
M  V30 6189 C 601.492 -1.21445 -6.25724 0
M  V30 6190 C 599.179 -0.547443 -6.08643 0
M  V30 6191 C 600.177 -1.29462 -6.70618 0
M  V30 6192 O 599.865 -2.11095 -7.7569 0
M  V30 6193 H 599.597 0.156282 -0.657687 0
M  V30 6194 H 602.151 -0.179912 -2.04611 0
M  V30 6195 H 600.381 2.06162 -3.27161 0
M  V30 6196 H 602.07 1.8321 -3.622 0
M  V30 6197 H 602.836 -0.332949 -4.83856 0
M  V30 6198 H 598.715 0.853868 -4.53023 0
M  V30 6199 H 602.259 -1.79814 -6.74027 0
M  V30 6200 H 598.156 -0.603971 -6.42668 0
M  V30 6201 H 598.924 -2.03851 -7.92709 0
M  V30 6202 N 601.587 1.56661 0.17182 0
M  V30 6203 C 602.812 1.86459 0.908165 0
M  V30 6204 C 603.237 0.688181 1.75059 0
M  V30 6205 O 602.595 -0.362753 1.77634 0
M  V30 6206 C 602.643 3.14669 1.76112 0
M  V30 6207 O 601.747 2.96858 2.86268 0
M  V30 6208 H 601.088 0.613318 0.254434 0
M  V30 6209 H 603.618 2.03892 0.170113 0
M  V30 6210 H 603.628 3.46061 2.16115 0
M  V30 6211 H 602.303 3.99905 1.14233 0
M  V30 6212 H 600.88 2.76819 2.49852 0
M  V30 6213 N 603.065 -0.440357 1.51323 0
M  V30 6214 C 604.293 -1.21255 1.67645 0
M  V30 6215 C 604.708 -1.85088 0.37252 0
M  V30 6216 O 604.065 -1.70582 -0.648683 0
M  V30 6217 C 604.116 -2.29881 2.78993 0
M  V30 6218 O 603.837 -1.68659 4.04334 0
M  V30 6219 C 605.338 -3.20214 3.06558 0
M  V30 6220 H 602.558 -0.36558 0.562666 0
M  V30 6221 H 605.102 -0.52214 1.97722 0
M  V30 6222 H 603.257 -2.94643 2.51524 0
M  V30 6223 H 603.671 -2.40426 4.6615 0
M  V30 6224 H 605.145 -3.92575 3.88058 0
M  V30 6225 H 605.622 -3.80794 2.18844 0
M  V30 6226 H 606.228 -2.61156 3.35675 0
M  V30 6227 N 604.543 -1.41418 -0.695603 0
M  V30 6228 C 605.453 -1.45622 -1.83933 0
M  V30 6229 C 606.469 -0.346825 -1.70508 0
M  V30 6230 O 607.645 -0.59454 -1.92424 0
M  V30 6231 C 604.71 -1.33627 -3.19914 0
M  V30 6232 C 603.771 -2.54882 -3.45447 0
M  V30 6233 C 603.004 -2.43449 -4.7494 0
M  V30 6234 O 603.227 -1.45905 -5.51424 0
M  V30 6235 O 602.161 -3.33206 -5.01256 0
M  V30 6236 H 605.987 -2.42114 -1.83342 0
M  V30 6237 H 603.572 -1.22956 -0.848658 0
M  V30 6238 H 605.454 -1.29221 -4.01098 0
M  V30 6239 H 604.129 -0.402508 -3.21188 0
M  V30 6240 H 603.036 -2.64865 -2.64192 0
M  V30 6241 H 604.369 -3.47087 -3.48987 0
M  V30 6242 N 606.021 0.929856 -1.27246 0
M  V30 6243 C 606.951 2.04722 -1.12299 0
M  V30 6244 C 607.932 1.70082 -0.0250464 0
M  V30 6245 O 609.117 1.93176 -0.199141 0
M  V30 6246 C 606.247 3.38721 -0.767145 0
M  V30 6247 C 605.201 3.87466 -1.81808 0
M  V30 6248 C 604.527 5.18246 -1.31626 0
M  V30 6249 C 605.827 4.11095 -3.22177 0
M  V30 6250 H 607.521 2.17485 -2.05769 0
M  V30 6251 H 605.067 1.04503 -0.990715 0
M  V30 6252 H 607.02 4.16366 -0.649413 0
M  V30 6253 H 605.744 3.25967 0.203259 0
M  V30 6254 H 604.403 3.12012 -1.92468 0
M  V30 6255 H 604.051 5.01881 -0.335378 0
M  V30 6256 H 603.751 5.51829 -2.01887 0
M  V30 6257 H 605.275 5.98462 -1.21143 0
M  V30 6258 H 606.689 4.79316 -3.1453 0
M  V30 6259 H 605.086 4.55982 -3.90129 0
M  V30 6260 H 606.156 3.16468 -3.67391 0
M  V30 6261 N 607.499 1.09233 1.13605 0
M  V30 6262 C 608.462 0.733553 2.17144 0
M  V30 6263 C 609.462 -0.235873 1.59061 0
M  V30 6264 O 610.652 -0.0143167 1.74194 0
M  V30 6265 C 607.784 0.084471 3.40795 0
M  V30 6266 H 608.977 1.65049 2.50397 0
M  V30 6267 H 606.53 0.891264 1.28399 0
M  V30 6268 H 607.265 -0.843795 3.1313 0
M  V30 6269 H 607.05 0.781985 3.84223 0
M  V30 6270 H 608.54 -0.151216 4.17326 0
M  V30 6271 N 608.977 -1.30795 0.87923 0
M  V30 6272 C 609.907 -2.30742 0.357796 0
M  V30 6273 C 610.888 -1.60747 -0.556283 0
M  V30 6274 O 612.073 -1.88393 -0.47135 0
M  V30 6275 C 609.203 -3.44583 -0.433555 0
M  V30 6276 C 608.157 -4.26235 0.388251 0
M  V30 6277 C 607.483 -5.32073 -0.529352 0
M  V30 6278 C 608.783 -4.96303 1.62729 0
M  V30 6279 H 610.477 -2.74605 1.19299 0
M  V30 6280 H 608.023 -1.32017 0.575104 0
M  V30 6281 H 609.976 -4.13563 -0.808934 0
M  V30 6282 H 608.7 -2.99511 -1.30234 0
M  V30 6283 H 607.359 -3.58936 0.745695 0
M  V30 6284 H 607.007 -4.83249 -1.39569 0
M  V30 6285 H 606.707 -5.87598 0.0166741 0
M  V30 6286 H 608.231 -6.0391 -0.901373 0
M  V30 6287 H 609.645 -5.5783 1.32283 0
M  V30 6288 H 608.042 -5.61666 2.11309 0
M  V30 6289 H 609.112 -4.22758 2.37494 0
M  V30 6290 N 610.455 -0.639598 -1.44038 0
M  V30 6291 C 611.701 -0.156248 -2.02799 0
M  V30 6292 C 612.056 1.21145 -1.49471 0
M  V30 6293 O 611.349 1.79406 -0.672608 0
M  V30 6294 C 611.543 -0.0925348 -3.5728 0
M  V30 6295 C 611.372 -1.45252 -4.25596 0
M  V30 6296 C 610.142 -2.04145 -4.62226 0
M  V30 6297 C 612.34 -2.38812 -4.55492 0
M  V30 6298 N 610.322 -3.3329 -5.15549 0
M  V30 6299 C 611.693 -3.52578 -5.09989 0
M  V30 6300 C 613.748 -2.37785 -4.3745 0
M  V30 6301 C 612.451 -4.65525 -5.48342 0
M  V30 6302 C 614.477 -3.49802 -4.76857 0
M  V30 6303 C 613.839 -4.62292 -5.31475 0
M  V30 6304 H 609.938 -0.101292 -0.775412 0
M  V30 6305 H 612.522 -0.844938 -1.75411 0
M  V30 6306 H 610.693 0.565459 -3.84262 0
M  V30 6307 H 612.425 0.400426 -4.02714 0
M  V30 6308 H 609.18 -1.56999 -4.4682 0
M  V30 6309 H 609.604 -3.9934 -5.46678 0
M  V30 6310 H 614.246 -1.52061 -3.94509 0
M  V30 6311 H 611.964 -5.51951 -5.90233 0
M  V30 6312 H 615.55 -3.50193 -4.64603 0
M  V30 6313 H 614.43 -5.47536 -5.61403 0
M  V30 6314 N 611.933 1.52934 -0.380664 0
M  V30 6315 C 612.88 2.26197 0.458641 0
M  V30 6316 C 613.85 1.27462 1.06502 0
M  V30 6317 O 615.035 1.56274 1.09467 0
M  V30 6318 C 612.175 3.06571 1.58456 0
M  V30 6319 C 611.288 4.20222 1.00189 0
M  V30 6320 C 610.423 4.88007 2.09815 0
M  V30 6321 C 609.462 5.93665 1.49092 0
M  V30 6322 N 608.599 6.55081 2.52613 0
M  V30 6323 H 613.439 2.975 -0.172595 0
M  V30 6324 H 610.976 1.4678 -0.0969426 0
M  V30 6325 H 612.934 3.51455 2.24801 0
M  V30 6326 H 611.564 2.37494 2.18624 0
M  V30 6327 H 610.616 3.79714 0.228292 0
M  V30 6328 H 611.928 4.96102 0.518064 0
M  V30 6329 H 611.082 5.36151 2.83948 0
M  V30 6330 H 609.821 4.11632 2.61555 0
M  V30 6331 H 608.826 5.44868 0.7348 0
M  V30 6332 H 610.051 6.71969 0.981582 0
M  V30 6333 H 607.997 5.8155 3.03538 0
M  V30 6334 H 607.914 7.26548 2.08961 0
M  V30 6335 H 609.182 7.07871 3.26402 0
M  V30 6336 N 613.412 0.11024 1.57214 0
M  V30 6337 C 614.66 -0.548783 1.94506 0
M  V30 6338 C 614.981 -1.67772 0.99386 0
M  V30 6339 O 614.251 -1.9584 0.0485841 0
M  V30 6340 H 612.831 -0.205715 0.718116 0
M  V30 6341 H 615.493 0.177127 1.94093 0
M  V30 6342 H 614.589 -0.949096 2.97319 0
M  V30 6343 N 614.89 -1.56749 -0.16351 0
M  V30 6344 C 616.136 -1.82704 -0.880168 0
M  V30 6345 C 616.469 -0.689311 -1.81555 0
M  V30 6346 O 615.744 0.308224 -1.92042 0
M  V30 6347 C 616.027 -3.19084 -1.66905 0
M  V30 6348 C 615.88 -4.43397 -0.756269 0
M  V30 6349 C 617.199 -3.52493 -2.63509 0
M  V30 6350 H 614.318 -0.664608 -0.318535 0
M  V30 6351 H 616.96 -1.89438 -0.146036 0
M  V30 6352 H 615.11 -3.13475 -2.2949 0
M  V30 6353 H 616.782 -4.61079 -0.14269 0
M  V30 6354 H 615.025 -4.33752 -0.0647944 0
M  V30 6355 H 615.696 -5.3539 -1.34393 0
M  V30 6356 H 618.172 -3.58606 -2.11047 0
M  V30 6357 H 617.048 -4.48979 -3.15767 0
M  V30 6358 H 617.309 -2.77597 -3.44082 0
M  V30 6359 N 616.368 0.432326 -1.51554 0
M  V30 6360 C 617.3 1.54357 -1.6943 0
M  V30 6361 C 618.313 1.52311 -0.574897 0
M  V30 6362 O 619.502 1.56997 -0.849369 0
M  V30 6363 C 616.602 2.93273 -1.69836 0
M  V30 6364 C 615.775 3.19768 -2.98442 0
M  V30 6365 C 614.834 4.38433 -2.90969 0
M  V30 6366 O 613.86 4.36842 -3.64908 0
M  V30 6367 N 615.062 5.42276 -2.07163 0
M  V30 6368 H 617.827 1.39426 -2.65293 0
M  V30 6369 H 615.388 0.621331 -1.49503 0
M  V30 6370 H 617.38 3.70687 -1.62399 0
M  V30 6371 H 615.95 3.01777 -0.815456 0
M  V30 6372 H 615.17 2.30607 -3.19709 0
M  V30 6373 H 616.458 3.343 -3.83563 0
M  V30 6374 H 615.856 5.46407 -1.46477 0
M  V30 6375 H 614.413 6.18524 -2.05601 0
M  V30 6376 N 617.846 1.41785 0.688094 0
M  V30 6377 C 619.071 1.45117 1.48175 0
M  V30 6378 C 619.496 0.060129 1.88004 0
M  V30 6379 O 618.854 -0.938385 1.55126 0
M  V30 6380 C 618.902 2.37224 2.71583 0
M  V30 6381 O 618.006 1.83443 3.69354 0
M  V30 6382 H 617.347 0.492208 0.445676 0
M  V30 6383 H 619.877 1.86329 0.845145 0
M  V30 6384 H 619.887 2.53353 3.19806 0
M  V30 6385 H 618.562 3.38293 2.41931 0
M  V30 6386 H 617.139 1.76802 3.28322 0
M  V30 6387 N 619.324 -0.923095 1.27737 0
M  V30 6388 C 620.254 -2.04124 1.13383 0
M  V30 6389 C 621.235 -1.70066 0.0340658 0
M  V30 6390 O 622.42 -1.93068 0.209383 0
M  V30 6391 C 619.55 -3.3831 0.785097 0
M  V30 6392 C 618.504 -3.86496 1.8386 0
M  V30 6393 C 617.83 -5.1754 1.34373 0
M  V30 6394 C 619.13 -4.09381 3.24353 0
M  V30 6395 H 620.824 -2.1639 2.06919 0
M  V30 6396 H 618.37 -1.03976 0.996243 0
M  V30 6397 H 620.323 -4.16016 0.671485 0
M  V30 6398 H 619.047 -3.2607 -0.185969 0
M  V30 6399 H 617.706 -3.10987 1.9412 0
M  V30 6400 H 617.354 -5.01696 0.361989 0
M  V30 6401 H 617.054 -5.50751 2.04811 0
M  V30 6402 H 618.578 -5.97811 1.24315 0
M  V30 6403 H 619.992 -4.77641 3.17067 0
M  V30 6404 H 618.389 -4.53906 3.92542 0
M  V30 6405 H 619.459 -3.14515 3.69064 0
M  V30 6406 N 620.802 -1.09834 -1.13024 0
M  V30 6407 C 622.048 -0.83819 -1.84668 0
M  V30 6408 C 622.381 0.634645 -1.83537 0
M  V30 6409 O 621.656 1.46753 -1.27647 0
M  V30 6410 C 621.939 -1.37933 -3.32636 0
M  V30 6411 C 621.792 -2.91857 -3.42257 0
M  V30 6412 C 623.111 -1.01654 -4.28199 0
M  V30 6413 H 620.23 -0.30595 -0.670495 0
M  V30 6414 H 622.872 -1.36044 -1.32635 0
M  V30 6415 H 621.022 -0.935111 -3.77078 0
M  V30 6416 H 622.694 -3.44759 -3.06495 0
M  V30 6417 H 620.937 -3.28776 -2.83 0
M  V30 6418 H 621.608 -3.24799 -4.46329 0
M  V30 6419 H 624.084 -1.39973 -3.9185 0
M  V30 6420 H 622.96 -1.42217 -5.30156 0
M  V30 6421 H 623.221 0.0747794 -4.42037 0
M  V30 6422 N 622.28 1.30327 -0.886154 0
M  V30 6423 C 623.21 2.30549 -0.370028 0
M  V30 6424 C 624.191 1.61039 0.547751 0
M  V30 6425 O 625.376 1.8864 0.461353 0
M  V30 6426 C 622.506 3.44808 0.415275 0
M  V30 6427 C 621.46 4.26024 -0.41085 0
M  V30 6428 C 620.786 5.32347 0.501128 0
M  V30 6429 C 622.086 4.95433 -1.65359 0
M  V30 6430 H 623.78 2.73969 -1.20754 0
M  V30 6431 H 621.326 1.3171 -0.582097 0
M  V30 6432 H 623.279 4.13986 0.78699 0
M  V30 6433 H 622.003 3.00197 1.28644 0
M  V30 6434 H 620.662 3.58535 -0.764719 0
M  V30 6435 H 620.31 4.83982 1.37004 0
M  V30 6436 H 620.01 5.87581 -0.0478356 0
M  V30 6437 H 621.534 6.0438 0.869333 0
M  V30 6438 H 622.948 5.5712 -1.35239 0
M  V30 6439 H 621.345 5.60537 -2.14284 0
M  V30 6440 H 622.415 4.21493 -2.39733 0
M  V30 6441 N 623.758 0.647228 1.43697 0
M  V30 6442 C 625.006 0.157876 2.01482 0
M  V30 6443 C 625.327 -1.23039 1.51282 0
M  V30 6444 O 624.597 -1.82071 0.722982 0
M  V30 6445 H 623.177 0.0553745 0.744945 0
M  V30 6446 H 625.839 0.83755 1.75986 0
M  V30 6447 H 624.935 0.137895 3.11795 0
M  V30 6448 N 625.236 -1.5273 0.388769 0
M  V30 6449 C 626.199 -2.25043 -0.434544 0
M  V30 6450 C 627.199 -1.26661 -0.990644 0
M  V30 6451 O 628.389 -1.50762 -0.872731 0
M  V30 6452 C 625.521 -3.00507 -1.60961 0
M  V30 6453 H 626.714 -2.99242 0.198549 0
M  V30 6454 H 624.267 -1.55664 0.140875 0
M  V30 6455 H 625.002 -2.30607 -2.28015 0
M  V30 6456 H 624.787 -3.72716 -1.21757 0
M  V30 6457 H 626.277 -3.55413 -2.19251 0
M  V30 6458 N 626.714 -0.118576 -1.57153 0
M  V30 6459 C 628.125 0.40687 -1.82213 0
M  V30 6460 C 628.476 1.66636 -1.03571 0
M  V30 6461 O 627.601 2.14682 -0.272171 0
M  V30 6462 C 628.196 0.744949 -3.30509 0
M  V30 6463 C 626.755 1.21503 -3.5625 0
M  V30 6464 C 625.902 0.223511 -2.76398 0
M  V30 6465 H 628.853 -0.343712 -1.54933 0
M  V30 6466 H 628.874 1.6024 -3.45114 0
M  V30 6467 H 628.386 -0.171911 -3.87719 0
M  V30 6468 H 626.487 2.1488 -3.04396 0
M  V30 6469 H 626.6 1.16065 -4.64829 0
M  V30 6470 H 624.964 0.71046 -2.44591 0
M  V30 6471 H 625.747 -0.686439 -3.36367 0
M  V30 6472 N 628.193 1.56834 0.155195 0
M  V30 6473 C 629.609 1.51315 0.50755 0
M  V30 6474 C 629.809 0.825614 1.83809 0
M  V30 6475 O 628.865 0.39271 2.49427 0
M  V30 6476 C 630.178 2.96074 0.52542 0
M  V30 6477 C 631.726 3.06968 0.611505 0
M  V30 6478 C 632.201 4.53218 0.660115 0
M  V30 6479 N 633.692 4.5753 0.722564 0
M  V30 6480 C 634.427 5.68056 0.781023 0
M  V30 6481 N 633.923 6.88173 0.799327 0
M  V30 6482 N 635.716 5.56068 0.821278 0
M  V30 6483 H 627.867 1.9993 -0.717063 0
M  V30 6484 H 630.13 0.911507 -0.260496 0
M  V30 6485 H 629.836 3.49599 -0.383875 0
M  V30 6486 H 629.71 3.51587 1.36624 0
M  V30 6487 H 632.097 2.53468 1.51122 0
M  V30 6488 H 632.178 2.54513 -0.256306 0
M  V30 6489 H 631.822 5.07354 -0.23541 0
M  V30 6490 H 631.752 5.03447 1.5443 0
M  V30 6491 H 634.243 3.71054 0.716049 0
M  V30 6492 H 634.556 7.6816 0.845553 0
M  V30 6493 H 632.901 6.90751 0.767337 0
M  V30 6494 H 636.092 4.61142 0.804091 0
M  V30 6495 H 636.265 6.42223 0.863372 0
M  V30 6496 N 629.671 -0.424282 1.51781 0
M  V30 6497 C 630.901 -1.19297 1.68677 0
M  V30 6498 C 631.309 -1.85152 0.389258 0
M  V30 6499 O 630.652 -1.72067 -0.643311 0
M  V30 6500 C 630.714 -2.30929 2.75521 0
M  V30 6501 C 630.378 -1.85335 4.17732 0
M  V30 6502 C 631.375 -1.34951 5.0208 0
M  V30 6503 C 629.06 -1.92629 4.63896 0
M  V30 6504 C 631.054 -0.924636 6.30658 0
M  V30 6505 C 628.741 -1.49754 5.92467 0
M  V30 6506 C 629.739 -0.997543 6.75676 0
M  V30 6507 O 629.427 -0.57492 8.01842 0
M  V30 6508 H 629.159 -0.36512 0.568914 0
M  V30 6509 H 631.713 -0.507327 1.99036 0
M  V30 6510 H 629.943 -3.02811 2.40505 0
M  V30 6511 H 631.632 -2.92748 2.81165 0
M  V30 6512 H 632.398 -1.287 4.67612 0
M  V30 6513 H 628.277 -2.30491 3.99243 0
M  V30 6514 H 631.821 -0.533682 6.95556 0
M  V30 6515 H 627.718 -1.55679 6.26446 0
M  V30 6516 H 628.486 -0.699597 8.15505 0
M  V30 6517 N 631.149 -1.42148 -0.680565 0
M  V30 6518 C 632.081 -1.41119 -1.80605 0
M  V30 6519 C 633.094 -0.311099 -1.598 0
M  V30 6520 O 634.283 -0.573813 -1.69026 0
M  V30 6521 C 631.383 -1.18204 -3.17618 0
M  V30 6522 C 630.556 -2.40537 -3.65322 0
M  V30 6523 C 629.615 -2.13254 -4.8105 0
M  V30 6524 O 628.641 -2.8641 -4.91892 0
M  V30 6525 N 629.843 -1.13208 -5.69354 0
M  V30 6526 H 632.608 -2.38128 -1.81975 0
M  V30 6527 H 630.169 -1.36953 -0.863446 0
M  V30 6528 H 632.161 -0.97878 -3.92686 0
M  V30 6529 H 630.731 -0.29738 -3.11182 0
M  V30 6530 H 629.951 -2.76468 -2.80996 0
M  V30 6531 H 631.239 -3.22012 -3.93936 0
M  V30 6532 H 630.637 -0.526893 -5.63241 0
M  V30 6533 H 629.194 -0.988699 -6.44258 0
M  V30 6534 N 632.627 0.916307 -1.28225 0
M  V30 6535 C 633.577 2.00488 -1.08574 0
M  V30 6536 C 634.561 1.60897 -0.0101874 0
M  V30 6537 O 635.753 1.75499 -0.230034 0
M  V30 6538 C 632.882 3.35076 -0.746943 0
M  V30 6539 C 631.968 3.81077 -1.86121 0
M  V30 6540 N 632.359 3.99475 -3.10247 0
M  V30 6541 C 630.657 4.10212 -1.75048 0
M  V30 6542 C 631.358 4.37965 -3.82834 0
M  V30 6543 N 630.334 4.4608 -3.10667 0
M  V30 6544 H 634.136 2.1276 -2.02757 0
M  V30 6545 H 631.65 1.10397 -1.19107 0
M  V30 6546 H 633.647 4.12743 -0.587252 0
M  V30 6547 H 632.307 3.2416 0.187146 0
M  V30 6548 H 633.318 3.85466 -3.45885 0
M  V30 6549 H 629.995 4.07947 -0.887999 0
M  V30 6550 H 631.385 4.60183 -4.89572 0
M  V30 6551 N 634.105 1.10431 1.1244 0
M  V30 6552 C 635.333 0.868872 1.87772 0
M  V30 6553 C 635.748 -0.580645 1.7965 0
M  V30 6554 O 635.105 -1.40031 1.17036 0
M  V30 6555 C 635.156 1.30855 3.36986 0
M  V30 6556 O 634.877 2.70123 3.44914 0
M  V30 6557 C 636.378 1.107 4.29256 0
M  V30 6558 H 633.598 0.311868 0.59412 0
M  V30 6559 H 636.142 1.46897 1.42273 0
M  V30 6560 H 634.297 0.752126 3.80029 0
M  V30 6561 H 634.711 2.88923 4.37748 0
M  V30 6562 H 636.185 1.46378 5.32238 0
M  V30 6563 H 636.662 0.0456228 4.39176 0
M  V30 6564 H 637.268 1.64988 3.91994 0
M  V30 6565 N 635.583 -1.29855 0.893053 0
M  V30 6566 C 636.831 -1.9544 0.514566 0
M  V30 6567 C 637.152 -1.70795 -0.940959 0
M  V30 6568 O 636.422 -1.03601 -1.66264 0
M  V30 6569 H 635.002 -0.723137 0.187302 0
M  V30 6570 H 637.664 -1.58234 1.13789 0
M  V30 6571 H 636.76 -3.04341 0.691581 0
M  V30 6572 N 637.061 -0.65484 -1.43351 0
M  V30 6573 C 638.008 0.0357713 -2.30772 0
M  V30 6574 C 638.978 0.813035 -1.44841 0
M  V30 6575 O 640.163 0.789314 -1.73708 0
M  V30 6576 C 637.303 0.995084 -3.30442 0
M  V30 6577 C 636.416 0.21375 -4.31471 0
M  V30 6578 C 635.551 1.16701 -5.18222 0
M  V30 6579 C 634.59 0.376201 -6.10943 0
M  V30 6580 N 633.727 1.28113 -6.90313 0
M  V30 6581 H 638.567 -0.71559 -2.89281 0
M  V30 6582 H 636.104 -0.364645 -1.42509 0
M  V30 6583 H 638.062 1.5649 -3.86739 0
M  V30 6584 H 636.692 1.7133 -2.7358 0
M  V30 6585 H 635.744 -0.472377 -3.77456 0
M  V30 6586 H 637.056 -0.401103 -4.97185 0
M  V30 6587 H 636.21 1.8074 -5.79153 0
M  V30 6588 H 634.949 1.81577 -4.52638 0
M  V30 6589 H 633.954 -0.277534 -5.49099 0
M  V30 6590 H 635.179 -0.268178 -6.7857 0
M  V30 6591 H 633.125 1.91666 -6.27376 0
M  V30 6592 H 633.042 0.720879 -7.52555 0
M  V30 6593 H 634.31 1.90962 -7.55747 0
M  V30 6594 N 638.539 1.52521 -0.396863 0
M  V30 6595 C 639.502 2.2527 0.422604 0
M  V30 6596 C 640.502 1.27184 0.983913 0
M  V30 6597 O 641.692 1.51222 0.864723 0
M  V30 6598 C 638.824 3.01356 1.59365 0
M  V30 6599 H 640.017 2.99133 -0.214416 0
M  V30 6600 H 637.57 1.55587 -0.149128 0
M  V30 6601 H 638.305 2.31813 2.26789 0
M  V30 6602 H 638.09 3.73357 1.19779 0
M  V30 6603 H 639.58 3.56571 2.17363 0
M  V30 6604 N 640.017 0.126909 1.57088 0
M  V30 6605 C 641.263 -0.529952 1.95753 0
M  V30 6606 C 641.596 -1.65823 1.01077 0
M  V30 6607 O 640.871 -1.94437 0.0494162 0
M  V30 6608 C 641.154 -1.05517 3.44294 0
M  V30 6609 C 641.007 0.0702253 4.49745 0
M  V30 6610 C 642.326 -1.9435 3.94862 0
M  V30 6611 H 639.445 -0.191168 0.711775 0
M  V30 6612 H 642.087 0.204071 1.88901 0
M  V30 6613 H 640.237 -1.68069 3.50264 0
M  V30 6614 H 641.909 0.705834 4.55868 0
M  V30 6615 H 640.152 0.732259 4.27575 0
M  V30 6616 H 640.823 -0.338642 5.5096 0
M  V30 6617 H 643.299 -1.41658 3.91244 0
M  V30 6618 H 642.175 -2.28015 4.993 0
M  V30 6619 H 642.436 -2.87299 3.36024 0
M  V30 6620 N 641.495 -1.56914 -0.146875 0
M  V30 6621 C 642.744 -1.82546 -0.857898 0
M  V30 6622 C 643.057 -0.708169 -1.8233 0
M  V30 6623 O 644.263 -0.850093 -2.57848 0
M  V30 6624 C 642.719 -3.23548 -1.57623 0
M  V30 6625 C 642.327 -4.43212 -0.653224 0
M  V30 6626 C 644.071 -3.58453 -2.27402 0
M  V30 6627 C 641.978 -5.75237 -1.37318 0
M  V30 6628 H 640.908 -0.680786 -0.32411 0
M  V30 6629 H 643.559 -1.83166 -0.110639 0
M  V30 6630 H 641.941 -3.17315 -2.36912 0
M  V30 6631 H 643.115 -4.60682 0.104452 0
M  V30 6632 H 641.43 -4.16351 -0.0638336 0
M  V30 6633 H 644.027 -4.54349 -2.81907 0
M  V30 6634 H 644.37 -2.84516 -3.03901 0
M  V30 6635 H 644.903 -3.66347 -1.55032 0
M  V30 6636 H 641.642 -6.52269 -0.650041 0
M  V30 6637 H 641.162 -5.61703 -2.10357 0
M  V30 6638 H 642.841 -6.18039 -1.91406 0
M  V30 6639 N 642.974 0.416227 -1.52004 0
M  V30 6640 C 644.221 1.16383 -1.65714 0
M  V30 6641 C 644.549 1.9068 -0.383594 0
M  V30 6642 O 643.804 1.85174 0.633185 0
M  V30 6643 C 644.103 2.18923 -2.82502 0
M  V30 6644 C 643.769 1.61485 -4.20991 0
M  V30 6645 C 642.431 1.45545 -4.58661 0
M  V30 6646 C 644.783 1.19468 -5.07323 0
M  V30 6647 C 642.111 0.860937 -5.80349 0
M  V30 6648 C 644.463 0.614386 -6.29609 0
M  V30 6649 C 643.127 0.442056 -6.66035 0
M  V30 6650 H 642.397 0.425875 -0.606392 0
M  V30 6651 H 645.044 0.45199 -1.8609 0
M  V30 6652 H 643.349 2.96225 -2.56433 0
M  V30 6653 H 645.046 2.76628 -2.90307 0
M  V30 6654 H 641.636 1.74873 -3.91302 0
M  V30 6655 H 645.82 1.30596 -4.78809 0
M  V30 6656 H 641.076 0.715372 -6.072 0
M  V30 6657 H 645.25 0.280393 -6.95835 0
M  V30 6658 H 642.877 -0.0207218 -7.60197 0
M  V30 6659 N 644.452 1.42507 0.673017 0
M  V30 6660 C 645.68 1.46473 1.46128 0
M  V30 6661 C 646.095 0.0765912 1.88645 0
M  V30 6662 O 645.452 -0.909057 1.58248 0
M  V30 6663 C 645.503 2.39339 2.70923 0
M  V30 6664 O 645.224 3.72752 2.3019 0
M  V30 6665 C 646.725 2.52343 3.64469 0
M  V30 6666 H 643.945 0.49812 0.449575 0
M  V30 6667 H 646.489 1.87041 0.826802 0
M  V30 6668 H 644.644 2.02019 3.30556 0
M  V30 6669 H 645.058 4.22503 3.10791 0
M  V30 6670 H 646.532 3.2144 4.48754 0
M  V30 6671 H 647.009 1.56189 4.1049 0
M  V30 6672 H 647.615 2.90392 3.10729 0
M  V30 6673 N 645.93 -0.909495 1.28709 0
M  V30 6674 C 646.862 -2.01729 1.08804 0
M  V30 6675 C 647.875 -1.62755 0.0384739 0
M  V30 6676 O 649.064 -1.76259 0.281977 0
M  V30 6677 C 646.164 -3.32952 0.63217 0
M  V30 6678 C 645.337 -4.00512 1.75809 0
M  V30 6679 C 644.396 -5.10019 1.29488 0
M  V30 6680 O 643.422 -5.32986 1.99787 0
M  V30 6681 N 644.624 -5.80278 0.1604 0
M  V30 6682 H 647.389 -2.19362 2.04207 0
M  V30 6683 H 644.95 -1.08106 1.20518 0
M  V30 6684 H 646.942 -4.03543 0.305802 0
M  V30 6685 H 645.512 -3.11759 -0.229134 0
M  V30 6686 H 644.732 -3.23413 2.25383 0
M  V30 6687 H 646.02 -4.42395 2.51325 0
M  V30 6688 H 645.418 -5.64094 -0.425937 0
M  V30 6689 H 643.975 -6.51713 -0.106663 0
M  V30 6690 N 647.408 -1.11026 -1.11852 0
M  V30 6691 C 648.654 -0.857729 -1.83768 0
M  V30 6692 C 648.987 0.615143 -1.842 0
M  V30 6693 O 648.262 1.45391 -1.29196 0
M  V30 6694 C 648.545 -1.41453 -3.31154 0
M  V30 6695 C 648.398 -2.95471 -3.39142 0
M  V30 6696 C 649.717 -1.0619 -4.27097 0
M  V30 6697 H 646.836 -0.313044 -0.667212 0
M  V30 6698 H 649.478 -1.37443 -1.31185 0
M  V30 6699 H 647.628 -0.975052 -3.76065 0
M  V30 6700 H 649.3 -3.4799 -3.02821 0
M  V30 6701 H 647.543 -3.31759 -2.79497 0
M  V30 6702 H 648.214 -3.29515 -4.42859 0
M  V30 6703 H 650.69 -1.44122 -3.90344 0
M  V30 6704 H 649.566 -1.47832 -5.28618 0
M  V30 6705 H 649.827 0.0278912 -4.42091 0
M  V30 6706 N 648.886 1.2938 -0.899927 0
M  V30 6707 C 650.111 2.00228 -0.540692 0
M  V30 6708 C 650.536 1.66909 0.867359 0
M  V30 6709 O 649.894 0.893824 1.57735 0
M  V30 6710 C 649.942 3.52921 -0.740232 0
M  V30 6711 O 649.046 4.11879 0.207154 0
M  V30 6712 H 648.387 0.629505 -0.211233 0
M  V30 6713 H 650.917 1.6487 -1.21158 0
M  V30 6714 H 650.927 4.0287 -0.644973 0
M  V30 6715 H 649.602 3.76508 -1.76677 0
M  V30 6716 H 648.179 3.72845 0.0643315 0
M  V30 6717 N 650.364 0.662433 1.43002 0
M  V30 6718 C 651.78 0.330835 1.56133 0
M  V30 6719 C 651.98 -1.16454 1.64441 0
M  V30 6720 O 651.036 -1.94964 1.60453 0
M  V30 6721 C 652.349 1.05029 2.81761 0
M  V30 6722 C 653.897 1.03142 2.95518 0
M  V30 6723 C 654.372 1.73196 4.2399 0
M  V30 6724 N 655.863 1.70004 4.30875 0
M  V30 6725 C 656.598 2.21074 5.29069 0
M  V30 6726 N 656.094 2.80473 6.33488 0
M  V30 6727 N 657.887 2.1152 5.20784 0
M  V30 6728 H 650.038 1.63272 1.35853 0
M  V30 6729 H 652.301 0.687149 0.653092 0
M  V30 6730 H 652.007 2.10542 2.81718 0
M  V30 6731 H 651.881 0.607664 3.72273 0
M  V30 6732 H 654.268 -0.0153339 2.95096 0
M  V30 6733 H 654.349 1.51282 2.0627 0
M  V30 6734 H 653.993 2.77833 4.25172 0
M  V30 6735 H 653.923 1.22515 5.1215 0
M  V30 6736 H 656.414 1.26667 3.56039 0
M  V30 6737 H 656.727 3.17094 7.04749 0
M  V30 6738 H 655.072 2.84538 6.34085 0
M  V30 6739 H 658.263 1.64814 4.38126 0
M  V30 6740 H 658.436 2.51629 5.97149 0
M  V30 6741 N 651.842 -1.52309 0.404946 0
M  V30 6742 C 652.774 -2.24579 -0.45791 0
M  V30 6743 C 653.787 -1.2739 -1.01369 0
M  V30 6744 O 654.976 -1.53363 -0.91335 0
M  V30 6745 C 652.076 -2.9608 -1.64893 0
M  V30 6746 C 651.249 -4.20106 -1.21777 0
M  V30 6747 C 650.308 -4.74468 -2.27523 0
M  V30 6748 O 649.334 -5.37157 -1.88285 0
M  V30 6749 N 650.536 -4.55678 -3.59635 0
M  V30 6750 H 653.301 -2.99265 0.161341 0
M  V30 6751 H 650.862 -1.60228 0.232107 0
M  V30 6752 H 652.854 -3.29344 -2.35191 0
M  V30 6753 H 651.424 -2.24606 -2.17419 0
M  V30 6754 H 650.644 -3.92704 -0.343071 0
M  V30 6755 H 651.932 -5.00658 -0.906596 0
M  V30 6756 H 651.33 -4.05673 -3.94266 0
M  V30 6757 H 649.887 -4.9339 -4.25922 0
M  V30 6758 N 653.32 -0.135238 -1.57019 0
M  V30 6759 C 654.566 0.513232 -1.96818 0
M  V30 6760 C 654.921 1.63245 -1.01827 0
M  V30 6761 O 654.214 1.91532 -0.0511756 0
M  V30 6762 C 654.408 1.07694 -3.40788 0
M  V30 6763 C 654.237 0.0138667 -4.49698 0
M  V30 6764 C 653.007 -0.423532 -5.03522 0
M  V30 6765 C 655.205 -0.77322 -5.08454 0
M  V30 6766 N 653.187 -1.47068 -5.96024 0
M  V30 6767 C 654.558 -1.67115 -5.97053 0
M  V30 6768 C 656.613 -0.822313 -4.91063 0
M  V30 6769 C 655.316 -2.61395 -6.70123 0
M  V30 6770 C 657.342 -1.75288 -5.64826 0
M  V30 6771 C 656.704 -2.63836 -6.53123 0
M  V30 6772 H 652.803 0.156956 -0.766087 0
M  V30 6773 H 655.387 -0.227118 -1.93371 0
M  V30 6774 H 653.558 1.78694 -3.44852 0
M  V30 6775 H 655.29 1.69106 -3.67675 0
M  V30 6776 H 652.045 -0.0280202 -4.73592 0
M  V30 6777 H 652.469 -1.99366 -6.46979 0
M  V30 6778 H 657.111 -0.151822 -4.22527 0
M  V30 6779 H 654.829 -3.2945 -7.37895 0
M  V30 6780 H 658.415 -1.79652 -5.53368 0
M  V30 6781 H 657.295 -3.34672 -7.092 0
M  V30 6782 N 654.798 1.5699 0.138552 0
M  V30 6783 C 656.214 1.51844 0.491472 0
M  V30 6784 C 656.414 0.845063 1.82923 0
M  V30 6785 O 655.47 0.419143 2.48997 0
M  V30 6786 C 656.783 2.96615 0.493987 0
M  V30 6787 C 658.331 3.076 0.578913 0
M  V30 6788 C 658.806 4.53893 0.612009 0
M  V30 6789 N 660.297 4.5827 0.673997 0
M  V30 6790 C 661.032 5.68852 0.720729 0
M  V30 6791 N 660.528 6.88982 0.726292 0
M  V30 6792 N 662.321 5.56908 0.762253 0
M  V30 6793 H 654.472 1.99158 -0.738228 0
M  V30 6794 H 656.735 0.908693 -0.270149 0
M  V30 6795 H 656.441 3.49172 -0.420933 0
M  V30 6796 H 656.315 3.53017 1.32887 0
M  V30 6797 H 658.702 2.55057 1.48425 0
M  V30 6798 H 658.783 2.54227 -0.283286 0
M  V30 6799 H 658.427 5.07076 -0.289208 0
M  V30 6800 H 658.357 5.05057 1.49082 0
M  V30 6801 H 660.848 3.71793 0.676654 0
M  V30 6802 H 661.161 7.69014 0.764032 0
M  V30 6803 H 659.506 6.91526 0.69403 0
M  V30 6804 H 662.697 4.61969 0.755135 0
M  V30 6805 H 662.87 6.43102 0.795207 0
M  V30 6806 N 656.276 -0.40816 1.52223 0
M  V30 6807 C 657.209 -1.51834 1.70357 0
M  V30 6808 C 658.187 -1.52973 0.551171 0
M  V30 6809 O 659.371 -1.71667 0.778642 0
M  V30 6810 C 656.498 -2.90362 1.74378 0
M  V30 6811 C 655.544 -3.0713 2.95928 0
M  V30 6812 S 656.377 -2.80342 4.56255 0
M  V30 6813 C 657.533 -4.21098 4.63063 0
M  V30 6814 H 657.766 -1.36223 2.64255 0
M  V30 6815 H 655.299 -0.599798 1.42274 0
M  V30 6816 H 657.257 -3.70199 1.77379 0
M  V30 6817 H 655.918 -3.03314 0.816063 0
M  V30 6818 H 655.111 -4.08482 2.95226 0
M  V30 6819 H 654.713 -2.3516 2.90819 0
M  V30 6820 H 657.005 -5.14749 4.40499 0
M  V30 6821 H 657.948 -4.26823 5.65002 0
M  V30 6822 H 658.356 -4.06114 3.92086 0
M  V30 6823 N 657.755 -1.42862 -0.66545 0
M  V30 6824 C 658.702 -1.4707 -1.77874 0
M  V30 6825 C 659.672 -0.321654 -1.62956 0
M  V30 6826 O 660.857 -0.52707 -1.83376 0
M  V30 6827 C 657.997 -1.38788 -3.15962 0
M  V30 6828 C 657.11 -2.63801 -3.42101 0
M  V30 6829 C 656.245 -2.47594 -4.69969 0
M  V30 6830 C 655.284 -3.67936 -4.89172 0
M  V30 6831 N 654.421 -3.50614 -6.08288 0
M  V30 6832 H 659.261 -2.42204 -1.73613 0
M  V30 6833 H 656.798 -1.20239 -0.847401 0
M  V30 6834 H 658.756 -1.31982 -3.95773 0
M  V30 6835 H 657.386 -0.472431 -3.19324 0
M  V30 6836 H 656.438 -2.80935 -2.56475 0
M  V30 6837 H 657.75 -3.53228 -3.52181 0
M  V30 6838 H 656.904 -2.38427 -5.57886 0
M  V30 6839 H 655.643 -1.55672 -4.62188 0
M  V30 6840 H 654.648 -3.77525 -3.99694 0
M  V30 6841 H 655.873 -4.60851 -4.98792 0
M  V30 6842 H 653.819 -2.61417 -6.01662 0
M  V30 6843 H 653.736 -4.33634 -6.19272 0
M  V30 6844 H 655.004 -3.45276 -6.98859 0
M  V30 6845 N 659.233 0.902656 -1.29189 0
M  V30 6846 C 660.196 1.98797 -1.14071 0
M  V30 6847 C 661.196 1.60615 -0.0770549 0
M  V30 6848 O 662.386 1.71165 -0.323753 0
M  V30 6849 C 659.518 3.32688 -0.743739 0
M  V30 6850 H 660.711 2.13637 -2.10473 0
M  V30 6851 H 658.264 1.08678 -1.12334 0
M  V30 6852 H 658.999 3.23549 0.220554 0
M  V30 6853 H 658.784 3.61765 -1.51223 0
M  V30 6854 H 660.274 4.12337 -0.660935 0
M  V30 6855 N 660.711 1.11618 1.11262 0
M  V30 6856 C 661.621 0.78898 2.20935 0
M  V30 6857 C 662.637 -0.21867 1.7262 0
M  V30 6858 O 663.813 -0.0543826 2.01327 0
M  V30 6859 C 660.878 0.239014 3.45875 0
M  V30 6860 C 659.939 1.3055 4.08968 0
M  V30 6861 C 659.172 0.781687 5.27944 0
M  V30 6862 O 659.395 -0.387605 5.69082 0
M  V30 6863 O 658.329 1.54734 5.81671 0
M  V30 6864 H 662.155 1.70477 2.51339 0
M  V30 6865 H 659.74 0.892203 1.19834 0
M  V30 6866 H 661.622 -0.0632312 4.21353 0
M  V30 6867 H 660.297 -0.649454 3.17118 0
M  V30 6868 H 659.204 1.66079 3.35214 0
M  V30 6869 H 660.537 2.16743 4.41909 0
M  V30 6870 N 662.189 -1.289 0.906776 0
M  V30 6871 C 663.435 -1.95558 0.53712 0
M  V30 6872 C 663.768 -1.71262 -0.915582 0
M  V30 6873 O 663.043 -1.02961 -1.65013 0
M  V30 6874 C 663.326 -3.50198 0.838645 0
M  V30 6875 C 663.179 -3.83923 2.34357 0
M  V30 6876 C 664.498 -4.38861 0.329988 0
M  V30 6877 H 661.617 -0.710289 0.196617 0
M  V30 6878 H 664.259 -1.52392 1.13475 0
M  V30 6879 H 662.409 -3.87096 0.330024 0
M  V30 6880 H 664.081 -3.56933 2.92227 0
M  V30 6881 H 662.324 -3.31215 2.80141 0
M  V30 6882 H 662.995 -4.91883 2.5051 0
M  V30 6883 H 665.471 -4.08996 0.765609 0
M  V30 6884 H 664.347 -5.45931 0.570105 0
M  V30 6885 H 664.608 -4.35352 -0.769511 0
M  V30 6886 N 663.667 -0.670007 -1.42649 0
M  V30 6887 C 664.895 -0.19854 -2.05945 0
M  V30 6888 C 665.31 1.14243 -1.50313 0
M  V30 6889 O 664.667 1.70872 -0.641027 0
M  V30 6890 C 664.718 -0.11966 -3.61302 0
M  V30 6891 O 664.439 -1.40764 -4.1487 0
M  V30 6892 C 665.94 0.375878 -4.41704 0
M  V30 6893 H 663.16 -0.0976894 -0.663851 0
M  V30 6894 H 665.704 -0.915392 -1.82868 0
M  V30 6895 H 663.859 0.547851 -3.83507 0
M  V30 6896 H 664.273 -1.27784 -5.08696 0
M  V30 6897 H 665.747 0.379988 -5.50691 0
M  V30 6898 H 666.224 1.41028 -4.15942 0
M  V30 6899 H 666.83 -0.259727 -4.24506 0
M  V30 6900 N 665.145 1.52092 -0.413018 0
M  V30 6901 C 666.393 2.01456 0.161178 0
M  V30 6902 C 666.714 1.30034 1.45314 0
M  V30 6903 O 665.984 0.427435 1.9118 0
M  V30 6904 H 664.564 0.744376 0.0625526 0
M  V30 6905 H 667.226 1.86974 -0.550151 0
M  V30 6906 H 666.322 3.1008 0.354517 0
M  V30 6907 N 666.623 0.143563 1.56945 0
M  V30 6908 C 667.851 -0.515447 2.00377 0
M  V30 6909 C 668.266 -1.58643 1.02361 0
M  V30 6910 O 667.623 -1.82489 0.0201039 0
M  V30 6911 C 667.674 -1.11923 3.43737 0
M  V30 6912 O 667.395 -0.0910318 4.38005 0
M  V30 6913 C 668.896 -1.85918 4.02429 0
M  V30 6914 H 666.116 -0.134478 0.657386 0
M  V30 6915 H 668.66 0.237135 2.0312 0
M  V30 6916 H 666.815 -1.82245 3.41856 0
M  V30 6917 H 667.229 -0.532916 5.21786 0
M  V30 6918 H 668.703 -2.2346 5.04747 0
M  V30 6919 H 669.18 -2.7438 3.42947 0
M  V30 6920 H 669.786 -1.20303 4.07931 0
M  V30 6921 N 668.101 -1.57061 -0.130224 0
M  V30 6922 C 669.033 -1.96147 -1.18571 0
M  V30 6923 C 670.046 -0.859347 -1.38272 0
M  V30 6924 O 671.235 -1.13769 -1.37545 0
M  V30 6925 C 668.335 -2.23484 -2.54771 0
M  V30 6926 C 667.508 -3.54786 -2.55824 0
M  V30 6927 C 666.567 -3.70467 -3.73686 0
M  V30 6928 O 665.593 -4.42693 -3.57787 0
M  V30 6929 N 666.795 -3.08389 -4.91809 0
M  V30 6930 H 669.56 -2.87295 -0.853333 0
M  V30 6931 H 667.121 -1.58714 -0.319621 0
M  V30 6932 H 669.113 -2.312 -3.32158 0
M  V30 6933 H 667.683 -1.38518 -2.80235 0
M  V30 6934 H 666.903 -3.5836 -1.64232 0
M  V30 6935 H 668.191 -4.4111 -2.53573 0
M  V30 6936 H 667.589 -2.49656 -5.0763 0
M  V30 6937 H 666.146 -3.21642 -5.66912 0
M  V30 6938 N 669.579 0.400081 -1.52437 0
M  V30 6939 C 670.828 1.14332 -1.66166 0
M  V30 6940 C 671.141 1.91419 -0.402253 0
M  V30 6941 O 672.347 2.6824 -0.419487 0
M  V30 6942 C 670.803 2.08137 -2.9361 0
M  V30 6943 C 670.411 1.36524 -4.26691 0
M  V30 6944 C 672.155 2.82664 -3.16703 0
M  V30 6945 C 670.062 2.29031 -5.45251 0
M  V30 6946 H 668.992 0.430499 -0.61902 0
M  V30 6947 H 671.643 0.407017 -1.78929 0
M  V30 6948 H 670.025 2.85358 -2.74567 0
M  V30 6949 H 671.199 0.646061 -4.56249 0
M  V30 6950 H 669.514 0.74002 -4.09771 0
M  V30 6951 H 672.111 3.52037 -4.0246 0
M  V30 6952 H 672.454 3.46122 -2.31312 0
M  V30 6953 H 672.987 2.12541 -3.36261 0
M  V30 6954 H 669.726 1.70206 -6.33017 0
M  V30 6955 H 669.246 2.98896 -5.2002 0
M  V30 6956 H 670.925 2.89359 -5.78689 0
M  V30 6957 N 671.057 1.43213 0.657864 0
M  V30 6958 C 672.305 1.44298 1.41501 0
M  V30 6959 C 672.626 0.0666478 1.94886 0
M  V30 6960 O 671.896 -0.897345 1.74139 0
M  V30 6961 H 670.476 0.531257 0.525143 0
M  V30 6962 H 673.138 1.78777 0.776195 0
M  V30 6963 H 672.234 2.1528 2.25966 0
M  V30 6964 N 672.536 -0.895792 1.29666 0
M  V30 6965 C 673.761 -1.68528 1.20885 0
M  V30 6966 C 674.186 -1.8673 -0.226595 0
M  V30 6967 O 673.544 -1.39044 -1.16347 0
M  V30 6968 C 673.592 -3.04512 1.93144 0
M  V30 6969 O 672.696 -3.92963 1.25115 0
M  V30 6970 H 672.037 -0.515371 0.418675 0
M  V30 6971 H 674.567 -1.11878 1.71302 0
M  V30 6972 H 674.577 -3.54628 2.0175 0
M  V30 6973 H 673.252 -2.90582 2.97548 0
M  V30 6974 H 671.829 -3.51399 1.24794 0
M  V30 6975 N 674.014 -1.12206 -1.10668 0
M  V30 6976 C 675.244 -0.897332 -1.86095 0
M  V30 6977 C 675.652 0.556778 -1.80822 0
M  V30 6978 O 674.995 1.39658 -1.19337 0
M  V30 6979 C 675.057 -1.29095 -3.35522 0
M  V30 6980 C 674.721 -2.75586 -3.64556 0
M  V30 6981 C 675.718 -3.73785 -3.6136 0
M  V30 6982 C 673.403 -3.12432 -3.93309 0
M  V30 6983 C 675.397 -5.06845 -3.86506 0
M  V30 6984 C 673.084 -4.45675 -4.18111 0
M  V30 6985 C 674.082 -5.42691 -4.147 0
M  V30 6986 O 673.77 -6.73532 -4.38873 0
M  V30 6987 H 673.502 -0.320704 -0.595084 0
M  V30 6988 H 676.056 -1.49517 -1.40833 0
M  V30 6989 H 674.286 -0.636299 -3.81429 0
M  V30 6990 H 675.975 -1.04073 -3.92331 0
M  V30 6991 H 676.741 -3.46664 -3.39189 0
M  V30 6992 H 672.62 -2.3753 -3.95096 0
M  V30 6993 H 676.164 -5.82559 -3.83758 0
M  V30 6994 H 672.061 -4.72526 -4.39761 0
M  V30 6995 H 672.829 -6.79442 -4.564 0
M  V30 6996 N 675.492 1.28418 -0.913599 0
M  V30 6997 C 676.739 1.94981 -0.546674 0
M  V30 6998 C 677.067 1.7192 0.909606 0
M  V30 6999 O 676.322 1.03314 1.66207 0
M  V30 7000 C 676.621 3.48283 -0.802099 0
M  V30 7001 C 676.287 3.91444 -2.2379 0
M  V30 7002 C 674.949 4.02939 -2.63046 0
M  V30 7003 C 677.301 4.13542 -3.17227 0
M  V30 7004 C 674.629 4.3391 -3.94891 0
M  V30 7005 C 676.981 4.45992 -4.48636 0
M  V30 7006 C 675.645 4.55698 -4.87746 0
M  V30 7007 H 674.915 0.713487 -0.200042 0
M  V30 7008 H 677.562 1.52756 -1.15489 0
M  V30 7009 H 675.867 3.91643 -0.111076 0
M  V30 7010 H 677.564 3.97903 -0.497375 0
M  V30 7011 H 674.154 3.83024 -1.9233 0
M  V30 7012 H 678.338 4.04114 -2.88107 0
M  V30 7013 H 673.594 4.39631 -4.24894 0
M  V30 7014 H 677.768 4.62038 -5.21051 0
M  V30 7015 H 675.395 4.79451 -5.89942 0
M  V30 7016 N 676.97 0.677563 1.42291 0
M  V30 7017 C 678.218 0.200578 2.01102 0
M  V30 7018 C 678.539 -1.19803 1.53858 0
M  V30 7019 O 677.809 -1.80496 0.761439 0
M  V30 7020 H 676.389 0.0711634 0.743603 0
M  V30 7021 H 679.051 0.874691 1.7417 0
M  V30 7022 H 678.147 0.204 3.11433 0
M  V30 7023 N 678.448 -1.51871 0.421078 0
M  V30 7024 C 679.411 -2.25914 -0.386712 0
M  V30 7025 C 680.411 -1.28733 -0.963555 0
M  V30 7026 O 681.601 -1.52579 -0.840556 0
M  V30 7027 C 678.733 -3.03853 -1.54551 0
M  V30 7028 H 679.926 -2.98754 0.261978 0
M  V30 7029 H 677.479 -1.5533 0.173862 0
M  V30 7030 H 678.214 -2.35392 -2.23072 0
M  V30 7031 H 677.999 -3.75215 -1.13824 0
M  V30 7032 H 679.489 -3.59984 -2.11663 0
M  V30 7033 N 679.926 -0.151884 -1.56866 0
M  V30 7034 C 681.151 0.508044 -2.01081 0
M  V30 7035 C 681.576 1.57306 -1.03134 0
M  V30 7036 O 680.934 1.81298 -0.0078309 0
M  V30 7037 C 680.982 1.08106 -3.44014 0
M  V30 7038 O 680.086 2.19577 -3.49084 0
M  V30 7039 H 679.427 0.123757 -0.652365 0
M  V30 7040 H 681.957 -0.250055 -2.03066 0
M  V30 7041 H 681.967 1.40851 -3.82916 0
M  V30 7042 H 680.642 0.301168 -4.14808 0
M  V30 7043 H 679.219 1.88023 -3.22027 0
M  V30 7044 N 681.404 1.57128 0.121893 0
M  V30 7045 C 682.334 2.03165 1.15092 0
M  V30 7046 C 683.315 0.915587 1.43356 0
M  V30 7047 O 684.5 1.1851 1.53847 0
M  V30 7048 C 681.63 2.43352 2.47784 0
M  V30 7049 C 680.584 3.58376 2.33989 0
M  V30 7050 C 679.91 3.84454 3.71617 0
M  V30 7051 C 681.21 4.90199 1.80283 0
M  V30 7052 H 682.904 2.89382 0.768023 0
M  V30 7053 H 680.45 1.39218 0.367998 0
M  V30 7054 H 682.403 2.74163 3.20019 0
M  V30 7055 H 681.127 1.54103 2.87958 0
M  V30 7056 H 679.786 3.2777 1.64202 0
M  V30 7057 H 679.434 2.92414 4.09271 0
M  V30 7058 H 679.134 4.61877 3.6324 0
M  V30 7059 H 680.658 4.17714 4.45362 0
M  V30 7060 H 682.072 5.19565 2.42333 0
M  V30 7061 H 680.469 5.71601 1.82735 0
M  V30 7062 H 681.539 4.78904 0.760184 0
M  V30 7063 N 682.882 -0.391992 1.52647 0
M  V30 7064 C 684.122 -1.1463 1.69232 0
M  V30 7065 C 684.486 -1.87312 0.421684 0
M  V30 7066 O 685.687 -2.64768 0.463852 0
M  V30 7067 C 683.958 -2.10088 2.89133 0
M  V30 7068 S 685.517 -2.93395 3.2629 0
M  V30 7069 H 682.335 -0.388076 0.59575 0
M  V30 7070 H 684.937 -0.431149 1.90687 0
M  V30 7071 H 683.641 -1.55408 3.79837 0
M  V30 7072 H 683.172 -2.86116 2.70003 0
M  V30 7073 H 685.187 -4.12193 2.76244 0
M  V30 7074 N 684.36 -1.4356 -0.65026 0
M  V30 7075 C 685.585 -1.48995 -1.44275 0
M  V30 7076 C 686.01 -0.109954 -1.87778 0
M  V30 7077 O 685.368 0.896926 -1.57559 0
M  V30 7078 C 685.416 -2.44341 -2.65198 0
M  V30 7079 O 684.52 -1.93172 -3.6436 0
M  V30 7080 H 683.861 -0.503852 -0.432469 0
M  V30 7081 H 686.391 -1.88504 -0.795446 0
M  V30 7082 H 686.401 -2.61743 -3.12977 0
M  V30 7083 H 685.076 -3.44588 -2.32877 0
M  V30 7084 H 683.653 -1.85445 -3.23519 0
M  V30 7085 N 685.838 0.888903 -1.30139 0
M  V30 7086 C 687.084 1.6428 -1.18912 0
M  V30 7087 C 687.417 1.92499 0.256477 0
M  V30 7088 O 686.692 1.54312 1.18397 0
M  V30 7089 C 686.975 2.9851 -2.01405 0
M  V30 7090 C 686.828 2.77288 -3.54163 0
M  V30 7091 C 688.147 3.99383 -1.84882 0
M  V30 7092 H 685.266 0.596148 -0.433333 0
M  V30 7093 H 687.908 1.0289 -1.5973 0
M  V30 7094 H 686.058 3.50907 -1.66722 0
M  V30 7095 H 687.73 2.31709 -3.98884 0
M  V30 7096 H 685.973 2.11867 -3.78543 0
M  V30 7097 H 686.644 3.72717 -4.07168 0
M  V30 7098 H 689.12 3.56132 -2.15196 0
M  V30 7099 H 687.996 4.91222 -2.44934 0
M  V30 7100 H 688.257 4.34674 -0.806902 0
M  V30 7101 N 687.317 1.12792 1.10072 0
M  V30 7102 C 688.594 0.796867 1.78632 0
M  V30 7103 C 688.974 -0.712739 1.98704 0
M  V30 7104 O 688.322 -1.64773 1.5831 0
M  V30 7105 C 688.532 1.57622 3.11378 0
M  V30 7106 C 689.88 1.76463 3.86194 0
M  V30 7107 O 690.904 1.54165 3.2111 0
M  V30 7108 O 689.763 2.13623 5.03018 0
M  V30 7109 H 686.857 0.290248 0.774394 0
M  V30 7110 H 689.403 1.23215 1.16688 0
M  V30 7111 H 688.175 2.60246 2.92212 0
M  V30 7112 H 687.798 1.13543 3.81043 0
M  V30 7113 N 688.795 -1.27931 0.920396 0
M  V30 7114 C 690.041 -1.94977 0.557832 0
M  V30 7115 C 690.374 -1.72224 -0.897365 0
M  V30 7116 O 689.649 -1.04705 -1.63912 0
M  V30 7117 C 689.932 -3.49289 0.875741 0
M  V30 7118 C 689.785 -3.81416 2.38416 0
M  V30 7119 C 691.104 -4.38486 0.376517 0
M  V30 7120 H 688.223 -0.708164 0.20414 0
M  V30 7121 H 690.865 -1.5118 1.15085 0
M  V30 7122 H 689.015 -3.86724 0.371062 0
M  V30 7123 H 690.687 -3.53813 2.95997 0
M  V30 7124 H 688.93 -3.28225 2.83639 0
M  V30 7125 H 689.601 -4.89198 2.55713 0
M  V30 7126 H 692.077 -4.08161 0.808945 0
M  V30 7127 H 690.953 -5.45296 0.627976 0
M  V30 7128 H 691.214 -4.36143 -0.723293 0
M  V30 7129 N 690.273 -0.685099 -1.4193 0
M  V30 7130 C 691.55 -0.140152 -1.95097 0
M  V30 7131 C 691.93 1.34745 -1.62502 0
M  V30 7132 O 691.278 2.08872 -0.926534 0
M  V30 7133 C 691.488 -0.420268 -3.4646 0
M  V30 7134 C 692.836 -0.342338 -4.23218 0
M  V30 7135 O 693.86 -0.354592 -3.54431 0
M  V30 7136 O 692.719 -0.293404 -5.45712 0
M  V30 7137 H 689.813 -0.00885998 -0.826953 0
M  V30 7138 H 692.359 -0.760539 -1.51703 0
M  V30 7139 H 691.131 -1.45037 -3.63428 0
M  V30 7140 H 690.754 0.231616 -3.96925 0
M  V30 7141 N 691.751 1.51645 -0.429126 0
M  V30 7142 C 692.976 2.06917 0.141399 0
M  V30 7143 C 693.401 1.29527 1.36398 0
M  V30 7144 O 692.759 0.33094 1.78254 0
M  V30 7145 C 692.807 3.57776 0.4504 0
M  V30 7146 O 691.911 3.82639 1.53821 0
M  V30 7147 H 691.252 0.663978 0.0054647 0
M  V30 7148 H 693.782 1.95355 -0.608093 0
M  V30 7149 H 693.792 4.01894 0.703249 0
M  V30 7150 H 692.467 4.13532 -0.443213 0
M  V30 7151 H 691.044 3.5039 1.27597 0
M  V30 7152 N 693.229 0.160201 1.56784 0
M  V30 7153 C 694.506 -0.533355 1.88188 0
M  V30 7154 C 694.886 -1.82072 1.06831 0
M  V30 7155 O 694.234 -2.27946 0.158959 0
M  V30 7156 C 694.444 -0.786034 3.40033 0
M  V30 7157 C 695.792 -1.12097 4.09536 0
M  V30 7158 O 696.816 -0.874949 3.45287 0
M  V30 7159 O 695.675 -1.58457 5.23023 0
M  V30 7160 H 692.769 -0.273589 0.780434 0
M  V30 7161 H 695.315 0.197803 1.68543 0
M  V30 7162 H 694.087 0.124515 3.91102 0
M  V30 7163 H 693.71 -1.57091 3.65251 0
M  V30 7164 N 694.707 -1.5719 -0.113559 0
M  V30 7165 C 695.955 -1.84772 -0.818761 0
M  V30 7166 C 696.276 -0.746196 -1.80158 0
M  V30 7167 O 695.546 0.229305 -1.94553 0
M  V30 7168 H 694.126 -0.681737 -0.305359 0
M  V30 7169 H 696.788 -1.94645 -0.0995845 0
M  V30 7170 H 695.884 -2.80878 -1.36067 0
M  V30 7171 N 696.185 0.383891 -1.52853 0
M  V30 7172 C 697.41 1.154 -1.7233 0
M  V30 7173 C 697.835 1.82809 -0.44298 0
M  V30 7174 O 697.193 1.71026 0.601645 0
M  V30 7175 C 697.241 2.17386 -2.87708 0
M  V30 7176 O 696.345 3.24082 -2.55038 0
M  V30 7177 H 695.686 0.335709 -0.572883 0
M  V30 7178 H 698.216 0.44662 -1.99666 0
M  V30 7179 H 698.226 2.61296 -3.1335 0
M  V30 7180 H 696.901 1.6771 -3.80587 0
M  V30 7181 H 695.478 2.85273 -2.40153 0
M  V30 7182 N 697.663 1.43903 0.642637 0
M  V30 7183 C 698.891 1.4954 1.42988 0
M  V30 7184 C 699.306 0.116588 1.8844 0
M  V30 7185 O 698.663 -0.875285 1.60141 0
M  V30 7186 C 698.714 2.45031 2.65785 0
M  V30 7187 O 698.435 3.77551 2.22232 0
M  V30 7188 C 699.936 2.60017 3.59035 0
M  V30 7189 H 697.156 0.507544 0.438907 0
M  V30 7190 H 699.7 1.88752 0.786942 0
M  V30 7191 H 697.855 2.08985 3.26196 0
M  V30 7192 H 698.269 4.29001 3.01759 0
M  V30 7193 H 699.743 3.30887 4.41835 0
M  V30 7194 H 700.22 1.64861 4.07084 0
M  V30 7195 H 700.826 2.96918 3.045 0
M  V30 7196 N 699.141 -0.881989 1.30609 0
M  V30 7197 C 700.418 -1.61563 1.10258 0
M  V30 7198 C 700.798 -2.08228 -0.347053 0
M  V30 7199 O 700.146 -1.85151 -1.33908 0
M  V30 7200 C 700.356 -2.78287 2.10612 0
M  V30 7201 C 701.704 -3.48545 2.4249 0
M  V30 7202 O 702.728 -2.88479 2.08945 0
M  V30 7203 O 701.587 -4.56873 2.99883 0
M  V30 7204 H 698.681 -0.710238 0.423663 0
M  V30 7205 H 701.227 -0.928503 1.42045 0
M  V30 7206 H 699.999 -2.41131 3.08174 0
M  V30 7207 H 699.622 -3.54695 1.79659 0
M  V30 7208 N 700.619 -1.13374 -1.09472 0
M  V30 7209 C 701.549 -0.833268 -2.18126 0
M  V30 7210 C 702.53 0.207169 -1.68834 0
M  V30 7211 O 703.715 0.0662012 -1.94087 0
M  V30 7212 C 700.845 -0.297979 -3.46019 0
M  V30 7213 C 699.799 -1.27261 -4.08642 0
M  V30 7214 C 699.125 -0.597104 -5.31356 0
M  V30 7215 C 700.425 -2.63095 -4.51197 0
M  V30 7216 H 702.119 -1.74182 -2.43518 0
M  V30 7217 H 699.665 -0.838921 -1.17039 0
M  V30 7218 H 701.618 -0.0754444 -4.21332 0
M  V30 7219 H 700.342 0.645959 -3.20148 0
M  V30 7220 H 699.001 -1.48113 -3.35348 0
M  V30 7221 H 698.649 0.352293 -5.01765 0
M  V30 7222 H 698.349 -1.24734 -5.74208 0
M  V30 7223 H 699.873 -0.38384 -6.09392 0
M  V30 7224 H 701.287 -2.46214 -5.17737 0
M  V30 7225 H 699.684 -3.2429 -5.04932 0
M  V30 7226 H 700.754 -3.20793 -3.6362 0
M  V30 7227 N 702.098 1.27442 -0.927168 0
M  V30 7228 C 703.344 1.94679 -0.568164 0
M  V30 7229 C 703.677 1.72697 0.888219 0
M  V30 7230 O 702.952 1.05573 1.63354 0
M  V30 7231 C 703.235 3.4882 -0.894253 0
M  V30 7232 C 703.088 3.80146 -2.40435 0
M  V30 7233 C 704.407 4.38281 -0.399766 0
M  V30 7234 H 701.526 0.707071 -0.207892 0
M  V30 7235 H 704.168 1.50568 -1.15885 0
M  V30 7236 H 702.318 3.86522 -0.391566 0
M  V30 7237 H 703.99 3.52238 -2.97869 0
M  V30 7238 H 702.233 3.26716 -2.85375 0
M  V30 7239 H 702.904 4.87835 -2.58304 0
M  V30 7240 H 705.38 4.07726 -0.83058 0
M  V30 7241 H 704.256 5.44955 -0.656885 0
M  V30 7242 H 704.517 4.36521 0.700153 0
M  V30 7243 N 703.576 0.692616 1.41565 0
M  V30 7244 C 704.506 0.0397325 2.33466 0
M  V30 7245 C 705.487 -0.770334 1.51657 0
M  V30 7246 O 706.672 -0.723903 1.80203 0
M  V30 7247 C 703.802 -0.899495 3.3545 0
M  V30 7248 C 702.756 -0.196738 4.27548 0
M  V30 7249 C 702.082 -1.25012 5.19881 0
M  V30 7250 C 703.382 0.935158 5.1386 0
M  V30 7251 H 705.076 0.807296 2.88311 0
M  V30 7252 H 702.622 0.389665 1.38628 0
M  V30 7253 H 704.575 -1.36545 3.98665 0
M  V30 7254 H 703.299 -1.69869 2.78948 0
M  V30 7255 H 701.958 0.249158 3.65752 0
M  V30 7256 H 701.606 -2.04177 4.59696 0
M  V30 7257 H 701.306 -0.784931 5.82334 0
M  V30 7258 H 702.83 -1.71665 5.85972 0
M  V30 7259 H 704.244 0.549619 5.70659 0
M  V30 7260 H 702.641 1.32726 5.85238 0
M  V30 7261 H 703.711 1.77613 4.512 0
M  V30 7262 N 705.054 -1.51416 0.437162 0
M  V30 7263 C 706.303 -2.01275 -0.130865 0
M  V30 7264 C 706.616 -1.32593 -1.438 0
M  V30 7265 O 707.822 -1.7342 -2.08897 0
M  V30 7266 C 706.278 -3.5878 -0.283763 0
M  V30 7267 C 705.886 -4.36399 1.01293 0
M  V30 7268 C 707.63 -4.16786 -0.805569 0
M  V30 7269 C 705.537 -5.85608 0.825687 0
M  V30 7270 H 704.467 -0.752157 -0.0526818 0
M  V30 7271 H 707.118 -1.74524 0.566896 0
M  V30 7272 H 705.5 -3.81976 -1.04452 0
M  V30 7273 H 706.674 -4.24948 1.78201 0
M  V30 7274 H 704.989 -3.89843 1.46326 0
M  V30 7275 H 707.586 -5.25972 -0.962146 0
M  V30 7276 H 707.929 -3.75949 -1.78796 0
M  V30 7277 H 708.462 -3.97666 -0.103125 0
M  V30 7278 H 705.201 -6.30857 1.78045 0
M  V30 7279 H 704.721 -5.99723 0.0964029 0
M  V30 7280 H 706.4 -6.45226 0.478815 0
M  V30 7281 N 706.532 -0.168513 -1.56696 0
M  V30 7282 C 707.78 0.476216 -1.96409 0
M  V30 7283 C 708.101 1.63968 -1.05544 0
M  V30 7284 O 707.371 1.95525 -0.121235 0
M  V30 7285 H 705.951 0.178921 -0.725256 0
M  V30 7286 H 708.613 -0.249042 -1.93302 0
M  V30 7287 H 707.709 0.838094 -3.00637 0
M  V30 7288 N 708.01 1.57248 0.105221 0
M  V30 7289 C 708.973 2.00388 1.11252 0
M  V30 7290 C 709.973 0.89594 1.33527 0
M  V30 7291 O 711.163 1.16166 1.29811 0
M  V30 7292 C 708.295 2.35589 2.46395 0
M  V30 7293 H 709.488 2.90591 0.741424 0
M  V30 7294 H 707.041 1.52332 0.349956 0
M  V30 7295 H 707.776 1.4831 2.884 0
M  V30 7296 H 707.561 3.16408 2.31578 0
M  V30 7297 H 709.051 2.69658 3.18864 0
M  V30 7298 N 709.488 -0.375779 1.53054 0
M  V30 7299 C 710.899 -0.95309 1.6054 0
M  V30 7300 C 711.25 -1.90575 0.466446 0
M  V30 7301 O 710.375 -2.12507 -0.408609 0
M  V30 7302 C 710.97 -1.73537 2.90982 0
M  V30 7303 C 709.529 -2.26218 3.00836 0
M  V30 7304 C 708.676 -1.07157 2.55759 0
M  V30 7305 H 711.627 -0.154895 1.57942 0
M  V30 7306 H 711.648 -2.59574 2.78211 0
M  V30 7307 H 711.16 -1.04176 3.73857 0
M  V30 7308 H 709.261 -2.98852 2.22527 0
M  V30 7309 H 709.374 -2.54799 4.05727 0
M  V30 7310 H 707.738 -1.43553 2.10391 0
M  V30 7311 H 708.521 -0.393099 3.41042 0
M  V30 7312 N 710.966 -1.44241 -0.634997 0
M  V30 7313 C 711.916 -1.47247 -1.74076 0
M  V30 7314 C 712.9 -0.338708 -1.57295 0
M  V30 7315 O 714.092 -0.583751 -1.67097 0
M  V30 7316 C 711.221 -1.41579 -3.12746 0
M  V30 7317 C 710.307 -2.60055 -3.35011 0
M  V30 7318 N 710.698 -3.85321 -3.27661 0
M  V30 7319 C 708.996 -2.55168 -3.65794 0
M  V30 7320 C 709.697 -4.64241 -3.50508 0
M  V30 7321 N 708.673 -3.95254 -3.73196 0
M  V30 7322 H 712.475 -2.4195 -1.66845 0
M  V30 7323 H 709.989 -1.3915 -0.837326 0
M  V30 7324 H 711.986 -1.41816 -3.92038 0
M  V30 7325 H 710.646 -0.479108 -3.21146 0
M  V30 7326 H 711.657 -4.17345 -3.06665 0
M  V30 7327 H 708.334 -1.70276 -3.81198 0
M  V30 7328 H 709.724 -5.73267 -3.50449 0
M  V30 7329 N 712.444 0.87505 -1.31075 0
M  V30 7330 C 713.674 1.65818 -1.2324 0
M  V30 7331 C 714.082 1.8808 0.205536 0
M  V30 7332 O 713.425 1.43548 1.14628 0
M  V30 7333 C 713.487 3.05131 -1.90093 0
M  V30 7334 C 713.151 3.05999 -3.39432 0
M  V30 7335 C 714.148 2.84328 -4.35263 0
M  V30 7336 C 711.833 3.27281 -3.81041 0
M  V30 7337 C 713.827 2.83912 -5.70678 0
M  V30 7338 C 711.514 3.26493 -5.16571 0
M  V30 7339 C 712.512 3.04834 -6.112 0
M  V30 7340 O 712.2 3.03882 -7.44252 0
M  V30 7341 H 711.932 0.52387 -0.427242 0
M  V30 7342 H 714.486 1.10086 -1.73408 0
M  V30 7343 H 712.716 3.62568 -1.34468 0
M  V30 7344 H 714.405 3.65641 -1.76242 0
M  V30 7345 H 715.171 2.67673 -4.04445 0
M  V30 7346 H 711.05 3.43171 -3.07822 0
M  V30 7347 H 714.594 2.66925 -6.44513 0
M  V30 7348 H 710.491 3.42687 -5.47025 0
M  V30 7349 H 711.259 3.19979 -7.53363 0
M  V30 7350 N 713.922 1.13953 1.08869 0
M  V30 7351 C 715.152 0.926825 1.84644 0
M  V30 7352 C 715.56 -0.527941 1.81685 0
M  V30 7353 O 714.903 -1.37742 1.21543 0
M  V30 7354 C 714.965 1.34416 3.33426 0
M  V30 7355 C 714.629 2.81351 3.60126 0
M  V30 7356 C 715.626 3.79486 3.55368 0
M  V30 7357 C 713.311 3.1865 3.88288 0
M  V30 7358 C 715.305 5.1293 3.78393 0
M  V30 7359 C 712.992 4.5227 4.10968 0
M  V30 7360 C 713.99 5.4922 4.06013 0
M  V30 7361 O 713.678 6.80429 4.28102 0
M  V30 7362 H 713.41 0.33013 0.589907 0
M  V30 7363 H 715.964 1.51738 1.38436 0
M  V30 7364 H 714.194 0.696901 3.80368 0
M  V30 7365 H 715.883 1.10302 3.90626 0
M  V30 7366 H 716.649 3.52017 3.3363 0
M  V30 7367 H 712.528 2.43785 3.91267 0
M  V30 7368 H 716.072 5.88591 3.74442 0
M  V30 7369 H 711.969 4.79462 4.32188 0
M  V30 7370 H 712.737 6.86617 4.45533 0
M  V30 7371 N 715.4 -1.26948 0.933913 0
M  V30 7372 C 716.31 -2.30366 0.443671 0
M  V30 7373 C 717.326 -1.67284 -0.478745 0
M  V30 7374 O 718.502 -1.98156 -0.360043 0
M  V30 7375 C 715.567 -3.45485 -0.289974 0
M  V30 7376 C 714.628 -4.24069 0.668114 0
M  V30 7377 C 713.861 -5.33691 -0.0306138 0
M  V30 7378 O 714.084 -5.5656 -1.24888 0
M  V30 7379 O 713.018 -5.98441 0.644384 0
M  V30 7380 H 716.844 -2.74349 1.30254 0
M  V30 7381 H 714.429 -1.32012 0.699506 0
M  V30 7382 H 716.311 -4.15486 -0.70353 0
M  V30 7383 H 714.986 -3.03546 -1.12435 0
M  V30 7384 H 713.893 -3.56579 1.13147 0
M  V30 7385 H 715.226 -4.69739 1.46989 0
M  V30 7386 N 716.879 -0.700114 -1.41195 0
M  V30 7387 C 717.811 0.00155823 -2.292 0
M  V30 7388 C 718.824 0.739736 -1.45023 0
M  V30 7389 O 720.013 0.589684 -1.68478 0
M  V30 7390 C 717.113 1.02635 -3.22985 0
M  V30 7391 C 716.286 0.356871 -4.35942 0
M  V30 7392 C 715.345 1.28491 -5.10271 0
M  V30 7393 O 714.371 0.775562 -5.63892 0
M  V30 7394 N 715.573 2.61699 -5.18164 0
M  V30 7395 H 718.338 -0.754008 -2.9006 0
M  V30 7396 H 715.899 -0.546504 -1.52397 0
M  V30 7397 H 717.891 1.64902 -3.6958 0
M  V30 7398 H 716.461 1.68341 -2.63401 0
M  V30 7399 H 715.681 -0.445753 -3.91672 0
M  V30 7400 H 716.969 -0.108469 -5.08684 0
M  V30 7401 H 716.367 3.05594 -4.76056 0
M  V30 7402 H 714.924 3.19149 -5.6832 0
M  V30 7403 N 718.357 1.51182 -0.445186 0
M  V30 7404 C 719.585 2.06568 0.117091 0
M  V30 7405 C 720 1.31182 1.35781 0
M  V30 7406 O 719.357 0.373605 1.78635 0
M  V30 7407 C 719.408 3.58917 0.431408 0
M  V30 7408 O 719.129 4.31456 -0.760078 0
M  V30 7409 C 720.63 4.30843 1.0435 0
M  V30 7410 H 717.85 0.670985 0.00444436 0
M  V30 7411 H 720.394 1.94666 -0.626525 0
M  V30 7412 H 718.549 3.70708 1.12493 0
M  V30 7413 H 718.963 5.22215 -0.489048 0
M  V30 7414 H 720.437 5.38499 1.21337 0
M  V30 7415 H 720.914 3.89644 2.02667 0
M  V30 7416 H 721.52 4.23516 0.38913 0
M  V30 7417 N 719.835 0.176821 1.56605 0
M  V30 7418 C 721.251 -0.179278 1.5859 0
M  V30 7419 C 721.451 -1.62433 1.19238 0
M  V30 7420 O 720.507 -2.35665 0.906552 0
M  V30 7421 C 721.82 0.106524 3.00511 0
M  V30 7422 C 723.368 0.0451731 3.12967 0
M  V30 7423 C 723.843 0.304038 4.5699 0
M  V30 7424 N 725.334 0.252008 4.62514 0
M  V30 7425 C 726.069 0.426404 5.71812 0
M  V30 7426 N 725.565 0.660155 6.89648 0
M  V30 7427 N 727.358 0.361926 5.60934 0
M  V30 7428 H 719.509 1.12001 1.8047 0
M  V30 7429 H 721.772 0.445679 0.836704 0
M  V30 7430 H 721.478 1.10778 3.33798 0
M  V30 7431 H 721.352 -0.599337 3.72408 0
M  V30 7432 H 723.739 -0.946662 2.79504 0
M  V30 7433 H 723.82 0.78383 2.43495 0
M  V30 7434 H 723.464 1.29311 4.91163 0
M  V30 7435 H 723.394 -0.455294 5.24628 0
M  V30 7436 H 725.885 0.0772102 3.77821 0
M  V30 7437 H 726.198 0.782529 7.68828 0
M  V30 7438 H 724.543 0.696835 6.91498 0
M  V30 7439 H 727.734 0.17986 4.67754 0
M  V30 7440 H 727.907 0.501263 6.46058 0
M  V30 7441 N 721.313 -1.57302 -0.09688 0
M  V30 7442 C 722.561 -1.8563 -0.799117 0
M  V30 7443 C 722.882 -0.765263 -1.79356 0
M  V30 7444 O 722.152 0.208657 -1.94786 0
M  V30 7445 H 720.732 -0.684937 -0.298111 0
M  V30 7446 H 723.394 -1.9474 -0.0789341 0
M  V30 7447 H 722.49 -2.82305 -1.3308 0
M  V30 7448 N 722.791 0.367657 -1.53252 0
M  V30 7449 C 724.039 1.10832 -1.68999 0
M  V30 7450 C 724.36 1.89894 -0.443306 0
M  V30 7451 O 723.63 1.88235 0.54262 0
M  V30 7452 H 722.21 0.412153 -0.623008 0
M  V30 7453 H 724.872 0.414775 -1.90435 0
M  V30 7454 H 723.968 1.7993 -2.55013 0
M  V30 7455 N 724.269 1.44576 0.627338 0
M  V30 7456 C 725.201 1.47724 1.75243 0
M  V30 7457 C 726.214 0.370193 1.58535 0
M  V30 7458 O 727.403 0.636151 1.66779 0
M  V30 7459 C 724.503 1.2991 3.13012 0
M  V30 7460 C 723.676 2.5393 3.56143 0
M  V30 7461 C 722.735 2.30961 4.72804 0
M  V30 7462 O 721.761 3.04469 4.80923 0
M  V30 7463 N 722.963 1.34261 5.6476 0
M  V30 7464 H 725.728 2.44718 1.73012 0
M  V30 7465 H 723.289 1.40064 0.812022 0
M  V30 7466 H 725.281 1.12385 3.88782 0
M  V30 7467 H 723.851 0.412668 3.09864 0
M  V30 7468 H 723.071 2.86707 2.70542 0
M  V30 7469 H 724.359 3.36411 3.81713 0
M  V30 7470 H 723.757 0.735573 5.60897 0
M  V30 7471 H 722.314 1.22713 6.40144 0
M  V30 7472 N 725.747 -0.868086 1.31537 0
M  V30 7473 C 726.993 -1.62367 1.2151 0
M  V30 7474 C 727.326 -1.92883 -0.225819 0
M  V30 7475 O 726.601 -1.56176 -1.15927 0
M  V30 7476 C 726.884 -2.95268 2.06129 0
M  V30 7477 C 726.737 -2.71619 3.58529 0
M  V30 7478 C 728.056 -3.96391 1.91212 0
M  V30 7479 H 725.175 -0.589178 0.442762 0
M  V30 7480 H 727.817 -1.00336 1.61347 0
M  V30 7481 H 725.967 -3.4821 1.72284 0
M  V30 7482 H 727.639 -2.25334 4.0252 0
M  V30 7483 H 725.882 -2.05817 3.81866 0
M  V30 7484 H 726.553 -3.66192 4.13047 0
M  V30 7485 H 729.029 -3.52663 2.20834 0
M  V30 7486 H 727.905 -4.87263 2.52718 0
M  V30 7487 H 728.166 -4.33335 0.875953 0
M  V30 7488 N 727.225 -1.14528 -1.08264 0
M  V30 7489 C 728.45 -0.938381 -1.84957 0
M  V30 7490 C 728.875 0.508044 -1.81109 0
M  V30 7491 O 728.233 1.36146 -1.19724 0
M  V30 7492 C 728.281 -1.44568 -3.30352 0
M  V30 7493 O 727.385 -0.638745 -4.07423 0
M  V30 7494 H 726.726 -0.335394 -0.573068 0
M  V30 7495 H 729.256 -1.52287 -1.36637 0
M  V30 7496 H 729.266 -1.45449 -3.81194 0
M  V30 7497 H 727.941 -2.49876 -3.32468 0
M  V30 7498 H 726.518 -0.698801 -3.66294 0
M  V30 7499 N 728.703 1.26451 -0.940633 0
M  V30 7500 C 729.949 1.94065 -0.58878 0
M  V30 7501 C 730.282 1.7363 0.869853 0
M  V30 7502 O 729.557 1.073 1.62225 0
M  V30 7503 C 729.84 3.47852 -0.931199 0
M  V30 7504 C 729.693 3.77575 -2.44453 0
M  V30 7505 C 731.012 4.37832 -0.446229 0
M  V30 7506 H 728.131 0.704827 -0.21538 0
M  V30 7507 H 730.773 1.4933 -1.17475 0
M  V30 7508 H 728.923 3.86085 -0.432539 0
M  V30 7509 H 730.595 3.49059 -3.01588 0
M  V30 7510 H 728.838 3.23671 -2.88825 0
M  V30 7511 H 729.509 4.85068 -2.63464 0
M  V30 7512 H 731.985 4.06822 -0.873778 0
M  V30 7513 H 730.861 5.44228 -0.714648 0
M  V30 7514 H 731.122 4.37239 0.653815 0
M  V30 7515 N 730.181 0.707592 1.40822 0
M  V30 7516 C 731.421 0.247986 2.0289 0
M  V30 7517 C 731.785 -1.13484 1.54872 0
M  V30 7518 O 732.986 -1.69098 2.08948 0
M  V30 7519 C 731.257 0.316326 3.55997 0
M  V30 7520 S 732.816 -0.0674698 4.38748 0
M  V30 7521 H 729.634 0.09895 0.704081 0
M  V30 7522 H 732.236 0.928039 1.72069 0
M  V30 7523 H 730.94 1.32453 3.88438 0
M  V30 7524 H 730.471 -0.382474 3.91536 0
M  V30 7525 H 732.486 -1.29182 4.79089 0
M  V30 7526 N 731.66 -1.50943 0.453197 0
M  V30 7527 C 733.071 -1.86699 -0.00619892 0
M  V30 7528 C 733.422 -1.3693 -1.40515 0
M  V30 7529 O 732.547 -0.726715 -2.03833 0
M  V30 7530 C 733.142 -3.38795 -0.018025 0
M  V30 7531 C 731.701 -3.74028 -0.421885 0
M  V30 7532 C 730.848 -2.74752 0.375087 0
M  V30 7533 H 733.799 -1.43942 0.668317 0
M  V30 7534 H 733.82 -3.71468 -0.824125 0
M  V30 7535 H 733.332 -3.74988 1.00028 0
M  V30 7536 H 731.433 -3.43431 -1.44521 0
M  V30 7537 H 731.546 -4.78908 -0.135664 0
M  V30 7538 H 729.91 -2.5414 -0.168794 0
M  V30 7539 H 730.693 -3.13787 1.39256 0
M  V30 7540 N 733.138 -0.185124 -1.56509 0
M  V30 7541 C 734.068 0.735098 -2.21627 0
M  V30 7542 C 735.049 1.2288 -1.1762 0
M  V30 7543 O 736.234 1.27945 -1.46095 0
M  V30 7544 C 733.364 1.95889 -2.86783 0
M  V30 7545 C 732.318 1.6005 -3.96948 0
M  V30 7546 C 731.644 2.90009 -4.4922 0
M  V30 7547 C 732.944 0.818008 -5.15855 0
M  V30 7548 H 734.638 0.192274 -2.98782 0
M  V30 7549 H 732.184 0.0910393 -1.43712 0
M  V30 7550 H 734.137 2.60779 -3.31017 0
M  V30 7551 H 732.861 2.52608 -2.07018 0
M  V30 7552 H 731.52 0.975237 -3.5339 0
M  V30 7553 H 731.168 3.44797 -3.6623 0
M  V30 7554 H 730.868 2.66778 -5.23549 0
M  V30 7555 H 732.392 3.55904 -4.9615 0
M  V30 7556 H 733.806 1.36979 -5.56695 0
M  V30 7557 H 732.203 0.684207 -5.96187 0
M  V30 7558 H 733.273 -0.182939 -4.84555 0
M  V30 7559 N 734.616 1.57351 0.0885366 0
M  V30 7560 C 736.027 1.75303 0.642308 0
M  V30 7561 C 736.378 0.808238 1.78779 0
M  V30 7562 O 735.503 -0.01171 2.16397 0
M  V30 7563 C 736.098 3.17885 1.17194 0
M  V30 7564 C 734.657 3.37239 1.67172 0
M  V30 7565 C 733.804 2.7108 0.584045 0
M  V30 7566 H 736.755 1.58103 -0.137567 0
M  V30 7567 H 736.776 3.2112 2.04114 0
M  V30 7568 H 736.288 3.86625 0.338024 0
M  V30 7569 H 734.389 2.73588 2.52943 0
M  V30 7570 H 734.502 4.45594 1.76019 0
M  V30 7571 H 732.866 2.33161 1.02508 0
M  V30 7572 H 733.649 3.42464 -0.239403 0
M  V30 7573 N 736.094 -0.359525 1.53444 0
M  V30 7574 C 737.51 -0.701599 1.43352 0
M  V30 7575 C 737.71 -1.93049 0.577439 0
M  V30 7576 O 736.766 -2.52423 0.0622224 0
M  V30 7577 C 738.079 -0.90915 2.86627 0
M  V30 7578 C 739.627 -1.00878 2.96298 0
M  V30 7579 C 740.102 -1.24876 4.40647 0
M  V30 7580 N 741.593 -1.31632 4.44103 0
M  V30 7581 C 742.328 -1.51922 5.52908 0
M  V30 7582 N 741.824 -1.69489 6.71748 0
M  V30 7583 N 743.617 -1.54341 5.40496 0
M  V30 7584 H 735.768 0.448685 2.07607 0
M  V30 7585 H 738.031 0.138713 0.937797 0
M  V30 7586 H 737.737 -0.0778997 3.51614 0
M  V30 7587 H 737.611 -1.81551 3.30634 0
M  V30 7588 H 739.998 -1.83057 2.31461 0
M  V30 7589 H 740.079 -0.0796721 2.55676 0
M  V30 7590 H 739.723 -0.431961 5.0606 0
M  V30 7591 H 739.653 -2.19118 4.78848 0
M  V30 7592 H 742.144 -1.19646 3.5846 0
M  V30 7593 H 742.457 -1.84561 7.50438 0
M  V30 7594 H 740.802 -1.66655 6.74723 0
M  V30 7595 H 743.993 -1.40188 4.46615 0
M  V30 7596 H 744.166 -1.69812 6.25354 0
M  V30 7597 N 737.572 -1.44907 -0.619662 0
M  V30 7598 C 738.82 -1.47999 -1.37625 0
M  V30 7599 C 739.141 -0.118295 -1.94641 0
M  V30 7600 O 738.411 0.85086 -1.76457 0
M  V30 7601 H 736.991 -0.544993 -0.510873 0
M  V30 7602 H 739.653 -1.80772 -0.728522 0
M  V30 7603 H 738.749 -2.21196 -2.20179 0
M  V30 7604 N 739.05 0.861098 -1.31996 0
M  V30 7605 C 740.296 1.61707 -1.23379 0
M  V30 7606 C 740.651 1.91315 0.204026 0
M  V30 7607 O 739.944 1.53997 1.13998 0
M  V30 7608 C 740.138 2.94822 -2.02027 0
M  V30 7609 C 739.967 2.78212 -3.5331 0
M  V30 7610 C 738.737 2.76933 -4.22654 0
M  V30 7611 C 740.935 2.52432 -4.48088 0
M  V30 7612 N 738.917 2.51466 -5.60034 0
M  V30 7613 C 740.288 2.36312 -5.73198 0
M  V30 7614 C 742.343 2.37848 -4.37416 0
M  V30 7615 C 741.046 2.0709 -6.88844 0
M  V30 7616 C 743.072 2.10016 -5.52854 0
M  V30 7617 C 742.434 1.94691 -6.7696 0
M  V30 7618 H 738.533 0.595703 -0.506618 0
M  V30 7619 H 741.117 1.01275 -1.66287 0
M  V30 7620 H 739.288 3.53243 -1.61474 0
M  V30 7621 H 741.02 3.59756 -1.85358 0
M  V30 7622 H 737.775 2.89638 -3.74709 0
M  V30 7623 H 738.199 2.41679 -6.32392 0
M  V30 7624 H 742.841 2.4842 -3.42122 0
M  V30 7625 H 740.559 1.95256 -7.84156 0
M  V30 7626 H 744.145 1.99519 -5.46519 0
M  V30 7627 H 743.025 1.7346 -7.64775 0
M  V30 7628 N 740.528 1.15101 1.07655 0
M  V30 7629 C 741.944 0.893004 1.32279 0
M  V30 7630 C 742.144 -0.461701 1.96139 0
M  V30 7631 O 741.2 -1.20431 2.21929 0
M  V30 7632 C 742.513 2.03161 2.21689 0
M  V30 7633 C 744.061 2.06579 2.35147 0
M  V30 7634 C 744.536 3.19754 3.27905 0
M  V30 7635 N 746.027 3.19382 3.35484 0
M  V30 7636 C 746.762 4.03592 4.07309 0
M  V30 7637 N 746.258 4.97859 4.81776 0
M  V30 7638 N 748.051 3.91626 4.03219 0
M  V30 7639 H 740.202 2.02341 0.645886 0
M  V30 7640 H 742.465 0.882127 0.347211 0
M  V30 7641 H 742.171 3.00934 1.82021 0
M  V30 7642 H 742.045 1.96132 3.22199 0
M  V30 7643 H 744.432 1.09408 2.74069 0
M  V30 7644 H 744.513 2.17676 1.34353 0
M  V30 7645 H 744.157 4.17175 2.89702 0
M  V30 7646 H 744.087 3.05893 4.28645 0
M  V30 7647 H 746.578 2.51112 2.82403 0
M  V30 7648 H 746.891 5.58563 5.34067 0
M  V30 7649 H 745.236 5.0185 4.80803 0
M  V30 7650 H 748.427 3.17295 3.44154 0
M  V30 7651 H 748.6 4.57479 4.5893 0
M  V30 7652 N 742.006 -1.2595 0.947325 0
M  V30 7653 C 743.422 -1.45737 0.650597 0
M  V30 7654 C 743.622 -1.85189 -0.794188 0
M  V30 7655 O 742.678 -1.97738 -1.57022 0
M  V30 7656 C 743.991 -2.53505 1.61728 0
M  V30 7657 C 745.539 -2.67351 1.62765 0
M  V30 7658 C 746.014 -3.78296 2.58179 0
M  V30 7659 N 747.505 -3.85696 2.56501 0
M  V30 7660 C 748.24 -4.71012 3.2701 0
M  V30 7661 N 747.736 -5.60669 4.06966 0
M  V30 7662 N 749.529 -4.64912 3.15932 0
M  V30 7663 H 741.68 -0.986327 1.8811 0
M  V30 7664 H 743.943 -0.494639 0.808725 0
M  V30 7665 H 743.649 -2.31357 2.6489 0
M  V30 7666 H 743.523 -3.51281 1.3741 0
M  V30 7667 H 745.91 -2.88869 0.603241 0
M  V30 7668 H 745.991 -1.69998 1.91139 0
M  V30 7669 H 745.635 -3.5753 3.60742 0
M  V30 7670 H 745.565 -4.75117 2.27093 0
M  V30 7671 H 748.056 -3.21601 1.98447 0
M  V30 7672 H 748.369 -6.22677 4.57704 0
M  V30 7673 H 746.714 -5.60402 4.11066 0
M  V30 7674 H 749.905 -3.93874 2.52945 0
M  V30 7675 H 750.078 -5.3118 3.71149 0
M  V30 7676 N 743.484 -0.715051 -1.40445 0
M  V30 7677 C 744.73 -0.263528 -2.01686 0
M  V30 7678 C 745.085 1.13052 -1.55683 0
M  V30 7679 O 744.378 1.75588 -0.766762 0
M  V30 7680 C 744.572 -0.281791 -3.56287 0
M  V30 7681 C 744.401 -1.67607 -4.17298 0
M  V30 7682 C 743.171 -2.2836 -4.50755 0
M  V30 7683 C 745.369 -2.62621 -4.42193 0
M  V30 7684 N 743.351 -3.6015 -4.97157 0
M  V30 7685 C 744.722 -3.79116 -4.90582 0
M  V30 7686 C 746.777 -2.60639 -4.24231 0
M  V30 7687 C 745.48 -4.93937 -5.22895 0
M  V30 7688 C 747.506 -3.74587 -4.57644 0
M  V30 7689 C 746.868 -4.89815 -5.06222 0
M  V30 7690 H 742.967 -0.142252 -0.768953 0
M  V30 7691 H 745.551 -0.936732 -1.70685 0
M  V30 7692 H 743.722 0.360975 -3.86719 0
M  V30 7693 H 745.454 0.186393 -4.04271 0
M  V30 7694 H 742.209 -1.80463 -4.3787 0
M  V30 7695 H 742.633 -4.27757 -5.24741 0
M  V30 7696 H 747.275 -1.72759 -3.85894 0
M  V30 7697 H 744.993 -5.82462 -5.60146 0
M  V30 7698 H 748.579 -3.74328 -4.45387 0
M  V30 7699 H 747.459 -5.76525 -5.3159 0
M  V30 7700 N 744.962 1.50701 -0.461195 0
M  V30 7701 C 746.208 2.03203 0.0895017 0
M  V30 7702 C 746.563 1.33768 1.38289 0
M  V30 7703 O 745.856 0.451304 1.86209 0
M  V30 7704 C 746.05 3.55788 0.33908 0
M  V30 7705 C 745.879 4.40009 -0.928571 0
M  V30 7706 C 744.649 4.83475 -1.46903 0
M  V30 7707 C 746.847 4.80972 -1.82129 0
M  V30 7708 N 744.829 5.51985 -2.68673 0
M  V30 7709 C 746.2 5.48792 -2.88491 0
M  V30 7710 C 748.255 4.62937 -1.83285 0
M  V30 7711 C 746.958 6.00489 -3.95987 0
M  V30 7712 C 748.984 5.15568 -2.89731 0
M  V30 7713 C 748.346 5.83355 -3.94812 0
M  V30 7714 H 744.445 0.781968 -0.00702462 0
M  V30 7715 H 747.029 1.84321 -0.627195 0
M  V30 7716 H 745.2 3.74636 1.02481 0
M  V30 7717 H 746.932 3.94944 0.883242 0
M  V30 7718 H 743.687 4.62495 -1.01959 0
M  V30 7719 H 744.111 5.90854 -3.30486 0
M  V30 7720 H 748.753 4.0997 -1.03366 0
M  V30 7721 H 746.471 6.52499 -4.7673 0
M  V30 7722 H 750.057 5.0345 -2.91597 0
M  V30 7723 H 748.937 6.23347 -4.75824 0
M  V30 7724 N 746.441 0.193421 1.56409 0
M  V30 7725 C 747.681 -0.447977 1.9943 0
M  V30 7726 C 748.045 -1.58915 1.07751 0
M  V30 7727 O 749.246 -2.29462 1.40002 0
M  V30 7728 C 747.517 -0.89793 3.45936 0
M  V30 7729 S 749.076 -1.5374 4.10986 0
M  V30 7730 H 745.894 -0.143316 0.696406 0
M  V30 7731 H 748.496 0.296093 1.93245 0
M  V30 7732 H 747.2 -0.0572927 4.1036 0
M  V30 7733 H 746.731 -1.67551 3.55936 0
M  V30 7734 H 748.746 -2.82612 4.07854 0
M  V30 7735 N 747.919 -1.57396 -0.0801906 0
M  V30 7736 C 749.196 -1.77883 -0.813451 0
M  V30 7737 C 749.576 -0.778879 -1.96206 0
M  V30 7738 O 748.924 0.189683 -2.27711 0
M  V30 7739 C 749.134 -3.24116 -1.2942 0
M  V30 7740 C 750.482 -3.87714 -1.73098 0
M  V30 7741 O 751.506 -3.27956 -1.39007 0
M  V30 7742 O 750.365 -4.92828 -2.36184 0
M  V30 7743 H 747.459 -0.729727 -0.389138 0
M  V30 7744 H 750.005 -1.69591 -0.0609166 0
M  V30 7745 H 748.777 -3.88443 -0.471947 0
M  V30 7746 H 748.4 -3.371 -2.1083 0
M  V30 7747 N 749.397 0.351382 -1.53633 0
M  V30 7748 C 750.36 1.41403 -1.80383 0
M  V30 7749 C 751.36 1.45963 -0.674635 0
M  V30 7750 O 752.55 1.46476 -0.942895 0
M  V30 7751 C 749.682 2.80401 -1.93876 0
M  V30 7752 H 750.875 1.18951 -2.75301 0
M  V30 7753 H 748.428 0.58533 -1.44926 0
M  V30 7754 H 749.163 3.08147 -1.01074 0
M  V30 7755 H 748.948 2.78488 -2.7602 0
M  V30 7756 H 750.438 3.57329 -2.16116 0
M  V30 7757 N 750.875 1.45233 0.611969 0
M  V30 7758 C 752.121 1.49242 1.37312 0
M  V30 7759 C 752.454 0.131963 1.93751 0
M  V30 7760 O 751.729 -0.852999 1.74798 0
M  V30 7761 C 752.012 2.56811 2.52428 0
M  V30 7762 C 751.865 4.02284 2.01215 0
M  V30 7763 C 753.184 2.60705 3.54572 0
M  V30 7764 H 750.303 0.54336 0.497925 0
M  V30 7765 H 752.945 1.77019 0.690242 0
M  V30 7766 H 751.095 2.33256 3.10683 0
M  V30 7767 H 752.767 4.37035 1.47643 0
M  V30 7768 H 751.01 4.1315 1.32248 0
M  V30 7769 H 751.681 4.7323 2.84178 0
M  V30 7770 H 754.157 2.81799 3.06151 0
M  V30 7771 H 753.033 3.37841 4.32614 0
M  V30 7772 H 753.294 1.65627 4.09903 0
M  V30 7773 N 752.353 -0.854086 1.3245 0
M  V30 7774 C 753.283 -1.97827 1.24044 0
M  V30 7775 C 754.264 -1.69646 0.124166 0
M  V30 7776 O 755.449 -1.91687 0.31143 0
M  V30 7777 C 752.579 -3.33673 0.963324 0
M  V30 7778 C 751.533 -3.76207 2.04089 0
M  V30 7779 C 750.859 -5.0969 1.61618 0
M  V30 7780 C 752.159 -3.91612 3.45597 0
M  V30 7781 H 753.853 -2.05118 2.18099 0
M  V30 7782 H 751.399 -0.985489 1.04996 0
M  V30 7783 H 753.352 -4.11871 0.891061 0
M  V30 7784 H 752.076 -3.26597 -0.0128649 0
M  V30 7785 H 750.735 -3.0026 2.10332 0
M  V30 7786 H 750.383 -4.99072 0.627418 0
M  V30 7787 H 750.083 -5.3912 2.33717 0
M  V30 7788 H 751.607 -5.90381 1.55829 0
M  V30 7789 H 753.021 -4.60163 3.4194 0
M  V30 7790 H 751.418 -4.3246 4.16051 0
M  V30 7791 H 752.488 -2.9451 3.85217 0
M  V30 7792 N 753.831 -1.1567 -1.07043 0
M  V30 7793 C 755.061 -0.956083 -1.83146 0
M  V30 7794 C 755.469 0.498969 -1.82502 0
M  V30 7795 O 754.812 1.35791 -1.23719 0
M  V30 7796 C 754.874 -1.39704 -3.31245 0
M  V30 7797 C 754.538 -2.87045 -3.55604 0
M  V30 7798 C 755.535 -3.85092 -3.49285 0
M  V30 7799 C 753.22 -3.24787 -3.8317 0
M  V30 7800 C 755.214 -5.18885 -3.70185 0
M  V30 7801 C 752.901 -4.58751 -4.03721 0
M  V30 7802 C 753.899 -5.55609 -3.97224 0
M  V30 7803 O 753.587 -6.87154 -4.17223 0
M  V30 7804 H 753.319 -0.339473 -0.58458 0
M  V30 7805 H 755.873 -1.53922 -1.36005 0
M  V30 7806 H 754.103 -0.757326 -3.79212 0
M  V30 7807 H 755.792 -1.16503 -3.88821 0
M  V30 7808 H 756.558 -3.5728 -3.27988 0
M  V30 7809 H 752.437 -2.49979 -3.87339 0
M  V30 7810 H 755.981 -5.94473 -3.6503 0
M  V30 7811 H 751.878 -4.86277 -4.24505 0
M  V30 7812 H 752.646 -6.93618 -4.34553 0
M  V30 7813 N 755.309 1.25446 -0.953992 0
M  V30 7814 C 756.557 1.92762 -0.607227 0
M  V30 7815 C 756.878 1.7509 0.858399 0
M  V30 7816 O 756.148 1.11416 1.61132 0
M  V30 7817 H 754.728 0.713377 -0.221591 0
M  V30 7818 H 757.39 1.52625 -1.21209 0
M  V30 7819 H 756.486 3.00695 -0.835998 0
M  V30 7820 N 756.787 0.722489 1.40064 0
M  V30 7821 C 757.697 0.0755984 2.34478 0
M  V30 7822 C 758.713 -0.736046 1.57665 0
M  V30 7823 O 759.889 -0.667407 1.9002 0
M  V30 7824 C 756.954 -0.830075 3.36616 0
M  V30 7825 C 756.015 -0.00759884 4.29299 0
M  V30 7826 C 755.248 -0.870139 5.26559 0
M  V30 7827 O 755.471 -2.10921 5.2997 0
M  V30 7828 O 754.405 -0.305454 6.01124 0
M  V30 7829 H 758.231 0.854545 2.9143 0
M  V30 7830 H 755.816 0.483032 1.41376 0
M  V30 7831 H 757.698 -1.34864 3.99236 0
M  V30 7832 H 756.373 -1.58805 2.82069 0
M  V30 7833 H 755.28 0.556199 3.69942 0
M  V30 7834 H 756.613 0.712312 4.87018 0
M  V30 7835 N 758.265 -1.50454 0.469181 0
M  V30 7836 C 759.197 -2.26319 -0.362247 0
M  V30 7837 C 760.21 -1.31574 -0.958751 0
M  V30 7838 O 761.399 -1.57099 -0.847482 0
M  V30 7839 C 758.499 -3.02808 -1.52187 0
M  V30 7840 C 757.672 -4.24893 -1.03849 0
M  V30 7841 C 756.731 -4.83691 -2.07194 0
M  V30 7842 O 755.757 -5.44659 -1.65333 0
M  V30 7843 N 756.959 -4.70522 -3.39985 0
M  V30 7844 H 759.724 -2.98312 0.288124 0
M  V30 7845 H 757.285 -1.59099 0.299856 0
M  V30 7846 H 759.277 -3.39023 -2.21011 0
M  V30 7847 H 757.847 -2.33625 -2.07697 0
M  V30 7848 H 757.067 -3.93806 -0.176203 0
M  V30 7849 H 758.355 -5.04053 -0.693435 0
M  V30 7850 H 757.753 -4.2203 -3.76706 0
M  V30 7851 H 756.31 -5.11011 -4.04612 0
M  V30 7852 N 759.743 -0.201713 -1.56304 0
M  V30 7853 C 760.991 0.434447 -1.97375 0
M  V30 7854 C 761.312 1.61692 -1.08998 0
M  V30 7855 O 760.582 1.95223 -0.162682 0
M  V30 7856 H 759.162 0.163497 -0.728888 0
M  V30 7857 H 761.824 -0.289988 -1.92731 0
M  V30 7858 H 760.92 0.774136 -3.02347 0
M  V30 7859 N 761.222 1.57436 0.0718424 0
M  V30 7860 C 762.172 2.00132 1.09229 0
M  V30 7861 C 763.156 0.883379 1.34481 0
M  V30 7862 O 764.348 1.14728 1.34783 0
M  V30 7863 C 761.477 2.44876 2.40605 0
M  V30 7864 C 760.563 3.63405 2.18627 0
M  V30 7865 N 760.954 4.77583 1.66579 0
M  V30 7866 C 759.252 3.69953 2.491 0
M  V30 7867 C 759.953 5.5943 1.59415 0
M  V30 7868 N 758.929 5.03275 2.05464 0
M  V30 7869 H 762.731 2.85849 0.683185 0
M  V30 7870 H 760.245 1.59987 0.278914 0
M  V30 7871 H 762.242 2.73703 3.14471 0
M  V30 7872 H 760.902 1.60546 2.82232 0
M  V30 7873 H 761.913 4.99875 1.35443 0
M  V30 7874 H 758.59 2.96336 2.94094 0
M  V30 7875 H 759.98 6.61093 1.20026 0
M  V30 7876 N 762.7 -0.34323 1.53817 0
M  V30 7877 C 764.111 -0.918823 1.62525 0
M  V30 7878 C 764.462 -1.89542 0.506765 0
M  V30 7879 O 763.587 -2.13326 -0.363441 0
M  V30 7880 C 764.182 -1.67326 2.94597 0
M  V30 7881 C 762.741 -2.19786 3.05567 0
M  V30 7882 C 761.888 -1.01708 2.57974 0
M  V30 7883 H 764.839 -0.121358 1.58235 0
M  V30 7884 H 764.86 -2.53615 2.83654 0
M  V30 7885 H 764.372 -0.962223 3.75983 0
M  V30 7886 H 762.473 -2.94065 2.28816 0
M  V30 7887 H 762.586 -2.46135 4.1104 0
M  V30 7888 H 760.95 -1.39058 2.13389 0
M  V30 7889 H 761.733 -0.320671 3.41799 0
M  V30 7890 N 764.178 -1.45556 -0.604258 0
M  V30 7891 C 765.424 -1.50958 -1.3632 0
M  V30 7892 C 765.779 -0.15051 -1.9181 0
M  V30 7893 O 765.072 0.838035 -1.72301 0
M  V30 7894 C 765.266 -2.52697 -2.52743 0
M  V30 7895 C 765.095 -3.98364 -2.08654 0
M  V30 7896 C 763.865 -4.66295 -1.94671 0
M  V30 7897 C 766.063 -4.86801 -1.6592 0
M  V30 7898 N 764.045 -5.96669 -1.44428 0
M  V30 7899 C 765.416 -6.06829 -1.27115 0
M  V30 7900 C 767.471 -4.73634 -1.53542 0
M  V30 7901 C 766.174 -7.15149 -0.771676 0
M  V30 7902 C 768.2 -5.82005 -1.04998 0
M  V30 7903 C 767.562 -7.01191 -0.671599 0
M  V30 7904 H 763.661 -0.607329 -0.492621 0
M  V30 7905 H 766.245 -1.82048 -0.69041 0
M  V30 7906 H 764.416 -2.23554 -3.17614 0
M  V30 7907 H 766.148 -2.48227 -3.19633 0
M  V30 7908 H 762.903 -4.21496 -2.15959 0
M  V30 7909 H 763.327 -6.66003 -1.21528 0
M  V30 7910 H 767.969 -3.81898 -1.81421 0
M  V30 7911 H 765.687 -8.06671 -0.480442 0
M  V30 7912 H 769.273 -5.73851 -0.958423 0
M  V30 7913 H 768.153 -7.83619 -0.301752 0
M  V30 7914 N 765.656 0.84705 -1.32902 0
M  V30 7915 C 766.904 1.5986 -1.2365 0
M  V30 7916 C 767.225 1.93974 0.199789 0
M  V30 7917 O 766.495 1.60273 1.12648 0
M  V30 7918 H 765.075 0.592696 -0.454665 0
M  V30 7919 H 767.737 1.01278 -1.66519 0
M  V30 7920 H 766.833 2.53218 -1.82448 0
M  V30 7921 N 767.134 1.16236 1.06428 0
M  V30 7922 C 768.55 0.906983 1.31324 0
M  V30 7923 C 768.75 -0.440872 1.96618 0
M  V30 7924 O 767.806 -1.1807 2.23194 0
M  V30 7925 C 769.119 2.05501 2.19522 0
M  V30 7926 C 770.667 2.09061 2.32943 0
M  V30 7927 C 771.142 3.23214 3.24495 0
M  V30 7928 N 772.633 3.22922 3.32078 0
M  V30 7929 C 773.368 4.07889 4.03006 0
M  V30 7930 N 772.864 5.02941 4.76469 0
M  V30 7931 N 774.657 3.95881 3.99043 0
M  V30 7932 H 766.808 2.03015 0.624388 0
M  V30 7933 H 769.071 0.88576 0.337835 0
M  V30 7934 H 768.777 3.02847 1.78819 0
M  V30 7935 H 768.651 1.99538 3.201 0
M  V30 7936 H 771.038 1.12308 2.72893 0
M  V30 7937 H 771.119 2.19089 1.32037 0
M  V30 7938 H 770.763 4.20225 2.85261 0
M  V30 7939 H 770.693 3.10423 4.25377 0
M  V30 7940 H 773.184 2.54093 2.79724 0
M  V30 7941 H 773.497 5.64196 5.28112 0
M  V30 7942 H 771.842 5.06922 4.75453 0
M  V30 7943 H 775.033 3.20927 3.40769 0
M  V30 7944 H 775.206 4.62321 4.54052 0
M  V30 7945 N 768.612 -1.24939 0.960631 0
M  V30 7946 C 769.859 -1.92818 0.618663 0
M  V30 7947 C 770.187 -1.75177 -0.845173 0
M  V30 7948 O 769.442 -1.09412 -1.62258 0
M  V30 7949 C 769.741 -3.45066 0.930809 0
M  V30 7950 C 769.407 -3.82869 2.38164 0
M  V30 7951 C 768.069 -3.92899 2.7782 0
M  V30 7952 C 770.421 -4.01483 3.32356 0
M  V30 7953 C 767.749 -4.18955 4.10723 0
M  V30 7954 C 770.101 -4.29033 4.6488 0
M  V30 7955 C 768.765 -4.37282 5.04322 0
M  V30 7956 H 768.035 -0.705571 0.226385 0
M  V30 7957 H 770.682 -1.48365 1.21079 0
M  V30 7958 H 768.987 -3.9096 0.256355 0
M  V30 7959 H 770.684 -3.95783 0.644712 0
M  V30 7960 H 767.274 -3.75622 2.06413 0
M  V30 7961 H 771.458 -3.93143 3.02907 0
M  V30 7962 H 766.714 -4.23558 4.40918 0
M  V30 7963 H 770.888 -4.42381 5.3784 0
M  V30 7964 H 768.515 -4.57225 6.0733 0
M  V30 7965 N 770.09 -0.729906 -1.39679 0
M  V30 7966 C 771.338 -0.275077 -2.00219 0
M  V30 7967 C 771.659 1.1401 -1.58199 0
M  V30 7968 O 770.929 1.77546 -0.827904 0
M  V30 7969 H 769.509 -0.0987127 -0.740449 0
M  V30 7970 H 772.171 -0.93873 -1.70804 0
M  V30 7971 H 771.267 -0.319446 -3.10461 0
M  V30 7972 N 771.568 1.50203 -0.477153 0
M  V30 7973 C 772.531 2.27194 0.302599 0
M  V30 7974 C 773.531 1.32221 0.915112 0
M  V30 7975 O 774.721 1.55593 0.783348 0
M  V30 7976 C 771.853 3.0938 1.43167 0
M  V30 7977 H 773.046 2.97575 -0.372678 0
M  V30 7978 H 770.599 1.54578 -0.231392 0
M  V30 7979 H 771.334 2.43509 2.14182 0
M  V30 7980 H 771.119 3.79181 0.998197 0
M  V30 7981 H 772.609 3.67592 1.98157 0
M  V30 7982 N 773.046 0.209999 1.56195 0
M  V30 7983 C 774.009 -0.691232 2.18528 0
M  V30 7984 C 775.009 -1.13013 1.14388 0
M  V30 7985 O 776.199 -1.04081 1.39688 0
M  V30 7986 C 773.331 -1.94551 2.79934 0
M  V30 7987 H 774.524 -0.147953 2.99535 0
M  V30 7988 H 772.077 -0.0396243 1.5625 0
M  V30 7989 H 772.812 -2.53094 2.02766 0
M  V30 7990 H 772.597 -1.63938 3.56184 0
M  V30 7991 H 774.087 -2.58785 3.2775 0
M  V30 7992 N 774.524 -1.57472 -0.0634922 0
M  V30 7993 C 775.454 -2.07297 -1.07473 0
M  V30 7994 C 776.435 -0.968162 -1.39859 0
M  V30 7995 O 777.62 -1.24139 -1.49343 0
M  V30 7996 C 774.75 -2.52381 -2.38581 0
M  V30 7997 C 773.704 -3.66813 -2.20526 0
M  V30 7998 C 773.03 -3.97982 -3.57092 0
M  V30 7999 C 774.33 -4.96553 -1.61965 0
M  V30 8000 H 776.024 -2.92033 -0.660092 0
M  V30 8001 H 773.57 -1.40488 -0.316074 0
M  V30 8002 H 775.523 -2.85852 -3.09624 0
M  V30 8003 H 774.247 -1.64684 -2.8204 0
M  V30 8004 H 772.906 -3.33639 -1.51924 0
M  V30 8005 H 772.554 -3.07403 -3.98136 0
M  V30 8006 H 772.254 -4.7504 -3.45848 0
M  V30 8007 H 773.778 -4.33956 -4.29552 0
M  V30 8008 H 775.192 -5.28201 -2.22883 0
M  V30 8009 H 773.589 -5.7799 -1.61394 0
M  V30 8010 H 774.659 -4.81396 -0.581918 0
M  V30 8011 N 776.003 0.335068 -1.53997 0
M  V30 8012 C 777.231 1.09418 -1.756 0
M  V30 8013 C 777.646 1.82083 -0.499138 0
M  V30 8014 O 777.003 1.74646 0.529631 0
M  V30 8015 C 777.054 2.10115 -2.94166 0
M  V30 8016 O 776.775 1.40404 -4.14992 0
M  V30 8017 C 778.276 2.98336 -3.27888 0
M  V30 8018 H 775.496 0.32595 -0.586513 0
M  V30 8019 H 778.04 0.384693 -2.00849 0
M  V30 8020 H 776.195 2.76616 -2.71224 0
M  V30 8021 H 776.609 2.07743 -4.81605 0
M  V30 8022 H 778.083 3.6491 -4.1418 0
M  V30 8023 H 778.56 3.64814 -2.44556 0
M  V30 8024 H 779.166 2.37412 -3.52868 0
M  V30 8025 N 777.481 1.45874 0.596531 0
M  V30 8026 C 778.727 1.5069 1.35722 0
M  V30 8027 C 779.06 0.152506 1.936 0
M  V30 8028 O 778.335 -0.834411 1.75692 0
M  V30 8029 C 778.618 2.59474 2.4969 0
M  V30 8030 C 778.471 4.04396 1.96937 0
M  V30 8031 C 779.79 2.64451 3.51787 0
M  V30 8032 H 776.909 0.548611 0.492133 0
M  V30 8033 H 779.551 1.77741 0.671428 0
M  V30 8034 H 777.701 2.36539 3.08191 0
M  V30 8035 H 779.373 4.38576 1.43 0
M  V30 8036 H 777.616 4.14529 1.27859 0
M  V30 8037 H 778.287 4.76218 2.79143 0
M  V30 8038 H 780.763 2.85031 3.03145 0
M  V30 8039 H 779.639 3.42411 4.29006 0
M  V30 8040 H 779.9 1.69965 4.08123 0
M  V30 8041 N 778.959 -0.83999 1.33349 0
M  V30 8042 C 779.889 -1.965 1.26135 0
M  V30 8043 C 780.87 -1.69505 0.142152 0
M  V30 8044 O 782.055 -1.91346 0.331743 0
M  V30 8045 C 779.185 -3.32632 0.99866 0
M  V30 8046 C 778.139 -3.74021 2.08068 0
M  V30 8047 C 777.465 -5.07947 1.67014 0
M  V30 8048 C 778.765 -3.87925 3.49731 0
M  V30 8049 H 780.459 -2.02793 2.20262 0
M  V30 8050 H 778.005 -0.974297 1.06035 0
M  V30 8051 H 779.958 -4.10903 0.934696 0
M  V30 8052 H 778.682 -3.26593 0.0217759 0
M  V30 8053 H 777.341 -2.98012 2.13505 0
M  V30 8054 H 776.989 -4.98378 0.680316 0
M  V30 8055 H 776.689 -5.36611 2.39422 0
M  V30 8056 H 778.213 -5.88695 1.62082 0
M  V30 8057 H 779.627 -4.5651 3.46802 0
M  V30 8058 H 778.024 -4.28023 4.20614 0
M  V30 8059 H 779.094 -2.90407 3.88319 0
M  V30 8060 N 780.437 -1.16799 -1.0581 0
M  V30 8061 C 781.685 -0.950642 -1.78346 0
M  V30 8062 C 782.006 0.522524 -1.87869 0
M  V30 8063 O 781.276 1.3795 -1.39092 0
M  V30 8064 H 779.856 -0.348736 -0.6606 0
M  V30 8065 H 782.518 -1.47158 -1.27791 0
M  V30 8066 H 781.614 -1.37359 -2.80248 0
M  V30 8067 N 781.915 1.24427 -0.967243 0
M  V30 8068 C 783.192 1.87831 -0.545776 0
M  V30 8069 C 783.572 1.87126 0.977099 0
M  V30 8070 O 782.92 1.34357 1.84826 0
M  V30 8071 C 783.13 3.29967 -1.13679 0
M  V30 8072 C 784.478 4.06654 -1.22139 0
M  V30 8073 O 785.502 3.39136 -1.08926 0
M  V30 8074 O 784.361 5.27455 -1.43017 0
M  V30 8075 H 781.455 0.806745 -0.181912 0
M  V30 8076 H 784.001 1.32403 -1.06148 0
M  V30 8077 H 782.773 3.24977 -2.17958 0
M  V30 8078 H 782.396 3.92969 -0.605093 0
M  V30 8079 N 783.393 0.737304 1.3929 0
M  V30 8080 C 784.639 0.286681 2.00763 0
M  V30 8081 C 784.972 -1.12388 1.58375 0
M  V30 8082 O 784.247 -1.76661 0.813699 0
M  V30 8083 C 784.53 0.391147 3.57969 0
M  V30 8084 C 784.383 1.84165 4.1037 0
M  V30 8085 C 785.702 -0.225072 4.39524 0
M  V30 8086 H 782.821 0.105642 0.729389 0
M  V30 8087 H 785.463 0.933892 1.65464 0
M  V30 8088 H 783.613 -0.159875 3.88171 0
M  V30 8089 H 785.285 2.44972 3.90879 0
M  V30 8090 H 783.528 2.3622 3.63844 0
M  V30 8091 H 784.199 1.866 5.19504 0
M  V30 8092 H 786.675 0.244677 4.1538 0
M  V30 8093 H 785.551 -0.121646 5.48765 0
M  V30 8094 H 785.812 -1.31141 4.22202 0
M  V30 8095 N 784.871 -1.49948 0.485112 0
M  V30 8096 C 785.819 -2.30449 -0.315609 0
M  V30 8097 C 786.813 -1.38351 -0.977516 0
M  V30 8098 O 788.019 -1.55477 -0.907019 0
M  V30 8099 H 784.394 -0.742262 -0.120629 0
M  V30 8100 H 786.365 -2.95925 0.383552 0
M  V30 8101 C 785.114 -3.19283 -1.37673 0
M  V30 8102 H 784.437 -3.90067 -0.876801 0
M  V30 8103 H 785.877 -3.78579 -1.90929 0
M  V30 8104 C 784.336 -2.37817 -2.38631 0
M  V30 8105 O 784.866 -2.0711 -3.44192 0
M  V30 8106 N 783.072 -2.00135 -2.107 0
M  V30 8107 H 782.619 -2.25307 -1.24878 0
M  V30 8108 H 782.577 -1.45933 -2.7848 0
M  V30 8109 N 786.349 -0.21828 -1.56081 0
M  V30 8110 C 787.597 0.413488 -1.97825 0
M  V30 8111 C 787.918 1.60527 -1.10707 0
M  V30 8112 O 787.188 1.9504 -0.183378 0
M  V30 8113 H 785.768 0.155757 -0.730581 0
M  V30 8114 H 788.43 -0.310413 -1.92412 0
M  V30 8115 H 787.526 0.742024 -3.03151 0
M  V30 8116 N 787.827 1.57504 0.0551401 0
M  V30 8117 C 789.104 1.79155 0.785048 0
M  V30 8118 C 789.484 0.809995 1.94942 0
M  V30 8119 O 788.832 -0.153432 2.27984 0
M  V30 8120 C 789.042 3.26134 1.24247 0
M  V30 8121 C 790.39 3.90419 1.66908 0
M  V30 8122 O 791.414 3.30126 1.33772 0
M  V30 8123 O 790.273 4.96523 2.28314 0
M  V30 8124 H 787.367 0.735825 0.377479 0
M  V30 8125 H 789.913 1.69666 0.0339285 0
M  V30 8126 H 788.685 3.89145 0.410089 0
M  V30 8127 H 788.308 3.40411 2.05441 0
M  V30 8128 N 789.305 -0.326896 1.54172 0
M  V30 8129 C 790.252 -1.40216 1.83325 0
M  V30 8130 C 791.222 -1.51538 0.680107 0
M  V30 8131 O 792.407 -1.66811 0.926206 0
M  V30 8132 C 789.547 -2.76626 2.0633 0
M  V30 8133 C 788.66 -2.73963 3.34019 0
M  V30 8134 C 787.795 -4.02198 3.47002 0
M  V30 8135 C 786.834 -3.93828 4.68578 0
M  V30 8136 N 785.971 -5.13787 4.78506 0
M  V30 8137 H 790.811 -1.14656 2.7506 0
M  V30 8138 H 788.348 -0.555089 1.36225 0
M  V30 8139 H 790.306 -3.55922 2.17659 0
M  V30 8140 H 788.936 -3.00503 1.1789 0
M  V30 8141 H 787.988 -1.86677 3.31445 0
M  V30 8142 H 789.3 -2.6366 4.2342 0
M  V30 8143 H 788.454 -4.89923 3.57855 0
M  V30 8144 H 787.193 -4.15302 2.55687 0
M  V30 8145 H 786.198 -3.04487 4.57786 0
M  V30 8146 H 787.423 -3.82292 5.61275 0
M  V30 8147 H 785.369 -5.27403 3.90105 0
M  V30 8148 H 785.286 -5.05807 5.61868 0
M  V30 8149 H 786.554 -6.03236 4.93686 0
M  V30 8150 N 790.784 -1.46188 -0.588786 0
M  V30 8151 C 791.714 -1.59148 -1.70863 0
M  V30 8152 C 792.695 -0.442083 -1.64255 0
M  V30 8153 O 793.88 -0.667575 -1.82365 0
M  V30 8154 C 791.01 -1.5757 -3.09498 0
M  V30 8155 C 789.964 -2.71418 -3.30932 0
M  V30 8156 C 789.29 -2.549 -4.70032 0
M  V30 8157 C 790.59 -4.1329 -3.19356 0
M  V30 8158 H 792.284 -2.52889 -1.60274 0
M  V30 8159 H 789.83 -1.21707 -0.769638 0
M  V30 8160 H 791.783 -1.65231 -3.87655 0
M  V30 8161 H 790.507 -0.603705 -3.20972 0
M  V30 8162 H 789.166 -2.63216 -2.55172 0
M  V30 8163 H 788.814 -1.55797 -4.78264 0
M  V30 8164 H 788.514 -3.31257 -4.85327 0
M  V30 8165 H 790.038 -2.64443 -5.50366 0
M  V30 8166 H 791.452 -4.22636 -3.87365 0
M  V30 8167 H 789.849 -4.90187 -3.46175 0
M  V30 8168 H 790.919 -4.33874 -2.16522 0
M  V30 8169 N 792.262 0.832906 -1.33792 0
M  V30 8170 C 793.49 1.62048 -1.28639 0
M  V30 8171 C 793.905 1.88269 0.141522 0
M  V30 8172 O 793.262 1.46706 1.08553 0
M  V30 8173 C 793.313 2.96722 -2.0649 0
M  V30 8174 O 793.034 2.7165 -3.43712 0
M  V30 8175 C 794.535 3.91144 -2.08617 0
M  V30 8176 H 791.755 0.504032 -0.442937 0
M  V30 8177 H 794.299 1.03704 -1.76255 0
M  V30 8178 H 792.454 3.51652 -1.62541 0
M  V30 8179 H 792.868 3.57453 -3.83833 0
M  V30 8180 H 794.342 4.82837 -2.67531 0
M  V30 8181 H 794.819 4.25766 -1.07796 0
M  V30 8182 H 795.425 3.42152 -2.52611 0
M  V30 8183 N 793.74 1.17359 1.05189 0
M  V30 8184 C 795.017 0.871914 1.75091 0
M  V30 8185 C 795.397 -0.627821 2.01548 0
M  V30 8186 O 794.745 -1.5791 1.65156 0
M  V30 8187 C 794.955 1.70687 3.04413 0
M  V30 8188 C 796.303 1.92684 3.78362 0
M  V30 8189 O 797.327 1.67645 3.14282 0
M  V30 8190 O 796.186 2.34765 4.93505 0
M  V30 8191 H 793.28 0.322831 0.761386 0
M  V30 8192 H 795.826 1.28054 1.11357 0
M  V30 8193 H 794.598 2.72405 2.80911 0
M  V30 8194 H 794.221 1.29602 3.75884 0
M  V30 8195 N 795.218 -1.23913 0.973828 0
M  V30 8196 C 796.464 -1.92436 0.640026 0
M  V30 8197 C 796.797 -1.75875 -0.823512 0
M  V30 8198 O 796.072 -1.11563 -1.59323 0
M  V30 8199 C 796.355 -3.4526 1.0231 0
M  V30 8200 C 796.208 -3.70961 2.54378 0
M  V30 8201 C 797.527 -4.36495 0.562155 0
M  V30 8202 H 794.646 -0.698868 0.233992 0
M  V30 8203 H 797.288 -1.46163 1.21393 0
M  V30 8204 H 795.438 -3.84802 0.534751 0
M  V30 8205 H 797.11 -3.40941 3.10737 0
M  V30 8206 H 795.353 -3.15899 2.97305 0
M  V30 8207 H 796.024 -4.77912 2.76232 0
M  V30 8208 H 798.5 -4.04363 0.981333 0
M  V30 8209 H 797.376 -5.42142 0.858689 0
M  V30 8210 H 797.637 -4.38818 -0.537659 0
M  V30 8211 N 796.696 -0.74468 -1.38897 0
M  V30 8212 C 797.942 -0.297324 -2.00609 0
M  V30 8213 C 798.275 1.11547 -1.58968 0
M  V30 8214 O 797.55 1.76227 -0.823057 0
M  V30 8215 C 797.833 -0.410125 -3.57757 0
M  V30 8216 C 797.686 -1.86338 -4.09387 0
M  V30 8217 C 799.005 0.20176 -4.39637 0
M  V30 8218 H 796.124 -0.109509 -0.728819 0
M  V30 8219 H 798.766 -0.942653 -1.64967 0
M  V30 8220 H 796.916 0.139287 -3.8825 0
M  V30 8221 H 798.588 -2.47042 -3.89574 0
M  V30 8222 H 796.831 -2.38146 -3.62586 0
M  V30 8223 H 797.502 -1.89352 -5.18507 0
M  V30 8224 H 799.978 -0.266703 -4.15244 0
M  V30 8225 H 798.854 0.0925415 -5.48822 0
M  V30 8226 H 799.115 1.289 -4.22891 0
M  V30 8227 N 798.174 1.49689 -0.493057 0
M  V30 8228 C 799.423 2.01622 0.0560733 0
M  V30 8229 C 799.736 1.37838 1.3878 0
M  V30 8230 O 800.942 1.81054 2.02316 0
M  V30 8231 C 799.398 3.59586 0.150409 0
M  V30 8232 C 799.006 4.32338 -1.1742 0
M  V30 8233 C 800.75 4.19489 0.650327 0
M  V30 8234 C 798.657 5.8214 -1.04246 0
M  V30 8235 H 797.587 0.753594 0.0247297 0
M  V30 8236 H 800.238 1.723 -0.631279 0
M  V30 8237 H 798.62 3.8559 0.902035 0
M  V30 8238 H 799.794 4.18042 -1.9385 0
M  V30 8239 H 798.109 3.84144 -1.60694 0
M  V30 8240 H 800.706 5.29181 0.766272 0
M  V30 8241 H 801.049 3.82326 1.6472 0
M  V30 8242 H 801.582 3.97775 -0.0445371 0
M  V30 8243 H 798.321 6.23814 -2.01336 0
M  V30 8244 H 797.841 5.98952 -0.31892 0
M  V30 8245 H 799.52 6.43004 -0.717957 0
M  V30 8246 N 799.652 0.226554 1.55963 0
M  V30 8247 C 800.9 -0.402991 1.98041 0
M  V30 8248 C 801.221 -1.59938 1.11557 0
M  V30 8249 O 800.491 -1.9494 0.193719 0
M  V30 8250 H 799.071 -0.15188 0.731397 0
M  V30 8251 H 801.733 0.320613 1.92245 0
M  V30 8252 H 800.829 -0.725937 3.0354 0
M  V30 8253 N 801.13 -1.57531 -0.0467866 0
M  V30 8254 C 802.093 -2.04379 -1.03738 0
M  V30 8255 C 803.093 -0.944881 -1.3011 0
M  V30 8256 O 804.283 -1.20904 -1.25411 0
M  V30 8257 C 801.415 -2.44572 -2.37482 0
M  V30 8258 H 802.608 -2.93142 -0.633063 0
M  V30 8259 H 800.161 -1.53526 -0.293177 0
M  V30 8260 H 800.896 -1.58911 -2.82697 0
M  V30 8261 H 800.681 -3.24785 -2.19675 0
M  V30 8262 H 802.171 -2.81307 -3.08636 0
M  V30 8263 N 802.608 0.318715 -1.54344 0
M  V30 8264 C 804.019 0.89285 -1.63967 0
M  V30 8265 C 804.37 1.88712 -0.536855 0
M  V30 8266 O 803.495 2.13877 0.329457 0
M  V30 8267 C 804.09 1.62618 -2.97222 0
M  V30 8268 C 802.649 2.14897 -3.09025 0
M  V30 8269 C 801.796 0.975909 -2.5956 0
M  V30 8270 H 804.747 0.0961687 -1.58408 0
M  V30 8271 H 804.768 2.4907 -2.87653 0
M  V30 8272 H 804.28 0.902286 -3.77466 0
M  V30 8273 H 802.381 2.90387 -2.33465 0
M  V30 8274 H 802.494 2.39565 -4.14904 0
M  V30 8275 H 800.858 1.35646 -2.15574 0
M  V30 8276 H 801.641 0.266253 -3.42266 0
M  V30 8277 N 804.086 1.46499 0.581025 0
M  V30 8278 C 805.334 1.51596 1.33653 0
M  V30 8279 C 805.655 0.169859 1.94259 0
M  V30 8280 O 804.925 -0.803776 1.78651 0
M  V30 8281 H 803.505 0.558346 0.496244 0
M  V30 8282 H 806.167 1.8264 0.680338 0
M  V30 8283 H 805.263 2.26956 2.14237 0
M  V30 8284 N 805.565 -0.825799 1.34232 0
M  V30 8285 C 806.475 -1.9684 1.27638 0
M  V30 8286 C 807.491 -1.73018 0.184569 0
M  V30 8287 O 808.667 -1.97172 0.410525 0
M  V30 8288 C 805.732 -3.31084 1.02879 0
M  V30 8289 C 804.793 -3.67933 2.21188 0
M  V30 8290 C 804.026 -4.95772 1.976 0
M  V30 8291 O 804.249 -5.62721 0.93281 0
M  V30 8292 O 803.183 -5.30431 2.84477 0
M  V30 8293 H 807.009 -2.05346 2.23756 0
M  V30 8294 H 804.594 -0.960772 1.1441 0
M  V30 8295 H 806.476 -4.11492 0.908406 0
M  V30 8296 H 805.151 -3.23552 0.0979821 0
M  V30 8297 H 804.058 -2.87981 2.38784 0
M  V30 8298 H 805.391 -3.80147 3.12648 0
M  V30 8299 N 807.043 -1.17915 -1.04565 0
M  V30 8300 C 807.953 -0.916449 -2.15959 0
M  V30 8301 C 808.969 0.117655 -1.73602 0
M  V30 8302 O 810.145 -0.063089 -2.01301 0
M  V30 8303 C 807.21 -0.440262 -3.43893 0
M  V30 8304 C 806.271 -1.54172 -4.00661 0
M  V30 8305 C 805.504 -1.08816 -5.22489 0
M  V30 8306 O 805.727 0.0551547 -5.70373 0
M  V30 8307 O 804.661 -1.88383 -5.7166 0
M  V30 8308 H 808.487 -1.8484 -2.40972 0
M  V30 8309 H 806.072 -0.960552 -1.14428 0
M  V30 8310 H 807.954 -0.182537 -4.21004 0
M  V30 8311 H 806.629 0.46346 -3.20365 0
M  V30 8312 H 805.536 -1.85341 -3.24961 0
M  V30 8313 H 806.869 -2.42139 -4.2852 0
M  V30 8314 N 808.521 1.23394 -0.980386 0
M  V30 8315 C 809.431 2.28561 -0.528864 0
M  V30 8316 C 810.447 1.68946 0.416329 0
M  V30 8317 O 811.623 1.99355 0.286251 0
M  V30 8318 C 808.688 3.46323 0.16155 0
M  V30 8319 C 807.749 4.21297 -0.825044 0
M  V30 8320 C 806.982 5.33437 -0.167483 0
M  V30 8321 O 807.205 5.60812 1.04146 0
M  V30 8322 O 806.139 5.95637 -0.866047 0
M  V30 8323 H 809.965 2.69326 -1.40346 0
M  V30 8324 H 807.55 1.29325 -0.748019 0
M  V30 8325 H 809.432 4.17811 0.548841 0
M  V30 8326 H 808.107 3.0751 1.01092 0
M  V30 8327 H 807.014 3.52134 -1.26303 0
M  V30 8328 H 808.347 4.6396 -1.64322 0
M  V30 8329 N 809.999 0.752036 1.385 0
M  V30 8330 C 810.947 0.112634 2.32327 0
M  V30 8331 C 811.941 -0.707037 1.53939 0
M  V30 8332 O 813.147 -0.606309 1.69481 0
M  V30 8333 H 809.522 0.0176275 0.751793 0
M  V30 8334 H 811.493 0.920074 2.83861 0
M  V30 8335 C 810.242 -0.767458 3.39124 0
M  V30 8336 H 809.565 -0.146122 3.99533 0
M  V30 8337 H 811.005 -1.18216 4.07187 0
M  V30 8338 C 809.464 -1.90938 2.77568 0
M  V30 8339 O 809.994 -3.00342 2.66754 0
M  V30 8340 N 808.2 -1.70396 2.35401 0
M  V30 8341 H 807.747 -0.81413 2.44397 0
M  V30 8342 H 807.705 -2.46972 1.94557 0
M  V30 8343 N 811.477 -1.49425 0.500989 0
M  V30 8344 C 812.893 -1.58826 0.156951 0
M  V30 8345 C 813.093 -1.50622 -1.33848 0
M  V30 8346 O 812.149 -1.38016 -2.11442 0
M  V30 8347 C 813.462 -2.91611 0.73374 0
M  V30 8348 C 815.01 -3.05076 0.699846 0
M  V30 8349 C 815.485 -4.40479 1.2547 0
M  V30 8350 N 816.976 -4.4697 1.2154 0
M  V30 8351 C 817.711 -5.50189 1.6149 0
M  V30 8352 N 817.207 -6.60512 2.09034 0
M  V30 8353 N 819 -5.40903 1.52907 0
M  V30 8354 H 811.151 -1.53001 1.47324 0
M  V30 8355 H 813.414 -0.724765 0.61108 0
M  V30 8356 H 813.12 -3.03182 1.78251 0
M  V30 8357 H 812.994 -3.767 0.19417 0
M  V30 8358 H 815.381 -2.93134 -0.340085 0
M  V30 8359 H 815.462 -2.2167 1.27656 0
M  V30 8360 H 815.106 -4.53172 2.29341 0
M  V30 8361 H 815.036 -5.22524 0.653921 0
M  V30 8362 H 817.527 -3.67819 0.867043 0
M  V30 8363 H 817.84 -7.35372 2.37588 0
M  V30 8364 H 816.185 -6.61553 2.13008 0
M  V30 8365 H 819.376 -4.53606 1.15583 0
M  V30 8366 H 819.549 -6.21219 1.84365 0
M  V30 8367 N 812.955 -0.234822 -1.55841 0
M  V30 8368 C 814.203 0.392483 -1.98252 0
M  V30 8369 C 814.524 1.59344 -1.12404 0
M  V30 8370 O 813.794 1.94834 -0.204055 0
M  V30 8371 H 812.374 0.147999 -0.732192 0
M  V30 8372 H 815.036 -0.330804 -1.92072 0
M  V30 8373 H 814.132 0.709829 -3.03921 0
M  V30 8374 N 814.433 1.57553 0.0384317 0
M  V30 8375 C 815.396 2.04927 1.02653 0
M  V30 8376 C 816.396 0.951768 1.29607 0
M  V30 8377 O 817.586 1.21568 1.24768 0
M  V30 8378 C 814.718 2.45828 2.36181 0
M  V30 8379 H 815.911 2.93474 0.617508 0
M  V30 8380 H 813.464 1.53679 0.285031 0
M  V30 8381 H 814.199 1.60408 2.8185 0
M  V30 8382 H 813.984 3.25945 2.1795 0
M  V30 8383 H 815.474 2.82939 3.0714 0
M  V30 8384 N 815.911 -0.310526 1.54511 0
M  V30 8385 C 817.157 -1.04846 1.73595 0
M  V30 8386 C 817.49 -1.87244 0.515118 0
M  V30 8387 O 816.765 -1.88282 -0.48786 0
M  V30 8388 C 817.048 -1.96237 3.01932 0
M  V30 8389 C 816.901 -1.17082 4.34295 0
M  V30 8390 C 818.22 -2.9556 3.26086 0
M  V30 8391 H 815.339 -0.37976 0.631626 0
M  V30 8392 H 817.981 -0.32394 1.87218 0
M  V30 8393 H 816.131 -2.58015 2.90449 0
M  V30 8394 H 817.803 -0.576643 4.57682 0
M  V30 8395 H 816.046 -0.473336 4.3121 0
M  V30 8396 H 816.717 -1.84257 5.20339 0
M  V30 8397 H 819.193 -2.43908 3.37117 0
M  V30 8398 H 818.069 -3.5668 4.17218 0
M  V30 8399 H 818.33 -3.68715 2.4393 0
M  V30 8400 N 817.389 -1.46805 -0.573248 0
M  V30 8401 C 818.619 -1.55965 -1.35494 0
M  V30 8402 C 819.027 -0.203038 -1.88107 0
M  V30 8403 O 818.37 0.81138 -1.6481 0
M  V30 8404 C 818.432 -2.51168 -2.57206 0
M  V30 8405 C 818.096 -3.97211 -2.25993 0
M  V30 8406 C 819.093 -4.86155 -1.84254 0
M  V30 8407 C 816.778 -4.42419 -2.37846 0
M  V30 8408 C 818.772 -6.18323 -1.54776 0
M  V30 8409 C 816.459 -5.74619 -2.0798 0
M  V30 8410 C 817.457 -6.62392 -1.66511 0
M  V30 8411 O 817.145 -7.92137 -1.37016 0
M  V30 8412 H 816.877 -0.529748 -0.419932 0
M  V30 8413 H 819.431 -1.92998 -0.702914 0
M  V30 8414 H 817.661 -2.09171 -3.25245 0
M  V30 8415 H 819.35 -2.50631 -3.19279 0
M  V30 8416 H 820.116 -4.52481 -1.74603 0
M  V30 8417 H 815.995 -3.74319 -2.69085 0
M  V30 8418 H 819.539 -6.8679 -1.22334 0
M  V30 8419 H 815.436 -6.0784 -2.17258 0
M  V30 8420 H 816.204 -8.04492 -1.50782 0
M  V30 8421 N 818.867 0.818669 -1.34668 0
M  V30 8422 C 819.797 1.94468 -1.29245 0
M  V30 8423 C 820.778 1.69257 -0.169101 0
M  V30 8424 O 821.963 1.90794 -0.362143 0
M  V30 8425 C 819.093 3.31001 -1.05145 0
M  V30 8426 C 818.047 3.70663 -2.13992 0
M  V30 8427 C 817.373 5.05226 -1.75074 0
M  V30 8428 C 818.673 3.82312 -3.55858 0
M  V30 8429 H 820.367 1.99263 -2.2346 0
M  V30 8430 H 817.913 0.957304 -1.07572 0
M  V30 8431 H 819.866 4.09364 -0.999949 0
M  V30 8432 H 818.59 3.26517 -0.0737312 0
M  V30 8433 H 817.249 2.94578 -2.18219 0
M  V30 8434 H 816.897 4.97233 -0.759518 0
M  V30 8435 H 816.597 5.32734 -2.47928 0
M  V30 8436 H 818.121 5.86042 -1.71427 0
M  V30 8437 H 819.535 4.50935 -3.5402 0
M  V30 8438 H 817.932 4.21278 -4.2737 0
M  V30 8439 H 819.002 2.84193 -3.9289 0
M  V30 8440 N 820.346 1.18468 1.03938 0
M  V30 8441 C 821.593 0.980833 1.77161 0
M  V30 8442 C 821.921 -0.489425 1.88242 0
M  V30 8443 O 821.176 -1.37961 1.388 0
M  V30 8444 C 821.475 1.58229 3.20466 0
M  V30 8445 C 821.141 3.07889 3.29416 0
M  V30 8446 C 819.803 3.48737 3.31566 0
M  V30 8447 C 822.155 4.03903 3.29411 0
M  V30 8448 C 819.483 4.84171 3.31355 0
M  V30 8449 C 821.835 5.39253 3.3074 0
M  V30 8450 C 820.499 5.79547 3.31182 0
M  V30 8451 H 819.769 0.358912 0.648277 0
M  V30 8452 H 822.416 1.47552 1.22069 0
M  V30 8453 H 820.721 1.00964 3.78568 0
M  V30 8454 H 822.418 1.39998 3.75768 0
M  V30 8455 H 819.008 2.75335 3.28464 0
M  V30 8456 H 823.192 3.73395 3.2694 0
M  V30 8457 H 818.448 5.14685 3.30015 0
M  V30 8458 H 822.622 6.13417 3.29686 0
M  V30 8459 H 820.249 6.84466 3.30772 0
M  V30 8460 N 821.824 -1.22873 0.986916 0
M  V30 8461 C 822.774 -2.2237 0.503547 0
M  V30 8462 C 823.758 -1.55186 -0.424998 0
M  V30 8463 O 824.95 -1.75186 -0.252791 0
M  V30 8464 C 822.079 -3.42794 -0.186355 0
M  V30 8465 C 821.165 -4.17196 0.762143 0
M  V30 8466 N 821.556 -4.68453 1.9075 0
M  V30 8467 C 819.854 -4.42255 0.576797 0
M  V30 8468 C 820.555 -5.25126 2.50235 0
M  V30 8469 N 819.531 -5.13437 1.7856 0
M  V30 8470 H 823.333 -2.59636 1.37718 0
M  V30 8471 H 820.847 -1.38476 0.848415 0
M  V30 8472 H 822.844 -4.13256 -0.549993 0
M  V30 8473 H 821.504 -3.07042 -1.05619 0
M  V30 8474 H 822.515 -4.64595 2.28848 0
M  V30 8475 H 819.192 -4.16766 -0.247474 0
M  V30 8476 H 820.582 -5.75363 3.46997 0
M  V30 8477 N 823.302 -0.75937 -1.38099 0
M  V30 8478 C 824.55 -0.317485 -1.99591 0
M  V30 8479 C 824.871 1.10628 -1.60581 0
M  V30 8480 O 824.141 1.7575 -0.865378 0
M  V30 8481 H 822.721 -0.114397 -0.738189 0
M  V30 8482 H 825.383 -0.974749 -1.68774 0
M  V30 8483 H 824.479 -0.385227 -3.09713 0
M  V30 8484 N 824.78 1.49157 -0.508906 0
M  V30 8485 C 826.026 2.02773 0.0328469 0
M  V30 8486 C 826.359 1.38714 1.35912 0
M  V30 8487 O 825.634 0.525536 1.87266 0
M  V30 8488 C 825.917 3.59664 0.177088 0
M  V30 8489 C 825.77 4.34239 -1.17287 0
M  V30 8490 C 827.089 4.30505 0.913977 0
M  V30 8491 H 824.208 0.736926 0.0104631 0
M  V30 8492 H 826.85 1.781 -0.661851 0
M  V30 8493 H 825 3.80818 0.768774 0
M  V30 8494 H 826.672 4.24561 -1.80404 0
M  V30 8495 H 824.915 3.96486 -1.76016 0
M  V30 8496 H 825.586 5.42397 -1.02516 0
M  V30 8497 H 828.062 4.14054 0.412084 0
M  V30 8498 H 826.938 5.40012 0.983759 0
M  V30 8499 H 827.199 3.96302 1.95951 0
M  V30 8500 N 826.258 0.243083 1.55714 0
M  V30 8501 C 827.188 -0.652336 2.24203 0
M  V30 8502 C 828.169 -1.1843 1.221 0
M  V30 8503 O 829.354 -1.22435 1.50743 0
M  V30 8504 C 826.484 -1.85111 2.93856 0
M  V30 8505 C 825.438 -1.45208 4.02615 0
M  V30 8506 C 824.764 -2.73137 4.59674 0
M  V30 8507 C 826.064 -0.625988 5.18535 0
M  V30 8508 H 827.758 -0.0812504 2.9929 0
M  V30 8509 H 825.304 -0.0376388 1.43951 0
M  V30 8510 H 827.257 -2.48314 3.40468 0
M  V30 8511 H 825.981 -2.44751 2.16251 0
M  V30 8512 H 824.64 -0.843406 3.56766 0
M  V30 8513 H 824.288 -3.30967 3.78774 0
M  V30 8514 H 823.988 -2.47163 5.33089 0
M  V30 8515 H 825.512 -3.37245 5.09017 0
M  V30 8516 H 826.926 -1.16223 5.61396 0
M  V30 8517 H 825.323 -0.462465 5.98315 0
M  V30 8518 H 826.393 0.362652 4.83542 0
M  V30 8519 N 827.736 -1.57571 -0.0300757 0
M  V30 8520 C 828.984 -1.88852 -0.719666 0
M  V30 8521 C 829.305 -0.840645 -1.75949 0
M  V30 8522 O 828.575 0.125854 -1.95495 0
M  V30 8523 H 827.155 -0.696965 -0.268792 0
M  V30 8524 H 829.817 -1.949 0.00373285 0
M  V30 8525 H 828.913 -2.87695 -1.20987 0
M  V30 8526 N 829.214 0.302327 -1.54673 0
M  V30 8527 C 830.625 0.875409 -1.64904 0
M  V30 8528 C 830.976 1.88132 -0.55684 0
M  V30 8529 O 830.101 2.14215 0.306754 0
M  V30 8530 C 830.696 1.59457 -2.9893 0
M  V30 8531 C 829.255 2.11607 -3.11287 0
M  V30 8532 C 828.402 0.948324 -2.6058 0
M  V30 8533 H 831.353 0.079362 -1.58501 0
M  V30 8534 H 831.374 2.46005 -2.90279 0
M  V30 8535 H 830.886 0.8622 -3.78402 0
M  V30 8536 H 828.987 2.87895 -2.36532 0
M  V30 8537 H 829.1 2.35151 -4.17422 0
M  V30 8538 H 827.464 1.33352 -2.17001 0
M  V30 8539 H 828.247 0.229936 -3.42529 0
M  V30 8540 N 830.692 1.47107 0.565454 0
M  V30 8541 C 831.917 1.57153 1.35343 0
M  V30 8542 C 832.342 0.219247 1.86818 0
M  V30 8543 O 831.7 -0.803539 1.62521 0
M  V30 8544 C 831.748 2.59387 2.50501 0
M  V30 8545 O 830.852 2.14086 3.52478 0
M  V30 8546 H 830.193 0.528209 0.402357 0
M  V30 8547 H 832.723 1.92821 0.684189 0
M  V30 8548 H 832.733 2.79546 2.97184 0
M  V30 8549 H 831.408 3.57579 2.12391 0
M  V30 8550 H 829.985 2.03991 3.12157 0
M  V30 8551 N 832.17 -0.811516 1.35101 0
M  V30 8552 C 833.419 -1.56343 1.27435 0
M  V30 8553 C 833.732 -1.95019 -0.150696 0
M  V30 8554 O 834.938 -2.6924 -0.349586 0
M  V30 8555 C 833.394 -2.82124 2.23459 0
M  V30 8556 C 833.002 -2.50706 3.71283 0
M  V30 8557 C 834.746 -3.60137 2.24726 0
M  V30 8558 C 832.653 -3.72748 4.59143 0
M  V30 8559 H 831.583 -0.58682 0.473453 0
M  V30 8560 H 834.234 -0.892465 1.60335 0
M  V30 8561 H 832.616 -3.50905 1.83525 0
M  V30 8562 H 833.79 -1.89962 4.19823 0
M  V30 8563 H 832.105 -1.85947 3.72576 0
M  V30 8564 H 834.702 -4.50775 2.87587 0
M  V30 8565 H 835.045 -3.97101 1.24965 0
M  V30 8566 H 835.578 -2.98311 2.63164 0
M  V30 8567 H 832.317 -3.40896 5.59884 0
M  V30 8568 H 831.837 -4.32735 4.15332 0
M  V30 8569 H 833.516 -4.40033 4.74321 0
M  V30 8570 N 833.648 -1.19017 -1.03309 0
M  V30 8571 C 834.873 -1.01598 -1.80811 0
M  V30 8572 C 835.298 0.430773 -1.83101 0
M  V30 8573 O 834.656 1.30946 -1.25391 0
M  V30 8574 C 834.704 -1.5845 -3.23923 0
M  V30 8575 O 833.808 -0.810972 -4.04348 0
M  V30 8576 H 833.149 -0.359398 -0.558327 0
M  V30 8577 H 835.679 -1.57945 -1.30055 0
M  V30 8578 H 835.689 -1.61486 -3.74682 0
M  V30 8579 H 834.364 -2.63752 -3.21571 0
M  V30 8580 H 832.941 -0.85353 -3.63 0
M  V30 8581 N 835.127 1.22348 -0.993418 0
M  V30 8582 C 836.538 1.72893 -0.704616 0
M  V30 8583 C 836.889 1.80095 0.778483 0
M  V30 8584 O 836.014 1.4476 1.60853 0
M  V30 8585 C 836.609 3.14 -1.27237 0
M  V30 8586 C 835.168 3.61949 -1.03294 0
M  V30 8587 C 834.315 2.39816 -1.39225 0
M  V30 8588 H 837.266 1.07688 -1.16572 0
M  V30 8589 H 837.287 3.74886 -0.651212 0
M  V30 8590 H 836.799 3.08727 -2.3518 0
M  V30 8591 H 834.9 3.72588 0.0298329 0
M  V30 8592 H 835.013 4.48051 -1.69668 0
M  V30 8593 H 833.377 2.41448 -0.810849 0
M  V30 8594 H 834.16 2.37203 -2.48172 0
M  V30 8595 N 836.605 0.766683 1.37694 0
M  V30 8596 C 837.83 0.338715 2.04615 0
M  V30 8597 C 838.255 -1.02918 1.57447 0
M  V30 8598 O 837.613 -1.65849 0.732386 0
M  V30 8599 C 837.661 0.385284 3.58536 0
M  V30 8600 O 836.765 -0.616081 4.07772 0
M  V30 8601 H 836.106 0.147527 0.647404 0
M  V30 8602 H 838.636 1.04146 1.7611 0
M  V30 8603 H 838.646 0.240782 4.07289 0
M  V30 8604 H 837.321 1.38325 3.92223 0
M  V30 8605 H 835.898 -0.435115 3.70353 0
M  V30 8606 N 838.083 -1.48885 0.516809 0
M  V30 8607 C 839.033 -2.26363 -0.272704 0
M  V30 8608 C 840.017 -1.31891 -0.921604 0
M  V30 8609 O 841.209 -1.56514 -0.826589 0
M  V30 8610 C 838.338 -3.16614 -1.32705 0
M  V30 8611 C 837.424 -4.18554 -0.683598 0
M  V30 8612 N 837.815 -5.05308 0.223015 0
M  V30 8613 C 836.113 -4.35931 -0.942351 0
M  V30 8614 C 836.814 -5.7867 0.592918 0
M  V30 8615 N 835.79 -5.43583 -0.042912 0
M  V30 8616 H 839.592 -2.90811 0.424971 0
M  V30 8617 H 837.106 -1.5893 0.333941 0
M  V30 8618 H 839.103 -3.70766 -1.90625 0
M  V30 8619 H 837.763 -2.5372 -2.02624 0
M  V30 8620 H 838.774 -5.14473 0.594818 0
M  V30 8621 H 835.451 -3.84234 -1.6331 0
M  V30 8622 H 836.841 -6.58493 1.33556 0
M  V30 8623 N 839.561 -0.251338 -1.55583 0
M  V30 8624 C 840.786 0.379136 -2.03905 0
M  V30 8625 C 841.211 1.50428 -1.12929 0
M  V30 8626 O 840.569 1.80882 -0.123114 0
M  V30 8627 C 840.617 0.86009 -3.50193 0
M  V30 8628 O 839.721 1.96932 -3.62342 0
M  V30 8629 H 839.062 0.0820183 -0.658915 0
M  V30 8630 H 841.592 -0.378692 -2.01065 0
M  V30 8631 H 841.602 1.16214 -3.91099 0
M  V30 8632 H 840.277 0.0367559 -4.15884 0
M  V30 8633 H 838.854 1.67163 -3.33333 0
M  V30 8634 N 841.039 1.57585 0.0217189 0
M  V30 8635 C 841.971 2.03849 1.04777 0
M  V30 8636 C 842.984 0.952558 1.32023 0
M  V30 8637 O 844.173 1.22974 1.29381 0
M  V30 8638 C 841.273 2.40504 2.3877 0
M  V30 8639 C 840.446 3.71566 2.30775 0
M  V30 8640 C 839.505 3.95329 3.47277 0
M  V30 8641 O 838.531 4.66289 3.26441 0
M  V30 8642 N 839.733 3.41536 4.69397 0
M  V30 8643 H 842.498 2.92491 0.653395 0
M  V30 8644 H 840.059 1.60538 0.209527 0
M  V30 8645 H 842.051 2.53532 3.15442 0
M  V30 8646 H 840.621 1.57494 2.70027 0
M  V30 8647 H 839.841 3.68822 1.39155 0
M  V30 8648 H 841.129 4.5753 2.22584 0
M  V30 8649 H 840.527 2.84033 4.89226 0
M  V30 8650 H 839.084 3.59932 5.43408 0
M  V30 8651 N 842.517 -0.29412 1.54831 0
M  V30 8652 C 843.933 -0.640167 1.46199 0
M  V30 8653 C 844.133 -1.90426 0.658798 0
M  V30 8654 O 843.189 -2.51932 0.169228 0
M  V30 8655 C 844.502 -0.786763 2.90225 0
M  V30 8656 C 846.05 -0.882201 3.0031 0
M  V30 8657 C 846.525 -1.06074 4.45547 0
M  V30 8658 N 848.016 -1.12678 4.49286 0
M  V30 8659 C 848.751 -1.28334 5.58854 0
M  V30 8660 N 848.247 -1.40845 6.78332 0
M  V30 8661 N 850.04 -1.31277 5.46555 0
M  V30 8662 H 842.191 0.536334 2.05517 0
M  V30 8663 H 844.454 0.178363 0.93107 0
M  V30 8664 H 844.16 0.0713018 3.51628 0
M  V30 8665 H 844.034 -1.67364 3.38037 0
M  V30 8666 H 846.421 -1.73075 2.39017 0
M  V30 8667 H 846.502 0.0288405 2.55784 0
M  V30 8668 H 846.146 -0.216935 5.07437 0
M  V30 8669 H 846.076 -1.98611 4.8771 0
M  V30 8670 H 848.567 -1.04335 3.63212 0
M  V30 8671 H 848.88 -1.52566 7.57591 0
M  V30 8672 H 847.225 -1.37888 6.81184 0
M  V30 8673 H 850.416 -1.2112 4.52159 0
M  V30 8674 H 850.589 -1.43136 6.31994 0
M  V30 8675 N 843.995 -1.47404 -0.557645 0
M  V30 8676 C 845.244 -1.53268 -1.31118 0
M  V30 8677 C 845.557 -0.199414 -1.94581 0
M  V30 8678 O 846.763 -0.136039 -2.71159 0
M  V30 8679 C 845.219 -2.70178 -2.37764 0
M  V30 8680 C 844.827 -4.10032 -1.80493 0
M  V30 8681 C 846.571 -2.85334 -3.14301 0
M  V30 8682 C 844.478 -5.18244 -2.84916 0
M  V30 8683 H 843.408 -0.570491 -0.493007 0
M  V30 8684 H 846.059 -1.73678 -0.592308 0
M  V30 8685 H 844.441 -2.43147 -3.12563 0
M  V30 8686 H 845.615 -4.46964 -1.12069 0
M  V30 8687 H 843.93 -3.99759 -1.16542 0
M  V30 8688 H 846.527 -3.63347 -3.92279 0
M  V30 8689 H 846.87 -1.93761 -3.68459 0
M  V30 8690 H 847.403 -3.12133 -2.46613 0
M  V30 8691 H 844.142 -6.11691 -2.35614 0
M  V30 8692 H 843.662 -4.85829 -3.51753 0
M  V30 8693 H 845.341 -5.45174 -3.48417 0
M  V30 8694 N 845.473 0.80434 -1.35529 0
M  V30 8695 C 846.436 1.89788 -1.28503 0
M  V30 8696 C 847.436 1.59601 -0.195983 0
M  V30 8697 O 848.626 1.68292 -0.449827 0
M  V30 8698 C 845.758 3.26255 -0.98847 0
M  V30 8699 H 846.951 1.97436 -2.25741 0
M  V30 8700 H 844.504 1.00046 -1.20086 0
M  V30 8701 H 845.239 3.24294 -0.0200541 0
M  V30 8702 H 845.024 3.49551 -1.77641 0
M  V30 8703 H 846.514 4.06298 -0.964975 0
M  V30 8704 N 846.951 1.19563 1.02676 0
M  V30 8705 C 848.199 0.997593 1.75763 0
M  V30 8706 C 848.52 -0.47253 1.89188 0
M  V30 8707 O 847.79 -1.34214 1.42701 0
M  V30 8708 H 846.37 0.366128 0.651122 0
M  V30 8709 H 849.032 1.50495 1.23844 0
M  V30 8710 H 848.128 1.44741 2.76508 0
M  V30 8711 N 848.429 -1.21819 0.999893 0
M  V30 8712 C 849.654 -1.95298 0.698094 0
M  V30 8713 C 850.079 -1.73273 -0.731982 0
M  V30 8714 O 849.437 -1.01634 -1.50134 0
M  V30 8715 C 849.485 -3.45922 1.01834 0
M  V30 8716 O 848.589 -4.12223 0.120801 0
M  V30 8717 H 847.93 -0.610729 0.260588 0
M  V30 8718 H 850.46 -1.5472 1.33876 0
M  V30 8719 H 850.47 -3.96471 0.963074 0
M  V30 8720 H 849.145 -3.61278 2.06037 0
M  V30 8721 H 847.722 -3.72177 0.232153 0
M  V30 8722 N 849.908 -0.773975 -1.37286 0
M  V30 8723 C 850.84 -0.119938 -2.28886 0
M  V30 8724 C 851.853 0.661822 -1.48741 0
M  V30 8725 O 853.042 0.499548 -1.71367 0
M  V30 8726 C 850.142 0.853703 -3.27971 0
M  V30 8727 C 849.315 0.125286 -4.37221 0
M  V30 8728 C 848.374 1.01261 -5.16365 0
M  V30 8729 O 847.4 0.475565 -5.6721 0
M  V30 8730 N 848.602 2.33864 -5.31308 0
M  V30 8731 H 851.367 -0.906702 -2.85655 0
M  V30 8732 H 848.928 -0.626519 -1.49286 0
M  V30 8733 H 850.92 1.4508 -3.77801 0
M  V30 8734 H 849.49 1.54142 -2.71954 0
M  V30 8735 H 848.71 -0.652742 -3.88758 0
M  V30 8736 H 849.998 -0.377959 -5.07394 0
M  V30 8737 H 849.396 2.79929 -4.91585 0
M  V30 8738 H 847.953 2.88575 -5.84438 0
M  V30 8739 N 851.386 1.48609 -0.524698 0
M  V30 8740 C 852.316 2.32366 0.229837 0
M  V30 8741 C 853.297 1.41759 0.940129 0
M  V30 8742 O 854.482 1.7065 0.926936 0
M  V30 8743 C 851.612 3.22835 1.28043 0
M  V30 8744 C 850.566 4.22424 0.688603 0
M  V30 8745 C 849.892 5.0199 1.84146 0
M  V30 8746 C 851.192 5.21217 -0.336176 0
M  V30 8747 H 852.886 2.95698 -0.469339 0
M  V30 8748 H 850.432 1.42197 -0.227156 0
M  V30 8749 H 852.385 3.80253 1.8162 0
M  V30 8750 H 851.109 2.57492 2.00912 0
M  V30 8751 H 849.768 3.66185 0.174402 0
M  V30 8752 H 849.416 4.33076 2.5584 0
M  V30 8753 H 849.116 5.69392 1.45142 0
M  V30 8754 H 850.64 5.62259 2.38111 0
M  V30 8755 H 852.054 5.7319 0.112307 0
M  V30 8756 H 850.451 5.96642 -0.643324 0
M  V30 8757 H 851.521 4.68676 -1.24381 0
M  V30 8758 N 852.864 0.259585 1.55447 0
M  V30 8759 C 854.089 -0.368317 2.04103 0
M  V30 8760 C 854.514 -1.49827 1.13725 0
M  V30 8761 O 853.872 -1.80814 0.132705 0
M  V30 8762 C 853.92 -0.841506 3.50644 0
M  V30 8763 O 853.024 -1.95008 3.63381 0
M  V30 8764 H 852.365 -0.0785227 0.659341 0
M  V30 8765 H 854.895 0.389349 2.00861 0
M  V30 8766 H 854.905 -1.14138 3.9171 0
M  V30 8767 H 853.58 -0.0147001 4.15897 0
M  V30 8768 H 852.157 -1.65393 3.34215 0
M  V30 8769 N 854.342 -1.57594 -0.0133615 0
M  V30 8770 C 855.567 -1.94649 -0.715996 0
M  V30 8771 C 855.992 -0.860786 -1.67249 0
M  V30 8772 O 855.35 0.182228 -1.80382 0
M  V30 8773 C 855.398 -3.30789 -1.43566 0
M  V30 8774 O 854.502 -3.24148 -2.54955 0
M  V30 8775 H 853.843 -0.635801 -0.191449 0
M  V30 8776 H 856.373 -2.04569 0.0358478 0
M  V30 8777 H 856.383 -3.66045 -1.80208 0
M  V30 8778 H 855.058 -4.09367 -0.734263 0
M  V30 8779 H 853.635 -3.00548 -2.20739 0
M  V30 8780 N 855.82 0.285905 -1.54985 0
M  V30 8781 C 857.236 0.632405 -1.46536 0
M  V30 8782 C 857.436 1.90074 -0.668888 0
M  V30 8783 O 856.492 2.51839 -0.182586 0
M  V30 8784 C 857.805 0.771361 -2.90638 0
M  V30 8785 C 859.353 0.866262 -3.00774 0
M  V30 8786 C 859.828 1.0371 -4.46103 0
M  V30 8787 N 861.319 1.10294 -4.49877 0
M  V30 8788 C 862.054 1.25369 -5.59527 0
M  V30 8789 N 861.55 1.37246 -6.7907 0
M  V30 8790 N 863.343 1.28377 -5.47244 0
M  V30 8791 H 855.494 -0.547226 -2.0523 0
M  V30 8792 H 857.757 -0.183298 -0.930111 0
M  V30 8793 H 857.463 -0.0899485 -3.51585 0
M  V30 8794 H 857.337 1.65569 -3.3892 0
M  V30 8795 H 859.724 1.71805 -2.39931 0
M  V30 8796 H 859.805 -0.0424049 -2.55765 0
M  V30 8797 H 859.449 0.190021 -5.07544 0
M  V30 8798 H 859.379 1.96022 -4.88757 0
M  V30 8799 H 861.87 1.02407 -3.6376 0
M  V30 8800 H 862.183 1.48546 -7.58389 0
M  V30 8801 H 860.528 1.34274 -6.81906 0
M  V30 8802 H 863.719 1.1872 -4.52795 0
M  V30 8803 H 863.892 1.39782 -6.32744 0
M  V30 8804 N 857.298 1.47698 0.54982 0
M  V30 8805 C 858.228 1.63622 1.66583 0
M  V30 8806 C 859.209 0.485477 1.63025 0
M  V30 8807 O 860.394 0.715692 1.80531 0
M  V30 8808 C 857.524 1.65721 3.05211 0
M  V30 8809 C 856.478 2.80097 3.2362 0
M  V30 8810 C 855.804 2.67272 4.63109 0
M  V30 8811 C 857.104 4.21612 3.08286 0
M  V30 8812 H 858.798 2.57049 1.53512 0
M  V30 8813 H 856.344 1.23705 0.737099 0
M  V30 8814 H 858.297 1.75451 3.83138 0
M  V30 8815 H 857.021 0.688593 3.19258 0
M  V30 8816 H 855.68 2.69889 2.48104 0
M  V30 8817 H 855.328 1.68422 4.73965 0
M  V30 8818 H 855.028 3.44008 4.76374 0
M  V30 8819 H 856.552 2.78942 5.43161 0
M  V30 8820 H 857.966 4.32758 3.76024 0
M  V30 8821 H 856.363 4.99193 3.33057 0
M  V30 8822 H 857.433 4.39462 2.04942 0
M  V30 8823 N 858.776 -0.797141 1.35954 0
M  V30 8824 C 859.708 -1.91782 1.25509 0
M  V30 8825 C 860.721 -1.61843 0.176271 0
M  V30 8826 O 861.91 -1.73235 0.430343 0
M  V30 8827 C 859.01 -3.26396 0.912073 0
M  V30 8828 C 858.183 -3.84171 2.0912 0
M  V30 8829 C 857.242 -4.9721 1.72246 0
M  V30 8830 O 856.268 -5.14136 2.44239 0
M  V30 8831 N 857.47 -5.76831 0.651611 0
M  V30 8832 H 860.235 -2.01266 2.22063 0
M  V30 8833 H 857.796 -0.975033 1.29247 0
M  V30 8834 H 859.788 -3.99499 0.646707 0
M  V30 8835 H 858.358 -3.12579 0.0359079 0
M  V30 8836 H 857.578 -3.03148 2.51982 0
M  V30 8837 H 858.866 -4.19503 2.87914 0
M  V30 8838 H 858.264 -5.65675 0.0536678 0
M  V30 8839 H 856.821 -6.50272 0.44605 0
M  V30 8840 N 860.254 -1.20106 -1.0204 0
M  V30 8841 C 861.484 -1.0329 -1.78927 0
M  V30 8842 C 861.892 0.421115 -1.84454 0
M  V30 8843 O 861.235 1.30422 -1.29367 0
M  V30 8844 C 861.297 -1.53627 -3.25021 0
M  V30 8845 C 860.961 -3.01869 -3.4311 0
M  V30 8846 C 861.958 -3.9956 -3.32638 0
M  V30 8847 C 859.643 -3.40746 -3.6905 0
M  V30 8848 C 861.637 -5.34119 -3.47844 0
M  V30 8849 C 859.324 -4.75462 -3.839 0
M  V30 8850 C 860.322 -5.71957 -3.73302 0
M  V30 8851 O 860.01 -7.04231 -3.87703 0
M  V30 8852 H 859.742 -0.363962 -0.569656 0
M  V30 8853 H 862.296 -1.59551 -1.29354 0
M  V30 8854 H 860.526 -0.917481 -3.75658 0
M  V30 8855 H 862.215 -1.32889 -3.8353 0
M  V30 8856 H 862.981 -3.70869 -3.12539 0
M  V30 8857 H 858.86 -2.66182 -3.76388 0
M  V30 8858 H 862.404 -6.09421 -3.39488 0
M  V30 8859 H 858.301 -5.03844 -4.03499 0
M  V30 8860 H 859.069 -7.11425 -4.04744 0
M  V30 8861 N 861.732 1.21287 -1.00634 0
M  V30 8862 C 862.979 1.90389 -0.6898 0
M  V30 8863 C 863.307 1.78193 0.779574 0
M  V30 8864 O 862.562 1.15358 1.58085 0
M  V30 8865 C 862.861 3.41374 -1.05824 0
M  V30 8866 C 862.527 3.73766 -2.5221 0
M  V30 8867 C 861.189 3.82317 -2.92211 0
M  V30 8868 C 863.541 3.88871 -3.47028 0
M  V30 8869 C 860.869 4.03423 -4.2599 0
M  V30 8870 C 863.221 4.11484 -4.80483 0
M  V30 8871 C 861.885 4.18263 -5.20204 0
M  V30 8872 H 861.155 0.696683 -0.252416 0
M  V30 8873 H 863.802 1.43769 -1.26502 0
M  V30 8874 H 862.107 3.8974 -0.401281 0
M  V30 8875 H 863.804 3.93118 -0.79116 0
M  V30 8876 H 860.394 3.67702 -2.20212 0
M  V30 8877 H 864.578 3.8163 -3.17289 0
M  V30 8878 H 859.834 4.06902 -4.56334 0
M  V30 8879 H 864.008 4.22115 -5.53888 0
M  V30 8880 H 861.635 4.34369 -6.23881 0
M  V30 8881 N 863.21 0.781244 1.36873 0
M  V30 8882 C 864.458 0.349198 1.9906 0
M  V30 8883 C 864.779 -1.0806 1.62321 0
M  V30 8884 O 864.049 -1.74351 0.893229 0
M  V30 8885 H 862.629 0.126126 0.736275 0
M  V30 8886 H 865.291 1.00148 1.67202 0
M  V30 8887 H 864.387 0.434451 3.09061 0
M  V30 8888 N 864.689 -1.48329 0.532571 0
M  V30 8889 C 865.621 -2.27652 -0.265931 0
M  V30 8890 C 866.634 -1.35522 -0.902083 0
M  V30 8891 O 867.823 -1.60552 -0.780088 0
M  V30 8892 C 864.923 -3.0899 -1.39207 0
M  V30 8893 C 864.096 -4.28915 -0.857349 0
M  V30 8894 C 863.155 -4.92044 -1.86493 0
M  V30 8895 O 862.181 -5.51181 -1.42084 0
M  V30 8896 N 863.383 -4.84518 -3.19723 0
M  V30 8897 H 866.148 -2.96821 0.414389 0
M  V30 8898 H 863.709 -1.57684 0.367066 0
M  V30 8899 H 865.701 -3.48091 -2.06433 0
M  V30 8900 H 864.271 -2.42224 -1.97601 0
M  V30 8901 H 863.491 -3.94199 -0.00901765 0
M  V30 8902 H 864.779 -5.0654 -0.479025 0
M  V30 8903 H 864.177 -4.37628 -3.58467 0
M  V30 8904 H 862.734 -5.27712 -3.82575 0
M  V30 8905 N 866.167 -0.267825 -1.55308 0
M  V30 8906 C 867.13 0.60965 -2.20943 0
M  V30 8907 C 868.13 1.0869 -1.18504 0
M  V30 8908 O 869.32 0.988248 -1.43455 0
M  V30 8909 C 866.452 1.84027 -2.86961 0
M  V30 8910 H 867.645 0.0366806 -2.99878 0
M  V30 8911 H 865.198 -0.0183941 -1.56289 0
M  V30 8912 H 865.933 2.45394 -2.1202 0
M  V30 8913 H 865.718 1.50605 -3.62023 0
M  V30 8914 H 867.208 2.46442 -3.37129 0
M  V30 8915 N 867.645 1.57599 0.00500368 0
M  V30 8916 C 868.575 2.11143 0.99705 0
M  V30 8917 C 869.556 1.0194 1.3617 0
M  V30 8918 O 870.741 1.29596 1.44632 0
M  V30 8919 C 867.871 2.61062 2.2905 0
M  V30 8920 C 866.825 3.74745 2.0676 0
M  V30 8921 C 866.151 4.10961 3.42075 0
M  V30 8922 C 867.451 5.02222 1.43424 0
M  V30 8923 H 869.145 2.94281 0.551251 0
M  V30 8924 H 866.691 1.41565 0.263715 0
M  V30 8925 H 868.644 2.97146 2.98801 0
M  V30 8926 H 867.368 1.75038 2.75734 0
M  V30 8927 H 866.027 3.39047 1.39436 0
M  V30 8928 H 865.675 3.21968 3.86453 0
M  V30 8929 H 865.375 4.87549 3.27979 0
M  V30 8930 H 866.899 4.49599 4.1315 0
M  V30 8931 H 868.313 5.36109 2.03125 0
M  V30 8932 H 866.71 5.83581 1.39831 0
M  V30 8933 H 867.78 4.83224 0.40285 0
M  V30 8934 N 869.123 -0.277682 1.55134 0
M  V30 8935 C 870.348 -1.03254 1.7987 0
M  V30 8936 C 870.773 -1.79324 0.567861 0
M  V30 8937 O 870.131 -1.74764 -0.4824 0
M  V30 8938 C 870.179 -1.9705 3.02 0
M  V30 8939 O 869.283 -3.05744 2.76757 0
M  V30 8940 H 868.624 -0.295447 0.594649 0
M  V30 8941 H 871.154 -0.308013 2.02268 0
M  V30 8942 H 871.164 -2.3909 3.30606 0
M  V30 8943 H 869.839 -1.41094 3.91236 0
M  V30 8944 H 868.416 -2.68052 2.59235 0
M  V30 8945 N 870.601 -1.47988 -0.541979 0
M  V30 8946 C 871.849 -1.55086 -1.29587 0
M  V30 8947 C 872.17 -0.221304 -1.9374 0
M  V30 8948 O 871.44 0.756128 -1.80719 0
M  V30 8949 H 870.02 -0.571307 -0.481266 0
M  V30 8950 H 872.682 -1.8438 -0.631675 0
M  V30 8951 H 871.778 -2.32556 -2.08144 0
M  V30 8952 N 872.079 0.78992 -1.36375 0
M  V30 8953 C 873.327 1.54472 -1.30319 0
M  V30 8954 C 873.648 1.94647 0.117338 0
M  V30 8955 O 872.918 1.64906 1.05748 0
M  V30 8956 H 871.498 0.572879 -0.479394 0
M  V30 8957 H 874.16 0.941245 -1.70665 0
M  V30 8958 H 873.256 2.45252 -1.93024 0
M  V30 8959 N 873.557 1.20646 1.01402 0
M  V30 8960 C 874.489 0.915392 2.10127 0
M  V30 8961 C 875.502 -0.0978705 1.62506 0
M  V30 8962 O 876.691 0.133477 1.78 0
M  V30 8963 C 873.791 0.351304 3.37074 0
M  V30 8964 C 872.964 1.41673 4.13821 0
M  V30 8965 C 872.023 0.8635 5.19067 0
M  V30 8966 O 871.049 1.54481 5.47836 0
M  V30 8967 N 872.251 -0.325799 5.79585 0
M  V30 8968 H 875.016 1.85132 2.35682 0
M  V30 8969 H 872.577 1.11048 1.17813 0
M  V30 8970 H 874.569 -0.032996 4.04687 0
M  V30 8971 H 873.139 -0.489242 3.08748 0
M  V30 8972 H 872.359 1.97526 3.41141 0
M  V30 8973 H 873.647 2.1342 4.61876 0
M  V30 8974 H 873.045 -0.896534 5.58551 0
M  V30 8975 H 871.602 -0.651708 6.48534 0
M  V30 8976 N 875.035 -1.20752 1.01276 0
M  V30 8977 C 876.312 -1.85676 0.615112 0
M  V30 8978 C 876.692 -1.90623 -0.906976 0
M  V30 8979 O 876.04 -1.41124 -1.79712 0
M  V30 8980 C 876.25 -3.2552 1.25847 0
M  V30 8981 C 877.598 -4.0184 1.37148 0
M  V30 8982 O 878.622 -3.3486 1.21438 0
M  V30 8983 O 877.481 -5.21783 1.62495 0
M  V30 8984 H 874.575 -0.799437 0.211729 0
M  V30 8985 H 877.121 -1.28372 1.10989 0
M  V30 8986 H 875.893 -3.16664 2.29869 0
M  V30 8987 H 875.516 -3.90452 0.750524 0
M  V30 8988 N 876.513 -0.788492 -1.36457 0
M  V30 8989 C 877.443 -0.200468 -2.32638 0
M  V30 8990 C 878.424 0.664031 -1.56603 0
M  V30 8991 O 879.609 0.598045 -1.84762 0
M  V30 8992 C 876.739 0.666274 -3.40849 0
M  V30 8993 C 875.693 -0.0982574 -4.27887 0
M  V30 8994 C 875.019 0.889018 -5.27258 0
M  V30 8995 C 876.319 -1.28692 -5.06197 0
M  V30 8996 H 878.013 -1.00399 -2.82065 0
M  V30 8997 H 875.559 -0.484237 -1.35614 0
M  V30 8998 H 877.512 1.08757 -4.07124 0
M  V30 8999 H 876.236 1.50249 -2.89987 0
M  V30 9000 H 874.895 -0.500525 -3.63167 0
M  V30 9001 H 874.543 1.72024 -4.7267 0
M  V30 9002 H 874.243 0.381909 -5.86358 0
M  V30 9003 H 875.767 1.30891 -5.96406 0
M  V30 9004 H 877.181 -0.941429 -5.65517 0
M  V30 9005 H 875.578 -1.72726 -5.74705 0
M  V30 9006 H 876.648 -2.08273 -4.37893 0
M  V30 9007 N 877.991 1.48044 -0.54043 0
M  V30 9008 C 879.219 2.06895 -0.0145153 0
M  V30 9009 C 879.634 1.39552 1.27164 0
M  V30 9010 O 878.991 0.486454 1.75897 0
M  V30 9011 C 879.042 3.60934 0.202278 0
M  V30 9012 O 878.763 4.25749 -1.03293 0
M  V30 9013 C 880.264 4.36607 0.767387 0
M  V30 9014 H 877.484 0.66991 -0.0382368 0
M  V30 9015 H 880.028 1.90288 -0.749057 0
M  V30 9016 H 878.183 3.77111 0.886897 0
M  V30 9017 H 878.597 5.18048 -0.820167 0
M  V30 9018 H 880.071 5.45126 0.86845 0
M  V30 9019 H 880.548 4.01745 1.77477 0
M  V30 9020 H 881.154 4.25133 0.119002 0
M  V30 9021 N 879.47 0.276058 1.55163 0
M  V30 9022 C 880.402 -0.644254 2.19959 0
M  V30 9023 C 881.415 -1.11675 1.18459 0
M  V30 9024 O 882.604 -1.0385 1.45181 0
M  V30 9025 C 879.704 -1.89093 2.81242 0
M  V30 9026 C 878.877 -1.56509 4.08441 0
M  V30 9027 C 877.936 -2.66433 4.53762 0
M  V30 9028 O 876.962 -2.32579 5.19515 0
M  V30 9029 N 878.164 -3.96509 4.23982 0
M  V30 9030 H 880.929 -0.0896808 2.99566 0
M  V30 9031 H 878.49 0.0971981 1.61608 0
M  V30 9032 H 880.482 -2.61929 3.08505 0
M  V30 9033 H 879.052 -2.35453 2.05622 0
M  V30 9034 H 878.272 -0.670522 3.88455 0
M  V30 9035 H 879.56 -1.32242 4.91314 0
M  V30 9036 H 878.958 -4.26834 3.71254 0
M  V30 9037 H 877.515 -4.6572 4.56014 0
M  V30 9038 N 880.948 -1.576 0.00335426 0
M  V30 9039 C 882.225 -1.81945 -0.718015 0
M  V30 9040 C 882.605 -0.881788 -1.91801 0
M  V30 9041 O 881.953 0.0687118 -2.28397 0
M  V30 9042 C 882.163 -3.30521 -1.12058 0
M  V30 9043 C 883.511 -3.96345 -1.52303 0
M  V30 9044 O 884.535 -3.34864 -1.21428 0
M  V30 9045 O 883.394 -5.04655 -2.09728 0
M  V30 9046 H 880.488 -0.749328 -0.34991 0
M  V30 9047 H 883.034 -1.69675 0.0290654 0
M  V30 9048 H 881.806 -3.90399 -0.265378 0
M  V30 9049 H 881.429 -3.47802 -1.92665 0
M  V30 9050 N 882.426 0.269451 -1.5528 0
M  V30 9051 C 883.674 0.998604 -1.75705 0
M  V30 9052 C 883.995 1.86691 -0.563175 0
M  V30 9053 O 883.265 1.91305 0.421811 0
M  V30 9054 H 881.845 0.371698 -0.647958 0
M  V30 9055 H 884.507 0.292826 -1.92688 0
M  V30 9056 H 883.603 1.63348 -2.6594 0
M  V30 9057 N 883.904 1.48273 0.534124 0
M  V30 9058 C 884.834 1.6538 1.64839 0
M  V30 9059 C 885.815 0.502741 1.62501 0
M  V30 9060 O 887 0.734799 1.79762 0
M  V30 9061 C 884.13 1.68949 3.03436 0
M  V30 9062 C 883.084 2.83513 3.20631 0
M  V30 9063 C 882.41 2.72169 4.60248 0
M  V30 9064 C 883.71 4.24858 3.03797 0
M  V30 9065 H 885.404 2.58663 1.50777 0
M  V30 9066 H 882.95 1.24479 0.723937 0
M  V30 9067 H 884.903 1.79505 3.81256 0
M  V30 9068 H 883.627 0.722415 3.1851 0
M  V30 9069 H 882.286 2.72505 2.45227 0
M  V30 9070 H 881.934 1.7344 4.72152 0
M  V30 9071 H 881.634 3.49042 4.72698 0
M  V30 9072 H 883.158 2.84687 5.40172 0
M  V30 9073 H 884.572 4.36721 3.71413 0
M  V30 9074 H 882.969 5.02697 3.27743 0
M  V30 9075 H 884.039 4.41611 2.0027 0
M  V30 9076 N 885.382 -0.782676 1.36792 0
M  V30 9077 C 886.628 -1.54311 1.3159 0
M  V30 9078 C 886.961 -1.93928 -0.102696 0
M  V30 9079 O 886.236 -1.63233 -1.05761 0
M  V30 9080 C 886.519 -2.81561 2.24489 0
M  V30 9081 C 886.372 -2.48268 3.75078 0
M  V30 9082 C 887.691 -3.83428 2.16034 0
M  V30 9083 H 884.81 -0.559828 0.479335 0
M  V30 9084 H 887.452 -0.898717 1.67401 0
M  V30 9085 H 885.602 -3.36549 1.9408 0
M  V30 9086 H 887.274 -1.99279 4.16036 0
M  V30 9087 H 885.517 -1.81116 3.94182 0
M  V30 9088 H 886.188 -3.39183 4.35499 0
M  V30 9089 H 888.664 -3.37905 2.42815 0
M  V30 9090 H 887.54 -4.70204 2.83194 0
M  V30 9091 H 887.801 -4.26887 1.14976 0
M  V30 9092 N 886.86 -1.21182 -1.00761 0
M  V30 9093 C 888.137 -0.936297 -1.71735 0
M  V30 9094 C 888.517 0.552585 -2.03739 0
M  V30 9095 O 887.865 1.51672 -1.70903 0
M  V30 9096 C 888.075 -1.81867 -2.97868 0
M  V30 9097 C 889.423 -2.06594 -3.7095 0
M  V30 9098 O 890.447 -1.79194 -3.07844 0
M  V30 9099 O 889.306 -2.5292 -4.84452 0
M  V30 9100 H 886.4 -0.350867 -0.74888 0
M  V30 9101 H 888.946 -1.32098 -1.06527 0
M  V30 9102 H 887.718 -2.82643 -2.70607 0
M  V30 9103 H 887.341 -1.43463 -3.70815 0
M  V30 9104 N 888.338 1.20213 -1.01915 0
M  V30 9105 C 889.268 2.25336 -0.612023 0
M  V30 9106 C 890.249 1.65933 0.374186 0
M  V30 9107 O 891.434 1.92464 0.259053 0
M  V30 9108 C 888.564 3.47267 0.047904 0
M  V30 9109 C 887.518 4.1928 -0.859557 0
M  V30 9110 C 886.844 5.3466 -0.0652655 0
M  V30 9111 C 888.144 4.75143 -2.1688 0
M  V30 9112 H 889.838 2.59645 -1.49079 0
M  V30 9113 H 887.384 1.24808 -0.718263 0
M  V30 9114 H 889.337 4.19991 0.344294 0
M  V30 9115 H 888.061 3.12129 0.961404 0
M  V30 9116 H 886.72 3.48425 -1.13999 0
M  V30 9117 H 886.368 4.95767 0.849964 0
M  V30 9118 H 886.068 5.83772 -0.669618 0
M  V30 9119 H 887.592 6.10187 0.224612 0
M  V30 9120 H 889.006 5.39672 -1.9346 0
M  V30 9121 H 887.403 5.34702 -2.72422 0
M  V30 9122 H 888.473 3.93744 -2.83008 0
M  V30 9123 N 889.816 0.795718 1.36037 0
M  V30 9124 C 890.779 0.204318 2.28287 0
M  V30 9125 C 891.779 -0.602017 1.49105 0
M  V30 9126 O 892.969 -0.422089 1.69009 0
M  V30 9127 C 890.101 -0.716431 3.33287 0
M  V30 9128 H 891.294 1.01781 2.821 0
M  V30 9129 H 888.847 0.565588 1.45708 0
M  V30 9130 H 889.582 -1.55403 2.84641 0
M  V30 9131 H 889.367 -0.140096 3.9185 0
M  V30 9132 H 890.857 -1.12488 4.02164 0
M  V30 9133 N 891.294 -1.47756 0.548274 0
M  V30 9134 C 892.54 -2.02789 0.0209265 0
M  V30 9135 C 892.873 -1.42268 -1.32187 0
M  V30 9136 O 892.148 -0.575001 -1.85806 0
M  V30 9137 C 892.431 -3.60007 -0.0816674 0
M  V30 9138 C 892.284 -4.30977 1.28759 0
M  V30 9139 C 893.603 -4.32777 -0.799515 0
M  V30 9140 H 890.722 -0.736944 0.00907884 0
M  V30 9141 H 893.364 -1.76282 0.708839 0
M  V30 9142 H 891.514 -3.82722 -0.667537 0
M  V30 9143 H 893.186 -4.19629 1.91597 0
M  V30 9144 H 891.429 -3.9168 1.86466 0
M  V30 9145 H 892.1 -5.39488 1.16861 0
M  V30 9146 H 894.576 -4.15001 -0.30216 0
M  V30 9147 H 893.452 -5.42431 -0.840239 0
M  V30 9148 H 893.713 -4.01358 -1.85375 0
M  V30 9149 N 892.772 -0.284283 -1.55015 0
M  V30 9150 C 894.02 0.329212 -1.99401 0
M  V30 9151 C 894.341 1.55687 -1.17416 0
M  V30 9152 O 893.611 1.94087 -0.265937 0
M  V30 9153 H 892.191 0.12463 -0.73653 0
M  V30 9154 H 894.853 -0.391743 -1.90922 0
M  V30 9155 H 893.949 0.61278 -3.06025 0
M  V30 9156 N 894.251 1.57596 -0.0117121 0
M  V30 9157 C 895.214 2.08089 0.960816 0
M  V30 9158 C 896.214 0.992519 1.26514 0
M  V30 9159 O 897.404 1.25475 1.20837 0
M  V30 9160 C 894.536 2.53217 2.28241 0
M  V30 9161 H 895.729 2.9529 0.523829 0
M  V30 9162 H 893.282 1.54508 0.235995 0
M  V30 9163 H 894.017 1.69294 2.76604 0
M  V30 9164 H 893.802 3.32714 2.0747 0
M  V30 9165 H 895.292 2.92568 2.97983 0
M  V30 9166 N 895.729 -0.261212 1.5542 0
M  V30 9167 C 897.145 -0.609012 1.47524 0
M  V30 9168 C 897.345 -1.88986 0.699042 0
M  V30 9169 O 896.401 -2.51517 0.222628 0
M  V30 9170 C 897.714 -0.725025 2.91828 0
M  V30 9171 C 899.262 -0.818302 3.02114 0
M  V30 9172 C 899.737 -0.965996 4.47697 0
M  V30 9173 N 901.228 -1.03123 4.51575 0
M  V30 9174 C 901.963 -1.16451 5.6145 0
M  V30 9175 N 901.459 -1.26425 6.81167 0
M  V30 9176 N 903.252 -1.19655 5.49217 0
M  V30 9177 H 895.403 0.579807 2.04333 0
M  V30 9178 H 897.666 0.198072 0.927077 0
M  V30 9179 H 897.372 0.145871 3.51397 0
M  V30 9180 H 897.246 -1.60156 3.41511 0
M  V30 9181 H 899.633 -1.67966 2.42634 0
M  V30 9182 H 899.714 0.0830895 2.55665 0
M  V30 9183 H 899.358 -0.109251 5.07782 0
M  V30 9184 H 899.288 -1.88221 4.91813 0
M  V30 9185 H 901.779 -0.966072 3.65343 0
M  V30 9186 H 902.092 -1.36462 7.60656 0
M  V30 9187 H 900.437 -1.23408 6.83956 0
M  V30 9188 H 903.628 -1.11501 4.54626 0
M  V30 9189 H 903.801 -1.29698 6.34888 0
M  V30 9190 N 897.207 -1.48554 -0.526253 0
M  V30 9191 C 898.455 -1.56452 -1.27935 0
M  V30 9192 C 898.776 -0.24184 -1.93495 0
M  V30 9193 O 898.046 0.736917 -1.81511 0
M  V30 9194 H 896.626 -0.576379 -0.47518 0
M  V30 9195 H 899.288 -1.85039 -0.612083 0
M  V30 9196 H 898.384 -2.34751 -2.05666 0
M  V30 9197 N 898.685 0.775411 -1.37205 0
M  V30 9198 C 899.617 1.89761 -1.28544 0
M  V30 9199 C 900.63 1.61542 -0.201996 0
M  V30 9200 O 901.819 1.72528 -0.457848 0
M  V30 9201 C 898.919 3.24904 -0.963885 0
M  V30 9202 C 898.092 3.80796 -2.15205 0
M  V30 9203 C 897.151 4.94407 -1.80135 0
M  V30 9204 O 896.177 5.10185 -2.52388 0
M  V30 9205 N 897.379 5.75722 -0.743298 0
M  V30 9206 H 900.144 1.97708 -2.25237 0
M  V30 9207 H 897.705 0.954348 -1.30782 0
M  V30 9208 H 899.697 3.9842 -0.710182 0
M  V30 9209 H 898.267 3.12483 -0.085632 0
M  V30 9210 H 897.487 2.99101 -2.56773 0
M  V30 9211 H 898.775 4.1487 -2.94552 0
M  V30 9212 H 898.173 5.65518 -0.143655 0
M  V30 9213 H 896.73 6.4948 -0.549446 0
M  V30 9214 N 900.163 1.21714 1.00117 0
M  V30 9215 C 901.409 1.03823 1.74208 0
M  V30 9216 C 901.742 -0.426733 1.89454 0
M  V30 9217 O 901.017 -1.31658 1.43166 0
M  V30 9218 C 901.3 1.74047 3.15246 0
M  V30 9219 C 901.153 3.28087 3.077 0
M  V30 9220 C 902.472 1.48614 4.14249 0
M  V30 9221 H 899.591 0.378573 0.632338 0
M  V30 9222 H 902.233 1.49942 1.16694 0
M  V30 9223 H 900.383 1.3484 3.64349 0
M  V30 9224 H 902.055 3.76686 2.6628 0
M  V30 9225 H 900.298 3.58191 2.44707 0
M  V30 9226 H 900.969 3.72392 4.07466 0
M  V30 9227 H 903.445 1.82656 3.73866 0
M  V30 9228 H 902.321 2.00257 5.11066 0
M  V30 9229 H 902.582 0.416957 4.40129 0
M  V30 9230 N 901.641 -1.19671 1.02551 0
M  V30 9231 C 902.571 -2.25009 0.623965 0
M  V30 9232 C 903.552 -1.66129 -0.36538 0
M  V30 9233 O 904.737 -1.92599 -0.248842 0
M  V30 9234 C 901.867 -3.47287 -0.0294869 0
M  V30 9235 C 900.821 -4.18818 0.881781 0
M  V30 9236 C 900.147 -5.34618 0.0936189 0
M  V30 9237 C 901.447 -4.73986 2.19396 0
M  V30 9238 H 903.141 -2.58851 1.50454 0
M  V30 9239 H 900.687 -1.24425 0.724872 0
M  V30 9240 H 902.64 -4.20168 -0.322016 0
M  V30 9241 H 901.364 -3.12635 -0.944838 0
M  V30 9242 H 900.023 -3.47815 1.15845 0
M  V30 9243 H 899.671 -4.9621 -0.823661 0
M  V30 9244 H 899.371 -5.83409 0.700568 0
M  V30 9245 H 900.895 -6.10297 -0.192249 0
M  V30 9246 H 902.309 -5.38639 1.96319 0
M  V30 9247 H 900.706 -5.3325 2.75254 0
M  V30 9248 H 901.776 -3.92238 2.85092 0
M  V30 9249 N 903.119 -0.802921 -1.35613 0
M  V30 9250 C 904.049 -0.225131 -2.32412 0
M  V30 9251 C 905.03 0.647383 -1.57299 0
M  V30 9252 O 906.215 0.578414 -1.85386 0
M  V30 9253 C 903.345 0.630085 -3.41537 0
M  V30 9254 C 902.299 -0.143635 -4.27759 0
M  V30 9255 C 901.625 0.833046 -5.28171 0
M  V30 9256 C 902.925 -1.34054 -5.04804 0
M  V30 9257 H 904.619 -1.03385 -2.80984 0
M  V30 9258 H 902.165 -0.498593 -1.35093 0
M  V30 9259 H 904.118 1.04433 -4.08254 0
M  V30 9260 H 902.842 1.47165 -2.91565 0
M  V30 9261 H 901.501 -0.539015 -3.62616 0
M  V30 9262 H 901.149 1.67001 -4.74468 0
M  V30 9263 H 900.849 0.319697 -5.8673 0
M  V30 9264 H 902.373 1.24558 -5.97761 0
M  V30 9265 H 903.787 -1.00136 -5.64487 0
M  V30 9266 H 902.184 -1.78812 -5.72841 0
M  V30 9267 H 903.254 -2.12906 -4.35659 0
M  V30 9268 N 904.597 1.47463 -0.556102 0
M  V30 9269 C 905.527 2.32801 0.180497 0
M  V30 9270 C 906.508 1.43721 0.909848 0
M  V30 9271 O 907.693 1.72578 0.89053 0
M  V30 9272 C 904.823 3.25478 1.21167 0
M  V30 9273 C 903.777 4.2379 0.598846 0
M  V30 9274 C 903.103 5.05783 1.73457 0
M  V30 9275 C 904.403 5.20387 -0.446659 0
M  V30 9276 H 906.097 2.94636 -0.531956 0
M  V30 9277 H 903.643 1.41683 -0.257267 0
M  V30 9278 H 905.596 3.8402 1.73513 0
M  V30 9279 H 904.32 2.61695 1.95405 0
M  V30 9280 H 902.979 3.66472 0.0966897 0
M  V30 9281 H 902.627 4.38405 2.46596 0
M  V30 9282 H 902.327 5.72343 1.33031 0
M  V30 9283 H 903.851 5.67183 2.26131 0
M  V30 9284 H 905.265 5.73299 -0.00930019 0
M  V30 9285 H 903.662 5.95143 -0.769735 0
M  V30 9286 H 904.732 4.65932 -1.34295 0
M  V30 9287 N 906.075 0.2925 1.54862 0
M  V30 9288 C 907.491 -0.0611461 1.59483 0
M  V30 9289 C 907.691 -1.53141 1.30958 0
M  V30 9290 O 906.747 -2.28291 1.07887 0
M  V30 9291 C 908.06 0.329143 2.98893 0
M  V30 9292 C 909.608 0.2772 3.1177 0
M  V30 9293 C 910.083 0.642185 4.53475 0
M  V30 9294 N 911.574 0.594396 4.5937 0
M  V30 9295 C 912.309 0.849385 5.67074 0
M  V30 9296 N 911.805 1.1699 6.82851 0
M  V30 9297 N 913.598 0.777016 5.56704 0
M  V30 9298 H 905.749 1.25079 1.71665 0
M  V30 9299 H 908.012 0.506516 0.80134 0
M  V30 9300 H 907.718 1.35233 3.24661 0
M  V30 9301 H 907.592 -0.321442 3.75828 0
M  V30 9302 H 909.979 -0.736725 2.85756 0
M  V30 9303 H 910.06 0.962289 2.3701 0
M  V30 9304 H 909.704 1.65388 4.80218 0
M  V30 9305 H 909.634 -0.0648831 5.2656 0
M  V30 9306 H 912.125 0.357256 3.76208 0
M  V30 9307 H 912.438 1.35067 7.60905 0
M  V30 9308 H 910.783 1.20785 6.84424 0
M  V30 9309 H 913.974 0.526333 4.65132 0
M  V30 9310 H 914.147 0.979113 6.4056 0
M  V30 9311 N 907.553 -1.57587 0.0200696 0
M  V30 9312 C 908.781 -1.95718 -0.670964 0
M  V30 9313 C 909.196 -0.896081 -1.6618 0
M  V30 9314 O 908.553 0.123037 -1.82085 0
M  V30 9315 C 908.604 -3.33904 -1.38529 0
M  V30 9316 O 908.325 -4.35943 -0.434167 0
M  V30 9317 C 909.826 -3.86614 -2.16898 0
M  V30 9318 H 907.046 -0.644819 -0.185606 0
M  V30 9319 H 909.59 -2.04354 0.0771495 0
M  V30 9320 H 907.745 -3.26515 -2.08487 0
M  V30 9321 H 908.159 -5.16001 -0.940378 0
M  V30 9322 H 909.633 -4.85673 -2.62346 0
M  V30 9323 H 910.11 -3.20379 -3.00423 0
M  V30 9324 H 910.716 -3.97243 -1.51916 0
M  V30 9325 N 909.032 0.252966 -1.55557 0
M  V30 9326 C 910.448 0.60118 -1.47844 0
M  V30 9327 C 910.648 1.88612 -0.709055 0
M  V30 9328 O 909.704 2.51395 -0.235964 0
M  V30 9329 C 911.017 0.709539 -2.92209 0
M  V30 9330 C 912.565 0.802269 -3.02544 0
M  V30 9331 C 913.04 0.94224 -4.48203 0
M  V30 9332 N 914.531 1.00726 -4.52116 0
M  V30 9333 C 915.266 1.13472 -5.6206 0
M  V30 9334 N 914.762 1.22811 -6.81828 0
M  V30 9335 N 916.555 1.1674 -5.49844 0
M  V30 9336 H 908.706 -0.590635 -2.04023 0
M  V30 9337 H 910.969 -0.202986 -0.926013 0
M  V30 9338 H 910.675 -0.164505 -3.51315 0
M  V30 9339 H 910.549 1.58343 -3.42356 0
M  V30 9340 H 912.936 1.66677 -2.43522 0
M  V30 9341 H 913.017 -0.0966469 -2.55617 0
M  V30 9342 H 912.661 0.0823209 -5.07833 0
M  V30 9343 H 912.591 1.85611 -4.92805 0
M  V30 9344 H 915.082 0.946684 -3.6585 0
M  V30 9345 H 915.395 1.32426 -7.61369 0
M  V30 9346 H 913.74 1.19779 -6.84601 0
M  V30 9347 H 916.931 1.09089 -4.55211 0
M  V30 9348 H 917.104 1.26329 -6.35567 0
M  V30 9349 N 910.51 1.48831 0.518367 0
M  V30 9350 C 911.921 1.50842 1.10016 0
M  V30 9351 C 912.272 0.284744 1.94123 0
M  V30 9352 O 911.397 -0.607088 2.0771 0
M  V30 9353 C 911.992 2.73329 2.00191 0
M  V30 9354 C 910.551 2.78175 2.53566 0
M  V30 9355 C 909.698 2.4452 1.30786 0
M  V30 9356 H 912.649 1.55779 0.303073 0
M  V30 9357 H 912.67 2.52506 2.84642 0
M  V30 9358 H 912.182 3.62374 1.3895 0
M  V30 9359 H 910.283 1.93368 3.18496 0
M  V30 9360 H 910.396 3.79905 2.91906 0
M  V30 9361 H 908.76 1.95924 1.62744 0
M  V30 9362 H 909.543 3.35819 0.712797 0
M  V30 9363 N 911.988 -0.768124 1.37614 0
M  V30 9364 C 913.234 -1.52907 1.33219 0
M  V30 9365 C 913.567 -1.94026 -0.0821218 0
M  V30 9366 O 912.842 -1.64345 -1.04023 0
M  V30 9367 C 913.125 -2.79164 2.27463 0
M  V30 9368 C 912.978 -2.44276 3.7769 0
M  V30 9369 C 914.297 -3.81115 2.20089 0
M  V30 9370 H 911.416 -0.554712 0.485246 0
M  V30 9371 H 914.058 -0.880911 1.68345 0
M  V30 9372 H 912.208 -3.34472 1.97639 0
M  V30 9373 H 913.88 -1.94855 4.18126 0
M  V30 9374 H 912.123 -1.76925 3.96081 0
M  V30 9375 H 912.794 -3.34544 4.39072 0
M  V30 9376 H 915.27 -3.35311 2.46386 0
M  V30 9377 H 914.146 -4.67174 2.88166 0
M  V30 9378 H 914.407 -4.25644 1.19498 0
M  V30 9379 N 913.466 -1.22244 -0.994698 0
M  V30 9380 C 914.396 -1.01513 -2.10279 0
M  V30 9381 C 915.377 0.0633365 -1.69982 0
M  V30 9382 O 916.562 -0.0985268 -1.9395 0
M  V30 9383 C 913.692 -0.59016 -3.42249 0
M  V30 9384 C 912.646 -1.61436 -3.96387 0
M  V30 9385 C 911.972 -1.04528 -5.24383 0
M  V30 9386 C 913.272 -3.00388 -4.27276 0
M  V30 9387 H 914.966 -1.94194 -2.2788 0
M  V30 9388 H 912.512 -0.935094 -1.09508 0
M  V30 9389 H 914.465 -0.432254 -4.19177 0
M  V30 9390 H 913.189 0.372308 -3.24471 0
M  V30 9391 H 911.848 -1.76001 -3.21589 0
M  V30 9392 H 911.496 -0.0742225 -5.02945 0
M  V30 9393 H 911.196 -1.72949 -5.61571 0
M  V30 9394 H 912.72 -0.898922 -6.03947 0
M  V30 9395 H 914.134 -2.89207 -4.95007 0
M  V30 9396 H 912.531 -3.65916 -4.75631 0
M  V30 9397 H 913.601 -3.50456 -3.35125 0
M  V30 9398 N 914.944 1.19125 -1.03184 0
M  V30 9399 C 916.19 1.89428 -0.740857 0
M  V30 9400 C 916.545 1.78302 0.72291 0
M  V30 9401 O 915.838 1.16656 1.51994 0
M  V30 9402 C 916.032 3.39052 -1.13041 0
M  V30 9403 C 915.861 3.64739 -2.6305 0
M  V30 9404 C 914.631 3.82603 -3.30066 0
M  V30 9405 C 916.829 3.66052 -3.61262 0
M  V30 9406 N 914.811 3.95947 -4.69147 0
M  V30 9407 C 916.182 3.85003 -4.85976 0
M  V30 9408 C 918.237 3.49093 -3.55019 0
M  V30 9409 C 916.94 3.88753 -6.05197 0
M  V30 9410 C 918.966 3.54122 -4.73658 0
M  V30 9411 C 918.328 3.73561 -5.97187 0
M  V30 9412 H 914.427 0.71217 -0.323014 0
M  V30 9413 H 917.011 1.43146 -1.31974 0
M  V30 9414 H 915.182 3.8405 -0.579699 0
M  V30 9415 H 916.914 3.96887 -0.791369 0
M  V30 9416 H 913.669 3.81615 -2.80476 0
M  V30 9417 H 914.093 4.06461 -5.41404 0
M  V30 9418 H 918.735 3.33018 -2.60497 0
M  V30 9419 H 916.453 4.03619 -7.00084 0
M  V30 9420 H 920.039 3.42286 -4.70459 0
M  V30 9421 H 918.919 3.7733 -6.87453 0
M  V30 9422 N 916.422 0.810101 1.35185 0
M  V30 9423 C 917.668 0.392698 1.98962 0
M  V30 9424 C 918.001 -1.03835 1.64109 0
M  V30 9425 O 917.276 -1.721 0.9062 0
M  V30 9426 C 917.559 0.580349 3.55393 0
M  V30 9427 C 917.412 2.05658 4.00031 0
M  V30 9428 C 918.731 0.00822618 4.40099 0
M  V30 9429 H 915.85 0.144157 0.722764 0
M  V30 9430 H 918.492 1.02029 1.60281 0
M  V30 9431 H 916.642 0.0461106 3.88473 0
M  V30 9432 H 918.314 2.65348 3.77344 0
M  V30 9433 H 916.557 2.55174 3.50811 0
M  V30 9434 H 917.228 2.13875 5.08883 0
M  V30 9435 H 919.704 0.464517 4.13499 0
M  V30 9436 H 918.58 0.169414 5.48638 0
M  V30 9437 H 918.841 -1.08576 4.2856 0
M  V30 9438 N 917.9 -1.47166 0.563914 0
M  V30 9439 C 919.148 -2.02056 0.0422873 0
M  V30 9440 C 919.469 -1.43992 -1.31497 0
M  V30 9441 O 918.739 -0.617578 -1.85911 0
M  V30 9442 H 917.319 -0.746893 0.0126427 0
M  V30 9443 H 919.981 -1.80492 0.735441 0
M  V30 9444 H 919.077 -3.12073 -0.0408044 0
M  V30 9445 N 919.378 -0.300708 -1.54705 0
M  V30 9446 C 920.624 0.309111 -2.0043 0
M  V30 9447 C 920.957 1.53562 -1.1888 0
M  V30 9448 O 920.232 1.92683 -0.265205 0
M  V30 9449 C 920.515 0.665995 -3.53888 0
M  V30 9450 C 920.368 -0.56963 -4.46178 0
M  V30 9451 C 921.687 1.49262 -4.14016 0
M  V30 9452 H 918.806 0.110878 -0.728612 0
M  V30 9453 H 921.448 -0.412748 -1.85463 0
M  V30 9454 H 919.598 1.281 -3.66773 0
M  V30 9455 H 921.27 -1.20811 -4.45199 0
M  V30 9456 H 919.513 -1.20292 -4.16788 0
M  V30 9457 H 920.184 -0.275785 -5.51311 0
M  V30 9458 H 922.66 0.972979 -4.04564 0
M  V30 9459 H 921.536 1.71111 -5.21548 0
M  V30 9460 H 921.797 2.48174 -3.65872 0
M  V30 9461 N 920.856 1.57574 -0.0284266 0
M  V30 9462 C 922.081 1.96479 0.664137 0
M  V30 9463 C 922.506 0.904826 1.64908 0
M  V30 9464 O 921.864 -0.134339 1.80802 0
M  V30 9465 C 921.912 3.34479 1.34745 0
M  V30 9466 O 921.016 3.30794 2.46271 0
M  V30 9467 H 920.357 0.640654 0.174524 0
M  V30 9468 H 922.887 2.04402 -0.0900729 0
M  V30 9469 H 922.897 3.70694 1.7044 0
M  V30 9470 H 921.572 4.1117 0.625468 0
M  V30 9471 H 920.149 3.06294 2.12693 0
M  V30 9472 N 922.334 -0.244713 1.55689 0
M  V30 9473 C 923.267 -1.32946 1.85474 0
M  V30 9474 C 924.245 -1.46279 0.710021 0
M  V30 9475 O 925.429 -1.62459 0.956004 0
M  V30 9476 C 922.556 -2.7027 2.04137 0
M  V30 9477 C 921.602 -2.74075 3.2678 0
M  V30 9478 S 922.435 -2.30465 4.8337 0
M  V30 9479 C 923.591 -3.69709 5.05041 0
M  V30 9480 H 923.824 -1.07482 2.77191 0
M  V30 9481 H 921.357 -0.445807 1.47824 0
M  V30 9482 H 923.315 -3.4934 2.15574 0
M  V30 9483 H 921.976 -2.9297 1.13259 0
M  V30 9484 H 921.169 -3.74932 3.36812 0
M  V30 9485 H 920.771 -2.03051 3.1408 0
M  V30 9486 H 923.063 -4.65222 4.92518 0
M  V30 9487 H 924.006 -3.6461 6.07014 0
M  V30 9488 H 924.414 -3.62323 4.32877 0
M  V30 9489 N 923.813 -1.49104 -0.510467 0
M  V30 9490 C 924.745 -1.61183 -1.6295 0
M  V30 9491 C 925.758 -0.495003 -1.55092 0
M  V30 9492 O 926.947 -0.766671 -1.61197 0
M  V30 9493 C 924.047 -1.54373 -3.01699 0
M  V30 9494 C 923.22 -2.81428 -3.34838 0
M  V30 9495 C 922.279 -2.67802 -4.52956 0
M  V30 9496 O 921.305 -3.41723 -4.55208 0
M  V30 9497 N 922.507 -1.78715 -5.52305 0
M  V30 9498 H 925.272 -2.57693 -1.53018 0
M  V30 9499 H 922.833 -1.46073 -0.698152 0
M  V30 9500 H 924.825 -1.42924 -3.78622 0
M  V30 9501 H 923.395 -0.657597 -3.05605 0
M  V30 9502 H 922.615 -3.07299 -2.46903 0
M  V30 9503 H 923.903 -3.6568 -3.53773 0
M  V30 9504 H 923.301 -1.17897 -5.53278 0
M  V30 9505 H 921.858 -1.73194 -6.28369 0
M  V30 9506 N 925.291 0.760815 -1.38019 0
M  V30 9507 C 926.538 1.51973 -1.3383 0
M  V30 9508 C 926.866 1.9436 0.0738855 0
M  V30 9509 O 926.121 1.65181 1.04946 0
M  V30 9510 C 926.42 2.79024 -2.23339 0
M  V30 9511 C 926.086 2.55636 -3.71431 0
M  V30 9512 C 924.748 2.48966 -4.11788 0
M  V30 9513 C 927.1 2.35018 -4.65205 0
M  V30 9514 C 924.428 2.19684 -5.44018 0
M  V30 9515 C 926.78 2.07258 -5.97685 0
M  V30 9516 C 925.444 1.9904 -6.37134 0
M  V30 9517 H 924.714 0.556108 -0.489719 0
M  V30 9518 H 927.361 0.87545 -1.70318 0
M  V30 9519 H 925.666 3.48065 -1.79883 0
M  V30 9520 H 927.363 3.36951 -2.17405 0
M  V30 9521 H 923.953 2.61695 -3.39432 0
M  V30 9522 H 928.137 2.39154 -4.34878 0
M  V30 9523 H 923.393 2.11825 -5.73533 0
M  V30 9524 H 927.567 1.90307 -6.69893 0
M  V30 9525 H 925.194 1.76115 -7.39519 0
M  V30 9526 N 926.769 1.22769 0.988202 0
M  V30 9527 C 928.018 1.0492 1.72263 0
M  V30 9528 C 928.331 -0.415282 1.91141 0
M  V30 9529 O 929.537 -0.713547 2.61956 0
M  V30 9530 C 927.993 1.82891 3.09966 0
M  V30 9531 C 927.601 3.33618 2.99003 0
M  V30 9532 C 929.345 1.73505 3.87423 0
M  V30 9533 C 927.252 4.04012 4.3189 0
M  V30 9534 H 926.182 0.38899 0.645912 0
M  V30 9535 H 928.833 1.46664 1.10281 0
M  V30 9536 H 927.215 1.33948 3.72658 0
M  V30 9537 H 928.389 3.8999 2.45448 0
M  V30 9538 H 926.704 3.43732 2.35027 0
M  V30 9539 H 929.301 2.23416 4.85787 0
M  V30 9540 H 929.644 0.696344 4.10435 0
M  V30 9541 H 930.177 2.20016 3.31418 0
M  V30 9542 H 926.916 5.08155 4.14075 0
M  V30 9543 H 926.436 3.52428 4.8534 0
M  V30 9544 H 928.115 4.0987 5.00615 0
M  V30 9545 N 928.247 -1.18576 1.03814 0
M  V30 9546 C 929.658 -1.70159 0.768299 0
M  V30 9547 C 930.009 -1.8286 -0.711106 0
M  V30 9548 O 929.134 -1.5063 -1.55369 0
M  V30 9549 C 929.729 -3.09062 1.38804 0
M  V30 9550 C 928.288 -3.57866 1.16656 0
M  V30 9551 C 927.435 -2.34484 1.48029 0
M  V30 9552 H 930.386 -1.03287 1.20488 0
M  V30 9553 H 930.407 -3.72211 0.7899 0
M  V30 9554 H 929.919 -2.99785 2.46476 0
M  V30 9555 H 928.02 -3.72442 0.108471 0
M  V30 9556 H 928.133 -4.41445 1.8618 0
M  V30 9557 H 926.497 -2.38273 0.899902 0
M  V30 9558 H 927.28 -2.27829 2.56805 0
M  V30 9559 N 929.725 -0.817259 -1.34754 0
M  V30 9560 C 930.688 -0.240611 -2.27934 0
M  V30 9561 C 931.688 0.578219 -1.50044 0
M  V30 9562 O 932.878 0.395148 -1.69659 0
M  V30 9563 C 930.01 0.663318 -3.34384 0
M  V30 9564 H 931.203 -1.06257 -2.80445 0
M  V30 9565 H 928.756 -0.588697 -1.4479 0
M  V30 9566 H 929.491 1.50855 -2.87077 0
M  V30 9567 H 929.276 0.0777388 -3.92023 0
M  V30 9568 H 930.766 1.06076 -4.03903 0
M  V30 9569 N 931.203 1.46865 -0.571711 0
M  V30 9570 C 932.113 2.33979 0.170571 0
M  V30 9571 C 933.129 1.49083 0.897239 0
M  V30 9572 O 934.305 1.81979 0.862888 0
M  V30 9573 C 931.37 3.26063 1.17831 0
M  V30 9574 C 930.431 4.26855 0.457499 0
M  V30 9575 C 929.664 5.14539 1.41722 0
M  V30 9576 O 929.887 5.04945 2.65305 0
M  V30 9577 O 928.821 5.94612 0.9338 0
M  V30 9578 H 932.647 2.98781 -0.544396 0
M  V30 9579 H 930.232 1.4566 -0.332198 0
M  V30 9580 H 932.114 3.82903 1.75965 0
M  V30 9581 H 930.789 2.63871 1.87493 0
M  V30 9582 H 929.696 3.73734 -0.165406 0
M  V30 9583 H 931.029 4.91802 -0.197953 0
M  V30 9584 N 932.681 0.308908 1.54543 0
M  V30 9585 C 933.93 -0.298854 1.99474 0
M  V30 9586 C 934.243 -1.54393 1.20093 0
M  V30 9587 O 935.449 -2.22677 1.55329 0
M  V30 9588 C 933.905 -0.58303 3.55146 0
M  V30 9589 C 933.513 0.644157 4.43345 0
M  V30 9590 C 935.257 -1.15155 4.08582 0
M  V30 9591 C 933.164 0.332694 5.90463 0
M  V30 9592 H 932.094 -0.115445 0.74511 0
M  V30 9593 H 934.745 0.418848 1.78656 0
M  V30 9594 H 933.127 -1.36053 3.71894 0
M  V30 9595 H 934.301 1.42012 4.38371 0
M  V30 9596 H 932.616 1.13186 4.00722 0
M  V30 9597 H 935.213 -1.39896 5.16075 0
M  V30 9598 H 935.556 -2.09632 3.59667 0
M  V30 9599 H 936.089 -0.435571 3.95408 0
M  V30 9600 H 932.828 1.24624 6.43544 0
M  V30 9601 H 932.348 -0.405844 5.98425 0
M  V30 9602 H 934.027 -0.0628545 6.46969 0
M  V30 9603 N 934.159 -1.57557 0.0367827 0
M  V30 9604 C 935.57 -1.79853 -0.500971 0
M  V30 9605 C 935.921 -0.947749 -1.71791 0
M  V30 9606 O 935.046 -0.160287 -2.15806 0
M  V30 9607 C 935.641 -3.26193 -0.915626 0
M  V30 9608 C 934.2 -3.49457 -1.39845 0
M  V30 9609 C 933.347 -2.74864 -0.366784 0
M  V30 9610 H 936.298 -1.56509 0.262768 0
M  V30 9611 H 936.319 -3.36324 -1.7795 0
M  V30 9612 H 935.831 -3.88089 -0.0297227 0
M  V30 9613 H 933.932 -2.92823 -2.30402 0
M  V30 9614 H 934.045 -4.58172 -1.40054 0
M  V30 9615 H 932.409 -2.4057 -0.836554 0
M  V30 9616 H 933.192 -3.39479 0.510785 0
M  V30 9617 N 935.637 0.236453 -1.55816 0
M  V30 9618 C 937.053 0.585465 -1.48474 0
M  V30 9619 C 937.253 1.8785 -0.72902 0
M  V30 9620 O 936.309 2.51131 -0.262614 0
M  V30 9621 C 937.622 0.678506 -2.92945 0
M  V30 9622 C 939.17 0.770135 -3.03378 0
M  V30 9623 C 939.645 0.894649 -4.49177 0
M  V30 9624 N 941.136 0.959253 -4.53158 0
M  V30 9625 C 941.871 1.07505 -5.63232 0
M  V30 9626 N 941.367 1.15572 -6.83092 0
M  V30 9627 N 943.16 1.10902 -5.51051 0
M  V30 9628 H 935.311 -0.612241 -2.03385 0
M  V30 9629 H 937.574 -0.212796 -0.923808 0
M  V30 9630 H 937.28 -0.201757 -3.51121 0
M  V30 9631 H 937.154 1.54703 -3.44016 0
M  V30 9632 H 939.541 1.64085 -2.45276 0
M  V30 9633 H 939.622 -0.123753 -2.555 0
M  V30 9634 H 939.266 0.0284537 -5.07892 0
M  V30 9635 H 939.196 1.80373 -4.94745 0
M  V30 9636 H 941.687 0.907827 -3.66834 0
M  V30 9637 H 942 1.24343 -7.62731 0
M  V30 9638 H 940.345 1.12511 -6.85833 0
M  V30 9639 H 943.536 1.04255 -4.56343 0
M  V30 9640 H 943.709 1.19581 -6.36871 0
M  V30 9641 N 937.115 1.49373 0.502552 0
M  V30 9642 C 938.34 1.62752 1.28556 0
M  V30 9643 C 938.765 0.298285 1.8572 0
M  V30 9644 O 938.123 -0.733885 1.65782 0
M  V30 9645 C 938.171 2.69778 2.39274 0
M  V30 9646 O 937.275 2.28843 3.43081 0
M  V30 9647 H 936.616 0.544799 0.379592 0
M  V30 9648 H 939.146 1.9555 0.601792 0
M  V30 9649 H 939.156 2.91899 2.8506 0
M  V30 9650 H 937.831 3.66266 1.97033 0
M  V30 9651 H 936.408 2.17047 3.03224 0
M  V30 9652 N 938.594 -0.753485 1.38421 0
M  V30 9653 C 939.557 -1.84888 1.35459 0
M  V30 9654 C 940.557 -1.58764 0.255083 0
M  V30 9655 O 941.747 -1.66507 0.511978 0
M  V30 9656 C 938.879 -3.22361 1.10888 0
M  V30 9657 H 940.072 -1.88922 2.32913 0
M  V30 9658 H 937.625 -0.955199 1.23716 0
M  V30 9659 H 938.36 -3.23996 0.1404 0
M  V30 9660 H 938.145 -3.42717 1.90492 0
M  V30 9661 H 939.635 -4.02437 1.1151 0
M  V30 9662 N 940.072 -1.23292 -0.981677 0
M  V30 9663 C 941.319 -1.06424 -1.72279 0
M  V30 9664 C 941.647 0.399055 -1.90362 0
M  V30 9665 O 940.902 1.31181 -1.45224 0
M  V30 9666 C 941.201 -1.73339 -3.12551 0
M  V30 9667 C 940.867 -3.23256 -3.14351 0
M  V30 9668 C 939.529 -3.64159 -3.14549 0
M  V30 9669 C 941.881 -4.1916 -3.09765 0
M  V30 9670 C 939.209 -4.99428 -3.07877 0
M  V30 9671 C 941.561 -5.54419 -3.04635 0
M  V30 9672 C 940.225 -5.94688 -3.03154 0
M  V30 9673 H 939.495 -0.389434 -0.630415 0
M  V30 9674 H 942.142 -1.53208 -1.1489 0
M  V30 9675 H 940.447 -1.18911 -3.73319 0
M  V30 9676 H 942.144 -1.57767 -3.68661 0
M  V30 9677 H 938.734 -2.90693 -3.14953 0
M  V30 9678 H 942.918 -3.88569 -3.08753 0
M  V30 9679 H 938.174 -5.29844 -3.05083 0
M  V30 9680 H 942.348 -6.28448 -3.00043 0
M  V30 9681 H 939.975 -6.99468 -2.97739 0
M  V30 9682 N 941.55 1.18024 -1.04442 0
M  V30 9683 C 942.46 2.25436 -0.649276 0
M  V30 9684 C 943.476 1.70915 0.326189 0
M  V30 9685 O 944.652 2.00592 0.180174 0
M  V30 9686 C 941.717 3.46693 -0.0222558 0
M  V30 9687 C 940.778 4.16332 -1.0472 0
M  V30 9688 C 940.011 5.31799 -0.450011 0
M  V30 9689 O 940.234 5.65544 0.742717 0
M  V30 9690 O 939.168 5.90209 -1.18056 0
M  V30 9691 H 942.994 2.61508 -1.54426 0
M  V30 9692 H 940.579 1.25178 -0.81552 0
M  V30 9693 H 942.461 4.20132 0.326597 0
M  V30 9694 H 941.136 3.12436 0.84649 0
M  V30 9695 H 940.043 3.44944 -1.44792 0
M  V30 9696 H 941.376 4.54598 -1.88684 0
M  V30 9697 N 943.028 0.824394 1.34319 0
M  V30 9698 C 944.268 0.419044 2.00058 0
M  V30 9699 C 944.632 -0.999504 1.63933 0
M  V30 9700 O 945.833 -1.50781 2.22527 0
M  V30 9701 C 944.104 0.616897 3.52036 0
M  V30 9702 S 945.663 0.304614 4.37741 0
M  V30 9703 H 942.481 0.158265 0.693162 0
M  V30 9704 H 945.083 1.07053 1.63585 0
M  V30 9705 H 943.787 1.64896 3.75816 0
M  V30 9706 H 943.318 -0.0492693 3.93369 0
M  V30 9707 H 945.333 -0.88114 4.88314 0
M  V30 9708 N 944.506 -1.46559 0.579492 0
M  V30 9709 C 945.922 -1.57771 0.240921 0
M  V30 9710 C 946.122 -1.57505 -1.25676 0
M  V30 9711 O 945.178 -1.4903 -2.03829 0
M  V30 9712 C 946.491 -2.87311 0.887285 0
M  V30 9713 C 948.039 -3.00937 0.860576 0
M  V30 9714 C 948.514 -4.33208 1.48642 0
M  V30 9715 N 950.005 -4.39899 1.45062 0
M  V30 9716 C 950.74 -5.40856 1.90428 0
M  V30 9717 N 950.236 -6.48503 2.43752 0
M  V30 9718 N 952.029 -5.32037 1.81364 0
M  V30 9719 H 944.18 -1.44976 1.55228 0
M  V30 9720 H 946.443 -0.691354 0.648639 0
M  V30 9721 H 946.149 -2.93307 1.94071 0
M  V30 9722 H 946.023 -3.75141 0.393577 0
M  V30 9723 H 948.41 -2.94524 -0.184223 0
M  V30 9724 H 948.491 -2.14591 1.39227 0
M  V30 9725 H 948.135 -4.40378 2.5304 0
M  V30 9726 H 948.065 -5.18323 0.92998 0
M  V30 9727 H 950.556 -3.62706 1.0608 0
M  V30 9728 H 950.869 -7.21744 2.76234 0
M  V30 9729 H 949.214 -6.49332 2.47776 0
M  V30 9730 H 952.405 -4.46841 1.39465 0
M  V30 9731 H 952.578 -6.10573 2.17035 0
M  V30 9732 N 945.984 -0.3171 -1.54377 0
M  V30 9733 C 946.894 0.560867 -2.27797 0
M  V30 9734 C 947.91 1.13473 -1.31908 0
M  V30 9735 O 949.086 1.15608 -1.64914 0
M  V30 9736 C 946.151 1.70886 -3.0166 0
M  V30 9737 C 945.212 1.16745 -4.13121 0
M  V30 9738 C 944.445 2.26073 -4.83453 0
M  V30 9739 O 944.668 3.46292 -4.53252 0
M  V30 9740 O 943.602 1.91856 -5.70504 0
M  V30 9741 H 947.428 -0.035193 -3.0368 0
M  V30 9742 H 945.013 -0.0830062 -1.49169 0
M  V30 9743 H 946.895 2.37736 -3.47936 0
M  V30 9744 H 945.57 2.29122 -2.28658 0
M  V30 9745 H 944.477 0.464224 -3.71209 0
M  V30 9746 H 945.81 0.630307 -4.88147 0
M  V30 9747 N 947.462 1.57535 -0.0451378 0
M  V30 9748 C 948.394 2.08109 0.960372 0
M  V30 9749 C 949.407 1.0077 1.27864 0
M  V30 9750 O 950.596 1.28351 1.24049 0
M  V30 9751 C 947.696 2.50414 2.28355 0
M  V30 9752 C 946.869 3.8102 2.14808 0
M  V30 9753 C 945.928 4.09702 3.30198 0
M  V30 9754 O 944.954 4.79715 3.0637 0
M  V30 9755 N 946.156 3.61138 4.54489 0
M  V30 9756 H 948.921 2.94999 0.528752 0
M  V30 9757 H 946.482 1.61283 0.141248 0
M  V30 9758 H 948.474 2.66683 3.04405 0
M  V30 9759 H 947.044 1.68805 2.63104 0
M  V30 9760 H 946.264 3.74392 1.23387 0
M  V30 9761 H 947.552 4.66559 2.02978 0
M  V30 9762 H 946.95 3.04527 4.76739 0
M  V30 9763 H 945.507 3.82656 5.27653 0
M  V30 9764 N 948.94 -0.228186 1.55939 0
M  V30 9765 C 950.186 -0.954964 1.78909 0
M  V30 9766 C 950.519 -1.8425 0.613648 0
M  V30 9767 O 949.794 -1.90604 -0.38737 0
M  V30 9768 C 950.077 -1.79957 3.1191 0
M  V30 9769 C 949.93 -0.938968 4.3989 0
M  V30 9770 C 951.249 -2.77859 3.41295 0
M  V30 9771 H 948.368 -0.345745 0.650868 0
M  V30 9772 H 951.01 -0.224244 1.88672 0
M  V30 9773 H 949.16 -2.42256 3.03717 0
M  V30 9774 H 950.832 -0.333225 4.60095 0
M  V30 9775 H 949.075 -0.244096 4.33113 0
M  V30 9776 H 949.746 -1.56416 5.29375 0
M  V30 9777 H 952.222 -2.25695 3.49572 0
M  V30 9778 H 951.098 -3.34062 4.35538 0
M  V30 9779 H 951.359 -3.55266 2.63132 0
M  V30 9780 N 950.418 -1.49637 -0.494624 0
M  V30 9781 C 951.664 -1.59681 -1.25019 0
M  V30 9782 C 951.997 -0.285511 -1.9209 0
M  V30 9783 O 951.272 0.711398 -1.81023 0
M  V30 9784 C 951.555 -2.76058 -2.31222 0
M  V30 9785 C 951.408 -4.17002 -1.68611 0
M  V30 9786 C 952.727 -2.88056 -3.32734 0
M  V30 9787 H 949.846 -0.581209 -0.453172 0
M  V30 9788 H 952.488 -1.81944 -0.547391 0
M  V30 9789 H 950.638 -2.57207 -2.91164 0
M  V30 9790 H 952.31 -4.47385 -1.12447 0
M  V30 9791 H 950.553 -4.22352 -0.989991 0
M  V30 9792 H 951.224 -4.94316 -2.45674 0
M  V30 9793 H 953.7 -3.05237 -2.82789 0
M  V30 9794 H 952.576 -3.71151 -4.04399 0
M  V30 9795 H 952.837 -1.97676 -3.95445 0
M  V30 9796 N 951.896 0.746133 -1.38819 0
M  V30 9797 C 953.121 1.54049 -1.38866 0
M  V30 9798 C 953.546 1.88092 0.0176624 0
M  V30 9799 O 952.904 1.51113 1.00173 0
M  V30 9800 C 952.952 2.8116 -2.25791 0
M  V30 9801 O 952.056 3.76623 -1.68014 0
M  V30 9802 H 951.397 0.465648 -0.473359 0
M  V30 9803 H 953.927 0.921469 -1.82675 0
M  V30 9804 H 953.937 3.30009 -2.39913 0
M  V30 9805 H 952.612 2.55713 -3.27999 0
M  V30 9806 H 951.189 3.35352 -1.63074 0
M  V30 9807 N 953.375 1.23811 0.975125 0
M  V30 9808 C 954.285 1.0408 2.10249 0
M  V30 9809 C 955.301 -0.0162404 1.73992 0
M  V30 9810 O 956.477 0.180346 2.00591 0
M  V30 9811 C 953.542 0.640013 3.40741 0
M  V30 9812 C 952.603 1.7727 3.90991 0
M  V30 9813 C 951.836 1.39094 5.15256 0
M  V30 9814 O 952.059 0.277483 5.69725 0
M  V30 9815 O 950.993 2.21392 5.59704 0
M  V30 9816 H 954.819 1.98575 2.29786 0
M  V30 9817 H 952.404 1.02563 1.08633 0
M  V30 9818 H 954.286 0.427684 4.19224 0
M  V30 9819 H 952.961 -0.27589 3.22522 0
M  V30 9820 H 951.868 2.03971 3.13602 0
M  V30 9821 H 953.201 2.66711 4.13674 0
M  V30 9822 N 954.853 -1.17469 1.05066 0
M  V30 9823 C 955.785 -2.20974 0.608526 0
M  V30 9824 C 956.798 -1.59481 -0.327066 0
M  V30 9825 O 957.987 -1.78096 -0.12 0
M  V30 9826 C 955.087 -3.38652 -0.12969 0
M  V30 9827 C 954.26 -4.29716 0.816285 0
M  V30 9828 C 953.319 -5.26064 0.119556 0
M  V30 9829 O 952.345 -5.64194 0.753241 0
M  V30 9830 N 953.547 -5.69126 -1.14347 0
M  V30 9831 H 956.312 -2.59529 1.49882 0
M  V30 9832 H 953.873 -1.32355 0.932406 0
M  V30 9833 H 955.865 -4.00139 -0.605886 0
M  V30 9834 H 954.435 -2.98705 -0.921638 0
M  V30 9835 H 953.655 -3.6568 1.47213 0
M  V30 9836 H 954.943 -4.87449 1.45845 0
M  V30 9837 H 954.341 -5.4022 -1.67866 0
M  V30 9838 H 952.898 -6.32764 -1.56376 0
M  V30 9839 N 956.331 -0.831506 -1.3388 0
M  V30 9840 C 957.559 -0.436925 -2.02234 0
M  V30 9841 C 957.974 0.959689 -1.6259 0
M  V30 9842 O 957.331 1.62248 -0.835576 0
M  V30 9843 C 957.382 -0.539429 -3.57453 0
M  V30 9844 O 957.103 -1.88101 -3.95664 0
M  V30 9845 C 958.604 -0.140852 -4.43076 0
M  V30 9846 H 955.824 -0.174302 -0.647966 0
M  V30 9847 H 958.368 -1.12204 -1.70969 0
M  V30 9848 H 956.523 0.0976959 -3.87277 0
M  V30 9849 H 956.937 -1.86131 -4.90363 0
M  V30 9850 H 958.411 -0.26364 -5.5137 0
M  V30 9851 H 958.888 0.916505 -4.29531 0
M  V30 9852 H 959.494 -0.752117 -4.18597 0
M  V30 9853 N 957.809 1.4625 -0.587256 0
M  V30 9854 C 958.739 2.33132 0.131076 0
M  V30 9855 C 959.72 1.45619 0.879158 0
M  V30 9856 O 960.905 1.74428 0.853723 0
M  V30 9857 C 958.035 3.27975 1.14236 0
M  V30 9858 C 956.989 4.24965 0.508819 0
M  V30 9859 C 956.315 5.09349 1.62689 0
M  V30 9860 C 957.615 5.19322 -0.55694 0
M  V30 9861 H 959.309 2.93442 -0.594333 0
M  V30 9862 H 956.855 1.41106 -0.287263 0
M  V30 9863 H 958.808 3.87614 1.65328 0
M  V30 9864 H 957.532 2.65781 1.8981 0
M  V30 9865 H 956.191 3.66595 0.0189337 0
M  V30 9866 H 955.839 4.43537 2.37242 0
M  V30 9867 H 955.539 5.75036 1.20861 0
M  V30 9868 H 957.063 5.71852 2.14049 0
M  V30 9869 H 958.477 5.73151 -0.130903 0
M  V30 9870 H 956.874 5.93376 -0.895801 0
M  V30 9871 H 957.944 4.62979 -1.44148 0
M  V30 9872 N 959.287 0.325282 1.54207 0
M  V30 9873 C 960.533 -0.277185 2.00897 0
M  V30 9874 C 960.866 -1.51651 1.21308 0
M  V30 9875 O 960.141 -1.92237 0.295825 0
M  V30 9876 C 960.424 -0.60961 3.54902 0
M  V30 9877 C 960.277 0.640542 4.45216 0
M  V30 9878 C 961.596 -1.42656 4.16338 0
M  V30 9879 H 958.715 -0.0992722 0.730284 0
M  V30 9880 H 961.357 0.442201 1.84783 0
M  V30 9881 H 959.507 -1.22249 3.68765 0
M  V30 9882 H 961.179 1.27878 4.43221 0
M  V30 9883 H 959.422 1.26908 4.14821 0
M  V30 9884 H 960.093 0.363459 5.50802 0
M  V30 9885 H 962.569 -0.908494 4.06061 0
M  V30 9886 H 961.445 -1.62792 5.24204 0
M  V30 9887 H 961.706 -2.42321 3.69774 0
M  V30 9888 N 960.765 -1.57509 0.0534917 0
M  V30 9889 C 961.697 -2.08616 -0.949322 0
M  V30 9890 C 962.71 -1.01446 -1.27328 0
M  V30 9891 O 963.899 -1.29007 -1.23367 0
M  V30 9892 C 960.999 -2.51622 -2.27024 0
M  V30 9893 C 960.172 -3.82154 -2.12785 0
M  V30 9894 C 959.231 -4.11448 -3.2802 0
M  V30 9895 O 958.257 -4.81333 -3.03822 0
M  V30 9896 N 959.459 -3.63543 -4.52567 0
M  V30 9897 H 962.224 -2.95275 -0.5131 0
M  V30 9898 H 959.785 -1.61355 -0.132693 0
M  V30 9899 H 961.777 -2.68293 -3.02986 0
M  V30 9900 H 960.347 -1.70198 -2.62205 0
M  V30 9901 H 959.567 -3.75041 -1.21399 0
M  V30 9902 H 960.855 -4.67629 -2.00501 0
M  V30 9903 H 960.253 -3.07051 -4.75117 0
M  V30 9904 H 958.81 -3.85448 -5.25617 0
M  V30 9905 N 962.243 0.219913 -1.56058 0
M  V30 9906 C 963.468 0.965073 -1.83579 0
M  V30 9907 C 963.893 1.77092 -0.634024 0
M  V30 9908 O 963.251 1.76434 0.417205 0
M  V30 9909 C 963.299 1.85705 -3.09105 0
M  V30 9910 O 962.403 2.95261 -2.87914 0
M  V30 9911 H 961.744 0.273173 -0.605204 0
M  V30 9912 H 964.274 0.23273 -2.03272 0
M  V30 9913 H 964.284 2.26655 -3.39252 0
M  V30 9914 H 962.959 1.26476 -3.96203 0
M  V30 9915 H 961.536 2.58246 -2.69005 0
M  V30 9916 N 963.721 1.49897 0.486681 0
M  V30 9917 C 964.669 1.68125 1.60738 0
M  V30 9918 C 965.663 0.547097 1.60322 0
M  V30 9919 O 966.869 0.727153 1.64659 0
M  V30 9920 H 963.244 0.530391 0.533094 0
M  V30 9921 H 965.215 2.62165 1.42521 0
M  V30 9922 C 963.964 1.77827 2.98786 0
M  V30 9923 H 963.287 2.6448 2.99818 0
M  V30 9924 H 964.727 1.94611 3.76699 0
M  V30 9925 C 963.186 0.526287 3.32764 0
M  V30 9926 O 963.716 -0.341607 4.00245 0
M  V30 9927 N 961.922 0.384947 2.88039 0
M  V30 9928 H 961.469 1.09222 2.33299 0
M  V30 9929 H 961.427 -0.451618 3.11139 0
M  V30 9930 N 965.199 -0.738761 1.39212 0
M  V30 9931 C 966.448 -1.49368 1.35543 0
M  V30 9932 C 966.761 -1.95543 -0.0471091 0
M  V30 9933 O 967.967 -2.70714 -0.206376 0
M  V30 9934 C 966.423 -2.69882 2.381 0
M  V30 9935 C 966.031 -2.30672 3.8405 0
M  V30 9936 C 967.775 -3.47718 2.435 0
M  V30 9937 C 965.682 -3.47886 4.78256 0
M  V30 9938 H 964.612 -0.560898 0.503894 0
M  V30 9939 H 967.263 -0.806221 1.6484 0
M  V30 9940 H 965.645 -3.40684 2.01867 0
M  V30 9941 H 966.819 -1.67441 4.29302 0
M  V30 9942 H 965.134 -1.65936 3.81909 0
M  V30 9943 H 967.731 -4.34897 3.11077 0
M  V30 9944 H 968.074 -3.89919 1.45838 0
M  V30 9945 H 968.607 -2.83942 2.78606 0
M  V30 9946 H 965.346 -3.10739 5.77167 0
M  V30 9947 H 964.866 -4.10111 4.37686 0
M  V30 9948 H 966.545 -4.14271 4.96979 0
M  V30 9949 N 966.677 -1.24326 -0.968545 0
M  V30 9950 C 967.917 -1.09434 -1.72637 0
M  V30 9951 C 968.281 0.360781 -1.8858 0
M  V30 9952 O 969.482 0.631188 -2.61284 0
M  V30 9953 C 967.753 -1.81285 -3.08011 0
M  V30 9954 S 969.312 -1.82113 -3.99225 0
M  V30 9955 H 966.13 -0.391409 -0.593565 0
M  V30 9956 H 968.732 -1.57643 -1.15624 0
M  V30 9957 H 967.436 -2.86274 -2.94067 0
M  V30 9958 H 966.967 -1.33405 -3.7009 0
M  V30 9959 H 968.982 -0.888196 -4.88186 0
M  V30 9960 N 968.156 1.1691 -1.05688 0
M  V30 9961 C 969.086 2.23275 -0.683402 0
M  V30 9962 C 970.067 1.6704 0.321206 0
M  V30 9963 O 971.252 1.93191 0.197691 0
M  V30 9964 C 968.382 3.47244 -0.0626006 0
M  V30 9965 C 967.336 4.16333 -0.992513 0
M  V30 9966 C 966.662 5.34182 -0.23533 0
M  V30 9967 C 967.962 4.68002 -2.31886 0
M  V30 9968 H 969.656 2.54771 -1.57264 0
M  V30 9969 H 967.202 1.2246 -0.757606 0
M  V30 9970 H 969.155 4.20874 0.210503 0
M  V30 9971 H 967.879 3.1503 0.861616 0
M  V30 9972 H 966.538 3.44622 -1.25026 0
M  V30 9973 H 966.186 4.9822 0.69181 0
M  V30 9974 H 965.886 5.81346 -0.855002 0
M  V30 9975 H 967.41 6.10592 0.0303717 0
M  V30 9976 H 968.824 5.33244 -2.10531 0
M  V30 9977 H 967.221 5.25764 -2.89296 0
M  V30 9978 H 968.291 3.84541 -2.95391 0
M  V30 9979 N 969.634 0.838594 1.33437 0
M  V30 9980 C 970.864 0.446995 2.01707 0
M  V30 9981 C 971.272 -0.956335 1.63251 0
M  V30 9982 O 970.615 -1.63289 0.841566 0
M  V30 9983 C 970.677 0.487707 3.56176 0
M  V30 9984 C 970.341 1.8471 4.18009 0
M  V30 9985 C 971.338 2.81028 4.374 0
M  V30 9986 C 969.023 2.13987 4.54439 0
M  V30 9987 C 971.017 4.04785 4.92369 0
M  V30 9988 C 968.704 3.38 5.09116 0
M  V30 9989 C 969.702 4.33216 5.28027 0
M  V30 9990 O 969.39 5.55036 5.81541 0
M  V30 9991 H 969.122 0.175799 0.652741 0
M  V30 9992 H 971.676 1.13265 1.71348 0
M  V30 9993 H 969.906 -0.254719 3.8586 0
M  V30 9994 H 971.595 0.113971 4.0574 0
M  V30 9995 H 972.361 2.5971 4.09604 0
M  V30 9996 H 968.24 1.40668 4.39014 0
M  V30 9997 H 971.784 4.79114 5.07046 0
M  V30 9998 H 967.681 3.59175 5.36343 0
M  V30 9999 H 968.449 5.56772 5.99956 0
M  V30 10000 N 971.112 -1.45937 0.595003 0
M  V30 10001 C 972.361 -2.01529 0.0829531 0
M  V30 10002 C 972.674 -1.47071 -1.28955 0
M  V30 10003 O 973.88 -1.94561 -1.89363 0
M  V30 10004 C 972.336 -3.59767 0.0976597 0
M  V30 10005 C 971.944 -4.23223 1.46924 0
M  V30 10006 C 973.688 -4.22972 -0.359805 0
M  V30 10007 C 971.595 -5.73576 1.44101 0
M  V30 10008 H 970.525 -0.753508 0.0272425 0
M  V30 10009 H 973.176 -1.67541 0.748473 0
M  V30 10010 H 971.558 -3.90888 -0.634268 0
M  V30 10011 H 972.732 -4.03695 2.22187 0
M  V30 10012 H 971.047 -3.72161 1.86775 0
M  V30 10013 H 973.644 -5.33202 -0.39991 0
M  V30 10014 H 973.987 -3.92765 -1.37991 0
M  V30 10015 H 974.52 -3.96523 0.31845 0
M  V30 10016 H 971.259 -6.08462 2.43831 0
M  V30 10017 H 970.779 -5.95332 0.730767 0
M  V30 10018 H 972.458 -6.36531 1.1592 0
M  V30 10019 N 972.59 -0.333456 -1.54032 0
M  V30 10020 C 973.867 0.320902 -1.9295 0
M  V30 10021 C 974.247 1.69071 -1.26405 0
M  V30 10022 O 973.595 2.24768 -0.411311 0
M  V30 10023 C 973.805 0.403257 -3.46662 0
M  V30 10024 C 975.153 0.658875 -4.19457 0
M  V30 10025 O 976.177 0.485781 -3.52872 0
M  V30 10026 O 975.036 0.993475 -5.37394 0
M  V30 10027 H 972.13 0.185158 -0.806006 0
M  V30 10028 H 974.676 -0.383895 -1.65301 0
M  V30 10029 H 973.448 -0.558409 -3.87295 0
M  V30 10030 H 973.071 1.15524 -3.80447 0
M  V30 10031 N 974.068 1.57479 -0.061844 0
M  V30 10032 C 975.015 2.12152 0.908862 0
M  V30 10033 C 975.985 1.03152 1.30188 0
M  V30 10034 O 977.17 1.3076 1.38948 0
M  V30 10035 C 974.31 2.6796 2.17465 0
M  V30 10036 C 973.423 3.91083 1.83517 0
M  V30 10037 C 972.558 4.35169 3.04633 0
M  V30 10038 C 971.597 5.50964 2.66655 0
M  V30 10039 N 970.734 5.90055 3.80499 0
M  V30 10040 H 975.574 2.94797 0.435743 0
M  V30 10041 H 973.111 1.45686 0.203445 0
M  V30 10042 H 975.069 2.98421 2.91548 0
M  V30 10043 H 973.699 1.88096 2.62335 0
M  V30 10044 H 972.751 3.67146 0.995381 0
M  V30 10045 H 974.063 4.75214 1.51569 0
M  V30 10046 H 973.217 4.67239 3.87005 0
M  V30 10047 H 971.956 3.49871 3.39767 0
M  V30 10048 H 970.961 5.18556 1.82703 0
M  V30 10049 H 972.186 6.37986 2.32702 0
M  V30 10050 H 970.132 5.07708 4.15414 0
M  V30 10051 H 970.049 6.68903 3.52285 0
M  V30 10052 H 971.317 6.26744 4.63479 0
M  V30 10053 N 975.546 -0.211634 1.56173 0
M  V30 10054 C 976.962 -0.56177 1.49386 0
M  V30 10055 C 977.162 -1.86666 0.758813 0
M  V30 10056 O 976.218 -2.50681 0.302534 0
M  V30 10057 C 977.531 -0.631815 2.93987 0
M  V30 10058 C 979.079 -0.721773 3.04564 0
M  V30 10059 C 979.554 -0.823075 4.50544 0
M  V30 10060 N 981.045 -0.887038 4.54627 0
M  V30 10061 C 981.78 -0.985304 5.64871 0
M  V30 10062 N 981.276 -1.0469 6.84844 0
M  V30 10063 N 983.069 -1.02121 5.52746 0
M  V30 10064 H 975.22 0.64452 2.02385 0
M  V30 10065 H 977.483 0.227466 0.920306 0
M  V30 10066 H 977.189 0.257592 3.50755 0
M  V30 10067 H 977.063 -1.4921 3.46433 0
M  V30 10068 H 979.45 -1.60162 2.47855 0
M  V30 10069 H 979.531 0.164385 2.55271 0
M  V30 10070 H 979.175 0.0523511 5.07873 0
M  V30 10071 H 979.105 -1.72479 4.97552 0
M  V30 10072 H 981.596 -0.849352 3.68231 0
M  V30 10073 H 981.909 -1.12193 7.64613 0
M  V30 10074 H 980.254 -1.01586 6.87536 0
M  V30 10075 H 983.445 -0.969814 4.57943 0
M  V30 10076 H 983.618 -1.09434 6.38693 0
M  V30 10077 N 977.024 -1.50153 -0.478725 0
M  V30 10078 C 978.249 -1.64776 -1.2595 0
M  V30 10079 C 978.674 -0.327794 -1.85222 0
M  V30 10080 O 978.032 0.707418 -1.66929 0
M  V30 10081 C 978.08 -2.73551 -2.34952 0
M  V30 10082 O 977.184 -2.34273 -3.39397 0
M  V30 10083 H 976.525 -0.550769 -0.370877 0
M  V30 10084 H 979.055 -1.96482 -0.570605 0
M  V30 10085 H 979.065 -2.96397 -2.8038 0
M  V30 10086 H 977.74 -3.69354 -1.91181 0
M  V30 10087 H 976.317 -2.21844 -2.99733 0
M  V30 10088 N 978.502 0.731368 -1.39602 0
M  V30 10089 C 979.449 1.84541 -1.38612 0
M  V30 10090 C 980.419 1.64279 -0.245287 0
M  V30 10091 O 981.604 1.85635 -0.440954 0
M  V30 10092 C 978.744 3.22092 -1.23897 0
M  V30 10093 C 977.857 3.54034 -2.47555 0
M  V30 10094 C 976.992 4.81007 -2.25402 0
M  V30 10095 C 976.031 5.05804 -3.44716 0
M  V30 10096 N 975.168 6.23981 -3.21857 0
M  V30 10097 H 980.008 1.84722 -2.33841 0
M  V30 10098 H 977.545 0.902569 -1.16156 0
M  V30 10099 H 979.503 4.01499 -1.13376 0
M  V30 10100 H 978.133 3.2118 -0.322958 0
M  V30 10101 H 977.185 2.69301 -2.68665 0
M  V30 10102 H 978.497 3.68275 -3.36415 0
M  V30 10103 H 977.651 5.68401 -2.12143 0
M  V30 10104 H 976.39 4.68946 -1.33943 0
M  V30 10105 H 975.395 4.1687 -3.58468 0
M  V30 10106 H 976.62 5.19747 -4.37081 0
M  V30 10107 H 974.566 6.13202 -2.33065 0
M  V30 10108 H 974.483 6.38826 -4.04274 0
M  V30 10109 H 975.751 7.14205 -3.123 0
M  V30 10110 N 979.98 1.24838 0.961938 0
M  V30 10111 C 980.928 1.0436 2.07874 0
M  V30 10112 C 981.922 -0.0232531 1.69384 0
M  V30 10113 O 983.128 0.131773 1.79517 0
M  V30 10114 H 979.503 0.320492 0.680286 0
M  V30 10115 H 981.474 1.99055 2.22306 0
M  V30 10116 C 980.223 0.671246 3.41159 0
M  V30 10117 H 979.546 1.48395 3.7124 0
M  V30 10118 H 980.986 0.567608 4.20184 0
M  V30 10119 C 979.445 -0.622124 3.31106 0
M  V30 10120 O 979.975 -1.66627 3.65511 0
M  V30 10121 N 978.181 -0.605009 2.84232 0
M  V30 10122 H 977.728 0.245052 2.56432 0
M  V30 10123 H 977.686 -1.47056 2.77888 0
M  V30 10124 N 981.458 -1.16348 1.06306 0
M  V30 10125 C 982.388 -2.2291 0.695234 0
M  V30 10126 C 983.369 -1.67208 -0.312343 0
M  V30 10127 O 984.554 -1.93293 -0.187442 0
M  V30 10128 C 981.684 -3.47205 0.0810149 0
M  V30 10129 C 980.638 -4.15801 1.01458 0
M  V30 10130 C 979.964 -5.3405 0.263656 0
M  V30 10131 C 981.264 -4.66766 2.34365 0
M  V30 10132 H 982.958 -2.53934 1.58613 0
M  V30 10133 H 980.504 -1.22056 0.76409 0
M  V30 10134 H 982.457 -4.2098 -0.18818 0
M  V30 10135 H 981.181 -3.15482 -0.844897 0
M  V30 10136 H 979.84 -3.43954 1.26852 0
M  V30 10137 H 979.488 -4.9858 -0.665378 0
M  V30 10138 H 979.188 -5.80885 0.88582 0
M  V30 10139 H 980.712 -6.106 0.00200994 0
M  V30 10140 H 982.126 -5.3212 2.13356 0
M  V30 10141 H 980.523 -5.24223 2.9208 0
M  V30 10142 H 981.593 -3.82969 2.97426 0
M  V30 10143 N 982.937 -0.845659 -1.3299 0
M  V30 10144 C 983.867 -0.298957 -2.31578 0
M  V30 10145 C 984.848 0.597012 -1.59279 0
M  V30 10146 O 986.033 0.519142 -1.87132 0
M  V30 10147 C 983.163 0.521109 -3.43368 0
M  V30 10148 C 982.117 -0.279651 -4.27085 0
M  V30 10149 C 981.443 0.664591 -5.30554 0
M  V30 10150 C 982.743 -1.50046 -5.00283 0
M  V30 10151 H 984.437 -1.12272 -2.77552 0
M  V30 10152 H 981.983 -0.54132 -1.33438 0
M  V30 10153 H 983.936 0.913921 -4.1137 0
M  V30 10154 H 982.66 1.37815 -2.96099 0
M  V30 10155 H 981.319 -0.654106 -3.60717 0
M  V30 10156 H 980.967 1.51822 -4.79541 0
M  V30 10157 H 980.667 0.132871 -5.8745 0
M  V30 10158 H 982.191 1.05477 -6.01421 0
M  V30 10159 H 983.605 -1.18044 -5.61016 0
M  V30 10160 H 982.002 -1.96946 -5.66862 0
M  V30 10161 H 983.072 -2.26659 -4.28665 0
M  V30 10162 N 984.415 1.45619 -0.602734 0
M  V30 10163 C 985.663 2.01873 -0.095844 0
M  V30 10164 C 985.984 1.47427 1.27633 0
M  V30 10165 O 985.254 0.666652 1.84208 0
M  V30 10166 H 983.834 0.746295 -0.0324408 0
M  V30 10167 H 986.496 1.78478 -0.783037 0
M  V30 10168 H 985.592 3.12072 -0.0419507 0
M  V30 10169 N 985.893 0.34162 1.53853 0
M  V30 10170 C 987.118 -0.259608 2.05769 0
M  V30 10171 C 987.543 -1.43588 1.21507 0
M  V30 10172 O 986.901 -1.79856 0.228364 0
M  V30 10173 C 986.949 -0.654455 3.54611 0
M  V30 10174 O 986.053 -1.75472 3.73207 0
M  V30 10175 H 985.394 -0.0434621 0.662576 0
M  V30 10176 H 987.924 0.495274 1.98515 0
M  V30 10177 H 987.934 -0.932142 3.97209 0
M  V30 10178 H 986.609 0.205779 4.15391 0
M  V30 10179 H 985.186 -1.47444 3.42512 0
M  V30 10180 N 987.371 -1.57444 0.0701946 0
M  V30 10181 C 988.787 -1.57009 -0.286431 0
M  V30 10182 C 988.987 -1.07946 -1.70147 0
M  V30 10183 O 988.043 -0.744622 -2.41271 0
M  V30 10184 C 989.356 -3.00542 -0.0975466 0
M  V30 10185 C 990.904 -3.12553 -0.167205 0
M  V30 10186 C 991.379 -4.58 -0.00662047 0
M  V30 10187 N 992.87 -4.63158 -0.0622778 0
M  V30 10188 C 993.605 -5.73388 0.0375831 0
M  V30 10189 N 993.101 -6.92537 0.190873 0
M  V30 10190 N 994.894 -5.62097 -0.0193672 0
M  V30 10191 H 987.045 -1.87651 0.995023 0
M  V30 10192 H 989.308 -0.865006 0.387902 0
M  V30 10193 H 989.014 -3.40543 0.878822 0
M  V30 10194 H 988.888 -3.67485 -0.850547 0
M  V30 10195 H 991.275 -2.72439 -1.13406 0
M  V30 10196 H 991.356 -2.48251 0.616871 0
M  V30 10197 H 991 -4.98803 0.956992 0
M  V30 10198 H 990.93 -5.20332 -0.810081 0
M  V30 10199 H 993.421 -3.77475 -0.179229 0
M  V30 10200 H 993.734 -7.72365 0.25926 0
M  V30 10201 H 992.079 -6.94632 0.226214 0
M  V30 10202 H 995.27 -4.67897 -0.137815 0
M  V30 10203 H 995.443 -6.4797 0.0619121 0
M  V30 10204 N 988.849 0.203349 -1.56283 0
M  V30 10205 C 990.126 0.950415 -1.70958 0
M  V30 10206 C 990.506 2.01708 -0.622647 0
M  V30 10207 O 989.854 2.25523 0.367635 0
M  V30 10208 C 990.064 1.54434 -3.12971 0
M  V30 10209 C 991.412 2.02964 -3.72949 0
M  V30 10210 O 992.436 1.64293 -3.16048 0
M  V30 10211 O 991.295 2.74097 -4.72793 0
M  V30 10212 H 988.389 0.445154 -0.69697 0
M  V30 10213 H 990.935 0.193695 -1.68591 0
M  V30 10214 H 989.707 0.77505 -3.83547 0
M  V30 10215 H 989.33 2.36611 -3.19532 0
M  V30 10216 N 990.327 1.50405 0.470755 0
M  V30 10217 C 991.257 1.72222 1.57676 0
M  V30 10218 C 992.238 0.57121 1.60222 0
M  V30 10219 O 993.423 0.810381 1.76484 0
M  V30 10220 C 990.553 1.81666 2.95998 0
M  V30 10221 C 989.507 2.96857 3.08318 0
M  V30 10222 C 988.833 2.91445 4.4829 0
M  V30 10223 C 990.133 4.37361 2.85504 0
M  V30 10224 H 991.827 2.64825 1.39671 0
M  V30 10225 H 989.373 1.27438 0.67049 0
M  V30 10226 H 991.326 1.95514 3.73299 0
M  V30 10227 H 990.05 0.856856 3.1516 0
M  V30 10228 H 988.709 2.82661 2.33449 0
M  V30 10229 H 988.357 1.93309 4.64371 0
M  V30 10230 H 988.057 3.68776 4.57469 0
M  V30 10231 H 989.581 3.07341 5.27611 0
M  V30 10232 H 990.995 4.52081 3.52555 0
M  V30 10233 H 989.392 5.16145 3.06127 0
M  V30 10234 H 990.462 4.49708 1.81359 0
M  V30 10235 N 991.805 -0.723954 1.39988 0
M  V30 10236 C 992.737 -1.84859 1.35498 0
M  V30 10237 C 993.75 -1.60681 0.261812 0
M  V30 10238 O 994.939 -1.7071 0.521566 0
M  V30 10239 C 992.039 -3.21103 1.08381 0
M  V30 10240 C 991.212 -3.72546 2.2919 0
M  V30 10241 C 990.271 -4.8738 1.9836 0
M  V30 10242 O 989.297 -5.00467 2.71149 0
M  V30 10243 N 990.499 -5.72566 0.956461 0
M  V30 10244 H 993.264 -1.89212 2.3242 0
M  V30 10245 H 990.825 -0.905152 1.34233 0
M  V30 10246 H 992.817 -3.9551 0.857564 0
M  V30 10247 H 991.387 -3.1195 0.201549 0
M  V30 10248 H 990.607 -2.89365 2.67697 0
M  V30 10249 H 991.895 -4.03652 3.09746 0
M  V30 10250 H 991.293 -5.64595 0.353444 0
M  V30 10251 H 989.85 -6.46993 0.790118 0
M  V30 10252 N 993.283 -1.25346 -0.955304 0
M  V30 10253 C 994.508 -1.12892 -1.73983 0
M  V30 10254 C 994.933 0.313455 -1.8547 0
M  V30 10255 O 994.291 1.22706 -1.33465 0
M  V30 10256 C 994.339 -1.78729 -3.1319 0
M  V30 10257 O 993.443 -1.06648 -3.98372 0
M  V30 10258 H 992.784 -0.394178 -0.534341 0
M  V30 10259 H 995.314 -1.65897 -1.19747 0
M  V30 10260 H 995.324 -1.84987 -3.63653 0
M  V30 10261 H 993.999 -2.83669 -3.04146 0
M  V30 10262 H 992.576 -1.08266 -3.56837 0
M  V30 10263 N 994.761 1.15782 -1.06922 0
M  V30 10264 C 995.986 1.90896 -0.810771 0
M  V30 10265 C 996.411 1.77246 0.629714 0
M  V30 10266 O 995.769 1.10215 1.43953 0
M  V30 10267 C 995.817 3.39397 -1.21829 0
M  V30 10268 O 994.921 4.10818 -0.360934 0
M  V30 10269 H 994.262 0.594497 -0.295752 0
M  V30 10270 H 996.792 1.46652 -1.42669 0
M  V30 10271 H 996.802 3.90181 -1.19259 0
M  V30 10272 H 995.477 3.4865 -2.2675 0
M  V30 10273 H 994.054 3.7019 -0.448748 0
M  V30 10274 N 996.239 0.8527 1.3254 0
M  V30 10275 C 997.485 0.455798 1.97612 0
M  V30 10276 C 997.818 -0.985616 1.6733 0
M  V30 10277 O 997.093 -1.69129 0.960493 0
M  V30 10278 C 997.376 0.69312 3.53366 0
M  V30 10279 C 997.229 2.18281 3.93285 0
M  V30 10280 C 998.548 0.148236 4.3985 0
M  V30 10281 H 995.667 0.167078 0.717812 0
M  V30 10282 H 998.309 1.07076 1.56954 0
M  V30 10283 H 996.459 0.169677 3.88129 0
M  V30 10284 H 998.131 2.77218 3.68711 0
M  V30 10285 H 996.374 2.66206 3.42515 0
M  V30 10286 H 997.045 2.29957 5.01821 0
M  V30 10287 H 999.521 0.595834 4.11812 0
M  V30 10288 H 998.397 0.343873 5.47822 0
M  V30 10289 H 998.658 -0.948872 4.31797 0
M  V30 10290 N 997.718 -1.45297 0.610449 0
M  V30 10291 C 998.946 -2.0659 0.113211 0
M  V30 10292 C 999.361 -1.4546 -1.20361 0
M  V30 10293 O 998.718 -0.569823 -1.73376 0
M  V30 10294 C 998.769 -3.61488 -0.0298411 0
M  V30 10295 O 998.49 -4.20336 1.23488 0
M  V30 10296 C 999.991 -4.39772 -0.558202 0
M  V30 10297 H 997.211 -0.667322 0.0701555 0
M  V30 10298 H 999.755 -1.86497 0.838993 0
M  V30 10299 H 997.91 -3.80913 -0.705963 0
M  V30 10300 H 998.324 -5.13545 1.0664 0
M  V30 10301 H 999.798 -5.48648 -0.607375 0
M  V30 10302 H 1000.27 -4.09755 -1.58107 0
M  V30 10303 H 1000.88 -4.25217 0.0839704 0
M  V30 10304 N 999.196 -0.349774 -1.5367 0
M  V30 10305 C 1000.13 0.496338 -2.28164 0
M  V30 10306 C 1001.11 1.09737 -1.29968 0
M  V30 10307 O 1002.29 1.11759 -1.58819 0
M  V30 10308 C 999.422 1.64428 -3.0591 0
M  V30 10309 C 998.376 1.17127 -4.11661 0
M  V30 10310 C 997.702 2.40822 -4.77398 0
M  V30 10311 C 999.002 0.267293 -5.21616 0
M  V30 10312 H 1000.7 -0.125117 -2.99138 0
M  V30 10313 H 998.242 -0.0616152 -1.43868 0
M  V30 10314 H 1000.19 2.2427 -3.56765 0
M  V30 10315 H 998.919 2.29272 -2.32598 0
M  V30 10316 H 997.578 0.595634 -3.61729 0
M  V30 10317 H 997.226 3.04088 -4.00674 0
M  V30 10318 H 996.926 2.09852 -5.48849 0
M  V30 10319 H 998.45 3.01378 -5.3104 0
M  V30 10320 H 999.864 0.772734 -5.68068 0
M  V30 10321 H 998.261 0.0491991 -6.0008 0
M  V30 10322 H 999.331 -0.694892 -4.79895 0
M  V30 10323 N 1000.67 1.57404 -0.0785433 0
M  V30 10324 C 1001.95 1.85163 0.630389 0
M  V30 10325 C 1002.33 0.972295 1.87376 0
M  V30 10326 O 1001.68 0.0403375 2.28464 0
M  V30 10327 C 1001.89 3.35491 0.961604 0
M  V30 10328 C 1003.24 4.0316 1.33219 0
M  V30 10329 O 1004.26 3.40276 1.05313 0
M  V30 10330 O 1003.12 5.14086 1.85412 0
M  V30 10331 H 1000.21 0.765169 0.31376 0
M  V30 10332 H 1002.76 1.69343 -0.109986 0
M  V30 10333 H 1001.53 3.91221 0.0788113 0
M  V30 10334 H 1001.15 3.56598 1.75852 0
M  V30 10335 N 1002.15 -0.195058 1.56388 0
M  V30 10336 C 1003.08 -1.24444 1.97575 0
M  V30 10337 C 1004.06 -1.47471 0.847717 0
M  V30 10338 O 1005.25 -1.59208 1.11205 0
M  V30 10339 C 1002.38 -2.58866 2.31529 0
M  V30 10340 C 1001.33 -2.50451 3.47071 0
M  V30 10341 C 1000.66 -3.89146 3.667 0
M  V30 10342 C 1001.96 -2.02953 4.81256 0
M  V30 10343 H 1003.65 -0.902178 2.85484 0
M  V30 10344 H 1001.2 -0.43254 1.3735 0
M  V30 10345 H 1003.15 -3.3246 2.58936 0
M  V30 10346 H 1001.87 -2.94833 1.40502 0
M  V30 10347 H 1000.53 -1.79313 3.19754 0
M  V30 10348 H 1000.18 -4.22466 2.73004 0
M  V30 10349 H 999.882 -3.84391 4.44429 0
M  V30 10350 H 1001.41 -4.64363 3.96484 0
M  V30 10351 H 1002.82 -2.66306 5.07695 0
M  V30 10352 H 1001.22 -2.092 5.62455 0
M  V30 10353 H 1002.29 -0.982757 4.74837 0
M  V30 10354 N 1003.63 -1.50653 -0.462772 0
M  V30 10355 C 1004.59 -1.69561 -1.54213 0
M  V30 10356 C 1005.59 -0.566106 -1.50505 0
M  V30 10357 O 1006.78 -0.833273 -1.52978 0
M  V30 10358 C 1003.91 -1.72856 -2.93826 0
M  V30 10359 H 1005.11 -2.65867 -1.38761 0
M  V30 10360 H 1002.66 -1.40259 -0.689728 0
M  V30 10361 H 1003.4 -0.78273 -3.14712 0
M  V30 10362 H 1003.18 -2.54919 -2.97924 0
M  V30 10363 H 1004.67 -1.89411 -3.72174 0
M  V30 10364 N 1005.11 0.71652 -1.4037 0
M  V30 10365 C 1006.04 1.84345 -1.43315 0
M  V30 10366 C 1007.02 1.67537 -0.294186 0
M  V30 10367 O 1008.2 1.87582 -0.502671 0
M  V30 10368 C 1005.33 3.2229 -1.29408 0
M  V30 10369 C 1004.29 3.53769 -2.40897 0
M  V30 10370 C 1003.61 4.90847 -2.12068 0
M  V30 10371 C 1004.91 3.54862 -3.83237 0
M  V30 10372 H 1006.61 1.82138 -2.37626 0
M  V30 10373 H 1004.15 0.874873 -1.14376 0
M  V30 10374 H 1006.11 4.00819 -1.30085 0
M  V30 10375 H 1004.83 3.2507 -0.31573 0
M  V30 10376 H 1003.49 2.77579 -2.39469 0
M  V30 10377 H 1003.14 4.90229 -1.12626 0
M  V30 10378 H 1002.84 5.12875 -2.86762 0
M  V30 10379 H 1004.36 5.71711 -2.14426 0
M  V30 10380 H 1005.78 4.23432 -3.86494 0
M  V30 10381 H 1004.17 3.88416 -4.57442 0
M  V30 10382 H 1005.24 2.54266 -4.12888 0
M  V30 10383 N 1006.59 1.25851 0.948643 0
M  V30 10384 C 1007.86 1.01717 1.67072 0
M  V30 10385 C 1008.24 -0.454749 2.06144 0
M  V30 10386 O 1007.59 -1.43345 1.77945 0
M  V30 10387 C 1007.8 1.95872 2.88852 0
M  V30 10388 C 1009.15 2.24057 3.60671 0
M  V30 10389 O 1010.17 1.93678 2.98944 0
M  V30 10390 O 1009.03 2.75745 4.71833 0
M  V30 10391 H 1006.13 0.386198 0.731287 0
M  V30 10392 H 1008.67 1.37031 1.00104 0
M  V30 10393 H 1007.44 2.95233 2.56814 0
M  V30 10394 H 1007.07 1.60992 3.63548 0
M  V30 10395 N 1008.06 -1.15214 1.07534 0
M  V30 10396 C 1009.48 -1.67628 0.822045 0
M  V30 10397 C 1009.83 -1.8503 -0.652571 0
M  V30 10398 O 1008.95 -1.55497 -1.50498 0
M  V30 10399 C 1009.55 -3.04489 1.48566 0
M  V30 10400 C 1008.11 -3.53974 1.27983 0
M  V30 10401 C 1007.25 -2.29656 1.55414 0
M  V30 10402 H 1010.2 -0.994016 1.23713 0
M  V30 10403 H 1010.22 -3.69509 0.907916 0
M  V30 10404 H 1009.74 -2.91792 2.55888 0
M  V30 10405 H 1007.84 -3.71908 0.226906 0
M  V30 10406 H 1007.95 -4.35298 2.0013 0
M  V30 10407 H 1006.31 -2.35289 0.975251 0
M  V30 10408 H 1007.1 -2.19544 2.63923 0
M  V30 10409 N 1009.54 -0.859717 -1.32086 0
M  V30 10410 C 1010.79 -0.464662 -1.96686 0
M  V30 10411 C 1011.11 0.98412 -1.68345 0
M  V30 10412 O 1010.38 1.68847 -0.993361 0
M  V30 10413 H 1008.96 -0.168838 -0.727669 0
M  V30 10414 H 1011.62 -1.09726 -1.61079 0
M  V30 10415 H 1010.72 -0.613904 -3.06003 0
M  V30 10416 N 1011.02 1.44971 -0.618145 0
M  V30 10417 C 1012.44 1.57077 -0.282666 0
M  V30 10418 C 1012.64 1.60782 1.21456 0
M  V30 10419 O 1011.69 1.54382 1.99806 0
M  V30 10420 C 1013.01 2.84858 -0.963148 0
M  V30 10421 C 1014.55 2.9855 -0.940062 0
M  V30 10422 C 1015.03 4.29115 -1.60076 0
M  V30 10423 N 1016.52 4.35899 -1.56674 0
M  V30 10424 C 1017.25 5.35617 -2.04701 0
M  V30 10425 N 1016.75 6.41813 -2.6086 0
M  V30 10426 N 1018.54 5.27042 -1.95406 0
M  V30 10427 H 1010.69 1.4081 -1.59017 0
M  V30 10428 H 1012.96 0.673914 -0.666741 0
M  V30 10429 H 1012.66 2.88059 -2.0178 0
M  V30 10430 H 1012.54 3.73966 -0.492901 0
M  V30 10431 H 1014.92 2.94909 0.10607 0
M  V30 10432 H 1015.01 2.10825 -1.44868 0
M  V30 10433 H 1014.65 4.33514 -2.64627 0
M  V30 10434 H 1014.58 5.15675 -1.06708 0
M  V30 10435 H 1017.07 3.59766 -1.15659 0
M  V30 10436 H 1017.38 7.14166 -2.95273 0
M  V30 10437 H 1015.73 6.42534 -2.64905 0
M  V30 10438 H 1018.92 4.42987 -1.51263 0
M  V30 10439 H 1019.09 6.04604 -2.33147 0
M  V30 10440 N 1012.5 0.357919 1.53482 0
M  V30 10441 C 1013.43 -0.484231 2.28424 0
M  V30 10442 C 1014.41 -1.09046 1.30548 0
M  V30 10443 O 1015.59 -1.10916 1.59409 0
M  V30 10444 C 1012.72 -1.62803 3.06778 0
M  V30 10445 C 1011.68 -1.14943 4.12277 0
M  V30 10446 C 1011 -2.38287 4.78669 0
M  V30 10447 C 1012.3 -0.239627 5.2175 0
M  V30 10448 H 1014 0.140979 2.99068 0
M  V30 10449 H 1011.54 0.069244 1.43833 0
M  V30 10450 H 1013.5 -2.22374 3.57949 0
M  V30 10451 H 1012.22 -2.28036 2.3381 0
M  V30 10452 H 1010.88 -0.576442 3.6204 0
M  V30 10453 H 1010.53 -3.01959 4.02281 0
M  V30 10454 H 1010.23 -2.06939 5.49955 0
M  V30 10455 H 1011.75 -2.98558 5.32631 0
M  V30 10456 H 1013.17 -0.742597 5.6847 0
M  V30 10457 H 1011.56 -0.0173747 6.00097 0
M  V30 10458 H 1012.63 0.720333 4.7952 0
M  V30 10459 N 1013.98 -1.5736 0.0868897 0
M  V30 10460 C 1015.2 -1.98809 -0.590757 0
M  V30 10461 C 1015.63 -0.965407 -1.61436 0
M  V30 10462 O 1014.98 0.067143 -1.81176 0
M  V30 10463 C 1015.03 -3.39249 -1.22238 0
M  V30 10464 O 1014.14 -3.39706 -2.33824 0
M  V30 10465 H 1013.48 -0.64669 -0.150626 0
M  V30 10466 H 1016.01 -2.03927 0.165873 0
M  V30 10467 H 1016.02 -3.76765 -1.56564 0
M  V30 10468 H 1014.69 -4.13208 -0.472434 0
M  V30 10469 H 1013.27 -3.13977 -2.01178 0
M  V30 10470 N 1015.45 0.186762 -1.56489 0
M  V30 10471 C 1016.87 0.750675 -1.70944 0
M  V30 10472 C 1017.22 1.83483 -0.694858 0
M  V30 10473 O 1016.34 2.159 0.147009 0
M  V30 10474 C 1016.94 1.36843 -3.09934 0
M  V30 10475 C 1015.5 1.87934 -3.26125 0
M  V30 10476 C 1014.64 0.75242 -2.66897 0
M  V30 10477 H 1017.59 -0.0384292 -1.58653 0
M  V30 10478 H 1017.61 2.23795 -3.07727 0
M  V30 10479 H 1017.13 0.579135 -3.83755 0
M  V30 10480 H 1015.23 2.69556 -2.57235 0
M  V30 10481 H 1015.34 2.0354 -4.33715 0
M  V30 10482 H 1013.7 1.16888 -2.26295 0
M  V30 10483 H 1014.49 -0.0247769 -3.43291 0
M  V30 10484 N 1016.93 1.50896 0.454776 0
M  V30 10485 C 1018.35 1.38684 0.78987 0
M  V30 10486 C 1018.55 0.455587 1.96282 0
M  V30 10487 O 1017.6 -0.0957503 2.52318 0
M  V30 10488 C 1018.92 2.80381 1.08661 0
M  V30 10489 C 1020.47 2.8941 1.19209 0
M  V30 10490 C 1020.94 4.31976 1.52187 0
M  V30 10491 N 1022.43 4.35002 1.59146 0
M  V30 10492 C 1023.17 5.42326 1.862 0
M  V30 10493 N 1022.66 6.59835 2.11164 0
M  V30 10494 N 1024.46 5.29786 1.87838 0
M  V30 10495 H 1016.61 2.10006 -0.317981 0
M  V30 10496 H 1018.87 0.944636 -0.0797969 0
M  V30 10497 H 1018.58 3.50438 0.297626 0
M  V30 10498 H 1018.45 3.18634 2.01872 0
M  V30 10499 H 1020.84 2.19561 1.97173 0
M  V30 10500 H 1020.92 2.54677 0.239401 0
M  V30 10501 H 1020.56 5.02368 0.747576 0
M  V30 10502 H 1020.49 4.64208 2.48633 0
M  V30 10503 H 1022.98 3.50276 1.41828 0
M  V30 10504 H 1023.3 7.37428 2.31128 0
M  V30 10505 H 1021.64 6.62981 2.08522 0
M  V30 10506 H 1024.83 4.36974 1.67843 0
M  V30 10507 H 1025 6.13511 2.08585 0
M  V30 10508 N 1018.41 -0.709066 1.40748 0
M  V30 10509 C 1019.37 -1.80485 1.41272 0
M  V30 10510 C 1020.37 -1.57872 0.305463 0
M  V30 10511 O 1021.56 -1.64793 0.564691 0
M  V30 10512 C 1018.7 -3.1867 1.21087 0
M  V30 10513 H 1019.89 -1.81417 2.38805 0
M  V30 10514 H 1017.44 -0.915356 1.26692 0
M  V30 10515 H 1018.18 -3.23385 0.243406 0
M  V30 10516 H 1017.96 -3.36484 2.01299 0
M  V30 10517 H 1019.45 -3.98685 1.24257 0
M  V30 10518 N 1019.89 -1.26353 -0.941956 0
M  V30 10519 C 1021.12 -1.14626 -1.72245 0
M  V30 10520 C 1021.53 0.298588 -1.86424 0
M  V30 10521 O 1020.89 1.2045 -1.37106 0
M  V30 10522 C 1020.94 -1.80933 -3.12963 0
M  V30 10523 O 1020.66 -3.19771 -2.99463 0
M  V30 10524 C 1022.16 -1.7515 -4.07231 0
M  V30 10525 H 1019.38 -0.3992 -0.539333 0
M  V30 10526 H 1021.93 -1.66958 -1.1809 0
M  V30 10527 H 1020.08 -1.32541 -3.64021 0
M  V30 10528 H 1020.5 -3.52571 -3.88322 0
M  V30 10529 H 1021.97 -2.26183 -5.03533 0
M  V30 10530 H 1022.45 -0.717855 -4.33294 0
M  V30 10531 H 1023.05 -2.2309 -3.62093 0
M  V30 10532 N 1021.37 1.14642 -1.08144 0
M  V30 10533 C 1022.61 1.85617 -0.809484 0
M  V30 10534 C 1022.94 1.8279 0.664672 0
M  V30 10535 O 1022.2 1.25178 1.50429 0
M  V30 10536 C 1022.5 3.33953 -1.2732 0
M  V30 10537 C 1022.16 3.56969 -2.7547 0
M  V30 10538 C 1020.82 3.6296 -3.15933 0
M  V30 10539 C 1023.18 3.66014 -3.71057 0
M  V30 10540 C 1020.5 3.75515 -4.50783 0
M  V30 10541 C 1022.86 3.80094 -5.05679 0
M  V30 10542 C 1021.52 3.84333 -5.45751 0
M  V30 10543 H 1020.79 0.67922 -0.296211 0
M  V30 10544 H 1023.44 1.35433 -1.35389 0
M  V30 10545 H 1021.74 3.86399 -0.648329 0
M  V30 10546 H 1023.44 3.87291 -1.03957 0
M  V30 10547 H 1020.03 3.52953 -2.4315 0
M  V30 10548 H 1024.21 3.60679 -3.40917 0
M  V30 10549 H 1019.47 3.77057 -4.81288 0
M  V30 10550 H 1023.64 3.86035 -5.79612 0
M  V30 10551 H 1021.27 3.93814 -6.50242 0
M  V30 10552 N 1022.85 0.866709 1.31628 0
M  V30 10553 C 1023.78 0.277328 2.27516 0
M  V30 10554 C 1024.79 -0.557786 1.52946 0
M  V30 10555 O 1025.98 -0.38031 1.74402 0
M  V30 10556 C 1023.08 -0.625742 3.33073 0
M  V30 10557 C 1022.25 0.176204 4.37045 0
M  V30 10558 C 1021.31 -0.654497 5.22114 0
M  V30 10559 O 1020.34 -0.0836961 5.69138 0
M  V30 10560 N 1021.54 -1.96708 5.46156 0
M  V30 10561 H 1024.3 1.10133 2.78731 0
M  V30 10562 H 1021.87 0.72787 1.44616 0
M  V30 10563 H 1023.86 -1.18709 3.86898 0
M  V30 10564 H 1022.43 -1.35042 2.81926 0
M  V30 10565 H 1021.65 0.918999 3.83338 0
M  V30 10566 H 1022.94 0.726594 5.03585 0
M  V30 10567 H 1022.33 -2.454 5.09701 0
M  V30 10568 H 1020.89 -2.47629 6.02929 0
M  V30 10569 N 1024.32 -1.44642 0.625825 0
M  V30 10570 C 1025.23 -2.34451 -0.0836134 0
M  V30 10571 C 1026.25 -1.5231 -0.841289 0
M  V30 10572 O 1027.43 -1.85056 -0.794754 0
M  V30 10573 C 1024.49 -3.30211 -1.05648 0
M  V30 10574 C 1023.55 -4.28259 -0.298759 0
M  V30 10575 C 1022.78 -5.19444 -1.22528 0
M  V30 10576 O 1023.01 -5.14444 -2.46382 0
M  V30 10577 O 1021.94 -5.97668 -0.71247 0
M  V30 10578 H 1025.77 -2.96555 0.654912 0
M  V30 10579 H 1023.35 -1.44327 0.386029 0
M  V30 10580 H 1025.23 -3.8917 -1.61632 0
M  V30 10581 H 1023.91 -2.70648 -1.77571 0
M  V30 10582 H 1022.82 -3.72863 0.304001 0
M  V30 10583 H 1024.15 -4.90728 0.380345 0
M  V30 10584 N 1025.8 -0.366053 -1.5329 0
M  V30 10585 C 1027.03 0.224236 -2.05681 0
M  V30 10586 C 1027.44 1.42412 -1.23952 0
M  V30 10587 O 1026.8 1.80334 -0.280309 0
M  V30 10588 C 1026.85 0.617266 -3.56191 0
M  V30 10589 O 1026.57 -0.534931 -4.34822 0
M  V30 10590 C 1028.07 1.26589 -4.24841 0
M  V30 10591 H 1025.29 0.0392928 -0.669849 0
M  V30 10592 H 1027.84 -0.52456 -1.97658 0
M  V30 10593 H 1025.99 1.31598 -3.64364 0
M  V30 10594 H 1026.41 -0.217123 -5.2405 0
M  V30 10595 H 1027.88 1.49146 -5.31469 0
M  V30 10596 H 1028.36 2.22633 -3.78591 0
M  V30 10597 H 1028.96 0.6086 -4.20923 0
M  V30 10598 N 1027.28 1.57312 -0.0952337 0
M  V30 10599 C 1028.23 2.14032 0.863657 0
M  V30 10600 C 1029.2 1.0589 1.27971 0
M  V30 10601 O 1030.38 1.33678 1.36143 0
M  V30 10602 C 1027.52 2.72513 2.11733 0
M  V30 10603 C 1026.63 3.94887 1.7518 0
M  V30 10604 C 1025.77 4.41533 2.95334 0
M  V30 10605 C 1024.81 5.56496 2.54908 0
M  V30 10606 N 1023.95 5.97993 3.67897 0
M  V30 10607 H 1028.79 2.95655 0.373115 0
M  V30 10608 H 1026.32 1.46085 0.172497 0
M  V30 10609 H 1028.28 3.04539 2.85153 0
M  V30 10610 H 1026.91 1.93618 2.58287 0
M  V30 10611 H 1025.96 3.69175 0.917279 0
M  V30 10612 H 1027.27 4.78322 1.41455 0
M  V30 10613 H 1026.43 4.75343 3.77007 0
M  V30 10614 H 1025.17 3.56999 3.3227 0
M  V30 10615 H 1024.17 5.22314 1.71662 0
M  V30 10616 H 1025.4 6.42779 2.19117 0
M  V30 10617 H 1023.34 5.16405 4.04551 0
M  V30 10618 H 1023.26 6.76225 3.38018 0
M  V30 10619 H 1024.53 6.36434 4.5008 0
M  V30 10620 N 1028.76 -0.17846 1.56586 0
M  V30 10621 C 1029.71 -1.24042 1.96765 0
M  V30 10622 C 1030.7 -1.46218 0.855375 0
M  V30 10623 O 1031.91 -1.46882 1.04046 0
M  V30 10624 H 1028.28 -0.416807 0.62592 0
M  V30 10625 H 1030.25 -0.874644 2.85294 0
M  V30 10626 C 1029 -2.57394 2.3376 0
M  V30 10627 H 1028.32 -2.41151 3.18883 0
M  V30 10628 H 1029.76 -3.30405 2.65723 0
M  V30 10629 C 1028.22 -3.15621 1.17835 0
M  V30 10630 O 1028.75 -3.99032 0.462202 0
M  V30 10631 N 1026.96 -2.74606 0.950783 0
M  V30 10632 H 1026.51 -2.06878 1.5349 0
M  V30 10633 H 1026.46 -3.13902 0.176967 0
M  V30 10634 N 1030.24 -1.51135 -0.446768 0
M  V30 10635 C 1031.65 -1.39101 -0.782504 0
M  V30 10636 C 1031.85 -0.46599 -1.96038 0
M  V30 10637 O 1030.91 0.0823679 -2.52366 0
M  V30 10638 C 1032.22 -2.80953 -1.07173 0
M  V30 10639 C 1033.77 -2.90038 -1.17673 0
M  V30 10640 C 1034.24 -4.32777 -1.49894 0
M  V30 10641 N 1035.73 -4.3584 -1.56837 0
M  V30 10642 C 1036.47 -5.43305 -1.83322 0
M  V30 10643 N 1035.97 -6.60945 -2.07662 0
M  V30 10644 N 1037.76 -5.30775 -1.85026 0
M  V30 10645 H 1029.91 -2.09835 0.329114 0
M  V30 10646 H 1032.17 -0.944199 0.0848054 0
M  V30 10647 H 1031.88 -3.50591 -0.279037 0
M  V30 10648 H 1031.75 -3.197 -2.00179 0
M  V30 10649 H 1034.14 -2.20603 -1.96005 0
M  V30 10650 H 1034.22 -2.54801 -0.225892 0
M  V30 10651 H 1033.86 -5.02757 -0.720924 0
M  V30 10652 H 1033.79 -4.6552 -2.46168 0
M  V30 10653 H 1036.29 -3.51023 -1.39968 0
M  V30 10654 H 1036.6 -7.38643 -2.27214 0
M  V30 10655 H 1034.94 -6.64077 -2.05003 0
M  V30 10656 H 1038.13 -4.37858 -1.65523 0
M  V30 10657 H 1038.31 -6.14609 -2.05329 0
M  V30 10658 N 1031.71 0.701592 -1.41122 0
M  V30 10659 C 1032.94 1.49553 -1.43696 0
M  V30 10660 C 1033.36 1.88053 -0.0421865 0
M  V30 10661 O 1032.72 1.54223 0.953144 0
M  V30 10662 C 1032.77 2.73834 -2.34622 0
M  V30 10663 O 1031.87 3.71088 -1.7991 0
M  V30 10664 H 1031.21 0.450352 -0.487933 0
M  V30 10665 H 1033.74 0.862886 -1.85514 0
M  V30 10666 H 1033.75 3.22209 -2.5029 0
M  V30 10667 H 1032.43 2.45149 -3.35969 0
M  V30 10668 H 1031.01 3.29994 -1.73661 0
M  V30 10669 N 1033.19 1.2685 0.935242 0
M  V30 10670 C 1034.12 1.1143 2.05196 0
M  V30 10671 C 1035.1 0.0178362 1.70091 0
M  V30 10672 O 1036.29 0.190951 1.93259 0
M  V30 10673 C 1033.42 0.752779 3.39044 0
M  V30 10674 C 1032.37 1.80164 3.88233 0
M  V30 10675 C 1031.7 1.29428 5.18799 0
M  V30 10676 C 1033 3.20431 4.12457 0
M  V30 10677 H 1034.69 2.04845 2.18355 0
M  V30 10678 H 1032.24 0.986276 1.04922 0
M  V30 10679 H 1034.19 0.631757 4.16637 0
M  V30 10680 H 1032.91 -0.217075 3.25878 0
M  V30 10681 H 1031.57 1.91144 3.12825 0
M  V30 10682 H 1031.22 0.3141 5.02018 0
M  V30 10683 H 1030.92 1.99546 5.5268 0
M  V30 10684 H 1032.45 1.18605 5.9897 0
M  V30 10685 H 1033.86 3.12495 4.80645 0
M  V30 10686 H 1032.26 3.88193 4.57631 0
M  V30 10687 H 1033.33 3.66046 3.18023 0
M  V30 10688 N 1034.67 -1.14067 1.0875 0
M  V30 10689 C 1035.9 -1.89582 0.841038 0
M  V30 10690 C 1036.32 -1.78226 -0.601436 0
M  V30 10691 O 1035.68 -1.12491 -1.42181 0
M  V30 10692 C 1035.73 -3.37415 1.27213 0
M  V30 10693 O 1034.83 -4.10191 0.426246 0
M  V30 10694 H 1034.17 -0.589716 0.305173 0
M  V30 10695 H 1036.7 -1.44364 1.44984 0
M  V30 10696 H 1036.71 -3.88234 1.25451 0
M  V30 10697 H 1035.39 -3.44999 2.32268 0
M  V30 10698 H 1033.96 -3.69429 0.507585 0
M  V30 10699 N 1036.15 -0.873678 -1.31166 0
M  V30 10700 C 1037.56 -0.566109 -1.49223 0
M  V30 10701 C 1037.76 0.898889 -1.80339 0
M  V30 10702 O 1036.82 1.68084 -1.88425 0
M  V30 10703 C 1038.13 -1.46952 -2.62346 0
M  V30 10704 C 1039.68 -1.47195 -2.76229 0
M  V30 10705 C 1040.16 -2.36102 -3.92454 0
M  V30 10706 N 1041.65 -2.34003 -3.99746 0
M  V30 10707 C 1042.38 -2.99513 -4.88958 0
M  V30 10708 N 1041.88 -3.74206 -5.83045 0
M  V30 10709 N 1043.67 -2.88802 -4.82234 0
M  V30 10710 H 1035.82 -1.82156 -1.09239 0
M  V30 10711 H 1038.09 -0.779086 -0.54012 0
M  V30 10712 H 1037.79 -2.51213 -2.4614 0
M  V30 10713 H 1037.67 -1.17077 -3.5857 0
M  V30 10714 H 1040.05 -0.436902 -2.91848 0
M  V30 10715 H 1040.13 -1.81095 -1.80661 0
M  V30 10716 H 1039.78 -3.39685 -3.77593 0
M  V30 10717 H 1039.71 -1.99524 -4.87337 0
M  V30 10718 H 1042.2 -1.79713 -3.32433 0
M  V30 10719 H 1042.51 -4.21312 -6.47855 0
M  V30 10720 H 1040.86 -3.78314 -5.83012 0
M  V30 10721 H 1044.05 -2.29984 -4.07707 0
M  V30 10722 H 1044.22 -3.40136 -5.51554 0
M  V30 10723 N 1037.63 1.44308 -0.633487 0
M  V30 10724 C 1038.87 2.02322 -0.139123 0
M  V30 10725 C 1039.21 1.49733 1.23667 0
M  V30 10726 O 1038.48 0.682353 1.82138 0
M  V30 10727 C 1038.76 3.59871 -0.128366 0
M  V30 10728 C 1038.62 4.22737 -1.53667 0
M  V30 10729 C 1039.94 4.36702 0.545834 0
M  V30 10730 H 1037.05 0.735161 -0.0520293 0
M  V30 10731 H 1039.7 1.7185 -0.810411 0
M  V30 10732 H 1037.85 3.85963 0.443263 0
M  V30 10733 H 1039.52 4.07744 -2.15737 0
M  V30 10734 H 1037.76 3.80142 -2.08985 0
M  V30 10735 H 1038.43 5.31757 -1.48116 0
M  V30 10736 H 1040.91 4.16057 0.0596879 0
M  V30 10737 H 1039.78 5.46407 0.522557 0
M  V30 10738 H 1040.05 4.11483 1.6166 0
M  V30 10739 N 1039.1 0.374177 1.53094 0
M  V30 10740 C 1040.52 0.0234783 1.59583 0
M  V30 10741 C 1040.72 -1.45984 1.38892 0
M  V30 10742 O 1039.78 -2.22251 1.19836 0
M  V30 10743 C 1041.09 0.487117 2.96728 0
M  V30 10744 C 1042.64 0.442073 3.09862 0
M  V30 10745 C 1043.11 0.881659 4.49434 0
M  V30 10746 N 1044.6 0.837062 4.55574 0
M  V30 10747 C 1045.34 1.14878 5.61774 0
M  V30 10748 N 1044.83 1.53022 6.75689 0
M  V30 10749 N 1046.63 1.07102 5.51802 0
M  V30 10750 H 1038.78 1.34003 1.64794 0
M  V30 10751 H 1041.04 0.548281 0.773364 0
M  V30 10752 H 1040.75 1.52252 3.17037 0
M  V30 10753 H 1040.62 -0.121772 3.77003 0
M  V30 10754 H 1043.01 -0.584216 2.89259 0
M  V30 10755 H 1043.09 1.08657 2.31576 0
M  V30 10756 H 1042.73 1.90611 4.70776 0
M  V30 10757 H 1042.66 0.214326 5.26164 0
M  V30 10758 H 1045.15 0.556173 3.73785 0
M  V30 10759 H 1045.47 1.75211 7.52676 0
M  V30 10760 H 1043.81 1.56895 6.77059 0
M  V30 10761 H 1047 0.772149 4.61688 0
M  V30 10762 H 1047.18 1.31728 6.3447 0
M  V30 10763 N 1040.58 -1.57259 0.103575 0
M  V30 10764 C 1041.83 -1.94945 -0.558953 0
M  V30 10765 C 1042.16 -0.986038 -1.67305 0
M  V30 10766 O 1041.44 -0.0205464 -1.94489 0
M  V30 10767 C 1041.72 -3.42689 -1.10617 0
M  V30 10768 C 1041.57 -4.498 0.00345246 0
M  V30 10769 C 1042.89 -3.91933 -2.00191 0
M  V30 10770 H 1040.01 -0.708859 -0.201713 0
M  V30 10771 H 1042.65 -1.89183 0.176006 0
M  V30 10772 H 1040.8 -3.4773 -1.73251 0
M  V30 10773 H 1042.47 -4.56866 0.638082 0
M  V30 10774 H 1040.72 -4.28615 0.668705 0
M  V30 10775 H 1041.39 -5.50397 -0.420396 0
M  V30 10776 H 1043.86 -3.89098 -1.4745 0
M  V30 10777 H 1042.74 -4.9586 -2.35402 0
M  V30 10778 H 1043 -3.31722 -2.92255 0
M  V30 10779 N 1042.06 0.170153 -1.56679 0
M  V30 10780 C 1042.99 1.21285 -1.9953 0
M  V30 10781 C 1043.97 1.46104 -0.871071 0
M  V30 10782 O 1045.16 1.57419 -1.13724 0
M  V30 10783 C 1042.29 2.5515 -2.35618 0
M  V30 10784 C 1041.24 2.44898 -3.51011 0
M  V30 10785 C 1040.57 3.83263 -3.72845 0
M  V30 10786 C 1041.87 1.95271 -4.84424 0
M  V30 10787 H 1043.56 0.856646 -2.86883 0
M  V30 10788 H 1041.11 0.410634 -1.38021 0
M  V30 10789 H 1043.06 3.28299 -2.64193 0
M  V30 10790 H 1041.78 2.92561 -1.45175 0
M  V30 10791 H 1040.44 1.74203 -3.22566 0
M  V30 10792 H 1040.09 4.18069 -2.79691 0
M  V30 10793 H 1039.79 3.77272 -4.50488 0
M  V30 10794 H 1041.31 4.57996 -4.03822 0
M  V30 10795 H 1042.73 2.58195 -5.11867 0
M  V30 10796 H 1041.13 2.00225 -5.65712 0
M  V30 10797 H 1042.2 0.90709 -4.7634 0
M  V30 10798 N 1043.54 1.5137 0.438746 0
M  V30 10799 C 1044.79 1.63645 1.18595 0
M  V30 10800 C 1045.11 0.354241 1.91755 0
M  V30 10801 O 1044.38 -0.629838 1.85499 0
M  V30 10802 H 1042.96 0.603103 0.440767 0
M  V30 10803 H 1045.62 1.88293 0.503159 0
M  V30 10804 H 1044.72 2.46342 1.9163 0
M  V30 10805 N 1045.02 -0.694098 1.41492 0
M  V30 10806 C 1045.95 -1.82042 1.46229 0
M  V30 10807 C 1046.93 -1.67047 0.320803 0
M  V30 10808 O 1048.11 -1.86758 0.53245 0
M  V30 10809 C 1045.24 -3.2019 1.34519 0
M  V30 10810 C 1044.2 -3.49892 2.46495 0
M  V30 10811 C 1043.52 -4.87411 2.1985 0
M  V30 10812 C 1044.82 -3.4872 3.88834 0
M  V30 10813 H 1046.52 -1.78335 2.40493 0
M  V30 10814 H 1044.06 -0.856566 1.15754 0
M  V30 10815 H 1046.02 -3.98699 1.36445 0
M  V30 10816 H 1044.74 -3.24527 0.367406 0
M  V30 10817 H 1043.4 -2.73734 2.43854 0
M  V30 10818 H 1043.05 -4.88375 1.20411 0
M  V30 10819 H 1042.75 -5.08248 2.94885 0
M  V30 10820 H 1044.27 -5.68228 2.23494 0
M  V30 10821 H 1045.68 -4.1723 3.93182 0
M  V30 10822 H 1044.08 -3.81089 4.63564 0
M  V30 10823 H 1045.15 -2.47665 4.16881 0
M  V30 10824 N 1046.49 -1.27344 -0.928501 0
M  V30 10825 C 1047.44 -1.10001 -2.029 0
M  V30 10826 C 1048.41 -0.00131084 -1.661 0
M  V30 10827 O 1049.6 -0.163485 -1.90098 0
M  V30 10828 C 1046.74 -0.7524 -3.36798 0
M  V30 10829 C 1045.85 -1.92865 -3.86558 0
M  V30 10830 C 1044.98 -1.52299 -5.08899 0
M  V30 10831 C 1044.02 -2.66677 -5.50953 0
M  V30 10832 N 1043.16 -2.26706 -6.64491 0
M  V30 10833 H 1048 -2.0417 -2.17068 0
M  V30 10834 H 1045.54 -1.01637 -1.0634 0
M  V30 10835 H 1047.5 -0.531687 -4.13798 0
M  V30 10836 H 1046.13 0.15234 -3.2244 0
M  V30 10837 H 1045.18 -2.26192 -3.05845 0
M  V30 10838 H 1046.49 -2.78668 -4.13698 0
M  V30 10839 H 1045.64 -1.26348 -5.93398 0
M  V30 10840 H 1044.38 -0.636042 -4.83535 0
M  V30 10841 H 1043.39 -2.93344 -4.65004 0
M  V30 10842 H 1044.61 -3.55992 -5.78313 0
M  V30 10843 H 1042.56 -1.40462 -6.40786 0
M  V30 10844 H 1042.48 -3.06049 -6.91281 0
M  V30 10845 H 1043.74 -2.04 -7.52333 0
M  V30 10846 N 1047.97 1.13488 -1.09353 0
M  V30 10847 C 1048.94 2.17066 -0.735863 0
M  V30 10848 C 1049.94 1.59086 0.234181 0
M  V30 10849 O 1051.13 1.74196 0.012463 0
M  V30 10850 C 1048.26 3.40786 -0.0880975 0
M  V30 10851 H 1049.45 2.50221 -1.65316 0
M  V30 10852 H 1047 1.28304 -0.89263 0
M  V30 10853 H 1047.74 3.1322 0.840462 0
M  V30 10854 H 1047.52 3.8414 -0.786073 0
M  V30 10855 H 1049.01 4.17342 0.146775 0
M  V30 10856 N 1049.45 0.880621 1.30701 0
M  V30 10857 C 1050.4 0.315679 2.25804 0
M  V30 10858 C 1051.39 -0.553382 1.51084 0
M  V30 10859 O 1052.58 -0.398518 1.72455 0
M  V30 10860 C 1049.71 -0.472586 3.40032 0
M  V30 10861 C 1048.79 0.410318 4.2211 0
M  V30 10862 N 1049.18 1.50876 4.82773 0
M  V30 10863 C 1047.48 0.20465 4.4553 0
M  V30 10864 C 1048.18 2.05409 5.44226 0
M  V30 10865 N 1047.16 1.34964 5.26579 0
M  V30 10866 H 1050.96 1.15505 2.70251 0
M  V30 10867 H 1048.47 0.729547 1.45091 0
M  V30 10868 H 1050.47 -0.893918 4.07204 0
M  V30 10869 H 1049.13 -1.30945 2.97125 0
M  V30 10870 H 1050.14 1.89163 4.82118 0
M  V30 10871 H 1046.82 -0.595398 4.13233 0
M  V30 10872 H 1048.21 2.97627 6.02385 0
M  V30 10873 N 1050.93 -1.4397 0.641131 0
M  V30 10874 C 1052.17 -2.03826 0.153071 0
M  V30 10875 C 1052.53 -1.4941 -1.20585 0
M  V30 10876 O 1053.73 -2.00832 -1.78661 0
M  V30 10877 C 1052.01 -3.57085 0.149914 0
M  V30 10878 S 1053.56 -4.37956 -0.272065 0
M  V30 10879 H 1050.38 -0.70793 0.0659981 0
M  V30 10880 H 1052.98 -1.76211 0.846761 0
M  V30 10881 H 1051.69 -3.94194 1.14188 0
M  V30 10882 H 1051.22 -3.89326 -0.564703 0
M  V30 10883 H 1053.23 -4.72542 -1.5139 0
M  V30 10884 N 1052.41 -0.382291 -1.52893 0
M  V30 10885 C 1053.32 0.463745 -2.29971 0
M  V30 10886 C 1054.33 1.07777 -1.36602 0
M  V30 10887 O 1055.51 1.0851 -1.69669 0
M  V30 10888 C 1052.57 1.57938 -3.08637 0
M  V30 10889 C 1051.64 0.991182 -4.17701 0
M  V30 10890 C 1050.87 2.05365 -4.92606 0
M  V30 10891 O 1051.09 3.26757 -4.67532 0
M  V30 10892 O 1050.03 1.67487 -5.78128 0
M  V30 10893 H 1053.85 -0.163962 -3.03257 0
M  V30 10894 H 1051.44 -0.146199 -1.48683 0
M  V30 10895 H 1053.32 2.22765 -3.57706 0
M  V30 10896 H 1051.99 2.19218 -2.3817 0
M  V30 10897 H 1050.9 0.306364 -3.72843 0
M  V30 10898 H 1052.23 0.422699 -4.90382 0
M  V30 10899 N 1053.89 1.57202 -0.111913 0
M  V30 10900 C 1054.83 2.16186 0.858286 0
M  V30 10901 C 1055.83 1.10917 1.28039 0
M  V30 10902 O 1057.03 1.29233 1.25295 0
M  V30 10903 H 1053.41 0.691777 0.29487 0
M  V30 10904 H 1055.38 2.96499 0.336265 0
M  V30 10905 C 1054.13 2.77024 2.10127 0
M  V30 10906 H 1053.45 3.5772 1.78539 0
M  V30 10907 H 1054.89 3.21841 2.76033 0
M  V30 10908 C 1053.35 1.73752 2.88638 0
M  V30 10909 O 1053.88 1.18659 3.83774 0
M  V30 10910 N 1052.09 1.43855 2.52496 0
M  V30 10911 H 1051.63 1.88846 1.75199 0
M  V30 10912 H 1051.59 0.749985 3.05324 0
M  V30 10913 N 1055.36 -0.161842 1.56767 0
M  V30 10914 C 1056.61 -0.876925 1.82527 0
M  V30 10915 C 1056.94 -1.81831 0.690492 0
M  V30 10916 O 1056.19 -1.9304 -0.32159 0
M  V30 10917 C 1056.49 -1.69736 3.14522 0
M  V30 10918 C 1056.16 -0.904075 4.41743 0
M  V30 10919 C 1054.82 -0.685168 4.76297 0
M  V30 10920 C 1057.17 -0.348282 5.20035 0
M  V30 10921 C 1054.5 0.10048 5.86614 0
M  V30 10922 C 1056.85 0.424327 6.31175 0
M  V30 10923 C 1055.52 0.653948 6.64289 0
M  V30 10924 H 1054.79 -0.320889 0.667915 0
M  V30 10925 H 1057.43 -0.141338 1.90978 0
M  V30 10926 H 1055.74 -2.50262 3.01456 0
M  V30 10927 H 1057.44 -2.25386 3.31666 0
M  V30 10928 H 1054.03 -1.08474 4.14646 0
M  V30 10929 H 1058.21 -0.504721 4.93727 0
M  V30 10930 H 1053.47 0.288029 6.10721 0
M  V30 10931 H 1057.64 0.862203 6.91042 0
M  V30 10932 H 1055.27 1.26459 7.49608 0
M  V30 10933 N 1056.84 -1.516 -0.430713 0
M  V30 10934 C 1057.79 -1.73975 -1.54387 0
M  V30 10935 C 1058.78 -0.606222 -1.58181 0
M  V30 10936 O 1059.99 -0.787764 -1.61846 0
M  V30 10937 H 1056.36 -0.549811 -0.513041 0
M  V30 10938 H 1058.34 -2.67274 -1.32692 0
M  V30 10939 C 1057.08 -1.88794 -2.9198 0
M  V30 10940 H 1056.41 -2.75425 -2.89795 0
M  V30 10941 H 1057.85 -2.08458 -3.69217 0
M  V30 10942 C 1056.31 -0.649427 -3.30581 0
M  V30 10943 O 1056.84 0.192823 -4.01237 0
M  V30 10944 N 1055.04 -0.491586 -2.86412 0
M  V30 10945 H 1054.59 -1.17806 -2.29084 0
M  V30 10946 H 1054.55 0.33583 -3.12601 0
M  V30 10947 N 1058.32 0.686584 -1.41858 0
M  V30 10948 C 1059.25 1.81264 -1.47193 0
M  V30 10949 C 1060.23 1.66875 -0.329657 0
M  V30 10950 O 1061.42 1.86473 -0.542347 0
M  V30 10951 C 1058.55 3.19472 -1.36216 0
M  V30 10952 C 1057.5 3.4858 -2.48347 0
M  V30 10953 C 1056.83 4.86239 -2.22432 0
M  V30 10954 C 1058.13 3.46653 -3.90678 0
M  V30 10955 H 1059.82 1.77057 -2.41436 0
M  V30 10956 H 1057.37 0.850415 -1.16206 0
M  V30 10957 H 1059.32 3.97969 -1.38558 0
M  V30 10958 H 1058.04 3.24327 -0.384611 0
M  V30 10959 H 1056.7 2.72437 -2.45303 0
M  V30 10960 H 1056.35 4.8773 -1.22999 0
M  V30 10961 H 1056.05 5.06677 -2.97577 0
M  V30 10962 H 1057.57 5.67034 -2.26505 0
M  V30 10963 H 1058.99 4.15139 -3.95389 0
M  V30 10964 H 1057.38 3.78625 -4.65578 0
M  V30 10965 H 1058.45 2.45451 -4.18189 0
M  V30 10966 N 1059.8 1.27835 0.921735 0
M  V30 10967 C 1060.73 1.136 2.04003 0
M  V30 10968 C 1061.71 0.0358756 1.70062 0
M  V30 10969 O 1062.89 0.211438 1.93046 0
M  V30 10970 C 1060.02 0.788697 3.38226 0
M  V30 10971 C 1058.98 1.84272 3.863 0
M  V30 10972 C 1058.3 1.34923 5.17397 0
M  V30 10973 C 1059.6 3.24788 4.09035 0
M  V30 10974 H 1061.3 2.07149 2.1617 0
M  V30 10975 H 1058.84 0.997349 1.0387 0
M  V30 10976 H 1060.8 0.675911 4.15944 0
M  V30 10977 H 1059.52 -0.182499 3.2609 0
M  V30 10978 H 1058.18 1.94451 3.1078 0
M  V30 10979 H 1057.83 0.367328 5.01657 0
M  V30 10980 H 1057.53 2.05397 5.50532 0
M  V30 10981 H 1059.05 1.24951 5.97678 0
M  V30 10982 H 1060.47 3.17575 4.77304 0
M  V30 10983 H 1058.86 3.93025 4.53488 0
M  V30 10984 H 1059.93 3.69398 3.14122 0
M  V30 10985 N 1061.28 -1.12907 1.09954 0
M  V30 10986 C 1062.21 -2.20585 0.765799 0
M  V30 10987 C 1063.19 -1.68117 -0.258989 0
M  V30 10988 O 1064.37 -1.93792 -0.125853 0
M  V30 10989 C 1061.5 -3.46772 0.191435 0
M  V30 10990 C 1060.46 -4.12363 1.14635 0
M  V30 10991 C 1059.78 -5.3294 0.433426 0
M  V30 10992 C 1061.08 -4.59073 2.49096 0
M  V30 10993 H 1062.78 -2.48759 1.66612 0
M  V30 10994 H 1060.32 -1.19563 0.802534 0
M  V30 10995 H 1062.27 -4.21365 -0.0541535 0
M  V30 10996 H 1061 -3.18011 -0.744101 0
M  V30 10997 H 1059.66 -3.39744 1.37731 0
M  V30 10998 H 1059.31 -5.00444 -0.506422 0
M  V30 10999 H 1059.01 -5.77772 1.07018 0
M  V30 11000 H 1060.53 -6.10284 0.196267 0
M  V30 11001 H 1061.94 -5.25063 2.30177 0
M  V30 11002 H 1060.34 -5.14665 3.0861 0
M  V30 11003 H 1061.41 -3.73313 3.0946 0
M  V30 11004 N 1062.75 -0.88754 -1.30232 0
M  V30 11005 C 1064.16 -0.55745 -1.78184 0
M  V30 11006 C 1064.52 0.926474 -1.72948 0
M  V30 11007 O 1063.64 1.72403 -1.3079 0
M  V30 11008 C 1064.24 -1.00512 -3.23547 0
M  V30 11009 C 1062.79 -0.726402 -3.69324 0
M  V30 11010 C 1061.94 -1.18666 -2.50627 0
M  V30 11011 H 1064.89 -1.07151 -1.17066 0
M  V30 11012 H 1064.91 -0.335185 -3.79021 0
M  V30 11013 H 1064.43 -2.08517 -3.27326 0
M  V30 11014 H 1062.53 0.341548 -3.71031 0
M  V30 11015 H 1062.64 -1.31575 -4.60679 0
M  V30 11016 H 1061 -0.605936 -2.47387 0
M  V30 11017 H 1061.79 -2.2745 -2.57141 0
M  V30 11018 N 1064.23 1.43628 -0.648757 0
M  V30 11019 C 1065.46 2.06732 -0.166284 0
M  V30 11020 C 1065.88 1.48281 1.15734 0
M  V30 11021 O 1065.24 0.591018 1.71396 0
M  V30 11022 C 1065.29 3.60502 -0.0838732 0
M  V30 11023 O 1064.39 4.01186 0.955185 0
M  V30 11024 H 1063.73 0.657479 -0.0928285 0
M  V30 11025 H 1066.26 1.84208 -0.890421 0
M  V30 11026 H 1066.27 4.07875 0.100923 0
M  V30 11027 H 1064.95 4.02424 -1.05014 0
M  V30 11028 H 1063.53 3.65412 0.743537 0
M  V30 11029 N 1065.71 0.390394 1.52688 0
M  V30 11030 C 1066.95 -0.191207 2.03504 0
M  V30 11031 C 1067.31 -1.43952 1.27051 0
M  V30 11032 O 1068.52 -2.09835 1.67996 0
M  V30 11033 C 1066.79 -0.451552 3.54536 0
M  V30 11034 S 1068.35 -1.00328 4.27176 0
M  V30 11035 H 1065.16 -0.0537587 0.708965 0
M  V30 11036 H 1067.77 0.538993 1.87923 0
M  V30 11037 H 1066.47 0.464061 4.07768 0
M  V30 11038 H 1066 -1.21015 3.74325 0
M  V30 11039 H 1068.02 -2.28555 4.40428 0
M  V30 11040 N 1067.19 -1.57141 0.120249 0
M  V30 11041 C 1068.43 -1.95527 -0.538245 0
M  V30 11042 C 1068.77 -1.00373 -1.6625 0
M  V30 11043 O 1068.04 -0.0411734 -1.94456 0
M  V30 11044 C 1068.33 -3.43843 -1.06976 0
M  V30 11045 C 1068.18 -4.49771 0.0511596 0
M  V30 11046 C 1069.5 -3.94035 -1.96022 0
M  V30 11047 H 1066.62 -0.710958 -0.194183 0
M  V30 11048 H 1069.26 -1.88986 0.196061 0
M  V30 11049 H 1067.41 -3.49548 -1.69553 0
M  V30 11050 H 1069.08 -4.56163 0.686503 0
M  V30 11051 H 1067.32 -4.27882 0.714127 0
M  V30 11052 H 1067.99 -5.50812 -0.361995 0
M  V30 11053 H 1070.47 -3.9064 -1.43315 0
M  V30 11054 H 1069.35 -4.98329 -2.3013 0
M  V30 11055 H 1069.61 -3.34803 -2.8872 0
M  V30 11056 N 1068.67 0.153526 -1.5685 0
M  V30 11057 C 1069.58 1.20932 -2.01029 0
M  V30 11058 C 1070.59 1.47401 -0.924598 0
M  V30 11059 O 1071.77 1.592 -1.23359 0
M  V30 11060 C 1068.83 2.52438 -2.37647 0
M  V30 11061 C 1067.89 2.33673 -3.60132 0
M  V30 11062 C 1067.13 3.58909 -3.94994 0
M  V30 11063 O 1067.35 4.64823 -3.30599 0
M  V30 11064 O 1066.28 3.5196 -4.8827 0
M  V30 11065 H 1070.11 0.864273 -2.91143 0
M  V30 11066 H 1067.7 0.361755 -1.44954 0
M  V30 11067 H 1069.58 3.29981 -2.62088 0
M  V30 11068 H 1068.25 2.86486 -1.5069 0
M  V30 11069 H 1067.16 1.54102 -3.40886 0
M  V30 11070 H 1068.49 2.04544 -4.47686 0
M  V30 11071 N 1070.14 1.51827 0.422667 0
M  V30 11072 C 1071.42 1.55772 1.18299 0
M  V30 11073 C 1071.8 0.330657 2.08494 0
M  V30 11074 O 1071.15 -0.683373 2.18042 0
M  V30 11075 C 1071.36 2.87941 1.97208 0
M  V30 11076 C 1072.71 3.4044 2.53744 0
M  V30 11077 O 1073.73 2.8959 2.07403 0
M  V30 11078 O 1072.59 4.29201 3.38303 0
M  V30 11079 H 1069.68 0.626889 0.539388 0
M  V30 11080 H 1072.23 1.64147 0.430545 0
M  V30 11081 H 1071 3.68702 1.31052 0
M  V30 11082 H 1070.63 2.82795 2.79486 0
M  V30 11083 N 1071.62 -0.679052 1.4222 0
M  V30 11084 C 1072.85 -1.47248 1.46058 0
M  V30 11085 C 1073.27 -1.87962 0.0720987 0
M  V30 11086 O 1072.63 -1.5572 -0.928488 0
M  V30 11087 C 1072.68 -2.70067 2.38948 0
M  V30 11088 O 1071.78 -3.68178 1.85791 0
M  V30 11089 H 1071.12 -0.442533 0.495036 0
M  V30 11090 H 1073.65 -0.833263 1.86863 0
M  V30 11091 H 1073.66 -3.18187 2.55385 0
M  V30 11092 H 1072.34 -2.39773 3.39826 0
M  V30 11093 H 1070.92 -3.2719 1.78889 0
M  V30 11094 N 1073.1 -1.28322 -0.914942 0
M  V30 11095 C 1074.35 -1.15578 -1.66642 0
M  V30 11096 C 1074.68 0.295209 -1.91943 0
M  V30 11097 O 1073.95 1.21482 -1.51896 0
M  V30 11098 C 1074.24 -1.9535 -3.02507 0
M  V30 11099 C 1074.09 -3.48504 -2.84367 0
M  V30 11100 C 1075.41 -1.76798 -4.03027 0
M  V30 11101 H 1072.53 -0.421234 -0.604757 0
M  V30 11102 H 1075.17 -1.57625 -1.06087 0
M  V30 11103 H 1073.32 -1.59619 -3.54195 0
M  V30 11104 H 1074.99 -3.94135 -2.39699 0
M  V30 11105 H 1073.24 -3.74198 -2.1945 0
M  V30 11106 H 1073.91 -3.99576 -3.80845 0
M  V30 11107 H 1076.38 -2.07977 -3.60395 0
M  V30 11108 H 1075.26 -2.34987 -4.96057 0
M  V30 11109 H 1075.52 -0.719162 -4.36211 0
M  V30 11110 N 1074.58 1.12322 -1.10551 0
M  V30 11111 C 1075.81 1.87679 -0.87087 0
M  V30 11112 C 1076.22 1.79711 0.578733 0
M  V30 11113 O 1075.58 1.17185 1.39907 0
M  V30 11114 C 1075.63 3.36846 -1.31213 0
M  V30 11115 O 1075.35 3.44626 -2.70489 0
M  V30 11116 C 1076.85 4.29138 -1.11156 0
M  V30 11117 H 1074.07 0.593788 -0.3125 0
M  V30 11118 H 1076.62 1.42116 -1.47048 0
M  V30 11119 H 1074.77 3.79948 -0.756169 0
M  V30 11120 H 1075.18 4.37441 -2.89389 0
M  V30 11121 H 1076.66 5.32082 -1.46944 0
M  V30 11122 H 1077.14 4.39171 -0.0502963 0
M  V30 11123 H 1077.74 3.91818 -1.65405 0
M  V30 11124 N 1076.06 0.894434 1.2976 0
M  V30 11125 C 1077.47 0.566892 1.77885 0
M  V30 11126 C 1077.82 -0.917289 1.73437 0
M  V30 11127 O 1076.94 -1.71707 1.31703 0
M  V30 11128 C 1077.54 1.02227 3.2301 0
M  V30 11129 C 1076.1 0.745978 3.68934 0
M  V30 11130 C 1075.24 1.19993 2.49994 0
M  V30 11131 H 1078.2 1.0777 1.16496 0
M  V30 11132 H 1078.22 0.355281 3.78838 0
M  V30 11133 H 1077.73 2.1025 3.26215 0
M  V30 11134 H 1075.83 -0.321866 3.71207 0
M  V30 11135 H 1075.94 1.34017 4.59974 0
M  V30 11136 H 1074.31 0.619047 2.47063 0
M  V30 11137 H 1075.09 2.28811 2.55931 0
M  V30 11138 N 1077.53 -1.43282 0.656365 0
M  V30 11139 C 1078.78 -2.00996 0.168354 0
M  V30 11140 C 1079.1 -1.52408 -1.22601 0
M  V30 11141 O 1080.3 -2.02417 -1.80941 0
M  V30 11142 C 1078.76 -3.5903 0.250161 0
M  V30 11143 C 1078.37 -4.1661 1.64742 0
M  V30 11144 C 1080.11 -4.24118 -0.180084 0
M  V30 11145 C 1078.02 -5.66948 1.68299 0
M  V30 11146 H 1076.95 -0.751674 0.0591769 0
M  V30 11147 H 1079.6 -1.64216 0.818859 0
M  V30 11148 H 1077.98 -3.93226 -0.467908 0
M  V30 11149 H 1079.15 -3.93908 2.3911 0
M  V30 11150 H 1077.47 -3.63905 2.02391 0
M  V30 11151 H 1080.07 -5.34419 -0.173401 0
M  V30 11152 H 1080.41 -3.98264 -1.21208 0
M  V30 11153 H 1080.94 -3.94816 0.486343 0
M  V30 11154 H 1077.68 -5.97573 2.69419 0
M  V30 11155 H 1077.2 -5.91697 0.98261 0
M  V30 11156 H 1078.88 -6.31041 1.42813 0
M  V30 11157 N 1079.01 -0.398486 -1.52479 0
M  V30 11158 C 1080.24 0.180557 -2.06111 0
M  V30 11159 C 1080.66 1.39751 -1.26945 0
M  V30 11160 O 1080.01 1.79699 -0.318497 0
M  V30 11161 C 1080.06 0.541573 -3.5742 0
M  V30 11162 O 1079.79 -0.627043 -4.33589 0
M  V30 11163 C 1081.29 1.17549 -4.27431 0
M  V30 11164 H 1078.51 0.0250754 -0.670531 0
M  V30 11165 H 1081.05 -0.566368 -1.96501 0
M  V30 11166 H 1079.21 1.23839 -3.67073 0
M  V30 11167 H 1079.62 -0.328233 -5.23472 0
M  V30 11168 H 1081.09 1.37839 -5.34513 0
M  V30 11169 H 1081.57 2.14553 -3.83228 0
M  V30 11170 H 1082.18 0.51918 -4.22119 0
M  V30 11171 N 1080.49 1.57075 -0.12858 0
M  V30 11172 C 1081.42 2.18833 0.814519 0
M  V30 11173 C 1082.4 1.13114 1.2704 0
M  V30 11174 O 1083.59 1.41387 1.33129 0
M  V30 11175 C 1080.72 2.79535 2.06101 0
M  V30 11176 C 1079.67 3.9092 1.74257 0
M  V30 11177 C 1079 4.38473 3.06015 0
M  V30 11178 C 1080.3 5.1257 1.00345 0
M  V30 11179 H 1081.99 2.97895 0.299862 0
M  V30 11180 H 1079.54 1.4329 0.14279 0
M  V30 11181 H 1081.49 3.21401 2.72543 0
M  V30 11182 H 1080.21 1.97777 2.59907 0
M  V30 11183 H 1078.87 3.49645 1.102 0
M  V30 11184 H 1078.52 3.53561 3.57776 0
M  V30 11185 H 1078.22 5.13591 2.85479 0
M  V30 11186 H 1079.75 4.82997 3.7356 0
M  V30 11187 H 1081.16 5.51395 1.56959 0
M  V30 11188 H 1079.56 5.93333 0.898693 0
M  V30 11189 H 1080.63 4.84899 -0.0081335 0
M  V30 11190 N 1081.97 -0.145205 1.5693 0
M  V30 11191 C 1083.39 -0.497905 1.51635 0
M  V30 11192 C 1083.59 -1.8328 0.837301 0
M  V30 11193 O 1082.64 -2.49172 0.408584 0
M  V30 11194 C 1083.95 -0.506557 2.96403 0
M  V30 11195 C 1085.5 -0.591947 3.07352 0
M  V30 11196 C 1085.98 -0.631244 4.53629 0
M  V30 11197 N 1087.47 -0.693417 4.5798 0
M  V30 11198 C 1088.2 -0.744836 5.68542 0
M  V30 11199 N 1087.7 -0.755492 6.88668 0
M  V30 11200 N 1089.49 -0.785854 5.5658 0
M  V30 11201 H 1081.64 0.729779 1.99469 0
M  V30 11202 H 1083.91 0.266295 0.90983 0
M  V30 11203 H 1083.61 0.406127 3.49347 0
M  V30 11204 H 1083.49 -1.34383 3.5245 0
M  V30 11205 H 1085.87 -1.49505 2.54425 0
M  V30 11206 H 1085.95 0.272507 2.54344 0
M  V30 11207 H 1085.6 0.26771 5.07194 0
M  V30 11208 H 1085.53 -1.51221 5.0442 0
M  V30 11209 H 1088.02 -0.692408 3.71503 0
M  V30 11210 H 1088.33 -0.796624 7.68683 0
M  V30 11211 H 1086.68 -0.723339 6.91226 0
M  V30 11212 H 1089.87 -0.774712 4.61645 0
M  V30 11213 H 1090.04 -0.822461 6.42759 0
M  V30 11214 N 1083.45 -1.52049 -0.414609 0
M  V30 11215 C 1084.38 -1.77956 -1.51175 0
M  V30 11216 C 1085.36 -0.630282 -1.57992 0
M  V30 11217 O 1086.54 -0.875324 -1.73354 0
M  V30 11218 C 1083.67 -1.92527 -2.89051 0
M  V30 11219 C 1082.63 -3.08096 -2.97087 0
M  V30 11220 C 1081.95 -3.07882 -4.37164 0
M  V30 11221 C 1083.25 -4.47656 -2.69075 0
M  V30 11222 H 1084.95 -2.69827 -1.29746 0
M  V30 11223 H 1082.49 -1.29839 -0.62273 0
M  V30 11224 H 1084.45 -2.09234 -3.65786 0
M  V30 11225 H 1083.17 -0.973235 -3.11762 0
M  V30 11226 H 1081.83 -2.91131 -2.22797 0
M  V30 11227 H 1081.48 -2.10411 -4.56877 0
M  V30 11228 H 1081.18 -3.85501 -4.43467 0
M  V30 11229 H 1082.7 -3.26712 -5.15841 0
M  V30 11230 H 1084.12 -4.64855 -3.35534 0
M  V30 11231 H 1082.51 -5.27151 -2.8676 0
M  V30 11232 H 1083.58 -4.56129 -1.64544 0
M  V30 11233 N 1084.93 0.6715 -1.42579 0
M  V30 11234 C 1085.87 1.80623 -1.46554 0
M  V30 11235 C 1086.87 1.65934 -0.340932 0
M  V30 11236 O 1088.07 1.72502 -0.514098 0
M  V30 11237 H 1084.45 0.595619 -0.459067 0
M  V30 11238 H 1086.42 1.74388 -2.42139 0
M  V30 11239 C 1085.17 3.18794 -1.38801 0
M  V30 11240 H 1084.49 3.30725 -2.24635 0
M  V30 11241 H 1085.93 3.98201 -1.45645 0
M  V30 11242 C 1084.39 3.36742 -0.103219 0
M  V30 11243 O 1084.92 3.92761 0.842715 0
M  V30 11244 N 1083.13 2.90594 -0.0193034 0
M  V30 11245 H 1082.67 2.45192 -0.78986 0
M  V30 11246 H 1082.63 3.0298 0.839686 0
M  V30 11247 N 1086.4 1.28806 0.908124 0
M  V30 11248 C 1087.65 1.16287 1.65781 0
M  V30 11249 C 1087.98 -0.287389 1.92365 0
M  V30 11250 O 1087.23 -1.22491 1.52625 0
M  V30 11251 C 1087.53 1.91267 3.01914 0
M  V30 11252 C 1087.2 3.41033 2.9497 0
M  V30 11253 C 1085.86 3.81879 2.92783 0
M  V30 11254 C 1088.21 4.36507 2.848 0
M  V30 11255 C 1085.54 5.16529 2.78235 0
M  V30 11256 C 1087.89 5.71237 2.71792 0
M  V30 11257 C 1086.56 6.11351 2.67967 0
M  V30 11258 H 1085.83 0.425526 0.606637 0
M  V30 11259 H 1088.47 1.59646 1.05762 0
M  V30 11260 H 1086.78 1.40474 3.65752 0
M  V30 11261 H 1088.48 1.78992 3.58835 0
M  V30 11262 H 1085.07 3.08561 2.97469 0
M  V30 11263 H 1089.25 4.05909 2.85573 0
M  V30 11264 H 1084.51 5.4673 2.73672 0
M  V30 11265 H 1088.68 6.44872 2.62892 0
M  V30 11266 H 1086.31 7.15637 2.56451 0
M  V30 11267 N 1087.88 -1.11734 1.11145 0
M  V30 11268 C 1089.11 -1.87215 0.880811 0
M  V30 11269 C 1089.52 -1.80016 -0.569195 0
M  V30 11270 O 1088.88 -1.17926 -1.39283 0
M  V30 11271 C 1088.93 -3.36146 1.32998 0
M  V30 11272 O 1088.65 -3.43187 2.72313 0
M  V30 11273 C 1090.15 -4.28542 1.1343 0
M  V30 11274 H 1087.37 -0.592123 0.315645 0
M  V30 11275 H 1089.92 -1.41335 1.478 0
M  V30 11276 H 1088.07 -3.79542 0.776308 0
M  V30 11277 H 1088.49 -4.359 2.91705 0
M  V30 11278 H 1089.96 -5.31295 1.49764 0
M  V30 11279 H 1090.44 -4.39138 0.0735859 0
M  V30 11280 H 1091.04 -3.90935 1.67481 0
M  V30 11281 N 1089.36 -0.901303 -1.29284 0
M  V30 11282 C 1090.29 -0.396909 -2.30102 0
M  V30 11283 C 1091.27 0.528919 -1.61668 0
M  V30 11284 O 1092.46 0.439306 -1.89166 0
M  V30 11285 C 1089.59 0.375006 -3.45269 0
M  V30 11286 C 1088.54 -0.46054 -4.25515 0
M  V30 11287 C 1087.87 0.438967 -5.32895 0
M  V30 11288 C 1089.17 -1.7113 -4.93469 0
M  V30 11289 H 1090.86 -1.23943 -2.72541 0
M  V30 11290 H 1088.41 -0.597428 -1.31022 0
M  V30 11291 H 1090.36 0.738622 -4.14876 0
M  V30 11292 H 1089.08 1.25132 -3.01678 0
M  V30 11293 H 1087.74 -0.80651 -3.57618 0
M  V30 11294 H 1087.39 1.31346 -4.85548 0
M  V30 11295 H 1087.09 -0.116406 -5.87485 0
M  V30 11296 H 1088.61 0.79874 -6.05353 0
M  V30 11297 H 1090.03 -1.41732 -5.55504 0
M  V30 11298 H 1088.42 -2.20811 -5.57999 0
M  V30 11299 H 1089.49 -2.44636 -4.18666 0
M  V30 11300 N 1090.84 1.42931 -0.663954 0
M  V30 11301 C 1092.08 2.01982 -0.182007 0
M  V30 11302 C 1092.42 1.52323 1.20463 0
M  V30 11303 O 1091.69 0.720834 1.80649 0
M  V30 11304 C 1091.97 3.59518 -0.204671 0
M  V30 11305 C 1091.83 4.19382 -1.62599 0
M  V30 11306 C 1093.15 4.37762 0.45308 0
M  V30 11307 H 1090.27 0.733892 -0.0676115 0
M  V30 11308 H 1092.91 1.70092 -0.84668 0
M  V30 11309 H 1091.06 3.86816 0.361295 0
M  V30 11310 H 1092.73 4.03076 -2.24337 0
M  V30 11311 H 1090.97 3.75623 -2.17001 0
M  V30 11312 H 1091.64 5.28496 -1.59362 0
M  V30 11313 H 1094.12 4.1609 -0.0285774 0
M  V30 11314 H 1093 5.47392 0.406538 0
M  V30 11315 H 1093.26 4.1482 1.52895 0
M  V30 11316 N 1092.32 0.406567 1.52266 0
M  V30 11317 C 1093.56 -0.169717 2.01386 0
M  V30 11318 C 1093.88 -1.45864 1.29417 0
M  V30 11319 O 1093.15 -1.9136 0.419327 0
M  V30 11320 H 1091.73 -0.0657075 0.744105 0
M  V30 11321 H 1094.4 0.542221 1.87206 0
M  V30 11322 H 1093.49 -0.367659 3.09927 0
M  V30 11323 N 1093.79 -1.57004 0.136909 0
M  V30 11324 C 1094.74 -2.16246 -0.806607 0
M  V30 11325 C 1095.71 -1.09246 -1.25118 0
M  V30 11326 O 1096.9 -1.3724 -1.32551 0
M  V30 11327 C 1094.04 -2.78031 -2.04433 0
M  V30 11328 C 1093.15 -3.99393 -1.64649 0
M  V30 11329 C 1092.28 -4.49208 -2.83524 0
M  V30 11330 C 1091.32 -5.63059 -2.40064 0
M  V30 11331 N 1090.46 -6.07537 -3.51913 0
M  V30 11332 H 1095.3 -2.9654 -0.294596 0
M  V30 11333 H 1092.84 -1.46491 -0.133705 0
M  V30 11334 H 1094.8 -3.11992 -2.76978 0
M  V30 11335 H 1093.43 -2.00398 -2.53062 0
M  V30 11336 H 1092.48 -3.71477 -0.819077 0
M  V30 11337 H 1093.79 -4.81904 -1.28723 0
M  V30 11338 H 1092.94 -4.85171 -3.64271 0
M  V30 11339 H 1091.68 -3.65683 -3.22688 0
M  V30 11340 H 1090.69 -5.26682 -1.57754 0
M  V30 11341 H 1091.91 -6.48362 -2.01997 0
M  V30 11342 H 1089.86 -5.2695 -3.90717 0
M  V30 11343 H 1089.78 -6.84949 -3.1997 0
M  V30 11344 H 1091.04 -6.48143 -4.33048 0
M  V30 11345 N 1095.27 0.136881 -1.57004 0
M  V30 11346 C 1096.68 0.695911 -1.73245 0
M  V30 11347 C 1097.03 1.8118 -0.75288 0
M  V30 11348 O 1096.16 2.16258 0.0782477 0
M  V30 11349 C 1096.75 1.26914 -3.14131 0
M  V30 11350 C 1095.31 1.77463 -3.31939 0
M  V30 11351 C 1094.46 0.667128 -2.69156 0
M  V30 11352 H 1097.41 -0.0888841 -1.58451 0
M  V30 11353 H 1097.43 2.13892 -3.14691 0
M  V30 11354 H 1096.94 0.456754 -3.85403 0
M  V30 11355 H 1095.05 2.61236 -2.65681 0
M  V30 11356 H 1095.16 1.89638 -4.39971 0
M  V30 11357 H 1093.52 1.09629 -2.29899 0
M  V30 11358 H 1094.31 -0.13398 -3.43038 0
M  V30 11359 N 1096.75 1.52266 0.40654 0
M  V30 11360 C 1097.68 1.78755 1.50229 0
M  V30 11361 C 1098.66 0.638652 1.57655 0
M  V30 11362 O 1099.85 0.884505 1.72888 0
M  V30 11363 C 1096.98 1.94057 2.88026 0
M  V30 11364 C 1095.93 3.09667 2.95449 0
M  V30 11365 C 1095.26 3.10196 4.35526 0
M  V30 11366 C 1096.56 4.49077 2.66697 0
M  V30 11367 H 1098.25 2.70511 1.28313 0
M  V30 11368 H 1095.8 1.30167 0.615836 0
M  V30 11369 H 1097.75 2.11171 3.64671 0
M  V30 11370 H 1096.47 0.989755 3.11242 0
M  V30 11371 H 1095.13 2.92308 2.2125 0
M  V30 11372 H 1094.78 2.12831 4.55754 0
M  V30 11373 H 1094.48 3.87847 4.41416 0
M  V30 11374 H 1096 3.29443 5.14101 0
M  V30 11375 H 1097.42 4.66628 3.33064 0
M  V30 11376 H 1095.82 5.28665 2.8396 0
M  V30 11377 H 1096.89 4.56995 1.62122 0
M  V30 11378 N 1098.23 -0.663929 1.42933 0
M  V30 11379 C 1099.16 -1.78899 1.50058 0
M  V30 11380 C 1100.14 -1.66329 0.356164 0
M  V30 11381 O 1101.32 -1.85587 0.571944 0
M  V30 11382 C 1098.45 -3.17265 1.41281 0
M  V30 11383 C 1097.41 -3.44584 2.53861 0
M  V30 11384 C 1096.73 -4.82638 2.3014 0
M  V30 11385 C 1098.03 -3.40394 3.96143 0
M  V30 11386 H 1099.73 -1.73194 2.44222 0
M  V30 11387 H 1097.27 -0.83182 1.17545 0
M  V30 11388 H 1099.23 -3.95715 1.44872 0
M  V30 11389 H 1097.95 -3.23675 0.43616 0
M  V30 11390 H 1096.61 -2.685 2.49606 0
M  V30 11391 H 1096.26 -4.85711 1.30743 0
M  V30 11392 H 1095.96 -5.01879 3.056 0
M  V30 11393 H 1097.48 -5.63359 2.35497 0
M  V30 11394 H 1098.9 -4.08796 4.01943 0
M  V30 11395 H 1097.29 -3.7117 4.71543 0
M  V30 11396 H 1098.36 -2.38767 4.22041 0
M  V30 11397 N 1099.71 -1.29285 -0.901281 0
M  V30 11398 C 1100.67 -1.14283 -1.98676 0
M  V30 11399 C 1101.67 -0.0787641 -1.60607 0
M  V30 11400 O 1102.86 -0.325574 -1.71131 0
M  V30 11401 C 1099.99 -0.747279 -3.32609 0
M  V30 11402 H 1101.18 -2.10701 -2.13413 0
M  V30 11403 H 1098.74 -1.12449 -1.08558 0
M  V30 11404 H 1099.47 0.217111 -3.23572 0
M  V30 11405 H 1099.26 -1.51608 -3.61604 0
M  V30 11406 H 1100.75 -0.665322 -4.12266 0
M  V30 11407 N 1101.18 1.11143 -1.11736 0
M  V30 11408 C 1102.43 1.82948 -0.868127 0
M  V30 11409 C 1102.76 1.84813 0.606182 0
M  V30 11410 O 1102.01 1.29901 1.4637 0
M  V30 11411 C 1102.31 3.29733 -1.3788 0
M  V30 11412 C 1101.98 3.48025 -2.86687 0
M  V30 11413 C 1100.64 3.52725 -3.2732 0
M  V30 11414 C 1102.99 3.54024 -3.82513 0
M  V30 11415 C 1100.32 3.60983 -4.62502 0
M  V30 11416 C 1102.67 3.63814 -5.17515 0
M  V30 11417 C 1101.34 3.66776 -5.57702 0
M  V30 11418 H 1100.61 0.669452 -0.31767 0
M  V30 11419 H 1103.25 1.31057 -1.3963 0
M  V30 11420 H 1101.56 3.8414 -0.77093 0
M  V30 11421 H 1103.26 3.83787 -1.16225 0
M  V30 11422 H 1099.85 3.45039 -2.54256 0
M  V30 11423 H 1104.03 3.4965 -3.52219 0
M  V30 11424 H 1099.29 3.61554 -4.9304 0
M  V30 11425 H 1103.46 3.674 -5.916 0
M  V30 11426 H 1101.09 3.72927 -6.62442 0
M  V30 11427 N 1102.66 0.908147 1.28804 0
M  V30 11428 C 1104.08 0.605474 1.47669 0
M  V30 11429 C 1104.28 -0.850759 1.82659 0
M  V30 11430 O 1103.33 -1.63029 1.92816 0
M  V30 11431 C 1104.65 1.53856 2.58358 0
M  V30 11432 C 1106.2 1.54467 2.7223 0
M  V30 11433 C 1106.67 2.46424 3.86056 0
M  V30 11434 N 1108.16 2.44519 3.93402 0
M  V30 11435 C 1108.9 3.12371 4.80845 0
M  V30 11436 N 1108.39 3.89533 5.72919 0
M  V30 11437 N 1110.19 3.01486 4.74407 0
M  V30 11438 H 1102.34 1.84988 1.04371 0
M  V30 11439 H 1104.6 0.793132 0.519274 0
M  V30 11440 H 1104.31 2.57651 2.39393 0
M  V30 11441 H 1104.18 1.26543 3.5534 0
M  V30 11442 H 1106.57 0.514127 2.90587 0
M  V30 11443 H 1106.65 1.85821 1.75796 0
M  V30 11444 H 1106.29 3.49577 3.68454 0
M  V30 11445 H 1106.22 2.12375 4.81876 0
M  V30 11446 H 1108.71 1.88464 3.27551 0
M  V30 11447 H 1109.03 4.3834 6.36457 0
M  V30 11448 H 1107.37 3.93639 5.72777 0
M  V30 11449 H 1110.56 2.40713 4.01466 0
M  V30 11450 H 1110.73 3.5464 5.42342 0
M  V30 11451 N 1104.14 -1.42577 0.671525 0
M  V30 11452 C 1105.09 -2.32591 -0.0205354 0
M  V30 11453 C 1106.08 -1.4964 -0.793993 0
M  V30 11454 O 1107.29 -1.65733 -0.702327 0
M  V30 11455 H 1103.66 -0.75157 -0.0254344 0
M  V30 11456 H 1105.63 -2.88662 0.756082 0
M  V30 11457 C 1104.38 -3.34175 -0.960316 0
M  V30 11458 H 1103.71 -3.98041 -0.374577 0
M  V30 11459 H 1105.15 -3.99752 -1.4133 0
M  V30 11460 C 1103.61 -2.66184 -2.06513 0
M  V30 11461 O 1104.14 -2.49125 -3.15119 0
M  V30 11462 N 1102.34 -2.25261 -1.83591 0
M  V30 11463 H 1101.89 -2.39336 -0.952689 0
M  V30 11464 H 1101.85 -1.80101 -2.57703 0
M  V30 11465 N 1105.62 -0.414636 -1.52048 0
M  V30 11466 C 1106.55 0.399119 -2.30064 0
M  V30 11467 C 1107.53 1.04126 -1.34506 0
M  V30 11468 O 1108.71 1.04923 -1.63416 0
M  V30 11469 C 1105.84 1.51305 -3.12608 0
M  V30 11470 C 1104.8 0.995621 -4.16259 0
M  V30 11471 C 1104.12 2.20357 -4.87183 0
M  V30 11472 C 1105.42 0.0458178 -5.2228 0
M  V30 11473 H 1107.12 -0.251879 -2.98339 0
M  V30 11474 H 1104.66 -0.122579 -1.43477 0
M  V30 11475 H 1106.62 2.08936 -3.65956 0
M  V30 11476 H 1105.34 2.19201 -2.42113 0
M  V30 11477 H 1104 0.441676 -3.6393 0
M  V30 11478 H 1103.65 2.8682 -4.13211 0
M  V30 11479 H 1103.35 1.86385 -5.57256 0
M  V30 11480 H 1104.87 2.78584 -5.43345 0
M  V30 11481 H 1106.29 0.531102 -5.70835 0
M  V30 11482 H 1104.68 -0.20536 -5.99749 0
M  V30 11483 H 1105.75 -0.897807 -4.76516 0
M  V30 11484 N 1107.1 1.56929 -0.145233 0
M  V30 11485 C 1108.51 1.58196 0.211194 0
M  V30 11486 C 1108.71 1.15941 1.64803 0
M  V30 11487 O 1107.77 0.858888 2.37443 0
M  V30 11488 C 1109.08 3.00665 -0.0459569 0
M  V30 11489 C 1110.63 3.12995 0.0178913 0
M  V30 11490 C 1111.1 4.5751 -0.211905 0
M  V30 11491 N 1112.6 4.62928 -0.158772 0
M  V30 11492 C 1113.33 5.72555 -0.311111 0
M  V30 11493 N 1112.83 6.90838 -0.521074 0
M  V30 11494 N 1114.62 5.61549 -0.248838 0
M  V30 11495 H 1106.77 1.8269 -1.08342 0
M  V30 11496 H 1109.03 0.845514 -0.428731 0
M  V30 11497 H 1108.74 3.35962 -1.0403 0
M  V30 11498 H 1108.61 3.71125 0.674246 0
M  V30 11499 H 1111 2.7754 1.00278 0
M  V30 11500 H 1111.08 2.45025 -0.734612 0
M  V30 11501 H 1110.73 4.93669 -1.19389 0
M  V30 11502 H 1110.66 5.23604 0.560901 0
M  V30 11503 H 1113.15 3.779 -0.00107283 0
M  V30 11504 H 1113.46 7.70248 -0.62747 0
M  V30 11505 H 1111.8 6.92761 -0.557374 0
M  V30 11506 H 1115 4.68022 -0.0855821 0
M  V30 11507 H 1115.17 6.46937 -0.370997 0
M  V30 11508 N 1108.58 -0.128553 1.57075 0
M  V30 11509 C 1109.99 -0.686713 1.73612 0
M  V30 11510 C 1110.34 -1.80778 0.762478 0
M  V30 11511 O 1109.46 -2.16297 -0.0667779 0
M  V30 11512 C 1110.06 -1.25246 3.148 0
M  V30 11513 C 1108.62 -1.757 3.32876 0
M  V30 11514 C 1107.76 -0.652844 2.69506 0
M  V30 11515 H 1110.71 0.0972859 1.58402 0
M  V30 11516 H 1110.74 -2.1222 3.15821 0
M  V30 11517 H 1110.25 -0.436308 3.8564 0
M  V30 11518 H 1108.35 -2.59824 2.67063 0
M  V30 11519 H 1108.46 -1.87302 4.4097 0
M  V30 11520 H 1106.83 -1.08408 2.30477 0
M  V30 11521 H 1107.61 0.15217 3.42963 0
M  V30 11522 N 1110.05 -1.5248 -0.398459 0
M  V30 11523 C 1110.99 -1.71321 -1.50746 0
M  V30 11524 C 1111.96 -0.5609 -1.52619 0
M  V30 11525 O 1113.15 -0.789557 -1.71167 0
M  V30 11526 C 1110.28 -1.76223 -2.89246 0
M  V30 11527 C 1109.32 -2.97878 -3.05239 0
M  V30 11528 S 1110.15 -4.58031 -2.77431 0
M  V30 11529 C 1111.31 -4.65735 -4.18141 0
M  V30 11530 H 1111.54 -2.65117 -1.34538 0
M  V30 11531 H 1109.08 -1.42653 -0.590727 0
M  V30 11532 H 1111.03 -1.79733 -3.69062 0
M  V30 11533 H 1109.7 -0.83536 -3.02788 0
M  V30 11534 H 1108.89 -2.97821 -4.06594 0
M  V30 11535 H 1108.49 -2.92311 -2.33304 0
M  V30 11536 H 1110.78 -4.43768 -5.11934 0
M  V30 11537 H 1111.73 -5.67709 -4.23217 0
M  V30 11538 H 1112.13 -3.94664 -4.03609 0
M  V30 11539 N 1111.53 0.65634 -1.43283 0
M  V30 11540 C 1112.46 1.78101 -1.51004 0
M  V30 11541 C 1113.44 1.66138 -0.36498 0
M  V30 11542 O 1114.63 1.85281 -0.581778 0
M  V30 11543 C 1111.76 3.16511 -1.42961 0
M  V30 11544 C 1110.71 3.43233 -2.55685 0
M  V30 11545 C 1110.04 4.81411 -2.32696 0
M  V30 11546 C 1111.34 3.38288 -3.97943 0
M  V30 11547 H 1113.03 1.71896 -2.45137 0
M  V30 11548 H 1110.58 0.825575 -1.17984 0
M  V30 11549 H 1112.53 3.94941 -1.46968 0
M  V30 11550 H 1111.25 3.23439 -0.45332 0
M  V30 11551 H 1109.91 2.67173 -2.51026 0
M  V30 11552 H 1109.56 4.85011 -1.33317 0
M  V30 11553 H 1109.26 5.00251 -3.08257 0
M  V30 11554 H 1110.79 5.62102 -2.38481 0
M  V30 11555 H 1112.2 4.06659 -4.04106 0
M  V30 11556 H 1110.6 3.68664 -4.73505 0
M  V30 11557 H 1111.67 2.36525 -4.23301 0
M  V30 11558 N 1113.01 1.29761 0.894412 0
M  V30 11559 C 1113.97 1.15335 1.98067 0
M  V30 11560 C 1114.97 0.0872804 1.60563 0
M  V30 11561 O 1116.16 0.334645 1.70955 0
M  V30 11562 C 1113.29 0.764907 3.32208 0
M  V30 11563 H 1114.49 2.11829 2.12293 0
M  V30 11564 H 1112.04 1.13023 1.0796 0
M  V30 11565 H 1112.78 -0.199948 3.23683 0
M  V30 11566 H 1112.56 1.53523 3.60795 0
M  V30 11567 H 1114.05 0.687176 4.11907 0
M  V30 11568 N 1114.49 -1.10549 1.12324 0
M  V30 11569 C 1115.45 -2.15039 0.793156 0
M  V30 11570 C 1116.45 -1.59651 -0.19192 0
M  V30 11571 O 1117.64 -1.74167 0.0337262 0
M  V30 11572 C 1114.77 -3.40433 0.17842 0
M  V30 11573 H 1115.97 -2.4575 1.71892 0
M  V30 11574 H 1113.52 -1.25892 0.926333 0
M  V30 11575 H 1114.25 -3.15338 -0.757122 0
M  V30 11576 H 1114.04 -3.81921 0.887645 0
M  V30 11577 H 1115.53 -4.17584 -0.0360724 0
M  V30 11578 N 1115.97 -0.914965 -1.28321 0
M  V30 11579 C 1117.24 -0.46764 -1.89928 0
M  V30 11580 C 1117.62 1.05364 -1.82925 0
M  V30 11581 O 1116.97 1.90223 -1.26599 0
M  V30 11582 C 1117.18 -0.999372 -3.34385 0
M  V30 11583 C 1118.53 -1.0522 -4.11356 0
M  V30 11584 O 1119.55 -0.9481 -3.4335 0
M  V30 11585 O 1118.41 -1.21085 -5.32917 0
M  V30 11586 H 1115.51 -0.148398 -0.813577 0
M  V30 11587 H 1118.05 -1.00583 -1.36679 0
M  V30 11588 H 1116.82 -2.04333 -3.33712 0
M  V30 11589 H 1116.45 -0.442083 -3.95135 0
M  V30 11590 N 1117.44 1.42219 -0.679077 0
M  V30 11591 C 1118.41 2.29197 -0.0125475 0
M  V30 11592 C 1119.41 1.43544 0.724691 0
M  V30 11593 O 1120.6 1.64884 0.562052 0
M  V30 11594 C 1117.73 3.26122 0.992846 0
M  V30 11595 H 1118.92 2.89629 -0.778154 0
M  V30 11596 H 1116.47 1.4993 -0.44166 0
M  V30 11597 H 1117.21 2.70637 1.78679 0
M  V30 11598 H 1116.99 3.89302 0.467544 0
M  V30 11599 H 1118.48 3.91339 1.45751 0
M  V30 11600 N 1118.92 0.422693 1.51826 0
M  V30 11601 C 1119.85 -0.43167 2.25098 0
M  V30 11602 C 1120.87 -0.998758 1.28564 0
M  V30 11603 O 1122.06 -0.89539 1.54418 0
M  V30 11604 C 1119.16 -1.61426 2.97985 0
M  V30 11605 C 1118.33 -1.16866 4.21499 0
M  V30 11606 C 1117.39 -2.2197 4.77091 0
M  V30 11607 O 1116.41 -1.82004 5.39317 0
M  V30 11608 N 1117.62 -3.54293 4.59844 0
M  V30 11609 H 1120.38 0.196255 2.99057 0
M  V30 11610 H 1117.94 0.25079 1.59946 0
M  V30 11611 H 1119.93 -2.31331 3.32066 0
M  V30 11612 H 1118.5 -2.14783 2.27128 0
M  V30 11613 H 1117.72 -0.297217 3.93078 0
M  V30 11614 H 1119.01 -0.848106 5.01682 0
M  V30 11615 H 1118.41 -3.89505 4.10247 0
M  V30 11616 H 1116.97 -4.20135 4.98327 0
M  V30 11617 N 1120.4 -1.5685 0.153553 0
M  V30 11618 C 1121.82 -1.58306 -0.202801 0
M  V30 11619 C 1122.02 -1.16813 -1.64186 0
M  V30 11620 O 1121.07 -0.871468 -2.36985 0
M  V30 11621 C 1122.38 -3.00636 0.0619012 0
M  V30 11622 C 1123.93 -3.13 -0.00129219 0
M  V30 11623 C 1124.41 -4.57391 0.236164 0
M  V30 11624 N 1125.9 -4.62837 0.18332 0
M  V30 11625 C 1126.63 -5.72382 0.341471 0
M  V30 11626 N 1126.13 -6.90552 0.557704 0
M  V30 11627 N 1127.92 -5.61409 0.278615 0
M  V30 11628 H 1120.07 -1.82113 1.09309 0
M  V30 11629 H 1122.34 -0.843228 0.433209 0
M  V30 11630 H 1122.04 -3.35406 1.0581 0
M  V30 11631 H 1121.92 -3.71477 -0.654555 0
M  V30 11632 H 1124.3 -2.78068 -0.98805 0
M  V30 11633 H 1124.38 -2.44632 0.747596 0
M  V30 11634 H 1124.03 -4.93029 1.22005 0
M  V30 11635 H 1123.96 -5.23894 -0.533125 0
M  V30 11636 H 1126.45 -3.77894 0.0211138 0
M  V30 11637 H 1126.76 -7.69905 0.66831 0
M  V30 11638 H 1125.11 -6.92456 0.594105 0
M  V30 11639 H 1128.3 -4.6797 0.110401 0
M  V30 11640 H 1128.47 -6.46731 0.4053 0
M  V30 11641 N 1121.88 0.120221 -1.57141 0
M  V30 11642 C 1123.11 0.841219 -1.88698 0
M  V30 11643 C 1123.52 1.7401 -0.74277 0
M  V30 11644 O 1122.86 1.81308 0.295497 0
M  V30 11645 C 1122.92 1.72781 -3.15257 0
M  V30 11646 C 1122.58 1.00336 -4.45849 0
M  V30 11647 C 1123.58 0.344734 -5.18756 0
M  V30 11648 C 1121.27 0.984899 -4.9255 0
M  V30 11649 C 1123.26 -0.322664 -6.36583 0
M  V30 11650 C 1120.95 0.313702 -6.10294 0
M  V30 11651 C 1121.95 -0.338926 -6.82159 0
M  V30 11652 O 1121.63 -0.999416 -7.97663 0
M  V30 11653 H 1121.37 0.247195 -0.629182 0
M  V30 11654 H 1123.92 0.109542 -2.05108 0
M  V30 11655 H 1122.15 2.5011 -2.94927 0
M  V30 11656 H 1123.84 2.32313 -3.32845 0
M  V30 11657 H 1124.6 0.350623 -4.83731 0
M  V30 11658 H 1120.48 1.4823 -4.36519 0
M  V30 11659 H 1124.03 -0.832643 -6.92613 0
M  V30 11660 H 1119.92 0.305572 -6.44776 0
M  V30 11661 H 1120.69 -0.90377 -8.13495 0
M  V30 11662 N 1123.36 1.52689 0.390367 0
M  V30 11663 C 1124.6 1.67666 1.13553 0
M  V30 11664 C 1124.93 0.415903 1.90001 0
M  V30 11665 O 1124.19 -0.601664 1.86222 0
M  V30 11666 C 1124.49 2.86177 2.14096 0
M  V30 11667 C 1124.15 4.23671 1.54316 0
M  V30 11668 C 1122.81 4.61066 1.37739 0
M  V30 11669 C 1125.17 5.09278 1.1084 0
M  V30 11670 C 1122.49 5.81727 0.76231 0
M  V30 11671 C 1124.85 6.30562 0.507433 0
M  V30 11672 C 1123.51 6.66689 0.328945 0
M  V30 11673 H 1122.78 0.613533 0.415521 0
M  V30 11674 H 1125.43 1.8683 0.420339 0
M  V30 11675 H 1123.73 2.61424 2.9183 0
M  V30 11676 H 1125.43 2.9496 2.7166 0
M  V30 11677 H 1122.02 3.94214 1.68207 0
M  V30 11678 H 1126.2 4.80957 1.2245 0
M  V30 11679 H 1121.46 6.08327 0.612208 0
M  V30 11680 H 1125.63 6.96211 0.162248 0
M  V30 11681 H 1123.26 7.60052 -0.149748 0
M  V30 11682 N 1124.83 -0.648732 1.43629 0
M  V30 11683 C 1126.06 -1.4362 1.48932 0
M  V30 11684 C 1126.48 -1.88487 0.108599 0
M  V30 11685 O 1125.83 -1.59768 -0.882066 0
M  V30 11686 C 1125.89 -2.66822 2.43903 0
M  V30 11687 O 1125.61 -2.2383 3.76606 0
M  V30 11688 C 1127.11 -3.60134 2.58493 0
M  V30 11689 H 1124.33 -0.441055 0.505679 0
M  V30 11690 H 1126.87 -0.794936 1.88417 0
M  V30 11691 H 1125.03 -3.27079 2.07601 0
M  V30 11692 H 1125.44 -3.03575 4.27718 0
M  V30 11693 H 1126.91 -4.43234 3.29011 0
M  V30 11694 H 1127.39 -4.07779 1.63134 0
M  V30 11695 H 1128 -3.05756 2.95624 0
M  V30 11696 N 1126.31 -1.30234 -0.887518 0
M  V30 11697 C 1127.28 -1.16384 -1.97452 0
M  V30 11698 C 1128.28 -0.0957942 -1.60514 0
M  V30 11699 O 1129.47 -0.343706 -1.70776 0
M  V30 11700 C 1126.6 -0.782514 -3.31797 0
M  V30 11701 H 1127.79 -2.12952 -2.11167 0
M  V30 11702 H 1125.34 -1.13594 -1.07359 0
M  V30 11703 H 1126.08 0.18278 -3.23785 0
M  V30 11704 H 1125.86 -1.55434 -3.59976 0
M  V30 11705 H 1127.35 -0.709011 -4.11537 0
M  V30 11706 N 1127.79 1.09952 -1.12909 0
M  V30 11707 C 1129.02 1.8633 -0.910821 0
M  V30 11708 C 1129.44 1.80335 0.534874 0
M  V30 11709 O 1128.8 1.1769 1.37908 0
M  V30 11710 C 1128.85 3.32462 -1.39648 0
M  V30 11711 O 1127.95 4.08327 -0.578192 0
M  V30 11712 H 1127.29 0.577984 -0.32685 0
M  V30 11713 H 1129.82 1.38883 -1.50242 0
M  V30 11714 H 1129.83 3.83311 -1.39774 0
M  V30 11715 H 1128.51 3.36141 -2.44913 0
M  V30 11716 H 1127.08 3.67291 -0.644347 0
M  V30 11717 N 1129.27 0.921757 1.27833 0
M  V30 11718 C 1130.2 0.433466 2.29441 0
M  V30 11719 C 1131.18 -0.503133 1.62489 0
M  V30 11720 O 1132.36 -0.409156 1.89841 0
M  V30 11721 C 1129.49 -0.320029 3.45822 0
M  V30 11722 C 1128.45 0.528178 4.24728 0
M  V30 11723 C 1127.77 -0.354132 5.33526 0
M  V30 11724 C 1129.07 1.78959 4.90684 0
M  V30 11725 H 1130.77 1.28263 2.70535 0
M  V30 11726 H 1128.31 0.618197 1.30055 0
M  V30 11727 H 1130.27 -0.672526 4.15999 0
M  V30 11728 H 1128.99 -1.20317 3.0363 0
M  V30 11729 H 1127.65 0.863302 3.5629 0
M  V30 11730 H 1127.3 -1.23605 4.87576 0
M  V30 11731 H 1127 0.209855 5.87225 0
M  V30 11732 H 1128.52 -0.702333 6.06547 0
M  V30 11733 H 1129.94 1.50552 5.53179 0
M  V30 11734 H 1128.33 2.29661 5.54415 0
M  V30 11735 H 1129.4 2.51265 4.14721 0
M  V30 11736 N 1130.75 -1.41857 0.686609 0
M  V30 11737 C 1132.16 -1.84439 0.289662 0
M  V30 11738 C 1132.51 -1.57462 -1.17047 0
M  V30 11739 O 1131.63 -1.04046 -1.89745 0
M  V30 11740 C 1132.23 -3.34802 0.518948 0
M  V30 11741 C 1130.79 -3.75988 0.176007 0
M  V30 11742 C 1129.93 -2.65339 0.805632 0
M  V30 11743 H 1132.89 -1.31536 0.88792 0
M  V30 11744 H 1132.91 -3.79833 -0.225209 0
M  V30 11745 H 1132.42 -3.54405 1.58173 0
M  V30 11746 H 1130.52 -3.61989 -0.882865 0
M  V30 11747 H 1130.63 -4.75009 0.624772 0
M  V30 11748 H 1129 -2.53605 0.235966 0
M  V30 11749 H 1129.78 -2.87762 1.8721 0
M  V30 11750 N 1132.22 -0.430739 -1.51599 0
M  V30 11751 C 1133.47 0.137929 -2.0203 0
M  V30 11752 C 1133.8 1.43287 -1.31526 0
M  V30 11753 O 1133.05 1.9121 -0.416814 0
M  V30 11754 C 1133.35 0.410694 -3.55032 0
M  V30 11755 C 1133.02 -0.797634 -4.43789 0
M  V30 11756 C 1131.68 -1.12902 -4.67768 0
M  V30 11757 C 1134.03 -1.60403 -4.95904 0
M  V30 11758 C 1131.36 -2.2676 -5.41107 0
M  V30 11759 C 1133.71 -2.73354 -5.70491 0
M  V30 11760 C 1132.38 -3.06955 -5.92735 0
M  V30 11761 H 1131.65 0.0504718 -0.739279 0
M  V30 11762 H 1134.29 -0.576585 -1.82614 0
M  V30 11763 H 1132.6 1.20703 -3.72744 0
M  V30 11764 H 1134.3 0.864006 -3.91581 0
M  V30 11765 H 1130.89 -0.529397 -4.25318 0
M  V30 11766 H 1135.07 -1.36122 -4.77268 0
M  V30 11767 H 1130.33 -2.53114 -5.56546 0
M  V30 11768 H 1134.5 -3.36213 -6.09864 0
M  V30 11769 H 1132.13 -3.95293 -6.49344 0
M  V30 11770 N 1133.7 1.56767 -0.161869 0
M  V30 11771 C 1134.61 2.21083 0.784814 0
M  V30 11772 C 1135.63 1.19959 1.26039 0
M  V30 11773 O 1136.8 1.52588 1.31449 0
M  V30 11774 C 1133.87 2.83153 2.00063 0
M  V30 11775 C 1132.93 3.9945 1.57285 0
M  V30 11776 C 1132.16 4.5855 2.7307 0
M  V30 11777 O 1132.39 4.16534 3.89686 0
M  V30 11778 O 1131.32 5.48575 2.47688 0
M  V30 11779 H 1135.15 3.02522 0.267243 0
M  V30 11780 H 1132.73 1.49255 0.0658783 0
M  V30 11781 H 1134.61 3.22546 2.71186 0
M  V30 11782 H 1133.29 2.04718 2.50744 0
M  V30 11783 H 1132.2 3.64745 0.831393 0
M  V30 11784 H 1133.53 4.7945 1.11304 0
M  V30 11785 N 1135.18 -0.111886 1.57202 0
M  V30 11786 C 1136.13 -1.13688 2.00858 0
M  V30 11787 C 1137.1 -1.40752 0.881939 0
M  V30 11788 O 1138.28 -1.52498 1.14669 0
M  V30 11789 C 1135.42 -2.45641 2.42393 0
M  V30 11790 C 1134.54 -2.25452 3.68504 0
M  V30 11791 C 1133.67 -3.50686 3.9899 0
M  V30 11792 C 1132.71 -3.25685 5.18262 0
M  V30 11793 N 1131.85 -4.4314 5.44583 0
M  V30 11794 H 1136.69 -0.757611 2.88209 0
M  V30 11795 H 1134.22 -0.362582 1.42561 0
M  V30 11796 H 1136.18 -3.22627 2.64514 0
M  V30 11797 H 1134.81 -2.81447 1.58074 0
M  V30 11798 H 1133.86 -1.39349 3.53958 0
M  V30 11799 H 1135.18 -2.0296 4.55641 0
M  V30 11800 H 1134.33 -4.36087 4.21797 0
M  V30 11801 H 1133.07 -3.76216 3.10343 0
M  V30 11802 H 1132.07 -2.38675 4.95292 0
M  V30 11803 H 1133.3 -3.01518 6.08493 0
M  V30 11804 H 1131.24 -4.68778 4.58893 0
M  V30 11805 H 1131.16 -4.23778 6.26058 0
M  V30 11806 H 1132.43 -5.29654 5.71915 0
M  V30 11807 N 1136.66 -1.52894 -0.382264 0
M  V30 11808 C 1137.61 -1.78799 -1.48774 0
M  V30 11809 C 1138.6 -0.65624 -1.56173 0
M  V30 11810 O 1139.81 -0.838856 -1.59258 0
M  V30 11811 H 1136.18 -0.565855 -0.49529 0
M  V30 11812 H 1138.15 -2.7136 -1.24122 0
M  V30 11813 C 1136.9 -1.97987 -2.85826 0
M  V30 11814 H 1136.22 -2.84505 -2.80886 0
M  V30 11815 H 1137.66 -2.20099 -3.62398 0
M  V30 11816 C 1136.12 -0.75427 -3.28348 0
M  V30 11817 O 1136.65 0.0650749 -4.01647 0
M  V30 11818 N 1134.86 -0.582457 -2.84703 0
M  V30 11819 H 1134.41 -1.25034 -2.2522 0
M  V30 11820 H 1134.36 0.236208 -3.13511 0
M  V30 11821 N 1138.14 0.641106 -1.43971 0
M  V30 11822 C 1139.38 1.41251 -1.47742 0
M  V30 11823 C 1139.74 1.91722 -0.103353 0
M  V30 11824 O 1140.94 2.68795 -0.0157401 0
M  V30 11825 C 1139.21 2.5537 -2.50042 0
M  V30 11826 S 1140.77 3.43708 -2.72783 0
M  V30 11827 H 1137.59 0.482007 -0.522676 0
M  V30 11828 H 1140.19 0.743161 -1.80824 0
M  V30 11829 H 1138.9 2.16586 -3.48596 0
M  V30 11830 H 1138.43 3.27142 -2.18498 0
M  V30 11831 H 1140.44 4.52495 -2.03624 0
M  V30 11832 N 1139.62 1.30703 0.880598 0
M  V30 11833 C 1140.86 1.19541 1.62955 0
M  V30 11834 C 1141.18 -0.249089 1.93403 0
M  V30 11835 O 1140.45 -1.1669 1.57354 0
M  V30 11836 H 1139.03 0.439434 0.604075 0
M  V30 11837 H 1141.7 1.63888 1.05483 0
M  V30 11838 H 1140.79 1.75945 2.57779 0
M  V30 11839 N 1141.09 -1.09351 1.1349 0
M  V30 11840 C 1142.06 -2.14185 0.815919 0
M  V30 11841 C 1143.06 -1.59845 -0.174976 0
M  V30 11842 O 1144.25 -1.74122 0.0521971 0
M  V30 11843 C 1141.38 -3.40224 0.214517 0
M  V30 11844 H 1142.57 -2.43913 1.74489 0
M  V30 11845 H 1140.12 -1.24902 0.939634 0
M  V30 11846 H 1140.86 -3.16123 -0.723634 0
M  V30 11847 H 1140.64 -3.80958 0.928102 0
M  V30 11848 H 1142.13 -4.17599 0.00821999 0
M  V30 11849 N 1142.57 -0.928524 -1.27343 0
M  V30 11850 C 1143.85 -0.487758 -1.89421 0
M  V30 11851 C 1144.23 1.03418 -1.84032 0
M  V30 11852 O 1143.58 1.8887 -1.2861 0
M  V30 11853 C 1143.79 -1.03478 -3.33307 0
M  V30 11854 C 1145.13 -1.09577 -4.10217 0
M  V30 11855 O 1146.16 -0.984463 -3.42326 0
M  V30 11856 O 1145.02 -1.2673 -5.31603 0
M  V30 11857 H 1142.11 -0.157018 -0.811957 0
M  V30 11858 H 1144.66 -1.02027 -1.35605 0
M  V30 11859 H 1143.43 -2.07861 -3.31526 0
M  V30 11860 H 1143.05 -0.483967 -3.94644 0
M  V30 11861 N 1144.05 1.41491 -0.694123 0
M  V30 11862 C 1145 2.28 -0.00474478 0
M  V30 11863 C 1145.98 1.42125 0.754281 0
M  V30 11864 O 1147.18 1.65408 0.630012 0
M  V30 11865 C 1144.3 3.30408 0.931953 0
M  V30 11866 C 1143.39 4.23762 0.169251 0
M  V30 11867 N 1143.78 4.9884 -0.836181 0
M  V30 11868 C 1142.08 4.44158 0.40494 0
M  V30 11869 C 1142.78 5.67157 -1.2926 0
M  V30 11870 N 1141.76 5.40066 -0.6188 0
M  V30 11871 H 1145.56 2.8348 -0.775652 0
M  V30 11872 H 1143.07 1.53686 -0.524834 0
M  V30 11873 H 1145.07 3.91206 1.44097 0
M  V30 11874 H 1143.73 2.76489 1.70247 0
M  V30 11875 H 1144.74 5.03413 -1.21637 0
M  V30 11876 H 1141.42 4.0125 1.15346 0
M  V30 11877 H 1142.81 6.3735 -2.12684 0
M  V30 11878 N 1145.53 0.438773 1.51369 0
M  V30 11879 C 1146.78 -0.128723 2.01289 0
M  V30 11880 C 1147.09 -1.43659 1.32745 0
M  V30 11881 O 1148.3 -2.08712 1.73642 0
M  V30 11882 C 1146.75 -0.279945 3.5881 0
M  V30 11883 C 1146.36 1.01758 4.3629 0
M  V30 11884 C 1148.1 -0.801133 4.16872 0
M  V30 11885 C 1146.01 0.831918 5.85519 0
M  V30 11886 H 1144.94 -0.0518814 0.752213 0
M  V30 11887 H 1147.59 0.568753 1.74463 0
M  V30 11888 H 1145.97 -1.04046 3.82087 0
M  V30 11889 H 1147.15 1.78653 4.24758 0
M  V30 11890 H 1145.46 1.46741 3.89687 0
M  V30 11891 H 1148.06 -0.956548 5.26074 0
M  V30 11892 H 1148.4 -1.78396 3.76139 0
M  V30 11893 H 1148.94 -0.0988934 3.97677 0
M  V30 11894 H 1145.67 1.78716 6.30667 0
M  V30 11895 H 1145.19 0.102785 5.99712 0
M  V30 11896 H 1146.87 0.485681 6.45174 0
M  V30 11897 N 1147.01 -1.56678 0.170181 0
M  V30 11898 C 1148.25 -1.98743 -0.477534 0
M  V30 11899 C 1148.61 -1.0538 -1.60497 0
M  V30 11900 O 1149.81 -1.3658 -2.31515 0
M  V30 11901 C 1148.08 -3.44565 -0.949186 0
M  V30 11902 S 1149.64 -4.08658 -1.59824 0
M  V30 11903 H 1146.46 -0.694202 -0.153639 0
M  V30 11904 H 1149.06 -1.93663 0.267373 0
M  V30 11905 H 1147.76 -4.1023 -0.118205 0
M  V30 11906 H 1147.3 -3.53409 -1.72816 0
M  V30 11907 H 1149.31 -4.03614 -2.88635 0
M  V30 11908 N 1148.48 0.103547 -1.57259 0
M  V30 11909 C 1149.42 1.15225 -1.98131 0
M  V30 11910 C 1150.43 1.36793 -0.882692 0
M  V30 11911 O 1151.62 1.35595 -1.16088 0
M  V30 11912 C 1148.72 2.50941 -2.27776 0
M  V30 11913 C 1147.89 2.49765 -3.59077 0
M  V30 11914 C 1146.95 3.67344 -3.76756 0
M  V30 11915 O 1145.98 3.50221 -4.48702 0
M  V30 11916 N 1147.18 4.86504 -3.16692 0
M  V30 11917 H 1149.94 0.804448 -2.88702 0
M  V30 11918 H 1147.5 0.292636 -1.59233 0
M  V30 11919 H 1149.5 3.28186 -2.36804 0
M  V30 11920 H 1148.07 2.77843 -1.43255 0
M  V30 11921 H 1147.29 1.58125 -3.61096 0
M  V30 11922 H 1148.57 2.4605 -4.4535 0
M  V30 11923 H 1147.97 5.03319 -2.58236 0
M  V30 11924 H 1146.53 5.61371 -3.31218 0
M  V30 11925 N 1149.96 1.53094 0.37415 0
M  V30 11926 C 1151.24 1.59456 1.13283 0
M  V30 11927 C 1151.62 0.396821 2.07337 0
M  V30 11928 O 1150.97 -0.613659 2.20106 0
M  V30 11929 C 1151.18 2.94069 1.87948 0
M  V30 11930 C 1152.52 3.4834 2.42785 0
M  V30 11931 O 1153.55 2.96042 1.98085 0
M  V30 11932 O 1152.41 4.39747 3.24477 0
M  V30 11933 H 1149.5 0.643731 0.519171 0
M  V30 11934 H 1152.05 1.65434 0.378105 0
M  V30 11935 H 1150.82 3.72685 1.19255 0
M  V30 11936 H 1150.44 2.91544 2.70348 0
M  V30 11937 N 1151.44 -0.633461 1.44309 0
M  V30 11938 C 1152.39 -1.76674 1.51292 0
M  V30 11939 C 1153.38 -1.64972 0.384807 0
M  V30 11940 O 1154.59 -1.71079 0.559653 0
M  V30 11941 H 1150.96 -0.583238 0.474697 0
M  V30 11942 H 1152.93 -1.67907 2.46678 0
M  V30 11943 C 1151.68 -3.15002 1.47205 0
M  V30 11944 H 1151.01 -3.24653 2.33325 0
M  V30 11945 H 1152.45 -3.94199 1.56151 0
M  V30 11946 C 1150.9 -3.3635 0.192464 0
M  V30 11947 O 1151.43 -3.94857 -0.738285 0
M  V30 11948 N 1149.64 -2.9044 0.0963424 0
M  V30 11949 H 1149.19 -2.43011 0.85459 0
M  V30 11950 H 1149.15 -3.05099 -0.759061 0
M  V30 11951 N 1152.92 -1.31168 -0.873655 0
M  V30 11952 C 1153.85 -1.21094 -1.99646 0
M  V30 11953 C 1154.83 -0.0989684 -1.69812 0
M  V30 11954 O 1156.01 -0.282939 -1.92128 0
M  V30 11955 C 1153.14 -0.913684 -3.35066 0
M  V30 11956 C 1152.1 -1.98482 -3.79195 0
M  V30 11957 C 1151.42 -1.54033 -5.12033 0
M  V30 11958 C 1152.72 -3.39745 -3.96699 0
M  V30 11959 H 1154.42 -2.1503 -2.08333 0
M  V30 11960 H 1151.96 -1.03521 -1.00097 0
M  V30 11961 H 1153.92 -0.829821 -4.13149 0
M  V30 11962 H 1152.64 0.0613471 -3.26542 0
M  V30 11963 H 1151.3 -2.05851 -3.03349 0
M  V30 11964 H 1150.95 -0.553261 -4.99948 0
M  V30 11965 H 1150.65 -2.25688 -5.4253 0
M  V30 11966 H 1152.17 -1.47047 -5.92629 0
M  V30 11967 H 1153.59 -3.35071 -4.65188 0
M  V30 11968 H 1151.98 -4.09585 -4.38589 0
M  V30 11969 H 1153.05 -3.80802 -3.00196 0
M  V30 11970 N 1154.4 1.08748 -1.14068 0
M  V30 11971 C 1155.64 1.80707 -0.904947 0
M  V30 11972 C 1155.97 1.86478 0.570167 0
M  V30 11973 O 1155.24 1.35536 1.41445 0
M  V30 11974 H 1153.82 0.669261 -0.331811 0
M  V30 11975 H 1156.48 1.31494 -1.43859 0
M  V30 11976 H 1155.57 2.83653 -1.30182 0
M  V30 11977 N 1155.87 0.935264 1.26849 0
M  V30 11978 C 1157.12 0.575467 1.93317 0
M  V30 11979 C 1157.44 -0.88876 1.74242 0
M  V30 11980 O 1158.64 -1.35767 2.35116 0
M  V30 11981 C 1157.1 0.978433 3.46345 0
M  V30 11982 C 1156.71 2.46386 3.74163 0
M  V30 11983 C 1158.45 0.690249 4.18851 0
M  V30 11984 C 1156.36 2.80584 5.20602 0
M  V30 11985 H 1155.29 0.211506 0.723727 0
M  V30 11986 H 1157.94 1.1371 1.44022 0
M  V30 11987 H 1156.32 0.345379 3.94491 0
M  V30 11988 H 1157.49 3.14547 3.36745 0
M  V30 11989 H 1155.81 2.72473 3.14877 0
M  V30 11990 H 1158.41 0.922151 5.26688 0
M  V30 11991 H 1158.75 -0.372805 4.14627 0
M  V30 11992 H 1159.28 1.28275 3.76551 0
M  V30 11993 H 1156.02 3.85828 5.29921 0
M  V30 11994 H 1155.54 2.1708 5.59139 0
M  V30 11995 H 1157.22 2.68732 5.88551 0
M  V30 11996 N 1157.35 -1.41121 0.701616 0
M  V30 11997 C 1158.58 -2.05973 0.242896 0
M  V30 11998 C 1159 -1.52474 -1.10151 0
M  V30 11999 O 1158.36 -0.654224 -1.69085 0
M  V30 12000 C 1158.41 -3.59943 0.217614 0
M  V30 12001 O 1157.51 -4.04454 -0.805629 0
M  V30 12002 H 1156.85 -0.653581 0.117166 0
M  V30 12003 H 1159.38 -1.80777 0.958175 0
M  V30 12004 H 1159.39 -4.07969 0.0505267 0
M  V30 12005 H 1158.07 -3.98249 1.19877 0
M  V30 12006 H 1156.65 -3.6792 -0.607404 0
M  V30 12007 N 1158.83 -0.446794 -1.51134 0
M  V30 12008 C 1160.08 0.116493 -2.02165 0
M  V30 12009 C 1160.41 1.41884 -1.33039 0
M  V30 12010 O 1159.66 1.90757 -0.437071 0
M  V30 12011 C 1159.96 0.373015 -3.55448 0
M  V30 12012 C 1159.63 -0.844659 -4.42918 0
M  V30 12013 C 1158.29 -1.17857 -4.66544 0
M  V30 12014 C 1160.64 -1.65653 -4.94174 0
M  V30 12015 C 1157.97 -2.32486 -5.38672 0
M  V30 12016 C 1160.32 -2.7939 -5.6756 0
M  V30 12017 C 1158.98 -3.13224 -5.89446 0
M  V30 12018 H 1158.25 0.0426279 -0.739773 0
M  V30 12019 H 1160.9 -0.595921 -1.81992 0
M  V30 12020 H 1159.21 1.16742 -3.74003 0
M  V30 12021 H 1160.9 0.822425 -3.92476 0
M  V30 12022 H 1157.49 -0.574478 -4.24733 0
M  V30 12023 H 1161.68 -1.41176 -4.75797 0
M  V30 12024 H 1156.93 -2.59003 -5.5383 0
M  V30 12025 H 1161.11 -3.42662 -6.06264 0
M  V30 12026 H 1158.73 -4.02158 -6.45115 0
M  V30 12027 N 1160.31 1.56586 -0.178487 0
M  V30 12028 C 1161.53 2.01915 0.473841 0
M  V30 12029 C 1161.96 1.05789 1.55533 0
M  V30 12030 O 1161.32 0.0386018 1.81259 0
M  V30 12031 C 1161.36 3.45799 1.02251 0
M  V30 12032 O 1160.47 3.52761 2.1362 0
M  V30 12033 H 1159.81 0.654372 0.112666 0
M  V30 12034 H 1162.34 2.02613 -0.284486 0
M  V30 12035 H 1162.35 3.85252 1.34332 0
M  V30 12036 H 1161.02 4.1526 0.230719 0
M  V30 12037 H 1159.6 3.25172 1.8253 0
M  V30 12038 N 1161.79 -0.095206 1.57312 0
M  V30 12039 C 1163.03 -0.798719 1.86083 0
M  V30 12040 C 1163.36 -1.78739 0.766991 0
M  V30 12041 O 1162.62 -1.9423 -0.239425 0
M  V30 12042 C 1162.92 -1.56244 3.21438 0
M  V30 12043 C 1162.58 -0.715903 4.4518 0
M  V30 12044 C 1161.24 -0.482537 4.78774 0
M  V30 12045 C 1163.6 -0.127404 5.21044 0
M  V30 12046 C 1160.92 0.349193 5.8566 0
M  V30 12047 C 1163.28 0.691649 6.28808 0
M  V30 12048 C 1161.94 0.935107 6.60918 0
M  V30 12049 H 1161.21 -0.292272 0.680924 0
M  V30 12050 H 1163.86 -0.0602105 1.91405 0
M  V30 12051 H 1162.16 -2.37251 3.118 0
M  V30 12052 H 1163.86 -2.11116 3.40927 0
M  V30 12053 H 1160.45 -0.907902 4.18874 0
M  V30 12054 H 1164.63 -0.29486 4.95423 0
M  V30 12055 H 1159.89 0.546797 6.0895 0
M  V30 12056 H 1164.06 1.15452 6.86763 0
M  V30 12057 H 1161.69 1.58139 7.4357 0
M  V30 12058 N 1163.26 -1.53291 -0.366026 0
M  V30 12059 C 1164.68 -1.61144 -0.942849 0
M  V30 12060 C 1165.03 -0.478571 -1.90274 0
M  V30 12061 O 1164.15 0.395069 -2.12763 0
M  V30 12062 C 1164.75 -2.92081 -1.71681 0
M  V30 12063 C 1163.31 -3.0227 -2.24298 0
M  V30 12064 C 1162.45 -2.56436 -1.05526 0
M  V30 12065 H 1165.4 -1.58038 -0.144835 0
M  V30 12066 H 1165.42 -2.79858 -2.57798 0
M  V30 12067 H 1164.94 -3.74513 -1.01793 0
M  V30 12068 H 1163.04 -2.24425 -2.97429 0
M  V30 12069 H 1163.15 -4.07341 -2.5221 0
M  V30 12070 H 1161.51 -2.11301 -1.42211 0
M  V30 12071 H 1162.3 -3.41285 -0.371376 0
M  V30 12072 N 1164.74 0.6258 -1.44643 0
M  V30 12073 C 1165.99 1.38251 -1.47414 0
M  V30 12074 C 1166.31 1.94689 -0.110043 0
M  V30 12075 O 1165.58 1.76095 0.858333 0
M  V30 12076 H 1164.16 0.513179 -0.542823 0
M  V30 12077 H 1166.82 0.736179 -1.80462 0
M  V30 12078 H 1165.92 2.21115 -2.2026 0
M  V30 12079 N 1166.22 1.31629 0.866686 0
M  V30 12080 C 1167.15 1.22151 1.99001 0
M  V30 12081 C 1168.13 0.107972 1.69757 0
M  V30 12082 O 1169.32 0.293125 1.91975 0
M  V30 12083 C 1166.45 0.93144 3.34577 0
M  V30 12084 C 1165.4 2.0049 3.78137 0
M  V30 12085 C 1164.73 1.56747 5.11209 0
M  V30 12086 C 1166.03 3.41844 3.94892 0
M  V30 12087 H 1167.72 2.16132 2.0719 0
M  V30 12088 H 1165.27 1.04051 0.995463 0
M  V30 12089 H 1167.22 0.851719 4.12703 0
M  V30 12090 H 1165.94 -0.0440289 3.2657 0
M  V30 12091 H 1164.6 2.07457 3.02253 0
M  V30 12092 H 1164.25 0.579767 4.99648 0
M  V30 12093 H 1163.95 2.28562 5.41326 0
M  V30 12094 H 1165.47 1.50188 5.91841 0
M  V30 12095 H 1166.89 3.37534 4.63405 0
M  V30 12096 H 1165.29 4.11905 4.36411 0
M  V30 12097 H 1166.36 3.82389 2.98172 0
M  V30 12098 N 1167.7 -1.08142 1.14644 0
M  V30 12099 C 1168.65 -2.15133 0.835845 0
M  V30 12100 C 1169.62 -1.64795 -0.207785 0
M  V30 12101 O 1170.8 -1.90644 -0.07711 0
M  V30 12102 C 1167.94 -3.4359 0.322456 0
M  V30 12103 C 1167.05 -4.07761 1.42671 0
M  V30 12104 C 1166.19 -5.24022 0.870281 0
M  V30 12105 C 1165.23 -5.8014 1.95202 0
M  V30 12106 N 1164.37 -6.87743 1.41257 0
M  V30 12107 H 1169.21 -2.41042 1.75222 0
M  V30 12108 H 1166.74 -1.18288 0.874428 0
M  V30 12109 H 1168.7 -4.17199 0.00657059 0
M  V30 12110 H 1167.33 -3.17958 -0.557014 0
M  V30 12111 H 1166.38 -3.31885 1.85893 0
M  V30 12112 H 1167.69 -4.45485 2.24375 0
M  V30 12113 H 1166.85 -6.04582 0.506459 0
M  V30 12114 H 1165.59 -4.87695 0.0223118 0
M  V30 12115 H 1164.59 -4.98232 2.32476 0
M  V30 12116 H 1165.82 -6.18525 2.80363 0
M  V30 12117 H 1163.76 -6.5337 0.586826 0
M  V30 12118 H 1163.68 -7.24308 2.16596 0
M  V30 12119 H 1164.95 -7.72028 1.07674 0
M  V30 12120 N 1169.18 -0.941978 -1.26351 0
M  V30 12121 C 1170.4 -0.606231 -1.98342 0
M  V30 12122 C 1170.83 0.812014 -1.6967 0
M  V30 12123 O 1170.19 1.54712 -0.9452 0
M  V30 12124 C 1170.23 -0.855864 -3.50296 0
M  V30 12125 O 1169.34 0.0716251 -4.12338 0
M  V30 12126 H 1168.68 -0.231815 -0.62222 0
M  V30 12127 H 1171.21 -1.26513 -1.60797 0
M  V30 12128 H 1171.22 -0.777079 -4.00531 0
M  V30 12129 H 1169.89 -1.8896 -3.70496 0
M  V30 12130 H 1168.47 -0.0582866 -3.72854 0
M  V30 12131 N 1170.66 1.40747 -0.709091 0
M  V30 12132 C 1171.59 2.33404 -0.0669763 0
M  V30 12133 C 1172.57 1.52546 0.752582 0
M  V30 12134 O 1173.75 1.81036 0.702823 0
M  V30 12135 C 1170.88 3.36476 0.860285 0
M  V30 12136 C 1169.84 4.27748 0.146828 0
M  V30 12137 C 1169.16 5.21304 1.18937 0
M  V30 12138 C 1170.46 5.12734 -0.995064 0
M  V30 12139 H 1172.16 2.87349 -0.840888 0
M  V30 12140 H 1169.7 1.38163 -0.405817 0
M  V30 12141 H 1171.65 4.00231 1.31883 0
M  V30 12142 H 1170.38 2.80912 1.66602 0
M  V30 12143 H 1169.04 3.65437 -0.291826 0
M  V30 12144 H 1168.69 4.62048 1.98798 0
M  V30 12145 H 1168.39 5.8321 0.716917 0
M  V30 12146 H 1169.91 5.87936 1.64815 0
M  V30 12147 H 1171.32 5.69979 -0.61618 0
M  V30 12148 H 1169.72 5.83649 -1.39547 0
M  V30 12149 H 1170.79 4.49097 -1.82867 0
M  V30 12150 N 1172.13 0.454803 1.50895 0
M  V30 12151 C 1173.06 -0.337982 2.31041 0
M  V30 12152 C 1174.04 -1.00523 1.37219 0
M  V30 12153 O 1175.23 -1.00553 1.66141 0
M  V30 12154 C 1172.36 -1.42964 3.1651 0
M  V30 12155 C 1171.31 -0.884907 4.18752 0
M  V30 12156 C 1170.64 -2.07363 4.92854 0
M  V30 12157 C 1171.94 0.0926716 5.22218 0
M  V30 12158 H 1173.63 0.33089 2.97566 0
M  V30 12159 H 1171.18 0.160577 1.43102 0
M  V30 12160 H 1173.13 -1.9916 3.71367 0
M  V30 12161 H 1171.86 -2.12705 2.47839 0
M  V30 12162 H 1170.52 -0.345031 3.64973 0
M  V30 12163 H 1170.16 -2.75764 4.2067 0
M  V30 12164 H 1169.86 -1.71545 5.62002 0
M  V30 12165 H 1171.39 -2.6408 5.5054 0
M  V30 12166 H 1172.8 -0.379568 5.72042 0
M  V30 12167 H 1171.2 0.3643 5.98993 0
M  V30 12168 H 1172.27 1.02383 4.73968 0
M  V30 12169 N 1173.61 -1.56489 0.186789 0
M  V30 12170 C 1174.86 -1.97634 -0.454831 0
M  V30 12171 C 1175.19 -1.07334 -1.61843 0
M  V30 12172 O 1174.47 -0.123612 -1.94107 0
M  V30 12173 C 1174.75 -3.48071 -0.922962 0
M  V30 12174 C 1174.6 -4.49149 0.241877 0
M  V30 12175 C 1175.92 -4.01994 -1.79134 0
M  V30 12176 H 1173.04 -0.718555 -0.163854 0
M  V30 12177 H 1175.68 -1.87984 0.27604 0
M  V30 12178 H 1173.83 -3.56425 -1.54575 0
M  V30 12179 H 1175.5 -4.52841 0.87936 0
M  V30 12180 H 1173.75 -4.24468 0.894964 0
M  V30 12181 H 1174.42 -5.51851 -0.128051 0
M  V30 12182 H 1176.89 -3.96367 -1.26618 0
M  V30 12183 H 1175.77 -5.07641 -2.08787 0
M  V30 12184 H 1176.03 -3.46747 -2.74261 0
M  V30 12185 N 1175.09 0.086862 -1.5736 0
M  V30 12186 C 1176.34 0.787281 -1.86135 0
M  V30 12187 C 1176.66 1.78866 -0.776667 0
M  V30 12188 O 1175.93 1.94915 0.19625 0
M  V30 12189 H 1174.51 0.293744 -0.686821 0
M  V30 12190 H 1177.17 0.0665326 -1.94786 0
M  V30 12191 H 1176.27 1.3128 -2.83147 0
M  V30 12192 N 1176.57 1.53483 0.357892 0
M  V30 12193 C 1177.79 1.74264 1.12458 0
M  V30 12194 C 1178.22 0.473944 1.82031 0
M  V30 12195 O 1177.58 -0.57253 1.72023 0
M  V30 12196 C 1177.62 2.91356 2.12471 0
M  V30 12197 O 1176.73 2.60502 3.19707 0
M  V30 12198 H 1176.07 0.578499 0.325937 0
M  V30 12199 H 1178.6 2.00395 0.412666 0
M  V30 12200 H 1178.61 3.1774 2.5594 0
M  V30 12201 H 1177.28 3.83378 1.61226 0
M  V30 12202 H 1175.86 2.44961 2.81156 0
M  V30 12203 N 1178.05 -0.61812 1.44973 0
M  V30 12204 C 1178.99 -1.75059 1.53157 0
M  V30 12205 C 1179.99 -1.64554 0.402282 0
M  V30 12206 O 1181.19 -1.70475 0.577767 0
M  V30 12207 H 1177.57 -0.57817 0.480856 0
M  V30 12208 H 1179.54 -1.65281 2.48445 0
M  V30 12209 C 1178.29 -3.13423 1.50538 0
M  V30 12210 H 1177.61 -3.2216 2.36755 0
M  V30 12211 H 1179.05 -3.92521 1.60323 0
M  V30 12212 C 1177.51 -3.36127 0.228127 0
M  V30 12213 O 1178.04 -3.95618 -0.696364 0
M  V30 12214 N 1176.25 -2.90322 0.127142 0
M  V30 12215 H 1175.79 -2.42091 0.880317 0
M  V30 12216 H 1175.75 -3.05887 -0.726659 0
M  V30 12217 N 1179.52 -1.32087 -0.859693 0
M  V30 12218 C 1180.45 -1.23204 -1.98351 0
M  V30 12219 C 1181.43 -0.116974 -1.69697 0
M  V30 12220 O 1182.62 -0.303301 -1.91817 0
M  V30 12221 C 1179.75 -0.949171 -3.34078 0
M  V30 12222 C 1178.7 -2.02493 -3.77069 0
M  V30 12223 C 1178.03 -1.59455 -5.1037 0
M  V30 12224 C 1179.33 -3.43934 -3.93074 0
M  V30 12225 H 1181.02 -2.17227 -2.0604 0
M  V30 12226 H 1178.57 -1.04577 -0.989931 0
M  V30 12227 H 1180.52 -0.873594 -4.12245 0
M  V30 12228 H 1179.25 0.0267095 -3.26589 0
M  V30 12229 H 1177.91 -2.09057 -3.01149 0
M  V30 12230 H 1177.55 -0.606256 -4.99333 0
M  V30 12231 H 1177.25 -2.31429 -5.40106 0
M  V30 12232 H 1178.78 -1.53325 -5.91036 0
M  V30 12233 H 1180.19 -3.39986 -4.61608 0
M  V30 12234 H 1178.59 -4.14214 -4.3422 0
M  V30 12235 H 1179.66 -3.83965 -2.9614 0
M  V30 12236 N 1181 1.07532 -1.15215 0
M  V30 12237 C 1181.91 2.18222 -0.861192 0
M  V30 12238 C 1182.93 1.73246 0.161798 0
M  V30 12239 O 1184.1 2.01397 -0.0118386 0
M  V30 12240 C 1181.17 3.44902 -0.352601 0
M  V30 12241 C 1180.23 4.04455 -1.43926 0
M  V30 12242 C 1179.46 5.25089 -0.954841 0
M  V30 12243 O 1179.69 5.70048 0.200294 0
M  V30 12244 O 1178.62 5.76269 -1.73774 0
M  V30 12245 H 1182.45 2.45599 -1.78648 0
M  V30 12246 H 1180.03 1.16835 -0.93112 0
M  V30 12247 H 1181.91 4.21333 -0.0753347 0
M  V30 12248 H 1180.59 3.19082 0.544841 0
M  V30 12249 H 1179.49 3.29573 -1.7701 0
M  V30 12250 H 1180.83 4.34544 -2.31155 0
M  V30 12251 N 1182.48 0.948665 1.2585 0
M  V30 12252 C 1183.41 0.482036 2.2847 0
M  V30 12253 C 1184.39 -0.468553 1.63519 0
M  V30 12254 O 1185.58 -0.368796 1.90666 0
M  V30 12255 C 1182.71 -0.246603 3.46423 0
M  V30 12256 C 1181.66 0.61815 4.23513 0
M  V30 12257 C 1180.99 -0.240884 5.34157 0
M  V30 12258 C 1182.29 1.89327 4.86778 0
M  V30 12259 H 1183.98 1.33973 2.67753 0
M  V30 12260 H 1181.53 0.645645 1.28715 0
M  V30 12261 H 1183.48 -0.584135 4.17332 0
M  V30 12262 H 1182.2 -1.13849 3.06114 0
M  V30 12263 H 1180.86 0.938682 3.54379 0
M  V30 12264 H 1180.51 -1.13235 4.90089 0
M  V30 12265 H 1180.21 0.334367 5.86648 0
M  V30 12266 H 1181.73 -0.573517 6.07901 0
M  V30 12267 H 1183.15 1.62252 5.49861 0
M  V30 12268 H 1181.55 2.41369 5.49419 0
M  V30 12269 H 1182.62 2.60006 4.09298 0
M  V30 12270 N 1183.96 -1.40369 0.716545 0
M  V30 12271 C 1184.91 -2.32539 0.053472 0
M  V30 12272 C 1185.9 -1.5209 -0.745984 0
M  V30 12273 O 1187.11 -1.67883 -0.649245 0
M  V30 12274 H 1183.48 -0.751998 -0.00151088 0
M  V30 12275 H 1185.45 -2.86111 0.847535 0
M  V30 12276 C 1184.2 -3.37061 -0.853515 0
M  V30 12277 H 1183.52 -3.99032 -0.247754 0
M  V30 12278 H 1184.96 -4.04046 -1.28541 0
M  V30 12279 C 1183.42 -2.72619 -1.97941 0
M  V30 12280 O 1183.95 -2.59024 -3.07033 0
M  V30 12281 N 1182.16 -2.30988 -1.76332 0
M  V30 12282 H 1181.71 -2.42246 -0.876063 0
M  V30 12283 H 1181.66 -1.88209 -2.51843 0
M  V30 12284 N 1185.44 -0.462799 -1.50652 0
M  V30 12285 C 1186.4 0.324264 -2.26895 0
M  V30 12286 C 1187.4 0.927687 -1.31342 0
M  V30 12287 O 1188.59 0.798159 -1.54839 0
M  V30 12288 C 1185.72 1.46113 -3.08 0
M  V30 12289 H 1186.91 -0.344266 -2.97917 0
M  V30 12290 H 1184.47 -0.216631 -1.54791 0
M  V30 12291 H 1185.2 2.16496 -2.41454 0
M  V30 12292 H 1184.99 1.03433 -3.78212 0
M  V30 12293 H 1186.48 2.01655 -3.65684 0
M  V30 12294 N 1186.91 1.56388 -0.195085 0
M  V30 12295 C 1187.82 2.22698 0.737743 0
M  V30 12296 C 1188.84 1.22605 1.23466 0
M  V30 12297 O 1190.02 1.55342 1.28183 0
M  V30 12298 C 1187.08 2.87333 1.94011 0
M  V30 12299 C 1186.14 4.02696 1.48776 0
M  V30 12300 C 1185.38 4.64239 2.63282 0
M  V30 12301 O 1185.6 4.24706 3.80763 0
M  V30 12302 O 1184.53 5.53705 2.35996 0
M  V30 12303 H 1188.36 3.03021 0.203013 0
M  V30 12304 H 1185.94 1.49361 0.0342044 0
M  V30 12305 H 1187.83 3.28226 2.64284 0
M  V30 12306 H 1186.5 2.0999 2.46345 0
M  V30 12307 H 1185.41 3.66426 0.753839 0
M  V30 12308 H 1186.74 4.81703 1.01109 0
M  V30 12309 N 1188.39 -0.0785156 1.57404 0
M  V30 12310 C 1189.64 -0.780092 1.87196 0
M  V30 12311 C 1189.97 -1.77562 0.78647 0
M  V30 12312 O 1189.25 -1.93428 -0.203935 0
M  V30 12313 C 1189.53 -1.49408 3.27642 0
M  V30 12314 C 1189.38 -0.515416 4.46837 0
M  V30 12315 C 1190.7 -2.44064 3.66225 0
M  V30 12316 H 1187.82 -0.282134 0.680859 0
M  V30 12317 H 1190.46 -0.0433926 1.8995 0
M  V30 12318 H 1188.61 -2.12205 3.25425 0
M  V30 12319 H 1190.28 0.106827 4.61176 0
M  V30 12320 H 1188.53 0.169832 4.33467 0
M  V30 12321 H 1189.2 -1.05247 5.41874 0
M  V30 12322 H 1191.67 -1.91349 3.69493 0
M  V30 12323 H 1190.55 -2.91029 4.65396 0
M  V30 12324 H 1190.81 -3.28569 2.95796 0
M  V30 12325 N 1189.87 -1.5367 -0.349747 0
M  V30 12326 C 1190.8 -1.7603 -1.4522 0
M  V30 12327 C 1191.78 -0.609171 -1.50758 0
M  V30 12328 O 1192.97 -0.843613 -1.68569 0
M  V30 12329 C 1190.09 -1.85336 -2.83493 0
M  V30 12330 C 1189.14 -3.07438 -2.95608 0
M  V30 12331 S 1189.97 -4.66625 -2.62719 0
M  V30 12332 C 1191.13 -4.78802 -4.03112 0
M  V30 12333 H 1191.36 -2.69263 -1.26035 0
M  V30 12334 H 1188.89 -1.4446 -0.545044 0
M  V30 12335 H 1190.85 -1.91383 -3.63157 0
M  V30 12336 H 1189.51 -0.931267 -2.99977 0
M  V30 12337 H 1188.71 -3.10606 -3.96913 0
M  V30 12338 H 1188.31 -2.99585 -2.23886 0
M  V30 12339 H 1190.6 -4.5983 -4.97557 0
M  V30 12340 H 1191.54 -5.80886 -4.04941 0
M  V30 12341 H 1191.95 -4.07305 -3.90849 0
M  V30 12342 N 1191.35 0.610423 -1.45298 0
M  V30 12343 C 1192.59 1.37154 -1.49388 0
M  V30 12344 C 1192.93 1.93737 -0.134025 0
M  V30 12345 O 1192.2 1.74888 0.851138 0
M  V30 12346 C 1192.49 2.52155 -2.5708 0
M  V30 12347 C 1192.34 2.00786 -4.02498 0
M  V30 12348 C 1193.66 3.54294 -2.61082 0
M  V30 12349 H 1190.78 0.497346 -0.54389 0
M  V30 12350 H 1193.42 0.688358 -1.77092 0
M  V30 12351 H 1191.57 3.10434 -2.33587 0
M  V30 12352 H 1193.24 1.47178 -4.37191 0
M  V30 12353 H 1191.48 1.31809 -4.1329 0
M  V30 12354 H 1192.15 2.83674 -4.73533 0
M  V30 12355 H 1194.63 3.05851 -2.82125 0
M  V30 12356 H 1193.51 4.32254 -3.38301 0
M  V30 12357 H 1193.77 4.09726 -1.66063 0
M  V30 12358 N 1192.83 1.32541 0.852676 0
M  V30 12359 C 1194.07 1.24406 1.60918 0
M  V30 12360 C 1194.43 -0.19184 1.91441 0
M  V30 12361 O 1193.72 -1.13016 1.54719 0
M  V30 12362 C 1193.91 2.039 2.9353 0
M  V30 12363 C 1193.74 3.55074 2.75957 0
M  V30 12364 C 1192.51 4.24409 2.74236 0
M  V30 12365 C 1194.71 4.49686 2.49574 0
M  V30 12366 N 1192.69 5.61624 2.47895 0
M  V30 12367 C 1194.06 5.74692 2.32658 0
M  V30 12368 C 1196.12 4.38921 2.35058 0
M  V30 12369 C 1194.82 6.90149 2.027 0
M  V30 12370 C 1196.85 5.5418 2.06491 0
M  V30 12371 C 1196.21 6.78186 1.90377 0
M  V30 12372 H 1192.31 0.510401 0.592465 0
M  V30 12373 H 1194.89 1.66929 1.00214 0
M  V30 12374 H 1193.06 1.6372 3.52208 0
M  V30 12375 H 1194.8 1.87644 3.58569 0
M  V30 12376 H 1191.55 3.76546 2.87246 0
M  V30 12377 H 1191.98 6.33918 2.37648 0
M  V30 12378 H 1196.62 3.43697 2.46236 0
M  V30 12379 H 1194.34 7.85383 1.90259 0
M  V30 12380 H 1197.92 5.47779 1.96035 0
M  V30 12381 H 1196.8 7.65864 1.68587 0
M  V30 12382 N 1194.3 -1.0692 1.15784 0
M  V30 12383 C 1195.25 -2.16335 0.854506 0
M  V30 12384 C 1196.25 -1.68505 -0.173868 0
M  V30 12385 O 1197.45 -1.79977 -0.0284722 0
M  V30 12386 H 1193.83 -0.706103 0.258694 0
M  V30 12387 H 1195.8 -2.39135 1.78486 0
M  V30 12388 C 1194.55 -3.45778 0.365042 0
M  V30 12389 H 1193.87 -3.82971 1.14776 0
M  V30 12390 H 1195.31 -4.23567 0.191504 0
M  V30 12391 C 1193.77 -3.24258 -0.914253 0
M  V30 12392 O 1194.3 -3.49236 -1.98487 0
M  V30 12393 N 1192.51 -2.77722 -0.855501 0
M  V30 12394 H 1192.05 -2.57595 0.0159233 0
M  V30 12395 H 1192.01 -2.63702 -1.71198 0
M  V30 12396 N 1195.78 -0.955326 -1.25345 0
M  V30 12397 C 1197.06 -0.527828 -1.88344 0
M  V30 12398 C 1197.44 0.994911 -1.86185 0
M  V30 12399 O 1196.79 1.86099 -1.32587 0
M  V30 12400 C 1197 -1.10525 -3.31037 0
M  V30 12401 C 1198.35 -1.18253 -4.07801 0
M  V30 12402 O 1199.37 -1.05685 -3.4016 0
M  V30 12403 O 1198.23 -1.37978 -5.28795 0
M  V30 12404 H 1195.32 -0.174206 -0.808444 0
M  V30 12405 H 1197.87 -1.0488 -1.3341 0
M  V30 12406 H 1196.64 -2.14847 -3.27042 0
M  V30 12407 H 1196.26 -0.567568 -3.93528 0
M  V30 12408 N 1197.26 1.39987 -0.723979 0
M  V30 12409 C 1198.51 2.00334 -0.266587 0
M  V30 12410 C 1198.83 1.57714 1.14679 0
M  V30 12411 O 1198.1 0.82037 1.77895 0
M  V30 12412 H 1196.68 0.740861 -0.095573 0
M  V30 12413 H 1199.34 1.712 -0.931481 0
M  V30 12414 H 1198.44 3.10594 -0.306282 0
M  V30 12415 N 1198.74 0.470782 1.50404 0
M  V30 12416 C 1199.65 -0.328877 2.32283 0
M  V30 12417 C 1200.67 -0.99629 1.42654 0
M  V30 12418 O 1201.84 -0.984331 1.75707 0
M  V30 12419 C 1198.91 -1.39675 3.1732 0
M  V30 12420 C 1197.97 -0.745965 4.22769 0
M  V30 12421 C 1197.2 -1.76295 5.03742 0
M  V30 12422 O 1197.42 -2.98943 4.85788 0
M  V30 12423 O 1196.36 -1.33495 5.86909 0
M  V30 12424 H 1200.18 0.340491 3.01785 0
M  V30 12425 H 1197.77 0.232637 1.47578 0
M  V30 12426 H 1199.65 -2.0153 3.70086 0
M  V30 12427 H 1198.33 -2.04959 2.50546 0
M  V30 12428 H 1197.23 -0.0884647 3.73995 0
M  V30 12429 H 1198.57 -0.136074 4.92012 0
M  V30 12430 N 1200.22 -1.56282 0.203376 0
M  V30 12431 C 1201.49 -1.89587 -0.481256 0
M  V30 12432 C 1201.87 -1.11812 -1.79057 0
M  V30 12433 O 1201.22 -0.221759 -2.27421 0
M  V30 12434 C 1201.43 -3.42071 -0.691965 0
M  V30 12435 C 1202.78 -4.12471 -1.00761 0
M  V30 12436 O 1203.8 -3.47568 -0.779396 0
M  V30 12437 O 1202.66 -5.27194 -1.43974 0
M  V30 12438 H 1199.76 -0.787682 -0.251963 0
M  V30 12439 H 1202.3 -1.67934 0.244207 0
M  V30 12440 H 1201.08 -3.9061 0.232322 0
M  V30 12441 H 1200.7 -3.69444 -1.46958 0
M  V30 12442 N 1201.7 0.070167 -1.57444 0
M  V30 12443 C 1202.92 0.785703 -1.91941 0
M  V30 12444 C 1203.35 1.70243 -0.799932 0
M  V30 12445 O 1202.7 1.79608 0.247139 0
M  V30 12446 C 1202.75 1.55398 -3.25398 0
M  V30 12447 O 1201.86 2.66475 -3.14746 0
M  V30 12448 H 1201.2 0.214245 -0.628486 0
M  V30 12449 H 1203.73 0.0379243 -2.04565 0
M  V30 12450 H 1203.74 1.93287 -3.5931 0
M  V30 12451 H 1202.41 0.881366 -4.06454 0
M  V30 12452 H 1200.99 2.3143 -2.92394 0
M  V30 12453 N 1203.17 1.53854 0.341593 0
M  V30 12454 C 1204.4 1.7488 1.10002 0
M  V30 12455 C 1204.81 0.488802 1.82777 0
M  V30 12456 O 1204.15 -0.549333 1.75294 0
M  V30 12457 C 1204.22 2.87604 2.15694 0
M  V30 12458 C 1203.88 4.27142 1.62477 0
M  V30 12459 C 1204.88 5.08642 1.07606 0
M  V30 12460 C 1202.56 4.73633 1.67265 0
M  V30 12461 C 1204.56 6.34735 0.582284 0
M  V30 12462 C 1202.24 5.99697 1.175 0
M  V30 12463 C 1203.24 6.80081 0.630742 0
M  V30 12464 O 1202.93 8.03777 0.140519 0
M  V30 12465 H 1202.66 0.587824 0.333824 0
M  V30 12466 H 1205.22 2.01488 0.398965 0
M  V30 12467 H 1203.45 2.56526 2.89364 0
M  V30 12468 H 1205.13 2.96583 2.77117 0
M  V30 12469 H 1205.9 4.73887 1.03227 0
M  V30 12470 H 1201.78 4.11121 2.08567 0
M  V30 12471 H 1205.32 6.97424 0.156811 0
M  V30 12472 H 1201.22 6.33947 1.21579 0
M  V30 12473 H 1201.99 8.18094 0.257626 0
M  V30 12474 N 1204.65 -0.602709 1.4562 0
M  V30 12475 C 1205.9 -1.35889 1.49595 0
M  V30 12476 C 1206.22 -1.9449 0.141002 0
M  V30 12477 O 1205.49 -1.77438 -0.830209 0
M  V30 12478 H 1204.07 -0.504478 0.550918 0
M  V30 12479 H 1206.73 -0.707376 1.8161 0
M  V30 12480 H 1205.83 -2.17583 2.2375 0
M  V30 12481 N 1206.13 -1.32992 -0.845635 0
M  V30 12482 C 1207.36 -1.27087 -1.63268 0
M  V30 12483 C 1207.77 0.159481 -1.88125 0
M  V30 12484 O 1207.13 1.09948 -1.45663 0
M  V30 12485 C 1207.18 -2.03649 -2.98679 0
M  V30 12486 O 1206.9 -3.41104 -2.74918 0
M  V30 12487 C 1208.4 -2.04875 -3.93117 0
M  V30 12488 H 1205.62 -0.438107 -0.508236 0
M  V30 12489 H 1208.17 -1.75257 -1.05381 0
M  V30 12490 H 1206.32 -1.59178 -3.53187 0
M  V30 12491 H 1206.74 -3.80405 -3.61099 0
M  V30 12492 H 1208.21 -2.62911 -4.85368 0
M  V30 12493 H 1208.69 -1.03728 -4.26775 0
M  V30 12494 H 1209.29 -2.49334 -3.44547 0
M  V30 12495 N 1207.61 1.06304 -1.1635 0
M  V30 12496 C 1208.84 1.82799 -0.96913 0
M  V30 12497 C 1209.25 1.82526 0.482659 0
M  V30 12498 O 1208.61 1.24437 1.33498 0
M  V30 12499 C 1208.66 3.29417 -1.48884 0
M  V30 12500 O 1208.38 3.29803 -2.88377 0
M  V30 12501 C 1209.88 4.22642 -1.33748 0
M  V30 12502 H 1207.1 0.576388 -0.343537 0
M  V30 12503 H 1209.64 1.34122 -1.54375 0
M  V30 12504 H 1207.8 3.75406 -0.956509 0
M  V30 12505 H 1208.21 4.21486 -3.1217 0
M  V30 12506 H 1209.69 5.23545 -1.74942 0
M  V30 12507 H 1210.16 4.38287 -0.283021 0
M  V30 12508 H 1210.77 3.82499 -1.85942 0
M  V30 12509 N 1209.09 0.96196 1.24836 0
M  V30 12510 C 1210.33 0.616342 1.92052 0
M  V30 12511 C 1210.65 -0.851601 1.76088 0
M  V30 12512 O 1211.85 -1.3075 2.37943 0
M  V30 12513 C 1210.31 1.05168 3.44191 0
M  V30 12514 C 1209.92 2.54268 3.68852 0
M  V30 12515 C 1211.66 0.778938 4.17292 0
M  V30 12516 C 1209.57 2.91564 5.14533 0
M  V30 12517 H 1208.5 0.22681 0.719078 0
M  V30 12518 H 1211.15 1.1674 1.41577 0
M  V30 12519 H 1209.53 0.428979 3.9367 0
M  V30 12520 H 1210.71 3.21619 3.29997 0
M  V30 12521 H 1209.02 2.79091 3.09026 0
M  V30 12522 H 1211.62 1.03366 5.24614 0
M  V30 12523 H 1211.96 -0.284772 4.15325 0
M  V30 12524 H 1212.49 1.36233 3.73745 0
M  V30 12525 H 1209.23 3.96982 5.21618 0
M  V30 12526 H 1208.75 2.28892 5.54408 0
M  V30 12527 H 1210.43 2.81155 5.82718 0
M  V30 12528 N 1210.56 -1.39601 0.731392 0
M  V30 12529 C 1211.79 -2.04887 0.28789 0
M  V30 12530 C 1212.21 -1.55138 -1.076 0
M  V30 12531 O 1211.56 -0.71471 -1.67923 0
M  V30 12532 C 1211.61 -3.6044 0.276629 0
M  V30 12533 O 1211.34 -4.08358 1.58668 0
M  V30 12534 C 1212.84 -4.4292 -0.183485 0
M  V30 12535 H 1210.06 -0.658976 0.126459 0
M  V30 12536 H 1212.6 -1.78716 0.994031 0
M  V30 12537 H 1210.76 -3.85526 -0.380597 0
M  V30 12538 H 1211.17 -5.02659 1.4978 0
M  V30 12539 H 1212.64 -5.51822 -0.140207 0
M  V30 12540 H 1213.12 -4.2168 -1.22811 0
M  V30 12541 H 1213.73 -4.22976 0.444042 0
M  V30 12542 N 1212.04 -0.478751 -1.50152 0
M  V30 12543 C 1213.29 0.073585 -2.02366 0
M  V30 12544 C 1213.62 1.3903 -1.36018 0
M  V30 12545 O 1212.87 1.89787 -0.477435 0
M  V30 12546 C 1213.17 0.297535 -3.56159 0
M  V30 12547 C 1212.84 -0.938419 -4.41027 0
M  V30 12548 C 1211.5 -1.27727 -4.63939 0
M  V30 12549 C 1213.85 -1.76098 -4.9055 0
M  V30 12550 C 1211.18 -2.4386 -5.33619 0
M  V30 12551 C 1213.53 -2.91366 -5.61506 0
M  V30 12552 C 1212.2 -3.25657 -5.8267 0
M  V30 12553 H 1211.47 0.0269267 -0.740511 0
M  V30 12554 H 1214.11 -0.63439 -1.80687 0
M  V30 12555 H 1212.42 1.08783 -3.76395 0
M  V30 12556 H 1214.11 0.73899 -3.94132 0
M  V30 12557 H 1210.7 -0.664441 -4.23418 0
M  V30 12558 H 1214.89 -1.51237 -4.72696 0
M  V30 12559 H 1210.14 -2.70692 -5.48211 0
M  V30 12560 H 1214.32 -3.55445 -5.98859 0
M  V30 12561 H 1211.95 -4.15751 -6.36439 0
M  V30 12562 N 1213.52 1.56172 -0.211661 0
M  V30 12563 C 1214.75 2.02874 0.430905 0
M  V30 12564 C 1215.17 1.09064 1.53254 0
M  V30 12565 O 1214.53 0.0770408 1.81136 0
M  V30 12566 C 1214.58 3.4789 0.948933 0
M  V30 12567 O 1213.68 3.57213 2.0609 0
M  V30 12568 H 1213.02 0.656614 0.0987607 0
M  V30 12569 H 1215.55 2.01964 -0.327399 0
M  V30 12570 H 1215.56 3.88015 1.2613 0
M  V30 12571 H 1214.24 4.15656 0.142584 0
M  V30 12572 H 1212.81 3.28971 1.75592 0
M  V30 12573 N 1215 -0.0618163 1.57479 0
M  V30 12574 C 1215.95 -1.07953 2.00824 0
M  V30 12575 C 1216.93 -1.33916 0.891924 0
M  V30 12576 O 1218.12 -1.3405 1.15584 0
M  V30 12577 C 1215.25 -2.39041 2.46403 0
M  V30 12578 C 1214.34 -2.16309 3.64789 0
M  V30 12579 N 1214.73 -1.63534 4.78634 0
M  V30 12580 C 1213.03 -2.46739 3.71531 0
M  V30 12581 C 1213.73 -1.55849 5.60434 0
M  V30 12582 N 1212.71 -2.02255 5.04573 0
M  V30 12583 H 1216.51 -0.66497 2.86278 0
M  V30 12584 H 1214.02 -0.268722 1.60161 0
M  V30 12585 H 1216.02 -3.12722 2.757 0
M  V30 12586 H 1214.68 -2.81204 1.6234 0
M  V30 12587 H 1215.69 -1.32258 5.00728 0
M  V30 12588 H 1212.37 -2.92201 2.98203 0
M  V30 12589 H 1213.76 -1.15814 6.61843 0
M  V30 12590 N 1216.48 -1.54033 -0.333429 0
M  V30 12591 C 1217.89 -1.63107 -0.908455 0
M  V30 12592 C 1218.24 -0.518823 -1.89216 0
M  V30 12593 O 1217.36 0.34985 -2.13553 0
M  V30 12594 C 1217.96 -2.95657 -1.65447 0
M  V30 12595 C 1216.52 -3.0696 -2.17836 0
M  V30 12596 C 1215.66 -2.58617 -1.00063 0
M  V30 12597 H 1218.62 -1.58309 -0.11128 0
M  V30 12598 H 1218.64 -2.85263 -2.51804 0
M  V30 12599 H 1218.15 -3.76588 -0.938263 0
M  V30 12600 H 1216.25 -2.30683 -2.92602 0
M  V30 12601 H 1216.36 -4.12599 -2.43513 0
M  V30 12602 H 1214.73 -2.1427 -1.37697 0
M  V30 12603 H 1215.51 -3.41996 -0.298901 0
M  V30 12604 N 1217.95 0.594978 -1.45938 0
M  V30 12605 C 1218.92 1.68688 -1.55168 0
M  V30 12606 C 1219.92 1.54945 -0.429951 0
M  V30 12607 O 1221.11 1.59785 -0.693859 0
M  V30 12608 C 1218.24 3.0804 -1.46027 0
M  V30 12609 H 1219.43 1.61866 -2.52467 0
M  V30 12610 H 1216.99 0.811785 -1.33565 0
M  V30 12611 H 1217.72 3.20428 -0.499614 0
M  V30 12612 H 1217.51 3.19423 -2.27401 0
M  V30 12613 H 1219 3.8755 -1.55546 0
M  V30 12614 N 1219.43 1.33438 0.838571 0
M  V30 12615 C 1220.68 1.24665 1.59069 0
M  V30 12616 C 1221 -0.187433 1.94097 0
M  V30 12617 O 1220.27 -1.11625 1.60987 0
M  V30 12618 H 1218.85 0.45843 0.589789 0
M  V30 12619 H 1221.51 1.67161 1.00216 0
M  V30 12620 H 1220.61 1.84057 2.52051 0
M  V30 12621 N 1220.91 -1.05686 1.16912 0
M  V30 12622 C 1221.84 -2.15268 0.904532 0
M  V30 12623 C 1222.82 -1.69424 -0.151548 0
M  V30 12624 O 1224.01 -1.942 -0.00235371 0
M  V30 12625 C 1221.14 -3.44853 0.411581 0
M  V30 12626 C 1220.09 -4.04237 1.40628 0
M  V30 12627 C 1219.42 -5.29105 0.771479 0
M  V30 12628 C 1220.72 -4.42303 2.77787 0
M  V30 12629 H 1222.41 -2.37659 1.82094 0
M  V30 12630 H 1219.96 -1.14217 0.876947 0
M  V30 12631 H 1221.91 -4.20857 0.213929 0
M  V30 12632 H 1220.63 -3.22099 -0.540352 0
M  V30 12633 H 1219.29 -3.30297 1.59058 0
M  V30 12634 H 1218.94 -5.02652 -0.187133 0
M  V30 12635 H 1218.64 -5.69797 1.43545 0
M  V30 12636 H 1220.16 -6.07801 0.583988 0
M  V30 12637 H 1221.58 -5.09362 2.63103 0
M  V30 12638 H 1219.98 -4.93997 3.40716 0
M  V30 12639 H 1221.05 -3.52877 3.32575 0
M  V30 12640 N 1222.39 -0.968567 -1.24324 0
M  V30 12641 C 1223.61 -0.648166 -1.97012 0
M  V30 12642 C 1224.04 0.775842 -1.71354 0
M  V30 12643 O 1223.4 1.52672 -0.977804 0
M  V30 12644 C 1223.44 -0.929974 -3.48402 0
M  V30 12645 O 1222.55 -0.015854 -4.12397 0
M  V30 12646 H 1221.89 -0.244961 -0.617163 0
M  V30 12647 H 1224.42 -1.29895 -1.58077 0
M  V30 12648 H 1224.43 -0.861863 -3.98793 0
M  V30 12649 H 1223.1 -1.96776 -3.66404 0
M  V30 12650 H 1221.68 -0.137361 -3.72647 0
M  V30 12651 N 1223.87 1.39211 -0.738786 0
M  V30 12652 C 1225.1 2.04435 -0.298318 0
M  V30 12653 C 1225.5 1.55822 1.07314 0
M  V30 12654 O 1224.85 0.719922 1.69005 0
M  V30 12655 C 1224.91 3.58789 -0.225979 0
M  V30 12656 C 1224.57 4.30395 -1.53653 0
M  V30 12657 C 1225.57 4.56777 -2.48295 0
M  V30 12658 C 1223.26 4.68869 -1.80187 0
M  V30 12659 C 1225.25 5.20648 -3.67702 0
M  V30 12660 C 1222.94 5.32467 -2.99871 0
M  V30 12661 C 1223.93 5.58289 -3.93449 0
M  V30 12662 O 1223.62 6.20567 -5.1103 0
M  V30 12663 H 1223.35 0.663848 -0.127603 0
M  V30 12664 H 1225.91 1.79171 -1.00433 0
M  V30 12665 H 1224.14 3.82965 0.536164 0
M  V30 12666 H 1225.83 4.05487 0.182996 0
M  V30 12667 H 1226.59 4.27497 -2.29066 0
M  V30 12668 H 1222.47 4.48124 -1.08193 0
M  V30 12669 H 1226.02 5.4072 -4.40759 0
M  V30 12670 H 1221.91 5.61169 -3.18998 0
M  V30 12671 H 1222.68 6.39059 -5.11415 0
M  V30 12672 N 1225.34 0.486708 1.49896 0
M  V30 12673 C 1226.76 0.141788 1.58969 0
M  V30 12674 C 1226.96 -1.35279 1.49338 0
M  V30 12675 O 1226.02 -2.1275 1.35992 0
M  V30 12676 C 1227.33 0.70588 2.92297 0
M  V30 12677 C 1228.88 0.670704 3.0573 0
M  V30 12678 C 1229.35 1.21261 4.41656 0
M  V30 12679 N 1230.84 1.17269 4.4811 0
M  V30 12680 C 1231.58 1.56233 5.51705 0
M  V30 12681 N 1231.07 2.02721 6.62477 0
M  V30 12682 N 1232.87 1.47738 5.42337 0
M  V30 12683 H 1225.02 1.45858 1.544 0
M  V30 12684 H 1227.28 0.604137 0.730563 0
M  V30 12685 H 1226.99 1.7535 3.04869 0
M  V30 12686 H 1226.86 0.158215 3.76868 0
M  V30 12687 H 1229.25 -0.368041 2.92796 0
M  V30 12688 H 1229.33 1.25535 2.22878 0
M  V30 12689 H 1228.97 2.25006 4.5534 0
M  V30 12690 H 1228.9 0.604031 5.23124 0
M  V30 12691 H 1231.39 0.831905 3.6863 0
M  V30 12692 H 1231.71 2.3056 7.37606 0
M  V30 12693 H 1230.05 2.06686 6.63556 0
M  V30 12694 H 1233.24 1.11249 4.54688 0
M  V30 12695 H 1233.42 1.78429 6.2295 0
M  V30 12696 N 1226.82 -1.56058 0.219941 0
M  V30 12697 C 1228.05 -2.02358 -0.416497 0
M  V30 12698 C 1228.46 -1.09903 -1.54007 0
M  V30 12699 O 1227.8 -0.100635 -1.83424 0
M  V30 12700 C 1227.87 -3.45 -1.01072 0
M  V30 12701 C 1227.53 -4.56994 -0.0227891 0
M  V30 12702 C 1228.53 -5.14061 0.776997 0
M  V30 12703 C 1226.21 -5.02209 0.0954981 0
M  V30 12704 C 1228.21 -6.14813 1.68179 0
M  V30 12705 C 1225.89 -6.02799 1.00383 0
M  V30 12706 C 1226.89 -6.58977 1.79552 0
M  V30 12707 O 1226.58 -7.57608 2.68858 0
M  V30 12708 H 1226.31 -0.667581 -0.106355 0
M  V30 12709 H 1228.87 -2.02677 0.333348 0
M  V30 12710 H 1227.1 -3.41745 -1.80962 0
M  V30 12711 H 1228.78 -3.74958 -1.55439 0
M  V30 12712 H 1229.55 -4.79979 0.696053 0
M  V30 12713 H 1225.43 -4.58164 -0.510599 0
M  V30 12714 H 1228.97 -6.58588 2.30017 0
M  V30 12715 H 1224.87 -6.36302 1.08579 0
M  V30 12716 H 1225.64 -7.75124 2.62915 0
M  V30 12717 N 1228.3 0.053464 -1.57509 0
M  V30 12718 C 1229.55 0.750212 -1.88414 0
M  V30 12719 C 1229.88 1.76288 -0.814619 0
M  V30 12720 O 1229.16 1.93728 0.173136 0
M  V30 12721 C 1229.44 1.44176 -3.29978 0
M  V30 12722 C 1229.29 0.444263 -4.47601 0
M  V30 12723 C 1230.61 2.38207 -3.70061 0
M  V30 12724 H 1227.73 0.271266 -0.685262 0
M  V30 12725 H 1230.37 0.0131676 -1.89995 0
M  V30 12726 H 1228.52 2.07001 -3.2876 0
M  V30 12727 H 1230.19 -0.180182 -4.60948 0
M  V30 12728 H 1228.44 -0.238771 -4.33142 0
M  V30 12729 H 1229.11 0.966134 -5.43479 0
M  V30 12730 H 1231.58 1.85446 -3.7249 0
M  V30 12731 H 1230.46 2.83588 -4.69967 0
M  V30 12732 H 1230.72 3.23821 -3.00985 0
M  V30 12733 N 1229.78 1.54207 0.325255 0
M  V30 12734 C 1230.74 1.82757 1.38321 0
M  V30 12735 C 1231.74 0.699312 1.44797 0
M  V30 12736 O 1232.93 0.96762 1.44854 0
M  V30 12737 C 1230.06 1.98608 2.7707 0
M  V30 12738 H 1231.26 2.7728 1.14261 0
M  V30 12739 H 1228.81 1.45899 0.560647 0
M  V30 12740 H 1229.55 1.0629 3.06387 0
M  V30 12741 H 1229.33 2.80707 2.73763 0
M  V30 12742 H 1230.82 2.2215 3.53609 0
M  V30 12743 N 1231.26 -0.58723 1.46251 0
M  V30 12744 C 1232.17 -1.72455 1.59048 0
M  V30 12745 C 1233.18 -1.67416 0.47413 0
M  V30 12746 O 1234.36 -1.87406 0.737633 0
M  V30 12747 C 1231.42 -3.08953 1.57318 0
M  V30 12748 C 1230.49 -3.25291 2.80151 0
M  V30 12749 C 1229.72 -4.55277 2.78493 0
M  V30 12750 O 1229.94 -5.38883 1.8698 0
M  V30 12751 O 1228.88 -4.74765 3.69975 0
M  V30 12752 H 1232.7 -1.64606 2.55223 0
M  V30 12753 H 1230.29 -0.753742 1.28993 0
M  V30 12754 H 1232.17 -3.90239 1.59033 0
M  V30 12755 H 1230.84 -3.17249 0.643025 0
M  V30 12756 H 1229.75 -2.43515 2.83991 0
M  V30 12757 H 1231.08 -3.21883 3.7236 0
M  V30 12758 N 1232.74 -1.33881 -0.831482 0
M  V30 12759 C 1233.98 -1.25507 -1.58406 0
M  V30 12760 C 1234.3 0.177137 -1.94194 0
M  V30 12761 O 1233.57 1.10769 -1.61576 0
M  V30 12762 H 1232.15 -0.461551 -0.587349 0
M  V30 12763 H 1234.82 -1.6769 -0.99328 0
M  V30 12764 H 1233.91 -1.85391 -2.51071 0
M  V30 12765 N 1234.21 1.05064 -1.1747 0
M  V30 12766 C 1235.15 2.12842 -0.850344 0
M  V30 12767 C 1236.16 1.62128 0.147796 0
M  V30 12768 O 1237.35 1.78327 -0.0786774 0
M  V30 12769 C 1234.45 3.37995 -0.247486 0
M  V30 12770 C 1233.62 4.17981 -1.28881 0
M  V30 12771 C 1232.68 5.21476 -0.703476 0
M  V30 12772 O 1231.71 5.52327 -1.37561 0
M  V30 12773 N 1232.91 5.78309 0.50387 0
M  V30 12774 H 1235.67 2.41264 -1.77797 0
M  V30 12775 H 1233.23 1.21172 -1.07373 0
M  V30 12776 H 1235.23 4.04394 0.157424 0
M  V30 12777 H 1233.8 3.07097 0.583952 0
M  V30 12778 H 1233.02 3.47054 -1.86942 0
M  V30 12779 H 1234.3 4.6822 -1.99116 0
M  V30 12780 H 1233.7 5.5553 1.06787 0
M  V30 12781 H 1232.26 6.46223 0.850828 0
M  V30 12782 N 1235.69 0.975146 1.23809 0
M  V30 12783 C 1236.64 0.510761 2.25077 0
M  V30 12784 C 1237.61 -0.447605 1.59955 0
M  V30 12785 O 1238.79 -0.356318 1.87443 0
M  V30 12786 C 1235.93 -0.185755 3.446 0
M  V30 12787 C 1235.05 0.812254 4.24295 0
M  V30 12788 C 1234.18 0.0910835 5.31122 0
M  V30 12789 C 1233.22 1.07866 6.02521 0
M  V30 12790 N 1232.36 0.386995 7.01033 0
M  V30 12791 H 1237.2 1.37913 2.64166 0
M  V30 12792 H 1234.73 0.691184 1.2985 0
M  V30 12793 H 1236.69 -0.606341 4.1277 0
M  V30 12794 H 1235.32 -1.01803 3.06327 0
M  V30 12795 H 1234.37 1.35125 3.55592 0
M  V30 12796 H 1235.69 1.56502 4.73612 0
M  V30 12797 H 1234.84 -0.387129 6.05464 0
M  V30 12798 H 1233.58 -0.694324 4.82732 0
M  V30 12799 H 1232.58 1.56767 5.26976 0
M  V30 12800 H 1233.81 1.86464 6.52999 0
M  V30 12801 H 1231.76 -0.3793 6.54903 0
M  V30 12802 H 1231.67 1.0785 7.48268 0
M  V30 12803 H 1232.94 -0.0690036 7.79469 0
M  V30 12804 N 1237.17 -1.38817 0.746158 0
M  V30 12805 C 1238.1 -2.29081 0.0737986 0
M  V30 12806 C 1239.11 -1.47377 -0.691656 0
M  V30 12807 O 1240.3 -1.70326 -0.533973 0
M  V30 12808 C 1237.4 -3.26185 -0.919607 0
M  V30 12809 C 1236.58 -4.36879 -0.213349 0
M  V30 12810 C 1235.64 -5.1422 -1.11644 0
M  V30 12811 O 1234.66 -5.66137 -0.589747 0
M  V30 12812 N 1235.86 -5.26488 -2.44521 0
M  V30 12813 H 1238.63 -2.87424 0.848966 0
M  V30 12814 H 1236.19 -1.50518 0.596314 0
M  V30 12815 H 1238.18 -3.74802 -1.52662 0
M  V30 12816 H 1236.75 -2.68793 -1.5959 0
M  V30 12817 H 1235.97 -3.89994 0.574285 0
M  V30 12818 H 1237.26 -5.08053 0.275655 0
M  V30 12819 H 1236.66 -4.85846 -2.89777 0
M  V30 12820 H 1235.21 -5.78505 -3.00291 0
M  V30 12821 N 1238.65 -0.49465 -1.49636 0
M  V30 12822 C 1239.9 0.0520143 -2.02033 0
M  V30 12823 C 1240.22 1.38071 -1.37701 0
M  V30 12824 O 1239.49 1.88589 -0.530181 0
M  V30 12825 H 1238.07 0.0222123 -0.74667 0
M  V30 12826 H 1240.73 -0.650445 -1.83726 0
M  V30 12827 H 1239.82 0.186337 -3.11543 0
M  V30 12828 N 1240.13 1.55939 -0.228214 0
M  V30 12829 C 1241.06 2.17874 0.711589 0
M  V30 12830 C 1242.07 1.14969 1.15265 0
M  V30 12831 O 1243.26 1.41919 1.08265 0
M  V30 12832 C 1240.36 2.75294 1.97652 0
M  V30 12833 C 1239.53 4.03435 1.68994 0
M  V30 12834 C 1238.59 4.45354 2.8026 0
M  V30 12835 O 1237.62 5.12117 2.48445 0
M  V30 12836 N 1238.82 4.11588 4.0936 0
M  V30 12837 H 1241.58 2.99148 0.181757 0
M  V30 12838 H 1239.15 1.6183 -0.0474567 0
M  V30 12839 H 1241.14 3.00305 2.71292 0
M  V30 12840 H 1239.71 1.98285 2.41665 0
M  V30 12841 H 1238.93 3.8621 0.789657 0
M  V30 12842 H 1240.22 4.87015 1.47287 0
M  V30 12843 H 1239.61 3.57953 4.38048 0
M  V30 12844 H 1238.17 4.41477 4.79522 0
M  V30 12845 N 1241.6 -0.0451101 1.57535 0
M  V30 12846 C 1242.53 -1.05046 2.08537 0
M  V30 12847 C 1243.52 -1.3872 0.984418 0
M  V30 12848 O 1244.7 -1.47884 1.25873 0
M  V30 12849 C 1241.83 -2.3562 2.55148 0
M  V30 12850 C 1240.78 -2.16231 3.69362 0
M  V30 12851 C 1240.11 -3.52423 4.02122 0
M  V30 12852 C 1241.41 -1.56159 4.98409 0
M  V30 12853 H 1243.1 -0.625965 2.92783 0
M  V30 12854 H 1240.65 -0.299657 1.40848 0
M  V30 12855 H 1242.6 -3.06266 2.89446 0
M  V30 12856 H 1241.33 -2.80099 1.67964 0
M  V30 12857 H 1239.99 -1.4802 3.35389 0
M  V30 12858 H 1239.63 -3.94522 3.12028 0
M  V30 12859 H 1239.33 -3.4028 4.79044 0
M  V30 12860 H 1240.86 -4.24458 4.38939 0
M  V30 12861 H 1242.27 -2.16703 5.30766 0
M  V30 12862 H 1240.67 -1.54638 5.79834 0
M  V30 12863 H 1241.74 -0.525698 4.82042 0
M  V30 12864 N 1243.08 -1.54377 -0.317073 0
M  V30 12865 C 1244.5 -1.45232 -0.6618 0
M  V30 12866 C 1244.7 -0.630457 -1.91383 0
M  V30 12867 O 1243.75 -0.13181 -2.52156 0
M  V30 12868 C 1245.07 -2.89025 -0.829761 0
M  V30 12869 C 1246.62 -2.98967 -0.926685 0
M  V30 12870 C 1247.09 -4.43923 -1.12677 0
M  V30 12871 N 1248.58 -4.47564 -1.19335 0
M  V30 12872 C 1249.32 -5.56887 -1.36617 0
M  V30 12873 N 1248.81 -6.76167 -1.50899 0
M  V30 12874 N 1250.61 -5.44546 -1.39377 0
M  V30 12875 H 1242.76 -2.0629 0.505766 0
M  V30 12876 H 1245.02 -0.933615 0.164522 0
M  V30 12877 H 1244.73 -3.51695 0.0190945 0
M  V30 12878 H 1244.6 -3.35515 -1.72364 0
M  V30 12879 H 1246.99 -2.36421 -1.76604 0
M  V30 12880 H 1247.07 -2.55798 -0.00913402 0
M  V30 12881 H 1246.71 -5.07059 -0.29224 0
M  V30 12882 H 1246.64 -4.84708 -2.05829 0
M  V30 12883 H 1249.13 -3.61623 -1.09715 0
M  V30 12884 H 1249.45 -7.55242 -1.63796 0
M  V30 12885 H 1247.79 -6.79062 -1.47985 0
M  V30 12886 H 1250.98 -4.50311 -1.27819 0
M  V30 12887 H 1251.15 -6.29799 -1.52502 0
M  V30 12888 N 1244.56 0.579466 -1.4656 0
M  V30 12889 C 1245.79 1.36837 -1.55854 0
M  V30 12890 C 1246.21 1.87019 -0.20141 0
M  V30 12891 O 1245.57 1.61746 0.81901 0
M  V30 12892 C 1245.62 2.52965 -2.56985 0
M  V30 12893 O 1244.72 3.54505 -2.10713 0
M  V30 12894 H 1244.06 0.407379 -0.524345 0
M  V30 12895 H 1246.59 0.702558 -1.9216 0
M  V30 12896 H 1246.6 2.99838 -2.76697 0
M  V30 12897 H 1245.28 2.15793 -3.55536 0
M  V30 12898 H 1243.85 3.14089 -2.01003 0
M  V30 12899 N 1246.04 1.3432 0.824371 0
M  V30 12900 C 1246.97 1.2842 1.95014 0
M  V30 12901 C 1247.95 0.161925 1.69328 0
M  V30 12902 O 1249.13 0.354052 1.90945 0
M  V30 12903 C 1246.26 1.03741 3.31444 0
M  V30 12904 C 1245.22 2.12419 3.71567 0
M  V30 12905 C 1244.54 1.72931 5.05963 0
M  V30 12906 C 1245.84 3.54235 3.83817 0
M  V30 12907 H 1247.54 2.22614 2.00209 0
M  V30 12908 H 1245.08 1.07165 0.961856 0
M  V30 12909 H 1247.04 0.982586 4.09784 0
M  V30 12910 H 1245.76 0.0598892 3.26545 0
M  V30 12911 H 1244.42 2.16968 2.955 0
M  V30 12912 H 1244.07 0.738433 4.9755 0
M  V30 12913 H 1243.77 2.45668 5.3378 0
M  V30 12914 H 1245.29 1.68941 5.86763 0
M  V30 12915 H 1246.71 3.52106 4.52432 0
M  V30 12916 H 1245.1 4.25581 4.23085 0
M  V30 12917 H 1246.17 3.91682 2.85856 0
M  V30 12918 N 1247.52 -1.0444 1.18026 0
M  V30 12919 C 1248.47 -2.10671 0.871877 0
M  V30 12920 C 1249.45 -1.60134 -0.156798 0
M  V30 12921 O 1250.64 -1.76938 0.0467129 0
M  V30 12922 C 1247.77 -3.41017 0.395271 0
M  V30 12923 C 1246.86 -3.98331 1.4558 0
M  V30 12924 N 1247.25 -4.29508 2.67127 0
M  V30 12925 C 1245.55 -4.2616 1.31544 0
M  V30 12926 C 1246.25 -4.7532 3.35329 0
M  V30 12927 N 1245.22 -4.75904 2.6271 0
M  V30 12928 H 1249.03 -2.32647 1.79589 0
M  V30 12929 H 1246.54 -1.22158 1.0701 0
M  V30 12930 H 1248.54 -4.16609 0.155861 0
M  V30 12931 H 1247.2 -3.20469 -0.522452 0
M  V30 12932 H 1248.21 -4.19271 3.04027 0
M  V30 12933 H 1244.88 -4.14959 0.459962 0
M  V30 12934 H 1246.27 -5.08493 4.39186 0
M  V30 12935 N 1248.99 -0.981699 -1.2329 0
M  V30 12936 C 1249.92 -0.542441 -2.27112 0
M  V30 12937 C 1250.91 0.425034 -1.64704 0
M  V30 12938 O 1252.09 0.318114 -1.91577 0
M  V30 12939 C 1249.22 0.154668 -3.46955 0
M  V30 12940 C 1248.17 -0.73022 -4.21725 0
M  V30 12941 C 1247.5 0.0991766 -5.34608 0
M  V30 12942 C 1248.8 -2.02166 -4.81587 0
M  V30 12943 H 1250.49 -1.41024 -2.64107 0
M  V30 12944 H 1248.04 -0.679544 -1.26957 0
M  V30 12945 H 1249.99 0.473281 -4.18734 0
M  V30 12946 H 1248.72 1.05693 -3.09025 0
M  V30 12947 H 1247.38 -1.03231 -3.51765 0
M  V30 12948 H 1247.02 1.00201 -4.92919 0
M  V30 12949 H 1246.72 -0.489788 -5.85555 0
M  V30 12950 H 1248.25 0.412141 -6.09207 0
M  V30 12951 H 1249.66 -1.76773 -5.45366 0
M  V30 12952 H 1248.06 -2.55851 -5.42826 0
M  V30 12953 H 1249.13 -2.70766 -4.02261 0
M  V30 12954 N 1250.47 1.3842 -0.753509 0
M  V30 12955 C 1251.7 2.04403 -0.320449 0
M  V30 12956 C 1252.12 1.5683 1.05118 0
M  V30 12957 O 1251.47 0.741335 1.66765 0
M  V30 12958 C 1251.52 3.59954 -0.333937 0
M  V30 12959 O 1251.24 4.05782 -1.65144 0
M  V30 12960 C 1252.75 4.43156 0.112997 0
M  V30 12961 H 1249.97 0.656881 -0.136927 0
M  V30 12962 H 1252.51 1.77112 -1.02234 0
M  V30 12963 H 1250.66 3.86083 0.319215 0
M  V30 12964 H 1251.08 5.00213 -1.57757 0
M  V30 12965 H 1252.55 5.51975 0.0523995 0
M  V30 12966 H 1253.03 4.23581 1.16087 0
M  V30 12967 H 1253.64 4.22216 -0.511278 0
M  V30 12968 N 1251.95 0.502579 1.49372 0
M  V30 12969 C 1253.19 -0.0397257 2.04361 0
M  V30 12970 C 1253.55 -1.34131 1.37379 0
M  V30 12971 O 1254.76 -1.96795 1.83099 0
M  V30 12972 C 1253.03 -0.187322 3.56909 0
M  V30 12973 S 1254.59 -0.683647 4.33442 0
M  V30 12974 H 1251.4 -0.00102134 0.710999 0
M  V30 12975 H 1254.01 0.676905 1.83407 0
M  V30 12976 H 1252.71 0.765255 4.03202 0
M  V30 12977 H 1252.24 -0.929146 3.8227 0
M  V30 12978 H 1254.26 -1.95255 4.56169 0
M  V30 12979 N 1253.43 -1.55816 0.23648 0
M  V30 12980 C 1254.71 -1.90565 -0.440933 0
M  V30 12981 C 1255.09 -1.15585 -1.76645 0
M  V30 12982 O 1254.43 -0.269949 -2.269 0
M  V30 12983 C 1254.64 -3.43462 -0.61925 0
M  V30 12984 C 1255.99 -4.14516 -0.91989 0
M  V30 12985 O 1257.02 -3.49144 -0.705496 0
M  V30 12986 O 1255.87 -5.3013 -1.32759 0
M  V30 12987 H 1252.97 -0.79285 -0.235199 0
M  V30 12988 H 1255.51 -1.67378 0.279774 0
M  V30 12989 H 1254.29 -3.90029 0.315124 0
M  V30 12990 H 1253.91 -3.72478 -1.39089 0
M  V30 12991 N 1254.91 0.036755 -1.57557 0
M  V30 12992 C 1256.13 0.744813 -1.93565 0
M  V30 12993 C 1256.56 1.68508 -0.835863 0
M  V30 12994 O 1255.91 1.80091 0.208986 0
M  V30 12995 C 1255.96 1.48461 -3.28621 0
M  V30 12996 O 1255.07 2.59739 -3.20327 0
M  V30 12997 H 1254.41 0.200866 -0.632889 0
M  V30 12998 H 1256.94 -0.00547543 -2.04599 0
M  V30 12999 H 1256.95 1.85622 -3.63329 0
M  V30 13000 H 1255.62 0.794953 -4.08232 0
M  V30 13001 H 1254.2 2.25176 -2.97237 0
M  V30 13002 N 1256.39 1.54543 0.308881 0
M  V30 13003 C 1257.35 1.84214 1.36374 0
M  V30 13004 C 1258.35 0.71463 1.44047 0
M  V30 13005 O 1259.54 0.98293 1.4382 0
M  V30 13006 C 1256.67 2.01535 2.74948 0
M  V30 13007 H 1257.86 2.78477 1.11314 0
M  V30 13008 H 1255.42 1.46485 0.545141 0
M  V30 13009 H 1256.15 1.09533 3.05242 0
M  V30 13010 H 1255.94 2.83595 2.7077 0
M  V30 13011 H 1257.43 2.25888 3.51233 0
M  V30 13012 N 1257.86 -0.571685 1.46866 0
M  V30 13013 C 1259.27 -1.15383 1.46778 0
M  V30 13014 C 1259.63 -1.95023 0.214576 0
M  V30 13015 O 1258.75 -2.05386 -0.681574 0
M  V30 13016 C 1259.35 -2.09915 2.65935 0
M  V30 13017 C 1257.9 -2.6343 2.68852 0
M  V30 13018 C 1257.05 -1.39517 2.39646 0
M  V30 13019 H 1260 -0.359036 1.54585 0
M  V30 13020 H 1260.02 -2.9356 2.42081 0
M  V30 13021 H 1259.54 -1.51923 3.57129 0
M  V30 13022 H 1257.64 -3.2526 1.8176 0
M  V30 13023 H 1257.75 -3.05412 3.69134 0
M  V30 13024 H 1256.11 -1.69702 1.8993 0
M  V30 13025 H 1256.9 -0.833399 3.33031 0
M  V30 13026 N 1259.34 -1.34755 -0.817236 0
M  V30 13027 C 1260.59 -1.2762 -1.5761 0
M  V30 13028 C 1260.92 0.152017 -1.93604 0
M  V30 13029 O 1260.2 1.09881 -1.60488 0
M  V30 13030 C 1260.48 -2.17251 -2.87183 0
M  V30 13031 C 1260.33 -3.68638 -2.57733 0
M  V30 13032 C 1261.65 -2.06206 -3.88802 0
M  V30 13033 H 1258.77 -0.464933 -0.571845 0
M  V30 13034 H 1261.41 -1.6506 -0.941028 0
M  V30 13035 H 1259.56 -1.85452 -3.41379 0
M  V30 13036 H 1261.23 -4.10829 -2.09802 0
M  V30 13037 H 1259.48 -3.89445 -1.91089 0
M  V30 13038 H 1260.15 -4.26726 -3.50156 0
M  V30 13039 H 1262.62 -2.34137 -3.43975 0
M  V30 13040 H 1261.5 -2.71136 -4.77259 0
M  V30 13041 H 1261.76 -1.04075 -4.29675 0
M  V30 13042 N 1260.82 1.03812 -1.18578 0
M  V30 13043 C 1262.07 1.76706 -0.980776 0
M  V30 13044 C 1262.39 1.88729 0.490562 0
M  V30 13045 O 1261.66 1.41413 1.35569 0
M  V30 13046 H 1260.24 0.654586 -0.359898 0
M  V30 13047 H 1262.9 1.25274 -1.49306 0
M  V30 13048 H 1262 2.77876 -1.42096 0
M  V30 13049 N 1262.3 0.988223 1.22768 0
M  V30 13050 C 1263.52 0.679426 1.95955 0
M  V30 13051 C 1263.95 -0.748483 1.72567 0
M  V30 13052 O 1263.31 -1.51097 1.00197 0
M  V30 13053 C 1263.35 0.985284 3.46878 0
M  V30 13054 O 1262.46 0.0814607 4.1232 0
M  V30 13055 H 1261.8 0.254749 0.613188 0
M  V30 13056 H 1264.33 1.32393 1.55991 0
M  V30 13057 H 1264.34 0.925198 3.97371 0
M  V30 13058 H 1263.01 2.02581 3.63227 0
M  V30 13059 H 1261.59 0.196629 3.72381 0
M  V30 13060 N 1263.78 -1.38018 0.760839 0
M  V30 13061 C 1264.71 -2.2899 0.0980916 0
M  V30 13062 C 1265.72 -1.48102 -0.675985 0
M  V30 13063 O 1266.91 -1.70883 -0.515878 0
M  V30 13064 C 1264.01 -3.27142 -0.884959 0
M  V30 13065 C 1263.18 -4.37081 -0.167 0
M  V30 13066 C 1262.24 -5.15375 -1.06184 0
M  V30 13067 O 1261.27 -5.6673 -0.529667 0
M  V30 13068 N 1262.47 -5.29052 -2.38924 0
M  V30 13069 H 1265.23 -2.86508 0.879403 0
M  V30 13070 H 1262.8 -1.49877 0.612245 0
M  V30 13071 H 1264.79 -3.764 -1.48678 0
M  V30 13072 H 1263.36 -2.70471 -1.5673 0
M  V30 13073 H 1262.58 -3.89363 0.615617 0
M  V30 13074 H 1263.87 -5.07732 0.329525 0
M  V30 13075 H 1263.26 -4.88892 -2.84607 0
M  V30 13076 H 1261.82 -5.81658 -2.94139 0
M  V30 13077 N 1265.25 -0.510493 -1.49103 0
M  V30 13078 C 1266.5 0.0305831 -2.02077 0
M  V30 13079 C 1266.82 1.36602 -1.39157 0
M  V30 13080 O 1266.09 1.88016 -0.550154 0
M  V30 13081 H 1264.67 0.0142916 -0.746863 0
M  V30 13082 H 1267.33 -0.669895 -1.83026 0
M  V30 13083 H 1266.43 0.153283 -3.11723 0
M  V30 13084 N 1266.73 1.55688 -0.24474 0
M  V30 13085 C 1267.96 2.0329 0.384808 0
M  V30 13086 C 1268.37 1.12405 1.51692 0
M  V30 13087 O 1267.73 0.138056 1.81977 0
M  V30 13088 C 1267.78 3.50255 0.894635 0
M  V30 13089 O 1267.5 4.37677 -0.192365 0
M  V30 13090 C 1269 4.13608 1.59509 0
M  V30 13091 H 1266.22 0.664706 0.0916908 0
M  V30 13092 H 1268.77 2.01162 -0.367973 0
M  V30 13093 H 1266.92 3.52924 1.5976 0
M  V30 13094 H 1267.34 5.2414 0.194424 0
M  V30 13095 H 1268.81 5.1814 1.90356 0
M  V30 13096 H 1269.29 3.5997 2.51631 0
M  V30 13097 H 1269.89 4.14856 0.936749 0
M  V30 13098 N 1268.21 -0.0283989 1.57574 0
M  V30 13099 C 1269.46 -0.714661 1.90432 0
M  V30 13100 C 1269.81 -1.72929 0.843409 0
M  V30 13101 O 1269.1 -1.91029 -0.147815 0
M  V30 13102 C 1269.3 -1.4247 3.27776 0
M  V30 13103 C 1269.13 -0.480353 4.47127 0
M  V30 13104 C 1267.9 -0.101157 5.05199 0
M  V30 13105 C 1270.09 0.241526 5.13733 0
M  V30 13106 N 1268.08 0.844371 6.08065 0
M  V30 13107 C 1269.45 1.04269 6.11169 0
M  V30 13108 C 1271.5 0.308398 4.96944 0
M  V30 13109 C 1270.21 1.90459 6.93627 0
M  V30 13110 C 1272.23 1.15742 5.79964 0
M  V30 13111 C 1271.59 1.94651 6.76971 0
M  V30 13112 H 1267.69 -0.23559 0.745668 0
M  V30 13113 H 1270.28 0.0252703 1.94684 0
M  V30 13114 H 1268.45 -2.13509 3.24451 0
M  V30 13115 H 1270.18 -2.0634 3.48146 0
M  V30 13116 H 1266.93 -0.463482 4.71327 0
M  V30 13117 H 1267.36 1.31166 6.64172 0
M  V30 13118 H 1272 -0.287369 4.21822 0
M  V30 13119 H 1269.72 2.51115 7.68093 0
M  V30 13120 H 1273.3 1.2127 5.69021 0
M  V30 13121 H 1272.18 2.59286 7.40095 0
M  V30 13122 N 1269.69 -1.54705 -0.300681 0
M  V30 13123 C 1270.91 -1.78318 -1.05913 0
M  V30 13124 C 1271.34 -0.541177 -1.80147 0
M  V30 13125 O 1270.7 0.508291 -1.74029 0
M  V30 13126 C 1270.74 -2.99041 -2.01511 0
M  V30 13127 O 1269.85 -2.72188 -3.09818 0
M  V30 13128 H 1269.19 -0.590197 -0.304242 0
M  V30 13129 H 1271.72 -2.01789 -0.338006 0
M  V30 13130 H 1271.73 -3.2702 -2.43971 0
M  V30 13131 H 1270.4 -3.89098 -1.46886 0
M  V30 13132 H 1268.98 -2.55227 -2.71871 0
M  V30 13133 N 1271.17 0.563888 -1.47167 0
M  V30 13134 C 1272.39 1.34693 -1.57052 0
M  V30 13135 C 1272.81 1.87534 -0.218308 0
M  V30 13136 O 1272.17 1.64639 0.787416 0
M  V30 13137 C 1272.22 2.52148 -2.59044 0
M  V30 13138 O 1271.94 2.01492 -3.89015 0
M  V30 13139 C 1273.44 3.4445 -2.7905 0
M  V30 13140 H 1270.66 0.410822 -0.530534 0
M  V30 13141 H 1273.2 0.683731 -1.92731 0
M  V30 13142 H 1271.36 3.14419 -2.26317 0
M  V30 13143 H 1271.77 2.78122 -4.44689 0
M  V30 13144 H 1273.25 4.23297 -3.54293 0
M  V30 13145 H 1273.72 3.97575 -1.86631 0
M  V30 13146 H 1274.33 2.88 -3.12948 0
M  V30 13147 N 1272.64 1.35187 0.810078 0
M  V30 13148 C 1273.87 1.31528 1.60359 0
M  V30 13149 C 1274.29 -0.105385 1.87805 0
M  V30 13150 O 1273.65 -1.07113 1.46276 0
M  V30 13151 C 1273.7 2.12429 2.91386 0
M  V30 13152 O 1272.8 1.50262 3.84051 0
M  V30 13153 H 1272.15 0.451122 0.487222 0
M  V30 13154 H 1274.68 1.78178 1.00568 0
M  V30 13155 H 1274.69 2.24257 3.40841 0
M  V30 13156 H 1273.36 3.15714 2.70735 0
M  V30 13157 H 1271.94 1.47253 3.42594 0
M  V30 13158 N 1274.12 -1.03182 1.19127 0
M  V30 13159 C 1275.36 -1.78089 1.00318 0
M  V30 13160 C 1275.73 -1.86451 -0.458252 0
M  V30 13161 O 1276.93 -2.57653 -0.766061 0
M  V30 13162 C 1275.2 -3.17012 1.6504 0
M  V30 13163 S 1276.76 -4.08146 1.61129 0
M  V30 13164 H 1273.58 -0.613096 0.360048 0
M  V30 13165 H 1276.18 -1.23657 1.51424 0
M  V30 13166 H 1274.88 -3.08541 2.70612 0
M  V30 13167 H 1274.41 -3.7652 1.14001 0
M  V30 13168 H 1276.43 -4.92141 0.633408 0
M  V30 13169 N 1275.6 -0.99472 -1.22242 0
M  V30 13170 C 1277.02 -0.705762 -1.43147 0
M  V30 13171 C 1277.22 0.722908 -1.88086 0
M  V30 13172 O 1276.27 1.49359 -2.03588 0
M  V30 13173 C 1277.59 -1.71288 -2.47145 0
M  V30 13174 C 1279.13 -1.72853 -2.60942 0
M  V30 13175 C 1279.61 -2.72433 -3.68163 0
M  V30 13176 N 1281.1 -2.71039 -3.75623 0
M  V30 13177 C 1281.83 -3.44753 -4.58184 0
M  V30 13178 N 1281.33 -4.28075 -5.44724 0
M  V30 13179 N 1283.12 -3.33451 -4.52512 0
M  V30 13180 H 1275.27 -1.91738 -0.913792 0
M  V30 13181 H 1277.54 -0.82702 -0.463403 0
M  V30 13182 H 1277.24 -2.7353 -2.21075 0
M  V30 13183 H 1277.12 -1.50721 -3.45779 0
M  V30 13184 H 1279.5 -0.713085 -2.86355 0
M  V30 13185 H 1279.59 -1.9749 -1.62577 0
M  V30 13186 H 1279.23 -3.74129 -3.43497 0
M  V30 13187 H 1279.16 -2.45066 -4.66101 0
M  V30 13188 H 1281.65 -2.10581 -3.1379 0
M  V30 13189 H 1281.96 -4.81143 -6.04749 0
M  V30 13190 H 1280.31 -4.32161 -5.44299 0
M  V30 13191 H 1283.5 -2.67797 -3.8393 0
M  V30 13192 H 1283.67 -3.91158 -5.16623 0
M  V30 13193 N 1277.08 1.37613 -0.768148 0
M  V30 13194 C 1278.33 1.99023 -0.327543 0
M  V30 13195 C 1278.64 1.61669 1.10103 0
M  V30 13196 O 1279.85 2.16155 1.64284 0
M  V30 13197 C 1278.3 3.55906 -0.534674 0
M  V30 13198 C 1277.91 4.02201 -1.97327 0
M  V30 13199 C 1279.65 4.24208 -0.157512 0
M  V30 13200 C 1277.56 5.51781 -2.12819 0
M  V30 13201 H 1276.49 0.744595 -0.118722 0
M  V30 13202 H 1279.14 1.5719 -0.946764 0
M  V30 13203 H 1277.52 3.95701 0.153951 0
M  V30 13204 H 1278.7 3.73661 -2.69655 0
M  V30 13205 H 1277.01 3.46671 -2.30669 0
M  V30 13206 H 1279.61 5.34107 -0.251824 0
M  V30 13207 H 1279.95 4.06636 0.89177 0
M  V30 13208 H 1280.49 3.89703 -0.798546 0
M  V30 13209 H 1277.23 5.74274 -3.16053 0
M  V30 13210 H 1276.75 5.82017 -1.4497 0
M  V30 13211 H 1278.42 6.17697 -1.92508 0
M  V30 13212 N 1278.56 0.518393 1.4883 0
M  V30 13213 C 1279.5 -0.264197 2.31095 0
M  V30 13214 C 1280.5 -0.946455 1.40494 0
M  V30 13215 O 1281.7 -0.872161 1.57459 0
M  V30 13216 H 1278.08 -0.104065 0.744765 0
M  V30 13217 H 1280.05 0.449375 2.94997 0
M  V30 13218 C 1278.8 -1.30527 3.2227 0
M  V30 13219 H 1278.12 -0.789695 3.91923 0
M  V30 13220 H 1279.56 -1.82449 3.82738 0
M  V30 13221 C 1278.02 -2.33274 2.43073 0
M  V30 13222 O 1278.55 -3.39493 2.14726 0
M  V30 13223 N 1276.76 -2.06189 2.04779 0
M  V30 13224 H 1276.3 -1.19829 2.28033 0
M  V30 13225 H 1276.26 -2.7516 1.521 0
M  V30 13226 N 1280.03 -1.55556 0.252993 0
M  V30 13227 C 1280.98 -2.18298 -0.658028 0
M  V30 13228 C 1281.97 -1.14072 -1.13474 0
M  V30 13229 O 1283.16 -1.39962 -1.0835 0
M  V30 13230 C 1280.29 -2.89067 -1.8519 0
M  V30 13231 C 1279.38 -4.00556 -1.3934 0
M  V30 13232 N 1279.77 -5.01612 -0.649538 0
M  V30 13233 C 1278.06 -4.13222 -1.67819 0
M  V30 13234 C 1278.77 -5.80244 -0.411347 0
M  V30 13235 N 1277.74 -5.34742 -0.977342 0
M  V30 13236 H 1281.54 -2.93787 -0.0816162 0
M  V30 13237 H 1279.06 -1.62305 0.0555728 0
M  V30 13238 H 1281.05 -3.32448 -2.51563 0
M  V30 13239 H 1279.71 -2.15082 -2.43248 0
M  V30 13240 H 1280.73 -5.17036 -0.299043 0
M  V30 13241 H 1277.4 -3.50414 -2.26972 0
M  V30 13242 H 1278.79 -6.71651 0.182911 0
M  V30 13243 N 1281.51 0.0200419 -1.57587 0
M  V30 13244 C 1282.44 1.01715 -2.10181 0
M  V30 13245 C 1283.42 1.37136 -1.00636 0
M  V30 13246 O 1284.61 1.45862 -1.2821 0
M  V30 13247 C 1281.74 2.31531 -2.58865 0
M  V30 13248 C 1280.69 2.10327 -3.72755 0
M  V30 13249 C 1280.02 3.45981 -4.07678 0
M  V30 13250 C 1281.32 1.4821 -5.0083 0
M  V30 13251 H 1283.01 0.579307 -2.93742 0
M  V30 13252 H 1280.56 0.277211 -1.41307 0
M  V30 13253 H 1282.51 3.01623 -2.94281 0
M  V30 13254 H 1281.24 2.77392 -1.72399 0
M  V30 13255 H 1279.89 1.42665 -3.37701 0
M  V30 13256 H 1279.54 3.89508 -3.18265 0
M  V30 13257 H 1279.24 3.32616 -4.84397 0
M  V30 13258 H 1280.77 4.17421 -4.45637 0
M  V30 13259 H 1282.18 2.08232 -5.34146 0
M  V30 13260 H 1280.58 1.45393 -5.82221 0
M  V30 13261 H 1281.65 0.448942 -4.82817 0
M  V30 13262 N 1282.99 1.54862 0.292472 0
M  V30 13263 C 1284.24 1.73756 1.02429 0
M  V30 13264 C 1284.55 0.535164 1.88137 0
M  V30 13265 O 1285.76 0.606092 2.64648 0
M  V30 13266 C 1284.21 3.0745 1.8709 0
M  V30 13267 C 1283.82 4.35195 1.06343 0
M  V30 13268 C 1285.57 3.357 2.59819 0
M  V30 13269 C 1283.47 5.59936 1.9033 0
M  V30 13270 H 1282.4 0.647617 0.386145 0
M  V30 13271 H 1285.05 1.81338 0.28086 0
M  V30 13272 H 1283.44 2.93855 2.65453 0
M  V30 13273 H 1284.61 4.5965 0.325335 0
M  V30 13274 H 1282.93 4.13944 0.451574 0
M  V30 13275 H 1285.52 4.26099 3.23023 0
M  V30 13276 H 1285.87 2.54956 3.29094 0
M  V30 13277 H 1286.4 3.50304 1.88499 0
M  V30 13278 H 1283.14 6.43372 1.25509 0
M  V30 13279 H 1282.66 5.39654 2.61789 0
M  V30 13280 H 1284.34 5.97512 2.48171 0
M  V30 13281 N 1284.47 -0.556076 1.47464 0
M  V30 13282 C 1285.72 -1.3132 1.54147 0
M  V30 13283 C 1286.04 -1.93425 0.204221 0
M  V30 13284 O 1285.3 -1.78467 -0.803002 0
M  V30 13285 C 1285.6 -2.44298 2.6087 0
M  V30 13286 C 1285.26 -2.00016 4.04109 0
M  V30 13287 C 1283.93 -1.87656 4.43101 0
M  V30 13288 C 1286.28 -1.66228 4.93981 0
M  V30 13289 C 1283.61 -1.39805 5.698 0
M  V30 13290 C 1285.96 -1.19848 6.21144 0
M  V30 13291 C 1284.62 -1.06084 6.59016 0
M  V30 13292 H 1283.89 -0.480534 0.564064 0
M  V30 13293 H 1286.54 -0.623449 1.81067 0
M  V30 13294 H 1284.84 -3.18834 2.27711 0
M  V30 13295 H 1286.54 -3.02479 2.63263 0
M  V30 13296 H 1283.13 -2.1058 3.73302 0
M  V30 13297 H 1287.31 -1.7465 4.64555 0
M  V30 13298 H 1282.57 -1.27814 5.97891 0
M  V30 13299 H 1286.74 -0.927657 6.90194 0
M  V30 13300 H 1284.37 -0.687834 7.57082 0
M  V30 13301 N 1285.95 -1.35615 -0.802897 0
M  V30 13302 C 1287.36 -1.15733 -1.099 0
M  V30 13303 C 1287.56 0.0277094 -2.01481 0
M  V30 13304 O 1286.62 0.697196 -2.42684 0
M  V30 13305 C 1287.93 -2.46201 -1.72643 0
M  V30 13306 C 1289.48 -2.52442 -1.85046 0
M  V30 13307 C 1289.96 -3.82962 -2.51205 0
M  V30 13308 N 1291.45 -3.84234 -2.58686 0
M  V30 13309 C 1292.18 -4.81956 -3.10654 0
M  V30 13310 N 1291.68 -5.90068 -3.63032 0
M  V30 13311 N 1293.47 -4.69389 -3.09241 0
M  V30 13312 H 1285.62 -2.11511 -0.194177 0
M  V30 13313 H 1287.88 -0.936259 -0.148739 0
M  V30 13314 H 1287.59 -3.33114 -1.12817 0
M  V30 13315 H 1287.46 -2.6102 -2.72302 0
M  V30 13316 H 1289.85 -1.65955 -2.44014 0
M  V30 13317 H 1289.93 -2.41534 -0.842316 0
M  V30 13318 H 1289.58 -4.69848 -1.92885 0
M  V30 13319 H 1289.51 -3.9116 -3.52564 0
M  V30 13320 H 1292 -3.0612 -2.21582 0
M  V30 13321 H 1292.31 -6.60623 -4.00996 0
M  V30 13322 H 1290.66 -5.93755 -3.6122 0
M  V30 13323 H 1293.85 -3.84066 -2.67602 0
M  V30 13324 H 1294.02 -5.4571 -3.49435 0
M  V30 13325 N 1287.43 1.02549 -1.19673 0
M  V30 13326 C 1288.67 1.75656 -0.999463 0
M  V30 13327 C 1288.99 1.89238 0.470517 0
M  V30 13328 O 1288.26 1.42843 1.34062 0
M  V30 13329 H 1286.84 0.650732 -0.366821 0
M  V30 13330 H 1289.51 1.23684 -1.50627 0
M  V30 13331 H 1288.6 2.76353 -1.45035 0
M  V30 13332 N 1288.9 1.00119 1.21713 0
M  V30 13333 C 1290.15 0.680377 1.90303 0
M  V30 13334 C 1290.47 -0.790927 1.7824 0
M  V30 13335 O 1289.74 -1.5676 1.17486 0
M  V30 13336 H 1288.32 0.248665 0.704397 0
M  V30 13337 H 1290.98 1.26948 1.47886 0
M  V30 13338 H 1290.08 0.950188 2.97284 0
M  V30 13339 N 1290.38 -1.37203 0.775435 0
M  V30 13340 C 1291.34 -2.28566 0.170406 0
M  V30 13341 C 1292.34 -1.48195 -0.624085 0
M  V30 13342 O 1293.53 -1.68364 -0.447132 0
M  V30 13343 C 1290.67 -3.32186 -0.765829 0
M  V30 13344 H 1291.86 -2.8358 0.975824 0
M  V30 13345 H 1289.41 -1.46531 0.543895 0
M  V30 13346 H 1290.15 -2.82303 -1.59611 0
M  V30 13347 H 1289.93 -3.91598 -0.198251 0
M  V30 13348 H 1291.42 -4.0045 -1.18446 0
M  V30 13349 N 1291.86 -0.526279 -1.48553 0
M  V30 13350 C 1292.79 0.275579 -2.27537 0
M  V30 13351 C 1293.8 0.90782 -1.35139 0
M  V30 13352 O 1294.99 0.786887 -1.6022 0
M  V30 13353 C 1292.09 1.40515 -3.08397 0
M  V30 13354 C 1291.27 0.875523 -4.28548 0
M  V30 13355 C 1290.33 1.88577 -4.91249 0
M  V30 13356 O 1289.35 1.44419 -5.50574 0
M  V30 13357 N 1290.55 3.21774 -4.83158 0
M  V30 13358 H 1293.32 -0.401803 -2.96994 0
M  V30 13359 H 1290.88 -0.360378 -1.57838 0
M  V30 13360 H 1292.87 2.07907 -3.47213 0
M  V30 13361 H 1291.44 1.98626 -2.41384 0
M  V30 13362 H 1290.66 0.025728 -3.94192 0
M  V30 13363 H 1291.95 0.500493 -5.06332 0
M  V30 13364 H 1291.35 3.60319 -4.36104 0
M  V30 13365 H 1289.9 3.84808 -5.26085 0
M  V30 13366 N 1293.34 1.5542 -0.261239 0
M  V30 13367 C 1294.59 1.9846 0.360052 0
M  V30 13368 C 1294.9 1.15288 1.58013 0
M  V30 13369 O 1296.11 1.48408 2.27348 0
M  V30 13370 C 1294.56 3.53185 0.691964 0
M  V30 13371 C 1294.17 4.45116 -0.507521 0
M  V30 13372 C 1295.91 4.04848 1.27665 0
M  V30 13373 C 1293.82 5.91207 -0.150966 0
M  V30 13374 H 1292.75 0.741207 0.138303 0
M  V30 13375 H 1295.4 1.79859 -0.363712 0
M  V30 13376 H 1293.78 3.67535 1.47425 0
M  V30 13377 H 1294.96 4.42531 -1.28465 0
M  V30 13378 H 1293.27 4.04013 -1.0081 0
M  V30 13379 H 1295.87 5.11529 1.55699 0
M  V30 13380 H 1296.21 3.5305 2.20593 0
M  V30 13381 H 1296.75 3.93882 0.556955 0
M  V30 13382 H 1293.48 6.47072 -1.04776 0
M  V30 13383 H 1293 5.96894 0.589671 0
M  V30 13384 H 1294.68 6.4647 0.261772 0
M  V30 13385 N 1294.82 -0.0116844 1.57596 0
M  V30 13386 C 1296.04 -0.71026 1.94327 0
M  V30 13387 C 1296.46 -1.67952 0.862418 0
M  V30 13388 O 1295.82 -1.818 -0.159698 0
M  V30 13389 C 1295.87 -1.45228 3.31045 0
M  V30 13390 O 1295.59 -0.52191 4.3498 0
M  V30 13391 C 1297.09 -2.24644 3.82165 0
M  V30 13392 H 1294.31 -0.198559 0.640949 0
M  V30 13393 H 1296.85 0.0359615 2.04468 0
M  V30 13394 H 1295.01 -2.15023 3.22248 0
M  V30 13395 H 1295.42 -1.04415 5.14002 0
M  V30 13396 H 1296.9 -2.72078 4.80289 0
M  V30 13397 H 1297.37 -3.06817 3.14261 0
M  V30 13398 H 1297.98 -1.59888 3.94101 0
M  V30 13399 N 1296.29 -1.55015 -0.284256 0
M  V30 13400 C 1297.54 -1.7509 -1.01733 0
M  V30 13401 C 1297.87 -0.545803 -1.86685 0
M  V30 13402 O 1297.12 0.471951 -1.89924 0
M  V30 13403 C 1297.42 -3.00246 -1.93874 0
M  V30 13404 C 1297.09 -4.33295 -1.24764 0
M  V30 13405 C 1295.75 -4.69459 -1.0565 0
M  V30 13406 C 1298.1 -5.15704 -0.754939 0
M  V30 13407 C 1295.43 -5.85596 -0.35976 0
M  V30 13408 C 1297.78 -6.32559 -0.0718473 0
M  V30 13409 C 1296.45 -6.67371 0.131104 0
M  V30 13410 H 1295.72 -0.6407 -0.372269 0
M  V30 13411 H 1298.36 -1.89282 -0.290638 0
M  V30 13412 H 1296.67 -2.80907 -2.73127 0
M  V30 13413 H 1298.37 -3.12974 -2.50696 0
M  V30 13414 H 1294.96 -4.04865 -1.4065 0
M  V30 13415 H 1299.14 -4.8825 -0.89027 0
M  V30 13416 H 1294.4 -6.11099 -0.19169 0
M  V30 13417 H 1298.57 -6.95675 0.317743 0
M  V30 13418 H 1296.2 -7.57215 0.672977 0
M  V30 13419 N 1297.77 0.548248 -1.47757 0
M  V30 13420 C 1298.7 1.66409 -1.63799 0
M  V30 13421 C 1299.68 1.62973 -0.487211 0
M  V30 13422 O 1300.87 1.80455 -0.717612 0
M  V30 13423 C 1298 3.05035 -1.66046 0
M  V30 13424 C 1296.95 3.23322 -2.80441 0
M  V30 13425 C 1296.28 4.62824 -2.67765 0
M  V30 13426 C 1297.58 3.07837 -4.2194 0
M  V30 13427 H 1299.27 1.53239 -2.57212 0
M  V30 13428 H 1296.82 0.735783 -1.23783 0
M  V30 13429 H 1298.77 3.82951 -1.75859 0
M  V30 13430 H 1297.49 3.19185 -0.69199 0
M  V30 13431 H 1296.15 2.47816 -2.70153 0
M  V30 13432 H 1295.8 4.73786 -1.68927 0
M  V30 13433 H 1295.5 4.76007 -3.44515 0
M  V30 13434 H 1297.03 5.42864 -2.7952 0
M  V30 13435 H 1298.44 3.75563 -4.33157 0
M  V30 13436 H 1296.84 3.32525 -4.99547 0
M  V30 13437 H 1297.91 2.04474 -4.3968 0
M  V30 13438 N 1299.25 1.36039 0.795694 0
M  V30 13439 C 1300.21 1.29709 1.88966 0
M  V30 13440 C 1301.21 0.206142 1.59473 0
M  V30 13441 O 1302.4 0.460534 1.68002 0
M  V30 13442 C 1299.53 1.00922 3.25619 0
M  V30 13443 H 1300.73 2.26993 1.95995 0
M  V30 13444 H 1298.28 1.2072 0.992791 0
M  V30 13445 H 1299.02 0.0407027 3.24274 0
M  V30 13446 H 1298.8 1.79863 3.48413 0
M  V30 13447 H 1300.29 0.990826 4.05675 0
M  V30 13448 N 1300.73 -1.01913 1.20215 0
M  V30 13449 C 1301.96 -1.79076 1.03631 0
M  V30 13450 C 1302.37 -1.84192 -0.414583 0
M  V30 13451 O 1301.73 -1.29306 -1.28788 0
M  V30 13452 C 1301.78 -3.23665 1.61008 0
M  V30 13453 O 1301.5 -3.18873 3.00419 0
M  V30 13454 C 1303 -4.17387 1.49342 0
M  V30 13455 H 1300.22 -0.563241 0.364692 0
M  V30 13456 H 1302.77 -1.283 1.59246 0
M  V30 13457 H 1300.92 -3.71597 1.09518 0
M  V30 13458 H 1301.33 -4.09609 3.27598 0
M  V30 13459 H 1302.81 -5.16691 1.94253 0
M  V30 13460 H 1303.29 -4.36935 0.445493 0
M  V30 13461 H 1303.89 -3.75335 2.0001 0
M  V30 13462 N 1302.21 -1.00763 -1.2118 0
M  V30 13463 C 1303.45 -0.691826 -1.90316 0
M  V30 13464 C 1303.78 0.777678 -1.78276 0
M  V30 13465 O 1303.04 1.57962 -1.15526 0
M  V30 13466 C 1303.34 -1.06187 -3.41261 0
M  V30 13467 C 1303 -2.52608 -3.73497 0
M  V30 13468 C 1301.66 -2.92617 -3.82006 0
M  V30 13469 C 1304.02 -3.47442 -3.88502 0
M  V30 13470 C 1301.34 -4.26419 -4.02969 0
M  V30 13471 C 1303.7 -4.8092 -4.10973 0
M  V30 13472 C 1302.36 -5.20649 -4.17709 0
M  V30 13473 H 1301.63 -0.253157 -0.696414 0
M  V30 13474 H 1304.28 -1.26655 -1.43634 0
M  V30 13475 H 1302.58 -0.405428 -3.89697 0
M  V30 13476 H 1304.28 -0.795343 -3.93033 0
M  V30 13477 H 1300.87 -2.20603 -3.67468 0
M  V30 13478 H 1305.05 -3.17695 -3.81292 0
M  V30 13479 H 1300.31 -4.56767 -4.06416 0
M  V30 13480 H 1304.48 -5.54337 -4.21525 0
M  V30 13481 H 1302.11 -6.24343 -4.33705 0
M  V30 13482 N 1303.68 1.3679 -0.7827 0
M  V30 13483 C 1304.96 1.93639 -0.276278 0
M  V30 13484 C 1305.34 1.7153 1.23048 0
M  V30 13485 O 1304.69 1.07037 2.01879 0
M  V30 13486 C 1304.9 3.42672 -0.661586 0
M  V30 13487 C 1306.25 4.19786 -0.637538 0
M  V30 13488 O 1307.27 3.51082 -0.601645 0
M  V30 13489 O 1306.13 5.42323 -0.674408 0
M  V30 13490 H 1303.22 0.824307 -0.0666832 0
M  V30 13491 H 1305.77 1.46012 -0.864792 0
M  V30 13492 H 1304.54 3.52393 -1.70103 0
M  V30 13493 H 1304.17 3.97573 -0.0465987 0
M  V30 13494 N 1305.16 0.53415 1.48272 0
M  V30 13495 C 1306.41 0.00157492 2.028 0
M  V30 13496 C 1306.74 -1.33538 1.41001 0
M  V30 13497 O 1306.02 -1.86347 0.557245 0
M  V30 13498 C 1306.3 -0.116016 3.59913 0
M  V30 13499 C 1306.15 1.2464 4.32186 0
M  V30 13500 C 1307.47 -0.840775 4.31994 0
M  V30 13501 H 1304.59 0.00204634 0.736997 0
M  V30 13502 H 1307.23 0.691985 1.76951 0
M  V30 13503 H 1305.38 -0.704027 3.82068 0
M  V30 13504 H 1307.05 1.87584 4.21438 0
M  V30 13505 H 1305.3 1.8272 3.93441 0
M  V30 13506 H 1305.97 1.11708 5.40579 0
M  V30 13507 H 1308.44 -0.341746 4.14694 0
M  V30 13508 H 1307.32 -0.89196 5.41604 0
M  V30 13509 H 1307.58 -1.89197 3.99571 0
M  V30 13510 N 1306.64 -1.55279 0.269478 0
M  V30 13511 C 1307.87 -2.04334 -0.355313 0
M  V30 13512 C 1308.29 -1.14677 -1.491 0
M  V30 13513 O 1307.65 -0.144215 -1.80726 0
M  V30 13514 C 1307.7 -3.51172 -0.819162 0
M  V30 13515 O 1306.8 -3.64615 -1.9269 0
M  V30 13516 H 1306.14 -0.659827 -0.0743229 0
M  V30 13517 H 1308.67 -2.00609 0.402131 0
M  V30 13518 H 1308.68 -3.92428 -1.11642 0
M  V30 13519 H 1307.36 -4.15898 0.0117821 0
M  V30 13520 H 1305.93 -3.35261 -1.63261 0
M  V30 13521 N 1308.12 0.00332656 -1.576 0
M  V30 13522 C 1309.53 0.546581 -1.7852 0
M  V30 13523 C 1309.88 1.74147 -0.903722 0
M  V30 13524 O 1309.01 2.16144 -0.105314 0
M  V30 13525 C 1309.6 0.998344 -3.23757 0
M  V30 13526 C 1308.16 1.48693 -3.45785 0
M  V30 13527 C 1307.31 0.436617 -2.73841 0
M  V30 13528 H 1310.26 -0.222852 -1.57128 0
M  V30 13529 H 1310.28 1.86452 -3.31686 0
M  V30 13530 H 1309.79 0.128479 -3.87887 0
M  V30 13531 H 1307.89 2.3778 -2.86865 0
M  V30 13532 H 1308 1.51668 -4.5446 0
M  V30 13533 H 1306.37 0.897506 -2.38363 0
M  V30 13534 H 1307.15 -0.424225 -3.40669 0
M  V30 13535 N 1309.6 1.55164 0.276031 0
M  V30 13536 C 1310.54 1.87836 1.34113 0
M  V30 13537 C 1311.51 0.729562 1.4922 0
M  V30 13538 O 1312.7 0.980549 1.63676 0
M  V30 13539 C 1309.84 2.15313 2.69693 0
M  V30 13540 C 1308.95 3.42845 2.62833 0
M  V30 13541 C 1308.09 3.60038 3.90572 0
M  V30 13542 C 1307.13 4.81273 3.7821 0
M  V30 13543 N 1306.26 4.95139 4.97777 0
M  V30 13544 H 1311.1 2.78681 1.0555 0
M  V30 13545 H 1308.64 1.37976 0.510001 0
M  V30 13546 H 1310.6 2.29243 3.48573 0
M  V30 13547 H 1309.23 1.27706 2.96464 0
M  V30 13548 H 1308.28 3.37403 1.75679 0
M  V30 13549 H 1309.59 4.3186 2.49597 0
M  V30 13550 H 1308.75 3.73769 4.77893 0
M  V30 13551 H 1307.48 2.69203 4.06671 0
M  V30 13552 H 1306.49 4.67549 2.89271 0
M  V30 13553 H 1307.71 5.7354 3.63632 0
M  V30 13554 H 1305.66 4.07234 5.14292 0
M  V30 13555 H 1305.58 5.78194 4.8706 0
M  V30 13556 H 1306.85 5.13253 5.86679 0
M  V30 13557 N 1311.07 -0.540404 1.48045 0
M  V30 13558 C 1312.04 -1.62813 1.61322 0
M  V30 13559 C 1313.04 -1.53243 0.487161 0
M  V30 13560 O 1314.23 -1.571 0.752684 0
M  V30 13561 C 1311.36 -3.02408 1.5736 0
M  V30 13562 H 1312.55 -1.52385 2.583 0
M  V30 13563 H 1310.11 -0.761654 1.36486 0
M  V30 13564 H 1310.84 -3.18353 0.618195 0
M  V30 13565 H 1310.63 -3.10763 2.39099 0
M  V30 13566 H 1312.12 -3.8151 1.69822 0
M  V30 13567 N 1312.55 -1.36459 -0.788468 0
M  V30 13568 C 1313.8 -1.30935 -1.54867 0
M  V30 13569 C 1314.13 0.110916 -1.93883 0
M  V30 13570 O 1313.41 1.06452 -1.62783 0
M  V30 13571 C 1313.69 -2.23294 -2.8251 0
M  V30 13572 C 1313.54 -3.74022 -2.49856 0
M  V30 13573 C 1314.86 -2.14407 -3.84341 0
M  V30 13574 H 1311.98 -0.476958 -0.561854 0
M  V30 13575 H 1314.62 -1.67018 -0.905805 0
M  V30 13576 H 1312.77 -1.92652 -3.37369 0
M  V30 13577 H 1314.44 -4.15187 -2.01041 0
M  V30 13578 H 1312.69 -3.93411 -1.82785 0
M  V30 13579 H 1313.36 -4.34057 -3.41026 0
M  V30 13580 H 1315.83 -2.41381 -3.38932 0
M  V30 13581 H 1314.71 -2.81199 -4.71401 0
M  V30 13582 H 1314.97 -1.13166 -4.27371 0
M  V30 13583 N 1314.03 1.01274 -1.20754 0
M  V30 13584 C 1314.96 2.11763 -0.983805 0
M  V30 13585 C 1315.94 1.69869 0.0885635 0
M  V30 13586 O 1317.13 1.94075 -0.0697239 0
M  V30 13587 C 1314.26 3.43087 -0.539287 0
M  V30 13588 C 1313.21 3.9874 -1.55534 0
M  V30 13589 C 1312.54 5.25877 -0.967322 0
M  V30 13590 C 1313.84 4.31688 -2.94012 0
M  V30 13591 H 1315.53 2.30737 -1.90789 0
M  V30 13592 H 1313.08 1.10884 -0.918734 0
M  V30 13593 H 1315.03 4.19773 -0.369979 0
M  V30 13594 H 1313.75 3.23883 0.420435 0
M  V30 13595 H 1312.41 3.24166 -1.71207 0
M  V30 13596 H 1312.06 5.03 0.000448307 0
M  V30 13597 H 1311.76 5.64077 -1.64594 0
M  V30 13598 H 1313.28 6.05215 -0.809167 0
M  V30 13599 H 1314.7 4.99246 -2.81827 0
M  V30 13600 H 1313.1 4.81011 -3.58815 0
M  V30 13601 H 1314.17 3.4029 -3.45442 0
M  V30 13602 N 1315.51 1.01404 1.20644 0
M  V30 13603 C 1316.76 0.700523 1.89571 0
M  V30 13604 C 1317.08 -0.771978 1.79068 0
M  V30 13605 O 1316.35 -1.55506 1.19142 0
M  V30 13606 H 1314.93 0.256122 0.70172 0
M  V30 13607 H 1317.59 1.28509 1.46531 0
M  V30 13608 H 1316.69 0.981665 2.9626 0
M  V30 13609 N 1316.99 -1.36373 0.789944 0
M  V30 13610 C 1318.26 -1.9349 0.286543 0
M  V30 13611 C 1318.64 -1.7218 -1.22136 0
M  V30 13612 O 1317.99 -1.08106 -2.01309 0
M  V30 13613 C 1318.2 -3.42316 0.679749 0
M  V30 13614 C 1319.55 -4.19442 0.659791 0
M  V30 13615 O 1320.57 -3.50758 0.620256 0
M  V30 13616 O 1319.43 -5.41957 0.703159 0
M  V30 13617 H 1316.53 -0.823942 0.0710537 0
M  V30 13618 H 1319.07 -1.45551 0.872523 0
M  V30 13619 H 1317.85 -3.51485 1.7197 0
M  V30 13620 H 1317.47 -3.97542 0.0676823 0
M  V30 13621 N 1318.47 -0.542005 -1.47987 0
M  V30 13622 C 1319.88 -0.200691 -1.58333 0
M  V30 13623 C 1320.08 1.29643 -1.54256 0
M  V30 13624 O 1319.14 2.07556 -1.43794 0
M  V30 13625 C 1320.45 -0.813878 -2.89476 0
M  V30 13626 C 1322 -0.783711 -3.0303 0
M  V30 13627 C 1322.47 -1.37569 -4.36851 0
M  V30 13628 N 1323.96 -1.33819 -4.43449 0
M  V30 13629 C 1324.7 -1.76602 -5.45527 0
M  V30 13630 N 1324.2 -2.27169 -6.54497 0
M  V30 13631 N 1325.99 -1.67765 -5.3648 0
M  V30 13632 H 1318.14 -1.51488 -1.4888 0
M  V30 13633 H 1320.4 -0.630835 -0.707638 0
M  V30 13634 H 1320.11 -1.86544 -2.98151 0
M  V30 13635 H 1319.98 -0.297978 -3.76021 0
M  V30 13636 H 1322.37 0.259118 -2.9396 0
M  V30 13637 H 1322.45 -1.33721 -2.18065 0
M  V30 13638 H 1322.09 -2.41751 -4.46675 0
M  V30 13639 H 1322.02 -0.797769 -5.20522 0
M  V30 13640 H 1324.52 -0.968147 -3.65288 0
M  V30 13641 H 1324.83 -2.57777 -7.2854 0
M  V30 13642 H 1323.17 -2.31171 -6.55427 0
M  V30 13643 H 1326.36 -1.28048 -4.50246 0
M  V30 13644 H 1326.54 -2.01426 -6.15899 0
M  V30 13645 N 1319.94 1.55134 -0.277709 0
M  V30 13646 C 1320.87 2.256 0.602232 0
M  V30 13647 C 1321.85 1.24708 1.15681 0
M  V30 13648 O 1323.04 1.53433 1.19046 0
M  V30 13649 C 1320.17 2.97907 1.78519 0
M  V30 13650 C 1319.12 4.0575 1.36203 0
M  V30 13651 C 1318.45 4.65644 2.62829 0
M  V30 13652 C 1319.75 5.19801 0.510327 0
M  V30 13653 H 1321.44 2.99396 0.0145622 0
M  V30 13654 H 1318.99 1.43999 0.00556389 0
M  V30 13655 H 1320.94 3.45915 2.40668 0
M  V30 13656 H 1319.67 2.21649 2.39873 0
M  V30 13657 H 1318.33 3.58557 0.763726 0
M  V30 13658 H 1317.97 3.86053 3.22447 0
M  V30 13659 H 1317.67 5.38463 2.35227 0
M  V30 13660 H 1319.2 5.16403 3.25823 0
M  V30 13661 H 1320.61 5.63845 1.03689 0
M  V30 13662 H 1319.01 5.99197 0.329073 0
M  V30 13663 H 1320.08 4.82614 -0.470273 0
M  V30 13664 N 1321.42 0.00503138 1.57599 0
M  V30 13665 C 1322.35 -0.983586 2.11773 0
M  V30 13666 C 1323.33 -1.35518 1.02805 0
M  V30 13667 O 1324.52 -1.43804 1.30514 0
M  V30 13668 C 1321.65 -2.27383 2.62515 0
M  V30 13669 C 1320.6 -2.0437 3.76054 0
M  V30 13670 C 1319.93 -3.39451 4.1313 0
M  V30 13671 C 1321.23 -1.40223 5.03125 0
M  V30 13672 H 1322.92 -0.532501 2.94627 0
M  V30 13673 H 1320.47 -0.254696 1.4173 0
M  V30 13674 H 1322.42 -2.96903 2.99043 0
M  V30 13675 H 1321.14 -2.74614 1.7679 0
M  V30 13676 H 1319.8 -1.37275 3.39928 0
M  V30 13677 H 1319.45 -3.84395 3.24422 0
M  V30 13678 H 1319.15 -3.24868 4.89627 0
M  V30 13679 H 1320.68 -4.10279 4.52221 0
M  V30 13680 H 1322.09 -1.99708 5.37392 0
M  V30 13681 H 1320.49 -1.36112 5.8446 0
M  V30 13682 H 1321.56 -0.372073 4.8347 0
M  V30 13683 N 1322.9 -1.55308 -0.267798 0
M  V30 13684 C 1323.83 -1.91555 -1.33525 0
M  V30 13685 C 1324.81 -0.778001 -1.51265 0
M  V30 13686 O 1326 -1.03657 -1.64222 0
M  V30 13687 C 1323.13 -2.19201 -2.69385 0
M  V30 13688 C 1322.08 -3.3501 -2.66369 0
M  V30 13689 C 1321.41 -3.48148 -4.05829 0
M  V30 13690 C 1322.71 -4.71265 -2.25182 0
M  V30 13691 H 1324.4 -2.80965 -1.03437 0
M  V30 13692 H 1321.95 -1.35183 -0.496141 0
M  V30 13693 H 1323.9 -2.43146 -3.44177 0
M  V30 13694 H 1322.62 -1.26596 -3.01067 0
M  V30 13695 H 1321.28 -3.11041 -1.94034 0
M  V30 13696 H 1320.93 -2.53 -4.34741 0
M  V30 13697 H 1320.63 -4.26014 -4.04704 0
M  V30 13698 H 1322.15 -3.74391 -4.82352 0
M  V30 13699 H 1323.57 -4.94719 -2.89699 0
M  V30 13700 H 1321.96 -5.52084 -2.3521 0
M  V30 13701 H 1323.03 -4.69735 -1.20319 0
M  V30 13702 N 1324.38 0.532545 -1.4833 0
M  V30 13703 C 1325.61 1.31331 -1.59874 0
M  V30 13704 C 1326.02 1.87028 -0.258037 0
M  V30 13705 O 1325.38 1.66272 0.752317 0
M  V30 13706 C 1325.43 2.46596 -2.64334 0
M  V30 13707 O 1325.15 1.93195 -3.93201 0
M  V30 13708 C 1326.65 3.38454 -2.86294 0
M  V30 13709 H 1323.87 0.399476 -0.539129 0
M  V30 13710 H 1326.41 0.642696 -1.94138 0
M  V30 13711 H 1324.57 3.09548 -2.32936 0
M  V30 13712 H 1324.98 2.68627 -4.50489 0
M  V30 13713 H 1326.46 4.15687 -3.63192 0
M  V30 13714 H 1326.93 3.93526 -1.95022 0
M  V30 13715 H 1327.54 2.81297 -3.18986 0
M  V30 13716 N 1325.86 1.36875 0.78122 0
M  V30 13717 C 1326.82 1.31706 1.8758 0
M  V30 13718 C 1327.82 0.223044 1.59246 0
M  V30 13719 O 1329.01 0.478327 1.67504 0
M  V30 13720 C 1326.14 1.0437 3.2453 0
M  V30 13721 H 1327.33 2.29059 1.93576 0
M  V30 13722 H 1324.89 1.21766 0.979931 0
M  V30 13723 H 1325.62 0.0750941 3.24213 0
M  V30 13724 H 1325.41 1.83548 3.46486 0
M  V30 13725 H 1326.9 1.0338 4.04602 0
M  V30 13726 N 1327.33 -1.00632 1.21289 0
M  V30 13727 C 1328.28 -2.11502 0.96798 0
M  V30 13728 C 1329.28 -1.6919 -0.0843024 0
M  V30 13729 O 1330.48 -1.79875 0.06697 0
M  V30 13730 H 1326.86 -0.691398 0.295759 0
M  V30 13731 H 1328.83 -2.29337 1.90911 0
M  V30 13732 C 1327.58 -3.43357 0.547818 0
M  V30 13733 H 1326.9 -3.76348 1.34915 0
M  V30 13734 H 1328.34 -4.21957 0.415759 0
M  V30 13735 C 1326.8 -3.28648 -0.741086 0
M  V30 13736 O 1327.33 -3.59267 -1.79695 0
M  V30 13737 N 1325.53 -2.81866 -0.707084 0
M  V30 13738 H 1325.08 -2.57149 0.152447 0
M  V30 13739 H 1325.04 -2.72406 -1.56979 0
M  V30 13740 N 1328.81 -1.02043 -1.20104 0
M  V30 13741 C 1330.06 -0.713027 -1.89852 0
M  V30 13742 C 1330.39 0.755767 -1.7889 0
M  V30 13743 O 1329.67 1.54948 -1.17564 0
M  V30 13744 C 1329.95 -1.15417 -3.41103 0
M  V30 13745 C 1329.8 -2.68355 -3.60979 0
M  V30 13746 C 1331.12 -0.728389 -4.34031 0
M  V30 13747 H 1328.24 -0.260502 -0.689426 0
M  V30 13748 H 1330.88 -1.26885 -1.41422 0
M  V30 13749 H 1329.03 -0.68127 -3.8248 0
M  V30 13750 H 1330.7 -3.23526 -3.28829 0
M  V30 13751 H 1328.95 -3.09148 -3.04319 0
M  V30 13752 H 1329.62 -2.94276 -4.67018 0
M  V30 13753 H 1332.09 -1.13499 -4.00321 0
M  V30 13754 H 1330.97 -1.06504 -5.38468 0
M  V30 13755 H 1331.23 0.369736 -4.40551 0
M  V30 13756 N 1330.29 1.35952 -0.797165 0
M  V30 13757 C 1331.52 2.0381 -0.38421 0
M  V30 13758 C 1331.94 1.597 0.993854 0
M  V30 13759 O 1331.3 0.769148 1.64176 0
M  V30 13760 C 1331.35 3.57589 -0.465054 0
M  V30 13761 O 1330.45 4.09043 0.525095 0
M  V30 13762 H 1329.79 0.643957 -0.161912 0
M  V30 13763 H 1332.32 1.73746 -1.08043 0
M  V30 13764 H 1332.33 4.06651 -0.331448 0
M  V30 13765 H 1331.01 3.89045 -1.47027 0
M  V30 13766 H 1329.58 3.7123 0.352509 0
M  V30 13767 N 1331.77 0.549846 1.47697 0
M  V30 13768 C 1332.99 0.0256819 2.07384 0
M  V30 13769 C 1333.42 -1.25525 1.4009 0
M  V30 13770 O 1332.78 -1.7501 0.473406 0
M  V30 13771 C 1332.82 -0.160835 3.60241 0
M  V30 13772 O 1331.93 -1.22509 3.93783 0
M  V30 13773 H 1331.27 0.0480204 0.662261 0
M  V30 13774 H 1333.8 0.763429 1.89823 0
M  V30 13775 H 1333.81 -0.377337 4.06251 0
M  V30 13776 H 1332.48 0.774774 4.0862 0
M  V30 13777 H 1331.06 -0.98967 3.59527 0
M  V30 13778 N 1333.25 -1.54984 0.285932 0
M  V30 13779 C 1334.16 -2.26621 -0.606648 0
M  V30 13780 C 1335.17 -1.29595 -1.16108 0
M  V30 13781 O 1336.35 -1.62551 -1.18908 0
M  V30 13782 C 1333.41 -2.98156 -1.76929 0
M  V30 13783 C 1332.47 -4.10685 -1.25045 0
M  V30 13784 C 1331.71 -4.788 -2.35768 0
M  V30 13785 O 1331.93 -4.46183 -3.55354 0
M  V30 13786 O 1330.86 -5.66523 -2.03312 0
M  V30 13787 H 1334.69 -3.03689 -0.0259981 0
M  V30 13788 H 1332.28 -1.49306 0.0529355 0
M  V30 13789 H 1334.16 -3.43076 -2.44697 0
M  V30 13790 H 1332.83 -2.23996 -2.33683 0
M  V30 13791 H 1331.74 -3.70198 -0.538919 0
M  V30 13792 H 1333.07 -4.86778 -0.728528 0
M  V30 13793 N 1334.72 -0.0133892 -1.57594 0
M  V30 13794 C 1335.67 0.991796 -2.10395 0
M  V30 13795 C 1336.67 1.34724 -1.02693 0
M  V30 13796 O 1337.87 1.33131 -1.21145 0
M  V30 13797 H 1334.25 0.337553 -0.671984 0
M  V30 13798 H 1336.22 0.52102 -2.93816 0
M  V30 13799 C 1334.97 2.27039 -2.63341 0
M  V30 13800 H 1334.29 2.00559 -3.45855 0
M  V30 13801 H 1335.73 2.95619 -3.0395 0
M  V30 13802 C 1334.19 2.98939 -1.55362 0
M  V30 13803 O 1334.72 3.90444 -0.944282 0
M  V30 13804 N 1332.93 2.60997 -1.27784 0
M  V30 13805 H 1332.47 1.86666 -1.77521 0
M  V30 13806 H 1332.43 3.09416 -0.557585 0
M  V30 13807 N 1336.2 1.55448 0.259558 0
M  V30 13808 C 1337.15 1.90056 1.34096 0
M  V30 13809 C 1338.14 0.778267 1.50464 0
M  V30 13810 O 1339.35 0.962758 1.52089 0
M  V30 13811 H 1335.73 0.603424 0.448758 0
M  V30 13812 H 1337.7 2.80365 1.02166 0
M  V30 13813 C 1336.45 2.20074 2.69189 0
M  V30 13814 H 1335.77 3.05926 2.57389 0
M  V30 13815 H 1337.21 2.48201 3.43762 0
M  V30 13816 C 1335.67 1.01281 3.21316 0
M  V30 13817 O 1336.2 0.2543 4.00894 0
M  V30 13818 N 1334.4 0.806855 2.79174 0
M  V30 13819 H 1333.95 1.42536 2.14572 0
M  V30 13820 H 1333.91 0.0136714 3.14397 0
M  V30 13821 N 1337.68 -0.524672 1.4861 0
M  V30 13822 C 1338.91 -1.30482 1.60568 0
M  V30 13823 C 1339.32 -1.86889 0.267952 0
M  V30 13824 O 1338.68 -1.66669 -0.743488 0
M  V30 13825 C 1338.73 -2.45191 2.65638 0
M  V30 13826 O 1338.45 -1.91107 3.9422 0
M  V30 13827 C 1339.95 -3.36931 2.88084 0
M  V30 13828 H 1337.17 -0.396612 0.541239 0
M  V30 13829 H 1339.72 -0.632392 1.94476 0
M  V30 13830 H 1337.87 -3.08308 2.34574 0
M  V30 13831 H 1338.29 -2.66234 4.51907 0
M  V30 13832 H 1339.76 -4.13755 3.65391 0
M  V30 13833 H 1340.24 -3.92487 1.97106 0
M  V30 13834 H 1340.84 -2.79601 3.20473 0
M  V30 13835 N 1339.16 -1.37287 -0.77395 0
M  V30 13836 C 1340.57 -1.28954 -1.3501 0
M  V30 13837 C 1340.92 0.0638301 -1.96096 0
M  V30 13838 O 1340.05 0.965624 -1.93661 0
M  V30 13839 C 1340.64 -2.3352 -2.45467 0
M  V30 13840 C 1339.2 -2.28828 -2.98856 0
M  V30 13841 C 1338.35 -2.17468 -1.72055 0
M  V30 13842 H 1341.3 -1.47941 -0.57438 0
M  V30 13843 H 1341.32 -1.98058 -3.24889 0
M  V30 13844 H 1340.83 -3.32009 -2.00977 0
M  V30 13845 H 1338.93 -1.33855 -3.47726 0
M  V30 13846 H 1339.04 -3.22152 -3.54619 0
M  V30 13847 H 1337.41 -1.63977 -1.94894 0
M  V30 13848 H 1338.19 -3.17868 -1.29672 0
M  V30 13849 N 1340.64 0.999871 -1.21821 0
M  V30 13850 C 1342.05 1.26228 -0.976664 0
M  V30 13851 C 1342.25 1.98714 0.333915 0
M  V30 13852 O 1341.31 2.29252 1.05829 0
M  V30 13853 C 1342.62 2.08089 -2.1707 0
M  V30 13854 C 1344.17 2.21298 -2.21351 0
M  V30 13855 C 1344.64 3.06544 -3.40287 0
M  V30 13856 N 1346.14 3.14131 -3.40405 0
M  V30 13857 C 1346.87 3.80362 -4.29083 0
M  V30 13858 N 1346.37 4.48577 -5.27968 0
M  V30 13859 N 1348.16 3.77053 -4.16878 0
M  V30 13860 H 1340.31 0.513704 -2.06094 0
M  V30 13861 H 1342.57 0.289447 -0.902732 0
M  V30 13862 H 1342.28 1.62183 -3.12073 0
M  V30 13863 H 1342.15 3.08843 -2.16554 0
M  V30 13864 H 1344.54 2.66422 -1.269 0
M  V30 13865 H 1344.62 1.19997 -2.25908 0
M  V30 13866 H 1344.27 2.62122 -4.35034 0
M  V30 13867 H 1344.2 4.0797 -3.32969 0
M  V30 13868 H 1346.69 2.65576 -2.68846 0
M  V30 13869 H 1347 4.96833 -5.91926 0
M  V30 13870 H 1345.34 4.47348 -5.31888 0
M  V30 13871 H 1348.54 3.22918 -3.38883 0
M  V30 13872 H 1348.71 4.2839 -4.86195 0
M  V30 13873 N 1342.11 1.02678 1.19562 0
M  V30 13874 C 1343.34 0.741569 1.93154 0
M  V30 13875 C 1343.76 -0.699292 1.75372 0
M  V30 13876 O 1343.11 -1.47533 1.07426 0
M  V30 13877 C 1343.17 1.08064 3.4497 0
M  V30 13878 O 1342.89 2.46492 3.62179 0
M  V30 13879 C 1344.39 0.817935 4.35689 0
M  V30 13880 H 1341.61 0.271506 0.613617 0
M  V30 13881 H 1344.15 1.3707 1.51763 0
M  V30 13882 H 1342.31 0.496723 3.84202 0
M  V30 13883 H 1342.72 2.59053 4.56061 0
M  V30 13884 H 1344.19 1.10517 5.40823 0
M  V30 13885 H 1344.67 -0.247693 4.38501 0
M  V30 13886 H 1345.28 1.38449 4.02134 0
M  V30 13887 N 1343.59 -1.35528 0.804364 0
M  V30 13888 C 1344.82 -2.03604 0.395013 0
M  V30 13889 C 1345.24 -1.60225 -0.985371 0
M  V30 13890 O 1344.6 -0.777844 -1.63766 0
M  V30 13891 C 1344.65 -3.57337 0.484011 0
M  V30 13892 O 1343.75 -4.09316 -0.503395 0
M  V30 13893 H 1343.09 -0.643089 0.165325 0
M  V30 13894 H 1345.62 -1.73171 1.08963 0
M  V30 13895 H 1345.63 -4.0647 0.353009 0
M  V30 13896 H 1344.31 -3.8826 1.49088 0
M  V30 13897 H 1342.89 -3.71412 -0.332817 0
M  V30 13898 N 1345.07 -0.557671 -1.47404 0
M  V30 13899 C 1346.02 0.189765 -2.30019 0
M  V30 13900 C 1346.99 0.907923 -1.3909 0
M  V30 13901 O 1348.17 0.903528 -1.68051 0
M  V30 13902 C 1345.31 1.21348 -3.23061 0
M  V30 13903 C 1344.43 0.501343 -4.29081 0
M  V30 13904 C 1343.56 1.51039 -5.09275 0
M  V30 13905 C 1342.6 0.783254 -6.07068 0
M  V30 13906 N 1341.74 1.73916 -6.80219 0
M  V30 13907 H 1346.58 -0.520856 -2.93413 0
M  V30 13908 H 1344.11 -0.268686 -1.44625 0
M  V30 13909 H 1346.07 1.81961 -3.75428 0
M  V30 13910 H 1344.7 1.89213 -2.61531 0
M  V30 13911 H 1343.75 -0.219317 -3.79767 0
M  V30 13912 H 1345.07 -0.0682656 -4.98753 0
M  V30 13913 H 1344.22 2.19004 -5.65793 0
M  V30 13914 H 1342.96 2.11392 -4.39505 0
M  V30 13915 H 1341.96 0.0896883 -5.49727 0
M  V30 13916 H 1343.19 0.185464 -6.78847 0
M  V30 13917 H 1341.14 2.33125 -6.13179 0
M  V30 13918 H 1341.05 1.22171 -7.46063 0
M  V30 13919 H 1342.32 2.40993 -7.41311 0
M  V30 13920 N 1346.55 1.54831 -0.294147 0
M  V30 13921 C 1347.78 2.04411 0.319938 0
M  V30 13922 C 1348.19 1.17174 1.4804 0
M  V30 13923 O 1347.55 0.195881 1.81446 0
M  V30 13924 C 1347.6 3.52924 0.782751 0
M  V30 13925 O 1347.32 4.36844 -0.331512 0
M  V30 13926 C 1348.82 4.18474 1.4627 0
M  V30 13927 H 1346.04 0.667286 0.0704973 0
M  V30 13928 H 1348.59 1.9989 -0.431785 0
M  V30 13929 H 1346.74 3.57828 1.48451 0
M  V30 13930 H 1347.16 5.24493 0.0275743 0
M  V30 13931 H 1348.63 5.23933 1.73776 0
M  V30 13932 H 1349.11 3.67793 2.40052 0
M  V30 13933 H 1349.71 4.17626 0.804291 0
M  V30 13934 N 1348.03 0.0217466 1.57585 0
M  V30 13935 C 1349.26 -0.668881 1.9579 0
M  V30 13936 C 1349.67 -1.66085 0.897849 0
M  V30 13937 O 1349.03 -1.82098 -0.121099 0
M  V30 13938 C 1349.08 -1.38174 3.34051 0
M  V30 13939 O 1348.8 -0.429527 4.35989 0
M  V30 13940 C 1350.3 -2.16487 3.86844 0
M  V30 13941 H 1347.52 -0.184919 0.645016 0
M  V30 13942 H 1350.06 0.0793241 2.04346 0
M  V30 13943 H 1348.22 -2.0814 3.26736 0
M  V30 13944 H 1348.63 -0.934887 5.16101 0
M  V30 13945 H 1350.11 -2.61829 4.85952 0
M  V30 13946 H 1350.58 -3.00082 3.20698 0
M  V30 13947 H 1351.19 -1.51493 3.97404 0
M  V30 13948 N 1349.51 -1.55583 -0.251311 0
M  V30 13949 C 1350.75 -1.77209 -0.979966 0
M  V30 13950 C 1351.08 -0.585279 -1.85485 0
M  V30 13951 O 1350.34 0.431559 -1.90882 0
M  V30 13952 C 1350.63 -3.04291 -1.87461 0
M  V30 13953 C 1350.3 -4.35844 -1.15545 0
M  V30 13954 C 1348.96 -4.71594 -0.956679 0
M  V30 13955 C 1351.31 -5.17189 -0.645381 0
M  V30 13956 C 1348.64 -5.86227 -0.235465 0
M  V30 13957 C 1350.99 -6.32569 0.0623441 0
M  V30 13958 C 1349.66 -6.66943 0.272634 0
M  V30 13959 H 1348.93 -0.648452 -0.358595 0
M  V30 13960 H 1351.58 -1.89856 -0.250423 0
M  V30 13961 H 1349.88 -2.86637 -2.67108 0
M  V30 13962 H 1351.58 -3.18221 -2.44001 0
M  V30 13963 H 1348.17 -4.07757 -1.32031 0
M  V30 13964 H 1352.35 -4.90028 -0.786505 0
M  V30 13965 H 1347.61 -6.11369 -0.0620232 0
M  V30 13966 H 1351.78 -6.94844 0.465234 0
M  V30 13967 H 1349.41 -7.55617 0.833442 0
M  V30 13968 N 1350.98 0.516783 -1.48886 0
M  V30 13969 C 1351.92 1.63632 -1.60491 0
M  V30 13970 C 1352.93 1.55301 -0.488424 0
M  V30 13971 O 1354.12 1.6152 -0.75983 0
M  V30 13972 C 1351.22 3.02351 -1.53093 0
M  V30 13973 C 1350.39 3.36028 -2.80006 0
M  V30 13974 C 1349.45 4.54087 -2.65879 0
M  V30 13975 O 1348.48 4.56652 -3.3979 0
M  V30 13976 N 1349.68 5.53058 -1.76372 0
M  V30 13977 H 1352.44 1.54109 -2.57042 0
M  V30 13978 H 1350 0.704338 -1.45776 0
M  V30 13979 H 1352 3.79225 -1.41318 0
M  V30 13980 H 1350.57 3.05881 -0.644637 0
M  V30 13981 H 1349.79 2.48204 -3.06249 0
M  V30 13982 H 1351.07 3.5532 -3.64177 0
M  V30 13983 H 1350.47 5.53773 -1.1555 0
M  V30 13984 H 1349.03 6.29097 -1.70529 0
M  V30 13985 N 1352.46 1.37696 0.766659 0
M  V30 13986 C 1353.39 1.36576 1.89392 0
M  V30 13987 C 1354.37 0.233597 1.68488 0
M  V30 13988 O 1355.56 0.434719 1.89272 0
M  V30 13989 C 1352.69 1.17705 3.26746 0
M  V30 13990 C 1351.64 2.27987 3.62224 0
M  V30 13991 C 1350.97 1.94235 4.98174 0
M  V30 13992 C 1352.27 3.70195 3.68447 0
M  V30 13993 H 1353.96 2.30905 1.90587 0
M  V30 13994 H 1351.51 1.11148 0.915538 0
M  V30 13995 H 1353.46 1.15551 4.05248 0
M  V30 13996 H 1352.18 0.198334 3.25997 0
M  V30 13997 H 1350.84 2.29306 2.86032 0
M  V30 13998 H 1350.49 0.948796 4.93971 0
M  V30 13999 H 1350.19 2.68086 5.2288 0
M  V30 14000 H 1351.72 1.93676 5.7907 0
M  V30 14001 H 1353.13 3.70978 4.37091 0
M  V30 14002 H 1351.53 4.43142 4.04654 0
M  V30 14003 H 1352.6 4.03453 2.68986 0
M  V30 14004 N 1353.94 -0.993397 1.22349 0
M  V30 14005 C 1354.85 -2.11771 1.00947 0
M  V30 14006 C 1355.87 -1.73949 -0.0420679 0
M  V30 14007 O 1357.04 -2.00837 0.150548 0
M  V30 14008 C 1354.11 -3.41654 0.589359 0
M  V30 14009 C 1353.17 -3.93579 1.71446 0
M  V30 14010 C 1352.4 -5.17264 1.3143 0
M  V30 14011 O 1352.62 -5.70074 0.192876 0
M  V30 14012 O 1351.56 -5.62929 2.13059 0
M  V30 14013 H 1355.38 -2.32708 1.95142 0
M  V30 14014 H 1352.97 -1.10144 1.00939 0
M  V30 14015 H 1354.85 -4.19813 0.365403 0
M  V30 14016 H 1353.53 -3.22077 -0.323738 0
M  V30 14017 H 1352.43 -3.16596 1.99294 0
M  V30 14018 H 1353.77 -4.17588 2.6054 0
M  V30 14019 N 1355.42 -1.03311 -1.19015 0
M  V30 14020 C 1356.35 -0.638279 -2.24607 0
M  V30 14021 C 1357.33 0.354795 -1.66359 0
M  V30 14022 O 1358.51 0.236574 -1.92754 0
M  V30 14023 C 1355.64 0.00737316 -3.47299 0
M  V30 14024 C 1354.6 -0.908431 -4.18248 0
M  V30 14025 C 1353.92 -0.127658 -5.34548 0
M  V30 14026 C 1355.22 -2.2241 -4.72579 0
M  V30 14027 H 1356.92 -1.52099 -2.57888 0
M  V30 14028 H 1354.46 -0.732779 -1.23961 0
M  V30 14029 H 1356.42 0.295256 -4.20364 0
M  V30 14030 H 1355.14 0.924912 -3.1323 0
M  V30 14031 H 1353.8 -1.18058 -3.47071 0
M  V30 14032 H 1353.45 0.792048 -4.96725 0
M  V30 14033 H 1353.15 -0.737702 -5.82951 0
M  V30 14034 H 1354.67 0.153385 -6.10407 0
M  V30 14035 H 1356.09 -1.99745 -5.37378 0
M  V30 14036 H 1354.48 -2.78644 -5.31486 0
M  V30 14037 H 1355.55 -2.87584 -3.90415 0
M  V30 14038 N 1356.9 1.35099 -0.81154 0
M  V30 14039 C 1358.31 1.81082 -0.454543 0
M  V30 14040 C 1358.66 1.67361 1.02395 0
M  V30 14041 O 1357.78 1.20707 1.79607 0
M  V30 14042 C 1358.38 3.2877 -0.818274 0
M  V30 14043 C 1356.94 3.72877 -0.513808 0
M  V30 14044 C 1356.08 2.57008 -1.04125 0
M  V30 14045 H 1359.03 1.23007 -1.00274 0
M  V30 14046 H 1359.06 3.80318 -0.117683 0
M  V30 14047 H 1358.57 3.38725 -1.89439 0
M  V30 14048 H 1356.67 3.68468 0.553368 0
M  V30 14049 H 1356.78 4.67455 -1.0499 0
M  V30 14050 H 1355.15 2.5045 -0.463337 0
M  V30 14051 H 1355.93 2.69738 -2.12358 0
M  V30 14052 N 1358.37 0.56548 1.47106 0
M  V30 14053 C 1359.62 0.0445914 2.02751 0
M  V30 14054 C 1359.95 -1.30517 1.43801 0
M  V30 14055 O 1359.23 -1.85123 0.596646 0
M  V30 14056 C 1359.51 -0.0396474 3.60078 0
M  V30 14057 C 1359.36 1.3378 4.29445 0
M  V30 14058 C 1360.68 -0.748954 4.3368 0
M  V30 14059 H 1357.8 0.0176787 0.736788 0
M  V30 14060 H 1360.44 0.729363 1.75443 0
M  V30 14061 H 1358.59 -0.622826 3.83475 0
M  V30 14062 H 1360.27 1.96482 4.17364 0
M  V30 14063 H 1358.51 1.91024 3.89477 0
M  V30 14064 H 1359.18 1.23149 5.38088 0
M  V30 14065 H 1361.66 -0.253707 4.15326 0
M  V30 14066 H 1360.53 -0.776877 5.43374 0
M  V30 14067 H 1360.79 -1.80679 4.03494 0
M  V30 14068 N 1359.85 -1.54672 0.302354 0
M  V30 14069 C 1360.8 -2.2357 -0.573141 0
M  V30 14070 C 1361.77 -1.21878 -1.12849 0
M  V30 14071 O 1362.95 -1.50502 -1.17277 0
M  V30 14072 C 1360.09 -2.98111 -1.7385 0
M  V30 14073 C 1359.21 -4.14579 -1.21441 0
M  V30 14074 C 1358.34 -4.76699 -2.34374 0
M  V30 14075 C 1357.38 -5.8531 -1.79106 0
M  V30 14076 N 1356.52 -6.41379 -2.85618 0
M  V30 14077 H 1361.36 -2.97993 0.0209969 0
M  V30 14078 H 1358.9 -1.47083 0.0221318 0
M  V30 14079 H 1360.85 -3.39561 -2.42392 0
M  V30 14080 H 1359.48 -2.26063 -2.30425 0
M  V30 14081 H 1358.54 -3.78061 -0.421204 0
M  V30 14082 H 1359.85 -4.92824 -0.769821 0
M  V30 14083 H 1359 -5.21009 -3.10861 0
M  V30 14084 H 1357.74 -3.9779 -2.8216 0
M  V30 14085 H 1356.75 -5.40423 -1.01109 0
M  V30 14086 H 1357.97 -6.66104 -1.32222 0
M  V30 14087 H 1355.92 -5.65352 -3.32735 0
M  V30 14088 H 1355.83 -7.14974 -2.45659 0
M  V30 14089 H 1357.1 -6.90346 -3.61998 0
M  V30 14090 N 1361.33 -0.0301034 -1.57571 0
M  V30 14091 C 1362.56 0.657533 -1.95857 0
M  V30 14092 C 1362.97 1.66138 -0.905244 0
M  V30 14093 O 1362.31 1.83299 0.12134 0
M  V30 14094 C 1362.37 1.41946 -3.3029 0
M  V30 14095 C 1362.04 0.573834 -4.53383 0
M  V30 14096 C 1363.03 -0.151282 -5.1968 0
M  V30 14097 C 1360.72 0.510947 -4.99695 0
M  V30 14098 C 1362.71 -0.927947 -6.30609 0
M  V30 14099 C 1360.4 -0.269422 -6.10506 0
M  V30 14100 C 1361.4 -0.987575 -6.75822 0
M  V30 14101 O 1361.09 -1.75515 -7.84506 0
M  V30 14102 H 1360.82 0.1861 -0.649879 0
M  V30 14103 H 1363.37 -0.0864526 -2.05218 0
M  V30 14104 H 1361.6 2.20861 -3.17423 0
M  V30 14105 H 1363.29 1.9953 -3.53472 0
M  V30 14106 H 1364.06 -0.112036 -4.84871 0
M  V30 14107 H 1359.94 1.05949 -4.4866 0
M  V30 14108 H 1363.48 -1.48901 -6.81524 0
M  V30 14109 H 1359.38 -0.310381 -6.44753 0
M  V30 14110 H 1360.15 -1.67503 -8.01177 0
M  V30 14111 N 1362.81 1.55714 0.243056 0
M  V30 14112 C 1363.77 1.89832 1.28438 0
M  V30 14113 C 1364.77 0.775083 1.40887 0
M  V30 14114 O 1365.96 1.04304 1.39521 0
M  V30 14115 C 1363.09 2.13016 2.66153 0
M  V30 14116 H 1364.29 2.82947 0.994022 0
M  V30 14117 H 1361.84 1.48665 0.482521 0
M  V30 14118 H 1362.57 1.22381 3.00322 0
M  V30 14119 H 1362.36 2.94824 2.58498 0
M  V30 14120 H 1363.85 2.40581 3.41336 0
M  V30 14121 N 1364.29 -0.50888 1.49158 0
M  V30 14122 C 1365.53 -1.26537 1.58481 0
M  V30 14123 C 1365.87 -1.92353 0.267168 0
M  V30 14124 O 1365.14 -1.80336 -0.728639 0
M  V30 14125 C 1365.42 -2.33846 2.73839 0
M  V30 14126 C 1365.28 -1.72582 4.15374 0
M  V30 14127 C 1366.6 -3.35467 2.84868 0
M  V30 14128 H 1363.71 -0.458697 0.576859 0
M  V30 14129 H 1366.36 -0.564728 1.81413 0
M  V30 14130 H 1364.51 -2.93605 2.54417 0
M  V30 14131 H 1366.18 -1.16711 4.46292 0
M  V30 14132 H 1364.42 -1.03025 4.21389 0
M  V30 14133 H 1365.09 -2.5038 4.91949 0
M  V30 14134 H 1367.57 -2.85689 3.02524 0
M  V30 14135 H 1366.44 -4.07922 3.67275 0
M  V30 14136 H 1366.71 -3.97313 1.93894 0
M  V30 14137 N 1365.76 -1.381 -0.759346 0
M  V30 14138 C 1366.99 -1.37014 -1.54631 0
M  V30 14139 C 1367.4 0.0433843 -1.8915 0
M  V30 14140 O 1366.75 1.01888 -1.52855 0
M  V30 14141 C 1366.81 -2.15575 -2.87693 0
M  V30 14142 C 1366.47 -3.64438 -2.75743 0
M  V30 14143 C 1367.47 -4.58055 -2.45929 0
M  V30 14144 C 1365.15 -4.0772 -2.93376 0
M  V30 14145 C 1367.15 -5.92935 -2.33894 0
M  V30 14146 C 1364.83 -5.42682 -2.80961 0
M  V30 14147 C 1365.83 -6.35103 -2.51262 0
M  V30 14148 O 1365.52 -7.67583 -2.38896 0
M  V30 14149 H 1365.25 -0.47062 -0.485276 0
M  V30 14150 H 1367.81 -1.82214 -0.948 0
M  V30 14151 H 1366.04 -1.65084 -3.49691 0
M  V30 14152 H 1367.73 -2.06968 -3.49169 0
M  V30 14153 H 1368.49 -4.25923 -2.3198 0
M  V30 14154 H 1364.37 -3.36135 -3.15491 0
M  V30 14155 H 1367.91 -6.65041 -2.10634 0
M  V30 14156 H 1363.81 -5.74413 -2.94482 0
M  V30 14157 H 1364.58 -7.78042 -2.54152 0
M  V30 14158 N 1367.24 0.986894 -1.22875 0
M  V30 14159 C 1368.47 1.76266 -1.08342 0
M  V30 14160 C 1368.89 1.85226 0.365602 0
M  V30 14161 O 1368.24 1.32675 1.25314 0
M  V30 14162 C 1368.29 3.19282 -1.69533 0
M  V30 14163 O 1368.01 3.10796 -3.08768 0
M  V30 14164 C 1369.52 4.13281 -1.60355 0
M  V30 14165 H 1366.74 0.553374 -0.379497 0
M  V30 14166 H 1369.28 1.24033 -1.62592 0
M  V30 14167 H 1367.43 3.68563 -1.19332 0
M  V30 14168 H 1367.85 4.0078 -3.38343 0
M  V30 14169 H 1369.32 5.11359 -2.07884 0
M  V30 14170 H 1369.8 4.356 -0.561182 0
M  V30 14171 H 1370.41 3.699 -2.09891 0
M  V30 14172 N 1368.72 1.0394 1.18466 0
M  V30 14173 C 1369.97 0.743141 1.88694 0
M  V30 14174 C 1370.3 -0.727211 1.8007 0
M  V30 14175 O 1369.57 -1.53058 1.20014 0
M  V30 14176 C 1369.86 1.20829 3.39223 0
M  V30 14177 C 1369.71 2.74064 3.56664 0
M  V30 14178 C 1371.03 0.797348 4.32817 0
M  V30 14179 H 1368.15 0.271437 0.685194 0
M  V30 14180 H 1370.79 1.29119 1.39386 0
M  V30 14181 H 1368.94 0.742033 3.81348 0
M  V30 14182 H 1370.61 3.28717 3.2364 0
M  V30 14183 H 1368.86 3.1395 2.99362 0
M  V30 14184 H 1369.53 3.01668 4.62277 0
M  V30 14185 H 1372 1.19854 3.98465 0
M  V30 14186 H 1370.88 1.15057 5.36706 0
M  V30 14187 H 1371.14 -0.299601 4.41084 0
M  V30 14188 N 1370.2 -1.34667 0.818693 0
M  V30 14189 C 1371.44 -1.98708 0.405359 0
M  V30 14190 C 1371.78 -1.64767 -1.02788 0
M  V30 14191 O 1371.05 -0.91714 -1.71519 0
M  V30 14192 C 1371.34 -3.55016 0.602966 0
M  V30 14193 C 1371.19 -3.98713 2.08201 0
M  V30 14194 C 1372.51 -4.40085 0.0362489 0
M  V30 14195 H 1369.63 -0.721831 0.148756 0
M  V30 14196 H 1372.27 -1.59628 1.03047 0
M  V30 14197 H 1370.42 -3.88435 0.0708453 0
M  V30 14198 H 1372.09 -3.75647 2.67745 0
M  V30 14199 H 1370.33 -3.49179 2.57403 0
M  V30 14200 H 1371 -5.0751 2.17111 0
M  V30 14201 H 1373.48 -4.13195 0.490837 0
M  V30 14202 H 1372.36 -5.4852 0.204344 0
M  V30 14203 H 1372.62 -4.29243 -1.05845 0
M  V30 14204 N 1371.68 -0.573274 -1.46804 0
M  V30 14205 C 1372.9 -0.0586717 -2.07317 0
M  V30 14206 C 1373.33 1.2328 -1.42069 0
M  V30 14207 O 1372.68 1.74235 -0.501188 0
M  V30 14208 C 1372.73 0.103503 -3.60451 0
M  V30 14209 O 1371.84 1.16229 -3.95682 0
M  V30 14210 H 1371.18 -0.0585504 -0.661414 0
M  V30 14211 H 1373.71 -0.793532 -1.88585 0
M  V30 14212 H 1373.72 0.312658 -4.068 0
M  V30 14213 H 1372.39 -0.839684 -4.07335 0
M  V30 14214 H 1370.97 0.932347 -3.61056 0
M  V30 14215 N 1373.15 1.5451 -0.310553 0
M  V30 14216 C 1374.38 2.05204 0.301013 0
M  V30 14217 C 1374.8 1.1859 1.46007 0
M  V30 14218 O 1374.16 0.192081 1.8028 0
M  V30 14219 C 1374.21 3.53221 0.725767 0
M  V30 14220 O 1373.31 3.69596 1.82955 0
M  V30 14221 H 1372.66 0.661566 0.0568026 0
M  V30 14222 H 1375.19 1.99473 -0.455178 0
M  V30 14223 H 1375.2 3.9525 1.01198 0
M  V30 14224 H 1373.87 4.15721 -0.122046 0
M  V30 14225 H 1372.45 3.39472 1.54315 0
M  V30 14226 N 1374.63 0.0384594 1.57553 0
M  V30 14227 C 1375.58 -0.949625 2.07283 0
M  V30 14228 C 1376.57 -1.27973 0.975284 0
M  V30 14229 O 1377.76 -1.26428 1.23875 0
M  V30 14230 C 1374.89 -2.22887 2.61106 0
M  V30 14231 C 1373.97 -1.92672 3.77807 0
M  V30 14232 N 1374.37 -1.32764 4.88065 0
M  V30 14233 C 1372.66 -2.22612 3.86471 0
M  V30 14234 C 1373.36 -1.19892 5.69211 0
M  V30 14235 N 1372.34 -1.69757 5.16414 0
M  V30 14236 H 1376.14 -0.481562 2.89928 0
M  V30 14237 H 1373.66 -0.166321 1.61546 0
M  V30 14238 H 1375.65 -2.94556 2.9503 0
M  V30 14239 H 1374.31 -2.70311 1.79895 0
M  V30 14240 H 1375.32 -1.00146 5.08125 0
M  V30 14241 H 1372 -2.72645 3.16182 0
M  V30 14242 H 1373.39 -0.734892 6.67869 0
M  V30 14243 N 1376.11 -1.55841 -0.234795 0
M  V30 14244 C 1377.02 -1.94476 -1.31211 0
M  V30 14245 C 1378.04 -0.846782 -1.52005 0
M  V30 14246 O 1379.21 -1.14922 -1.65393 0
M  V30 14247 C 1376.28 -2.24213 -2.64442 0
M  V30 14248 C 1375.34 -3.47508 -2.52065 0
M  V30 14249 C 1374.57 -3.75817 -3.78942 0
M  V30 14250 O 1374.8 -3.06007 -4.81369 0
M  V30 14251 O 1373.73 -4.69328 -3.76848 0
M  V30 14252 H 1377.56 -2.8626 -1.01434 0
M  V30 14253 H 1375.14 -1.42879 -0.436563 0
M  V30 14254 H 1377.02 -2.44594 -3.4315 0
M  V30 14255 H 1375.7 -1.35605 -2.93927 0
M  V30 14256 H 1374.6 -3.32421 -1.71602 0
M  V30 14257 H 1375.94 -4.36457 -2.27523 0
M  V30 14258 N 1377.59 0.500963 -1.49426 0
M  V30 14259 C 1378.52 1.6192 -1.62217 0
M  V30 14260 C 1379.53 1.54774 -0.504868 0
M  V30 14261 O 1380.72 1.60705 -0.776919 0
M  V30 14262 C 1377.82 3.0071 -1.56291 0
M  V30 14263 C 1377 3.3304 -2.83555 0
M  V30 14264 C 1376.06 4.51241 -2.7068 0
M  V30 14265 O 1375.08 4.53023 -3.44615 0
M  V30 14266 N 1376.28 5.51156 -1.82228 0
M  V30 14267 H 1379.05 1.51374 -2.58662 0
M  V30 14268 H 1376.61 0.688837 -1.46515 0
M  V30 14269 H 1378.6 3.77705 -1.45332 0
M  V30 14270 H 1377.17 3.0518 -0.677043 0
M  V30 14271 H 1376.39 2.44942 -3.08865 0
M  V30 14272 H 1377.68 3.51437 -3.67926 0
M  V30 14273 H 1377.08 5.52516 -1.21417 0
M  V30 14274 H 1375.63 6.27253 -1.77192 0
M  V30 14275 N 1379.07 1.38501 0.752011 0
M  V30 14276 C 1380.31 1.34795 1.51118 0
M  V30 14277 C 1380.64 -0.0615084 1.94403 0
M  V30 14278 O 1379.9 -1.03892 1.65846 0
M  V30 14279 C 1380.2 2.25111 2.77596 0
M  V30 14280 C 1379.86 3.73052 2.53265 0
M  V30 14281 C 1378.52 4.13365 2.46339 0
M  V30 14282 C 1380.88 4.66692 2.32051 0
M  V30 14283 C 1378.2 5.45406 2.16216 0
M  V30 14284 C 1380.56 5.98992 2.03448 0
M  V30 14285 C 1379.22 6.38388 1.94979 0
M  V30 14286 H 1378.49 0.49325 0.552979 0
M  V30 14287 H 1381.14 1.70872 0.864588 0
M  V30 14288 H 1379.44 1.82096 3.46913 0
M  V30 14289 H 1381.14 2.19547 3.3556 0
M  V30 14290 H 1377.73 3.41091 2.59528 0
M  V30 14291 H 1381.91 4.36392 2.3638 0
M  V30 14292 H 1377.17 5.7487 2.08168 0
M  V30 14293 H 1381.34 6.71091 1.86037 0
M  V30 14294 H 1378.97 7.40625 1.71402 0
M  V30 14295 N 1380.55 -0.980364 1.23396 0
M  V30 14296 C 1381.77 -1.75689 1.09275 0
M  V30 14297 C 1382.19 -1.85418 -0.355773 0
M  V30 14298 O 1381.55 -1.33337 -1.24609 0
M  V30 14299 C 1381.6 -3.18378 1.71223 0
M  V30 14300 O 1381.32 -3.09154 3.10411 0
M  V30 14301 C 1382.82 -4.12425 1.62545 0
M  V30 14302 H 1380.04 -0.551354 0.382427 0
M  V30 14303 H 1382.58 -1.23169 1.63247 0
M  V30 14304 H 1380.74 -3.67925 1.21285 0
M  V30 14305 H 1381.15 -3.9898 3.40464 0
M  V30 14306 H 1382.63 -5.1025 2.10592 0
M  V30 14307 H 1383.1 -4.35296 0.584275 0
M  V30 14308 H 1383.71 -3.68782 2.1185 0
M  V30 14309 N 1382.02 -1.04567 -1.17913 0
M  V30 14310 C 1382.97 -0.641119 -2.21717 0
M  V30 14311 C 1383.94 0.353585 -1.62293 0
M  V30 14312 O 1385.13 0.246427 -1.89202 0
M  V30 14313 C 1382.27 -0.0154726 -3.45097 0
M  V30 14314 C 1381.38 -1.05825 -4.18838 0
M  V30 14315 C 1380.51 -0.400588 -5.29687 0
M  V30 14316 C 1379.55 -1.42811 -5.95207 0
M  V30 14317 N 1378.69 -0.795059 -6.97584 0
M  V30 14318 H 1383.53 -1.5308 -2.55676 0
M  V30 14319 H 1381.07 -0.765715 -1.25599 0
M  V30 14320 H 1383.02 0.364653 -4.15603 0
M  V30 14321 H 1381.65 0.837704 -3.11741 0
M  V30 14322 H 1380.71 -1.55627 -3.47109 0
M  V30 14323 H 1382.02 -1.83849 -4.63682 0
M  V30 14324 H 1381.17 0.0334682 -6.06691 0
M  V30 14325 H 1379.91 0.411696 -4.85959 0
M  V30 14326 H 1378.92 -1.87225 -5.1694 0
M  V30 14327 H 1380.14 -2.24218 -6.41017 0
M  V30 14328 H 1378.09 -0.00317202 -6.56 0
M  V30 14329 H 1378 -1.51293 -7.40707 0
M  V30 14330 H 1379.27 -0.385567 -7.78546 0
M  V30 14331 N 1383.5 1.34231 -0.825823 0
M  V30 14332 C 1384.73 2.02124 -0.427727 0
M  V30 14333 C 1385.14 1.62331 0.971869 0
M  V30 14334 O 1384.48 0.825946 1.64085 0
M  V30 14335 C 1384.54 3.56626 -0.453698 0
M  V30 14336 C 1384.21 4.19752 -1.80713 0
M  V30 14337 C 1385.21 4.40062 -2.76842 0
M  V30 14338 C 1382.89 4.5646 -2.09641 0
M  V30 14339 C 1384.88 4.9621 -4.00069 0
M  V30 14340 C 1382.57 5.12318 -3.33127 0
M  V30 14341 C 1383.57 5.32137 -4.28158 0
M  V30 14342 O 1383.26 5.86811 -5.49462 0
M  V30 14343 H 1382.99 0.654389 -0.169563 0
M  V30 14344 H 1385.54 1.72421 -1.11624 0
M  V30 14345 H 1383.77 3.856 0.291527 0
M  V30 14346 H 1385.46 4.0583 -0.075249 0
M  V30 14347 H 1386.23 4.12064 -2.5579 0
M  V30 14348 H 1382.11 4.40337 -1.36473 0
M  V30 14349 H 1385.65 5.11594 -4.74254 0
M  V30 14350 H 1381.55 5.39746 -3.54041 0
M  V30 14351 H 1382.32 6.05242 -5.51022 0
M  V30 14352 N 1384.98 0.581051 1.46498 0
M  V30 14353 C 1385.91 -0.140957 2.33074 0
M  V30 14354 C 1386.89 -0.885323 1.45245 0
M  V30 14355 O 1388.08 -0.86111 1.74065 0
M  V30 14356 C 1385.21 -1.15625 3.27488 0
M  V30 14357 C 1384.16 -0.526829 4.24745 0
M  V30 14358 C 1383.49 -1.64847 5.08655 0
M  V30 14359 C 1384.79 0.53492 5.19554 0
M  V30 14360 H 1386.48 0.581888 2.93691 0
M  V30 14361 H 1384.03 0.281278 1.41226 0
M  V30 14362 H 1385.98 -1.6697 3.8691 0
M  V30 14363 H 1384.7 -1.90935 2.64974 0
M  V30 14364 H 1383.36 -0.0344738 3.66584 0
M  V30 14365 H 1383.01 -2.3912 4.42528 0
M  V30 14366 H 1382.71 -1.23298 5.74518 0
M  V30 14367 H 1384.23 -2.16472 5.7094 0
M  V30 14368 H 1385.65 0.106606 5.73201 0
M  V30 14369 H 1384.04 0.870639 5.93751 0
M  V30 14370 H 1385.11 1.42184 4.63586 0
M  V30 14371 N 1386.46 -1.54343 0.318742 0
M  V30 14372 C 1387.41 -2.25634 -0.56497 0
M  V30 14373 C 1388.4 -1.26869 -1.12252 0
M  V30 14374 O 1389.61 -1.44662 -1.07112 0
M  V30 14375 H 1385.98 -0.724686 -0.200834 0
M  V30 14376 H 1387.95 -2.98342 0.0586393 0
M  V30 14377 C 1386.7 -3.0237 -1.71662 0
M  V30 14378 H 1386.02 -3.78183 -1.29684 0
M  V30 14379 H 1387.46 -3.55507 -2.31065 0
M  V30 14380 C 1385.92 -2.10383 -2.63136 0
M  V30 14381 O 1386.45 -1.68351 -3.6472 0
M  V30 14382 N 1384.66 -1.75971 -2.31263 0
M  V30 14383 H 1384.21 -2.10349 -1.48698 0
M  V30 14384 H 1384.16 -1.14702 -2.9273 0
M  V30 14385 N 1387.94 -0.0468143 -1.5753 0
M  V30 14386 C 1389.18 0.627939 -1.92518 0
M  V30 14387 C 1389.51 1.71107 -0.924801 0
M  V30 14388 O 1388.77 1.95597 0.0635812 0
M  V30 14389 C 1389.06 1.26669 -3.342 0
M  V30 14390 C 1388.73 0.312184 -4.49818 0
M  V30 14391 C 1387.39 0.0495202 -4.81175 0
M  V30 14392 C 1389.74 -0.342228 -5.20075 0
M  V30 14393 C 1387.07 -0.875064 -5.80137 0
M  V30 14394 C 1389.42 -1.25498 -6.20027 0
M  V30 14395 C 1388.09 -1.52636 -6.49814 0
M  V30 14396 H 1387.36 0.229779 -0.704473 0
M  V30 14397 H 1390.01 -0.112363 -1.9117 0
M  V30 14398 H 1388.31 2.08215 -3.31894 0
M  V30 14399 H 1390.01 1.79563 -3.5855 0
M  V30 14400 H 1386.6 0.527088 -4.25347 0
M  V30 14401 H 1390.78 -0.152384 -4.96066 0
M  V30 14402 H 1386.04 -1.09284 -6.01554 0
M  V30 14403 H 1390.21 -1.76815 -6.7358 0
M  V30 14404 H 1387.84 -2.24443 -7.26312 0
M  V30 14405 N 1389.41 1.55964 0.226527 0
M  V30 14406 C 1390.64 1.83168 0.972846 0
M  V30 14407 C 1391.06 0.626512 1.7736 0
M  V30 14408 O 1390.42 -0.42468 1.76256 0
M  V30 14409 C 1390.47 3.08315 1.87014 0
M  V30 14410 O 1389.57 2.8666 2.96479 0
M  V30 14411 H 1388.92 0.604041 0.275736 0
M  V30 14412 H 1391.45 2.03172 0.241345 0
M  V30 14413 H 1391.46 3.38288 2.28091 0
M  V30 14414 H 1390.13 3.95663 1.28154 0
M  V30 14415 H 1388.71 2.67907 2.59384 0
M  V30 14416 N 1390.89 -0.493031 1.4969 0
M  V30 14417 C 1391.8 -1.61991 1.69694 0
M  V30 14418 C 1392.82 -1.64061 0.579641 0
M  V30 14419 O 1393.99 -1.82335 0.855323 0
M  V30 14420 C 1391.06 -2.98323 1.76648 0
M  V30 14421 C 1390.12 -3.06816 3.00271 0
M  V30 14422 C 1389.35 -4.36644 3.06883 0
M  V30 14423 O 1389.58 -5.25901 2.20872 0
M  V30 14424 O 1388.51 -4.50275 3.99419 0
M  V30 14425 H 1392.34 -1.48042 2.65174 0
M  V30 14426 H 1389.92 -0.670182 1.33525 0
M  V30 14427 H 1391.8 -3.79335 1.83529 0
M  V30 14428 H 1390.48 -3.12517 0.843482 0
M  V30 14429 H 1389.39 -2.24962 2.98903 0
M  V30 14430 H 1390.72 -2.97551 3.92077 0
M  V30 14431 N 1392.37 -1.38898 -0.744656 0
M  V30 14432 C 1393.6 -1.3903 -1.53901 0
M  V30 14433 C 1394.02 0.0156607 -1.88093 0
M  V30 14434 O 1393.38 1.00012 -1.51219 0
M  V30 14435 C 1393.43 -2.2609 -2.80919 0
M  V30 14436 O 1392.53 -1.68414 -3.76444 0
M  V30 14437 H 1391.87 -0.473854 -0.465144 0
M  V30 14438 H 1394.4 -1.82773 -0.919525 0
M  V30 14439 H 1394.41 -2.40264 -3.29754 0
M  V30 14440 H 1393.09 -3.28271 -2.55364 0
M  V30 14441 H 1391.66 -1.63431 -3.35179 0
M  V30 14442 N 1393.85 0.973806 -1.23914 0
M  V30 14443 C 1394.76 2.10138 -1.04304 0
M  V30 14444 C 1395.77 1.73994 0.0143888 0
M  V30 14445 O 1396.95 2.00572 -0.182481 0
M  V30 14446 C 1394.02 3.40673 -0.643639 0
M  V30 14447 C 1393.08 3.90802 -1.77686 0
M  V30 14448 C 1392.31 5.15108 -1.39642 0
M  V30 14449 O 1392.53 5.69695 -0.283546 0
M  V30 14450 O 1391.47 5.59468 -2.21988 0
M  V30 14451 H 1395.29 2.29574 -1.9882 0
M  V30 14452 H 1392.88 1.08524 -1.02679 0
M  V30 14453 H 1394.76 4.19178 -0.432145 0
M  V30 14454 H 1393.43 3.22551 0.272458 0
M  V30 14455 H 1392.34 3.13385 -2.04305 0
M  V30 14456 H 1393.67 4.1339 -2.67151 0
M  V30 14457 N 1395.33 1.05191 1.17357 0
M  V30 14458 C 1396.24 0.663617 2.25018 0
M  V30 14459 C 1397.25 -0.315299 1.71119 0
M  V30 14460 O 1398.43 -0.167398 2.00703 0
M  V30 14461 C 1395.49 0.0443307 3.46672 0
M  V30 14462 C 1394.55 1.07369 4.15656 0
M  V30 14463 C 1393.79 0.483864 5.31502 0
M  V30 14464 O 1394.01 -0.706692 5.66005 0
M  V30 14465 O 1392.94 1.21812 5.89445 0
M  V30 14466 H 1396.77 1.56088 2.60519 0
M  V30 14467 H 1394.36 0.823474 1.24657 0
M  V30 14468 H 1396.24 -0.299839 4.20332 0
M  V30 14469 H 1394.91 -0.826579 3.12969 0
M  V30 14470 H 1393.82 1.46985 3.44015 0
M  V30 14471 H 1395.15 1.91575 4.53387 0
M  V30 14472 N 1396.8 -1.33791 0.83293 0
M  V30 14473 C 1397.75 -2.29332 0.25989 0
M  V30 14474 C 1398.72 -1.54056 -0.620965 0
M  V30 14475 O 1399.91 -1.82382 -0.560492 0
M  V30 14476 C 1397.05 -3.40461 -0.563964 0
M  V30 14477 C 1396.16 -4.30658 0.34025 0
M  V30 14478 C 1395.29 -5.28897 -0.494134 0
M  V30 14479 C 1394.33 -6.10733 0.408842 0
M  V30 14480 N 1393.47 -7.01032 -0.38706 0
M  V30 14481 H 1398.31 -2.77743 1.07996 0
M  V30 14482 H 1395.85 -1.3667 0.544043 0
M  V30 14483 H 1397.81 -4.03587 -1.05704 0
M  V30 14484 H 1396.44 -2.93258 -1.34905 0
M  V30 14485 H 1395.49 -3.68305 0.9516 0
M  V30 14486 H 1396.8 -4.87962 1.03415 0
M  V30 14487 H 1395.95 -5.97522 -1.05128 0
M  V30 14488 H 1394.69 -4.72155 -1.2215 0
M  V30 14489 H 1393.7 -5.41031 0.978046 0
M  V30 14490 H 1394.92 -6.69557 1.13448 0
M  V30 14491 H 1392.87 -6.46747 -1.09792 0
M  V30 14492 H 1392.79 -7.55592 0.248249 0
M  V30 14493 H 1394.05 -7.73973 -0.926631 0
M  V30 14494 N 1398.28 -0.588812 -1.46187 0
M  V30 14495 C 1399.19 0.143253 -2.34162 0
M  V30 14496 C 1400.21 0.879779 -1.5012 0
M  V30 14497 O 1401.38 0.841592 -1.82973 0
M  V30 14498 C 1398.45 1.14017 -3.27416 0
M  V30 14499 C 1397.51 0.407651 -4.2736 0
M  V30 14500 C 1396.74 1.35708 -5.16158 0
M  V30 14501 O 1396.97 2.59394 -5.08007 0
M  V30 14502 O 1395.9 0.864343 -5.95662 0
M  V30 14503 H 1399.73 -0.579228 -2.98125 0
M  V30 14504 H 1397.31 -0.349174 -1.45262 0
M  V30 14505 H 1399.19 1.71484 -3.8493 0
M  V30 14506 H 1397.87 1.84401 -2.66041 0
M  V30 14507 H 1396.78 -0.209011 -3.73516 0
M  V30 14508 H 1398.11 -0.255334 -4.91537 0
M  V30 14509 N 1399.76 1.54172 -0.326923 0
M  V30 14510 C 1400.99 2.05512 0.279231 0
M  V30 14511 C 1401.41 1.20131 1.44741 0
M  V30 14512 O 1400.77 0.211191 1.80066 0
M  V30 14513 C 1400.82 3.53971 0.688263 0
M  V30 14514 O 1399.92 3.71516 1.79025 0
M  V30 14515 H 1399.26 0.662131 0.0497826 0
M  V30 14516 H 1401.79 1.98979 -0.476309 0
M  V30 14517 H 1401.8 3.96302 0.970002 0
M  V30 14518 H 1400.48 4.15568 -0.166132 0
M  V30 14519 H 1399.05 3.4109 1.50706 0
M  V30 14520 N 1401.24 0.0551678 1.57503 0
M  V30 14521 C 1402.19 -0.927586 2.08278 0
M  V30 14522 C 1403.17 -1.26931 0.988802 0
M  V30 14523 O 1404.36 -1.25107 1.25209 0
M  V30 14524 C 1401.49 -2.20105 2.63456 0
M  V30 14525 C 1400.58 -1.88654 3.7983 0
M  V30 14526 N 1400.97 -1.2758 4.89446 0
M  V30 14527 C 1399.27 -2.185 3.8881 0
M  V30 14528 C 1399.97 -1.13848 5.7045 0
M  V30 14529 N 1398.95 -1.6427 5.18186 0
M  V30 14530 H 1402.75 -0.450784 2.90422 0
M  V30 14531 H 1400.26 -0.149178 1.61713 0
M  V30 14532 H 1402.26 -2.9141 2.98137 0
M  V30 14533 H 1400.92 -2.68388 1.82752 0
M  V30 14534 H 1401.93 -0.947506 5.09159 0
M  V30 14535 H 1398.61 -2.69276 3.19056 0
M  V30 14536 H 1400 -0.664014 6.68611 0
M  V30 14537 N 1402.72 -1.56081 -0.218252 0
M  V30 14538 C 1403.96 -1.79513 -0.943553 0
M  V30 14539 C 1404.3 -0.625367 -1.83855 0
M  V30 14540 O 1403.57 0.375226 -1.90846 0
M  V30 14541 C 1403.85 -3.13049 -1.77967 0
M  V30 14542 C 1403.71 -4.40479 -0.910939 0
M  V30 14543 C 1405.03 -3.43057 -2.7568 0
M  V30 14544 H 1402.14 -0.653057 -0.341593 0
M  V30 14545 H 1404.79 -1.88811 -0.212226 0
M  V30 14546 H 1402.94 -3.05254 -2.40318 0
M  V30 14547 H 1404.61 -4.60298 -0.303922 0
M  V30 14548 H 1402.85 -4.33259 -0.216513 0
M  V30 14549 H 1403.52 -5.3036 -1.53042 0
M  V30 14550 H 1406 -3.51002 -2.23465 0
M  V30 14551 H 1404.87 -4.37657 -3.31282 0
M  V30 14552 H 1405.14 -2.65389 -3.53584 0
M  V30 14553 N 1404.2 0.485086 -1.49949 0
M  V30 14554 C 1405.16 1.56713 -1.67253 0
M  V30 14555 C 1406.16 1.51329 -0.543701 0
M  V30 14556 O 1407.35 1.54198 -0.810472 0
M  V30 14557 C 1404.48 2.9636 -1.68475 0
M  V30 14558 H 1405.67 1.42693 -2.63778 0
M  V30 14559 H 1403.23 0.710473 -1.39219 0
M  V30 14560 H 1403.96 3.1584 -0.735924 0
M  V30 14561 H 1403.75 3.01675 -2.50469 0
M  V30 14562 H 1405.24 3.74945 -1.83865 0
M  V30 14563 N 1405.67 1.39291 0.737279 0
M  V30 14564 C 1406.61 1.32216 1.85995 0
M  V30 14565 C 1407.58 0.19623 1.61412 0
M  V30 14566 O 1408.77 0.376297 1.84706 0
M  V30 14567 C 1405.9 1.0525 3.21932 0
M  V30 14568 C 1404.94 2.20002 3.65378 0
M  V30 14569 S 1405.77 3.82265 3.75011 0
M  V30 14570 C 1406.93 3.57519 5.13742 0
M  V30 14571 H 1407.16 2.27231 1.91712 0
M  V30 14572 H 1404.7 1.25319 0.901911 0
M  V30 14573 H 1406.65 0.903753 4.00428 0
M  V30 14574 H 1405.32 0.119258 3.13874 0
M  V30 14575 H 1404.51 1.9672 4.64023 0
M  V30 14576 H 1404.11 2.31068 2.94081 0
M  V30 14577 H 1406.4 3.14643 6.00005 0
M  V30 14578 H 1407.35 4.55616 5.42051 0
M  V30 14579 H 1407.75 2.9167 4.8331 0
M  V30 14580 N 1407.15 -0.967221 1.24429 0
M  V30 14581 C 1408.1 -2.047 1.00409 0
M  V30 14582 C 1409.09 -1.60807 -0.0546412 0
M  V30 14583 O 1410.28 -1.76283 0.159145 0
M  V30 14584 C 1407.41 -3.37813 0.611345 0
M  V30 14585 C 1406.49 -3.88266 1.70618 0
M  V30 14586 N 1406.88 -4.1165 2.93901 0
M  V30 14587 C 1405.18 -4.16931 1.5838 0
M  V30 14588 C 1405.88 -4.53032 3.64879 0
M  V30 14589 N 1404.86 -4.58233 2.92444 0
M  V30 14590 H 1408.66 -2.20755 1.94021 0
M  V30 14591 H 1406.17 -1.15105 1.14562 0
M  V30 14592 H 1408.17 -4.14774 0.420493 0
M  V30 14593 H 1406.83 -3.23143 -0.317588 0
M  V30 14594 H 1407.84 -3.99087 3.30075 0
M  V30 14595 H 1404.52 -4.11193 0.722929 0
M  V30 14596 H 1405.91 -4.79533 4.70635 0
M  V30 14597 N 1408.63 -1.05812 -1.16797 0
M  V30 14598 C 1410.05 -0.780649 -1.39205 0
M  V30 14599 C 1410.25 0.622191 -1.91653 0
M  V30 14600 O 1409.3 1.38357 -2.11219 0
M  V30 14601 C 1410.61 -1.84148 -2.37718 0
M  V30 14602 C 1412.16 -1.86442 -2.51413 0
M  V30 14603 C 1412.64 -2.91566 -3.53204 0
M  V30 14604 N 1414.13 -2.90568 -3.60727 0
M  V30 14605 C 1414.86 -3.68556 -4.39265 0
M  V30 14606 N 1414.36 -4.56348 -5.21266 0
M  V30 14607 N 1416.15 -3.56969 -4.342 0
M  V30 14608 H 1408.3 -1.96313 -0.810871 0
M  V30 14609 H 1410.57 -0.850421 -0.418913 0
M  V30 14610 H 1410.27 -2.84864 -2.06265 0
M  V30 14611 H 1410.15 -1.68838 -3.37303 0
M  V30 14612 H 1412.53 -0.863873 -2.82172 0
M  V30 14613 H 1412.61 -2.0583 -1.5188 0
M  V30 14614 H 1412.26 -3.91811 -3.23182 0
M  V30 14615 H 1412.19 -2.69429 -4.52455 0
M  V30 14616 H 1414.68 -2.26918 -3.02186 0
M  V30 14617 H 1414.99 -5.12523 -5.78394 0
M  V30 14618 H 1413.34 -4.60406 -5.20626 0
M  V30 14619 H 1416.53 -2.87772 -3.69195 0
M  V30 14620 H 1416.7 -4.17993 -4.95162 0
M  V30 14621 N 1410.11 1.33347 -0.840014 0
M  V30 14622 C 1411.34 2.01659 -0.449141 0
M  V30 14623 C 1411.75 1.63353 0.954597 0
M  V30 14624 O 1411.09 0.843303 1.632 0
M  V30 14625 C 1411.15 3.56124 -0.491497 0
M  V30 14626 C 1410.81 4.17812 -1.85155 0
M  V30 14627 C 1411.81 4.37101 -2.81494 0
M  V30 14628 C 1409.5 4.54211 -2.1447 0
M  V30 14629 C 1411.49 4.91938 -4.05309 0
M  V30 14630 C 1409.18 5.08756 -3.38542 0
M  V30 14631 C 1410.18 5.27566 -4.33778 0
M  V30 14632 O 1409.86 5.8095 -5.55655 0
M  V30 14633 H 1409.6 0.652553 -0.176494 0
M  V30 14634 H 1412.15 1.71228 -1.13447 0
M  V30 14635 H 1410.38 3.85887 0.250613 0
M  V30 14636 H 1412.07 4.05728 -0.118288 0
M  V30 14637 H 1412.83 4.09328 -2.60146 0
M  V30 14638 H 1408.71 4.38864 -1.41135 0
M  V30 14639 H 1412.26 5.06536 -4.79654 0
M  V30 14640 H 1408.15 5.3596 -3.59746 0
M  V30 14641 H 1408.92 5.99363 -5.5741 0
M  V30 14642 N 1411.59 0.596556 1.45873 0
M  V30 14643 C 1412.52 -0.166704 2.28593 0
M  V30 14644 C 1413.53 -0.84231 1.39316 0
M  V30 14645 O 1414.72 -0.709548 1.63792 0
M  V30 14646 C 1411.82 -1.25641 3.1475 0
M  V30 14647 C 1410.99 -0.67006 4.32237 0
M  V30 14648 C 1410.05 -1.64924 4.99686 0
M  V30 14649 O 1409.08 -1.17986 5.56838 0
M  V30 14650 N 1410.28 -2.98355 4.9796 0
M  V30 14651 H 1413.04 0.543045 2.94739 0
M  V30 14652 H 1410.61 0.435274 1.55939 0
M  V30 14653 H 1412.6 -1.91104 3.56737 0
M  V30 14654 H 1411.17 -1.86883 2.50586 0
M  V30 14655 H 1410.39 0.162375 3.93865 0
M  V30 14656 H 1411.68 -0.258345 5.08144 0
M  V30 14657 H 1411.07 -3.39101 4.52799 0
M  V30 14658 H 1409.63 -3.5927 5.43846 0
M  V30 14659 N 1413.06 -1.53996 0.335095 0
M  V30 14660 C 1414.31 -2.01069 -0.264388 0
M  V30 14661 C 1414.64 -1.22271 -1.50876 0
M  V30 14662 O 1413.92 -0.30806 -1.92045 0
M  V30 14663 C 1414.2 -3.55283 -0.587 0
M  V30 14664 C 1414.05 -4.44799 0.668877 0
M  V30 14665 C 1415.37 -4.17238 -1.40003 0
M  V30 14666 H 1412.49 -0.730901 -0.0946202 0
M  V30 14667 H 1415.13 -1.84497 0.453958 0
M  V30 14668 H 1413.28 -3.69536 -1.19899 0
M  V30 14669 H 1414.96 -4.42398 1.30698 0
M  V30 14670 H 1413.2 -4.14005 1.29547 0
M  V30 14671 H 1413.87 -5.5056 0.398523 0
M  V30 14672 H 1416.35 -4.06631 -0.88262 0
M  V30 14673 H 1415.22 -5.2523 -1.59451 0
M  V30 14674 H 1415.48 -3.71309 -2.39962 0
M  V30 14675 N 1414.54 -0.0635198 -1.57472 0
M  V30 14676 C 1415.49 0.924358 -2.13444 0
M  V30 14677 C 1416.48 1.31389 -1.06927 0
M  V30 14678 O 1417.69 1.2921 -1.25319 0
M  V30 14679 H 1414.06 0.316003 -0.682383 0
M  V30 14680 H 1416.04 0.427281 -2.95325 0
M  V30 14681 C 1414.78 2.18546 -2.70431 0
M  V30 14682 H 1414.11 1.89455 -3.52061 0
M  V30 14683 H 1415.55 2.85799 -3.13201 0
M  V30 14684 C 1414.01 2.93845 -1.64794 0
M  V30 14685 O 1414.54 3.87242 -1.06802 0
M  V30 14686 N 1412.74 2.568 -1.36023 0
M  V30 14687 H 1412.29 1.80924 -1.83369 0
M  V30 14688 H 1412.25 3.07486 -0.655741 0
M  V30 14689 N 1416.02 1.56195 0.209972 0
M  V30 14690 C 1416.97 1.94226 1.27981 0
M  V30 14691 C 1417.96 0.825742 1.47912 0
M  V30 14692 O 1419.17 1.01066 1.48949 0
M  V30 14693 H 1415.54 0.617395 0.429333 0
M  V30 14694 H 1417.51 2.83474 0.931946 0
M  V30 14695 C 1416.26 2.28527 2.62051 0
M  V30 14696 H 1415.59 3.1396 2.47526 0
M  V30 14697 H 1417.03 2.59012 3.35692 0
M  V30 14698 C 1415.48 1.11452 3.17931 0
M  V30 14699 O 1416.01 0.381713 3.99882 0
M  V30 14700 N 1414.22 0.895263 2.76466 0
M  V30 14701 H 1413.77 1.4929 2.09929 0
M  V30 14702 H 1413.73 0.113688 3.14194 0
M  V30 14703 N 1417.5 -0.477127 1.50204 0
M  V30 14704 C 1418.43 -1.58405 1.71552 0
M  V30 14705 C 1419.41 -1.60463 0.564413 0
M  V30 14706 O 1420.59 -1.76826 0.802893 0
M  V30 14707 C 1417.72 -2.96765 1.8041 0
M  V30 14708 C 1416.68 -3.09573 2.95548 0
M  V30 14709 C 1416 -4.49522 2.89542 0
M  V30 14710 C 1417.3 -2.87356 4.36147 0
M  V30 14711 H 1419 -1.40792 2.64231 0
M  V30 14712 H 1416.54 -0.675886 1.27153 0
M  V30 14713 H 1418.5 -3.74125 1.9393 0
M  V30 14714 H 1417.22 -3.1552 0.843489 0
M  V30 14715 H 1415.88 -2.34645 2.81669 0
M  V30 14716 H 1415.53 -4.65186 1.91339 0
M  V30 14717 H 1415.23 -4.59028 3.66834 0
M  V30 14718 H 1416.75 -5.28909 3.05102 0
M  V30 14719 H 1418.17 -3.54469 4.50583 0
M  V30 14720 H 1416.56 -3.08313 5.14843 0
M  V30 14721 H 1417.63 -1.83264 4.48935 0
M  V30 14722 N 1418.98 -1.3968 -0.729882 0
M  V30 14723 C 1420.22 -1.36911 -1.4866 0
M  V30 14724 C 1420.55 0.0326011 -1.94973 0
M  V30 14725 O 1419.82 0.984789 -1.69348 0
M  V30 14726 H 1418.4 -0.503848 -0.551495 0
M  V30 14727 H 1421.06 -1.74596 -0.866155 0
M  V30 14728 H 1420.15 -2.03504 -2.36628 0
M  V30 14729 N 1420.45 0.960609 -1.2494 0
M  V30 14730 C 1421.39 2.05948 -1.00588 0
M  V30 14731 C 1422.4 1.62777 0.0271261 0
M  V30 14732 O 1423.59 1.77252 -0.210739 0
M  V30 14733 C 1420.69 3.35228 -0.497521 0
M  V30 14734 C 1419.86 4.0727 -1.59531 0
M  V30 14735 C 1418.92 5.14822 -1.08836 0
M  V30 14736 O 1417.95 5.40602 -1.78153 0
M  V30 14737 N 1419.15 5.80453 0.0735067 0
M  V30 14738 H 1421.91 2.27411 -1.95204 0
M  V30 14739 H 1419.47 1.12874 -1.16065 0
M  V30 14740 H 1421.47 4.04447 -0.142979 0
M  V30 14741 H 1420.04 3.10583 0.354546 0
M  V30 14742 H 1419.26 3.32231 -2.12171 0
M  V30 14743 H 1420.54 4.52161 -2.33299 0
M  V30 14744 H 1419.94 5.6192 0.652848 0
M  V30 14745 H 1418.5 6.50754 0.369132 0
M  V30 14746 N 1421.93 1.0643 1.16234 0
M  V30 14747 C 1423.35 0.78802 1.38789 0
M  V30 14748 C 1423.55 -0.612019 1.91981 0
M  V30 14749 O 1422.6 -1.37235 2.1195 0
M  V30 14750 C 1423.92 1.85406 2.36738 0
M  V30 14751 C 1425.47 1.87773 2.5042 0
M  V30 14752 C 1425.94 2.93435 3.51653 0
M  V30 14753 N 1427.43 2.92477 3.59181 0
M  V30 14754 C 1428.17 3.7088 4.37305 0
M  V30 14755 N 1427.66 4.59106 5.18839 0
M  V30 14756 N 1429.46 3.59267 4.32301 0
M  V30 14757 H 1421.61 1.9674 0.800449 0
M  V30 14758 H 1423.87 0.852631 0.414397 0
M  V30 14759 H 1423.58 2.85954 2.04751 0
M  V30 14760 H 1423.45 1.70625 3.36403 0
M  V30 14761 H 1425.84 0.878825 2.8171 0
M  V30 14762 H 1425.92 2.06633 1.50787 0
M  V30 14763 H 1425.56 3.93519 3.211 0
M  V30 14764 H 1425.49 2.71824 4.5102 0
M  V30 14765 H 1427.98 2.28517 3.00979 0
M  V30 14766 H 1428.3 5.15583 5.75668 0
M  V30 14767 H 1426.64 4.6316 5.18177 0
M  V30 14768 H 1429.83 2.89726 3.67663 0
M  V30 14769 H 1430 4.20613 4.92939 0
M  V30 14770 N 1423.41 -1.329 0.847073 0
M  V30 14771 C 1424.69 -1.921 0.368351 0
M  V30 14772 C 1425.07 -1.77205 -1.14724 0
M  V30 14773 O 1424.42 -1.16547 -1.96543 0
M  V30 14774 C 1424.63 -3.39125 0.824326 0
M  V30 14775 C 1425.97 -4.16267 0.837097 0
M  V30 14776 O 1427 -3.47812 0.768466 0
M  V30 14777 O 1425.86 -5.38487 0.932389 0
M  V30 14778 H 1422.95 -0.820187 0.105936 0
M  V30 14779 H 1425.5 -1.41719 0.933471 0
M  V30 14780 H 1424.27 -3.43875 1.86723 0
M  V30 14781 H 1423.89 -3.96898 0.236233 0
M  V30 14782 N 1424.89 -0.604284 -1.45555 0
M  V30 14783 C 1425.82 0.103859 -2.33269 0
M  V30 14784 C 1426.8 0.862104 -1.46635 0
M  V30 14785 O 1427.98 0.833308 -1.75413 0
M  V30 14786 C 1425.11 1.104 -3.29286 0
M  V30 14787 C 1424.07 0.459189 -4.2553 0
M  V30 14788 C 1423.39 1.56734 -5.11213 0
M  V30 14789 C 1424.69 -0.617509 -5.18637 0
M  V30 14790 H 1426.39 -0.628538 -2.92728 0
M  V30 14791 H 1423.93 -0.303711 -1.40761 0
M  V30 14792 H 1425.89 1.60794 -3.89517 0
M  V30 14793 H 1424.61 1.86695 -2.67979 0
M  V30 14794 H 1423.27 -0.0238508 -3.66592 0
M  V30 14795 H 1422.92 2.32049 -4.46276 0
M  V30 14796 H 1422.62 1.14142 -5.76407 0
M  V30 14797 H 1424.14 2.07361 -5.74312 0
M  V30 14798 H 1425.56 -0.197784 -5.72959 0
M  V30 14799 H 1423.95 -0.96499 -5.9229 0
M  V30 14800 H 1425.02 -1.49541 -4.61265 0
M  V30 14801 N 1426.37 1.53816 -0.343257 0
M  V30 14802 C 1427.78 1.86169 0.140709 0
M  V30 14803 C 1428.13 1.26449 1.50017 0
M  V30 14804 O 1427.25 0.577955 2.08539 0
M  V30 14805 C 1427.85 3.37785 0.262097 0
M  V30 14806 C 1426.41 3.70016 0.690294 0
M  V30 14807 C 1425.55 2.7674 -0.17614 0
M  V30 14808 H 1428.51 1.48383 -0.562863 0
M  V30 14809 H 1428.53 3.64564 1.08964 0
M  V30 14810 H 1428.04 3.81221 -0.727481 0
M  V30 14811 H 1426.14 3.32124 1.68891 0
M  V30 14812 H 1426.25 4.76686 0.480388 0
M  V30 14813 H 1424.62 2.52263 0.351476 0
M  V30 14814 H 1425.4 3.23006 -1.16285 0
M  V30 14815 N 1427.84 0.0718701 1.57436 0
M  V30 14816 C 1429.09 -0.598116 1.93779 0
M  V30 14817 C 1429.42 -1.69258 0.952131 0
M  V30 14818 O 1428.7 -1.94491 -0.0186426 0
M  V30 14819 C 1428.98 -1.17499 3.40391 0
M  V30 14820 C 1428.83 -0.0871719 4.49716 0
M  V30 14821 C 1430.15 -2.08047 3.8782 0
M  V30 14822 H 1427.27 -0.215954 0.704651 0
M  V30 14823 H 1429.91 0.137854 1.89499 0
M  V30 14824 H 1428.06 -1.80221 3.44169 0
M  V30 14825 H 1429.74 0.545906 4.58058 0
M  V30 14826 H 1427.98 0.582213 4.29875 0
M  V30 14827 H 1428.65 -0.531202 5.49438 0
M  V30 14828 H 1431.13 -1.5526 3.86049 0
M  V30 14829 H 1430 -2.45345 4.91016 0
M  V30 14830 H 1430.26 -2.98879 3.25766 0
M  V30 14831 N 1429.32 -1.56304 -0.201686 0
M  V30 14832 C 1430.55 -1.84692 -0.943583 0
M  V30 14833 C 1430.97 -0.654649 -1.7634 0
M  V30 14834 O 1430.33 0.396586 -1.76909 0
M  V30 14835 C 1430.38 -3.11251 -1.82085 0
M  V30 14836 O 1429.48 -2.9134 -2.91881 0
M  V30 14837 H 1428.82 -0.608351 -0.266092 0
M  V30 14838 H 1431.35 -2.0353 -0.208992 0
M  V30 14839 H 1431.36 -3.41874 -2.2268 0
M  V30 14840 H 1430.04 -3.97652 -1.21844 0
M  V30 14841 H 1428.62 -2.72 -2.55089 0
M  V30 14842 N 1430.8 0.469154 -1.50455 0
M  V30 14843 C 1432.05 1.21788 -1.60781 0
M  V30 14844 C 1432.36 1.93054 -0.314576 0
M  V30 14845 O 1433.57 2.69873 -0.296773 0
M  V30 14846 C 1432.02 2.21305 -2.83817 0
M  V30 14847 C 1431.63 1.55833 -4.20024 0
M  V30 14848 C 1433.38 2.96808 -3.03489 0
M  V30 14849 C 1431.28 2.53648 -5.34244 0
M  V30 14850 H 1430.21 0.45827 -0.598752 0
M  V30 14851 H 1432.86 0.488159 -1.76888 0
M  V30 14852 H 1431.25 2.97577 -2.61273 0
M  V30 14853 H 1432.42 0.853371 -4.52829 0
M  V30 14854 H 1430.74 0.926046 -4.05972 0
M  V30 14855 H 1433.33 3.70017 -3.85994 0
M  V30 14856 H 1433.68 3.56307 -2.15293 0
M  V30 14857 H 1434.21 2.27648 -3.26223 0
M  V30 14858 H 1430.95 1.98885 -6.246 0
M  V30 14859 H 1430.47 3.22291 -5.05854 0
M  V30 14860 H 1432.15 3.15438 -5.64897 0
M  V30 14861 N 1432.28 1.40065 0.722464 0
M  V30 14862 C 1433.23 1.39947 1.85789 0
M  V30 14863 C 1434.22 0.28089 1.67055 0
M  V30 14864 O 1435.43 0.451575 1.74244 0
M  V30 14865 H 1431.8 0.437296 0.611781 0
M  V30 14866 H 1433.77 2.35695 1.83004 0
M  V30 14867 C 1432.52 1.27218 3.2359 0
M  V30 14868 H 1431.84 2.12566 3.38609 0
M  V30 14869 H 1433.28 1.31194 4.03192 0
M  V30 14870 C 1431.74 -0.0182466 3.36895 0
M  V30 14871 O 1432.27 -0.983761 3.89468 0
M  V30 14872 N 1430.48 -0.0854707 2.90474 0
M  V30 14873 H 1430.03 0.700953 2.4788 0
M  V30 14874 H 1429.98 -0.948367 2.99755 0
M  V30 14875 N 1433.76 -0.95397 1.25448 0
M  V30 14876 C 1435 -1.69866 1.10235 0
M  V30 14877 C 1435.33 -1.91204 -0.356552 0
M  V30 14878 O 1434.59 -1.4811 -1.27914 0
M  V30 14879 C 1434.89 -3.08613 1.80258 0
M  V30 14880 C 1434.55 -3.07072 3.30178 0
M  V30 14881 C 1433.21 -3.0636 3.71076 0
M  V30 14882 C 1435.57 -3.00351 4.25956 0
M  V30 14883 C 1432.89 -2.96675 5.06163 0
M  V30 14884 C 1435.25 -2.92209 5.61067 0
M  V30 14885 C 1433.91 -2.89832 6.01293 0
M  V30 14886 H 1433.18 -0.621583 0.40338 0
M  V30 14887 H 1435.83 -1.11448 1.55729 0
M  V30 14888 H 1434.13 -3.70578 1.27197 0
M  V30 14889 H 1435.83 -3.65055 1.6594 0
M  V30 14890 H 1432.42 -3.084 2.97637 0
M  V30 14891 H 1436.6 -3.0002 3.9535 0
M  V30 14892 H 1431.86 -2.93204 5.36508 0
M  V30 14893 H 1436.03 -2.8597 6.34976 0
M  V30 14894 H 1433.66 -2.82084 7.05927 0
M  V30 14895 N 1435.24 -1.07045 -1.15668 0
M  V30 14896 C 1436.48 -0.802736 -1.8689 0
M  V30 14897 C 1436.84 0.663897 -1.80583 0
M  V30 14898 O 1436.13 1.48076 -1.2159 0
M  V30 14899 C 1436.32 -1.24127 -3.35153 0
M  V30 14900 C 1436.15 -2.749 -3.55894 0
M  V30 14901 C 1434.92 -3.42466 -3.71544 0
M  V30 14902 C 1437.12 -3.73102 -3.53977 0
M  V30 14903 N 1435.1 -4.81912 -3.80308 0
M  V30 14904 C 1436.47 -4.98371 -3.68817 0
M  V30 14905 C 1438.53 -3.66304 -3.37233 0
M  V30 14906 C 1437.23 -6.17651 -3.68645 0
M  V30 14907 C 1439.26 -4.85045 -3.38357 0
M  V30 14908 C 1438.62 -6.09146 -3.53725 0
M  V30 14909 H 1434.72 -0.346254 -0.701165 0
M  V30 14910 H 1437.3 -1.36609 -1.3873 0
M  V30 14911 H 1435.47 -0.705653 -3.81936 0
M  V30 14912 H 1437.21 -0.92143 -3.94071 0
M  V30 14913 H 1433.96 -2.92871 -3.72187 0
M  V30 14914 H 1434.38 -5.54475 -3.88441 0
M  V30 14915 H 1439.03 -2.71306 -3.24273 0
M  V30 14916 H 1436.74 -7.12975 -3.80384 0
M  V30 14917 H 1440.33 -4.81458 -3.26634 0
M  V30 14918 H 1439.21 -6.99487 -3.54524 0
M  V30 14919 N 1436.71 1.32449 -0.85411 0
M  V30 14920 C 1437.96 1.97563 -0.4579 0
M  V30 14921 C 1438.29 1.67435 0.983835 0
M  V30 14922 O 1437.57 0.962292 1.69027 0
M  V30 14923 C 1437.85 3.53292 -0.69688 0
M  V30 14924 C 1437.7 3.93053 -2.18699 0
M  V30 14925 C 1439.02 4.39834 -0.152917 0
M  V30 14926 H 1436.14 0.717634 -0.167842 0
M  V30 14927 H 1438.78 1.5684 -1.07243 0
M  V30 14928 H 1436.93 3.88111 -0.173807 0
M  V30 14929 H 1438.61 3.68416 -2.7761 0
M  V30 14930 H 1436.85 3.42232 -2.6657 0
M  V30 14931 H 1437.52 5.01576 -2.3049 0
M  V30 14932 H 1440 4.11748 -0.600216 0
M  V30 14933 H 1438.87 5.47785 -0.349703 0
M  V30 14934 H 1439.13 4.31898 0.944276 0
M  V30 14935 N 1438.19 0.611994 1.45232 0
M  V30 14936 C 1439.6 0.193464 1.85695 0
M  V30 14937 C 1439.95 -1.25069 1.5117 0
M  V30 14938 O 1439.08 -1.94894 0.940497 0
M  V30 14939 C 1439.67 0.344334 3.37046 0
M  V30 14940 C 1438.23 -0.0195378 3.76395 0
M  V30 14941 C 1437.38 0.666714 2.69166 0
M  V30 14942 H 1440.33 0.818395 1.35971 0
M  V30 14943 H 1440.35 -0.422209 3.7815 0
M  V30 14944 H 1439.86 1.3955 3.62143 0
M  V30 14945 H 1437.96 -1.06971 3.56915 0
M  V30 14946 H 1438.08 0.377184 4.77613 0
M  V30 14947 H 1436.44 0.103912 2.54488 0
M  V30 14948 H 1437.22 1.7201 2.97099 0
M  V30 14949 N 1439.67 -1.53632 0.351409 0
M  V30 14950 C 1440.92 -2.01338 -0.243047 0
M  V30 14951 C 1441.25 -1.23864 -1.4957 0
M  V30 14952 O 1440.52 -0.328412 -1.91707 0
M  V30 14953 C 1440.81 -3.55886 -0.549284 0
M  V30 14954 C 1440.66 -4.44064 0.716016 0
M  V30 14955 C 1441.98 -4.18699 -1.35569 0
M  V30 14956 H 1439.1 -0.731863 -0.0868627 0
M  V30 14957 H 1441.74 -1.84005 0.473501 0
M  V30 14958 H 1439.89 -3.70787 -1.15972 0
M  V30 14959 H 1441.56 -4.40987 1.35383 0
M  V30 14960 H 1439.8 -4.12608 1.3393 0
M  V30 14961 H 1440.48 -5.50106 0.456895 0
M  V30 14962 H 1442.95 -4.07545 -0.839441 0
M  V30 14963 H 1441.83 -5.26892 -1.53871 0
M  V30 14964 H 1442.09 -3.73834 -2.3601 0
M  V30 14965 N 1441.15 -0.0802183 -1.57396 0
M  V30 14966 C 1442.06 0.898597 -2.16708 0
M  V30 14967 C 1443.07 1.321 -1.1325 0
M  V30 14968 O 1444.25 1.39197 -1.45554 0
M  V30 14969 C 1441.31 2.14501 -2.72379 0
M  V30 14970 C 1440.38 1.77822 -3.9074 0
M  V30 14971 C 1439.61 2.96521 -4.43747 0
M  V30 14972 O 1439.83 4.10797 -3.9573 0
M  V30 14973 O 1438.77 2.75849 -5.34968 0
M  V30 14974 H 1442.59 0.424027 -3.00725 0
M  V30 14975 H 1440.18 0.14332 -1.48711 0
M  V30 14976 H 1442.06 2.87575 -3.08024 0
M  V30 14977 H 1440.73 2.61039 -1.91416 0
M  V30 14978 H 1439.64 1.01974 -3.59934 0
M  V30 14979 H 1440.97 1.36059 -4.73021 0
M  V30 14980 N 1442.63 1.56409 0.193394 0
M  V30 14981 C 1443.56 1.97707 1.24234 0
M  V30 14982 C 1444.54 0.849286 1.47381 0
M  V30 14983 O 1445.72 1.11374 1.59089 0
M  V30 14984 C 1442.85 2.31804 2.5862 0
M  V30 14985 C 1441.81 3.47337 2.50082 0
M  V30 14986 C 1441.13 3.67114 3.88756 0
M  V30 14987 C 1442.43 4.81472 2.02441 0
M  V30 14988 H 1444.13 2.8558 0.89914 0
M  V30 14989 H 1441.67 1.37396 0.431078 0
M  V30 14990 H 1443.62 2.5929 3.32185 0
M  V30 14991 H 1442.35 1.40816 2.94684 0
M  V30 14992 H 1441.01 3.19944 1.78973 0
M  V30 14993 H 1440.66 2.73454 4.22175 0
M  V30 14994 H 1440.36 4.44838 3.83918 0
M  V30 14995 H 1441.88 3.96978 4.6394 0
M  V30 14996 H 1443.29 5.07978 2.65766 0
M  V30 14997 H 1441.69 5.62677 2.08601 0
M  V30 14998 H 1442.76 4.74941 0.977704 0
M  V30 14999 N 1444.1 -0.461169 1.50702 0
M  V30 15000 C 1445.05 -1.57861 1.70829 0
M  V30 15001 C 1446.05 -1.59371 0.57423 0
M  V30 15002 O 1447.25 -1.63401 0.754996 0
M  V30 15003 H 1443.63 -0.524015 0.539363 0
M  V30 15004 H 1445.6 -1.3805 2.64546 0
M  V30 15005 C 1444.35 -2.95724 1.82873 0
M  V30 15006 H 1443.67 -2.95285 2.6953 0
M  V30 15007 H 1445.11 -3.73342 2.00977 0
M  V30 15008 C 1443.57 -3.31823 0.582691 0
M  V30 15009 O 1444.1 -4.00767 -0.273623 0
M  V30 15010 N 1442.3 -2.87344 0.433781 0
M  V30 15011 H 1441.85 -2.31411 1.13166 0
M  V30 15012 H 1441.81 -3.11861 -0.398743 0
M  V30 15013 N 1445.58 -1.40446 -0.715026 0
M  V30 15014 C 1446.51 -1.36673 -1.83993 0
M  V30 15015 C 1447.53 -0.272038 -1.60511 0
M  V30 15016 O 1448.72 -0.532425 -1.70375 0
M  V30 15017 C 1445.82 -1.10423 -3.20406 0
M  V30 15018 C 1444.99 -2.31557 -3.71079 0
M  V30 15019 C 1444.05 -2.01459 -4.86108 0
M  V30 15020 O 1443.07 -2.7433 -4.9873 0
M  V30 15021 N 1444.28 -0.992899 -5.71946 0
M  V30 15022 H 1447.04 -2.3362 -1.87728 0
M  V30 15023 H 1444.6 -1.34807 -0.896586 0
M  V30 15024 H 1446.59 -0.88273 -3.94956 0
M  V30 15025 H 1445.16 -0.221408 -3.11815 0
M  V30 15026 H 1444.38 -2.69534 -2.87655 0
M  V30 15027 H 1445.67 -3.1231 -4.01671 0
M  V30 15028 H 1445.07 -0.389387 -5.64358 0
M  V30 15029 H 1443.63 -0.831299 -6.46477 0
M  V30 15030 N 1447.06 0.947303 -1.25952 0
M  V30 15031 C 1447.97 2.07878 -1.08738 0
M  V30 15032 C 1448.99 1.73985 -0.0225212 0
M  V30 15033 O 1450.16 2.00139 -0.224984 0
M  V30 15034 C 1447.23 3.39231 -0.715756 0
M  V30 15035 C 1446.29 3.86945 -1.85935 0
M  V30 15036 C 1445.52 5.1203 -1.50537 0
M  V30 15037 O 1445.74 5.68965 -0.404323 0
M  V30 15038 O 1444.68 5.54634 -2.33805 0
M  V30 15039 H 1448.5 2.25305 -2.03645 0
M  V30 15040 H 1446.09 1.06321 -1.04958 0
M  V30 15041 H 1447.97 4.18167 -0.520962 0
M  V30 15042 H 1446.65 3.23057 0.203978 0
M  V30 15043 H 1445.55 3.08981 -2.10906 0
M  V30 15044 H 1446.89 4.0763 -2.75859 0
M  V30 15045 N 1448.54 1.07657 1.15099 0
M  V30 15046 C 1449.5 0.703558 2.18135 0
M  V30 15047 C 1450.5 -0.257771 1.5872 0
M  V30 15048 O 1451.69 -0.0383211 1.74158 0
M  V30 15049 C 1448.82 0.0374978 3.40879 0
M  V30 15050 H 1450.02 1.61583 2.52648 0
M  V30 15051 H 1447.57 0.873484 1.29615 0
M  V30 15052 H 1448.3 -0.886868 3.11938 0
M  V30 15053 H 1448.09 0.728961 3.85264 0
M  V30 15054 H 1449.58 -0.208714 4.17078 0
M  V30 15055 N 1450.02 -1.31994 0.861122 0
M  V30 15056 C 1451.26 -1.97317 0.468371 0
M  V30 15057 C 1451.6 -1.67954 -0.974941 0
M  V30 15058 O 1450.87 -0.971243 -1.68514 0
M  V30 15059 C 1451.15 -3.52918 0.715607 0
M  V30 15060 C 1451.01 -3.91888 2.20781 0
M  V30 15061 C 1452.33 -4.39747 0.17624 0
M  V30 15062 H 1449.44 -0.716733 0.171646 0
M  V30 15063 H 1452.09 -1.56269 1.08074 0
M  V30 15064 H 1450.24 -3.88013 0.194387 0
M  V30 15065 H 1451.91 -3.66938 2.7956 0
M  V30 15066 H 1450.15 -3.40813 2.68382 0
M  V30 15067 H 1450.82 -5.00346 2.33147 0
M  V30 15068 H 1453.3 -4.11424 0.622043 0
M  V30 15069 H 1452.17 -5.47592 0.378748 0
M  V30 15070 H 1452.44 -4.32393 -0.921358 0
M  V30 15071 N 1451.49 -0.619688 -1.44906 0
M  V30 15072 C 1452.74 -0.128286 -2.02995 0
M  V30 15073 C 1453.1 1.23194 -1.47787 0
M  V30 15074 O 1452.39 1.80316 -0.64782 0
M  V30 15075 C 1452.58 -0.0432891 -3.57374 0
M  V30 15076 C 1452.41 -1.39373 -4.27557 0
M  V30 15077 C 1451.18 -1.97756 -4.64995 0
M  V30 15078 C 1453.38 -2.32512 -4.5874 0
M  V30 15079 N 1451.36 -3.26154 -5.20093 0
M  V30 15080 C 1452.73 -3.45517 -5.14799 0
M  V30 15081 C 1454.79 -2.31734 -4.40685 0
M  V30 15082 C 1453.49 -4.57924 -5.54706 0
M  V30 15083 C 1455.52 -3.43197 -4.81632 0
M  V30 15084 C 1454.88 -4.54924 -5.37795 0
M  V30 15085 H 1450.98 -0.0905961 -0.776734 0
M  V30 15086 H 1453.56 -0.820685 -1.76558 0
M  V30 15087 H 1451.73 0.61836 -3.83446 0
M  V30 15088 H 1453.46 0.455886 -4.02124 0
M  V30 15089 H 1450.22 -1.50826 -4.48941 0
M  V30 15090 H 1450.64 -3.91768 -5.52129 0
M  V30 15091 H 1455.29 -1.46609 -3.96567 0
M  V30 15092 H 1453 -5.43765 -5.97784 0
M  V30 15093 H 1456.59 -3.43757 -4.69385 0
M  V30 15094 H 1455.47 -5.39748 -5.68896 0
M  V30 15095 N 1452.97 1.53444 -0.359552 0
M  V30 15096 C 1453.91 2.21884 0.533192 0
M  V30 15097 C 1454.88 1.20858 1.08776 0
M  V30 15098 O 1456.07 1.49738 1.14502 0
M  V30 15099 C 1453.19 2.90883 1.73507 0
M  V30 15100 C 1452.24 4.05931 1.30851 0
M  V30 15101 S 1453.07 5.34574 0.314859 0
M  V30 15102 C 1454.23 6.07083 1.52321 0
M  V30 15103 H 1454.46 2.97261 -0.0480679 0
M  V30 15104 H 1452 1.5373 -0.143645 0
M  V30 15105 H 1453.95 3.31252 2.42451 0
M  V30 15106 H 1452.61 2.15241 2.28758 0
M  V30 15107 H 1451.81 4.53203 2.20507 0
M  V30 15108 H 1451.41 3.67422 0.698365 0
M  V30 15109 H 1453.7 6.31448 2.45519 0
M  V30 15110 H 1454.64 6.99629 1.09198 0
M  V30 15111 H 1455.05 5.37449 1.72652 0
M  V30 15112 N 1454.45 0.0885642 1.57351 0
M  V30 15113 C 1455.73 -0.618587 1.85561 0
M  V30 15114 C 1456.11 -1.86753 0.984206 0
M  V30 15115 O 1455.46 -2.28434 0.0548839 0
M  V30 15116 C 1455.67 -0.940222 3.36096 0
M  V30 15117 C 1457.01 -1.30649 4.04 0
M  V30 15118 O 1458.04 -1.03144 3.4094 0
M  V30 15119 O 1456.9 -1.82135 5.15256 0
M  V30 15120 H 1453.99 -0.308881 0.767152 0
M  V30 15121 H 1456.54 0.120767 1.6927 0
M  V30 15122 H 1455.31 -0.0538991 3.91263 0
M  V30 15123 H 1454.93 -1.73577 3.5771 0
M  V30 15124 N 1455.93 -1.56509 -0.185096 0
M  V30 15125 C 1457.17 -1.81474 -0.905263 0
M  V30 15126 C 1457.51 -0.664225 -1.82488 0
M  V30 15127 O 1456.78 0.33466 -1.91599 0
M  V30 15128 C 1457.07 -3.16754 -1.71287 0
M  V30 15129 C 1456.92 -4.42312 -0.817302 0
M  V30 15130 C 1458.24 -3.48828 -2.68342 0
M  V30 15131 H 1455.36 -0.660155 -0.327664 0
M  V30 15132 H 1458 -1.89219 -0.172129 0
M  V30 15133 H 1456.15 -3.10282 -2.33789 0
M  V30 15134 H 1457.82 -4.60839 -0.206218 0
M  V30 15135 H 1456.06 -4.33621 -0.124564 0
M  V30 15136 H 1456.73 -5.33487 -1.41758 0
M  V30 15137 H 1459.21 -3.55663 -2.15969 0
M  V30 15138 H 1458.09 -4.44585 -3.21924 0
M  V30 15139 H 1458.35 -2.72829 -3.47875 0
M  V30 15140 N 1457.41 0.45317 -1.50944 0
M  V30 15141 C 1458.32 1.57435 -1.73929 0
M  V30 15142 C 1459.33 1.62467 -0.622935 0
M  V30 15143 O 1460.51 1.80004 -0.903365 0
M  V30 15144 C 1457.57 2.93534 -1.84495 0
M  V30 15145 C 1456.63 2.98747 -3.083 0
M  V30 15146 C 1455.87 4.28354 -3.18352 0
M  V30 15147 O 1456.09 5.1986 -2.34738 0
M  V30 15148 O 1455.02 4.39527 -4.11217 0
M  V30 15149 H 1458.85 1.40959 -2.69006 0
M  V30 15150 H 1456.44 0.634545 -1.35255 0
M  V30 15151 H 1458.32 3.74336 -1.93522 0
M  V30 15152 H 1456.99 3.10171 -0.926044 0
M  V30 15153 H 1455.9 2.16958 -3.04762 0
M  V30 15154 H 1457.23 2.87051 -3.99828 0
M  V30 15155 N 1458.88 1.40823 0.707568 0
M  V30 15156 C 1460.13 1.39741 1.4697 0
M  V30 15157 C 1460.46 0.00231194 1.942 0
M  V30 15158 O 1459.74 -0.967798 1.68713 0
M  V30 15159 C 1460.02 2.39385 2.69011 0
M  V30 15160 C 1459.87 3.87953 2.27624 0
M  V30 15161 C 1461.19 2.3645 3.71186 0
M  V30 15162 H 1458.31 0.508904 0.533091 0
M  V30 15163 H 1460.95 1.72015 0.806888 0
M  V30 15164 H 1459.1 2.11993 3.25563 0
M  V30 15165 H 1460.78 4.26202 1.76492 0
M  V30 15166 H 1459.02 4.03399 1.59537 0
M  V30 15167 H 1459.69 4.53201 3.15139 0
M  V30 15168 H 1462.17 2.60731 3.24282 0
M  V30 15169 H 1461.04 3.08204 4.54204 0
M  V30 15170 H 1461.3 1.3789 4.20046 0
M  V30 15171 N 1460.36 -0.94061 1.26453 0
M  V30 15172 C 1461.59 -1.72654 1.14914 0
M  V30 15173 C 1462.01 -1.85823 -0.291789 0
M  V30 15174 O 1461.37 -1.34888 -1.2114 0
M  V30 15175 C 1461.42 -3.11083 1.82372 0
M  V30 15176 O 1460.52 -3.971 1.1129 0
M  V30 15177 H 1459.86 -0.529704 0.400387 0
M  V30 15178 H 1462.39 -1.17803 1.67283 0
M  V30 15179 H 1462.4 -3.6147 1.89219 0
M  V30 15180 H 1461.08 -3.00815 2.87199 0
M  V30 15181 H 1459.66 -3.5555 1.12423 0
M  V30 15182 N 1461.84 -1.08266 -1.14527 0
M  V30 15183 C 1462.79 -0.680977 -2.17593 0
M  V30 15184 C 1463.77 0.298653 -1.58104 0
M  V30 15185 O 1464.97 0.110901 -1.76652 0
M  V30 15186 C 1462.1 -0.0902883 -3.43181 0
M  V30 15187 C 1461.18 -1.09562 -4.09704 0
M  V30 15188 N 1461.57 -2.27853 -4.51571 0
M  V30 15189 C 1459.87 -0.931053 -4.36174 0
M  V30 15190 C 1460.57 -2.91708 -5.03271 0
M  V30 15191 N 1459.55 -2.19325 -4.97391 0
M  V30 15192 H 1463.35 -1.58178 -2.47703 0
M  V30 15193 H 1460.86 -0.957169 -1.31195 0
M  V30 15194 H 1462.86 0.215428 -4.16343 0
M  V30 15195 H 1461.52 0.805513 -3.1455 0
M  V30 15196 H 1462.53 -2.65517 -4.44659 0
M  V30 15197 H 1459.21 -0.0889339 -4.17405 0
M  V30 15198 H 1460.6 -3.92202 -5.45552 0
M  V30 15199 N 1463.32 1.31536 -0.86811 0
M  V30 15200 C 1464.73 1.78991 -0.530937 0
M  V30 15201 C 1465.08 1.71553 0.952046 0
M  V30 15202 O 1464.21 1.28216 1.74326 0
M  V30 15203 C 1464.8 3.25004 -0.956981 0
M  V30 15204 C 1463.36 3.70362 -0.671495 0
M  V30 15205 C 1462.51 2.52361 -1.14932 0
M  V30 15206 H 1465.46 1.18644 -1.05401 0
M  V30 15207 H 1465.48 3.79477 -0.278883 0
M  V30 15208 H 1464.99 3.30385 -2.03635 0
M  V30 15209 H 1463.09 3.70483 0.39659 0
M  V30 15210 H 1463.21 4.62581 -1.24722 0
M  V30 15211 H 1461.57 2.4826 -0.569144 0
M  V30 15212 H 1462.35 2.60489 -2.23608 0
M  V30 15213 N 1464.8 0.627364 1.44575 0
M  V30 15214 C 1465.73 -0.118179 2.28895 0
M  V30 15215 C 1466.74 -0.812569 1.41071 0
M  V30 15216 O 1467.93 -0.674646 1.6526 0
M  V30 15217 C 1465.03 -1.18937 3.17344 0
M  V30 15218 C 1464.2 -0.578226 4.33561 0
M  V30 15219 C 1463.26 -1.54288 5.03072 0
M  V30 15220 O 1462.29 -1.06148 5.59215 0
M  V30 15221 N 1463.49 -2.87725 5.04177 0
M  V30 15222 H 1466.26 0.605442 2.93521 0
M  V30 15223 H 1463.82 0.468253 1.54981 0
M  V30 15224 H 1465.81 -1.83494 3.60711 0
M  V30 15225 H 1464.38 -1.81526 2.54494 0
M  V30 15226 H 1463.6 0.245883 3.93432 0
M  V30 15227 H 1464.89 -0.150502 5.08577 0
M  V30 15228 H 1464.29 -3.29421 4.5989 0
M  V30 15229 H 1462.84 -3.47653 5.51344 0
M  V30 15230 N 1466.28 -1.53251 0.367684 0
M  V30 15231 C 1467.22 -2.27318 -0.4929 0
M  V30 15232 C 1468.22 -1.30376 -1.08159 0
M  V30 15233 O 1469.42 -1.47996 -1.02455 0
M  V30 15234 H 1465.8 -0.730709 -0.177677 0
M  V30 15235 H 1467.77 -2.98005 0.153525 0
M  V30 15236 C 1466.52 -3.07678 -1.61955 0
M  V30 15237 H 1465.84 -3.82117 -1.17587 0
M  V30 15238 H 1467.28 -3.62678 -2.19638 0
M  V30 15239 C 1465.74 -2.18648 -2.5631 0
M  V30 15240 O 1466.27 -1.79869 -3.5918 0
M  V30 15241 N 1464.48 -1.83239 -2.25548 0
M  V30 15242 H 1464.02 -2.14973 -1.4193 0
M  V30 15243 H 1463.98 -1.23957 -2.88933 0
M  V30 15244 N 1467.75 -0.0969077 -1.57302 0
M  V30 15245 C 1469.16 0.431942 -1.81635 0
M  V30 15246 C 1469.52 1.68047 -1.01264 0
M  V30 15247 O 1468.64 2.15036 -0.24256 0
M  V30 15248 C 1469.24 0.790426 -3.29451 0
M  V30 15249 C 1467.79 1.26401 -3.54542 0
M  V30 15250 C 1466.94 0.26158 -2.76063 0
M  V30 15251 H 1469.89 -0.322328 -1.55392 0
M  V30 15252 H 1469.91 1.64981 -3.42873 0
M  V30 15253 H 1469.43 -0.118463 -3.87919 0
M  V30 15254 H 1467.53 2.19055 -3.01406 0
M  V30 15255 H 1467.64 1.22459 -4.63185 0
M  V30 15256 H 1466 0.7441 -2.43588 0
M  V30 15257 H 1466.79 -0.640018 -3.37281 0
M  V30 15258 N 1469.23 1.56605 0.176793 0
M  V30 15259 C 1470.46 1.8617 0.91408 0
M  V30 15260 C 1470.88 0.68262 1.75277 0
M  V30 15261 O 1470.24 -0.368391 1.77518 0
M  V30 15262 C 1470.29 3.14109 1.7711 0
M  V30 15263 O 1469.39 2.95947 2.87209 0
M  V30 15264 H 1468.73 0.612507 0.25638 0
M  V30 15265 H 1471.26 2.03837 0.176586 0
M  V30 15266 H 1471.27 3.45373 2.17213 0
M  V30 15267 H 1469.95 3.9954 1.15502 0
M  V30 15268 H 1468.52 2.76024 2.50729 0
M  V30 15269 N 1470.71 -0.445159 1.51182 0
M  V30 15270 C 1471.64 -1.5473 1.74874 0
M  V30 15271 C 1472.62 -1.5923 0.598323 0
M  V30 15272 O 1473.81 -1.75083 0.840219 0
M  V30 15273 C 1470.94 -2.92872 1.86664 0
M  V30 15274 C 1469.89 -3.03235 3.02048 0
M  V30 15275 C 1469.22 -4.43279 2.99012 0
M  V30 15276 C 1470.52 -2.7804 4.42144 0
M  V30 15277 H 1472.21 -1.35156 2.67158 0
M  V30 15278 H 1469.76 -0.648763 1.28558 0
M  V30 15279 H 1471.71 -3.69927 2.01822 0
M  V30 15280 H 1470.43 -3.1366 0.910225 0
M  V30 15281 H 1469.09 -2.28617 2.86583 0
M  V30 15282 H 1468.74 -4.61023 2.01163 0
M  V30 15283 H 1468.44 -4.51144 3.76488 0
M  V30 15284 H 1469.96 -5.22319 3.16252 0
M  V30 15285 H 1471.38 -3.44831 4.58 0
M  V30 15286 H 1469.77 -2.97323 5.21267 0
M  V30 15287 H 1470.84 -1.737 4.52721 0
M  V30 15288 N 1472.19 -1.41197 -0.700089 0
M  V30 15289 C 1473.6 -1.23567 -1.01012 0
M  V30 15290 C 1473.8 -0.121821 -2.01131 0
M  V30 15291 O 1472.86 0.515258 -2.47187 0
M  V30 15292 C 1474.17 -2.58329 -1.53904 0
M  V30 15293 C 1475.72 -2.65473 -1.65811 0
M  V30 15294 C 1476.2 -4.00541 -2.22106 0
M  V30 15295 N 1477.69 -4.02364 -2.29472 0
M  V30 15296 C 1478.42 -5.03672 -2.74048 0
M  V30 15297 N 1477.92 -6.15371 -3.18262 0
M  V30 15298 N 1479.71 -4.91035 -2.73571 0
M  V30 15299 H 1471.86 -2.12368 -0.0367488 0
M  V30 15300 H 1474.12 -0.944713 -0.0788795 0
M  V30 15301 H 1473.83 -3.40565 -0.877964 0
M  V30 15302 H 1473.7 -2.805 -2.5219 0
M  V30 15303 H 1476.09 -1.83598 -2.31032 0
M  V30 15304 H 1476.17 -2.47117 -0.660831 0
M  V30 15305 H 1475.82 -4.82862 -1.57502 0
M  V30 15306 H 1475.75 -4.16235 -3.22577 0
M  V30 15307 H 1478.24 -3.21713 -1.98265 0
M  V30 15308 H 1478.55 -6.88548 -3.50888 0
M  V30 15309 H 1476.9 -6.18914 -3.16182 0
M  V30 15310 H 1480.09 -4.02858 -2.38376 0
M  V30 15311 H 1480.26 -5.70127 -3.07993 0
M  V30 15312 N 1473.67 0.933891 -1.2695 0
M  V30 15313 C 1474.91 1.69554 -1.14153 0
M  V30 15314 C 1475.27 1.89503 0.308639 0
M  V30 15315 O 1476.47 2.62925 0.558894 0
M  V30 15316 C 1474.74 3.02894 -1.8971 0
M  V30 15317 S 1476.3 3.94051 -1.93053 0
M  V30 15318 H 1473.12 0.582546 -0.407629 0
M  V30 15319 H 1475.72 1.11233 -1.60772 0
M  V30 15320 H 1474.42 2.86061 -2.94274 0
M  V30 15321 H 1473.96 3.6627 -1.43561 0
M  V30 15322 H 1475.97 4.85551 -1.02249 0
M  V30 15323 N 1475.14 1.08871 1.13951 0
M  V30 15324 C 1476.37 0.843055 1.89492 0
M  V30 15325 C 1476.79 -0.599539 1.78289 0
M  V30 15326 O 1476.15 -1.42062 1.12642 0
M  V30 15327 C 1476.2 1.27572 3.3728 0
M  V30 15328 O 1475.3 0.430611 4.10146 0
M  V30 15329 H 1474.64 0.3058 0.589391 0
M  V30 15330 H 1477.17 1.45137 1.44209 0
M  V30 15331 H 1477.18 1.25864 3.88101 0
M  V30 15332 H 1475.86 2.32635 3.44751 0
M  V30 15333 H 1474.44 0.511516 3.69375 0
M  V30 15334 N 1476.62 -1.31073 0.875073 0
M  V30 15335 C 1477.85 -2.01223 0.502383 0
M  V30 15336 C 1478.27 -1.65223 -0.899053 0
M  V30 15337 O 1477.63 -0.863559 -1.59412 0
M  V30 15338 C 1477.68 -3.54269 0.672747 0
M  V30 15339 O 1476.78 -4.11409 -0.285718 0
M  V30 15340 H 1476.12 -0.633422 0.199181 0
M  V30 15341 H 1478.65 -1.67152 1.17989 0
M  V30 15342 H 1478.66 -4.04027 0.567973 0
M  V30 15343 H 1477.34 -3.79811 1.69459 0
M  V30 15344 H 1475.91 -3.72654 -0.135472 0
M  V30 15345 N 1478.1 -0.635022 -1.4424 0
M  V30 15346 C 1479.01 0.0686832 -2.34499 0
M  V30 15347 C 1480.03 0.831574 -1.52843 0
M  V30 15348 O 1481.2 0.782954 -1.85558 0
M  V30 15349 C 1478.27 1.03543 -3.30877 0
M  V30 15350 C 1477.33 0.271484 -4.28441 0
M  V30 15351 C 1476.56 1.19218 -5.20214 0
M  V30 15352 O 1476.78 2.43101 -5.16002 0
M  V30 15353 O 1475.72 0.6744 -5.9811 0
M  V30 15354 H 1479.54 -0.673781 -2.96132 0
M  V30 15355 H 1477.13 -0.395211 -1.44078 0
M  V30 15356 H 1479.01 1.59151 -3.90191 0
M  V30 15357 H 1477.69 1.75844 -2.71773 0
M  V30 15358 H 1476.59 -0.327736 -3.72662 0
M  V30 15359 H 1477.93 -0.411584 -4.90476 0
M  V30 15360 N 1479.58 1.53054 -0.375806 0
M  V30 15361 C 1480.53 2.2605 0.46582 0
M  V30 15362 C 1481.5 1.27123 1.06906 0
M  V30 15363 O 1482.68 1.55926 1.09963 0
M  V30 15364 C 1479.82 3.06066 1.59429 0
M  V30 15365 C 1478.93 4.19901 1.01523 0
M  V30 15366 C 1478.07 4.87339 2.11363 0
M  V30 15367 C 1477.11 5.93189 1.50976 0
M  V30 15368 N 1476.24 6.54276 2.54692 0
M  V30 15369 H 1481.08 2.97553 -0.163149 0
M  V30 15370 H 1478.62 1.4681 -0.092282 0
M  V30 15371 H 1480.58 3.50739 2.25915 0
M  V30 15372 H 1479.21 2.36799 2.19377 0
M  V30 15373 H 1478.26 3.7964 0.240346 0
M  V30 15374 H 1479.57 4.95935 0.533812 0
M  V30 15375 H 1478.73 5.35247 2.85649 0
M  V30 15376 H 1477.47 4.10799 2.6286 0
M  V30 15377 H 1476.47 5.44632 0.752095 0
M  V30 15378 H 1477.7 6.71654 1.00291 0
M  V30 15379 H 1475.64 5.80584 3.05383 0
M  V30 15380 H 1475.56 7.2588 2.11267 0
M  V30 15381 H 1476.83 7.06831 3.28648 0
M  V30 15382 N 1481.06 0.105248 1.57248 0
M  V30 15383 C 1482.31 -0.555797 1.93891 0
M  V30 15384 C 1482.62 -1.68703 0.989883 0
M  V30 15385 O 1483.82 -2.40991 1.25043 0
M  V30 15386 C 1482.28 -1.04006 3.44544 0
M  V30 15387 C 1481.89 0.0619641 4.47957 0
M  V30 15388 C 1483.63 -1.67327 3.90131 0
M  V30 15389 C 1481.54 -0.438229 5.89774 0
M  V30 15390 H 1480.47 -0.211391 0.723761 0
M  V30 15391 H 1483.12 0.182887 1.82586 0
M  V30 15392 H 1481.5 -1.83275 3.51036 0
M  V30 15393 H 1482.68 0.837803 4.5312 0
M  V30 15394 H 1480.99 0.600973 4.1204 0
M  V30 15395 H 1483.59 -2.0584 4.93492 0
M  V30 15396 H 1483.93 -2.54638 3.29341 0
M  V30 15397 H 1484.46 -0.946231 3.86382 0
M  V30 15398 H 1481.2 0.398506 6.54288 0
M  V30 15399 H 1480.72 -1.18085 5.88061 0
M  V30 15400 H 1482.4 -0.903922 6.40655 0
M  V30 15401 N 1482.53 -1.56697 -0.168486 0
M  V30 15402 C 1483.5 -1.95744 -1.19235 0
M  V30 15403 C 1484.5 -0.841419 -1.37028 0
M  V30 15404 O 1485.69 -1.10842 -1.34386 0
M  V30 15405 C 1482.82 -2.25471 -2.55686 0
M  V30 15406 H 1484.01 -2.87368 -0.857892 0
M  V30 15407 H 1481.57 -1.50798 -0.411041 0
M  V30 15408 H 1482.3 -1.36571 -2.94141 0
M  V30 15409 H 1482.09 -3.06822 -2.44137 0
M  V30 15410 H 1483.58 -2.56593 -3.29469 0
M  V30 15411 N 1484.01 0.437135 -1.51416 0
M  V30 15412 C 1485.42 1.01699 -1.5657 0
M  V30 15413 C 1485.77 1.92299 -0.389291 0
M  V30 15414 O 1484.9 2.10689 0.49389 0
M  V30 15415 C 1485.49 1.85119 -2.83754 0
M  V30 15416 C 1484.05 2.38154 -2.91478 0
M  V30 15417 C 1483.2 1.17374 -2.51234 0
M  V30 15418 H 1486.15 0.218399 -1.5719 0
M  V30 15419 H 1486.17 2.70572 -2.67528 0
M  V30 15420 H 1485.68 1.19153 -3.69357 0
M  V30 15421 H 1483.79 3.07575 -2.10306 0
M  V30 15422 H 1483.9 2.70937 -3.95133 0
M  V30 15423 H 1482.26 1.51913 -2.04437 0
M  V30 15424 H 1483.05 0.530176 -3.39181 0
M  V30 15425 N 1485.49 1.41566 0.692592 0
M  V30 15426 C 1486.9 1.36606 1.27262 0
M  V30 15427 C 1487.25 0.0506082 1.96135 0
M  V30 15428 O 1486.38 -0.851071 1.98962 0
M  V30 15429 C 1486.97 2.47434 2.31434 0
M  V30 15430 C 1485.53 2.45863 2.85006 0
M  V30 15431 C 1484.68 2.2713 1.59083 0
M  V30 15432 H 1487.63 1.51038 0.487149 0
M  V30 15433 H 1487.65 2.16663 3.12789 0
M  V30 15434 H 1487.16 3.43161 1.81278 0
M  V30 15435 H 1485.26 1.53901 3.3933 0
M  V30 15436 H 1485.38 3.42279 3.35234 0
M  V30 15437 H 1483.74 1.75061 1.85002 0
M  V30 15438 H 1484.52 3.24887 1.10919 0
M  V30 15439 N 1486.97 -0.927146 1.27443 0
M  V30 15440 C 1487.93 -2.00938 1.10257 0
M  V30 15441 C 1488.93 -1.60733 0.0463898 0
M  V30 15442 O 1490.12 -1.71752 0.291029 0
M  V30 15443 C 1487.25 -3.34047 0.680115 0
M  V30 15444 H 1488.45 -2.17615 2.06358 0
M  V30 15445 H 1486 -1.10802 1.10239 0
M  V30 15446 H 1486.73 -3.23069 -0.282259 0
M  V30 15447 H 1486.52 -3.64585 1.44291 0
M  V30 15448 H 1488.01 -4.13523 0.582126 0
M  V30 15449 N 1488.45 -1.09474 -1.13372 0
M  V30 15450 C 1489.67 -0.853093 -1.89043 0
M  V30 15451 C 1490.1 0.590075 -1.78605 0
M  V30 15452 O 1489.45 1.41462 -1.13394 0
M  V30 15453 C 1489.5 -1.29359 -3.36599 0
M  V30 15454 O 1488.61 -0.452355 -4.09912 0
M  V30 15455 H 1487.95 -0.308922 -0.587761 0
M  V30 15456 H 1490.48 -1.459 -1.43437 0
M  V30 15457 H 1490.49 -1.27921 -3.87428 0
M  V30 15458 H 1489.16 -2.3446 -3.43513 0
M  V30 15459 H 1487.74 -0.531098 -3.69099 0
M  V30 15460 N 1489.92 1.30607 -0.882012 0
M  V30 15461 C 1491.2 1.91056 -0.419153 0
M  V30 15462 C 1491.58 1.80185 1.09985 0
M  V30 15463 O 1490.93 1.21717 1.93384 0
M  V30 15464 C 1491.14 3.3682 -0.913949 0
M  V30 15465 C 1492.49 4.13901 -0.947169 0
M  V30 15466 O 1493.51 3.45652 -0.860412 0
M  V30 15467 O 1492.37 5.35826 -1.07483 0
M  V30 15468 H 1489.46 0.81709 -0.127645 0
M  V30 15469 H 1492.01 1.39195 -0.970717 0
M  V30 15470 H 1490.78 3.38804 -1.95774 0
M  V30 15471 H 1490.41 3.96132 -0.34138 0
M  V30 15472 N 1491.4 0.642663 1.43901 0
M  V30 15473 C 1492.65 0.151778 2.0193 0
M  V30 15474 C 1492.98 -1.23052 1.50627 0
M  V30 15475 O 1492.23 -1.83305 0.685404 0
M  V30 15476 C 1492.53 0.100139 3.5726 0
M  V30 15477 C 1492.2 1.42276 4.27865 0
M  V30 15478 C 1490.86 1.78497 4.46869 0
M  V30 15479 C 1493.21 2.29526 4.67939 0
M  V30 15480 C 1490.54 3.01655 5.03211 0
M  V30 15481 C 1492.89 3.51966 5.25645 0
M  V30 15482 C 1491.56 3.88396 5.42867 0
M  V30 15483 H 1490.83 0.0555394 0.738916 0
M  V30 15484 H 1493.47 0.831273 1.72517 0
M  V30 15485 H 1491.78 -0.66277 3.86154 0
M  V30 15486 H 1493.47 -0.29638 3.99903 0
M  V30 15487 H 1490.06 1.13091 4.13411 0
M  V30 15488 H 1494.25 2.02835 4.52959 0
M  V30 15489 H 1489.5 3.29943 5.14731 0
M  V30 15490 H 1493.68 4.19799 5.55645 0
M  V30 15491 H 1491.31 4.83909 5.8629 0
M  V30 15492 N 1492.88 -1.52852 0.383918 0
M  V30 15493 C 1493.81 -2.29213 -0.44539 0
M  V30 15494 C 1494.79 -1.3238 -1.06815 0
M  V30 15495 O 1495.98 -1.61269 -1.08194 0
M  V30 15496 C 1493.11 -3.09497 -1.57573 0
M  V30 15497 C 1492.06 -4.14168 -1.07928 0
M  V30 15498 C 1491.39 -4.82644 -2.30128 0
M  V30 15499 C 1492.69 -5.22082 -0.151035 0
M  V30 15500 H 1494.38 -2.98786 0.19172 0
M  V30 15501 H 1491.93 -1.43695 0.0936471 0
M  V30 15502 H 1493.88 -3.61672 -2.16267 0
M  V30 15503 H 1492.6 -2.37647 -2.24034 0
M  V30 15504 H 1491.26 -3.62966 -0.514909 0
M  V30 15505 H 1490.91 -4.07348 -2.95087 0
M  V30 15506 H 1490.61 -5.53388 -1.97574 0
M  V30 15507 H 1492.14 -5.37621 -2.89475 0
M  V30 15508 H 1493.55 -5.69649 -0.646003 0
M  V30 15509 H 1491.95 -6.00041 0.0844833 0
M  V30 15510 H 1493.02 -4.78228 0.801618 0
M  V30 15511 N 1494.36 -0.113586 -1.5719 0
M  V30 15512 C 1495.32 0.824258 -2.13866 0
M  V30 15513 C 1496.32 1.19831 -1.07224 0
M  V30 15514 O 1497.51 1.12471 -1.33026 0
M  V30 15515 C 1494.64 2.11391 -2.67445 0
M  V30 15516 H 1495.84 0.331803 -2.98059 0
M  V30 15517 H 1493.39 0.135599 -1.55711 0
M  V30 15518 H 1494.13 2.65079 -1.86824 0
M  V30 15519 H 1493.91 1.85523 -3.45433 0
M  V30 15520 H 1495.4 2.78443 -3.11222 0
M  V30 15521 N 1495.84 1.56784 0.160173 0
M  V30 15522 C 1496.79 1.9368 1.203 0
M  V30 15523 C 1497.77 0.806435 1.39232 0
M  V30 15524 O 1498.96 1.06975 1.41015 0
M  V30 15525 C 1496.09 2.30972 2.53982 0
M  V30 15526 C 1495.18 3.50549 2.38697 0
M  V30 15527 N 1495.57 4.6747 1.93145 0
M  V30 15528 C 1493.87 3.55375 2.6949 0
M  V30 15529 C 1494.57 5.49591 1.9059 0
M  V30 15530 N 1493.54 4.90938 2.33412 0
M  V30 15531 H 1497.35 2.8156 0.842691 0
M  V30 15532 H 1494.86 1.58167 0.368351 0
M  V30 15533 H 1496.86 2.55604 3.29351 0
M  V30 15534 H 1495.52 1.44437 2.90806 0
M  V30 15535 H 1496.53 4.91477 1.63312 0
M  V30 15536 H 1493.21 2.79346 3.10277 0
M  V30 15537 H 1494.6 6.53306 1.56976 0
M  V30 15538 N 1497.32 -0.429099 1.51646 0
M  V30 15539 C 1498.56 -1.17482 1.63954 0
M  V30 15540 C 1498.88 -1.92152 0.36565 0
M  V30 15541 O 1500.08 -2.68991 0.368221 0
M  V30 15542 C 1498.54 -2.13703 2.89585 0
M  V30 15543 C 1498.15 -1.44642 4.24008 0
M  V30 15544 C 1499.89 -2.88657 3.11252 0
M  V30 15545 C 1497.8 -2.39395 5.40781 0
M  V30 15546 H 1496.73 -0.442234 0.610692 0
M  V30 15547 H 1499.38 -0.441088 1.7812 0
M  V30 15548 H 1497.76 -2.90545 2.69071 0
M  V30 15549 H 1498.94 -0.733012 4.54932 0
M  V30 15550 H 1497.25 -0.818084 4.08285 0
M  V30 15551 H 1499.85 -3.59653 3.95669 0
M  V30 15552 H 1500.19 -3.50473 2.24664 0
M  V30 15553 H 1500.72 -2.18919 3.32144 0
M  V30 15554 H 1497.46 -1.82255 6.29653 0
M  V30 15555 H 1496.98 -3.08766 5.14222 0
M  V30 15556 H 1498.66 -3.0035 5.73061 0
M  V30 15557 N 1498.79 -1.41931 -0.685074 0
M  V30 15558 C 1499.73 -1.40545 -1.81052 0
M  V30 15559 C 1500.74 -0.306024 -1.59898 0
M  V30 15560 O 1501.93 -0.568444 -1.69207 0
M  V30 15561 C 1499.03 -1.17194 -3.17992 0
M  V30 15562 C 1498.2 -2.39376 -3.66084 0
M  V30 15563 C 1497.26 -2.11725 -4.81725 0
M  V30 15564 O 1496.29 -2.84847 -4.92799 0
M  V30 15565 N 1497.49 -1.11399 -5.69711 0
M  V30 15566 H 1500.25 -2.37549 -1.8273 0
M  V30 15567 H 1497.81 -1.36679 -0.86779 0
M  V30 15568 H 1499.81 -0.966307 -3.92994 0
M  V30 15569 H 1498.38 -0.287499 -3.11275 0
M  V30 15570 H 1497.6 -2.75575 -2.81873 0
M  V30 15571 H 1498.88 -3.2076 -3.94956 0
M  V30 15572 H 1498.28 -0.509008 -5.63405 0
M  V30 15573 H 1496.84 -0.968239 -6.44568 0
M  V30 15574 N 1500.27 0.920374 -1.27933 0
M  V30 15575 C 1501.22 2.02196 -1.1129 0
M  V30 15576 C 1502.19 1.66096 -0.0118871 0
M  V30 15577 O 1503.37 1.8999 -0.175586 0
M  V30 15578 C 1500.51 3.36312 -0.77383 0
M  V30 15579 C 1499.63 3.85322 -1.95322 0
M  V30 15580 C 1498.76 5.07919 -1.55537 0
M  V30 15581 C 1497.8 5.49244 -2.7018 0
M  V30 15582 N 1496.94 6.63034 -2.30933 0
M  V30 15583 H 1501.78 2.15764 -2.05548 0
M  V30 15584 H 1499.31 1.05691 -1.02312 0
M  V30 15585 H 1501.27 4.13451 -0.558024 0
M  V30 15586 H 1499.9 3.22531 0.131806 0
M  V30 15587 H 1498.95 3.04399 -2.28135 0
M  V30 15588 H 1500.27 4.11915 -2.81296 0
M  V30 15589 H 1499.42 5.92581 -1.30123 0
M  V30 15590 H 1498.16 4.8312 -0.666818 0
M  V30 15591 H 1497.16 4.63127 -2.96299 0
M  V30 15592 H 1498.39 5.76035 -3.59667 0
M  V30 15593 H 1496.34 6.39878 -1.44539 0
M  V30 15594 H 1496.25 6.89319 -3.10444 0
M  V30 15595 H 1497.52 7.51018 -2.08786 0
M  V30 15596 N 1501.75 1.10074 1.1279 0
M  V30 15597 C 1502.7 0.740977 2.20482 0
M  V30 15598 C 1503.69 -0.261163 1.67375 0
M  V30 15599 O 1504.9 -0.121923 1.79587 0
M  V30 15600 H 1501.27 0.221666 0.718588 0
M  V30 15601 H 1503.24 1.65823 2.48083 0
M  V30 15602 C 1501.99 0.184934 3.47208 0
M  V30 15603 H 1501.32 0.947278 3.88416 0
M  V30 15604 H 1502.76 -0.0287769 4.2399 0
M  V30 15605 C 1501.21 -1.08145 3.19071 0
M  V30 15606 O 1501.74 -2.1636 3.38454 0
M  V30 15607 N 1499.95 -0.998609 2.72903 0
M  V30 15608 H 1499.5 -0.117906 2.5733 0
M  V30 15609 H 1499.46 -1.84664 2.54453 0
M  V30 15610 N 1503.23 -1.30138 0.888926 0
M  V30 15611 C 1504.64 -1.78124 0.559346 0
M  V30 15612 C 1504.99 -1.73046 -0.924633 0
M  V30 15613 O 1504.11 -1.30974 -1.72264 0
M  V30 15614 C 1504.71 -3.2344 1.00856 0
M  V30 15615 C 1503.27 -3.69247 0.730332 0
M  V30 15616 C 1502.42 -2.505 1.18933 0
M  V30 15617 H 1505.37 -1.16952 1.07275 0
M  V30 15618 H 1505.39 -3.78985 0.339219 0
M  V30 15619 H 1504.9 -3.27104 2.08865 0
M  V30 15620 H 1503 -3.71067 -0.337599 0
M  V30 15621 H 1503.11 -4.60538 1.32066 0
M  V30 15622 H 1501.48 -2.47323 0.608568 0
M  V30 15623 H 1502.26 -2.56899 2.27724 0
M  V30 15624 N 1504.71 -0.650285 -1.43559 0
M  V30 15625 C 1505.95 -0.162725 -2.02146 0
M  V30 15626 C 1506.28 1.21911 -1.51166 0
M  V30 15627 O 1505.56 1.81329 -0.703563 0
M  V30 15628 C 1505.84 -0.170356 -3.59697 0
M  V30 15629 C 1505.7 -1.5859 -4.20915 0
M  V30 15630 C 1507.01 0.494831 -4.37309 0
M  V30 15631 H 1504.13 -0.0606055 -0.734504 0
M  V30 15632 H 1506.78 -0.830411 -1.70892 0
M  V30 15633 H 1504.93 0.39819 -3.86454 0
M  V30 15634 H 1506.6 -2.20481 -4.05199 0
M  V30 15635 H 1504.84 -2.13407 -3.77677 0
M  V30 15636 H 1505.51 -1.54312 -5.29992 0
M  V30 15637 H 1507.99 0.0111281 -4.16099 0
M  V30 15638 H 1506.86 0.458753 -5.4698 0
M  V30 15639 H 1507.12 1.56846 -4.13342 0
M  V30 15640 N 1506.18 1.52647 -0.392018 0
M  V30 15641 C 1507.11 2.29446 0.433228 0
M  V30 15642 C 1508.09 1.32945 1.06111 0
M  V30 15643 O 1509.28 1.61841 1.07337 0
M  V30 15644 C 1506.41 3.10328 1.55929 0
M  V30 15645 C 1505.36 4.14735 1.05731 0
M  V30 15646 C 1504.69 4.83858 2.27565 0
M  V30 15647 C 1505.99 5.22154 0.123346 0
M  V30 15648 H 1507.68 2.9868 -0.207563 0
M  V30 15649 H 1505.23 1.43643 -0.101266 0
M  V30 15650 H 1507.18 3.62814 2.14346 0
M  V30 15651 H 1505.91 2.38832 2.22771 0
M  V30 15652 H 1504.57 3.63234 0.495653 0
M  V30 15653 H 1504.21 4.08907 2.92923 0
M  V30 15654 H 1503.91 5.54428 1.94637 0
M  V30 15655 H 1505.44 5.39149 2.86619 0
M  V30 15656 H 1506.85 5.69983 0.615784 0
M  V30 15657 H 1505.25 5.99987 -0.116304 0
M  V30 15658 H 1506.32 4.77796 -0.826969 0
M  V30 15659 N 1507.66 0.121921 1.57128 0
M  V30 15660 C 1508.94 -0.579087 1.86831 0
M  V30 15661 C 1509.32 -1.84623 1.0236 0
M  V30 15662 O 1508.67 -2.28266 0.103326 0
M  V30 15663 C 1508.88 -0.86872 3.38015 0
M  V30 15664 C 1510.23 -1.22051 4.0668 0
M  V30 15665 O 1511.25 -0.958889 3.43051 0
M  V30 15666 O 1510.11 -1.71164 5.19004 0
M  V30 15667 H 1507.2 -0.292539 0.773531 0
M  V30 15668 H 1509.75 0.156644 1.68975 0
M  V30 15669 H 1508.52 0.0291056 3.91289 0
M  V30 15670 H 1508.14 -1.65951 3.61312 0
M  V30 15671 N 1509.14 -1.56867 -0.151857 0
M  V30 15672 C 1510.38 -1.84887 -0.871555 0
M  V30 15673 C 1510.74 -0.705549 -1.78567 0
M  V30 15674 O 1511.95 -0.86668 -2.54445 0
M  V30 15675 C 1510.22 -3.18077 -1.62978 0
M  V30 15676 S 1511.78 -3.67639 -2.39557 0
M  V30 15677 H 1508.59 -0.648478 -0.291543 0
M  V30 15678 H 1511.2 -1.95055 -0.131873 0
M  V30 15679 H 1509.9 -3.99262 -0.949621 0
M  V30 15680 H 1509.43 -3.10902 -2.41046 0
M  V30 15681 H 1511.45 -3.36516 -3.64653 0
M  V30 15682 N 1510.62 0.421051 -1.51871 0
M  V30 15683 C 1511.84 1.19568 -1.69465 0
M  V30 15684 C 1512.27 1.83835 -0.398269 0
M  V30 15685 O 1511.63 1.69508 0.643172 0
M  V30 15686 C 1511.67 2.24337 -2.82321 0
M  V30 15687 O 1510.78 3.30205 -2.47059 0
M  V30 15688 H 1510.12 0.349579 -0.564527 0
M  V30 15689 H 1512.65 0.495177 -1.98517 0
M  V30 15690 H 1512.66 2.6886 -3.06885 0
M  V30 15691 H 1511.33 1.76941 -3.76384 0
M  V30 15692 H 1509.91 2.91045 -2.33125 0
M  V30 15693 N 1512.1 1.42293 0.677538 0
M  V30 15694 C 1513.35 1.41909 1.43334 0
M  V30 15695 C 1513.66 0.037951 1.95563 0
M  V30 15696 O 1514.86 -0.0884836 2.71356 0
M  V30 15697 C 1513.32 2.49608 2.59275 0
M  V30 15698 C 1512.93 3.93716 2.13757 0
M  V30 15699 C 1514.67 2.58387 3.36803 0
M  V30 15700 C 1512.58 4.92929 3.26764 0
M  V30 15701 H 1511.51 0.527803 0.538461 0
M  V30 15702 H 1514.16 1.6819 0.733791 0
M  V30 15703 H 1512.54 2.16488 3.31585 0
M  V30 15704 H 1513.72 4.36176 1.48618 0
M  V30 15705 H 1512.03 3.88762 1.49175 0
M  V30 15706 H 1514.63 3.29691 4.20961 0
M  V30 15707 H 1514.97 1.62653 3.8321 0
M  V30 15708 H 1515.5 2.90688 2.71561 0
M  V30 15709 H 1512.24 5.90131 2.85352 0
M  V30 15710 H 1511.76 4.55103 3.90694 0
M  V30 15711 H 1513.44 5.1452 3.92273 0
M  V30 15712 N 1513.57 -0.913576 1.28419 0
M  V30 15713 C 1514.54 -1.99757 1.12382 0
M  V30 15714 C 1515.54 -1.60675 0.063435 0
M  V30 15715 O 1516.73 -1.71433 0.30923 0
M  V30 15716 C 1513.86 -3.33307 0.715506 0
M  V30 15717 H 1515.05 -2.15414 2.08655 0
M  V30 15718 H 1512.61 -1.09626 1.11408 0
M  V30 15719 H 1513.34 -3.23351 -0.247977 0
M  V30 15720 H 1513.13 -3.63034 1.4815 0
M  V30 15721 H 1514.62 -4.12882 0.625953 0
M  V30 15722 N 1515.05 -1.1067 -1.12204 0
M  V30 15723 C 1516.3 -0.84895 -1.83405 0
M  V30 15724 C 1516.62 0.62724 -1.84637 0
M  V30 15725 O 1515.89 1.45546 -1.31123 0
M  V30 15726 H 1514.47 -0.311074 -0.679148 0
M  V30 15727 H 1517.13 -1.39747 -1.35856 0
M  V30 15728 H 1516.23 -1.21398 -2.87522 0
M  V30 15729 N 1516.53 1.29665 -0.895815 0
M  V30 15730 C 1517.77 1.975 -0.526604 0
M  V30 15731 C 1518.13 1.69097 0.909403 0
M  V30 15732 O 1519.34 2.30355 1.38529 0
M  V30 15733 C 1517.61 3.48185 -0.806342 0
M  V30 15734 S 1519.17 4.35454 -0.540857 0
M  V30 15735 H 1515.98 0.68359 -0.195513 0
M  V30 15736 H 1518.59 1.57557 -1.15741 0
M  V30 15737 H 1517.29 3.6635 -1.84976 0
M  V30 15738 H 1516.82 3.9306 -0.163499 0
M  V30 15739 H 1518.84 4.92364 0.615817 0
M  V30 15740 N 1518.01 0.657889 1.43212 0
M  V30 15741 C 1518.94 -0.0172114 2.33494 0
M  V30 15742 C 1519.92 -0.807087 1.49733 0
M  V30 15743 O 1521.1 -0.767631 1.78385 0
M  V30 15744 C 1518.23 -0.981029 3.33156 0
M  V30 15745 C 1517.19 -0.30094 4.26941 0
M  V30 15746 C 1516.51 -1.37653 5.16678 0
M  V30 15747 C 1517.81 0.809572 5.15988 0
M  V30 15748 H 1519.51 0.736749 2.90194 0
M  V30 15749 H 1517.05 0.355744 1.39537 0
M  V30 15750 H 1519.01 -1.46226 3.95216 0
M  V30 15751 H 1517.73 -1.76621 2.74723 0
M  V30 15752 H 1516.39 0.159893 3.66251 0
M  V30 15753 H 1516.04 -2.15326 4.54581 0
M  V30 15754 H 1515.74 -0.926704 5.80246 0
M  V30 15755 H 1517.26 -1.85903 5.81612 0
M  V30 15756 H 1518.68 0.410297 5.7183 0
M  V30 15757 H 1517.07 1.18415 5.88301 0
M  V30 15758 H 1518.14 1.66558 4.55397 0
M  V30 15759 N 1519.49 -1.52437 0.400108 0
M  V30 15760 C 1520.9 -1.5952 0.0505611 0
M  V30 15761 C 1521.1 -1.4135 -1.43606 0
M  V30 15762 O 1520.16 -1.23591 -2.20185 0
M  V30 15763 C 1521.47 -2.95859 0.537411 0
M  V30 15764 C 1523.02 -3.09067 0.494603 0
M  V30 15765 C 1523.49 -4.47873 0.957815 0
M  V30 15766 N 1524.99 -4.54087 0.914267 0
M  V30 15767 C 1525.72 -5.59744 1.24397 0
M  V30 15768 N 1525.22 -6.72995 1.64469 0
M  V30 15769 N 1527.01 -5.49905 1.16452 0
M  V30 15770 H 1519.16 -1.62496 1.36781 0
M  V30 15771 H 1521.42 -0.763947 0.561328 0
M  V30 15772 H 1521.13 -3.14407 1.57611 0
M  V30 15773 H 1521 -3.77156 -0.0577652 0
M  V30 15774 H 1523.39 -2.90209 -0.535035 0
M  V30 15775 H 1523.47 -2.29698 1.12572 0
M  V30 15776 H 1523.12 -4.67473 1.98574 0
M  V30 15777 H 1523.05 -5.25724 0.303602 0
M  V30 15778 H 1525.54 -3.72787 0.619536 0
M  V30 15779 H 1525.85 -7.49594 1.87961 0
M  V30 15780 H 1524.19 -6.74298 1.68364 0
M  V30 15781 H 1527.39 -4.60311 0.850401 0
M  V30 15782 H 1527.56 -6.32142 1.42478 0
M  V30 15783 N 1520.96 -0.130252 -1.57061 0
M  V30 15784 C 1522.21 0.525006 -1.95576 0
M  V30 15785 C 1522.54 1.65964 -1.0142 0
M  V30 15786 O 1521.79 1.95659 -0.0401898 0
M  V30 15787 C 1522.09 1.08776 -3.40445 0
M  V30 15788 C 1521.76 0.0733062 -4.5084 0
M  V30 15789 C 1520.42 -0.20561 -4.80761 0
M  V30 15790 C 1522.77 -0.617428 -5.1753 0
M  V30 15791 C 1520.1 -1.18135 -5.74683 0
M  V30 15792 C 1522.45 -1.58188 -6.12503 0
M  V30 15793 C 1521.12 -1.86866 -6.4081 0
M  V30 15794 H 1520.39 0.192113 -0.715663 0
M  V30 15795 H 1523.03 -0.21354 -1.90306 0
M  V30 15796 H 1521.34 1.9033 -3.42464 0
M  V30 15797 H 1523.04 1.60305 -3.67564 0
M  V30 15798 H 1519.63 0.30088 -4.27543 0
M  V30 15799 H 1523.81 -0.415124 -4.94561 0
M  V30 15800 H 1519.07 -1.41017 -5.94915 0
M  V30 15801 H 1523.24 -2.12271 -6.6326 0
M  V30 15802 H 1520.87 -2.62628 -7.13394 0
M  V30 15803 N 1522.44 1.56945 0.143535 0
M  V30 15804 C 1523.86 1.51688 0.496291 0
M  V30 15805 C 1524.06 0.839251 1.83191 0
M  V30 15806 O 1523.12 0.411235 2.49129 0
M  V30 15807 C 1524.43 2.96456 0.503402 0
M  V30 15808 C 1525.98 3.07414 0.588676 0
M  V30 15809 C 1526.45 4.53696 0.626416 0
M  V30 15810 N 1527.94 4.58054 0.688543 0
M  V30 15811 C 1528.68 5.68621 0.738786 0
M  V30 15812 N 1528.17 6.88748 0.748163 0
M  V30 15813 N 1529.97 5.56663 0.779931 0
M  V30 15814 H 1522.12 1.99392 -0.731901 0
M  V30 15815 H 1524.38 0.909546 -0.267263 0
M  V30 15816 H 1524.09 3.49304 -0.409845 0
M  V30 15817 H 1523.96 3.52593 1.34008 0
M  V30 15818 H 1526.35 2.54584 1.49234 0
M  V30 15819 H 1526.43 2.54315 -0.275213 0
M  V30 15820 H 1526.07 5.07165 -0.273108 0
M  V30 15821 H 1526 5.04581 1.50684 0
M  V30 15822 H 1528.49 3.71576 0.688455 0
M  V30 15823 H 1528.81 7.68767 0.788444 0
M  V30 15824 H 1527.15 6.91302 0.715982 0
M  V30 15825 H 1530.34 4.61727 0.769799 0
M  V30 15826 H 1530.52 6.42847 0.815621 0
M  V30 15827 N 1523.92 -0.412991 1.52093 0
M  V30 15828 C 1525.16 -1.16951 1.67636 0
M  V30 15829 C 1525.53 -1.87875 0.39583 0
M  V30 15830 O 1526.73 -2.65382 0.42732 0
M  V30 15831 C 1525 -2.14052 2.8621 0
M  V30 15832 S 1526.56 -2.97863 3.22215 0
M  V30 15833 H 1523.37 -0.396249 0.590345 0
M  V30 15834 H 1525.98 -0.457386 1.90074 0
M  V30 15835 H 1524.68 -1.60628 3.7766 0
M  V30 15836 H 1524.21 -2.89809 2.66034 0
M  V30 15837 H 1526.23 -4.15961 2.70538 0
M  V30 15838 N 1525.4 -1.4265 -0.669982 0
M  V30 15839 C 1526.68 -1.33858 -1.42623 0
M  V30 15840 C 1527.06 0.0217285 -2.11089 0
M  V30 15841 O 1526.4 1.03748 -2.03589 0
M  V30 15842 C 1526.61 -2.51015 -2.42472 0
M  V30 15843 C 1527.96 -2.93348 -3.06972 0
M  V30 15844 O 1528.99 -2.5094 -2.52799 0
M  V30 15845 O 1527.85 -3.66762 -4.05151 0
M  V30 15846 H 1524.94 -0.528141 -0.636393 0
M  V30 15847 H 1527.49 -1.54667 -0.6983 0
M  V30 15848 H 1526.26 -3.41679 -1.90713 0
M  V30 15849 H 1525.88 -2.32218 -3.2274 0
M  V30 15850 N 1526.88 0.906753 -1.28902 0
M  V30 15851 C 1528.12 1.65903 -1.16636 0
M  V30 15852 C 1528.46 1.92127 0.282981 0
M  V30 15853 O 1527.73 1.52666 1.20513 0
M  V30 15854 C 1528.01 3.01257 -1.97272 0
M  V30 15855 C 1527.87 2.82143 -3.50308 0
M  V30 15856 C 1529.19 4.01893 -1.7936 0
M  V30 15857 H 1526.31 0.602063 -0.425076 0
M  V30 15858 H 1528.95 1.05081 -1.58297 0
M  V30 15859 H 1527.1 3.53172 -1.61871 0
M  V30 15860 H 1528.77 2.37184 -3.95653 0
M  V30 15861 H 1527.01 2.17063 -3.75588 0
M  V30 15862 H 1527.68 3.78293 -4.01993 0
M  V30 15863 H 1530.16 3.59064 -2.10267 0
M  V30 15864 H 1529.04 4.9455 -2.38141 0
M  V30 15865 H 1529.3 4.35745 -0.746923 0
M  V30 15866 N 1528.36 1.11264 1.11616 0
M  V30 15867 C 1529.77 0.876713 1.64835 0
M  V30 15868 C 1530.12 -0.591384 1.87075 0
M  V30 15869 O 1529.24 -1.45304 1.60361 0
M  V30 15870 C 1529.84 1.58496 2.9944 0
M  V30 15871 C 1528.4 1.39551 3.49575 0
M  V30 15872 C 1527.54 1.62881 2.24422 0
M  V30 15873 H 1530.49 1.26915 0.952804 0
M  V30 15874 H 1530.52 1.02891 3.66325 0
M  V30 15875 H 1530.03 2.65344 2.83221 0
M  V30 15876 H 1528.13 0.349059 3.70961 0
M  V30 15877 H 1528.24 2.14334 4.28483 0
M  V30 15878 H 1526.61 1.05208 2.31955 0
M  V30 15879 H 1527.39 2.70999 2.10748 0
M  V30 15880 N 1529.83 -1.29188 0.902679 0
M  V30 15881 C 1531.06 -2.00113 0.544953 0
M  V30 15882 C 1531.48 -1.67093 -0.863805 0
M  V30 15883 O 1530.84 -0.897179 -1.57545 0
M  V30 15884 C 1530.89 -3.52762 0.747741 0
M  V30 15885 O 1529.99 -4.11923 -0.198388 0
M  V30 15886 H 1529.33 -0.629054 0.212572 0
M  V30 15887 H 1531.86 -1.64611 1.21508 0
M  V30 15888 H 1531.87 -4.02732 0.653546 0
M  V30 15889 H 1530.55 -3.76131 1.77478 0
M  V30 15890 H 1529.13 -3.72857 -0.0563959 0
M  V30 15891 N 1531.31 -0.665475 -1.42861 0
M  V30 15892 C 1532.56 -0.183884 -2.01663 0
M  V30 15893 C 1532.89 1.2064 -1.52566 0
M  V30 15894 O 1532.14 1.82191 -0.714479 0
M  V30 15895 C 1532.44 -0.156963 -3.57055 0
M  V30 15896 C 1532.11 -1.49065 -4.25547 0
M  V30 15897 C 1530.77 -1.85584 -4.43973 0
M  V30 15898 C 1533.12 -2.36942 -4.64228 0
M  V30 15899 C 1530.45 -3.09622 -4.98348 0
M  V30 15900 C 1532.8 -3.60284 -5.19979 0
M  V30 15901 C 1531.46 -3.96984 -5.36619 0
M  V30 15902 H 1530.73 -0.0672879 -0.737939 0
M  V30 15903 H 1533.38 -0.858614 -1.71173 0
M  V30 15904 H 1531.69 0.601253 -3.87159 0
M  V30 15905 H 1533.38 0.232721 -4.00324 0
M  V30 15906 H 1529.97 -1.19653 -4.11559 0
M  V30 15907 H 1534.16 -2.10015 -4.49675 0
M  V30 15908 H 1529.41 -3.3809 -5.09417 0
M  V30 15909 H 1533.59 -4.28586 -5.48896 0
M  V30 15910 H 1531.21 -4.93175 -5.78518 0
M  V30 15911 N 1532.79 1.52222 -0.408187 0
M  V30 15912 C 1534.01 2.06703 0.169901 0
M  V30 15913 C 1534.44 1.27635 1.3817 0
M  V30 15914 O 1533.8 0.306343 1.78693 0
M  V30 15915 C 1533.85 3.57121 0.499663 0
M  V30 15916 O 1532.95 3.80483 1.5908 0
M  V30 15917 H 1532.29 0.663839 0.0146145 0
M  V30 15918 H 1534.82 1.96174 -0.581113 0
M  V30 15919 H 1534.83 4.00886 0.758567 0
M  V30 15920 H 1533.51 4.14103 -0.386182 0
M  V30 15921 H 1532.08 3.48599 1.32413 0
M  V30 15922 N 1534.27 0.138579 1.5699 0
M  V30 15923 C 1535.51 -0.51539 1.96142 0
M  V30 15924 C 1535.85 -1.65067 1.02306 0
M  V30 15925 O 1535.12 -1.94395 0.0638645 0
M  V30 15926 C 1535.4 -1.02956 3.45068 0
M  V30 15927 C 1535.26 0.103646 4.49681 0
M  V30 15928 C 1536.58 -1.91411 3.96295 0
M  V30 15929 H 1533.7 -0.185873 0.713176 0
M  V30 15930 H 1536.34 0.218103 1.88744 0
M  V30 15931 H 1534.49 -1.65462 3.51503 0
M  V30 15932 H 1536.16 0.739693 4.55331 0
M  V30 15933 H 1534.4 0.764014 4.27019 0
M  V30 15934 H 1535.07 -0.297688 5.51197 0
M  V30 15935 H 1537.55 -1.38746 3.92286 0
M  V30 15936 H 1536.43 -2.24298 5.0098 0
M  V30 15937 H 1536.69 -2.84793 3.38149 0
M  V30 15938 N 1535.75 -1.57019 -0.13521 0
M  V30 15939 C 1536.68 -1.95769 -1.19193 0
M  V30 15940 C 1537.69 -0.854953 -1.38544 0
M  V30 15941 O 1538.88 -1.13332 -1.37906 0
M  V30 15942 C 1535.98 -2.22674 -2.55479 0
M  V30 15943 C 1535.15 -3.53972 -2.56949 0
M  V30 15944 C 1534.21 -3.69278 -3.7486 0
M  V30 15945 O 1533.24 -4.41555 -3.59191 0
M  V30 15946 N 1534.44 -3.06826 -4.92786 0
M  V30 15947 H 1537.2 -2.87022 -0.862451 0
M  V30 15948 H 1534.77 -1.58611 -0.324658 0
M  V30 15949 H 1536.76 -2.30144 -3.3289 0
M  V30 15950 H 1535.33 -1.37628 -2.80673 0
M  V30 15951 H 1534.55 -3.57836 -1.65368 0
M  V30 15952 H 1535.84 -4.40303 -2.54973 0
M  V30 15953 H 1535.23 -2.48043 -5.0842 0
M  V30 15954 H 1533.79 -3.19841 -5.67931 0
M  V30 15955 N 1537.22 0.404919 -1.52309 0
M  V30 15956 C 1538.13 1.51822 -1.7885 0
M  V30 15957 C 1539.15 1.60403 -0.674307 0
M  V30 15958 O 1540.33 1.77038 -0.960175 0
M  V30 15959 C 1537.39 2.87516 -1.9374 0
M  V30 15960 C 1536.45 2.88787 -3.17648 0
M  V30 15961 C 1535.69 4.18009 -3.31819 0
M  V30 15962 O 1535.91 5.12129 -2.51158 0
M  V30 15963 O 1534.84 4.26222 -4.24992 0
M  V30 15964 H 1538.67 1.32329 -2.73354 0
M  V30 15965 H 1536.25 0.591193 -1.37205 0
M  V30 15966 H 1538.14 3.6799 -2.05333 0
M  V30 15967 H 1536.81 3.07068 -1.02425 0
M  V30 15968 H 1535.72 2.07152 -3.11511 0
M  V30 15969 H 1537.05 2.74185 -4.08758 0
M  V30 15970 N 1538.7 1.43003 0.662408 0
M  V30 15971 C 1539.61 1.49876 1.80484 0
M  V30 15972 C 1540.63 0.386526 1.69653 0
M  V30 15973 O 1541.8 0.639289 1.90984 0
M  V30 15974 C 1538.87 1.41057 3.16708 0
M  V30 15975 C 1537.93 2.62875 3.39404 0
M  V30 15976 C 1537.16 2.54468 4.69129 0
M  V30 15977 O 1537.39 1.58735 5.47868 0
M  V30 15978 O 1536.32 3.44814 4.93343 0
M  V30 15979 H 1540.15 2.46327 1.77641 0
M  V30 15980 H 1537.73 1.24903 0.81973 0
M  V30 15981 H 1539.61 1.38547 3.97973 0
M  V30 15982 H 1538.29 0.477361 3.20161 0
M  V30 15983 H 1537.2 2.70958 2.57939 0
M  V30 15984 H 1538.53 3.55137 3.40791 0
M  V30 15985 N 1540.18 -0.899904 1.29381 0
M  V30 15986 C 1541.11 -2.02045 1.17047 0
M  V30 15987 C 1542.09 -1.69977 0.0647354 0
M  V30 15988 O 1543.28 -1.92659 0.244173 0
M  V30 15989 C 1540.41 -3.36839 0.845991 0
M  V30 15990 C 1539.36 -3.83117 1.90802 0
M  V30 15991 C 1538.69 -5.15032 1.43686 0
M  V30 15992 C 1539.99 -4.03464 3.31684 0
M  V30 15993 H 1541.68 -2.12623 2.10789 0
M  V30 15994 H 1539.23 -1.02162 1.01484 0
M  V30 15995 H 1541.18 -4.14737 0.746413 0
M  V30 15996 H 1539.9 -3.26352 -0.127125 0
M  V30 15997 H 1538.56 -3.07435 1.99698 0
M  V30 15998 H 1538.21 -5.00961 0.452422 0
M  V30 15999 H 1537.91 -5.46967 2.14711 0
M  V30 16000 H 1539.43 -5.95472 1.35078 0
M  V30 16001 H 1540.85 -4.71845 3.25631 0
M  V30 16002 H 1539.25 -4.46752 4.00665 0
M  V30 16003 H 1540.32 -3.07807 3.74677 0
M  V30 16004 N 1541.66 -1.11854 -1.11024 0
M  V30 16005 C 1542.94 -0.781693 -1.79301 0
M  V30 16006 C 1543.32 0.72956 -1.98092 0
M  V30 16007 O 1542.66 1.66109 -1.56908 0
M  V30 16008 C 1542.87 -1.54976 -3.12703 0
M  V30 16009 C 1544.22 -1.73183 -3.87676 0
M  V30 16010 O 1545.25 -1.51437 -3.22406 0
M  V30 16011 O 1544.1 -2.0935 -5.04812 0
M  V30 16012 H 1541.2 -0.283672 -0.776826 0
M  V30 16013 H 1543.74 -1.22222 -1.17728 0
M  V30 16014 H 1542.52 -2.57759 -2.94408 0
M  V30 16015 H 1542.14 -1.10308 -3.81992 0
M  V30 16016 N 1543.14 1.28707 -0.909517 0
M  V30 16017 C 1544.38 1.95154 -0.540481 0
M  V30 16018 C 1544.71 1.7163 0.91506 0
M  V30 16019 O 1543.97 1.02786 1.66534 0
M  V30 16020 C 1544.27 3.48536 -0.791037 0
M  V30 16021 C 1543.93 3.92153 -2.22546 0
M  V30 16022 C 1542.59 4.03772 -2.61766 0
M  V30 16023 C 1544.95 4.14547 -3.15912 0
M  V30 16024 C 1542.27 4.35162 -3.93511 0
M  V30 16025 C 1544.63 4.47414 -4.47218 0
M  V30 16026 C 1543.29 4.57244 -4.86296 0
M  V30 16027 H 1542.56 0.714119 -0.197776 0
M  V30 16028 H 1545.21 1.53122 -1.15004 0
M  V30 16029 H 1543.51 3.91676 -0.0986412 0
M  V30 16030 H 1545.21 3.98059 -0.48474 0
M  V30 16031 H 1541.8 3.83633 -1.91113 0
M  V30 16032 H 1545.98 4.05027 -2.86822 0
M  V30 16033 H 1541.24 4.40977 -4.23496 0
M  V30 16034 H 1545.41 4.6369 -5.19581 0
M  V30 16035 H 1543.04 4.81321 -5.88416 0
M  V30 16036 N 1544.61 0.673042 1.42506 0
M  V30 16037 C 1545.84 0.202922 2.05902 0
M  V30 16038 C 1546.26 -1.13923 1.50556 0
M  V30 16039 O 1545.61 -1.70735 0.644662 0
M  V30 16040 C 1545.67 0.12735 3.61276 0
M  V30 16041 O 1545.39 1.41646 4.1457 0
M  V30 16042 C 1546.89 -0.366477 4.41783 0
M  V30 16043 H 1544.11 0.0991021 0.663641 0
M  V30 16044 H 1546.65 0.919282 1.82673 0
M  V30 16045 H 1544.81 -0.539687 3.83622 0
M  V30 16046 H 1545.22 1.28866 5.08423 0
M  V30 16047 H 1546.69 -0.368267 5.5077 0
M  V30 16048 H 1547.17 -1.40142 4.16241 0
M  V30 16049 H 1547.78 0.268761 4.2445 0
M  V30 16050 N 1546.09 -1.52004 0.416254 0
M  V30 16051 C 1547.02 -2.30106 -0.396671 0
M  V30 16052 C 1548 -1.34616 -1.03983 0
M  V30 16053 O 1549.19 -1.63528 -1.04749 0
M  V30 16054 C 1546.32 -3.12769 -1.50972 0
M  V30 16055 C 1545.27 -4.16365 -0.99119 0
M  V30 16056 C 1544.6 -4.87417 -2.19838 0
M  V30 16057 C 1545.9 -5.22284 -0.0402599 0
M  V30 16058 H 1547.59 -2.98312 0.255054 0
M  V30 16059 H 1545.14 -1.43464 0.124106 0
M  V30 16060 H 1547.09 -3.66178 -2.08547 0
M  V30 16061 H 1545.82 -2.42346 -2.18943 0
M  V30 16062 H 1544.47 -3.63976 -0.437803 0
M  V30 16063 H 1544.12 -4.13516 -2.8638 0
M  V30 16064 H 1543.82 -5.57454 -1.85792 0
M  V30 16065 H 1545.35 -5.43641 -2.78006 0
M  V30 16066 H 1546.76 -5.70891 -0.525027 0
M  V30 16067 H 1545.16 -5.99726 0.211742 0
M  V30 16068 H 1546.23 -4.7642 0.902877 0
M  V30 16069 N 1547.57 -0.146903 -1.56914 0
M  V30 16070 C 1548.52 0.792821 -2.16756 0
M  V30 16071 C 1549.49 1.2442 -1.1004 0
M  V30 16072 O 1550.67 1.31674 -1.38081 0
M  V30 16073 C 1547.81 2.02659 -2.79327 0
M  V30 16074 C 1546.93 1.62102 -4.00433 0
M  V30 16075 C 1546.06 2.80658 -4.51004 0
M  V30 16076 C 1545.1 2.36474 -5.64576 0
M  V30 16077 N 1544.24 3.48038 -6.09766 0
M  V30 16078 H 1549.08 0.275708 -2.96722 0
M  V30 16079 H 1546.61 0.124374 -1.46573 0
M  V30 16080 H 1548.57 2.74986 -3.13749 0
M  V30 16081 H 1547.2 2.51781 -2.02005 0
M  V30 16082 H 1546.25 0.795407 -3.71991 0
M  V30 16083 H 1547.57 1.25652 -4.82714 0
M  V30 16084 H 1546.72 3.61175 -4.87481 0
M  V30 16085 H 1545.46 3.20353 -3.6773 0
M  V30 16086 H 1544.46 1.54397 -5.27676 0
M  V30 16087 H 1545.69 1.97865 -6.49635 0
M  V30 16088 H 1543.63 3.87354 -5.29427 0
M  V30 16089 H 1543.55 3.15602 -6.86972 0
M  V30 16090 H 1544.82 4.28912 -6.50887 0
M  V30 16091 N 1549.05 1.57088 0.126881 0
M  V30 16092 C 1550.3 1.84071 0.834397 0
M  V30 16093 C 1550.62 0.730896 1.80784 0
M  V30 16094 O 1549.89 -0.245791 1.94352 0
M  V30 16095 H 1548.47 0.679123 0.311128 0
M  V30 16096 H 1551.13 1.94554 0.116083 0
M  V30 16097 H 1550.23 2.79714 1.38443 0
M  V30 16098 N 1550.53 -0.396836 1.52522 0
M  V30 16099 C 1551.47 -1.50474 1.77371 0
M  V30 16100 C 1552.47 -1.56792 0.641307 0
M  V30 16101 O 1553.67 -1.60052 0.823621 0
M  V30 16102 H 1550.05 -0.500667 0.561103 0
M  V30 16103 H 1552.02 -1.26706 2.70163 0
M  V30 16104 C 1550.77 -2.87702 1.95251 0
M  V30 16105 H 1550.09 -2.83588 2.81812 0
M  V30 16106 H 1551.53 -3.64482 2.16631 0
M  V30 16107 C 1549.99 -3.29053 0.722904 0
M  V30 16108 O 1550.52 -4.01567 -0.103398 0
M  V30 16109 N 1548.73 -2.85246 0.555263 0
M  V30 16110 H 1548.27 -2.26403 1.22879 0
M  V30 16111 H 1548.23 -3.13272 -0.266113 0
M  V30 16112 N 1552.01 -1.43353 -0.654814 0
M  V30 16113 C 1552.94 -1.51194 -1.7794 0
M  V30 16114 C 1553.92 -0.366747 -1.66099 0
M  V30 16115 O 1555.1 -0.58375 -1.85219 0
M  V30 16116 C 1552.23 -1.43298 -3.16359 0
M  V30 16117 C 1551.19 -2.5605 -3.42961 0
M  V30 16118 C 1550.51 -2.33208 -4.81163 0
M  V30 16119 C 1551.81 -3.98303 -3.37864 0
M  V30 16120 H 1553.51 -2.4532 -1.71635 0
M  V30 16121 H 1551.05 -1.18072 -0.824319 0
M  V30 16122 H 1553 -1.47388 -3.94784 0
M  V30 16123 H 1551.73 -0.456761 -3.2339 0
M  V30 16124 H 1550.39 -2.5131 -2.66906 0
M  V30 16125 H 1550.04 -1.33833 -4.84869 0
M  V30 16126 H 1549.74 -3.08789 -4.99923 0
M  V30 16127 H 1551.26 -2.39079 -5.61848 0
M  V30 16128 H 1552.67 -4.04538 -4.06229 0
M  V30 16129 H 1551.07 -4.73897 -3.6816 0
M  V30 16130 H 1552.14 -4.23552 -2.36075 0
M  V30 16131 N 1553.48 0.89303 -1.29857 0
M  V30 16132 C 1554.71 1.6827 -1.21243 0
M  V30 16133 C 1555.13 1.86778 0.222621 0
M  V30 16134 O 1554.49 1.39291 1.1605 0
M  V30 16135 C 1554.54 3.041 -1.93792 0
M  V30 16136 O 1553.64 3.92696 -1.25951 0
M  V30 16137 H 1552.98 0.514479 -0.419771 0
M  V30 16138 H 1555.51 1.11513 -1.7154 0
M  V30 16139 H 1555.52 3.54198 -2.02504 0
M  V30 16140 H 1554.2 2.89948 -2.98166 0
M  V30 16141 H 1552.78 3.51132 -1.25541 0
M  V30 16142 N 1554.96 1.12442 1.10429 0
M  V30 16143 C 1556.21 0.879758 1.82391 0
M  V30 16144 C 1556.54 -0.594402 1.85195 0
M  V30 16145 O 1555.79 -1.4554 1.3083 0
M  V30 16146 C 1556.09 1.39976 3.28849 0
M  V30 16147 C 1555.76 2.88897 3.46192 0
M  V30 16148 C 1554.42 3.2956 3.50633 0
M  V30 16149 C 1556.77 3.8476 3.51581 0
M  V30 16150 C 1554.1 4.64791 3.58031 0
M  V30 16151 C 1556.45 5.19821 3.60512 0
M  V30 16152 C 1555.11 5.60026 3.63217 0
M  V30 16153 H 1554.38 0.321926 0.667416 0
M  V30 16154 H 1557.03 1.40461 1.30165 0
M  V30 16155 H 1555.34 0.795374 3.83642 0
M  V30 16156 H 1557.03 1.18667 3.83039 0
M  V30 16157 H 1553.62 2.56448 3.43413 0
M  V30 16158 H 1557.81 3.54439 3.474 0
M  V30 16159 H 1553.06 4.95332 3.58408 0
M  V30 16160 H 1557.24 5.93927 3.63625 0
M  V30 16161 H 1554.86 6.64803 3.68702 0
M  V30 16162 N 1556.44 -1.28223 0.91633 0
M  V30 16163 C 1557.69 -1.9448 0.549734 0
M  V30 16164 C 1558.01 -1.72465 -0.909999 0
M  V30 16165 O 1557.28 -1.06583 -1.64368 0
M  V30 16166 H 1555.86 -0.719641 0.200315 0
M  V30 16167 H 1558.52 -1.56156 1.16625 0
M  V30 16168 H 1557.62 -3.03044 0.746363 0
M  V30 16169 N 1557.92 -0.68059 -1.42147 0
M  V30 16170 C 1559.16 -0.214267 -2.02268 0
M  V30 16171 C 1559.52 1.16815 -1.52879 0
M  V30 16172 O 1558.81 1.77406 -0.723716 0
M  V30 16173 C 1559.01 -0.194825 -3.56869 0
M  V30 16174 C 1558.83 -1.57381 -4.21261 0
M  V30 16175 C 1557.6 -2.173 -4.56189 0
M  V30 16176 C 1559.8 -2.5176 -4.48466 0
M  V30 16177 N 1557.78 -3.47919 -5.05792 0
M  V30 16178 C 1559.16 -3.6704 -4.99681 0
M  V30 16179 C 1561.21 -2.50217 -4.3046 0
M  V30 16180 C 1559.91 -4.81039 -5.34784 0
M  V30 16181 C 1561.94 -3.63316 -4.66643 0
M  V30 16182 C 1561.3 -4.77324 -5.18016 0
M  V30 16183 H 1557.4 -0.123459 -0.772193 0
M  V30 16184 H 1559.98 -0.894831 -1.72919 0
M  V30 16185 H 1558.16 0.455171 -3.85724 0
M  V30 16186 H 1559.89 0.284921 -4.03696 0
M  V30 16187 H 1556.64 -1.69732 -4.4214 0
M  V30 16188 H 1557.07 -4.14833 -5.35016 0
M  V30 16189 H 1561.71 -1.63297 -3.89992 0
M  V30 16190 H 1559.43 -5.68629 -5.74183 0
M  V30 16191 H 1563.01 -3.63356 -4.54383 0
M  V30 16192 H 1561.89 -5.63391 -5.45491 0
M  V30 16193 N 1559.4 1.51781 -0.424309 0
M  V30 16194 C 1560.64 2.02269 0.146709 0
M  V30 16195 C 1560.97 1.30859 1.4349 0
M  V30 16196 O 1560.25 0.419504 1.89922 0
M  V30 16197 C 1560.53 3.58101 0.378861 0
M  V30 16198 C 1560.39 4.40143 -0.92707 0
M  V30 16199 C 1561.7 4.2469 1.15438 0
M  V30 16200 H 1558.82 0.735174 0.0518456 0
M  V30 16201 H 1561.47 1.81537 -0.560753 0
M  V30 16202 H 1559.62 3.75897 0.981496 0
M  V30 16203 H 1561.29 4.34025 -1.56268 0
M  V30 16204 H 1559.53 4.05748 -1.53464 0
M  V30 16205 H 1560.2 5.47299 -0.718837 0
M  V30 16206 H 1562.68 4.11086 0.644041 0
M  V30 16207 H 1561.55 5.33633 1.28557 0
M  V30 16208 H 1561.81 3.84668 2.17905 0
M  V30 16209 N 1560.87 0.155222 1.56834 0
M  V30 16210 C 1562.29 -0.201116 1.58328 0
M  V30 16211 C 1562.49 -1.64061 1.16988 0
M  V30 16212 O 1561.55 -2.36892 0.873989 0
M  V30 16213 C 1562.86 0.0651005 3.0063 0
M  V30 16214 C 1564.41 0.00203866 3.13 0
M  V30 16215 C 1564.88 0.241032 4.57365 0
M  V30 16216 N 1566.37 0.188245 4.62817 0
M  V30 16217 C 1567.11 0.347562 5.72346 0
M  V30 16218 N 1566.6 0.565052 6.90492 0
M  V30 16219 N 1568.4 0.284589 5.61379 0
M  V30 16220 H 1560.55 1.09503 1.81997 0
M  V30 16221 H 1562.81 0.434106 0.842767 0
M  V30 16222 H 1562.52 1.06167 3.35293 0
M  V30 16223 H 1562.39 -0.650601 3.71547 0
M  V30 16224 H 1564.78 -0.98509 2.78173 0
M  V30 16225 H 1564.86 0.750199 2.44552 0
M  V30 16226 H 1564.5 1.2253 4.92898 0
M  V30 16227 H 1564.43 -0.52755 5.23951 0
M  V30 16228 H 1566.92 0.0251352 3.77892 0
M  V30 16229 H 1567.24 0.676502 7.69833 0
M  V30 16230 H 1565.58 0.601473 6.92392 0
M  V30 16231 H 1568.77 0.115381 4.67958 0
M  V30 16232 H 1568.95 0.412182 6.46688 0
M  V30 16233 N 1562.35 -1.57153 -0.118549 0
M  V30 16234 C 1563.28 -1.97022 -1.1711 0
M  V30 16235 C 1564.3 -0.869599 -1.37629 0
M  V30 16236 O 1565.49 -1.14788 -1.36696 0
M  V30 16237 C 1562.59 -2.25371 -2.53103 0
M  V30 16238 C 1561.76 -3.56677 -2.5318 0
M  V30 16239 C 1560.82 -3.73233 -3.70922 0
M  V30 16240 O 1559.84 -4.4534 -3.54487 0
M  V30 16241 N 1561.05 -3.12036 -4.89504 0
M  V30 16242 H 1563.81 -2.87921 -0.831959 0
M  V30 16243 H 1561.37 -1.58947 -0.307817 0
M  V30 16244 H 1563.36 -2.33662 -3.3043 0
M  V30 16245 H 1561.93 -1.40597 -2.79197 0
M  V30 16246 H 1561.15 -3.5957 -1.61564 0
M  V30 16247 H 1562.44 -4.42982 -2.50288 0
M  V30 16248 H 1561.84 -2.53422 -5.05761 0
M  V30 16249 H 1560.4 -3.25846 -5.64506 0
M  V30 16250 N 1563.83 0.388742 -1.5273 0
M  V30 16251 C 1565.08 1.13094 -1.67011 0
M  V30 16252 C 1565.39 1.91115 -0.416467 0
M  V30 16253 O 1566.6 2.67921 -0.43941 0
M  V30 16254 C 1565.05 2.0595 -2.95149 0
M  V30 16255 C 1564.66 1.3335 -4.27694 0
M  V30 16256 C 1566.41 2.80303 -3.18795 0
M  V30 16257 C 1564.31 2.24973 -5.46938 0
M  V30 16258 H 1563.24 0.425887 -0.622203 0
M  V30 16259 H 1565.89 0.393708 -1.79227 0
M  V30 16260 H 1564.28 2.83309 -2.7668 0
M  V30 16261 H 1565.45 0.612137 -4.56716 0
M  V30 16262 H 1563.76 0.709547 -4.1031 0
M  V30 16263 H 1566.36 3.49036 -4.05065 0
M  V30 16264 H 1566.7 3.44394 -2.33877 0
M  V30 16265 H 1567.24 2.10036 -3.37831 0
M  V30 16266 H 1563.98 1.65497 -6.34264 0
M  V30 16267 H 1563.5 2.95024 -5.22227 0
M  V30 16268 H 1565.18 2.8505 -5.80823 0
M  V30 16269 N 1565.31 1.43698 0.647203 0
M  V30 16270 C 1566.24 1.52135 1.77136 0
M  V30 16271 C 1567.22 0.375551 1.65902 0
M  V30 16272 O 1568.4 0.593564 1.84907 0
M  V30 16273 C 1565.53 1.44974 3.15594 0
M  V30 16274 C 1564.49 2.57866 3.41598 0
M  V30 16275 C 1563.81 2.35757 4.7992 0
M  V30 16276 C 1565.11 4.00089 3.35747 0
M  V30 16277 H 1566.81 2.46227 1.70332 0
M  V30 16278 H 1564.35 1.18507 0.818046 0
M  V30 16279 H 1566.31 1.4948 3.93997 0
M  V30 16280 H 1565.03 0.473905 3.23143 0
M  V30 16281 H 1563.69 2.52722 2.65569 0
M  V30 16282 H 1563.34 1.36403 4.84152 0
M  V30 16283 H 1563.04 3.11436 4.98278 0
M  V30 16284 H 1564.56 2.42055 5.60572 0
M  V30 16285 H 1565.98 4.06687 4.04078 0
M  V30 16286 H 1564.37 4.75842 3.65642 0
M  V30 16287 H 1565.44 4.24798 2.33825 0
M  V30 16288 N 1566.79 -0.886131 1.30328 0
M  V30 16289 C 1567.72 -1.99733 1.12425 0
M  V30 16290 C 1568.73 -1.62659 0.067824 0
M  V30 16291 O 1569.92 -1.75721 0.313723 0
M  V30 16292 C 1567.02 -3.31757 0.692122 0
M  V30 16293 C 1566.19 -3.97276 1.83004 0
M  V30 16294 C 1565.25 -5.076 1.38666 0
M  V30 16295 O 1564.28 -5.29295 2.09368 0
M  V30 16296 N 1565.48 -5.79895 0.265039 0
M  V30 16297 H 1568.25 -2.15643 2.0813 0
M  V30 16298 H 1565.81 -1.05915 1.22449 0
M  V30 16299 H 1567.8 -4.02926 0.37854 0
M  V30 16300 H 1566.37 -3.12122 -0.172864 0
M  V30 16301 H 1565.59 -3.19295 2.3118 0
M  V30 16302 H 1566.88 -4.37789 2.59264 0
M  V30 16303 H 1566.27 -5.64771 -0.324121 0
M  V30 16304 H 1564.83 -6.51799 0.0109044 0
M  V30 16305 N 1568.26 -1.13026 -1.09832 0
M  V30 16306 C 1569.21 -0.803817 -2.1635 0
M  V30 16307 C 1570.18 0.232226 -1.64469 0
M  V30 16308 O 1571.37 0.105403 -1.90509 0
M  V30 16309 C 1568.51 -0.271414 -3.44031 0
M  V30 16310 C 1567.62 -1.36602 -4.09834 0
M  V30 16311 C 1566.75 -0.792393 -5.25257 0
M  V30 16312 C 1565.79 -1.86569 -5.82974 0
M  V30 16313 N 1564.93 -1.31032 -6.89764 0
M  V30 16314 H 1569.77 -1.71624 -2.43617 0
M  V30 16315 H 1567.31 -0.856772 -1.19574 0
M  V30 16316 H 1569.27 0.0553638 -4.17163 0
M  V30 16317 H 1567.9 0.604154 -3.17096 0
M  V30 16318 H 1566.95 -1.80946 -3.34608 0
M  V30 16319 H 1568.26 -2.17737 -4.48767 0
M  V30 16320 H 1567.41 -0.416652 -6.05268 0
M  V30 16321 H 1566.15 0.0500894 -4.87674 0
M  V30 16322 H 1565.16 -2.25054 -5.01628 0
M  V30 16323 H 1566.38 -2.7115 -6.22619 0
M  V30 16324 H 1564.33 -0.489768 -6.54169 0
M  V30 16325 H 1564.25 -2.0582 -7.27444 0
M  V30 16326 H 1565.51 -0.962011 -7.73541 0
M  V30 16327 N 1569.74 1.27735 -0.923117 0
M  V30 16328 C 1570.69 2.26997 -0.417254 0
M  V30 16329 C 1571.66 1.57968 0.513364 0
M  V30 16330 O 1572.84 1.8581 0.433521 0
M  V30 16331 C 1569.98 3.43537 0.328089 0
M  V30 16332 C 1569.1 4.27291 -0.636112 0
M  V30 16333 C 1568.23 5.31044 0.128614 0
M  V30 16334 C 1567.27 6.06466 -0.828592 0
M  V30 16335 N 1566.41 7.02033 -0.0967858 0
M  V30 16336 H 1571.25 2.69643 -1.26872 0
M  V30 16337 H 1568.79 1.32597 -0.6369 0
M  V30 16338 H 1570.74 4.0991 0.776504 0
M  V30 16339 H 1569.37 3.01855 1.14383 0
M  V30 16340 H 1568.43 3.60875 -1.20306 0
M  V30 16341 H 1569.74 4.79679 -1.36784 0
M  V30 16342 H 1568.89 6.03345 0.637159 0
M  V30 16343 H 1567.63 4.79448 0.893341 0
M  V30 16344 H 1566.64 5.33008 -1.34843 0
M  V30 16345 H 1567.86 6.60151 -1.59303 0
M  V30 16346 H 1565.81 6.52774 0.649779 0
M  V30 16347 H 1565.72 7.52087 -0.768171 0
M  V30 16348 H 1566.99 7.78517 0.391257 0
M  V30 16349 N 1571.22 0.688118 1.41784 0
M  V30 16350 C 1572.47 0.216263 2.01644 0
M  V30 16351 C 1572.8 -1.17861 1.54345 0
M  V30 16352 O 1572.07 -1.794 0.751392 0
M  V30 16353 C 1572.36 0.265663 3.59119 0
M  V30 16354 C 1572.21 1.69694 4.16562 0
M  V30 16355 C 1573.53 -0.378713 4.38468 0
M  V30 16356 H 1570.65 0.0800582 0.732639 0
M  V30 16357 H 1573.29 0.875428 1.68631 0
M  V30 16358 H 1571.44 -0.295588 3.87374 0
M  V30 16359 H 1573.11 2.31146 3.9921 0
M  V30 16360 H 1571.36 2.23345 3.71886 0
M  V30 16361 H 1572.03 1.68309 5.25715 0
M  V30 16362 H 1574.5 0.0991969 4.15982 0
M  V30 16363 H 1573.38 -0.31357 5.48004 0
M  V30 16364 H 1573.64 -1.45832 4.17355 0
M  V30 16365 N 1572.7 -1.51554 0.432352 0
M  V30 16366 C 1573.92 -2.06947 -0.136995 0
M  V30 16367 C 1574.35 -1.29817 -1.36122 0
M  V30 16368 O 1573.71 -0.334733 -1.78183 0
M  V30 16369 C 1573.75 -3.57871 -0.442785 0
M  V30 16370 O 1572.86 -3.82966 -1.53007 0
M  V30 16371 H 1572.2 -0.663988 -0.00405152 0
M  V30 16372 H 1574.73 -1.95225 0.612249 0
M  V30 16373 H 1574.74 -4.02042 -0.694694 0
M  V30 16374 H 1573.41 -4.13436 0.452013 0
M  V30 16375 H 1571.99 -3.50661 -1.26851 0
M  V30 16376 N 1574.18 -0.163538 -1.56749 0
M  V30 16377 C 1575.42 0.48412 -1.96937 0
M  V30 16378 C 1575.76 1.63418 -1.04919 0
M  V30 16379 O 1575.03 1.94269 -0.094783 0
M  V30 16380 C 1575.31 0.974532 -3.46663 0
M  V30 16381 C 1575.17 -0.175173 -4.49459 0
M  V30 16382 C 1576.49 1.85082 -3.9929 0
M  V30 16383 H 1573.6 0.174503 -0.716043 0
M  V30 16384 H 1576.25 -0.248103 -1.88373 0
M  V30 16385 H 1574.4 1.59849 -3.54091 0
M  V30 16386 H 1576.07 -0.812038 -4.54096 0
M  V30 16387 H 1574.31 -0.831853 -4.2575 0
M  V30 16388 H 1574.98 0.20996 -5.51601 0
M  V30 16389 H 1577.46 1.32488 -3.94444 0
M  V30 16390 H 1576.33 2.163 -5.04485 0
M  V30 16391 H 1576.6 2.79378 -3.42638 0
M  V30 16392 N 1575.65 1.57214 0.110213 0
M  V30 16393 C 1576.9 1.85586 0.817649 0
M  V30 16394 C 1577.23 0.750536 1.79111 0
M  V30 16395 O 1576.51 -0.242864 1.92978 0
M  V30 16396 C 1576.79 3.24565 1.55979 0
M  V30 16397 C 1576.64 4.45708 0.605339 0
M  V30 16398 C 1577.96 3.61233 2.51393 0
M  V30 16399 H 1575.08 0.675037 0.295794 0
M  V30 16400 H 1577.72 1.89824 0.0816541 0
M  V30 16401 H 1575.87 3.21083 2.18718 0
M  V30 16402 H 1577.55 4.61298 -0.0138894 0
M  V30 16403 H 1575.79 4.33722 -0.0824644 0
M  V30 16404 H 1576.46 5.39643 1.16143 0
M  V30 16405 H 1578.94 3.65563 1.98754 0
M  V30 16406 H 1577.81 4.59438 3.00346 0
M  V30 16407 H 1578.07 2.89116 3.34461 0
M  V30 16408 N 1577.13 -0.380637 1.52934 0
M  V30 16409 C 1578.36 -1.15033 1.72575 0
M  V30 16410 C 1578.78 -1.82715 0.446869 0
M  V30 16411 O 1578.14 -1.71154 -0.598004 0
M  V30 16412 C 1578.19 -2.16773 2.8817 0
M  V30 16413 O 1577.29 -3.23539 2.55727 0
M  V30 16414 H 1576.63 -0.334489 0.573597 0
M  V30 16415 H 1579.16 -0.442369 1.9976 0
M  V30 16416 H 1579.17 -2.60629 3.13905 0
M  V30 16417 H 1577.85 -1.669 3.80943 0
M  V30 16418 H 1576.43 -2.84761 2.4076 0
M  V30 16419 N 1578.61 -1.44039 -0.639573 0
M  V30 16420 C 1579.86 -1.46594 -1.40136 0
M  V30 16421 C 1580.19 -0.0949646 -1.93968 0
M  V30 16422 O 1579.46 0.886201 -1.73138 0
M  V30 16423 C 1579.75 -2.51947 -2.57283 0
M  V30 16424 C 1579.6 -3.98371 -2.08855 0
M  V30 16425 C 1580.92 -2.53891 -3.59482 0
M  V30 16426 H 1578.04 -0.533759 -0.508203 0
M  V30 16427 H 1580.68 -1.75669 -0.723898 0
M  V30 16428 H 1578.83 -2.27285 -3.15077 0
M  V30 16429 H 1580.5 -4.34137 -1.55956 0
M  V30 16430 H 1578.75 -4.10551 -1.40109 0
M  V30 16431 H 1579.42 -4.67721 -2.93157 0
M  V30 16432 H 1581.89 -2.75906 -3.11473 0
M  V30 16433 H 1580.77 -3.29524 -4.38982 0
M  V30 16434 H 1581.03 -1.57774 -4.12989 0
M  V30 16435 N 1580.09 0.879207 -1.30796 0
M  V30 16436 C 1581.05 1.96707 -1.17639 0
M  V30 16437 C 1582.05 1.6045 -0.106013 0
M  V30 16438 O 1583.24 1.70553 -0.354573 0
M  V30 16439 C 1580.37 3.31292 -0.803625 0
M  V30 16440 H 1581.57 2.09806 -2.14293 0
M  V30 16441 H 1579.12 1.06634 -1.14276 0
M  V30 16442 H 1579.85 3.23894 0.162159 0
M  V30 16443 H 1579.64 3.58979 -1.57723 0
M  V30 16444 H 1581.13 4.11077 -0.735201 0
M  V30 16445 N 1581.57 1.13606 1.09231 0
M  V30 16446 C 1582.48 0.828702 2.19476 0
M  V30 16447 C 1583.49 -0.187499 1.72987 0
M  V30 16448 O 1584.67 -0.0180602 2.01392 0
M  V30 16449 C 1581.73 0.301361 3.45388 0
M  V30 16450 C 1580.8 1.37906 4.06547 0
M  V30 16451 C 1580.03 0.876786 5.26449 0
M  V30 16452 O 1580.25 -0.284896 5.69688 0
M  V30 16453 O 1579.19 1.652 5.78785 0
M  V30 16454 H 1583.01 1.74982 2.48223 0
M  V30 16455 H 1580.6 0.913673 1.18205 0
M  V30 16456 H 1582.48 0.0127792 4.21398 0
M  V30 16457 H 1581.15 -0.592149 3.18238 0
M  V30 16458 H 1580.06 1.72098 3.32164 0
M  V30 16459 H 1581.39 2.24678 4.37927 0
M  V30 16460 N 1583.05 -1.27244 0.929878 0
M  V30 16461 C 1584.29 -1.93559 0.567267 0
M  V30 16462 C 1584.61 -1.73864 -0.896138 0
M  V30 16463 O 1585.81 -2.34538 -1.36763 0
M  V30 16464 C 1584.27 -3.46756 0.963743 0
M  V30 16465 C 1583.88 -3.75204 2.44798 0
M  V30 16466 C 1585.62 -4.19139 0.672487 0
M  V30 16467 C 1583.53 -5.21787 2.78375 0
M  V30 16468 H 1582.46 -0.724617 0.208437 0
M  V30 16469 H 1585.11 -1.44502 1.13099 0
M  V30 16470 H 1583.49 -3.94634 0.328654 0
M  V30 16471 H 1584.67 -3.38075 3.13116 0
M  V30 16472 H 1582.98 -3.16029 2.71136 0
M  V30 16473 H 1585.58 -5.27074 0.899816 0
M  V30 16474 H 1585.92 -4.14466 -0.390378 0
M  V30 16475 H 1586.45 -3.77091 1.26678 0
M  V30 16476 H 1583.19 -5.31552 3.83579 0
M  V30 16477 H 1582.71 -5.60054 2.14708 0
M  V30 16478 H 1584.39 -5.89685 2.66234 0
M  V30 16479 N 1584.52 -0.695628 -1.41417 0
M  V30 16480 C 1585.75 -0.235654 -2.05554 0
M  V30 16481 C 1586.17 1.11513 -1.52349 0
M  V30 16482 O 1585.52 1.69688 -0.671743 0
M  V30 16483 C 1585.57 -0.184809 -3.61027 0
M  V30 16484 O 1585.3 -1.48224 -4.12264 0
M  V30 16485 C 1586.8 0.296147 -4.4231 0
M  V30 16486 H 1584.02 -0.109648 -0.661981 0
M  V30 16487 H 1586.56 -0.948227 -1.81187 0
M  V30 16488 H 1584.72 0.478588 -3.84432 0
M  V30 16489 H 1585.13 -1.36939 -5.06308 0
M  V30 16490 H 1586.6 0.280597 -5.51286 0
M  V30 16491 H 1587.08 1.33503 -4.18418 0
M  V30 16492 H 1587.69 -0.336253 -4.23969 0
M  V30 16493 N 1586 1.51322 -0.440383 0
M  V30 16494 C 1587.25 2.02113 0.125062 0
M  V30 16495 C 1587.58 1.32436 1.42446 0
M  V30 16496 O 1586.83 0.428981 1.9094 0
M  V30 16497 C 1587.13 3.55287 0.388079 0
M  V30 16498 C 1586.8 4.43272 -0.825876 0
M  V30 16499 C 1585.46 4.67039 -1.15878 0
M  V30 16500 C 1587.81 4.94872 -1.63557 0
M  V30 16501 C 1585.14 5.39652 -2.30201 0
M  V30 16502 C 1587.49 5.68739 -2.76981 0
M  V30 16503 C 1586.15 5.90769 -3.10722 0
M  V30 16504 H 1585.42 0.739585 0.0457635 0
M  V30 16505 H 1588.07 1.82243 -0.588201 0
M  V30 16506 H 1586.38 3.73505 1.18327 0
M  V30 16507 H 1588.07 3.92124 0.839055 0
M  V30 16508 H 1584.66 4.24972 -0.556468 0
M  V30 16509 H 1588.85 4.76391 -1.39158 0
M  V30 16510 H 1584.1 5.54923 -2.56653 0
M  V30 16511 H 1588.28 6.07711 -3.40089 0
M  V30 16512 H 1585.9 6.46814 -3.9942 0
M  V30 16513 N 1587.48 0.171848 1.5666 0
M  V30 16514 C 1588.76 -0.519355 1.88579 0
M  V30 16515 C 1589.14 -1.81273 1.08182 0
M  V30 16516 O 1588.48 -2.27822 0.175895 0
M  V30 16517 C 1588.69 -0.760743 3.40608 0
M  V30 16518 C 1590.04 -1.09051 4.10357 0
M  V30 16519 O 1591.07 -0.849264 3.45928 0
M  V30 16520 O 1589.93 -1.54566 5.24187 0
M  V30 16521 H 1587.02 -0.267782 0.782446 0
M  V30 16522 H 1589.57 0.210323 1.68392 0
M  V30 16523 H 1588.34 0.153577 3.90999 0
M  V30 16524 H 1587.96 -1.54372 3.66408 0
M  V30 16525 N 1588.96 -1.5727 -0.101874 0
M  V30 16526 C 1590.19 -1.89943 -0.820329 0
M  V30 16527 C 1590.6 -0.764867 -1.72613 0
M  V30 16528 O 1589.96 0.263499 -1.80588 0
M  V30 16529 C 1590.01 -3.2219 -1.63939 0
M  V30 16530 O 1589.73 -4.31279 -0.770039 0
M  V30 16531 C 1591.23 -3.6868 -2.46151 0
M  V30 16532 H 1588.45 -0.628532 -0.234922 0
M  V30 16533 H 1590.99 -2.04339 -0.0811362 0
M  V30 16534 H 1589.15 -3.09411 -2.33117 0
M  V30 16535 H 1589.56 -5.07182 -1.33665 0
M  V30 16536 H 1591.04 -4.63928 -2.99124 0
M  V30 16537 H 1591.51 -2.96183 -3.24303 0
M  V30 16538 H 1592.12 -3.84303 -1.82185 0
M  V30 16539 N 1590.44 0.372521 -1.53134 0
M  V30 16540 C 1591.66 1.14116 -1.73183 0
M  V30 16541 C 1592.09 1.82475 -0.456553 0
M  V30 16542 O 1591.44 1.71468 0.588919 0
M  V30 16543 C 1591.49 2.15241 -2.89316 0
M  V30 16544 O 1590.6 3.22178 -2.57439 0
M  V30 16545 H 1589.94 0.331442 -0.575362 0
M  V30 16546 H 1592.47 0.431769 -1.99992 0
M  V30 16547 H 1592.48 2.58961 -3.15283 0
M  V30 16548 H 1591.15 1.64877 -3.81822 0
M  V30 16549 H 1589.73 2.83481 -2.42267 0
M  V30 16550 N 1591.91 1.44376 0.631925 0
M  V30 16551 C 1593.16 1.47335 1.39356 0
M  V30 16552 C 1593.49 0.10525 1.93915 0
M  V30 16553 O 1592.77 -0.877006 1.73605 0
M  V30 16554 C 1593.05 2.53308 2.55943 0
M  V30 16555 C 1592.9 3.99473 2.06739 0
M  V30 16556 C 1594.22 2.55794 3.58131 0
M  V30 16557 H 1591.34 0.536447 0.505365 0
M  V30 16558 H 1593.98 1.76051 0.714572 0
M  V30 16559 H 1592.13 2.28953 3.13868 0
M  V30 16560 H 1593.81 4.34958 1.53652 0
M  V30 16561 H 1592.05 4.11288 1.37929 0
M  V30 16562 H 1592.72 4.69269 2.90672 0
M  V30 16563 H 1595.2 2.77554 3.10005 0
M  V30 16564 H 1594.07 3.31847 4.37228 0
M  V30 16565 H 1594.33 1.59962 4.12146 0
M  V30 16566 N 1593.39 -0.872258 1.31261 0
M  V30 16567 C 1594.62 -1.65555 1.23593 0
M  V30 16568 C 1595.03 -1.88124 -0.201532 0
M  V30 16569 O 1594.37 -1.43792 -1.14323 0
M  V30 16570 C 1594.43 -3.04726 1.90742 0
M  V30 16571 C 1594.1 -3.05276 3.40082 0
M  V30 16572 C 1595.1 -2.83401 4.35867 0
M  V30 16573 C 1592.78 -3.26469 3.81737 0
M  V30 16574 C 1594.77 -2.82697 5.71281 0
M  V30 16575 C 1592.46 -3.25393 5.17265 0
M  V30 16576 C 1593.46 -3.03533 6.11847 0
M  V30 16577 O 1593.15 -3.02297 7.44897 0
M  V30 16578 H 1592.88 -0.52296 0.428356 0
M  V30 16579 H 1595.43 -1.09717 1.73641 0
M  V30 16580 H 1593.66 -3.62281 1.35239 0
M  V30 16581 H 1595.35 -3.65265 1.7702 0
M  V30 16582 H 1596.12 -2.66812 4.05014 0
M  V30 16583 H 1592 -3.42515 3.08552 0
M  V30 16584 H 1595.54 -2.65553 6.45079 0
M  V30 16585 H 1591.44 -3.41522 5.47753 0
M  V30 16586 H 1592.21 -3.18375 7.54042 0
M  V30 16587 N 1594.87 -1.14184 -1.08627 0
M  V30 16588 C 1596.09 -0.932504 -1.85254 0
M  V30 16589 C 1596.52 0.513792 -1.80947 0
M  V30 16590 O 1595.88 1.36525 -1.19292 0
M  V30 16591 C 1595.93 -1.43519 -3.30809 0
M  V30 16592 O 1595.03 -0.625806 -4.07624 0
M  V30 16593 H 1594.37 -0.333573 -0.57413 0
M  V30 16594 H 1596.9 -1.51853 -1.3712 0
M  V30 16595 H 1596.91 -1.44238 -3.81654 0
M  V30 16596 H 1595.59 -2.48819 -3.3326 0
M  V30 16597 H 1594.16 -0.687168 -3.66514 0
M  V30 16598 N 1596.35 1.26749 -0.936613 0
M  V30 16599 C 1597.28 2.25684 -0.399941 0
M  V30 16600 C 1598.29 1.55739 0.474271 0
M  V30 16601 O 1599.48 1.76203 0.285454 0
M  V30 16602 C 1596.58 3.35969 0.444733 0
M  V30 16603 C 1595.76 4.35453 -0.412258 0
M  V30 16604 C 1594.81 5.24889 0.37123 0
M  V30 16605 O 1593.84 5.68758 -0.224162 0
M  V30 16606 N 1595.04 5.55993 1.66889 0
M  V30 16607 H 1597.81 2.72368 -1.25043 0
M  V30 16608 H 1595.37 1.40468 -0.805 0
M  V30 16609 H 1597.36 3.92751 0.976159 0
M  V30 16610 H 1595.93 2.88816 1.196 0
M  V30 16611 H 1595.15 3.77808 -1.12493 0
M  V30 16612 H 1596.44 4.9892 -0.997822 0
M  V30 16613 H 1595.84 5.22224 2.17481 0
M  V30 16614 H 1594.39 6.15436 2.14666 0
M  V30 16615 N 1597.83 0.703118 1.41046 0
M  V30 16616 C 1598.76 0.0570815 2.3343 0
M  V30 16617 C 1599.74 -0.759042 1.52225 0
M  V30 16618 O 1600.92 -0.710491 1.80736 0
M  V30 16619 C 1598.05 -0.874541 3.36109 0
M  V30 16620 C 1597.01 -0.16496 4.27682 0
M  V30 16621 C 1596.33 -1.21145 5.20795 0
M  V30 16622 C 1597.63 0.97332 5.13151 0
M  V30 16623 H 1599.33 0.828699 2.87703 0
M  V30 16624 H 1596.87 0.399956 1.38334 0
M  V30 16625 H 1598.83 -1.33579 3.99668 0
M  V30 16626 H 1597.55 -1.67791 2.80203 0
M  V30 16627 H 1596.21 0.276332 3.65557 0
M  V30 16628 H 1595.86 -2.00755 4.61201 0
M  V30 16629 H 1595.56 -0.741633 5.82901 0
M  V30 16630 H 1597.08 -1.67305 5.87232 0
M  V30 16631 H 1598.49 0.592013 5.70235 0
M  V30 16632 H 1596.89 1.37071 5.84236 0
M  V30 16633 H 1597.96 1.80961 4.49868 0
M  V30 16634 N 1599.3 -1.51086 0.448402 0
M  V30 16635 C 1600.72 -1.86696 -0.0121264 0
M  V30 16636 C 1601.07 -1.36483 -1.40949 0
M  V30 16637 O 1600.19 -0.72024 -2.04062 0
M  V30 16638 C 1600.79 -3.38788 -0.0287814 0
M  V30 16639 C 1599.35 -3.73892 -0.433758 0
M  V30 16640 C 1598.49 -2.74869 0.366362 0
M  V30 16641 H 1601.44 -1.44153 0.663744 0
M  V30 16642 H 1601.46 -3.71204 -0.835915 0
M  V30 16643 H 1600.98 -3.75304 0.988368 0
M  V30 16644 H 1599.08 -3.4297 -1.4561 0
M  V30 16645 H 1599.19 -4.78862 -0.150869 0
M  V30 16646 H 1597.55 -2.54085 -0.176862 0
M  V30 16647 H 1598.34 -3.14228 1.3826 0
M  V30 16648 N 1600.78 -0.180154 -1.56567 0
M  V30 16649 C 1602.03 0.461606 -1.96758 0
M  V30 16650 C 1602.35 1.63179 -1.0676 0
M  V30 16651 O 1601.62 1.95429 -0.135762 0
M  V30 16652 H 1600.2 0.173526 -0.726566 0
M  V30 16653 H 1602.86 -0.2634 -1.93112 0
M  V30 16654 H 1601.96 0.815729 -3.01251 0
M  V30 16655 N 1602.26 1.57322 0.0935319 0
M  V30 16656 C 1603.19 1.98861 1.13961 0
M  V30 16657 C 1604.21 0.891385 1.36228 0
M  V30 16658 O 1605.39 1.16949 1.34853 0
M  V30 16659 C 1602.49 2.29369 2.49485 0
M  V30 16660 C 1601.67 3.6066 2.47473 0
M  V30 16661 C 1600.73 3.79087 3.64937 0
M  V30 16662 O 1599.75 4.50923 3.47357 0
M  V30 16663 N 1600.95 3.19784 4.84478 0
M  V30 16664 H 1603.72 2.89208 0.786048 0
M  V30 16665 H 1601.28 1.59416 0.282491 0
M  V30 16666 H 1603.27 2.38889 3.26671 0
M  V30 16667 H 1601.84 1.45021 2.76925 0
M  V30 16668 H 1601.06 3.62095 1.55823 0
M  V30 16669 H 1602.35 4.46908 2.43209 0
M  V30 16670 H 1601.75 2.61436 5.01665 0
M  V30 16671 H 1600.31 3.34786 5.59251 0
M  V30 16672 N 1603.74 -0.364395 1.53329 0
M  V30 16673 C 1604.65 -1.47027 1.82812 0
M  V30 16674 C 1605.66 -1.58559 0.716598 0
M  V30 16675 O 1606.84 -1.7443 1.00678 0
M  V30 16676 C 1603.91 -2.82278 2.01295 0
M  V30 16677 C 1602.97 -2.80264 3.25193 0
M  V30 16678 C 1602.2 -4.09065 3.42785 0
M  V30 16679 O 1602.42 -5.0529 2.64648 0
M  V30 16680 O 1601.36 -4.14804 4.36144 0
M  V30 16681 H 1605.18 -1.25035 2.76767 0
M  V30 16682 H 1602.77 -0.554608 1.38724 0
M  V30 16683 H 1604.65 -3.62416 2.15017 0
M  V30 16684 H 1603.32 -3.04244 1.10531 0
M  V30 16685 H 1602.23 -1.9882 3.16893 0
M  V30 16686 H 1603.56 -2.63252 4.15884 0
M  V30 16687 N 1605.22 -1.44709 -0.62426 0
M  V30 16688 C 1606.18 -1.51738 -1.7178 0
M  V30 16689 C 1607.18 -0.398646 -1.5578 0
M  V30 16690 O 1608.37 -0.661525 -1.61151 0
M  V30 16691 C 1605.5 -1.39792 -3.1092 0
M  V30 16692 H 1606.69 -2.49154 -1.6692 0
M  V30 16693 H 1604.25 -1.31903 -0.838531 0
M  V30 16694 H 1604.98 -0.434955 -3.2137 0
M  V30 16695 H 1604.77 -2.20919 -3.2394 0
M  V30 16696 H 1606.26 -1.47706 -3.90606 0
M  V30 16697 N 1606.69 0.865285 -1.31722 0
M  V30 16698 C 1607.94 1.61868 -1.21675 0
M  V30 16699 C 1608.27 1.93206 0.223988 0
M  V30 16700 O 1607.52 1.5657 1.17407 0
M  V30 16701 C 1607.82 2.95462 -2.0109 0
M  V30 16702 C 1607.49 2.83598 -3.50547 0
M  V30 16703 C 1606.15 2.80069 -3.91299 0
M  V30 16704 C 1608.5 2.70295 -4.45635 0
M  V30 16705 C 1605.83 2.61102 -5.25398 0
M  V30 16706 C 1608.18 2.52864 -5.79864 0
M  V30 16707 C 1606.85 2.47722 -6.19831 0
M  V30 16708 H 1606.12 0.592319 -0.445241 0
M  V30 16709 H 1608.76 1.00456 -1.63036 0
M  V30 16710 H 1607.07 3.60935 -1.52424 0
M  V30 16711 H 1608.77 3.52756 -1.90693 0
M  V30 16712 H 1605.36 2.87164 -3.18175 0
M  V30 16713 H 1609.54 2.72073 -4.15078 0
M  V30 16714 H 1604.8 2.55549 -5.55432 0
M  V30 16715 H 1608.97 2.41548 -6.53167 0
M  V30 16716 H 1606.6 2.32784 -7.23682 0
M  V30 16717 N 1608.17 1.14759 1.0802 0
M  V30 16718 C 1609.11 0.781719 2.14393 0
M  V30 16719 C 1610.08 -0.238743 1.60838 0
M  V30 16720 O 1611.27 -0.126879 1.88073 0
M  V30 16721 C 1608.39 0.161293 3.38316 0
M  V30 16722 C 1607.44 1.15256 4.10632 0
M  V30 16723 S 1608.27 2.69159 4.6294 0
M  V30 16724 C 1609.43 2.08517 5.90145 0
M  V30 16725 H 1609.66 1.6827 2.45097 0
M  V30 16726 H 1607.2 0.969222 1.20189 0
M  V30 16727 H 1609.15 -0.190243 4.10059 0
M  V30 16728 H 1607.81 -0.717181 3.05803 0
M  V30 16729 H 1607.01 0.666543 4.99573 0
M  V30 16730 H 1606.61 1.44829 3.4482 0
M  V30 16731 H 1608.9 1.44304 6.61954 0
M  V30 16732 H 1609.84 2.95598 6.4345 0
M  V30 16733 H 1610.25 1.53092 5.43344 0
M  V30 16734 N 1609.65 -1.26251 0.943322 0
M  V30 16735 C 1611.07 -1.45943 0.645966 0
M  V30 16736 C 1611.27 -1.84936 -0.800064 0
M  V30 16737 O 1610.32 -1.97238 -1.57649 0
M  V30 16738 C 1611.64 -2.54017 1.60922 0
M  V30 16739 C 1613.18 -2.67866 1.61916 0
M  V30 16740 C 1613.66 -3.79113 2.56977 0
M  V30 16741 N 1615.15 -3.86509 2.55275 0
M  V30 16742 C 1615.88 -4.72048 3.25513 0
M  V30 16743 N 1615.38 -5.61959 4.05184 0
M  V30 16744 N 1617.17 -4.65913 3.14454 0
M  V30 16745 H 1609.32 -0.992295 1.87796 0
M  V30 16746 H 1611.59 -0.497204 0.80715 0
M  V30 16747 H 1611.29 -2.32197 2.64155 0
M  V30 16748 H 1611.17 -3.51715 1.36294 0
M  V30 16749 H 1613.55 -2.89059 0.594067 0
M  V30 16750 H 1613.64 -1.70604 1.90598 0
M  V30 16751 H 1613.28 -3.58673 3.59605 0
M  V30 16752 H 1613.21 -4.75836 2.25583 0
M  V30 16753 H 1615.7 -3.22229 1.97425 0
M  V30 16754 H 1616.01 -6.24127 4.55725 0
M  V30 16755 H 1614.36 -5.61704 4.09285 0
M  V30 16756 H 1617.55 -3.94675 2.51693 0
M  V30 16757 H 1617.72 -5.32356 3.69461 0
M  V30 16758 N 1611.13 -0.710588 -1.40671 0
M  V30 16759 C 1612.09 -0.0635988 -2.29112 0
M  V30 16760 C 1613.09 0.692537 -1.45123 0
M  V30 16761 O 1614.28 0.525184 -1.66095 0
M  V30 16762 C 1611.41 0.919955 -3.28252 0
M  V30 16763 H 1612.61 -0.842477 -2.87823 0
M  V30 16764 H 1610.16 -0.474948 -1.48909 0
M  V30 16765 H 1610.9 1.72607 -2.7455 0
M  V30 16766 H 1610.68 0.38071 -3.90247 0
M  V30 16767 H 1612.17 1.36997 -3.94489 0
M  V30 16768 N 1612.61 1.50847 -0.456408 0
M  V30 16769 C 1613.54 2.26004 0.381421 0
M  V30 16770 C 1614.55 1.30757 0.969872 0
M  V30 16771 O 1615.74 1.56375 0.86077 0
M  V30 16772 C 1612.84 3.01506 1.54748 0
M  V30 16773 C 1612.01 4.23997 1.07448 0
M  V30 16774 C 1611.07 4.81917 2.11288 0
M  V30 16775 O 1610.1 5.43238 1.69945 0
M  V30 16776 N 1611.3 4.67622 3.43962 0
M  V30 16777 H 1614.07 2.98545 -0.262823 0
M  V30 16778 H 1611.63 1.59347 -0.286357 0
M  V30 16779 H 1613.62 3.37137 2.23877 0
M  V30 16780 H 1612.19 2.31856 2.0967 0
M  V30 16781 H 1611.41 3.93642 0.209584 0
M  V30 16782 H 1612.7 5.03446 0.736144 0
M  V30 16783 H 1612.1 4.18821 3.8027 0
M  V30 16784 H 1610.65 5.07562 4.0893 0
M  V30 16785 N 1614.09 0.188454 1.56469 0
M  V30 16786 C 1615.31 -0.457846 2.01771 0
M  V30 16787 C 1615.73 -1.55646 1.06863 0
M  V30 16788 O 1615.09 -1.82356 0.0723619 0
M  V30 16789 C 1615.14 -1.02032 3.46802 0
M  V30 16790 O 1614.86 0.0344536 4.38086 0
M  V30 16791 C 1616.36 -1.74316 4.07589 0
M  V30 16792 H 1613.58 -0.115594 0.660968 0
M  V30 16793 H 1616.12 0.295213 2.02358 0
M  V30 16794 H 1614.28 -1.7238 3.46935 0
M  V30 16795 H 1614.69 -0.383254 5.23098 0
M  V30 16796 H 1616.17 -2.08912 5.1094 0
M  V30 16797 H 1616.64 -2.64445 3.50665 0
M  V30 16798 H 1617.25 -1.0857 4.11209 0
M  V30 16799 N 1615.56 -1.5737 -0.0851874 0
M  V30 16800 C 1616.79 -1.90802 -0.800137 0
M  V30 16801 C 1617.21 -0.783132 -1.71792 0
M  V30 16802 O 1616.56 0.244331 -1.80857 0
M  V30 16803 C 1616.61 -3.2391 -1.60513 0
M  V30 16804 O 1616.34 -4.32072 -0.724253 0
M  V30 16805 C 1617.84 -3.7127 -2.42226 0
M  V30 16806 H 1615.06 -0.630988 -0.228242 0
M  V30 16807 H 1617.6 -2.04414 -0.0594587 0
M  V30 16808 H 1615.76 -3.11867 -2.29822 0
M  V30 16809 H 1616.17 -5.08571 -1.28279 0
M  V30 16810 H 1617.64 -4.67074 -2.94187 0
M  V30 16811 H 1618.12 -2.99606 -3.21143 0
M  V30 16812 H 1618.73 -3.86214 -1.78099 0
M  V30 16813 N 1617.04 0.356258 -1.53521 0
M  V30 16814 C 1618.27 1.11828 -1.74075 0
M  V30 16815 C 1618.68 1.82753 -0.473998 0
M  V30 16816 O 1618.04 1.73899 0.553649 0
M  V30 16817 C 1618.09 2.14149 -2.91243 0
M  V30 16818 O 1617.81 1.4611 -4.13017 0
M  V30 16819 C 1619.31 3.02826 -3.23746 0
M  V30 16820 H 1616.53 0.334002 -0.581965 0
M  V30 16821 H 1619.08 0.412336 -2.003 0
M  V30 16822 H 1617.23 2.80328 -2.67386 0
M  V30 16823 H 1617.65 2.1436 -4.78696 0
M  V30 16824 H 1619.12 3.70583 -4.09112 0
M  V30 16825 H 1619.6 3.68149 -2.39505 0
M  V30 16826 H 1620.2 2.42252 -3.49563 0
M  V30 16827 N 1618.52 1.45038 0.616577 0
M  V30 16828 C 1619.77 1.48805 1.37786 0
M  V30 16829 C 1620.1 0.125811 1.93792 0
M  V30 16830 O 1619.37 -0.858544 1.74526 0
M  V30 16831 C 1619.66 2.56008 2.53242 0
M  V30 16832 C 1619.51 4.01643 2.02491 0
M  V30 16833 C 1620.83 2.59578 3.55398 0
M  V30 16834 H 1617.95 0.541776 0.499647 0
M  V30 16835 H 1620.59 1.76799 0.695859 0
M  V30 16836 H 1618.74 2.32269 3.11422 0
M  V30 16837 H 1620.41 4.36564 1.4903 0
M  V30 16838 H 1618.65 4.12728 1.33559 0
M  V30 16839 H 1619.33 4.72326 2.85679 0
M  V30 16840 H 1621.8 2.80826 3.07044 0
M  V30 16841 H 1620.68 3.36466 4.33684 0
M  V30 16842 H 1620.94 1.64325 4.10426 0
M  V30 16843 N 1620 -0.858287 1.32179 0
M  V30 16844 C 1620.93 -1.98219 1.23415 0
M  V30 16845 C 1621.91 -1.69685 0.118779 0
M  V30 16846 O 1623.09 -1.91785 0.305342 0
M  V30 16847 C 1620.22 -3.33977 0.952725 0
M  V30 16848 C 1619.18 -3.76853 2.02894 0
M  V30 16849 C 1618.5 -5.10201 1.59999 0
M  V30 16850 C 1619.8 -3.92707 3.44352 0
M  V30 16851 H 1621.5 -2.05809 2.17446 0
M  V30 16852 H 1619.04 -0.988817 1.04682 0
M  V30 16853 H 1621 -4.12152 0.87798 0
M  V30 16854 H 1619.72 -3.26592 -0.023234 0
M  V30 16855 H 1618.38 -3.00926 2.09378 0
M  V30 16856 H 1618.03 -4.99268 0.61157 0
M  V30 16857 H 1617.73 -5.39859 2.32004 0
M  V30 16858 H 1619.25 -5.90873 1.53954 0
M  V30 16859 H 1620.67 -4.61246 3.40477 0
M  V30 16860 H 1619.06 -4.33779 4.14675 0
M  V30 16861 H 1620.13 -2.95731 3.8428 0
M  V30 16862 N 1621.48 -1.1533 -1.07409 0
M  V30 16863 C 1622.39 -0.863514 -2.1813 0
M  V30 16864 C 1623.4 0.159954 -1.73263 0
M  V30 16865 O 1624.58 -0.0139818 -2.01395 0
M  V30 16866 C 1621.64 -0.356271 -3.44865 0
M  V30 16867 C 1620.7 -1.44356 -4.04302 0
M  V30 16868 C 1619.94 -0.960429 -5.24987 0
M  V30 16869 O 1620.16 0.194227 -5.70069 0
M  V30 16870 O 1619.09 -1.74387 -5.76084 0
M  V30 16871 H 1622.92 -1.78909 -2.45408 0
M  V30 16872 H 1620.5 -0.932362 -1.16736 0
M  V30 16873 H 1622.39 -0.0798183 -4.21324 0
M  V30 16874 H 1621.06 0.541445 -3.1914 0
M  V30 16875 H 1619.97 -1.77361 -3.29384 0
M  V30 16876 H 1621.3 -2.31617 -4.34298 0
M  V30 16877 N 1622.95 1.25748 -0.950004 0
M  V30 16878 C 1623.9 2.26061 -0.46531 0
M  V30 16879 C 1624.87 1.59021 0.479742 0
M  V30 16880 O 1626.06 1.86687 0.394011 0
M  V30 16881 C 1623.2 3.44156 0.255146 0
M  V30 16882 C 1622.31 4.25846 -0.726604 0
M  V30 16883 C 1621.44 5.31198 0.0159429 0
M  V30 16884 C 1620.48 6.04572 -0.957046 0
M  V30 16885 N 1619.62 7.0167 -0.245676 0
M  V30 16886 H 1624.46 2.66891 -1.32563 0
M  V30 16887 H 1622 1.31216 -0.664882 0
M  V30 16888 H 1623.95 4.11465 0.689381 0
M  V30 16889 H 1622.58 3.04213 1.07954 0
M  V30 16890 H 1621.64 3.58242 -1.27933 0
M  V30 16891 H 1622.95 4.76669 -1.46928 0
M  V30 16892 H 1622.1 6.04561 0.509037 0
M  V30 16893 H 1620.84 4.81235 0.791442 0
M  V30 16894 H 1619.85 5.30028 -1.46118 0
M  V30 16895 H 1621.07 6.56624 -1.7327 0
M  V30 16896 H 1619.02 6.54005 0.51117 0
M  V30 16897 H 1618.93 7.50289 -0.927527 0
M  V30 16898 H 1620.2 7.79172 0.226034 0
M  V30 16899 N 1624.43 0.718038 1.40292 0
M  V30 16900 C 1625.66 0.267937 2.04855 0
M  V30 16901 C 1626.07 -1.09615 1.54211 0
M  V30 16902 O 1625.41 -1.70055 0.694754 0
M  V30 16903 C 1625.47 0.172691 3.59085 0
M  V30 16904 C 1625.14 1.47246 4.32629 0
M  V30 16905 C 1626.14 2.41487 4.60413 0
M  V30 16906 C 1623.82 1.73207 4.71492 0
M  V30 16907 C 1625.81 3.59932 5.26049 0
M  V30 16908 C 1623.5 2.91933 5.3686 0
M  V30 16909 C 1624.5 3.85118 5.64068 0
M  V30 16910 O 1624.19 5.01762 6.28085 0
M  V30 16911 H 1623.92 0.117734 0.665669 0
M  V30 16912 H 1626.47 0.977621 1.80643 0
M  V30 16913 H 1624.7 -0.592957 3.82127 0
M  V30 16914 H 1626.39 -0.243171 4.05171 0
M  V30 16915 H 1627.16 2.22695 4.3085 0
M  V30 16916 H 1623.04 1.01528 4.49681 0
M  V30 16917 H 1626.58 4.32683 5.47203 0
M  V30 16918 H 1622.48 3.10633 5.65842 0
M  V30 16919 H 1623.25 5.01872 6.46581 0
M  V30 16920 N 1625.91 -1.50602 0.464402 0
M  V30 16921 C 1626.86 -2.28382 -0.333234 0
M  V30 16922 C 1627.83 -1.3314 -0.993125 0
M  V30 16923 O 1629.01 -1.62072 -1.00685 0
M  V30 16924 C 1626.15 -3.14841 -1.41313 0
M  V30 16925 C 1625.27 -4.25106 -0.768684 0
M  V30 16926 C 1624.4 -4.98833 -1.82591 0
M  V30 16927 C 1623.44 -6.00982 -1.16135 0
M  V30 16928 N 1622.58 -6.68012 -2.16112 0
M  V30 16929 H 1627.42 -2.96096 0.336354 0
M  V30 16930 H 1624.95 -1.46022 0.17772 0
M  V30 16931 H 1626.91 -3.63314 -2.05082 0
M  V30 16932 H 1625.54 -2.49186 -2.05197 0
M  V30 16933 H 1624.59 -3.80395 -0.0185964 0
M  V30 16934 H 1625.91 -4.98204 -0.243759 0
M  V30 16935 H 1625.06 -5.50991 -2.53957 0
M  V30 16936 H 1623.8 -4.25426 -2.38462 0
M  V30 16937 H 1622.8 -5.4809 -0.43328 0
M  V30 16938 H 1624.03 -6.76358 -0.609612 0
M  V30 16939 H 1621.97 -5.97401 -2.71013 0
M  V30 16940 H 1621.89 -7.36963 -1.68586 0
M  V30 16941 H 1623.16 -7.2479 -2.86879 0
M  V30 16942 N 1627.39 -0.19675 -1.56367 0
M  V30 16943 C 1628.63 0.442238 -1.97919 0
M  V30 16944 C 1628.97 1.61156 -1.08362 0
M  V30 16945 O 1628.24 1.94024 -0.135969 0
M  V30 16946 C 1628.53 0.90078 -3.48652 0
M  V30 16947 C 1628.38 -0.270471 -4.48986 0
M  V30 16948 C 1629.7 1.7657 -4.03126 0
M  V30 16949 H 1626.82 0.159276 -0.719583 0
M  V30 16950 H 1629.46 -0.288004 -1.87805 0
M  V30 16951 H 1627.61 1.52302 -3.57402 0
M  V30 16952 H 1629.28 -0.908176 -4.52272 0
M  V30 16953 H 1627.52 -0.921973 -4.23889 0
M  V30 16954 H 1628.19 0.0929101 -5.51922 0
M  V30 16955 H 1630.67 1.24091 -3.97166 0
M  V30 16956 H 1629.55 2.0555 -5.0896 0
M  V30 16957 H 1629.81 2.72047 -3.48486 0
M  V30 16958 N 1628.87 1.57413 0.0768405 0
M  V30 16959 C 1629.82 1.99785 1.09864 0
M  V30 16960 C 1630.8 0.879104 1.34761 0
M  V30 16961 O 1631.99 1.143 1.35146 0
M  V30 16962 C 1629.12 2.44111 2.41381 0
M  V30 16963 C 1628.21 3.62709 2.1978 0
M  V30 16964 N 1628.6 4.77051 1.68094 0
M  V30 16965 C 1626.9 3.6916 2.50273 0
M  V30 16966 C 1627.6 5.58921 1.6119 0
M  V30 16967 N 1626.57 5.0262 2.07061 0
M  V30 16968 H 1630.38 2.85631 0.692257 0
M  V30 16969 H 1627.89 1.59898 0.283993 0
M  V30 16970 H 1629.89 2.72703 3.15339 0
M  V30 16971 H 1628.55 1.59649 2.82741 0
M  V30 16972 H 1629.56 4.99443 1.3703 0
M  V30 16973 H 1626.23 2.95401 2.95033 0
M  V30 16974 H 1627.62 6.60708 1.22125 0
M  V30 16975 N 1630.34 -0.348112 1.53707 0
M  V30 16976 C 1631.29 -1.44755 1.82068 0
M  V30 16977 C 1632.29 -1.54672 0.690865 0
M  V30 16978 O 1633.49 -1.5735 0.874123 0
M  V30 16979 H 1629.87 -0.482562 0.576747 0
M  V30 16980 H 1631.84 -1.18047 2.74058 0
M  V30 16981 C 1630.59 -2.81345 2.04305 0
M  V30 16982 H 1629.91 -2.74479 2.90691 0
M  V30 16983 H 1631.35 -3.57405 2.28117 0
M  V30 16984 C 1629.81 -3.26586 0.827224 0
M  V30 16985 O 1630.34 -4.01693 0.0244098 0
M  V30 16986 N 1628.55 -2.83335 0.645731 0
M  V30 16987 H 1628.09 -2.22379 1.3002 0
M  V30 16988 H 1628.05 -3.1396 -0.166313 0
M  V30 16989 N 1631.82 -1.45363 -0.608876 0
M  V30 16990 C 1633.23 -1.43794 -1.19081 0
M  V30 16991 C 1633.58 -0.164874 -1.95506 0
M  V30 16992 O 1632.71 0.733623 -2.03585 0
M  V30 16993 C 1633.3 -2.60506 -2.16615 0
M  V30 16994 C 1631.86 -2.62061 -2.70187 0
M  V30 16995 C 1631.01 -2.36018 -1.4557 0
M  V30 16996 H 1633.96 -1.53622 -0.39826 0
M  V30 16997 H 1633.98 -2.34531 -2.99625 0
M  V30 16998 H 1633.49 -3.53147 -1.60963 0
M  V30 16999 H 1631.6 -1.73423 -3.2978 0
M  V30 17000 H 1631.71 -3.61242 -3.14708 0
M  V30 17001 H 1630.07 -1.8555 -1.74481 0
M  V30 17002 H 1630.86 -3.30802 -0.917884 0
M  V30 17003 N 1633.3 0.851265 -1.32632 0
M  V30 17004 C 1634.53 1.63805 -1.26394 0
M  V30 17005 C 1634.94 1.88056 0.167454 0
M  V30 17006 O 1634.3 1.45196 1.10564 0
M  V30 17007 C 1634.35 2.9954 -2.02381 0
M  V30 17008 O 1634.07 2.76361 -3.39935 0
M  V30 17009 C 1635.57 3.93982 -2.03207 0
M  V30 17010 H 1632.79 0.510088 -0.435948 0
M  V30 17011 H 1635.34 1.06123 -1.74809 0
M  V30 17012 H 1633.49 3.53859 -1.5768 0
M  V30 17013 H 1633.91 3.62708 -3.78871 0
M  V30 17014 H 1635.38 4.86478 -2.60851 0
M  V30 17015 H 1635.86 4.27211 -1.01918 0
M  V30 17016 H 1636.46 3.45601 -2.47871 0
M  V30 17017 N 1634.78 1.15898 1.06796 0
M  V30 17018 C 1636.19 0.945837 1.60968 0
M  V30 17019 C 1636.54 -0.511507 1.89415 0
M  V30 17020 O 1635.67 -1.38372 1.66379 0
M  V30 17021 C 1636.26 1.71054 2.92448 0
M  V30 17022 C 1634.82 1.54252 3.43341 0
M  V30 17023 C 1633.97 1.72253 2.17311 0
M  V30 17024 H 1636.92 1.30842 0.898118 0
M  V30 17025 H 1636.94 1.18336 3.61631 0
M  V30 17026 H 1636.45 2.77117 2.71712 0
M  V30 17027 H 1634.55 0.506082 3.69147 0
M  V30 17028 H 1634.66 2.32314 4.19007 0
M  V30 17029 H 1633.03 1.14952 2.27284 0
M  V30 17030 H 1633.81 2.79693 1.99064 0
M  V30 17031 N 1636.26 -1.25243 0.956659 0
M  V30 17032 C 1637.19 -2.28159 0.496574 0
M  V30 17033 C 1638.17 -1.63814 -0.458132 0
M  V30 17034 O 1639.35 -1.90897 -0.356648 0
M  V30 17035 C 1636.48 -3.46573 -0.22454 0
M  V30 17036 C 1635.44 -4.2311 0.645104 0
M  V30 17037 C 1634.76 -5.343 -0.206867 0
M  V30 17038 C 1636.06 -4.85562 1.92422 0
M  V30 17039 H 1637.76 -2.66895 1.35675 0
M  V30 17040 H 1635.3 -1.28301 0.653827 0
M  V30 17041 H 1637.26 -4.17695 -0.55755 0
M  V30 17042 H 1635.98 -3.06833 -1.11898 0
M  V30 17043 H 1634.64 -3.53774 0.961228 0
M  V30 17044 H 1634.29 -4.908 -1.10112 0
M  V30 17045 H 1633.99 -5.86423 0.371714 0
M  V30 17046 H 1635.51 -6.08253 -0.534798 0
M  V30 17047 H 1636.92 -5.48817 1.65749 0
M  V30 17048 H 1635.32 -5.47871 2.44862 0
M  V30 17049 H 1636.39 -4.07634 2.62607 0
M  V30 17050 N 1637.73 -0.725468 -1.3991 0
M  V30 17051 C 1638.98 -0.266188 -1.99936 0
M  V30 17052 C 1639.3 1.15022 -1.58207 0
M  V30 17053 O 1640.5 1.70853 -2.11001 0
M  V30 17054 C 1638.96 -0.424978 -3.57382 0
M  V30 17055 C 1638.57 -1.84866 -4.08079 0
M  V30 17056 C 1640.31 -0.0269907 -4.24491 0
M  V30 17057 C 1638.22 -1.95751 -5.58064 0
M  V30 17058 H 1637.15 -0.0957688 -0.747893 0
M  V30 17059 H 1639.8 -0.89798 -1.60027 0
M  V30 17060 H 1638.18 0.275558 -3.9504 0
M  V30 17061 H 1639.35 -2.58037 -3.81776 0
M  V30 17062 H 1637.67 -2.199 -3.536 0
M  V30 17063 H 1640.27 -0.0874638 -5.34628 0
M  V30 17064 H 1640.61 1.01639 -4.03702 0
M  V30 17065 H 1641.14 -0.678332 -3.91974 0
M  V30 17066 H 1637.88 -2.98244 -5.83721 0
M  V30 17067 H 1637.4 -1.27004 -5.862 0
M  V30 17068 H 1639.08 -1.73422 -6.23325 0
M  V30 17069 N 1639.21 1.50354 -0.472382 0
M  V30 17070 C 1640.46 2.02633 0.0822846 0
M  V30 17071 C 1640.79 1.35358 1.39254 0
M  V30 17072 O 1640.07 0.479714 1.88491 0
M  V30 17073 C 1640.35 3.59126 0.264742 0
M  V30 17074 C 1640.2 4.3697 -1.06663 0
M  V30 17075 C 1641.52 4.28148 1.01869 0
M  V30 17076 H 1638.64 0.736451 0.0284304 0
M  V30 17077 H 1641.28 1.79661 -0.618224 0
M  V30 17078 H 1639.43 3.7883 0.86141 0
M  V30 17079 H 1641.1 4.28834 -1.69997 0
M  V30 17080 H 1639.35 4.0066 -1.66295 0
M  V30 17081 H 1640.02 5.44736 -0.892592 0
M  V30 17082 H 1642.49 4.12926 0.512931 0
M  V30 17083 H 1641.37 5.37453 1.11515 0
M  V30 17084 H 1641.63 3.91406 2.05557 0
M  V30 17085 N 1640.69 0.205039 1.56261 0
M  V30 17086 C 1641.94 -0.430245 1.97467 0
M  V30 17087 C 1642.26 -1.6146 1.09342 0
M  V30 17088 O 1641.53 -1.95188 0.166836 0
M  V30 17089 H 1640.11 -0.161945 0.729234 0
M  V30 17090 H 1642.77 0.294089 1.92668 0
M  V30 17091 H 1641.87 -0.767699 3.02511 0
M  V30 17092 N 1642.17 -1.57451 -0.0684915 0
M  V30 17093 C 1643.39 -1.92025 -0.78366 0
M  V30 17094 C 1643.82 -0.801743 -1.70158 0
M  V30 17095 O 1643.18 0.245227 -1.79634 0
M  V30 17096 C 1643.23 -3.25563 -1.55051 0
M  V30 17097 O 1642.33 -3.15029 -2.6614 0
M  V30 17098 H 1641.67 -0.628714 -0.213576 0
M  V30 17099 H 1644.2 -2.04569 -0.0357474 0
M  V30 17100 H 1644.21 -3.59516 -1.92905 0
M  V30 17101 H 1642.89 -4.06547 -0.87704 0
M  V30 17102 H 1641.46 -2.9264 -2.31119 0
M  V30 17103 N 1643.65 0.339955 -1.5389 0
M  V30 17104 C 1644.87 1.10417 -1.75564 0
M  V30 17105 C 1645.3 1.81466 -0.495156 0
M  V30 17106 O 1644.66 1.72679 0.552415 0
M  V30 17107 C 1644.7 2.09056 -2.93816 0
M  V30 17108 O 1643.81 3.16645 -2.64215 0
M  V30 17109 H 1643.15 0.319164 -0.582263 0
M  V30 17110 H 1645.68 0.389251 -2.00863 0
M  V30 17111 H 1645.69 2.52215 -3.20705 0
M  V30 17112 H 1644.36 1.56741 -3.85234 0
M  V30 17113 H 1642.94 2.78278 -2.48225 0
M  V30 17114 N 1645.13 1.45684 0.601159 0
M  V30 17115 C 1646.37 1.49308 1.3561 0
M  V30 17116 C 1646.69 0.141561 1.95087 0
M  V30 17117 O 1647.89 0.0554805 2.71443 0
M  V30 17118 C 1646.35 2.63001 2.4568 0
M  V30 17119 C 1645.96 4.04493 1.92586 0
M  V30 17120 C 1647.7 2.75877 3.22633 0
M  V30 17121 C 1645.61 5.09557 3.00176 0
M  V30 17122 H 1644.54 0.555604 0.509726 0
M  V30 17123 H 1647.19 1.71843 0.643606 0
M  V30 17124 H 1645.57 2.33761 3.19643 0
M  V30 17125 H 1646.75 4.4344 1.25289 0
M  V30 17126 H 1645.06 3.96123 1.28358 0
M  V30 17127 H 1647.66 3.51541 4.02893 0
M  V30 17128 H 1648 1.82737 3.74049 0
M  V30 17129 H 1648.53 3.04674 2.5577 0
M  V30 17130 H 1645.27 6.04427 2.53669 0
M  V30 17131 H 1644.79 4.75173 3.6602 0
M  V30 17132 H 1646.47 5.34591 3.64447 0
M  V30 17133 N 1646.6 -0.84422 1.33082 0
M  V30 17134 C 1647.85 -1.59596 1.2399 0
M  V30 17135 C 1648.17 -1.94016 -0.19566 0
M  V30 17136 O 1647.44 -1.60512 -1.12306 0
M  V30 17137 H 1646.02 -0.591727 0.455926 0
M  V30 17138 H 1648.68 -1.00924 1.66735 0
M  V30 17139 H 1647.78 -2.52829 1.82986 0
M  V30 17140 N 1648.08 -1.16463 -1.0618 0
M  V30 17141 C 1649.33 -0.944975 -1.78647 0
M  V30 17142 C 1649.65 0.528486 -1.87702 0
M  V30 17143 O 1648.92 1.38391 -1.38653 0
M  V30 17144 H 1647.5 -0.346637 -0.661704 0
M  V30 17145 H 1650.16 -1.46752 -1.28257 0
M  V30 17146 H 1649.26 -1.36469 -2.80683 0
M  V30 17147 N 1649.56 1.24734 -0.963288 0
M  V30 17148 C 1650.49 2.27892 -0.508667 0
M  V30 17149 C 1651.47 1.64055 0.449438 0
M  V30 17150 O 1652.66 1.91083 0.346519 0
M  V30 17151 C 1649.79 3.46688 0.206157 0
M  V30 17152 C 1648.74 4.22762 -0.667534 0
M  V30 17153 C 1648.07 5.34402 0.178529 0
M  V30 17154 C 1649.37 4.84535 -1.94995 0
M  V30 17155 H 1651.06 2.66171 -1.37088 0
M  V30 17156 H 1648.61 1.27952 -0.660622 0
M  V30 17157 H 1650.56 4.17985 0.535391 0
M  V30 17158 H 1649.28 3.07422 1.10269 0
M  V30 17159 H 1647.94 3.53259 -0.979976 0
M  V30 17160 H 1647.59 4.91377 1.07508 0
M  V30 17161 H 1647.29 5.86218 -0.402808 0
M  V30 17162 H 1648.81 6.08529 0.502533 0
M  V30 17163 H 1650.23 5.4793 -1.68658 0
M  V30 17164 H 1648.62 5.46564 -2.47765 0
M  V30 17165 H 1649.69 4.06236 -2.64765 0
M  V30 17166 N 1651.04 0.732878 1.39523 0
M  V30 17167 C 1651.97 0.106583 2.33257 0
M  V30 17168 C 1652.95 -0.726582 1.53801 0
M  V30 17169 O 1654.13 -0.671994 1.82203 0
M  V30 17170 C 1651.26 -0.803051 3.37888 0
M  V30 17171 C 1650.22 -0.0742048 4.27936 0
M  V30 17172 C 1649.54 -1.10071 5.23248 0
M  V30 17173 C 1650.84 1.08195 5.10971 0
M  V30 17174 H 1652.54 0.889539 2.8588 0
M  V30 17175 H 1650.08 0.429209 1.37455 0
M  V30 17176 H 1652.04 -1.25071 4.02412 0
M  V30 17177 H 1650.76 -1.6181 2.83699 0
M  V30 17178 H 1649.42 0.35381 3.64889 0
M  V30 17179 H 1649.07 -1.90927 4.65356 0
M  V30 17180 H 1648.77 -0.617825 5.84343 0
M  V30 17181 H 1650.29 -1.54812 5.90649 0
M  V30 17182 H 1651.71 0.712835 5.68851 0
M  V30 17183 H 1650.1 1.49433 5.81197 0
M  V30 17184 H 1651.17 1.90463 4.45928 0
M  V30 17185 N 1652.52 -1.50101 0.480349 0
M  V30 17186 C 1653.45 -2.31581 -0.298718 0
M  V30 17187 C 1654.43 -1.38905 -0.981798 0
M  V30 17188 O 1655.61 -1.67823 -0.977188 0
M  V30 17189 C 1652.74 -3.18891 -1.37571 0
M  V30 17190 C 1651.7 -4.20194 -0.813704 0
M  V30 17191 C 1651.02 -4.96302 -1.98968 0
M  V30 17192 C 1652.32 -5.21985 0.181295 0
M  V30 17193 H 1654.02 -2.96961 0.381349 0
M  V30 17194 H 1651.56 -1.42809 0.184842 0
M  V30 17195 H 1653.51 -3.74694 -1.92828 0
M  V30 17196 H 1652.24 -2.51414 -2.08467 0
M  V30 17197 H 1650.9 -3.65506 -0.283034 0
M  V30 17198 H 1650.55 -4.2529 -2.68584 0
M  V30 17199 H 1650.25 -5.64833 -1.61981 0
M  V30 17200 H 1651.77 -5.54943 -2.54698 0
M  V30 17201 H 1653.18 -5.72604 -0.28242 0
M  V30 17202 H 1651.58 -5.98289 0.465916 0
M  V30 17203 H 1652.65 -4.72162 1.10413 0
M  V30 17204 N 1653.99 -0.213323 -1.5615 0
M  V30 17205 C 1654.92 0.695003 -2.22917 0
M  V30 17206 C 1655.9 1.20738 -1.19818 0
M  V30 17207 O 1657.09 1.25289 -1.48379 0
M  V30 17208 C 1654.22 1.90685 -2.9027 0
M  V30 17209 C 1653.17 1.52865 -3.9977 0
M  V30 17210 C 1652.5 2.81859 -4.54378 0
M  V30 17211 C 1653.8 0.724829 -5.17246 0
M  V30 17212 H 1655.49 0.138351 -2.9908 0
M  V30 17213 H 1653.04 0.0651029 -1.43853 0
M  V30 17214 H 1654.99 2.54766 -3.35667 0
M  V30 17215 H 1653.72 2.48833 -2.11541 0
M  V30 17216 H 1652.38 0.911336 -3.55092 0
M  V30 17217 H 1652.02 3.38135 -3.72389 0
M  V30 17218 H 1651.72 2.57291 -5.28275 0
M  V30 17219 H 1653.25 3.46897 -5.02489 0
M  V30 17220 H 1654.66 1.26915 -5.59076 0
M  V30 17221 H 1653.06 0.57656 -5.97324 0
M  V30 17222 H 1654.13 -0.270309 -4.84146 0
M  V30 17223 N 1655.47 1.57485 0.0601405 0
M  V30 17224 C 1656.44 2.03493 1.05467 0
M  V30 17225 C 1657.44 0.933816 1.30907 0
M  V30 17226 O 1658.63 1.19837 1.26431 0
M  V30 17227 C 1655.76 2.42549 2.39547 0
M  V30 17228 H 1656.95 2.92595 0.657893 0
M  V30 17229 H 1654.5 1.53272 0.306183 0
M  V30 17230 H 1655.24 1.56509 2.84034 0
M  V30 17231 H 1655.02 3.22911 2.22421 0
M  V30 17232 H 1656.51 2.7868 3.1101 0
M  V30 17233 N 1656.95 -0.331789 1.54068 0
M  V30 17234 C 1657.88 -1.41332 1.8587 0
M  V30 17235 C 1658.86 -1.54353 0.714787 0
M  V30 17236 O 1660.05 -1.68368 0.967777 0
M  V30 17237 C 1657.18 -2.78218 2.07875 0
M  V30 17238 C 1656.13 -2.79994 3.23709 0
M  V30 17239 C 1655.46 -4.19878 3.31069 0
M  V30 17240 C 1656.76 -2.44476 4.6155 0
M  V30 17241 H 1658.45 -1.14966 2.76447 0
M  V30 17242 H 1656 -0.551615 1.33016 0
M  V30 17243 H 1657.95 -3.53937 2.28706 0
M  V30 17244 H 1656.67 -3.06044 1.14038 0
M  V30 17245 H 1655.33 -2.0673 3.02751 0
M  V30 17246 H 1654.98 -4.44831 2.34807 0
M  V30 17247 H 1654.68 -4.21974 4.08915 0
M  V30 17248 H 1656.2 -4.97421 3.54125 0
M  V30 17249 H 1657.62 -3.09908 4.82317 0
M  V30 17250 H 1656.02 -2.57837 5.41886 0
M  V30 17251 H 1657.09 -1.3964 4.64358 0
M  V30 17252 N 1658.43 -1.46001 -0.593424 0
M  V30 17253 C 1659.68 -1.50025 -1.34816 0
M  V30 17254 C 1659.99 -0.151905 -1.95009 0
M  V30 17255 O 1661.2 -0.0698751 -2.7141 0
M  V30 17256 C 1659.65 -2.643 -2.44282 0
M  V30 17257 C 1659.26 -4.05509 -1.90438 0
M  V30 17258 C 1661 -2.77584 -3.21165 0
M  V30 17259 C 1658.91 -5.11142 -2.97469 0
M  V30 17260 H 1657.84 -0.558299 -0.506772 0
M  V30 17261 H 1660.49 -1.72182 -0.634484 0
M  V30 17262 H 1658.87 -2.35453 -3.18399 0
M  V30 17263 H 1660.05 -4.44099 -1.22935 0
M  V30 17264 H 1658.36 -3.96798 -1.26256 0
M  V30 17265 H 1660.96 -3.53673 -4.01023 0
M  V30 17266 H 1661.3 -1.84718 -3.73075 0
M  V30 17267 H 1661.84 -3.06026 -2.54151 0
M  V30 17268 H 1658.58 -6.05764 -2.5046 0
M  V30 17269 H 1658.1 -4.77107 -3.63495 0
M  V30 17270 H 1659.77 -5.36516 -3.61607 0
M  V30 17271 N 1659.91 0.83715 -1.33527 0
M  V30 17272 C 1661.13 1.62456 -1.28124 0
M  V30 17273 C 1661.55 1.88223 0.147499 0
M  V30 17274 O 1660.91 1.4636 1.09018 0
M  V30 17275 C 1660.96 2.97376 -2.05547 0
M  V30 17276 O 1660.68 2.7274 -3.42847 0
M  V30 17277 C 1662.18 3.91805 -2.07374 0
M  V30 17278 H 1659.4 0.505436 -0.441334 0
M  V30 17279 H 1661.94 1.04263 -1.75925 0
M  V30 17280 H 1660.1 3.52166 -1.61424 0
M  V30 17281 H 1660.51 3.58669 -3.82696 0
M  V30 17282 H 1661.99 4.83684 -2.65996 0
M  V30 17283 H 1662.46 4.26106 -1.06444 0
M  V30 17284 H 1663.07 3.42952 -2.51523 0
M  V30 17285 N 1661.38 1.17024 1.05561 0
M  V30 17286 C 1662.35 0.885897 2.11387 0
M  V30 17287 C 1663.35 -0.122327 1.60334 0
M  V30 17288 O 1664.54 0.109416 1.73856 0
M  V30 17289 C 1661.67 0.32626 3.39335 0
M  V30 17290 H 1662.86 1.82414 2.38045 0
M  V30 17291 H 1660.42 0.980191 1.21745 0
M  V30 17292 H 1661.15 -0.619308 3.18332 0
M  V30 17293 H 1660.94 1.05285 3.777 0
M  V30 17294 H 1662.43 0.145513 4.17346 0
M  V30 17295 N 1662.86 -1.24221 0.969889 0
M  V30 17296 C 1664.11 -1.92638 0.633913 0
M  V30 17297 C 1664.44 -1.75612 -0.829092 0
M  V30 17298 O 1663.72 -1.11057 -1.59677 0
M  V30 17299 C 1664 -3.45583 1.01213 0
M  V30 17300 C 1663.85 -3.71766 2.53199 0
M  V30 17301 C 1665.17 -4.36671 0.548294 0
M  V30 17302 H 1662.29 -0.699608 0.231772 0
M  V30 17303 H 1664.93 -1.46548 1.20929 0
M  V30 17304 H 1663.08 -3.8497 0.522531 0
M  V30 17305 H 1664.75 -3.41925 3.09653 0
M  V30 17306 H 1663 -3.16842 2.963 0
M  V30 17307 H 1663.67 -4.78787 2.74713 0
M  V30 17308 H 1666.14 -4.04672 0.968489 0
M  V30 17309 H 1665.02 -5.42412 0.841472 0
M  V30 17310 H 1665.28 -4.38646 -0.551588 0
M  V30 17311 N 1664.34 -0.740267 -1.39132 0
M  V30 17312 C 1665.27 -0.118951 -2.33197 0
M  V30 17313 C 1666.25 0.718416 -1.54184 0
M  V30 17314 O 1667.44 0.662322 -1.82557 0
M  V30 17315 C 1664.57 0.78512 -3.38309 0
M  V30 17316 C 1663.52 0.0515093 -4.27969 0
M  V30 17317 C 1662.85 1.07295 -5.23824 0
M  V30 17318 C 1664.15 -1.10903 -5.1039 0
M  V30 17319 H 1665.84 -0.904687 -2.85405 0
M  V30 17320 H 1663.39 -0.436493 -1.37225 0
M  V30 17321 H 1665.34 1.22935 -4.03069 0
M  V30 17322 H 1664.06 1.60303 -2.84553 0
M  V30 17323 H 1662.72 -0.373156 -3.64696 0
M  V30 17324 H 1662.37 1.88456 -4.66362 0
M  V30 17325 H 1662.07 0.586827 -5.84662 0
M  V30 17326 H 1663.59 1.51677 -5.91461 0
M  V30 17327 H 1665.01 -0.742993 -5.68465 0
M  V30 17328 H 1663.41 -1.52513 -5.80396 0
M  V30 17329 H 1664.48 -1.92825 -4.44912 0
M  V30 17330 N 1665.82 1.49844 -0.488302 0
M  V30 17331 C 1667.05 2.06519 0.0577968 0
M  V30 17332 C 1667.46 1.35039 1.32519 0
M  V30 17333 O 1666.8 0.418468 1.7887 0
M  V30 17334 C 1666.86 3.57328 0.394577 0
M  V30 17335 C 1666.53 4.50411 -0.773259 0
M  V30 17336 C 1667.52 4.9268 -1.66019 0
M  V30 17337 C 1665.21 4.92875 -0.968465 0
M  V30 17338 C 1667.2 5.76139 -2.72659 0
M  V30 17339 C 1664.89 5.76113 -2.03806 0
M  V30 17340 C 1665.89 6.17648 -2.91548 0
M  V30 17341 O 1665.57 6.99224 -3.96663 0
M  V30 17342 H 1665.31 0.675902 -0.0115057 0
M  V30 17343 H 1667.86 1.93777 -0.681149 0
M  V30 17344 H 1666.09 3.68033 1.18695 0
M  V30 17345 H 1667.78 3.96295 0.877786 0
M  V30 17346 H 1668.55 4.60528 -1.52114 0
M  V30 17347 H 1664.42 4.60056 -0.294936 0
M  V30 17348 H 1667.97 6.08478 -3.41174 0
M  V30 17349 H 1663.87 6.07678 -2.17711 0
M  V30 17350 H 1664.63 7.17507 -3.93861 0
M  V30 17351 N 1667.3 0.221601 1.56034 0
M  V30 17352 C 1668.24 -0.688502 2.20291 0
M  V30 17353 C 1669.21 -1.19028 1.15851 0
M  V30 17354 O 1670.4 -1.24936 1.44206 0
M  V30 17355 C 1667.54 -1.89101 2.88678 0
M  V30 17356 C 1666.65 -1.42812 4.07711 0
M  V30 17357 C 1665.79 -2.5882 4.63881 0
M  V30 17358 C 1664.83 -2.09268 5.75216 0
M  V30 17359 N 1663.96 -3.18549 6.25676 0
M  V30 17360 H 1668.8 -0.133824 2.97699 0
M  V30 17361 H 1666.34 -0.0543007 1.47 0
M  V30 17362 H 1668.3 -2.59704 3.26512 0
M  V30 17363 H 1666.93 -2.41857 2.13788 0
M  V30 17364 H 1665.98 -0.617019 3.75363 0
M  V30 17365 H 1667.29 -1.02478 4.8816 0
M  V30 17366 H 1666.45 -3.37505 5.04158 0
M  V30 17367 H 1665.18 -3.02443 3.82596 0
M  V30 17368 H 1664.19 -1.29045 5.34441 0
M  V30 17369 H 1665.41 -1.66645 6.58336 0
M  V30 17370 H 1663.36 -3.61653 5.47305 0
M  V30 17371 H 1663.28 -2.82466 7.01248 0
M  V30 17372 H 1664.55 -3.97369 6.7061 0
M  V30 17373 N 1668.77 -1.57515 -0.0517878 0
M  V30 17374 C 1670.02 -1.88493 -0.748206 0
M  V30 17375 C 1670.35 -0.816494 -1.76202 0
M  V30 17376 O 1669.63 0.171075 -1.93746 0
M  V30 17377 C 1669.91 -3.30131 -1.43825 0
M  V30 17378 C 1669.76 -4.47648 -0.4395 0
M  V30 17379 C 1671.08 -3.70315 -2.37813 0
M  V30 17380 H 1668.2 -0.68555 -0.270537 0
M  V30 17381 H 1670.84 -1.89997 -0.0111457 0
M  V30 17382 H 1668.99 -3.2898 -2.06651 0
M  V30 17383 H 1670.67 -4.60929 0.185088 0
M  V30 17384 H 1668.91 -4.33117 0.243381 0
M  V30 17385 H 1669.58 -5.43582 -0.96035 0
M  V30 17386 H 1672.06 -3.72687 -1.8505 0
M  V30 17387 H 1670.93 -4.70269 -2.83087 0
M  V30 17388 H 1671.19 -3.0133 -3.23501 0
M  V30 17389 N 1670.25 0.323614 -1.54242 0
M  V30 17390 C 1671.5 1.05947 -1.72104 0
M  V30 17391 C 1671.82 1.88547 -0.497512 0
M  V30 17392 O 1671.09 1.89712 0.488485 0
M  V30 17393 H 1669.67 0.394141 -0.634557 0
M  V30 17394 H 1672.33 0.360063 -1.91545 0
M  V30 17395 H 1671.43 1.72552 -2.60062 0
M  V30 17396 N 1671.73 1.46313 0.585673 0
M  V30 17397 C 1672.98 1.5147 1.34399 0
M  V30 17398 C 1673.31 0.165209 1.93797 0
M  V30 17399 O 1672.56 -0.838796 1.76813 0
M  V30 17400 C 1672.86 2.55895 2.49504 0
M  V30 17401 C 1672.53 3.99997 2.08118 0
M  V30 17402 C 1671.19 4.3923 1.96545 0
M  V30 17403 C 1673.54 4.90532 1.76147 0
M  V30 17404 C 1670.87 5.66867 1.51256 0
M  V30 17405 C 1673.22 6.18603 1.32338 0
M  V30 17406 C 1671.88 6.56745 1.1934 0
M  V30 17407 H 1671.15 0.554268 0.491801 0
M  V30 17408 H 1673.8 1.79774 0.659803 0
M  V30 17409 H 1672.11 2.21241 3.23357 0
M  V30 17410 H 1673.8 2.57116 3.07722 0
M  V30 17411 H 1670.39 3.68983 2.18058 0
M  V30 17412 H 1674.58 4.60942 1.83974 0
M  V30 17413 H 1669.83 5.95194 1.39834 0
M  V30 17414 H 1674.01 6.88185 1.06653 0
M  V30 17415 H 1671.63 7.55542 0.840228 0
M  V30 17416 N 1673.21 -0.830057 1.33969 0
M  V30 17417 C 1674.46 -1.58586 1.25924 0
M  V30 17418 C 1674.78 -1.93732 -0.172685 0
M  V30 17419 O 1674.04 -1.59628 -1.13214 0
M  V30 17420 C 1674.34 -2.90026 2.08853 0
M  V30 17421 C 1674 -2.74204 3.57943 0
M  V30 17422 C 1672.67 -2.69596 3.98587 0
M  V30 17423 C 1675.02 -2.58384 4.52644 0
M  V30 17424 C 1672.35 -2.4708 5.32135 0
M  V30 17425 C 1674.7 -2.37401 5.86365 0
M  V30 17426 C 1673.36 -2.31201 6.26181 0
M  V30 17427 H 1672.63 -0.580306 0.460789 0
M  V30 17428 H 1675.28 -0.960978 1.65643 0
M  V30 17429 H 1673.58 -3.56767 1.6194 0
M  V30 17430 H 1675.28 -3.47576 1.99979 0
M  V30 17431 H 1671.87 -2.78627 3.25676 0
M  V30 17432 H 1676.06 -2.60972 4.22146 0
M  V30 17433 H 1671.31 -2.40733 5.62012 0
M  V30 17434 H 1675.49 -2.24146 6.59342 0
M  V30 17435 H 1673.11 -2.13515 7.29599 0
M  V30 17436 N 1674.69 -1.17582 -1.04939 0
M  V30 17437 C 1675.63 -0.894855 -2.12746 0
M  V30 17438 C 1676.6 0.162261 -1.65306 0
M  V30 17439 O 1677.79 0.0245068 -1.90784 0
M  V30 17440 C 1674.93 -0.417085 -3.4257 0
M  V30 17441 C 1674.04 -1.53861 -4.03672 0
M  V30 17442 C 1673.18 -1.01446 -5.21423 0
M  V30 17443 C 1672.22 -2.11127 -5.74536 0
M  V30 17444 N 1671.35 -1.60169 -6.83586 0
M  V30 17445 H 1676.19 -1.81802 -2.36118 0
M  V30 17446 H 1673.73 -0.906716 -1.15832 0
M  V30 17447 H 1675.69 -0.121619 -4.17023 0
M  V30 17448 H 1674.32 0.469119 -3.19373 0
M  V30 17449 H 1673.37 -1.94975 -3.26633 0
M  V30 17450 H 1674.68 -2.36575 -4.39128 0
M  V30 17451 H 1673.84 -0.672992 -6.02956 0
M  V30 17452 H 1672.58 -0.156795 -4.87448 0
M  V30 17453 H 1671.58 -2.46128 -4.91631 0
M  V30 17454 H 1672.81 -2.97313 -6.10559 0
M  V30 17455 H 1670.75 -0.766783 -6.51503 0
M  V30 17456 H 1670.67 -2.36488 -7.18059 0
M  V30 17457 H 1671.94 -1.28923 -7.68765 0
M  V30 17458 N 1676.17 1.23705 -0.976463 0
M  V30 17459 C 1677.58 1.44179 -0.684434 0
M  V30 17460 C 1677.78 1.86992 0.75075 0
M  V30 17461 O 1676.84 2.01349 1.52365 0
M  V30 17462 C 1678.15 2.49661 -1.676 0
M  V30 17463 C 1679.7 2.63479 -1.68961 0
M  V30 17464 C 1680.17 3.72167 -2.66938 0
M  V30 17465 N 1681.66 3.79605 -2.65433 0
M  V30 17466 C 1682.4 4.63251 -3.37914 0
M  V30 17467 N 1681.9 5.51018 -4.19941 0
M  V30 17468 N 1683.69 4.57412 -3.26697 0
M  V30 17469 H 1675.84 0.942155 -1.90361 0
M  V30 17470 H 1678.1 0.475629 -0.820049 0
M  V30 17471 H 1677.81 2.25111 -2.70218 0
M  V30 17472 H 1677.68 3.47978 -1.45571 0
M  V30 17473 H 1680.07 2.87382 -0.670497 0
M  V30 17474 H 1680.15 1.65491 -1.95055 0
M  V30 17475 H 1679.79 3.49013 -3.68988 0
M  V30 17476 H 1679.72 4.69688 -2.3812 0
M  V30 17477 H 1682.22 3.16882 -2.05899 0
M  V30 17478 H 1682.53 6.11825 -4.72113 0
M  V30 17479 H 1680.87 5.50655 -4.24033 0
M  V30 17480 H 1684.06 3.87863 -2.62069 0
M  V30 17481 H 1684.24 5.22373 -3.83446 0
M  V30 17482 N 1677.64 0.747635 1.38738 0
M  V30 17483 C 1678.58 0.0762364 2.29073 0
M  V30 17484 C 1679.59 -0.690087 1.4745 0
M  V30 17485 O 1680.78 -0.53216 1.70383 0
M  V30 17486 C 1677.88 -0.916136 3.26282 0
M  V30 17487 C 1677.05 -0.2087 4.36902 0
M  V30 17488 C 1676.11 -1.11097 5.14338 0
M  V30 17489 O 1675.14 -0.583722 5.66199 0
M  V30 17490 N 1676.34 -2.43961 5.26748 0
M  V30 17491 H 1679.1 0.852024 2.87334 0
M  V30 17492 H 1676.66 0.597915 1.50455 0
M  V30 17493 H 1678.66 -1.52263 3.74964 0
M  V30 17494 H 1677.23 -1.59304 2.68963 0
M  V30 17495 H 1676.45 0.578435 3.89933 0
M  V30 17496 H 1677.73 0.281061 5.08023 0
M  V30 17497 H 1677.13 -2.89259 4.86154 0
M  V30 17498 H 1675.69 -2.99676 5.78824 0
M  V30 17499 N 1679.12 -1.49583 0.496242 0
M  V30 17500 C 1680.35 -2.06547 -0.0468437 0
M  V30 17501 C 1680.76 -1.3574 -1.31801 0
M  V30 17502 O 1680.1 -0.427948 -1.78646 0
M  V30 17503 C 1680.16 -3.57532 -0.375622 0
M  V30 17504 C 1679.83 -4.49994 0.797134 0
M  V30 17505 C 1680.83 -4.91793 1.6863 0
M  V30 17506 C 1678.51 -4.92355 0.99459 0
M  V30 17507 C 1680.5 -5.74685 2.7571 0
M  V30 17508 C 1678.19 -5.75024 2.06859 0
M  V30 17509 C 1679.19 -6.16093 2.94819 0
M  V30 17510 O 1678.88 -6.9711 4.00366 0
M  V30 17511 H 1678.61 -0.675832 0.0150901 0
M  V30 17512 H 1681.16 -1.93413 0.691416 0
M  V30 17513 H 1679.39 -3.68658 -1.16741 0
M  V30 17514 H 1681.08 -3.96755 -0.856757 0
M  V30 17515 H 1681.85 -4.59715 1.54554 0
M  V30 17516 H 1677.73 -4.59893 0.31933 0
M  V30 17517 H 1681.27 -6.06661 3.44396 0
M  V30 17518 H 1677.17 -6.06514 2.20931 0
M  V30 17519 H 1677.94 -7.15408 3.9766 0
M  V30 17520 N 1680.6 -0.229873 -1.55915 0
M  V30 17521 C 1681.55 0.676809 -2.20653 0
M  V30 17522 C 1682.52 1.18412 -1.16481 0
M  V30 17523 O 1683.7 1.2417 -1.44867 0
M  V30 17524 C 1680.84 1.87567 -2.89677 0
M  V30 17525 C 1679.95 1.40648 -4.08463 0
M  V30 17526 C 1679.09 2.56356 -4.65247 0
M  V30 17527 C 1678.13 2.06215 -5.76318 0
M  V30 17528 N 1677.27 3.15226 -6.27357 0
M  V30 17529 H 1682.11 0.118035 -2.97766 0
M  V30 17530 H 1679.64 0.0465042 -1.47026 0
M  V30 17531 H 1681.6 2.57968 -3.27884 0
M  V30 17532 H 1680.23 2.40719 -2.15067 0
M  V30 17533 H 1679.28 0.597104 -3.75684 0
M  V30 17534 H 1680.59 0.998877 -4.88696 0
M  V30 17535 H 1679.75 3.34827 -5.05941 0
M  V30 17536 H 1678.49 3.0041 -3.84194 0
M  V30 17537 H 1677.49 1.26209 -5.35118 0
M  V30 17538 H 1678.72 1.63151 -6.59211 0
M  V30 17539 H 1676.66 3.58746 -5.49215 0
M  V30 17540 H 1676.58 2.78744 -7.02736 0
M  V30 17541 H 1677.85 3.93807 -6.72708 0
M  V30 17542 N 1682.08 1.5754 0.0434337 0
M  V30 17543 C 1682.99 2.08996 1.06574 0
M  V30 17544 C 1684 1.02544 1.40573 0
M  V30 17545 O 1685.18 1.34192 1.50181 0
M  V30 17546 C 1682.24 2.54723 2.35196 0
M  V30 17547 C 1681.31 3.75595 2.0791 0
M  V30 17548 C 1680.54 4.19132 3.304 0
M  V30 17549 O 1680.76 3.62303 4.40559 0
M  V30 17550 O 1679.7 5.11694 3.16944 0
M  V30 17551 H 1683.52 2.96475 0.658503 0
M  V30 17552 H 1681.11 1.47129 0.259475 0
M  V30 17553 H 1682.99 2.84529 3.1084 0
M  V30 17554 H 1681.66 1.70361 2.75243 0
M  V30 17555 H 1680.57 3.5083 1.2988 0
M  V30 17556 H 1681.9 4.60897 1.72727 0
M  V30 17557 N 1683.56 -0.31543 1.54411 0
M  V30 17558 C 1684.49 -1.41263 1.79221 0
M  V30 17559 C 1685.47 -1.49363 0.642601 0
M  V30 17560 O 1686.65 -1.66648 0.880953 0
M  V30 17561 C 1683.78 -2.79294 1.91605 0
M  V30 17562 C 1682.82 -2.88686 3.13946 0
M  V30 17563 S 1683.66 -2.52259 4.72362 0
M  V30 17564 C 1684.81 -3.92347 4.87663 0
M  V30 17565 H 1685.05 -1.20006 2.72003 0
M  V30 17566 H 1682.58 -0.51273 1.45638 0
M  V30 17567 H 1684.54 -3.58803 1.99425 0
M  V30 17568 H 1683.2 -2.97828 0.997857 0
M  V30 17569 H 1682.39 -3.89896 3.1937 0
M  V30 17570 H 1681.99 -2.17157 3.04498 0
M  V30 17571 H 1684.28 -4.8719 4.70799 0
M  V30 17572 H 1685.23 -3.91901 5.89762 0
M  V30 17573 H 1685.64 -3.81679 4.1591 0
M  V30 17574 N 1685.03 -1.46622 -0.577906 0
M  V30 17575 C 1685.97 -1.52068 -1.70148 0
M  V30 17576 C 1686.95 -0.374405 -1.58231 0
M  V30 17577 O 1688.13 -0.579245 -1.79379 0
M  V30 17578 C 1685.26 -1.40377 -3.0824 0
M  V30 17579 C 1684.3 -2.59247 -3.38664 0
M  V30 17580 S 1685.14 -4.21576 -3.30203 0
M  V30 17581 C 1686.29 -4.12401 -4.70825 0
M  V30 17582 H 1686.52 -2.4713 -1.6527 0
M  V30 17583 H 1684.06 -1.34567 -0.757045 0
M  V30 17584 H 1686.02 -1.34318 -3.87903 0
M  V30 17585 H 1684.68 -0.467354 -3.10604 0
M  V30 17586 H 1683.87 -2.47073 -4.39285 0
M  V30 17587 H 1683.47 -2.6232 -2.66579 0
M  V30 17588 H 1685.76 -3.79378 -5.61319 0
M  V30 17589 H 1686.71 -5.13037 -4.88056 0
M  V30 17590 H 1687.11 -3.43578 -4.479 0
M  V30 17591 N 1686.51 0.822941 -1.34408 0
M  V30 17592 C 1687.42 1.96567 -1.28056 0
M  V30 17593 C 1688.44 1.72979 -0.188251 0
M  V30 17594 O 1689.61 1.97084 -0.41472 0
M  V30 17595 C 1686.68 3.30865 -1.03583 0
M  V30 17596 C 1685.74 3.67461 -2.2197 0
M  V30 17597 C 1684.97 4.9535 -1.98655 0
M  V30 17598 O 1685.2 5.62521 -0.944785 0
M  V30 17599 O 1684.13 5.29824 -2.85605 0
M  V30 17600 H 1687.96 2.0487 -2.24192 0
M  V30 17601 H 1685.54 0.958334 -1.14614 0
M  V30 17602 H 1687.42 4.11298 -0.917162 0
M  V30 17603 H 1686.1 3.2353 -0.104868 0
M  V30 17604 H 1685.01 2.87472 -2.39396 0
M  V30 17605 H 1686.34 3.79481 -3.13456 0
M  V30 17606 N 1687.99 1.18137 1.04314 0
M  V30 17607 C 1688.9 0.921044 2.15764 0
M  V30 17608 C 1689.92 -0.11396 1.73626 0
M  V30 17609 O 1691.09 0.0673733 2.01287 0
M  V30 17610 C 1688.16 0.447581 3.43799 0
M  V30 17611 C 1687.22 1.55025 4.00332 0
M  V30 17612 C 1686.45 1.09928 5.22256 0
M  V30 17613 O 1686.67 -0.0430152 5.70384 0
M  V30 17614 O 1685.61 1.896 5.71258 0
M  V30 17615 H 1689.43 1.85353 2.40579 0
M  V30 17616 H 1687.02 0.962985 1.14223 0
M  V30 17617 H 1688.9 0.191497 4.20965 0
M  V30 17618 H 1687.58 -0.456641 3.20463 0
M  V30 17619 H 1686.48 1.86032 3.24566 0
M  V30 17620 H 1687.82 2.4305 4.28004 0
M  V30 17621 N 1689.47 -1.23186 0.98301 0
M  V30 17622 C 1690.43 -2.22979 0.530366 0
M  V30 17623 C 1691.43 -1.56211 -0.381421 0
M  V30 17624 O 1692.62 -1.73321 -0.17475 0
M  V30 17625 C 1689.75 -3.40124 -0.229882 0
M  V30 17626 H 1690.95 -2.64539 1.41277 0
M  V30 17627 H 1688.5 -1.36064 0.769172 0
M  V30 17628 H 1689.23 -3.04024 -1.12871 0
M  V30 17629 H 1689.02 -3.89794 0.424653 0
M  V30 17630 H 1690.51 -4.14158 -0.535078 0
M  V30 17631 N 1690.95 -0.754982 -1.38339 0
M  V30 17632 C 1691.89 -0.117579 -2.32303 0
M  V30 17633 C 1692.89 0.703759 -1.5409 0
M  V30 17634 O 1694.09 0.602701 -1.6961 0
M  V30 17635 H 1690.47 -0.0192276 -0.751754 0
M  V30 17636 H 1692.44 -0.926113 -2.83665 0
M  V30 17637 C 1691.19 0.760239 -3.39287 0
M  V30 17638 H 1690.51 0.137619 -3.99563 0
M  V30 17639 H 1691.95 1.17349 -4.07437 0
M  V30 17640 C 1690.41 1.90347 -2.77974 0
M  V30 17641 O 1690.94 2.99773 -2.67393 0
M  V30 17642 N 1689.15 1.69895 -2.35763 0
M  V30 17643 H 1688.69 0.808926 -2.44569 0
M  V30 17644 H 1688.65 2.46557 -1.95082 0
M  V30 17645 N 1692.42 1.49318 -0.504168 0
M  V30 17646 C 1693.67 2.02062 0.039149 0
M  V30 17647 C 1693.99 1.38577 1.37191 0
M  V30 17648 O 1693.26 0.542179 1.88248 0
M  V30 17649 H 1691.84 0.746796 0.0174575 0
M  V30 17650 H 1694.51 1.83308 -0.66213 0
M  V30 17651 H 1693.6 3.11656 0.166496 0
M  V30 17652 N 1693.9 0.238138 1.5579 0
M  V30 17653 C 1694.83 -0.697701 2.18323 0
M  V30 17654 C 1695.85 -1.1453 1.15701 0
M  V30 17655 O 1697.04 -1.07359 1.42605 0
M  V30 17656 C 1694.14 -1.95895 2.76547 0
M  V30 17657 C 1693.31 -1.66422 4.04503 0
M  V30 17658 C 1692.37 -2.77419 4.4713 0
M  V30 17659 O 1691.39 -2.45179 5.13689 0
M  V30 17660 N 1692.6 -4.06731 4.14187 0
M  V30 17661 H 1695.36 -0.162705 2.99258 0
M  V30 17662 H 1692.92 0.0577602 1.61797 0
M  V30 17663 H 1694.91 -2.69374 3.02026 0
M  V30 17664 H 1693.48 -2.40398 1.99819 0
M  V30 17665 H 1692.7 -0.76505 3.86705 0
M  V30 17666 H 1693.99 -1.44183 4.87943 0
M  V30 17667 H 1693.39 -4.3576 3.60735 0
M  V30 17668 H 1691.95 -4.76701 4.44521 0
M  V30 17669 N 1695.38 -1.57561 -0.0350783 0
M  V30 17670 C 1696.63 -1.88177 -0.726105 0
M  V30 17671 C 1696.94 -0.835856 -1.76841 0
M  V30 17672 O 1698.15 -1.03105 -2.51161 0
M  V30 17673 C 1696.6 -3.33924 -1.34249 0
M  V30 17674 C 1696.21 -4.46732 -0.336845 0
M  V30 17675 C 1697.96 -3.73696 -2.01374 0
M  V30 17676 C 1695.86 -5.83536 -0.961234 0
M  V30 17677 H 1694.79 -0.702082 -0.274948 0
M  V30 17678 H 1697.44 -1.83489 0.0197081 0
M  V30 17679 H 1695.83 -3.33337 -2.13781 0
M  V30 17680 H 1697 -4.58777 0.431323 0
M  V30 17681 H 1695.32 -4.15753 0.231983 0
M  V30 17682 H 1697.91 -4.7322 -2.48931 0
M  V30 17683 H 1698.26 -3.05379 -2.8293 0
M  V30 17684 H 1698.79 -3.76431 -1.28626 0
M  V30 17685 H 1695.53 -6.55238 -0.185217 0
M  V30 17686 H 1695.05 -5.75223 -1.69938 0
M  V30 17687 H 1696.73 -6.30071 -1.47035 0
M  V30 17688 N 1696.86 0.307236 -1.54576 0
M  V30 17689 C 1697.82 1.36178 -1.84359 0
M  V30 17690 C 1698.82 1.43971 -0.716163 0
M  V30 17691 O 1700.01 1.43715 -0.98446 0
M  V30 17692 C 1697.14 2.74733 -2.01828 0
M  V30 17693 H 1698.34 1.11017 -2.78595 0
M  V30 17694 H 1695.89 0.543582 -1.46543 0
M  V30 17695 H 1696.62 3.05126 -1.09858 0
M  V30 17696 H 1696.41 2.70468 -2.83883 0
M  V30 17697 H 1697.9 3.50992 -2.26261 0
M  V30 17698 N 1698.34 1.46926 0.570122 0
M  V30 17699 C 1699.75 1.469 1.15227 0
M  V30 17700 C 1700.1 0.216651 1.95 0
M  V30 17701 O 1699.22 -0.679388 2.05459 0
M  V30 17702 C 1699.82 2.66158 2.09632 0
M  V30 17703 C 1698.38 2.69133 2.63144 0
M  V30 17704 C 1697.52 2.39795 1.39262 0
M  V30 17705 H 1700.48 1.54623 0.35739 0
M  V30 17706 H 1700.5 2.42393 2.93302 0
M  V30 17707 H 1700.01 3.5729 1.51543 0
M  V30 17708 H 1698.11 1.82106 3.25066 0
M  V30 17709 H 1698.22 3.69459 3.05019 0
M  V30 17710 H 1696.59 1.9011 1.695 0
M  V30 17711 H 1697.37 3.33119 0.829855 0
M  V30 17712 N 1699.82 -0.815801 1.34842 0
M  V30 17713 C 1700.73 -1.95886 1.29097 0
M  V30 17714 C 1701.74 -1.72876 0.197422 0
M  V30 17715 O 1702.92 -1.96861 0.425166 0
M  V30 17716 C 1699.98 -3.30311 1.05336 0
M  V30 17717 C 1699.04 -3.66279 2.23916 0
M  V30 17718 C 1698.28 -4.9429 2.01279 0
M  V30 17719 O 1698.5 -5.62012 0.974603 0
M  V30 17720 O 1697.43 -5.28302 2.88411 0
M  V30 17721 H 1701.26 -2.03678 2.25276 0
M  V30 17722 H 1698.84 -0.952243 1.1512 0
M  V30 17723 H 1700.73 -4.10806 0.938961 0
M  V30 17724 H 1699.4 -3.2347 0.122024 0
M  V30 17725 H 1698.31 -2.86198 2.40918 0
M  V30 17726 H 1699.64 -3.77814 3.15464 0
M  V30 17727 N 1701.29 -1.18689 -1.03686 0
M  V30 17728 C 1702.24 -0.91384 -2.13897 0
M  V30 17729 C 1703.24 0.127333 -1.68921 0
M  V30 17730 O 1704.44 -0.0211711 -1.79988 0
M  V30 17731 H 1700.82 -0.278067 -0.698701 0
M  V30 17732 H 1702.79 -1.85013 -2.34122 0
M  V30 17733 C 1701.54 -0.460259 -3.4464 0
M  V30 17734 H 1700.86 -1.25294 -3.7966 0
M  V30 17735 H 1702.3 -0.308239 -4.22878 0
M  V30 17736 C 1700.76 0.824485 -3.26656 0
M  V30 17737 O 1701.29 1.8878 -3.54577 0
M  V30 17738 N 1699.49 0.778588 -2.79976 0
M  V30 17739 H 1699.04 -0.0869543 -2.57453 0
M  V30 17740 H 1699 1.6386 -2.68323 0
M  V30 17741 N 1702.77 1.22662 -0.989529 0
M  V30 17742 C 1704.02 1.90944 -0.662187 0
M  V30 17743 C 1704.34 1.77477 0.807899 0
M  V30 17744 O 1703.61 1.15985 1.57874 0
M  V30 17745 H 1702.19 0.706738 -0.241932 0
M  V30 17746 H 1704.85 1.49091 -1.25531 0
M  V30 17747 H 1703.95 2.98177 -0.921777 0
M  V30 17748 N 1704.25 0.762308 1.37937 0
M  V30 17749 C 1705.48 0.333458 2.04195 0
M  V30 17750 C 1705.89 -1.04118 1.57496 0
M  V30 17751 O 1705.25 -1.66289 0.751938 0
M  V30 17752 C 1705.3 0.35685 3.59734 0
M  V30 17753 O 1705.02 1.67725 4.04722 0
M  V30 17754 C 1706.52 -0.0847776 4.43219 0
M  V30 17755 H 1703.74 0.141107 0.655995 0
M  V30 17756 H 1706.29 1.03359 1.76457 0
M  V30 17757 H 1704.44 -0.294625 3.86278 0
M  V30 17758 H 1704.86 1.60939 4.99198 0
M  V30 17759 H 1706.33 -0.017252 5.51997 0
M  V30 17760 H 1706.81 -1.13387 4.24311 0
M  V30 17761 H 1707.41 0.538151 4.21882 0
M  V30 17762 N 1705.73 -1.49049 0.51208 0
M  V30 17763 C 1706.66 -2.27264 -0.297278 0
M  V30 17764 C 1707.67 -1.34266 -0.920674 0
M  V30 17765 O 1708.86 -1.59461 -0.80214 0
M  V30 17766 C 1705.96 -3.07042 -1.43452 0
M  V30 17767 C 1705.13 -4.27693 -0.916376 0
M  V30 17768 C 1704.19 -4.89427 -1.93256 0
M  V30 17769 O 1703.22 -5.49171 -1.49666 0
M  V30 17770 N 1704.42 -4.80066 -3.26369 0
M  V30 17771 H 1707.19 -2.97364 0.373445 0
M  V30 17772 H 1704.75 -1.58175 0.3453 0
M  V30 17773 H 1706.74 -3.45213 -2.1121 0
M  V30 17774 H 1705.31 -2.39478 -2.0092 0
M  V30 17775 H 1704.53 -3.94149 -0.0633415 0
M  V30 17776 H 1705.82 -5.05832 -0.548786 0
M  V30 17777 H 1705.22 -4.32646 -3.64464 0
M  V30 17778 H 1703.77 -5.2239 -3.89811 0
M  V30 17779 N 1707.21 -0.246397 -1.55662 0
M  V30 17780 C 1708.43 0.382645 -2.03331 0
M  V30 17781 C 1708.85 1.51573 -1.12566 0
M  V30 17782 O 1708.21 1.81962 -0.139992 0
M  V30 17783 C 1708.26 0.890907 -3.5035 0
M  V30 17784 O 1707.98 -0.197023 -4.37657 0
M  V30 17785 C 1709.48 1.59069 -4.13778 0
M  V30 17786 H 1706.7 0.0909834 -0.664803 0
M  V30 17787 H 1709.24 -0.370113 -2.01123 0
M  V30 17788 H 1707.4 1.59385 -3.53094 0
M  V30 17789 H 1707.81 0.188846 -5.2416 0
M  V30 17790 H 1709.29 1.89805 -5.18342 0
M  V30 17791 H 1709.76 2.51248 -3.60238 0
M  V30 17792 H 1710.37 0.932333 -4.14955 0
M  V30 17793 N 1708.68 1.57577 0.026722 0
M  V30 17794 C 1710.09 1.77689 0.573022 0
M  V30 17795 C 1710.45 0.877771 1.7547 0
M  V30 17796 O 1709.57 0.0732156 2.16276 0
M  V30 17797 C 1710.17 3.22239 1.0463 0
M  V30 17798 C 1708.72 3.4354 1.5381 0
M  V30 17799 C 1707.87 2.73163 0.47722 0
M  V30 17800 H 1710.82 1.57441 -0.199502 0
M  V30 17801 H 1710.84 3.28882 1.91355 0
M  V30 17802 H 1710.36 3.87654 0.186047 0
M  V30 17803 H 1708.46 2.83304 2.42012 0
M  V30 17804 H 1708.57 4.52158 1.58398 0
M  V30 17805 H 1706.93 2.37004 0.932793 0
M  V30 17806 H 1707.72 3.41261 -0.373605 0
M  V30 17807 N 1710.16 -0.299034 1.54737 0
M  V30 17808 C 1711.39 -1.05723 1.7843 0
M  V30 17809 C 1711.81 -1.80089 0.543094 0
M  V30 17810 O 1711.17 -1.74083 -0.506438 0
M  V30 17811 C 1711.22 -2.01193 2.99255 0
M  V30 17812 O 1710.32 -3.09528 2.72518 0
M  V30 17813 H 1709.66 -0.303614 0.590521 0
M  V30 17814 H 1712.19 -0.335859 2.01825 0
M  V30 17815 H 1712.2 -2.43623 3.27279 0
M  V30 17816 H 1710.88 -1.46472 3.89254 0
M  V30 17817 H 1709.45 -2.71599 2.55516 0
M  V30 17818 N 1711.64 -1.47227 -0.562322 0
M  V30 17819 C 1713.05 -1.47509 -1.14446 0
M  V30 17820 C 1713.4 -0.22699 -1.94883 0
M  V30 17821 O 1712.53 0.668483 -2.05816 0
M  V30 17822 C 1713.12 -2.67266 -2.08217 0
M  V30 17823 C 1711.68 -2.70524 -2.61713 0
M  V30 17824 C 1710.83 -2.4053 -1.37988 0
M  V30 17825 H 1713.78 -1.54811 -0.349185 0
M  V30 17826 H 1713.8 -2.43945 -2.92012 0
M  V30 17827 H 1713.31 -3.58089 -1.49646 0
M  V30 17828 H 1711.41 -1.83827 -3.24096 0
M  V30 17829 H 1711.53 -3.71072 -3.03056 0
M  V30 17830 H 1709.89 -1.91007 -1.68489 0
M  V30 17831 H 1710.67 -3.33554 -0.812177 0
M  V30 17832 N 1713.12 0.808639 -1.35273 0
M  V30 17833 C 1714.53 1.38248 -1.25477 0
M  V30 17834 C 1714.88 1.9587 0.113715 0
M  V30 17835 O 1714 1.91141 1.0146 0
M  V30 17836 C 1714.6 2.5133 -2.27197 0
M  V30 17837 C 1713.16 3.04582 -2.21148 0
M  V30 17838 C 1712.31 1.77534 -2.13019 0
M  V30 17839 H 1715.26 0.611844 -1.46431 0
M  V30 17840 H 1715.28 3.29825 -1.89726 0
M  V30 17841 H 1714.79 2.09362 -3.26786 0
M  V30 17842 H 1712.89 3.5102 -1.24963 0
M  V30 17843 H 1713 3.62703 -3.13023 0
M  V30 17844 H 1711.37 1.99004 -1.58964 0
M  V30 17845 H 1712.15 1.3772 -3.14465 0
M  V30 17846 N 1714.6 1.19237 1.03055 0
M  V30 17847 C 1715.82 1.01983 1.80594 0
M  V30 17848 C 1716.25 -0.426875 1.83192 0
M  V30 17849 O 1715.6 -1.30678 1.2567 0
M  V30 17850 C 1715.65 1.59139 3.23585 0
M  V30 17851 O 1714.76 0.819576 4.04174 0
M  V30 17852 H 1714.1 0.360585 0.557561 0
M  V30 17853 H 1716.63 1.58222 1.29719 0
M  V30 17854 H 1716.64 1.62283 3.74337 0
M  V30 17855 H 1715.31 2.64436 3.21009 0
M  V30 17856 H 1713.89 0.861253 3.62818 0
M  V30 17857 N 1716.07 -1.22136 0.99602 0
M  V30 17858 C 1716.98 -2.27869 0.557927 0
M  V30 17859 C 1718 -1.69462 -0.394781 0
M  V30 17860 O 1719.18 -1.99704 -0.26084 0
M  V30 17861 C 1716.24 -3.46501 -0.117434 0
M  V30 17862 C 1715.3 -4.20213 0.878627 0
M  V30 17863 C 1714.54 -5.33181 0.2354 0
M  V30 17864 O 1714.76 -5.62093 -0.969954 0
M  V30 17865 O 1713.69 -5.94486 0.941828 0
M  V30 17866 H 1717.52 -2.67517 1.43765 0
M  V30 17867 H 1715.1 -1.28362 0.764428 0
M  V30 17868 H 1716.99 -4.18476 -0.49559 0
M  V30 17869 H 1715.66 -3.08772 -0.971674 0
M  V30 17870 H 1714.57 -3.50497 1.30777 0
M  V30 17871 H 1715.9 -4.6183 1.70217 0
M  V30 17872 N 1717.55 -0.769612 -1.37531 0
M  V30 17873 C 1718.5 -0.152627 -2.30295 0
M  V30 17874 C 1719.47 0.692154 -1.50992 0
M  V30 17875 O 1720.65 0.64496 -1.79569 0
M  V30 17876 C 1717.79 0.72217 -3.37459 0
M  V30 17877 C 1716.91 -0.138985 -4.31776 0
M  V30 17878 C 1716.04 0.740317 -5.26016 0
M  V30 17879 C 1715.08 -0.1235 -6.11975 0
M  V30 17880 N 1714.22 0.713658 -6.98464 0
M  V30 17881 H 1719.06 -0.949218 -2.82478 0
M  V30 17882 H 1716.6 -0.479697 -1.39059 0
M  V30 17883 H 1718.55 1.24415 -3.98217 0
M  V30 17884 H 1717.18 1.48438 -2.86646 0
M  V30 17885 H 1716.24 -0.778756 -3.72343 0
M  V30 17886 H 1717.55 -0.805402 -4.92255 0
M  V30 17887 H 1716.7 1.32887 -5.91968 0
M  V30 17888 H 1715.44 1.44042 -4.65943 0
M  V30 17889 H 1714.45 -0.7246 -5.45004 0
M  V30 17890 H 1715.67 -0.820907 -6.7412 0
M  V30 17891 H 1713.62 1.39842 -6.40921 0
M  V30 17892 H 1713.53 0.104492 -7.55928 0
M  V30 17893 H 1714.8 1.28667 -7.68808 0
M  V30 17894 O 1719.07 1.47334 -0.661443 0
M  V30 17895 H 1719.76 1.92771 -0.189473 0
M  V30 END ATOM
M  V30 BEGIN BOND
M  V30 END BOND
M  V30 END CTAB
M  END
$$$$
