drugbank_target|P20742 Pregnancy zone protein (DB01593; DB14487; DB14533; DB14548)
 OpenBabel12092121083D

  0  0  0     0  0            999 V3000
M  V30 BEGIN CTAB
M  V30 COUNTS 23050 23288 0 0 0
M  V30 BEGIN ATOM
M  V30 1 H -0.908 1.98254 -0.117106 0
M  V30 2 N 0 1.576 0 0
M  V30 3 C 0.933 2.03868 1.02534 0
M  V30 4 C 1.911 0.928543 1.3348 0
M  V30 5 O 3.095 1.19667 1.45644 0
M  V30 6 C 0.222 2.43627 2.35294 0
M  V30 7 C -0.732 3.65373 2.2001 0
M  V30 8 S 0.101 5.13292 1.52614 0
M  V30 9 C 1.257 5.56322 2.86805 0
M  V30 10 H 1.49 2.90518 0.631377 0
M  V30 11 H -0.977 1.52953 0.210867 0
M  V30 12 H 0.981 2.67203 3.11629 0
M  V30 13 H -0.358 1.57376 2.7183 0
M  V30 14 H -1.165 3.90944 3.18086 0
M  V30 15 H -1.563 3.418 1.51819 0
M  V30 16 H 0.729 5.58782 3.83104 0
M  V30 17 H 1.672 6.56266 2.65933 0
M  V30 18 H 2.08 4.83886 2.90714 0
M  V30 19 N 1.4781 -0.272755 1.55222 0
M  V30 20 C 2.8941 -0.619959 1.47067 0
M  V30 21 C 3.0941 -1.895 0.684978 0
M  V30 22 O 2.1501 -2.51675 0.203931 0
M  V30 23 C 3.4631 -0.746693 2.91282 0
M  V30 24 C 5.0111 -0.840731 3.01497 0
M  V30 25 C 5.4861 -0.99924 4.46967 0
M  V30 26 N 6.9771 -1.06476 4.50796 0
M  V30 27 C 7.7121 -1.20621 5.6057 0
M  V30 28 N 7.2081 -1.31483 6.80209 0
M  V30 29 N 9.0011 -1.23733 5.48312 0
M  V30 30 H 1.1521 0.564606 2.04758 0
M  V30 31 H 3.4151 0.191177 0.928523 0
M  V30 32 H 3.1211 0.119753 3.51496 0
M  V30 33 H 2.9951 -1.6269 3.40311 0
M  V30 34 H 5.3821 -1.69764 2.41379 0
M  V30 35 H 5.4631 0.0640874 2.5572 0
M  V30 36 H 5.1071 -0.146984 5.07687 0
M  V30 37 H 5.0371 -1.91871 4.90401 0
M  V30 38 H 7.5281 -0.993196 3.64615 0
M  V30 39 H 7.8411 -1.42111 7.59621 0
M  V30 40 H 6.1861 -1.28487 6.8302 0
M  V30 41 H 9.3771 -1.14877 4.53785 0
M  V30 42 H 9.5501 -1.34412 6.33906 0
M  V30 43 N 2.9562 -1.48159 -0.537278 0
M  V30 44 C 3.9032 -1.62138 -1.64256 0
M  V30 45 C 4.8732 -0.463668 -1.59497 0
M  V30 46 O 6.0582 -0.686241 -1.78032 0
M  V30 47 C 3.1982 -1.66028 -3.02537 0
M  V30 48 C 2.3112 -2.92855 -3.17585 0
M  V30 49 C 1.4462 -2.87952 -4.46382 0
M  V30 50 C 0.4852 -4.09516 -4.54932 0
M  V30 51 N -0.3778 -4.02733 -5.75109 0
M  V30 52 H 4.4622 -2.56529 -1.51647 0
M  V30 53 H 1.9992 -1.27224 -0.738414 0
M  V30 54 H 3.9572 -1.66265 -3.82638 0
M  V30 55 H 2.5872 -0.751331 -3.13934 0
M  V30 56 H 1.6392 -3.02395 -2.30784 0
M  V30 57 H 2.9512 -3.82822 -3.19764 0
M  V30 58 H 2.1052 -2.8655 -5.34765 0
M  V30 59 H 0.8442 -1.95702 -4.46712 0
M  V30 60 H -0.1508 -4.11201 -3.64957 0
M  V30 61 H 1.0742 -5.02917 -4.56346 0
M  V30 62 H -0.9798 -3.13299 -5.76351 0
M  V30 63 H -1.0628 -4.86397 -5.78752 0
M  V30 64 H 0.2052 -4.05379 -6.65799 0
M  V30 65 N 4.4343 0.785586 -1.36625 0
M  V30 66 C 5.7113 1.53198 -1.21613 0
M  V30 67 C 6.0913 2.10187 0.196113 0
M  V30 68 O 5.4393 1.94318 1.20219 0
M  V30 69 C 5.6493 2.62388 -2.30116 0
M  V30 70 C 6.9973 3.30167 -2.66974 0
M  V30 71 O 8.0213 2.72674 -2.29188 0
M  V30 72 O 6.8803 4.34077 -3.32023 0
M  V30 73 H 3.9743 0.677865 -0.473738 0
M  V30 74 H 6.5203 0.823739 -1.48367 0
M  V30 75 H 5.2923 2.18299 -3.24748 0
M  V30 76 H 4.9153 3.40827 -2.0475 0
M  V30 77 N 5.9124 1.20967 1.01018 0
M  V30 78 C 7.3284 0.965905 1.27053 0
M  V30 79 C 7.5284 -0.350785 1.98423 0
M  V30 80 O 6.5844 -1.07773 2.28344 0
M  V30 81 C 7.8974 2.15294 2.09926 0
M  V30 82 C 9.4454 2.19463 2.23171 0
M  V30 83 C 9.9204 3.3767 3.09424 0
M  V30 84 N 11.4114 3.37724 3.17012 0
M  V30 85 C 12.1464 4.25837 3.83993 0
M  V30 86 N 11.6424 5.24138 4.53047 0
M  V30 87 N 13.4354 4.1366 3.80581 0
M  V30 88 H 5.5864 2.0565 0.531194 0
M  V30 89 H 7.8494 0.90024 0.297106 0
M  V30 90 H 7.5554 3.10684 1.64828 0
M  V30 91 H 7.4294 2.13923 3.10672 0
M  V30 92 H 9.8164 1.24632 2.6749 0
M  V30 93 H 9.8974 2.2488 1.21912 0
M  V30 94 H 9.5414 4.32791 2.65808 0
M  V30 95 H 9.4714 3.29491 4.10784 0
M  V30 96 H 11.9624 2.6658 2.6785 0
M  V30 97 H 12.2754 5.87684 5.01844 0
M  V30 98 H 10.6204 5.28068 4.5185 0
M  V30 99 H 13.8114 3.36127 3.25785 0
M  V30 100 H 13.9844 4.82538 4.32505 0
M  V30 101 N 7.3905 -1.2043 1.01659 0
M  V30 102 C 8.3205 -2.25466 0.607226 0
M  V30 103 C 9.3015 -1.65853 -0.377716 0
M  V30 104 O 10.4865 -1.92409 -0.263149 0
M  V30 105 C 7.6165 -3.47256 -0.0552949 0
M  V30 106 C 6.5705 -4.19462 0.850632 0
M  V30 107 C 5.8965 -5.34673 0.0538859 0
M  V30 108 C 7.1965 -4.75603 2.15868 0
M  V30 109 H 8.8905 -2.59962 1.48526 0
M  V30 110 H 6.4365 -1.2496 0.715605 0
M  V30 111 H 8.3895 -4.19917 -0.353233 0
M  V30 112 H 7.1135 -3.11924 -0.968045 0
M  V30 113 H 5.7725 -3.48667 1.13257 0
M  V30 114 H 5.4205 -4.95585 -0.860514 0
M  V30 115 H 5.1205 -5.83913 0.657192 0
M  V30 116 H 6.6445 -6.10138 -0.237598 0
M  V30 117 H 8.0585 -5.40083 1.92311 0
M  V30 118 H 6.4555 -5.3528 2.71284 0
M  V30 119 H 7.5255 -3.94346 2.82169 0
M  V30 120 N 8.8686 -0.792821 -1.36206 0
M  V30 121 C 9.7986 -0.207853 -2.32573 0
M  V30 122 C 10.7796 0.659055 -1.56813 0
M  V30 123 O 11.9646 0.592176 -1.84951 0
M  V30 124 C 9.0946 0.655449 -3.41059 0
M  V30 125 C 8.0486 -0.111842 -4.27854 0
M  V30 126 C 7.3746 0.872274 -5.27537 0
M  V30 127 C 8.6746 -1.30299 -5.05786 0
M  V30 128 H 10.3686 -1.01294 -2.81744 0
M  V30 129 H 7.9146 -0.48854 -1.3546 0
M  V30 130 H 9.8676 1.07464 -4.07467 0
M  V30 131 H 8.5916 1.49328 -2.90463 0
M  V30 132 H 7.2506 -0.512053 -3.63006 0
M  V30 133 H 6.8986 1.70523 -4.73214 0
M  V30 134 H 6.5986 0.363291 -5.86476 0
M  V30 135 H 8.1226 1.28996 -5.96818 0
M  V30 136 H 9.5366 -0.959379 -5.65216 0
M  V30 137 H 7.9336 -1.7455 -5.74154 0
M  V30 138 H 9.0036 -2.09663 -4.37229 0
M  V30 139 N 10.3467 1.47872 -0.545128 0
M  V30 140 C 11.2967 2.26842 0.229456 0
M  V30 141 C 12.2807 1.33626 0.896267 0
M  V30 142 O 13.4727 1.58063 0.79657 0
M  V30 143 C 10.6017 3.19089 1.26638 0
M  V30 144 C 9.6877 4.19783 0.603598 0
M  V30 145 N 10.0787 5.0479 -0.319405 0
M  V30 146 C 8.3767 4.3765 0.858989 0
M  V30 147 C 9.0777 5.77433 -0.703241 0
M  V30 148 N 8.0537 5.43566 -0.0608309 0
M  V30 149 H 11.8557 2.89947 -0.480391 0
M  V30 150 H 9.3697 1.58263 -0.364209 0
M  V30 151 H 11.3667 3.74337 1.83515 0
M  V30 152 H 10.0267 2.5754 1.97745 0
M  V30 153 H 11.0377 5.13244 -0.692889 0
M  V30 154 H 7.7147 3.87281 1.55948 0
M  V30 155 H 9.1047 6.55824 -1.46098 0
M  V30 156 N 11.8248 0.280983 1.55075 0
M  V30 157 C 12.7548 -0.597469 2.25727 0
M  V30 158 C 13.7358 -1.15417 1.24952 0
M  V30 159 O 14.9208 -1.18722 1.53684 0
M  V30 160 C 12.0508 -1.7789 2.98283 0
M  V30 161 C 11.0048 -1.35347 4.06036 0
M  V30 162 C 10.3308 -2.61846 4.66198 0
M  V30 163 C 11.6308 -0.499354 5.19907 0
M  V30 164 H 13.3248 -0.00824265 2.99399 0
M  V30 165 H 10.8708 -0.0025244 1.44 0
M  V30 166 H 12.8238 -2.39937 3.46422 0
M  V30 167 H 11.5478 -2.39405 2.22155 0
M  V30 168 H 10.2068 -0.756156 3.58717 0
M  V30 169 H 9.8548 -3.21632 3.86732 0
M  V30 170 H 9.5548 -2.3409 5.38958 0
M  V30 171 H 11.0788 -3.24732 5.1709 0
M  V30 172 H 12.4928 -1.02498 5.64063 0
M  V30 173 H 10.8898 -0.316424 5.99265 0
M  V30 174 H 11.9598 0.480459 4.82514 0
M  V30 175 N 13.3029 -1.57598 0.00835791 0
M  V30 176 C 14.5429 -1.92788 -0.679136 0
M  V30 177 C 14.9069 -0.883378 -1.70471 0
M  V30 178 O 16.1079 -1.12079 -2.44319 0
M  V30 179 C 14.3789 -3.32994 -1.29807 0
M  V30 180 S 15.9379 -3.90082 -2.00952 0
M  V30 181 H 12.7559 -0.67475 -0.224127 0
M  V30 182 H 15.3579 -1.95385 0.0670497 0
M  V30 183 H 14.0619 -4.06846 -0.538922 0
M  V30 184 H 13.5929 -3.33791 -2.082 0
M  V30 185 H 15.6079 -3.71834 -3.28563 0
M  V30 186 N 14.781 0.264519 -1.55364 0
M  V30 187 C 15.711 1.33121 -1.91836 0
M  V30 188 C 16.692 1.51101 -0.781192 0
M  V30 189 O 17.877 1.64003 -1.04003 0
M  V30 190 C 15.007 2.68921 -2.19769 0
M  V30 191 C 13.961 2.65661 -3.35571 0
M  V30 192 C 13.287 4.05093 -3.49004 0
M  V30 193 C 14.587 2.24187 -4.71739 0
M  V30 194 H 16.281 1.02844 -2.81182 0
M  V30 195 H 13.827 0.493286 -1.35287 0
M  V30 196 H 15.78 3.43663 -2.43872 0
M  V30 197 H 14.504 3.00799 -1.27231 0
M  V30 198 H 13.163 1.93377 -3.1145 0
M  V30 199 H 12.811 4.34206 -2.53917 0
M  V30 200 H 12.511 4.03804 -4.26868 0
M  V30 201 H 14.035 4.81561 -3.75408 0
M  V30 202 H 15.449 2.88654 -4.9533 0
M  V30 203 H 13.846 2.34044 -5.52579 0
M  V30 204 H 14.916 1.19327 -4.69988 0
M  V30 205 N 16.2591 1.48442 0.529413 0
M  V30 206 C 17.5051 1.5672 1.28711 0
M  V30 207 C 17.8381 0.2406 1.92704 0
M  V30 208 O 17.1131 -0.753454 1.79313 0
M  V30 209 C 17.3961 2.70587 2.37603 0
M  V30 210 C 17.2491 4.12953 1.78297 0
M  V30 211 C 18.5681 2.80212 3.39366 0
M  V30 212 H 15.6871 0.570474 0.466613 0
M  V30 213 H 18.3291 1.80617 0.589706 0
M  V30 214 H 16.4791 2.50342 2.97088 0
M  V30 215 H 18.1511 4.44639 1.22858 0
M  V30 216 H 16.3941 4.19927 1.0883 0
M  V30 217 H 17.0651 4.88448 2.57144 0
M  V30 218 H 19.5411 2.98553 2.89836 0
M  V30 219 H 18.4171 3.61611 4.12951 0
M  V30 220 H 18.6781 1.88393 3.99951 0
M  V30 221 N 17.7372 -0.778329 1.37039 0
M  V30 222 C 18.6672 -1.90546 1.34962 0
M  V30 223 C 19.6482 -1.68681 0.219274 0
M  V30 224 O 20.8332 -1.89634 0.418624 0
M  V30 225 C 17.9632 -3.27734 1.14925 0
M  V30 226 C 16.9172 -3.64147 2.24902 0
M  V30 227 C 16.2432 -4.99806 1.89996 0
M  V30 228 C 17.5432 -3.71579 3.67051 0
M  V30 229 H 19.2372 -1.92541 2.29277 0
M  V30 230 H 16.7832 -0.924948 1.10366 0
M  V30 231 H 18.7362 -4.06215 1.12104 0
M  V30 232 H 17.4602 -3.26154 0.170631 0
M  V30 233 H 16.1192 -2.8797 2.26868 0
M  V30 234 H 15.7672 -4.94759 0.906796 0
M  V30 235 H 15.4672 -5.25139 2.63634 0
M  V30 236 H 16.9912 -5.80694 1.88749 0
M  V30 237 H 18.4052 -4.40227 3.67251 0
M  V30 238 H 16.8022 -4.08405 4.39688 0
M  V30 239 H 17.8722 -2.72404 4.01154 0
M  V30 240 N 19.2153 -1.21501 -1.00376 0
M  V30 241 C 20.1453 -0.999478 -2.11028 0
M  V30 242 C 21.1263 0.0759671 -1.6993 0
M  V30 243 O 22.3113 -0.0841106 -1.94018 0
M  V30 244 C 19.4413 -0.564709 -3.42678 0
M  V30 245 C 18.3953 -1.58486 -3.97576 0
M  V30 246 C 17.7213 -1.00628 -5.25146 0
M  V30 247 C 19.0213 -2.97204 -4.29496 0
M  V30 248 H 20.7153 -1.92495 -2.29317 0
M  V30 249 H 18.2613 -0.92693 -1.102 0
M  V30 250 H 20.2143 -0.401091 -4.19487 0
M  V30 251 H 18.9383 0.396411 -3.24185 0
M  V30 252 H 17.5973 -1.73606 -3.22888 0
M  V30 253 H 17.2453 -0.0368439 -5.02987 0
M  V30 254 H 16.9453 -1.68771 -5.62841 0
M  V30 255 H 18.4693 -0.854015 -6.04598 0
M  V30 256 H 19.8833 -2.8552 -4.97143 0
M  V30 257 H 18.2803 -3.62372 -4.78338 0
M  V30 258 H 19.3503 -3.47956 -3.3772 0
M  V30 259 N 20.6934 1.19889 -1.02296 0
M  V30 260 C 21.6234 2.25141 -0.619174 0
M  V30 261 C 22.6044 1.66051 0.368915 0
M  V30 262 O 23.7894 1.92546 0.252941 0
M  V30 263 C 20.9194 3.4728 0.0368783 0
M  V30 264 C 19.8734 4.19005 -0.872865 0
M  V30 265 C 19.1994 5.34637 -0.0822402 0
M  V30 266 C 20.4994 4.74452 -2.18387 0
M  V30 267 H 22.1934 2.59171 -1.49903 0
M  V30 268 H 19.7394 1.24579 -0.722222 0
M  V30 269 H 21.6924 4.20098 0.330958 0
M  V30 270 H 20.4164 3.12433 0.95149 0
M  V30 271 H 19.0754 3.48061 -1.15105 0
M  V30 272 H 18.7234 4.96034 0.83422 0
M  V30 273 H 18.4234 5.83557 -0.688149 0
M  V30 274 H 19.9474 6.10255 0.205238 0
M  V30 275 H 21.3614 5.39055 -1.95172 0
M  V30 276 H 19.7584 5.33834 -2.74119 0
M  V30 277 H 20.8284 3.92844 -2.84257 0
M  V30 278 N 22.1715 0.800033 1.35784 0
M  V30 279 C 23.4205 0.37387 1.98205 0
M  V30 280 C 23.7335 -1.06302 1.64193 0
M  V30 281 O 24.9395 -1.59198 2.19928 0
M  V30 282 C 23.3955 0.617532 3.54562 0
M  V30 283 C 23.0035 2.06654 3.9749 0
M  V30 284 C 24.7475 0.256401 4.23725 0
M  V30 285 C 22.6545 2.2563 5.46667 0
M  V30 286 H 21.5845 0.136055 0.741623 0
M  V30 287 H 24.2355 0.983166 1.54939 0
M  V30 288 H 22.6175 -0.0616248 3.95952 0
M  V30 289 H 23.7915 2.78296 3.67271 0
M  V30 290 H 22.1065 2.38691 3.41197 0
M  V30 291 H 24.7035 0.376318 5.33374 0
M  V30 292 H 25.0465 -0.796692 4.08606 0
M  V30 293 H 25.5795 0.889214 3.87734 0
M  V30 294 H 22.3185 3.2936 5.66747 0
M  V30 295 H 21.8385 1.58504 5.78478 0
M  V30 296 H 23.5175 2.06861 6.1304 0
M  V30 297 N 23.6496 -1.47581 0.552962 0
M  V30 298 C 24.5796 -2.32762 -0.185451 0
M  V30 299 C 25.5606 -1.43527 -0.912905 0
M  V30 300 O 26.7456 -1.72388 -0.894201 0
M  V30 301 C 23.8756 -3.25219 -1.21859 0
M  V30 302 C 22.8296 -4.23661 -0.607864 0
M  V30 303 C 22.1556 -5.05413 -1.74533 0
M  V30 304 C 23.4556 -5.20481 0.435582 0
M  V30 305 H 25.1496 -2.94749 0.525684 0
M  V30 306 H 22.6956 -1.41738 0.254251 0
M  V30 307 H 24.6486 -3.8365 -1.7433 0
M  V30 308 H 23.3726 -2.61279 -1.95961 0
M  V30 309 H 22.0316 -3.66451 -0.104489 0
M  V30 310 H 21.6796 -4.3788 -2.47529 0
M  V30 311 H 21.3796 -5.72059 -1.34249 0
M  V30 312 H 22.9036 -5.66701 -2.27338 0
M  V30 313 H 24.3176 -5.733 -0.00290157 0
M  V30 314 H 22.7146 -5.95305 0.757067 0
M  V30 315 H 23.7846 -4.66217 1.33303 0
M  V30 316 N 25.1277 -0.289203 -1.54924 0
M  V30 317 C 26.0577 0.58549 -2.2604 0
M  V30 318 C 27.0387 1.14753 -1.25562 0
M  V30 319 O 28.2237 1.17906 -1.54311 0
M  V30 320 C 25.3537 1.76305 -2.99222 0
M  V30 321 C 24.3077 1.33191 -4.06748 0
M  V30 322 C 23.6337 2.5937 -4.6758 0
M  V30 323 C 24.9337 0.471775 -5.20165 0
M  V30 324 H 26.6277 -0.00763532 -2.99399 0
M  V30 325 H 24.1737 -0.00511229 -1.43999 0
M  V30 326 H 26.1267 2.38097 -3.47689 0
M  V30 327 H 24.8507 2.38223 -2.23422 0
M  V30 328 H 23.5097 0.737121 -3.59113 0
M  V30 329 H 23.1577 3.19576 -3.88433 0
M  V30 330 H 22.8577 2.31228 -5.40192 0
M  V30 331 H 24.3817 3.21985 -5.18804 0
M  V30 332 H 25.7957 0.995056 -5.64599 0
M  V30 333 H 24.1927 0.284639 -5.99425 0
M  V30 334 H 25.2627 -0.506041 -4.82252 0
M  V30 335 N 26.6058 1.57591 -0.0167156 0
M  V30 336 C 27.8308 1.9598 0.67872 0
M  V30 337 C 28.2558 0.892546 1.65575 0
M  V30 338 O 27.6138 -0.147772 1.80697 0
M  V30 339 C 27.6618 3.33468 1.37227 0
M  V30 340 O 26.7658 3.28954 2.48722 0
M  V30 341 H 26.1068 0.639339 0.17928 0
M  V30 342 H 28.6368 2.04463 -0.0748802 0
M  V30 343 H 28.6468 3.69417 1.7319 0
M  V30 344 H 27.3218 4.10694 0.656007 0
M  V30 345 H 25.8988 3.04705 2.14963 0
M  V30 346 N 28.0839 -0.256276 1.55502 0
M  V30 347 C 29.0469 -1.30047 1.88734 0
M  V30 348 C 30.0469 -1.4154 0.763086 0
M  V30 349 O 31.2369 -1.40403 1.03115 0
M  V30 350 C 28.3689 -2.67953 2.10747 0
M  V30 351 H 29.5619 -1.01802 2.82093 0
M  V30 352 H 27.1149 -0.495134 1.4825 0
M  V30 353 H 27.8499 -3.01351 1.19825 0
M  V30 354 H 27.6349 -2.60993 2.92617 0
M  V30 355 H 29.1249 -3.43368 2.37673 0
M  V30 356 N 29.562 -1.4872 -0.521534 0
M  V30 357 C 30.787 -1.61101 -1.30618 0
M  V30 358 C 31.212 -0.274611 -1.86085 0
M  V30 359 O 30.57 0.754937 -1.64834 0
M  V30 360 C 30.618 -2.66709 -2.4269 0
M  V30 361 O 29.722 -2.24456 -3.45967 0
M  V30 362 H 29.063 -0.539921 -0.386499 0
M  V30 363 H 31.593 -1.94767 -0.626645 0
M  V30 364 H 31.603 -2.88245 -2.88754 0
M  V30 365 H 30.278 -3.63727 -2.01682 0
M  V30 366 H 28.855 -2.13168 -3.05964 0
M  V30 367 N 31.0401 0.771051 -1.3745 0
M  V30 368 C 32.3171 1.519 -1.23231 0
M  V30 369 C 32.6971 2.10383 0.173809 0
M  V30 370 O 32.0451 1.95583 1.18151 0
M  V30 371 C 32.2551 2.59933 -2.32886 0
M  V30 372 C 33.6031 3.27316 -2.70461 0
M  V30 373 O 34.6271 2.70228 -2.32068 0
M  V30 374 O 33.4861 4.30531 -3.36608 0
M  V30 375 H 30.5801 0.672803 -0.480901 0
M  V30 376 H 33.1261 0.807957 -1.49232 0
M  V30 377 H 31.8981 2.14842 -3.27045 0
M  V30 378 H 31.5211 3.38637 -2.08353 0
M  V30 379 N 32.5182 1.22032 0.997298 0
M  V30 380 C 33.7432 1.06921 1.77715 0
M  V30 381 C 34.1682 -0.376226 1.84299 0
M  V30 382 O 33.5262 -1.27165 1.29223 0
M  V30 383 C 33.5742 1.67996 3.19076 0
M  V30 384 O 32.6782 0.930653 4.01762 0
M  V30 385 H 32.0192 0.375814 0.547412 0
M  V30 386 H 34.5492 1.61737 1.25309 0
M  V30 387 H 34.5592 1.72538 3.69723 0
M  V30 388 H 33.2342 2.73182 3.13599 0
M  V30 389 H 31.8112 0.960917 3.60307 0
M  V30 390 N 33.9963 -1.19345 1.0293 0
M  V30 391 C 34.9443 -2.24621 0.604001 0
M  V30 392 C 35.9383 -1.65452 -0.363587 0
M  V30 393 O 37.1443 -1.78497 -0.23212 0
M  V30 394 H 33.5193 -0.730858 0.177061 0
M  V30 395 H 35.4903 -2.5781 1.50255 0
M  V30 396 C 34.2393 -3.47688 -0.0289127 0
M  V30 397 H 33.5623 -3.93505 0.706651 0
M  V30 398 H 35.0023 -4.23011 -0.289432 0
M  V30 399 C 33.4613 -3.11817 -1.2756 0
M  V30 400 O 33.9913 -3.2451 -2.36762 0
M  V30 401 N 32.1973 -2.66246 -1.16453 0
M  V30 402 H 31.7443 -2.56118 -0.275914 0
M  V30 403 H 31.7023 -2.42617 -1.99961 0
M  V30 404 N 35.4744 -0.807222 -1.35358 0
M  V30 405 C 36.6994 -0.399309 -2.0352 0
M  V30 406 C 37.1244 0.981986 -1.60433 0
M  V30 407 O 36.4824 1.63601 -0.781299 0
M  V30 408 C 36.5304 -0.491552 -3.57234 0
M  V30 409 O 35.6344 0.494754 -4.09421 0
M  V30 410 H 34.9754 -0.166682 -0.642739 0
M  V30 411 H 37.5054 -1.09328 -1.72941 0
M  V30 412 H 37.5154 -0.361588 -4.06395 0
M  V30 413 H 36.1904 -1.49907 -3.87944 0
M  V30 414 H 34.7674 0.324977 -3.71481 0
M  V30 415 N 36.9525 1.47285 -0.560781 0
M  V30 416 C 38.1805 2.06855 -0.0430262 0
M  V30 417 C 38.5955 1.41291 1.25229 0
M  V30 418 O 37.9525 0.510648 1.7521 0
M  V30 419 C 38.0035 3.61178 0.152518 0
M  V30 420 O 37.7245 4.24285 -1.0915 0
M  V30 421 C 39.2255 4.37624 0.707145 0
M  V30 422 H 36.4455 0.669319 -0.0474652 0
M  V30 423 H 38.9895 1.89237 -0.77521 0
M  V30 424 H 37.1445 3.78298 0.834843 0
M  V30 425 H 37.5585 5.16868 -0.891482 0
M  V30 426 H 39.0325 5.46271 0.793244 0
M  V30 427 H 39.5095 4.04152 1.71923 0
M  V30 428 H 40.1155 4.25257 0.0604027 0
M  V30 429 N 38.4306 0.297415 1.54768 0
M  V30 430 C 39.3406 -0.58983 2.27064 0
M  V30 431 C 40.3566 -1.15144 1.30453 0
M  V30 432 O 41.5326 -1.17699 1.63428 0
M  V30 433 C 38.5976 -1.74714 2.9946 0
M  V30 434 C 37.6586 -1.21997 4.11601 0
M  V30 435 C 36.8916 -2.32212 4.80535 0
M  V30 436 O 37.1146 -3.52036 4.48806 0
M  V30 437 O 36.0486 -1.99106 5.68014 0
M  V30 438 H 39.8746 -0.00348199 3.037 0
M  V30 439 H 37.4596 0.0640035 1.49263 0
M  V30 440 H 39.3416 -2.42147 3.44881 0
M  V30 441 H 38.0166 -2.32016 2.25722 0
M  V30 442 H 36.9236 -0.511458 3.70587 0
M  V30 443 H 38.2566 -0.692419 4.87305 0
M  V30 444 N 39.9087 -1.5758 0.0250728 0
M  V30 445 C 41.3197 -1.79476 -0.514323 0
M  V30 446 C 41.6707 -0.934956 -1.72491 0
M  V30 447 O 40.7957 -0.144245 -2.15919 0
M  V30 448 C 41.3907 -3.25503 -0.939842 0
M  V30 449 C 39.9497 -3.48408 -1.42438 0
M  V30 450 C 39.0967 -2.74583 -0.387201 0
M  V30 451 H 42.0477 -1.567 0.25113 0
M  V30 452 H 42.0687 -3.34992 -1.80445 0
M  V30 453 H 41.5807 -3.88056 -0.0585628 0
M  V30 454 H 39.6817 -2.91103 -2.32572 0
M  V30 455 H 39.7947 -4.57119 -1.43455 0
M  V30 456 H 38.1587 -2.39942 -0.854409 0
M  V30 457 H 38.9417 -3.39849 0.485543 0
M  V30 458 N 41.3868 0.248026 -1.55636 0
M  V30 459 C 42.3188 1.32993 -1.8667 0
M  V30 460 C 43.3318 1.44345 -0.752877 0
M  V30 461 O 44.5208 1.45715 -1.03098 0
M  V30 462 C 41.6208 2.70863 -2.03682 0
M  V30 463 C 40.7938 2.81792 -3.34532 0
M  V30 464 C 39.8528 4.005 -3.41301 0
M  V30 465 O 38.8788 3.9008 -4.14519 0
M  V30 466 N 40.0808 5.13618 -2.70512 0
M  V30 467 H 42.8458 1.06707 -2.8006 0
M  V30 468 H 40.4068 0.438129 -1.55859 0
M  V30 469 H 42.3988 3.48612 -2.05553 0
M  V30 470 H 40.9688 2.89862 -1.17041 0
M  V30 471 H 40.1888 1.90729 -3.44987 0
M  V30 472 H 41.4768 2.86043 -4.20781 0
M  V30 473 H 40.8748 5.24975 -2.10755 0
M  V30 474 H 39.4318 5.89505 -2.78077 0
M  V30 475 N 42.8649 1.48995 0.513639 0
M  V30 476 C 44.0949 1.61297 1.291 0
M  V30 477 C 44.5029 0.278656 1.87137 0
M  V30 478 O 43.8459 -0.744325 1.67945 0
M  V30 479 C 43.9079 2.61326 2.46879 0
M  V30 480 C 43.5719 4.05993 2.09807 0
M  V30 481 C 44.5689 4.93183 1.64519 0
M  V30 482 C 42.2539 4.51642 2.19829 0
M  V30 483 C 44.2479 6.24056 1.2974 0
M  V30 484 C 41.9349 5.82532 1.84662 0
M  V30 485 C 42.9329 6.68562 1.3969 0
M  V30 486 O 42.6209 7.97014 1.04992 0
M  V30 487 H 42.3529 0.546236 0.39825 0
M  V30 488 H 44.9069 1.95673 0.62459 0
M  V30 489 H 43.1369 2.22104 3.16554 0
M  V30 490 H 44.8259 2.6329 3.08923 0
M  V30 491 H 45.5919 4.59147 1.56233 0
M  V30 492 H 41.4709 3.84855 2.53786 0
M  V30 493 H 45.0149 6.91161 0.945659 0
M  V30 494 H 40.9119 6.16099 1.92594 0
M  V30 495 H 41.6799 8.09913 1.18249 0
M  V30 496 N 44.343 -0.763751 1.37857 0
M  V30 497 C 45.276 -1.88486 1.28639 0
M  V30 498 C 46.254 -1.61757 0.165363 0
M  V30 499 O 47.438 -1.85391 0.340948 0
M  V30 500 C 44.565 -3.23884 0.990811 0
M  V30 501 C 43.611 -3.69514 2.12983 0
M  V30 502 S 44.444 -3.82244 3.75033 0
M  V30 503 C 45.6 -5.20477 3.47641 0
M  V30 504 H 45.833 -1.96017 2.23527 0
M  V30 505 H 43.366 -0.925684 1.23574 0
M  V30 506 H 45.324 -4.02081 0.827101 0
M  V30 507 H 43.985 -3.14044 0.0592832 0
M  V30 508 H 43.178 -4.67696 1.87821 0
M  V30 509 H 42.78 -2.98441 2.25408 0
M  V30 510 H 45.072 -6.05905 3.03125 0
M  V30 511 H 46.015 -5.50655 4.4518 0
M  V30 512 H 46.423 -4.88793 2.82385 0
M  V30 513 N 45.8211 -1.22559 -0.990812 0
M  V30 514 C 47.0671 -1.05297 -1.73322 0
M  V30 515 C 47.4001 0.410655 -1.89808 0
M  V30 516 O 46.6751 1.30439 -1.44277 0
M  V30 517 C 46.9581 -1.76713 -3.13759 0
M  V30 518 C 46.8111 -3.30684 -3.04907 0
M  V30 519 C 48.1301 -1.52121 -4.12974 0
M  V30 520 H 45.2491 -0.38392 -0.629106 0
M  V30 521 H 47.8911 -1.50926 -1.15418 0
M  V30 522 H 46.0411 -1.37924 -3.63193 0
M  V30 523 H 47.7131 -3.7893 -2.63077 0
M  V30 524 H 45.9561 -3.60253 -2.41661 0
M  V30 525 H 46.6271 -3.75833 -4.04294 0
M  V30 526 H 49.1031 -1.85819 -3.72304 0
M  V30 527 H 47.9791 -2.04582 -5.0935 0
M  V30 528 H 48.2401 -0.454257 -4.3976 0
M  V30 529 N 47.2992 1.18797 -1.03562 0
M  V30 530 C 48.2292 2.24472 -0.643019 0
M  V30 531 C 49.2102 1.66433 0.351283 0
M  V30 532 O 50.3952 1.92803 0.232505 0
M  V30 533 C 47.5252 3.473 4.24935e-05 0
M  V30 534 C 46.4792 4.18055 -0.917257 0
M  V30 535 C 45.8052 5.34519 -0.138941 0
M  V30 536 C 47.1052 4.72109 -2.23407 0
M  V30 537 H 48.7992 2.57566 -1.52643 0
M  V30 538 H 46.3452 1.23806 -0.735394 0
M  V30 539 H 48.2982 4.20426 0.286383 0
M  V30 540 H 47.0222 3.13424 0.918299 0
M  V30 541 H 45.6812 3.46821 -1.1879 0
M  V30 542 H 45.3292 4.96891 0.781562 0
M  V30 543 H 45.0292 5.82794 -0.750005 0
M  V30 544 H 46.5532 6.10438 0.1405 0
M  V30 545 H 47.9672 5.36955 -2.00879 0
M  V30 546 H 46.3642 5.30897 -2.79765 0
M  V30 547 H 47.4342 3.89807 -2.88407 0
M  V30 548 N 48.7773 0.814389 1.34928 0
M  V30 549 C 50.0233 0.399013 1.98836 0
M  V30 550 C 50.3563 -1.03314 1.64438 0
M  V30 551 O 49.6313 -1.71811 0.911659 0
M  V30 552 C 49.9143 0.591629 3.55207 0
M  V30 553 C 49.7673 2.06928 3.99376 0
M  V30 554 C 51.0863 0.022199 4.40094 0
M  V30 555 H 48.2053 0.146451 0.722303 0
M  V30 556 H 50.8473 1.02537 1.59957 0
M  V30 557 H 48.9973 0.0584441 3.88456 0
M  V30 558 H 50.6693 2.66544 3.76499 0
M  V30 559 H 48.9123 2.56287 3.49999 0
M  V30 560 H 49.5833 2.1549 5.08201 0
M  V30 561 H 52.0593 0.477643 4.13349 0
M  V30 562 H 50.9353 0.186832 5.48582 0
M  V30 563 H 51.1963 -1.07215 4.28902 0
M  V30 564 N 50.2554 -1.46986 0.568584 0
M  V30 565 C 51.6664 -1.86188 0.138219 0
M  V30 566 C 52.0174 -1.47388 -1.29504 0
M  V30 567 O 51.1424 -0.88219 -1.97602 0
M  V30 568 C 51.7374 -3.3792 0.244065 0
M  V30 569 C 50.2964 -3.76171 -0.131335 0
M  V30 570 C 49.4434 -2.71027 0.586465 0
M  V30 571 H 52.3944 -1.38342 0.777645 0
M  V30 572 H 52.4154 -3.76729 -0.534351 0
M  V30 573 H 51.9274 -3.66128 1.28731 0
M  V30 574 H 50.0284 -3.5358 -1.17526 0
M  V30 575 H 50.1414 -4.78523 0.235146 0
M  V30 576 H 48.5054 -2.54684 0.0282722 0
M  V30 577 H 49.2884 -3.02077 1.63109 0
M  V30 578 N 51.7335 -0.305618 -1.54608 0
M  V30 579 C 52.9585 0.307562 -2.05107 0
M  V30 580 C 53.3835 1.46385 -1.18123 0
M  V30 581 O 52.7415 1.8034 -0.186324 0
M  V30 582 C 52.7895 0.73704 -3.52987 0
M  V30 583 O 51.8935 1.84134 -3.6901 0
M  V30 584 H 51.2345 0.0589143 -0.661381 0
M  V30 585 H 53.7645 -0.448807 -1.99617 0
M  V30 586 H 53.7745 1.02459 -3.94925 0
M  V30 587 H 52.4495 -0.108773 -4.15758 0
M  V30 588 H 51.0265 1.55398 -3.38978 0
M  V30 589 N 53.2116 1.57565 -0.0334293 0
M  V30 590 C 54.1416 2.13511 0.945265 0
M  V30 591 C 55.1226 1.05231 1.33643 0
M  V30 592 O 56.3076 1.33084 1.41429 0
M  V30 593 C 53.4376 2.6657 2.22616 0
M  V30 594 C 52.3916 3.79676 1.97561 0
M  V30 595 C 51.7176 4.1918 3.31952 0
M  V30 596 C 53.0176 5.0557 1.31135 0
M  V30 597 H 54.7116 2.95538 0.479325 0
M  V30 598 H 52.2576 1.42166 0.229115 0
M  V30 599 H 54.2106 3.04344 2.91466 0
M  V30 600 H 52.9346 1.8171 2.71384 0
M  V30 601 H 51.5936 3.42347 1.31127 0
M  V30 602 H 51.2416 3.31296 3.78487 0
M  V30 603 H 50.9416 4.95402 3.15992 0
M  V30 604 H 52.4656 4.59541 4.02063 0
M  V30 605 H 53.8796 5.40903 1.89992 0
M  V30 606 H 52.2766 5.86818 1.25559 0
M  V30 607 H 53.3466 4.84062 0.284894 0
M  V30 608 N 54.6897 -0.239769 1.55765 0
M  V30 609 C 55.6197 -1.30052 1.9393 0
M  V30 610 C 56.6007 -1.49839 0.805132 0
M  V30 611 O 57.7857 -1.62328 1.06599 0
M  V30 612 C 54.9157 -2.65391 2.2402 0
M  V30 613 C 53.8697 -2.60289 3.39755 0
M  V30 614 C 53.1957 -3.99489 3.55405 0
M  V30 615 C 54.4957 -2.16654 4.75246 0
M  V30 616 H 56.1897 -0.983573 2.82783 0
M  V30 617 H 53.7357 -0.471701 1.36055 0
M  V30 618 H 55.6887 -3.3974 2.49308 0
M  V30 619 H 54.4127 -2.98736 1.32 0
M  V30 620 H 53.0717 -1.88398 3.14487 0
M  V30 621 H 52.7197 -4.30112 2.60793 0
M  V30 622 H 52.4197 -3.96962 4.33238 0
M  V30 623 H 53.9437 -4.75528 3.83022 0
M  V30 624 H 55.3577 -2.80737 4.99859 0
M  V30 625 H 53.7547 -2.25223 5.56232 0
M  V30 626 H 54.8247 -1.11835 4.71827 0
M  V30 627 N 56.1678 -1.49265 -0.50573 0
M  V30 628 C 57.1178 -1.6198 -1.60457 0
M  V30 629 C 58.1018 -0.47568 -1.53708 0
M  V30 630 O 59.2938 -0.728392 -1.61318 0
M  V30 631 C 56.4228 -1.68526 -2.99089 0
M  V30 632 C 55.5088 -2.885 -3.10852 0
M  V30 633 N 55.8998 -4.12635 -2.92517 0
M  V30 634 C 54.1978 -2.86338 -3.41945 0
M  V30 635 C 54.8988 -4.93258 -3.08337 0
M  V30 636 N 53.8748 -4.26533 -3.37003 0
M  V30 637 H 57.6768 -2.55681 -1.44928 0
M  V30 638 H 55.1908 -1.45972 -0.711752 0
M  V30 639 H 57.1878 -1.75732 -3.78053 0
M  V30 640 H 55.8478 -0.759584 -3.1569 0
M  V30 641 H 56.8588 -4.42689 -2.68787 0
M  V30 642 H 53.5358 -2.03129 -3.64753 0
M  V30 643 H 54.9258 -6.01856 -2.98695 0
M  V30 644 N 57.6459 0.756429 -1.3826 0
M  V30 645 C 58.8739 1.54565 -1.3754 0
M  V30 646 C 59.2889 1.88767 0.0355331 0
M  V30 647 O 58.6459 1.52572 1.0014 0
M  V30 648 C 58.6969 2.84654 -2.22833 0
M  V30 649 O 58.4179 2.51912 -3.5843 0
M  V30 650 C 59.9189 3.78807 -2.30261 0
M  V30 651 H 57.1389 0.478353 -0.470553 0
M  V30 652 H 59.6829 0.936381 -1.81803 0
M  V30 653 H 57.8379 3.41965 -1.8204 0
M  V30 654 H 58.2519 3.35325 -4.03308 0
M  V30 655 H 59.7259 4.67045 -2.94233 0
M  V30 656 H 60.2029 4.19038 -1.31545 0
M  V30 657 H 60.8089 3.2742 -2.71433 0
M  V30 658 N 59.124 1.23083 0.984299 0
M  V30 659 C 60.034 1.02515 2.11016 0
M  V30 660 C 61.05 -0.0291702 1.73976 0
M  V30 661 O 62.226 0.165434 2.00719 0
M  V30 662 C 59.291 0.614673 3.41208 0
M  V30 663 C 58.352 1.74359 3.92297 0
M  V30 664 C 57.585 1.35261 5.16275 0
M  V30 665 O 57.808 0.235136 5.69915 0
M  V30 666 O 56.742 2.17227 5.61334 0
M  V30 667 H 60.568 1.96862 2.31255 0
M  V30 668 H 58.153 1.01753 1.09392 0
M  V30 669 H 60.035 0.396518 4.1953 0
M  V30 670 H 58.71 -0.299851 3.22308 0
M  V30 671 H 57.617 2.01635 3.1511 0
M  V30 672 H 58.95 2.63629 4.15645 0
M  V30 673 N 60.6021 -1.18246 1.0419 0
M  V30 674 C 61.5651 -2.20128 0.638452 0
M  V30 675 C 62.5651 -1.57885 -0.304805 0
M  V30 676 O 63.7551 -1.73967 -0.0900369 0
M  V30 677 C 60.8871 -3.4084 -0.0637751 0
M  V30 678 H 62.0801 -2.57336 1.54007 0
M  V30 679 H 59.6331 -1.32152 0.834598 0
M  V30 680 H 60.3681 -3.09166 -0.979136 0
M  V30 681 H 60.1531 -3.8726 0.614198 0
M  V30 682 H 61.6431 -4.16274 -0.332512 0
M  V30 683 N 62.0802 -0.821533 -1.34494 0
M  V30 684 C 63.4912 -0.467956 -1.8074 0
M  V30 685 C 63.8422 1.01151 -1.68116 0
M  V30 686 O 62.9672 1.78707 -1.22036 0
M  V30 687 C 63.5622 -0.842627 -3.28154 0
M  V30 688 C 62.1212 -0.541439 -3.72485 0
M  V30 689 C 61.2682 -1.06028 -2.56229 0
M  V30 690 H 64.2192 -1.01183 -1.22261 0
M  V30 691 H 64.2402 -0.145876 -3.8022 0
M  V30 692 H 63.7522 -1.91945 -3.37311 0
M  V30 693 H 61.8532 0.526034 -3.68868 0
M  V30 694 H 61.9662 -1.08453 -4.66663 0
M  V30 695 H 60.3302 -0.481892 -2.501 0
M  V30 696 H 61.1132 -2.14352 -2.68157 0
M  V30 697 N 63.5583 1.46682 -0.576371 0
M  V30 698 C 64.5053 2.30241 0.160499 0
M  V30 699 C 65.4753 1.40233 0.890162 0
M  V30 700 O 66.6603 1.69186 0.882084 0
M  V30 701 C 63.8003 3.24578 1.1723 0
M  V30 702 C 62.9133 4.29684 0.446736 0
M  V30 703 C 62.0483 5.11154 1.44551 0
M  V30 704 C 61.0873 6.08015 0.70599 0
M  V30 705 N 60.2243 6.82376 1.65251 0
M  V30 706 H 65.0643 2.92727 -0.558127 0
M  V30 707 H 62.6013 1.44272 -0.287056 0
M  V30 708 H 64.5593 3.77711 1.77172 0
M  V30 709 H 63.1893 2.63916 1.85872 0
M  V30 710 H 62.2413 3.79458 -0.267594 0
M  V30 711 H 63.5533 4.98626 -0.131686 0
M  V30 712 H 62.7073 5.68533 2.11791 0
M  V30 713 H 61.4463 4.42158 2.05786 0
M  V30 714 H 60.4513 5.49796 0.0197725 0
M  V30 715 H 61.6763 6.79028 0.09912 0
M  V30 716 H 59.6223 6.16094 2.25308 0
M  V30 717 H 59.5393 7.47556 1.12673 0
M  V30 718 H 60.8073 7.44316 2.31546 0
M  V30 719 N 65.0364 0.313813 1.54444 0
M  V30 720 C 65.9834 -0.55655 2.23989 0
M  V30 721 C 66.9534 -1.11943 1.22711 0
M  V30 722 O 68.1384 -1.16158 1.51367 0
M  V30 723 C 65.2784 -1.71635 2.99392 0
M  V30 724 C 64.3914 -1.18364 4.15468 0
M  V30 725 C 63.5264 -2.30834 4.78424 0
M  V30 726 C 62.5654 -1.74762 5.86622 0
M  V30 727 N 61.7024 -2.80855 6.43479 0
M  V30 728 H 66.5424 0.0430893 2.97969 0
M  V30 729 H 64.0794 0.0330359 1.47063 0
M  V30 730 H 66.0374 -2.39868 3.41349 0
M  V30 731 H 64.6674 -2.28742 2.27765 0
M  V30 732 H 63.7194 -0.393163 3.78363 0
M  V30 733 H 65.0314 -0.733262 4.93381 0
M  V30 734 H 64.1854 -3.0699 5.23299 0
M  V30 735 H 62.9244 -2.79204 3.99871 0
M  V30 736 H 61.9294 -0.970995 5.41158 0
M  V30 737 H 63.1544 -1.2728 6.67066 0
M  V30 738 H 61.1004 -3.28535 5.67804 0
M  V30 739 H 61.0174 -2.40351 7.16776 0
M  V30 740 H 62.2854 -3.5687 6.93011 0
M  V30 741 N 66.5145 -1.57545 0.0417849 0
M  V30 742 C 67.7625 -1.91937 -0.632829 0
M  V30 743 C 68.0835 -0.919978 -1.71934 0
M  V30 744 O 67.3535 0.0366064 -1.95866 0
M  V30 745 H 65.9335 -0.708493 -0.236742 0
M  V30 746 H 68.5955 -1.9468 0.0925745 0
M  V30 747 H 67.6915 -2.92912 -1.07746 0
M  V30 748 N 67.9926 0.231505 -1.5589 0
M  V30 749 C 69.2326 0.964533 -1.80211 0
M  V30 750 C 69.5966 1.81926 -0.613744 0
M  V30 751 O 70.7976 2.58526 -0.736045 0
M  V30 752 C 69.0686 1.78956 -3.09369 0
M  V30 753 S 70.6276 2.57959 -3.54969 0
M  V30 754 H 67.4456 0.324173 -0.632798 0
M  V30 755 H 70.0476 0.230985 -1.94131 0
M  V30 756 H 68.7516 1.15161 -3.93911 0
M  V30 757 H 68.2826 2.56559 -2.9823 0
M  V30 758 H 70.2976 3.81309 -3.17519 0
M  V30 759 N 69.4707 1.49531 0.497807 0
M  V30 760 C 70.7167 1.59415 1.25358 0
M  V30 761 C 71.0497 0.281422 1.9215 0
M  V30 762 O 70.3247 -0.715249 1.80871 0
M  V30 763 C 70.6077 2.75566 2.3181 0
M  V30 764 C 70.4607 4.16642 1.69498 0
M  V30 765 C 71.7797 2.87347 3.33346 0
M  V30 766 H 68.8987 0.580244 0.454408 0
M  V30 767 H 71.5407 1.81827 0.551262 0
M  V30 768 H 69.6907 2.56587 2.91711 0
M  V30 769 H 71.3627 4.47145 1.13399 0
M  V30 770 H 69.6057 4.22141 0.998978 0
M  V30 771 H 70.2767 4.93792 2.46725 0
M  V30 772 H 72.7527 3.04634 2.83438 0
M  V30 773 H 71.6287 3.70289 4.05188 0
M  V30 774 H 71.8897 1.96834 3.95865 0
M  V30 775 N 70.9488 -0.749086 1.3866 0
M  V30 776 C 71.8788 -1.8764 1.38973 0
M  V30 777 C 72.8598 -1.68178 0.255004 0
M  V30 778 O 74.0448 -1.88704 0.458754 0
M  V30 779 C 71.1748 -3.25222 1.21851 0
M  V30 780 C 70.1288 -3.59295 2.32575 0
M  V30 781 C 69.4548 -4.95663 2.00555 0
M  V30 782 C 70.7548 -3.63709 3.7485 0
M  V30 783 H 72.4488 -1.87635 2.3331 0
M  V30 784 H 69.9948 -0.901329 1.12303 0
M  V30 785 H 71.9478 -4.03746 1.20695 0
M  V30 786 H 70.6718 -3.25719 0.239775 0
M  V30 787 H 69.3308 -2.83093 2.32925 0
M  V30 788 H 68.9788 -4.92724 1.01154 0
M  V30 789 H 68.6788 -5.19429 2.74714 0
M  V30 790 H 70.2028 -5.7656 2.01024 0
M  V30 791 H 71.6168 -4.32338 3.76506 0
M  V30 792 H 70.0138 -3.98986 4.48252 0
M  V30 793 H 71.0838 -2.63834 4.06841 0
M  V30 794 N 72.4269 -1.23603 -0.977757 0
M  V30 795 C 73.3569 -1.04401 -2.0886 0
M  V30 796 C 74.3379 0.0399052 -1.70053 0
M  V30 797 O 75.5229 -0.125246 -1.93796 0
M  V30 798 C 72.6529 -0.637269 -3.41403 0
M  V30 799 C 71.6069 -1.66883 -3.94124 0
M  V30 800 C 70.9329 -1.11745 -5.22893 0
M  V30 801 C 72.2329 -3.06247 -4.23096 0
M  V30 802 H 73.9269 -1.97316 -2.25182 0
M  V30 803 H 71.4729 -0.950096 -1.08209 0
M  V30 804 H 73.4259 -0.48998 -4.18542 0
M  V30 805 H 72.1499 0.327557 -3.24953 0
M  V30 806 H 70.8089 -1.80416 -3.19133 0
M  V30 807 H 70.4569 -0.143527 -5.02795 0
M  V30 808 H 70.1569 -1.80672 -5.59134 0
M  V30 809 H 71.6809 -0.982067 -6.02651 0
M  V30 810 H 73.0949 -2.96001 -4.90975 0
M  V30 811 H 71.4919 -3.72436 -4.70544 0
M  V30 812 H 72.5619 -3.55041 -3.30263 0
M  V30 813 N 73.905 1.17692 -1.04816 0
M  V30 814 C 75.13 1.92327 -0.776207 0
M  V30 815 C 75.555 1.76082 0.661581 0
M  V30 816 O 74.913 1.076 1.45917 0
M  V30 817 C 74.961 3.41539 -1.15687 0
M  V30 818 O 74.065 4.11402 -0.286775 0
M  V30 819 H 73.406 0.599735 -0.284981 0
M  V30 820 H 75.936 1.49201 -1.4 0
M  V30 821 H 75.946 3.92269 -1.12202 0
M  V30 822 H 74.621 3.52684 -2.20425 0
M  V30 823 H 73.198 3.70939 -0.381903 0
M  V30 824 N 75.3831 0.828654 1.34056 0
M  V30 825 C 76.3331 0.226828 2.26869 0
M  V30 826 C 77.3171 -0.612243 1.48796 0
M  V30 827 O 78.5091 -0.465884 1.70759 0
M  V30 828 C 75.6381 -0.605654 3.37915 0
M  V30 829 C 74.7241 0.244361 4.23395 0
M  V30 830 N 75.1151 1.31815 4.88322 0
M  V30 831 C 73.4131 0.0296616 4.4599 0
M  V30 832 C 74.1141 1.83895 5.51867 0
M  V30 833 N 73.0901 1.14196 5.3147 0
M  V30 834 H 76.8921 1.04811 2.74576 0
M  V30 835 H 74.4061 0.67205 1.47842 0
M  V30 836 H 76.4031 -1.05302 4.03382 0
M  V30 837 H 75.0631 -1.42504 2.91758 0
M  V30 838 H 76.0741 1.70099 4.8917 0
M  V30 839 H 72.7511 -0.757097 4.10578 0
M  V30 840 H 74.1411 2.7376 6.136 0
M  V30 841 N 76.8612 -1.46375 0.584142 0
M  V30 842 C 77.7912 -2.33103 -0.136037 0
M  V30 843 C 78.7722 -1.45431 -0.882255 0
M  V30 844 O 79.9572 -1.74246 -0.857434 0
M  V30 845 C 77.0872 -3.27731 -1.14933 0
M  V30 846 C 76.0412 -4.24855 -0.517862 0
M  V30 847 C 75.3672 -5.09001 -1.63773 0
M  V30 848 C 76.6672 -5.19439 0.545886 0
M  V30 849 H 78.3612 -2.93568 0.588086 0
M  V30 850 H 75.9072 -1.41166 0.284259 0
M  V30 851 H 77.8602 -3.87261 -1.66153 0
M  V30 852 H 76.5842 -2.65377 -1.90375 0
M  V30 853 H 75.2432 -3.6659 -0.0267361 0
M  V30 854 H 74.8912 -4.43031 -2.38185 0
M  V30 855 H 74.5912 -5.74777 -1.22085 0
M  V30 856 H 76.1152 -5.71396 -2.15266 0
M  V30 857 H 77.5292 -5.73177 0.118704 0
M  V30 858 H 75.9262 -5.93566 0.88317 0
M  V30 859 H 76.9962 -4.63285 1.43162 0
M  V30 860 N 78.3393 -0.321999 -1.54275 0
M  V30 861 C 79.2873 0.560206 -2.25753 0
M  V30 862 C 80.2813 1.11984 -1.27106 0
M  V30 863 O 81.4873 1.06806 -1.44888 0
M  V30 864 H 77.8623 0.199304 -0.725108 0
M  V30 865 H 79.8333 -0.0649365 -2.98329 0
M  V30 866 C 78.5823 1.71023 -3.02731 0
M  V30 867 H 77.9053 1.28885 -3.78456 0
M  V30 868 H 79.3453 2.30314 -3.55993 0
M  V30 869 C 77.8043 2.62692 -2.10938 0
M  V30 870 O 78.3343 3.64364 -1.6912 0
M  V30 871 N 76.5403 2.30891 -1.76459 0
M  V30 872 H 76.0873 1.48253 -2.10663 0
M  V30 873 H 76.0453 2.92487 -1.1532 0
M  V30 874 N 79.8174 1.5752 -0.0501392 0
M  V30 875 C 80.7274 2.14952 0.939827 0
M  V30 876 C 81.7434 1.10706 1.34239 0
M  V30 877 O 82.9194 1.42869 1.41952 0
M  V30 878 C 79.9844 2.68232 2.19665 0
M  V30 879 C 79.0454 3.87272 1.85253 0
M  V30 880 C 78.2784 4.38002 3.04943 0
M  V30 881 O 78.5014 3.87811 4.18281 0
M  V30 882 O 77.4354 5.29602 2.86017 0
M  V30 883 H 81.2614 2.9986 0.481392 0
M  V30 884 H 78.8464 1.4841 0.171699 0
M  V30 885 H 80.7284 3.02475 2.93406 0
M  V30 886 H 79.4034 1.86395 2.64648 0
M  V30 887 H 78.3104 3.5792 1.0883 0
M  V30 888 H 79.6434 4.70336 1.4507 0
M  V30 889 N 81.2955 -0.223234 1.56011 0
M  V30 890 C 82.5235 -0.964812 1.83027 0
M  V30 891 C 82.9385 -1.78013 0.62904 0
M  V30 892 O 82.2955 -1.78008 -0.402414 0
M  V30 893 C 82.3465 -1.88373 3.08542 0
M  V30 894 O 82.0675 -1.10137 4.2403 0
M  V30 895 C 83.5685 -2.73934 3.48533 0
M  V30 896 H 80.7885 -0.282842 0.608475 0
M  V30 897 H 83.3325 -0.238971 2.03099 0
M  V30 898 H 81.4875 -2.56354 2.9045 0
M  V30 899 H 81.9015 -1.72501 4.95322 0
M  V30 900 H 83.3755 -3.34117 4.39397 0
M  V30 901 H 83.8525 -3.46244 2.70207 0
M  V30 902 H 84.4585 -2.11369 3.69057 0
M  V30 903 N 82.7736 -1.49793 -0.48987 0
M  V30 904 C 84.0196 -1.60078 -1.24511 0
M  V30 905 C 84.3526 -0.291608 -1.91998 0
M  V30 906 O 83.6276 0.705647 -1.81248 0
M  V30 907 C 83.9106 -2.76791 -2.30345 0
M  V30 908 C 83.7636 -4.17535 -1.67286 0
M  V30 909 C 85.0826 -2.89111 -3.31817 0
M  V30 910 H 82.2016 -0.582645 -0.451324 0
M  V30 911 H 84.8436 -1.82117 -0.541612 0
M  V30 912 H 82.9936 -2.5813 -2.90346 0
M  V30 913 H 84.6656 -4.4774 -1.11026 0
M  V30 914 H 82.9086 -4.22665 -0.976577 0
M  V30 915 H 83.5796 -4.95094 -2.44103 0
M  V30 916 H 86.0556 -3.06133 -2.81819 0
M  V30 917 H 84.9316 -3.72433 -4.03219 0
M  V30 918 H 85.1926 -1.9893 -3.94815 0
M  V30 919 N 84.2517 0.741722 -1.39055 0
M  V30 920 C 85.4797 1.53098 -1.39171 0
M  V30 921 C 85.8947 1.88794 0.0155099 0
M  V30 922 O 85.2517 1.53626 0.985159 0
M  V30 923 C 85.3027 2.82274 -2.2584 0
M  V30 924 O 85.0237 2.48097 -3.61081 0
M  V30 925 C 86.5247 3.76343 -2.34266 0
M  V30 926 H 83.7447 0.473335 -0.4756 0
M  V30 927 H 86.2887 0.917045 -1.82785 0
M  V30 928 H 84.4437 3.40015 -1.85656 0
M  V30 929 H 84.8577 3.31029 -4.06842 0
M  V30 930 H 86.3317 4.63898 -2.9917 0
M  V30 931 H 86.8087 4.17619 -1.35982 0
M  V30 932 H 87.4147 3.24523 -2.74891 0
M  V30 933 N 85.7298 1.2412 0.971189 0
M  V30 934 C 86.9758 1.08041 1.71625 0
M  V30 935 C 87.3088 -0.380407 1.90438 0
M  V30 936 O 86.5838 -1.28127 1.46334 0
M  V30 937 C 86.8668 1.81682 3.10908 0
M  V30 938 C 86.7198 3.35493 2.99608 0
M  V30 939 C 88.0388 1.58671 4.10501 0
M  V30 940 H 85.1578 0.39388 0.622919 0
M  V30 941 H 87.7998 1.52743 1.13003 0
M  V30 942 H 85.9498 1.43684 3.60953 0
M  V30 943 H 87.6218 3.83068 2.57015 0
M  V30 944 H 85.8648 3.64052 2.35899 0
M  V30 945 H 86.5358 3.82217 3.98264 0
M  V30 946 H 89.0118 1.91719 3.69301 0
M  V30 947 H 87.8878 2.1266 5.06031 0
M  V30 948 H 88.1488 0.524161 4.38982 0
M  V30 949 N 87.2079 -1.17134 1.05439 0
M  V30 950 C 88.4329 -1.91913 0.786396 0
M  V30 951 C 88.8579 -1.7643 -0.652234 0
M  V30 952 O 88.2159 -1.08372 -1.45345 0
M  V30 953 C 88.2639 -3.40921 1.17497 0
M  V30 954 O 87.3679 -4.11244 0.308589 0
M  V30 955 H 86.7089 -0.598215 0.288158 0
M  V30 956 H 89.2389 -1.48457 1.4079 0
M  V30 957 H 89.2489 -3.91668 1.14281 0
M  V30 958 H 87.9239 -3.5151 2.22292 0
M  V30 959 H 86.5009 -3.70731 0.40157 0
M  V30 960 N 88.686 -0.835752 -1.33615 0
M  V30 961 C 89.649 -0.272 -2.2758 0
M  V30 962 C 90.649 0.557487 -1.50827 0
M  V30 963 O 91.839 0.37173 -1.70188 0
M  V30 964 C 88.971 0.617173 -3.35267 0
M  V30 965 H 90.164 -1.10111 -2.78954 0
M  V30 966 H 87.717 -0.608594 -1.43965 0
M  V30 967 H 88.452 1.46884 -2.89129 0
M  V30 968 H 88.237 0.0237066 -3.92093 0
M  V30 969 H 89.727 1.005 -4.05326 0
M  V30 970 N 90.1641 1.46063 -0.591896 0
M  V30 971 C 91.3891 2.07226 -0.0850314 0
M  V30 972 C 91.8141 1.43625 1.21463 0
M  V30 973 O 91.1721 0.523305 1.73583 0
M  V30 974 C 91.2201 3.60554 0.0576567 0
M  V30 975 O 90.3241 3.97128 1.11188 0
M  V30 976 H 89.6651 0.660615 -0.0669568 0
M  V30 977 H 92.1951 1.8756 -0.81745 0
M  V30 978 H 92.2051 4.07165 0.2609 0
M  V30 979 H 90.8801 4.06235 -0.891416 0
M  V30 980 H 89.4571 3.62213 0.886356 0
M  V30 981 N 91.6422 0.330177 1.54103 0
M  V30 982 C 92.5722 -0.525353 2.27513 0
M  V30 983 C 93.5532 -1.11383 1.2856 0
M  V30 984 O 94.7382 -1.13773 1.57383 0
M  V30 985 C 91.8682 -1.6831 3.03791 0
M  V30 986 C 90.8222 -1.2236 4.10137 0
M  V30 987 C 90.1482 -2.46882 4.74293 0
M  V30 988 C 91.4482 -0.333697 5.21233 0
M  V30 989 H 93.1422 0.087013 2.99274 0
M  V30 990 H 90.6882 0.0432893 1.43935 0
M  V30 991 H 92.6412 -2.28795 3.5388 0
M  V30 992 H 91.3652 -2.32216 2.29659 0
M  V30 993 H 90.0242 -0.64165 3.60941 0
M  V30 994 H 89.6722 -3.09165 3.96769 0
M  V30 995 H 89.3722 -2.16825 5.46133 0
M  V30 996 H 90.8962 -3.08117 5.27159 0
M  V30 997 H 92.3102 -0.845013 5.67038 0
M  V30 998 H 90.7072 -0.125612 5.99969 0
M  V30 999 H 91.7772 0.633724 4.80741 0
M  V30 1000 N 93.1203 -1.57491 0.0584922 0
M  V30 1001 C 94.0303 -2.15448 -0.928414 0
M  V30 1002 C 95.0463 -1.11416 -1.3365 0
M  V30 1003 O 96.2223 -1.4362 -1.41193 0
M  V30 1004 C 93.2873 -2.69393 -2.18239 0
M  V30 1005 C 92.3483 -3.88249 -1.83196 0
M  V30 1006 C 91.5813 -4.39613 -3.02616 0
M  V30 1007 O 91.8043 -3.90023 -4.16219 0
M  V30 1008 O 90.7383 -5.31111 -2.83204 0
M  V30 1009 H 94.5643 -3.00112 -0.465483 0
M  V30 1010 H 92.1493 -1.48499 -0.163826 0
M  V30 1011 H 94.0313 -3.04026 -2.91798 0
M  V30 1012 H 92.7063 -1.87796 -2.63656 0
M  V30 1013 H 91.6133 -3.58492 -1.06931 0
M  V30 1014 H 92.9463 -4.71098 -1.42573 0
M  V30 1015 N 94.5984 0.214957 -1.56127 0
M  V30 1016 C 95.8234 0.95924 -1.83884 0
M  V30 1017 C 96.2484 1.7689 -0.639644 0
M  V30 1018 O 95.6064 1.76566 0.411601 0
M  V30 1019 C 95.6544 1.84723 -3.09693 0
M  V30 1020 O 94.7584 2.94346 -2.8885 0
M  V30 1021 H 94.0994 0.27125 -0.606069 0
M  V30 1022 H 96.6294 0.226276 -2.03345 0
M  V30 1023 H 96.6394 2.25576 -3.39969 0
M  V30 1024 H 95.3144 1.25218 -3.96602 0
M  V30 1025 H 93.8914 2.57391 -2.69823 0
M  V30 1026 N 96.0765 1.50051 0.48192 0
M  V30 1027 C 97.3245 1.60181 1.23234 0
M  V30 1028 C 97.6455 0.299176 1.92691 0
M  V30 1029 O 96.9155 -0.682708 1.83619 0
M  V30 1030 H 95.4955 0.590232 0.457859 0
M  V30 1031 H 98.1575 1.86775 0.556881 0
M  V30 1032 H 97.2535 2.40753 1.98607 0
M  V30 1033 N 97.5546 -0.734337 1.39446 0
M  V30 1034 C 98.9706 -1.03997 1.21065 0
M  V30 1035 C 99.1706 -2.01369 0.0727019 0
M  V30 1036 O 98.2266 -2.45856 -0.575426 0
M  V30 1037 C 99.5396 -1.60163 2.54496 0
M  V30 1038 C 101.088 -1.7224 2.61347 0
M  V30 1039 C 101.563 -2.31814 3.95002 0
M  V30 1040 N 103.054 -2.39223 3.96644 0
M  V30 1041 C 103.789 -2.86258 4.96834 0
M  V30 1042 N 103.285 -3.33184 6.07421 0
M  V30 1043 N 105.078 -2.85473 4.84213 0
M  V30 1044 H 97.2286 -0.0885624 2.12215 0
M  V30 1045 H 99.4916 -0.10191 0.942506 0
M  V30 1046 H 99.1976 -0.960811 3.38321 0
M  V30 1047 H 99.0716 -2.5896 2.74262 0
M  V30 1048 H 101.459 -2.35443 1.77906 0
M  V30 1049 H 101.54 -0.720939 2.4543 0
M  V30 1050 H 101.184 -1.69238 4.78875 0
M  V30 1051 H 101.114 -3.32638 4.08239 0
M  V30 1052 H 103.605 -2.06057 3.16779 0
M  V30 1053 H 103.918 -3.67586 6.7978 0
M  V30 1054 H 102.263 -3.31191 6.11013 0
M  V30 1055 H 105.454 -2.48136 3.96921 0
M  V30 1056 H 105.627 -3.21814 5.62441 0
M  V30 1057 N 99.0327 -1.24633 -0.964593 0
M  V30 1058 C 99.9427 -1.05859 -2.09359 0
M  V30 1059 C 100.959 0.00148855 -1.74 0
M  V30 1060 O 102.135 -0.197346 -2.00431 0
M  V30 1061 C 99.1997 -0.668879 -3.40187 0
M  V30 1062 C 98.2607 -1.80578 -3.89474 0
M  V30 1063 C 97.4937 -1.43457 -5.14058 0
M  V30 1064 O 97.7167 -0.325775 -5.69469 0
M  V30 1065 O 96.6507 -2.2613 -5.57807 0
M  V30 1066 H 100.477 -2.00516 -2.28094 0
M  V30 1067 H 98.0617 -1.03481 -1.0776 0
M  V30 1068 H 99.9437 -0.463211 -4.18846 0
M  V30 1069 H 98.6187 0.248536 -3.22744 0
M  V30 1070 H 97.5257 -2.06623 -3.11862 0
M  V30 1071 H 98.8587 -2.70208 -4.11398 0
M  V30 1072 N 100.511 1.16574 -1.06058 0
M  V30 1073 C 101.459 2.22941 -0.663343 0
M  V30 1074 C 102.453 1.66358 0.319593 0
M  V30 1075 O 103.659 1.7905 0.184713 0
M  V30 1076 H 100.034 0.725907 -0.196376 0
M  V30 1077 H 102.005 2.53736 -1.57037 0
M  V30 1078 C 100.754 3.47642 -0.0632808 0
M  V30 1079 H 100.077 3.91493 -0.810733 0
M  V30 1080 H 101.517 4.2363 0.177177 0
M  V30 1081 C 99.9758 3.1509 1.19248 0
M  V30 1082 O 100.506 3.30673 2.28075 0
M  V30 1083 N 98.7118 2.6924 1.09353 0
M  V30 1084 H 98.2588 2.5676 0.207912 0
M  V30 1085 H 98.2168 2.47833 1.93458 0
M  V30 1086 N 101.989 0.842826 1.3317 0
M  V30 1087 C 103.405 0.531128 1.50503 0
M  V30 1088 C 103.605 -0.940734 1.78192 0
M  V30 1089 O 102.661 -1.72436 1.84451 0
M  V30 1090 C 103.974 1.40789 2.65705 0
M  V30 1091 C 105.522 1.40708 2.79589 0
M  V30 1092 C 105.997 2.26878 3.97857 0
M  V30 1093 N 107.488 2.24609 4.05099 0
M  V30 1094 C 108.223 2.88019 4.95815 0
M  V30 1095 N 107.719 3.60496 5.9162 0
M  V30 1096 N 109.512 2.77469 4.88843 0
M  V30 1097 H 101.663 1.79557 1.1346 0
M  V30 1098 H 103.926 0.766267 0.558156 0
M  V30 1099 H 103.632 2.454 2.51936 0
M  V30 1100 H 103.506 1.08677 3.61205 0
M  V30 1101 H 105.893 0.368668 2.92788 0
M  V30 1102 H 105.974 1.76829 1.84838 0
M  V30 1103 H 105.618 3.3078 3.85418 0
M  V30 1104 H 105.548 1.88096 4.91861 0
M  V30 1105 H 108.039 1.71906 3.36536 0
M  V30 1106 H 108.352 4.06076 6.57512 0
M  V30 1107 H 106.697 3.64604 5.91683 0
M  V30 1108 H 109.888 2.20406 4.12963 0
M  V30 1109 H 110.061 3.2717 5.59342 0
M  V30 1110 N 103.467 -1.45747 0.599634 0
M  V30 1111 C 104.692 -2.07178 0.0960198 0
M  V30 1112 C 105.117 -1.44268 -1.207 0
M  V30 1113 O 104.475 -0.532503 -1.73303 0
M  V30 1114 C 104.523 -3.60579 -0.0385348 0
M  V30 1115 O 103.627 -3.97713 -1.0908 0
M  V30 1116 H 102.968 -0.660251 0.0704593 0
M  V30 1117 H 105.498 -1.87124 0.827385 0
M  V30 1118 H 105.508 -4.07298 -0.239304 0
M  V30 1119 H 104.183 -4.05756 0.912947 0
M  V30 1120 H 102.76 -3.62678 -0.867135 0
M  V30 1121 N 104.945 -0.338344 -1.53925 0
M  V30 1122 C 105.875 0.51328 -2.27789 0
M  V30 1123 C 106.856 1.107 -1.29149 0
M  V30 1124 O 108.041 1.12937 -1.57984 0
M  V30 1125 C 105.171 1.66697 -3.04679 0
M  V30 1126 C 104.125 1.20183 -4.1078 0
M  V30 1127 C 103.451 2.44363 -4.75595 0
M  V30 1128 C 104.751 0.30605 -5.21403 0
M  V30 1129 H 106.445 -0.102883 -2.99223 0
M  V30 1130 H 103.991 -0.0509219 -1.4391 0
M  V30 1131 H 105.944 2.26915 -3.55088 0
M  V30 1132 H 104.668 2.30995 -2.30887 0
M  V30 1133 H 103.327 0.622499 -3.61276 0
M  V30 1134 H 102.975 3.07057 -3.98403 0
M  V30 1135 H 102.675 2.13925 -5.47275 0
M  V30 1136 H 104.199 3.05317 -5.28786 0
M  V30 1137 H 105.613 0.814929 -5.67478 0
M  V30 1138 H 104.01 0.0937929 -6.00027 0
M  V30 1139 H 105.08 -0.65921 -4.80398 0
M  V30 1140 N 106.423 1.57458 -0.0668435 0
M  V30 1141 C 107.67 1.93301 0.603406 0
M  V30 1142 C 107.998 0.946486 1.69917 0
M  V30 1143 O 107.253 -0.0387021 1.95662 0
M  V30 1144 C 107.552 3.35784 1.22409 0
M  V30 1145 C 107.218 4.50179 0.254955 0
M  V30 1146 C 105.88 4.81199 -0.0116746 0
M  V30 1147 C 108.232 5.19598 -0.408338 0
M  V30 1148 C 105.56 5.78978 -0.94877 0
M  V30 1149 C 107.912 6.18381 -1.33372 0
M  V30 1150 C 106.576 6.47821 -1.60887 0
M  V30 1151 H 105.846 0.707338 0.220802 0
M  V30 1152 H 108.493 1.91012 -0.136665 0
M  V30 1153 H 106.798 3.34515 2.03978 0
M  V30 1154 H 108.495 3.60804 1.74989 0
M  V30 1155 H 105.085 4.25983 0.472954 0
M  V30 1156 H 109.269 4.95832 -0.215456 0
M  V30 1157 H 104.525 6.00115 -1.16925 0
M  V30 1158 H 108.699 6.71277 -1.85367 0
M  V30 1159 H 106.326 7.23399 -2.33661 0
M  V30 1160 N 107.901 -0.206675 1.56239 0
M  V30 1161 C 109.129 -0.945345 1.8404 0
M  V30 1162 C 109.544 -1.77336 0.647885 0
M  V30 1163 O 108.901 -1.78425 -0.383511 0
M  V30 1164 C 108.952 -1.8509 3.10522 0
M  V30 1165 O 108.673 -1.05634 4.25174 0
M  V30 1166 C 110.174 -2.70222 3.51418 0
M  V30 1167 H 107.394 -0.276372 0.61144 0
M  V30 1168 H 109.938 -0.217417 2.03341 0
M  V30 1169 H 108.093 -2.53259 2.93153 0
M  V30 1170 H 108.507 -1.67238 4.97124 0
M  V30 1171 H 109.981 -3.29438 4.42916 0
M  V30 1172 H 110.458 -3.43358 2.73864 0
M  V30 1173 H 111.064 -2.07443 3.71278 0
M  V30 1174 N 109.379 -1.50304 -0.473955 0
M  V30 1175 C 110.656 -1.51667 -1.23518 0
M  V30 1176 C 111.036 -0.259701 -2.09496 0
M  V30 1177 O 110.384 0.756986 -2.15597 0
M  V30 1178 C 110.594 -2.81082 -2.06868 0
M  V30 1179 C 111.942 -3.31631 -2.65153 0
M  V30 1180 O 112.966 -2.82384 -2.17113 0
M  V30 1181 O 111.825 -4.17471 -3.52675 0
M  V30 1182 H 108.919 -0.60822 -0.560355 0
M  V30 1183 H 111.465 -1.62592 -0.486011 0
M  V30 1184 H 110.237 -3.64041 -1.4349 0
M  V30 1185 H 109.86 -2.73146 -2.88924 0
M  V30 1186 N 110.857 0.726932 -1.39834 0
M  V30 1187 C 111.787 1.85405 -1.41941 0
M  V30 1188 C 112.768 1.67751 -0.281728 0
M  V30 1189 O 113.953 1.8795 -0.488717 0
M  V30 1190 C 111.083 3.23243 -1.2701 0
M  V30 1191 C 110.037 3.55549 -2.38262 0
M  V30 1192 C 109.363 4.9241 -2.08415 0
M  V30 1193 C 110.663 3.577 -3.80589 0
M  V30 1194 H 112.357 1.83899 -2.36266 0
M  V30 1195 H 109.903 0.883349 -1.13723 0
M  V30 1196 H 111.856 4.01775 -1.27103 0
M  V30 1197 H 110.58 3.25296 -0.291564 0
M  V30 1198 H 109.239 2.79351 -2.37399 0
M  V30 1199 H 108.887 4.91052 -1.0898 0
M  V30 1200 H 108.587 5.14992 -2.82943 0
M  V30 1201 H 110.111 5.73289 -2.10171 0
M  V30 1202 H 111.525 4.26293 -3.83337 0
M  V30 1203 H 109.922 3.91804 -4.54543 0
M  V30 1204 H 110.992 2.57328 -4.10987 0
M  V30 1205 N 112.336 1.25143 0.95797 0
M  V30 1206 C 113.582 1.09855 1.70469 0
M  V30 1207 C 113.915 -0.360187 1.90831 0
M  V30 1208 O 113.19 -1.26568 1.47685 0
M  V30 1209 C 113.473 1.8497 3.08963 0
M  V30 1210 C 113.326 3.38652 2.96032 0
M  V30 1211 C 114.645 1.63016 4.08795 0
M  V30 1212 H 111.764 0.400465 0.618706 0
M  V30 1213 H 114.406 1.53933 1.11376 0
M  V30 1214 H 112.556 1.47505 3.59409 0
M  V30 1215 H 114.228 3.85772 2.52938 0
M  V30 1216 H 112.471 3.66534 2.32025 0
M  V30 1217 H 113.142 3.8642 3.94187 0
M  V30 1218 H 115.618 1.95625 3.67247 0
M  V30 1219 H 114.494 2.18015 5.03747 0
M  V30 1220 H 114.755 0.570692 4.38401 0
M  V30 1221 N 113.814 -1.1601 1.06675 0
M  V30 1222 C 114.777 -2.18724 0.685001 0
M  V30 1223 C 115.777 -1.58496 -0.271246 0
M  V30 1224 O 116.967 -1.74119 -0.0531156 0
M  V30 1225 C 114.099 -3.40899 0.00853648 0
M  V30 1226 H 115.292 -2.54011 1.59431 0
M  V30 1227 H 112.845 -1.30352 0.862441 0
M  V30 1228 H 113.58 -3.11173 -0.913337 0
M  V30 1229 H 113.365 -3.8587 0.696204 0
M  V30 1230 H 114.855 -4.16886 -0.24414 0
M  V30 1231 N 115.292 -0.849877 -1.32721 0
M  V30 1232 C 116.202 -0.293791 -2.32753 0
M  V30 1233 C 117.218 0.585906 -1.63839 0
M  V30 1234 O 118.394 0.487413 -1.95413 0
M  V30 1235 C 115.459 0.512752 -3.42887 0
M  V30 1236 C 114.52 -0.39252 -4.27502 0
M  V30 1237 C 113.753 0.375625 -5.32377 0
M  V30 1238 O 113.976 1.60613 -5.4732 0
M  V30 1239 O 112.91 -0.256094 -6.01355 0
M  V30 1240 H 116.736 -1.12242 -2.82197 0
M  V30 1241 H 114.321 -0.612685 -1.36259 0
M  V30 1242 H 116.203 0.970704 -4.10067 0
M  V30 1243 H 114.878 1.31826 -2.95641 0
M  V30 1244 H 113.785 -0.898547 -3.63149 0
M  V30 1245 H 115.118 -1.16309 -4.7826 0
M  V30 1246 N 116.77 1.45427 -0.607355 0
M  V30 1247 C 117.717 2.3053 0.111625 0
M  V30 1248 C 118.687 1.4209 0.860216 0
M  V30 1249 O 119.872 1.71019 0.845998 0
M  V30 1250 C 117.012 3.26992 1.10319 0
M  V30 1251 C 116.125 4.30535 0.355493 0
M  V30 1252 C 115.26 5.14105 1.33676 0
M  V30 1253 C 114.299 6.09376 0.576862 0
M  V30 1254 N 113.436 6.85727 1.5074 0
M  V30 1255 H 118.276 2.91477 -0.620093 0
M  V30 1256 H 115.813 1.43631 -0.317594 0
M  V30 1257 H 117.771 3.81385 1.6912 0
M  V30 1258 H 116.401 2.67799 1.80232 0
M  V30 1259 H 115.453 3.78805 -0.348023 0
M  V30 1260 H 116.765 4.98235 -0.237423 0
M  V30 1261 H 115.919 5.72897 1.99684 0
M  V30 1262 H 114.658 4.46423 1.9636 0
M  V30 1263 H 113.663 5.49715 -0.0968519 0
M  V30 1264 H 114.888 6.79085 -0.0449341 0
M  V30 1265 H 112.834 6.20735 2.12189 0
M  V30 1266 H 112.751 7.49778 0.967913 0
M  V30 1267 H 114.019 7.4906 2.15706 0
M  V30 1268 N 118.248 0.346503 1.53744 0
M  V30 1269 C 119.525 -0.304532 1.93215 0
M  V30 1270 C 119.905 -1.67993 1.27834 0
M  V30 1271 O 119.253 -2.24411 0.430352 0
M  V30 1272 C 119.463 -0.373852 3.46992 0
M  V30 1273 C 120.811 -0.62329 4.2 0
M  V30 1274 O 121.835 -0.455847 3.53271 0
M  V30 1275 O 120.694 -0.947879 5.38217 0
M  V30 1276 H 117.788 -0.178318 0.807547 0
M  V30 1277 H 120.334 0.397895 1.64969 0
M  V30 1278 H 119.106 0.591224 3.86808 0
M  V30 1279 H 118.729 -1.12294 3.81413 0
M  V30 1280 N 119.726 -1.57421 0.075193 0
M  V30 1281 C 120.656 -2.15942 -0.888324 0
M  V30 1282 C 121.637 -1.08737 -1.30806 0
M  V30 1283 O 122.822 -1.36787 -1.37851 0
M  V30 1284 C 119.952 -2.72379 -2.1547 0
M  V30 1285 C 118.906 -3.8478 -1.87425 0
M  V30 1286 C 118.232 -4.27834 -3.20721 0
M  V30 1287 C 119.532 -5.08869 -1.17684 0
M  V30 1288 H 121.226 -2.96705 -0.400799 0
M  V30 1289 H 118.772 -1.42723 -0.191342 0
M  V30 1290 H 120.725 -3.11965 -2.83295 0
M  V30 1291 H 119.449 -1.88841 -2.6647 0
M  V30 1292 H 118.108 -3.45703 -1.22004 0
M  V30 1293 H 117.756 -3.41214 -3.6957 0
M  V30 1294 H 117.456 -5.03605 -3.02746 0
M  V30 1295 H 118.98 -4.70039 -3.89738 0
M  V30 1296 H 120.394 -5.4575 -1.75584 0
M  V30 1297 H 118.791 -5.8994 -1.09956 0
M  V30 1298 H 119.861 -4.84648 -0.156453 0
M  V30 1299 N 121.204 0.198386 -1.56346 0
M  V30 1300 C 122.451 0.919286 -1.80431 0
M  V30 1301 C 122.779 1.83393 -0.647866 0
M  V30 1302 O 122.034 1.92236 0.366556 0
M  V30 1303 C 122.333 1.77031 -3.10475 0
M  V30 1304 C 121.999 1.00693 -4.39513 0
M  V30 1305 C 120.661 0.796145 -4.74568 0
M  V30 1306 C 123.013 0.469559 -5.19081 0
M  V30 1307 C 120.341 0.0364588 -5.86689 0
M  V30 1308 C 122.693 -0.2769 -6.31994 0
M  V30 1309 C 121.357 -0.49873 -6.65634 0
M  V30 1310 H 120.627 0.336391 -0.660244 0
M  V30 1311 H 123.274 0.185872 -1.90596 0
M  V30 1312 H 121.579 2.5723 -2.95533 0
M  V30 1313 H 123.276 2.33065 -3.26315 0
M  V30 1314 H 119.866 1.18122 -4.12001 0
M  V30 1315 H 124.05 0.619816 -4.92414 0
M  V30 1316 H 119.306 -0.145412 -6.11227 0
M  V30 1317 H 123.48 -0.700684 -6.92866 0
M  V30 1318 H 121.107 -1.0893 -7.52355 0
M  V30 1319 N 122.682 1.50554 0.465978 0
M  V30 1320 C 123.632 1.66177 1.56106 0
M  V30 1321 C 124.616 0.516265 1.52393 0
M  V30 1322 O 125.808 0.770906 1.5933 0
M  V30 1323 C 122.937 1.76396 2.94515 0
M  V30 1324 C 122.023 2.9664 3.03093 0
M  V30 1325 N 122.414 4.20245 2.81474 0
M  V30 1326 C 120.712 2.95304 3.34233 0
M  V30 1327 C 121.413 5.01259 2.95151 0
M  V30 1328 N 120.389 4.35318 3.25576 0
M  V30 1329 H 124.191 2.59434 1.38099 0
M  V30 1330 H 121.705 1.47808 0.6728 0
M  V30 1331 H 123.702 1.85694 3.73261 0
M  V30 1332 H 122.362 0.843017 3.13565 0
M  V30 1333 H 123.373 4.4966 2.56956 0
M  V30 1334 H 120.05 2.12729 3.59239 0
M  V30 1335 H 121.44 6.09564 2.82632 0
M  V30 1336 N 124.16 -0.719506 1.40217 0
M  V30 1337 C 125.4 -1.49181 1.39729 0
M  V30 1338 C 125.764 -1.92 -0.00250614 0
M  V30 1339 O 126.965 -2.68473 -0.132479 0
M  V30 1340 C 125.236 -2.68767 2.35582 0
M  V30 1341 S 126.795 -3.58224 2.53418 0
M  V30 1342 H 123.613 -0.510091 0.495307 0
M  V30 1343 H 126.215 -0.841724 1.76452 0
M  V30 1344 H 124.919 -2.35475 3.36124 0
M  V30 1345 H 124.45 -3.38691 2.0013 0
M  V30 1346 H 126.465 -4.63033 1.78367 0
M  V30 1347 N 125.638 -1.25649 -0.95132 0
M  V30 1348 C 126.884 -1.10757 -1.69884 0
M  V30 1349 C 127.217 0.350061 -1.91019 0
M  V30 1350 O 126.492 1.25783 -1.48354 0
M  V30 1351 C 126.775 -1.86606 -3.07978 0
M  V30 1352 C 126.628 -3.40217 -2.94232 0
M  V30 1353 C 127.947 -1.65182 -4.07925 0
M  V30 1354 H 125.066 -0.40374 -0.616574 0
M  V30 1355 H 127.708 -1.54521 -1.10558 0
M  V30 1356 H 125.858 -1.49409 -3.58621 0
M  V30 1357 H 127.53 -3.87108 -2.50889 0
M  V30 1358 H 125.773 -3.67759 -2.30078 0
M  V30 1359 H 126.444 -3.88505 -3.92133 0
M  V30 1360 H 128.92 -1.9757 -3.66204 0
M  V30 1361 H 127.796 -2.20683 -5.02583 0
M  V30 1362 H 128.057 -0.593933 -4.38092 0
M  V30 1363 N 127.117 1.15442 -1.07289 0
M  V30 1364 C 128.342 1.90638 -0.816828 0
M  V30 1365 C 128.767 1.77445 0.624083 0
M  V30 1366 O 128.125 1.10671 1.43602 0
M  V30 1367 C 128.173 3.39008 -1.22906 0
M  V30 1368 O 127.277 4.10701 -0.373975 0
M  V30 1369 H 126.618 0.593555 -0.297638 0
M  V30 1370 H 129.148 1.46198 -1.43134 0
M  V30 1371 H 129.158 3.89801 -1.20497 0
M  V30 1372 H 127.833 3.47929 -2.27856 0
M  V30 1373 H 126.41 3.70046 -0.460499 0
M  V30 1374 N 128.595 0.856903 1.32268 0
M  V30 1375 C 129.842 0.461386 1.97174 0
M  V30 1376 C 130.17 -0.983491 1.67803 0
M  V30 1377 O 129.425 -1.70541 0.959903 0
M  V30 1378 C 129.724 0.649919 3.51441 0
M  V30 1379 C 129.39 2.0656 4.00804 0
M  V30 1380 C 128.052 2.45279 4.13995 0
M  V30 1381 C 130.404 2.98947 4.26943 0
M  V30 1382 C 127.732 3.75653 4.50668 0
M  V30 1383 C 130.084 4.28822 4.65075 0
M  V30 1384 C 128.748 4.67472 4.76472 0
M  V30 1385 H 128.018 0.168833 0.72151 0
M  V30 1386 H 130.665 1.08739 1.57633 0
M  V30 1387 H 128.97 -0.0593018 3.91755 0
M  V30 1388 H 130.667 0.32391 3.9969 0
M  V30 1389 H 127.257 1.75495 3.91024 0
M  V30 1390 H 131.441 2.70265 4.16258 0
M  V30 1391 H 126.697 4.05379 4.57688 0
M  V30 1392 H 130.871 5.0047 4.84255 0
M  V30 1393 H 128.498 5.68539 5.04646 0
M  V30 1394 N 130.073 -1.45103 0.615059 0
M  V30 1395 C 131.301 -2.06553 0.11977 0
M  V30 1396 C 131.716 -1.45842 -1.19898 0
M  V30 1397 O 131.073 -0.575325 -1.73194 0
M  V30 1398 C 131.124 -3.61495 -0.018364 0
M  V30 1399 O 130.845 -4.19942 1.24822 0
M  V30 1400 C 132.346 -4.39947 -0.544237 0
M  V30 1401 H 129.566 -0.667096 0.0722739 0
M  V30 1402 H 132.11 -1.8623 0.84491 0
M  V30 1403 H 130.265 -3.81135 -0.693865 0
M  V30 1404 H 130.679 -5.13204 1.0827 0
M  V30 1405 H 132.153 -5.48838 -0.589953 0
M  V30 1406 H 132.63 -4.10255 -1.56805 0
M  V30 1407 H 133.236 -4.25188 0.0974703 0
M  V30 1408 N 131.551 -0.354651 -1.53558 0
M  V30 1409 C 132.481 0.489091 -2.2832 0
M  V30 1410 C 133.462 1.09324 -1.30316 0
M  V30 1411 O 134.647 1.11255 -1.59173 0
M  V30 1412 C 131.777 1.63456 -3.0643 0
M  V30 1413 C 130.731 1.1582 -4.12031 0
M  V30 1414 C 130.057 2.39305 -4.7816 0
M  V30 1415 C 131.357 0.250731 -5.21698 0
M  V30 1416 H 133.051 -0.134614 -2.99097 0
M  V30 1417 H 130.597 -0.0661826 -1.43848 0
M  V30 1418 H 132.55 2.23136 -3.57475 0
M  V30 1419 H 131.274 2.28533 -2.33325 0
M  V30 1420 H 129.933 0.584146 -3.61916 0
M  V30 1421 H 129.581 3.02814 -4.01637 0
M  V30 1422 H 129.281 2.08109 -5.49513 0
M  V30 1423 H 130.805 2.99691 -5.31994 0
M  V30 1424 H 132.219 0.754695 -5.68311 0
M  V30 1425 H 130.616 0.0301468 -6.00092 0
M  V30 1426 H 131.686 -0.710125 -4.79672 0
M  V30 1427 N 133.029 1.57378 -0.0835403 0
M  V30 1428 C 134.44 1.81261 0.447358 0
M  V30 1429 C 134.791 0.998331 1.68902 0
M  V30 1430 O 133.916 0.224282 2.15235 0
M  V30 1431 C 134.511 3.28767 0.818386 0
M  V30 1432 C 133.07 3.53455 1.29409 0
M  V30 1433 C 132.217 2.75831 0.285024 0
M  V30 1434 H 135.168 1.5566 -0.309115 0
M  V30 1435 H 135.189 3.41459 1.67887 0
M  V30 1436 H 134.701 3.88006 -0.0855019 0
M  V30 1437 H 132.802 2.99534 2.21608 0
M  V30 1438 H 132.915 4.62128 1.2639 0
M  V30 1439 H 131.279 2.42947 0.764767 0
M  V30 1440 H 132.062 3.37813 -0.611341 0
M  V30 1441 N 134.507 -0.190092 1.56449 0
M  V30 1442 C 135.923 -0.54113 1.50146 0
M  V30 1443 C 136.123 -1.85603 0.784465 0
M  V30 1444 O 135.179 -2.5024 0.337051 0
M  V30 1445 C 136.492 -0.591241 2.9483 0
M  V30 1446 C 138.04 -0.679732 3.0553 0
M  V30 1447 C 138.515 -0.760908 4.51635 0
M  V30 1448 N 140.006 -0.824302 4.55806 0
M  V30 1449 C 140.741 -0.907365 5.66175 0
M  V30 1450 N 140.237 -0.952422 6.86222 0
M  V30 1451 N 142.03 -0.94494 5.541 0
M  V30 1452 H 134.181 0.67235 2.01478 0
M  V30 1453 H 136.444 0.240127 0.917084 0
M  V30 1454 H 136.15 0.305905 3.50367 0
M  V30 1455 H 136.024 -1.44422 3.48457 0
M  V30 1456 H 138.411 -1.56731 2.50039 0
M  V30 1457 H 138.492 0.199549 2.5502 0
M  V30 1458 H 138.136 0.122336 5.07753 0
M  V30 1459 H 138.066 -1.65606 4.99882 0
M  V30 1460 H 140.557 -0.798526 3.69367 0
M  V30 1461 H 140.87 -1.01645 7.66086 0
M  V30 1462 H 139.215 -0.921014 6.8887 0
M  V30 1463 H 142.406 -0.906612 4.59236 0
M  V30 1464 H 142.579 -1.00622 6.4014 0
M  V30 1465 N 135.985 -1.50799 -0.457987 0
M  V30 1466 C 137.234 -1.6168 -1.20593 0
M  V30 1467 C 137.547 -0.32888 -1.92815 0
M  V30 1468 O 138.753 -0.316773 -2.69646 0
M  V30 1469 C 137.209 -2.8545 -2.19195 0
M  V30 1470 C 136.817 -4.21168 -1.52715 0
M  V30 1471 C 138.561 -3.05681 -2.94549 0
M  V30 1472 C 136.468 -5.3611 -2.4968 0
M  V30 1473 H 135.398 -0.602134 -0.453818 0
M  V30 1474 H 138.049 -1.77245 -0.475031 0
M  V30 1475 H 136.431 -2.63472 -2.95632 0
M  V30 1476 H 137.605 -4.53449 -0.819775 0
M  V30 1477 H 135.92 -4.06648 -0.895922 0
M  V30 1478 H 138.517 -3.88727 -3.67145 0
M  V30 1479 H 138.86 -2.17929 -3.54701 0
M  V30 1480 H 139.393 -3.27901 -2.25223 0
M  V30 1481 H 136.132 -6.26057 -1.94249 0
M  V30 1482 H 135.652 -5.0823 -3.18532 0
M  V30 1483 H 137.331 -5.6722 -3.11241 0
M  V30 1484 N 137.463 0.71206 -1.40597 0
M  V30 1485 C 138.688 1.50617 -1.42581 0
M  V30 1486 C 139.113 1.88079 -0.0282102 0
M  V30 1487 O 138.471 1.53511 0.964579 0
M  V30 1488 C 138.519 2.7557 -2.3258 0
M  V30 1489 O 137.623 3.72414 -1.77148 0
M  V30 1490 H 136.964 0.453966 -0.484573 0
M  V30 1491 H 139.494 0.876649 -1.84868 0
M  V30 1492 H 139.504 3.2406 -2.47889 0
M  V30 1493 H 138.179 2.47639 -3.34138 0
M  V30 1494 H 136.756 3.31276 -1.71204 0
M  V30 1495 N 138.941 1.26152 0.944643 0
M  V30 1496 C 139.904 1.07474 2.0244 0
M  V30 1497 C 140.904 0.0242064 1.60782 0
M  V30 1498 O 142.094 0.267302 1.72137 0
M  V30 1499 C 139.226 0.633956 3.34953 0
M  V30 1500 H 140.419 2.03336 2.20442 0
M  V30 1501 H 137.972 1.087 1.12312 0
M  V30 1502 H 138.707 -0.326811 3.22649 0
M  V30 1503 H 138.492 1.39247 3.66542 0
M  V30 1504 H 139.982 0.52501 4.14287 0
M  V30 1505 N 140.419 -1.14872 1.07899 0
M  V30 1506 C 141.644 -1.90202 0.826926 0
M  V30 1507 C 142.069 -1.77774 -0.614664 0
M  V30 1508 O 141.427 -1.11431 -1.43013 0
M  V30 1509 C 141.475 -3.38352 1.24702 0
M  V30 1510 O 140.579 -4.10497 0.39575 0
M  V30 1511 H 139.92 -0.591968 0.300782 0
M  V30 1512 H 142.45 -1.45437 1.43907 0
M  V30 1513 H 142.46 -3.89156 1.22563 0
M  V30 1514 H 141.135 -3.46715 2.29698 0
M  V30 1515 H 139.712 -3.69796 0.480117 0
M  V30 1516 N 141.898 -0.863906 -1.31812 0
M  V30 1517 C 143.123 -0.48527 -2.01643 0
M  V30 1518 C 143.548 0.913058 -1.64453 0
M  V30 1519 O 142.906 1.6014 -0.849985 0
M  V30 1520 C 142.954 -0.642625 -3.54828 0
M  V30 1521 O 142.058 0.320659 -4.11151 0
M  V30 1522 H 141.399 -0.193793 -0.635091 0
M  V30 1523 H 143.929 -1.16565 -1.68148 0
M  V30 1524 H 143.939 -0.533628 -4.04495 0
M  V30 1525 H 142.614 -1.66227 -3.81237 0
M  V30 1526 H 141.191 0.167126 -3.72525 0
M  V30 1527 N 143.376 1.44774 -0.622745 0
M  V30 1528 C 144.286 2.34433 0.0886031 0
M  V30 1529 C 145.302 1.52131 0.844529 0
M  V30 1530 O 146.478 1.84886 0.798691 0
M  V30 1531 C 143.543 3.29986 1.0635 0
M  V30 1532 C 142.604 4.28195 0.307873 0
M  V30 1533 C 141.837 5.19183 1.23633 0
M  V30 1534 O 142.06 5.13918 2.47476 0
M  V30 1535 O 140.994 5.97515 0.725189 0
M  V30 1536 H 144.82 2.96693 -0.648599 0
M  V30 1537 H 142.405 1.44408 -0.382957 0
M  V30 1538 H 144.287 3.88825 1.6246 0
M  V30 1539 H 142.962 2.70269 1.78146 0
M  V30 1540 H 141.869 3.72927 -0.296064 0
M  V30 1541 H 143.202 4.90808 -0.3699 0
M  V30 1542 N 144.854 0.36279 1.53368 0
M  V30 1543 C 146.1 -0.228113 2.01513 0
M  V30 1544 C 146.433 -1.48648 1.2497 0
M  V30 1545 O 145.708 -1.91459 0.342616 0
M  V30 1546 C 145.991 -0.522884 3.56284 0
M  V30 1547 C 145.844 0.74892 4.43521 0
M  V30 1548 C 147.163 -1.32461 4.19693 0
M  V30 1549 H 144.282 -0.0814343 0.732487 0
M  V30 1550 H 146.924 0.48713 1.83649 0
M  V30 1551 H 145.074 -1.1322 3.71636 0
M  V30 1552 H 146.746 1.38648 4.39971 0
M  V30 1553 H 144.989 1.36986 4.11603 0
M  V30 1554 H 145.66 0.497667 5.49752 0
M  V30 1555 H 148.136 -0.809203 4.08156 0
M  V30 1556 H 147.012 -1.49961 5.28018 0
M  V30 1557 H 147.273 -2.33232 3.75573 0
M  V30 1558 N 146.332 -1.57332 0.0918853 0
M  V30 1559 C 147.295 -2.12708 -0.85369 0
M  V30 1560 C 148.295 -1.05561 -1.213 0
M  V30 1561 O 149.485 -1.31461 -1.14296 0
M  V30 1562 C 146.617 -2.64503 -2.15061 0
M  V30 1563 H 147.81 -2.97573 -0.3729 0
M  V30 1564 H 145.363 -1.55509 -0.157072 0
M  V30 1565 H 146.098 -1.83149 -2.67632 0
M  V30 1566 H 145.883 -3.4284 -1.90272 0
M  V30 1567 H 147.373 -3.07351 -2.82711 0
M  V30 1568 N 147.81 0.181792 -1.56548 0
M  V30 1569 C 149.057 0.900097 -1.81396 0
M  V30 1570 C 149.385 1.82695 -0.667281 0
M  V30 1571 O 148.64 1.92614 0.346146 0
M  V30 1572 C 148.939 1.73728 -3.12335 0
M  V30 1573 C 148.605 0.960255 -4.40556 0
M  V30 1574 C 147.267 0.745766 -4.75386 0
M  V30 1575 C 149.619 0.414477 -5.19549 0
M  V30 1576 C 146.947 -0.0257694 -5.86694 0
M  V30 1577 C 149.299 -0.343916 -6.31664 0
M  V30 1578 C 147.963 -0.569301 -6.65068 0
M  V30 1579 H 147.233 0.329369 -0.663775 0
M  V30 1580 H 149.88 0.165647 -1.90782 0
M  V30 1581 H 148.185 2.54081 -2.98245 0
M  V30 1582 H 149.882 2.29591 -3.28769 0
M  V30 1583 H 146.472 1.13746 -4.13231 0
M  V30 1584 H 150.656 0.567554 -4.93044 0
M  V30 1585 H 145.912 -0.210233 -6.11038 0
M  V30 1586 H 150.086 -0.774133 -6.92084 0
M  V30 1587 H 147.713 -1.16903 -7.51158 0
M  V30 1588 N 149.288 1.51039 0.449983 0
M  V30 1589 C 150.218 1.74379 1.55288 0
M  V30 1590 C 151.199 0.593236 1.5942 0
M  V30 1591 O 152.384 0.834625 1.7535 0
M  V30 1592 C 149.514 1.85728 2.93466 0
M  V30 1593 C 148.468 3.01078 3.04197 0
M  V30 1594 C 147.794 2.97595 4.44231 0
M  V30 1595 C 149.094 4.41254 2.7945 0
M  V30 1596 H 150.788 2.66725 1.36008 0
M  V30 1597 H 148.334 1.2835 0.652864 0
M  V30 1598 H 150.287 2.0064 3.70569 0
M  V30 1599 H 149.011 0.900207 3.13949 0
M  V30 1600 H 147.67 2.85851 2.29531 0
M  V30 1601 H 147.318 1.99691 4.61663 0
M  V30 1602 H 147.018 3.75046 4.52343 0
M  V30 1603 H 148.542 3.14583 5.23326 0
M  V30 1604 H 149.956 4.56897 3.46292 0
M  V30 1605 H 148.353 5.20315 2.98985 0
M  V30 1606 H 149.423 4.52164 1.75144 0
M  V30 1607 N 150.766 -0.704594 1.40972 0
M  V30 1608 C 151.991 -1.49858 1.43378 0
M  V30 1609 C 152.416 -1.88061 0.038184 0
M  V30 1610 O 151.774 -1.5402 -0.956425 0
M  V30 1611 C 151.822 -2.74333 2.34038 0
M  V30 1612 O 150.926 -3.7147 1.7912 0
M  V30 1613 H 150.267 -0.45139 0.486974 0
M  V30 1614 H 152.797 -0.866832 1.8533 0
M  V30 1615 H 152.807 -3.22741 2.49604 0
M  V30 1616 H 151.482 -2.45863 3.35446 0
M  V30 1617 H 150.059 -3.30363 1.72958 0
M  V30 1618 N 152.244 -1.26651 -0.937939 0
M  V30 1619 C 153.493 -1.11775 -1.67897 0
M  V30 1620 C 153.806 0.33794 -1.92659 0
M  V30 1621 O 155.012 0.607434 -2.64618 0
M  V30 1622 C 153.468 -1.9523 -3.02346 0
M  V30 1623 C 153.076 -3.45393 -2.8532 0
M  V30 1624 C 154.82 -1.88972 -3.80118 0
M  V30 1625 C 152.727 -4.21083 -4.15263 0
M  V30 1626 H 151.657 -0.414696 -0.629717 0
M  V30 1627 H 154.308 -1.50988 -1.04283 0
M  V30 1628 H 152.69 -1.48853 -3.66959 0
M  V30 1629 H 153.864 -3.99561 -2.29537 0
M  V30 1630 H 152.179 -3.52921 -2.20988 0
M  V30 1631 H 154.776 -2.42805 -4.76392 0
M  V30 1632 H 155.119 -0.86113 -4.07296 0
M  V30 1633 H 155.652 -2.33189 -3.22285 0
M  V30 1634 H 152.391 -5.24425 -3.93267 0
M  V30 1635 H 151.911 -3.71695 -4.70747 0
M  V30 1636 H 153.59 -4.29706 -4.83696 0
M  V30 1637 N 153.722 1.14298 -1.08507 0
M  V30 1638 C 154.654 2.1907 -0.673859 0
M  V30 1639 C 155.667 1.60381 0.279577 0
M  V30 1640 O 156.856 1.78374 0.0670754 0
M  V30 1641 C 153.956 3.38888 0.0290979 0
M  V30 1642 C 153.129 4.27103 -0.943494 0
M  V30 1643 C 152.188 5.25477 -0.275676 0
M  V30 1644 O 151.214 5.61709 -0.920401 0
M  V30 1645 N 152.416 5.7227 0.974013 0
M  V30 1646 H 155.181 2.54965 -1.57521 0
M  V30 1647 H 152.742 1.29528 -0.971287 0
M  V30 1648 H 154.734 4.01761 0.48683 0
M  V30 1649 H 153.304 3.01309 0.832555 0
M  V30 1650 H 152.524 3.61149 -1.58004 0
M  V30 1651 H 153.812 4.82905 -1.60251 0
M  V30 1652 H 153.21 5.44965 1.51755 0
M  V30 1653 H 151.767 6.37127 1.37522 0
M  V30 1654 N 155.201 0.870884 1.31352 0
M  V30 1655 C 156.45 0.478408 1.95944 0
M  V30 1656 C 156.763 -0.974493 1.69597 0
M  V30 1657 O 157.969 -1.47316 2.28058 0
M  V30 1658 C 156.425 0.804609 3.50791 0
M  V30 1659 C 156.033 2.27433 3.85977 0
M  V30 1660 C 157.777 0.480648 4.2177 0
M  V30 1661 C 155.684 2.5429 5.33939 0
M  V30 1662 H 154.614 0.175175 0.733369 0
M  V30 1663 H 157.265 1.06391 1.4951 0
M  V30 1664 H 155.647 0.148347 3.95722 0
M  V30 1665 H 156.821 2.97373 3.52002 0
M  V30 1666 H 155.136 2.56442 3.28065 0
M  V30 1667 H 157.733 0.658519 5.30629 0
M  V30 1668 H 158.076 -0.578979 4.12254 0
M  V30 1669 H 158.609 1.09349 3.82476 0
M  V30 1670 H 155.348 3.58939 5.48491 0
M  V30 1671 H 154.868 1.88945 5.69263 0
M  V30 1672 H 156.547 2.39066 6.01212 0
M  V30 1673 N 156.679 -1.44442 0.630414 0
M  V30 1674 C 157.626 -2.30678 -0.0749355 0
M  V30 1675 C 158.596 -1.4344 -0.837502 0
M  V30 1676 O 159.781 -1.72343 -0.818684 0
M  V30 1677 C 156.921 -3.28706 -1.05103 0
M  V30 1678 C 156.034 -4.31046 -0.286954 0
M  V30 1679 C 155.169 -5.16167 -1.2548 0
M  V30 1680 C 154.208 -6.10216 -0.479843 0
M  V30 1681 N 153.345 -6.88039 -1.39811 0
M  V30 1682 H 158.185 -2.90454 0.666386 0
M  V30 1683 H 155.722 -1.43107 0.340404 0
M  V30 1684 H 157.68 -3.84027 -1.63031 0
M  V30 1685 H 156.31 -2.70632 -1.75949 0
M  V30 1686 H 155.362 -3.78203 0.408243 0
M  V30 1687 H 156.674 -4.97794 0.316657 0
M  V30 1688 H 155.828 -5.76002 -1.90544 0
M  V30 1689 H 154.567 -4.49491 -1.89233 0
M  V30 1690 H 153.572 -5.49491 0.184295 0
M  V30 1691 H 154.797 -6.78928 0.152965 0
M  V30 1692 H 152.743 -6.24032 -2.02287 0
M  V30 1693 H 152.66 -7.51223 -0.848508 0
M  V30 1694 H 153.928 -7.52397 -2.03762 0
M  V30 1695 N 158.157 -0.370918 -1.53173 0
M  V30 1696 C 159.405 0.216673 -2.00935 0
M  V30 1697 C 159.726 1.48845 -1.25977 0
M  V30 1698 O 158.996 1.92286 -0.374551 0
M  V30 1699 H 157.576 0.0830565 -0.742368 0
M  V30 1700 H 160.238 -0.49838 -1.8842 0
M  V30 1701 H 159.334 0.439893 -3.08984 0
M  V30 1702 N 159.635 1.57281 -0.100228 0
M  V30 1703 C 161.046 1.81725 0.428107 0
M  V30 1704 C 161.397 1.01619 1.67833 0
M  V30 1705 O 160.522 0.247098 2.14985 0
M  V30 1706 C 161.117 3.29617 0.78347 0
M  V30 1707 C 159.676 3.54808 1.25653 0
M  V30 1708 C 158.823 2.76118 0.255752 0
M  V30 1709 H 161.774 1.55324 -0.325608 0
M  V30 1710 H 161.795 3.4322 1.64256 0
M  V30 1711 H 161.307 3.87893 -0.12665 0
M  V30 1712 H 159.408 3.01868 2.18418 0
M  V30 1713 H 159.521 4.63443 1.21482 0
M  V30 1714 H 157.885 2.43745 0.738956 0
M  V30 1715 H 158.668 3.37145 -0.647136 0
M  V30 1716 N 161.113 -0.173488 1.56642 0
M  V30 1717 C 162.341 -0.906095 1.86004 0
M  V30 1718 C 162.756 -1.75921 0.685355 0
M  V30 1719 O 162.113 -1.79198 -0.345578 0
M  V30 1720 C 162.164 -1.78462 3.14378 0
M  V30 1721 O 161.885 -0.965914 4.27319 0
M  V30 1722 C 163.386 -2.62707 3.57071 0
M  V30 1723 H 160.606 -0.263341 0.617165 0
M  V30 1724 H 163.15 -0.174236 2.03756 0
M  V30 1725 H 161.305 -2.46984 2.98459 0
M  V30 1726 H 161.719 -1.56655 5.00559 0
M  V30 1727 H 163.193 -3.19969 4.49804 0
M  V30 1728 H 163.67 -3.37472 2.81086 0
M  V30 1729 H 164.276 -1.99521 3.75595 0
M  V30 1730 N 162.591 -1.51276 -0.441967 0
M  V30 1731 C 163.523 -1.68444 -1.55433 0
M  V30 1732 C 164.536 -0.565187 -1.52674 0
M  V30 1733 O 165.725 -0.839356 -1.57534 0
M  V30 1734 C 162.825 -1.67966 -2.94348 0
M  V30 1735 C 161.998 -2.964 -3.21661 0
M  V30 1736 C 161.057 -2.88171 -4.40277 0
M  V30 1737 O 160.083 -3.62119 -4.39157 0
M  V30 1738 N 161.285 -2.03706 -5.43584 0
M  V30 1739 H 164.05 -2.644 -1.41112 0
M  V30 1740 H 161.611 -1.49104 -0.630838 0
M  V30 1741 H 163.603 -1.60035 -3.71713 0
M  V30 1742 H 162.173 -0.796225 -3.0229 0
M  V30 1743 H 161.393 -3.18234 -2.32638 0
M  V30 1744 H 162.681 -3.81427 -3.36736 0
M  V30 1745 H 162.079 -1.42995 -5.47329 0
M  V30 1746 H 160.636 -2.01658 -6.1982 0
M  V30 1747 N 164.069 0.697108 -1.41344 0
M  V30 1748 C 165.346 1.45154 -1.31109 0
M  V30 1749 C 165.726 2.11009 0.0620449 0
M  V30 1750 O 165.074 2.01571 1.07618 0
M  V30 1751 C 165.284 2.47223 -2.46337 0
M  V30 1752 C 166.632 3.1252 -2.87431 0
M  V30 1753 O 167.656 2.57547 -2.46065 0
M  V30 1754 O 166.515 4.12083 -3.58957 0
M  V30 1755 H 163.609 0.646365 -0.515889 0
M  V30 1756 H 166.155 0.727716 -1.53305 0
M  V30 1757 H 164.927 1.97204 -3.37974 0
M  V30 1758 H 164.55 3.27116 -2.2601 0
M  V30 1759 N 165.547 1.27147 0.931209 0
M  V30 1760 C 166.794 1.13278 1.67852 0
M  V30 1761 C 167.122 -0.32204 1.91815 0
M  V30 1762 O 166.377 -1.25224 1.50391 0
M  V30 1763 C 166.676 1.8579 3.05314 0
M  V30 1764 C 166.342 3.35657 3.01073 0
M  V30 1765 C 165.004 3.76536 2.99623 0
M  V30 1766 C 167.356 4.31299 2.92627 0
M  V30 1767 C 164.684 5.11426 2.87506 0
M  V30 1768 C 167.036 5.66242 2.82051 0
M  V30 1769 C 165.7 6.06418 2.7895 0
M  V30 1770 H 164.97 0.414515 0.614214 0
M  V30 1771 H 167.617 1.57712 1.08624 0
M  V30 1772 H 165.922 1.33854 3.68226 0
M  V30 1773 H 167.619 1.72491 3.62005 0
M  V30 1774 H 164.209 3.03146 3.02986 0
M  V30 1775 H 168.393 4.00692 2.92848 0
M  V30 1776 H 163.649 5.41705 2.83489 0
M  V30 1777 H 167.823 6.40026 2.74481 0
M  V30 1778 H 165.45 7.10895 2.69318 0
M  V30 1779 N 167.025 -1.13721 1.09112 0
M  V30 1780 C 168.441 -1.36914 0.820174 0
M  V30 1781 C 168.641 -1.93356 -0.567079 0
M  V30 1782 O 167.697 -2.15093 -1.32255 0
M  V30 1783 C 169.01 -2.3235 1.90877 0
M  V30 1784 C 170.558 -2.45973 1.93562 0
M  V30 1785 C 171.033 -3.44714 3.01556 0
M  V30 1786 N 172.524 -3.52263 3.00775 0
M  V30 1787 C 173.259 -4.28536 3.80978 0
M  V30 1788 N 172.755 -5.07991 4.71081 0
M  V30 1789 N 174.548 -4.23804 3.69251 0
M  V30 1790 H 166.699 -0.754348 1.98553 0
M  V30 1791 H 168.962 -0.3944 0.862063 0
M  V30 1792 H 168.668 -1.98027 2.90651 0
M  V30 1793 H 168.542 -3.32332 1.78424 0
M  V30 1794 H 170.929 -2.79584 0.944286 0
M  V30 1795 H 171.01 -1.45926 2.10093 0
M  V30 1796 H 170.654 -3.11835 4.00901 0
M  V30 1797 H 170.584 -4.44558 2.82269 0
M  V30 1798 H 173.075 -2.95567 2.35475 0
M  V30 1799 H 173.388 -5.63487 5.28869 0
M  V30 1800 H 171.733 -5.07235 4.75119 0
M  V30 1801 H 174.924 -3.60806 2.98222 0
M  V30 1802 H 175.097 -4.82995 4.31995 0
M  V30 1803 N 168.503 -0.877838 -1.30888 0
M  V30 1804 C 169.45 -0.337538 -2.28318 0
M  V30 1805 C 170.42 0.568346 -1.56074 0
M  V30 1806 O 171.605 0.498298 -1.84178 0
M  V30 1807 C 168.745 0.448142 -3.42178 0
M  V30 1808 C 167.858 -0.48615 -4.29256 0
M  V30 1809 C 166.993 0.314427 -5.30269 0
M  V30 1810 C 166.032 -0.615791 -6.08995 0
M  V30 1811 N 165.169 0.14902 -7.01942 0
M  V30 1812 H 170.009 -1.17356 -2.73919 0
M  V30 1813 H 167.546 -0.590094 -1.34745 0
M  V30 1814 H 169.504 0.919517 -4.06941 0
M  V30 1815 H 168.134 1.24879 -2.97666 0
M  V30 1816 H 167.186 -1.076 -3.64865 0
M  V30 1817 H 168.498 -1.19909 -4.84173 0
M  V30 1818 H 167.652 0.847969 -6.00745 0
M  V30 1819 H 166.391 1.06062 -4.76027 0
M  V30 1820 H 165.396 -1.16102 -5.37401 0
M  V30 1821 H 166.621 -1.36097 -6.65323 0
M  V30 1822 H 164.567 0.877884 -6.50099 0
M  V30 1823 H 164.484 -0.504433 -7.54315 0
M  V30 1824 H 165.752 0.663537 -7.76671 0
M  V30 1825 N 169.982 1.44106 -0.638065 0
M  V30 1826 C 171.398 1.56672 -0.304286 0
M  V30 1827 C 171.598 1.6244 1.19228 0
M  V30 1828 O 170.654 1.57121 1.9766 0
M  V30 1829 C 171.967 2.83503 -1.00231 0
M  V30 1830 C 173.515 2.97226 -0.981116 0
M  V30 1831 C 173.99 4.26868 -1.65974 0
M  V30 1832 N 175.481 4.33698 -1.62666 0
M  V30 1833 C 176.216 5.32745 -2.12063 0
M  V30 1834 N 175.712 6.38157 -2.6968 0
M  V30 1835 N 177.505 5.24299 -2.02651 0
M  V30 1836 H 169.656 1.38605 -1.60942 0
M  V30 1837 H 171.919 0.664661 -0.675965 0
M  V30 1838 H 171.625 2.85251 -2.0573 0
M  V30 1839 H 171.499 3.73251 -0.54439 0
M  V30 1840 H 173.886 2.95027 0.0654188 0
M  V30 1841 H 173.967 2.08808 -1.47759 0
M  V30 1842 H 173.611 4.29826 -2.70576 0
M  V30 1843 H 173.541 5.14156 -1.13804 0
M  V30 1844 H 176.032 3.58138 -1.20606 0
M  V30 1845 H 176.345 7.10029 -3.05087 0
M  V30 1846 H 174.69 6.38823 -2.73734 0
M  V30 1847 H 177.881 4.4086 -1.57353 0
M  V30 1848 H 178.054 6.01334 -2.41457 0
M  V30 1849 N 171.46 0.379036 1.52974 0
M  V30 1850 C 172.408 -0.476033 2.27677 0
M  V30 1851 C 173.402 -1.0719 1.31174 0
M  V30 1852 O 174.608 -1.01355 1.48752 0
M  V30 1853 H 170.983 -0.172255 0.732006 0
M  V30 1854 H 172.954 0.175615 2.97883 0
M  V30 1855 C 171.703 -1.5967 3.0887 0
M  V30 1856 H 171.026 -1.1475 3.82978 0
M  V30 1857 H 172.466 -2.16943 3.64296 0
M  V30 1858 C 170.925 -2.54682 2.20542 0
M  V30 1859 O 171.455 -3.57836 1.82527 0
M  V30 1860 N 169.661 -2.24183 1.84907 0
M  V30 1861 H 169.208 -1.40333 2.1602 0
M  V30 1862 H 169.166 -2.88006 1.26096 0
M  V30 1863 N 172.938 -1.57226 0.108567 0
M  V30 1864 C 174.166 -1.99179 -0.559954 0
M  V30 1865 C 174.581 -0.988022 -1.60884 0
M  V30 1866 O 173.938 0.0205512 -1.82488 0
M  V30 1867 C 173.989 -3.41159 -1.19552 0
M  V30 1868 O 173.71 -4.37694 -0.188577 0
M  V30 1869 C 175.211 -3.98188 -1.94837 0
M  V30 1870 H 172.431 -0.654228 -0.149088 0
M  V30 1871 H 174.975 -2.03598 0.19183 0
M  V30 1872 H 173.13 -3.37711 -1.89815 0
M  V30 1873 H 173.544 -5.20469 -0.649014 0
M  V30 1874 H 175.018 -4.99644 -2.34648 0
M  V30 1875 H 175.495 -3.3675 -2.81951 0
M  V30 1876 H 176.101 -4.0515 -1.2936 0
M  V30 1877 N 174.416 0.165178 -1.56732 0
M  V30 1878 C 175.662 0.882112 -1.82611 0
M  V30 1879 C 175.995 1.81628 -0.687378 0
M  V30 1880 O 175.27 1.92009 0.310267 0
M  V30 1881 C 175.553 1.67245 -3.18906 0
M  V30 1882 C 175.406 0.760987 -4.43316 0
M  V30 1883 C 176.725 2.63884 -3.52212 0
M  V30 1884 H 173.844 0.319242 -0.664269 0
M  V30 1885 H 176.486 0.148052 -1.89422 0
M  V30 1886 H 174.636 2.29824 -3.1323 0
M  V30 1887 H 176.308 0.147596 -4.61064 0
M  V30 1888 H 174.551 0.0694102 -4.33744 0
M  V30 1889 H 175.222 1.34962 -5.35247 0
M  V30 1890 H 177.698 2.11429 -3.58381 0
M  V30 1891 H 176.574 3.16245 -4.48643 0
M  V30 1892 H 176.835 3.44377 -2.77231 0
M  V30 1893 N 175.894 1.51508 0.433938 0
M  V30 1894 C 176.824 1.76016 1.53429 0
M  V30 1895 C 177.805 0.610112 1.58782 0
M  V30 1896 O 178.99 0.853177 1.74455 0
M  V30 1897 C 176.12 1.88831 2.9148 0
M  V30 1898 C 175.074 3.04288 3.00987 0
M  V30 1899 C 174.4 3.0229 4.4105 0
M  V30 1900 C 175.7 4.44193 2.74754 0
M  V30 1901 H 177.394 2.68152 1.33171 0
M  V30 1902 H 174.94 1.29035 0.639214 0
M  V30 1903 H 176.893 2.04559 3.6842 0
M  V30 1904 H 175.617 0.933455 3.12976 0
M  V30 1905 H 174.276 2.8827 2.26486 0
M  V30 1906 H 173.924 2.04576 4.59519 0
M  V30 1907 H 173.624 3.79822 4.4834 0
M  V30 1908 H 175.148 3.20116 5.1996 0
M  V30 1909 H 176.562 4.60544 3.41426 0
M  V30 1910 H 174.959 5.23457 2.9345 0
M  V30 1911 H 176.029 4.53996 1.70339 0
M  V30 1912 N 177.372 -0.689602 1.41712 0
M  V30 1913 C 178.618 -1.45181 1.41599 0
M  V30 1914 C 178.951 -1.94181 0.0270081 0
M  V30 1915 O 178.226 -1.6993 -0.946265 0
M  V30 1916 C 178.509 -2.65945 2.42787 0
M  V30 1917 C 178.362 -2.22672 3.90816 0
M  V30 1918 C 179.681 -3.68149 2.41151 0
M  V30 1919 H 176.8 -0.526576 0.515642 0
M  V30 1920 H 179.442 -0.784947 1.73028 0
M  V30 1921 H 177.592 -3.2284 2.16116 0
M  V30 1922 H 179.264 -1.71058 4.28412 0
M  V30 1923 H 177.507 -1.54394 4.05395 0
M  V30 1924 H 178.178 -3.0935 4.57172 0
M  V30 1925 H 180.654 -3.2094 2.64834 0
M  V30 1926 H 179.53 -4.50248 3.13955 0
M  V30 1927 H 179.791 -4.18259 1.43221 0
M  V30 1928 N 178.85 -1.27639 -0.924453 0
M  V30 1929 C 179.78 -1.13166 -2.04244 0
M  V30 1930 C 180.761 -0.032256 -1.70069 0
M  V30 1931 O 181.946 -0.207328 -1.9309 0
M  V30 1932 C 179.076 -0.781496 -3.38393 0
M  V30 1933 C 178.03 -1.83449 -3.86692 0
M  V30 1934 C 177.356 -1.33822 -5.17683 0
M  V30 1935 C 178.656 -3.23917 -4.09726 0
M  V30 1936 H 180.35 -2.06689 -2.1661 0
M  V30 1937 H 177.896 -0.995136 -1.04082 0
M  V30 1938 H 179.849 -0.667057 -4.16087 0
M  V30 1939 H 178.573 0.189439 -3.2605 0
M  V30 1940 H 177.232 -1.93789 -3.11193 0
M  V30 1941 H 176.88 -0.35665 -5.01734 0
M  V30 1942 H 176.58 -2.04224 -5.50968 0
M  V30 1943 H 178.104 -1.23679 -5.97943 0
M  V30 1944 H 179.518 -3.16559 -4.77978 0
M  V30 1945 H 177.915 -3.92059 -4.54324 0
M  V30 1946 H 178.985 -3.68729 -3.14908 0
M  V30 1947 N 180.328 1.1314 -1.09713 0
M  V30 1948 C 181.276 2.20717 -0.733934 0
M  V30 1949 C 182.27 1.6729 0.266506 0
M  V30 1950 O 183.476 1.79547 0.127656 0
M  V30 1951 H 179.851 0.719292 -0.21937 0
M  V30 1952 H 181.822 2.48611 -1.6503 0
M  V30 1953 C 180.571 3.47265 -0.173849 0
M  V30 1954 H 179.894 3.88716 -0.934873 0
M  V30 1955 H 181.334 4.23979 0.0423126 0
M  V30 1956 C 179.793 3.18724 1.09164 0
M  V30 1957 O 180.323 3.37762 2.17439 0
M  V30 1958 N 178.529 2.72583 1.00732 0
M  V30 1959 H 178.076 2.57291 0.126121 0
M  V30 1960 H 178.034 2.53862 1.85476 0
M  V30 1961 N 181.806 0.884767 1.30421 0
M  V30 1962 C 183.034 0.518044 2.0031 0
M  V30 1963 C 183.449 -0.893408 1.66324 0
M  V30 1964 O 182.806 -1.5875 0.900262 0
M  V30 1965 C 182.857 0.682997 3.54989 0
M  V30 1966 O 182.578 2.03888 3.87764 0
M  V30 1967 C 184.079 0.31924 4.42149 0
M  V30 1968 H 181.299 0.200265 0.640418 0
M  V30 1969 H 183.843 1.19001 1.6631 0
M  V30 1970 H 181.998 0.0584052 3.87356 0
M  V30 1971 H 182.412 2.05735 4.82466 0
M  V30 1972 H 183.886 0.485555 5.4986 0
M  V30 1973 H 184.363 -0.742717 4.32875 0
M  V30 1974 H 184.969 0.920147 4.15227 0
M  V30 1975 N 183.284 -1.43765 0.645699 0
M  V30 1976 C 184.216 -2.29027 -0.0890605 0
M  V30 1977 C 185.229 -1.42093 -0.794563 0
M  V30 1978 O 186.418 -1.66104 -0.653575 0
M  V30 1979 C 183.518 -3.18831 -1.14891 0
M  V30 1980 C 182.691 -4.34261 -0.523043 0
M  V30 1981 C 181.75 -5.04994 -1.47878 0
M  V30 1982 O 180.776 -5.6052 -0.990277 0
M  V30 1983 N 181.978 -5.07795 -2.81291 0
M  V30 1984 H 184.743 -2.92727 0.64272 0
M  V30 1985 H 182.304 -1.54373 0.487924 0
M  V30 1986 H 184.296 -3.63015 -1.78892 0
M  V30 1987 H 182.866 -2.56782 -1.78275 0
M  V30 1988 H 182.086 -3.93088 0.295896 0
M  V30 1989 H 183.374 -5.08728 -0.0858147 0
M  V30 1990 H 182.772 -4.64042 -3.23546 0
M  V30 1991 H 181.329 -5.55721 -3.40614 0
M  V30 1992 N 184.763 -0.387143 -1.52771 0
M  V30 1993 C 185.988 0.198407 -2.06449 0
M  V30 1994 C 186.413 1.39918 -1.25716 0
M  V30 1995 O 185.771 1.79099 -0.281657 0
M  V30 1996 C 185.819 0.548893 -3.56398 0
M  V30 1997 O 184.923 1.64315 -3.78252 0
M  V30 1998 H 184.264 0.0237731 -0.663574 0
M  V30 1999 H 186.794 -0.553989 -1.96957 0
M  V30 2000 H 186.804 0.813812 -3.99801 0
M  V30 2001 H 185.479 -0.329005 -4.14597 0
M  V30 2002 H 184.056 1.37211 -3.46738 0
M  V30 2003 N 186.241 1.57166 -0.116904 0
M  V30 2004 C 187.171 2.18222 0.830759 0
M  V30 2005 C 188.152 1.12167 1.27877 0
M  V30 2006 O 189.337 1.40394 1.34176 0
M  V30 2007 C 186.467 2.77996 2.08172 0
M  V30 2008 C 185.421 3.89614 1.77157 0
M  V30 2009 C 184.747 4.36187 3.09265 0
M  V30 2010 C 186.047 5.1181 1.04151 0
M  V30 2011 H 187.741 2.97664 0.321992 0
M  V30 2012 H 185.287 1.4318 0.153434 0
M  V30 2013 H 187.24 3.19366 2.74924 0
M  V30 2014 H 185.964 1.9584 2.6137 0
M  V30 2015 H 184.623 3.48816 1.12796 0
M  V30 2016 H 184.271 3.50893 3.60393 0
M  V30 2017 H 183.971 5.11455 2.89288 0
M  V30 2018 H 185.495 4.80207 3.77139 0
M  V30 2019 H 186.909 5.50214 1.61052 0
M  V30 2020 H 185.306 5.92648 0.942762 0
M  V30 2021 H 186.376 4.84892 0.0279022 0
M  V30 2022 N 187.719 -0.156864 1.56817 0
M  V30 2023 C 188.965 -0.872416 1.83076 0
M  V30 2024 C 189.298 -1.81261 0.697001 0
M  V30 2025 O 188.573 -1.92171 -0.30008 0
M  V30 2026 C 188.856 -1.65551 3.19789 0
M  V30 2027 C 188.709 -0.737467 4.43713 0
M  V30 2028 C 190.028 -2.62012 3.53606 0
M  V30 2029 H 187.147 -0.315715 0.665953 0
M  V30 2030 H 189.789 -0.138004 1.89498 0
M  V30 2031 H 187.939 -2.28159 3.14445 0
M  V30 2032 H 189.611 -0.123143 4.61136 0
M  V30 2033 H 187.854 -0.0464067 4.33775 0
M  V30 2034 H 188.525 -1.32122 5.35955 0
M  V30 2035 H 191.001 -2.09525 3.59497 0
M  V30 2036 H 189.877 -3.13861 4.50314 0
M  V30 2037 H 190.138 -3.42902 2.79053 0
M  V30 2038 N 189.197 -1.51736 -0.425897 0
M  V30 2039 C 190.444 -1.6497 -1.17436 0
M  V30 2040 C 190.772 -0.371445 -1.9092 0
M  V30 2041 O 190.027 0.644963 -1.84767 0
M  V30 2042 C 190.326 -2.81103 -2.20717 0
M  V30 2043 C 189.992 -4.19954 -1.64162 0
M  V30 2044 C 188.654 -4.57725 -1.48462 0
M  V30 2045 C 191.006 -5.06552 -1.22696 0
M  V30 2046 C 188.334 -5.79789 -0.897873 0
M  V30 2047 C 190.686 -6.29205 -0.654464 0
M  V30 2048 C 189.35 -6.6574 -0.484456 0
M  V30 2049 H 188.62 -0.603668 -0.429727 0
M  V30 2050 H 191.267 -1.85798 -0.463829 0
M  V30 2051 H 189.572 -2.54542 -2.97852 0
M  V30 2052 H 191.269 -2.8854 -2.78471 0
M  V30 2053 H 187.859 -3.90181 -1.77361 0
M  V30 2054 H 192.043 -4.77968 -1.33642 0
M  V30 2055 H 187.299 -6.06733 -0.75402 0
M  V30 2056 H 191.473 -6.95643 -0.324694 0
M  V30 2057 H 189.1 -7.60195 -0.0276833 0
M  V30 2058 N 190.675 0.682077 -1.42076 0
M  V30 2059 C 191.921 1.44428 -1.42367 0
M  V30 2060 C 192.254 1.94164 -0.0373056 0
M  V30 2061 O 191.529 1.70429 0.937239 0
M  V30 2062 C 191.812 2.64654 -2.44194 0
M  V30 2063 C 191.665 2.20596 -3.91991 0
M  V30 2064 C 192.984 3.66865 -2.431 0
M  V30 2065 H 190.103 0.523834 -0.518428 0
M  V30 2066 H 192.745 0.77576 -1.73442 0
M  V30 2067 H 190.895 3.2169 -2.17826 0
M  V30 2068 H 192.567 1.68783 -4.29313 0
M  V30 2069 H 190.81 1.52242 -4.06208 0
M  V30 2070 H 191.481 3.06921 -4.58807 0
M  V30 2071 H 193.957 3.19531 -2.66532 0
M  V30 2072 H 192.833 4.48577 -3.16339 0
M  V30 2073 H 193.094 4.17493 -1.45437 0
M  V30 2074 N 192.153 1.28127 0.917671 0
M  V30 2075 C 193.085 1.07517 2.02417 0
M  V30 2076 C 194.098 0.0281099 1.62776 0
M  V30 2077 O 195.287 0.270748 1.76435 0
M  V30 2078 C 192.387 0.610957 3.33347 0
M  V30 2079 C 191.56 1.73255 4.01624 0
M  V30 2080 C 190.619 1.26238 5.10833 0
M  V30 2081 O 189.645 1.96389 5.34247 0
M  V30 2082 N 190.847 0.123448 5.80369 0
M  V30 2083 H 193.612 2.02806 2.20658 0
M  V30 2084 H 191.173 1.19827 1.08871 0
M  V30 2085 H 193.165 0.280101 4.0373 0
M  V30 2086 H 191.735 -0.24898 3.11607 0
M  V30 2087 H 190.955 2.23319 3.24842 0
M  V30 2088 H 192.243 2.48503 4.43986 0
M  V30 2089 H 191.641 -0.461847 5.63812 0
M  V30 2090 H 190.198 -0.148158 6.51632 0
M  V30 2091 N 193.631 -1.12557 1.10312 0
M  V30 2092 C 194.859 -1.87864 0.866873 0
M  V30 2093 C 195.274 -1.79588 -0.582557 0
M  V30 2094 O 194.631 -1.16887 -1.40156 0
M  V30 2095 C 194.682 -3.37125 1.30496 0
M  V30 2096 O 194.403 -3.45201 2.69755 0
M  V30 2097 C 195.904 -4.29373 1.10243 0
M  V30 2098 H 193.124 -0.594452 0.311236 0
M  V30 2099 H 195.668 -1.42429 1.46745 0
M  V30 2100 H 193.823 -3.80109 0.748081 0
M  V30 2101 H 194.237 -4.38056 2.88457 0
M  V30 2102 H 195.711 -5.32394 1.45811 0
M  V30 2103 H 196.188 -4.39181 0.0409492 0
M  V30 2104 H 196.794 -3.92169 1.64571 0
M  V30 2105 N 195.109 -0.891671 -1.2995 0
M  V30 2106 C 196.386 -0.433307 -1.9074 0
M  V30 2107 C 196.766 1.08646 -1.80995 0
M  V30 2108 O 196.114 1.92476 -1.23147 0
M  V30 2109 C 196.324 -0.938895 -3.36134 0
M  V30 2110 C 197.672 -0.977829 -4.13187 0
M  V30 2111 O 198.696 -0.886015 -3.45005 0
M  V30 2112 O 197.555 -1.11453 -5.35015 0
M  V30 2113 H 194.649 -0.133699 -0.816121 0
M  V30 2114 H 197.195 -0.981011 -1.38471 0
M  V30 2115 H 195.967 -1.98281 -3.37343 0
M  V30 2116 H 195.59 -0.37074 -3.95868 0
M  V30 2117 N 196.587 1.43421 -0.653314 0
M  V30 2118 C 197.534 2.30768 0.0382271 0
M  V30 2119 C 198.504 1.44755 0.814576 0
M  V30 2120 O 199.689 1.73624 0.791162 0
M  V30 2121 C 196.829 3.30336 0.998599 0
M  V30 2122 C 195.942 4.31448 0.218342 0
M  V30 2123 C 195.077 5.18098 1.17252 0
M  V30 2124 C 194.116 6.10902 0.382702 0
M  V30 2125 N 193.253 6.90176 1.28848 0
M  V30 2126 H 198.093 2.89357 -0.712511 0
M  V30 2127 H 195.63 1.42548 -0.363128 0
M  V30 2128 H 197.588 3.86572 1.56901 0
M  V30 2129 H 196.218 2.73397 1.71621 0
M  V30 2130 H 195.27 3.77506 -0.46836 0
M  V30 2131 H 196.582 4.97227 -0.395812 0
M  V30 2132 H 195.736 5.7896 1.81356 0
M  V30 2133 H 194.475 4.52444 1.82058 0
M  V30 2134 H 193.48 5.49128 -0.27169 0
M  V30 2135 H 194.705 6.78598 -0.260957 0
M  V30 2136 H 192.651 6.27171 1.92334 0
M  V30 2137 H 192.568 7.52478 0.728887 0
M  V30 2138 H 193.836 7.55543 1.91766 0
M  V30 2139 N 198.065 0.39524 1.52563 0
M  V30 2140 C 199.476 -0.0774719 1.86539 0
M  V30 2141 C 199.827 -1.45641 1.31466 0
M  V30 2142 O 198.952 -2.06459 0.648367 0
M  V30 2143 C 199.547 -0.147356 3.38479 0
M  V30 2144 C 198.106 -0.564373 3.72145 0
M  V30 2145 C 197.253 0.269919 2.75983 0
M  V30 2146 H 200.204 0.612876 1.46388 0
M  V30 2147 H 200.225 -0.965343 3.68051 0
M  V30 2148 H 199.737 0.856387 3.78534 0
M  V30 2149 H 197.838 -1.57527 3.37663 0
M  V30 2150 H 197.951 -0.318402 4.78041 0
M  V30 2151 H 196.315 -0.265696 2.5331 0
M  V30 2152 H 197.098 1.27175 3.18875 0
M  V30 2153 N 199.544 -1.57102 0.125237 0
M  V30 2154 C 200.477 -2.11371 -0.860094 0
M  V30 2155 C 201.455 -1.03168 -1.25679 0
M  V30 2156 O 202.639 -1.30862 -1.35674 0
M  V30 2157 C 199.766 -2.61555 -2.1519 0
M  V30 2158 C 198.812 -3.81701 -1.9028 0
M  V30 2159 S 199.645 -5.23797 -1.11343 0
M  V30 2160 C 200.801 -5.77353 -2.41689 0
M  V30 2161 H 201.034 -2.94617 -0.39852 0
M  V30 2162 H 198.567 -1.54145 -0.0886555 0
M  V30 2163 H 200.525 -2.91122 -2.89411 0
M  V30 2164 H 199.186 -1.78479 -2.58465 0
M  V30 2165 H 198.379 -4.14985 -2.86014 0
M  V30 2166 H 197.981 -3.52783 -1.24178 0
M  V30 2167 H 200.273 -5.87458 -3.37489 0
M  V30 2168 H 201.216 -6.75323 -2.12942 0
M  V30 2169 H 201.624 -5.05457 -2.51342 0
M  V30 2170 N 201.022 0.148545 -1.56898 0
M  V30 2171 C 202.252 0.875118 -1.8715 0
M  V30 2172 C 202.66 1.75322 -0.711262 0
M  V30 2173 O 202.003 1.80745 0.328151 0
M  V30 2174 C 202.065 1.7844 -3.12089 0
M  V30 2175 C 201.729 1.08361 -4.43967 0
M  V30 2176 C 202.726 0.438247 -5.1805 0
M  V30 2177 C 200.411 1.07358 -4.90693 0
M  V30 2178 C 202.405 -0.20779 -6.37061 0
M  V30 2179 C 200.092 0.42373 -6.09629 0
M  V30 2180 C 201.09 -0.215829 -6.82659 0
M  V30 2181 O 200.778 -0.855378 -7.99336 0
M  V30 2182 H 200.51 0.258504 -0.624621 0
M  V30 2183 H 203.064 0.14652 -2.04877 0
M  V30 2184 H 201.294 2.55389 -2.90367 0
M  V30 2185 H 202.983 2.38279 -3.286 0
M  V30 2186 H 203.749 0.437817 -4.8302 0
M  V30 2187 H 199.628 1.5608 -4.33774 0
M  V30 2188 H 203.172 -0.70758 -6.94002 0
M  V30 2189 H 199.069 0.421822 -6.4412 0
M  V30 2190 H 199.837 -0.756892 -8.14993 0
M  V30 2191 N 202.5 1.5196 0.417844 0
M  V30 2192 C 203.447 1.74678 1.50852 0
M  V30 2193 C 204.417 0.588947 1.55308 0
M  V30 2194 O 205.602 0.825544 1.72016 0
M  V30 2195 C 202.742 1.89544 2.88387 0
M  V30 2196 C 201.855 3.17166 2.93309 0
M  V30 2197 C 200.99 3.22513 4.22088 0
M  V30 2198 C 200.029 4.44372 4.20951 0
M  V30 2199 N 199.166 4.47161 5.41287 0
M  V30 2200 H 204.006 2.67768 1.30783 0
M  V30 2201 H 201.543 1.32689 0.63498 0
M  V30 2202 H 203.501 1.96146 3.68216 0
M  V30 2203 H 202.131 0.998424 3.06971 0
M  V30 2204 H 201.183 3.19778 2.06024 0
M  V30 2205 H 202.495 4.07021 2.88332 0
M  V30 2206 H 201.649 3.28139 5.10303 0
M  V30 2207 H 200.388 2.30581 4.29748 0
M  V30 2208 H 199.393 4.38902 3.31127 0
M  V30 2209 H 200.618 5.3759 4.14938 0
M  V30 2210 H 198.564 3.58108 5.49632 0
M  V30 2211 H 198.481 5.3085 5.3827 0
M  V30 2212 H 199.749 4.57005 6.3148 0
M  V30 2213 N 203.978 -0.674533 1.42435 0
M  V30 2214 C 205.389 -1.25514 1.38214 0
M  V30 2215 C 205.74 -1.96055 0.0755464 0
M  V30 2216 O 204.865 -2.00028 -0.8257 0
M  V30 2217 C 205.46 -2.28269 2.50357 0
M  V30 2218 C 204.019 -2.81856 2.49467 0
M  V30 2219 C 203.166 -1.56182 2.29134 0
M  V30 2220 H 206.117 -0.467902 1.51646 0
M  V30 2221 H 206.138 -3.10009 2.20624 0
M  V30 2222 H 205.65 -1.769 3.45439 0
M  V30 2223 H 203.751 -3.37346 1.58204 0
M  V30 2224 H 203.864 -3.30854 3.46515 0
M  V30 2225 H 202.228 -1.82761 1.774 0
M  V30 2226 H 203.011 -1.06778 3.26272 0
M  V30 2227 N 205.456 -1.28612 -0.910864 0
M  V30 2228 C 206.704 -1.15705 -1.65701 0
M  V30 2229 C 207.025 0.29416 -1.92769 0
M  V30 2230 O 206.295 1.20331 -1.54588 0
M  V30 2231 H 204.875 -0.425216 -0.614167 0
M  V30 2232 H 207.537 -1.61381 -1.0928 0
M  V30 2233 H 206.633 -1.6988 -2.61815 0
M  V30 2234 N 206.934 1.1197 -1.10907 0
M  V30 2235 C 207.866 2.17592 -0.720175 0
M  V30 2236 C 208.879 1.60938 0.245495 0
M  V30 2237 O 210.068 1.78476 0.0292245 0
M  V30 2238 C 207.168 3.38873 -0.0427917 0
M  V30 2239 C 206.341 4.25006 -1.03388 0
M  V30 2240 C 205.4 5.24774 -0.387075 0
M  V30 2241 O 204.426 5.59631 -1.03934 0
M  V30 2242 N 205.628 5.74208 0.852407 0
M  V30 2243 H 208.393 2.51567 -1.62893 0
M  V30 2244 H 205.954 1.27439 -0.998543 0
M  V30 2245 H 207.946 4.02703 0.401501 0
M  V30 2246 H 206.516 3.03007 0.768456 0
M  V30 2247 H 205.736 3.57716 -1.65629 0
M  V30 2248 H 207.024 4.79397 -1.70458 0
M  V30 2249 H 206.422 5.48062 1.40161 0
M  V30 2250 H 204.979 6.39901 1.23977 0
M  V30 2251 N 208.412 0.89855 1.29475 0
M  V30 2252 C 209.64 0.539261 1.99749 0
M  V30 2253 C 210.055 -0.875716 1.67262 0
M  V30 2254 O 209.412 -1.57786 0.917049 0
M  V30 2255 C 209.463 0.72061 3.54245 0
M  V30 2256 O 209.184 2.07989 3.8558 0
M  V30 2257 C 210.685 0.366118 4.41786 0
M  V30 2258 H 207.905 0.207047 0.638258 0
M  V30 2259 H 210.449 1.20758 1.65039 0
M  V30 2260 H 208.604 0.0994862 3.87272 0
M  V30 2261 H 209.018 2.10841 4.80257 0
M  V30 2262 H 210.492 0.543848 5.49314 0
M  V30 2263 H 210.969 -0.696763 4.33638 0
M  V30 2264 H 211.575 0.964135 4.14228 0
M  V30 2265 N 209.89 -1.43072 0.660911 0
M  V30 2266 C 211.136 -2.0202 0.177708 0
M  V30 2267 C 211.469 -1.52066 -1.20787 0
M  V30 2268 O 210.744 -0.716987 -1.80802 0
M  V30 2269 C 211.027 -3.59561 0.197019 0
M  V30 2270 C 210.88 -4.19727 1.61706 0
M  V30 2271 C 212.199 -4.37664 -0.462396 0
M  V30 2272 H 209.318 -0.734034 0.0660494 0
M  V30 2273 H 211.96 -1.70272 0.843058 0
M  V30 2274 H 210.11 -3.86739 -0.369527 0
M  V30 2275 H 211.782 -4.03553 2.23479 0
M  V30 2276 H 210.025 -3.76084 2.16201 0
M  V30 2277 H 210.696 -5.28834 1.58237 0
M  V30 2278 H 213.172 -4.16095 0.0197215 0
M  V30 2279 H 212.048 -5.47305 -0.418188 0
M  V30 2280 H 212.309 -4.14493 -1.53778 0
M  V30 2281 N 211.368 -0.403325 -1.52352 0
M  V30 2282 C 212.784 -0.0539281 -1.59509 0
M  V30 2283 C 212.984 1.43307 -1.41652 0
M  V30 2284 O 212.04 2.19924 -1.24056 0
M  V30 2285 C 213.353 -0.543654 -2.95745 0
M  V30 2286 C 214.901 -0.501125 -3.08962 0
M  V30 2287 C 215.376 -0.967267 -4.47669 0
M  V30 2288 N 216.867 -0.923849 -4.53893 0
M  V30 2289 C 217.602 -1.25578 -5.5948 0
M  V30 2290 N 217.098 -1.65889 -6.72646 0
M  V30 2291 N 218.891 -1.17613 -5.49658 0
M  V30 2292 H 211.042 -1.37123 -1.62206 0
M  V30 2293 H 213.305 -0.56294 -0.76276 0
M  V30 2294 H 213.011 -1.58275 -3.14073 0
M  V30 2295 H 212.885 0.0498042 -3.77167 0
M  V30 2296 H 215.272 0.528909 -2.90321 0
M  V30 2297 H 215.353 -1.13056 -2.2946 0
M  V30 2298 H 214.997 -1.9956 -4.67053 0
M  V30 2299 H 214.927 -0.314698 -5.25659 0
M  V30 2300 H 217.418 -0.627403 -3.72655 0
M  V30 2301 H 217.731 -1.89543 -7.49195 0
M  V30 2302 H 216.076 -1.69787 -6.73942 0
M  V30 2303 H 219.267 -0.860115 -4.6013 0
M  V30 2304 H 219.44 -1.43812 -6.3184 0
M  V30 2305 N 212.846 1.57033 -0.133567 0
M  V30 2306 C 214.093 1.95686 0.520877 0
M  V30 2307 C 214.421 1.0177 1.6575 0
M  V30 2308 O 213.676 0.0443195 1.9565 0
M  V30 2309 C 213.975 3.40674 1.08057 0
M  V30 2310 C 213.641 4.50855 0.0637899 0
M  V30 2311 C 212.303 4.80716 -0.215757 0
M  V30 2312 C 214.655 5.17398 -0.62835 0
M  V30 2313 C 211.983 5.74433 -1.19348 0
M  V30 2314 C 214.335 6.12167 -1.5948 0
M  V30 2315 C 212.999 6.40414 -1.88218 0
M  V30 2316 H 212.269 0.716067 0.190602 0
M  V30 2317 H 214.916 1.9026 -0.217556 0
M  V30 2318 H 213.221 3.42865 1.89606 0
M  V30 2319 H 214.918 3.67902 1.59529 0
M  V30 2320 H 211.508 4.27605 0.291855 0
M  V30 2321 H 215.692 4.94472 -0.425562 0
M  V30 2322 H 210.948 5.94616 -1.42272 0
M  V30 2323 H 215.122 6.6281 -2.13671 0
M  V30 2324 H 212.749 7.12838 -2.64133 0
M  V30 2325 N 214.325 -0.140222 1.56975 0
M  V30 2326 C 215.741 -0.493088 1.51792 0
M  V30 2327 C 215.941 -1.83013 0.843116 0
M  V30 2328 O 214.997 -2.49041 0.416493 0
M  V30 2329 C 216.31 -0.497144 2.96562 0
M  V30 2330 C 217.858 -0.582186 3.07538 0
M  V30 2331 C 218.333 -0.616838 4.53827 0
M  V30 2332 N 219.824 -0.678873 4.58198 0
M  V30 2333 C 220.559 -0.726782 5.68775 0
M  V30 2334 N 220.055 -0.733623 6.88905 0
M  V30 2335 N 221.848 -0.768179 5.56826 0
M  V30 2336 H 213.999 0.736108 1.99237 0
M  V30 2337 H 216.262 0.269182 0.90898 0
M  V30 2338 H 215.968 0.417217 3.49217 0
M  V30 2339 H 215.842 -1.33263 3.52875 0
M  V30 2340 H 218.229 -1.48697 2.54899 0
M  V30 2341 H 218.31 0.280581 2.54257 0
M  V30 2342 H 217.954 0.283812 5.07106 0
M  V30 2343 H 217.884 -1.49619 5.04898 0
M  V30 2344 H 220.375 -0.68061 3.7172 0
M  V30 2345 H 220.688 -0.772215 7.68932 0
M  V30 2346 H 219.033 -0.701389 6.91452 0
M  V30 2347 H 222.224 -0.760051 4.61888 0
M  V30 2348 H 222.397 -0.80205 6.43017 0
M  V30 2349 N 215.803 -1.52179 -0.40978 0
M  V30 2350 C 217.049 -1.66453 -1.15851 0
M  V30 2351 C 217.382 -0.392972 -1.90182 0
M  V30 2352 O 216.657 0.608579 -1.84734 0
M  V30 2353 C 216.94 -2.88612 -2.15349 0
M  V30 2354 C 216.793 -4.25815 -1.44918 0
M  V30 2355 C 218.112 -3.06294 -3.16026 0
M  V30 2356 H 215.231 -0.60575 -0.419805 0
M  V30 2357 H 217.873 -1.84732 -0.444314 0
M  V30 2358 H 216.023 -2.73158 -2.76255 0
M  V30 2359 H 217.695 -4.52995 -0.871365 0
M  V30 2360 H 215.938 -4.27247 -0.751159 0
M  V30 2361 H 216.609 -5.07337 -2.17516 0
M  V30 2362 H 219.085 -3.20641 -2.65195 0
M  V30 2363 H 217.961 -3.93283 -3.8291 0
M  V30 2364 H 218.222 -2.19579 -3.83715 0
M  V30 2365 N 217.281 0.66697 -1.42791 0
M  V30 2366 C 218.527 1.4291 -1.43891 0
M  V30 2367 C 218.86 1.94114 -0.0578972 0
M  V30 2368 O 218.135 1.71414 0.91911 0
M  V30 2369 C 218.418 2.62049 -2.46987 0
M  V30 2370 C 218.271 2.16426 -3.94309 0
M  V30 2371 C 219.59 3.64266 -2.46978 0
M  V30 2372 H 216.709 0.518306 -0.523954 0
M  V30 2373 H 219.351 0.757321 -1.74255 0
M  V30 2374 H 217.501 3.19361 -2.21225 0
M  V30 2375 H 219.173 1.64221 -4.31079 0
M  V30 2376 H 217.416 1.47925 -4.078 0
M  V30 2377 H 218.087 3.02038 -4.62036 0
M  V30 2378 H 220.563 3.16686 -2.69906 0
M  V30 2379 H 219.439 4.45196 -3.21079 0
M  V30 2380 H 219.7 4.15927 -1.49857 0
M  V30 2381 N 218.759 1.29093 0.90403 0
M  V30 2382 C 219.984 1.19809 1.69294 0
M  V30 2383 C 220.409 -0.238481 1.86582 0
M  V30 2384 O 219.767 -1.1723 1.383 0
M  V30 2385 C 219.815 1.91202 3.05736 0
M  V30 2386 O 218.919 1.22611 3.93752 0
M  V30 2387 H 218.26 0.415385 0.518027 0
M  V30 2388 H 220.79 1.70586 1.12967 0
M  V30 2389 H 220.8 1.99487 3.55906 0
M  V30 2390 H 219.475 2.95692 2.92471 0
M  V30 2391 H 218.052 1.22554 3.52186 0
M  V30 2392 N 220.237 -1.11381 1.11499 0
M  V30 2393 C 221.483 -1.83403 0.865512 0
M  V30 2394 C 221.816 -1.84459 -0.607329 0
M  V30 2395 O 221.091 -1.29811 -1.44842 0
M  V30 2396 C 221.374 -3.30552 1.42855 0
M  V30 2397 C 221.227 -3.37886 2.96906 0
M  V30 2398 C 222.546 -4.26643 1.08 0
M  V30 2399 H 219.665 -0.665879 0.31587 0
M  V30 2400 H 222.307 -1.30601 1.37998 0
M  V30 2401 H 220.457 -3.75648 0.990985 0
M  V30 2402 H 222.129 -3.01343 3.49271 0
M  V30 2403 H 220.372 -2.78088 3.32941 0
M  V30 2404 H 221.043 -4.41458 3.31389 0
M  V30 2405 H 223.519 -3.89729 1.45775 0
M  V30 2406 H 222.395 -5.27986 1.50072 0
M  V30 2407 H 222.656 -4.42099 -0.00915037 0
M  V30 2408 N 221.715 -0.905404 -1.28997 0
M  V30 2409 C 222.992 -0.453513 -1.9027 0
M  V30 2410 C 223.372 1.06721 -1.82137 0
M  V30 2411 O 222.72 1.91159 -1.25182 0
M  V30 2412 C 222.93 -0.974494 -3.35119 0
M  V30 2413 C 224.278 -1.0216 -4.12127 0
M  V30 2414 O 225.302 -0.922557 -3.44046 0
M  V30 2415 O 224.161 -1.17121 -5.33802 0
M  V30 2416 H 221.255 -0.142347 -0.814657 0
M  V30 2417 H 223.801 -0.995642 -1.37423 0
M  V30 2418 H 222.573 -2.01848 -3.35221 0
M  V30 2419 H 222.196 -0.412706 -3.95452 0
M  V30 2420 N 223.193 1.4272 -0.668489 0
M  V30 2421 C 224.103 2.34596 0.0139753 0
M  V30 2422 C 225.119 1.5474 0.795703 0
M  V30 2423 O 226.295 1.87334 0.739466 0
M  V30 2424 C 223.36 3.33202 0.957982 0
M  V30 2425 C 222.421 4.28957 0.17149 0
M  V30 2426 C 221.654 5.22853 1.07053 0
M  V30 2427 O 221.877 5.21531 2.31001 0
M  V30 2428 O 220.811 5.9952 0.534727 0
M  V30 2429 H 224.637 2.9448 -0.742661 0
M  V30 2430 H 222.222 1.43117 -0.428705 0
M  V30 2431 H 224.104 3.93796 1.50008 0
M  V30 2432 H 222.779 2.758 1.69458 0
M  V30 2433 H 221.686 3.71796 -0.414558 0
M  V30 2434 H 223.019 4.89383 -0.52586 0
M  V30 2435 N 224.671 0.411399 1.52136 0
M  V30 2436 C 225.619 -0.427633 2.28635 0
M  V30 2437 C 226.613 -1.04383 1.33419 0
M  V30 2438 O 227.819 -0.981772 1.50868 0
M  V30 2439 H 224.194 -0.156689 0.735495 0
M  V30 2440 H 226.165 0.238761 2.97443 0
M  V30 2441 C 224.914 -1.53082 3.12188 0
M  V30 2442 H 224.237 -1.06601 3.85326 0
M  V30 2443 H 225.677 -2.09167 3.68816 0
M  V30 2444 C 224.136 -2.49946 2.25895 0
M  V30 2445 O 224.666 -3.53884 1.90076 0
M  V30 2446 N 222.872 -2.2021 1.8962 0
M  V30 2447 H 222.419 -1.35719 2.18948 0
M  V30 2448 H 222.377 -2.85266 1.32176 0
M  V30 2449 N 226.149 -1.5696 0.141893 0
M  V30 2450 C 227.396 -1.9596 -0.510492 0
M  V30 2451 C 227.724 -1.02648 -1.65208 0
M  V30 2452 O 226.979 -0.0546947 -1.95624 0
M  V30 2453 C 227.278 -3.41242 -1.06249 0
M  V30 2454 C 226.944 -4.50882 -0.0398791 0
M  V30 2455 C 225.606 -4.80595 0.241247 0
M  V30 2456 C 227.958 -5.17058 0.65578 0
M  V30 2457 C 225.286 -5.73792 1.22393 0
M  V30 2458 C 227.638 -6.11313 1.62724 0
M  V30 2459 C 226.302 -6.39407 1.91612 0
M  V30 2460 H 225.572 -0.717068 -0.186802 0
M  V30 2461 H 228.219 -1.90142 0.227643 0
M  V30 2462 H 226.524 -3.43866 -1.87785 0
M  V30 2463 H 228.221 -3.68742 -1.57576 0
M  V30 2464 H 224.811 -4.27754 -0.269174 0
M  V30 2465 H 228.995 -4.94239 0.451779 0
M  V30 2466 H 224.251 -5.93853 1.45424 0
M  V30 2467 H 228.425 -6.61668 2.17183 0
M  V30 2468 H 226.052 -7.11427 2.6791 0
M  V30 2469 N 227.627 0.131896 -1.57047 0
M  V30 2470 C 229.043 0.485031 -1.52051 0
M  V30 2471 C 229.243 1.82563 -0.85281 0
M  V30 2472 O 228.299 2.48817 -0.429694 0
M  V30 2473 C 229.612 0.481409 -2.96821 0
M  V30 2474 C 231.16 0.565868 -3.07842 0
M  V30 2475 C 231.635 0.592762 -4.54148 0
M  V30 2476 N 233.126 0.654564 -4.58552 0
M  V30 2477 C 233.861 0.696608 -5.69153 0
M  V30 2478 N 233.357 0.697078 -6.89284 0
M  V30 2479 N 235.15 0.738639 -5.57226 0
M  V30 2480 H 227.301 -0.746664 -1.98843 0
M  V30 2481 H 229.564 -0.273999 -0.90754 0
M  V30 2482 H 229.27 -0.435731 -3.4899 0
M  V30 2483 H 229.144 1.3139 -3.53577 0
M  V30 2484 H 231.531 1.47343 -2.55684 0
M  V30 2485 H 231.612 -0.29406 -2.54104 0
M  V30 2486 H 231.256 -0.310701 -5.06949 0
M  V30 2487 H 231.186 1.46939 -5.05684 0
M  V30 2488 H 233.677 0.660887 -3.72076 0
M  V30 2489 H 233.99 0.731426 -7.69331 0
M  V30 2490 H 232.335 0.66471 -6.91814 0
M  V30 2491 H 235.526 0.735545 -4.62285 0
M  V30 2492 H 235.699 0.767938 -6.43434 0
M  V30 2493 N 229.106 1.52395 0.401703 0
M  V30 2494 C 230.517 1.58899 0.980202 0
M  V30 2495 C 230.868 0.434032 1.91339 0
M  V30 2496 O 229.993 -0.444619 2.11783 0
M  V30 2497 C 230.588 2.87994 1.78451 0
M  V30 2498 C 229.147 2.96953 2.31292 0
M  V30 2499 C 228.294 2.53903 1.11483 0
M  V30 2500 H 231.245 1.57657 0.18168 0
M  V30 2501 H 231.266 2.73765 2.64259 0
M  V30 2502 H 230.778 3.72035 1.10506 0
M  V30 2503 H 228.879 2.17422 3.02586 0
M  V30 2504 H 228.992 4.01344 2.61649 0
M  V30 2505 H 227.356 2.07925 1.47104 0
M  V30 2506 H 228.139 3.40326 0.450928 0
M  V30 2507 N 230.584 -0.659388 1.43143 0
M  V30 2508 C 232 -0.974337 1.26407 0
M  V30 2509 C 232.2 -2.007 0.179341 0
M  V30 2510 O 231.256 -2.4856 -0.444295 0
M  V30 2511 C 232.569 -1.46447 2.62628 0
M  V30 2512 C 234.117 -1.58144 2.7011 0
M  V30 2513 C 234.592 -2.1055 4.06734 0
M  V30 2514 N 236.083 -2.17861 4.08767 0
M  V30 2515 C 236.818 -2.59519 5.1131 0
M  V30 2516 N 236.314 -3.00518 6.24228 0
M  V30 2517 N 238.107 -2.59404 4.98664 0
M  V30 2518 H 230.258 0.0240528 2.12386 0
M  V30 2519 H 232.521 -0.0518065 0.946583 0
M  V30 2520 H 232.227 -0.780123 3.42939 0
M  V30 2521 H 232.101 -2.44058 2.87603 0
M  V30 2522 H 234.488 -2.25682 1.90136 0
M  V30 2523 H 234.569 -0.589828 2.48907 0
M  V30 2524 H 234.213 -1.43616 4.87172 0
M  V30 2525 H 234.143 -3.10531 4.25298 0
M  V30 2526 H 236.634 -1.88975 3.27257 0
M  V30 2527 H 236.947 -3.31036 6.98309 0
M  V30 2528 H 235.292 -2.98337 6.2771 0
M  V30 2529 H 238.483 -2.26747 4.09516 0
M  V30 2530 H 238.656 -2.91548 5.78709 0
M  V30 2531 N 232.062 -1.29571 -0.897171 0
M  V30 2532 C 233.01 -1.14802 -2.02295 0
M  V30 2533 C 234.004 -0.0629637 -1.69283 0
M  V30 2534 O 235.21 -0.222945 -1.78614 0
M  V30 2535 H 231.585 -0.354692 -0.663097 0
M  V30 2536 H 233.556 -2.10108 -2.11889 0
M  V30 2537 C 232.305 -0.843966 -3.37302 0
M  V30 2538 H 231.628 -1.67093 -3.63208 0
M  V30 2539 H 233.068 -0.780672 -4.16751 0
M  V30 2540 C 231.527 0.452843 -3.33843 0
M  V30 2541 O 232.057 1.47813 -3.73516 0
M  V30 2542 N 230.263 0.459601 -2.86943 0
M  V30 2543 H 229.81 -0.375213 -2.54853 0
M  V30 2544 H 229.768 1.32726 -2.85011 0
M  V30 2545 N 233.54 1.10788 -1.12088 0
M  V30 2546 C 234.45 2.20599 -0.798338 0
M  V30 2547 C 235.466 1.72712 0.21135 0
M  V30 2548 O 236.642 2.01348 0.0458477 0
M  V30 2549 C 233.707 3.45771 -0.253674 0
M  V30 2550 C 232.768 4.08411 -1.32283 0
M  V30 2551 C 232.001 5.27608 -0.80406 0
M  V30 2552 O 232.224 5.69241 0.363478 0
M  V30 2553 O 231.158 5.8101 -1.57198 0
M  V30 2554 H 234.984 2.50614 -1.7154 0
M  V30 2555 H 232.569 1.19454 -0.897275 0
M  V30 2556 H 234.451 4.21376 0.0453691 0
M  V30 2557 H 233.126 3.1739 0.636005 0
M  V30 2558 H 232.033 3.34507 -1.67499 0
M  V30 2559 H 233.366 4.40986 -2.18614 0
M  V30 2560 N 235.018 0.912232 1.28515 0
M  V30 2561 C 235.948 0.416403 2.29757 0
M  V30 2562 C 236.929 -0.515194 1.6211 0
M  V30 2563 O 238.114 -0.423253 1.89532 0
M  V30 2564 C 235.244 -0.34572 3.45575 0
M  V30 2565 C 234.198 0.496599 4.25109 0
M  V30 2566 C 233.524 -0.393771 5.33248 0
M  V30 2567 C 234.824 1.75307 4.92001 0
M  V30 2568 H 236.518 1.26249 2.7148 0
M  V30 2569 H 234.064 0.608515 1.30511 0
M  V30 2570 H 236.017 -0.703422 4.15488 0
M  V30 2571 H 234.741 -1.2257 3.02728 0
M  V30 2572 H 233.4 0.8368 3.56922 0
M  V30 2573 H 233.048 -1.27225 4.86644 0
M  V30 2574 H 232.748 0.166209 5.87365 0
M  V30 2575 H 234.272 -0.747389 6.06009 0
M  V30 2576 H 235.686 1.46437 5.54283 0
M  V30 2577 H 234.083 2.25534 5.56106 0
M  V30 2578 H 235.153 2.48176 4.16577 0
M  V30 2579 N 236.496 -1.42363 0.676048 0
M  V30 2580 C 237.745 -2.00745 0.196037 0
M  V30 2581 C 238.058 -1.54083 -1.20489 0
M  V30 2582 O 239.264 -2.04891 -1.78134 0
M  V30 2583 C 237.72 -3.58651 0.299616 0
M  V30 2584 C 237.328 -4.143 1.70468 0
M  V30 2585 C 239.072 -4.24326 -0.121619 0
M  V30 2586 C 236.979 -5.64574 1.76096 0
M  V30 2587 H 235.909 -0.750787 0.0695301 0
M  V30 2588 H 238.56 -1.63072 0.841412 0
M  V30 2589 H 236.942 -3.93833 -0.413673 0
M  V30 2590 H 238.116 -3.90575 2.44515 0
M  V30 2591 H 236.431 -3.61081 2.07387 0
M  V30 2592 H 239.028 -5.34607 -0.0997362 0
M  V30 2593 H 239.371 -3.99897 -1.15708 0
M  V30 2594 H 239.904 -3.94108 0.540706 0
M  V30 2595 H 236.643 -5.93804 2.77628 0
M  V30 2596 H 236.163 -5.90286 1.06406 0
M  V30 2597 H 237.842 -6.29013 1.51496 0
M  V30 2598 N 237.974 -0.419461 -1.51915 0
M  V30 2599 C 239.385 0.0477853 -1.86639 0
M  V30 2600 C 239.736 1.43531 -1.33766 0
M  V30 2601 O 238.861 2.05401 -0.68113 0
M  V30 2602 C 239.456 0.0934885 -3.38671 0
M  V30 2603 C 238.015 0.505097 -3.72996 0
M  V30 2604 C 237.162 -0.313792 -2.75519 0
M  V30 2605 H 240.113 -0.636088 -1.45395 0
M  V30 2606 H 240.134 0.906667 -3.6954 0
M  V30 2607 H 239.646 -0.916501 -3.77123 0
M  V30 2608 H 237.747 1.52135 -3.40126 0
M  V30 2609 H 237.86 0.242309 -4.78487 0
M  V30 2610 H 236.224 0.225363 -2.53701 0
M  V30 2611 H 237.007 -1.32232 -3.16812 0
M  V30 2612 N 239.452 1.56882 -0.150215 0
M  V30 2613 C 240.382 2.19935 0.784284 0
M  V30 2614 C 241.363 1.14854 1.25469 0
M  V30 2615 O 242.548 1.43209 1.31168 0
M  V30 2616 C 239.678 2.82349 2.02229 0
M  V30 2617 C 238.632 3.93285 1.68853 0
M  V30 2618 C 237.958 4.42649 2.99944 0
M  V30 2619 C 239.258 5.13904 0.932714 0
M  V30 2620 H 240.952 2.9828 0.258781 0
M  V30 2621 H 238.498 1.43473 0.123029 0
M  V30 2622 H 240.451 3.25126 2.68088 0
M  V30 2623 H 239.175 2.0134 2.57157 0
M  V30 2624 H 237.834 3.5113 1.05371 0
M  V30 2625 H 237.482 3.58458 3.52869 0
M  V30 2626 H 237.182 5.17476 2.78374 0
M  V30 2627 H 238.706 4.88099 3.66868 0
M  V30 2628 H 240.12 5.53506 1.49345 0
M  V30 2629 H 238.517 5.94515 0.81684 0
M  V30 2630 H 239.587 4.84842 -0.0749568 0
M  V30 2631 N 240.93 -0.123565 1.57115 0
M  V30 2632 C 242.179 -0.830704 1.83799 0
M  V30 2633 C 242.492 -1.81259 0.735158 0
M  V30 2634 O 243.698 -2.56558 0.888278 0
M  V30 2635 C 242.154 -1.52802 3.25852 0
M  V30 2636 C 241.762 -0.587356 4.44133 0
M  V30 2637 C 243.506 -2.22056 3.61789 0
M  V30 2638 C 241.413 -1.28764 5.77212 0
M  V30 2639 H 240.343 -0.313967 0.685522 0
M  V30 2640 H 242.994 -0.0834359 1.8331 0
M  V30 2641 H 241.376 -2.32175 3.20797 0
M  V30 2642 H 242.55 0.172829 4.60476 0
M  V30 2643 H 240.865 -0.00201892 4.164 0
M  V30 2644 H 243.462 -2.75131 4.58483 0
M  V30 2645 H 243.805 -2.99644 2.88997 0
M  V30 2646 H 244.338 -1.49576 3.68608 0
M  V30 2647 H 241.077 -0.55314 6.53162 0
M  V30 2648 H 240.597 -2.01995 5.64764 0
M  V30 2649 H 242.276 -1.8221 6.20813 0
M  V30 2650 N 242.408 -1.52605 -0.393616 0
M  V30 2651 C 243.638 -1.71046 -1.15874 0
M  V30 2652 C 244.046 -0.426483 -1.84331 0
M  V30 2653 O 243.389 0.608513 -1.73329 0
M  V30 2654 C 243.451 -2.80118 -2.25332 0
M  V30 2655 C 243.115 -4.21381 -1.76881 0
M  V30 2656 C 244.112 -5.04697 -1.24808 0
M  V30 2657 C 241.797 -4.67683 -1.83244 0
M  V30 2658 C 243.791 -6.32393 -0.797387 0
M  V30 2659 C 241.478 -5.95364 -1.37787 0
M  V30 2660 C 242.476 -6.77549 -0.861208 0
M  V30 2661 O 242.164 -8.02837 -0.413252 0
M  V30 2662 H 241.896 -0.576155 -0.353583 0
M  V30 2663 H 244.45 -2.00018 -0.467123 0
M  V30 2664 H 242.68 -2.46557 -2.97904 0
M  V30 2665 H 244.369 -2.87006 -2.87023 0
M  V30 2666 H 245.135 -4.70111 -1.19252 0
M  V30 2667 H 241.014 -4.03805 -2.22401 0
M  V30 2668 H 244.558 -6.9649 -0.393437 0
M  V30 2669 H 240.455 -6.29455 -1.43026 0
M  V30 2670 H 241.223 -8.16749 -0.53515 0
M  V30 2671 N 243.887 0.651787 -1.4349 0
M  V30 2672 C 244.817 1.77621 -1.51569 0
M  V30 2673 C 245.798 1.66022 -0.370253 0
M  V30 2674 O 246.983 1.85095 -0.587658 0
M  V30 2675 C 244.113 3.16056 -1.43966 0
M  V30 2676 C 243.067 3.4242 -2.56774 0
M  V30 2677 C 242.393 4.8067 -2.34223 0
M  V30 2678 C 243.693 3.37023 -3.99015 0
M  V30 2679 H 245.387 1.71117 -2.45681 0
M  V30 2680 H 242.933 0.821825 -1.18246 0
M  V30 2681 H 244.886 3.94472 -1.48221 0
M  V30 2682 H 243.61 3.23293 -0.463586 0
M  V30 2683 H 242.269 2.66375 -2.51873 0
M  V30 2684 H 241.917 4.84585 -1.34856 0
M  V30 2685 H 241.617 4.9927 -3.09844 0
M  V30 2686 H 243.141 5.61342 -2.40265 0
M  V30 2687 H 244.555 4.05374 -4.05395 0
M  V30 2688 H 242.952 3.67159 -4.74673 0
M  V30 2689 H 244.022 2.3518 -4.2405 0
M  V30 2690 N 245.365 1.30045 0.890287 0
M  V30 2691 C 246.275 1.17885 2.02831 0
M  V30 2692 C 247.291 0.0999609 1.73713 0
M  V30 2693 O 248.467 0.313867 1.98939 0
M  V30 2694 C 245.532 0.866079 3.35708 0
M  V30 2695 C 244.593 2.02979 3.78283 0
M  V30 2696 C 243.826 1.73184 5.0482 0
M  V30 2697 O 244.049 0.657237 5.66601 0
M  V30 2698 O 242.983 2.58267 5.43674 0
M  V30 2699 H 246.809 2.13474 2.16015 0
M  V30 2700 H 244.394 1.09587 1.01543 0
M  V30 2701 H 246.276 0.706623 4.15433 0
M  V30 2702 H 244.951 -0.0599443 3.23644 0
M  V30 2703 H 243.858 2.24454 2.99285 0
M  V30 2704 H 245.191 2.93734 3.94944 0
M  V30 2705 N 246.843 -1.10192 1.12674 0
M  V30 2706 C 247.791 -2.18694 0.792196 0
M  V30 2707 C 248.785 -1.67938 -0.222058 0
M  V30 2708 O 249.991 -1.79822 -0.0800074 0
M  V30 2709 H 246.366 -0.713223 0.238364 0
M  V30 2710 H 248.337 -2.44149 1.71564 0
M  V30 2711 C 247.086 -3.46682 0.265859 0
M  V30 2712 H 246.409 -3.86101 1.03761 0
M  V30 2713 H 247.849 -4.23942 0.0701128 0
M  V30 2714 C 246.308 -3.21506 -1.00675 0
M  V30 2715 O 246.838 -3.43408 -2.08408 0
M  V30 2716 N 245.044 -2.75158 -0.934692 0
M  V30 2717 H 244.591 -2.57535 -0.0578604 0
M  V30 2718 H 244.549 -2.58691 -1.7868 0
M  V30 2719 N 248.321 -0.919034 -1.28029 0
M  V30 2720 C 249.732 -0.600735 -1.76771 0
M  V30 2721 C 250.083 0.884024 -1.75156 0
M  V30 2722 O 249.208 1.69163 -1.34956 0
M  V30 2723 C 249.803 -1.08372 -3.21 0
M  V30 2724 C 248.362 -0.816248 -3.67443 0
M  V30 2725 C 247.509 -1.24742 -2.47658 0
M  V30 2726 H 250.46 -1.09974 -1.14418 0
M  V30 2727 H 250.481 -0.427512 -3.78091 0
M  V30 2728 H 249.993 -2.16437 -3.22144 0
M  V30 2729 H 248.094 0.250968 -3.71754 0
M  V30 2730 H 248.207 -1.4277 -4.57333 0
M  V30 2731 H 246.571 -0.666083 -2.45836 0
M  V30 2732 H 247.354 -2.33653 -2.51518 0
M  V30 2733 N 249.799 1.42003 -0.683588 0
M  V30 2734 C 251.215 1.55625 -0.353976 0
M  V30 2735 C 251.415 1.66151 1.14 0
M  V30 2736 O 250.471 1.63329 1.92561 0
M  V30 2737 C 251.784 2.80171 -1.092 0
M  V30 2738 C 253.332 2.93954 -1.07518 0
M  V30 2739 C 253.807 4.21372 -1.79471 0
M  V30 2740 N 255.298 4.28303 -1.76381 0
M  V30 2741 C 256.033 5.25729 -2.28904 0
M  V30 2742 N 255.529 6.29254 -2.89846 0
M  V30 2743 N 257.322 5.17586 -2.19228 0
M  V30 2744 H 249.473 1.33415 -1.6527 0
M  V30 2745 H 251.736 0.64282 -0.696769 0
M  V30 2746 H 251.442 2.78561 -2.14701 0
M  V30 2747 H 251.316 3.7133 -0.662862 0
M  V30 2748 H 253.703 2.95086 -0.028475 0
M  V30 2749 H 253.784 2.04002 -1.54328 0
M  V30 2750 H 253.428 4.21001 -2.84114 0
M  V30 2751 H 253.358 5.10275 -1.30104 0
M  V30 2752 H 255.849 3.54119 -1.31939 0
M  V30 2753 H 256.162 6.99964 -3.27522 0
M  V30 2754 H 254.507 6.29791 -2.93919 0
M  V30 2755 H 257.698 4.35631 -1.71299 0
M  V30 2756 H 257.871 5.93348 -2.60466 0
M  V30 2757 N 251.277 0.427512 1.51691 0
M  V30 2758 C 252.693 0.0792977 1.59403 0
M  V30 2759 C 252.893 -1.41035 1.43914 0
M  V30 2760 O 251.949 -2.17922 1.27539 0
M  V30 2761 C 253.262 0.590636 2.94842 0
M  V30 2762 C 254.81 0.550215 3.08126 0
M  V30 2763 C 255.285 1.03836 4.46074 0
M  V30 2764 N 256.776 0.995943 4.52366 0
M  V30 2765 C 257.511 1.34463 5.57411 0
M  V30 2766 N 257.007 1.76569 6.69922 0
M  V30 2767 N 258.8 1.26343 5.47717 0
M  V30 2768 H 250.951 1.39687 1.60004 0
M  V30 2769 H 253.214 0.575003 0.753708 0
M  V30 2770 H 252.92 1.63251 3.11516 0
M  V30 2771 H 252.794 0.0102061 3.77199 0
M  V30 2772 H 255.181 -0.482654 2.91126 0
M  V30 2773 H 255.262 1.16693 2.27632 0
M  V30 2774 H 254.906 2.06965 4.63819 0
M  V30 2775 H 254.836 0.398286 5.25092 0
M  V30 2776 H 257.327 0.68661 3.7161 0
M  V30 2777 H 257.64 2.01438 7.46085 0
M  V30 2778 H 255.985 1.80488 6.71155 0
M  V30 2779 H 259.176 0.933209 4.58703 0
M  V30 2780 H 259.349 1.53846 6.29472 0
M  V30 2781 N 252.755 -1.56801 0.158532 0
M  V30 2782 C 253.703 -2.18638 -0.793729 0
M  V30 2783 C 254.697 -1.14669 -1.24689 0
M  V30 2784 O 255.903 -1.32895 -1.21403 0
M  V30 2785 H 252.278 -0.700226 -0.274204 0
M  V30 2786 H 254.249 -2.97367 -0.248095 0
M  V30 2787 C 252.998 -2.83139 -2.0181 0
M  V30 2788 H 252.321 -3.62863 -1.67841 0
M  V30 2789 H 253.761 -3.29894 -2.66357 0
M  V30 2790 C 252.22 -1.82244 -2.83353 0
M  V30 2791 O 252.75 -1.3 -3.80083 0
M  V30 2792 N 250.956 -1.51288 -2.48114 0
M  V30 2793 H 250.503 -1.93964 -1.69516 0
M  V30 2794 H 250.461 -0.840296 -3.02963 0
M  V30 2795 N 254.233 0.115231 -1.57178 0
M  V30 2796 C 255.649 0.468877 -1.52557 0
M  V30 2797 C 255.849 1.81649 -0.872125 0
M  V30 2798 O 254.905 2.48347 -0.45606 0
M  V30 2799 C 256.218 0.4499 -2.97315 0
M  V30 2800 C 257.766 0.533185 -3.08425 0
M  V30 2801 C 258.241 0.54456 -4.54751 0
M  V30 2802 N 259.732 0.605892 -4.5922 0
M  V30 2803 C 260.467 0.636203 -5.6986 0
M  V30 2804 N 259.963 0.623931 -6.89985 0
M  V30 2805 N 261.756 0.679496 -5.57978 0
M  V30 2806 H 253.907 -0.767712 -1.9804 0
M  V30 2807 H 256.17 -0.283609 -0.904583 0
M  V30 2808 H 255.876 -0.472721 -3.48509 0
M  V30 2809 H 255.75 1.27632 -3.5495 0
M  V30 2810 H 258.137 1.44623 -2.57232 0
M  V30 2811 H 258.218 -0.320995 -2.53778 0
M  V30 2812 H 257.862 -0.364452 -5.06591 0
M  V30 2813 H 257.792 1.41568 -5.07214 0
M  V30 2814 H 260.283 0.621386 -3.72756 0
M  V30 2815 H 260.596 0.649787 -7.70063 0
M  V30 2816 H 258.941 0.591296 -6.9248 0
M  V30 2817 H 262.132 0.686472 -4.63039 0
M  V30 2818 H 262.305 0.69965 -6.44212 0
M  V30 2819 N 255.711 1.52812 0.385517 0
M  V30 2820 C 256.96 1.67249 1.12741 0
M  V30 2821 C 257.273 0.4205 1.91027 0
M  V30 2822 O 258.479 0.445064 2.67827 0
M  V30 2823 C 256.935 2.95583 2.05326 0
M  V30 2824 C 256.543 4.27974 1.32447 0
M  V30 2825 C 258.287 3.19386 2.7963 0
M  V30 2826 C 256.194 5.47412 2.23818 0
M  V30 2827 H 255.124 0.6231 0.424573 0
M  V30 2828 H 257.775 1.79309 0.389924 0
M  V30 2829 H 256.157 2.77277 2.82725 0
M  V30 2830 H 257.331 4.56844 0.602495 0
M  V30 2831 H 255.646 4.10459 0.700885 0
M  V30 2832 H 258.243 4.05801 3.48181 0
M  V30 2833 H 258.586 2.34604 3.43899 0
M  V30 2834 H 259.119 3.38274 2.09322 0
M  V30 2835 H 255.858 6.34612 1.64157 0
M  V30 2836 H 255.378 5.22849 2.93921 0
M  V30 2837 H 257.057 5.81423 2.83824 0
M  V30 2838 N 257.189 -0.644168 1.43834 0
M  V30 2839 C 258.152 -1.73857 1.49353 0
M  V30 2840 C 259.152 -1.56315 0.377112 0
M  V30 2841 O 260.342 -1.62048 0.639226 0
M  V30 2842 C 257.474 -3.12819 1.35488 0
M  V30 2843 H 258.667 -1.70342 2.46827 0
M  V30 2844 H 256.22 -0.856652 1.30733 0
M  V30 2845 H 256.955 -3.2194 0.390569 0
M  V30 2846 H 256.74 -3.26958 2.16428 0
M  V30 2847 H 258.23 -3.92606 1.42302 0
M  V30 2848 N 258.668 -1.30515 -0.883378 0
M  V30 2849 C 259.6 -1.12846 -1.99496 0
M  V30 2850 C 260.613 -0.0712571 -1.62644 0
M  V30 2851 O 261.802 -0.317432 -1.75655 0
M  V30 2852 C 258.902 -0.699123 -3.3161 0
M  V30 2853 C 258.075 -1.83842 -3.96889 0
M  V30 2854 C 257.134 -1.39737 -5.07307 0
M  V30 2855 O 256.16 -2.10485 -5.28852 0
M  V30 2856 N 257.362 -0.277279 -5.79837 0
M  V30 2857 H 260.127 -2.08585 -2.15203 0
M  V30 2858 H 257.688 -1.22672 -1.05656 0
M  V30 2859 H 259.68 -0.387044 -4.02845 0
M  V30 2860 H 258.25 0.166276 -3.12157 0
M  V30 2861 H 257.47 -2.31853 -3.18807 0
M  V30 2862 H 258.758 -2.60187 -4.37241 0
M  V30 2863 H 258.156 0.3122 -5.64838 0
M  V30 2864 H 256.713 -0.0246623 -6.51795 0
M  V30 2865 N 260.146 1.09593 -1.13257 0
M  V30 2866 C 261.392 1.82181 -0.904521 0
M  V30 2867 C 261.747 1.83967 0.563358 0
M  V30 2868 O 261.04 1.29566 1.41149 0
M  V30 2869 C 261.234 3.27802 -1.42411 0
M  V30 2870 C 261.063 3.40201 -2.94097 0
M  V30 2871 C 259.833 3.52104 -3.62424 0
M  V30 2872 C 262.031 3.32875 -3.92044 0
M  V30 2873 N 260.013 3.53169 -5.0214 0
M  V30 2874 C 261.384 3.40789 -5.17941 0
M  V30 2875 C 263.439 3.16531 -3.84334 0
M  V30 2876 C 262.142 3.34042 -6.37031 0
M  V30 2877 C 264.168 3.11109 -5.02956 0
M  V30 2878 C 263.53 3.19614 -6.27715 0
M  V30 2879 H 259.629 0.681015 -0.384373 0
M  V30 2880 H 262.213 1.3099 -1.44048 0
M  V30 2881 H 260.384 3.77466 -0.915086 0
M  V30 2882 H 262.116 3.88393 -1.13722 0
M  V30 2883 H 258.871 3.5548 -3.12939 0
M  V30 2884 H 259.295 3.57291 -5.75041 0
M  V30 2885 H 263.937 3.08827 -2.88766 0
M  V30 2886 H 261.655 3.4051 -7.32857 0
M  V30 2887 H 265.241 2.99601 -4.98729 0
M  V30 2888 H 264.121 3.15432 -7.17964 0
M  V30 2889 N 261.624 0.925811 1.2754 0
M  V30 2890 C 262.556 0.380753 2.26015 0
M  V30 2891 C 263.569 -0.487485 1.5533 0
M  V30 2892 O 264.758 -0.300413 1.75954 0
M  V30 2893 C 261.858 -0.473259 3.35579 0
M  V30 2894 C 261.031 0.375249 4.35787 0
M  V30 2895 C 260.09 -0.415809 5.24555 0
M  V30 2896 O 259.116 0.175834 5.68928 0
M  V30 2897 N 260.318 -1.71607 5.54555 0
M  V30 2898 H 263.083 1.22725 2.73421 0
M  V30 2899 H 260.644 0.793037 1.41147 0
M  V30 2900 H 262.636 -1.00949 3.91907 0
M  V30 2901 H 261.206 -1.2205 2.87789 0
M  V30 2902 H 260.426 1.09279 3.7875 0
M  V30 2903 H 261.714 0.955399 4.99749 0
M  V30 2904 H 261.112 -2.2191 5.20358 0
M  V30 2905 H 259.669 -2.19887 6.1359 0
M  V30 2906 N 263.102 -1.41638 0.69111 0
M  V30 2907 C 264.327 -2.06148 0.227583 0
M  V30 2908 C 264.752 -1.51652 -1.11281 0
M  V30 2909 O 264.11 -0.64164 -1.69566 0
M  V30 2910 C 264.158 -3.60095 0.190858 0
M  V30 2911 O 263.262 -4.03845 -0.835664 0
M  V30 2912 H 262.603 -0.654434 0.112306 0
M  V30 2913 H 265.133 -1.81484 0.944714 0
M  V30 2914 H 265.143 -4.07995 0.020207 0
M  V30 2915 H 263.818 -3.99129 1.16915 0
M  V30 2916 H 262.395 -3.67458 -0.63473 0
M  V30 2917 N 264.58 -0.43555 -1.51462 0
M  V30 2918 C 265.51 0.367376 -2.30592 0
M  V30 2919 C 266.491 1.02263 -1.35928 0
M  V30 2920 O 267.676 1.02661 -1.64847 0
M  V30 2921 C 264.806 1.46983 -3.14664 0
M  V30 2922 C 263.76 0.938161 -4.17591 0
M  V30 2923 C 263.086 2.13622 -4.90173 0
M  V30 2924 C 264.386 -0.0261621 -5.22293 0
M  V30 2925 H 266.08 -0.292969 -2.97963 0
M  V30 2926 H 263.626 -0.14234 -1.43295 0
M  V30 2927 H 265.579 2.03873 -3.688 0
M  V30 2928 H 264.303 2.15843 -2.4511 0
M  V30 2929 H 262.962 0.391481 -3.64504 0
M  V30 2930 H 262.61 2.81098 -4.17124 0
M  V30 2931 H 262.31 1.78688 -5.59772 0
M  V30 2932 H 263.834 2.7107 -5.47132 0
M  V30 2933 H 265.248 0.452384 -5.71512 0
M  V30 2934 H 263.645 -0.287992 -5.99409 0
M  V30 2935 H 264.715 -0.963391 -4.75233 0
M  V30 2936 N 266.058 1.56714 -0.166846 0
M  V30 2937 C 267.005 2.17746 0.765193 0
M  V30 2938 C 267.975 1.11614 1.23011 0
M  V30 2939 O 269.16 1.39745 1.29908 0
M  V30 2940 C 266.3 2.81882 1.9909 0
M  V30 2941 C 265.413 4.02462 1.56997 0
M  V30 2942 C 264.548 4.54537 2.749 0
M  V30 2943 C 263.587 5.67538 2.29275 0
M  V30 2944 N 262.724 6.14142 3.40255 0
M  V30 2945 H 267.564 2.97048 0.237952 0
M  V30 2946 H 265.101 1.4672 0.105725 0
M  V30 2947 H 267.059 3.17221 2.70974 0
M  V30 2948 H 265.689 2.05191 2.49192 0
M  V30 2949 H 264.741 3.72973 0.748037 0
M  V30 2950 H 266.053 4.84273 1.19503 0
M  V30 2951 H 265.207 4.92035 3.54946 0
M  V30 2952 H 263.946 3.71774 3.1565 0
M  V30 2953 H 262.951 5.29597 1.47674 0
M  V30 2954 H 264.176 6.52099 1.89588 0
M  V30 2955 H 262.122 5.3431 3.8059 0
M  V30 2956 H 262.039 6.9093 3.06841 0
M  V30 2957 H 263.307 6.56289 4.206 0
M  V30 2958 N 267.536 -0.106894 1.57237 0
M  V30 2959 C 268.466 -1.13148 2.04254 0
M  V30 2960 C 269.447 -1.42476 0.929224 0
M  V30 2961 O 270.632 -1.52709 1.19973 0
M  V30 2962 C 267.762 -2.4545 2.45706 0
M  V30 2963 C 266.716 -2.30558 3.60592 0
M  V30 2964 C 266.042 -3.67931 3.87983 0
M  V30 2965 C 267.342 -1.75597 4.91897 0
M  V30 2966 H 269.036 -0.740374 2.90101 0
M  V30 2967 H 266.582 -0.354696 1.39563 0
M  V30 2968 H 268.535 -3.17389 2.77205 0
M  V30 2969 H 267.259 -2.86475 1.56843 0
M  V30 2970 H 265.918 -1.61067 3.29322 0
M  V30 2971 H 265.566 -4.06462 2.96306 0
M  V30 2972 H 265.266 -3.58817 4.65322 0
M  V30 2973 H 266.79 -4.41356 4.21945 0
M  V30 2974 H 268.204 -2.37364 5.21854 0
M  V30 2975 H 266.601 -1.77272 5.73319 0
M  V30 2976 H 267.671 -0.714451 4.79608 0
M  V30 2977 N 269.014 -1.53014 -0.377408 0
M  V30 2978 C 269.924 -1.81557 -1.48574 0
M  V30 2979 C 270.94 -0.703102 -1.59162 0
M  V30 2980 O 272.116 -0.99192 -1.75279 0
M  V30 2981 C 269.181 -1.9889 -2.83978 0
M  V30 2982 C 268.242 -3.22801 -2.83016 0
M  V30 2983 C 267.475 -3.39298 -4.11962 0
M  V30 2984 O 267.698 -2.60345 -5.0752 0
M  V30 2985 O 266.632 -4.32604 -4.18494 0
M  V30 2986 H 270.458 -2.75695 -1.27382 0
M  V30 2987 H 268.043 -1.38248 -0.566373 0
M  V30 2988 H 269.925 -2.11931 -3.6423 0
M  V30 2989 H 268.6 -1.07942 -3.05172 0
M  V30 2990 H 267.507 -3.15193 -2.01505 0
M  V30 2991 H 268.84 -4.13632 -2.66775 0
M  V30 2992 N 270.492 0.636531 -1.44174 0
M  V30 2993 C 271.455 1.73063 -1.50273 0
M  V30 2994 C 272.455 1.56113 -0.385397 0
M  V30 2995 O 273.645 1.61707 -0.64781 0
M  V30 2996 C 270.777 3.12096 -1.37145 0
M  V30 2997 H 271.97 1.69031 -2.47727 0
M  V30 2998 H 269.523 0.849706 -1.31186 0
M  V30 2999 H 270.258 3.21728 -0.407636 0
M  V30 3000 H 270.043 3.25805 -2.18159 0
M  V30 3001 H 271.533 3.91846 -1.44382 0
M  V30 3002 N 271.97 1.30982 0.876444 0
M  V30 3003 C 273.218 1.20058 1.62575 0
M  V30 3004 C 273.539 -0.242947 1.93481 0
M  V30 3005 O 272.809 -1.1619 1.57724 0
M  V30 3006 H 271.389 0.44135 0.602677 0
M  V30 3007 H 274.051 1.64222 1.04962 0
M  V30 3008 H 273.147 1.76762 2.57219 0
M  V30 3009 N 273.449 -1.08991 1.13837 0
M  V30 3010 C 274.698 -1.80631 0.897509 0
M  V30 3011 C 275.011 -1.86872 -0.57777 0
M  V30 3012 O 276.217 -2.54866 -0.935701 0
M  V30 3013 C 274.673 -3.24517 1.55618 0
M  V30 3014 C 274.281 -3.26529 3.0673 0
M  V30 3015 C 276.025 -4.00882 1.3962 0
M  V30 3016 C 273.932 -4.64965 3.65461 0
M  V30 3017 H 272.862 -0.67691 0.332129 0
M  V30 3018 H 275.513 -1.2246 1.3666 0
M  V30 3019 H 273.895 -3.82778 1.01476 0
M  V30 3020 H 275.069 -2.78008 3.67489 0
M  V30 3021 H 273.384 -2.63656 3.22296 0
M  V30 3022 H 275.981 -5.03167 1.80906 0
M  V30 3023 H 276.324 -4.14896 0.341578 0
M  V30 3024 H 276.857 -3.49075 1.90766 0
M  V30 3025 H 273.596 -4.56153 4.70749 0
M  V30 3026 H 273.116 -5.13792 3.09481 0
M  V30 3027 H 274.795 -5.3394 3.654 0
M  V30 3028 N 274.927 -0.932562 -1.27047 0
M  V30 3029 C 275.875 -0.42603 -2.28665 0
M  V30 3030 C 276.869 0.49219 -1.62092 0
M  V30 3031 O 278.075 0.371355 -1.76128 0
M  V30 3032 H 274.45 -0.119213 -0.742491 0
M  V30 3033 H 276.421 -1.29579 -2.68797 0
M  V30 3034 C 275.17 0.301426 -3.46391 0
M  V30 3035 H 274.493 -0.39595 -3.97834 0
M  V30 3036 H 275.933 0.6202 -4.1944 0
M  V30 3037 C 274.392 1.51616 -3.00856 0
M  V30 3038 O 274.922 2.61476 -3.04948 0
M  V30 3039 N 273.128 1.36969 -2.56296 0
M  V30 3040 H 272.675 0.475873 -2.53166 0
M  V30 3041 H 272.633 2.18368 -2.26192 0
M  V30 3042 N 276.405 1.4127 -0.698611 0
M  V30 3043 C 277.337 2.292 0.00399731 0
M  V30 3044 C 278.35 1.44944 0.741279 0
M  V30 3045 O 279.539 1.68416 0.591477 0
M  V30 3046 C 276.639 3.22875 1.02979 0
M  V30 3047 C 275.812 4.35904 0.36151 0
M  V30 3048 C 274.871 5.10134 1.29033 0
M  V30 3049 O 273.897 5.63809 0.781562 0
M  V30 3050 N 275.099 5.17885 2.6225 0
M  V30 3051 H 277.864 2.9014 -0.750921 0
M  V30 3052 H 275.425 1.52455 -0.544882 0
M  V30 3053 H 277.417 3.69404 1.65296 0
M  V30 3054 H 275.987 2.63221 1.68622 0
M  V30 3055 H 275.207 3.91719 -0.441584 0
M  V30 3056 H 276.495 5.08696 -0.103055 0
M  V30 3057 H 275.893 4.7573 3.061 0
M  V30 3058 H 274.45 5.6798 3.19754 0
M  V30 3059 N 277.883 0.443576 1.51229 0
M  V30 3060 C 278.813 -0.355142 2.30783 0
M  V30 3061 C 279.794 -1.0154 1.36468 0
M  V30 3062 O 280.979 -1.01785 1.65389 0
M  V30 3063 C 278.109 -1.45312 3.15439 0
M  V30 3064 C 277.063 -0.916002 4.18083 0
M  V30 3065 C 276.389 -2.1102 4.91299 0
M  V30 3066 C 277.689 0.0538602 5.22272 0
M  V30 3067 H 279.383 0.308767 2.97804 0
M  V30 3068 H 276.929 0.149937 1.43217 0
M  V30 3069 H 278.882 -2.01914 3.69876 0
M  V30 3070 H 277.606 -2.14541 2.46252 0
M  V30 3071 H 276.265 -0.372145 3.64706 0
M  V30 3072 H 275.913 -2.78882 4.18609 0
M  V30 3073 H 275.613 -1.75717 5.60712 0
M  V30 3074 H 277.137 -2.68164 5.48562 0
M  V30 3075 H 278.551 -0.422069 5.71744 0
M  V30 3076 H 276.948 0.319776 5.99247 0
M  V30 3077 H 278.018 0.98858 4.74716 0
M  V30 3078 N 279.361 -1.56624 0.175154 0
M  V30 3079 C 280.586 -2.01813 -0.478137 0
M  V30 3080 C 281.011 -1.05457 -1.55757 0
M  V30 3081 O 280.369 -0.0347439 -1.81267 0
M  V30 3082 C 280.417 -3.45581 -1.02987 0
M  V30 3083 O 279.521 -3.52305 -2.14371 0
M  V30 3084 H 278.862 -0.65413 -0.114059 0
M  V30 3085 H 281.392 -2.02673 0.280173 0
M  V30 3086 H 281.402 -3.84965 -1.35151 0
M  V30 3087 H 280.077 -4.1521 -0.239556 0
M  V30 3088 H 278.654 -3.24783 -1.83222 0
M  V30 3089 N 280.839 0.0985539 -1.57292 0
M  V30 3090 C 282.086 0.802678 -1.85912 0
M  V30 3091 C 282.414 1.78901 -0.763186 0
M  V30 3092 O 281.669 1.94178 0.243559 0
M  V30 3093 C 281.968 1.56927 -3.21105 0
M  V30 3094 C 281.634 0.725376 -4.45027 0
M  V30 3095 C 280.296 0.492726 -4.78671 0
M  V30 3096 C 282.648 0.138493 -5.21016 0
M  V30 3097 C 279.976 -0.336727 -5.85733 0
M  V30 3098 C 282.328 -0.678264 -6.28953 0
M  V30 3099 C 280.992 -0.921039 -6.61115 0
M  V30 3100 H 280.262 0.293721 -0.680301 0
M  V30 3101 H 282.909 0.0642841 -1.91392 0
M  V30 3102 H 281.214 2.37914 -3.11294 0
M  V30 3103 H 282.911 2.11841 -3.40477 0
M  V30 3104 H 279.501 0.916815 -4.18679 0
M  V30 3105 H 283.685 0.305404 -4.95359 0
M  V30 3106 H 278.941 -0.533836 -6.09065 0
M  V30 3107 H 283.115 -1.1399 -6.87007 0
M  V30 3108 H 280.742 -1.56556 -7.43905 0
M  V30 3109 N 282.317 1.53212 0.369288 0
M  V30 3110 C 283.728 1.60943 0.946276 0
M  V30 3111 C 284.079 0.47452 1.90375 0
M  V30 3112 O 283.204 -0.399597 2.12679 0
M  V30 3113 C 283.799 2.91715 1.72302 0
M  V30 3114 C 282.358 3.01792 2.24941 0
M  V30 3115 C 281.505 2.56211 1.06072 0
M  V30 3116 H 284.456 1.58007 0.148198 0
M  V30 3117 H 284.477 2.79309 2.58393 0
M  V30 3118 H 283.989 3.74295 1.0259 0
M  V30 3119 H 282.09 2.23791 2.97906 0
M  V30 3120 H 282.203 4.06803 2.53077 0
M  V30 3121 H 280.567 2.10998 1.4266 0
M  V30 3122 H 281.35 3.41206 0.378639 0
M  V30 3123 N 283.795 -0.628877 1.44509 0
M  V30 3124 C 284.725 -1.75187 1.54376 0
M  V30 3125 C 285.706 -1.65411 0.396618 0
M  V30 3126 O 286.891 -1.84137 0.617031 0
M  V30 3127 C 284.021 -3.13725 1.48976 0
M  V30 3128 C 282.975 -3.38291 2.62189 0
M  V30 3129 C 282.301 -4.76883 2.41841 0
M  V30 3130 C 283.601 -3.30632 4.04326 0
M  V30 3131 H 285.295 -1.67187 2.48373 0
M  V30 3132 H 282.841 -0.802909 1.19538 0
M  V30 3133 H 284.794 -3.92064 1.54478 0
M  V30 3134 H 283.518 -3.22515 0.514961 0
M  V30 3135 H 282.177 -2.62334 2.56079 0
M  V30 3136 H 281.825 -4.82378 1.42548 0
M  V30 3137 H 281.525 -4.94278 3.17747 0
M  V30 3138 H 283.049 -5.57449 2.49165 0
M  V30 3139 H 284.463 -3.98873 4.11793 0
M  V30 3140 H 282.86 -3.59561 4.80454 0
M  V30 3141 H 283.93 -2.28404 4.27738 0
M  V30 3142 N 285.273 -1.31445 -0.869486 0
M  V30 3143 C 286.498 -1.24256 -1.66058 0
M  V30 3144 C 286.923 0.188928 -1.87149 0
M  V30 3145 O 286.281 1.13522 -1.4136 0
M  V30 3146 C 286.329 -1.9924 -3.00559 0
M  V30 3147 O 285.433 -1.33007 -3.90362 0
M  V30 3148 H 284.774 -0.428973 -0.506831 0
M  V30 3149 H 287.304 -1.73521 -1.08404 0
M  V30 3150 H 287.314 -2.08854 -3.50491 0
M  V30 3151 H 285.989 -3.03342 -2.84528 0
M  V30 3152 H 284.566 -1.31848 -3.48813 0
M  V30 3153 N 286.751 1.08385 -1.14413 0
M  V30 3154 C 287.976 1.85057 -0.936413 0
M  V30 3155 C 288.401 1.81055 0.509971 0
M  V30 3156 O 287.759 1.1958 1.36273 0
M  V30 3157 C 287.807 3.30505 -1.44217 0
M  V30 3158 O 286.911 4.07491 -0.634409 0
M  V30 3159 H 286.252 0.573425 -0.334784 0
M  V30 3160 H 288.782 1.36799 -1.52142 0
M  V30 3161 H 288.792 3.81348 -1.45043 0
M  V30 3162 H 287.467 3.32734 -2.49522 0
M  V30 3163 H 286.044 3.66368 -0.694902 0
M  V30 3164 N 288.23 0.939286 1.26551 0
M  V30 3165 C 289.14 0.453432 2.30176 0
M  V30 3166 C 290.156 -0.471649 1.67486 0
M  V30 3167 O 291.332 -0.35164 1.98306 0
M  V30 3168 C 288.397 -0.275326 3.45605 0
M  V30 3169 C 287.458 0.686084 4.23782 0
M  V30 3170 C 286.691 -0.00798994 5.33699 0
M  V30 3171 O 286.914 -1.22528 5.57085 0
M  V30 3172 O 285.848 0.669746 5.98162 0
M  V30 3173 H 289.674 1.31416 2.73795 0
M  V30 3174 H 287.259 0.705095 1.31715 0
M  V30 3175 H 289.141 -0.685911 4.1578 0
M  V30 3176 H 287.816 -1.11147 3.0402 0
M  V30 3177 H 286.723 1.14658 3.56096 0
M  V30 3178 H 288.056 1.48979 4.69112 0
M  V30 3179 N 289.708 -1.40897 0.706093 0
M  V30 3180 C 291.119 -1.84023 0.315052 0
M  V30 3181 C 291.47 -1.5906 -1.14866 0
M  V30 3182 O 290.595 -1.06651 -1.88293 0
M  V30 3183 C 291.19 -3.34055 0.565038 0
M  V30 3184 C 289.749 -3.7571 0.227806 0
M  V30 3185 C 288.896 -2.64204 0.842122 0
M  V30 3186 H 291.847 -1.303 0.905963 0
M  V30 3187 H 291.868 -3.80107 -0.172843 0
M  V30 3188 H 291.38 -3.52192 1.63042 0
M  V30 3189 H 289.481 -3.63172 -0.832895 0
M  V30 3190 H 289.594 -4.74103 0.690174 0
M  V30 3191 H 287.958 -2.53255 0.270893 0
M  V30 3192 H 288.741 -2.85155 1.91158 0
M  V30 3193 N 291.186 -0.45159 -1.50991 0
M  V30 3194 C 292.435 0.111653 -2.01391 0
M  V30 3195 C 292.748 1.42529 -1.33959 0
M  V30 3196 O 293.954 2.07232 -1.75405 0
M  V30 3197 C 292.41 0.249514 -3.59034 0
M  V30 3198 C 292.018 -1.05453 -4.35412 0
M  V30 3199 C 293.762 0.765762 -4.17536 0
M  V30 3200 C 291.669 -0.881529 -5.84793 0
M  V30 3201 H 290.599 0.0455022 -0.752626 0
M  V30 3202 H 293.25 -0.583524 -1.73975 0
M  V30 3203 H 291.632 1.00803 -3.82955 0
M  V30 3204 H 292.806 -1.82248 -4.23229 0
M  V30 3205 H 291.121 -1.50039 -3.88429 0
M  V30 3206 H 293.718 0.911913 -5.26866 0
M  V30 3207 H 294.061 1.75201 -3.77638 0
M  V30 3208 H 294.594 0.0651744 -3.97747 0
M  V30 3209 H 291.333 -1.84057 -6.29129 0
M  V30 3210 H 290.853 -0.153625 -5.99603 0
M  V30 3211 H 292.532 -0.540363 -6.4474 0
M  V30 3212 N 292.664 1.56529 -0.183458 0
M  V30 3213 C 293.596 2.15747 0.773697 0
M  V30 3214 C 294.609 1.1162 1.1851 0
M  V30 3215 O 295.798 1.3876 1.12285 0
M  V30 3216 C 292.898 2.6952 2.05456 0
M  V30 3217 C 292.071 3.98429 1.8048 0
M  V30 3218 C 291.13 4.37145 2.92901 0
M  V30 3219 O 290.156 5.04791 2.6301 0
M  V30 3220 N 291.358 3.99695 4.2098 0
M  V30 3221 H 294.123 2.98505 0.26736 0
M  V30 3222 H 291.684 1.619 -0.0010878 0
M  V30 3223 H 293.676 2.92412 2.79781 0
M  V30 3224 H 292.246 1.91282 2.47245 0
M  V30 3225 H 291.466 3.8379 0.899947 0
M  V30 3226 H 292.754 4.82597 1.61175 0
M  V30 3227 H 292.152 3.4526 4.48121 0
M  V30 3228 H 290.709 4.27562 4.9197 0
M  V30 3229 N 294.142 -0.090211 1.57342 0
M  V30 3230 C 295.39 -0.791241 1.85967 0
M  V30 3231 C 295.711 -1.7903 0.772859 0
M  V30 3232 O 294.981 -1.94872 -0.200398 0
M  V30 3233 H 293.561 -0.295205 0.686195 0
M  V30 3234 H 296.223 -0.0706782 1.94772 0
M  V30 3235 H 295.319 -1.31882 2.82867 0
M  V30 3236 N 295.62 -1.53406 -0.361157 0
M  V30 3237 C 296.845 -1.74024 -1.12829 0
M  V30 3238 C 297.27 -0.470069 -1.82132 0
M  V30 3239 O 296.628 0.57619 -1.719 0
M  V30 3240 C 296.676 -2.90903 -2.13091 0
M  V30 3241 O 295.78 -2.59821 -3.20261 0
M  V30 3242 H 295.121 -0.577804 -0.327168 0
M  V30 3243 H 297.651 -2.00307 -0.41693 0
M  V30 3244 H 297.661 -3.17194 -2.56616 0
M  V30 3245 H 296.336 -3.83034 -1.62042 0
M  V30 3246 H 294.913 -2.44362 -2.81677 0
M  V30 3247 N 297.098 0.621204 -1.44841 0
M  V30 3248 C 298.328 1.40548 -1.51426 0
M  V30 3249 C 298.736 1.88673 -0.141083 0
M  V30 3250 O 298.079 1.62053 0.865128 0
M  V30 3251 C 298.141 2.65325 -2.42576 0
M  V30 3252 C 297.805 2.3893 -3.89566 0
M  V30 3253 C 298.802 2.00138 -4.79834 0
M  V30 3254 C 296.487 2.52263 -4.3436 0
M  V30 3255 C 298.481 1.75021 -6.129 0
M  V30 3256 C 296.168 2.2676 -5.67471 0
M  V30 3257 C 297.166 1.88199 -6.56559 0
M  V30 3258 O 296.854 1.62986 -7.87204 0
M  V30 3259 H 296.586 0.437122 -0.515655 0
M  V30 3260 H 299.14 0.765987 -1.90583 0
M  V30 3261 H 297.37 3.31947 -1.98364 0
M  V30 3262 H 299.059 3.27347 -2.39998 0
M  V30 3263 H 299.825 1.89386 -4.46495 0
M  V30 3264 H 295.704 2.81246 -3.65269 0
M  V30 3265 H 299.248 1.44848 -6.82396 0
M  V30 3266 H 295.145 2.37125 -6.00368 0
M  V30 3267 H 295.913 1.7715 -7.991 0
M  V30 3268 N 298.576 1.31904 0.862503 0
M  V30 3269 C 299.992 1.10724 1.14945 0
M  V30 3270 C 300.192 -0.117421 2.01158 0
M  V30 3271 O 299.248 -0.804595 2.39338 0
M  V30 3272 C 300.561 2.38267 1.83437 0
M  V30 3273 C 302.109 2.43949 1.96106 0
M  V30 3274 C 302.584 3.71394 2.68013 0
M  V30 3275 N 304.075 3.72331 2.75543 0
M  V30 3276 C 304.81 4.67641 3.31812 0
M  V30 3277 N 304.306 5.73313 3.88953 0
M  V30 3278 N 306.099 4.5515 3.29841 0
M  V30 3279 H 298.25 2.10436 0.288191 0
M  V30 3280 H 300.513 0.928705 0.190292 0
M  V30 3281 H 300.219 3.27759 1.27542 0
M  V30 3282 H 300.093 2.48633 2.83657 0
M  V30 3283 H 302.48 1.54922 2.51164 0
M  V30 3284 H 302.561 2.37543 0.949059 0
M  V30 3285 H 302.205 4.60791 2.13621 0
M  V30 3286 H 302.135 3.75069 3.69636 0
M  V30 3287 H 304.626 2.95947 2.34997 0
M  V30 3288 H 304.939 6.42107 4.30022 0
M  V30 3289 H 303.284 5.77077 3.87308 0
M  V30 3290 H 306.475 3.71766 2.84443 0
M  V30 3291 H 306.648 5.29604 3.73394 0
M  V30 3292 N 300.054 -1.07777 1.14986 0
M  V30 3293 C 301.3 -1.80557 0.923422 0
M  V30 3294 C 301.633 -1.86298 -0.548337 0
M  V30 3295 O 300.908 -1.34354 -1.40639 0
M  V30 3296 C 301.191 -3.25839 1.53299 0
M  V30 3297 C 301.044 -3.28269 3.07505 0
M  V30 3298 C 302.363 -4.22991 1.21518 0
M  V30 3299 H 299.482 -0.655493 0.336894 0
M  V30 3300 H 302.124 -1.26144 1.42083 0
M  V30 3301 H 300.274 -3.72306 1.10999 0
M  V30 3302 H 301.946 -2.90079 3.58681 0
M  V30 3303 H 300.189 -2.67355 3.4162 0
M  V30 3304 H 300.86 -4.30691 3.45266 0
M  V30 3305 H 303.336 -3.84894 1.581 0
M  V30 3306 H 302.212 -5.22945 1.66793 0
M  V30 3307 H 302.473 -4.41904 0.131505 0
M  V30 3308 N 301.532 -0.945985 -1.26051 0
M  V30 3309 C 302.778 -0.597002 -1.93814 0
M  V30 3310 C 303.111 0.862484 -1.73997 0
M  V30 3311 O 302.386 1.61769 -1.07986 0
M  V30 3312 C 302.669 -0.945937 -3.47454 0
M  V30 3313 C 302.522 -2.46052 -3.76535 0
M  V30 3314 C 303.841 -0.464785 -4.37639 0
M  V30 3315 H 300.96 -0.218366 -0.703907 0
M  V30 3316 H 303.602 -1.18107 -1.48831 0
M  V30 3317 H 301.752 -0.448902 -3.85898 0
M  V30 3318 H 303.424 -3.03065 -3.47778 0
M  V30 3319 H 301.667 -2.90194 -3.22444 0
M  V30 3320 H 302.338 -2.65517 -4.83947 0
M  V30 3321 H 304.814 -0.891016 -4.06448 0
M  V30 3322 H 303.69 -0.737712 -5.4392 0
M  V30 3323 H 303.951 0.635274 -4.37512 0
M  V30 3324 N 303.011 1.40521 -0.713556 0
M  V30 3325 C 304.257 2.01221 -0.252564 0
M  V30 3326 C 304.59 1.56444 1.1506 0
M  V30 3327 O 303.865 0.783597 1.78017 0
M  V30 3328 C 304.148 3.58582 -0.330332 0
M  V30 3329 C 304.001 4.13437 -1.77173 0
M  V30 3330 C 305.32 4.39079 0.299641 0
M  V30 3331 H 302.439 0.731077 -0.0932471 0
M  V30 3332 H 305.081 1.67026 -0.905673 0
M  V30 3333 H 303.231 3.87844 0.225737 0
M  V30 3334 H 304.903 3.9498 -2.38303 0
M  V30 3335 H 303.146 3.67801 -2.3001 0
M  V30 3336 H 303.817 5.22597 -1.77755 0
M  V30 3337 H 306.293 4.15735 -0.174139 0
M  V30 3338 H 305.169 5.4848 0.214771 0
M  V30 3339 H 305.43 4.19915 1.38288 0
M  V30 3340 N 304.489 0.459591 1.5075 0
M  V30 3341 C 305.421 -0.37665 2.26084 0
M  V30 3342 C 306.434 -0.967109 1.30961 0
M  V30 3343 O 307.623 -0.857468 1.56556 0
M  V30 3344 C 304.723 -1.54112 3.01832 0
M  V30 3345 C 303.896 -1.06553 4.24223 0
M  V30 3346 C 302.955 -2.1027 4.82362 0
M  V30 3347 O 301.981 -1.68798 5.43595 0
M  V30 3348 N 303.183 -3.42974 4.68347 0
M  V30 3349 H 305.948 0.269124 2.98489 0
M  V30 3350 H 303.509 0.28972 1.59287 0
M  V30 3351 H 305.501 -2.23165 3.37608 0
M  V30 3352 H 304.071 -2.0918 2.32298 0
M  V30 3353 H 303.291 -0.201274 3.93686 0
M  V30 3354 H 304.579 -0.725516 5.03601 0
M  V30 3355 H 303.977 -3.79385 4.19623 0
M  V30 3356 H 302.534 -4.07858 5.08424 0
M  V30 3357 N 305.967 -1.56429 0.191757 0
M  V30 3358 C 307.195 -2.01867 -0.453586 0
M  V30 3359 C 307.61 -1.07191 -1.5542 0
M  V30 3360 O 306.967 -0.0762108 -1.82341 0
M  V30 3361 C 307.018 -3.47017 -1.013 0
M  V30 3362 O 306.739 -4.38078 0.0437005 0
M  V30 3363 C 308.24 -4.07956 -1.73456 0
M  V30 3364 H 305.46 -0.661211 -0.114199 0
M  V30 3365 H 308.004 -2.02295 0.299483 0
M  V30 3366 H 306.159 -3.47298 -1.71647 0
M  V30 3367 H 306.573 -5.23178 -0.372212 0
M  V30 3368 H 308.047 -5.1138 -2.07833 0
M  V30 3369 H 308.524 -3.51222 -2.63704 0
M  V30 3370 H 309.13 -4.11437 -1.07702 0
M  V30 3371 N 307.445 0.0818655 -1.57387 0
M  V30 3372 C 308.355 1.11642 -2.06333 0
M  V30 3373 C 309.371 1.43033 -0.99083 0
M  V30 3374 O 310.547 1.53411 -1.30488 0
M  V30 3375 C 307.612 2.41342 -2.48907 0
M  V30 3376 C 306.673 2.17014 -3.7041 0
M  V30 3377 C 305.906 3.4053 -4.10944 0
M  V30 3378 O 306.129 4.4927 -3.51444 0
M  V30 3379 O 305.063 3.29336 -5.03807 0
M  V30 3380 H 308.889 0.730657 -2.9478 0
M  V30 3381 H 306.474 0.295301 -1.46452 0
M  V30 3382 H 308.356 3.17691 -2.76858 0
M  V30 3383 H 307.031 2.79319 -1.63593 0
M  V30 3384 H 305.938 1.38403 -3.47556 0
M  V30 3385 H 307.271 1.83923 -4.56545 0
M  V30 3386 N 308.923 1.53595 0.353017 0
M  V30 3387 C 310.148 1.7462 1.11904 0
M  V30 3388 C 310.573 0.479721 1.8188 0
M  V30 3389 O 309.931 -0.567066 1.72204 0
M  V30 3390 C 309.979 2.92029 2.11545 0
M  V30 3391 O 309.083 2.61516 3.18878 0
M  V30 3392 H 308.424 0.579531 0.324099 0
M  V30 3393 H 310.954 2.00525 0.406301 0
M  V30 3394 H 310.964 3.18551 2.5493 0
M  V30 3395 H 309.639 3.83888 1.60008 0
M  V30 3396 H 308.216 2.45852 2.80377 0
M  V30 3397 N 310.401 -0.613514 1.45168 0
M  V30 3398 C 311.649 -1.36997 1.48581 0
M  V30 3399 C 311.97 -1.94589 0.126545 0
M  V30 3400 O 311.24 -1.76816 -0.843372 0
M  V30 3401 H 309.82 -0.508558 0.547154 0
M  V30 3402 H 312.482 -0.720853 1.81079 0
M  V30 3403 H 311.578 -2.1924 2.22127 0
M  V30 3404 N 311.879 -1.3236 -0.855495 0
M  V30 3405 C 313.127 -1.22629 -1.60644 0
M  V30 3406 C 313.448 0.212136 -1.93843 0
M  V30 3407 O 312.718 1.13666 -1.59552 0
M  V30 3408 H 311.298 -0.450882 -0.595579 0
M  V30 3409 H 313.96 -1.65871 -1.02337 0
M  V30 3410 H 313.056 -1.80832 -2.54374 0
M  V30 3411 N 313.357 1.07166 -1.15556 0
M  V30 3412 C 314.773 1.31899 -0.898603 0
M  V30 3413 C 314.973 1.96333 0.453383 0
M  V30 3414 O 314.029 2.22438 1.19489 0
M  V30 3415 C 315.342 2.20826 -2.04099 0
M  V30 3416 C 316.89 2.34269 -2.07574 0
M  V30 3417 C 317.365 3.26546 -3.21141 0
M  V30 3418 N 318.856 3.34127 -3.20801 0
M  V30 3419 C 319.591 4.05595 -4.05315 0
M  V30 3420 N 319.087 4.79661 -4.99897 0
M  V30 3421 N 320.88 4.01555 -3.93332 0
M  V30 3422 H 313.031 0.637302 -2.02613 0
M  V30 3423 H 315.294 0.343468 -0.883591 0
M  V30 3424 H 315 1.80744 -3.01703 0
M  V30 3425 H 314.874 3.21364 -1.97496 0
M  V30 3426 H 317.261 2.73603 -1.10568 0
M  V30 3427 H 317.342 1.33429 -2.18244 0
M  V30 3428 H 316.986 2.87931 -4.184 0
M  V30 3429 H 316.916 4.27345 -3.07708 0
M  V30 3430 H 319.407 2.81336 -2.52306 0
M  V30 3431 H 319.72 5.31694 -5.60822 0
M  V30 3432 H 318.065 4.78671 -5.03884 0
M  V30 3433 H 321.256 3.42806 -3.18751 0
M  V30 3434 H 321.429 4.56987 -4.5942 0
M  V30 3435 N 314.835 0.952656 1.25548 0
M  V30 3436 C 316.084 0.602053 1.92505 0
M  V30 3437 C 316.397 -0.864663 1.75451 0
M  V30 3438 O 317.603 -1.32514 2.36965 0
M  V30 3439 C 316.059 1.02607 3.44963 0
M  V30 3440 C 315.667 2.51519 3.70732 0
M  V30 3441 C 317.411 0.747905 4.1786 0
M  V30 3442 C 315.318 2.87732 5.16686 0
M  V30 3443 H 314.248 0.22146 0.720744 0
M  V30 3444 H 316.899 1.15684 1.42441 0
M  V30 3445 H 315.281 0.399712 3.93978 0
M  V30 3446 H 316.455 3.19157 3.32378 0
M  V30 3447 H 314.77 2.76786 3.11092 0
M  V30 3448 H 317.367 0.994647 5.25367 0
M  V30 3449 H 317.71 -0.315629 4.15102 0
M  V30 3450 H 318.243 1.33452 3.74747 0
M  V30 3451 H 314.982 3.93095 5.24554 0
M  V30 3452 H 314.502 2.24765 5.56094 0
M  V30 3453 H 316.181 2.76817 5.84792 0
M  V30 3454 N 316.313 -1.40141 0.720998 0
M  V30 3455 C 317.245 -2.29177 0.0324669 0
M  V30 3456 C 318.258 -1.46105 -0.718126 0
M  V30 3457 O 319.447 -1.69335 -0.564608 0
M  V30 3458 C 316.547 -3.24473 -0.978292 0
M  V30 3459 C 315.72 -4.36423 -0.292115 0
M  V30 3460 C 314.779 -5.12122 -1.20901 0
M  V30 3461 O 313.805 -5.64981 -0.691766 0
M  V30 3462 N 315.007 -5.21992 -2.53978 0
M  V30 3463 H 317.772 -2.88909 0.796984 0
M  V30 3464 H 315.333 -1.51569 0.569068 0
M  V30 3465 H 317.325 -3.71987 -1.59398 0
M  V30 3466 H 315.895 -2.65871 -1.64413 0
M  V30 3467 H 315.115 -3.90967 0.503847 0
M  V30 3468 H 316.403 -5.08467 0.183971 0
M  V30 3469 H 315.801 -4.8054 -2.98493 0
M  V30 3470 H 314.358 -5.72995 -3.10677 0
M  V30 3471 N 317.792 -0.46758 -1.50504 0
M  V30 3472 C 318.742 0.34698 -2.25344 0
M  V30 3473 C 319.726 0.964469 -1.2879 0
M  V30 3474 O 320.918 0.8776 -1.53711 0
M  V30 3475 C 318.047 1.43042 -3.1208 0
M  V30 3476 C 317.133 0.82084 -4.16081 0
M  V30 3477 N 317.524 -0.0567602 -5.05768 0
M  V30 3478 C 315.822 1.08517 -4.32597 0
M  V30 3479 C 316.523 -0.402343 -5.80307 0
M  V30 3480 N 315.499 0.221607 -5.43148 0
M  V30 3481 H 319.301 -0.329129 -2.92051 0
M  V30 3482 H 316.815 -0.281508 -1.59942 0
M  V30 3483 H 318.812 2.02712 -3.64299 0
M  V30 3484 H 317.472 2.10856 -2.46921 0
M  V30 3485 H 318.483 -0.425349 -5.1615 0
M  V30 3486 H 315.16 1.75855 -3.78657 0
M  V30 3487 H 316.55 -1.11834 -6.62528 0
M  V30 3488 N 319.27 1.56325 -0.20005 0
M  V30 3489 C 320.681 1.8408 0.31167 0
M  V30 3490 C 321.032 1.12087 1.61031 0
M  V30 3491 O 320.157 0.38332 2.12978 0
M  V30 3492 C 320.752 3.33932 0.57226 0
M  V30 3493 C 319.311 3.6208 1.02834 0
M  V30 3494 C 318.458 2.77186 0.079634 0
M  V30 3495 H 321.409 1.52939 -0.423729 0
M  V30 3496 H 321.43 3.52971 1.42096 0
M  V30 3497 H 320.942 3.86303 -0.37308 0
M  V30 3498 H 319.043 3.15147 1.98778 0
M  V30 3499 H 319.156 4.7023 0.917624 0
M  V30 3500 H 317.52 2.47951 0.582448 0
M  V30 3501 H 318.303 3.32347 -0.860238 0
M  V30 3502 N 320.748 -0.0735177 1.57428 0
M  V30 3503 C 321.995 -0.772999 1.87166 0
M  V30 3504 C 322.323 -1.77665 0.791551 0
M  V30 3505 O 321.578 -1.94541 -0.212636 0
M  V30 3506 C 321.877 -1.51799 3.23561 0
M  V30 3507 C 321.543 -0.654484 4.46125 0
M  V30 3508 C 320.205 -0.416511 4.79394 0
M  V30 3509 C 322.557 -0.0555862 5.2117 0
M  V30 3510 C 319.885 0.429869 5.85123 0
M  V30 3511 C 322.237 0.778239 6.27795 0
M  V30 3512 C 320.901 1.0261 6.59566 0
M  V30 3513 H 320.171 -0.282861 0.684888 0
M  V30 3514 H 322.818 -0.0338272 1.9147 0
M  V30 3515 H 321.123 -2.32932 3.1504 0
M  V30 3516 H 322.82 -2.06397 3.43804 0
M  V30 3517 H 319.41 -0.850091 4.20085 0
M  V30 3518 H 323.594 -0.226558 4.95783 0
M  V30 3519 H 318.85 0.630665 6.08139 0
M  V30 3520 H 323.024 1.24906 6.85107 0
M  V30 3521 H 320.651 1.68371 7.4132 0
M  V30 3522 N 322.226 -1.5378 -0.344866 0
M  V30 3523 C 323.454 -1.74899 -1.10534 0
M  V30 3524 C 323.869 -0.487534 -1.82397 0
M  V30 3525 O 323.226 0.540741 -1.74305 0
M  V30 3526 C 323.277 -2.92822 -2.11984 0
M  V30 3527 O 322.998 -4.14089 -1.43044 0
M  V30 3528 C 324.499 -3.25982 -3.00417 0
M  V30 3529 H 321.719 -0.584426 -0.329678 0
M  V30 3530 H 324.263 -2.006 -0.397474 0
M  V30 3531 H 322.418 -2.69457 -2.78338 0
M  V30 3532 H 322.832 -4.80272 -2.10805 0
M  V30 3533 H 324.306 -4.11848 -3.67539 0
M  V30 3534 H 324.783 -2.42228 -3.66363 0
M  V30 3535 H 325.389 -3.51349 -2.39654 0
M  V30 3536 N 323.704 0.605807 -1.45491 0
M  V30 3537 C 324.95 1.36679 -1.49823 0
M  V30 3538 C 325.283 1.93693 -0.140175 0
M  V30 3539 O 324.558 1.75158 0.845581 0
M  V30 3540 C 324.841 2.51337 -2.57879 0
M  V30 3541 C 324.694 1.99508 -4.03134 0
M  V30 3542 C 326.013 3.53463 -2.62205 0
M  V30 3543 H 323.132 0.495617 -0.545466 0
M  V30 3544 H 325.774 0.682732 -1.7731 0
M  V30 3545 H 323.924 3.09691 -2.34571 0
M  V30 3546 H 325.596 1.45789 -4.37656 0
M  V30 3547 H 323.839 1.30496 -4.13707 0
M  V30 3548 H 324.51 2.82169 -4.74431 0
M  V30 3549 H 326.986 3.04953 -2.83095 0
M  V30 3550 H 325.862 4.31178 -3.39672 0
M  V30 3551 H 326.123 4.09197 -1.67363 0
M  V30 3552 N 325.182 1.32811 0.848464 0
M  V30 3553 C 326.092 1.24278 1.98978 0
M  V30 3554 C 327.108 0.155176 1.73307 0
M  V30 3555 O 328.284 0.376999 1.9784 0
M  V30 3556 C 325.349 0.972444 3.32783 0
M  V30 3557 C 324.41 2.14911 3.71634 0
M  V30 3558 C 323.643 1.89157 4.99054 0
M  V30 3559 O 323.866 0.837165 5.64223 0
M  V30 3560 O 322.8 2.75433 5.35183 0
M  V30 3561 H 326.626 2.20238 2.09115 0
M  V30 3562 H 324.211 1.12762 0.980052 0
M  V30 3563 H 326.093 0.838432 4.12975 0
M  V30 3564 H 324.768 0.043051 3.23671 0
M  V30 3565 H 323.675 2.33862 2.91992 0
M  V30 3566 H 325.008 3.06151 3.85399 0
M  V30 3567 N 326.66 -1.06551 1.16123 0
M  V30 3568 C 327.57 -2.17484 0.879662 0
M  V30 3569 C 328.586 -1.73377 -0.147104 0
M  V30 3570 O 329.762 -2.01379 0.0289128 0
M  V30 3571 C 326.827 -3.44591 0.381829 0
M  V30 3572 C 325.888 -4.0322 1.4735 0
M  V30 3573 C 325.121 -5.24261 0.999324 0
M  V30 3574 O 325.344 -5.70198 -0.151957 0
M  V30 3575 O 324.278 -5.74775 1.78653 0
M  V30 3576 H 328.104 -2.44075 1.80724 0
M  V30 3577 H 325.689 -1.16042 0.940992 0
M  V30 3578 H 327.571 -4.21254 0.111053 0
M  V30 3579 H 326.246 -3.19532 -0.51777 0
M  V30 3580 H 325.153 -3.2806 1.79798 0
M  V30 3581 H 326.486 -4.32568 2.34831 0
M  V30 3582 N 328.138 -0.959301 -1.25041 0
M  V30 3583 C 329.385 -0.616611 -1.92884 0
M  V30 3584 C 329.713 0.847036 -1.75087 0
M  V30 3585 O 328.968 1.62374 -1.09239 0
M  V30 3586 C 329.267 -0.927136 -3.45165 0
M  V30 3587 C 328.933 -2.37757 -3.83122 0
M  V30 3588 C 327.595 -2.77402 -3.93194 0
M  V30 3589 C 329.947 -3.31929 -4.01836 0
M  V30 3590 C 327.275 -4.10277 -4.19392 0
M  V30 3591 C 329.627 -4.64423 -4.29528 0
M  V30 3592 C 328.291 -5.03857 -4.37818 0
M  V30 3593 H 327.561 -0.225634 -0.705812 0
M  V30 3594 H 330.208 -1.20921 -1.48493 0
M  V30 3595 H 328.513 -0.252195 -3.90987 0
M  V30 3596 H 330.21 -0.6405 -3.95852 0
M  V30 3597 H 326.8 -2.06013 -3.75841 0
M  V30 3598 H 330.984 -3.02488 -3.93465 0
M  V30 3599 H 326.24 -4.40467 -4.24027 0
M  V30 3600 H 330.414 -5.37369 -4.42953 0
M  V30 3601 H 328.041 -6.06843 -4.57871 0
M  V30 3602 N 329.616 1.39756 -0.72842 0
M  V30 3603 C 330.862 2.00942 -0.273892 0
M  V30 3604 C 331.195 1.57656 1.13394 0
M  V30 3605 O 330.47 0.802434 1.77176 0
M  V30 3606 C 330.753 3.58211 -0.368346 0
M  V30 3607 C 330.606 4.11534 -1.81548 0
M  V30 3608 C 331.925 4.39372 0.253054 0
M  V30 3609 H 329.044 0.730047 -0.100996 0
M  V30 3610 H 331.686 1.66056 -0.923337 0
M  V30 3611 H 329.836 3.88061 0.184588 0
M  V30 3612 H 331.508 3.92431 -2.42478 0
M  V30 3613 H 329.751 3.65341 -2.33898 0
M  V30 3614 H 330.422 5.20682 -1.83288 0
M  V30 3615 H 332.898 4.15527 -0.218224 0
M  V30 3616 H 331.774 5.48677 0.156585 0
M  V30 3617 H 332.035 4.21358 1.33826 0
M  V30 3618 N 331.094 0.475555 1.50254 0
M  V30 3619 C 332.024 -0.30611 2.31485 0
M  V30 3620 C 333.005 -0.986228 1.38591 0
M  V30 3621 O 334.19 -0.982541 1.67511 0
M  V30 3622 C 331.32 -1.38588 3.1845 0
M  V30 3623 C 330.274 -0.827115 4.19932 0
M  V30 3624 C 329.6 -2.00551 4.95665 0
M  V30 3625 C 330.9 0.16463 5.2204 0
M  V30 3626 H 332.594 0.371866 2.97082 0
M  V30 3627 H 330.14 0.180282 1.42867 0
M  V30 3628 H 332.093 -1.94023 3.74076 0
M  V30 3629 H 330.817 -2.09269 2.50747 0
M  V30 3630 H 329.476 -0.294702 3.65414 0
M  V30 3631 H 329.124 -2.6994 4.2443 0
M  V30 3632 H 328.824 -1.63784 5.64313 0
M  V30 3633 H 330.348 -2.56468 5.54127 0
M  V30 3634 H 331.762 -0.300699 5.72511 0
M  V30 3635 H 330.159 0.446813 5.98434 0
M  V30 3636 H 331.229 1.08905 4.72512 0
M  V30 3637 N 332.573 -1.56217 0.208337 0
M  V30 3638 C 333.984 -1.84243 -0.301904 0
M  V30 3639 C 334.335 -1.12939 -1.60434 0
M  V30 3640 O 333.46 -0.39461 -2.12772 0
M  V30 3641 C 334.055 -3.34231 -0.554543 0
M  V30 3642 C 332.614 -3.62621 -1.00912 0
M  V30 3643 C 331.761 -2.77224 -0.064933 0
M  V30 3644 H 334.712 -1.52712 0.431833 0
M  V30 3645 H 334.733 -3.5372 -1.40223 0
M  V30 3646 H 334.245 -3.86099 0.393561 0
M  V30 3647 H 332.346 -3.16197 -1.97104 0
M  V30 3648 H 332.459 -4.7071 -0.892674 0
M  V30 3649 H 330.823 -2.48256 -0.56929 0
M  V30 3650 H 331.606 -3.31887 0.877851 0
M  V30 3651 N 334.051 0.0651679 -1.57465 0
M  V30 3652 C 334.998 1.07675 -2.04144 0
M  V30 3653 C 335.968 1.38071 -0.923335 0
M  V30 3654 O 337.153 1.49026 -1.19146 0
M  V30 3655 C 334.293 2.38337 -2.49579 0
M  V30 3656 C 333.406 2.14413 -3.75035 0
M  V30 3657 C 332.541 3.38686 -4.09225 0
M  V30 3658 C 331.58 3.10156 -5.27702 0
M  V30 3659 N 330.717 4.26778 -5.57499 0
M  V30 3660 H 335.557 0.671716 -2.90331 0
M  V30 3661 H 333.094 0.3201 -1.43575 0
M  V30 3662 H 335.052 3.14632 -2.73975 0
M  V30 3663 H 333.682 2.7663 -1.6636 0
M  V30 3664 H 332.734 1.2878 -3.57939 0
M  V30 3665 H 334.046 1.89344 -4.61466 0
M  V30 3666 H 333.2 4.23373 -4.34558 0
M  V30 3667 H 331.939 3.66837 -3.21374 0
M  V30 3668 H 330.944 2.23866 -5.02159 0
M  V30 3669 H 332.169 2.8332 -6.17176 0
M  V30 3670 H 330.115 4.54948 -4.72608 0
M  V30 3671 H 330.032 4.05005 -6.38362 0
M  V30 3672 H 331.3 5.12443 -5.87386 0
M  V30 3673 N 335.529 1.53961 0.336706 0
M  V30 3674 C 336.776 1.71536 1.07618 0
M  V30 3675 C 337.104 0.482125 1.8843 0
M  V30 3676 O 336.359 -0.536142 1.88213 0
M  V30 3677 C 336.658 2.93493 2.03953 0
M  V30 3678 C 336.324 4.28811 1.39399 0
M  V30 3679 C 334.986 4.65602 1.21523 0
M  V30 3680 C 337.338 5.12844 0.929541 0
M  V30 3681 C 334.666 5.84037 0.558312 0
M  V30 3682 C 337.018 6.31951 0.286505 0
M  V30 3683 C 335.682 6.67432 0.0954869 0
M  V30 3684 H 334.952 0.627696 0.393801 0
M  V30 3685 H 337.599 1.88186 0.354715 0
M  V30 3686 H 335.904 2.71475 2.82504 0
M  V30 3687 H 337.601 3.04285 2.61174 0
M  V30 3688 H 334.191 3.99858 1.54311 0
M  V30 3689 H 338.375 4.84947 1.05548 0
M  V30 3690 H 333.631 6.10097 0.398995 0
M  V30 3691 H 337.805 6.96352 -0.0814376 0
M  V30 3692 H 335.432 7.59063 -0.415579 0
M  V30 3693 N 337.007 -0.598083 1.45811 0
M  V30 3694 C 337.917 -1.73632 1.57763 0
M  V30 3695 C 338.933 -1.67763 0.461676 0
M  V30 3696 O 340.109 -1.87949 0.723685 0
M  V30 3697 C 337.174 -3.10114 1.55018 0
M  V30 3698 C 336.235 -3.27364 2.77726 0
M  V30 3699 C 335.468 -4.57334 2.75102 0
M  V30 3700 O 335.691 -5.40258 1.8297 0
M  V30 3701 O 334.625 -4.77502 3.66437 0
M  V30 3702 H 338.451 -1.66498 2.53992 0
M  V30 3703 H 336.036 -0.763308 1.28429 0
M  V30 3704 H 337.918 -3.9141 1.56129 0
M  V30 3705 H 336.593 -3.17718 0.619431 0
M  V30 3706 H 335.5 -2.45619 2.82174 0
M  V30 3707 H 336.833 -3.24641 3.69958 0
M  V30 3708 N 338.485 -1.33259 -0.841409 0
M  V30 3709 C 339.731 -1.24757 -1.59886 0
M  V30 3710 C 340.064 0.186913 -1.93298 0
M  V30 3711 O 339.339 1.12757 -1.5848 0
M  V30 3712 C 339.622 -2.12036 -2.91055 0
M  V30 3713 C 339.475 -3.63929 -2.6434 0
M  V30 3714 C 340.794 -1.9916 -3.92458 0
M  V30 3715 H 337.913 -0.454542 -0.580138 0
M  V30 3716 H 340.555 -1.63335 -0.970647 0
M  V30 3717 H 338.705 -1.79265 -3.44669 0
M  V30 3718 H 340.377 -4.06978 -2.17178 0
M  V30 3719 H 338.62 -3.85935 -1.98082 0
M  V30 3720 H 339.291 -4.20341 -3.57796 0
M  V30 3721 H 341.767 -2.27895 -3.48143 0
M  V30 3722 H 340.643 -2.62484 -4.82072 0
M  V30 3723 H 340.904 -0.963082 -4.31482 0
M  V30 3724 N 339.963 1.05934 -1.16686 0
M  V30 3725 C 340.91 2.13499 -0.876748 0
M  V30 3726 C 341.88 1.65162 0.176299 0
M  V30 3727 O 343.065 1.90757 0.0407143 0
M  V30 3728 C 340.205 3.42912 -0.387967 0
M  V30 3729 C 339.318 4.04964 -1.50426 0
M  V30 3730 C 338.453 5.22266 -0.970125 0
M  V30 3731 C 337.492 5.76309 -2.06238 0
M  V30 3732 N 336.629 6.84922 -1.54356 0
M  V30 3733 H 341.469 2.37654 -1.7979 0
M  V30 3734 H 339.006 1.16598 -0.896843 0
M  V30 3735 H 340.964 4.17111 -0.086186 0
M  V30 3736 H 339.594 3.18963 0.496235 0
M  V30 3737 H 338.646 3.28277 -1.92193 0
M  V30 3738 H 339.958 4.41122 -2.32836 0
M  V30 3739 H 339.112 6.03506 -0.621743 0
M  V30 3740 H 337.851 4.87564 -0.115377 0
M  V30 3741 H 336.856 4.93704 -2.41942 0
M  V30 3742 H 338.081 6.13062 -2.92115 0
M  V30 3743 H 336.027 6.52131 -0.711406 0
M  V30 3744 H 335.944 7.20043 -2.30379 0
M  V30 3745 H 337.212 7.69832 -1.22387 0
M  V30 3746 N 341.441 0.965919 1.2453 0
M  V30 3747 C 342.687 0.62776 1.92839 0
M  V30 3748 C 343.02 -0.834694 1.75347 0
M  V30 3749 O 342.295 -1.60031 1.10546 0
M  V30 3750 C 342.578 1.00109 3.45905 0
M  V30 3751 C 342.431 2.52011 3.72573 0
M  V30 3752 C 343.75 0.53435 4.36844 0
M  V30 3753 H 340.869 0.229537 0.700344 0
M  V30 3754 H 343.511 1.2046 1.46933 0
M  V30 3755 H 341.661 0.510238 3.85135 0
M  V30 3756 H 343.333 3.08559 3.42912 0
M  V30 3757 H 341.576 2.95287 3.17786 0
M  V30 3758 H 342.247 2.73183 4.79661 0
M  V30 3759 H 344.723 0.955565 4.04979 0
M  V30 3760 H 343.599 0.824152 5.42678 0
M  V30 3761 H 343.86 -0.565589 4.38467 0
M  V30 3762 N 342.919 -1.39368 0.735821 0
M  V30 3763 C 343.851 -2.2913 0.0567723 0
M  V30 3764 C 344.864 -1.46859 -0.702589 0
M  V30 3765 O 346.053 -1.69925 -0.546616 0
M  V30 3766 C 343.153 -3.25492 -0.943823 0
M  V30 3767 C 342.326 -4.36709 -0.24581 0
M  V30 3768 C 341.385 -5.13376 -1.15463 0
M  V30 3769 O 340.411 -5.65683 -0.631803 0
M  V30 3770 N 341.613 -5.24656 -2.48427 0
M  V30 3771 H 344.378 -2.88047 0.827582 0
M  V30 3772 H 341.939 -1.50957 0.585112 0
M  V30 3773 H 343.931 -3.73657 -1.55443 0
M  V30 3774 H 342.501 -2.676 -1.61583 0
M  V30 3775 H 341.721 -3.9041 0.545286 0
M  V30 3776 H 343.009 -5.08244 0.237891 0
M  V30 3777 H 342.407 -4.83679 -2.93379 0
M  V30 3778 H 340.964 -5.76258 -3.04582 0
M  V30 3779 N 344.397 -0.483516 -1.5 0
M  V30 3780 C 345.643 0.0672592 -2.02688 0
M  V30 3781 C 345.976 1.38247 -1.36387 0
M  V30 3782 O 345.251 1.88131 -0.493675 0
M  V30 3783 C 345.534 0.238109 -3.59312 0
M  V30 3784 C 345.387 -1.099 -4.36168 0
M  V30 3785 C 346.706 0.986916 -4.28892 0
M  V30 3786 H 343.825 0.0229696 -0.736642 0
M  V30 3787 H 346.467 -0.631527 -1.79197 0
M  V30 3788 H 344.617 0.8333 -3.79458 0
M  V30 3789 H 346.289 -1.73172 -4.27562 0
M  V30 3790 H 344.532 -1.69261 -3.99416 0
M  V30 3791 H 345.203 -0.932954 -5.44059 0
M  V30 3792 H 347.679 0.482302 -4.13295 0
M  V30 3793 H 346.555 1.07527 -5.38265 0
M  V30 3794 H 346.816 2.0265 -3.92919 0
M  V30 3795 N 345.875 1.56104 -0.216619 0
M  V30 3796 C 347.286 1.844 0.292128 0
M  V30 3797 C 347.637 1.13788 1.59833 0
M  V30 3798 O 346.762 0.405888 2.12559 0
M  V30 3799 C 347.357 3.3452 0.53681 0
M  V30 3800 C 345.916 3.63151 0.989876 0
M  V30 3801 C 345.063 2.77255 0.0502302 0
M  V30 3802 H 348.014 1.52481 -0.439926 0
M  V30 3803 H 348.035 3.54459 1.38345 0
M  V30 3804 H 347.547 3.85885 -0.414031 0
M  V30 3805 H 345.648 3.17238 1.95425 0
M  V30 3806 H 345.761 4.71177 0.867698 0
M  V30 3807 H 344.125 2.48555 0.556117 0
M  V30 3808 H 344.908 3.31416 -0.89544 0
M  V30 3809 N 347.353 -0.0568162 1.57498 0
M  V30 3810 C 348.3 -1.06591 2.04712 0
M  V30 3811 C 349.27 -1.3758 0.930644 0
M  V30 3812 O 350.455 -1.48392 1.19935 0
M  V30 3813 C 347.595 -2.3701 2.50839 0
M  V30 3814 C 346.708 -2.12421 3.76167 0
M  V30 3815 C 345.843 -3.36511 4.11015 0
M  V30 3816 C 344.882 -3.07353 5.2934 0
M  V30 3817 N 344.019 -4.23816 5.59754 0
M  V30 3818 H 348.859 -0.65631 2.90683 0
M  V30 3819 H 346.396 -0.312481 1.43743 0
M  V30 3820 H 348.354 -3.13175 2.7564 0
M  V30 3821 H 346.984 -2.75744 1.67825 0
M  V30 3822 H 346.036 -1.2688 3.58616 0
M  V30 3823 H 347.348 -1.86894 4.62463 0
M  V30 3824 H 346.502 -4.21062 4.36797 0
M  V30 3825 H 345.241 -3.65128 3.23315 0
M  V30 3826 H 344.246 -2.212 5.03339 0
M  V30 3827 H 345.471 -2.80043 6.1867 0
M  V30 3828 H 343.417 -4.52436 4.75014 0
M  V30 3829 H 343.334 -4.01614 6.40501 0
M  V30 3830 H 344.602 -5.0932 5.90096 0
M  V30 3831 N 348.832 -1.54138 -0.328536 0
M  V30 3832 C 350.081 -1.71318 -1.06456 0
M  V30 3833 C 350.394 -0.491109 -1.89334 0
M  V30 3834 O 351.6 -0.54416 -2.65991 0
M  V30 3835 C 350.056 -3.03 -1.94214 0
M  V30 3836 C 349.664 -4.32595 -1.16471 0
M  V30 3837 C 351.408 -3.29544 -2.67583 0
M  V30 3838 C 349.315 -5.55341 -2.03347 0
M  V30 3839 H 348.245 -0.638429 -0.401155 0
M  V30 3840 H 350.896 -1.80633 -0.323106 0
M  V30 3841 H 349.278 -2.87579 -2.72239 0
M  V30 3842 H 350.452 -4.58766 -0.432525 0
M  V30 3843 H 348.767 -4.12777 -0.548063 0
M  V30 3844 H 351.364 -4.18444 -3.3288 0
M  V30 3845 H 351.707 -2.47206 -3.34955 0
M  V30 3846 H 352.24 -3.45809 -1.96623 0
M  V30 3847 H 348.979 -6.40268 -1.40491 0
M  V30 3848 H 348.499 -5.33397 -2.74313 0
M  V30 3849 H 350.178 -5.91557 -2.62049 0
M  V30 3850 N 350.31 0.590341 -1.46126 0
M  V30 3851 C 351.559 1.34499 -1.50309 0
M  V30 3852 C 351.872 1.94977 -0.156021 0
M  V30 3853 O 353.078 2.71395 -0.0756037 0
M  V30 3854 C 351.534 2.43723 -2.64815 0
M  V30 3855 C 351.142 1.89582 -4.0591 0
M  V30 3856 C 352.886 3.20579 -2.78262 0
M  V30 3857 C 350.793 2.9639 -5.11769 0
M  V30 3858 H 349.723 0.505593 -0.559368 0
M  V30 3859 H 352.374 0.630848 -1.72315 0
M  V30 3860 H 350.756 3.17902 -2.36124 0
M  V30 3861 H 351.93 1.21997 -4.44357 0
M  V30 3862 H 350.245 1.25418 -3.97063 0
M  V30 3863 H 352.842 4.00276 -3.54519 0
M  V30 3864 H 353.185 3.72684 -1.85505 0
M  V30 3865 H 353.718 2.53505 -3.06562 0
M  V30 3866 H 350.457 2.49181 -6.06291 0
M  V30 3867 H 349.977 3.62487 -4.77873 0
M  V30 3868 H 351.656 3.60474 -5.37278 0
M  V30 3869 N 351.788 1.33704 0.83433 0
M  V30 3870 C 353.013 1.28615 1.62705 0
M  V30 3871 C 353.438 -0.139242 1.87584 0
M  V30 3872 O 352.796 -1.09734 1.4432 0
M  V30 3873 C 352.844 2.07139 2.95171 0
M  V30 3874 O 351.948 1.4331 3.86699 0
M  V30 3875 H 351.289 0.44226 0.49528 0
M  V30 3876 H 353.819 1.76335 1.03766 0
M  V30 3877 H 353.829 2.18073 3.44831 0
M  V30 3878 H 352.504 3.10779 2.76386 0
M  V30 3879 H 351.081 1.4105 3.45195 0
M  V30 3880 N 353.266 -1.05314 1.17247 0
M  V30 3881 C 354.515 -1.77685 0.954521 0
M  V30 3882 C 354.828 -1.88616 -0.518025 0
M  V30 3883 O 356.034 -2.57714 -0.854144 0
M  V30 3884 C 354.49 -3.19402 1.65863 0
M  V30 3885 C 354.098 -3.16605 3.16963 0
M  V30 3886 C 355.842 -3.96237 1.52303 0
M  V30 3887 C 353.749 -4.53103 3.80068 0
M  V30 3888 H 352.679 -0.666 0.353496 0
M  V30 3889 H 355.33 -1.1805 1.40486 0
M  V30 3890 H 353.712 -3.79355 1.13602 0
M  V30 3891 H 354.886 -2.66176 3.76148 0
M  V30 3892 H 353.201 -2.53268 3.30521 0
M  V30 3893 H 355.798 -4.97157 1.96822 0
M  V30 3894 H 356.141 -4.136 0.473401 0
M  V30 3895 H 356.674 -3.42829 2.01775 0
M  V30 3896 H 353.413 -4.40946 4.85023 0
M  V30 3897 H 352.933 -5.03686 3.2567 0
M  V30 3898 H 354.612 -5.22045 3.82202 0
M  V30 3899 N 354.744 -0.972509 -1.24016 0
M  V30 3900 C 355.677 -0.45117 -2.23696 0
M  V30 3901 C 356.655 0.477378 -1.55434 0
M  V30 3902 O 357.839 0.407647 -1.84039 0
M  V30 3903 C 354.966 0.34818 -3.36906 0
M  V30 3904 C 354.012 -0.523355 -4.23277 0
M  V30 3905 S 354.845 -1.96647 -4.98087 0
M  V30 3906 C 356.001 -1.17604 -6.14752 0
M  V30 3907 H 356.234 -1.29588 -2.67571 0
M  V30 3908 H 353.767 -0.777903 -1.33372 0
M  V30 3909 H 355.725 0.803387 -4.02562 0
M  V30 3910 H 354.386 1.16792 -2.91579 0
M  V30 3911 H 353.579 0.0906181 -5.03919 0
M  V30 3912 H 353.181 -0.914485 -3.62647 0
M  V30 3913 H 355.473 -0.433434 -6.76112 0
M  V30 3914 H 356.416 -1.95701 -6.8052 0
M  V30 3915 H 356.824 -0.698295 -5.60164 0
M  V30 3916 N 356.222 1.38976 -0.743202 0
M  V30 3917 C 357.499 1.94351 -0.220705 0
M  V30 3918 C 357.879 1.67935 1.2791 0
M  V30 3919 O 357.227 1.01211 2.04862 0
M  V30 3920 C 357.437 3.44426 -0.563171 0
M  V30 3921 C 358.785 4.2144 -0.517046 0
M  V30 3922 O 359.809 3.52661 -0.500846 0
M  V30 3923 O 358.668 5.44032 -0.518806 0
M  V30 3924 H 355.762 0.825879 -0.043047 0
M  V30 3925 H 358.308 1.48429 -0.822618 0
M  V30 3926 H 357.08 3.5712 -1.59941 0
M  V30 3927 H 356.703 3.97543 0.0672883 0
M  V30 3928 N 357.7 0.491464 1.49741 0
M  V30 3929 C 358.61 -0.296835 2.32715 0
M  V30 3930 C 359.626 -0.976536 1.44013 0
M  V30 3931 O 360.802 -0.960023 1.77047 0
M  V30 3932 C 357.867 -1.35288 3.19215 0
M  V30 3933 C 356.928 -0.687632 4.23757 0
M  V30 3934 C 356.161 -1.69336 5.06123 0
M  V30 3935 O 356.384 -2.92219 4.89861 0
M  V30 3936 O 355.318 -1.25394 5.88693 0
M  V30 3937 H 359.144 0.382048 3.01287 0
M  V30 3938 H 356.729 0.252953 1.47243 0
M  V30 3939 H 358.611 -1.96411 3.72828 0
M  V30 3940 H 357.286 -2.01487 2.53347 0
M  V30 3941 H 356.193 -0.0369159 3.74082 0
M  V30 3942 H 357.526 -0.0682566 4.92153 0
M  V30 3943 N 359.178 -1.55987 0.224894 0
M  V30 3944 C 360.125 -2.20436 -0.68385 0
M  V30 3945 C 361.095 -1.16102 -1.18783 0
M  V30 3946 O 362.28 -1.4447 -1.24632 0
M  V30 3947 C 359.42 -2.89076 -1.88491 0
M  V30 3948 C 358.533 -4.08012 -1.41951 0
M  V30 3949 C 357.668 -4.64426 -2.5784 0
M  V30 3950 C 356.707 -5.75656 -2.08053 0
M  V30 3951 N 355.844 -6.26347 -3.17227 0
M  V30 3952 H 360.684 -2.97727 -0.12754 0
M  V30 3953 H 358.221 -1.47011 -0.0511978 0
M  V30 3954 H 360.179 -3.27059 -2.59014 0
M  V30 3955 H 358.809 -2.14298 -2.41405 0
M  V30 3956 H 357.861 -3.75492 -0.609095 0
M  V30 3957 H 359.173 -4.88375 -1.01447 0
M  V30 3958 H 358.327 -5.04869 -3.3644 0
M  V30 3959 H 357.066 -3.83233 -3.01635 0
M  V30 3960 H 356.071 -5.34712 -1.27916 0
M  V30 3961 H 357.296 -6.58686 -1.65255 0
M  V30 3962 H 355.242 -5.48067 -3.60497 0
M  V30 3963 H 355.159 -7.01843 -2.80986 0
M  V30 3964 H 356.427 -6.71447 -3.95953 0
M  V30 3965 N 360.656 0.0484629 -1.57525 0
M  V30 3966 C 361.902 0.744226 -1.88651 0
M  V30 3967 C 362.235 1.76029 -0.820212 0
M  V30 3968 O 361.51 1.93782 0.166985 0
M  V30 3969 C 361.793 1.43128 -3.30434 0
M  V30 3970 C 361.646 0.43005 -4.47739 0
M  V30 3971 C 362.965 2.37031 -3.70816 0
M  V30 3972 H 360.084 0.269089 -0.68612 0
M  V30 3973 H 362.726 0.00713532 -1.89999 0
M  V30 3974 H 360.876 2.05956 -3.29415 0
M  V30 3975 H 362.548 -0.194816 -4.60888 0
M  V30 3976 H 360.791 -0.252522 -4.33064 0
M  V30 3977 H 361.462 0.948874 -5.43783 0
M  V30 3978 H 363.938 1.84263 -3.73077 0
M  V30 3979 H 362.814 2.82094 -4.70865 0
M  V30 3980 H 363.075 3.22864 -3.02012 0
M  V30 3981 N 362.134 1.5431 0.320358 0
M  V30 3982 C 363.082 1.84647 1.4145 0
M  V30 3983 C 364.076 0.718624 1.53402 0
M  V30 3984 O 365.282 0.902335 1.5575 0
M  V30 3985 H 361.657 0.585349 0.472091 0
M  V30 3986 H 363.628 2.7614 1.13089 0
M  V30 3987 C 362.377 2.09341 2.77617 0
M  V30 3988 H 361.7 2.9559 2.69196 0
M  V30 3989 H 363.14 2.3452 3.53237 0
M  V30 3990 C 361.599 0.885939 3.25043 0
M  V30 3991 O 362.129 0.0967891 4.01583 0
M  V30 3992 N 360.335 0.696682 2.82125 0
M  V30 3993 H 359.882 1.34006 2.2 0
M  V30 3994 H 359.84 -0.109712 3.14209 0
M  V30 3995 N 363.613 -0.582584 1.46437 0
M  V30 3996 C 364.862 -1.337 1.5102 0
M  V30 3997 C 365.175 -1.94891 0.166359 0
M  V30 3998 O 366.381 -2.71351 0.0899954 0
M  V30 3999 C 364.837 -2.42315 2.66104 0
M  V30 4000 C 364.445 -1.87427 4.06909 0
M  V30 4001 C 366.189 -3.19099 2.79958 0
M  V30 4002 C 364.096 -2.93672 5.13333 0
M  V30 4003 H 363.026 -0.502619 0.562041 0
M  V30 4004 H 365.677 -0.621701 1.72647 0
M  V30 4005 H 364.059 -3.16645 2.37807 0
M  V30 4006 H 365.233 -1.19639 4.44998 0
M  V30 4007 H 363.548 -1.2331 3.97723 0
M  V30 4008 H 366.145 -3.9839 3.56636 0
M  V30 4009 H 366.488 -3.71695 1.87479 0
M  V30 4010 H 367.021 -2.51875 3.07902 0
M  V30 4011 H 363.76 -2.45962 6.07604 0
M  V30 4012 H 363.28 -3.59948 4.79789 0
M  V30 4013 H 364.959 -3.5762 5.39182 0
M  V30 4014 N 365.091 -1.34144 -0.827227 0
M  V30 4015 C 366.319 -1.29325 -1.61501 0
M  V30 4016 C 366.734 0.13354 -1.88327 0
M  V30 4017 O 366.091 1.0793 -1.47164 0
M  V30 4018 C 366.142 -2.07746 -2.95844 0
M  V30 4019 O 365.863 -3.4486 -2.70191 0
M  V30 4020 C 367.364 -2.10273 -3.90256 0
M  V30 4021 H 364.584 -0.445069 -0.50215 0
M  V30 4022 H 367.128 -1.76693 -1.02955 0
M  V30 4023 H 365.283 -1.6403 -3.5096 0
M  V30 4024 H 365.697 -3.85345 -3.55822 0
M  V30 4025 H 367.171 -2.69575 -4.81698 0
M  V30 4026 H 367.648 -1.096 -4.25305 0
M  V30 4027 H 368.254 -2.54059 -3.41078 0
M  V30 4028 N 366.569 1.04691 -1.17803 0
M  V30 4029 C 367.815 1.78045 -0.970969 0
M  V30 4030 C 368.148 1.87686 0.498751 0
M  V30 4031 O 367.423 1.38035 1.37027 0
M  V30 4032 C 367.706 3.2166 -1.61884 0
M  V30 4033 C 367.559 3.20001 -3.161 0
M  V30 4034 C 368.878 4.1962 -1.3269 0
M  V30 4035 H 365.997 0.64633 -0.354155 0
M  V30 4036 H 368.639 1.22333 -1.45378 0
M  V30 4037 H 366.789 3.69232 -1.20831 0
M  V30 4038 H 368.461 2.80467 -3.66246 0
M  V30 4039 H 366.704 2.58203 -3.48588 0
M  V30 4040 H 367.375 4.21386 -3.56564 0
M  V30 4041 H 369.851 3.80567 -1.68249 0
M  V30 4042 H 368.727 5.18339 -1.80599 0
M  V30 4043 H 368.988 4.414 -0.248622 0
M  V30 4044 N 368.047 0.979072 1.23499 0
M  V30 4045 C 369.287 0.655228 1.93613 0
M  V30 4046 C 369.651 -0.796336 1.74707 0
M  V30 4047 O 370.852 -1.23094 2.38959 0
M  V30 4048 C 369.123 1.03337 3.42135 0
M  V30 4049 S 370.682 0.825793 4.3096 0
M  V30 4050 H 367.5 0.240004 0.669267 0
M  V30 4051 H 370.102 1.25843 1.49612 0
M  V30 4052 H 368.806 2.08646 3.53405 0
M  V30 4053 H 368.337 0.421397 3.91137 0
M  V30 4054 H 370.352 -0.290991 4.95346 0
M  V30 4055 N 369.525 -1.3858 0.750561 0
M  V30 4056 C 370.773 -1.99789 0.30477 0
M  V30 4057 C 371.094 -1.59874 -1.11649 0
M  V30 4058 O 370.364 -0.85417 -1.76297 0
M  V30 4059 H 368.944 -0.738902 0.109694 0
M  V30 4060 H 371.606 -1.69391 0.963983 0
M  V30 4061 H 370.702 -3.09952 0.365499 0
M  V30 4062 N 371.003 -0.499398 -1.49478 0
M  V30 4063 C 371.913 0.284489 -2.32869 0
M  V30 4064 C 372.929 0.968885 -1.44529 0
M  V30 4065 O 374.105 0.95062 -1.77553 0
M  V30 4066 C 371.17 1.33594 -3.19928 0
M  V30 4067 C 370.231 0.665149 -4.24116 0
M  V30 4068 C 369.464 1.6665 -5.07014 0
M  V30 4069 O 369.687 2.89618 -4.91404 0
M  V30 4070 O 368.621 1.22271 -5.8935 0
M  V30 4071 H 372.447 -0.39802 -3.01081 0
M  V30 4072 H 370.032 -0.260758 -1.47107 0
M  V30 4073 H 371.914 1.94431 -3.73864 0
M  V30 4074 H 370.589 2.0014 -2.54412 0
M  V30 4075 H 369.496 0.0170769 -3.74096 0
M  V30 4076 H 370.829 0.0421555 -4.92182 0
M  V30 4077 N 372.481 1.55866 -0.233164 0
M  V30 4078 C 373.711 2.02704 0.399325 0
M  V30 4079 C 374.119 1.11204 1.53069 0
M  V30 4080 O 373.462 0.116182 1.83332 0
M  V30 4081 C 373.524 3.45844 0.981429 0
M  V30 4082 C 373.188 4.56997 -0.0159561 0
M  V30 4083 C 374.185 5.13384 -0.820552 0
M  V30 4084 C 371.87 5.0211 -0.138072 0
M  V30 4085 C 373.864 6.13365 -1.73386 0
M  V30 4086 C 371.551 6.01926 -1.0549 0
M  V30 4087 C 372.549 6.57431 -1.85132 0
M  V30 4088 O 372.237 7.55302 -2.75272 0
M  V30 4089 H 371.969 0.668459 0.100692 0
M  V30 4090 H 374.523 2.02387 -0.35052 0
M  V30 4091 H 372.753 3.43267 1.78058 0
M  V30 4092 H 374.442 3.76262 1.52255 0
M  V30 4093 H 375.208 4.79372 -0.736721 0
M  V30 4094 H 371.087 4.5858 0.471737 0
M  V30 4095 H 374.631 6.56614 -2.35592 0
M  V30 4096 H 370.528 6.35359 -1.1397 0
M  V30 4097 H 371.296 7.72867 -2.69477 0
M  V30 4098 N 373.959 -0.0401083 1.57549 0
M  V30 4099 C 375.187 -0.745196 1.93014 0
M  V30 4100 C 375.602 -1.6948 0.831984 0
M  V30 4101 O 374.959 -1.81482 -0.192463 0
M  V30 4102 C 375.01 -1.51176 3.28372 0
M  V30 4103 O 374.731 -0.600284 4.33968 0
M  V30 4104 C 376.232 -2.315 3.78051 0
M  V30 4105 H 373.452 -0.210088 0.637263 0
M  V30 4106 H 375.996 -0.000924689 2.045 0
M  V30 4107 H 374.151 -2.20801 3.18317 0
M  V30 4108 H 374.565 -1.13669 5.12035 0
M  V30 4109 H 376.039 -2.80697 4.75303 0
M  V30 4110 H 376.516 -3.12436 3.08675 0
M  V30 4111 H 377.122 -1.66971 3.91153 0
M  V30 4112 N 375.437 -1.54477 -0.31217 0
M  V30 4113 C 376.667 -1.76948 -1.06645 0
M  V30 4114 C 377.075 -0.523593 -1.81811 0
M  V30 4115 O 376.418 0.51578 -1.76311 0
M  V30 4116 C 376.48 -2.91668 -2.10166 0
M  V30 4117 C 376.144 -4.30165 -1.54296 0
M  V30 4118 C 377.141 -5.10603 -0.978793 0
M  V30 4119 C 374.826 -4.76738 -1.58196 0
M  V30 4120 C 376.82 -6.3573 -0.461048 0
M  V30 4121 C 374.507 -6.01831 -1.06034 0
M  V30 4122 C 375.505 -6.81161 -0.500844 0
M  V30 4123 O 375.193 -8.03899 0.0128958 0
M  V30 4124 H 374.925 -0.594088 -0.322546 0
M  V30 4125 H 377.479 -2.02213 -0.360441 0
M  V30 4126 H 375.709 -2.62001 -2.84416 0
M  V30 4127 H 377.398 -3.01817 -2.71406 0
M  V30 4128 H 378.164 -4.75771 -0.941651 0
M  V30 4129 H 374.043 -4.15027 -2.00683 0
M  V30 4130 H 377.587 -6.97596 -0.0236894 0
M  V30 4131 H 373.484 -6.36152 -1.09459 0
M  V30 4132 H 374.252 -8.18437 -0.101457 0
M  V30 4133 N 376.915 0.57481 -1.46744 0
M  V30 4134 C 378.163 1.33009 -1.52161 0
M  V30 4135 C 378.484 1.94185 -0.178092 0
M  V30 4136 O 377.754 1.7899 0.796196 0
M  V30 4137 H 376.334 0.493873 -0.560445 0
M  V30 4138 H 378.996 0.672589 -1.82927 0
M  V30 4139 H 378.092 2.13273 -2.27862 0
M  V30 4140 N 378.394 1.34581 0.820102 0
M  V30 4141 C 379.341 1.2639 1.93117 0
M  V30 4142 C 380.311 0.138554 1.65521 0
M  V30 4143 O 381.496 0.320004 1.88097 0
M  V30 4144 C 378.636 1.02812 3.29429 0
M  V30 4145 C 377.749 2.24146 3.693 0
M  V30 4146 C 376.884 1.93829 4.94574 0
M  V30 4147 C 375.923 3.1129 5.27034 0
M  V30 4148 N 375.06 2.80838 6.43486 0
M  V30 4149 H 379.9 2.21408 1.99455 0
M  V30 4150 H 377.437 1.10077 0.975784 0
M  V30 4151 H 379.395 0.871788 4.0799 0
M  V30 4152 H 378.025 0.114612 3.22596 0
M  V30 4153 H 377.077 2.50691 2.86109 0
M  V30 4154 H 378.389 3.11899 3.89257 0
M  V30 4155 H 377.543 1.74948 5.80929 0
M  V30 4156 H 376.282 1.03341 4.76626 0
M  V30 4157 H 375.287 3.30764 4.39175 0
M  V30 4158 H 376.512 4.02561 5.4692 0
M  V30 4159 H 374.458 1.92929 6.26988 0
M  V30 4160 H 374.375 3.62123 6.63629 0
M  V30 4161 H 375.643 2.65467 7.32903 0
M  V30 4162 N 379.872 -1.04064 1.18357 0
M  V30 4163 C 381.283 -1.58719 0.98312 0
M  V30 4164 C 381.634 -1.90556 -0.467193 0
M  V30 4165 O 380.759 -1.69561 -1.34454 0
M  V30 4166 C 381.354 -2.88379 1.77828 0
M  V30 4167 C 379.913 -3.3965 1.62218 0
M  V30 4168 C 379.06 -2.13235 1.77274 0
M  V30 4169 H 382.011 -0.867359 1.32901 0
M  V30 4170 H 382.032 -3.58773 1.26737 0
M  V30 4171 H 381.544 -2.65176 2.83379 0
M  V30 4172 H 379.645 -3.67866 0.592036 0
M  V30 4173 H 379.758 -4.13475 2.42023 0
M  V30 4174 H 378.122 -2.24542 1.20221 0
M  V30 4175 H 378.905 -1.92487 2.8426 0
M  V30 4176 N 381.35 -0.985608 -1.22978 0
M  V30 4177 C 382.596 -0.65836 -1.91816 0
M  V30 4178 C 382.929 0.806692 -1.76653 0
M  V30 4179 O 382.204 1.58252 -1.13078 0
M  V30 4180 C 382.487 -1.056 -3.44268 0
M  V30 4181 C 382.34 -2.57906 -3.68516 0
M  V30 4182 C 383.659 -0.603781 -4.35939 0
M  V30 4183 H 380.778 -0.24065 -0.696604 0
M  V30 4184 H 383.42 -1.22783 -1.44998 0
M  V30 4185 H 381.57 -0.571445 -3.84274 0
M  V30 4186 H 383.242 -3.13976 -3.3796 0
M  V30 4187 H 381.485 -3.00305 -3.13048 0
M  V30 4188 H 382.156 -2.80779 -4.75255 0
M  V30 4189 H 384.632 -1.01987 -4.03408 0
M  V30 4190 H 383.508 -0.910383 -5.41298 0
M  V30 4191 H 383.769 0.495761 -4.39312 0
M  V30 4192 N 382.828 1.3818 -0.7579 0
M  V30 4193 C 384.239 1.82726 -0.383134 0
M  V30 4194 C 384.59 1.63214 1.08884 0
M  V30 4195 O 383.715 1.13566 1.84205 0
M  V30 4196 C 384.31 3.31728 -0.688631 0
M  V30 4197 C 382.869 3.74606 -0.367091 0
M  V30 4198 C 382.016 2.60896 -0.939599 0
M  V30 4199 H 384.967 1.26847 -0.953699 0
M  V30 4200 H 384.988 3.80487 0.0316492 0
M  V30 4201 H 384.5 3.45898 -1.76001 0
M  V30 4202 H 382.601 3.66013 0.697532 0
M  V30 4203 H 382.714 4.71215 -0.865658 0
M  V30 4204 H 381.078 2.52075 -0.3647 0
M  V30 4205 H 381.861 2.77864 -2.0161 0
M  V30 4206 N 384.306 0.507319 1.49211 0
M  V30 4207 C 385.554 -0.0348839 2.0207 0
M  V30 4208 C 385.875 -1.36898 1.38866 0
M  V30 4209 O 385.145 -1.88133 0.546151 0
M  V30 4210 H 383.725 -0.0158812 0.746831 0
M  V30 4211 H 386.387 0.665998 1.83168 0
M  V30 4212 H 385.483 -0.159917 3.1169 0
M  V30 4213 N 385.784 -1.5574 0.241426 0
M  V30 4214 C 386.714 -2.24133 -0.654722 0
M  V30 4215 C 387.695 -1.21974 -1.1856 0
M  V30 4216 O 388.88 -1.50612 -1.22595 0
M  V30 4217 C 386.01 -2.93659 -1.85423 0
M  V30 4218 C 384.964 -4.0246 -1.45636 0
M  V30 4219 C 384.29 -4.59383 -2.73626 0
M  V30 4220 C 385.59 -5.18468 -0.631506 0
M  V30 4221 H 387.284 -2.99281 -0.0844353 0
M  V30 4222 H 384.83 -1.43947 -0.0391707 0
M  V30 4223 H 386.783 -3.40203 -2.48676 0
M  V30 4224 H 385.507 -2.15991 -2.44981 0
M  V30 4225 H 384.166 -3.56676 -0.847202 0
M  V30 4226 H 383.814 -3.78422 -3.3137 0
M  V30 4227 H 383.514 -5.32826 -2.4773 0
M  V30 4228 H 385.038 -5.08658 -3.37786 0
M  V30 4229 H 386.452 -5.61272 -1.1682 0
M  V30 4230 H 384.849 -5.98266 -0.468831 0
M  V30 4231 H 385.919 -4.8358 0.357506 0
M  V30 4232 N 387.262 0.0317525 -1.57568 0
M  V30 4233 C 388.225 1.01783 -2.0536 0
M  V30 4234 C 389.225 1.29203 -0.957253 0
M  V30 4235 O 390.415 1.24251 -1.22095 0
M  V30 4236 C 387.547 2.35137 -2.46827 0
M  V30 4237 H 388.74 0.605062 -2.93733 0
M  V30 4238 H 386.293 0.278514 -1.53799 0
M  V30 4239 H 387.028 2.81168 -1.61602 0
M  V30 4240 H 386.813 2.16566 -3.26866 0
M  V30 4241 H 388.303 3.05938 -2.84239 0
M  V30 4242 N 388.74 1.54641 0.303973 0
M  V30 4243 C 389.968 1.77768 1.05858 0
M  V30 4244 C 390.383 0.535722 1.8104 0
M  V30 4245 O 389.74 -0.494337 1.75677 0
M  V30 4246 C 389.791 2.9834 2.04146 0
M  V30 4247 O 389.512 4.17736 1.32015 0
M  V30 4248 C 391.013 3.33832 2.91669 0
M  V30 4249 H 388.233 0.592961 0.314067 0
M  V30 4250 H 390.777 2.01583 0.344149 0
M  V30 4251 H 388.932 2.76742 2.71096 0
M  V30 4252 H 389.346 4.85693 1.97998 0
M  V30 4253 H 390.82 4.21448 3.56491 0
M  V30 4254 H 391.297 2.51857 3.59812 0
M  V30 4255 H 391.903 3.57579 2.30254 0
M  V30 4256 N 390.218 -0.567019 1.47046 0
M  V30 4257 C 391.464 -1.32658 1.53394 0
M  V30 4258 C 391.797 -1.93254 0.19148 0
M  V30 4259 O 391.072 -1.77338 -0.798844 0
M  V30 4260 C 391.355 -2.44412 2.64452 0
M  V30 4261 C 391.208 -1.88749 4.08282 0
M  V30 4262 C 392.527 -3.46387 2.71485 0
M  V30 4263 H 389.646 -0.48098 0.558415 0
M  V30 4264 H 392.288 -0.635481 1.79058 0
M  V30 4265 H 390.438 -3.03363 2.427 0
M  V30 4266 H 392.11 -1.34134 4.41368 0
M  V30 4267 H 390.353 -1.19481 4.17021 0
M  V30 4268 H 391.024 -2.69491 4.81745 0
M  V30 4269 H 393.5 -2.9734 2.91081 0
M  V30 4270 H 392.376 -4.2202 3.50985 0
M  V30 4271 H 392.637 -4.04616 1.78153 0
M  V30 4272 N 391.696 -1.35014 -0.812953 0
M  V30 4273 C 392.921 -1.31187 -1.60639 0
M  V30 4274 C 393.346 0.109382 -1.87782 0
M  V30 4275 O 392.704 1.07424 -1.46047 0
M  V30 4276 C 392.752 -2.11809 -2.91838 0
M  V30 4277 O 391.856 -1.49444 -3.8437 0
M  V30 4278 H 391.197 -0.450084 -0.488181 0
M  V30 4279 H 393.727 -1.77963 -1.00947 0
M  V30 4280 H 393.737 -2.23531 -3.41318 0
M  V30 4281 H 392.412 -3.15137 -2.71407 0
M  V30 4282 H 390.989 -1.46524 -3.42907 0
M  V30 4283 N 393.175 1.03435 -1.18907 0
M  V30 4284 C 394.105 2.13503 -0.945448 0
M  V30 4285 C 395.086 1.69682 0.119189 0
M  V30 4286 O 396.271 1.94169 -0.034707 0
M  V30 4287 C 393.401 3.44004 -0.477316 0
M  V30 4288 C 392.355 4.0148 -1.48316 0
M  V30 4289 C 391.681 5.27537 -0.872311 0
M  V30 4290 C 392.981 4.36921 -2.86177 0
M  V30 4291 H 394.675 2.34141 -1.86597 0
M  V30 4292 H 392.221 1.12523 -0.898584 0
M  V30 4293 H 394.174 4.20372 -0.294204 0
M  V30 4294 H 392.898 3.23072 0.478786 0
M  V30 4295 H 391.557 3.27201 -1.65332 0
M  V30 4296 H 391.205 5.02917 0.0911752 0
M  V30 4297 H 390.905 5.66954 -1.54393 0
M  V30 4298 H 392.429 6.06576 -0.699871 0
M  V30 4299 H 393.843 5.04248 -2.72776 0
M  V30 4300 H 392.24 4.87405 -3.50081 0
M  V30 4301 H 393.31 3.46466 -3.39248 0
M  V30 4302 N 394.653 0.992116 1.22453 0
M  V30 4303 C 395.893 0.675727 1.92907 0
M  V30 4304 C 396.257 -0.777762 1.75542 0
M  V30 4305 O 397.458 -1.20553 2.40251 0
M  V30 4306 C 395.729 1.0696 3.4102 0
M  V30 4307 S 397.288 0.871456 4.30059 0
M  V30 4308 H 394.106 0.247089 0.666684 0
M  V30 4309 H 396.708 1.27423 1.48269 0
M  V30 4310 H 395.412 2.12383 3.51172 0
M  V30 4311 H 394.943 0.462858 3.90668 0
M  V30 4312 H 396.958 -0.238436 4.95627 0
M  V30 4313 N 396.131 -1.37776 0.765217 0
M  V30 4314 C 397.547 -1.53297 0.444108 0
M  V30 4315 C 397.747 -1.72515 -1.04119 0
M  V30 4316 O 396.803 -1.74278 -1.82711 0
M  V30 4317 C 398.116 -2.73328 1.25349 0
M  V30 4318 C 399.664 -2.87185 1.24473 0
M  V30 4319 C 400.139 -4.10191 2.03733 0
M  V30 4320 N 401.63 -4.17291 2.01053 0
M  V30 4321 C 402.365 -5.11488 2.59166 0
M  V30 4322 N 401.861 -6.11285 3.26041 0
M  V30 4323 N 403.654 -5.03924 2.49032 0
M  V30 4324 H 395.805 -1.23552 1.72768 0
M  V30 4325 H 398.068 -0.601103 0.733062 0
M  V30 4326 H 397.774 -2.6557 2.30577 0
M  V30 4327 H 397.648 -3.66834 0.87823 0
M  V30 4328 H 400.035 -2.94418 0.20047 0
M  V30 4329 H 400.116 -1.94657 1.65959 0
M  V30 4330 H 399.76 -4.0372 3.08176 0
M  V30 4331 H 399.69 -5.01821 1.59633 0
M  V30 4332 H 402.181 -3.45825 1.5236 0
M  V30 4333 H 402.494 -6.79678 3.67774 0
M  V30 4334 H 400.839 -6.11583 3.30138 0
M  V30 4335 H 404.03 -4.24902 1.96407 0
M  V30 4336 H 404.203 -5.77152 2.94617 0
M  V30 4337 N 397.609 -0.515225 -1.4894 0
M  V30 4338 C 398.556 0.255567 -2.29381 0
M  V30 4339 C 399.526 0.947387 -1.36432 0
M  V30 4340 O 400.711 0.951288 -1.65394 0
M  V30 4341 C 397.851 1.30551 -3.19453 0
M  V30 4342 C 396.964 0.624029 -4.27469 0
M  V30 4343 C 396.099 1.65563 -5.0474 0
M  V30 4344 C 395.138 0.956802 -6.04576 0
M  V30 4345 N 394.275 1.93326 -6.74959 0
M  V30 4346 H 399.115 -0.436607 -2.94784 0
M  V30 4347 H 396.652 -0.227154 -1.45336 0
M  V30 4348 H 398.61 1.92639 -3.70062 0
M  V30 4349 H 397.24 1.96626 -2.56004 0
M  V30 4350 H 396.292 -0.110459 -3.8024 0
M  V30 4351 H 397.604 0.0746092 -4.98744 0
M  V30 4352 H 396.758 2.35119 -5.59289 0
M  V30 4353 H 395.497 2.23893 -4.3327 0
M  V30 4354 H 394.502 0.247097 -5.49244 0
M  V30 4355 H 395.727 0.379814 -6.78037 0
M  V30 4356 H 393.673 2.50591 -6.06251 0
M  V30 4357 H 393.59 1.43489 -7.42258 0
M  V30 4358 H 394.858 2.62126 -7.34105 0
M  V30 4359 N 399.087 1.5561 -0.249682 0
M  V30 4360 C 400.017 2.24477 0.642826 0
M  V30 4361 C 400.998 1.22601 1.17911 0
M  V30 4362 O 402.183 1.5126 1.21795 0
M  V30 4363 C 399.313 2.94638 1.83863 0
M  V30 4364 C 398.267 4.03227 1.435 0
M  V30 4365 C 397.593 4.60828 2.71186 0
M  V30 4366 C 398.893 5.18796 0.604002 0
M  V30 4367 H 400.587 2.99321 0.0685625 0
M  V30 4368 H 398.133 1.43965 0.0315363 0
M  V30 4369 H 400.086 3.41517 2.46868 0
M  V30 4370 H 398.81 2.17287 2.43832 0
M  V30 4371 H 397.469 3.57121 0.828275 0
M  V30 4372 H 397.117 3.80174 3.29358 0
M  V30 4373 H 396.817 5.34132 2.44901 0
M  V30 4374 H 398.341 5.10442 3.35084 0
M  V30 4375 H 399.755 5.61883 1.13842 0
M  V30 4376 H 398.152 5.98506 0.437097 0
M  V30 4377 H 399.222 4.83384 -0.383147 0
M  V30 4378 N 400.565 -0.0233959 1.57583 0
M  V30 4379 C 401.79 -0.728376 1.94189 0
M  V30 4380 C 402.215 -1.67793 0.850119 0
M  V30 4381 O 401.573 -1.80262 -0.19371 0
M  V30 4382 C 401.621 -1.45669 3.29868 0
M  V30 4383 O 400.725 -2.57013 3.22518 0
M  V30 4384 H 400.066 -0.195493 0.63457 0
M  V30 4385 H 402.596 0.0228214 2.04587 0
M  V30 4386 H 402.606 -1.82535 3.6489 0
M  V30 4387 H 401.281 -0.760314 4.08891 0
M  V30 4388 H 399.858 -2.22648 2.99136 0
M  V30 4389 N 402.043 -1.548 -0.295768 0
M  V30 4390 C 403.459 -1.4613 -0.641722 0
M  V30 4391 C 403.659 -0.656771 -1.90496 0
M  V30 4392 O 402.715 -0.166547 -2.5195 0
M  V30 4393 C 404.028 -2.90141 -0.789852 0
M  V30 4394 C 405.576 -3.00216 -0.885396 0
M  V30 4395 C 406.051 -4.45434 -1.06548 0
M  V30 4396 N 407.542 -4.49166 -1.13156 0
M  V30 4397 C 408.277 -5.58717 -1.28929 0
M  V30 4398 N 407.773 -6.78182 -1.41567 0
M  V30 4399 N 409.566 -5.46415 -1.31859 0
M  V30 4400 H 401.717 -2.05574 0.534147 0
M  V30 4401 H 403.98 -0.931259 0.177372 0
M  V30 4402 H 403.686 -3.51635 0.0675598 0
M  V30 4403 H 403.56 -3.37859 -1.67724 0
M  V30 4404 H 405.947 -2.38833 -1.73329 0
M  V30 4405 H 406.028 -2.55787 0.0261185 0
M  V30 4406 H 405.672 -5.07413 -0.222335 0
M  V30 4407 H 405.602 -4.87499 -1.9913 0
M  V30 4408 H 408.093 -3.631 -1.04721 0
M  V30 4409 H 408.406 -7.57428 -1.53372 0
M  V30 4410 H 406.751 -6.81037 -1.38613 0
M  V30 4411 H 409.942 -4.5203 -1.21601 0
M  V30 4412 H 410.115 -6.31841 -1.43808 0
M  V30 4413 N 403.521 0.559213 -1.47345 0
M  V30 4414 C 404.767 1.31843 -1.54095 0
M  V30 4415 C 405.1 1.93149 -0.201726 0
M  V30 4416 O 404.375 1.77759 0.789428 0
M  V30 4417 C 404.658 2.43006 -2.65744 0
M  V30 4418 C 404.511 1.86581 -4.09277 0
M  V30 4419 C 405.83 3.44943 -2.73318 0
M  V30 4420 H 402.949 0.478012 -0.560957 0
M  V30 4421 H 405.591 0.625977 -1.79392 0
M  V30 4422 H 403.741 3.02072 -2.44305 0
M  V30 4423 H 405.413 1.31792 -4.42073 0
M  V30 4424 H 403.656 1.17268 -4.17649 0
M  V30 4425 H 404.327 2.66933 -4.83168 0
M  V30 4426 H 406.803 2.95793 -2.92653 0
M  V30 4427 H 405.679 4.20153 -3.53218 0
M  V30 4428 H 405.94 4.03665 -1.80296 0
M  V30 4429 N 404.999 1.35443 0.805782 0
M  V30 4430 C 405.929 1.31095 1.93226 0
M  V30 4431 C 406.91 0.185244 1.69088 0
M  V30 4432 O 408.095 0.380332 1.90439 0
M  V30 4433 C 405.225 1.08299 3.29983 0
M  V30 4434 C 404.179 2.17519 3.68605 0
M  V30 4435 C 403.505 1.79887 5.03532 0
M  V30 4436 C 404.805 3.5949 3.78898 0
M  V30 4437 H 406.499 2.25352 1.97122 0
M  V30 4438 H 404.045 1.0848 0.946996 0
M  V30 4439 H 405.998 1.03897 4.08391 0
M  V30 4440 H 404.722 0.104885 3.26432 0
M  V30 4441 H 403.381 2.2102 2.92482 0
M  V30 4442 H 403.029 0.80693 4.96485 0
M  V30 4443 H 402.729 2.53001 5.30344 0
M  V30 4444 H 404.253 1.77011 5.84379 0
M  V30 4445 H 405.667 3.58307 4.47536 0
M  V30 4446 H 404.064 4.31371 4.1718 0
M  V30 4447 H 405.134 3.95584 2.80431 0
M  V30 4448 N 406.477 -1.02803 1.19454 0
M  V30 4449 C 407.425 -2.13213 0.929673 0
M  V30 4450 C 408.419 -1.69011 -0.114806 0
M  V30 4451 O 409.625 -1.79967 0.0345147 0
M  V30 4452 H 406 -0.69662 0.28324 0
M  V30 4453 H 407.971 -2.32744 1.86743 0
M  V30 4454 C 406.72 -3.4429 0.485797 0
M  V30 4455 H 406.043 -3.7872 1.28105 0
M  V30 4456 H 407.483 -4.22638 0.339582 0
M  V30 4457 C 405.942 -3.27258 -0.800244 0
M  V30 4458 O 406.472 -3.55967 -1.86146 0
M  V30 4459 N 404.678 -2.80545 -0.75781 0
M  V30 4460 H 404.225 -2.57382 0.106039 0
M  V30 4461 H 404.183 -2.6953 -1.61867 0
M  V30 4462 N 407.956 -0.998596 -1.21925 0
M  V30 4463 C 409.196 -0.685948 -1.92546 0
M  V30 4464 C 409.56 0.768441 -1.75952 0
M  V30 4465 O 410.761 1.19277 -2.40887 0
M  V30 4466 C 409.032 -1.08767 -3.40448 0
M  V30 4467 S 410.591 -0.894251 -4.29591 0
M  V30 4468 H 407.409 -0.250622 -0.665364 0
M  V30 4469 H 410.011 -1.28207 -1.47591 0
M  V30 4470 H 408.715 -2.14242 -3.50041 0
M  V30 4471 H 408.246 -0.48357 -3.90417 0
M  V30 4472 H 410.261 0.212149 -4.95746 0
M  V30 4473 N 409.434 1.37368 -0.772513 0
M  V30 4474 C 410.711 1.93839 -0.26188 0
M  V30 4475 C 411.091 1.7061 1.24319 0
M  V30 4476 O 410.439 1.05534 2.02669 0
M  V30 4477 C 410.649 3.43154 -0.636102 0
M  V30 4478 C 411.997 4.20249 -0.606324 0
M  V30 4479 O 413.021 3.5152 -0.575538 0
M  V30 4480 O 411.88 5.42809 -0.634086 0
M  V30 4481 H 408.974 0.82478 -0.0605555 0
M  V30 4482 H 411.52 1.4665 -0.853917 0
M  V30 4483 H 410.292 3.53647 -1.6748 0
M  V30 4484 H 409.915 3.97596 -0.0170516 0
M  V30 4485 N 410.912 0.523116 1.48665 0
M  V30 4486 C 411.859 -0.243398 2.29513 0
M  V30 4487 C 412.829 -0.940139 1.36933 0
M  V30 4488 O 414.014 -0.942503 1.65896 0
M  V30 4489 C 411.154 -1.28855 3.20141 0
M  V30 4490 C 410.267 -0.60135 4.27794 0
M  V30 4491 C 409.402 -1.62884 5.05611 0
M  V30 4492 C 408.441 -0.924726 6.05075 0
M  V30 4493 N 407.578 -1.89744 6.75975 0
M  V30 4494 H 412.418 0.452234 2.94549 0
M  V30 4495 H 409.955 0.234858 1.45213 0
M  V30 4496 H 411.913 -1.90674 3.71079 0
M  V30 4497 H 410.543 -1.95266 2.57043 0
M  V30 4498 H 409.595 0.130623 3.80176 0
M  V30 4499 H 410.907 -0.0481585 4.98777 0
M  V30 4500 H 410.061 -2.32149 5.60528 0
M  V30 4501 H 408.8 -2.21592 4.34452 0
M  V30 4502 H 407.805 -0.217966 5.49368 0
M  V30 4503 H 409.03 -0.343851 6.78229 0
M  V30 4504 H 406.976 -2.47373 6.07571 0
M  V30 4505 H 406.893 -1.3955 7.43009 0
M  V30 4506 H 408.161 -2.58229 7.35485 0
M  V30 4507 N 412.39 -1.55475 0.257931 0
M  V30 4508 C 413.322 -2.19192 -0.669881 0
M  V30 4509 C 414.335 -1.17148 -1.1305 0
M  V30 4510 O 415.524 -1.43959 -1.05537 0
M  V30 4511 C 412.624 -2.79016 -1.92363 0
M  V30 4512 C 411.797 -4.06586 -1.61265 0
M  V30 4513 C 410.856 -4.50622 -2.7171 0
M  V30 4514 O 409.882 -5.16765 -2.38627 0
M  V30 4515 N 411.084 -4.19325 -4.01431 0
M  V30 4516 H 413.849 -2.99441 -0.124635 0
M  V30 4517 H 411.41 -1.6171 0.0783311 0
M  V30 4518 H 413.402 -3.05427 -2.65511 0
M  V30 4519 H 411.972 -2.0286 -2.37837 0
M  V30 4520 H 411.192 -3.87646 -0.715811 0
M  V30 4521 H 412.48 -4.89737 -1.37967 0
M  V30 4522 H 411.878 -3.66247 -4.31138 0
M  V30 4523 H 410.435 -4.50547 -4.7101 0
M  V30 4524 N 413.868 0.0150385 -1.57593 0
M  V30 4525 C 414.778 1.02791 -2.10882 0
M  V30 4526 C 415.794 1.38702 -1.0506 0
M  V30 4527 O 416.97 1.47739 -1.36877 0
M  V30 4528 C 414.035 2.30568 -2.58919 0
M  V30 4529 C 413.096 2.01108 -3.79281 0
M  V30 4530 C 412.329 3.22794 -4.25018 0
M  V30 4531 O 412.552 4.33959 -3.70183 0
M  V30 4532 O 411.486 3.07672 -5.17322 0
M  V30 4533 H 415.312 0.604973 -2.97613 0
M  V30 4534 H 412.897 0.23292 -1.47573 0
M  V30 4535 H 414.779 3.05662 -2.90084 0
M  V30 4536 H 413.454 2.72129 -1.75293 0
M  V30 4537 H 412.361 1.23537 -3.53114 0
M  V30 4538 H 413.694 1.64394 -4.63935 0
M  V30 4539 N 415.346 1.54954 0.287554 0
M  V30 4540 C 416.592 1.75132 1.02257 0
M  V30 4541 C 416.925 0.542858 1.86458 0
M  V30 4542 O 416.2 -0.459856 1.88986 0
M  V30 4543 C 416.483 3.04812 1.91733 0
M  V30 4544 C 416.336 4.35985 1.10622 0
M  V30 4545 C 417.655 3.30438 2.90687 0
M  V30 4546 H 414.774 0.637194 0.370341 0
M  V30 4547 H 417.416 1.87678 0.296111 0
M  V30 4548 H 415.566 2.94247 2.53675 0
M  V30 4549 H 417.238 4.58487 0.508636 0
M  V30 4550 H 415.481 4.31865 0.409271 0
M  V30 4551 H 416.152 5.23017 1.76513 0
M  V30 4552 H 418.628 3.40701 2.38877 0
M  V30 4553 H 417.504 4.22467 3.50447 0
M  V30 4554 H 417.765 2.49377 3.65053 0
M  V30 4555 N 416.824 -0.551391 1.4764 0
M  V30 4556 C 418.064 -1.31901 1.56145 0
M  V30 4557 C 418.428 -1.90724 0.221013 0
M  V30 4558 O 419.629 -2.6819 0.180945 0
M  V30 4559 C 417.9 -2.39517 2.65267 0
M  V30 4560 S 419.459 -3.26289 2.93395 0
M  V30 4561 H 416.277 -0.448965 0.551318 0
M  V30 4562 H 418.879 -0.630599 1.85051 0
M  V30 4563 H 417.583 -1.94747 3.6125 0
M  V30 4564 H 417.114 -3.13092 2.38195 0
M  V30 4565 H 419.129 -4.39122 2.31055 0
M  V30 4566 N 418.302 -1.35869 -0.798587 0
M  V30 4567 C 419.212 -1.31578 -1.94228 0
M  V30 4568 C 420.228 -0.21939 -1.72611 0
M  V30 4569 O 421.404 -0.450167 -1.96305 0
M  V30 4570 C 418.469 -1.09528 -3.28944 0
M  V30 4571 C 417.53 -2.28556 -3.63402 0
M  V30 4572 C 416.763 -2.07549 -4.9169 0
M  V30 4573 O 416.986 -1.046 -5.60727 0
M  V30 4574 O 415.92 -2.95106 -5.24591 0
M  V30 4575 H 419.746 -2.27847 -2.00796 0
M  V30 4576 H 417.331 -1.16322 -0.937526 0
M  V30 4577 H 419.213 -0.991127 -4.09579 0
M  V30 4578 H 417.888 -0.16315 -3.23289 0
M  V30 4579 H 416.795 -2.44538 -2.83112 0
M  V30 4580 H 418.128 -3.20244 -3.73771 0
M  V30 4581 N 419.78 1.02168 -1.19998 0
M  V30 4582 C 420.69 2.14069 -0.959774 0
M  V30 4583 C 421.706 1.73804 0.082655 0
M  V30 4584 O 422.882 2.01133 -0.103633 0
M  V30 4585 C 419.947 3.42936 -0.509459 0
M  V30 4586 C 419.008 3.97474 -1.62213 0
M  V30 4587 C 418.241 5.2019 -1.19321 0
M  V30 4588 O 418.464 5.70369 -0.0597726 0
M  V30 4589 O 417.398 5.67749 -1.99863 0
M  V30 4590 H 421.224 2.37199 -1.89658 0
M  V30 4591 H 418.809 1.12469 -0.983411 0
M  V30 4592 H 420.691 4.20551 -0.267322 0
M  V30 4593 H 419.366 3.21234 0.398821 0
M  V30 4594 H 418.273 3.21161 -1.9185 0
M  V30 4595 H 419.606 4.23555 -2.50723 0
M  V30 4596 N 421.258 1.00505 1.21394 0
M  V30 4597 C 422.505 0.687774 1.90462 0
M  V30 4598 C 422.833 -0.78147 1.7811 0
M  V30 4599 O 422.088 -1.58208 1.1519 0
M  V30 4600 C 422.387 1.0546 3.41486 0
M  V30 4601 C 422.053 2.51812 3.74034 0
M  V30 4602 C 420.715 2.91804 3.82628 0
M  V30 4603 C 423.067 3.46614 3.8924 0
M  V30 4604 C 420.395 4.2556 4.03876 0
M  V30 4605 C 422.747 4.80044 4.11995 0
M  V30 4606 C 421.411 5.19759 4.18816 0
M  V30 4607 H 420.681 0.251674 0.696951 0
M  V30 4608 H 423.328 1.26349 1.43903 0
M  V30 4609 H 421.633 0.397133 3.89782 0
M  V30 4610 H 423.33 0.786976 3.93202 0
M  V30 4611 H 419.92 2.1982 3.67936 0
M  V30 4612 H 424.104 3.16883 3.81967 0
M  V30 4613 H 419.36 4.55901 4.07387 0
M  V30 4614 H 423.534 5.53439 4.22704 0
M  V30 4615 H 421.161 6.23418 4.35033 0
M  V30 4616 N 422.737 -1.36956 0.779787 0
M  V30 4617 C 423.962 -2.04283 0.358224 0
M  V30 4618 C 424.387 -1.58422 -1.01411 0
M  V30 4619 O 423.745 -0.748179 -1.65142 0
M  V30 4620 C 423.793 -3.58152 0.419479 0
M  V30 4621 O 422.897 -4.08342 -0.577142 0
M  V30 4622 H 422.238 -0.645967 0.153698 0
M  V30 4623 H 424.768 -1.75108 1.05822 0
M  V30 4624 H 424.778 -4.07041 0.279636 0
M  V30 4625 H 423.453 -3.90886 1.42061 0
M  V30 4626 H 422.03 -3.70751 -0.399755 0
M  V30 4627 N 424.215 -0.530993 -1.48385 0
M  V30 4628 C 425.147 0.268353 -2.27624 0
M  V30 4629 C 426.16 0.903525 -1.35426 0
M  V30 4630 O 427.349 0.781796 -1.60469 0
M  V30 4631 C 424.449 1.39535 -3.08842 0
M  V30 4632 C 423.622 0.861913 -4.28824 0
M  V30 4633 C 422.681 1.87016 -4.91845 0
M  V30 4634 O 421.707 1.4267 -5.5103 0
M  V30 4635 N 422.909 3.20238 -4.84178 0
M  V30 4636 H 425.674 -0.41123 -2.96865 0
M  V30 4637 H 423.235 -0.365387 -1.57723 0
M  V30 4638 H 425.227 2.06803 -3.47871 0
M  V30 4639 H 423.797 1.97859 -2.42014 0
M  V30 4640 H 423.017 0.0132126 -3.94198 0
M  V30 4641 H 424.305 0.484415 -5.06489 0
M  V30 4642 H 423.703 3.58932 -4.37246 0
M  V30 4643 H 422.26 3.83136 -5.27305 0
M  V30 4644 N 425.693 1.55336 -0.266172 0
M  V30 4645 C 426.625 2.19544 0.658247 0
M  V30 4646 C 427.638 1.17746 1.12427 0
M  V30 4647 O 428.827 1.44517 1.04772 0
M  V30 4648 C 425.927 2.80032 1.9088 0
M  V30 4649 C 425.1 4.07436 1.59106 0
M  V30 4650 C 424.159 4.52056 2.69317 0
M  V30 4651 O 423.185 5.18023 2.35883 0
M  V30 4652 N 424.387 4.21448 3.99201 0
M  V30 4653 H 427.152 2.99503 0.108754 0
M  V30 4654 H 424.713 1.61667 -0.0869059 0
M  V30 4655 H 426.705 3.06831 2.63888 0
M  V30 4656 H 425.275 2.04119 2.36758 0
M  V30 4657 H 424.495 3.88021 0.695243 0
M  V30 4658 H 425.783 4.90462 1.35367 0
M  V30 4659 H 425.181 3.68528 4.29189 0
M  V30 4660 H 423.738 4.53039 4.68614 0
M  V30 4661 N 427.171 -0.0066808 1.57599 0
M  V30 4662 C 428.101 -0.999296 2.11036 0
M  V30 4663 C 429.082 -1.36278 1.01795 0
M  V30 4664 O 430.267 -1.4477 1.29442 0
M  V30 4665 C 427.397 -2.29328 2.60818 0
M  V30 4666 C 426.351 -2.07159 3.74525 0
M  V30 4667 C 425.677 -3.42512 4.10596 0
M  V30 4668 C 426.977 -1.43959 5.02069 0
M  V30 4669 H 428.671 -0.554382 2.94223 0
M  V30 4670 H 426.217 -0.265221 1.41536 0
M  V30 4671 H 428.17 -2.99117 2.96828 0
M  V30 4672 H 426.894 -2.7592 1.74745 0
M  V30 4673 H 425.553 -1.39797 3.38899 0
M  V30 4674 H 425.201 -3.86795 3.21556 0
M  V30 4675 H 424.901 -3.28498 4.87199 0
M  V30 4676 H 426.425 -4.13628 4.4916 0
M  V30 4677 H 427.839 -2.03696 5.35893 0
M  V30 4678 H 426.236 -1.40452 5.83432 0
M  V30 4679 H 427.306 -0.407992 4.83181 0
M  V30 4680 N 428.649 -1.55105 -0.279332 0
M  V30 4681 C 429.597 -1.88333 -1.36505 0
M  V30 4682 C 430.591 -0.759043 -1.51443 0
M  V30 4683 O 431.797 -0.943312 -1.53302 0
M  V30 4684 H 428.172 -0.59766 -0.456406 0
M  V30 4685 H 430.143 -2.79041 -1.05728 0
M  V30 4686 C 428.892 -2.16628 -2.7197 0
M  V30 4687 H 428.215 -3.02624 -2.61264 0
M  V30 4688 H 429.655 -2.43803 -3.46895 0
M  V30 4689 C 428.114 -0.971807 -3.22579 0
M  V30 4690 O 428.644 -0.203228 -4.01186 0
M  V30 4691 N 426.85 -0.771238 -2.80179 0
M  V30 4692 H 426.397 -1.39792 -2.1637 0
M  V30 4693 H 426.355 0.0263667 -3.14389 0
M  V30 4694 N 430.127 0.543554 -1.4793 0
M  V30 4695 C 431.352 1.32995 -1.59145 0
M  V30 4696 C 431.777 1.86472 -0.246956 0
M  V30 4697 O 431.135 1.63696 0.779324 0
M  V30 4698 C 431.183 2.46623 -2.63077 0
M  V30 4699 O 430.287 3.49261 -2.19295 0
M  V30 4700 H 429.628 0.394472 -0.534124 0
M  V30 4701 H 432.158 0.655489 -1.93816 0
M  V30 4702 H 432.168 2.93001 -2.83926 0
M  V30 4703 H 430.843 2.07059 -3.60693 0
M  V30 4704 H 429.42 3.09094 -2.08603 0
M  V30 4705 N 431.605 1.3629 0.791371 0
M  V30 4706 C 432.553 1.30514 1.92533 0
M  V30 4707 C 433.547 0.197285 1.68247 0
M  V30 4708 O 434.753 0.364176 1.76278 0
M  V30 4709 H 431.128 0.406263 0.632815 0
M  V30 4710 H 433.099 2.26282 1.94523 0
M  V30 4711 C 431.848 1.10933 3.29529 0
M  V30 4712 H 431.171 1.95427 3.48781 0
M  V30 4713 H 432.611 1.10937 4.0923 0
M  V30 4714 C 431.07 -0.186123 3.36385 0
M  V30 4715 O 431.6 -1.17664 3.84081 0
M  V30 4716 N 429.806 -0.230128 2.89687 0
M  V30 4717 H 429.353 0.576545 2.51065 0
M  V30 4718 H 429.311 -1.09658 2.94657 0
M  V30 4719 N 433.083 -1.0153 1.20538 0
M  V30 4720 C 434.331 -1.74803 1.01432 0
M  V30 4721 C 434.652 -1.8963 -0.454456 0
M  V30 4722 O 433.922 -1.43975 -1.32846 0
M  V30 4723 H 432.502 -0.647598 0.372324 0
M  V30 4724 H 435.164 -1.22402 1.5167 0
M  V30 4725 H 434.26 -2.75114 1.47373 0
M  V30 4726 N 434.561 -1.01147 -1.20859 0
M  V30 4727 C 435.801 -0.706331 -1.91808 0
M  V30 4728 C 436.165 0.749736 -1.76757 0
M  V30 4729 O 437.366 1.16716 -2.42138 0
M  V30 4730 C 435.637 -1.12371 -3.39275 0
M  V30 4731 S 437.196 -0.939764 -4.28619 0
M  V30 4732 H 434.014 -0.257665 -0.662669 0
M  V30 4733 H 436.616 -1.29766 -1.46223 0
M  V30 4734 H 435.32 -2.17943 -3.47749 0
M  V30 4735 H 434.851 -0.524952 -3.89882 0
M  V30 4736 H 436.866 0.159556 -4.95943 0
M  V30 4737 N 436.039 1.36541 -0.78704 0
M  V30 4738 C 437.288 1.98552 -0.35494 0
M  V30 4739 C 437.601 1.63171 1.07864 0
M  V30 4740 O 438.807 2.18399 1.61289 0
M  V30 4741 C 437.263 3.55136 -0.583671 0
M  V30 4742 C 436.871 3.99444 -2.02851 0
M  V30 4743 C 438.615 4.2395 -0.215957 0
M  V30 4744 C 436.522 5.48796 -2.20403 0
M  V30 4745 H 435.452 0.742888 -0.128972 0
M  V30 4746 H 438.103 1.5587 -0.968337 0
M  V30 4747 H 436.485 3.95875 0.0994046 0
M  V30 4748 H 437.659 3.6991 -2.74779 0
M  V30 4749 H 435.974 3.43459 -2.35425 0
M  V30 4750 H 438.571 5.33709 -0.325405 0
M  V30 4751 H 438.914 4.07827 0.835646 0
M  V30 4752 H 439.447 3.88565 -0.852175 0
M  V30 4753 H 436.186 5.69864 -3.23937 0
M  V30 4754 H 435.706 5.79964 -1.52977 0
M  V30 4755 H 437.385 6.14986 -2.01002 0
M  V30 4756 N 437.518 0.538854 1.48102 0
M  V30 4757 C 438.746 0.0123136 2.06896 0
M  V30 4758 C 439.161 -1.27312 1.39417 0
M  V30 4759 O 438.518 -1.75949 0.484582 0
M  V30 4760 C 438.569 -0.206118 3.60912 0
M  V30 4761 O 438.29 1.0284 4.25859 0
M  V30 4762 C 439.791 -0.772033 4.36526 0
M  V30 4763 H 437.011 0.0375239 0.66995 0
M  V30 4764 H 439.555 0.747032 1.90367 0
M  V30 4765 H 437.71 -0.89091 3.77017 0
M  V30 4766 H 438.124 0.814654 5.18135 0
M  V30 4767 H 439.598 -0.874251 5.45033 0
M  V30 4768 H 440.075 -1.77904 4.01555 0
M  V30 4769 H 440.681 -0.123526 4.25121 0
M  V30 4770 N 438.996 -1.55193 0.274407 0
M  V30 4771 C 439.928 -2.1989 -0.646595 0
M  V30 4772 C 440.941 -1.1834 -1.11801 0
M  V30 4773 O 442.13 -1.4507 -1.04004 0
M  V30 4774 C 439.23 -2.8104 -1.89393 0
M  V30 4775 C 438.403 -4.08274 -1.56943 0
M  V30 4776 C 437.462 -4.53478 -2.66916 0
M  V30 4777 O 436.488 -5.19267 -2.33132 0
M  V30 4778 N 437.69 -4.2356 -3.9696 0
M  V30 4779 H 440.455 -2.99556 -0.0928686 0
M  V30 4780 H 438.016 -1.61618 0.0954783 0
M  V30 4781 H 440.008 -3.08226 -2.62257 0
M  V30 4782 H 438.578 -2.05372 -2.35672 0
M  V30 4783 H 437.798 -3.88384 -0.674655 0
M  V30 4784 H 439.086 -4.91173 -1.32764 0
M  V30 4785 H 438.484 -3.70799 -4.27229 0
M  V30 4786 H 437.041 -4.55518 -4.66205 0
M  V30 4787 N 440.474 -0.00167713 -1.576 0
M  V30 4788 C 441.406 1.0174 -2.05382 0
M  V30 4789 C 442.419 1.30595 -0.972052 0
M  V30 4790 O 443.608 1.27542 -1.24882 0
M  V30 4791 C 440.708 2.35174 -2.44022 0
M  V30 4792 C 439.881 2.25234 -3.74951 0
M  V30 4793 C 438.94 3.4137 -4.00441 0
M  V30 4794 O 437.966 3.19483 -4.71083 0
M  V30 4795 N 439.168 4.64275 -3.48467 0
M  V30 4796 H 441.933 0.609902 -2.93428 0
M  V30 4797 H 439.494 0.185672 -1.60832 0
M  V30 4798 H 441.486 3.11643 -2.58187 0
M  V30 4799 H 440.056 2.67659 -1.61485 0
M  V30 4800 H 439.276 1.33664 -3.70847 0
M  V30 4801 H 440.564 2.15767 -4.60784 0
M  V30 4802 H 439.962 4.84955 -2.91264 0
M  V30 4803 H 438.519 5.38005 -3.67959 0
M  V30 4804 N 441.952 1.55251 0.271103 0
M  V30 4805 C 443.198 1.76207 1.00394 0
M  V30 4806 C 443.531 0.562604 1.85872 0
M  V30 4807 O 442.806 -0.439785 1.89463 0
M  V30 4808 C 443.089 3.06828 1.8849 0
M  V30 4809 C 442.942 4.37134 1.05992 0
M  V30 4810 C 444.261 3.33503 2.87165 0
M  V30 4811 H 441.38 0.641086 0.363562 0
M  V30 4812 H 444.022 1.87982 0.276189 0
M  V30 4813 H 442.172 2.96921 2.5054 0
M  V30 4814 H 443.844 4.59001 0.459978 0
M  V30 4815 H 442.087 4.32275 0.363443 0
M  V30 4816 H 442.758 5.2486 1.70955 0
M  V30 4817 H 445.234 3.43215 2.3525 0
M  V30 4818 H 444.11 4.2616 3.45946 0
M  V30 4819 H 444.371 2.53235 3.62387 0
M  V30 4820 N 443.43 -0.535701 1.48216 0
M  V30 4821 C 444.38 -1.63688 1.58714 0
M  V30 4822 C 445.364 -1.54635 0.444615 0
M  V30 4823 O 446.556 -1.62753 0.695742 0
M  V30 4824 C 443.685 -3.02423 1.62466 0
M  V30 4825 C 442.771 -3.16601 2.82178 0
M  V30 4826 N 443.162 -3.00771 4.06658 0
M  V30 4827 C 441.46 -3.47645 2.79391 0
M  V30 4828 C 442.161 -3.18213 4.86945 0
M  V30 4829 N 441.137 -3.45528 4.19656 0
M  V30 4830 H 444.939 -1.5005 2.5271 0
M  V30 4831 H 442.453 -0.741018 1.44508 0
M  V30 4832 H 444.45 -3.81517 1.6808 0
M  V30 4833 H 443.11 -3.17157 0.695826 0
M  V30 4834 H 444.121 -2.77652 4.37184 0
M  V30 4835 H 440.798 -3.68771 1.95739 0
M  V30 4836 H 442.188 -3.1076 5.95716 0
M  V30 4837 N 444.908 -1.36708 -0.784132 0
M  V30 4838 C 446.136 -1.34398 -1.57305 0
M  V30 4839 C 446.551 0.0735577 -1.88657 0
M  V30 4840 O 445.908 1.03193 -1.50524 0
M  V30 4841 C 445.959 -2.17053 -2.89085 0
M  V30 4842 O 445.68 -3.53281 -2.59083 0
M  V30 4843 C 447.181 -2.22583 -3.83369 0
M  V30 4844 H 444.401 -0.460819 -0.487736 0
M  V30 4845 H 446.945 -1.79879 -0.972819 0
M  V30 4846 H 445.1 -1.75113 -3.45564 0
M  V30 4847 H 445.514 -3.9647 -3.43383 0
M  V30 4848 H 446.988 -2.84763 -4.72878 0
M  V30 4849 H 447.465 -1.23075 -4.21603 0
M  V30 4850 H 448.071 -2.64781 -3.32823 0
M  V30 4851 N 446.386 1.0089 -1.21074 0
M  V30 4852 C 447.333 2.09588 -0.966512 0
M  V30 4853 C 448.303 1.65761 0.106089 0
M  V30 4854 O 449.488 1.90758 -0.0402287 0
M  V30 4855 C 446.628 3.40958 -0.533058 0
M  V30 4856 C 445.741 3.9822 -1.67467 0
M  V30 4857 C 444.876 5.17682 -1.19076 0
M  V30 4858 C 443.915 5.67043 -2.30496 0
M  V30 4859 N 443.052 6.77759 -1.83267 0
M  V30 4860 H 447.892 2.29815 -1.89708 0
M  V30 4861 H 445.429 1.12689 -0.945489 0
M  V30 4862 H 447.387 4.1637 -0.263019 0
M  V30 4863 H 446.017 3.20781 0.360505 0
M  V30 4864 H 445.069 3.1983 -2.05944 0
M  V30 4865 H 446.381 4.3085 -2.51336 0
M  V30 4866 H 445.535 6.00326 -0.877151 0
M  V30 4867 H 444.274 4.86635 -0.322066 0
M  V30 4868 H 443.279 4.82999 -2.62664 0
M  V30 4869 H 444.504 6.00121 -3.17855 0
M  V30 4870 H 442.45 6.48527 -0.987356 0
M  V30 4871 H 442.367 7.09624 -2.60711 0
M  V30 4872 H 443.635 7.63949 -1.54928 0
M  V30 4873 N 447.864 1.01787 1.20321 0
M  V30 4874 C 448.797 0.533882 2.21867 0
M  V30 4875 C 449.775 -0.419361 1.57099 0
M  V30 4876 O 450.959 -0.339062 1.85426 0
M  V30 4877 C 448.086 -0.222899 3.37966 0
M  V30 4878 C 447.132 0.680091 4.21043 0
M  V30 4879 S 447.965 2.14997 4.90445 0
M  V30 4880 C 449.121 1.40339 6.09964 0
M  V30 4881 H 449.354 1.39429 2.62577 0
M  V30 4882 H 446.887 0.826867 1.30393 0
M  V30 4883 H 448.845 -0.653425 4.05266 0
M  V30 4884 H 447.506 -1.0589 2.95713 0
M  V30 4885 H 446.699 0.0964704 5.03908 0
M  V30 4886 H 446.301 1.04845 3.59004 0
M  V30 4887 H 448.593 0.68407 6.74038 0
M  V30 4888 H 449.536 2.20823 6.72787 0
M  V30 4889 H 449.944 0.905716 5.57187 0
M  V30 4890 N 449.342 -1.36122 0.79427 0
M  V30 4891 C 450.272 -2.32551 0.210328 0
M  V30 4892 C 451.253 -1.56884 -0.657386 0
M  V30 4893 O 452.438 -1.85014 -0.590207 0
M  V30 4894 C 449.568 -3.41128 -0.651819 0
M  V30 4895 C 448.522 -4.27842 0.116395 0
M  V30 4896 C 447.848 -5.2763 -0.86666 0
M  V30 4897 C 449.148 -5.05647 1.30837 0
M  V30 4898 H 450.842 -2.81636 1.01594 0
M  V30 4899 H 448.388 -1.35407 0.489981 0
M  V30 4900 H 450.341 -4.07581 -1.07031 0
M  V30 4901 H 449.065 -2.90622 -1.49019 0
M  V30 4902 H 447.724 -3.62952 0.515915 0
M  V30 4903 H 447.372 -4.73395 -1.70019 0
M  V30 4904 H 447.072 -5.86514 -0.35705 0
M  V30 4905 H 448.596 -5.96955 -1.28361 0
M  V30 4906 H 450.01 -5.65113 0.965393 0
M  V30 4907 H 448.407 -5.73967 1.75161 0
M  V30 4908 H 449.477 -4.37006 2.10128 0
M  V30 4909 N 450.82 -0.546701 -1.47814 0
M  V30 4910 C 451.752 0.244196 -2.27895 0
M  V30 4911 C 452.765 0.88911 -1.36377 0
M  V30 4912 O 453.954 0.764733 -1.61289 0
M  V30 4913 C 451.054 1.36252 -3.10304 0
M  V30 4914 C 450.227 0.816382 -4.29714 0
M  V30 4915 C 449.286 1.81789 -4.93801 0
M  V30 4916 O 448.312 1.36818 -5.52512 0
M  V30 4917 N 449.514 3.15085 -4.87547 0
M  V30 4918 H 452.279 -0.442694 -2.96412 0
M  V30 4919 H 449.84 -0.382095 -1.57327 0
M  V30 4920 H 451.832 2.03102 -3.50045 0
M  V30 4921 H 450.402 1.95281 -2.44099 0
M  V30 4922 H 449.622 -0.0285981 -3.9419 0
M  V30 4923 H 450.91 0.430668 -5.06974 0
M  V30 4924 H 450.308 3.54275 -4.41028 0
M  V30 4925 H 448.865 3.77522 -5.31339 0
M  V30 4926 N 452.299 1.55045 -0.282633 0
M  V30 4927 C 453.548 1.98938 0.332667 0
M  V30 4928 C 453.861 1.17455 1.56409 0
M  V30 4929 O 455.067 1.51527 2.25282 0
M  V30 4930 C 453.523 3.54105 0.643226 0
M  V30 4931 C 453.131 4.44374 -0.568814 0
M  V30 4932 C 454.875 4.06569 1.22074 0
M  V30 4933 C 452.782 5.90943 -0.232426 0
M  V30 4934 H 451.712 0.743043 0.128075 0
M  V30 4935 H 454.363 1.79341 -0.388464 0
M  V30 4936 H 452.745 3.69532 1.42346 0
M  V30 4937 H 453.919 4.40718 -1.34551 0
M  V30 4938 H 452.234 4.02585 -1.06369 0
M  V30 4939 H 454.831 5.13626 1.48635 0
M  V30 4940 H 455.174 3.56057 2.15707 0
M  V30 4941 H 455.707 3.94612 0.502621 0
M  V30 4942 H 452.446 6.45567 -1.13683 0
M  V30 4943 H 451.966 5.9765 0.507357 0
M  V30 4944 H 453.645 6.4677 0.172657 0
M  V30 4945 N 453.777 0.010035 1.57597 0
M  V30 4946 C 455.005 -0.683413 1.95287 0
M  V30 4947 C 455.42 -1.66747 0.885481 0
M  V30 4948 O 454.777 -1.82003 -0.134629 0
M  V30 4949 C 454.828 -1.40652 3.33015 0
M  V30 4950 O 454.549 -0.461916 4.35658 0
M  V30 4951 C 456.05 -2.19356 3.85225 0
M  V30 4952 H 453.27 -0.189708 0.643624 0
M  V30 4953 H 455.814 0.0641359 2.04399 0
M  V30 4954 H 453.969 -2.10562 3.2518 0
M  V30 4955 H 454.383 -0.973215 5.15392 0
M  V30 4956 H 455.857 -2.65433 4.83993 0
M  V30 4957 H 456.334 -3.02457 3.18459 0
M  V30 4958 H 456.94 -1.54442 3.96267 0
M  V30 4959 N 455.255 -1.55392 -0.262866 0
M  V30 4960 C 456.203 -1.8977 -1.345 0
M  V30 4961 C 457.197 -0.775063 -1.50629 0
M  V30 4962 O 458.403 -0.959519 -1.52293 0
M  V30 4963 H 454.778 -0.602467 -0.450041 0
M  V30 4964 H 456.749 -2.80147 -1.02762 0
M  V30 4965 C 455.498 -2.19501 -2.69657 0
M  V30 4966 H 454.821 -3.05378 -2.5804 0
M  V30 4967 H 456.261 -2.47469 -3.44289 0
M  V30 4968 C 454.72 -1.00597 -3.21531 0
M  V30 4969 O 455.25 -0.245768 -4.00947 0
M  V30 4970 N 453.456 -0.800911 -2.79345 0
M  V30 4971 H 453.003 -1.42079 -2.14875 0
M  V30 4972 H 452.961 -0.00697996 -3.14399 0
M  V30 4973 N 456.733 0.527833 -1.48498 0
M  V30 4974 C 457.961 1.30823 -1.6029 0
M  V30 4975 C 458.376 1.86945 -0.263974 0
M  V30 4976 O 457.733 1.6651 0.747034 0
M  V30 4977 C 457.784 2.45756 -2.65116 0
M  V30 4978 O 457.505 1.91946 -3.93813 0
M  V30 4979 C 459.006 3.37543 -2.87367 0
M  V30 4980 H 456.226 0.397763 -0.540394 0
M  V30 4981 H 458.77 0.636529 -1.94341 0
M  V30 4982 H 456.925 3.08806 -2.33917 0
M  V30 4983 H 457.339 2.67195 -4.51339 0
M  V30 4984 H 458.813 4.14532 -3.6451 0
M  V30 4985 H 459.29 3.92905 -1.9627 0
M  V30 4986 H 459.896 2.80283 -3.19878 0
M  V30 4987 N 458.211 1.37122 0.776871 0
M  V30 4988 C 459.459 1.31787 1.53221 0
M  V30 4989 C 459.78 -0.0987589 1.9475 0
M  V30 4990 O 459.05 -1.0417 1.65908 0
M  V30 4991 H 457.63 0.484839 0.568278 0
M  V30 4992 H 460.292 1.71556 0.924917 0
M  V30 4993 H 459.388 1.95355 2.43398 0
M  V30 4994 N 459.689 -1.00246 1.21608 0
M  V30 4995 C 460.936 -1.74061 1.03485 0
M  V30 4996 C 461.264 -1.89658 -0.431308 0
M  V30 4997 O 460.519 -1.42976 -1.33627 0
M  V30 4998 C 460.818 -3.15448 1.68009 0
M  V30 4999 C 460.484 -3.19792 3.17874 0
M  V30 5000 C 459.146 -3.20685 3.58768 0
M  V30 5001 C 461.498 -3.16835 4.13842 0
M  V30 5002 C 458.826 -3.16309 4.94131 0
M  V30 5003 C 461.178 -3.14001 5.49169 0
M  V30 5004 C 459.842 -3.13204 5.89457 0
M  V30 5005 H 459.112 -0.636934 0.378677 0
M  V30 5006 H 461.759 -1.17473 1.51236 0
M  V30 5007 H 460.064 -3.75284 1.12557 0
M  V30 5008 H 461.761 -3.71285 1.51487 0
M  V30 5009 H 458.351 -3.19842 2.85305 0
M  V30 5010 H 462.535 -3.15303 3.83272 0
M  V30 5011 H 457.791 -3.14032 5.24589 0
M  V30 5012 H 461.965 -3.10667 6.23265 0
M  V30 5013 H 459.592 -3.09568 6.94314 0
M  V30 5014 N 461.167 -1.02423 -1.1978 0
M  V30 5015 C 462.077 -0.610919 -2.26506 0
M  V30 5016 C 463.093 0.355152 -1.70337 0
M  V30 5017 O 464.269 0.214195 -2.00258 0
M  V30 5018 C 461.334 0.0365921 -3.46681 0
M  V30 5019 C 460.395 -0.976389 -4.18049 0
M  V30 5020 C 459.628 -0.359683 -5.32487 0
M  V30 5021 O 459.851 0.838601 -5.64202 0
M  V30 5022 O 458.785 -1.08022 -5.92127 0
M  V30 5023 H 462.611 -1.49965 -2.64091 0
M  V30 5024 H 460.196 -0.794156 -1.26545 0
M  V30 5025 H 462.078 0.39786 -4.19518 0
M  V30 5026 H 460.753 0.899398 -3.10954 0
M  V30 5027 H 459.66 -1.38916 -3.47352 0
M  V30 5028 H 460.993 -1.80941 -4.57735 0
M  V30 5029 N 462.645 1.35699 -0.801477 0
M  V30 5030 C 463.578 2.2768 -0.153922 0
M  V30 5031 C 464.556 1.47832 0.67709 0
M  V30 5032 O 465.74 1.77104 0.645474 0
M  V30 5033 C 462.867 3.2943 0.786986 0
M  V30 5034 C 461.913 4.26485 0.0362447 0
M  V30 5035 S 462.746 5.19573 -1.2963 0
M  V30 5036 C 463.902 6.24866 -0.359705 0
M  V30 5037 H 464.135 2.82254 -0.9338 0
M  V30 5038 H 461.668 1.42421 -0.596283 0
M  V30 5039 H 463.626 3.8855 1.32436 0
M  V30 5040 H 462.287 2.73745 1.54021 0
M  V30 5041 H 461.48 4.98378 0.750668 0
M  V30 5042 H 461.082 3.71508 -0.431017 0
M  V30 5043 H 463.374 6.75957 0.456954 0
M  V30 5044 H 464.317 7.00307 -1.04768 0
M  V30 5045 H 464.725 5.64484 0.0423274 0
M  V30 5046 N 464.123 0.554532 1.47522 0
M  V30 5047 C 465.07 -0.19466 2.29978 0
M  V30 5048 C 466.04 -0.910882 1.38896 0
M  V30 5049 O 467.225 -0.907102 1.67858 0
M  V30 5050 C 464.365 -1.22035 3.22802 0
M  V30 5051 C 463.478 -0.510474 4.28973 0
M  V30 5052 C 462.613 -1.52123 5.08952 0
M  V30 5053 C 461.652 -0.796173 6.069 0
M  V30 5054 N 460.789 -1.75363 6.79847 0
M  V30 5055 H 465.629 0.51461 2.93523 0
M  V30 5056 H 463.166 0.265607 1.44682 0
M  V30 5057 H 465.124 -1.8276 3.7504 0
M  V30 5058 H 463.754 -1.89769 2.61127 0
M  V30 5059 H 462.806 0.211234 3.79813 0
M  V30 5060 H 464.118 0.0576503 4.98767 0
M  V30 5061 H 463.272 -2.20207 5.65326 0
M  V30 5062 H 462.011 -2.12327 4.39054 0
M  V30 5063 H 461.016 -0.101388 5.49707 0
M  V30 5064 H 462.241 -0.199911 6.78806 0
M  V30 5065 H 460.187 -2.3443 6.12682 0
M  V30 5066 H 460.104 -1.23759 7.45801 0
M  V30 5067 H 461.372 -2.4257 7.40797 0
M  V30 5068 N 465.601 -1.54893 0.290851 0
M  V30 5069 C 466.531 -2.26103 -0.583084 0
M  V30 5070 C 467.512 -1.25684 -1.14619 0
M  V30 5071 O 468.697 -1.54436 -1.17741 0
M  V30 5072 C 465.827 -2.99409 -1.75987 0
M  V30 5073 C 464.781 -4.0689 -1.32758 0
M  V30 5074 C 464.107 -4.67856 -2.58872 0
M  V30 5075 C 465.407 -5.20215 -0.46624 0
M  V30 5076 H 467.101 -2.99398 0.0108214 0
M  V30 5077 H 464.647 -1.43998 0.00664468 0
M  V30 5078 H 466.6 -3.47943 -2.37727 0
M  V30 5079 H 465.324 -2.23675 -2.37985 0
M  V30 5080 H 463.983 -3.59191 -0.733299 0
M  V30 5081 H 463.631 -3.88772 -3.19163 0
M  V30 5082 H 463.331 -5.40438 -2.30653 0
M  V30 5083 H 464.855 -5.19147 -3.21433 0
M  V30 5084 H 466.269 -5.64704 -0.989047 0
M  V30 5085 H 464.666 -5.99455 -0.27826 0
M  V30 5086 H 465.736 -4.82198 0.511173 0
M  V30 5087 N 467.08 -0.0183926 -1.57589 0
M  V30 5088 C 468.496 0.337897 -1.55982 0
M  V30 5089 C 468.696 1.73604 -1.02294 0
M  V30 5090 O 467.752 2.43589 -0.664895 0
M  V30 5091 C 469.065 0.196305 -3.00059 0
M  V30 5092 C 470.613 0.269875 -3.11834 0
M  V30 5093 C 471.088 0.157197 -4.5773 0
M  V30 5094 N 472.579 0.214521 -4.62703 0
M  V30 5095 C 473.314 0.150955 -5.73201 0
M  V30 5096 N 472.81 0.0369212 -6.9279 0
M  V30 5097 N 474.603 0.204162 -5.61729 0
M  V30 5098 H 466.754 -0.93279 -1.90821 0
M  V30 5099 H 469.017 -0.359253 -0.877292 0
M  V30 5100 H 468.723 -0.766383 -3.43248 0
M  V30 5101 H 468.597 0.970908 -3.6449 0
M  V30 5102 H 470.984 1.22302 -2.68563 0
M  V30 5103 H 471.065 -0.534918 -2.50144 0
M  V30 5104 H 470.709 -0.792479 -5.01679 0
M  V30 5105 H 470.639 0.980717 -5.17387 0
M  V30 5106 H 473.13 0.303238 -3.76681 0
M  V30 5107 H 473.443 -0.00518321 -7.728 0
M  V30 5108 H 471.788 0.0022886 -6.95 0
M  V30 5109 H 474.979 0.291575 -4.67191 0
M  V30 5110 H 475.152 0.15116 -6.47824 0
M  V30 5111 N 468.558 1.5553 0.254621 0
M  V30 5112 C 469.804 1.77262 0.985193 0
M  V30 5113 C 470.137 0.582286 1.85265 0
M  V30 5114 O 469.412 -0.419666 1.89919 0
M  V30 5115 C 469.695 3.0881 1.85225 0
M  V30 5116 C 469.548 4.38233 1.0135 0
M  V30 5117 C 470.867 3.3653 2.83612 0
M  V30 5118 H 467.986 0.644906 0.356742 0
M  V30 5119 H 470.628 1.88264 0.256236 0
M  V30 5120 H 468.778 2.99562 2.47376 0
M  V30 5121 H 470.45 4.59463 0.411269 0
M  V30 5122 H 468.693 4.32636 0.317574 0
M  V30 5123 H 469.364 5.26644 1.65379 0
M  V30 5124 H 471.84 3.45691 2.31596 0
M  V30 5125 H 470.716 4.29805 3.41407 0
M  V30 5126 H 470.977 2.57064 3.59681 0
M  V30 5127 N 470.036 -0.519951 1.48776 0
M  V30 5128 C 470.946 -1.65025 1.66745 0
M  V30 5129 C 471.962 -1.6508 0.549954 0
M  V30 5130 O 473.138 -1.83848 0.822295 0
M  V30 5131 C 470.203 -3.0146 1.71238 0
M  V30 5132 C 469.264 -3.12182 2.94688 0
M  V30 5133 C 468.497 -4.42109 2.98958 0
M  V30 5134 O 468.72 -5.29799 2.1135 0
M  V30 5135 O 467.654 -4.57406 3.91233 0
M  V30 5136 H 471.48 -1.52801 2.62461 0
M  V30 5137 H 469.065 -0.694157 1.32294 0
M  V30 5138 H 470.947 -3.82584 1.76657 0
M  V30 5139 H 469.622 -3.13988 0.786975 0
M  V30 5140 H 468.529 -2.30316 2.94797 0
M  V30 5141 H 469.862 -3.04574 3.86646 0
M  V30 5142 N 471.514 -1.37532 -0.769588 0
M  V30 5143 C 472.477 -1.33292 -1.86456 0
M  V30 5144 C 473.477 -0.236537 -1.59051 0
M  V30 5145 O 474.667 -0.492511 -1.67093 0
M  V30 5146 C 471.799 -1.07118 -3.23633 0
M  V30 5147 H 472.992 -2.30692 -1.91628 0
M  V30 5148 H 470.545 -1.22593 -0.969572 0
M  V30 5149 H 471.28 -0.102578 -3.24138 0
M  V30 5150 H 471.065 -1.86479 -3.44917 0
M  V30 5151 H 472.555 -1.06806 -4.03711 0
M  V30 5152 N 472.992 0.995999 -1.22138 0
M  V30 5153 C 474.408 1.25917 -0.980667 0
M  V30 5154 C 474.608 1.98819 0.327604 0
M  V30 5155 O 473.664 2.29587 1.05101 0
M  V30 5156 C 474.977 2.07399 -2.17729 0
M  V30 5157 C 476.525 2.20594 -2.22052 0
M  V30 5158 C 477 3.05462 -3.41258 0
M  V30 5159 N 478.491 3.13049 -3.41401 0
M  V30 5160 C 479.226 3.78997 -4.30289 0
M  V30 5161 N 478.722 4.46899 -5.2939 0
M  V30 5162 N 480.515 3.75728 -4.18073 0
M  V30 5163 H 472.666 0.507158 -2.06256 0
M  V30 5164 H 474.929 0.28658 -0.903646 0
M  V30 5165 H 474.635 1.61191 -3.12586 0
M  V30 5166 H 474.509 3.08154 -2.17534 0
M  V30 5167 H 476.896 2.66017 -1.27745 0
M  V30 5168 H 476.977 1.1928 -2.26287 0
M  V30 5169 H 476.621 2.60739 -4.35864 0
M  V30 5170 H 476.551 4.06911 -3.34262 0
M  V30 5171 H 479.042 2.64721 -2.69688 0
M  V30 5172 H 479.355 4.94952 -5.935 0
M  V30 5173 H 477.7 4.45657 -5.33306 0
M  V30 5174 H 480.891 3.2184 -3.39907 0
M  V30 5175 H 481.064 4.26845 -4.87553 0
M  V30 5176 N 474.47 1.03057 1.19235 0
M  V30 5177 C 475.719 0.72326 1.88287 0
M  V30 5178 C 476.032 -0.751333 1.80594 0
M  V30 5179 O 477.238 -1.17176 2.44912 0
M  V30 5180 C 475.694 1.24338 3.3774 0
M  V30 5181 C 475.302 2.74587 3.53986 0
M  V30 5182 C 477.046 1.01213 4.12257 0
M  V30 5183 C 474.953 3.20009 4.97341 0
M  V30 5184 H 473.883 0.266848 0.705201 0
M  V30 5185 H 476.534 1.24509 1.34795 0
M  V30 5186 H 474.916 0.649457 3.90638 0
M  V30 5187 H 476.09 3.39649 3.11408 0
M  V30 5188 H 474.405 2.9601 2.9286 0
M  V30 5189 H 477.002 1.32675 5.17978 0
M  V30 5190 H 477.345 -0.051001 4.16269 0
M  V30 5191 H 477.878 1.57014 3.65501 0
M  V30 5192 H 474.617 4.25659 4.98493 0
M  V30 5193 H 474.137 2.59676 5.40674 0
M  V30 5194 H 475.816 3.13447 5.66003 0
M  V30 5195 N 475.948 -1.35272 0.808662 0
M  V30 5196 C 477.364 -1.51806 0.492653 0
M  V30 5197 C 477.564 -1.7574 -0.985778 0
M  V30 5198 O 476.62 -1.80003 -1.77074 0
M  V30 5199 C 477.933 -2.69202 1.33981 0
M  V30 5200 C 479.481 -2.8308 1.33547 0
M  V30 5201 C 479.956 -4.03502 2.16679 0
M  V30 5202 N 481.447 -4.10684 2.14227 0
M  V30 5203 C 482.182 -5.02984 2.75308 0
M  V30 5204 N 481.678 -6.00603 3.45323 0
M  V30 5205 N 483.471 -4.95746 2.64938 0
M  V30 5206 H 475.622 -1.17993 1.76611 0
M  V30 5207 H 477.885 -0.577476 0.751814 0
M  V30 5208 H 477.591 -2.581 2.38909 0
M  V30 5209 H 477.465 -3.63854 0.994491 0
M  V30 5210 H 479.852 -2.93631 0.294036 0
M  V30 5211 H 479.933 -1.89278 1.72068 0
M  V30 5212 H 479.577 -3.93711 3.20864 0
M  V30 5213 H 479.507 -4.96489 1.75517 0
M  V30 5214 H 481.998 -3.40802 1.63285 0
M  V30 5215 H 482.311 -6.67633 3.89212 0
M  V30 5216 H 480.656 -6.0077 3.49428 0
M  V30 5217 H 483.847 -4.18439 2.09825 0
M  V30 5218 H 484.02 -5.67487 3.12829 0
M  V30 5219 N 477.426 -0.562348 -1.47226 0
M  V30 5220 C 478.336 0.185466 -2.33866 0
M  V30 5221 C 479.352 0.906713 -1.48508 0
M  V30 5222 O 480.528 0.874458 -1.81425 0
M  V30 5223 C 477.593 1.19904 -3.25306 0
M  V30 5224 C 476.654 0.484669 -4.26555 0
M  V30 5225 C 475.887 1.44996 -5.13626 0
M  V30 5226 O 476.11 2.68515 -5.03245 0
M  V30 5227 O 475.044 0.971642 -5.94006 0
M  V30 5228 H 478.87 -0.525361 -2.99121 0
M  V30 5229 H 476.455 -0.322916 -1.45868 0
M  V30 5230 H 478.337 1.78399 -3.81774 0
M  V30 5231 H 477.012 1.8917 -2.62672 0
M  V30 5232 H 475.919 -0.141605 -3.73832 0
M  V30 5233 H 477.252 -0.166634 -4.91918 0
M  V30 5234 N 478.904 1.54736 -0.299062 0
M  V30 5235 C 479.814 2.27127 0.587413 0
M  V30 5236 C 480.83 1.30575 1.15005 0
M  V30 5237 O 482.006 1.63554 1.17525 0
M  V30 5238 C 479.071 2.99645 1.74395 0
M  V30 5239 C 478.132 4.11731 1.21559 0
M  V30 5240 C 477.365 4.80781 2.317 0
M  V30 5241 O 477.588 4.4918 3.51558 0
M  V30 5242 O 476.522 5.68226 1.98501 0
M  V30 5243 H 480.348 3.037 0.000250109 0
M  V30 5244 H 477.933 1.49256 -0.0655919 0
M  V30 5245 H 479.815 3.45138 2.4178 0
M  V30 5246 H 478.49 2.25969 2.31775 0
M  V30 5247 H 477.397 3.70641 0.507514 0
M  V30 5248 H 478.73 4.87379 0.687233 0
M  V30 5249 N 480.382 0.0267497 1.57577 0
M  V30 5250 C 481.63 -0.651116 1.91324 0
M  V30 5251 C 481.951 -1.72804 0.90353 0
M  V30 5252 O 481.221 -1.95822 -0.0552946 0
M  V30 5253 H 479.801 -0.243491 0.706202 0
M  V30 5254 H 482.463 0.0739935 1.94759 0
M  V30 5255 H 481.559 -1.10536 2.9187 0
M  V30 5256 N 481.861 -1.55662 -0.24637 0
M  V30 5257 C 483.089 -1.81575 -0.991876 0
M  V30 5258 C 483.504 -0.602545 -1.78927 0
M  V30 5259 O 482.861 0.428795 -1.77391 0
M  V30 5260 C 482.912 -3.05711 -1.92933 0
M  V30 5261 O 482.633 -4.22348 -1.1642 0
M  V30 5262 C 484.134 -3.44428 -2.79078 0
M  V30 5263 H 481.354 -0.604209 -0.291844 0
M  V30 5264 H 483.898 -2.02722 -0.269095 0
M  V30 5265 H 482.053 -2.86612 -2.60638 0
M  V30 5266 H 482.467 -4.92706 -1.79835 0
M  V30 5267 H 483.941 -4.34388 -3.40603 0
M  V30 5268 H 484.418 -2.65037 -3.50217 0
M  V30 5269 H 485.024 -3.65879 -2.16824 0
M  V30 5270 N 483.339 0.512053 -1.4905 0
M  V30 5271 C 484.616 1.27337 -1.48474 0
M  V30 5272 C 484.996 2.1009 -0.206301 0
M  V30 5273 O 484.344 2.136 0.811609 0
M  V30 5274 C 484.554 2.13954 -2.75726 0
M  V30 5275 C 485.902 2.73507 -3.24776 0
M  V30 5276 O 486.926 2.24229 -2.76767 0
M  V30 5277 O 485.785 3.63186 -4.08361 0
M  V30 5278 H 482.879 0.575652 -0.593762 0
M  V30 5279 H 485.425 0.527232 -1.61302 0
M  V30 5280 H 484.197 1.52709 -3.60272 0
M  V30 5281 H 483.82 2.95782 -2.65705 0
M  V30 5282 N 484.817 1.37938 0.762283 0
M  V30 5283 C 485.747 1.37176 1.88958 0
M  V30 5284 C 486.728 0.238945 1.68413 0
M  V30 5285 O 487.913 0.440726 1.89133 0
M  V30 5286 C 485.043 1.18742 3.2637 0
M  V30 5287 C 483.997 2.29136 3.61498 0
M  V30 5288 C 483.323 1.95816 4.97554 0
M  V30 5289 C 484.623 3.71363 3.6727 0
M  V30 5290 H 486.317 2.31509 1.89853 0
M  V30 5291 H 483.863 1.11438 0.912005 0
M  V30 5292 H 485.816 1.16837 4.04879 0
M  V30 5293 H 484.54 0.208683 3.25933 0
M  V30 5294 H 483.199 2.30213 2.85303 0
M  V30 5295 H 482.847 0.964475 4.93667 0
M  V30 5296 H 482.547 2.69745 5.22026 0
M  V30 5297 H 484.071 1.95513 5.78452 0
M  V30 5298 H 485.485 3.72364 4.35911 0
M  V30 5299 H 483.882 4.44425 4.03245 0
M  V30 5300 H 484.952 4.04305 2.67704 0
M  V30 5301 N 486.295 -0.989507 1.22664 0
M  V30 5302 C 487.205 -2.11449 1.01619 0
M  V30 5303 C 488.221 -1.73962 -0.036545 0
M  V30 5304 O 489.397 -2.00788 0.156924 0
M  V30 5305 C 486.462 -3.41465 0.600204 0
M  V30 5306 C 485.523 -3.93033 1.72695 0
M  V30 5307 C 484.756 -5.16844 1.33071 0
M  V30 5308 O 484.979 -5.7001 0.210975 0
M  V30 5309 O 483.913 -5.6225 2.14845 0
M  V30 5310 H 487.739 -2.32088 1.9588 0
M  V30 5311 H 485.324 -1.09823 1.01289 0
M  V30 5312 H 487.206 -4.19695 0.37873 0
M  V30 5313 H 485.881 -3.22178 -0.313511 0
M  V30 5314 H 484.788 -3.15961 2.00298 0
M  V30 5315 H 486.121 -4.16758 2.61865 0
M  V30 5316 N 487.773 -1.03688 -1.18687 0
M  V30 5317 C 489.019 -0.739123 -1.88851 0
M  V30 5318 C 489.352 0.731042 -1.79915 0
M  V30 5319 O 488.627 1.53313 -1.19688 0
M  V30 5320 C 488.91 -1.20106 -3.3948 0
M  V30 5321 C 488.763 -2.73304 -3.57246 0
M  V30 5322 C 490.082 -0.788134 -4.32986 0
M  V30 5323 H 487.201 -0.269978 -0.68577 0
M  V30 5324 H 489.843 -1.28822 -1.3966 0
M  V30 5325 H 487.993 -0.733915 -3.81505 0
M  V30 5326 H 489.665 -3.28027 -3.24339 0
M  V30 5327 H 487.908 -3.13313 -3.00029 0
M  V30 5328 H 488.579 -3.00684 -4.62918 0
M  V30 5329 H 491.055 -1.19005 -3.98719 0
M  V30 5330 H 489.931 -1.13915 -5.36949 0
M  V30 5331 H 490.192 0.308988 -4.41019 0
M  V30 5332 N 489.251 1.34841 -0.815825 0
M  V30 5333 C 490.479 2.0273 -0.413294 0
M  V30 5334 C 490.894 1.61459 0.978599 0
M  V30 5335 O 490.251 0.816584 1.63212 0
M  V30 5336 C 490.302 3.58058 -0.497676 0
M  V30 5337 O 490.023 3.97832 -1.8347 0
M  V30 5338 C 491.524 4.4321 -0.0891339 0
M  V30 5339 H 488.744 0.649956 -0.166728 0
M  V30 5340 H 491.288 1.72267 -1.10201 0
M  V30 5341 H 489.443 3.87136 0.142886 0
M  V30 5342 H 489.857 4.92501 -1.80396 0
M  V30 5343 H 491.331 5.5164 -0.199274 0
M  V30 5344 H 491.808 4.28432 0.966571 0
M  V30 5345 H 492.414 4.19446 -0.703214 0
M  V30 5346 N 490.729 0.570148 1.46925 0
M  V30 5347 C 491.692 -0.159933 2.28641 0
M  V30 5348 C 492.692 -0.830638 1.37685 0
M  V30 5349 O 493.882 -0.684516 1.60187 0
M  V30 5350 C 491.014 -1.2354 3.17727 0
M  V30 5351 H 492.207 0.558035 2.94662 0
M  V30 5352 H 489.76 0.327603 1.52828 0
M  V30 5353 H 490.495 -1.98535 2.56426 0
M  V30 5354 H 490.28 -0.759125 3.84681 0
M  V30 5355 H 491.77 -1.74782 3.79264 0
M  V30 5356 N 492.207 -1.54576 0.307264 0
M  V30 5357 C 493.155 -2.25208 -0.581723 0
M  V30 5358 C 494.149 -1.26031 -1.13192 0
M  V30 5359 O 495.355 -1.43862 -1.08184 0
M  V30 5360 H 491.73 -0.723173 -0.206214 0
M  V30 5361 H 493.701 -2.98378 0.0364663 0
M  V30 5362 C 492.45 -3.01086 -1.73904 0
M  V30 5363 H 491.773 -3.77208 -1.32491 0
M  V30 5364 H 493.213 -3.5378 -2.33701 0
M  V30 5365 C 491.672 -2.08422 -2.64692 0
M  V30 5366 O 492.202 -1.65636 -3.65961 0
M  V30 5367 N 490.408 -1.74247 -2.32564 0
M  V30 5368 H 489.955 -2.09238 -1.50257 0
M  V30 5369 H 489.913 -1.12524 -2.93574 0
M  V30 5370 N 493.685 -0.035106 -1.57561 0
M  V30 5371 C 495.101 0.321334 -1.56332 0
M  V30 5372 C 495.301 1.72509 -1.04129 0
M  V30 5373 O 494.357 2.4287 -0.690694 0
M  V30 5374 C 495.67 0.164469 -3.0025 0
M  V30 5375 C 497.218 0.236786 -3.12103 0
M  V30 5376 C 497.693 0.10864 -4.57871 0
M  V30 5377 N 499.184 0.165433 -4.62904 0
M  V30 5378 C 499.919 0.0901506 -5.73329 0
M  V30 5379 N 499.415 -0.0365606 -6.9279 0
M  V30 5380 N 501.208 0.144572 -5.61914 0
M  V30 5381 H 493.359 -0.952976 -1.89821 0
M  V30 5382 H 495.622 -0.368537 -0.873432 0
M  V30 5383 H 495.328 -0.802746 -3.42416 0
M  V30 5384 H 495.202 0.932194 -3.655 0
M  V30 5385 H 497.589 1.19446 -2.69845 0
M  V30 5386 H 497.67 -0.561419 -2.49563 0
M  V30 5387 H 497.314 -0.845644 -5.00811 0
M  V30 5388 H 497.244 0.925786 -5.18398 0
M  V30 5389 H 499.735 0.263269 -3.76982 0
M  V30 5390 H 500.048 -0.0871487 -7.72751 0
M  V30 5391 H 498.393 -0.0714256 -6.94963 0
M  V30 5392 H 501.584 0.242006 -4.67474 0
M  V30 5393 H 501.757 0.0824413 -6.47948 0
M  V30 5394 N 495.163 1.55791 0.238111 0
M  V30 5395 C 496.412 1.77234 0.962868 0
M  V30 5396 C 496.725 0.600661 1.86149 0
M  V30 5397 O 497.931 0.698315 2.62366 0
M  V30 5398 C 496.387 3.13808 1.76218 0
M  V30 5399 C 495.995 4.3865 0.910518 0
M  V30 5400 C 497.739 3.44585 2.47914 0
M  V30 5401 C 495.646 5.66252 1.70623 0
M  V30 5402 H 494.576 0.660731 0.36325 0
M  V30 5403 H 497.227 1.8221 0.217242 0
M  V30 5404 H 495.609 3.02963 2.55009 0
M  V30 5405 H 496.783 4.60507 0.164316 0
M  V30 5406 H 495.098 4.15271 0.30647 0
M  V30 5407 H 497.695 4.3714 3.07917 0
M  V30 5408 H 498.038 2.66314 3.19973 0
M  V30 5409 H 498.571 3.56685 1.76127 0
M  V30 5410 H 495.31 6.47369 1.02923 0
M  V30 5411 H 494.83 5.48483 2.42748 0
M  V30 5412 H 496.509 6.05829 2.27114 0
M  V30 5413 N 496.642 -0.504142 1.49319 0
M  V30 5414 C 497.867 -1.28729 1.62615 0
M  V30 5415 C 498.292 -1.85752 0.296309 0
M  V30 5416 O 497.65 -1.65704 -0.735649 0
M  V30 5417 C 497.698 -2.39561 2.69524 0
M  V30 5418 O 496.802 -3.43324 2.28478 0
M  V30 5419 H 496.143 -0.380172 0.544395 0
M  V30 5420 H 498.673 -0.603872 1.95485 0
M  V30 5421 H 498.683 -2.8537 2.91595 0
M  V30 5422 H 497.358 -1.97423 3.66056 0
M  V30 5423 H 495.935 -3.03455 2.16725 0
M  V30 5424 N 498.12 -1.38341 -0.754957 0
M  V30 5425 C 499.03 -1.3769 -1.89944 0
M  V30 5426 C 500.046 -0.274194 -1.71826 0
M  V30 5427 O 501.222 -0.512391 -1.94773 0
M  V30 5428 C 498.287 -1.19938 -3.25293 0
M  V30 5429 C 497.348 -2.40001 -3.55946 0
M  V30 5430 C 496.581 -2.23087 -4.84838 0
M  V30 5431 O 496.804 -1.22386 -5.57116 0
M  V30 5432 O 495.738 -3.11646 -5.14937 0
M  V30 5433 H 499.564 -2.3412 -1.93446 0
M  V30 5434 H 497.149 -1.19246 -0.900044 0
M  V30 5435 H 499.031 -1.12093 -4.06218 0
M  V30 5436 H 497.706 -0.265919 -3.22606 0
M  V30 5437 H 496.613 -2.53421 -2.75188 0
M  V30 5438 H 497.946 -3.31973 -3.63394 0
M  V30 5439 N 499.598 0.982988 -1.23187 0
M  V30 5440 C 500.847 1.71817 -1.05649 0
M  V30 5441 C 501.16 1.91315 0.407176 0
M  V30 5442 O 502.366 2.62256 0.702436 0
M  V30 5443 C 500.822 3.09188 -1.84203 0
M  V30 5444 C 500.43 2.97586 -3.34882 0
M  V30 5445 C 502.174 3.86684 -1.75146 0
M  V30 5446 C 500.081 4.30173 -4.05839 0
M  V30 5447 H 499.011 0.644258 -0.391724 0
M  V30 5448 H 501.662 1.09659 -1.4713 0
M  V30 5449 H 500.044 3.72087 -1.35527 0
M  V30 5450 H 501.218 2.43793 -3.91026 0
M  V30 5451 H 499.533 2.33567 -3.44725 0
M  V30 5452 H 502.13 4.84836 -2.25473 0
M  V30 5453 H 502.473 4.10136 -0.713737 0
M  V30 5454 H 503.006 3.30482 -2.21419 0
M  V30 5455 H 499.745 4.11918 -5.09906 0
M  V30 5456 H 499.265 4.83841 -3.54482 0
M  V30 5457 H 500.944 4.98873 -4.11989 0
M  V30 5458 N 501.076 1.04316 1.18135 0
M  V30 5459 C 502.304 0.768117 1.92113 0
M  V30 5460 C 502.719 -0.675057 1.76319 0
M  V30 5461 O 502.076 -1.46038 1.09449 0
M  V30 5462 C 502.127 1.12808 3.43448 0
M  V30 5463 O 501.848 2.5146 3.58747 0
M  V30 5464 C 503.349 0.8779 4.3452 0
M  V30 5465 H 500.569 0.279937 0.609817 0
M  V30 5466 H 503.113 1.39149 1.49859 0
M  V30 5467 H 501.268 0.549623 3.83481 0
M  V30 5468 H 501.682 2.65313 4.52448 0
M  V30 5469 H 503.156 1.17959 5.39249 0
M  V30 5470 H 503.633 -0.187239 4.38801 0
M  V30 5471 H 504.239 1.43977 4.00188 0
M  V30 5472 N 502.554 -1.34406 0.822964 0
M  V30 5473 C 503.502 -2.31428 0.233165 0
M  V30 5474 C 504.496 -1.57404 -0.626118 0
M  V30 5475 O 505.702 -1.72402 -0.517453 0
M  V30 5476 H 502.077 -0.749863 0.0566557 0
M  V30 5477 H 504.048 -2.78699 1.06628 0
M  V30 5478 C 502.797 -3.42653 -0.590264 0
M  V30 5479 H 502.12 -3.99753 0.0616129 0
M  V30 5480 H 503.56 -4.12778 -0.969054 0
M  V30 5481 C 502.019 -2.87112 -1.76262 0
M  V30 5482 O 502.549 -2.81995 -2.8608 0
M  V30 5483 N 500.755 -2.43934 -1.57938 0
M  V30 5484 H 500.302 -2.48296 -0.686078 0
M  V30 5485 H 500.26 -2.07123 -2.36532 0
M  V30 5486 N 504.032 -0.577932 -1.46621 0
M  V30 5487 C 505.281 -0.0594281 -2.01612 0
M  V30 5488 C 505.594 1.30663 -1.45556 0
M  V30 5489 O 506.8 1.91621 -1.92337 0
M  V30 5490 C 505.256 -0.0556666 -3.59857 0
M  V30 5491 C 504.864 -1.41975 -4.24908 0
M  V30 5492 C 506.608 0.409143 -4.22524 0
M  V30 5493 C 504.515 -1.37397 -5.75218 0
M  V30 5494 H 503.445 -0.0184469 -0.753774 0
M  V30 5495 H 506.096 -0.728869 -1.68404 0
M  V30 5496 H 504.478 0.679843 -3.90121 0
M  V30 5497 H 505.652 -2.17461 -4.0626 0
M  V30 5498 H 503.967 -1.82419 -3.74316 0
M  V30 5499 H 506.564 0.46211 -5.32699 0
M  V30 5500 H 506.907 1.42565 -3.91128 0
M  V30 5501 H 507.44 -0.272152 -3.96868 0
M  V30 5502 H 504.179 -2.36714 -6.11267 0
M  V30 5503 H 503.699 -0.661239 -5.96144 0
M  V30 5504 H 505.378 -1.08484 -6.3784 0
M  V30 5505 N 505.51 1.54411 -0.315457 0
M  V30 5506 C 506.756 2.00716 0.289972 0
M  V30 5507 C 507.089 1.2034 1.5242 0
M  V30 5508 O 506.364 0.283579 1.92422 0
M  V30 5509 C 506.647 3.54507 0.632196 0
M  V30 5510 C 506.5 4.45615 -0.61218 0
M  V30 5511 C 507.819 4.15421 1.45305 0
M  V30 5512 H 504.938 0.729637 0.10392 0
M  V30 5513 H 507.58 1.8506 -0.430427 0
M  V30 5514 H 505.73 3.67979 1.24595 0
M  V30 5515 H 507.402 4.44026 -1.25053 0
M  V30 5516 H 505.645 4.15621 -1.24264 0
M  V30 5517 H 506.316 5.51022 -0.328379 0
M  V30 5518 H 508.792 4.05474 0.934331 0
M  V30 5519 H 507.668 5.23157 1.66127 0
M  V30 5520 H 507.929 3.68223 2.44671 0
M  V30 5521 N 506.988 0.0434614 1.5754 0
M  V30 5522 C 508.213 -0.645358 1.97104 0
M  V30 5523 C 508.638 -1.64037 0.920521 0
M  V30 5524 O 507.996 -1.80922 -0.11708 0
M  V30 5525 C 508.044 -1.31547 3.35749 0
M  V30 5526 O 507.148 -2.43103 3.33129 0
M  V30 5527 H 506.489 -0.168403 0.64229 0
M  V30 5528 H 509.019 0.109573 2.04306 0
M  V30 5529 H 509.029 -1.66895 3.72304 0
M  V30 5530 H 507.704 -0.586205 4.11748 0
M  V30 5531 H 506.281 -2.0976 3.0831 0
M  V30 5532 N 508.466 -1.55915 -0.229846 0
M  V30 5533 C 509.413 -1.91734 -1.28478 0
M  V30 5534 C 510.383 -0.773539 -1.46988 0
M  V30 5535 O 511.568 -1.02871 -1.60693 0
M  V30 5536 C 508.708 -2.23224 -2.63182 0
M  V30 5537 C 507.821 -3.50497 -2.52539 0
M  V30 5538 C 506.956 -3.71474 -3.79711 0
M  V30 5539 C 505.995 -4.92289 -3.63755 0
M  V30 5540 N 505.132 -5.09698 -4.82858 0
M  V30 5541 H 509.972 -2.81692 -0.972308 0
M  V30 5542 H 507.509 -1.39429 -0.468815 0
M  V30 5543 H 509.467 -2.3949 -3.41614 0
M  V30 5544 H 508.097 -1.36451 -2.92542 0
M  V30 5545 H 507.149 -3.4247 -1.65585 0
M  V30 5546 H 508.461 -4.39079 -2.36666 0
M  V30 5547 H 507.615 -3.87791 -4.66586 0
M  V30 5548 H 506.354 -2.81157 -3.985 0
M  V30 5549 H 505.359 -4.7593 -2.75264 0
M  V30 5550 H 506.584 -5.84083 -3.46445 0
M  V30 5551 H 504.53 -4.22322 -5.01976 0
M  V30 5552 H 504.447 -5.92399 -4.69681 0
M  V30 5553 H 505.715 -5.30443 -5.71183 0
M  V30 5554 N 509.944 0.496216 -1.49584 0
M  V30 5555 C 510.874 1.60576 -1.69521 0
M  V30 5556 C 511.855 1.61169 -0.543933 0
M  V30 5557 O 513.04 1.77834 -0.78031 0
M  V30 5558 C 510.17 2.99038 -1.76616 0
M  V30 5559 C 509.124 3.13312 -2.91581 0
M  V30 5560 C 508.45 4.53172 -2.83794 0
M  V30 5561 C 509.75 2.92886 -4.32452 0
M  V30 5562 H 511.444 1.44146 -2.62416 0
M  V30 5563 H 508.99 0.692024 -1.26282 0
M  V30 5564 H 510.943 3.76564 -1.8915 0
M  V30 5565 H 509.667 3.16568 -0.80324 0
M  V30 5566 H 508.326 2.38213 -2.78658 0
M  V30 5567 H 507.974 4.67585 -1.854 0
M  V30 5568 H 507.674 4.63662 -3.60958 0
M  V30 5569 H 509.198 5.32752 -2.98342 0
M  V30 5570 H 510.612 3.60178 -4.46032 0
M  V30 5571 H 509.009 3.14844 -5.10875 0
M  V30 5572 H 510.079 1.88966 -4.46565 0
M  V30 5573 N 511.423 1.38739 0.74761 0
M  V30 5574 C 512.37 1.36449 1.86146 0
M  V30 5575 C 513.34 0.226098 1.64554 0
M  V30 5576 O 514.525 0.41926 1.86137 0
M  V30 5577 C 511.665 1.2013 3.23516 0
M  V30 5578 C 510.778 2.43407 3.56899 0
M  V30 5579 C 509.913 2.19773 4.83605 0
M  V30 5580 C 508.952 3.3879 5.09792 0
M  V30 5581 N 508.089 3.14553 6.27695 0
M  V30 5582 H 512.929 2.3167 1.87438 0
M  V30 5583 H 510.466 1.15094 0.916063 0
M  V30 5584 H 512.424 1.08683 4.02795 0
M  V30 5585 H 511.054 0.285453 3.21535 0
M  V30 5586 H 510.106 2.65504 2.72418 0
M  V30 5587 H 511.418 3.32094 3.72176 0
M  V30 5588 H 510.572 2.05496 5.70838 0
M  V30 5589 H 509.311 1.28461 4.70478 0
M  V30 5590 H 508.316 3.53579 4.21025 0
M  V30 5591 H 509.541 4.30986 5.24812 0
M  V30 5592 H 507.487 2.25893 6.1588 0
M  V30 5593 H 507.404 3.96791 6.435 0
M  V30 5594 H 508.672 3.03943 7.17801 0
M  V30 5595 N 512.901 -0.976442 1.23707 0
M  V30 5596 C 514.148 -1.71827 1.07153 0
M  V30 5597 C 514.476 -1.9053 -0.390982 0
M  V30 5598 O 513.731 -1.45779 -1.30564 0
M  V30 5599 C 514.03 -3.11814 1.74662 0
M  V30 5600 C 513.696 -3.12978 3.24585 0
M  V30 5601 C 512.358 -3.13003 3.6549 0
M  V30 5602 C 514.71 -3.07986 4.20469 0
M  V30 5603 C 512.038 -3.05757 5.00729 0
M  V30 5604 C 514.39 -3.02282 5.55705 0
M  V30 5605 C 513.054 -3.00631 5.95968 0
M  V30 5606 H 512.324 -0.628758 0.392102 0
M  V30 5607 H 514.971 -1.14239 1.53693 0
M  V30 5608 H 513.276 -3.72812 1.20492 0
M  V30 5609 H 514.973 -3.67989 1.59328 0
M  V30 5610 H 511.563 -3.13718 2.92026 0
M  V30 5611 H 515.747 -3.07103 3.89874 0
M  V30 5612 H 511.003 -3.02834 5.31132 0
M  V30 5613 H 515.177 -2.97376 6.29714 0
M  V30 5614 H 512.804 -2.94771 7.00724 0
M  V30 5615 N 514.379 -1.04941 -1.1758 0
M  V30 5616 C 515.625 -0.759112 -1.88057 0
M  V30 5617 C 515.958 0.711918 -1.8068 0
M  V30 5618 O 515.233 1.52035 -1.21308 0
M  V30 5619 C 515.516 -1.237 -3.38187 0
M  V30 5620 C 515.369 -2.77078 -3.54327 0
M  V30 5621 C 516.688 -0.834014 -4.32125 0
M  V30 5622 H 513.807 -0.277237 -0.682868 0
M  V30 5623 H 516.449 -1.30296 -1.38286 0
M  V30 5624 H 514.599 -0.774337 -3.80705 0
M  V30 5625 H 516.271 -3.31449 -3.20842 0
M  V30 5626 H 514.514 -3.16477 -2.96689 0
M  V30 5627 H 515.185 -3.05577 -4.59703 0
M  V30 5628 H 517.661 -1.23228 -3.97434 0
M  V30 5629 H 516.537 -1.19603 -5.35711 0
M  V30 5630 H 516.798 0.262195 -4.41322 0
M  V30 5631 N 515.857 1.33968 -0.830081 0
M  V30 5632 C 516.804 2.29387 -0.255008 0
M  V30 5633 C 517.774 1.53923 0.624243 0
M  V30 5634 O 518.959 1.82262 0.564372 0
M  V30 5635 C 516.099 3.4034 0.571209 0
M  V30 5636 C 515.212 4.30729 -0.331083 0
M  V30 5637 C 514.347 5.2879 0.505389 0
M  V30 5638 C 513.386 6.10819 -0.395843 0
M  V30 5639 N 512.523 7.00948 0.401979 0
M  V30 5640 H 517.363 2.77972 -1.07404 0
M  V30 5641 H 514.9 1.36785 -0.541133 0
M  V30 5642 H 516.858 4.03361 1.06562 0
M  V30 5643 H 515.488 2.9297 1.35529 0
M  V30 5644 H 514.54 3.68507 -0.943759 0
M  V30 5645 H 515.852 4.88181 -1.02377 0
M  V30 5646 H 515.006 5.97297 1.06399 0
M  V30 5647 H 513.745 4.71894 1.23155 0
M  V30 5648 H 512.75 5.41238 -0.966529 0
M  V30 5649 H 513.975 6.69797 -1.12023 0
M  V30 5650 H 511.921 6.46512 1.11168 0
M  V30 5651 H 511.838 7.55643 -0.232167 0
M  V30 5652 H 513.106 7.73774 0.943102 0
M  V30 5653 N 517.335 0.585699 1.46312 0
M  V30 5654 C 518.581 0.0725284 2.0267 0
M  V30 5655 C 518.914 -1.28523 1.45586 0
M  V30 5656 O 518.189 -1.84283 0.622101 0
M  V30 5657 C 518.472 0.0099788 3.60099 0
M  V30 5658 C 518.325 1.39685 4.27561 0
M  V30 5659 C 519.644 -0.689117 4.34671 0
M  V30 5660 H 516.763 0.0278307 0.736474 0
M  V30 5661 H 519.405 0.753472 1.74421 0
M  V30 5662 H 517.555 -0.56992 3.84297 0
M  V30 5663 H 519.227 2.02215 4.14617 0
M  V30 5664 H 517.47 1.96374 3.86807 0
M  V30 5665 H 518.141 1.30553 5.36339 0
M  V30 5666 H 520.617 -0.196446 4.15636 0
M  V30 5667 H 519.493 -0.701921 5.44393 0
M  V30 5668 H 519.754 -1.75101 4.05946 0
M  V30 5669 N 518.813 -1.54241 0.323641 0
M  V30 5670 C 520.09 -1.92741 -0.333181 0
M  V30 5671 C 520.47 -1.25326 -1.69872 0
M  V30 5672 O 519.818 -0.396991 -2.25025 0
M  V30 5673 C 520.028 -3.46399 -0.425322 0
M  V30 5674 C 521.376 -4.19029 -0.68557 0
M  V30 5675 O 522.4 -3.52555 -0.50824 0
M  V30 5676 O 521.259 -5.36751 -1.02767 0
M  V30 5677 H 518.353 -0.804811 -0.190286 0
M  V30 5678 H 520.899 -1.65542 0.373361 0
M  V30 5679 H 519.671 -3.87643 0.533737 0
M  V30 5680 H 519.294 -3.79704 -1.17944 0
M  V30 5681 N 520.291 -0.0518155 -1.57515 0
M  V30 5682 C 521.516 0.634896 -1.97443 0
M  V30 5683 C 521.941 1.63546 -0.929207 0
M  V30 5684 O 521.299 1.80981 0.107484 0
M  V30 5685 C 521.347 1.29765 -3.36442 0
M  V30 5686 O 520.451 2.41333 -3.34413 0
M  V30 5687 H 519.792 0.164994 -0.643174 0
M  V30 5688 H 522.322 -0.120407 -2.04245 0
M  V30 5689 H 522.332 1.64918 -3.73184 0
M  V30 5690 H 521.007 0.564361 -4.12053 0
M  V30 5691 H 519.584 2.08122 -3.09418 0
M  V30 5692 N 521.769 1.56035 0.221574 0
M  V30 5693 C 522.719 1.8881 1.27807 0
M  V30 5694 C 523.703 0.751177 1.42289 0
M  V30 5695 O 524.895 1.01359 1.45104 0
M  V30 5696 C 522.024 2.20828 2.6285 0
M  V30 5697 C 521.11 3.40912 2.52269 0
M  V30 5698 N 521.501 4.59531 2.1134 0
M  V30 5699 C 519.799 3.44526 2.83228 0
M  V30 5700 C 520.5 5.41689 2.1201 0
M  V30 5701 N 519.476 4.814 2.52497 0
M  V30 5702 H 523.278 2.78036 0.952529 0
M  V30 5703 H 520.792 1.566 0.430134 0
M  V30 5704 H 522.789 2.42483 3.39127 0
M  V30 5705 H 521.449 1.32914 2.9625 0
M  V30 5706 H 522.46 4.8469 1.82472 0
M  V30 5707 H 519.137 2.66956 3.21 0
M  V30 5708 H 520.527 6.46643 1.82491 0
M  V30 5709 N 523.247 -0.488276 1.49845 0
M  V30 5710 C 524.494 -1.24157 1.59973 0
M  V30 5711 C 524.822 -1.92293 0.292182 0
M  V30 5712 O 524.077 -1.81942 -0.720813 0
M  V30 5713 C 524.376 -2.32152 2.71735 0
M  V30 5714 C 524.042 -1.81387 4.12807 0
M  V30 5715 C 522.704 -1.67262 4.51195 0
M  V30 5716 C 525.056 -1.43537 5.01045 0
M  V30 5717 C 522.384 -1.13685 5.7558 0
M  V30 5718 C 524.736 -0.914081 6.25961 0
M  V30 5719 C 523.4 -0.759327 6.63167 0
M  V30 5720 H 522.67 -0.454322 0.585383 0
M  V30 5721 H 525.317 -0.540261 1.83721 0
M  V30 5722 H 523.622 -3.08122 2.42008 0
M  V30 5723 H 525.319 -2.90164 2.76778 0
M  V30 5724 H 521.909 -1.93344 3.82513 0
M  V30 5725 H 526.093 -1.53292 4.72033 0
M  V30 5726 H 521.349 -1.00426 6.03096 0
M  V30 5727 H 525.523 -0.612066 6.93705 0
M  V30 5728 H 523.15 -0.342002 7.5943 0
M  V30 5729 N 524.725 -1.39134 -0.740242 0
M  V30 5730 C 526.141 -1.20623 -1.0451 0
M  V30 5731 C 526.341 -0.0641651 -2.01398 0
M  V30 5732 O 525.397 0.585843 -2.4561 0
M  V30 5733 C 526.71 -2.53815 -1.6124 0
M  V30 5734 C 528.258 -2.60615 -1.73346 0
M  V30 5735 C 528.733 -3.94015 -2.33486 0
M  V30 5736 N 530.224 -3.95627 -2.40902 0
M  V30 5737 C 530.959 -4.95616 -2.88361 0
M  V30 5738 N 530.455 -6.06003 -3.35756 0
M  V30 5739 N 532.248 -4.82998 -2.87523 0
M  V30 5740 H 524.399 -2.12176 -0.0975576 0
M  V30 5741 H 526.662 -0.942066 -0.105904 0
M  V30 5742 H 526.368 -3.37911 -0.975144 0
M  V30 5743 H 526.242 -2.73162 -2.6012 0
M  V30 5744 H 528.629 -1.76906 -2.36195 0
M  V30 5745 H 528.71 -2.45123 -0.731336 0
M  V30 5746 H 528.354 -4.78153 -1.71267 0
M  V30 5747 H 528.284 -4.06825 -3.34366 0
M  V30 5748 H 530.775 -3.15903 -2.07398 0
M  V30 5749 H 531.088 -6.78215 -3.70464 0
M  V30 5750 H 529.433 -6.09604 -3.33778 0
M  V30 5751 H 532.624 -3.95866 -2.49816 0
M  V30 5752 H 532.797 -5.61072 -3.24196 0
M  V30 5753 N 526.204 0.969867 -1.24223 0
M  V30 5754 C 527.136 2.0669 -0.99055 0
M  V30 5755 C 528.149 1.62753 0.0392222 0
M  V30 5756 O 529.338 1.77403 -0.197561 0
M  V30 5757 C 526.438 3.35589 -0.472594 0
M  V30 5758 C 525.611 4.08444 -1.56499 0
M  V30 5759 C 524.67 5.15616 -1.05007 0
M  V30 5760 O 523.696 5.41911 -1.7413 0
M  V30 5761 N 524.898 5.80383 0.116641 0
M  V30 5762 H 527.663 2.28855 -1.93508 0
M  V30 5763 H 525.224 1.13733 -1.15223 0
M  V30 5764 H 527.216 4.04542 -0.112919 0
M  V30 5765 H 525.786 3.10311 0.377617 0
M  V30 5766 H 525.006 3.33798 -2.09696 0
M  V30 5767 H 526.294 4.53882 -2.29932 0
M  V30 5768 H 525.692 5.6142 0.694589 0
M  V30 5769 H 524.249 6.50462 0.417483 0
M  V30 5770 N 527.682 1.05563 1.17022 0
M  V30 5771 C 528.93 0.76642 1.87004 0
M  V30 5772 C 529.251 -0.708854 1.8166 0
M  V30 5773 O 528.521 -1.51242 1.2451 0
M  V30 5774 H 527.101 0.280516 0.692329 0
M  V30 5775 H 529.763 1.33557 1.41945 0
M  V30 5776 H 528.859 1.08472 2.92644 0
M  V30 5777 N 529.16 -1.33526 0.837174 0
M  V30 5778 C 530.409 -1.97098 0.428387 0
M  V30 5779 C 530.722 -1.67062 -1.01734 0
M  V30 5780 O 531.928 -2.24235 -1.53072 0
M  V30 5781 C 530.384 -3.52725 0.715075 0
M  V30 5782 C 529.992 -3.9164 2.17537 0
M  V30 5783 C 531.736 -4.22857 0.373154 0
M  V30 5784 C 529.643 -5.40237 2.40619 0
M  V30 5785 H 528.573 -0.737589 0.156455 0
M  V30 5786 H 531.224 -1.52169 1.02552 0
M  V30 5787 H 529.606 -3.95971 0.0475904 0
M  V30 5788 H 530.78 -3.59456 2.88319 0
M  V30 5789 H 529.095 -3.34485 2.4801 0
M  V30 5790 H 531.692 -5.32133 0.523264 0
M  V30 5791 H 532.035 -4.10647 -0.683708 0
M  V30 5792 H 532.568 -3.85135 0.995801 0
M  V30 5793 H 529.307 -5.57449 3.44864 0
M  V30 5794 H 528.827 -5.73887 1.74396 0
M  V30 5795 H 530.506 -6.07102 2.23688 0
M  V30 5796 N 530.638 -0.59345 -1.46 0
M  V30 5797 C 532.049 -0.169801 -1.85926 0
M  V30 5798 C 532.4 1.26984 -1.49565 0
M  V30 5799 O 531.525 1.96076 -0.915602 0
M  V30 5800 C 532.12 -0.301385 -3.37457 0
M  V30 5801 C 530.679 0.0674684 -3.7634 0
M  V30 5802 C 529.826 -0.632383 -2.69993 0
M  V30 5803 H 532.777 -0.801014 -1.37002 0
M  V30 5804 H 532.798 0.470331 -3.77582 0
M  V30 5805 H 532.31 -1.34927 -3.63891 0
M  V30 5806 H 530.411 1.11507 -3.55523 0
M  V30 5807 H 530.524 -0.316332 -4.78055 0
M  V30 5808 H 528.888 -0.0714961 -2.546 0
M  V30 5809 H 529.671 -1.68212 -2.99265 0
M  V30 5810 N 532.116 1.54067 -0.331816 0
M  V30 5811 C 533.363 2.00715 0.268269 0
M  V30 5812 C 533.691 1.21986 1.51491 0
M  V30 5813 O 532.946 0.292309 1.93505 0
M  V30 5814 C 533.245 3.51634 0.639392 0
M  V30 5815 C 532.911 4.48018 -0.509019 0
M  V30 5816 C 531.573 4.74089 -0.824209 0
M  V30 5817 C 533.925 5.05237 -1.28003 0
M  V30 5818 C 531.253 5.54637 -1.91298 0
M  V30 5819 C 533.605 5.86972 -2.35895 0
M  V30 5820 C 532.269 6.11342 -2.67987 0
M  V30 5821 H 531.539 0.734469 0.0981667 0
M  V30 5822 H 534.186 1.8596 -0.457304 0
M  V30 5823 H 532.491 3.6416 1.44551 0
M  V30 5824 H 534.188 3.85175 1.11539 0
M  V30 5825 H 530.778 4.27851 -0.253287 0
M  V30 5826 H 534.962 4.8507 -1.04978 0
M  V30 5827 H 530.218 5.71747 -2.16599 0
M  V30 5828 H 534.392 6.30327 -2.96076 0
M  V30 5829 H 532.019 6.73544 -3.5248 0
M  V30 5830 N 533.594 0.0601682 1.57485 0
M  V30 5831 C 534.841 -0.611594 1.93043 0
M  V30 5832 C 535.169 -1.70317 0.939274 0
M  V30 5833 O 534.424 -1.95644 -0.046996 0
M  V30 5834 C 534.723 -1.23831 3.35262 0
M  V30 5835 C 534.389 -0.274037 4.50066 0
M  V30 5836 C 533.051 -0.00872394 4.81199 0
M  V30 5837 C 535.403 0.386308 5.19766 0
M  V30 5838 C 532.731 0.924218 5.79375 0
M  V30 5839 C 535.083 1.3075 6.1894 0
M  V30 5840 C 533.747 1.58139 6.48497 0
M  V30 5841 H 533.017 -0.223798 0.706396 0
M  V30 5842 H 535.664 0.128566 1.91068 0
M  V30 5843 H 533.969 -2.05394 3.33647 0
M  V30 5844 H 535.666 -1.76517 3.60059 0
M  V30 5845 H 532.256 -0.491008 4.25778 0
M  V30 5846 H 536.44 0.194436 4.95919 0
M  V30 5847 H 531.696 1.1438 6.00606 0
M  V30 5848 H 535.87 1.82519 6.72056 0
M  V30 5849 H 533.497 2.30593 7.24383 0
M  V30 5850 N 535.072 -1.5615 -0.213296 0
M  V30 5851 C 536.035 -1.92249 -1.24792 0
M  V30 5852 C 537.035 -0.801828 -1.39382 0
M  V30 5853 O 538.225 -1.06948 -1.37506 0
M  V30 5854 C 535.357 -2.18056 -2.62039 0
M  V30 5855 H 536.55 -2.84793 -0.939845 0
M  V30 5856 H 534.103 -1.49559 -0.454062 0
M  V30 5857 H 534.838 -1.2809 -2.97932 0
M  V30 5858 H 534.623 -2.99703 -2.52825 0
M  V30 5859 H 536.113 -2.47051 -3.36683 0
M  V30 5860 N 536.55 0.480323 -1.50102 0
M  V30 5861 C 537.482 1.59669 -1.64433 0
M  V30 5862 C 538.495 1.54063 -0.52615 0
M  V30 5863 O 539.684 1.59619 -0.798992 0
M  V30 5864 C 536.784 2.98527 -1.6042 0
M  V30 5865 C 535.957 3.291 -2.88117 0
M  V30 5866 C 535.016 4.47468 -2.76873 0
M  V30 5867 O 534.042 4.4823 -3.50825 0
M  V30 5868 N 535.244 5.48593 -1.89806 0
M  V30 5869 H 538.009 1.47795 -2.60723 0
M  V30 5870 H 535.57 0.66858 -1.4745 0
M  V30 5871 H 537.562 3.75666 -1.50523 0
M  V30 5872 H 536.132 3.04218 -0.719036 0
M  V30 5873 H 535.352 2.40662 -3.12211 0
M  V30 5874 H 536.64 3.46334 -3.72734 0
M  V30 5875 H 536.038 5.50791 -1.2902 0
M  V30 5876 H 534.595 6.24752 -1.85819 0
M  V30 5877 N 538.028 1.39524 0.732853 0
M  V30 5878 C 539.274 1.37068 1.49467 0
M  V30 5879 C 539.607 -0.0327166 1.94172 0
M  V30 5880 O 538.882 -0.998071 1.66939 0
M  V30 5881 C 539.165 2.34494 2.73285 0
M  V30 5882 C 539.018 3.83784 2.34585 0
M  V30 5883 C 540.337 2.29717 3.75391 0
M  V30 5884 H 537.456 0.499206 0.542183 0
M  V30 5885 H 540.098 1.70532 0.837783 0
M  V30 5886 H 538.248 2.06087 3.29333 0
M  V30 5887 H 539.92 4.22949 1.84151 0
M  V30 5888 H 538.163 4.00455 1.66787 0
M  V30 5889 H 538.834 4.47444 3.23262 0
M  V30 5890 H 541.31 2.54839 3.28932 0
M  V30 5891 H 540.186 2.99962 4.59689 0
M  V30 5892 H 540.447 1.30291 4.22465 0
M  V30 5893 N 539.506 -0.963266 1.24736 0
M  V30 5894 C 540.436 -2.07628 1.06832 0
M  V30 5895 C 541.417 -1.70088 -0.0200566 0
M  V30 5896 O 542.602 -1.93636 0.147854 0
M  V30 5897 C 539.732 -3.40636 0.677069 0
M  V30 5898 C 538.686 -3.9215 1.71471 0
M  V30 5899 C 538.012 -5.21553 1.1784 0
M  V30 5900 C 539.312 -4.19493 3.11164 0
M  V30 5901 H 541.006 -2.22864 1.9993 0
M  V30 5902 H 538.552 -1.07093 0.96266 0
M  V30 5903 H 540.505 -4.17941 0.538792 0
M  V30 5904 H 539.229 -3.25313 -0.289612 0
M  V30 5905 H 537.888 -3.17005 1.84128 0
M  V30 5906 H 537.536 -5.02593 0.202195 0
M  V30 5907 H 537.236 -5.56988 1.87185 0
M  V30 5908 H 538.76 -6.01463 1.05233 0
M  V30 5909 H 540.174 -4.87487 3.01711 0
M  V30 5910 H 538.571 -4.66165 3.77902 0
M  V30 5911 H 539.641 -3.26097 3.58871 0
M  V30 5912 N 540.985 -1.06182 -1.16461 0
M  V30 5913 C 541.915 -0.692861 -2.22984 0
M  V30 5914 C 542.896 0.314122 -1.67174 0
M  V30 5915 O 544.081 0.189499 -1.93273 0
M  V30 5916 C 541.211 -0.07732 -3.47214 0
M  V30 5917 C 540.165 -1.01015 -4.15909 0
M  V30 5918 C 539.491 -0.257973 -5.34077 0
M  V30 5919 C 540.791 -2.33868 -4.67015 0
M  V30 5920 H 542.485 -1.58343 -2.54102 0
M  V30 5921 H 540.031 -0.76279 -1.22137 0
M  V30 5922 H 541.984 0.19266 -4.20959 0
M  V30 5923 H 540.708 0.848254 -3.15392 0
M  V30 5924 H 539.367 -1.26486 -3.44088 0
M  V30 5925 H 539.015 0.670684 -4.98509 0
M  V30 5926 H 538.715 -0.879638 -5.80979 0
M  V30 5927 H 540.239 0.00448788 -6.106 0
M  V30 5928 H 541.653 -2.1279 -5.32347 0
M  V30 5929 H 540.05 -2.91522 -5.24533 0
M  V30 5930 H 541.12 -2.97019 -3.83286 0
M  V30 5931 N 542.463 1.3308 -0.844243 0
M  V30 5932 C 543.709 1.97898 -0.443206 0
M  V30 5933 C 544.042 1.66699 0.99625 0
M  V30 5934 O 543.317 0.949704 1.69738 0
M  V30 5935 C 543.6 3.53801 -0.670606 0
M  V30 5936 C 543.453 3.94667 -2.15772 0
M  V30 5937 C 544.772 4.39936 -0.120226 0
M  V30 5938 H 541.891 0.718861 -0.162504 0
M  V30 5939 H 544.533 1.57633 -1.06075 0
M  V30 5940 H 542.683 3.88229 -0.14496 0
M  V30 5941 H 544.355 3.70469 -2.74865 0
M  V30 5942 H 542.598 3.44203 -2.6402 0
M  V30 5943 H 543.269 5.03275 -2.26757 0
M  V30 5944 H 545.745 4.12183 -0.5696 0
M  V30 5945 H 544.621 5.4803 -0.308984 0
M  V30 5946 H 544.882 4.31184 0.976347 0
M  V30 5947 N 543.941 0.601185 1.45683 0
M  V30 5948 C 545.218 0.0261659 1.95582 0
M  V30 5949 C 545.598 -1.4399 1.5437 0
M  V30 5950 O 544.946 -2.13919 0.80318 0
M  V30 5951 C 545.156 0.217557 3.48321 0
M  V30 5952 C 546.504 0.0950076 4.24494 0
M  V30 5953 O 547.528 0.147345 3.55895 0
M  V30 5954 O 546.387 -0.025261 5.46494 0
M  V30 5955 H 543.481 -0.0393688 0.826062 0
M  V30 5956 H 546.027 0.670798 1.55879 0
M  V30 5957 H 544.799 1.23601 3.71266 0
M  V30 5958 H 544.422 -0.46264 3.94899 0
M  V30 5959 N 545.419 -1.53889 0.339982 0
M  V30 5960 C 546.667 -2.00458 -0.257112 0
M  V30 5961 C 546.988 -1.22953 -1.51353 0
M  V30 5962 O 546.258 -0.335734 -1.93002 0
M  V30 5963 H 544.838 -0.740544 -0.0979965 0
M  V30 5964 H 547.5 -1.89386 0.460317 0
M  V30 5965 H 546.596 -3.08035 -0.502057 0
M  V30 5966 N 546.897 -0.0685191 -1.57451 0
M  V30 5967 C 547.844 0.899861 -2.12535 0
M  V30 5968 C 548.814 1.29749 -1.03703 0
M  V30 5969 O 549.999 1.38392 -1.31348 0
M  V30 5970 C 547.139 2.16328 -2.6888 0
M  V30 5971 C 546.252 1.81857 -3.91857 0
M  V30 5972 C 545.387 3.02786 -4.36457 0
M  V30 5973 C 544.426 2.64317 -5.5209 0
M  V30 5974 N 543.563 3.77994 -5.91663 0
M  V30 5975 H 548.403 0.423243 -2.94979 0
M  V30 5976 H 545.94 0.197268 -1.45771 0
M  V30 5977 H 547.898 2.90281 -2.99655 0
M  V30 5978 H 546.528 2.61536 -1.89206 0
M  V30 5979 H 545.58 0.979808 -3.67565 0
M  V30 5980 H 546.892 1.49553 -4.75852 0
M  V30 5981 H 546.046 3.85021 -4.68875 0
M  V30 5982 H 544.785 3.38281 -3.51308 0
M  V30 5983 H 543.79 1.80503 -5.19325 0
M  V30 5984 H 545.015 2.29995 -6.38967 0
M  V30 5985 H 542.961 4.13258 -5.09464 0
M  V30 5986 H 542.878 3.49447 -6.7039 0
M  V30 5987 H 544.146 4.60818 -6.28703 0
M  V30 5988 N 548.375 1.56261 0.205012 0
M  V30 5989 C 549.623 1.79684 0.925096 0
M  V30 5990 C 549.944 0.63989 1.84202 0
M  V30 5991 O 549.214 -0.342345 1.92885 0
M  V30 5992 H 547.794 0.662774 0.344587 0
M  V30 5993 H 550.456 1.93734 0.212899 0
M  V30 5994 H 549.552 2.72467 1.52211 0
M  V30 5995 N 549.853 -0.472356 1.50355 0
M  V30 5996 C 551.099 -1.22634 1.6152 0
M  V30 5997 C 551.432 -1.91645 0.313995 0
M  V30 5998 O 550.707 -1.82059 -0.684446 0
M  V30 5999 C 550.99 -2.27099 2.7946 0
M  V30 6000 C 550.843 -1.62402 4.19459 0
M  V30 6001 C 552.162 -3.28421 2.92964 0
M  V30 6002 H 549.281 -0.444494 0.587873 0
M  V30 6003 H 551.923 -0.520321 1.82737 0
M  V30 6004 H 550.073 -2.87314 2.61501 0
M  V30 6005 H 551.745 -1.05793 4.49005 0
M  V30 6006 H 549.988 -0.927184 4.23776 0
M  V30 6007 H 550.659 -2.38309 4.97909 0
M  V30 6008 H 553.135 -2.78227 3.09401 0
M  V30 6009 H 552.011 -3.98845 3.77113 0
M  V30 6010 H 552.272 -3.92467 2.03525 0
M  V30 6011 N 551.331 -1.39911 -0.725443 0
M  V30 6012 C 552.742 -1.33599 -1.30415 0
M  V30 6013 C 553.093 -0.00481792 -1.96199 0
M  V30 6014 O 552.218 0.897275 -1.96921 0
M  V30 6015 C 552.813 -2.41965 -2.37146 0
M  V30 6016 C 551.372 -2.39144 -2.90667 0
M  V30 6017 C 550.519 -2.23355 -1.64341 0
M  V30 6018 H 553.47 -1.4986 -0.522267 0
M  V30 6019 H 553.491 -2.09304 -3.17761 0
M  V30 6020 H 553.003 -3.38837 -1.89238 0
M  V30 6021 H 551.104 -1.4594 -3.4283 0
M  V30 6022 H 551.217 -3.34362 -3.43131 0
M  V30 6023 H 549.581 -1.70696 -1.89037 0
M  V30 6024 H 550.364 -3.2221 -1.18471 0
M  V30 6025 N 552.809 0.956637 -1.25245 0
M  V30 6026 C 554.058 1.69537 -1.0927 0
M  V30 6027 C 554.371 1.92136 0.366503 0
M  V30 6028 O 555.577 2.63687 0.64665 0
M  V30 6029 C 554.033 3.05211 -1.9072 0
M  V30 6030 C 553.641 2.90416 -3.41119 0
M  V30 6031 C 555.385 3.82882 -1.83308 0
M  V30 6032 C 553.292 4.21468 -4.14872 0
M  V30 6033 H 552.222 0.635804 -0.405302 0
M  V30 6034 H 554.873 1.06513 -1.49423 0
M  V30 6035 H 553.255 3.69128 -1.43389 0
M  V30 6036 H 554.429 2.35444 -3.9611 0
M  V30 6037 H 552.744 2.26203 -3.49602 0
M  V30 6038 H 555.341 4.79944 -2.35706 0
M  V30 6039 H 555.684 4.0853 -0.800572 0
M  V30 6040 H 556.217 3.25711 -2.28379 0
M  V30 6041 H 552.956 4.01009 -5.18529 0
M  V30 6042 H 552.476 4.76213 -3.64665 0
M  V30 6043 H 554.155 4.90022 -4.22478 0
M  V30 6044 N 554.287 1.06798 1.15896 0
M  V30 6045 C 555.698 0.811355 1.68149 0
M  V30 6046 C 556.049 -0.664339 1.8461 0
M  V30 6047 O 555.174 -1.51485 1.54535 0
M  V30 6048 C 555.769 1.46624 3.05429 0
M  V30 6049 C 554.328 1.25726 3.54781 0
M  V30 6050 C 553.475 1.53949 2.3064 0
M  V30 6051 H 556.426 1.23078 1.00187 0
M  V30 6052 H 556.447 0.88437 3.7008 0
M  V30 6053 H 555.959 2.54025 2.93416 0
M  V30 6054 H 554.06 0.20322 3.72045 0
M  V30 6055 H 554.173 1.97354 4.36564 0
M  V30 6056 H 552.537 0.96025 2.35905 0
M  V30 6057 H 553.32 2.6252 2.2122 0
M  V30 6058 N 555.766 -1.3263 0.851289 0
M  V30 6059 C 556.714 -2.30882 0.282202 0
M  V30 6060 C 557.708 -1.58697 -0.592589 0
M  V30 6061 O 558.914 -1.73461 -0.480768 0
M  V30 6062 H 555.289 -0.748492 0.0725487 0
M  V30 6063 H 557.26 -2.76374 1.12516 0
M  V30 6064 C 556.009 -3.43828 -0.517449 0
M  V30 6065 H 555.332 -3.99532 0.146392 0
M  V30 6066 H 556.772 -4.1474 -0.88128 0
M  V30 6067 C 555.231 -2.90786 -1.70133 0
M  V30 6068 O 555.761 -2.88 -2.80034 0
M  V30 6069 N 553.967 -2.4723 -1.52728 0
M  V30 6070 H 553.514 -2.49695 -0.633257 0
M  V30 6071 H 553.472 -2.12094 -2.32085 0
M  V30 6072 N 557.244 -0.608902 -1.45362 0
M  V30 6073 C 558.191 0.109172 -2.30542 0
M  V30 6074 C 559.161 0.858704 -1.42181 0
M  V30 6075 O 560.346 0.844178 -1.71109 0
M  V30 6076 C 557.486 1.09971 -3.27109 0
M  V30 6077 C 556.599 0.350911 -4.30572 0
M  V30 6078 C 555.734 1.33129 -5.14247 0
M  V30 6079 C 554.773 0.570377 -6.09437 0
M  V30 6080 N 553.91 1.5001 -6.85887 0
M  V30 6081 H 558.75 -0.623195 -2.91411 0
M  V30 6082 H 556.287 -0.319122 -1.43597 0
M  V30 6083 H 558.245 1.68714 -3.81564 0
M  V30 6084 H 556.875 1.79947 -2.67991 0
M  V30 6085 H 555.927 -0.352054 -3.78767 0
M  V30 6086 H 557.239 -0.242725 -4.98209 0
M  V30 6087 H 556.393 1.99074 -5.73109 0
M  V30 6088 H 555.132 1.95885 -4.46632 0
M  V30 6089 H 554.137 -0.102702 -5.49704 0
M  V30 6090 H 555.362 -0.0521607 -6.7908 0
M  V30 6091 H 553.308 2.11529 -6.2096 0
M  V30 6092 H 553.225 0.959934 -7.49881 0
M  V30 6093 H 554.493 2.14909 -7.49289 0
M  V30 6094 N 558.722 1.53707 -0.348139 0
M  V30 6095 C 559.652 2.28111 0.498766 0
M  V30 6096 C 560.633 1.29851 1.09876 0
M  V30 6097 O 561.818 1.587 1.11928 0
M  V30 6098 C 558.948 3.05735 1.64753 0
M  V30 6099 C 557.902 4.11537 1.17565 0
M  V30 6100 C 557.228 4.77142 2.4133 0
M  V30 6101 C 558.528 5.21587 0.272844 0
M  V30 6102 H 560.222 2.99152 -0.121934 0
M  V30 6103 H 557.768 1.43875 -0.0600842 0
M  V30 6104 H 559.721 3.56526 2.24649 0
M  V30 6105 H 558.445 2.32354 2.2952 0
M  V30 6106 H 557.104 3.61665 0.599483 0
M  V30 6107 H 556.752 4.0035 3.04514 0
M  V30 6108 H 556.452 5.48626 2.10436 0
M  V30 6109 H 557.976 5.30719 3.01943 0
M  V30 6110 H 559.39 5.67986 0.778779 0
M  V30 6111 H 557.787 6.00074 0.0555849 0
M  V30 6112 H 558.857 4.79969 -0.689785 0
M  V30 6113 N 560.2 0.0768682 1.57412 0
M  V30 6114 C 561.447 -0.591085 1.93681 0
M  V30 6115 C 561.775 -1.69311 0.957286 0
M  V30 6116 O 561.03 -1.95682 -0.0262428 0
M  V30 6117 C 561.329 -1.20268 3.36557 0
M  V30 6118 C 560.995 -0.226286 4.50332 0
M  V30 6119 C 559.657 0.0423142 4.81181 0
M  V30 6120 C 562.009 0.441415 5.19327 0
M  V30 6121 C 559.337 0.985616 5.78362 0
M  V30 6122 C 561.689 1.37307 6.17519 0
M  V30 6123 C 560.353 1.65009 6.46783 0
M  V30 6124 H 559.623 -0.216293 0.70873 0
M  V30 6125 H 562.27 0.148824 1.90921 0
M  V30 6126 H 560.575 -2.01844 3.35807 0
M  V30 6127 H 562.272 -1.72688 3.61911 0
M  V30 6128 H 558.862 -0.445821 4.26275 0
M  V30 6129 H 563.046 0.247023 4.95685 0
M  V30 6130 H 558.302 1.20743 5.99359 0
M  V30 6131 H 562.476 1.89637 6.70083 0
M  V30 6132 H 560.103 2.38263 7.21897 0
M  V30 6133 N 561.678 -1.56367 -0.196722 0
M  V30 6134 C 562.925 -1.80529 -0.917366 0
M  V30 6135 C 563.253 -0.649817 -1.83324 0
M  V30 6136 O 562.508 0.36451 -1.92275 0
M  V30 6137 C 562.807 -3.10663 -1.767 0
M  V30 6138 C 562.473 -4.3962 -1.00225 0
M  V30 6139 C 561.135 -4.74653 -0.791095 0
M  V30 6140 C 563.487 -5.1913 -0.464035 0
M  V30 6141 C 560.815 -5.86692 -0.0302155 0
M  V30 6142 C 563.167 -6.31964 0.283625 0
M  V30 6143 C 561.831 -6.65581 0.505813 0
M  V30 6144 H 561.101 -0.660602 -0.335688 0
M  V30 6145 H 563.748 -1.90615 -0.183844 0
M  V30 6146 H 562.053 -2.95807 -2.56915 0
M  V30 6147 H 563.75 -3.26563 -2.32718 0
M  V30 6148 H 560.34 -4.12127 -1.17684 0
M  V30 6149 H 564.524 -4.9248 -0.614575 0
M  V30 6150 H 559.78 -6.11211 0.151917 0
M  V30 6151 H 563.954 -6.92791 0.708057 0
M  V30 6152 H 561.581 -7.52239 1.0973 0
M  V30 6153 N 563.156 0.464375 -1.50603 0
M  V30 6154 C 564.405 1.21277 -1.61167 0
M  V30 6155 C 564.718 1.92953 -0.320704 0
M  V30 6156 O 565.924 2.69778 -0.30534 0
M  V30 6157 C 564.38 2.20403 -2.84518 0
M  V30 6158 C 563.988 1.54499 -4.20516 0
M  V30 6159 C 565.732 2.95843 -3.0443 0
M  V30 6160 C 563.639 2.51951 -5.35047 0
M  V30 6161 H 562.569 0.456367 -0.600204 0
M  V30 6162 H 565.22 0.48254 -1.77042 0
M  V30 6163 H 563.602 2.96746 -2.62217 0
M  V30 6164 H 564.776 0.83899 -4.53098 0
M  V30 6165 H 563.091 0.913152 -4.06264 0
M  V30 6166 H 565.688 3.6879 -3.87167 0
M  V30 6167 H 566.031 3.55622 -2.16423 0
M  V30 6168 H 566.564 2.26611 -3.26944 0
M  V30 6169 H 563.303 1.96901 -6.25228 0
M  V30 6170 H 562.823 3.20683 -5.06875 0
M  V30 6171 H 564.502 3.13643 -5.65895 0
M  V30 6172 N 564.634 1.40294 0.718013 0
M  V30 6173 C 565.859 1.41941 1.5122 0
M  V30 6174 C 566.284 0.0202371 1.88089 0
M  V30 6175 O 565.642 -0.971078 1.53101 0
M  V30 6176 C 565.69 2.3141 2.76554 0
M  V30 6177 O 564.794 1.75567 3.73162 0
M  V30 6178 H 564.135 0.482644 0.456016 0
M  V30 6179 H 566.665 1.84494 0.884478 0
M  V30 6180 H 566.675 2.46513 3.25108 0
M  V30 6181 H 565.35 3.33085 2.49053 0
M  V30 6182 H 563.927 1.69798 3.31999 0
M  V30 6183 N 566.112 -0.949982 1.2575 0
M  V30 6184 C 567.358 -1.69766 1.10938 0
M  V30 6185 C 567.691 -1.91056 -0.348028 0
M  V30 6186 O 566.966 -1.48488 -1.25625 0
M  V30 6187 C 567.249 -3.07779 1.86933 0
M  V30 6188 C 567.102 -2.9387 3.4053 0
M  V30 6189 C 568.421 -4.07749 1.65616 0
M  V30 6190 H 565.54 -0.616144 0.404396 0
M  V30 6191 H 568.182 -1.10394 1.54639 0
M  V30 6192 H 566.332 -3.58462 1.4979 0
M  V30 6193 H 568.004 -2.50476 3.87375 0
M  V30 6194 H 566.247 -2.29686 3.68004 0
M  V30 6195 H 566.918 -3.91719 3.88922 0
M  V30 6196 H 569.394 -3.65994 1.97959 0
M  V30 6197 H 568.27 -5.02348 2.21218 0
M  V30 6198 H 568.531 -4.38029 0.598595 0
M  V30 6199 N 567.59 -1.07411 -1.15328 0
M  V30 6200 C 568.538 -0.689316 -2.22151 0
M  V30 6201 C 569.532 0.300156 -1.6672 0
M  V30 6202 O 570.738 0.163804 -1.79253 0
M  V30 6203 H 567.113 -0.204834 -0.723566 0
M  V30 6204 H 569.084 -1.59988 -2.51886 0
M  V30 6205 C 567.833 -0.103848 -3.47545 0
M  V30 6206 H 567.156 -0.856367 -3.90521 0
M  V30 6207 H 568.596 0.127725 -4.23808 0
M  V30 6208 C 567.055 1.15563 -3.1646 0
M  V30 6209 O 567.585 2.242 -3.33312 0
M  V30 6210 N 565.791 1.06203 -2.70498 0
M  V30 6211 H 565.338 0.177933 -2.56985 0
M  V30 6212 H 565.296 1.90553 -2.50074 0
M  V30 6213 N 569.068 1.32177 -0.85831 0
M  V30 6214 C 570.345 1.91781 -0.384624 0
M  V30 6215 C 570.725 1.78171 1.13217 0
M  V30 6216 O 570.073 1.18209 1.95548 0
M  V30 6217 C 570.283 3.38414 -0.853047 0
M  V30 6218 C 571.631 4.15542 -0.872359 0
M  V30 6219 O 572.655 3.47148 -0.797926 0
M  V30 6220 O 571.514 5.37678 -0.978009 0
M  V30 6221 H 568.608 0.819259 -0.112886 0
M  V30 6222 H 571.154 1.40923 -0.945453 0
M  V30 6223 H 569.926 3.4228 -1.89632 0
M  V30 6224 H 569.549 3.96683 -0.269874 0
M  V30 6225 N 570.547 0.616602 1.45037 0
M  V30 6226 C 571.51 -0.0871112 2.29034 0
M  V30 6227 C 572.51 -0.786414 1.40258 0
M  V30 6228 O 573.7 -0.633207 1.62284 0
M  V30 6229 C 570.832 -1.13369 3.21497 0
M  V30 6230 H 572.025 0.651497 2.92738 0
M  V30 6231 H 569.578 0.376058 1.51709 0
M  V30 6232 H 570.313 -1.90277 2.62612 0
M  V30 6233 H 570.098 -0.636358 3.86902 0
M  V30 6234 H 571.588 -1.62627 3.84633 0
M  V30 6235 N 572.025 -1.5352 0.356285 0
M  V30 6236 C 572.973 -2.26945 -0.50978 0
M  V30 6237 C 573.967 -1.29569 -1.09125 0
M  V30 6238 O 575.173 -1.47231 -1.03552 0
M  V30 6239 H 571.548 -0.729368 -0.183102 0
M  V30 6240 H 573.519 -2.98111 0.131374 0
M  V30 6241 C 572.268 -3.06466 -1.64237 0
M  V30 6242 H 571.591 -3.81233 -1.20423 0
M  V30 6243 H 573.031 -3.61035 -2.22327 0
M  V30 6244 C 571.49 -2.16737 -2.57928 0
M  V30 6245 O 572.02 -1.77195 -3.60507 0
M  V30 6246 N 570.226 -1.81558 -2.26903 0
M  V30 6247 H 569.773 -2.13913 -1.43524 0
M  V30 6248 H 569.731 -1.21806 -2.89846 0
M  V30 6249 N 573.503 -0.0852151 -1.57369 0
M  V30 6250 C 574.733 0.588605 -1.98038 0
M  V30 6251 C 575.141 1.62869 -0.962817 0
M  V30 6252 O 574.484 1.83611 0.057134 0
M  V30 6253 C 574.546 1.30303 -3.35054 0
M  V30 6254 C 574.21 0.414855 -4.55113 0
M  V30 6255 C 575.207 -0.333011 -5.18832 0
M  V30 6256 C 572.892 0.335804 -5.01176 0
M  V30 6257 C 574.886 -1.14801 -6.26976 0
M  V30 6258 C 572.573 -0.482857 -6.09189 0
M  V30 6259 C 573.571 -1.22342 -6.71953 0
M  V30 6260 O 573.259 -2.02855 -7.77885 0
M  V30 6261 H 572.991 0.163249 -0.655992 0
M  V30 6262 H 575.545 -0.1582 -2.0479 0
M  V30 6263 H 573.775 2.0962 -3.24956 0
M  V30 6264 H 575.464 1.87041 -3.60237 0
M  V30 6265 H 576.23 -0.281611 -4.84182 0
M  V30 6266 H 572.109 0.901869 -4.52092 0
M  V30 6267 H 575.653 -1.72654 -6.75897 0
M  V30 6268 H 571.55 -0.535773 -6.43273 0
M  V30 6269 H 572.318 -1.95432 -7.94826 0
M  V30 6270 N 574.981 1.5647 0.188427 0
M  V30 6271 C 576.211 1.84863 0.922463 0
M  V30 6272 C 576.619 0.666413 1.77075 0
M  V30 6273 O 575.962 -0.374044 1.79852 0
M  V30 6274 C 576.024 3.07447 1.86324 0
M  V30 6275 C 575.688 4.41066 1.19625 0
M  V30 6276 C 576.685 5.16767 0.569946 0
M  V30 6277 C 574.37 4.87802 1.19811 0
M  V30 6278 C 576.364 6.37384 -0.045594 0
M  V30 6279 C 574.051 6.08353 0.57874 0
M  V30 6280 C 575.049 6.82987 -0.0420259 0
M  V30 6281 O 574.737 8.01254 -0.651675 0
M  V30 6282 H 574.469 0.61784 0.274316 0
M  V30 6283 H 577.023 2.04437 0.198613 0
M  V30 6284 H 575.253 2.83774 2.62696 0
M  V30 6285 H 576.942 3.2243 2.46564 0
M  V30 6286 H 577.708 4.81749 0.560601 0
M  V30 6287 H 573.587 4.29662 1.67069 0
M  V30 6288 H 577.131 6.95578 -0.530731 0
M  V30 6289 H 573.028 6.42838 0.58561 0
M  V30 6290 H 573.796 8.16655 -0.549236 0
M  V30 6291 N 576.459 -0.456382 1.50847 0
M  V30 6292 C 577.684 -1.2349 1.66628 0
M  V30 6293 C 578.109 -1.84715 0.355254 0
M  V30 6294 O 577.467 -1.67961 -0.682559 0
M  V30 6295 C 577.515 -2.30865 2.77009 0
M  V30 6296 O 576.619 -3.35882 2.39285 0
M  V30 6297 H 575.96 -0.36266 0.556214 0
M  V30 6298 H 578.49 -0.541374 1.97308 0
M  V30 6299 H 578.5 -2.75949 3.00526 0
M  V30 6300 H 577.175 -1.85677 3.72152 0
M  V30 6301 H 575.752 -2.96406 2.26269 0
M  V30 6302 N 577.937 -1.40673 -0.710563 0
M  V30 6303 C 578.885 -1.41517 -1.84596 0
M  V30 6304 C 579.879 -0.295043 -1.66811 0
M  V30 6305 O 581.085 -0.466331 -1.73854 0
M  V30 6306 H 577.46 -0.442467 -0.608052 0
M  V30 6307 H 579.431 -2.37238 -1.80999 0
M  V30 6308 C 578.18 -1.29957 -3.225 0
M  V30 6309 H 577.503 -2.15429 -3.36794 0
M  V30 6310 H 578.943 -1.34608 -4.02066 0
M  V30 6311 C 577.402 -0.0103164 -3.36898 0
M  V30 6312 O 577.932 0.950707 -3.90288 0
M  V30 6313 N 576.138 0.0608409 -2.90536 0
M  V30 6314 H 575.685 -0.721943 -2.47277 0
M  V30 6315 H 575.643 0.92292 -3.00549 0
M  V30 6316 N 579.415 0.9433 -1.26252 0
M  V30 6317 C 580.378 2.02326 -1.07689 0
M  V30 6318 C 581.378 1.60779 -0.0259174 0
M  V30 6319 O 582.568 1.72108 -0.269134 0
M  V30 6320 C 579.7 3.34886 -0.63752 0
M  V30 6321 H 580.893 2.20225 -2.0357 0
M  V30 6322 H 578.446 1.12197 -1.08819 0
M  V30 6323 H 579.181 3.22684 0.323377 0
M  V30 6324 H 578.966 3.66393 -1.39637 0
M  V30 6325 H 580.456 4.14231 -0.529418 0
M  V30 6326 N 580.893 1.08022 1.14757 0
M  V30 6327 C 582.121 0.828847 1.89572 0
M  V30 6328 C 582.536 -0.618621 1.78377 0
M  V30 6329 O 581.893 -1.42482 1.1404 0
M  V30 6330 C 581.944 1.23677 3.39685 0
M  V30 6331 O 581.665 2.62746 3.50566 0
M  V30 6332 C 583.166 1.01569 4.31507 0
M  V30 6333 H 580.386 0.299196 0.600602 0
M  V30 6334 H 582.93 1.43846 1.45357 0
M  V30 6335 H 581.085 0.671347 3.81539 0
M  V30 6336 H 581.499 2.79573 4.43778 0
M  V30 6337 H 582.973 1.35055 5.35223 0
M  V30 6338 H 583.45 -0.0475433 4.39174 0
M  V30 6339 H 584.056 1.56636 3.95405 0
M  V30 6340 N 582.371 -1.3172 0.865308 0
M  V30 6341 C 583.599 -2.01057 0.488251 0
M  V30 6342 C 584.014 -1.64979 -0.918 0
M  V30 6343 O 583.371 -0.876597 -1.60069 0
M  V30 6344 C 583.422 -3.55964 0.630224 0
M  V30 6345 O 583.143 -3.90749 1.98109 0
M  V30 6346 C 584.644 -4.42574 0.253567 0
M  V30 6347 H 581.864 -0.64332 0.190736 0
M  V30 6348 H 584.408 -1.68058 1.16519 0
M  V30 6349 H 582.563 -3.874 0.000895422 0
M  V30 6350 H 582.977 -4.85467 1.9855 0
M  V30 6351 H 584.451 -5.50521 0.403875 0
M  V30 6352 H 584.928 -4.31724 -0.806895 0
M  V30 6353 H 585.534 -4.16547 0.858404 0
M  V30 6354 N 583.85 -0.624285 -1.44708 0
M  V30 6355 C 584.798 0.0969952 -2.32398 0
M  V30 6356 C 585.792 0.842762 -1.46949 0
M  V30 6357 O 586.998 0.756436 -1.63334 0
M  V30 6358 H 583.373 0.0501306 -0.750327 0
M  V30 6359 H 585.344 -0.660767 -2.90992 0
M  V30 6360 C 584.093 1.06967 -3.30837 0
M  V30 6361 H 583.416 0.505242 -3.96595 0
M  V30 6362 H 584.856 1.54397 -3.94889 0
M  V30 6363 C 583.315 2.15153 -2.5925 0
M  V30 6364 O 583.845 3.23139 -2.3863 0
M  V30 6365 N 582.051 1.90898 -2.19103 0
M  V30 6366 H 581.598 1.03086 -2.36074 0
M  V30 6367 H 581.556 2.63485 -1.71531 0
M  V30 6368 N 585.328 1.53329 -0.364422 0
M  V30 6369 C 586.238 2.29414 0.490552 0
M  V30 6370 C 587.254 1.35335 1.09363 0
M  V30 6371 O 588.43 1.68391 1.10483 0
M  V30 6372 C 585.495 3.06772 1.61529 0
M  V30 6373 C 584.556 4.16516 1.03986 0
M  V30 6374 C 583.789 4.90176 2.111 0
M  V30 6375 O 584.012 4.63687 3.32191 0
M  V30 6376 O 582.946 5.76134 1.74222 0
M  V30 6377 H 586.772 3.03428 -0.12856 0
M  V30 6378 H 584.357 1.48843 -0.128837 0
M  V30 6379 H 586.239 3.55082 2.26924 0
M  V30 6380 H 584.914 2.35596 2.21983 0
M  V30 6381 H 583.821 3.7246 0.349856 0
M  V30 6382 H 585.154 4.89855 0.4799 0
M  V30 6383 N 586.806 0.0935595 1.57322 0
M  V30 6384 C 587.738 -0.895923 2.10964 0
M  V30 6385 C 588.751 -1.24705 1.04654 0
M  V30 6386 O 589.94 -1.20044 1.32105 0
M  V30 6387 C 587.04 -2.20546 2.57318 0
M  V30 6388 C 586.213 -2.0299 3.87445 0
M  V30 6389 C 585.272 -3.17443 4.19662 0
M  V30 6390 O 584.298 -2.91474 4.88909 0
M  V30 6391 N 585.5 -4.43168 3.74943 0
M  V30 6392 H 588.265 -0.437788 2.96485 0
M  V30 6393 H 585.826 -0.0915863 1.61641 0
M  V30 6394 H 587.818 -2.9606 2.75917 0
M  V30 6395 H 586.388 -2.57789 1.76816 0
M  V30 6396 H 585.608 -1.11815 3.78009 0
M  V30 6397 H 586.896 -1.88535 4.7258 0
M  V30 6398 H 586.294 -4.67149 3.19043 0
M  V30 6399 H 584.851 -5.15637 3.987 0
M  V30 6400 N 588.284 -1.56567 -0.180126 0
M  V30 6401 C 589.532 -1.81133 -0.896392 0
M  V30 6402 C 589.853 -0.669114 -1.83161 0
M  V30 6403 O 589.123 0.311616 -1.93406 0
M  V30 6404 H 587.703 -0.668172 -0.333999 0
M  V30 6405 H 590.365 -1.94048 -0.182051 0
M  V30 6406 H 589.461 -2.74854 -1.47857 0
M  V30 6407 N 589.762 0.448376 -1.51087 0
M  V30 6408 C 590.692 1.55102 -1.74544 0
M  V30 6409 C 591.673 1.59357 -0.594932 0
M  V30 6410 O 592.858 1.75261 -0.836491 0
M  V30 6411 C 589.988 2.93268 -1.86041 0
M  V30 6412 C 588.942 3.03877 -3.01402 0
M  V30 6413 C 588.268 4.43914 -2.98068 0
M  V30 6414 C 589.568 2.7898 -4.41551 0
M  V30 6415 H 591.262 1.35724 -2.66869 0
M  V30 6416 H 588.808 0.651498 -1.28419 0
M  V30 6417 H 590.761 3.70356 -2.01034 0
M  V30 6418 H 589.485 3.13853 -0.903548 0
M  V30 6419 H 588.144 2.29227 -2.86096 0
M  V30 6420 H 587.792 4.6145 -2.00182 0
M  V30 6421 H 587.492 4.51944 -3.75527 0
M  V30 6422 H 589.016 5.22991 -3.1514 0
M  V30 6423 H 590.43 3.45805 -4.57265 0
M  V30 6424 H 588.827 2.98431 -5.20633 0
M  V30 6425 H 589.897 1.74663 -4.5235 0
M  V30 6426 N 591.24 1.41047 0.703093 0
M  V30 6427 C 592.203 1.42036 1.79884 0
M  V30 6428 C 593.203 0.312153 1.57741 0
M  V30 6429 O 594.393 0.571672 1.64553 0
M  V30 6430 C 591.525 1.22437 3.18154 0
M  V30 6431 H 592.718 2.39572 1.80403 0
M  V30 6432 H 590.271 1.27079 0.909977 0
M  V30 6433 H 591.006 0.257112 3.23279 0
M  V30 6434 H 590.791 2.02723 3.35627 0
M  V30 6435 H 592.281 1.25946 3.98155 0
M  V30 6436 N 592.718 -0.936591 1.26751 0
M  V30 6437 C 593.65 -2.03991 1.045 0
M  V30 6438 C 594.663 -1.628 0.00394261 0
M  V30 6439 O 595.852 -1.76817 0.244526 0
M  V30 6440 C 592.952 -3.34218 0.561403 0
M  V30 6441 C 592.125 -4.04151 1.67274 0
M  V30 6442 C 591.184 -5.12651 1.1864 0
M  V30 6443 O 590.21 -5.37104 1.88437 0
M  V30 6444 N 591.412 -5.80488 0.037278 0
M  V30 6445 H 594.177 -2.23644 1.99508 0
M  V30 6446 H 591.738 -1.10638 1.18198 0
M  V30 6447 H 593.73 -4.04101 0.220136 0
M  V30 6448 H 592.3 -3.11203 -0.295211 0
M  V30 6449 H 591.52 -3.28121 2.18472 0
M  V30 6450 H 592.808 -4.47626 2.41885 0
M  V30 6451 H 592.206 -5.63064 -0.545494 0
M  V30 6452 H 590.763 -6.5134 -0.244877 0
M  V30 6453 N 594.196 -1.08629 -1.14182 0
M  V30 6454 C 595.443 -0.817345 -1.85272 0
M  V30 6455 C 595.771 0.656917 -1.83071 0
M  V30 6456 O 595.026 1.49897 -1.25815 0
M  V30 6457 C 595.325 -1.28734 -3.3341 0
M  V30 6458 C 594.991 -2.76981 -3.55798 0
M  V30 6459 C 593.653 -3.17469 -3.61617 0
M  V30 6460 C 596.005 -3.72605 -3.64438 0
M  V30 6461 C 593.333 -4.52371 -3.736 0
M  V30 6462 C 595.685 -5.07286 -3.77947 0
M  V30 6463 C 594.349 -5.47376 -3.82016 0
M  V30 6464 H 593.619 -0.299088 -0.677958 0
M  V30 6465 H 596.266 -1.35962 -1.34857 0
M  V30 6466 H 594.571 -0.664702 -3.8612 0
M  V30 6467 H 596.268 -1.05598 -3.86846 0
M  V30 6468 H 592.858 -2.44644 -3.51919 0
M  V30 6469 H 597.042 -3.42443 -3.5923 0
M  V30 6470 H 592.298 -4.82882 -3.75013 0
M  V30 6471 H 596.472 -5.81243 -3.83575 0
M  V30 6472 H 594.099 -6.51906 -3.91054 0
M  V30 6473 N 595.674 1.31259 -0.872281 0
M  V30 6474 C 596.899 2.0133 -0.498099 0
M  V30 6475 C 597.324 1.65031 0.902568 0
M  V30 6476 O 596.682 0.860164 1.59596 0
M  V30 6477 C 596.73 3.54411 -0.665205 0
M  V30 6478 O 595.834 4.11347 0.294473 0
M  V30 6479 H 595.175 0.633844 -0.197832 0
M  V30 6480 H 597.705 1.67402 -1.17633 0
M  V30 6481 H 597.715 4.04147 -0.559373 0
M  V30 6482 H 596.39 3.80171 -1.68651 0
M  V30 6483 H 594.967 3.72624 0.143403 0
M  V30 6484 N 597.152 0.631951 1.44375 0
M  V30 6485 C 598.401 0.134214 2.01253 0
M  V30 6486 C 598.714 -1.25171 1.50305 0
M  V30 6487 O 599.92 -1.8435 1.99317 0
M  V30 6488 C 598.376 0.189187 3.59402 0
M  V30 6489 C 597.984 1.57647 4.19346 0
M  V30 6490 C 599.728 -0.252044 4.23751 0
M  V30 6491 C 597.635 1.58651 5.69722 0
M  V30 6492 H 596.565 0.0464101 0.75257 0
M  V30 6493 H 599.216 0.790868 1.65582 0
M  V30 6494 H 597.598 -0.534584 3.92375 0
M  V30 6495 H 598.772 2.32389 3.97909 0
M  V30 6496 H 597.087 1.96186 3.67288 0
M  V30 6497 H 599.684 -0.264084 5.34047 0
M  V30 6498 H 600.027 -1.27951 3.96149 0
M  V30 6499 H 600.56 0.41926 3.95584 0
M  V30 6500 H 597.299 2.59237 6.0206 0
M  V30 6501 H 596.819 0.882039 5.93279 0
M  V30 6502 H 598.498 1.32082 6.33375 0
M  V30 6503 N 598.631 -1.53133 0.372548 0
M  V30 6504 C 599.579 -2.27473 -0.485681 0
M  V30 6505 C 600.573 -1.30719 -1.07745 0
M  V30 6506 O 601.779 -1.48321 -1.01985 0
M  V30 6507 H 598.154 -0.731269 -0.175356 0
M  V30 6508 H 600.125 -2.97955 0.162986 0
M  V30 6509 C 598.874 -3.08191 -1.60978 0
M  V30 6510 H 598.197 -3.82488 -1.16373 0
M  V30 6511 H 599.637 -3.63373 -2.18485 0
M  V30 6512 C 598.096 -2.19461 -2.55614 0
M  V30 6513 O 598.626 -1.81008 -3.58607 0
M  V30 6514 N 596.832 -1.83955 -2.24965 0
M  V30 6515 H 596.379 -2.15423 -1.41247 0
M  V30 6516 H 596.337 -1.24874 -2.88538 0
M  V30 6517 N 600.109 -0.101901 -1.5727 0
M  V30 6518 C 601.337 0.568392 -1.98939 0
M  V30 6519 C 601.752 1.61301 -0.981194 0
M  V30 6520 O 601.109 1.82478 0.0282869 0
M  V30 6521 C 601.16 1.20997 -3.40649 0
M  V30 6522 O 600.881 0.207129 -4.3761 0
M  V30 6523 C 602.382 1.96523 -3.97358 0
M  V30 6524 H 599.602 0.15186 -0.65359 0
M  V30 6525 H 602.146 -0.183198 -2.03678 0
M  V30 6526 H 600.301 1.91245 -3.36904 0
M  V30 6527 H 600.715 0.671071 -5.20189 0
M  V30 6528 H 602.189 2.36764 -4.98645 0
M  V30 6529 H 602.666 2.83376 -3.35552 0
M  V30 6530 H 603.272 1.31076 -4.04598 0
M  V30 6531 N 601.587 1.56661 0.17182 0
M  V30 6532 C 602.815 1.861 0.904115 0
M  V30 6533 C 603.23 0.687227 1.75848 0
M  V30 6534 O 602.587 -0.343671 1.79235 0
M  V30 6535 C 602.638 3.14568 1.78127 0
M  V30 6536 O 602.359 4.27422 0.961366 0
M  V30 6537 C 603.86 3.5735 2.62327 0
M  V30 6538 H 601.08 0.617445 0.262684 0
M  V30 6539 H 603.624 2.03775 0.172068 0
M  V30 6540 H 601.779 2.98721 2.46666 0
M  V30 6541 H 602.193 5.00725 1.56123 0
M  V30 6542 H 603.667 4.50144 3.1949 0
M  V30 6543 H 604.144 2.81445 3.37173 0
M  V30 6544 H 604.75 3.75807 1.99121 0
M  V30 6545 N 603.065 -0.440357 1.51323 0
M  V30 6546 C 604.29 -1.21716 1.67928 0
M  V30 6547 C 604.715 -1.84328 0.374826 0
M  V30 6548 O 604.073 -1.68675 -0.664706 0
M  V30 6549 C 604.121 -2.27914 2.79442 0
M  V30 6550 O 603.225 -3.33325 2.42834 0
M  V30 6551 H 602.566 -0.35674 0.560029 0
M  V30 6552 H 605.096 -0.520417 1.97871 0
M  V30 6553 H 605.106 -2.72746 3.03436 0
M  V30 6554 H 603.781 -1.8172 3.741 0
M  V30 6555 H 602.358 -2.9399 2.294 0
M  V30 6556 N 604.543 -1.41418 -0.695603 0
M  V30 6557 C 605.792 -1.40073 -1.4513 0
M  V30 6558 C 606.105 -0.0130439 -1.95596 0
M  V30 6559 O 607.311 0.123032 -2.71221 0
M  V30 6560 C 605.767 -2.46286 -2.62433 0
M  V30 6561 C 605.375 -3.90962 -2.18753 0
M  V30 6562 C 607.119 -2.54077 -3.40066 0
M  V30 6563 C 605.026 -4.88728 -3.33015 0
M  V30 6564 H 603.956 -0.520903 -0.545138 0
M  V30 6565 H 606.607 -1.67242 -0.75515 0
M  V30 6566 H 604.989 -2.12248 -3.34315 0
M  V30 6567 H 606.163 -4.34248 -1.54161 0
M  V30 6568 H 604.478 -3.86831 -1.54114 0
M  V30 6569 H 607.075 -3.24303 -4.25125 0
M  V30 6570 H 607.418 -1.5776 -3.8525 0
M  V30 6571 H 607.951 -2.87206 -2.75241 0
M  V30 6572 H 604.69 -5.86449 -2.92844 0
M  V30 6573 H 604.21 -4.50091 -3.96457 0
M  V30 6574 H 605.889 -5.09483 -3.98793 0
M  V30 6575 N 606.021 0.929856 -1.27246 0
M  V30 6576 C 607.246 1.71674 -1.16374 0
M  V30 6577 C 607.671 1.86064 0.276024 0
M  V30 6578 O 607.029 1.3591 1.19992 0
M  V30 6579 C 607.077 3.09526 -1.85003 0
M  V30 6580 O 606.181 3.96142 -1.14653 0
M  V30 6581 H 605.522 0.52629 -0.404863 0
M  V30 6582 H 608.052 1.16381 -1.68276 0
M  V30 6583 H 608.062 3.59852 -1.92276 0
M  V30 6584 H 606.737 2.98369 -2.89739 0
M  V30 6585 H 605.314 3.54584 -1.15433 0
M  V30 6586 N 607.499 1.09233 1.13605 0
M  V30 6587 C 608.745 0.828385 1.8511 0
M  V30 6588 C 609.078 -0.64437 1.83198 0
M  V30 6589 O 608.353 -1.47428 1.26867 0
M  V30 6590 C 608.636 1.36167 3.33363 0
M  V30 6591 C 608.489 2.90038 3.438 0
M  V30 6592 C 609.808 0.993819 4.28732 0
M  V30 6593 H 606.927 0.30239 0.672108 0
M  V30 6594 H 609.569 1.35339 1.33355 0
M  V30 6595 H 607.719 0.9151 3.77569 0
M  V30 6596 H 609.391 3.43128 3.08319 0
M  V30 6597 H 607.634 3.27271 2.84739 0
M  V30 6598 H 608.305 3.22428 4.48045 0
M  V30 6599 H 610.781 1.37893 3.92587 0
M  V30 6600 H 609.657 1.39403 5.30903 0
M  V30 6601 H 609.918 -0.0982206 4.41991 0
M  V30 6602 N 608.977 -1.30795 0.87923 0
M  V30 6603 C 609.925 -2.30231 0.331112 0
M  V30 6604 C 610.919 -1.59918 -0.558794 0
M  V30 6605 O 612.125 -1.74441 -0.443866 0
M  V30 6606 H 608.5 -0.746785 0.088409 0
M  V30 6607 H 610.471 -2.73925 1.18353 0
M  V30 6608 C 609.22 -3.44848 -0.444401 0
M  V30 6609 H 608.543 -3.99131 0.231106 0
M  V30 6610 H 609.983 -4.16516 -0.793109 0
M  V30 6611 C 608.442 -2.94329 -1.63926 0
M  V30 6612 O 608.972 -2.93875 -2.73862 0
M  V30 6613 N 607.178 -2.50413 -1.4745 0
M  V30 6614 H 606.725 -2.50982 -0.58015 0
M  V30 6615 H 606.683 -2.16969 -2.27534 0
M  V30 6616 N 610.455 -0.639598 -1.44038 0
M  V30 6617 C 611.402 0.0602458 -2.30721 0
M  V30 6618 C 612.372 0.828352 -1.43971 0
M  V30 6619 O 613.557 0.807693 -1.72861 0
M  V30 6620 C 610.697 1.03008 -3.29368 0
M  V30 6621 C 609.81 0.259502 -4.3122 0
M  V30 6622 C 608.945 1.22191 -5.16955 0
M  V30 6623 C 607.984 0.440978 -6.10509 0
M  V30 6624 N 607.121 1.35428 -6.88915 0
M  V30 6625 H 611.961 -0.684867 -2.90023 0
M  V30 6626 H 609.498 -0.349509 -1.42888 0
M  V30 6627 H 611.456 1.60583 -3.85057 0
M  V30 6628 H 610.086 1.74222 -2.71747 0
M  V30 6629 H 609.138 -0.432317 -3.77935 0
M  V30 6630 H 610.45 -0.348347 -4.97582 0
M  V30 6631 H 609.604 1.86873 -5.77203 0
M  V30 6632 H 608.343 1.86367 -4.50687 0
M  V30 6633 H 607.348 -0.219279 -5.49363 0
M  V30 6634 H 608.573 -0.196192 -6.78817 0
M  V30 6635 H 606.519 1.9831 -6.25307 0
M  V30 6636 H 606.436 0.800657 -7.51748 0
M  V30 6637 H 607.704 1.98967 -7.53679 0
M  V30 6638 N 611.933 1.52934 -0.380664 0
M  V30 6639 C 612.863 2.29118 0.450268 0
M  V30 6640 C 613.844 1.32153 1.07096 0
M  V30 6641 O 615.029 1.61038 1.08537 0
M  V30 6642 C 612.159 3.09161 1.58231 0
M  V30 6643 C 611.113 4.13938 1.0881 0
M  V30 6644 C 610.439 4.82153 2.31155 0
M  V30 6645 C 611.739 5.22048 0.162146 0
M  V30 6646 H 613.433 2.98826 -0.185361 0
M  V30 6647 H 610.979 1.43715 -0.0905886 0
M  V30 6648 H 612.932 3.61211 2.17036 0
M  V30 6649 H 611.656 2.3717 2.2454 0
M  V30 6650 H 610.315 3.62855 0.522633 0
M  V30 6651 H 609.963 4.06719 2.95953 0
M  V30 6652 H 609.663 5.52966 1.98752 0
M  V30 6653 H 611.187 5.37004 2.90618 0
M  V30 6654 H 612.601 5.6951 0.658126 0
M  V30 6655 H 610.998 6.00057 -0.0717122 0
M  V30 6656 H 612.068 4.78398 -0.791438 0
M  V30 6657 N 613.412 0.11024 1.57214 0
M  V30 6658 C 614.659 -0.54987 1.94891 0
M  V30 6659 C 614.987 -1.67243 0.992984 0
M  V30 6660 O 614.242 -1.95694 0.0152703 0
M  V30 6661 C 614.541 -1.13102 3.39032 0
M  V30 6662 C 614.207 -0.130713 4.5071 0
M  V30 6663 C 612.869 0.14437 4.80983 0
M  V30 6664 C 615.221 0.551472 5.18274 0
M  V30 6665 C 612.549 1.10807 5.76141 0
M  V30 6666 C 614.901 1.50375 6.14467 0
M  V30 6667 C 613.565 1.78691 6.43138 0
M  V30 6668 H 612.835 -0.201212 0.713158 0
M  V30 6669 H 615.482 0.189288 1.90562 0
M  V30 6670 H 613.787 -1.94675 3.40013 0
M  V30 6671 H 615.484 -1.64973 3.65493 0
M  V30 6672 H 612.074 -0.355301 4.27125 0
M  V30 6673 H 616.258 0.35211 4.95049 0
M  V30 6674 H 611.514 1.3343 5.96663 0
M  V30 6675 H 615.688 2.03808 6.65909 0
M  V30 6676 H 613.315 2.53522 7.1668 0
M  V30 6677 N 614.89 -1.56749 -0.16351 0
M  V30 6678 C 616.136 -1.82704 -0.880168 0
M  V30 6679 C 616.469 -0.689311 -1.81555 0
M  V30 6680 O 615.744 0.308224 -1.92042 0
M  V30 6681 C 616.027 -3.19084 -1.66905 0
M  V30 6682 C 615.88 -4.43397 -0.756269 0
M  V30 6683 C 617.199 -3.52493 -2.63509 0
M  V30 6684 H 614.318 -0.664608 -0.318535 0
M  V30 6685 H 616.96 -1.89438 -0.146036 0
M  V30 6686 H 615.11 -3.13475 -2.2949 0
M  V30 6687 H 616.782 -4.61079 -0.14269 0
M  V30 6688 H 615.025 -4.33752 -0.0647944 0
M  V30 6689 H 615.696 -5.3539 -1.34393 0
M  V30 6690 H 618.172 -3.58606 -2.11047 0
M  V30 6691 H 617.048 -4.48979 -3.15767 0
M  V30 6692 H 617.309 -2.77597 -3.44082 0
M  V30 6693 N 616.368 0.432326 -1.51554 0
M  V30 6694 C 617.784 0.769195 -1.39841 0
M  V30 6695 C 617.984 1.95584 -0.484675 0
M  V30 6696 O 617.04 2.52433 0.0582829 0
M  V30 6697 C 618.353 1.04487 -2.81963 0
M  V30 6698 C 619.901 1.149 -2.91148 0
M  V30 6699 C 620.376 1.45758 -4.34187 0
M  V30 6700 N 621.867 1.52671 -4.37317 0
M  V30 6701 C 622.602 1.78129 -5.4503 0
M  V30 6702 N 622.098 2.01345 -6.62897 0
M  V30 6703 N 623.891 1.79953 -5.32516 0
M  V30 6704 H 616.042 -0.349122 -2.09511 0
M  V30 6705 H 618.305 -0.0938113 -0.943347 0
M  V30 6706 H 618.011 0.24557 -3.50842 0
M  V30 6707 H 617.885 1.97119 -3.21596 0
M  V30 6708 H 620.272 1.93891 -2.22464 0
M  V30 6709 H 620.353 0.201568 -2.55005 0
M  V30 6710 H 619.997 0.672917 -5.03423 0
M  V30 6711 H 619.927 2.41715 -4.67848 0
M  V30 6712 H 622.418 1.36612 -3.52343 0
M  V30 6713 H 622.731 2.20155 -7.40778 0
M  V30 6714 H 621.076 1.98657 -6.66003 0
M  V30 6715 H 624.267 1.61337 -4.39418 0
M  V30 6716 H 624.44 1.99455 -6.1654 0
M  V30 6717 N 617.846 1.41785 0.688094 0
M  V30 6718 C 619.092 1.41753 1.4503 0
M  V30 6719 C 619.425 0.0290745 1.94178 0
M  V30 6720 O 618.7 -0.944456 1.7003 0
M  V30 6721 C 618.983 2.43069 2.65686 0
M  V30 6722 C 618.836 3.91053 2.22256 0
M  V30 6723 C 620.155 2.41543 3.67893 0
M  V30 6724 H 617.274 0.516202 0.526027 0
M  V30 6725 H 619.916 1.73111 0.783105 0
M  V30 6726 H 618.066 2.1646 3.2261 0
M  V30 6727 H 619.738 4.28594 1.70602 0
M  V30 6728 H 617.981 4.05559 1.53963 0
M  V30 6729 H 618.652 4.57501 3.08863 0
M  V30 6730 H 621.128 2.65175 3.20658 0
M  V30 6731 H 620.004 3.14434 4.49914 0
M  V30 6732 H 620.265 1.43666 4.18106 0
M  V30 6733 N 619.324 -0.923095 1.27737 0
M  V30 6734 C 620.571 -1.67127 1.14345 0
M  V30 6735 C 620.899 -1.92017 -0.30982 0
M  V30 6736 O 620.154 -1.51185 -1.24264 0
M  V30 6737 C 620.453 -3.04125 1.8773 0
M  V30 6738 C 620.119 -2.98929 3.37568 0
M  V30 6739 C 618.781 -2.9722 3.78436 0
M  V30 6740 C 621.133 -2.89875 4.33154 0
M  V30 6741 C 618.461 -2.84244 5.13247 0
M  V30 6742 C 620.813 -2.7844 5.68026 0
M  V30 6743 C 619.477 -2.75083 6.08182 0
M  V30 6744 H 618.747 -0.611562 0.418417 0
M  V30 6745 H 621.394 -1.07618 1.584 0
M  V30 6746 H 619.699 -3.67366 1.36196 0
M  V30 6747 H 621.396 -3.609 1.74792 0
M  V30 6748 H 617.986 -3.0105 3.05069 0
M  V30 6749 H 622.17 -2.9029 4.02548 0
M  V30 6750 H 617.426 -2.80034 5.43499 0
M  V30 6751 H 621.6 -2.70401 6.4176 0
M  V30 6752 H 619.227 -2.64786 7.12596 0
M  V30 6753 N 620.802 -1.09834 -1.13024 0
M  V30 6754 C 622.03 -0.858902 -1.8823 0
M  V30 6755 C 622.445 0.590164 -1.79339 0
M  V30 6756 O 621.802 1.4065 -1.16292 0
M  V30 6757 C 621.853 -1.29066 -3.37675 0
M  V30 6758 O 621.574 -2.6829 -3.46341 0
M  V30 6759 C 623.075 -1.08421 -4.29837 0
M  V30 6760 H 620.295 -0.308713 -0.595766 0
M  V30 6761 H 622.839 -1.4614 -1.4305 0
M  V30 6762 H 620.994 -0.731961 -3.80422 0
M  V30 6763 H 621.408 -2.86598 -4.39274 0
M  V30 6764 H 622.882 -1.43553 -5.33007 0
M  V30 6765 H 623.359 -0.0223315 -4.39194 0
M  V30 6766 H 623.965 -1.62907 -3.92863 0
M  V30 6767 N 622.28 1.30327 -0.886154 0
M  V30 6768 C 623.526 1.96388 -0.505941 0
M  V30 6769 C 623.859 1.69784 0.942712 0
M  V30 6770 O 623.134 1.00322 1.6663 0
M  V30 6771 C 623.417 3.51488 -0.782826 0
M  V30 6772 C 623.27 3.87603 -2.28219 0
M  V30 6773 C 624.589 4.39331 -0.260128 0
M  V30 6774 H 621.708 0.713327 -0.185292 0
M  V30 6775 H 624.35 1.54178 -1.11036 0
M  V30 6776 H 622.5 3.87572 -0.268399 0
M  V30 6777 H 624.172 3.61537 -2.86512 0
M  V30 6778 H 622.415 3.3563 -2.74837 0
M  V30 6779 H 623.086 4.95806 -2.42653 0
M  V30 6780 H 625.562 4.10162 -0.700444 0
M  V30 6781 H 624.438 5.46769 -0.483179 0
M  V30 6782 H 624.699 4.34072 0.838674 0
M  V30 6783 N 623.758 0.647228 1.43697 0
M  V30 6784 C 624.708 -0.0702191 2.27892 0
M  V30 6785 C 625.692 -0.800601 1.39568 0
M  V30 6786 O 626.884 -0.684055 1.63247 0
M  V30 6787 C 624.013 -1.04008 3.27165 0
M  V30 6788 C 623.099 -0.308484 4.22977 0
M  V30 6789 N 623.49 0.671721 5.0132 0
M  V30 6790 C 621.788 -0.550751 4.42586 0
M  V30 6791 C 622.489 1.10543 5.711 0
M  V30 6792 N 621.465 0.440903 5.41809 0
M  V30 6793 H 625.267 0.682031 2.85877 0
M  V30 6794 H 622.781 0.474022 1.55328 0
M  V30 6795 H 624.778 -1.56881 3.86256 0
M  V30 6796 H 623.438 -1.79246 2.70742 0
M  V30 6797 H 624.449 1.0502 5.0714 0
M  V30 6798 H 621.126 -1.28476 3.97241 0
M  V30 6799 H 622.516 1.91614 6.43998 0
M  V30 6800 N 625.236 -1.5273 0.388769 0
M  V30 6801 C 626.647 -1.86505 -0.0853788 0
M  V30 6802 C 626.998 -1.30847 -1.46197 0
M  V30 6803 O 626.123 -0.639609 -2.06732 0
M  V30 6804 C 626.718 -3.38414 -0.161703 0
M  V30 6805 C 625.277 -3.71902 -0.580144 0
M  V30 6806 C 624.424 -2.76095 0.258218 0
M  V30 6807 H 627.375 -1.46647 0.606665 0
M  V30 6808 H 627.396 -3.67638 -0.980936 0
M  V30 6809 H 626.908 -3.78893 0.840333 0
M  V30 6810 H 625.009 -3.36992 -1.58957 0
M  V30 6811 H 625.122 -4.77902 -0.338663 0
M  V30 6812 H 623.486 -2.53195 -0.276432 0
M  V30 6813 H 624.269 -3.19411 1.25822 0
M  V30 6814 N 626.714 -0.118576 -1.57153 0
M  V30 6815 C 627.662 0.849114 -2.16547 0
M  V30 6816 C 628.656 1.27567 -1.11458 0
M  V30 6817 O 629.862 1.24746 -1.29763 0
M  V30 6818 H 626.237 0.291935 -0.693021 0
M  V30 6819 H 628.208 0.323693 -2.96639 0
M  V30 6820 C 626.957 2.08951 -2.77912 0
M  V30 6821 H 626.28 1.77021 -3.58474 0
M  V30 6822 H 627.72 2.74666 -3.23008 0
M  V30 6823 C 626.179 2.87899 -1.74974 0
M  V30 6824 O 626.709 3.83268 -1.20285 0
M  V30 6825 N 624.915 2.51884 -1.44924 0
M  V30 6826 H 624.462 1.74397 -1.89587 0
M  V30 6827 H 624.42 3.05003 -0.762921 0
M  V30 6828 N 628.193 1.56834 0.155195 0
M  V30 6829 C 629.123 2.00678 1.19376 0
M  V30 6830 C 630.104 0.884973 1.45266 0
M  V30 6831 O 631.289 1.1522 1.56326 0
M  V30 6832 C 628.419 2.38042 2.5289 0
M  V30 6833 C 627.373 3.53332 2.41538 0
M  V30 6834 C 626.699 3.76485 3.79688 0
M  V30 6835 C 627.999 4.86265 1.9064 0
M  V30 6836 H 629.693 2.87688 0.829232 0
M  V30 6837 H 627.239 1.38407 0.397445 0
M  V30 6838 H 629.192 2.67314 3.25763 0
M  V30 6839 H 627.916 1.4796 2.91162 0
M  V30 6840 H 626.575 3.24213 1.71117 0
M  V30 6841 H 626.223 2.83667 4.15382 0
M  V30 6842 H 625.923 4.54068 3.72956 0
M  V30 6843 H 627.447 4.08174 4.54122 0
M  V30 6844 H 628.861 5.14308 2.53299 0
M  V30 6845 H 627.258 5.67597 1.94818 0
M  V30 6846 H 628.328 4.77184 0.861596 0
M  V30 6847 N 629.671 -0.424282 1.51781 0
M  V30 6848 C 630.911 -1.18194 1.66762 0
M  V30 6849 C 631.275 -1.88164 0.381857 0
M  V30 6850 O 632.476 -2.65692 0.407586 0
M  V30 6851 C 630.747 -2.16173 2.84612 0
M  V30 6852 S 632.306 -3.0025 3.19993 0
M  V30 6853 H 629.124 -0.400626 0.587384 0
M  V30 6854 H 631.726 -0.471499 1.89729 0
M  V30 6855 H 630.43 -1.6343 3.76455 0
M  V30 6856 H 629.961 -2.91778 2.63873 0
M  V30 6857 H 631.976 -4.1796 2.67439 0
M  V30 6858 N 631.149 -1.42148 -0.680565 0
M  V30 6859 C 632.396 -1.4231 -1.44063 0
M  V30 6860 C 632.724 -0.037488 -1.94464 0
M  V30 6861 O 631.979 0.953184 -1.70918 0
M  V30 6862 C 632.278 -2.38945 -2.65782 0
M  V30 6863 C 631.944 -3.85455 -2.33956 0
M  V30 6864 C 630.606 -4.25364 -2.24987 0
M  V30 6865 C 632.958 -4.77895 -2.08004 0
M  V30 6866 C 630.286 -5.55701 -1.88184 0
M  V30 6867 C 632.638 -6.08568 -1.72706 0
M  V30 6868 C 631.302 -6.47482 -1.62244 0
M  V30 6869 H 630.572 -0.520748 -0.527164 0
M  V30 6870 H 633.219 -1.7505 -0.776524 0
M  V30 6871 H 631.524 -1.99511 -3.37198 0
M  V30 6872 H 633.221 -2.36336 -3.23954 0
M  V30 6873 H 629.811 -3.53855 -2.41836 0
M  V30 6874 H 633.995 -4.47854 -2.1387 0
M  V30 6875 H 629.251 -5.84718 -1.78648 0
M  V30 6876 H 633.425 -6.79688 -1.5165 0
M  V30 6877 H 631.052 -7.48387 -1.33496 0
M  V30 6878 N 632.627 0.916307 -1.28225 0
M  V30 6879 C 633.577 2.00488 -1.08574 0
M  V30 6880 C 634.561 1.60897 -0.0101874 0
M  V30 6881 O 635.753 1.75499 -0.230034 0
M  V30 6882 C 632.882 3.35076 -0.746943 0
M  V30 6883 C 631.968 3.81077 -1.86121 0
M  V30 6884 N 632.359 3.99475 -3.10247 0
M  V30 6885 C 630.657 4.10212 -1.75048 0
M  V30 6886 C 631.358 4.37965 -3.82834 0
M  V30 6887 N 630.334 4.4608 -3.10667 0
M  V30 6888 H 634.136 2.1276 -2.02757 0
M  V30 6889 H 631.65 1.10397 -1.19107 0
M  V30 6890 H 633.647 4.12743 -0.587252 0
M  V30 6891 H 632.307 3.2416 0.187146 0
M  V30 6892 H 633.318 3.85466 -3.45885 0
M  V30 6893 H 629.995 4.07947 -0.887999 0
M  V30 6894 H 631.385 4.60183 -4.89572 0
M  V30 6895 N 634.105 1.10431 1.1244 0
M  V30 6896 C 635.335 0.867612 1.87499 0
M  V30 6897 C 635.743 -0.585475 1.79913 0
M  V30 6898 O 635.086 -1.41539 1.171 0
M  V30 6899 C 635.148 1.2374 3.37533 0
M  V30 6900 C 634.812 2.69751 3.68895 0
M  V30 6901 C 635.809 3.67988 3.67261 0
M  V30 6902 C 633.494 3.06135 3.98229 0
M  V30 6903 C 635.488 5.00632 3.9452 0
M  V30 6904 C 633.175 4.38967 4.25149 0
M  V30 6905 C 634.173 5.36025 4.23281 0
M  V30 6906 O 633.861 6.66465 4.49533 0
M  V30 6907 H 633.593 0.311196 0.600111 0
M  V30 6908 H 636.147 1.47257 1.43194 0
M  V30 6909 H 634.377 0.575537 3.82393 0
M  V30 6910 H 636.066 0.978187 3.93937 0
M  V30 6911 H 636.832 3.41224 3.44661 0
M  V30 6912 H 632.711 2.31214 3.98825 0
M  V30 6913 H 636.255 5.7638 3.92978 0
M  V30 6914 H 632.152 4.6547 4.47223 0
M  V30 6915 H 632.92 6.72095 4.67152 0
M  V30 6916 N 635.583 -1.29855 0.893053 0
M  V30 6917 C 636.808 -2.00512 0.530066 0
M  V30 6918 C 637.233 -1.66446 -0.876199 0
M  V30 6919 O 636.591 -0.885446 -1.58207 0
M  V30 6920 C 636.639 -3.53308 0.721505 0
M  V30 6921 O 635.743 -4.11764 -0.228994 0
M  V30 6922 H 635.084 -0.630617 0.207891 0
M  V30 6923 H 637.614 -1.6551 1.20282 0
M  V30 6924 H 637.624 -4.03206 0.623599 0
M  V30 6925 H 636.299 -3.77439 1.74678 0
M  V30 6926 H 634.876 -3.72805 -0.0841034 0
M  V30 6927 N 637.061 -0.65484 -1.43351 0
M  V30 6928 C 638.307 -0.177749 -2.02622 0
M  V30 6929 C 638.662 1.19553 -1.50748 0
M  V30 6930 O 637.955 1.78683 -0.691599 0
M  V30 6931 C 638.149 -0.130424 -3.57162 0
M  V30 6932 C 637.978 -1.49757 -4.24032 0
M  V30 6933 C 636.748 -2.09036 -4.60035 0
M  V30 6934 C 638.946 -2.4363 -4.52934 0
M  V30 6935 N 636.928 -3.3874 -5.11985 0
M  V30 6936 C 638.299 -3.57968 -5.0622 0
M  V30 6937 C 640.354 -2.42412 -4.34903 0
M  V30 6938 C 639.057 -4.71314 -5.43374 0
M  V30 6939 C 641.083 -3.5484 -4.7312 0
M  V30 6940 C 640.445 -4.67903 -5.26541 0
M  V30 6941 H 636.544 -0.10951 -0.774294 0
M  V30 6942 H 639.128 -0.863495 -1.74505 0
M  V30 6943 H 637.299 0.524671 -3.8484 0
M  V30 6944 H 639.031 0.35769 -4.03116 0
M  V30 6945 H 635.786 -1.61729 -4.4513 0
M  V30 6946 H 636.21 -4.05116 -5.42412 0
M  V30 6947 H 640.852 -1.56236 -3.92874 0
M  V30 6948 H 638.57 -5.5818 -5.84346 0
M  V30 6949 H 642.156 -3.55101 -4.60863 0
M  V30 6950 H 641.036 -5.5346 -5.55564 0
M  V30 6951 N 638.539 1.52521 -0.396863 0
M  V30 6952 C 639.785 2.01971 0.183169 0
M  V30 6953 C 640.118 1.2825 1.45827 0
M  V30 6954 O 639.393 0.385179 1.90648 0
M  V30 6955 C 639.676 3.5736 0.443391 0
M  V30 6956 C 639.529 4.41743 -0.84753 0
M  V30 6957 C 640.848 4.22539 1.2308 0
M  V30 6958 H 637.967 0.734119 0.0650976 0
M  V30 6959 H 640.609 1.82519 -0.527918 0
M  V30 6960 H 638.759 3.74066 1.04914 0
M  V30 6961 H 640.431 4.36773 -1.48414 0
M  V30 6962 H 638.674 4.0845 -1.4612 0
M  V30 6963 H 639.345 5.48507 -0.620003 0
M  V30 6964 H 641.821 4.09857 0.718084 0
M  V30 6965 H 640.697 5.31227 1.38162 0
M  V30 6966 H 640.958 3.80675 2.24808 0
M  V30 6967 N 640.017 0.126909 1.57088 0
M  V30 6968 C 640.98 -0.806097 2.14557 0
M  V30 6969 C 641.98 -1.18918 1.08236 0
M  V30 6970 O 643.17 -1.11339 1.33975 0
M  V30 6971 C 640.302 -2.09116 2.69227 0
M  V30 6972 H 641.495 -0.306522 2.98329 0
M  V30 6973 H 639.048 -0.122393 1.5582 0
M  V30 6974 H 639.783 -2.63486 1.89065 0
M  V30 6975 H 639.568 -1.82588 3.46993 0
M  V30 6976 H 641.058 -2.75794 3.13572 0
M  V30 6977 N 641.495 -1.56914 -0.146875 0
M  V30 6978 C 642.405 -2.0154 -1.20079 0
M  V30 6979 C 643.421 -0.930838 -1.47008 0
M  V30 6980 O 644.597 -1.24032 -1.58676 0
M  V30 6981 C 641.662 -2.38715 -2.51428 0
M  V30 6982 C 640.723 -3.6112 -2.32145 0
M  V30 6983 C 639.956 -3.96512 -3.57231 0
M  V30 6984 O 640.179 -3.32566 -4.63418 0
M  V30 6985 O 639.113 -4.89758 -3.49887 0
M  V30 6986 H 642.939 -2.91506 -0.851924 0
M  V30 6987 H 640.524 -1.45106 -0.355607 0
M  V30 6988 H 642.406 -2.63485 -3.28867 0
M  V30 6989 H 641.081 -1.51903 -2.85845 0
M  V30 6990 H 639.988 -3.41536 -1.52656 0
M  V30 6991 H 641.321 -4.48549 -2.02644 0
M  V30 6992 N 642.974 0.416227 -1.52004 0
M  V30 6993 C 644.251 1.17637 -1.56272 0
M  V30 6994 C 644.631 2.08352 -0.339493 0
M  V30 6995 O 643.979 2.1833 0.674124 0
M  V30 6996 C 644.189 1.95986 -2.88774 0
M  V30 6997 C 645.537 2.52299 -3.41512 0
M  V30 6998 O 646.561 2.06174 -2.90467 0
M  V30 6999 O 645.42 3.3648 -4.30631 0
M  V30 7000 H 642.514 0.536726 -0.629169 0
M  V30 7001 H 645.06 0.423583 -1.64329 0
M  V30 7002 H 643.832 1.29487 -3.69254 0
M  V30 7003 H 643.455 2.78285 -2.83978 0
M  V30 7004 N 644.452 1.42507 0.673017 0
M  V30 7005 C 645.402 1.4258 1.77919 0
M  V30 7006 C 646.386 0.296885 1.58137 0
M  V30 7007 O 647.578 0.539243 1.68586 0
M  V30 7008 C 644.707 1.33238 3.1639 0
M  V30 7009 C 643.793 2.51081 3.41788 0
M  V30 7010 N 644.184 3.76498 3.37761 0
M  V30 7011 C 642.482 2.4538 3.72431 0
M  V30 7012 C 643.183 4.54784 3.62693 0
M  V30 7013 N 642.159 3.8522 3.83544 0
M  V30 7014 H 645.961 2.37442 1.73201 0
M  V30 7015 H 643.475 1.36881 0.873924 0
M  V30 7016 H 645.472 1.31372 3.9566 0
M  V30 7017 H 644.132 0.393794 3.22303 0
M  V30 7018 H 645.143 4.09068 3.17622 0
M  V30 7019 H 641.82 1.60109 3.85579 0
M  V30 7020 H 643.21 5.63774 3.65525 0
M  V30 7021 N 645.93 -0.909495 1.28709 0
M  V30 7022 C 646.862 -2.01729 1.08804 0
M  V30 7023 C 647.875 -1.62755 0.0384739 0
M  V30 7024 O 649.064 -1.76259 0.281977 0
M  V30 7025 C 646.164 -3.32952 0.63217 0
M  V30 7026 C 645.337 -4.00512 1.75809 0
M  V30 7027 C 644.396 -5.10019 1.29488 0
M  V30 7028 O 643.422 -5.32986 1.99787 0
M  V30 7029 N 644.624 -5.80278 0.1604 0
M  V30 7030 H 647.389 -2.19362 2.04207 0
M  V30 7031 H 644.95 -1.08106 1.20518 0
M  V30 7032 H 646.942 -4.03543 0.305802 0
M  V30 7033 H 645.512 -3.11759 -0.229134 0
M  V30 7034 H 644.732 -3.23413 2.25383 0
M  V30 7035 H 646.02 -4.42395 2.51325 0
M  V30 7036 H 645.418 -5.64094 -0.425937 0
M  V30 7037 H 643.975 -6.51713 -0.106663 0
M  V30 7038 N 647.408 -1.11026 -1.11852 0
M  V30 7039 C 648.656 -0.854769 -1.83134 0
M  V30 7040 C 648.977 0.621375 -1.84835 0
M  V30 7041 O 648.247 1.45129 -1.31584 0
M  V30 7042 H 646.827 -0.313229 -0.678157 0
M  V30 7043 H 649.489 -1.40178 -1.35411 0
M  V30 7044 H 648.585 -1.22311 -2.87135 0
M  V30 7045 N 648.886 1.2938 -0.899927 0
M  V30 7046 C 649.849 2.25983 -0.382677 0
M  V30 7047 C 650.849 1.53366 0.483259 0
M  V30 7048 O 652.039 1.71798 0.28828 0
M  V30 7049 C 649.171 3.37878 0.452915 0
M  V30 7050 H 650.364 2.73252 -1.23586 0
M  V30 7051 H 647.917 1.40825 -0.678088 0
M  V30 7052 H 648.652 2.95949 1.32608 0
M  V30 7053 H 648.437 3.91742 -0.167562 0
M  V30 7054 H 649.927 4.09746 0.806107 0
M  V30 7055 N 650.364 0.662433 1.43002 0
M  V30 7056 C 651.296 -0.062326 2.29115 0
M  V30 7057 C 652.309 -0.777926 1.43011 0
M  V30 7058 O 653.498 -0.634146 1.66856 0
M  V30 7059 C 650.598 -1.11163 3.2015 0
M  V30 7060 C 649.771 -0.472327 4.34842 0
M  V30 7061 C 648.83 -1.41974 5.06685 0
M  V30 7062 O 647.856 -0.924795 5.61637 0
M  V30 7063 N 649.058 -2.75345 5.11043 0
M  V30 7064 H 651.823 0.676838 2.91957 0
M  V30 7065 H 649.384 0.505907 1.53793 0
M  V30 7066 H 651.376 -1.74643 3.65078 0
M  V30 7067 H 649.946 -1.75266 2.58845 0
M  V30 7068 H 649.166 0.341751 3.92716 0
M  V30 7069 H 650.454 -0.0264381 5.08793 0
M  V30 7070 H 649.852 -3.18108 4.67786 0
M  V30 7071 H 648.409 -3.34105 5.59658 0
M  V30 7072 N 651.842 -1.52309 0.404946 0
M  V30 7073 C 652.792 -2.23717 -0.439864 0
M  V30 7074 C 653.776 -1.24692 -1.0169 0
M  V30 7075 O 654.968 -1.49951 -0.940409 0
M  V30 7076 C 652.097 -3.05898 -1.55825 0
M  V30 7077 C 651.183 -4.12331 -0.992188 0
M  V30 7078 N 651.574 -5.0557 -0.152424 0
M  V30 7079 C 649.872 -4.2774 -1.26312 0
M  V30 7080 C 650.573 -5.81474 0.162041 0
M  V30 7081 N 649.549 -5.41767 -0.44601 0
M  V30 7082 H 653.351 -2.93162 0.208084 0
M  V30 7083 H 650.865 -1.60969 0.215131 0
M  V30 7084 H 652.862 -3.55605 -2.17603 0
M  V30 7085 H 651.522 -2.37991 -2.20886 0
M  V30 7086 H 652.533 -5.17468 0.211556 0
M  V30 7087 H 649.21 -3.71062 -1.91362 0
M  V30 7088 H 650.6 -6.66585 0.843423 0
M  V30 7089 N 653.32 -0.135238 -1.57019 0
M  V30 7090 C 654.548 0.526066 -2.001 0
M  V30 7091 C 654.963 1.59184 -1.01519 0
M  V30 7092 O 654.32 1.82497 -0.0104258 0
M  V30 7093 C 654.371 1.13744 -3.43139 0
M  V30 7094 O 654.092 0.114259 -4.37951 0
M  V30 7095 C 655.593 1.8805 -4.01438 0
M  V30 7096 H 652.813 0.137962 -0.656664 0
M  V30 7097 H 655.357 -0.226359 -2.03243 0
M  V30 7098 H 653.512 1.84056 -3.40885 0
M  V30 7099 H 653.926 0.56058 -5.21496 0
M  V30 7100 H 655.4 2.26133 -5.03555 0
M  V30 7101 H 655.877 2.76194 -3.41487 0
M  V30 7102 H 656.483 1.22464 -4.07287 0
M  V30 7103 N 654.798 1.5699 0.138552 0
M  V30 7104 C 655.761 1.97984 1.15478 0
M  V30 7105 C 656.761 0.867416 1.35398 0
M  V30 7106 O 657.951 1.13387 1.32246 0
M  V30 7107 C 655.083 2.3031 2.51337 0
M  V30 7108 H 656.276 2.88953 0.802896 0
M  V30 7109 H 653.829 1.51555 0.382189 0
M  V30 7110 H 654.564 1.42159 2.91481 0
M  V30 7111 H 654.349 3.11425 2.38237 0
M  V30 7112 H 655.839 2.62834 3.24512 0
M  V30 7113 N 656.276 -0.40816 1.52223 0
M  V30 7114 C 657.224 -1.51788 1.76248 0
M  V30 7115 C 658.218 -1.57264 0.629638 0
M  V30 7116 O 659.424 -1.60659 0.811704 0
M  V30 7117 H 655.799 -0.504823 0.557367 0
M  V30 7118 H 657.77 -1.2871 2.69214 0
M  V30 7119 C 656.519 -2.89145 1.93107 0
M  V30 7120 H 655.842 -2.85674 2.79697 0
M  V30 7121 H 657.282 -3.66082 2.13916 0
M  V30 7122 C 655.741 -3.29581 0.698431 0
M  V30 7123 O 656.271 -4.01479 -0.133238 0
M  V30 7124 N 654.477 -2.85651 0.53405 0
M  V30 7125 H 654.024 -2.2731 1.21194 0
M  V30 7126 H 653.982 -3.13065 -0.289387 0
M  V30 7127 N 657.755 -1.42862 -0.66545 0
M  V30 7128 C 659.171 -1.25993 -0.979687 0
M  V30 7129 C 659.371 -0.170831 -2.00775 0
M  V30 7130 O 658.427 0.454827 -2.4837 0
M  V30 7131 C 659.74 -2.62005 -1.47559 0
M  V30 7132 C 661.288 -2.69437 -1.59288 0
M  V30 7133 C 661.763 -4.05838 -2.12272 0
M  V30 7134 N 663.254 -4.0784 -2.19592 0
M  V30 7135 C 663.989 -5.10205 -2.61684 0
M  V30 7136 N 663.485 -6.22949 -3.03161 0
M  V30 7137 N 665.278 -4.9756 -2.61516 0
M  V30 7138 H 657.429 -2.12395 0.0150493 0
M  V30 7139 H 659.692 -0.946355 -0.0558187 0
M  V30 7140 H 659.398 -3.42605 -0.794654 0
M  V30 7141 H 659.272 -2.86566 -2.45275 0
M  V30 7142 H 661.659 -1.89178 -2.26486 0
M  V30 7143 H 661.74 -2.48655 -0.600374 0
M  V30 7144 H 661.384 -4.86559 -1.4568 0
M  V30 7145 H 661.314 -4.23977 -3.12331 0
M  V30 7146 H 663.805 -3.26452 -1.90361 0
M  V30 7147 H 664.118 -6.96899 -3.33993 0
M  V30 7148 H 662.463 -6.2644 -3.00995 0
M  V30 7149 H 665.654 -4.08551 -2.28481 0
M  V30 7150 H 665.827 -5.77468 -2.93999 0
M  V30 7151 N 659.233 0.902656 -1.29189 0
M  V30 7152 C 660.479 1.65532 -1.17163 0
M  V30 7153 C 660.812 1.92216 0.276879 0
M  V30 7154 O 660.087 1.53048 1.20027 0
M  V30 7155 C 660.37 3.00629 -1.98228 0
M  V30 7156 C 660.223 2.81029 -3.51202 0
M  V30 7157 C 661.542 4.01321 -1.80635 0
M  V30 7158 H 658.661 0.60071 -0.426985 0
M  V30 7159 H 661.303 1.04578 -1.5863 0
M  V30 7160 H 659.453 3.52656 -1.62991 0
M  V30 7161 H 661.125 2.35927 -3.96404 0
M  V30 7162 H 659.368 2.1587 -3.76275 0
M  V30 7163 H 660.039 3.77014 -4.03192 0
M  V30 7164 H 662.515 3.58394 -2.11406 0
M  V30 7165 H 661.391 4.93792 -2.3971 0
M  V30 7166 H 661.652 4.35505 -0.760754 0
M  V30 7167 N 660.711 1.11618 1.11262 0
M  V30 7168 C 661.958 0.86618 1.8304 0
M  V30 7169 C 662.286 -0.608149 1.84748 0
M  V30 7170 O 661.541 -1.46508 1.29745 0
M  V30 7171 C 661.84 1.37529 3.2988 0
M  V30 7172 C 661.506 2.86317 3.4833 0
M  V30 7173 C 660.168 3.26945 3.53073 0
M  V30 7174 C 662.52 3.82136 3.54431 0
M  V30 7175 C 659.848 4.62117 3.61475 0
M  V30 7176 C 662.2 5.17128 3.64365 0
M  V30 7177 C 660.864 5.57312 3.67369 0
M  V30 7178 H 660.134 0.316958 0.66979 0
M  V30 7179 H 662.781 1.3949 1.31205 0
M  V30 7180 H 661.086 0.766842 3.84222 0
M  V30 7181 H 662.783 1.15817 3.83911 0
M  V30 7182 H 659.373 2.53889 3.45309 0
M  V30 7183 H 663.557 3.51847 3.50025 0
M  V30 7184 H 658.813 4.92655 3.62079 0
M  V30 7185 H 662.987 5.91208 3.68029 0
M  V30 7186 H 660.614 6.62045 3.73632 0
M  V30 7187 N 662.189 -1.289 0.906776 0
M  V30 7188 C 663.414 -1.99939 0.551303 0
M  V30 7189 C 663.839 -1.67366 -0.858496 0
M  V30 7190 O 663.197 -0.902176 -1.57259 0
M  V30 7191 C 663.245 -3.52523 0.758937 0
M  V30 7192 O 662.349 -4.11983 -0.185308 0
M  V30 7193 H 661.69 -0.628376 0.214568 0
M  V30 7194 H 664.22 -1.64225 1.2203 0
M  V30 7195 H 664.23 -4.02522 0.666329 0
M  V30 7196 H 662.905 -3.75566 1.78671 0
M  V30 7197 H 661.482 -3.72873 -0.0445577 0
M  V30 7198 N 663.667 -0.670007 -1.42649 0
M  V30 7199 C 664.597 -0.00258501 -2.335 0
M  V30 7200 C 665.578 0.794364 -1.50412 0
M  V30 7201 O 666.763 0.75248 -1.79029 0
M  V30 7202 C 663.893 0.952748 -3.33976 0
M  V30 7203 C 662.847 0.264733 -4.2718 0
M  V30 7204 C 662.173 1.33267 -5.17826 0
M  V30 7205 C 663.473 -0.853289 -5.15283 0
M  V30 7206 H 665.167 -0.761326 -2.89559 0
M  V30 7207 H 662.713 -0.367561 -1.3923 0
M  V30 7208 H 664.666 1.4287 -3.96442 0
M  V30 7209 H 663.39 1.74285 -2.7621 0
M  V30 7210 H 662.049 -0.190938 -3.66102 0
M  V30 7211 H 661.697 2.11464 -4.5639 0
M  V30 7212 H 661.397 0.877476 -5.81011 0
M  V30 7213 H 662.921 1.80965 -5.83167 0
M  V30 7214 H 664.335 -0.458763 -5.71462 0
M  V30 7215 H 662.732 -1.23398 -5.87276 0
M  V30 7216 H 663.802 -1.70412 -4.53969 0
M  V30 7217 N 665.145 1.52092 -0.413018 0
M  V30 7218 C 666.37 2.06756 0.163338 0
M  V30 7219 C 666.795 1.28073 1.37764 0
M  V30 7220 O 666.153 0.312015 1.78595 0
M  V30 7221 C 666.201 3.57278 0.488322 0
M  V30 7222 O 665.305 3.80986 1.57871 0
M  V30 7223 H 664.646 0.663882 0.0125068 0
M  V30 7224 H 667.176 1.95988 -0.587339 0
M  V30 7225 H 667.186 4.01125 0.745836 0
M  V30 7226 H 665.861 4.13978 -0.399327 0
M  V30 7227 H 664.438 3.49017 1.31306 0
M  V30 7228 N 666.623 0.143563 1.56945 0
M  V30 7229 C 667.871 -0.507402 1.95627 0
M  V30 7230 C 668.192 -1.65626 1.02922 0
M  V30 7231 O 667.462 -1.95693 0.0901136 0
M  V30 7232 H 666.042 -0.190436 0.722318 0
M  V30 7233 H 668.704 0.218257 1.93674 0
M  V30 7234 H 667.8 -0.885816 2.99265 0
M  V30 7235 N 668.101 -1.57061 -0.130224 0
M  V30 7236 C 669.326 -1.88802 -0.858409 0
M  V30 7237 C 669.751 -0.734353 -1.73173 0
M  V30 7238 O 669.109 0.315529 -1.78533 0
M  V30 7239 C 669.157 -3.19228 -1.67708 0
M  V30 7240 O 668.261 -3.04343 -2.78297 0
M  V30 7241 H 667.602 -0.619849 -0.238083 0
M  V30 7242 H 670.132 -2.04271 -0.115995 0
M  V30 7243 H 670.142 -3.51669 -2.06864 0
M  V30 7244 H 668.817 -4.02793 -1.0359 0
M  V30 7245 H 667.394 -2.83346 -2.42425 0
M  V30 7246 N 669.579 0.400081 -1.52437 0
M  V30 7247 C 670.809 1.16598 -1.70553 0
M  V30 7248 C 671.217 1.8451 -0.418665 0
M  V30 7249 O 670.56 1.73069 0.615855 0
M  V30 7250 C 670.622 2.26517 -2.7916 0
M  V30 7251 C 670.286 1.78666 -4.20628 0
M  V30 7252 C 671.283 1.26946 -5.04163 0
M  V30 7253 C 668.968 1.85225 -4.66902 0
M  V30 7254 C 670.962 0.824187 -6.32049 0
M  V30 7255 C 668.649 1.40309 -5.94774 0
M  V30 7256 C 669.647 0.889922 -6.77178 0
M  V30 7257 O 669.335 0.447281 -8.02655 0
M  V30 7258 H 669.067 0.356023 -0.574651 0
M  V30 7259 H 671.621 0.475598 -1.99818 0
M  V30 7260 H 669.851 2.98946 -2.45292 0
M  V30 7261 H 671.54 2.88237 -2.85787 0
M  V30 7262 H 672.306 1.21244 -4.69601 0
M  V30 7263 H 668.185 2.24111 -4.02859 0
M  V30 7264 H 671.729 0.422958 -6.96317 0
M  V30 7265 H 667.626 1.45693 -6.28843 0
M  V30 7266 H 668.394 0.569768 -8.16514 0
M  V30 7267 N 671.057 1.43213 0.657864 0
M  V30 7268 C 672.306 1.43871 1.41365 0
M  V30 7269 C 672.619 0.064898 1.95492 0
M  V30 7270 O 673.825 -0.0510796 2.71452 0
M  V30 7271 C 672.281 2.53158 2.55811 0
M  V30 7272 C 671.889 3.96624 2.08311 0
M  V30 7273 C 673.633 2.63004 3.3321 0
M  V30 7274 C 671.54 4.97385 3.1994 0
M  V30 7275 H 670.47 0.535174 0.531136 0
M  V30 7276 H 673.121 1.69185 0.710543 0
M  V30 7277 H 671.503 2.21037 3.2857 0
M  V30 7278 H 672.677 4.38182 1.42593 0
M  V30 7279 H 670.992 3.90781 1.43804 0
M  V30 7280 H 673.589 3.3546 4.16378 0
M  V30 7281 H 673.932 1.67918 3.80932 0
M  V30 7282 H 674.465 2.94403 2.67529 0
M  V30 7283 H 671.204 5.94007 2.77192 0
M  V30 7284 H 670.724 4.60444 3.84385 0
M  V30 7285 H 672.403 5.19877 3.85145 0
M  V30 7286 N 672.536 -0.895792 1.29666 0
M  V30 7287 C 673.486 -1.98736 1.1175 0
M  V30 7288 C 674.47 -1.6086 0.0357834 0
M  V30 7289 O 675.662 -1.75111 0.257926 0
M  V30 7290 C 672.791 -3.33845 0.800156 0
M  V30 7291 C 671.877 -3.78068 1.9216 0
M  V30 7292 N 672.268 -3.94489 3.16563 0
M  V30 7293 C 670.566 -4.07376 1.81552 0
M  V30 7294 C 671.267 -4.31819 3.89753 0
M  V30 7295 N 670.243 -4.41081 3.17724 0
M  V30 7296 H 674.045 -2.09507 2.06117 0
M  V30 7297 H 671.559 -1.08488 1.20848 0
M  V30 7298 H 673.556 -4.11757 0.652841 0
M  V30 7299 H 672.216 -3.24417 -0.135551 0
M  V30 7300 H 673.227 -3.79914 3.51974 0
M  V30 7301 H 669.904 -4.06483 0.952787 0
M  V30 7302 H 671.294 -4.52337 4.96831 0
M  V30 7303 N 674.014 -1.12206 -1.10668 0
M  V30 7304 C 674.944 -0.810086 -2.18997 0
M  V30 7305 C 675.925 0.225065 -1.68604 0
M  V30 7306 O 677.11 0.086783 -1.94006 0
M  V30 7307 C 674.24 -0.261262 -3.46316 0
M  V30 7308 C 673.194 -1.2292 -4.09969 0
M  V30 7309 C 672.52 -0.540713 -5.31959 0
M  V30 7310 C 673.82 -2.58295 -4.53962 0
M  V30 7311 H 675.514 -1.7159 -2.45352 0
M  V30 7312 H 673.06 -0.82646 -1.17922 0
M  V30 7313 H 675.013 -0.0307522 -4.21389 0
M  V30 7314 H 673.737 0.679879 -3.19445 0
M  V30 7315 H 672.396 -1.44548 -3.369 0
M  V30 7316 H 672.044 0.405492 -5.01363 0
M  V30 7317 H 671.744 -1.18637 -5.75499 0
M  V30 7318 H 673.268 -0.319184 -6.09765 0
M  V30 7319 H 674.682 -2.40709 -5.20319 0
M  V30 7320 H 673.079 -3.18916 -5.08343 0
M  V30 7321 H 674.149 -3.16918 -3.67002 0
M  V30 7322 N 675.492 1.28418 -0.913599 0
M  V30 7323 C 676.402 2.31043 -0.406965 0
M  V30 7324 C 677.418 1.66501 0.505298 0
M  V30 7325 O 678.594 1.97558 0.391522 0
M  V30 7326 C 675.659 3.4498 0.344901 0
M  V30 7327 C 674.72 4.25078 -0.600563 0
M  V30 7328 C 673.953 5.33575 0.115516 0
M  V30 7329 O 674.176 5.54503 1.33727 0
M  V30 7330 O 673.11 5.9939 -0.549095 0
M  V30 7331 H 676.936 2.76387 -1.25873 0
M  V30 7332 H 674.521 1.33109 -0.678415 0
M  V30 7333 H 676.403 4.14314 0.769542 0
M  V30 7334 H 675.078 3.01719 1.1725 0
M  V30 7335 H 673.985 3.58334 -1.0746 0
M  V30 7336 H 675.318 4.72018 -1.39497 0
M  V30 7337 N 676.97 0.677563 1.42291 0
M  V30 7338 C 678.381 0.277912 1.8462 0
M  V30 7339 C 678.732 -1.18048 1.56714 0
M  V30 7340 O 677.857 -1.90404 1.02836 0
M  V30 7341 C 678.452 0.497619 3.35126 0
M  V30 7342 C 677.011 0.152063 3.76093 0
M  V30 7343 C 676.158 0.78872 2.65847 0
M  V30 7344 H 679.109 0.879527 1.32098 0
M  V30 7345 H 679.13 -0.24939 3.79682 0
M  V30 7346 H 678.642 1.55913 3.55405 0
M  V30 7347 H 676.743 -0.905896 3.6142 0
M  V30 7348 H 676.856 0.594514 4.75397 0
M  V30 7349 H 675.22 0.219813 2.5375 0
M  V30 7350 H 676.003 1.85374 2.88949 0
M  V30 7351 N 678.448 -1.51871 0.421078 0
M  V30 7352 C 679.694 -2.02237 -0.151014 0
M  V30 7353 C 680.027 -1.30554 -1.43768 0
M  V30 7354 O 679.302 -0.41546 -1.90011 0
M  V30 7355 C 679.585 -3.5802 -0.386482 0
M  V30 7356 C 679.438 -4.40339 0.9177 0
M  V30 7357 C 680.757 -4.24444 -1.16342 0
M  V30 7358 H 677.876 -0.735062 -0.0534102 0
M  V30 7359 H 680.518 -1.81656 0.556888 0
M  V30 7360 H 678.668 -3.75688 -0.989494 0
M  V30 7361 H 680.34 -4.34357 1.55344 0
M  V30 7362 H 678.583 -4.06073 1.526 0
M  V30 7363 H 679.254 -5.47451 0.707187 0
M  V30 7364 H 681.73 -4.10948 -0.652788 0
M  V30 7365 H 680.606 -5.33358 -1.29693 0
M  V30 7366 H 680.867 -3.84204 -2.18724 0
M  V30 7367 N 679.926 -0.151884 -1.56866 0
M  V30 7368 C 680.889 0.771861 -2.15812 0
M  V30 7369 C 681.889 1.17181 -1.10115 0
M  V30 7370 O 683.079 1.09194 -1.35729 0
M  V30 7371 C 680.211 2.04806 -2.7252 0
M  V30 7372 H 681.404 0.259021 -2.98779 0
M  V30 7373 H 678.957 0.097588 -1.55995 0
M  V30 7374 H 679.692 2.60445 -1.93233 0
M  V30 7375 H 679.477 1.77044 -3.49854 0
M  V30 7376 H 680.967 2.70771 -3.1792 0
M  V30 7377 N 681.404 1.57128 0.121893 0
M  V30 7378 C 682.652 1.84335 0.828548 0
M  V30 7379 C 682.973 0.736632 1.80551 0
M  V30 7380 O 682.243 -0.23962 1.94429 0
M  V30 7381 H 680.823 0.680108 0.30897 0
M  V30 7382 H 683.485 1.9459 0.109906 0
M  V30 7383 H 682.581 2.80152 1.37554 0
M  V30 7384 N 682.882 -0.391992 1.52647 0
M  V30 7385 C 684.11 -1.1586 1.71418 0
M  V30 7386 C 684.525 -1.8381 0.431216 0
M  V30 7387 O 683.882 -1.7256 -0.594085 0
M  V30 7388 C 683.933 -2.20888 2.86165 0
M  V30 7389 O 683.654 -1.5571 4.09495 0
M  V30 7390 C 685.155 -3.103 3.1659 0
M  V30 7391 H 682.375 -0.347494 0.574011 0
M  V30 7392 H 684.919 -0.458972 1.99283 0
M  V30 7393 H 683.074 -2.86492 2.6077 0
M  V30 7394 H 683.488 -2.25474 4.73563 0
M  V30 7395 H 684.962 -3.8003 4.00351 0
M  V30 7396 H 685.439 -3.73639 2.30848 0
M  V30 7397 H 686.045 -2.50345 3.43813 0
M  V30 7398 N 684.36 -1.4356 -0.65026 0
M  V30 7399 C 685.29 -1.51758 -1.77459 0
M  V30 7400 C 686.271 -0.372019 -1.65982 0
M  V30 7401 O 687.456 -0.589627 -1.85033 0
M  V30 7402 C 684.586 -1.44302 -3.15902 0
M  V30 7403 C 683.54 -2.57138 -3.42146 0
M  V30 7404 C 682.866 -2.34735 -4.8042 0
M  V30 7405 C 684.166 -3.99373 -3.36598 0
M  V30 7406 H 685.86 -2.45863 -1.70855 0
M  V30 7407 H 683.406 -1.18333 -0.820566 0
M  V30 7408 H 685.359 -1.48641 -3.94314 0
M  V30 7409 H 684.083 -0.467026 -3.23244 0
M  V30 7410 H 682.742 -2.52157 -2.66106 0
M  V30 7411 H 682.39 -1.35372 -4.84441 0
M  V30 7412 H 682.09 -3.10375 -4.9894 0
M  V30 7413 H 683.614 -2.40862 -5.61086 0
M  V30 7414 H 685.028 -4.05826 -4.04942 0
M  V30 7415 H 683.425 -4.75063 -3.66654 0
M  V30 7416 H 684.495 -4.243 -2.34729 0
M  V30 7417 N 685.838 0.888903 -1.30139 0
M  V30 7418 C 687.249 1.45578 -1.16893 0
M  V30 7419 C 687.6 1.94825 0.231866 0
M  V30 7420 O 686.725 1.84661 1.12824 0
M  V30 7421 C 687.32 2.646 -2.11595 0
M  V30 7422 C 685.879 3.17389 -2.02339 0
M  V30 7423 C 685.026 1.90081 -2.01902 0
M  V30 7424 H 687.977 0.69921 -1.42467 0
M  V30 7425 H 687.998 3.40687 -1.69449 0
M  V30 7426 H 687.51 2.28726 -3.13538 0
M  V30 7427 H 685.611 3.5793 -1.03523 0
M  V30 7428 H 685.724 3.80955 -2.90534 0
M  V30 7429 H 684.088 2.08246 -1.46648 0
M  V30 7430 H 684.871 1.5647 -3.05568 0
M  V30 7431 N 687.317 1.12792 1.10072 0
M  V30 7432 C 688.557 0.895691 1.8373 0
M  V30 7433 C 688.921 -0.568131 1.83402 0
M  V30 7434 O 690.122 -0.917666 2.52651 0
M  V30 7435 C 688.393 1.4593 3.2625 0
M  V30 7436 S 689.952 1.36615 4.16991 0
M  V30 7437 H 686.77 0.323017 0.633389 0
M  V30 7438 H 689.372 1.43816 1.32428 0
M  V30 7439 H 688.076 2.51818 3.24062 0
M  V30 7440 H 687.607 0.914478 3.82624 0
M  V30 7441 H 689.622 0.340131 4.95033 0
M  V30 7442 N 688.795 -1.27931 0.920396 0
M  V30 7443 C 690.043 -1.94304 0.555906 0
M  V30 7444 C 690.364 -1.72753 -0.904519 0
M  V30 7445 O 689.634 -1.07104 -1.64029 0
M  V30 7446 H 688.214 -0.719001 0.202599 0
M  V30 7447 H 690.876 -1.55785 1.1712 0
M  V30 7448 H 689.972 -3.02806 0.755981 0
M  V30 7449 N 690.273 -0.685099 -1.4193 0
M  V30 7450 C 691.223 0.00977295 -2.27998 0
M  V30 7451 C 692.207 0.763315 -1.41641 0
M  V30 7452 O 693.399 0.640532 -1.65004 0
M  V30 7453 C 690.528 0.952972 -3.29808 0
M  V30 7454 C 689.614 0.196231 -4.23646 0
M  V30 7455 N 690.005 -0.804401 -4.99363 0
M  V30 7456 C 688.303 0.433213 -4.43891 0
M  V30 7457 C 689.004 -1.25646 -5.67968 0
M  V30 7458 N 687.98 -0.5844 -5.4045 0
M  V30 7459 H 691.782 -0.757586 -2.83968 0
M  V30 7460 H 689.296 -0.515037 -1.54017 0
M  V30 7461 H 691.293 1.46585 -3.9028 0
M  V30 7462 H 689.953 1.72004 -2.75399 0
M  V30 7463 H 690.964 -1.18429 -5.04177 0
M  V30 7464 H 687.641 1.17899 -4.00507 0
M  V30 7465 H 689.031 -2.08622 -6.38691 0
M  V30 7466 N 691.751 1.51645 -0.429126 0
M  V30 7467 C 692.979 2.06433 0.138994 0
M  V30 7468 C 693.394 1.29735 1.37165 0
M  V30 7469 O 692.751 0.354638 1.79021 0
M  V30 7470 C 692.802 3.58439 0.469452 0
M  V30 7471 O 692.523 4.32238 -0.714273 0
M  V30 7472 C 694.024 4.29712 1.08914 0
M  V30 7473 H 691.244 0.6709 0.0115608 0
M  V30 7474 H 693.788 1.9532 -0.605843 0
M  V30 7475 H 691.943 3.69494 1.16419 0
M  V30 7476 H 692.357 5.22704 -0.433633 0
M  V30 7477 H 693.831 5.37182 1.27042 0
M  V30 7478 H 694.308 3.87473 2.06788 0
M  V30 7479 H 694.914 4.2308 0.434028 0
M  V30 7480 N 693.229 0.160201 1.56784 0
M  V30 7481 C 694.139 -0.787167 2.21 0
M  V30 7482 C 695.155 -1.26167 1.19825 0
M  V30 7483 O 696.331 -1.31611 1.52448 0
M  V30 7484 C 693.396 -2.00364 2.8294 0
M  V30 7485 C 692.457 -1.5771 3.99282 0
M  V30 7486 C 691.69 -2.73558 4.58259 0
M  V30 7487 O 691.913 -3.90129 4.16119 0
M  V30 7488 O 690.847 -2.48271 5.48311 0
M  V30 7489 H 694.673 -0.270462 3.02493 0
M  V30 7490 H 692.258 -0.0674666 1.49248 0
M  V30 7491 H 694.14 -2.71529 3.22257 0
M  V30 7492 H 692.815 -2.50961 2.04451 0
M  V30 7493 H 691.722 -0.835274 3.64656 0
M  V30 7494 H 693.055 -1.11815 4.79331 0
M  V30 7495 N 694.707 -1.5719 -0.113559 0
M  V30 7496 C 695.935 -1.89328 -0.834422 0
M  V30 7497 C 696.35 -0.752018 -1.73177 0
M  V30 7498 O 695.707 0.276912 -1.80387 0
M  V30 7499 C 695.758 -3.20962 -1.66329 0
M  V30 7500 O 695.479 -4.30695 -0.802069 0
M  V30 7501 C 696.98 -3.6684 -2.48884 0
M  V30 7502 H 694.2 -0.626769 -0.239587 0
M  V30 7503 H 696.744 -2.04273 -0.0963195 0
M  V30 7504 H 694.899 -3.0767 -2.35409 0
M  V30 7505 H 695.313 -5.06175 -1.37431 0
M  V30 7506 H 696.787 -4.61692 -3.02563 0
M  V30 7507 H 697.264 -2.93765 -3.26495 0
M  V30 7508 H 697.87 -3.82938 -1.85036 0
M  V30 7509 N 696.185 0.383891 -1.52853 0
M  V30 7510 C 697.434 1.12563 -1.67369 0
M  V30 7511 C 697.747 1.90982 -0.422533 0
M  V30 7512 O 698.953 2.6778 -0.447914 0
M  V30 7513 C 697.409 2.05011 -2.95801 0
M  V30 7514 C 697.017 1.31991 -4.28115 0
M  V30 7515 C 698.761 2.79289 -3.19684 0
M  V30 7516 C 696.668 2.23235 -5.4765 0
M  V30 7517 H 695.598 0.42391 -0.623552 0
M  V30 7518 H 698.249 0.388016 -1.79351 0
M  V30 7519 H 696.631 2.82429 -2.77578 0
M  V30 7520 H 697.805 0.597633 -4.56908 0
M  V30 7521 H 696.12 0.696517 -4.10533 0
M  V30 7522 H 698.717 3.47749 -4.06171 0
M  V30 7523 H 699.06 3.43649 -2.3497 0
M  V30 7524 H 699.593 2.08962 -3.38496 0
M  V30 7525 H 696.332 1.63482 -6.34786 0
M  V30 7526 H 695.852 2.93364 -5.23161 0
M  V30 7527 H 697.531 2.83205 -5.81725 0
M  V30 7528 N 697.663 1.43903 0.642637 0
M  V30 7529 C 698.891 1.4954 1.42988 0
M  V30 7530 C 699.306 0.116588 1.8844 0
M  V30 7531 O 698.663 -0.875285 1.60141 0
M  V30 7532 C 698.714 2.45031 2.65785 0
M  V30 7533 O 698.435 3.77551 2.22232 0
M  V30 7534 C 699.936 2.60017 3.59035 0
M  V30 7535 H 697.156 0.507544 0.438907 0
M  V30 7536 H 699.7 1.88752 0.786942 0
M  V30 7537 H 697.855 2.08985 3.26196 0
M  V30 7538 H 698.269 4.29001 3.01759 0
M  V30 7539 H 699.743 3.30887 4.41835 0
M  V30 7540 H 700.22 1.64861 4.07084 0
M  V30 7541 H 700.826 2.96918 3.045 0
M  V30 7542 N 699.141 -0.881989 1.30609 0
M  V30 7543 C 700.104 -1.96957 1.1722 0
M  V30 7544 C 701.104 -1.60472 0.102598 0
M  V30 7545 O 702.294 -1.70628 0.350943 0
M  V30 7546 C 699.426 -3.31463 0.796572 0
M  V30 7547 H 700.619 -2.10262 2.13846 0
M  V30 7548 H 698.172 -1.06877 1.14048 0
M  V30 7549 H 698.907 -3.23859 -0.169053 0
M  V30 7550 H 698.692 -3.59314 1.56959 0
M  V30 7551 H 700.182 -4.11233 0.72645 0
M  V30 7552 N 700.619 -1.13374 -1.09472 0
M  V30 7553 C 701.569 -0.77946 -2.14263 0
M  V30 7554 C 702.553 0.226271 -1.59301 0
M  V30 7555 O 703.745 0.0302581 -1.76974 0
M  V30 7556 C 700.874 -0.246635 -3.42413 0
M  V30 7557 C 699.96 -1.28124 -4.04283 0
M  V30 7558 N 700.351 -2.48201 -4.40715 0
M  V30 7559 C 698.649 -1.12892 -4.31476 0
M  V30 7560 C 699.35 -3.14347 -4.8945 0
M  V30 7561 N 698.326 -2.41771 -4.86876 0
M  V30 7562 H 702.128 -1.69305 -2.40235 0
M  V30 7563 H 699.642 -1.01598 -1.26695 0
M  V30 7564 H 701.639 0.0254131 -4.16892 0
M  V30 7565 H 700.299 0.661287 -3.17895 0
M  V30 7566 H 701.31 -2.85511 -4.32093 0
M  V30 7567 H 697.987 -0.279117 -4.16566 0
M  V30 7568 H 699.377 -4.16663 -5.27107 0
M  V30 7569 N 702.098 1.27442 -0.927168 0
M  V30 7570 C 703.328 1.9821 -0.582775 0
M  V30 7571 C 703.736 1.69361 0.843406 0
M  V30 7572 O 703.079 0.950381 1.57205 0
M  V30 7573 C 703.141 3.52048 -0.728165 0
M  V30 7574 C 702.805 4.04518 -2.12637 0
M  V30 7575 C 703.802 4.17332 -3.10048 0
M  V30 7576 C 701.487 4.38879 -2.44317 0
M  V30 7577 C 703.481 4.6378 -4.37249 0
M  V30 7578 C 701.168 4.85018 -3.71753 0
M  V30 7579 C 702.166 4.97428 -4.68033 0
M  V30 7580 O 701.854 5.42556 -5.93202 0
M  V30 7581 H 701.586 0.639314 -0.219667 0
M  V30 7582 H 704.14 1.63272 -1.24626 0
M  V30 7583 H 702.37 3.86699 -0.00758143 0
M  V30 7584 H 704.059 4.04033 -0.388906 0
M  V30 7585 H 704.825 3.91046 -2.86894 0
M  V30 7586 H 700.704 4.28462 -1.70121 0
M  V30 7587 H 704.248 4.73382 -5.12402 0
M  V30 7588 H 700.145 5.10746 -3.94726 0
M  V30 7589 H 700.913 5.60811 -5.96182 0
M  V30 7590 N 703.576 0.692616 1.41565 0
M  V30 7591 C 704.804 0.231279 2.05603 0
M  V30 7592 C 705.219 -1.11837 1.52111 0
M  V30 7593 O 704.576 -1.6983 0.66813 0
M  V30 7594 C 704.627 0.177125 3.61066 0
M  V30 7595 O 704.348 1.47346 4.12578 0
M  V30 7596 C 705.849 -0.30556 4.42246 0
M  V30 7597 H 703.069 0.108238 0.662213 0
M  V30 7598 H 705.613 0.944369 1.81389 0
M  V30 7599 H 703.768 -0.486769 3.8433 0
M  V30 7600 H 704.182 1.35861 5.06599 0
M  V30 7601 H 705.656 -0.29233 5.51225 0
M  V30 7602 H 706.133 -1.34393 4.18133 0
M  V30 7603 H 706.739 0.327229 4.24039 0
M  V30 7604 N 705.054 -1.51416 0.437162 0
M  V30 7605 C 705.984 -2.30631 -0.364922 0
M  V30 7606 C 706.965 -1.36037 -1.02118 0
M  V30 7607 O 708.15 -1.64956 -1.02485 0
M  V30 7608 C 705.28 -3.1482 -1.46648 0
M  V30 7609 C 704.234 -4.17691 -0.933717 0
M  V30 7610 C 703.56 -4.904 -2.13101 0
M  V30 7611 C 704.86 -5.2229 0.0317201 0
M  V30 7612 H 706.554 -2.97932 0.29614 0
M  V30 7613 H 704.1 -1.4328 0.143865 0
M  V30 7614 H 706.053 -3.69017 -2.03481 0
M  V30 7615 H 704.777 -2.4534 -2.15583 0
M  V30 7616 H 703.436 -3.64545 -0.387602 0
M  V30 7617 H 703.084 -4.17423 -2.80654 0
M  V30 7618 H 702.784 -5.59962 -1.78092 0
M  V30 7619 H 704.308 -5.4742 -2.70487 0
M  V30 7620 H 705.722 -5.7156 -0.446302 0
M  V30 7621 H 704.119 -5.99378 0.29437 0
M  V30 7622 H 705.189 -4.75131 0.968447 0
M  V30 7623 N 706.532 -0.168513 -1.56696 0
M  V30 7624 C 707.48 0.779791 -2.19139 0
M  V30 7625 C 708.474 1.23957 -1.1546 0
M  V30 7626 O 709.68 1.20555 -1.33666 0
M  V30 7627 H 706.055 0.269739 -0.701958 0
M  V30 7628 H 708.026 0.229156 -2.97519 0
M  V30 7629 C 706.775 2.00003 -2.84419 0
M  V30 7630 H 706.098 1.65527 -3.63924 0
M  V30 7631 H 707.538 2.64251 -3.31583 0
M  V30 7632 C 705.997 2.82187 -1.84044 0
M  V30 7633 O 706.527 3.79247 -1.32418 0
M  V30 7634 N 704.733 2.47145 -1.52864 0
M  V30 7635 H 704.28 1.68277 -1.9504 0
M  V30 7636 H 704.238 3.02422 -0.859569 0
M  V30 7637 N 708.01 1.57248 0.105221 0
M  V30 7638 C 709.426 1.52853 0.459153 0
M  V30 7639 C 709.626 0.883674 1.8109 0
M  V30 7640 O 708.682 0.471864 2.48052 0
M  V30 7641 C 709.995 2.97596 0.43096 0
M  V30 7642 C 711.543 3.08758 0.513536 0
M  V30 7643 C 712.018 4.55089 0.515593 0
M  V30 7644 N 713.509 4.59597 0.576639 0
M  V30 7645 C 714.244 5.70253 0.599904 0
M  V30 7646 N 713.74 6.90368 0.579985 0
M  V30 7647 N 715.533 5.58399 0.643953 0
M  V30 7648 H 707.684 1.97547 -0.780306 0
M  V30 7649 H 709.947 0.902758 -0.289363 0
M  V30 7650 H 709.653 3.48201 -0.494903 0
M  V30 7651 H 709.527 3.55756 1.2537 0
M  V30 7652 H 711.914 2.58148 1.42982 0
M  V30 7653 H 711.995 2.53568 -0.337148 0
M  V30 7654 H 711.639 5.06348 -0.396701 0
M  V30 7655 H 711.569 5.08105 1.38335 0
M  V30 7656 H 714.06 3.73144 0.597639 0
M  V30 7657 H 714.373 7.70462 0.600741 0
M  V30 7658 H 712.718 6.92843 0.547191 0
M  V30 7659 H 715.909 4.63467 0.656975 0
M  V30 7660 H 716.082 6.44644 0.658616 0
M  V30 7661 N 709.488 -0.375779 1.53054 0
M  V30 7662 C 710.42 -1.47963 1.75042 0
M  V30 7663 C 711.433 -1.50073 0.631031 0
M  V30 7664 O 712.622 -1.53736 0.907052 0
M  V30 7665 C 709.722 -2.86767 1.80604 0
M  V30 7666 C 708.895 -3.08471 3.10104 0
M  V30 7667 C 707.954 -4.27332 3.07041 0
M  V30 7668 O 706.98 -4.22998 3.80869 0
M  V30 7669 N 708.182 -5.34214 2.27147 0
M  V30 7670 H 710.947 -1.29484 2.70285 0
M  V30 7671 H 708.508 -0.565416 1.51706 0
M  V30 7672 H 710.5 -3.64404 1.76045 0
M  V30 7673 H 709.07 -2.98542 0.926897 0
M  V30 7674 H 708.29 -2.18583 3.28048 0
M  V30 7675 H 709.578 -3.19834 3.95706 0
M  V30 7676 H 708.976 -5.40594 1.66656 0
M  V30 7677 H 707.533 -6.10467 2.28415 0
M  V30 7678 N 710.966 -1.44241 -0.634997 0
M  V30 7679 C 711.929 -1.50457 -1.72903 0
M  V30 7680 C 712.929 -0.387058 -1.56072 0
M  V30 7681 O 714.119 -0.649531 -1.61638 0
M  V30 7682 C 711.251 -1.37477 -3.1195 0
M  V30 7683 H 712.444 -2.47907 -1.68767 0
M  V30 7684 H 709.997 -1.31276 -0.84831 0
M  V30 7685 H 710.732 -0.41106 -3.21684 0
M  V30 7686 H 710.517 -2.18506 -3.25573 0
M  V30 7687 H 712.007 -1.44799 -3.91692 0
M  V30 7688 N 712.444 0.87505 -1.31075 0
M  V30 7689 C 713.377 1.98471 -1.12625 0
M  V30 7690 C 714.355 1.6257 -0.0311379 0
M  V30 7691 O 715.539 1.87574 -0.186594 0
M  V30 7692 C 712.666 3.30963 -0.719799 0
M  V30 7693 C 711.712 3.85849 -1.81722 0
M  V30 7694 S 712.545 4.11926 -3.42165 0
M  V30 7695 C 713.701 5.47423 -3.03445 0
M  V30 7696 H 713.934 2.13817 -2.06566 0
M  V30 7697 H 711.467 1.02463 -1.15502 0
M  V30 7698 H 713.425 4.07541 -0.492035 0
M  V30 7699 H 712.086 3.1346 0.200413 0
M  V30 7700 H 711.279 4.81616 -1.48533 0
M  V30 7701 H 710.881 3.16046 -1.99977 0
M  V30 7702 H 713.173 6.28881 -2.52023 0
M  V30 7703 H 714.116 5.85557 -3.98157 0
M  V30 7704 H 714.524 5.10455 -2.41031 0
M  V30 7705 N 713.922 1.13953 1.08869 0
M  V30 7706 C 715.17 0.903023 1.80803 0
M  V30 7707 C 715.491 -0.572151 1.86417 0
M  V30 7708 O 714.761 -1.41589 1.35386 0
M  V30 7709 H 713.341 0.331099 0.669614 0
M  V30 7710 H 716.003 1.43719 1.31647 0
M  V30 7711 H 715.099 1.29881 2.83791 0
M  V30 7712 N 715.4 -1.26948 0.933913 0
M  V30 7713 C 716.31 -2.30366 0.443671 0
M  V30 7714 C 717.326 -1.67284 -0.478745 0
M  V30 7715 O 718.502 -1.98156 -0.360043 0
M  V30 7716 C 715.567 -3.45485 -0.289974 0
M  V30 7717 C 714.628 -4.24069 0.668114 0
M  V30 7718 C 713.861 -5.33691 -0.0306138 0
M  V30 7719 O 714.084 -5.5656 -1.24888 0
M  V30 7720 O 713.018 -5.98441 0.644384 0
M  V30 7721 H 716.844 -2.74349 1.30254 0
M  V30 7722 H 714.429 -1.32012 0.699506 0
M  V30 7723 H 716.311 -4.15486 -0.70353 0
M  V30 7724 H 714.986 -3.03546 -1.12435 0
M  V30 7725 H 713.893 -3.56579 1.13147 0
M  V30 7726 H 715.226 -4.69739 1.46989 0
M  V30 7727 N 716.879 -0.700114 -1.41195 0
M  V30 7728 C 717.809 -0.0521132 -2.33442 0
M  V30 7729 C 718.79 0.76228 -1.52063 0
M  V30 7730 O 719.975 0.714336 -1.80585 0
M  V30 7731 C 717.105 0.881693 -3.35922 0
M  V30 7732 C 716.059 0.174062 -4.27646 0
M  V30 7733 C 715.385 1.22254 -5.20536 0
M  V30 7734 C 716.685 -0.962396 -5.13357 0
M  V30 7735 H 718.379 -0.822574 -2.87879 0
M  V30 7736 H 715.925 -0.397011 -1.38419 0
M  V30 7737 H 717.878 1.34429 -3.99383 0
M  V30 7738 H 716.602 1.68387 -2.79845 0
M  V30 7739 H 715.261 -0.268551 -3.65615 0
M  V30 7740 H 714.909 2.01736 -4.60773 0
M  V30 7741 H 714.609 0.754038 -5.82742 0
M  V30 7742 H 716.133 1.68555 -5.86874 0
M  V30 7743 H 717.547 -0.579875 -5.7036 0
M  V30 7744 H 715.944 -1.35828 -5.84526 0
M  V30 7745 H 717.014 -1.80003 -4.50252 0
M  V30 7746 N 718.357 1.51182 -0.445186 0
M  V30 7747 C 719.582 2.07056 0.119445 0
M  V30 7748 C 720.007 1.30966 1.35016 0
M  V30 7749 O 719.365 0.349827 1.77893 0
M  V30 7750 C 719.413 3.58234 0.412428 0
M  V30 7751 O 718.517 3.84249 1.49754 0
M  V30 7752 H 717.858 0.663998 -0.00157797 0
M  V30 7753 H 720.388 1.94699 -0.628779 0
M  V30 7754 H 720.398 4.02617 0.660583 0
M  V30 7755 H 719.073 4.13038 -0.487049 0
M  V30 7756 H 717.65 3.51724 1.23873 0
M  V30 7757 N 719.835 0.176821 1.56605 0
M  V30 7758 C 720.745 -0.763682 2.21822 0
M  V30 7759 C 721.761 -1.24889 1.21156 0
M  V30 7760 O 722.937 -1.29987 1.53836 0
M  V30 7761 C 720.002 -1.97352 2.8505 0
M  V30 7762 C 719.063 -1.53466 4.00932 0
M  V30 7763 C 718.296 -2.68682 4.61135 0
M  V30 7764 O 718.519 -3.85694 4.20234 0
M  V30 7765 O 717.453 -2.42442 5.50913 0
M  V30 7766 H 721.279 -0.238363 3.02763 0
M  V30 7767 H 718.864 -0.0516331 1.49311 0
M  V30 7768 H 720.746 -2.68096 3.25119 0
M  V30 7769 H 719.421 -2.48779 2.07101 0
M  V30 7770 H 718.328 -0.796551 3.65521 0
M  V30 7771 H 719.661 -1.06724 4.8049 0
M  V30 7772 N 721.313 -1.57302 -0.09688 0
M  V30 7773 C 722.243 -2.0497 -1.11846 0
M  V30 7774 C 723.224 -0.938278 -1.41882 0
M  V30 7775 O 724.409 -1.20943 -1.51942 0
M  V30 7776 C 721.539 -2.47264 -2.43881 0
M  V30 7777 C 720.493 -3.62053 -2.28257 0
M  V30 7778 C 719.819 -3.90318 -3.65453 0
M  V30 7779 C 721.119 -4.93005 -1.72461 0
M  V30 7780 H 722.813 -2.90567 -0.721888 0
M  V30 7781 H 720.359 -1.39786 -0.345803 0
M  V30 7782 H 722.312 -2.7922 -3.15617 0
M  V30 7783 H 721.036 -1.58664 -2.8547 0
M  V30 7784 H 719.695 -3.30341 -1.58967 0
M  V30 7785 H 719.343 -2.98889 -4.04567 0
M  V30 7786 H 719.043 -4.67597 -3.55846 0
M  V30 7787 H 720.567 -4.24747 -4.3866 0
M  V30 7788 H 721.981 -5.23354 -2.34036 0
M  V30 7789 H 720.378 -5.74436 -1.73618 0
M  V30 7790 H 721.448 -4.80053 -0.683898 0
M  V30 7791 N 722.791 0.367657 -1.53252 0
M  V30 7792 C 724.016 1.13566 -1.73544 0
M  V30 7793 C 724.441 1.82329 -0.462344 0
M  V30 7794 O 723.799 1.71655 0.583472 0
M  V30 7795 C 723.847 2.14322 -2.89997 0
M  V30 7796 O 722.951 3.21359 -2.58461 0
M  V30 7797 H 722.292 0.329614 -0.576412 0
M  V30 7798 H 724.822 0.425417 -2.00128 0
M  V30 7799 H 724.832 2.57958 -3.16104 0
M  V30 7800 H 723.507 1.63664 -3.82344 0
M  V30 7801 H 722.084 2.8271 -2.43165 0
M  V30 7802 N 724.269 1.44576 0.627338 0
M  V30 7803 C 725.516 1.47558 1.38682 0
M  V30 7804 C 725.844 0.109636 1.94191 0
M  V30 7805 O 725.099 -0.889092 1.74338 0
M  V30 7806 C 725.398 2.48644 2.56731 0
M  V30 7807 C 725.064 3.93873 2.19489 0
M  V30 7808 C 723.726 4.33421 2.09045 0
M  V30 7809 C 726.078 4.85286 1.90124 0
M  V30 7810 C 723.406 5.62303 1.6743 0
M  V30 7811 C 725.758 6.14559 1.50001 0
M  V30 7812 C 724.422 6.53058 1.38101 0
M  V30 7813 H 723.692 0.539955 0.507474 0
M  V30 7814 H 726.339 1.77811 0.711021 0
M  V30 7815 H 724.644 2.11889 3.29561 0
M  V30 7816 H 726.341 2.48197 3.14959 0
M  V30 7817 H 722.931 3.62587 2.28537 0
M  V30 7818 H 727.115 4.55483 1.971 0
M  V30 7819 H 722.371 5.90945 1.56823 0
M  V30 7820 H 726.545 6.84848 1.26319 0
M  V30 7821 H 724.172 7.52826 1.05628 0
M  V30 7822 N 725.747 -0.868086 1.31537 0
M  V30 7823 C 726.697 -1.96321 1.1594 0
M  V30 7824 C 727.681 -1.60748 0.0698962 0
M  V30 7825 O 728.873 -1.74524 0.295011 0
M  V30 7826 C 726.002 -3.32073 0.870789 0
M  V30 7827 C 725.088 -3.73907 2.00136 0
M  V30 7828 N 725.479 -3.87685 3.24859 0
M  V30 7829 C 723.777 -4.03433 1.90152 0
M  V30 7830 C 724.478 -4.23454 3.98825 0
M  V30 7831 N 723.454 -4.34242 3.27009 0
M  V30 7832 H 727.256 -2.05088 2.10514 0
M  V30 7833 H 724.77 -1.059 1.23122 0
M  V30 7834 H 726.767 -4.10279 0.740034 0
M  V30 7835 H 725.427 -3.24631 -0.0667068 0
M  V30 7836 H 726.438 -3.72363 3.59953 0
M  V30 7837 H 723.115 -4.0437 1.03879 0
M  V30 7838 H 724.505 -4.41696 5.06314 0
M  V30 7839 N 727.225 -1.14528 -1.08264 0
M  V30 7840 C 728.455 -0.936604 -1.8415 0
M  V30 7841 C 728.863 0.518298 -1.81962 0
M  V30 7842 O 728.206 1.37096 -1.22272 0
M  V30 7843 C 728.268 -1.36182 -3.32708 0
M  V30 7844 C 727.932 -2.83257 -3.58629 0
M  V30 7845 C 728.929 -3.81366 -3.5335 0
M  V30 7846 C 726.614 -3.20704 -3.86593 0
M  V30 7847 C 728.608 -5.14929 -3.75668 0
M  V30 7848 C 726.295 -4.54443 -4.08564 0
M  V30 7849 C 727.293 -5.51365 -4.03095 0
M  V30 7850 O 726.981 -6.8269 -4.24488 0
M  V30 7851 H 726.713 -0.333254 -0.588148 0
M  V30 7852 H 729.267 -1.5247 -1.3763 0
M  V30 7853 H 727.497 -0.717063 -3.79994 0
M  V30 7854 H 729.186 -1.12372 -3.90035 0
M  V30 7855 H 729.952 -3.53781 -3.31759 0
M  V30 7856 H 725.831 -2.45857 -3.89969 0
M  V30 7857 H 729.375 -5.90568 -3.71315 0
M  V30 7858 H 725.272 -4.81747 -4.29639 0
M  V30 7859 H 726.04 -6.8897 -4.41886 0
M  V30 7860 N 728.703 1.26451 -0.940633 0
M  V30 7861 C 729.633 2.28773 -0.467479 0
M  V30 7862 C 730.614 1.63218 0.478955 0
M  V30 7863 O 731.799 1.90427 0.380929 0
M  V30 7864 C 728.929 3.46259 0.268656 0
M  V30 7865 C 727.883 4.23898 -0.591171 0
M  V30 7866 C 727.209 5.33993 0.274891 0
M  V30 7867 C 728.509 4.87974 -1.86223 0
M  V30 7868 H 730.203 2.68601 -1.32265 0
M  V30 7869 H 727.749 1.29123 -0.637436 0
M  V30 7870 H 729.702 4.16951 0.610696 0
M  V30 7871 H 728.426 3.05383 1.15796 0
M  V30 7872 H 727.085 3.54969 -0.916098 0
M  V30 7873 H 726.733 4.89358 1.16353 0
M  V30 7874 H 726.433 5.86849 -0.297006 0
M  V30 7875 H 727.957 6.07523 0.612213 0
M  V30 7876 H 729.371 5.50883 -1.58747 0
M  V30 7877 H 727.768 5.50945 -2.37866 0
M  V30 7878 H 728.838 4.10945 -2.57394 0
M  V30 7879 N 730.181 0.707592 1.40822 0
M  V30 7880 C 731.43 0.240705 2.00259 0
M  V30 7881 C 731.743 -1.17027 1.56729 0
M  V30 7882 O 732.949 -1.73526 2.08809 0
M  V30 7883 C 731.405 0.379432 3.57894 0
M  V30 7884 C 731.013 1.79654 4.104 0
M  V30 7885 C 732.757 -0.0270684 4.24491 0
M  V30 7886 C 730.664 1.88628 5.60512 0
M  V30 7887 H 729.594 0.0862369 0.749052 0
M  V30 7888 H 732.245 0.877528 1.61157 0
M  V30 7889 H 730.627 -0.325842 3.94657 0
M  V30 7890 H 731.801 2.53155 3.85032 0
M  V30 7891 H 730.116 2.15379 3.56372 0
M  V30 7892 H 732.713 0.0193743 5.34696 0
M  V30 7893 H 733.056 -1.06772 4.02375 0
M  V30 7894 H 733.589 0.628361 3.92806 0
M  V30 7895 H 730.328 2.90787 5.87472 0
M  V30 7896 H 729.848 1.19528 5.8777 0
M  V30 7897 H 731.527 1.6547 6.25483 0
M  V30 7898 N 731.66 -1.50943 0.453197 0
M  V30 7899 C 732.593 -2.24742 -0.395787 0
M  V30 7900 C 733.571 -1.27316 -1.01141 0
M  V30 7901 O 734.755 -1.56494 -1.05081 0
M  V30 7902 C 731.882 -3.00999 -1.55298 0
M  V30 7903 C 730.928 -4.13207 -1.0565 0
M  V30 7904 S 731.761 -5.35498 0.01435 0
M  V30 7905 C 732.917 -6.15298 -1.14714 0
M  V30 7906 H 733.15 -2.96403 0.23071 0
M  V30 7907 H 730.683 -1.52557 0.237874 0
M  V30 7908 H 732.641 -3.45529 -2.2163 0
M  V30 7909 H 731.302 -2.28896 -2.15094 0
M  V30 7910 H 730.495 -4.65901 -1.9223 0
M  V30 7911 H 730.097 -3.7102 -0.471182 0
M  V30 7912 H 732.389 -6.45346 -2.06239 0
M  V30 7913 H 733.332 -7.05019 -0.659842 0
M  V30 7914 H 733.74 -5.47046 -1.39288 0
M  V30 7915 N 733.138 -0.185124 -1.56509 0
M  V30 7916 C 734.101 0.72591 -2.17401 0
M  V30 7917 C 735.101 1.14819 -1.12575 0
M  V30 7918 O 736.291 1.0629 -1.38015 0
M  V30 7919 C 733.423 1.98979 -2.76803 0
M  V30 7920 H 734.616 0.195588 -2.99262 0
M  V30 7921 H 732.169 0.0644772 -1.56167 0
M  V30 7922 H 732.904 2.56287 -1.98714 0
M  V30 7923 H 732.689 1.69583 -3.53531 0
M  V30 7924 H 734.179 2.63966 -3.23592 0
M  V30 7925 N 734.616 1.57351 0.0885366 0
M  V30 7926 C 735.563 2.02523 1.10693 0
M  V30 7927 C 736.533 0.902736 1.39427 0
M  V30 7928 O 737.718 1.16921 1.50779 0
M  V30 7929 C 734.858 2.46013 2.42016 0
M  V30 7930 C 733.971 3.7181 2.19957 0
M  V30 7931 C 733.106 4.04152 3.44724 0
M  V30 7932 C 732.145 5.2304 3.17956 0
M  V30 7933 N 731.282 5.51102 4.35007 0
M  V30 7934 H 736.122 2.89302 0.714742 0
M  V30 7935 H 733.659 1.43084 0.341378 0
M  V30 7936 H 735.617 2.69274 3.18665 0
M  V30 7937 H 734.247 1.62235 2.79069 0
M  V30 7938 H 733.299 3.55987 1.34079 0
M  V30 7939 H 734.611 4.58604 1.96173 0
M  V30 7940 H 733.765 4.28225 4.29777 0
M  V30 7941 H 732.504 3.15893 3.71568 0
M  V30 7942 H 731.509 4.98781 2.31296 0
M  V30 7943 H 732.734 6.12902 2.92451 0
M  V30 7944 H 730.68 4.65802 4.61914 0
M  V30 7945 H 730.597 6.3228 4.14437 0
M  V30 7946 H 731.865 5.79714 5.21106 0
M  V30 7947 N 736.094 -0.359525 1.53444 0
M  V30 7948 C 737.342 -1.09935 1.69584 0
M  V30 7949 C 737.663 -1.89656 0.453371 0
M  V30 7950 O 736.933 -1.8852 -0.53263 0
M  V30 7951 H 735.513 -0.408843 0.625185 0
M  V30 7952 H 738.175 -0.40467 1.90653 0
M  V30 7953 H 737.271 -1.78575 2.55964 0
M  V30 7954 N 737.572 -1.44907 -0.619662 0
M  V30 7955 C 738.818 -1.48512 -1.38102 0
M  V30 7956 C 739.151 -0.121686 -1.93818 0
M  V30 7957 O 738.426 0.862256 -1.74343 0
M  V30 7958 C 738.709 -2.55469 -2.53787 0
M  V30 7959 C 738.562 -4.01212 -2.03345 0
M  V30 7960 C 739.881 -2.58821 -3.55949 0
M  V30 7961 H 737 -0.540712 -0.500799 0
M  V30 7962 H 739.642 -1.7665 -0.69962 0
M  V30 7963 H 737.792 -2.31606 -3.11915 0
M  V30 7964 H 739.464 -4.36245 -1.49959 0
M  V30 7965 H 737.707 -4.12443 -1.34438 0
M  V30 7966 H 738.378 -4.71717 -2.86683 0
M  V30 7967 H 740.854 -2.80172 -3.07641 0
M  V30 7968 H 739.73 -3.35542 -4.34399 0
M  V30 7969 H 739.991 -1.63451 -4.10775 0
M  V30 7970 N 739.05 0.861098 -1.31996 0
M  V30 7971 C 740.299 1.60965 -1.21545 0
M  V30 7972 C 740.612 1.94325 0.222972 0
M  V30 7973 O 741.818 2.67757 0.449272 0
M  V30 7974 C 740.274 2.90223 -2.12834 0
M  V30 7975 C 739.882 2.64313 -3.61722 0
M  V30 7976 C 741.626 3.68229 -2.11205 0
M  V30 7977 C 739.533 3.89532 -4.44993 0
M  V30 7978 H 738.463 0.603988 -0.451348 0
M  V30 7979 H 741.114 0.951358 -1.56912 0
M  V30 7980 H 739.496 3.57475 -1.70375 0
M  V30 7981 H 740.67 2.05413 -4.12483 0
M  V30 7982 H 738.985 1.99647 -3.65418 0
M  V30 7983 H 741.582 4.61138 -2.70658 0
M  V30 7984 H 741.925 4.01466 -1.1014 0
M  V30 7985 H 742.458 3.07873 -2.51911 0
M  V30 7986 H 739.197 3.61441 -5.46846 0
M  V30 7987 H 738.717 4.47851 -3.98985 0
M  V30 7988 H 740.396 4.57334 -4.57663 0
M  V30 7989 N 740.528 1.15101 1.07655 0
M  V30 7990 C 741.774 0.925343 1.80458 0
M  V30 7991 C 742.107 -0.546354 1.86356 0
M  V30 7992 O 741.382 -1.40496 1.34503 0
M  V30 7993 C 741.665 1.53646 3.25676 0
M  V30 7994 C 741.518 3.07854 3.27942 0
M  V30 7995 C 742.837 1.21968 4.22861 0
M  V30 7996 H 739.956 0.337592 0.655134 0
M  V30 7997 H 742.598 1.42217 1.25993 0
M  V30 7998 H 740.748 1.11395 3.72187 0
M  V30 7999 H 742.42 3.58989 2.89697 0
M  V30 8000 H 740.663 3.41904 2.66991 0
M  V30 8001 H 741.334 3.45725 4.30324 0
M  V30 8002 H 743.81 1.5851 3.84726 0
M  V30 8003 H 742.686 1.67349 5.22767 0
M  V30 8004 H 742.947 0.136207 4.4189 0
M  V30 8005 N 742.006 -1.2595 0.947325 0
M  V30 8006 C 743.422 -1.45737 0.650597 0
M  V30 8007 C 743.622 -1.85189 -0.794188 0
M  V30 8008 O 742.678 -1.97738 -1.57022 0
M  V30 8009 C 743.991 -2.53505 1.61728 0
M  V30 8010 C 745.539 -2.67351 1.62765 0
M  V30 8011 C 746.014 -3.78296 2.58179 0
M  V30 8012 N 747.505 -3.85696 2.56501 0
M  V30 8013 C 748.24 -4.71012 3.2701 0
M  V30 8014 N 747.736 -5.60669 4.06966 0
M  V30 8015 N 749.529 -4.64912 3.15932 0
M  V30 8016 H 741.68 -0.986327 1.8811 0
M  V30 8017 H 743.943 -0.494639 0.808725 0
M  V30 8018 H 743.649 -2.31357 2.6489 0
M  V30 8019 H 743.523 -3.51281 1.3741 0
M  V30 8020 H 745.91 -2.88869 0.603241 0
M  V30 8021 H 745.991 -1.69998 1.91139 0
M  V30 8022 H 745.635 -3.5753 3.60742 0
M  V30 8023 H 745.565 -4.75117 2.27093 0
M  V30 8024 H 748.056 -3.21601 1.98447 0
M  V30 8025 H 748.369 -6.22677 4.57704 0
M  V30 8026 H 746.714 -5.60402 4.11066 0
M  V30 8027 H 749.905 -3.93874 2.52945 0
M  V30 8028 H 750.078 -5.3118 3.71149 0
M  V30 8029 N 743.484 -0.715051 -1.40445 0
M  V30 8030 C 744.709 -0.26254 -2.05732 0
M  V30 8031 C 745.134 1.08691 -1.53519 0
M  V30 8032 O 744.492 1.68453 -0.670328 0
M  V30 8033 C 744.54 -0.25195 -3.59719 0
M  V30 8034 O 743.644 0.766998 -4.05205 0
M  V30 8035 H 742.985 -0.123398 -0.652433 0
M  V30 8036 H 745.515 -0.975382 -1.79854 0
M  V30 8037 H 745.525 -0.0894537 -4.07902 0
M  V30 8038 H 744.2 -1.23672 -3.97087 0
M  V30 8039 H 742.777 0.572269 -3.68483 0
M  V30 8040 N 744.962 1.50701 -0.461195 0
M  V30 8041 C 746.21 2.01867 0.0970051 0
M  V30 8042 C 746.531 1.34591 1.41104 0
M  V30 8043 O 745.801 0.488041 1.89723 0
M  V30 8044 H 744.381 0.74599 0.0388392 0
M  V30 8045 H 747.043 1.85129 -0.609357 0
M  V30 8046 H 746.139 3.11051 0.255688 0
M  V30 8047 N 746.441 0.193421 1.56409 0
M  V30 8048 C 747.669 -0.451438 2.01915 0
M  V30 8049 C 748.084 -1.55306 1.07357 0
M  V30 8050 O 747.441 -1.82333 0.0781512 0
M  V30 8051 C 747.492 -1.00931 3.47124 0
M  V30 8052 O 747.213 0.0483623 4.38073 0
M  V30 8053 C 748.714 -1.73021 4.0814 0
M  V30 8054 H 745.934 -0.113495 0.661332 0
M  V30 8055 H 748.478 0.301636 2.02263 0
M  V30 8056 H 746.633 -1.71277 3.47481 0
M  V30 8057 H 747.047 -0.366644 5.23217 0
M  V30 8058 H 748.521 -2.07289 5.11601 0
M  V30 8059 H 748.998 -2.6333 3.51502 0
M  V30 8060 H 749.604 -1.07264 4.11551 0
M  V30 8061 N 747.919 -1.57396 -0.0801906 0
M  V30 8062 C 748.869 -1.9955 -1.10289 0
M  V30 8063 C 749.853 -0.876234 -1.34948 0
M  V30 8064 O 751.045 -1.14012 -1.35389 0
M  V30 8065 C 748.174 -2.43596 -2.419 0
M  V30 8066 C 747.26 -3.6224 -2.20551 0
M  V30 8067 N 747.651 -4.76693 -1.69109 0
M  V30 8068 C 745.949 -3.68627 -2.51059 0
M  V30 8069 C 746.65 -5.58577 -1.62379 0
M  V30 8070 N 745.626 -5.02178 -2.0813 0
M  V30 8071 H 749.428 -2.85483 -0.698335 0
M  V30 8072 H 746.942 -1.59837 -0.287395 0
M  V30 8073 H 748.939 -2.72031 -3.15919 0
M  V30 8074 H 747.599 -1.59047 -2.8308 0
M  V30 8075 H 748.61 -4.9915 -1.38092 0
M  V30 8076 H 745.287 -2.94772 -2.95661 0
M  V30 8077 H 746.677 -6.60447 -1.2353 0
M  V30 8078 N 749.397 0.351382 -1.53633 0
M  V30 8079 C 750.625 1.11275 -1.74429 0
M  V30 8080 C 751.04 1.82602 -0.479798 0
M  V30 8081 O 750.397 1.74074 0.548125 0
M  V30 8082 C 750.448 2.13223 -2.91921 0
M  V30 8083 O 750.169 1.44798 -4.13479 0
M  V30 8084 C 751.67 3.01797 -3.24706 0
M  V30 8085 H 748.89 0.332153 -0.583023 0
M  V30 8086 H 751.434 0.405974 -2.0043 0
M  V30 8087 H 749.589 2.79477 -2.68274 0
M  V30 8088 H 750.003 2.12839 -4.79374 0
M  V30 8089 H 751.477 3.69282 -4.10286 0
M  V30 8090 H 751.954 3.67387 -2.40673 0
M  V30 8091 H 752.56 2.41141 -3.5033 0
M  V30 8092 N 750.875 1.45233 0.611969 0
M  V30 8093 C 751.805 1.5641 1.73373 0
M  V30 8094 C 752.786 0.415896 1.64937 0
M  V30 8095 O 753.971 0.638478 1.83404 0
M  V30 8096 C 751.101 1.52627 3.11965 0
M  V30 8097 C 750.055 2.66119 3.35208 0
M  V30 8098 C 749.381 2.4739 4.74028 0
M  V30 8099 C 750.681 4.08157 3.25891 0
M  V30 8100 H 752.375 2.50307 1.64277 0
M  V30 8101 H 749.921 1.20467 0.788904 0
M  V30 8102 H 751.874 1.59043 3.90235 0
M  V30 8103 H 750.598 0.552564 3.21892 0
M  V30 8104 H 749.257 2.59123 2.59327 0
M  V30 8105 H 748.905 1.48168 4.80682 0
M  V30 8106 H 748.605 3.23494 4.90536 0
M  V30 8107 H 750.129 2.55653 5.54503 0
M  V30 8108 H 751.543 4.1642 3.9404 0
M  V30 8109 H 749.94 4.84617 3.5393 0
M  V30 8110 H 751.01 4.30374 2.23397 0
M  V30 8111 N 752.353 -0.854086 1.3245 0
M  V30 8112 C 753.764 -1.42427 1.20712 0
M  V30 8113 C 754.115 -1.95371 -0.18013 0
M  V30 8114 O 753.24 -1.87587 -1.07889 0
M  V30 8115 C 753.835 -2.58897 2.18536 0
M  V30 8116 C 752.394 -3.11913 2.10683 0
M  V30 8117 C 751.541 -1.84661 2.06871 0
M  V30 8118 H 754.492 -0.661192 1.4427 0
M  V30 8119 H 754.513 -3.36074 1.78422 0
M  V30 8120 H 754.025 -2.20333 3.19492 0
M  V30 8121 H 752.126 -3.55059 1.12977 0
M  V30 8122 H 752.239 -3.73119 3.00532 0
M  V30 8123 H 750.603 -2.04285 1.52118 0
M  V30 8124 H 751.386 -1.48314 3.09609 0
M  V30 8125 N 753.831 -1.1567 -1.07043 0
M  V30 8126 C 755.077 -0.9349 -1.79965 0
M  V30 8127 C 755.41 0.536464 -1.86643 0
M  V30 8128 O 754.685 1.39781 -1.35247 0
M  V30 8129 C 754.968 -1.55371 -3.24857 0
M  V30 8130 C 754.821 -3.09589 -3.26305 0
M  V30 8131 C 756.14 -1.24209 -4.22209 0
M  V30 8132 H 753.259 -0.341061 -0.653335 0
M  V30 8133 H 755.901 -1.42883 -1.25237 0
M  V30 8134 H 754.051 -1.13368 -3.71591 0
M  V30 8135 H 755.723 -3.60521 -2.87789 0
M  V30 8136 H 753.966 -3.43315 -2.65174 0
M  V30 8137 H 754.637 -3.48002 -4.28484 0
M  V30 8138 H 757.113 -1.60548 -3.8388 0
M  V30 8139 H 755.989 -1.70119 -5.21872 0
M  V30 8140 H 756.25 -0.15964 -4.41812 0
M  V30 8141 N 755.309 1.25446 -0.953992 0
M  V30 8142 C 756.219 2.29632 -0.480264 0
M  V30 8143 C 757.235 1.68025 0.452071 0
M  V30 8144 O 758.411 1.98703 0.328472 0
M  V30 8145 C 755.476 3.45903 0.234974 0
M  V30 8146 C 754.537 4.22953 -0.735495 0
M  V30 8147 C 753.77 5.33672 -0.0542957 0
M  V30 8148 O 753.993 5.58477 1.16018 0
M  V30 8149 O 752.927 5.9734 -0.739509 0
M  V30 8150 H 756.753 2.72242 -1.34602 0
M  V30 8151 H 754.338 1.30883 -0.720419 0
M  V30 8152 H 756.22 4.16552 0.637341 0
M  V30 8153 H 754.895 3.05296 1.07592 0
M  V30 8154 H 753.802 3.54734 -1.18806 0
M  V30 8155 H 755.135 4.67341 -1.54444 0
M  V30 8156 N 756.787 0.722489 1.40064 0
M  V30 8157 C 758.012 0.273446 2.05589 0
M  V30 8158 C 758.437 -1.07875 1.54093 0
M  V30 8159 O 757.795 -1.68095 0.679252 0
M  V30 8160 C 757.843 0.271023 3.5958 0
M  V30 8161 O 756.947 -0.745499 4.05606 0
M  V30 8162 H 756.288 0.126856 0.65177 0
M  V30 8163 H 758.818 0.984906 1.79334 0
M  V30 8164 H 758.828 0.111084 4.07849 0
M  V30 8165 H 757.503 1.25776 3.96425 0
M  V30 8166 H 756.08 -0.552719 3.68781 0
M  V30 8167 N 758.265 -1.50454 0.469181 0
M  V30 8168 C 759.513 -2.01916 -0.0862982 0
M  V30 8169 C 759.834 -1.35337 -1.40388 0
M  V30 8170 O 759.104 -0.498096 -1.89462 0
M  V30 8171 H 757.684 -0.746185 -0.0348825 0
M  V30 8172 H 760.346 -1.84804 0.619167 0
M  V30 8173 H 759.442 -3.11182 -0.239189 0
M  V30 8174 N 759.743 -0.201713 -1.56304 0
M  V30 8175 C 761.02 0.483273 -1.89536 0
M  V30 8176 C 761.4 1.79176 -1.11621 0
M  V30 8177 O 760.748 2.27445 -0.219339 0
M  V30 8178 C 760.958 0.695604 -3.41998 0
M  V30 8179 C 762.306 1.012 -4.12364 0
M  V30 8180 O 763.33 0.783094 -3.47485 0
M  V30 8181 O 762.189 1.44534 -5.27041 0
M  V30 8182 H 759.283 0.252801 -0.787414 0
M  V30 8183 H 761.829 -0.24242 -1.6796 0
M  V30 8184 H 760.601 -0.228165 -3.90634 0
M  V30 8185 H 760.224 1.47351 -3.69288 0
M  V30 8186 N 761.222 1.57436 0.0718424 0
M  V30 8187 C 762.155 1.98982 1.11721 0
M  V30 8188 C 763.133 0.866731 1.37574 0
M  V30 8189 O 764.317 1.12903 1.50948 0
M  V30 8190 C 761.444 2.32648 2.46155 0
M  V30 8191 C 760.49 3.54964 2.36437 0
M  V30 8192 S 761.323 5.05802 1.75854 0
M  V30 8193 C 762.479 5.42669 3.11867 0
M  V30 8194 H 762.712 2.87338 0.763154 0
M  V30 8195 H 760.245 1.51833 0.280372 0
M  V30 8196 H 762.203 2.52719 3.23486 0
M  V30 8197 H 760.864 1.44821 2.78722 0
M  V30 8198 H 760.057 3.76038 3.35577 0
M  V30 8199 H 759.659 3.34524 1.67242 0
M  V30 8200 H 761.951 5.40737 4.08178 0
M  V30 8201 H 762.894 6.43461 2.95573 0
M  V30 8202 H 763.302 4.70131 3.1247 0
M  V30 8203 N 762.7 -0.34323 1.53817 0
M  V30 8204 C 763.647 -1.42153 1.81827 0
M  V30 8205 C 764.617 -1.52251 0.663996 0
M  V30 8206 O 765.802 -1.67784 0.908461 0
M  V30 8207 C 762.942 -2.78799 2.03384 0
M  V30 8208 C 762.055 -2.7749 3.31094 0
M  V30 8209 C 761.19 -4.05856 3.42717 0
M  V30 8210 C 760.229 -3.98776 4.64375 0
M  V30 8211 N 759.366 -5.18833 4.73029 0
M  V30 8212 H 764.206 -1.17567 2.73829 0
M  V30 8213 H 761.743 -0.569506 1.35628 0
M  V30 8214 H 763.701 -3.58211 2.13872 0
M  V30 8215 H 762.331 -3.01736 1.14696 0
M  V30 8216 H 761.383 -1.90182 3.29446 0
M  V30 8217 H 762.695 -2.68137 4.206 0
M  V30 8218 H 761.849 -4.93691 3.52638 0
M  V30 8219 H 760.588 -4.1799 2.51267 0
M  V30 8220 H 759.593 -3.09325 4.5453 0
M  V30 8221 H 760.818 -3.88224 5.57189 0
M  V30 8222 H 758.764 -5.31511 3.84489 0
M  V30 8223 H 758.681 -5.11737 5.56472 0
M  V30 8224 H 759.949 -6.08439 4.87261 0
M  V30 8225 N 764.178 -1.45556 -0.604258 0
M  V30 8226 C 765.426 -1.4945 -1.36048 0
M  V30 8227 C 765.747 -0.138933 -1.94504 0
M  V30 8228 O 765.017 0.832097 -1.7735 0
M  V30 8229 H 763.597 -0.550381 -0.505064 0
M  V30 8230 H 766.259 -1.81535 -0.709308 0
M  V30 8231 H 765.355 -2.23519 -2.17821 0
M  V30 8232 N 765.656 0.84705 -1.32902 0
M  V30 8233 C 766.881 1.63925 -1.27056 0
M  V30 8234 C 767.306 1.87443 0.157136 0
M  V30 8235 O 766.664 1.43266 1.11106 0
M  V30 8236 C 766.712 2.97134 -2.04313 0
M  V30 8237 O 765.816 3.88049 -1.39614 0
M  V30 8238 H 765.157 0.499477 -0.437514 0
M  V30 8239 H 767.687 1.05443 -1.75336 0
M  V30 8240 H 767.697 3.46896 -2.14772 0
M  V30 8241 H 766.372 2.79339 -3.08128 0
M  V30 8242 H 764.949 3.46525 -1.3775 0
M  V30 8243 N 767.134 1.16236 1.06428 0
M  V30 8244 C 768.381 0.943034 1.79201 0
M  V30 8245 C 768.709 -0.529243 1.87161 0
M  V30 8246 O 767.964 -1.40874 1.35842 0
M  V30 8247 C 768.263 1.51396 3.2375 0
M  V30 8248 C 767.929 3.00833 3.35873 0
M  V30 8249 C 766.591 3.41626 3.38888 0
M  V30 8250 C 768.943 3.96825 3.37904 0
M  V30 8251 C 766.271 4.77033 3.4155 0
M  V30 8252 C 768.623 5.32116 3.42104 0
M  V30 8253 C 767.287 5.72392 3.43401 0
M  V30 8254 H 766.557 0.34508 0.655744 0
M  V30 8255 H 769.204 1.44929 1.25171 0
M  V30 8256 H 767.509 0.929114 3.80624 0
M  V30 8257 H 769.206 1.31996 3.78653 0
M  V30 8258 H 765.796 2.68306 3.3423 0
M  V30 8259 H 769.98 3.66376 3.34787 0
M  V30 8260 H 765.236 5.07569 3.40858 0
M  V30 8261 H 769.41 6.06286 3.42623 0
M  V30 8262 H 767.037 6.77296 3.45216 0
M  V30 8263 N 768.612 -1.24939 0.960631 0
M  V30 8264 C 769.575 -2.239 0.49006 0
M  V30 8265 C 770.575 -1.55497 -0.409535 0
M  V30 8266 O 771.765 -1.72978 -0.205984 0
M  V30 8267 C 768.897 -3.39654 -0.291193 0
M  V30 8268 H 770.09 -2.67044 1.36482 0
M  V30 8269 H 767.643 -1.37429 0.744505 0
M  V30 8270 H 768.378 -3.01939 -1.18336 0
M  V30 8271 H 768.163 -3.90496 0.354276 0
M  V30 8272 H 769.653 -4.13125 -0.609693 0
M  V30 8273 N 770.09 -0.729906 -1.39679 0
M  V30 8274 C 771.02 -0.101618 -2.33279 0
M  V30 8275 C 772.001 0.729854 -1.53646 0
M  V30 8276 O 773.186 0.67587 -1.82059 0
M  V30 8277 C 770.316 0.81024 -3.37716 0
M  V30 8278 C 769.27 0.0833126 -4.27919 0
M  V30 8279 C 768.596 1.11185 -5.23012 0
M  V30 8280 C 769.896 -1.07107 -5.112 0
M  V30 8281 H 771.59 -0.883452 -2.86069 0
M  V30 8282 H 769.136 -0.426283 -1.37546 0
M  V30 8283 H 771.089 1.25927 -4.02145 0
M  V30 8284 H 769.813 1.62413 -2.83354 0
M  V30 8285 H 768.472 -0.346043 -3.64963 0
M  V30 8286 H 768.12 1.91917 -4.64948 0
M  V30 8287 H 767.82 0.63026 -5.8421 0
M  V30 8288 H 769.344 1.56068 -5.90318 0
M  V30 8289 H 770.758 -0.700726 -5.69002 0
M  V30 8290 H 769.155 -1.48196 -5.81514 0
M  V30 8291 H 770.225 -1.89513 -4.46332 0
M  V30 8292 N 771.568 1.50203 -0.477153 0
M  V30 8293 C 772.793 2.07263 0.0754986 0
M  V30 8294 C 773.218 1.33801 1.32208 0
M  V30 8295 O 772.576 0.387482 1.77111 0
M  V30 8296 C 772.624 3.59028 0.336348 0
M  V30 8297 O 771.728 3.87339 1.4157 0
M  V30 8298 H 771.069 0.663815 -0.015662 0
M  V30 8299 H 773.599 1.93321 -0.669936 0
M  V30 8300 H 773.609 4.03927 0.575034 0
M  V30 8301 H 772.284 4.11912 -0.574551 0
M  V30 8302 H 770.861 3.54272 1.16385 0
M  V30 8303 N 773.046 0.209999 1.56195 0
M  V30 8304 C 774.293 -0.424813 1.97994 0
M  V30 8305 C 774.621 -1.60589 1.09733 0
M  V30 8306 O 773.876 -1.95201 0.139693 0
M  V30 8307 C 774.175 -0.91312 3.45539 0
M  V30 8308 C 773.841 0.156187 4.50629 0
M  V30 8309 C 772.503 0.449966 4.79092 0
M  V30 8310 C 774.855 0.879959 5.13718 0
M  V30 8311 C 772.183 1.47223 5.67928 0
M  V30 8312 C 774.535 1.89148 6.0366 0
M  V30 8313 C 773.199 2.1923 6.30472 0
M  V30 8314 H 772.469 -0.15545 0.724511 0
M  V30 8315 H 775.116 0.310095 1.88973 0
M  V30 8316 H 773.421 -1.72658 3.51705 0
M  V30 8317 H 775.118 -1.41395 3.75245 0
M  V30 8318 H 771.708 -0.0829466 4.2852 0
M  V30 8319 H 775.892 0.66623 4.91808 0
M  V30 8320 H 771.148 1.71105 5.86969 0
M  V30 8321 H 775.322 2.45745 6.516 0
M  V30 8322 H 772.949 2.98587 6.99107 0
M  V30 8323 N 774.524 -1.57472 -0.0634922 0
M  V30 8324 C 775.935 -1.76303 -0.614337 0
M  V30 8325 C 776.286 -0.836578 -1.77471 0
M  V30 8326 O 775.411 -0.0227184 -2.16388 0
M  V30 8327 C 776.006 -3.19709 -1.12122 0
M  V30 8328 C 774.565 -3.39856 -1.61786 0
M  V30 8329 C 773.712 -2.71975 -0.540845 0
M  V30 8330 H 776.663 -1.57864 0.162702 0
M  V30 8331 H 776.684 -3.24326 -1.98979 0
M  V30 8332 H 776.196 -3.87114 -0.276472 0
M  V30 8333 H 774.297 -2.77578 -2.48558 0
M  V30 8334 H 774.41 -4.48338 -1.68908 0
M  V30 8335 H 772.774 -2.34763 -0.987854 0
M  V30 8336 H 773.557 -3.4204 0.293856 0
M  V30 8337 N 776.003 0.335068 -1.53997 0
M  V30 8338 C 777.249 1.07594 -1.71905 0
M  V30 8339 C 777.582 1.88039 -0.485264 0
M  V30 8340 O 776.857 1.87482 0.517752 0
M  V30 8341 C 777.14 2.01016 -2.98772 0
M  V30 8342 C 776.993 1.23977 -4.32377 0
M  V30 8343 C 778.312 3.0071 -3.21343 0
M  V30 8344 H 775.431 0.38976 -0.625505 0
M  V30 8345 H 778.073 0.353684 -1.86679 0
M  V30 8346 H 776.223 2.62603 -2.86307 0
M  V30 8347 H 777.895 0.649383 -4.56706 0
M  V30 8348 H 776.138 0.541878 -4.30402 0
M  V30 8349 H 776.809 1.92512 -5.17342 0
M  V30 8350 H 779.285 2.4924 -3.33194 0
M  V30 8351 H 778.161 3.63272 -4.11491 0
M  V30 8352 H 778.422 3.72549 -2.38033 0
M  V30 8353 N 777.481 1.45874 0.596531 0
M  V30 8354 C 778.391 1.57947 1.73464 0
M  V30 8355 C 779.407 0.463461 1.67714 0
M  V30 8356 O 780.583 0.725685 1.87872 0
M  V30 8357 C 777.648 1.55348 3.09948 0
M  V30 8358 C 776.709 2.78074 3.27068 0
M  V30 8359 C 775.942 2.75589 4.57041 0
M  V30 8360 O 776.165 1.83545 5.40063 0
M  V30 8361 O 775.099 3.66945 4.77111 0
M  V30 8362 H 778.925 2.54169 1.66228 0
M  V30 8363 H 776.51 1.2851 0.76194 0
M  V30 8364 H 778.392 1.56545 3.91244 0
M  V30 8365 H 777.067 0.622811 3.17652 0
M  V30 8366 H 775.974 2.82435 2.45319 0
M  V30 8367 H 777.307 3.70303 3.24248 0
M  V30 8368 N 778.959 -0.83999 1.33349 0
M  V30 8369 C 780.184 -1.63249 1.27924 0
M  V30 8370 C 780.609 -1.87523 -0.147193 0
M  V30 8371 O 779.967 -1.43853 -1.10345 0
M  V30 8372 C 780.015 -2.96046 2.05886 0
M  V30 8373 O 779.119 -3.87303 1.4167 0
M  V30 8374 H 778.46 -0.49715 0.440157 0
M  V30 8375 H 780.99 -1.04512 1.75893 0
M  V30 8376 H 781 -3.45752 2.16609 0
M  V30 8377 H 779.675 -2.77701 3.09605 0
M  V30 8378 H 778.252 -3.45789 1.39585 0
M  V30 8379 N 780.437 -1.16799 -1.0581 0
M  V30 8380 C 781.714 -0.862616 -1.75551 0
M  V30 8381 C 782.094 0.6385 -2.01212 0
M  V30 8382 O 781.442 1.58784 -1.64317 0
M  V30 8383 C 781.652 -1.6907 -3.05314 0
M  V30 8384 C 783 -1.90675 -3.79379 0
M  V30 8385 O 784.024 -1.65976 -3.15167 0
M  V30 8386 O 782.883 -2.32145 -4.94743 0
M  V30 8387 H 779.977 -0.318789 -0.763088 0
M  V30 8388 H 782.523 -1.27461 -1.12034 0
M  V30 8389 H 781.295 -2.70912 -2.82352 0
M  V30 8390 H 780.918 -1.27606 -3.76567 0
M  V30 8391 N 781.915 1.24427 -0.967243 0
M  V30 8392 C 783.161 1.92772 -0.629812 0
M  V30 8393 C 783.494 1.75436 0.832827 0
M  V30 8394 O 782.769 1.10716 1.59913 0
M  V30 8395 C 783.052 3.45798 -1.00477 0
M  V30 8396 C 782.905 3.72304 -2.52407 0
M  V30 8397 C 784.224 4.36787 -0.538999 0
M  V30 8398 H 781.343 0.700099 -0.230282 0
M  V30 8399 H 783.985 1.46805 -1.20616 0
M  V30 8400 H 782.135 3.8508 -0.514336 0
M  V30 8401 H 783.807 3.42584 -3.08924 0
M  V30 8402 H 782.05 3.17472 -2.95625 0
M  V30 8403 H 782.721 4.7937 -2.73693 0
M  V30 8404 H 785.197 4.04877 -0.959874 0
M  V30 8405 H 784.073 5.4259 -0.829926 0
M  V30 8406 H 784.334 4.38527 0.560923 0
M  V30 8407 N 783.393 0.737304 1.3929 0
M  V30 8408 C 784.356 0.10731 2.28949 0
M  V30 8409 C 785.356 -0.664716 1.46418 0
M  V30 8410 O 786.546 -0.493392 1.67067 0
M  V30 8411 C 783.678 -0.857145 3.29948 0
M  V30 8412 H 784.871 0.89725 2.86163 0
M  V30 8413 H 782.424 0.503279 1.47976 0
M  V30 8414 H 783.159 -1.67336 2.77794 0
M  V30 8415 H 782.944 -0.306167 3.90903 0
M  V30 8416 H 784.434 -1.29444 3.97031 0
M  V30 8417 N 784.871 -1.49948 0.485112 0
M  V30 8418 C 786.282 -1.8667 0.0334041 0
M  V30 8419 C 786.633 -1.3988 -1.37579 0
M  V30 8420 O 785.758 -0.769788 -2.02245 0
M  V30 8421 C 786.353 -3.38757 0.0538426 0
M  V30 8422 C 784.912 -3.74839 -0.342453 0
M  V30 8423 C 784.059 -2.73894 0.433281 0
M  V30 8424 H 787.01 -1.42492 0.698699 0
M  V30 8425 H 787.031 -3.73132 -0.745146 0
M  V30 8426 H 786.543 -3.72782 1.07959 0
M  V30 8427 H 784.644 -3.46419 -1.37203 0
M  V30 8428 H 784.757 -4.79088 -0.0340503 0
M  V30 8429 H 783.121 -2.54441 -0.114849 0
M  V30 8430 H 783.904 -3.10763 1.45881 0
M  V30 8431 N 786.349 -0.21828 -1.56081 0
M  V30 8432 C 787.598 0.414644 -1.97392 0
M  V30 8433 C 787.911 1.61132 -1.10887 0
M  V30 8434 O 789.117 2.31355 -1.42082 0
M  V30 8435 C 787.573 0.789099 -3.51143 0
M  V30 8436 C 787.181 -0.384578 -4.46346 0
M  V30 8437 C 788.925 1.38781 -4.01173 0
M  V30 8438 C 786.832 0.0121288 -5.91399 0
M  V30 8439 H 785.762 0.158691 -0.737111 0
M  V30 8440 H 788.413 -0.313974 -1.80794 0
M  V30 8441 H 786.795 1.57505 -3.6333 0
M  V30 8442 H 787.969 -1.16212 -4.45905 0
M  V30 8443 H 786.284 -0.896306 -4.06639 0
M  V30 8444 H 788.881 1.69746 -5.07041 0
M  V30 8445 H 789.224 2.30245 -3.46833 0
M  V30 8446 H 789.757 0.665364 -3.92196 0
M  V30 8447 H 786.496 -0.868917 -6.49715 0
M  V30 8448 H 786.016 0.754053 -5.95041 0
M  V30 8449 H 787.695 0.439949 -6.45502 0
M  V30 8450 N 787.827 1.57504 0.0551401 0
M  V30 8451 C 788.79 2.03826 1.04821 0
M  V30 8452 C 789.79 0.937968 1.30609 0
M  V30 8453 O 790.98 1.20237 1.2605 0
M  V30 8454 C 788.112 2.43309 2.38775 0
M  V30 8455 H 789.305 2.92802 0.6486 0
M  V30 8456 H 786.858 1.53368 0.301315 0
M  V30 8457 H 787.593 1.5741 2.83536 0
M  V30 8458 H 787.378 3.23615 2.21395 0
M  V30 8459 H 788.868 2.79666 3.10124 0
M  V30 8460 N 789.305 -0.326896 1.54172 0
M  V30 8461 C 790.721 -0.671034 1.44808 0
M  V30 8462 C 790.921 -1.91781 0.618258 0
M  V30 8463 O 789.977 -2.52235 0.115751 0
M  V30 8464 C 791.29 -0.848147 2.88491 0
M  V30 8465 C 792.838 -0.945702 2.98371 0
M  V30 8466 C 793.313 -1.15501 4.43197 0
M  V30 8467 N 794.804 -1.22183 4.46795 0
M  V30 8468 C 795.539 -1.4016 5.56006 0
M  V30 8469 N 795.035 -1.55202 6.75192 0
M  V30 8470 N 796.828 -1.42841 5.43648 0
M  V30 8471 H 788.979 0.49262 2.06608 0
M  V30 8472 H 791.242 0.158574 0.934643 0
M  V30 8473 H 790.948 -0.00329969 3.517 0
M  V30 8474 H 790.822 -1.74497 3.34411 0
M  V30 8475 H 793.209 -1.78106 2.35292 0
M  V30 8476 H 793.29 -0.0254215 2.55787 0
M  V30 8477 H 792.934 -0.324521 5.06862 0
M  V30 8478 H 792.864 -2.08911 4.83388 0
M  V30 8479 H 795.355 -1.12016 3.60917 0
M  V30 8480 H 795.668 -1.68601 7.54184 0
M  V30 8481 H 794.013 -1.52306 6.78106 0
M  V30 8482 H 797.204 -1.30683 4.49488 0
M  V30 8483 H 797.377 -1.56509 6.28816 0
M  V30 8484 N 790.784 -1.46188 -0.588786 0
M  V30 8485 C 791.717 -1.508 -1.71274 0
M  V30 8486 C 792.695 -0.362635 -1.58505 0
M  V30 8487 O 793.879 -0.565899 -1.79805 0
M  V30 8488 C 791.006 -1.38082 -3.09275 0
M  V30 8489 C 790.052 -2.56723 -3.40581 0
M  V30 8490 S 790.885 -4.1911 -3.33327 0
M  V30 8491 C 792.041 -4.08891 -4.73877 0
M  V30 8492 H 792.274 -2.45895 -1.67102 0
M  V30 8493 H 789.807 -1.34 -0.767025 0
M  V30 8494 H 791.765 -1.31432 -3.88891 0
M  V30 8495 H 790.426 -0.444259 -3.10942 0
M  V30 8496 H 789.619 -2.43801 -4.41109 0
M  V30 8497 H 789.221 -2.60332 -2.68521 0
M  V30 8498 H 791.513 -3.75196 -5.64123 0
M  V30 8499 H 792.456 -5.09395 -4.91856 0
M  V30 8500 H 792.864 -3.40239 -4.50441 0
M  V30 8501 N 792.262 0.832906 -1.33792 0
M  V30 8502 C 793.509 1.58853 -1.25586 0
M  V30 8503 C 793.837 1.93695 0.176807 0
M  V30 8504 O 793.092 1.59386 1.13554 0
M  V30 8505 C 793.391 2.9047 -2.08235 0
M  V30 8506 C 793.057 2.74965 -3.57358 0
M  V30 8507 C 791.719 2.70444 -3.98012 0
M  V30 8508 C 794.071 2.59347 -4.52093 0
M  V30 8509 C 791.399 2.48212 -5.31608 0
M  V30 8510 C 793.751 2.38649 -5.85858 0
M  V30 8511 C 792.415 2.32533 -6.25687 0
M  V30 8512 H 791.685 0.581285 -0.459553 0
M  V30 8513 H 794.332 0.964501 -1.65438 0
M  V30 8514 H 792.637 3.57111 -1.6118 0
M  V30 8515 H 794.334 3.48001 -1.99239 0
M  V30 8516 H 790.924 2.79319 -3.25083 0
M  V30 8517 H 795.108 2.6187 -4.2159 0
M  V30 8518 H 790.364 2.41929 -5.61498 0
M  V30 8519 H 794.538 2.25549 -6.58863 0
M  V30 8520 H 792.165 2.15067 -7.29143 0
M  V30 8521 N 793.74 1.17359 1.05189 0
M  V30 8522 C 794.989 0.956412 1.77583 0
M  V30 8523 C 795.302 -0.516018 1.88671 0
M  V30 8524 O 796.508 -0.851401 2.57805 0
M  V30 8525 C 794.964 1.66203 3.19225 0
M  V30 8526 C 794.572 3.17299 3.16267 0
M  V30 8527 C 796.316 1.52725 3.96075 0
M  V30 8528 C 794.223 3.8055 4.52698 0
M  V30 8529 H 793.153 0.354204 0.665624 0
M  V30 8530 H 795.804 1.40612 1.17901 0
M  V30 8531 H 794.186 1.14006 3.79234 0
M  V30 8532 H 795.36 3.76431 2.65776 0
M  V30 8533 H 793.675 3.3079 2.52917 0
M  V30 8534 H 796.272 1.97351 4.96947 0
M  V30 8535 H 796.615 0.477803 4.13549 0
M  V30 8536 H 797.148 2.02139 3.42614 0
M  V30 8537 H 793.887 4.85492 4.4043 0
M  V30 8538 H 793.407 3.26206 5.03339 0
M  V30 8539 H 795.086 3.82757 5.21638 0
M  V30 8540 N 795.218 -1.23913 0.973828 0
M  V30 8541 C 796.465 -1.92151 0.639079 0
M  V30 8542 C 796.793 -1.76064 -0.826545 0
M  V30 8543 O 796.048 -1.11126 -1.61088 0
M  V30 8544 C 796.347 -3.4406 0.967356 0
M  V30 8545 C 796.013 -3.80321 2.42212 0
M  V30 8546 C 794.675 -3.8993 2.81971 0
M  V30 8547 C 797.027 -3.97935 3.36596 0
M  V30 8548 C 794.355 -4.14575 4.15144 0
M  V30 8549 C 796.707 -4.24079 4.69404 0
M  V30 8550 C 795.371 -4.31908 5.08932 0
M  V30 8551 H 794.641 -0.70313 0.233856 0
M  V30 8552 H 797.288 -1.47072 1.22646 0
M  V30 8553 H 795.593 -3.90667 0.297807 0
M  V30 8554 H 797.29 -3.95077 0.686654 0
M  V30 8555 H 793.88 -3.73411 2.10385 0
M  V30 8556 H 798.064 -3.89908 3.07059 0
M  V30 8557 H 793.32 -4.18858 4.45385 0
M  V30 8558 H 797.494 -4.36652 5.42502 0
M  V30 8559 H 795.121 -4.50758 6.12145 0
M  V30 8560 N 796.696 -0.74468 -1.38897 0
M  V30 8561 C 797.659 -0.11945 -2.28889 0
M  V30 8562 C 798.659 0.656942 -1.46768 0
M  V30 8563 O 799.849 0.484525 -1.67326 0
M  V30 8564 C 796.981 0.839635 -3.30398 0
M  V30 8565 H 798.174 -0.912414 -2.85683 0
M  V30 8566 H 795.727 -0.511119 -1.47707 0
M  V30 8567 H 796.462 1.6586 -2.78677 0
M  V30 8568 H 796.247 0.285432 -3.9106 0
M  V30 8569 H 797.737 1.27337 -3.97712 0
M  V30 8570 N 798.174 1.49689 -0.493057 0
M  V30 8571 C 799.423 2.01622 0.0560733 0
M  V30 8572 C 799.736 1.37838 1.3878 0
M  V30 8573 O 800.942 1.81054 2.02316 0
M  V30 8574 C 799.398 3.59586 0.150409 0
M  V30 8575 C 799.006 4.32338 -1.1742 0
M  V30 8576 C 800.75 4.19489 0.650327 0
M  V30 8577 C 798.657 5.8214 -1.04246 0
M  V30 8578 H 797.587 0.753594 0.0247297 0
M  V30 8579 H 800.238 1.723 -0.631279 0
M  V30 8580 H 798.62 3.8559 0.902035 0
M  V30 8581 H 799.794 4.18042 -1.9385 0
M  V30 8582 H 798.109 3.84144 -1.60694 0
M  V30 8583 H 800.706 5.29181 0.766272 0
M  V30 8584 H 801.049 3.82326 1.6472 0
M  V30 8585 H 801.582 3.97775 -0.0445371 0
M  V30 8586 H 798.321 6.23814 -2.01336 0
M  V30 8587 H 797.841 5.98952 -0.31892 0
M  V30 8588 H 799.52 6.43004 -0.717957 0
M  V30 8589 N 799.652 0.226554 1.55963 0
M  V30 8590 C 800.582 -0.676079 2.23498 0
M  V30 8591 C 801.563 -1.19718 1.20837 0
M  V30 8592 O 802.748 -1.24027 1.49436 0
M  V30 8593 C 799.878 -1.88217 2.91876 0
M  V30 8594 C 798.832 -1.4947 4.01052 0
M  V30 8595 C 798.158 -2.77997 4.56751 0
M  V30 8596 C 799.458 -0.680951 5.17842 0
M  V30 8597 H 801.152 -0.112989 2.99187 0
M  V30 8598 H 798.698 -0.0529046 1.43903 0
M  V30 8599 H 800.651 -2.51911 3.37815 0
M  V30 8600 H 799.375 -2.47031 2.13643 0
M  V30 8601 H 798.034 -0.881199 3.55852 0
M  V30 8602 H 797.682 -3.34966 3.75243 0
M  V30 8603 H 797.382 -2.52803 5.30438 0
M  V30 8604 H 798.906 -3.42625 5.05411 0
M  V30 8605 H 800.32 -1.22171 5.60131 0
M  V30 8606 H 798.717 -0.525898 5.97791 0
M  V30 8607 H 799.787 0.311346 4.83899 0
M  V30 8608 N 801.13 -1.57531 -0.0467866 0
M  V30 8609 C 802.541 -1.76945 -0.595603 0
M  V30 8610 C 802.892 -0.855354 -1.76573 0
M  V30 8611 O 802.017 -0.045668 -2.16352 0
M  V30 8612 C 802.612 -3.20881 -1.08725 0
M  V30 8613 C 801.171 -3.41553 -1.58172 0
M  V30 8614 C 800.318 -2.72533 -0.511968 0
M  V30 8615 H 803.269 -1.57682 0.179436 0
M  V30 8616 H 803.29 -3.26419 -1.95528 0
M  V30 8617 H 802.802 -3.87385 -0.235398 0
M  V30 8618 H 800.903 -2.80199 -2.456 0
M  V30 8619 H 801.016 -4.50104 -1.64143 0
M  V30 8620 H 799.38 -2.35797 -0.962899 0
M  V30 8621 H 800.163 -3.41709 0.330117 0
M  V30 8622 N 802.608 0.318715 -1.54344 0
M  V30 8623 C 803.885 1.07461 -1.63437 0
M  V30 8624 C 804.265 2.05771 -0.47131 0
M  V30 8625 O 803.613 2.22175 0.53391 0
M  V30 8626 C 803.823 1.77224 -3.00654 0
M  V30 8627 C 805.171 2.30069 -3.56866 0
M  V30 8628 O 806.195 1.87284 -3.0299 0
M  V30 8629 O 805.054 3.08412 -4.51159 0
M  V30 8630 H 802.148 0.495627 -0.66203 0
M  V30 8631 H 804.694 0.318218 -1.6669 0
M  V30 8632 H 803.466 1.05742 -3.76742 0
M  V30 8633 H 803.089 2.59662 -3.01101 0
M  V30 8634 N 804.086 1.46499 0.581025 0
M  V30 8635 C 805.334 1.51596 1.33653 0
M  V30 8636 C 805.655 0.169859 1.94259 0
M  V30 8637 O 804.925 -0.803776 1.78651 0
M  V30 8638 H 803.505 0.558346 0.496244 0
M  V30 8639 H 806.167 1.8264 0.680338 0
M  V30 8640 H 805.263 2.26956 2.14237 0
M  V30 8641 N 805.565 -0.825799 1.34232 0
M  V30 8642 C 806.475 -1.9684 1.27638 0
M  V30 8643 C 807.491 -1.73018 0.184569 0
M  V30 8644 O 808.667 -1.97172 0.410525 0
M  V30 8645 C 805.732 -3.31084 1.02879 0
M  V30 8646 C 804.793 -3.67933 2.21188 0
M  V30 8647 C 804.026 -4.95772 1.976 0
M  V30 8648 O 804.249 -5.62721 0.93281 0
M  V30 8649 O 803.183 -5.30431 2.84477 0
M  V30 8650 H 807.009 -2.05346 2.23756 0
M  V30 8651 H 804.594 -0.960772 1.1441 0
M  V30 8652 H 806.476 -4.11492 0.908406 0
M  V30 8653 H 805.151 -3.23552 0.0979821 0
M  V30 8654 H 804.058 -2.87981 2.38784 0
M  V30 8655 H 805.391 -3.80147 3.12648 0
M  V30 8656 N 807.043 -1.17915 -1.04565 0
M  V30 8657 C 808.289 -0.972863 -1.77942 0
M  V30 8658 C 808.622 0.496753 -1.87739 0
M  V30 8659 O 807.897 1.3688 -1.38181 0
M  V30 8660 C 808.18 -1.62227 -3.21488 0
M  V30 8661 C 808.033 -3.16441 -3.19664 0
M  V30 8662 C 809.352 -1.33137 -4.19479 0
M  V30 8663 H 806.471 -0.354843 -0.645953 0
M  V30 8664 H 809.113 -1.45508 -1.22178 0
M  V30 8665 H 807.263 -1.21224 -3.69103 0
M  V30 8666 H 808.935 -3.66544 -2.80077 0
M  V30 8667 H 807.178 -3.48863 -2.57832 0
M  V30 8668 H 807.849 -3.57012 -4.21006 0
M  V30 8669 H 810.325 -1.68654 -3.80388 0
M  V30 8670 H 809.201 -1.81151 -5.18146 0
M  V30 8671 H 809.462 -0.253319 -4.41374 0
M  V30 8672 N 808.521 1.23394 -0.980386 0
M  V30 8673 C 809.767 1.92094 -0.650223 0
M  V30 8674 C 810.1 1.76309 0.814173 0
M  V30 8675 O 809.375 1.12406 1.5873 0
M  V30 8676 C 809.658 3.44713 -1.04139 0
M  V30 8677 C 809.511 3.69606 -2.56342 0
M  V30 8678 C 810.83 4.36191 -0.585296 0
M  V30 8679 H 807.949 0.697618 -0.237695 0
M  V30 8680 H 810.591 1.45517 -1.22167 0
M  V30 8681 H 808.741 3.84513 -0.55515 0
M  V30 8682 H 810.413 3.39288 -3.1254 0
M  V30 8683 H 808.656 3.14318 -2.98976 0
M  V30 8684 H 809.327 4.76441 -2.78762 0
M  V30 8685 H 811.803 4.03836 -1.00276 0
M  V30 8686 H 810.679 5.41679 -0.887428 0
M  V30 8687 H 810.94 4.39097 0.51438 0
M  V30 8688 N 809.999 0.752036 1.385 0
M  V30 8689 C 811.247 0.306895 1.99756 0
M  V30 8690 C 811.568 -1.11478 1.59992 0
M  V30 8691 O 810.838 -1.76206 0.856045 0
M  V30 8692 H 809.418 0.11048 0.738785 0
M  V30 8693 H 812.08 0.965785 1.69289 0
M  V30 8694 H 811.176 0.368797 3.09913 0
M  V30 8695 N 811.477 -1.49425 0.500989 0
M  V30 8696 C 812.754 -1.9531 -0.106551 0
M  V30 8697 C 813.134 -1.44248 -1.54129 0
M  V30 8698 O 812.482 -0.656237 -2.18874 0
M  V30 8699 C 812.692 -3.48995 -0.0191972 0
M  V30 8700 C 814.04 -4.24161 -0.193129 0
M  V30 8701 O 815.064 -3.56075 -0.0943843 0
M  V30 8702 O 813.923 -5.45064 -0.395869 0
M  V30 8703 H 811.017 -0.82149 -0.0953068 0
M  V30 8704 H 813.563 -1.6007 0.563526 0
M  V30 8705 H 812.335 -3.78794 0.981353 0
M  V30 8706 H 811.958 -3.90852 -0.72942 0
M  V30 8707 N 812.955 -0.234822 -1.55841 0
M  V30 8708 C 814.18 0.400741 -2.03492 0
M  V30 8709 C 814.605 1.51618 -1.11327 0
M  V30 8710 O 813.963 1.81002 -0.103922 0
M  V30 8711 C 814.011 0.897184 -3.49261 0
M  V30 8712 O 813.115 2.00764 -3.60233 0
M  V30 8713 H 812.456 0.0890023 -0.658008 0
M  V30 8714 H 814.986 -0.357345 -2.01455 0
M  V30 8715 H 814.996 1.20356 -3.89844 0
M  V30 8716 H 813.671 0.0808639 -4.15821 0
M  V30 8717 H 812.248 1.70689 -3.31541 0
M  V30 8718 N 814.433 1.57553 0.0384317 0
M  V30 8719 C 815.343 2.09333 1.0591 0
M  V30 8720 C 816.359 1.0299 1.40247 0
M  V30 8721 O 817.535 1.34669 1.49754 0
M  V30 8722 C 814.6 2.55468 2.34386 0
M  V30 8723 C 813.661 3.76254 2.06716 0
M  V30 8724 C 812.894 4.20179 3.29067 0
M  V30 8725 O 813.117 3.637 4.39407 0
M  V30 8726 O 812.051 5.12697 3.15317 0
M  V30 8727 H 815.877 2.96683 0.649087 0
M  V30 8728 H 813.462 1.47211 0.254802 0
M  V30 8729 H 815.344 2.85514 3.09935 0
M  V30 8730 H 814.019 1.71234 2.74701 0
M  V30 8731 H 812.926 3.51241 1.28766 0
M  V30 8732 H 814.259 4.61443 1.71263 0
M  V30 8733 N 815.911 -0.310526 1.54511 0
M  V30 8734 C 816.858 -1.38264 1.84802 0
M  V30 8735 C 817.828 -1.50808 0.696141 0
M  V30 8736 O 819.013 -1.6582 0.943846 0
M  V30 8737 C 816.153 -2.74422 2.09252 0
M  V30 8738 C 815.266 -2.70405 3.36906 0
M  V30 8739 C 814.401 -3.98495 3.51248 0
M  V30 8740 C 813.44 -3.88836 4.72729 0
M  V30 8741 N 812.577 -5.08683 4.83928 0
M  V30 8742 H 817.417 -1.11732 2.76261 0
M  V30 8743 H 814.954 -0.540609 1.36806 0
M  V30 8744 H 816.912 -3.53593 2.21422 0
M  V30 8745 H 815.542 -2.99235 1.2107 0
M  V30 8746 H 814.594 -1.83151 3.33406 0
M  V30 8747 H 815.906 -2.59155 4.26193 0
M  V30 8748 H 815.06 -4.861 3.63031 0
M  V30 8749 H 813.799 -4.12567 2.60077 0
M  V30 8750 H 812.804 -2.99615 4.60989 0
M  V30 8751 H 814.029 -3.76318 5.65298 0
M  V30 8752 H 811.975 -5.23236 3.95677 0
M  V30 8753 H 811.892 -4.99819 5.67201 0
M  V30 8754 H 813.16 -5.97966 5.00057 0
M  V30 8755 N 817.389 -1.46805 -0.573248 0
M  V30 8756 C 818.636 -1.52604 -1.3311 0
M  V30 8757 C 818.964 -0.181633 -1.9365 0
M  V30 8758 O 818.219 0.823775 -1.77517 0
M  V30 8759 C 818.518 -2.58001 -2.47326 0
M  V30 8760 C 818.184 -4.01747 -2.04719 0
M  V30 8761 C 816.846 -4.40881 -1.92814 0
M  V30 8762 C 819.198 -4.92008 -1.71982 0
M  V30 8763 C 816.526 -5.68129 -1.46445 0
M  V30 8764 C 818.878 -6.19703 -1.27089 0
M  V30 8765 C 817.542 -6.57733 -1.13768 0
M  V30 8766 H 816.812 -0.558417 -0.487084 0
M  V30 8767 H 819.459 -1.80327 -0.644538 0
M  V30 8768 H 817.764 -2.23974 -3.2147 0
M  V30 8769 H 819.461 -2.59715 -3.05531 0
M  V30 8770 H 816.051 -3.70819 -2.14922 0
M  V30 8771 H 820.235 -4.62485 -1.8006 0
M  V30 8772 H 815.491 -5.96359 -1.34783 0
M  V30 8773 H 819.665 -6.89064 -1.00814 0
M  V30 8774 H 817.292 -7.56228 -0.776142 0
M  V30 8775 N 818.867 0.818669 -1.34668 0
M  V30 8776 C 819.777 1.9616 -1.2868 0
M  V30 8777 C 820.793 1.72918 -0.193742 0
M  V30 8778 O 821.969 1.96951 -0.420975 0
M  V30 8779 C 819.034 3.30534 -1.04633 0
M  V30 8780 C 818.095 3.66755 -2.23136 0
M  V30 8781 C 817.328 4.94717 -2.00227 0
M  V30 8782 O 817.551 5.62218 -0.96264 0
M  V30 8783 O 816.485 5.28915 -2.87286 0
M  V30 8784 H 820.311 2.04157 -2.24842 0
M  V30 8785 H 817.896 0.954691 -1.14917 0
M  V30 8786 H 819.778 4.11005 -0.930216 0
M  V30 8787 H 818.453 3.23495 -0.115139 0
M  V30 8788 H 817.36 2.8671 -2.40308 0
M  V30 8789 H 818.693 3.78484 -3.1466 0
M  V30 8790 N 820.346 1.18468 1.03938 0
M  V30 8791 C 821.595 0.975193 1.76558 0
M  V30 8792 C 821.908 -0.495978 1.89207 0
M  V30 8793 O 823.114 -0.824009 2.58694 0
M  V30 8794 C 821.57 1.69579 3.17444 0
M  V30 8795 C 821.178 3.20636 3.12884 0
M  V30 8796 C 822.922 1.56917 3.94433 0
M  V30 8797 C 820.829 3.8533 4.48636 0
M  V30 8798 H 819.759 0.361244 0.66183 0
M  V30 8799 H 822.41 1.41854 1.16403 0
M  V30 8800 H 820.792 1.18022 3.78004 0
M  V30 8801 H 821.966 3.79228 2.61768 0
M  V30 8802 H 820.281 3.33454 2.49394 0
M  V30 8803 H 822.878 2.02611 4.94826 0
M  V30 8804 H 823.221 0.521638 4.13019 0
M  V30 8805 H 823.754 2.05762 3.40451 0
M  V30 8806 H 820.493 4.90136 4.35255 0
M  V30 8807 H 820.013 3.31526 4.99851 0
M  V30 8808 H 821.692 3.88269 5.17549 0
M  V30 8809 N 821.824 -1.22873 0.986916 0
M  V30 8810 C 822.734 -2.28277 0.540978 0
M  V30 8811 C 823.75 -1.69164 -0.407363 0
M  V30 8812 O 824.926 -1.99504 -0.275674 0
M  V30 8813 C 821.991 -3.46404 -0.143181 0
M  V30 8814 C 821.052 -4.20854 0.847375 0
M  V30 8815 C 820.285 -5.33341 0.19577 0
M  V30 8816 O 820.508 -5.61356 -1.0117 0
M  V30 8817 O 819.442 -5.95169 0.897623 0
M  V30 8818 H 823.268 -2.68578 1.41773 0
M  V30 8819 H 820.853 -1.28927 0.754867 0
M  V30 8820 H 822.735 -4.18096 -0.526676 0
M  V30 8821 H 821.41 -3.08041 -0.994593 0
M  V30 8822 H 820.317 -3.51459 1.28169 0
M  V30 8823 H 821.65 -4.63082 1.6678 0
M  V30 8824 N 823.302 -0.75937 -1.38099 0
M  V30 8825 C 824.25 -0.124954 -2.32264 0
M  V30 8826 C 825.244 0.698863 -1.54312 0
M  V30 8827 O 826.45 0.597312 -1.698 0
M  V30 8828 H 822.825 -0.0216142 -0.751689 0
M  V30 8829 H 824.796 -0.935115 -2.83369 0
M  V30 8830 C 823.545 0.749463 -3.39527 0
M  V30 8831 H 822.868 0.124932 -3.99605 0
M  V30 8832 H 824.308 1.16055 -4.07808 0
M  V30 8833 C 822.767 1.89464 -2.78577 0
M  V30 8834 O 823.297 2.98923 -2.68343 0
M  V30 8835 N 821.503 1.69145 -2.36301 0
M  V30 8836 H 821.05 0.801157 -2.44825 0
M  V30 8837 H 821.008 2.45936 -1.95864 0
M  V30 8838 N 824.78 1.49157 -0.508906 0
M  V30 8839 C 826.02 2.04376 0.0310623 0
M  V30 8840 C 826.384 1.37946 1.33547 0
M  V30 8841 O 827.585 1.83931 1.96017 0
M  V30 8842 C 825.856 3.56985 0.172191 0
M  V30 8843 S 827.415 4.33728 0.665267 0
M  V30 8844 H 824.233 0.710997 -0.00199266 0
M  V30 8845 H 826.835 1.83119 -0.684674 0
M  V30 8846 H 825.539 4.02874 -0.78234 0
M  V30 8847 H 825.07 3.82661 0.912933 0
M  V30 8848 H 827.085 4.56992 1.9332 0
M  V30 8849 N 826.258 0.243083 1.55714 0
M  V30 8850 C 827.188 -0.652336 2.24203 0
M  V30 8851 C 828.169 -1.1843 1.221 0
M  V30 8852 O 829.354 -1.22435 1.50743 0
M  V30 8853 C 826.484 -1.85111 2.93856 0
M  V30 8854 C 825.438 -1.45208 4.02615 0
M  V30 8855 C 824.764 -2.73137 4.59674 0
M  V30 8856 C 826.064 -0.625988 5.18535 0
M  V30 8857 H 827.758 -0.0812504 2.9929 0
M  V30 8858 H 825.304 -0.0376388 1.43951 0
M  V30 8859 H 827.257 -2.48314 3.40468 0
M  V30 8860 H 825.981 -2.44751 2.16251 0
M  V30 8861 H 824.64 -0.843406 3.56766 0
M  V30 8862 H 824.288 -3.30967 3.78774 0
M  V30 8863 H 823.988 -2.47163 5.33089 0
M  V30 8864 H 825.512 -3.37245 5.09017 0
M  V30 8865 H 826.926 -1.16223 5.61396 0
M  V30 8866 H 825.323 -0.462465 5.98315 0
M  V30 8867 H 826.393 0.362652 4.83542 0
M  V30 8868 N 827.736 -1.57571 -0.0300757 0
M  V30 8869 C 828.699 -2.05468 -1.01565 0
M  V30 8870 C 829.699 -0.958628 -1.29101 0
M  V30 8871 O 830.889 -1.22228 -1.24121 0
M  V30 8872 C 828.021 -2.47077 -2.34874 0
M  V30 8873 H 829.214 -2.93797 -0.601936 0
M  V30 8874 H 826.767 -1.53828 -0.276878 0
M  V30 8875 H 827.502 -1.61901 -2.80996 0
M  V30 8876 H 827.287 -3.27097 -2.16218 0
M  V30 8877 H 828.777 -2.84564 -3.05635 0
M  V30 8878 N 829.214 0.302327 -1.54673 0
M  V30 8879 C 830.162 1.39286 -1.86285 0
M  V30 8880 C 831.156 1.52553 -0.736478 0
M  V30 8881 O 832.362 1.54686 -0.92045 0
M  V30 8882 H 828.737 0.465228 -0.590819 0
M  V30 8883 H 830.708 1.09859 -2.77441 0
M  V30 8884 C 829.457 2.75155 -2.12567 0
M  V30 8885 H 828.78 2.65728 -2.98712 0
M  V30 8886 H 830.22 3.50476 -2.38627 0
M  V30 8887 C 828.679 3.23987 -0.923813 0
M  V30 8888 O 829.209 4.01443 -0.143649 0
M  V30 8889 N 827.415 2.81293 -0.72956 0
M  V30 8890 H 826.962 2.18421 -1.36565 0
M  V30 8891 H 826.92 3.14315 0.0730351 0
M  V30 8892 N 830.692 1.47107 0.565454 0
M  V30 8893 C 831.639 1.58974 1.6732 0
M  V30 8894 C 832.609 0.433146 1.60353 0
M  V30 8895 O 833.794 0.652141 1.79309 0
M  V30 8896 C 830.934 1.60224 3.05651 0
M  V30 8897 C 830.047 2.86741 3.23116 0
M  V30 8898 C 829.182 2.79381 4.51796 0
M  V30 8899 C 828.221 4.0076 4.62664 0
M  V30 8900 N 827.358 3.91685 5.8269 0
M  V30 8901 H 832.198 2.53588 1.56515 0
M  V30 8902 H 829.735 1.25791 0.762558 0
M  V30 8903 H 831.693 1.58933 3.85741 0
M  V30 8904 H 830.323 0.691285 3.15311 0
M  V30 8905 H 829.375 2.97936 2.36513 0
M  V30 8906 H 830.687 3.7665 3.27011 0
M  V30 8907 H 829.841 2.76293 5.40136 0
M  V30 8908 H 828.58 1.87142 4.50366 0
M  V30 8909 H 827.585 4.04162 3.72738 0
M  V30 8910 H 828.81 4.94117 4.6586 0
M  V30 8911 H 826.756 3.02243 5.82224 0
M  V30 8912 H 826.673 4.75264 5.87929 0
M  V30 8913 H 827.941 3.92599 6.73414 0
M  V30 8914 N 832.17 -0.811516 1.35101 0
M  V30 8915 C 833.416 -1.57068 1.28287 0
M  V30 8916 C 833.749 -1.93667 -0.143808 0
M  V30 8917 O 833.024 -1.60953 -1.09199 0
M  V30 8918 C 833.307 -2.86259 2.18466 0
M  V30 8919 C 833.16 -2.56168 3.69727 0
M  V30 8920 C 834.479 -3.87924 2.07852 0
M  V30 8921 H 831.598 -0.569869 0.467353 0
M  V30 8922 H 834.24 -0.934023 1.65457 0
M  V30 8923 H 832.39 -3.4059 1.86898 0
M  V30 8924 H 834.062 -2.08059 4.11715 0
M  V30 8925 H 832.305 -1.89436 3.90252 0
M  V30 8926 H 832.976 -3.48344 4.28206 0
M  V30 8927 H 835.452 -3.4298 2.35593 0
M  V30 8928 H 834.328 -4.76106 2.73157 0
M  V30 8929 H 834.589 -4.2923 1.05896 0
M  V30 8930 N 833.648 -1.19017 -1.03309 0
M  V30 8931 C 834.925 -0.899659 -1.73682 0
M  V30 8932 C 835.305 0.595677 -2.02521 0
M  V30 8933 O 834.653 1.55263 -1.67648 0
M  V30 8934 C 834.863 -1.75508 -3.01659 0
M  V30 8935 C 836.211 -1.98679 -3.75249 0
M  V30 8936 O 837.235 -1.72624 -3.11576 0
M  V30 8937 O 836.094 -2.42587 -4.89708 0
M  V30 8938 H 833.188 -0.334903 -0.756154 0
M  V30 8939 H 835.734 -1.29809 -1.09305 0
M  V30 8940 H 834.506 -2.7684 -2.76542 0
M  V30 8941 H 834.129 -1.35565 -3.73775 0
M  V30 8942 N 835.127 1.22348 -0.993418 0
M  V30 8943 C 836.057 2.26584 -0.564088 0
M  V30 8944 C 837.038 1.65102 0.409298 0
M  V30 8945 O 838.223 1.91872 0.299819 0
M  V30 8946 C 835.353 3.47087 0.121554 0
M  V30 8947 C 834.307 4.21009 -0.770429 0
M  V30 8948 C 833.633 5.34678 0.0481586 0
M  V30 8949 C 834.933 4.79636 -2.06752 0
M  V30 8950 H 836.627 2.62749 -1.43538 0
M  V30 8951 H 834.173 1.26303 -0.691628 0
M  V30 8952 H 836.126 4.19166 0.433303 0
M  V30 8953 H 834.85 3.1002 1.0274 0
M  V30 8954 H 833.509 3.50764 -1.06583 0
M  V30 8955 H 833.157 4.93852 0.954933 0
M  V30 8956 H 832.857 5.85061 -0.545641 0
M  V30 8957 H 834.381 6.09573 0.353991 0
M  V30 8958 H 835.795 5.43654 -1.81969 0
M  V30 8959 H 834.192 5.4036 -2.61019 0
M  V30 8960 H 835.262 3.99659 -2.74592 0
M  V30 8961 N 836.605 0.766683 1.37694 0
M  V30 8962 C 837.83 0.338715 2.04615 0
M  V30 8963 C 838.255 -1.02918 1.57447 0
M  V30 8964 O 837.613 -1.65849 0.732386 0
M  V30 8965 C 837.661 0.385284 3.58536 0
M  V30 8966 O 836.765 -0.616081 4.07772 0
M  V30 8967 H 836.106 0.147527 0.647404 0
M  V30 8968 H 838.636 1.04146 1.7611 0
M  V30 8969 H 838.646 0.240782 4.07289 0
M  V30 8970 H 837.321 1.38325 3.92223 0
M  V30 8971 H 835.898 -0.435115 3.70353 0
M  V30 8972 N 838.083 -1.48885 0.516809 0
M  V30 8973 C 839.33 -2.02488 -0.0220602 0
M  V30 8974 C 839.658 -1.39513 -1.35523 0
M  V30 8975 O 838.913 -0.52558 -1.8851 0
M  V30 8976 C 839.212 -3.56801 -0.206798 0
M  V30 8977 C 838.878 -4.38496 1.05035 0
M  V30 8978 C 837.54 -4.60538 1.39492 0
M  V30 8979 C 839.892 -4.85909 1.88525 0
M  V30 8980 C 837.22 -5.2724 2.57361 0
M  V30 8981 C 839.572 -5.53909 3.05561 0
M  V30 8982 C 838.236 -5.74193 3.4038 0
M  V30 8983 H 837.506 -0.740956 -0.00807238 0
M  V30 8984 H 840.153 -1.79014 0.680168 0
M  V30 8985 H 838.458 -3.79042 -0.991687 0
M  V30 8986 H 840.155 -3.95885 -0.638447 0
M  V30 8987 H 836.745 -4.2159 0.771984 0
M  V30 8988 H 840.929 -4.68694 1.63218 0
M  V30 8989 H 836.185 -5.41145 2.84556 0
M  V30 8990 H 840.359 -5.89619 3.7057 0
M  V30 8991 H 837.986 -6.25652 4.31814 0
M  V30 8992 N 839.561 -0.251338 -1.55583 0
M  V30 8993 C 840.786 0.379136 -2.03905 0
M  V30 8994 C 841.211 1.50428 -1.12929 0
M  V30 8995 O 840.569 1.80882 -0.123114 0
M  V30 8996 C 840.617 0.86009 -3.50193 0
M  V30 8997 O 839.721 1.96932 -3.62342 0
M  V30 8998 H 839.062 0.0820183 -0.658915 0
M  V30 8999 H 841.592 -0.378692 -2.01065 0
M  V30 9000 H 841.602 1.16214 -3.91099 0
M  V30 9001 H 840.277 0.0367559 -4.15884 0
M  V30 9002 H 838.854 1.67163 -3.33333 0
M  V30 9003 N 841.039 1.57585 0.0217189 0
M  V30 9004 C 842.45 1.7787 0.567377 0
M  V30 9005 C 842.801 0.883337 1.7519 0
M  V30 9006 O 841.926 0.0800819 2.16252 0
M  V30 9007 C 842.521 3.2257 1.03606 0
M  V30 9008 C 841.08 3.44026 1.52718 0
M  V30 9009 C 840.227 2.73313 0.468545 0
M  V30 9010 H 843.178 1.57377 -0.2045 0
M  V30 9011 H 843.199 3.29488 1.9031 0
M  V30 9012 H 842.711 3.87711 0.173739 0
M  V30 9013 H 840.812 2.8407 2.41111 0
M  V30 9014 H 840.925 4.52659 1.56962 0
M  V30 9015 H 839.289 2.37299 0.925263 0
M  V30 9016 H 840.072 3.41141 -0.384438 0
M  V30 9017 N 842.517 -0.29412 1.54831 0
M  V30 9018 C 843.48 -1.3461 1.85507 0
M  V30 9019 C 844.48 -1.43359 0.728343 0
M  V30 9020 O 845.67 -1.42875 0.996609 0
M  V30 9021 C 842.802 -2.73012 2.0415 0
M  V30 9022 H 843.995 -1.08651 2.79526 0
M  V30 9023 H 841.548 -0.531138 1.46999 0
M  V30 9024 H 842.283 -3.04183 1.12441 0
M  V30 9025 H 842.068 -2.68051 2.86166 0
M  V30 9026 H 843.558 -3.49061 2.29229 0
M  V30 9027 N 843.995 -1.47404 -0.557645 0
M  V30 9028 C 844.927 -1.55917 -1.67995 0
M  V30 9029 C 845.94 -0.445411 -1.56588 0
M  V30 9030 O 847.129 -0.714999 -1.63554 0
M  V30 9031 C 844.229 -1.44697 -3.06457 0
M  V30 9032 C 843.402 -2.70633 -3.43622 0
M  V30 9033 C 842.461 -2.53256 -4.61246 0
M  V30 9034 O 841.487 -3.27068 -4.65849 0
M  V30 9035 N 842.689 -1.61053 -5.57711 0
M  V30 9036 H 845.454 -2.52694 -1.61139 0
M  V30 9037 H 843.015 -1.43778 -0.744271 0
M  V30 9038 H 845.007 -1.30806 -3.82978 0
M  V30 9039 H 843.577 -0.560039 -3.07542 0
M  V30 9040 H 842.797 -2.99288 -2.56555 0
M  V30 9041 H 844.085 -3.5424 -3.65228 0
M  V30 9042 H 843.483 -1.00235 -5.56749 0
M  V30 9043 H 842.04 -1.53115 -6.33561 0
M  V30 9044 N 845.473 0.80434 -1.35529 0
M  V30 9045 C 846.698 1.598 -1.32207 0
M  V30 9046 C 847.123 1.87848 0.0974226 0
M  V30 9047 O 846.481 1.46728 1.06492 0
M  V30 9048 C 846.529 2.90483 -2.13663 0
M  V30 9049 O 845.633 3.83411 -1.51888 0
M  V30 9050 H 844.974 0.485305 -0.453183 0
M  V30 9051 H 847.504 0.998119 -1.78602 0
M  V30 9052 H 847.514 3.39888 -2.257 0
M  V30 9053 H 846.189 2.69395 -3.16859 0
M  V30 9054 H 844.766 3.41967 -1.48704 0
M  V30 9055 N 846.951 1.19563 1.02676 0
M  V30 9056 C 848.362 1.00158 1.57561 0
M  V30 9057 C 848.713 -0.444922 1.91089 0
M  V30 9058 O 847.838 -1.32466 1.71119 0
M  V30 9059 C 848.433 1.81181 2.86284 0
M  V30 9060 C 846.992 1.66171 3.37734 0
M  V30 9061 C 846.139 1.7975 2.11152 0
M  V30 9062 H 849.09 1.33904 0.85179 0
M  V30 9063 H 849.111 1.30916 3.57269 0
M  V30 9064 H 848.623 2.86454 2.6185 0
M  V30 9065 H 846.724 0.634927 3.6715 0
M  V30 9066 H 846.837 2.46832 4.10622 0
M  V30 9067 H 845.201 1.22833 2.23123 0
M  V30 9068 H 845.984 2.86487 1.89157 0
M  V30 9069 N 848.429 -1.21819 0.999893 0
M  V30 9070 C 849.84 -1.72517 0.713775 0
M  V30 9071 C 850.191 -1.80505 -0.768922 0
M  V30 9072 O 849.316 -1.45611 -1.60083 0
M  V30 9073 C 849.911 -3.13321 1.28901 0
M  V30 9074 C 848.47 -3.61396 1.05212 0
M  V30 9075 C 847.617 -2.39074 1.40494 0
M  V30 9076 H 850.568 -1.07068 1.17141 0
M  V30 9077 H 850.589 -3.74535 0.671084 0
M  V30 9078 H 850.101 -3.07475 2.36814 0
M  V30 9079 H 848.202 -3.72599 -0.0100732 0
M  V30 9080 H 848.315 -4.47145 1.72042 0
M  V30 9081 H 846.679 -2.41015 0.823642 0
M  V30 9082 H 847.462 -2.35884 2.49427 0
M  V30 9083 N 849.908 -0.773975 -1.37286 0
M  V30 9084 C 850.871 -0.167974 -2.28584 0
M  V30 9085 C 851.871 0.625662 -1.48129 0
M  V30 9086 O 853.061 0.448924 -1.68316 0
M  V30 9087 C 850.193 0.769364 -3.32105 0
M  V30 9088 H 851.386 -0.972806 -2.83684 0
M  V30 9089 H 848.939 -0.542335 -1.46589 0
M  V30 9090 H 849.674 1.59912 -2.82132 0
M  V30 9091 H 849.459 0.202419 -3.91577 0
M  V30 9092 H 850.949 1.18872 -4.00324 0
M  V30 9093 N 851.386 1.48609 -0.524698 0
M  V30 9094 C 852.611 2.07398 0.00952139 0
M  V30 9095 C 853.036 1.37939 1.27884 0
M  V30 9096 O 852.394 0.443633 1.75788 0
M  V30 9097 C 852.442 3.59916 0.221956 0
M  V30 9098 O 851.546 3.91647 1.29175 0
M  V30 9099 H 850.887 0.662981 -0.0367729 0
M  V30 9100 H 853.417 1.91092 -0.7311 0
M  V30 9101 H 853.427 4.05552 0.446236 0
M  V30 9102 H 852.102 4.09876 -0.705306 0
M  V30 9103 H 850.679 3.57796 1.05055 0
M  V30 9104 N 852.864 0.259585 1.55447 0
M  V30 9105 C 853.814 -0.648769 2.18575 0
M  V30 9106 C 854.798 -1.1299 1.14552 0
M  V30 9107 O 855.99 -1.07756 1.4042 0
M  V30 9108 C 853.119 -1.83963 2.89849 0
M  V30 9109 C 852.205 -1.37641 4.01143 0
M  V30 9110 N 852.596 -0.628269 5.01883 0
M  V30 9111 C 850.894 -1.66066 4.1393 0
M  V30 9112 C 851.595 -0.386746 5.80413 0
M  V30 9113 N 850.571 -0.954665 5.35151 0
M  V30 9114 H 854.373 -0.0691616 2.93819 0
M  V30 9115 H 851.887 0.0624525 1.6228 0
M  V30 9116 H 853.884 -2.50151 3.33512 0
M  V30 9117 H 852.544 -2.42334 2.16112 0
M  V30 9118 H 853.555 -0.277123 5.17158 0
M  V30 9119 H 850.232 -2.25484 3.51373 0
M  V30 9120 H 851.622 0.211382 6.71567 0
M  V30 9121 N 854.342 -1.57594 -0.0133615 0
M  V30 9122 C 855.305 -2.06534 -0.993799 0
M  V30 9123 C 856.305 -0.972267 -1.28077 0
M  V30 9124 O 857.495 -1.23537 -1.22818 0
M  V30 9125 C 854.627 -2.49554 -2.3224 0
M  V30 9126 H 855.82 -2.94419 -0.570741 0
M  V30 9127 H 853.373 -1.54113 -0.260546 0
M  V30 9128 H 854.108 -1.64872 -2.79263 0
M  V30 9129 H 853.893 -3.29371 -2.12737 0
M  V30 9130 H 855.383 -2.8779 -3.026 0
M  V30 9131 N 855.82 0.285905 -1.54985 0
M  V30 9132 C 856.77 1.35505 -1.83364 0
M  V30 9133 C 857.754 1.45273 -0.691698 0
M  V30 9134 O 858.946 1.49172 -0.952725 0
M  V30 9135 C 856.075 2.71756 -2.0977 0
M  V30 9136 C 855.161 2.6615 -3.30189 0
M  V30 9137 N 855.552 2.30161 -4.50399 0
M  V30 9138 C 853.85 2.97232 -3.3252 0
M  V30 9139 C 854.551 2.34228 -5.32459 0
M  V30 9140 N 853.527 2.72187 -4.70548 0
M  V30 9141 H 857.329 1.06668 -2.7386 0
M  V30 9142 H 854.843 0.494521 -1.54688 0
M  V30 9143 H 856.84 3.48864 -2.28253 0
M  V30 9144 H 855.5 3.01492 -1.20551 0
M  V30 9145 H 856.511 2.02358 -4.7673 0
M  V30 9146 H 853.188 3.31764 -2.53454 0
M  V30 9147 H 854.578 2.09074 -6.38543 0
M  V30 9148 N 857.298 1.47698 0.54982 0
M  V30 9149 C 858.228 1.63622 1.66583 0
M  V30 9150 C 859.209 0.485477 1.63025 0
M  V30 9151 O 860.394 0.715692 1.80531 0
M  V30 9152 C 857.524 1.65721 3.05211 0
M  V30 9153 C 856.478 2.80097 3.2362 0
M  V30 9154 C 855.804 2.67272 4.63109 0
M  V30 9155 C 857.104 4.21612 3.08286 0
M  V30 9156 H 858.798 2.57049 1.53512 0
M  V30 9157 H 856.344 1.23705 0.737099 0
M  V30 9158 H 858.297 1.75451 3.83138 0
M  V30 9159 H 857.021 0.688593 3.19258 0
M  V30 9160 H 855.68 2.69889 2.48104 0
M  V30 9161 H 855.328 1.68422 4.73965 0
M  V30 9162 H 855.028 3.44008 4.76374 0
M  V30 9163 H 856.552 2.78942 5.43161 0
M  V30 9164 H 857.966 4.32758 3.76024 0
M  V30 9165 H 856.363 4.99193 3.33057 0
M  V30 9166 H 857.433 4.39462 2.04942 0
M  V30 9167 N 858.776 -0.797141 1.35954 0
M  V30 9168 C 859.708 -1.91782 1.25509 0
M  V30 9169 C 860.721 -1.61843 0.176271 0
M  V30 9170 O 861.91 -1.73235 0.430343 0
M  V30 9171 C 859.01 -3.26396 0.912073 0
M  V30 9172 C 858.183 -3.84171 2.0912 0
M  V30 9173 C 857.242 -4.9721 1.72246 0
M  V30 9174 O 856.268 -5.14136 2.44239 0
M  V30 9175 N 857.47 -5.76831 0.651611 0
M  V30 9176 H 860.235 -2.01266 2.22063 0
M  V30 9177 H 857.796 -0.975033 1.29247 0
M  V30 9178 H 859.788 -3.99499 0.646707 0
M  V30 9179 H 858.358 -3.12579 0.0359079 0
M  V30 9180 H 857.578 -3.03148 2.51982 0
M  V30 9181 H 858.866 -4.19503 2.87914 0
M  V30 9182 H 858.264 -5.65675 0.0536678 0
M  V30 9183 H 856.821 -6.50272 0.44605 0
M  V30 9184 N 860.254 -1.20106 -1.0204 0
M  V30 9185 C 861.5 -1.01039 -1.75838 0
M  V30 9186 C 861.833 0.456819 -1.88751 0
M  V30 9187 O 861.108 1.33919 -1.41053 0
M  V30 9188 C 861.391 -1.69009 -3.17975 0
M  V30 9189 C 861.244 -3.2315 -3.1288 0
M  V30 9190 C 862.563 -1.42005 -4.16561 0
M  V30 9191 H 859.682 -0.368465 -0.638281 0
M  V30 9192 H 862.324 -1.48066 -1.19064 0
M  V30 9193 H 860.474 -1.29026 -3.66449 0
M  V30 9194 H 862.146 -3.72402 -2.72239 0
M  V30 9195 H 860.389 -3.54253 -2.50374 0
M  V30 9196 H 861.06 -3.65862 -4.13339 0
M  V30 9197 H 863.536 -1.76685 -3.76725 0
M  V30 9198 H 862.412 -1.92101 -5.14187 0
M  V30 9199 H 862.673 -0.346884 -4.40737 0
M  V30 9200 N 861.732 1.21287 -1.00634 0
M  V30 9201 C 862.695 2.21927 -0.572821 0
M  V30 9202 C 863.695 1.5691 0.351541 0
M  V30 9203 O 864.885 1.73623 0.141643 0
M  V30 9204 C 862.017 3.40501 0.164932 0
M  V30 9205 H 863.21 2.61795 -1.463 0
M  V30 9206 H 860.763 1.34571 -0.794998 0
M  V30 9207 H 861.498 3.06123 1.07049 0
M  V30 9208 H 861.283 3.88912 -0.498962 0
M  V30 9209 H 862.773 4.15103 0.455945 0
M  V30 9210 N 863.21 0.781244 1.36873 0
M  V30 9211 C 864.173 0.180094 2.28491 0
M  V30 9212 C 865.173 -0.617798 1.48458 0
M  V30 9213 O 866.363 -0.439991 1.68552 0
M  V30 9214 C 863.495 -0.751741 3.32508 0
M  V30 9215 H 864.688 0.987837 2.83164 0
M  V30 9216 H 862.241 0.550102 1.463 0
M  V30 9217 H 862.976 -1.58413 2.82977 0
M  V30 9218 H 862.761 -0.181649 3.91679 0
M  V30 9219 H 864.251 -1.16748 4.00949 0
M  V30 9220 N 864.689 -1.48329 0.532571 0
M  V30 9221 C 865.652 -2.2816 -0.218069 0
M  V30 9222 C 866.652 -1.35526 -0.865409 0
M  V30 9223 O 867.842 -1.58394 -0.725061 0
M  V30 9224 C 864.974 -3.1448 -1.31586 0
M  V30 9225 H 866.167 -2.95987 0.482865 0
M  V30 9226 H 863.72 -1.53612 0.288603 0
M  V30 9227 H 864.455 -2.5129 -2.04997 0
M  V30 9228 H 864.24 -3.82625 -0.856779 0
M  V30 9229 H 865.73 -3.74693 -1.84377 0
M  V30 9230 N 866.167 -0.267825 -1.55308 0
M  V30 9231 C 867.578 0.231344 -1.85261 0
M  V30 9232 C 867.929 1.56006 -1.18982 0
M  V30 9233 O 867.054 2.1111 -0.475554 0
M  V30 9234 C 867.649 0.426537 -3.36104 0
M  V30 9235 C 866.208 0.869945 -3.66209 0
M  V30 9236 C 865.355 -0.0409522 -2.7727 0
M  V30 9237 H 868.306 -0.489821 -1.50952 0
M  V30 9238 H 868.327 1.26616 -3.58816 0
M  V30 9239 H 867.839 -0.540678 -3.84315 0
M  V30 9240 H 865.94 1.84889 -3.23492 0
M  V30 9241 H 866.053 0.712316 -4.73775 0
M  V30 9242 H 864.417 0.474097 -2.50249 0
M  V30 9243 H 865.2 -1.00392 -3.28293 0
M  V30 9244 N 867.645 1.57599 0.00500368 0
M  V30 9245 C 868.577 2.04949 1.02609 0
M  V30 9246 C 869.59 0.966507 1.31006 0
M  V30 9247 O 870.779 1.2434 1.2807 0
M  V30 9248 C 867.879 2.43023 2.36206 0
M  V30 9249 C 867.052 3.73993 2.26821 0
M  V30 9250 C 866.111 3.9899 3.43065 0
M  V30 9251 O 865.137 4.69725 3.21477 0
M  V30 9252 N 866.339 3.46496 4.65748 0
M  V30 9253 H 869.104 2.93167 0.622336 0
M  V30 9254 H 866.665 1.60752 0.192488 0
M  V30 9255 H 868.657 2.56863 3.12735 0
M  V30 9256 H 867.227 1.60349 2.68341 0
M  V30 9257 H 866.447 3.70277 1.35235 0
M  V30 9258 H 867.735 4.59865 2.17719 0
M  V30 9259 H 867.133 2.89206 4.86186 0
M  V30 9260 H 865.69 3.65675 5.3956 0
M  V30 9261 N 869.123 -0.277682 1.55134 0
M  V30 9262 C 870.348 -1.03254 1.7987 0
M  V30 9263 C 870.773 -1.79324 0.567861 0
M  V30 9264 O 870.131 -1.74764 -0.4824 0
M  V30 9265 C 870.179 -1.9705 3.02 0
M  V30 9266 O 869.283 -3.05744 2.76757 0
M  V30 9267 H 868.624 -0.295447 0.594649 0
M  V30 9268 H 871.154 -0.308013 2.02268 0
M  V30 9269 H 871.164 -2.3909 3.30606 0
M  V30 9270 H 869.839 -1.41094 3.91236 0
M  V30 9271 H 868.416 -2.68052 2.59235 0
M  V30 9272 N 870.601 -1.47988 -0.541979 0
M  V30 9273 C 871.531 -1.64503 -1.65713 0
M  V30 9274 C 872.512 -0.494116 -1.62765 0
M  V30 9275 O 873.697 -0.725256 -1.80149 0
M  V30 9276 C 870.827 -1.67337 -3.04328 0
M  V30 9277 C 869.781 -2.81809 -3.2213 0
M  V30 9278 C 869.107 -2.69724 -4.61685 0
M  V30 9279 C 870.407 -4.23241 -3.06046 0
M  V30 9280 H 872.101 -2.5786 -1.52147 0
M  V30 9281 H 869.647 -1.24094 -0.730529 0
M  V30 9282 H 871.6 -1.77481 -3.82202 0
M  V30 9283 H 870.324 -0.705514 -3.18889 0
M  V30 9284 H 868.983 -2.71201 -2.46669 0
M  V30 9285 H 868.631 -1.70934 -4.73065 0
M  V30 9286 H 868.331 -3.4653 -4.74543 0
M  V30 9287 H 869.855 -2.81818 -5.41674 0
M  V30 9288 H 871.269 -4.34746 -3.73723 0
M  V30 9289 H 869.666 -5.00952 -3.30405 0
M  V30 9290 H 870.736 -4.40543 -2.02609 0
M  V30 9291 N 872.079 0.78992 -1.36375 0
M  V30 9292 C 873.319 1.56098 -1.31958 0
M  V30 9293 C 873.683 1.91738 0.100197 0
M  V30 9294 O 874.884 2.67451 0.268913 0
M  V30 9295 C 873.155 2.80406 -2.21601 0
M  V30 9296 S 874.714 3.70655 -2.34863 0
M  V30 9297 H 871.532 0.534632 -0.46871 0
M  V30 9298 H 874.134 0.930417 -1.7194 0
M  V30 9299 H 872.838 2.52273 -3.23707 0
M  V30 9300 H 872.369 3.48436 -1.82637 0
M  V30 9301 H 874.384 4.71509 -1.54575 0
M  V30 9302 N 873.557 1.20646 1.01402 0
M  V30 9303 C 874.52 0.959314 2.08158 0
M  V30 9304 C 875.52 -0.0661558 1.60664 0
M  V30 9305 O 876.71 0.170177 1.73367 0
M  V30 9306 C 873.842 0.444785 3.37986 0
M  V30 9307 H 875.035 1.90631 2.31517 0
M  V30 9308 H 872.588 1.02219 1.18241 0
M  V30 9309 H 873.323 -0.507553 3.20304 0
M  V30 9310 H 873.108 1.18435 3.73785 0
M  V30 9311 H 874.598 0.291443 4.16582 0
M  V30 9312 N 875.035 -1.20752 1.01276 0
M  V30 9313 C 875.965 -2.25658 0.600064 0
M  V30 9314 C 876.946 -1.65733 -0.38298 0
M  V30 9315 O 878.131 -1.92324 -0.269256 0
M  V30 9316 C 875.261 -3.47237 -0.0663197 0
M  V30 9317 C 874.215 -4.1973 0.83731 0
M  V30 9318 C 873.541 -5.34687 0.0369102 0
M  V30 9319 C 874.841 -4.76286 2.14357 0
M  V30 9320 H 876.535 -2.60432 1.477 0
M  V30 9321 H 874.081 -1.25187 0.711634 0
M  V30 9322 H 876.034 -4.19803 -0.366563 0
M  V30 9323 H 874.758 -3.11615 -0.977944 0
M  V30 9324 H 873.417 -3.49024 1.1215 0
M  V30 9325 H 873.065 -4.95309 -0.876244 0
M  V30 9326 H 872.765 -5.84119 0.63865 0
M  V30 9327 H 874.289 -6.10059 -0.256968 0
M  V30 9328 H 875.703 -5.40691 1.90595 0
M  V30 9329 H 874.1 -5.36139 2.69583 0
M  V30 9330 H 875.17 -3.9524 2.80916 0
M  V30 9331 N 876.513 -0.788492 -1.36457 0
M  V30 9332 C 877.929 -0.470063 -1.52521 0
M  V30 9333 C 878.129 1.01176 -1.74258 0
M  V30 9334 O 877.185 1.79726 -1.77355 0
M  V30 9335 C 878.498 -1.2997 -2.71161 0
M  V30 9336 C 880.046 -1.2933 -2.85031 0
M  V30 9337 C 880.521 -2.10665 -4.06674 0
M  V30 9338 N 882.012 -2.08107 -4.13819 0
M  V30 9339 C 882.747 -2.6781 -5.07016 0
M  V30 9340 N 882.243 -3.36369 -6.05663 0
M  V30 9341 N 884.036 -2.57549 -4.99625 0
M  V30 9342 H 876.187 -1.7484 -1.20602 0
M  V30 9343 H 878.45 -0.743159 -0.588574 0
M  V30 9344 H 878.156 -2.35051 -2.61618 0
M  V30 9345 H 878.03 -0.940367 -3.6529 0
M  V30 9346 H 880.417 -0.250414 -2.94036 0
M  V30 9347 H 880.498 -1.69239 -1.91812 0
M  V30 9348 H 880.142 -3.14984 -3.98431 0
M  V30 9349 H 880.072 -1.68128 -4.9904 0
M  V30 9350 H 882.563 -1.58208 -3.43189 0
M  V30 9351 H 882.876 -3.79258 -6.73338 0
M  V30 9352 H 881.221 -3.40471 -6.05891 0
M  V30 9353 H 884.412 -2.0359 -4.21508 0
M  V30 9354 H 884.585 -3.0437 -5.72069 0
M  V30 9355 N 877.991 1.48044 -0.54043 0
M  V30 9356 C 878.954 2.28273 0.205966 0
M  V30 9357 C 879.954 1.35983 0.858209 0
M  V30 9358 O 881.144 1.58776 0.716651 0
M  V30 9359 C 878.276 3.15174 1.29917 0
M  V30 9360 H 879.469 2.95727 -0.498555 0
M  V30 9361 H 877.022 1.53457 -0.296745 0
M  V30 9362 H 877.757 2.52374 2.03661 0
M  V30 9363 H 877.542 3.83074 0.836475 0
M  V30 9364 H 879.032 3.75666 1.82387 0
M  V30 9365 N 879.47 0.276058 1.55163 0
M  V30 9366 C 880.716 -0.340959 1.99913 0
M  V30 9367 C 881.049 -1.55434 1.16422 0
M  V30 9368 O 880.324 -1.93081 0.234517 0
M  V30 9369 C 880.607 -0.722211 3.52783 0
M  V30 9370 C 880.46 0.498575 4.47028 0
M  V30 9371 C 881.779 -1.5583 4.11589 0
M  V30 9372 H 878.898 -0.122455 0.726756 0
M  V30 9373 H 881.54 0.38319 1.86096 0
M  V30 9374 H 879.69 -1.33919 3.64689 0
M  V30 9375 H 881.362 1.13713 4.47065 0
M  V30 9376 H 879.605 1.13646 4.18649 0
M  V30 9377 H 880.276 0.188041 5.5168 0
M  V30 9378 H 882.752 -1.03722 4.02965 0
M  V30 9379 H 881.628 -1.79387 5.1876 0
M  V30 9380 H 881.889 -2.53963 3.61877 0
M  V30 9381 N 880.948 -1.576 0.00335426 0
M  V30 9382 C 882.225 -1.81945 -0.718015 0
M  V30 9383 C 882.605 -0.881788 -1.91801 0
M  V30 9384 O 881.953 0.0687118 -2.28397 0
M  V30 9385 C 882.163 -3.30521 -1.12058 0
M  V30 9386 C 883.511 -3.96345 -1.52303 0
M  V30 9387 O 884.535 -3.34864 -1.21428 0
M  V30 9388 O 883.394 -5.04655 -2.09728 0
M  V30 9389 H 880.488 -0.749328 -0.34991 0
M  V30 9390 H 883.034 -1.69675 0.0290654 0
M  V30 9391 H 881.806 -3.90399 -0.265378 0
M  V30 9392 H 881.429 -3.47802 -1.92665 0
M  V30 9393 N 882.426 0.269451 -1.5528 0
M  V30 9394 C 883.358 1.35553 -1.84819 0
M  V30 9395 C 884.371 1.45369 -0.732914 0
M  V30 9396 O 885.56 1.47122 -1.0108 0
M  V30 9397 C 882.66 2.73645 -1.9993 0
M  V30 9398 C 881.833 2.86376 -3.30617 0
M  V30 9399 C 880.892 4.05165 -3.35749 0
M  V30 9400 O 879.918 3.95756 -4.09104 0
M  V30 9401 N 881.12 5.17297 -2.63408 0
M  V30 9402 H 883.885 1.10557 -2.78563 0
M  V30 9403 H 881.446 0.459566 -1.5524 0
M  V30 9404 H 883.438 3.51411 -2.00729 0
M  V30 9405 H 882.008 2.91448 -1.13035 0
M  V30 9406 H 881.228 1.95465 -3.42326 0
M  V30 9407 H 882.516 2.91815 -4.16799 0
M  V30 9408 H 881.914 5.2783 -2.03501 0
M  V30 9409 H 880.471 5.93281 -2.69927 0
M  V30 9410 N 883.904 1.48273 0.534124 0
M  V30 9411 C 885.129 1.59988 1.31979 0
M  V30 9412 C 885.554 0.258824 1.86311 0
M  V30 9413 O 884.912 -0.768885 1.64188 0
M  V30 9414 C 884.96 2.64642 2.44943 0
M  V30 9415 O 884.064 2.21515 3.47858 0
M  V30 9416 H 883.405 0.536625 0.391063 0
M  V30 9417 H 885.935 1.94229 0.643135 0
M  V30 9418 H 885.945 2.85786 2.91187 0
M  V30 9419 H 884.62 3.62004 2.04758 0
M  V30 9420 H 883.197 2.10567 3.0776 0
M  V30 9421 N 885.382 -0.782676 1.36792 0
M  V30 9422 C 886.628 -1.54311 1.3159 0
M  V30 9423 C 886.961 -1.93928 -0.102696 0
M  V30 9424 O 886.236 -1.63233 -1.05761 0
M  V30 9425 C 886.519 -2.81561 2.24489 0
M  V30 9426 C 886.372 -2.48268 3.75078 0
M  V30 9427 C 887.691 -3.83428 2.16034 0
M  V30 9428 H 884.81 -0.559828 0.479335 0
M  V30 9429 H 887.452 -0.898717 1.67401 0
M  V30 9430 H 885.602 -3.36549 1.9408 0
M  V30 9431 H 887.274 -1.99279 4.16036 0
M  V30 9432 H 885.517 -1.81116 3.94182 0
M  V30 9433 H 886.188 -3.39183 4.35499 0
M  V30 9434 H 888.664 -3.37905 2.42815 0
M  V30 9435 H 887.54 -4.70204 2.83194 0
M  V30 9436 H 887.801 -4.26887 1.14976 0
M  V30 9437 N 886.86 -1.21182 -1.00761 0
M  V30 9438 C 887.79 -0.992773 -2.11344 0
M  V30 9439 C 888.771 0.0813618 -1.69905 0
M  V30 9440 O 889.956 -0.0779503 -1.94043 0
M  V30 9441 C 887.086 -0.553826 -3.42856 0
M  V30 9442 C 886.04 -1.57223 -3.98077 0
M  V30 9443 C 885.366 -0.989605 -5.25463 0
M  V30 9444 C 886.666 -2.95839 -4.30438 0
M  V30 9445 H 888.36 -1.91766 -2.29927 0
M  V30 9446 H 885.906 -0.923426 -1.10494 0
M  V30 9447 H 887.859 -0.387771 -4.19612 0
M  V30 9448 H 886.583 0.406702 -3.24058 0
M  V30 9449 H 885.242 -1.7258 -3.23437 0
M  V30 9450 H 884.89 -0.0208743 -5.02996 0
M  V30 9451 H 884.59 -1.66984 -5.63374 0
M  V30 9452 H 886.114 -0.834815 -6.04866 0
M  V30 9453 H 887.528 -2.8394 -4.98047 0
M  V30 9454 H 885.925 -3.60851 -4.79486 0
M  V30 9455 H 886.995 -3.46882 -3.38823 0
M  V30 9456 N 888.338 1.20213 -1.01915 0
M  V30 9457 C 889.268 2.25336 -0.612023 0
M  V30 9458 C 890.249 1.65933 0.374186 0
M  V30 9459 O 891.434 1.92464 0.259053 0
M  V30 9460 C 888.564 3.47267 0.047904 0
M  V30 9461 C 887.518 4.1928 -0.859557 0
M  V30 9462 C 886.844 5.3466 -0.0652655 0
M  V30 9463 C 888.144 4.75143 -2.1688 0
M  V30 9464 H 889.838 2.59645 -1.49079 0
M  V30 9465 H 887.384 1.24808 -0.718263 0
M  V30 9466 H 889.337 4.19991 0.344294 0
M  V30 9467 H 888.061 3.12129 0.961404 0
M  V30 9468 H 886.72 3.48425 -1.13999 0
M  V30 9469 H 886.368 4.95767 0.849964 0
M  V30 9470 H 886.068 5.83772 -0.669618 0
M  V30 9471 H 887.592 6.10187 0.224612 0
M  V30 9472 H 889.006 5.39672 -1.9346 0
M  V30 9473 H 887.403 5.34702 -2.72422 0
M  V30 9474 H 888.473 3.93744 -2.83008 0
M  V30 9475 N 889.816 0.795718 1.36037 0
M  V30 9476 C 890.749 0.144269 2.27744 0
M  V30 9477 C 891.727 -0.683351 1.47543 0
M  V30 9478 O 892.911 -0.652976 1.76829 0
M  V30 9479 C 890.038 -0.800944 3.29094 0
M  V30 9480 C 889.084 -0.0543234 4.26465 0
M  V30 9481 S 889.917 1.27426 5.20118 0
M  V30 9482 C 891.073 0.333213 6.25012 0
M  V30 9483 H 891.306 0.921827 2.82648 0
M  V30 9484 H 888.839 0.590241 1.42673 0
M  V30 9485 H 890.797 -1.34082 3.87985 0
M  V30 9486 H 889.458 -1.5518 2.7309 0
M  V30 9487 H 888.651 -0.771788 4.98056 0
M  V30 9488 H 888.253 0.415264 3.71687 0
M  V30 9489 H 890.545 -0.485604 6.75757 0
M  V30 9490 H 891.488 1.01798 7.00744 0
M  V30 9491 H 891.896 -0.066256 5.64461 0
M  V30 9492 N 891.294 -1.47756 0.548274 0
M  V30 9493 C 892.241 -2.29893 -0.204408 0
M  V30 9494 C 893.211 -1.38509 -0.916761 0
M  V30 9495 O 894.396 -1.67472 -0.91421 0
M  V30 9496 C 891.536 -3.22282 -1.23403 0
M  V30 9497 C 890.649 -4.28753 -0.528654 0
M  V30 9498 C 889.784 -5.08303 -1.54279 0
M  V30 9499 C 888.823 -6.06557 -0.821893 0
M  V30 9500 N 887.96 -6.79098 -1.78243 0
M  V30 9501 H 892.8 -2.93739 0.502163 0
M  V30 9502 H 890.337 -1.44793 0.259471 0
M  V30 9503 H 892.295 -3.74262 -1.84348 0
M  V30 9504 H 890.925 -2.6032 -1.90875 0
M  V30 9505 H 889.977 -3.79899 0.195132 0
M  V30 9506 H 891.289 -4.98787 0.0365066 0
M  V30 9507 H 890.443 -5.64388 -2.22602 0
M  V30 9508 H 889.182 -4.3815 -2.14186 0
M  V30 9509 H 888.187 -5.49659 -0.12469 0
M  V30 9510 H 889.412 -6.78715 -0.228685 0
M  V30 9511 H 887.358 -6.11682 -2.37025 0
M  V30 9512 H 887.275 -7.4527 -1.26919 0
M  V30 9513 H 888.543 -7.39762 -2.45709 0
M  V30 9514 N 892.772 -0.284283 -1.55015 0
M  V30 9515 C 894.183 0.211681 -1.85496 0
M  V30 9516 C 894.534 1.54735 -1.2063 0
M  V30 9517 O 893.659 2.10594 -0.497918 0
M  V30 9518 C 894.254 0.390864 -3.36538 0
M  V30 9519 C 892.813 0.831055 -3.67111 0
M  V30 9520 C 891.96 -0.0703581 -2.77211 0
M  V30 9521 H 894.911 -0.505803 -1.50424 0
M  V30 9522 H 894.932 1.22803 -3.60138 0
M  V30 9523 H 894.444 -0.581409 -3.8372 0
M  V30 9524 H 892.545 1.81447 -3.25434 0
M  V30 9525 H 892.658 0.662026 -4.74504 0
M  V30 9526 H 891.022 0.447528 -2.50737 0
M  V30 9527 H 891.805 -1.03868 -3.2721 0
M  V30 9528 N 894.251 1.57596 -0.0117121 0
M  V30 9529 C 895.161 2.12596 0.991964 0
M  V30 9530 C 896.177 1.07399 1.36899 0
M  V30 9531 O 897.353 1.39365 1.45394 0
M  V30 9532 C 894.418 2.62796 2.2614 0
M  V30 9533 C 893.479 3.8264 1.94642 0
M  V30 9534 C 892.712 4.30435 3.15533 0
M  V30 9535 O 892.935 3.77495 4.27614 0
M  V30 9536 O 891.869 5.22469 2.98847 0
M  V30 9537 H 895.695 2.98597 0.554371 0
M  V30 9538 H 893.28 1.47947 0.207839 0
M  V30 9539 H 895.162 2.9523 3.00695 0
M  V30 9540 H 893.837 1.79886 2.69114 0
M  V30 9541 H 892.744 3.5516 1.17526 0
M  V30 9542 H 894.077 4.66658 1.56496 0
M  V30 9543 N 895.729 -0.261212 1.5542 0
M  V30 9544 C 896.692 -1.30645 1.8832 0
M  V30 9545 C 897.692 -1.41782 0.758588 0
M  V30 9546 O 898.882 -1.40729 1.02669 0
M  V30 9547 C 896.014 -2.6862 2.09895 0
M  V30 9548 H 897.207 -1.02698 2.81768 0
M  V30 9549 H 894.76 -0.499838 1.48092 0
M  V30 9550 H 895.495 -3.0173 1.18868 0
M  V30 9551 H 895.28 -2.61921 2.91787 0
M  V30 9552 H 896.77 -3.44121 2.36581 0
M  V30 9553 N 897.207 -1.48554 -0.526253 0
M  V30 9554 C 898.117 -1.66044 -1.65731 0
M  V30 9555 C 899.133 -0.542951 -1.65312 0
M  V30 9556 O 900.309 -0.814495 -1.84195 0
M  V30 9557 C 897.374 -1.69959 -3.02184 0
M  V30 9558 C 896.435 -2.93362 -3.13428 0
M  V30 9559 C 895.668 -2.97081 -4.43372 0
M  V30 9560 O 895.891 -2.09103 -5.3069 0
M  V30 9561 O 894.825 -3.8929 -4.59061 0
M  V30 9562 H 898.651 -2.61811 -1.53912 0
M  V30 9563 H 896.236 -1.31999 -0.699759 0
M  V30 9564 H 898.118 -1.75033 -3.83329 0
M  V30 9565 H 896.793 -0.773658 -3.14319 0
M  V30 9566 H 895.7 -2.93818 -2.31564 0
M  V30 9567 H 897.033 -3.85352 -3.06211 0
M  V30 9568 N 898.685 0.775411 -1.37205 0
M  V30 9569 C 899.615 1.90258 -1.35367 0
M  V30 9570 C 900.596 1.68634 -0.222864 0
M  V30 9571 O 901.781 1.89545 -0.422659 0
M  V30 9572 C 898.911 3.27488 -1.15623 0
M  V30 9573 C 897.865 3.63668 -2.25676 0
M  V30 9574 C 897.191 4.994 -1.91059 0
M  V30 9575 C 898.491 3.70797 -3.67841 0
M  V30 9576 H 900.185 1.92053 -2.29687 0
M  V30 9577 H 897.731 0.922597 -1.10563 0
M  V30 9578 H 899.684 4.05976 -1.12968 0
M  V30 9579 H 898.408 3.26117 -0.177573 0
M  V30 9580 H 897.067 2.87486 -2.2748 0
M  V30 9581 H 896.715 4.94565 -0.917324 0
M  V30 9582 H 896.415 5.24576 -2.64751 0
M  V30 9583 H 897.939 5.80291 -1.89985 0
M  V30 9584 H 899.353 4.39444 -3.68187 0
M  V30 9585 H 897.75 4.07468 -4.40556 0
M  V30 9586 H 898.82 2.71549 -4.01732 0
M  V30 9587 N 900.163 1.21714 1.00117 0
M  V30 9588 C 901.388 1.06357 1.78054 0
M  V30 9589 C 901.813 -0.382075 1.84179 0
M  V30 9590 O 901.171 -1.27575 1.28819 0
M  V30 9591 C 901.219 1.66982 3.19608 0
M  V30 9592 O 900.323 0.917892 4.02055 0
M  V30 9593 H 899.664 0.374074 0.548602 0
M  V30 9594 H 902.194 1.61338 1.25822 0
M  V30 9595 H 902.204 1.71363 3.70268 0
M  V30 9596 H 900.879 2.72185 3.14465 0
M  V30 9597 H 899.456 0.949473 3.6061 0
M  V30 9598 N 901.641 -1.19671 1.02551 0
M  V30 9599 C 902.887 -1.89548 0.721069 0
M  V30 9600 C 903.22 -1.79209 -0.748176 0
M  V30 9601 O 902.495 -1.1822 -1.54448 0
M  V30 9602 C 902.778 -3.4061 1.16861 0
M  V30 9603 C 902.631 -3.59838 2.69883 0
M  V30 9604 C 903.95 -4.33718 0.746782 0
M  V30 9605 H 901.069 -0.688315 0.263422 0
M  V30 9606 H 903.711 -1.40883 1.27483 0
M  V30 9607 H 901.861 -3.82188 0.697477 0
M  V30 9608 H 903.533 -3.27454 3.24917 0
M  V30 9609 H 901.776 -3.03005 3.10435 0
M  V30 9610 H 902.447 -4.65766 2.96253 0
M  V30 9611 H 904.923 -3.99837 1.15195 0
M  V30 9612 H 903.799 -5.38012 1.08786 0
M  V30 9613 H 904.06 -4.40704 -0.351057 0
M  V30 9614 N 903.119 -0.802921 -1.35613 0
M  V30 9615 C 904.344 -0.392846 -2.03645 0
M  V30 9616 C 904.769 0.987075 -1.6012 0
M  V30 9617 O 904.127 1.63849 -0.776101 0
M  V30 9618 C 904.175 -0.480208 -3.57388 0
M  V30 9619 O 903.279 0.507751 -4.09262 0
M  V30 9620 H 902.62 -0.16464 -0.643265 0
M  V30 9621 H 905.15 -1.08779 -1.73287 0
M  V30 9622 H 905.16 -0.348683 -4.06507 0
M  V30 9623 H 903.835 -1.48675 -3.88418 0
M  V30 9624 H 902.412 0.336769 -3.71376 0
M  V30 9625 N 904.597 1.47463 -0.556102 0
M  V30 9626 C 905.822 2.07371 -0.0344729 0
M  V30 9627 C 906.247 1.40621 1.2493 0
M  V30 9628 O 905.605 0.48082 1.74808 0
M  V30 9629 C 905.653 3.60306 0.145563 0
M  V30 9630 O 904.757 3.94299 1.20839 0
M  V30 9631 H 904.098 0.662052 -0.0508274 0
M  V30 9632 H 906.628 1.89498 -0.771469 0
M  V30 9633 H 906.638 4.06408 0.360112 0
M  V30 9634 H 905.313 4.08288 -0.792089 0
M  V30 9635 H 903.89 3.59944 0.97442 0
M  V30 9636 N 906.075 0.2925 1.54862 0
M  V30 9637 C 907.321 -0.319736 2.00264 0
M  V30 9638 C 907.654 -1.5419 1.18064 0
M  V30 9639 O 906.929 -1.92821 0.254983 0
M  V30 9640 C 907.212 -0.684753 3.5353 0
M  V30 9641 C 907.065 0.545961 4.46474 0
M  V30 9642 C 908.384 -1.51456 4.13218 0
M  V30 9643 H 905.503 -0.11474 0.728014 0
M  V30 9644 H 908.145 0.402907 1.85679 0
M  V30 9645 H 906.295 -1.30044 3.66089 0
M  V30 9646 H 907.967 1.18448 4.45834 0
M  V30 9647 H 906.21 1.1808 4.1742 0
M  V30 9648 H 906.881 0.246544 5.51449 0
M  V30 9649 H 909.357 -0.994421 4.04043 0
M  V30 9650 H 908.233 -1.73875 5.20633 0
M  V30 9651 H 908.494 -2.5011 3.64551 0
M  V30 9652 N 907.553 -1.57587 0.0200696 0
M  V30 9653 C 908.783 -1.95435 -0.669991 0
M  V30 9654 C 909.191 -0.894647 -1.66711 0
M  V30 9655 O 908.534 0.133009 -1.83218 0
M  V30 9656 C 908.596 -3.29379 -1.44047 0
M  V30 9657 C 908.26 -4.53008 -0.602691 0
M  V30 9658 C 909.257 -5.19766 0.118188 0
M  V30 9659 C 906.942 -4.99359 -0.542754 0
M  V30 9660 C 908.936 -6.31187 0.887774 0
M  V30 9661 C 906.623 -6.10665 0.230543 0
M  V30 9662 C 907.621 -6.76438 0.944522 0
M  V30 9663 O 907.309 -7.85608 1.70516 0
M  V30 9664 H 907.041 -0.648681 -0.190234 0
M  V30 9665 H 909.595 -2.05269 0.0733838 0
M  V30 9666 H 907.825 -3.1601 -2.22878 0
M  V30 9667 H 909.514 -3.52194 -2.01777 0
M  V30 9668 H 910.28 -4.84932 0.0811604 0
M  V30 9669 H 906.159 -4.47976 -1.08804 0
M  V30 9670 H 909.703 -6.82458 1.44558 0
M  V30 9671 H 905.6 -6.44938 0.26932 0
M  V30 9672 H 906.368 -8.02228 1.62398 0
M  V30 9673 N 909.032 0.252966 -1.55557 0
M  V30 9674 C 909.98 1.33289 -1.90622 0
M  V30 9675 C 910.974 1.50133 -0.784638 0
M  V30 9676 O 912.18 1.51679 -0.969196 0
M  V30 9677 H 908.555 0.446196 -0.605321 0
M  V30 9678 H 910.526 1.00977 -2.80796 0
M  V30 9679 C 909.275 2.68254 -2.21213 0
M  V30 9680 H 908.598 2.5609 -3.07014 0
M  V30 9681 H 910.038 3.42707 -2.49656 0
M  V30 9682 C 908.497 3.20884 -1.02642 0
M  V30 9683 O 909.027 4.00783 -0.271292 0
M  V30 9684 N 907.233 2.7883 -0.818682 0
M  V30 9685 H 906.78 2.13966 -1.43444 0
M  V30 9686 H 906.738 3.14388 -0.0269989 0
M  V30 9687 N 910.51 1.48831 0.518367 0
M  V30 9688 C 911.44 1.67119 1.63075 0
M  V30 9689 C 912.421 0.519948 1.61958 0
M  V30 9690 O 913.606 0.753824 1.78972 0
M  V30 9691 C 910.736 1.72158 3.01627 0
M  V30 9692 C 909.69 2.86898 3.17606 0
M  V30 9693 C 909.016 2.77035 4.57335 0
M  V30 9694 C 910.316 4.28057 2.99274 0
M  V30 9695 H 912.01 2.60248 1.48025 0
M  V30 9696 H 909.556 1.2524 0.710694 0
M  V30 9697 H 911.509 1.83539 3.7933 0
M  V30 9698 H 910.233 0.756157 3.17726 0
M  V30 9699 H 908.892 2.75091 2.42323 0
M  V30 9700 H 908.54 1.78438 4.70286 0
M  V30 9701 H 908.24 3.54036 4.6897 0
M  V30 9702 H 909.764 2.904 5.37122 0
M  V30 9703 H 911.178 4.40636 3.6676 0
M  V30 9704 H 909.575 5.06145 3.22393 0
M  V30 9705 H 910.645 4.4371 1.95574 0
M  V30 9706 N 911.988 -0.768124 1.37614 0
M  V30 9707 C 912.918 -1.89537 1.36374 0
M  V30 9708 C 913.899 -1.68513 0.231803 0
M  V30 9709 O 915.084 -1.89318 0.432705 0
M  V30 9710 C 912.214 -3.26871 1.17358 0
M  V30 9711 C 911.168 -3.62466 2.27602 0
M  V30 9712 C 910.494 -4.9838 1.93705 0
M  V30 9713 C 911.794 -3.68841 3.69802 0
M  V30 9714 H 913.488 -1.90832 2.30702 0
M  V30 9715 H 911.034 -0.91672 1.11051 0
M  V30 9716 H 912.987 -4.05371 1.15119 0
M  V30 9717 H 911.711 -3.26018 0.194865 0
M  V30 9718 H 910.37 -2.86276 2.29002 0
M  V30 9719 H 910.018 -4.94071 0.943539 0
M  V30 9720 H 909.718 -5.23165 2.6753 0
M  V30 9721 H 911.242 -5.79276 1.93059 0
M  V30 9722 H 912.656 -4.37485 3.70513 0
M  V30 9723 H 911.053 -4.05126 4.42711 0
M  V30 9724 H 912.123 -2.69415 4.03167 0
M  V30 9725 N 913.466 -1.22244 -0.994698 0
M  V30 9726 C 914.694 -1.07218 -1.76952 0
M  V30 9727 C 915.109 0.377388 -1.8499 0
M  V30 9728 O 914.466 1.26157 -1.31874 0
M  V30 9729 C 914.517 -1.67496 -3.20355 0
M  V30 9730 O 914.238 -3.06782 -3.12756 0
M  V30 9731 C 915.739 -1.57721 -4.14294 0
M  V30 9732 H 912.959 -0.375966 -0.555779 0
M  V30 9733 H 915.503 -1.61799 -1.25065 0
M  V30 9734 H 913.658 -1.16982 -3.69315 0
M  V30 9735 H 914.072 -3.35784 -4.02926 0
M  V30 9736 H 915.546 -2.04623 -5.12673 0
M  V30 9737 H 916.023 -0.533434 -4.35949 0
M  V30 9738 H 916.629 -2.07531 -3.71229 0
M  V30 9739 N 914.944 1.19125 -1.03184 0
M  V30 9740 C 916.19 1.89163 -0.731111 0
M  V30 9741 C 916.523 1.79604 0.738662 0
M  V30 9742 O 915.798 1.19037 1.53819 0
M  V30 9743 C 916.081 3.39986 -1.18666 0
M  V30 9744 C 915.934 3.58401 -2.71788 0
M  V30 9745 C 917.253 4.33316 -0.769772 0
M  V30 9746 H 914.372 0.686908 -0.267069 0
M  V30 9747 H 917.014 1.40205 -1.28229 0
M  V30 9748 H 915.164 3.81813 -0.717736 0
M  V30 9749 H 916.836 3.25727 -3.26649 0
M  V30 9750 H 915.079 3.01355 -3.12038 0
M  V30 9751 H 915.75 4.64189 -2.98719 0
M  V30 9752 H 918.226 3.9922 -1.17314 0
M  V30 9753 H 917.102 5.37427 -1.11637 0
M  V30 9754 H 917.363 4.40884 0.327681 0
M  V30 9755 N 916.422 0.810101 1.35185 0
M  V30 9756 C 917.369 0.220927 2.2974 0
M  V30 9757 C 918.339 -0.647024 1.5298 0
M  V30 9758 O 919.524 -0.591367 1.81404 0
M  V30 9759 C 916.664 -0.62167 3.39454 0
M  V30 9760 C 915.777 0.267104 4.31173 0
M  V30 9761 C 914.912 -0.583833 5.27982 0
M  V30 9762 C 913.951 0.305123 6.11339 0
M  V30 9763 N 913.088 -0.505992 7.00274 0
M  V30 9764 H 917.928 1.03266 2.79536 0
M  V30 9765 H 915.465 0.520768 1.37573 0
M  V30 9766 H 917.423 -1.12539 4.01735 0
M  V30 9767 H 916.053 -1.39863 2.90926 0
M  V30 9768 H 915.105 0.88895 3.69867 0
M  V30 9769 H 916.417 0.951182 4.89647 0
M  V30 9770 H 915.571 -1.15254 5.95652 0
M  V30 9771 H 914.31 -1.30146 4.70014 0
M  V30 9772 H 913.315 0.886075 5.42613 0
M  V30 9773 H 914.54 1.02067 6.71386 0
M  V30 9774 H 912.486 -1.20753 6.4479 0
M  V30 9775 H 912.403 0.119966 7.55905 0
M  V30 9776 H 913.671 -1.05787 7.72288 0
M  V30 9777 N 917.9 -1.47166 0.563914 0
M  V30 9778 C 919.177 -1.95586 -0.0236172 0
M  V30 9779 C 919.557 -1.50655 -1.47872 0
M  V30 9780 O 918.905 -0.748479 -2.15894 0
M  V30 9781 C 919.115 -3.48762 0.128841 0
M  V30 9782 C 920.463 -4.24598 -0.0130544 0
M  V30 9783 O 921.487 -3.56155 0.0567242 0
M  V30 9784 O 920.346 -5.46253 -0.164332 0
M  V30 9785 H 917.44 -0.824793 -0.0603789 0
M  V30 9786 H 919.986 -1.57536 0.63091 0
M  V30 9787 H 918.758 -3.74291 1.14113 0
M  V30 9788 H 918.381 -3.93594 -0.56299 0
M  V30 9789 N 919.378 -0.300708 -1.54705 0
M  V30 9790 C 920.308 0.568675 -2.26469 0
M  V30 9791 C 921.289 1.13817 -1.26411 0
M  V30 9792 O 922.474 1.16756 -1.55183 0
M  V30 9793 C 919.604 1.74077 -3.00524 0
M  V30 9794 C 918.558 1.30165 -4.07727 0
M  V30 9795 C 917.884 2.55888 -4.69495 0
M  V30 9796 C 919.184 0.433106 -5.20501 0
M  V30 9797 H 920.878 -0.0298851 -2.99385 0
M  V30 9798 H 918.424 -0.0158135 -1.43991 0
M  V30 9799 H 920.377 2.35506 -3.49449 0
M  V30 9800 H 919.101 2.36556 -2.25186 0
M  V30 9801 H 917.76 0.710414 -3.59651 0
M  V30 9802 H 917.408 3.16681 -3.90797 0
M  V30 9803 H 917.108 2.27207 -5.41895 0
M  V30 9804 H 918.632 3.18121 -5.21183 0
M  V30 9805 H 920.046 0.95307 -5.65322 0
M  V30 9806 H 918.443 0.240085 -5.9962 0
M  V30 9807 H 919.513 -0.541866 -4.81863 0
M  V30 9808 N 920.856 1.57574 -0.0284266 0
M  V30 9809 C 922.084 1.96071 0.660575 0
M  V30 9810 C 922.499 0.904881 1.65703 0
M  V30 9811 O 921.856 -0.113379 1.82147 0
M  V30 9812 C 921.907 3.34634 1.36756 0
M  V30 9813 O 921.628 4.36167 0.411041 0
M  V30 9814 C 923.129 3.87758 2.14845 0
M  V30 9815 H 920.349 0.645794 0.182183 0
M  V30 9816 H 922.893 2.04311 -0.0879858 0
M  V30 9817 H 921.048 3.27616 2.06753 0
M  V30 9818 H 921.462 5.16493 0.913 0
M  V30 9819 H 922.936 4.87058 2.59767 0
M  V30 9820 H 923.413 3.21967 2.9872 0
M  V30 9821 H 924.019 3.98043 1.49807 0
M  V30 9822 N 922.334 -0.244713 1.55689 0
M  V30 9823 C 923.282 -1.32276 1.91326 0
M  V30 9824 C 924.276 -1.49714 0.792589 0
M  V30 9825 O 925.482 -1.51163 0.977227 0
M  V30 9826 H 921.857 -0.442979 0.607679 0
M  V30 9827 H 923.828 -0.99486 2.81327 0
M  V30 9828 C 922.577 -2.67077 2.22633 0
M  V30 9829 H 921.9 -2.54458 3.08368 0
M  V30 9830 H 923.34 -3.41378 2.5147 0
M  V30 9831 C 921.799 -3.20335 1.04342 0
M  V30 9832 O 922.329 -4.00633 0.292543 0
M  V30 9833 N 920.535 -2.78392 0.833457 0
M  V30 9834 H 920.082 -2.13202 1.44577 0
M  V30 9835 H 920.04 -3.1437 0.0436713 0
M  V30 9836 N 923.813 -1.49104 -0.510467 0
M  V30 9837 C 925.06 -1.58112 -1.26518 0
M  V30 9838 C 925.388 -0.263603 -1.92705 0
M  V30 9839 O 924.643 0.747743 -1.80852 0
M  V30 9840 C 924.942 -2.68259 -2.36161 0
M  V30 9841 C 924.608 -4.10069 -1.87495 0
M  V30 9842 C 923.27 -4.48662 -1.73942 0
M  V30 9843 C 925.622 -4.98859 -1.5096 0
M  V30 9844 C 922.95 -5.73829 -1.22217 0
M  V30 9845 C 925.302 -6.24535 -1.00691 0
M  V30 9846 C 923.966 -6.61967 -0.857691 0
M  V30 9847 H 923.236 -0.578574 -0.462962 0
M  V30 9848 H 925.883 -1.82899 -0.567475 0
M  V30 9849 H 924.188 -2.37407 -3.11681 0
M  V30 9850 H 925.885 -2.7244 -2.9424 0
M  V30 9851 H 922.475 -3.79601 -1.99001 0
M  V30 9852 H 926.659 -4.69706 -1.60282 0
M  V30 9853 H 921.915 -6.01539 -1.09368 0
M  V30 9854 H 926.089 -6.9272 -0.71498 0
M  V30 9855 H 923.716 -7.58839 -0.454702 0
M  V30 9856 N 925.291 0.760815 -1.38019 0
M  V30 9857 C 926.702 1.33773 -1.30237 0
M  V30 9858 C 927.053 1.96148 0.0451153 0
M  V30 9859 O 926.178 1.94574 0.9471 0
M  V30 9860 C 926.773 2.43227 -2.35851 0
M  V30 9861 C 925.332 2.96659 -2.31669 0
M  V30 9862 C 924.479 1.69972 -2.191 0
M  V30 9863 H 927.43 0.560237 -1.48482 0
M  V30 9864 H 927.451 3.22985 -2.01149 0
M  V30 9865 H 926.963 1.978 -3.33911 0
M  V30 9866 H 925.064 3.46433 -1.37167 0
M  V30 9867 H 925.177 3.51529 -3.25521 0
M  V30 9868 H 923.541 1.9332 -1.65829 0
M  V30 9869 H 924.324 1.26633 -3.19091 0
M  V30 9870 N 926.769 1.22769 0.988202 0
M  V30 9871 C 928.046 0.9635 1.70223 0
M  V30 9872 C 928.426 -0.520102 2.04593 0
M  V30 9873 O 927.774 -1.48934 1.73295 0
M  V30 9874 C 927.984 1.86583 2.94937 0
M  V30 9875 C 929.332 2.12469 3.67616 0
M  V30 9876 O 930.356 1.84069 3.04954 0
M  V30 9877 O 929.215 2.60595 4.80367 0
M  V30 9878 H 926.309 0.362737 0.743203 0
M  V30 9879 H 928.855 1.33776 1.04412 0
M  V30 9880 H 927.627 2.86913 2.66077 0
M  V30 9881 H 927.25 1.49344 3.68486 0
M  V30 9882 N 928.247 -1.18576 1.03814 0
M  V30 9883 C 929.195 -2.24166 0.620678 0
M  V30 9884 C 930.189 -1.65718 -0.351282 0
M  V30 9885 O 931.395 -1.78665 -0.218848 0
M  V30 9886 H 927.77 -0.729522 0.182487 0
M  V30 9887 H 929.741 -2.56686 1.52166 0
M  V30 9888 C 928.49 -3.477 -0.00307331 0
M  V30 9889 H 927.813 -3.92969 0.735874 0
M  V30 9890 H 929.253 -4.23214 -0.257988 0
M  V30 9891 C 927.712 -3.12757 -1.2524 0
M  V30 9892 O 928.242 -3.26261 -2.34344 0
M  V30 9893 N 926.448 -2.67104 -1.14471 0
M  V30 9894 H 925.995 -2.56316 -0.256873 0
M  V30 9895 H 925.953 -2.44096 -1.98153 0
M  V30 9896 N 929.725 -0.817259 -1.34754 0
M  V30 9897 C 930.971 -0.403244 -1.98751 0
M  V30 9898 C 931.304 1.02963 -1.64658 0
M  V30 9899 O 930.579 1.71617 -0.915314 0
M  V30 9900 C 930.862 -0.599188 -3.5508 0
M  V30 9901 C 930.715 -2.07777 -3.98934 0
M  V30 9902 C 932.034 -0.0315656 -4.40089 0
M  V30 9903 H 929.153 -0.147988 -0.721989 0
M  V30 9904 H 931.795 -1.02877 -1.59738 0
M  V30 9905 H 929.945 -0.0667116 -3.88443 0
M  V30 9906 H 931.617 -2.67345 -3.75931 0
M  V30 9907 H 929.86 -2.57031 -3.49453 0
M  V30 9908 H 930.531 -2.16571 -5.07741 0
M  V30 9909 H 933.007 -0.48644 -4.13247 0
M  V30 9910 H 931.883 -0.198507 -5.48541 0
M  V30 9911 H 932.144 1.06302 -4.2913 0
M  V30 9912 N 931.203 1.46865 -0.571711 0
M  V30 9913 C 932.48 1.95596 0.0132445 0
M  V30 9914 C 932.86 1.51438 1.47071 0
M  V30 9915 O 932.208 0.759917 2.15494 0
M  V30 9916 C 932.418 3.48689 -0.147335 0
M  V30 9917 C 933.766 4.24599 -0.00946329 0
M  V30 9918 O 934.79 3.5612 -0.0756112 0
M  V30 9919 O 933.649 5.46332 0.135361 0
M  V30 9920 H 930.743 0.825102 0.0560039 0
M  V30 9921 H 933.289 1.57199 -0.639256 0
M  V30 9922 H 932.061 3.73681 -1.16096 0
M  V30 9923 H 931.684 3.93887 0.542109 0
M  V30 9924 N 932.681 0.308908 1.54543 0
M  V30 9925 C 933.613 -0.597453 2.21276 0
M  V30 9926 C 934.626 -1.09137 1.20801 0
M  V30 9927 O 935.815 -1.00747 1.47351 0
M  V30 9928 C 932.915 -1.83085 2.85189 0
M  V30 9929 C 932.088 -1.4781 4.11669 0
M  V30 9930 C 931.147 -2.56748 4.59311 0
M  V30 9931 O 930.173 -2.21507 5.24331 0
M  V30 9932 N 931.375 -3.87427 4.32297 0
M  V30 9933 H 934.14 -0.0261183 2.99689 0
M  V30 9934 H 931.701 0.131456 1.61365 0
M  V30 9935 H 933.693 -2.55326 3.13992 0
M  V30 9936 H 932.263 -2.31039 2.1057 0
M  V30 9937 H 931.483 -0.587974 3.8979 0
M  V30 9938 H 932.771 -1.2179 4.94009 0
M  V30 9939 H 932.169 -4.18863 3.80224 0
M  V30 9940 H 930.726 -4.55942 4.6579 0
M  V30 9941 N 934.159 -1.57557 0.0367827 0
M  V30 9942 C 935.091 -2.07597 -0.971395 0
M  V30 9943 C 936.104 -1.0009 -1.28397 0
M  V30 9944 O 937.293 -1.27692 -1.24728 0
M  V30 9945 C 934.393 -2.492 -2.2968 0
M  V30 9946 C 933.566 -3.79875 -2.16826 0
M  V30 9947 C 932.625 -4.07946 -3.32366 0
M  V30 9948 O 931.651 -4.78083 -3.0891 0
M  V30 9949 N 932.853 -3.58722 -4.56397 0
M  V30 9950 H 935.618 -2.94714 -0.544389 0
M  V30 9951 H 933.179 -1.61205 -0.1498 0
M  V30 9952 H 935.171 -2.65065 -3.05815 0
M  V30 9953 H 933.741 -1.67407 -2.63995 0
M  V30 9954 H 932.961 -3.73732 -1.2537 0
M  V30 9955 H 934.249 -4.65476 -2.0545 0
M  V30 9956 H 933.647 -3.01994 -4.78347 0
M  V30 9957 H 932.204 -3.79852 -5.29675 0
M  V30 9958 N 935.637 0.236453 -1.55816 0
M  V30 9959 C 936.547 1.31418 -1.94336 0
M  V30 9960 C 937.563 1.52095 -0.845164 0
M  V30 9961 O 938.739 1.65515 -1.14746 0
M  V30 9962 C 935.804 2.6468 -2.23932 0
M  V30 9963 C 934.865 2.52435 -3.47239 0
M  V30 9964 C 934.098 3.79342 -3.75414 0
M  V30 9965 O 934.321 4.81694 -3.05495 0
M  V30 9966 O 933.255 3.77347 -4.68927 0
M  V30 9967 H 937.081 1.01739 -2.86152 0
M  V30 9968 H 934.666 0.438084 -1.42833 0
M  V30 9969 H 936.548 3.4341 -2.44228 0
M  V30 9970 H 935.223 2.94071 -1.35292 0
M  V30 9971 H 934.13 1.71955 -3.32238 0
M  V30 9972 H 935.463 2.27987 -4.36214 0
M  V30 9973 N 937.115 1.49373 0.502552 0
M  V30 9974 C 938.025 1.68659 1.63068 0
M  V30 9975 C 939.041 0.569182 1.64427 0
M  V30 9976 O 940.217 0.843695 1.82876 0
M  V30 9977 C 937.282 1.74745 2.99441 0
M  V30 9978 C 936.343 2.98311 3.08721 0
M  V30 9979 C 935.576 3.04097 4.38589 0
M  V30 9980 O 935.799 2.17519 5.27297 0
M  V30 9981 O 934.733 3.96544 4.52809 0
M  V30 9982 H 938.559 2.64226 1.49727 0
M  V30 9983 H 936.144 1.33096 0.67867 0
M  V30 9984 H 938.026 1.8111 3.80496 0
M  V30 9985 H 936.701 0.823565 3.13048 0
M  V30 9986 H 935.608 2.97465 2.2686 0
M  V30 9987 H 936.941 3.90174 3.00041 0
M  V30 9988 N 938.594 -0.753485 1.38421 0
M  V30 9989 C 939.504 -1.89797 1.37892 0
M  V30 9990 C 940.52 -1.71797 0.276023 0
M  V30 9991 O 941.696 -1.94718 0.514464 0
M  V30 9992 C 938.761 -3.25166 1.20284 0
M  V30 9993 C 937.822 -3.55691 2.4038 0
M  V30 9994 C 937.055 -4.84601 2.23602 0
M  V30 9995 O 937.278 -5.56985 1.22979 0
M  V30 9996 O 936.212 -5.14605 3.12194 0
M  V30 9997 H 940.038 -1.93197 2.34326 0
M  V30 9998 H 937.623 -0.898775 1.19342 0
M  V30 9999 H 939.505 -4.06099 1.12525 0
M  V30 10000 H 938.18 -3.22577 0.269352 0
M  V30 10001 H 937.087 -2.74919 2.53714 0
M  V30 10002 H 938.42 -3.6304 3.32359 0
M  V30 10003 N 940.072 -1.23292 -0.981677 0
M  V30 10004 C 941.004 -0.970782 -2.07626 0
M  V30 10005 C 942.017 0.0547506 -1.62708 0
M  V30 10006 O 943.206 -0.180623 -1.77584 0
M  V30 10007 C 940.306 -0.44055 -3.36024 0
M  V30 10008 C 939.479 -1.52595 -4.09919 0
M  V30 10009 C 938.538 -1.00082 -5.16595 0
M  V30 10010 O 937.564 -1.68951 -5.43548 0
M  V30 10011 N 938.766 0.172017 -5.80245 0
M  V30 10012 H 941.531 -1.91316 -2.30691 0
M  V30 10013 H 939.092 -1.14133 -1.14828 0
M  V30 10014 H 941.084 -0.0743111 -4.04632 0
M  V30 10015 H 939.654 0.407211 -3.09936 0
M  V30 10016 H 938.874 -2.06501 -3.35784 0
M  V30 10017 H 940.162 -2.2559 -4.56055 0
M  V30 10018 H 939.56 0.748129 -5.60731 0
M  V30 10019 H 938.117 0.479532 -6.50034 0
M  V30 10020 N 941.55 1.18024 -1.04442 0
M  V30 10021 C 942.798 1.87727 -0.74854 0
M  V30 10022 C 943.119 1.80975 0.726156 0
M  V30 10023 O 942.389 1.23061 1.52423 0
M  V30 10024 H 940.969 0.694974 -0.273897 0
M  V30 10025 H 943.631 1.43213 -1.32197 0
M  V30 10026 H 942.727 2.93665 -1.05674 0
M  V30 10027 N 943.028 0.824394 1.34319 0
M  V30 10028 C 943.978 0.219624 2.2694 0
M  V30 10029 C 944.962 -0.616964 1.48601 0
M  V30 10030 O 946.154 -0.471303 1.7061 0
M  V30 10031 C 943.283 -0.616379 3.37721 0
M  V30 10032 C 942.369 0.230917 4.23471 0
M  V30 10033 N 942.76 1.30264 4.88738 0
M  V30 10034 C 941.058 0.0155016 4.45997 0
M  V30 10035 C 941.759 1.82141 5.52449 0
M  V30 10036 N 940.735 1.12508 5.3183 0
M  V30 10037 H 944.537 1.03939 2.74907 0
M  V30 10038 H 942.051 0.667353 1.48055 0
M  V30 10039 H 944.048 -1.06582 4.03046 0
M  V30 10040 H 942.708 -1.43429 2.91304 0
M  V30 10041 H 943.719 1.68545 4.89707 0
M  V30 10042 H 940.396 -0.770128 4.10336 0
M  V30 10043 H 941.786 2.7181 6.14466 0
M  V30 10044 N 944.506 -1.46559 0.579492 0
M  V30 10045 C 945.746 -2.04292 0.0664837 0
M  V30 10046 C 946.11 -1.44161 -1.26814 0
M  V30 10047 O 947.311 -1.93074 -1.87018 0
M  V30 10048 C 945.582 -3.574 -0.00167254 0
M  V30 10049 S 947.141 -4.36408 -0.457572 0
M  V30 10050 H 943.959 -0.710092 0.035913 0
M  V30 10051 H 946.561 -1.79644 0.771263 0
M  V30 10052 H 945.265 -3.98683 0.973666 0
M  V30 10053 H 944.796 -3.8658 -0.729321 0
M  V30 10054 H 946.811 -4.65695 -1.71296 0
M  V30 10055 N 945.984 -0.3171 -1.54377 0
M  V30 10056 C 947.395 0.172287 -1.85903 0
M  V30 10057 C 947.746 1.52141 -1.23885 0
M  V30 10058 O 946.871 2.0949 -0.542476 0
M  V30 10059 C 947.466 0.319392 -3.37291 0
M  V30 10060 C 946.025 0.752998 -3.68791 0
M  V30 10061 C 945.172 -0.129143 -2.76999 0
M  V30 10062 H 948.123 -0.537597 -1.49317 0
M  V30 10063 H 948.144 1.15137 -3.62662 0
M  V30 10064 H 947.656 -0.662671 -3.82401 0
M  V30 10065 H 945.757 1.74504 -3.2921 0
M  V30 10066 H 945.87 0.561228 -4.75801 0
M  V30 10067 H 944.234 0.394242 -2.5163 0
M  V30 10068 H 945.017 -1.10785 -3.24933 0
M  V30 10069 N 947.462 1.57535 -0.0451378 0
M  V30 10070 C 948.878 1.56533 0.311373 0
M  V30 10071 C 949.078 1.05225 1.71843 0
M  V30 10072 O 948.134 0.706144 2.42425 0
M  V30 10073 C 949.447 3.00349 0.145348 0
M  V30 10074 C 950.995 3.12248 0.216908 0
M  V30 10075 C 951.47 4.57931 0.0794834 0
M  V30 10076 N 952.961 4.63 0.135954 0
M  V30 10077 C 953.696 5.73375 0.0536426 0
M  V30 10078 N 953.192 6.92753 -0.0806725 0
M  V30 10079 N 954.985 5.61995 0.108789 0
M  V30 10080 H 947.136 1.89211 -0.965044 0
M  V30 10081 H 949.399 0.871068 -0.374091 0
M  V30 10082 H 949.105 3.41898 -0.824533 0
M  V30 10083 H 948.979 3.66086 0.908903 0
M  V30 10084 H 951.366 2.70601 1.17726 0
M  V30 10085 H 951.447 2.49201 -0.577299 0
M  V30 10086 H 951.091 5.00262 -0.877516 0
M  V30 10087 H 951.021 5.18977 0.892758 0
M  V30 10088 H 953.512 3.77142 0.23926 0
M  V30 10089 H 953.825 7.7268 -0.136351 0
M  V30 10090 H 952.17 6.94904 -0.115675 0
M  V30 10091 H 955.361 4.67619 0.212235 0
M  V30 10092 H 955.534 6.47987 0.0411822 0
M  V30 10093 N 948.94 -0.228186 1.55939 0
M  V30 10094 C 950.351 -0.795734 1.68893 0
M  V30 10095 C 950.702 -1.85261 0.645967 0
M  V30 10096 O 949.827 -2.15434 -0.2042 0
M  V30 10097 C 950.422 -1.45013 3.06197 0
M  V30 10098 C 948.981 -1.96514 3.21028 0
M  V30 10099 C 948.128 -0.822918 2.64808 0
M  V30 10100 H 951.079 -0.0036485 1.587 0
M  V30 10101 H 951.1 -2.31875 3.01685 0
M  V30 10102 H 950.612 -0.680678 3.82084 0
M  V30 10103 H 948.713 -2.76282 2.49998 0
M  V30 10104 H 948.826 -2.14967 4.28166 0
M  V30 10105 H 947.19 -1.22846 2.23116 0
M  V30 10106 H 947.973 -0.0662493 3.43236 0
M  V30 10107 N 950.418 -1.49637 -0.494624 0
M  V30 10108 C 951.665 -1.59445 -1.24834 0
M  V30 10109 C 951.993 -0.284028 -1.92415 0
M  V30 10110 O 951.248 0.728519 -1.81634 0
M  V30 10111 C 951.547 -2.70749 -2.33302 0
M  V30 10112 C 951.213 -4.12034 -1.83135 0
M  V30 10113 C 949.875 -4.50482 -1.69173 0
M  V30 10114 C 952.227 -5.00432 -1.4566 0
M  V30 10115 C 949.555 -5.75093 -1.16124 0
M  V30 10116 C 951.907 -6.25568 -0.940608 0
M  V30 10117 C 950.571 -6.62839 -0.787432 0
M  V30 10118 H 949.841 -0.583451 -0.456799 0
M  V30 10119 H 952.488 -1.8349 -0.548044 0
M  V30 10120 H 950.793 -2.407 -3.09145 0
M  V30 10121 H 952.49 -2.75546 -2.91334 0
M  V30 10122 H 949.08 -3.8169 -1.94964 0
M  V30 10123 H 953.264 -4.71379 -1.55291 0
M  V30 10124 H 948.52 -6.02665 -1.02982 0
M  V30 10125 H 952.694 -6.93439 -0.641467 0
M  V30 10126 H 950.321 -7.59279 -0.374191 0
M  V30 10127 N 951.896 0.746133 -1.38819 0
M  V30 10128 C 953.143 1.50545 -1.35434 0
M  V30 10129 C 953.471 1.94427 0.0532669 0
M  V30 10130 O 952.726 1.66285 1.03188 0
M  V30 10131 C 953.025 2.76639 -2.26286 0
M  V30 10132 C 952.691 2.51682 -3.74122 0
M  V30 10133 C 951.353 2.44584 -4.14406 0
M  V30 10134 C 953.705 2.30071 -4.67672 0
M  V30 10135 C 951.033 2.13902 -5.46318 0
M  V30 10136 C 953.385 2.00907 -5.99849 0
M  V30 10137 C 952.049 1.92271 -6.39209 0
M  V30 10138 H 951.319 0.550883 -0.49559 0
M  V30 10139 H 953.966 0.857337 -1.71237 0
M  V30 10140 H 952.271 3.46138 -1.83564 0
M  V30 10141 H 953.968 3.34626 -2.20967 0
M  V30 10142 H 950.558 2.5808 -3.42188 0
M  V30 10143 H 954.742 2.34528 -4.3739 0
M  V30 10144 H 949.998 2.0573 -5.75748 0
M  V30 10145 H 954.172 1.83191 -6.71874 0
M  V30 10146 H 951.799 1.68261 -7.41345 0
M  V30 10147 N 953.375 1.23811 0.975125 0
M  V30 10148 C 954.624 1.06741 1.71141 0
M  V30 10149 C 954.937 -0.394986 1.9157 0
M  V30 10150 O 956.143 -0.685723 2.62698 0
M  V30 10151 C 954.599 1.86168 3.08009 0
M  V30 10152 C 954.207 3.36771 2.95448 0
M  V30 10153 C 955.951 1.77604 3.85561 0
M  V30 10154 C 953.858 4.0857 4.2758 0
M  V30 10155 H 952.788 0.395819 0.64175 0
M  V30 10156 H 955.439 1.47825 1.0872 0
M  V30 10157 H 953.821 1.37893 3.71216 0
M  V30 10158 H 954.995 3.92571 2.41298 0
M  V30 10159 H 953.31 3.46205 2.31368 0
M  V30 10160 H 955.907 2.28556 4.83391 0
M  V30 10161 H 956.25 0.739837 4.09673 0
M  V30 10162 H 956.783 2.23519 3.29065 0
M  V30 10163 H 953.522 5.12518 4.08663 0
M  V30 10164 H 953.042 3.57556 4.81574 0
M  V30 10165 H 954.721 4.15157 4.9624 0
M  V30 10166 N 954.853 -1.17469 1.05066 0
M  V30 10167 C 955.803 -2.19388 0.620713 0
M  V30 10168 C 956.787 -1.5722 -0.34214 0
M  V30 10169 O 957.979 -1.76279 -0.159574 0
M  V30 10170 C 955.108 -3.433 -0.00438518 0
M  V30 10171 C 954.194 -4.12569 0.982218 0
M  V30 10172 N 954.585 -4.57683 2.15313 0
M  V30 10173 C 952.883 -4.38575 0.810416 0
M  V30 10174 C 953.584 -5.11124 2.77719 0
M  V30 10175 N 952.56 -5.0325 2.05525 0
M  V30 10176 H 956.362 -2.51971 1.51287 0
M  V30 10177 H 953.876 -1.33784 0.920625 0
M  V30 10178 H 955.873 -4.15591 -0.330161 0
M  V30 10179 H 954.533 -3.12209 -0.89195 0
M  V30 10180 H 955.544 -4.51812 2.53154 0
M  V30 10181 H 952.221 -4.17492 -0.0262078 0
M  V30 10182 H 953.611 -5.56161 3.77008 0
M  V30 10183 N 956.331 -0.831506 -1.3388 0
M  V30 10184 C 957.279 -0.247896 -2.31275 0
M  V30 10185 C 958.273 0.616083 -1.578 0
M  V30 10186 O 959.479 0.506465 -1.72728 0
M  V30 10187 H 955.854 -0.0614293 -0.749487 0
M  V30 10188 H 957.825 -1.08401 -2.78014 0
M  V30 10189 C 956.574 0.568434 -3.43022 0
M  V30 10190 H 955.897 -0.0870654 -3.99705 0
M  V30 10191 H 957.337 0.942751 -4.13386 0
M  V30 10192 C 955.796 1.74431 -2.88228 0
M  V30 10193 O 956.326 2.84278 -2.83811 0
M  V30 10194 N 954.532 1.56382 -2.44935 0
M  V30 10195 H 954.079 0.670255 -2.48727 0
M  V30 10196 H 954.037 2.35208 -2.08625 0
M  V30 10197 N 957.809 1.4625 -0.587256 0
M  V30 10198 C 959.057 2.01963 -0.0744273 0
M  V30 10199 C 959.378 1.46065 1.29189 0
M  V30 10200 O 958.648 0.647077 1.84905 0
M  V30 10201 H 957.228 0.746597 -0.0245236 0
M  V30 10202 H 959.89 1.79299 -0.764063 0
M  V30 10203 H 958.986 3.12099 -0.00884894 0
M  V30 10204 N 959.287 0.325282 1.54207 0
M  V30 10205 C 960.25 -0.527228 2.23054 0
M  V30 10206 C 961.25 -1.04217 1.22456 0
M  V30 10207 O 962.44 -0.934325 1.47024 0
M  V30 10208 C 959.572 -1.7325 2.93594 0
M  V30 10209 H 960.765 0.0746423 2.99807 0
M  V30 10210 H 958.318 0.0763872 1.56113 0
M  V30 10211 H 959.053 -2.37356 2.20981 0
M  V30 10212 H 958.838 -1.37065 3.67363 0
M  V30 10213 H 960.328 -2.3376 3.46043 0
M  V30 10214 N 960.765 -1.57509 0.0534917 0
M  V30 10215 C 962.014 -1.91959 -0.619244 0
M  V30 10216 C 962.327 -0.933882 -1.71866 0
M  V30 10217 O 963.533 -1.17052 -2.44972 0
M  V30 10218 C 961.989 -3.40938 -1.15278 0
M  V30 10219 C 961.597 -4.47919 -0.085348 0
M  V30 10220 C 963.341 -3.84419 -1.80063 0
M  V30 10221 C 961.248 -5.88014 -0.631897 0
M  V30 10222 H 960.178 -0.71642 -0.235072 0
M  V30 10223 H 962.829 -1.83089 0.122758 0
M  V30 10224 H 961.211 -3.44821 -1.94717 0
M  V30 10225 H 962.385 -4.55629 0.688374 0
M  V30 10226 H 960.7 -4.13793 0.465178 0
M  V30 10227 H 963.297 -4.86457 -2.21954 0
M  V30 10228 H 963.64 -3.20791 -2.65328 0
M  V30 10229 H 964.173 -3.83062 -1.07275 0
M  V30 10230 H 960.912 -6.55244 0.183175 0
M  V30 10231 H 960.432 -5.83861 -1.37355 0
M  V30 10232 H 962.111 -6.37336 -1.11407 0
M  V30 10233 N 962.243 0.219913 -1.56058 0
M  V30 10234 C 963.473 0.959521 -1.82967 0
M  V30 10235 C 963.881 1.78382 -0.630602 0
M  V30 10236 O 963.224 1.79062 0.410203 0
M  V30 10237 C 963.286 1.92481 -3.0363 0
M  V30 10238 C 962.95 1.28487 -4.38566 0
M  V30 10239 C 963.947 0.673946 -5.15513 0
M  V30 10240 C 961.632 1.29615 -4.85289 0
M  V30 10241 C 963.626 0.0828324 -6.37346 0
M  V30 10242 C 961.313 0.701191 -6.07064 0
M  V30 10243 C 962.311 0.0955877 -6.82933 0
M  V30 10244 O 961.999 -0.490109 -8.02405 0
M  V30 10245 H 961.731 0.286709 -0.612188 0
M  V30 10246 H 964.285 0.239761 -2.03996 0
M  V30 10247 H 962.515 2.6836 -2.78424 0
M  V30 10248 H 964.204 2.5301 -3.17397 0
M  V30 10249 H 964.97 0.657548 -4.80522 0
M  V30 10250 H 960.849 1.75691 -4.26208 0
M  V30 10251 H 964.393 -0.390482 -6.96506 0
M  V30 10252 H 960.29 0.715007 -6.41528 0
M  V30 10253 H 961.058 -0.384588 -8.17596 0
M  V30 10254 N 963.721 1.49897 0.486681 0
M  V30 10255 C 964.967 1.60342 1.2417 0
M  V30 10256 C 965.3 0.295694 1.91936 0
M  V30 10257 O 964.575 -0.701788 1.81398 0
M  V30 10258 C 964.858 2.77281 2.29755 0
M  V30 10259 C 964.711 4.1789 1.66397 0
M  V30 10260 C 966.03 2.89817 3.31201 0
M  V30 10261 H 963.149 0.583605 0.450083 0
M  V30 10262 H 965.791 1.82232 0.537734 0
M  V30 10263 H 963.941 2.58748 2.89796 0
M  V30 10264 H 965.613 4.47975 1.10073 0
M  V30 10265 H 963.856 4.22872 0.967579 0
M  V30 10266 H 964.527 4.95612 2.43049 0
M  V30 10267 H 967.003 3.06732 2.81167 0
M  V30 10268 H 965.879 3.7329 4.02425 0
M  V30 10269 H 966.14 1.9977 3.94391 0
M  V30 10270 N 965.199 -0.738761 1.39212 0
M  V30 10271 C 966.61 -1.31684 1.32348 0
M  V30 10272 C 966.961 -1.96195 -0.0139041 0
M  V30 10273 O 966.086 -1.96056 -0.916025 0
M  V30 10274 C 966.681 -2.39444 2.39691 0
M  V30 10275 C 965.24 -2.92935 2.36359 0
M  V30 10276 C 964.387 -1.66465 2.21776 0
M  V30 10277 H 967.338 -0.536543 1.49355 0
M  V30 10278 H 967.359 -3.19744 2.06262 0
M  V30 10279 H 966.871 -1.92463 3.37016 0
M  V30 10280 H 964.972 -3.44207 1.42662 0
M  V30 10281 H 965.085 -3.46306 3.31073 0
M  V30 10282 H 963.449 -1.90657 1.68884 0
M  V30 10283 H 964.232 -1.21541 3.21065 0
M  V30 10284 N 966.677 -1.24326 -0.968545 0
M  V30 10285 C 967.607 -1.05951 -2.08079 0
M  V30 10286 C 968.588 0.0272666 -1.70078 0
M  V30 10287 O 969.773 -0.139644 -1.93697 0
M  V30 10288 C 966.903 -0.662623 -3.4092 0
M  V30 10289 C 965.857 -1.69807 -3.92873 0
M  V30 10290 C 965.183 -1.15628 -5.22048 0
M  V30 10291 C 966.483 -3.09383 -4.20808 0
M  V30 10292 H 968.177 -1.98984 -2.23709 0
M  V30 10293 H 965.723 -0.958112 -1.075 0
M  V30 10294 H 967.676 -0.521071 -4.18166 0
M  V30 10295 H 966.4 0.303399 -3.25188 0
M  V30 10296 H 965.059 -1.82783 -3.17783 0
M  V30 10297 H 964.707 -0.180888 -5.02675 0
M  V30 10298 H 964.407 -1.84822 -5.57776 0
M  V30 10299 H 965.931 -1.02683 -6.01904 0
M  V30 10300 H 967.345 -2.99642 -4.88761 0
M  V30 10301 H 965.742 -3.75923 -4.67763 0
M  V30 10302 H 966.812 -3.57486 -3.27616 0
M  V30 10303 N 968.156 1.1691 -1.05688 0
M  V30 10304 C 969.381 1.91745 -0.790478 0
M  V30 10305 C 969.806 1.76568 0.648478 0
M  V30 10306 O 969.164 1.08682 1.45114 0
M  V30 10307 C 969.212 3.4067 -1.18222 0
M  V30 10308 O 968.316 4.11177 -0.317341 0
M  V30 10309 H 967.657 0.5976 -0.28943 0
M  V30 10310 H 970.187 1.48157 -1.41105 0
M  V30 10311 H 970.197 3.91424 -1.15114 0
M  V30 10312 H 968.872 3.51036 -2.2304 0
M  V30 10313 H 967.449 3.70645 -0.409459 0
M  V30 10314 N 969.634 0.838594 1.33437 0
M  V30 10315 C 970.859 0.446701 2.02532 0
M  V30 10316 C 971.284 -0.944275 1.62681 0
M  V30 10317 O 970.642 -1.61733 0.81927 0
M  V30 10318 C 970.69 0.574794 3.55989 0
M  V30 10319 O 969.794 -0.399063 4.10465 0
M  V30 10320 H 969.135 0.181637 0.638674 0
M  V30 10321 H 971.665 1.13335 1.70342 0
M  V30 10322 H 971.675 0.456339 4.0544 0
M  V30 10323 H 970.35 1.58921 3.8434 0
M  V30 10324 H 968.927 -0.238187 3.72139 0
M  V30 10325 N 971.112 -1.45937 0.595003 0
M  V30 10326 C 972.06 -2.32155 -0.143798 0
M  V30 10327 C 973.054 -1.45221 -0.872198 0
M  V30 10328 O 974.26 -1.61777 -0.789191 0
M  V30 10329 H 970.635 -0.749165 -0.0652377 0
M  V30 10330 H 972.606 -2.92264 0.602005 0
M  V30 10331 C 971.355 -3.28615 -1.13611 0
M  V30 10332 H 970.678 -3.95496 -0.585044 0
M  V30 10333 H 972.118 -3.91699 -1.62321 0
M  V30 10334 C 970.577 -2.54863 -2.20333 0
M  V30 10335 O 971.107 -2.32071 -3.27881 0
M  V30 10336 N 969.313 -2.15213 -1.95274 0
M  V30 10337 H 968.86 -2.33949 -1.07822 0
M  V30 10338 H 968.818 -1.66188 -2.66888 0
M  V30 10339 N 972.59 -0.333456 -1.54032 0
M  V30 10340 C 973.5 0.536674 -2.28379 0
M  V30 10341 C 974.516 1.12068 -1.33104 0
M  V30 10342 O 975.692 1.13853 -1.66131 0
M  V30 10343 C 972.757 1.67677 -3.03456 0
M  V30 10344 C 971.818 1.12357 -4.14336 0
M  V30 10345 C 971.051 2.20933 -4.85823 0
M  V30 10346 O 971.274 3.41466 -4.569 0
M  V30 10347 O 970.208 1.85795 -5.72507 0
M  V30 10348 H 974.034 -0.0674003 -3.03625 0
M  V30 10349 H 971.619 -0.098823 -1.49073 0
M  V30 10350 H 973.501 2.34032 -3.50438 0
M  V30 10351 H 972.176 2.26684 -2.31076 0
M  V30 10352 H 971.083 0.424827 -3.7168 0
M  V30 10353 H 972.416 0.578497 -4.88789 0
M  V30 10354 N 974.068 1.57479 -0.061844 0
M  V30 10355 C 975.031 2.1104 0.894127 0
M  V30 10356 C 976.031 1.03227 1.23292 0
M  V30 10357 O 977.221 1.29256 1.16784 0
M  V30 10358 C 974.353 2.6035 2.20069 0
M  V30 10359 H 975.546 2.96807 0.429619 0
M  V30 10360 H 973.099 1.55181 0.18672 0
M  V30 10361 H 973.834 1.78008 2.71079 0
M  V30 10362 H 973.619 3.39146 1.9678 0
M  V30 10363 H 975.109 3.019 2.88525 0
M  V30 10364 N 975.546 -0.211634 1.56173 0
M  V30 10365 C 976.823 -0.959467 1.70451 0
M  V30 10366 C 977.203 -2.02036 0.611942 0
M  V30 10367 O 976.551 -2.25325 -0.37959 0
M  V30 10368 C 976.761 -1.56092 3.12148 0
M  V30 10369 C 978.109 -2.04939 3.71867 0
M  V30 10370 O 979.133 -1.65966 3.15172 0
M  V30 10371 O 977.992 -2.766 4.71333 0
M  V30 10372 H 975.086 -0.448844 0.6946 0
M  V30 10373 H 977.632 -0.202633 1.68486 0
M  V30 10374 H 976.404 -0.79538 3.83131 0
M  V30 10375 H 976.027 -2.38303 3.18273 0
M  V30 10376 N 977.024 -1.50153 -0.478725 0
M  V30 10377 C 978.273 -1.60002 -1.22809 0
M  V30 10378 C 978.586 -0.302277 -1.9325 0
M  V30 10379 O 979.792 -0.279583 -2.70057 0
M  V30 10380 C 978.248 -2.82402 -2.23108 0
M  V30 10381 C 977.856 -4.19023 -1.58505 0
M  V30 10382 C 979.6 -3.01593 -2.98734 0
M  V30 10383 C 977.507 -5.32618 -2.57045 0
M  V30 10384 H 976.437 -0.595822 -0.462073 0
M  V30 10385 H 979.088 -1.76573 -0.499412 0
M  V30 10386 H 977.47 -2.59373 -2.99235 0
M  V30 10387 H 978.644 -4.52277 -0.882187 0
M  V30 10388 H 976.959 -4.05374 -0.951877 0
M  V30 10389 H 979.556 -3.8363 -3.72468 0
M  V30 10390 H 979.899 -2.1302 -3.57671 0
M  V30 10391 H 980.432 -3.24766 -2.29721 0
M  V30 10392 H 977.171 -6.23321 -2.02858 0
M  V30 10393 H 976.691 -5.03792 -3.25505 0
M  V30 10394 H 978.37 -5.62877 -3.19028 0
M  V30 10395 N 978.502 0.731368 -1.39602 0
M  V30 10396 C 979.732 1.51839 -1.40102 0
M  V30 10397 C 980.14 1.89199 0.00526634 0
M  V30 10398 O 979.483 1.54877 0.987874 0
M  V30 10399 C 979.545 2.83292 -2.21328 0
M  V30 10400 C 979.209 2.68345 -3.69919 0
M  V30 10401 C 980.206 2.36651 -4.62917 0
M  V30 10402 C 977.891 2.85102 -4.13548 0
M  V30 10403 C 979.885 2.21901 -5.97527 0
M  V30 10404 C 977.572 2.69971 -5.48233 0
M  V30 10405 C 978.57 2.38416 -6.40037 0
M  V30 10406 O 978.258 2.23383 -7.72241 0
M  V30 10407 H 977.99 0.475695 -0.480302 0
M  V30 10408 H 980.544 0.911096 -1.84087 0
M  V30 10409 H 978.774 3.46294 -1.72096 0
M  V30 10410 H 980.463 3.44928 -2.13961 0
M  V30 10411 H 981.229 2.23352 -4.3051 0
M  V30 10412 H 977.108 3.08655 -3.42423 0
M  V30 10413 H 980.652 1.97193 -6.69149 0
M  V30 10414 H 976.549 2.82849 -5.8023 0
M  V30 10415 H 977.317 2.38425 -7.83004 0
M  V30 10416 N 979.98 1.24838 0.961938 0
M  V30 10417 C 981.205 1.11967 1.7458 0
M  V30 10418 C 981.63 -0.323287 1.85301 0
M  V30 10419 O 980.988 -1.23412 1.32812 0
M  V30 10420 C 981.036 1.77066 3.14134 0
M  V30 10421 O 980.14 1.04534 3.98932 0
M  V30 10422 H 979.481 0.391338 0.536424 0
M  V30 10423 H 982.011 1.65259 1.20626 0
M  V30 10424 H 982.021 1.83056 3.64629 0
M  V30 10425 H 980.696 2.82052 3.05646 0
M  V30 10426 H 979.273 1.06372 3.57407 0
M  V30 10427 N 981.458 -1.16348 1.06306 0
M  V30 10428 C 982.705 -1.86881 0.779852 0
M  V30 10429 C 983.033 -1.8171 -0.693668 0
M  V30 10430 O 982.288 -1.22769 -1.52401 0
M  V30 10431 C 982.587 -3.35936 1.21991 0
M  V30 10432 C 982.253 -3.61307 2.69756 0
M  V30 10433 C 980.915 -3.6794 3.10119 0
M  V30 10434 C 983.267 -3.71871 3.65187 0
M  V30 10435 C 980.595 -3.82639 4.44752 0
M  V30 10436 C 982.947 -3.88091 4.99568 0
M  V30 10437 C 981.611 -3.92967 5.39568 0
M  V30 10438 H 980.881 -0.683847 0.285368 0
M  V30 10439 H 983.528 -1.37569 1.33218 0
M  V30 10440 H 981.833 -3.87381 0.586774 0
M  V30 10441 H 983.53 -3.88895 0.977821 0
M  V30 10442 H 980.12 -3.56777 2.37504 0
M  V30 10443 H 984.304 -3.66057 3.35136 0
M  V30 10444 H 979.56 -3.84666 4.75228 0
M  V30 10445 H 983.734 -3.95207 5.73397 0
M  V30 10446 H 981.361 -4.04109 6.43895 0
M  V30 10447 N 982.937 -0.845659 -1.3299 0
M  V30 10448 C 983.867 -0.298957 -2.31578 0
M  V30 10449 C 984.848 0.597012 -1.59279 0
M  V30 10450 O 986.033 0.519142 -1.87132 0
M  V30 10451 C 983.163 0.521109 -3.43368 0
M  V30 10452 C 982.117 -0.279651 -4.27085 0
M  V30 10453 C 981.443 0.664591 -5.30554 0
M  V30 10454 C 982.743 -1.50046 -5.00283 0
M  V30 10455 H 984.437 -1.12272 -2.77552 0
M  V30 10456 H 981.983 -0.54132 -1.33438 0
M  V30 10457 H 983.936 0.913921 -4.1137 0
M  V30 10458 H 982.66 1.37815 -2.96099 0
M  V30 10459 H 981.319 -0.654106 -3.60717 0
M  V30 10460 H 980.967 1.51822 -4.79541 0
M  V30 10461 H 980.667 0.132871 -5.8745 0
M  V30 10462 H 982.191 1.05477 -6.01421 0
M  V30 10463 H 983.605 -1.18044 -5.61016 0
M  V30 10464 H 982.002 -1.96946 -5.66862 0
M  V30 10465 H 983.072 -2.26659 -4.28665 0
M  V30 10466 N 984.415 1.45619 -0.602734 0
M  V30 10467 C 985.362 2.30493 0.118944 0
M  V30 10468 C 986.332 1.41816 0.864723 0
M  V30 10469 O 987.517 1.7075 0.851424 0
M  V30 10470 C 984.657 3.2664 1.11356 0
M  V30 10471 C 983.77 4.3042 0.369161 0
M  V30 10472 C 982.905 5.13678 1.35307 0
M  V30 10473 C 981.944 6.09189 0.596207 0
M  V30 10474 N 981.081 6.85245 1.52916 0
M  V30 10475 H 985.921 2.91672 -0.610836 0
M  V30 10476 H 983.458 1.43731 -0.313032 0
M  V30 10477 H 985.416 3.80846 1.7033 0
M  V30 10478 H 984.046 2.67225 1.81081 0
M  V30 10479 H 983.098 3.78913 -0.335994 0
M  V30 10480 H 984.41 4.98307 -0.221603 0
M  V30 10481 H 983.564 5.7226 2.01502 0
M  V30 10482 H 982.303 4.45798 1.97777 0
M  V30 10483 H 981.308 5.49743 -0.0793984 0
M  V30 10484 H 982.533 6.79096 -0.0233734 0
M  V30 10485 H 980.479 6.20058 2.14159 0
M  V30 10486 H 980.396 7.49467 0.991713 0
M  V30 10487 H 981.664 7.48371 2.18083 0
M  V30 10488 N 985.893 0.34162 1.53853 0
M  V30 10489 C 987.141 -0.254979 2.00485 0
M  V30 10490 C 987.462 -1.51222 1.23114 0
M  V30 10491 O 986.732 -1.92966 0.337787 0
M  V30 10492 H 985.312 -0.0972084 0.740648 0
M  V30 10493 H 987.974 0.462332 1.89337 0
M  V30 10494 H 987.07 -0.498778 3.08089 0
M  V30 10495 N 987.371 -1.57444 0.0701946 0
M  V30 10496 C 988.304 -2.08232 -0.93352 0
M  V30 10497 C 989.282 -0.987073 -1.29212 0
M  V30 10498 O 990.466 -1.26035 -1.40169 0
M  V30 10499 C 987.593 -2.53866 -2.2421 0
M  V30 10500 C 986.639 -3.7481 -2.03518 0
M  V30 10501 S 987.472 -5.1958 -1.29601 0
M  V30 10502 C 988.628 -5.68544 -2.61742 0
M  V30 10503 H 988.861 -2.93042 -0.501354 0
M  V30 10504 H 986.394 -1.53741 -0.142533 0
M  V30 10505 H 988.352 -2.80818 -2.99419 0
M  V30 10506 H 987.013 -1.69327 -2.64551 0
M  V30 10507 H 986.206 -4.04724 -3.00358 0
M  V30 10508 H 985.808 -3.48222 -1.36445 0
M  V30 10509 H 988.1 -5.75291 -3.57836 0
M  V30 10510 H 989.043 -6.67459 -2.3644 0
M  V30 10511 H 989.451 -4.96354 -2.68873 0
M  V30 10512 N 988.849 0.203349 -1.56283 0
M  V30 10513 C 990.097 0.923183 -1.79782 0
M  V30 10514 C 990.418 1.84134 -0.64185 0
M  V30 10515 O 989.688 1.92922 0.340292 0
M  V30 10516 H 988.268 0.343881 -0.66314 0
M  V30 10517 H 990.93 0.210837 -1.93756 0
M  V30 10518 H 990.026 1.51921 -2.72629 0
M  V30 10519 N 990.327 1.50405 0.470755 0
M  V30 10520 C 991.257 1.72222 1.57676 0
M  V30 10521 C 992.238 0.57121 1.60222 0
M  V30 10522 O 993.423 0.810381 1.76484 0
M  V30 10523 C 990.553 1.81666 2.95998 0
M  V30 10524 C 989.507 2.96857 3.08318 0
M  V30 10525 C 988.833 2.91445 4.4829 0
M  V30 10526 C 990.133 4.37361 2.85504 0
M  V30 10527 H 991.827 2.64825 1.39671 0
M  V30 10528 H 989.373 1.27438 0.67049 0
M  V30 10529 H 991.326 1.95514 3.73299 0
M  V30 10530 H 990.05 0.856856 3.1516 0
M  V30 10531 H 988.709 2.82661 2.33449 0
M  V30 10532 H 988.357 1.93309 4.64371 0
M  V30 10533 H 988.057 3.68776 4.57469 0
M  V30 10534 H 989.581 3.07341 5.27611 0
M  V30 10535 H 990.995 4.52081 3.52555 0
M  V30 10536 H 989.392 5.16145 3.06127 0
M  V30 10537 H 990.462 4.49708 1.81359 0
M  V30 10538 N 991.805 -0.723954 1.39988 0
M  V30 10539 C 992.752 -1.83803 1.39589 0
M  V30 10540 C 993.722 -1.64146 0.253996 0
M  V30 10541 O 994.907 -1.85398 0.450793 0
M  V30 10542 C 992.047 -3.21431 1.25604 0
M  V30 10543 C 991.16 -3.52717 2.49429 0
M  V30 10544 C 990.295 -4.79805 2.27949 0
M  V30 10545 C 989.334 -5.03968 3.47394 0
M  V30 10546 N 988.471 -6.22266 3.25161 0
M  V30 10547 H 993.311 -1.83479 2.34818 0
M  V30 10548 H 990.848 -0.896396 1.16633 0
M  V30 10549 H 992.806 -4.00892 1.15504 0
M  V30 10550 H 991.436 -3.21005 0.339986 0
M  V30 10551 H 990.488 -2.67872 2.7009 0
M  V30 10552 H 991.8 -3.66486 3.38363 0
M  V30 10553 H 990.954 -5.67268 2.15155 0
M  V30 10554 H 989.693 -4.68229 1.36428 0
M  V30 10555 H 988.698 -4.14963 3.60674 0
M  V30 10556 H 989.923 -5.17422 4.39831 0
M  V30 10557 H 987.869 -6.11957 2.36314 0
M  V30 10558 H 987.786 -6.36673 4.07656 0
M  V30 10559 H 989.054 -7.12539 3.16083 0
M  V30 10560 N 993.283 -1.25346 -0.955304 0
M  V30 10561 C 994.529 -1.10218 -1.70235 0
M  V30 10562 C 994.862 0.356124 -1.90907 0
M  V30 10563 O 994.137 1.26253 -1.47954 0
M  V30 10564 C 994.42 -1.85627 -3.08569 0
M  V30 10565 C 994.273 -3.39281 -2.95311 0
M  V30 10566 C 995.592 -1.63886 -4.08448 0
M  V30 10567 H 992.711 -0.401781 -0.617852 0
M  V30 10568 H 995.353 -1.5417 -1.11048 0
M  V30 10569 H 993.503 -1.48269 -3.59094 0
M  V30 10570 H 995.175 -3.8631 -2.52116 0
M  V30 10571 H 993.418 -3.67027 -2.31244 0
M  V30 10572 H 994.089 -3.87258 -3.93364 0
M  V30 10573 H 996.565 -1.96406 -3.6683 0
M  V30 10574 H 995.441 -2.19087 -5.03281 0
M  V30 10575 H 995.702 -0.580021 -4.38279 0
M  V30 10576 N 994.761 1.15782 -1.06922 0
M  V30 10577 C 996.008 1.86465 -0.789752 0
M  V30 10578 C 996.336 1.82075 0.684022 0
M  V30 10579 O 995.591 1.23576 1.51748 0
M  V30 10580 C 995.89 3.35284 -1.2377 0
M  V30 10581 C 995.556 3.59871 -2.71668 0
M  V30 10582 C 994.218 3.6629 -3.12066 0
M  V30 10583 C 996.57 3.69929 -3.67154 0
M  V30 10584 C 993.898 3.80275 -4.46775 0
M  V30 10585 C 996.25 3.85436 -5.01619 0
M  V30 10586 C 994.914 3.901 -5.41644 0
M  V30 10587 H 994.184 0.682324 -0.288991 0
M  V30 10588 H 996.831 1.36861 -1.33945 0
M  V30 10589 H 995.136 3.87065 -0.607309 0
M  V30 10590 H 996.833 3.88371 -0.998431 0
M  V30 10591 H 993.423 3.55512 -2.39393 0
M  V30 10592 H 997.607 3.64274 -3.37073 0
M  V30 10593 H 992.863 3.8214 -4.77262 0
M  V30 10594 H 997.037 3.92161 -5.75485 0
M  V30 10595 H 994.664 4.00688 -6.46029 0
M  V30 10596 N 996.239 0.8527 1.3254 0
M  V30 10597 C 997.467 0.469044 2.01513 0
M  V30 10598 C 997.882 -0.933701 1.64096 0
M  V30 10599 O 997.239 -1.60898 0.861283 0
M  V30 10600 C 997.29 0.596228 3.56549 0
M  V30 10601 O 997.011 1.94371 3.92621 0
M  V30 10602 C 998.512 0.211324 4.42796 0
M  V30 10603 H 995.732 0.184589 0.645111 0
M  V30 10604 H 998.276 1.1491 1.69163 0
M  V30 10605 H 996.431 -0.0360712 3.87383 0
M  V30 10606 H 996.845 1.93909 4.87339 0
M  V30 10607 H 998.319 0.351324 5.50881 0
M  V30 10608 H 998.796 -0.848055 4.30935 0
M  V30 10609 H 999.402 0.818617 4.17347 0
M  V30 10610 N 997.718 -1.45297 0.610449 0
M  V30 10611 C 998.666 -2.32295 -0.119167 0
M  V30 10612 C 999.66 -1.46138 -0.856746 0
M  V30 10613 O 1000.87 -1.62605 -0.771988 0
M  V30 10614 H 997.241 -0.749815 -0.0572881 0
M  V30 10615 H 999.212 -2.91609 0.63297 0
M  V30 10616 C 997.961 -3.29802 -1.10119 0
M  V30 10617 H 997.284 -3.96095 -0.543063 0
M  V30 10618 H 998.724 -3.93398 -1.58158 0
M  V30 10619 C 997.183 -2.57185 -2.17617 0
M  V30 10620 O 997.713 -2.35535 -3.25401 0
M  V30 10621 N 995.919 -2.17272 -1.9298 0
M  V30 10622 H 995.466 -2.3508 -1.05334 0
M  V30 10623 H 995.424 -1.69009 -2.6511 0
M  V30 10624 N 999.196 -0.349774 -1.5367 0
M  V30 10625 C 1000.42 0.248692 -2.05904 0
M  V30 10626 C 1000.85 1.42942 -1.22267 0
M  V30 10627 O 1000.2 1.79732 -0.237899 0
M  V30 10628 C 1000.25 0.635639 -3.54953 0
M  V30 10629 O 999.356 1.7349 -3.74132 0
M  V30 10630 H 998.697 0.0399477 -0.662797 0
M  V30 10631 H 1001.23 -0.505795 -1.9825 0
M  V30 10632 H 1001.24 0.911064 -3.97698 0
M  V30 10633 H 999.912 -0.227805 -4.15276 0
M  V30 10634 H 998.489 1.45626 -3.43289 0
M  V30 10635 N 1000.67 1.57404 -0.0785433 0
M  V30 10636 C 1001.62 2.13104 0.88631 0
M  V30 10637 C 1002.59 1.04527 1.29086 0
M  V30 10638 O 1003.78 1.32226 1.37553 0
M  V30 10639 C 1000.92 2.70252 2.14611 0
M  V30 10640 C 1000.03 3.93007 1.79358 0
M  V30 10641 C 999.164 4.38376 3 0
M  V30 10642 C 998.203 5.53761 2.60796 0
M  V30 10643 N 997.34 5.94058 3.74219 0
M  V30 10644 H 1002.18 2.95243 0.404452 0
M  V30 10645 H 999.717 1.45894 0.187982 0
M  V30 10646 H 1001.67 3.01497 2.88367 0
M  V30 10647 H 1000.3 1.90868 2.60326 0
M  V30 10648 H 999.357 3.68181 0.956384 0
M  V30 10649 H 1000.67 4.76795 1.4652 0
M  V30 10650 H 999.823 4.71317 3.82027 0
M  V30 10651 H 998.562 3.53455 3.36037 0
M  V30 10652 H 997.567 5.20464 1.77192 0
M  V30 10653 H 998.792 6.40419 2.25922 0
M  V30 10654 H 996.738 5.12085 4.10005 0
M  V30 10655 H 996.655 6.72602 3.45171 0
M  V30 10656 H 997.923 6.31624 4.56805 0
M  V30 10657 N 1002.15 -0.195058 1.56388 0
M  V30 10658 C 1003.4 -0.913626 1.79821 0
M  V30 10659 C 1003.71 -1.84422 0.651767 0
M  V30 10660 O 1004.92 -2.6034 0.770402 0
M  V30 10661 C 1003.38 -1.67497 3.18548 0
M  V30 10662 C 1002.98 -0.789205 4.40994 0
M  V30 10663 C 1004.73 -2.38318 3.5129 0
M  V30 10664 C 1002.63 -1.54942 5.70742 0
M  V30 10665 H 1001.56 -0.344891 0.670497 0
M  V30 10666 H 1004.22 -0.166912 1.82739 0
M  V30 10667 H 1002.6 -2.46557 3.0988 0
M  V30 10668 H 1003.77 -0.0372595 4.60785 0
M  V30 10669 H 1002.09 -0.191834 4.15958 0
M  V30 10670 H 1004.68 -2.95745 4.45465 0
M  V30 10671 H 1005.03 -3.12507 2.75037 0
M  V30 10672 H 1005.56 -1.66224 3.61406 0
M  V30 10673 H 1002.3 -0.85031 6.49962 0
M  V30 10674 H 1001.82 -2.2753 5.54969 0
M  V30 10675 H 1003.5 -2.1032 6.11861 0
M  V30 10676 N 1003.63 -1.50653 -0.462772 0
M  V30 10677 C 1005.05 -1.38263 -0.797213 0
M  V30 10678 C 1005.25 -0.445172 -1.96521 0
M  V30 10679 O 1004.3 0.10913 -2.52264 0
M  V30 10680 C 1005.61 -2.798 -1.10146 0
M  V30 10681 C 1007.16 -2.88774 -1.20742 0
M  V30 10682 C 1007.64 -4.31163 -1.54476 0
M  V30 10683 N 1009.13 -4.34152 -1.61451 0
M  V30 10684 C 1009.86 -5.4133 -1.89074 0
M  V30 10685 N 1009.36 -6.58705 -2.1466 0
M  V30 10686 N 1011.15 -5.28783 -1.90645 0
M  V30 10687 H 1003.3 -2.10172 0.30684 0
M  V30 10688 H 1005.57 -0.945046 0.0747862 0
M  V30 10689 H 1005.27 -3.50276 -0.316207 0
M  V30 10690 H 1005.15 -3.17559 -2.03559 0
M  V30 10691 H 1007.53 -2.18512 -1.98334 0
M  V30 10692 H 1007.61 -2.54547 -0.252904 0
M  V30 10693 H 1007.26 -5.01965 -0.774207 0
M  V30 10694 H 1007.19 -4.62883 -2.51092 0
M  V30 10695 H 1009.68 -3.49519 -1.43684 0
M  V30 10696 H 1009.99 -7.36192 -2.35035 0
M  V30 10697 H 1008.34 -6.61866 -2.12035 0
M  V30 10698 H 1011.53 -4.36078 -1.70158 0
M  V30 10699 H 1011.7 -6.12396 -2.11836 0
M  V30 10700 N 1005.11 0.71652 -1.4037 0
M  V30 10701 C 1006.06 1.8306 -1.40562 0
M  V30 10702 C 1007.03 1.64009 -0.262697 0
M  V30 10703 O 1008.21 1.85157 -0.460619 0
M  V30 10704 C 1005.35 3.2076 -1.27307 0
M  V30 10705 C 1004.46 3.51389 -2.51296 0
M  V30 10706 C 1003.6 4.78589 -2.30491 0
M  V30 10707 C 1002.64 5.02119 -3.50061 0
M  V30 10708 N 1001.77 6.20533 -3.28457 0
M  V30 10709 H 1006.61 1.82231 -2.35788 0
M  V30 10710 H 1004.15 0.890198 -1.17106 0
M  V30 10711 H 1006.11 4.00274 -1.17628 0
M  V30 10712 H 1004.74 3.2082 -0.357005 0
M  V30 10713 H 1003.79 2.66436 -2.71507 0
M  V30 10714 H 1005.1 3.64686 -3.40302 0
M  V30 10715 H 1004.26 5.66119 -2.1816 0
M  V30 10716 H 1003 4.67499 -1.38909 0
M  V30 10717 H 1002 4.13044 -3.6287 0
M  V30 10718 H 1003.23 5.15082 -4.42569 0
M  V30 10719 H 1001.17 6.10695 -2.39556 0
M  V30 10720 H 1001.09 6.34502 -4.11027 0
M  V30 10721 H 1002.36 7.10853 -3.19857 0
M  V30 10722 N 1006.59 1.25851 0.948643 0
M  V30 10723 C 1008 1.09975 1.50872 0
M  V30 10724 C 1008.35 -0.322497 1.93531 0
M  V30 10725 O 1007.47 -1.21316 1.79197 0
M  V30 10726 C 1008.07 1.99021 2.74182 0
M  V30 10727 C 1006.63 1.87313 3.26483 0
M  V30 10728 C 1005.77 1.92815 1.99293 0
M  V30 10729 H 1008.73 1.3905 0.764908 0
M  V30 10730 H 1008.75 1.53372 3.4822 0
M  V30 10731 H 1008.26 3.02527 2.43103 0
M  V30 10732 H 1006.36 0.867136 3.62369 0
M  V30 10733 H 1006.47 2.72446 3.94094 0
M  V30 10734 H 1004.84 1.36774 2.1486 0
M  V30 10735 H 1005.62 2.97936 1.70554 0
M  V30 10736 N 1008.06 -1.15214 1.07534 0
M  V30 10737 C 1009.01 -2.20013 0.697337 0
M  V30 10738 C 1009.98 -1.6314 -0.312168 0
M  V30 10739 O 1011.17 -1.89768 -0.198196 0
M  V30 10740 C 1008.31 -3.44945 0.103293 0
M  V30 10741 C 1007.42 -4.16009 1.1645 0
M  V30 10742 C 1006.55 -5.28496 0.535261 0
M  V30 10743 C 1005.59 -5.9138 1.57912 0
M  V30 10744 N 1004.73 -6.95335 0.972332 0
M  V30 10745 H 1009.57 -2.51698 1.59538 0
M  V30 10746 H 1007.11 -1.2361 0.797431 0
M  V30 10747 H 1009.07 -4.16397 -0.258766 0
M  V30 10748 H 1007.7 -3.13772 -0.758096 0
M  V30 10749 H 1006.75 -3.43035 1.64411 0
M  V30 10750 H 1008.06 -4.58853 1.9559 0
M  V30 10751 H 1007.21 -6.06579 0.120942 0
M  V30 10752 H 1005.95 -4.8685 -0.287889 0
M  V30 10753 H 1004.96 -5.12008 2.0032 0
M  V30 10754 H 1006.18 -6.35103 2.40459 0
M  V30 10755 H 1004.13 -6.55779 0.170119 0
M  V30 10756 H 1004.05 -7.36616 1.70095 0
M  V30 10757 H 1005.31 -7.77312 0.583577 0
M  V30 10758 N 1009.54 -0.859717 -1.32086 0
M  V30 10759 C 1010.77 -0.478865 -2.01796 0
M  V30 10760 C 1011.19 0.918274 -1.64163 0
M  V30 10761 O 1010.55 1.60409 -0.844896 0
M  V30 10762 C 1010.6 -0.631356 -3.5503 0
M  V30 10763 O 1009.7 0.333712 -4.11048 0
M  V30 10764 H 1009.04 -0.191775 -0.635703 0
M  V30 10765 H 1011.57 -1.16031 -1.68517 0
M  V30 10766 H 1011.58 -0.520783 -4.04663 0
M  V30 10767 H 1010.26 -1.65015 -3.81763 0
M  V30 10768 H 1008.84 0.178953 -3.7247 0
M  V30 10769 N 1011.02 1.44971 -0.618145 0
M  V30 10770 C 1012.26 2.04044 -0.120625 0
M  V30 10771 C 1012.62 1.47472 1.22947 0
M  V30 10772 O 1013.83 1.97965 1.81834 0
M  V30 10773 C 1012.1 3.57279 -0.0930863 0
M  V30 10774 S 1013.66 4.37468 0.341705 0
M  V30 10775 H 1010.47 0.708891 -0.0547272 0
M  V30 10776 H 1013.08 1.77535 -0.818621 0
M  V30 10777 H 1011.78 3.95961 -1.07903 0
M  V30 10778 H 1011.31 3.88378 0.62657 0
M  V30 10779 H 1013.33 4.70073 1.58888 0
M  V30 10780 N 1012.5 0.357919 1.53482 0
M  V30 10781 C 1013.72 -0.237769 2.06033 0
M  V30 10782 C 1014.15 -1.42292 1.23023 0
M  V30 10783 O 1013.51 -1.79604 0.247427 0
M  V30 10784 C 1013.55 -0.616806 3.55286 0
M  V30 10785 O 1012.66 -1.71503 3.75047 0
M  V30 10786 H 1012 -0.0364322 0.663 0
M  V30 10787 H 1014.53 0.516301 1.97979 0
M  V30 10788 H 1014.54 -0.88996 3.98175 0
M  V30 10789 H 1013.21 0.249825 4.15149 0
M  V30 10790 H 1011.79 -1.43803 3.44057 0
M  V30 10791 N 1013.98 -1.5736 0.0868897 0
M  V30 10792 C 1015.22 -1.94341 -0.579598 0
M  V30 10793 C 1015.56 -0.968238 -1.68341 0
M  V30 10794 O 1014.83 8.29649e-05 -1.945 0
M  V30 10795 C 1015.11 -3.41497 -1.14245 0
M  V30 10796 C 1014.97 -4.49778 -0.044255 0
M  V30 10797 C 1016.29 -3.89788 -2.04336 0
M  V30 10798 H 1013.4 -0.70668 -0.20922 0
M  V30 10799 H 1016.05 -1.89359 0.15593 0
M  V30 10800 H 1014.2 -3.45873 -1.76929 0
M  V30 10801 H 1015.87 -4.57517 0.58959 0
M  V30 10802 H 1014.11 -4.293 0.623207 0
M  V30 10803 H 1014.78 -5.4992 -0.478749 0
M  V30 10804 H 1017.26 -3.87513 -1.51569 0
M  V30 10805 H 1016.13 -4.93335 -2.40648 0
M  V30 10806 H 1016.4 -3.28603 -2.95757 0
M  V30 10807 N 1015.45 0.186762 -1.56489 0
M  V30 10808 C 1016.7 0.904077 -1.80303 0
M  V30 10809 C 1017.02 1.84073 -0.661538 0
M  V30 10810 O 1018.22 2.59928 -0.784197 0
M  V30 10811 C 1016.68 1.65806 -3.19432 0
M  V30 10812 C 1016.29 0.765807 -4.41406 0
M  V30 10813 C 1018.03 2.36451 -3.52549 0
M  V30 10814 C 1015.94 1.51913 -5.71556 0
M  V30 10815 H 1014.87 0.34133 -0.672317 0
M  V30 10816 H 1017.52 0.157218 -1.82825 0
M  V30 10817 H 1015.9 2.44911 -3.11183 0
M  V30 10818 H 1017.07 0.0128225 -4.60798 0
M  V30 10819 H 1015.39 0.169772 -4.16054 0
M  V30 10820 H 1017.99 2.93378 -4.47027 0
M  V30 10821 H 1018.33 3.11044 -2.7669 0
M  V30 10822 H 1018.86 1.64305 -3.62283 0
M  V30 10823 H 1015.6 0.815829 -6.50403 0
M  V30 10824 H 1015.12 2.24583 -5.56168 0
M  V30 10825 H 1016.8 2.07073 -6.12968 0
M  V30 10826 N 1016.93 1.50896 0.454776 0
M  V30 10827 C 1018.34 1.55372 1.0352 0
M  V30 10828 C 1018.69 0.366822 1.9274 0
M  V30 10829 O 1017.82 -0.518444 2.10098 0
M  V30 10830 C 1018.41 2.81574 1.88418 0
M  V30 10831 C 1016.97 2.88679 2.4154 0
M  V30 10832 C 1016.12 2.49847 1.20298 0
M  V30 10833 H 1019.07 1.56924 0.236729 0
M  V30 10834 H 1019.09 2.64352 2.73676 0
M  V30 10835 H 1018.6 3.67941 1.23455 0
M  V30 10836 H 1016.71 2.06702 3.10008 0
M  V30 10837 H 1016.82 3.91944 2.7553 0
M  V30 10838 H 1015.18 2.02651 1.54288 0
M  V30 10839 H 1015.97 3.3854 0.569723 0
M  V30 10840 N 1018.41 -0.709066 1.40748 0
M  V30 10841 C 1019.64 -1.50313 1.42901 0
M  V30 10842 C 1020.06 -1.88072 0.032213 0
M  V30 10843 O 1019.42 -1.53716 -0.96131 0
M  V30 10844 C 1019.47 -2.75074 2.33166 0
M  V30 10845 O 1018.57 -3.72036 1.7794 0
M  V30 10846 H 1017.91 -0.452934 0.485538 0
M  V30 10847 H 1020.44 -0.872712 1.85054 0
M  V30 10848 H 1020.45 -3.23532 2.48578 0
M  V30 10849 H 1019.13 -2.46927 3.34664 0
M  V30 10850 H 1017.7 -3.30911 1.71908 0
M  V30 10851 N 1019.89 -1.26353 -0.941956 0
M  V30 10852 C 1021.14 -1.12017 -1.69056 0
M  V30 10853 C 1021.47 0.335856 -1.91274 0
M  V30 10854 O 1020.74 1.24677 -1.49285 0
M  V30 10855 C 1021.03 -1.88889 -3.06583 0
M  V30 10856 C 1020.88 -3.42394 -2.91696 0
M  V30 10857 C 1022.2 -1.68209 -4.06686 0
M  V30 10858 H 1019.32 -0.408311 -0.613556 0
M  V30 10859 H 1021.96 -1.55339 -1.09407 0
M  V30 10860 H 1020.11 -1.5207 -3.57501 0
M  V30 10861 H 1021.78 -3.88962 -2.48005 0
M  V30 10862 H 1020.02 -3.69459 -2.27338 0
M  V30 10863 H 1020.7 -3.91408 -3.89235 0
M  V30 10864 H 1023.17 -2.00286 -3.64726 0
M  V30 10865 H 1022.05 -2.24412 -5.00929 0
M  V30 10866 H 1022.31 -0.626474 -4.37639 0
M  V30 10867 N 1021.37 1.14642 -1.08144 0
M  V30 10868 C 1022.59 1.90025 -0.830972 0
M  V30 10869 C 1023.02 1.77904 0.610879 0
M  V30 10870 O 1022.38 1.11735 1.42776 0
M  V30 10871 C 1022.42 3.38085 -1.25422 0
M  V30 10872 O 1021.53 4.10412 -0.404486 0
M  V30 10873 H 1020.87 0.591327 -0.302041 0
M  V30 10874 H 1023.4 1.4513 -1.44216 0
M  V30 10875 H 1023.41 3.88894 -1.23391 0
M  V30 10876 H 1022.08 3.46226 -2.30435 0
M  V30 10877 H 1020.66 3.69693 -0.487987 0
M  V30 10878 N 1022.85 0.866709 1.31628 0
M  V30 10879 C 1023.81 0.325041 2.26883 0
M  V30 10880 C 1024.81 -0.522133 1.52087 0
M  V30 10881 O 1026 -0.331908 1.71009 0
M  V30 10882 C 1023.13 -0.538756 3.36616 0
M  V30 10883 H 1024.32 1.16592 2.76308 0
M  V30 10884 H 1021.88 0.642029 1.42505 0
M  V30 10885 H 1022.61 -1.40096 2.92478 0
M  V30 10886 H 1022.4 0.0678115 3.92041 0
M  V30 10887 H 1023.89 -0.910123 4.07562 0
M  V30 10888 N 1024.32 -1.44642 0.625825 0
M  V30 10889 C 1025.57 -2.01695 0.127948 0
M  V30 10890 C 1025.89 -1.49439 -1.25271 0
M  V30 10891 O 1025.16 -0.695873 -1.83124 0
M  V30 10892 H 1023.74 -0.745685 0.0443096 0
M  V30 10893 H 1026.4 -1.7721 0.811332 0
M  V30 10894 H 1025.5 -3.11966 0.0915933 0
M  V30 10895 N 1025.8 -0.366053 -1.5329 0
M  V30 10896 C 1026.76 0.467904 -2.24373 0
M  V30 10897 C 1027.76 1.00934 -1.25176 0
M  V30 10898 O 1028.95 0.895015 -1.49449 0
M  V30 10899 C 1026.09 1.65405 -2.98084 0
M  V30 10900 H 1027.28 -0.154105 -2.99504 0
M  V30 10901 H 1024.83 -0.117751 -1.55856 0
M  V30 10902 H 1025.57 2.31413 -2.27197 0
M  V30 10903 H 1025.35 1.27277 -3.70868 0
M  V30 10904 H 1026.84 2.24503 -3.52119 0
M  V30 10905 N 1027.28 1.57312 -0.0952337 0
M  V30 10906 C 1028.53 1.94646 0.569284 0
M  V30 10907 C 1028.86 0.977152 1.67825 0
M  V30 10908 O 1028.13 0.0102318 1.94497 0
M  V30 10909 C 1028.42 3.42098 1.12433 0
M  V30 10910 C 1028.27 4.49795 0.0204016 0
M  V30 10911 C 1029.59 3.90866 2.02266 0
M  V30 10912 H 1026.71 0.707779 0.205469 0
M  V30 10913 H 1029.35 1.89274 -0.16597 0
M  V30 10914 H 1027.5 3.46807 1.75092 0
M  V30 10915 H 1029.17 4.57198 -0.613845 0
M  V30 10916 H 1027.41 4.28964 -0.645965 0
M  V30 10917 H 1028.09 5.50166 0.449579 0
M  V30 10918 H 1030.56 3.88311 1.49512 0
M  V30 10919 H 1029.44 4.94604 2.38029 0
M  V30 10920 H 1029.7 3.30167 2.9401 0
M  V30 10921 N 1028.76 -0.17846 1.56586 0
M  V30 10922 C 1030.01 -0.894464 1.81228 0
M  V30 10923 C 1030.33 -1.83089 0.671062 0
M  V30 10924 O 1029.6 -1.93439 -0.309557 0
M  V30 10925 H 1028.18 -0.333288 0.668527 0
M  V30 10926 H 1030.84 -0.179986 1.94067 0
M  V30 10927 H 1029.93 -1.47565 2.75011 0
M  V30 10928 N 1030.24 -1.51135 -0.446768 0
M  V30 10929 C 1031.17 -1.67949 -1.55967 0
M  V30 10930 C 1032.18 -0.560337 -1.52853 0
M  V30 10931 O 1033.37 -0.83435 -1.578 0
M  V30 10932 C 1030.47 -1.6703 -2.9488 0
M  V30 10933 C 1029.64 -2.95377 -3.22601 0
M  V30 10934 C 1028.7 -2.86772 -4.4119 0
M  V30 10935 O 1027.73 -3.60722 -4.40304 0
M  V30 10936 N 1028.93 -2.01979 -5.44228 0
M  V30 10937 H 1031.69 -2.63951 -1.41951 0
M  V30 10938 H 1029.26 -1.48903 -0.635569 0
M  V30 10939 H 1031.25 -1.58854 -3.7222 0
M  V30 10940 H 1029.82 -0.786623 -3.02541 0
M  V30 10941 H 1029.04 -3.17494 -2.33647 0
M  V30 10942 H 1030.33 -3.80356 -3.37945 0
M  V30 10943 H 1029.72 -1.41257 -5.4778 0
M  V30 10944 H 1028.28 -1.99689 -6.20457 0
M  V30 10945 N 1031.71 0.701592 -1.41122 0
M  V30 10946 C 1032.96 1.45871 -1.39879 0
M  V30 10947 C 1033.28 1.94999 -0.00668769 0
M  V30 10948 O 1032.55 1.71298 0.95047 0
M  V30 10949 H 1031.13 0.541231 -0.514857 0
M  V30 10950 H 1033.79 0.830803 -1.76306 0
M  V30 10951 H 1032.89 2.32479 -2.0823 0
M  V30 10952 N 1033.19 1.2685 0.935242 0
M  V30 10953 C 1034.42 1.15371 1.71386 0
M  V30 10954 C 1034.83 -0.293048 1.86917 0
M  V30 10955 O 1034.17 -1.212 1.38044 0
M  V30 10956 C 1034.23 1.75652 3.13666 0
M  V30 10957 C 1033.9 3.24788 3.215 0
M  V30 10958 C 1034.9 4.21525 3.04323 0
M  V30 10959 C 1032.58 3.65359 3.447 0
M  V30 10960 C 1034.57 5.56812 3.10224 0
M  V30 10961 C 1032.26 5.00778 3.50235 0
M  V30 10962 C 1033.26 5.96314 3.33014 0
M  V30 10963 O 1032.95 7.29266 3.38269 0
M  V30 10964 H 1032.68 0.40234 0.54323 0
M  V30 10965 H 1035.23 1.68083 1.18056 0
M  V30 10966 H 1033.46 1.17408 3.68446 0
M  V30 10967 H 1035.15 1.58994 3.73465 0
M  V30 10968 H 1035.92 3.91519 2.86249 0
M  V30 10969 H 1031.8 2.91479 3.57157 0
M  V30 10970 H 1035.34 6.3136 2.967 0
M  V30 10971 H 1031.24 5.30444 3.67831 0
M  V30 10972 H 1032.01 7.37616 3.54774 0
M  V30 10973 N 1034.67 -1.14067 1.0875 0
M  V30 10974 C 1035.9 -1.88767 0.839682 0
M  V30 10975 C 1036.31 -1.79024 -0.612119 0
M  V30 10976 O 1035.65 -1.14986 -1.43262 0
M  V30 10977 C 1035.71 -3.39333 1.18716 0
M  V30 10978 C 1035.38 -3.72858 2.64245 0
M  V30 10979 C 1036.37 -3.72683 3.62496 0
M  V30 10980 C 1034.06 -4.0273 3.0019 0
M  V30 10981 C 1036.05 -4.01909 4.9472 0
M  V30 10982 C 1033.74 -4.31618 4.32607 0
M  V30 10983 C 1034.74 -4.31192 5.29682 0
M  V30 10984 O 1034.43 -4.59377 6.59718 0
M  V30 10985 H 1034.16 -0.604665 0.302253 0
M  V30 10986 H 1036.71 -1.45364 1.45115 0
M  V30 10987 H 1034.94 -3.83205 0.518707 0
M  V30 10988 H 1036.63 -3.95346 0.919599 0
M  V30 10989 H 1037.4 -3.49688 3.3607 0
M  V30 10990 H 1033.28 -4.02213 2.25268 0
M  V30 10991 H 1036.82 -4.01491 5.70483 0
M  V30 10992 H 1032.72 -4.54083 4.58779 0
M  V30 10993 H 1033.49 -4.77078 6.65086 0
M  V30 10994 N 1036.15 -0.873678 -1.31166 0
M  V30 10995 C 1037.4 -0.485497 -1.96182 0
M  V30 10996 C 1037.72 0.96621 -1.69379 0
M  V30 10997 O 1036.99 1.67783 -1.01121 0
M  V30 10998 H 1035.57 -0.176547 -0.725838 0
M  V30 10999 H 1038.23 -1.11428 -1.59906 0
M  V30 11000 H 1037.33 -0.646325 -3.05334 0
M  V30 11001 N 1037.63 1.44308 -0.633487 0
M  V30 11002 C 1038.59 2.2912 0.060376 0
M  V30 11003 C 1039.59 1.41166 0.769992 0
M  V30 11004 O 1040.78 1.63012 0.614224 0
M  V30 11005 C 1037.91 3.22798 1.0961 0
M  V30 11006 H 1039.1 2.91958 -0.685617 0
M  V30 11007 H 1036.66 1.51259 -0.393738 0
M  V30 11008 H 1037.39 2.64815 1.87199 0
M  V30 11009 H 1037.18 3.87618 0.591161 0
M  V30 11010 H 1038.67 3.86504 1.58127 0
M  V30 11011 N 1039.1 0.374177 1.53094 0
M  V30 11012 C 1040.35 -0.212396 2.00981 0
M  V30 11013 C 1040.67 -1.48576 1.26293 0
M  V30 11014 O 1039.94 -1.92206 0.378642 0
M  V30 11015 H 1038.52 -0.0814763 0.742543 0
M  V30 11016 H 1041.19 0.502389 1.88314 0
M  V30 11017 H 1040.28 -0.433316 3.09077 0
M  V30 11018 N 1040.58 -1.57259 0.103575 0
M  V30 11019 C 1041.51 -2.17509 -0.84923 0
M  V30 11020 C 1042.49 -1.11079 -1.28824 0
M  V30 11021 O 1043.68 -1.39252 -1.35361 0
M  V30 11022 C 1040.81 -2.76221 -2.10522 0
M  V30 11023 C 1039.76 -3.88098 -1.80454 0
M  V30 11024 C 1039.09 -4.33549 -3.12952 0
M  V30 11025 C 1040.39 -5.10909 -1.08486 0
M  V30 11026 H 1042.08 -2.9738 -0.347217 0
M  V30 11027 H 1039.63 -1.43045 -0.165568 0
M  V30 11028 H 1041.58 -3.17024 -2.77621 0
M  V30 11029 H 1040.31 -1.93617 -2.63021 0
M  V30 11030 H 1038.96 -3.47847 -1.15749 0
M  V30 11031 H 1038.61 -3.47825 -3.63355 0
M  V30 11032 H 1038.31 -5.08984 -2.93614 0
M  V30 11033 H 1039.84 -4.76992 -3.81196 0
M  V30 11034 H 1041.25 -5.48828 -1.65711 0
M  V30 11035 H 1039.65 -5.91828 -0.992973 0
M  V30 11036 H 1040.72 -4.84851 -0.0690108 0
M  V30 11037 N 1042.06 0.170153 -1.56679 0
M  V30 11038 C 1043.31 0.884841 -1.817 0
M  V30 11039 C 1043.63 1.82731 -0.680763 0
M  V30 11040 O 1042.9 1.936 0.299294 0
M  V30 11041 H 1041.48 0.329738 -0.670285 0
M  V30 11042 H 1044.14 0.169691 -1.9416 0
M  V30 11043 H 1043.24 1.46104 -2.7579 0
M  V30 11044 N 1043.54 1.5137 0.438746 0
M  V30 11045 C 1044.78 1.64211 1.19006 0
M  V30 11046 C 1045.12 0.356607 1.90898 0
M  V30 11047 O 1044.39 -0.643722 1.83539 0
M  V30 11048 C 1044.68 2.8445 2.20817 0
M  V30 11049 C 1044.53 4.22972 1.53018 0
M  V30 11050 C 1045.85 3.00207 3.21813 0
M  V30 11051 H 1042.97 0.597628 0.431288 0
M  V30 11052 H 1045.61 1.8385 0.479487 0
M  V30 11053 H 1043.76 2.67836 2.81418 0
M  V30 11054 H 1045.43 4.5125 0.957654 0
M  V30 11055 H 1043.67 4.25736 0.832556 0
M  V30 11056 H 1044.34 5.03094 2.27158 0
M  V30 11057 H 1046.82 3.15522 2.71266 0
M  V30 11058 H 1045.7 3.85904 3.90345 0
M  V30 11059 H 1045.96 2.12216 3.87836 0
M  V30 11060 N 1045.02 -0.694098 1.41492 0
M  V30 11061 C 1046.26 -1.4563 1.41137 0
M  V30 11062 C 1046.6 -1.94189 0.0208428 0
M  V30 11063 O 1045.87 -1.69628 -0.951655 0
M  V30 11064 C 1046.15 -2.66714 2.41941 0
M  V30 11065 C 1046.01 -2.23912 3.90107 0
M  V30 11066 C 1047.33 -3.68913 2.39981 0
M  V30 11067 H 1044.44 -0.52821 0.513968 0
M  V30 11068 H 1047.09 -0.790437 1.72778 0
M  V30 11069 H 1045.24 -3.23525 2.1509 0
M  V30 11070 H 1046.91 -1.72417 4.27867 0
M  V30 11071 H 1045.15 -1.5568 4.04903 0
M  V30 11072 H 1045.82 -3.108 4.56188 0
M  V30 11073 H 1048.3 -3.21779 2.63813 0
M  V30 11074 H 1047.17 -4.51242 3.12524 0
M  V30 11075 H 1047.44 -4.18711 1.41892 0
M  V30 11076 N 1046.49 -1.27344 -0.928501 0
M  V30 11077 C 1047.4 -1.11812 -2.06241 0
M  V30 11078 C 1048.42 -0.048347 -1.73933 0
M  V30 11079 O 1049.6 -0.25467 -1.99783 0
M  V30 11080 C 1046.66 -0.766036 -3.38131 0
M  V30 11081 C 1045.72 -1.91659 -3.84142 0
M  V30 11082 C 1044.96 -1.58121 -5.09738 0
M  V30 11083 O 1045.18 -0.488742 -5.68302 0
M  V30 11084 O 1044.11 -2.42013 -5.51102 0
M  V30 11085 H 1047.94 -2.06967 -2.22258 0
M  V30 11086 H 1045.52 -1.06524 -1.04752 0
M  V30 11087 H 1047.41 -0.582982 -4.17348 0
M  V30 11088 H 1046.08 0.155998 -3.23324 0
M  V30 11089 H 1044.99 -2.1547 -3.05816 0
M  V30 11090 H 1046.32 -2.8188 -4.0349 0
M  V30 11091 N 1047.97 1.13488 -1.09353 0
M  V30 11092 C 1049.39 1.36739 -0.823086 0
M  V30 11093 C 1049.59 1.93476 0.562963 0
M  V30 11094 O 1048.64 2.15374 1.31796 0
M  V30 11095 C 1049.96 2.31943 -1.91371 0
M  V30 11096 C 1051.51 2.4556 -1.94085 0
M  V30 11097 C 1051.98 3.44072 -3.02289 0
M  V30 11098 N 1053.47 3.51622 -3.01524 0
M  V30 11099 C 1054.21 4.27724 -3.8189 0
M  V30 11100 N 1053.7 5.06987 -4.72161 0
M  V30 11101 N 1055.5 4.23018 -3.70152 0
M  V30 11102 H 1047.65 0.75012 -1.98713 0
M  V30 11103 H 1049.91 0.392564 -0.862901 0
M  V30 11104 H 1049.62 1.97408 -2.91072 0
M  V30 11105 H 1049.49 3.31952 -1.79131 0
M  V30 11106 H 1051.88 2.79382 -0.950234 0
M  V30 11107 H 1051.96 1.45479 -2.10403 0
M  V30 11108 H 1051.6 3.10981 -4.01564 0
M  V30 11109 H 1051.53 4.43956 -2.83214 0
M  V30 11110 H 1054.02 2.95066 -2.36103 0
M  V30 11111 H 1054.34 5.6236 -5.30067 0
M  V30 11112 H 1052.68 5.06222 -4.76197 0
M  V30 11113 H 1055.87 3.60171 -2.98989 0
M  V30 11114 H 1056.04 4.82075 -4.33022 0
M  V30 11115 N 1049.45 0.880621 1.30701 0
M  V30 11116 C 1050.86 0.547993 1.78477 0
M  V30 11117 C 1051.21 -0.935633 1.72454 0
M  V30 11118 O 1050.34 -1.73094 1.29874 0
M  V30 11119 C 1050.93 0.98795 3.24076 0
M  V30 11120 C 1049.49 0.706805 3.69704 0
M  V30 11121 C 1048.64 1.17335 2.51252 0
M  V30 11122 H 1051.59 1.06528 1.17633 0
M  V30 11123 H 1051.61 0.31508 3.79193 0
M  V30 11124 H 1051.12 2.06778 3.28427 0
M  V30 11125 H 1049.22 -0.36122 3.70845 0
M  V30 11126 H 1049.34 1.2913 4.6137 0
M  V30 11127 H 1047.7 0.592808 2.47705 0
M  V30 11128 H 1048.48 2.26083 2.58343 0
M  V30 11129 N 1050.93 -1.4397 0.641131 0
M  V30 11130 C 1052.16 -2.06004 0.156779 0
M  V30 11131 C 1052.57 -1.48059 -1.17793 0
M  V30 11132 O 1051.91 -0.601788 -1.73563 0
M  V30 11133 C 1051.97 -3.59493 -0.0217203 0
M  V30 11134 C 1051.64 -4.39957 1.23639 0
M  V30 11135 C 1052.63 -4.72797 2.16239 0
M  V30 11136 C 1050.32 -4.80168 1.4746 0
M  V30 11137 C 1052.31 -5.44741 3.30962 0
M  V30 11138 C 1050 -5.51859 2.62478 0
M  V30 11139 C 1051 -5.84067 3.54055 0
M  V30 11140 O 1050.69 -6.54296 4.67067 0
M  V30 11141 H 1050.42 -0.671061 0.0815685 0
M  V30 11142 H 1052.97 -1.85664 0.878517 0
M  V30 11143 H 1051.2 -3.78362 -0.798707 0
M  V30 11144 H 1052.89 -4.03263 -0.461893 0
M  V30 11145 H 1053.66 -4.42261 1.99073 0
M  V30 11146 H 1049.54 -4.54513 0.770652 0
M  V30 11147 H 1053.08 -5.69798 4.02462 0
M  V30 11148 H 1048.98 -5.81811 2.79583 0
M  V30 11149 H 1049.74 -6.72772 4.66177 0
M  V30 11150 N 1052.41 -0.382291 -1.52893 0
M  V30 11151 C 1053.65 0.202433 -2.01787 0
M  V30 11152 C 1053.99 1.47044 -1.26853 0
M  V30 11153 O 1053.26 1.91007 -0.366969 0
M  V30 11154 C 1053.54 0.477471 -3.5692 0
M  V30 11155 C 1053.4 -0.805339 -4.42532 0
M  V30 11156 C 1054.72 1.27106 -4.21346 0
M  V30 11157 H 1051.84 0.0720998 -0.733465 0
M  V30 11158 H 1054.48 -0.510478 -1.83014 0
M  V30 11159 H 1052.63 1.08478 -3.73048 0
M  V30 11160 H 1054.3 -1.4424 -4.3817 0
M  V30 11161 H 1052.54 -1.42216 -4.09826 0
M  V30 11162 H 1053.21 -0.567635 -5.49074 0
M  V30 11163 H 1055.69 0.757161 -4.09153 0
M  V30 11164 H 1054.57 1.43225 -5.29885 0
M  V30 11165 H 1054.83 2.28431 -3.78513 0
M  V30 11166 N 1053.89 1.57202 -0.111913 0
M  V30 11167 C 1055.3 1.82039 0.414591 0
M  V30 11168 C 1055.65 1.02863 1.67074 0
M  V30 11169 O 1054.77 0.263068 2.14795 0
M  V30 11170 C 1055.37 3.3019 0.758953 0
M  V30 11171 C 1053.93 3.55732 1.23012 0
M  V30 11172 C 1053.07 2.76301 0.235226 0
M  V30 11173 H 1056.02 1.55078 -0.337142 0
M  V30 11174 H 1056.05 3.44431 1.61701 0
M  V30 11175 H 1055.56 3.87788 -0.155473 0
M  V30 11176 H 1053.66 3.03483 2.16169 0
M  V30 11177 H 1053.77 4.64333 1.18034 0
M  V30 11178 H 1052.14 2.44287 0.720822 0
M  V30 11179 H 1052.92 3.36655 -0.672173 0
M  V30 11180 N 1055.36 -0.161842 1.56767 0
M  V30 11181 C 1056.3 -1.22499 1.93718 0
M  V30 11182 C 1057.31 -1.39975 0.831314 0
M  V30 11183 O 1058.5 -1.3981 1.10975 0
M  V30 11184 C 1055.6 -2.59222 2.18306 0
M  V30 11185 C 1054.77 -2.6292 3.4956 0
M  V30 11186 C 1053.83 -3.81074 3.62863 0
M  V30 11187 O 1052.86 -3.66633 4.35395 0
M  V30 11188 N 1054.06 -4.97923 2.98418 0
M  V30 11189 H 1056.82 -0.911043 2.85517 0
M  V30 11190 H 1054.38 -0.351533 1.58038 0
M  V30 11191 H 1056.38 -3.36749 2.24461 0
M  V30 11192 H 1054.95 -2.82969 1.32844 0
M  V30 11193 H 1054.17 -1.71418 3.54978 0
M  V30 11194 H 1055.45 -2.62409 4.35911 0
M  V30 11195 H 1054.85 -5.12557 2.39378 0
M  V30 11196 H 1053.41 -5.73277 3.10155 0
M  V30 11197 N 1056.84 -1.516 -0.430713 0
M  V30 11198 C 1057.77 -1.76342 -1.53054 0
M  V30 11199 C 1058.75 -0.61349 -1.58652 0
M  V30 11200 O 1059.94 -0.856888 -1.74273 0
M  V30 11201 C 1057.07 -1.8945 -2.91077 0
M  V30 11202 C 1056.02 -3.04928 -3.00339 0
M  V30 11203 C 1055.35 -3.03228 -4.40405 0
M  V30 11204 C 1056.65 -4.44777 -2.73808 0
M  V30 11205 H 1058.34 -2.68435 -1.326 0
M  V30 11206 H 1055.89 -1.29171 -0.636466 0
M  V30 11207 H 1057.84 -2.05343 -3.67984 0
M  V30 11208 H 1056.56 -0.940114 -3.12777 0
M  V30 11209 H 1055.22 -2.88751 -2.25872 0
M  V30 11210 H 1054.87 -2.05553 -4.59083 0
M  V30 11211 H 1054.57 -3.80776 -4.47531 0
M  V30 11212 H 1056.1 -3.21222 -5.19277 0
M  V30 11213 H 1057.51 -4.6127 -3.40445 0
M  V30 11214 H 1055.91 -5.2408 -2.92335 0
M  V30 11215 H 1056.98 -4.54358 -1.69372 0
M  V30 11216 N 1058.32 0.686584 -1.41858 0
M  V30 11217 C 1059.57 1.44379 -1.41418 0
M  V30 11218 C 1059.89 1.94981 -0.0273696 0
M  V30 11219 O 1059.16 1.72296 0.932248 0
M  V30 11220 H 1057.74 0.53574 -0.520568 0
M  V30 11221 H 1060.4 0.812056 -1.77177 0
M  V30 11222 H 1059.5 2.30258 -2.10684 0
M  V30 11223 N 1059.8 1.27835 0.921735 0
M  V30 11224 C 1061.03 1.17352 1.704 0
M  V30 11225 C 1061.44 -0.268892 1.86875 0
M  V30 11226 O 1060.8 -1.18253 1.39005 0
M  V30 11227 C 1060.85 1.85889 3.10045 0
M  V30 11228 O 1060.57 3.24495 2.94338 0
M  V30 11229 C 1062.07 1.81607 4.04393 0
M  V30 11230 H 1059.29 0.40773 0.532914 0
M  V30 11231 H 1061.83 1.68815 1.15419 0
M  V30 11232 H 1059.99 1.38316 3.61867 0
M  V30 11233 H 1060.4 3.58705 3.82663 0
M  V30 11234 H 1061.88 2.34165 4.99871 0
M  V30 11235 H 1062.35 0.786697 4.32097 0
M  V30 11236 H 1062.96 2.28822 3.58498 0
M  V30 11237 N 1061.28 -1.12907 1.09954 0
M  V30 11238 C 1062.51 -1.87866 0.859656 0
M  V30 11239 C 1062.91 -1.79664 -0.593096 0
M  V30 11240 O 1062.26 -1.16499 -1.42034 0
M  V30 11241 C 1062.32 -3.38055 1.22308 0
M  V30 11242 C 1061.98 -3.70035 2.68185 0
M  V30 11243 C 1062.98 -3.68817 3.66428 0
M  V30 11244 C 1060.66 -3.99523 3.04444 0
M  V30 11245 C 1062.66 -3.96639 4.98955 0
M  V30 11246 C 1060.35 -4.27006 4.37161 0
M  V30 11247 C 1061.34 -4.25549 5.34225 0
M  V30 11248 O 1061.03 -4.52354 6.64553 0
M  V30 11249 H 1060.76 -0.601425 0.308649 0
M  V30 11250 H 1063.32 -1.43817 1.46649 0
M  V30 11251 H 1061.55 -3.82634 0.559322 0
M  V30 11252 H 1063.24 -3.94348 0.961479 0
M  V30 11253 H 1064 -3.46104 3.3976 0
M  V30 11254 H 1059.88 -3.99801 2.29521 0
M  V30 11255 H 1063.43 -3.95418 5.74709 0
M  V30 11256 H 1059.32 -4.49192 4.6357 0
M  V30 11257 H 1060.09 -4.69997 6.70108 0
M  V30 11258 N 1062.75 -0.88754 -1.30232 0
M  V30 11259 C 1063.7 -0.345765 -2.30016 0
M  V30 11260 C 1064.7 0.5486 -1.60271 0
M  V30 11261 O 1065.9 0.43275 -1.74721 0
M  V30 11262 H 1062.28 -0.0931623 -0.746207 0
M  V30 11263 H 1064.25 -1.20095 -2.73166 0
M  V30 11264 C 1063 0.422435 -3.45124 0
M  V30 11265 H 1062.32 -0.256516 -3.98976 0
M  V30 11266 H 1063.76 0.766572 -4.17013 0
M  V30 11267 C 1062.22 1.62049 -2.95367 0
M  V30 11268 O 1062.75 2.71985 -2.95613 0
M  V30 11269 N 1060.95 1.45852 -2.51347 0
M  V30 11270 H 1060.5 0.564158 -2.51346 0
M  V30 11271 H 1060.46 2.26148 -2.18413 0
M  V30 11272 N 1064.23 1.43628 -0.648757 0
M  V30 11273 C 1065.48 2.02163 -0.160574 0
M  V30 11274 C 1065.81 1.51037 1.22072 0
M  V30 11275 O 1065.09 0.701633 1.81404 0
M  V30 11276 C 1065.37 3.59715 -0.166528 0
M  V30 11277 C 1065.22 4.21083 -1.58142 0
M  V30 11278 C 1066.54 4.37256 0.499485 0
M  V30 11279 H 1063.66 0.734568 -0.0598238 0
M  V30 11280 H 1066.3 1.70981 -0.828592 0
M  V30 11281 H 1064.45 3.86411 0.402302 0
M  V30 11282 H 1066.12 4.05433 -2.2005 0
M  V30 11283 H 1064.37 3.77904 -2.13005 0
M  V30 11284 H 1065.04 5.30156 -1.53748 0
M  V30 11285 H 1067.51 4.16097 0.0155561 0
M  V30 11286 H 1066.39 5.4693 0.464574 0
M  V30 11287 H 1066.65 4.13175 1.57286 0
M  V30 11288 N 1065.71 0.390394 1.52688 0
M  V30 11289 C 1066.96 -0.192697 2.00777 0
M  V30 11290 C 1067.27 -1.4781 1.28108 0
M  V30 11291 O 1068.48 -2.1413 1.66914 0
M  V30 11292 C 1066.93 -0.393955 3.57737 0
M  V30 11293 C 1066.54 0.878259 4.39307 0
M  V30 11294 C 1068.29 -0.933352 4.14112 0
M  V30 11295 C 1066.19 0.645218 5.8787 0
M  V30 11296 H 1065.12 -0.0757862 0.750182 0
M  V30 11297 H 1067.77 0.512961 1.76184 0
M  V30 11298 H 1066.16 -1.16149 3.78583 0
M  V30 11299 H 1067.33 1.65049 4.30227 0
M  V30 11300 H 1065.65 1.34269 3.94158 0
M  V30 11301 H 1068.24 -1.12343 5.22765 0
M  V30 11302 H 1068.59 -1.90272 3.70273 0
M  V30 11303 H 1069.12 -0.225361 3.97161 0
M  V30 11304 H 1065.86 1.58562 6.36033 0
M  V30 11305 H 1065.38 -0.0880609 5.99735 0
M  V30 11306 H 1067.06 0.280178 6.46393 0
M  V30 11307 N 1067.19 -1.57141 0.120249 0
M  V30 11308 C 1068.6 -1.82256 -0.404931 0
M  V30 11309 C 1068.95 -1.03748 -1.66526 0
M  V30 11310 O 1068.08 -0.274456 -2.14653 0
M  V30 11311 C 1068.67 -3.30588 -0.741431 0
M  V30 11312 C 1067.23 -3.56379 -1.21124 0
M  V30 11313 C 1066.38 -2.76421 -0.220569 0
M  V30 11314 H 1069.33 -1.54897 0.345361 0
M  V30 11315 H 1069.35 -3.45284 -1.59872 0
M  V30 11316 H 1068.86 -3.87701 0.176036 0
M  V30 11317 H 1066.96 -3.04625 -2.14556 0
M  V30 11318 H 1067.07 -4.64952 -1.1557 0
M  V30 11319 H 1065.44 -2.44666 -0.707857 0
M  V30 11320 H 1066.22 -3.36294 0.690018 0
M  V30 11321 N 1068.67 0.153526 -1.5685 0
M  V30 11322 C 1069.6 1.19162 -2.00805 0
M  V30 11323 C 1070.58 1.45172 -0.886518 0
M  V30 11324 O 1071.76 1.56203 -1.15387 0
M  V30 11325 C 1068.89 2.52637 -2.38311 0
M  V30 11326 C 1067.85 2.41161 -3.53589 0
M  V30 11327 C 1067.17 3.79287 -3.76889 0
M  V30 11328 C 1068.47 1.90122 -4.86468 0
M  V30 11329 H 1070.17 0.82617 -2.87776 0
M  V30 11330 H 1067.71 0.395972 -1.38449 0
M  V30 11331 H 1069.67 3.25478 -2.6766 0
M  V30 11332 H 1068.39 2.91005 -1.4827 0
M  V30 11333 H 1067.05 1.70772 -3.24395 0
M  V30 11334 H 1066.7 4.15079 -2.84109 0
M  V30 11335 H 1066.4 3.72472 -4.54465 0
M  V30 11336 H 1067.92 4.53687 -4.08657 0
M  V30 11337 H 1069.33 2.52752 -5.14577 0
M  V30 11338 H 1067.73 1.94214 -5.67804 0
M  V30 11339 H 1068.8 0.856517 -4.77275 0
M  V30 11340 N 1070.14 1.51827 0.422667 0
M  V30 11341 C 1071.09 1.74791 1.53463 0
M  V30 11342 C 1072.09 0.614602 1.57858 0
M  V30 11343 O 1073.29 0.796336 1.61426 0
M  V30 11344 H 1069.67 0.552524 0.510118 0
M  V30 11345 H 1071.64 2.67974 1.31273 0
M  V30 11346 C 1070.39 1.90339 2.90975 0
M  V30 11347 H 1069.71 2.76958 2.8833 0
M  V30 11348 H 1071.15 2.10413 3.68106 0
M  V30 11349 C 1069.61 0.66695 3.30232 0
M  V30 11350 O 1070.14 -0.171542 4.01334 0
M  V30 11351 N 1068.35 0.506768 2.86147 0
M  V30 11352 H 1067.89 1.19019 2.28456 0
M  V30 11353 H 1067.85 -0.319247 3.12775 0
M  V30 11354 N 1071.62 -0.679052 1.4222 0
M  V30 11355 C 1072.57 -1.81398 1.45594 0
M  V30 11356 C 1073.56 -1.66112 0.332127 0
M  V30 11357 O 1074.77 -1.72772 0.504942 0
M  V30 11358 H 1071.15 -0.598045 0.455902 0
M  V30 11359 H 1073.12 -1.7567 2.41211 0
M  V30 11360 C 1071.87 -3.19525 1.37109 0
M  V30 11361 H 1071.19 -3.31912 2.22878 0
M  V30 11362 H 1072.63 -3.98967 1.43531 0
M  V30 11363 C 1071.09 -3.36792 0.0853593 0
M  V30 11364 O 1071.62 -3.92309 -0.863532 0
M  V30 11365 N 1069.82 -2.906 0.00389229 0
M  V30 11366 H 1069.37 -2.45607 0.776846 0
M  V30 11367 H 1069.33 -3.0253 -0.855742 0
M  V30 11368 N 1073.1 -1.28322 -0.914942 0
M  V30 11369 C 1074.01 -1.13993 -2.05043 0
M  V30 11370 C 1075.03 -0.0667921 -1.73872 0
M  V30 11371 O 1076.2 -0.275845 -1.99502 0
M  V30 11372 C 1073.27 -0.801856 -3.373 0
M  V30 11373 C 1072.33 -1.95723 -3.82088 0
M  V30 11374 C 1071.56 -1.63519 -5.08033 0
M  V30 11375 O 1071.78 -0.54899 -5.67752 0
M  V30 11376 O 1070.72 -2.47844 -5.48504 0
M  V30 11377 H 1074.54 -2.09313 -2.2005 0
M  V30 11378 H 1072.13 -1.0763 -1.03616 0
M  V30 11379 H 1074.01 -0.627214 -4.16706 0
M  V30 11380 H 1072.69 0.121696 -3.23471 0
M  V30 11381 H 1071.59 -2.18702 -3.03514 0
M  V30 11382 H 1072.93 -2.86144 -4.00478 0
M  V30 11383 N 1074.58 1.12322 -1.10551 0
M  V30 11384 C 1075.51 2.17819 -0.713263 0
M  V30 11385 C 1076.52 1.6086 0.250604 0
M  V30 11386 O 1077.71 1.78466 0.0348909 0
M  V30 11387 C 1074.81 3.38885 -0.0320325 0
M  V30 11388 C 1073.99 4.25332 -1.02038 0
M  V30 11389 C 1073.04 5.24895 -0.370412 0
M  V30 11390 O 1072.07 5.59958 -1.02157 0
M  V30 11391 N 1073.27 5.73934 0.870633 0
M  V30 11392 H 1076.04 2.52083 -1.62094 0
M  V30 11393 H 1073.6 1.27755 -0.994492 0
M  V30 11394 H 1075.59 4.02574 0.414285 0
M  V30 11395 H 1074.16 3.02762 0.778072 0
M  V30 11396 H 1073.38 3.5824 -1.64492 0
M  V30 11397 H 1074.67 4.79936 -1.68936 0
M  V30 11398 H 1074.07 5.47614 1.419 0
M  V30 11399 H 1072.62 6.39504 1.26008 0
M  V30 11400 N 1076.06 0.894434 1.2976 0
M  V30 11401 C 1077.28 0.5322 2.00455 0
M  V30 11402 C 1077.71 -0.874427 1.66539 0
M  V30 11403 O 1077.06 -1.58113 0.887129 0
M  V30 11404 C 1077.11 0.725264 3.53231 0
M  V30 11405 O 1076.22 -0.224612 4.11788 0
M  V30 11406 H 1075.56 0.208562 0.630395 0
M  V30 11407 H 1078.09 1.20458 1.65382 0
M  V30 11408 H 1078.1 0.627889 4.0314 0
M  V30 11409 H 1076.77 1.75079 3.77253 0
M  V30 11410 H 1075.35 -0.0801361 3.72814 0
M  V30 11411 N 1077.53 -1.43282 0.656365 0
M  V30 11412 C 1078.76 -2.06641 0.177245 0
M  V30 11413 C 1079.18 -1.48893 -1.14946 0
M  V30 11414 O 1078.54 -0.600099 -1.7108 0
M  V30 11415 C 1078.59 -3.60453 0.10299 0
M  V30 11416 O 1077.69 -4.01687 -0.933895 0
M  V30 11417 H 1077.04 -0.656978 0.096314 0
M  V30 11418 H 1079.57 -1.83733 0.900178 0
M  V30 11419 H 1079.58 -4.07923 -0.079291 0
M  V30 11420 H 1078.25 -4.01861 1.07147 0
M  V30 11421 H 1076.83 -3.65801 -0.724148 0
M  V30 11422 N 1079.01 -0.398486 -1.52479 0
M  V30 11423 C 1080.26 0.180394 -2.01293 0
M  V30 11424 C 1080.58 1.46548 -1.28641 0
M  V30 11425 O 1079.85 1.91579 -0.409173 0
M  V30 11426 H 1078.43 0.0696528 -0.743746 0
M  V30 11427 H 1081.09 -0.532285 -1.87491 0
M  V30 11428 H 1080.19 0.38409 -3.09728 0
M  V30 11429 N 1080.49 1.57075 -0.12858 0
M  V30 11430 C 1081.9 1.82468 0.39526 0
M  V30 11431 C 1082.25 1.0463 1.65973 0
M  V30 11432 O 1081.38 0.285835 2.14504 0
M  V30 11433 C 1081.97 3.30976 0.723889 0
M  V30 11434 C 1080.53 3.57016 1.19232 0
M  V30 11435 C 1079.68 2.76534 0.205907 0
M  V30 11436 H 1082.63 1.54711 -0.353571 0
M  V30 11437 H 1082.65 3.46127 1.58039 0
M  V30 11438 H 1082.16 3.87602 -0.196595 0
M  V30 11439 H 1080.26 3.05758 2.12938 0
M  V30 11440 H 1080.38 4.65558 1.13103 0
M  V30 11441 H 1078.74 2.45038 0.694872 0
M  V30 11442 H 1079.52 3.35923 -0.707842 0
M  V30 11443 N 1081.97 -0.145205 1.5693 0
M  V30 11444 C 1083.22 -0.858786 1.83719 0
M  V30 11445 C 1083.55 -1.80738 0.710452 0
M  V30 11446 O 1082.82 -1.92389 -0.285791 0
M  V30 11447 C 1083.11 -1.6317 3.2101 0
M  V30 11448 C 1082.96 -0.704472 4.44249 0
M  V30 11449 C 1084.28 -2.59377 3.55544 0
M  V30 11450 H 1081.4 -0.310757 0.66828 0
M  V30 11451 H 1084.04 -0.123918 1.89595 0
M  V30 11452 H 1082.19 -2.25816 3.16132 0
M  V30 11453 H 1083.86 -0.08887 4.61214 0
M  V30 11454 H 1082.1 -0.0141693 4.33798 0
M  V30 11455 H 1082.78 -1.28135 5.36922 0
M  V30 11456 H 1085.25 -2.06848 3.61044 0
M  V30 11457 H 1084.13 -3.10506 4.52634 0
M  V30 11458 H 1084.39 -3.40819 2.81594 0
M  V30 11459 N 1083.45 -1.52049 -0.414609 0
M  V30 11460 C 1084.86 -1.58062 -0.993638 0
M  V30 11461 C 1085.21 -0.417795 -1.917 0
M  V30 11462 O 1084.33 0.462558 -2.11399 0
M  V30 11463 C 1084.93 -2.86471 -1.80886 0
M  V30 11464 C 1083.49 -2.94981 -2.33801 0
M  V30 11465 C 1082.64 -2.52949 -1.13631 0
M  V30 11466 H 1085.59 -1.57497 -0.19504 0
M  V30 11467 H 1085.61 -2.71515 -2.66571 0
M  V30 11468 H 1085.12 -3.71085 -1.13657 0
M  V30 11469 H 1083.22 -2.14849 -3.04419 0
M  V30 11470 H 1083.33 -3.99111 -2.65042 0
M  V30 11471 H 1081.7 -2.0667 -1.48861 0
M  V30 11472 H 1082.48 -3.39931 -0.479765 0
M  V30 11473 N 1084.93 0.6715 -1.42579 0
M  V30 11474 C 1085.84 1.81435 -1.48723 0
M  V30 11475 C 1086.85 1.69895 -0.375716 0
M  V30 11476 O 1088.03 1.91388 -0.627115 0
M  V30 11477 C 1085.09 3.17599 -1.39038 0
M  V30 11478 C 1084.15 3.41071 -2.60709 0
M  V30 11479 C 1083.39 4.7074 -2.51476 0
M  V30 11480 O 1083.61 5.48868 -1.55243 0
M  V30 11481 O 1082.54 4.95528 -3.41666 0
M  V30 11482 H 1086.37 1.79206 -2.45191 0
M  V30 11483 H 1083.95 0.827666 -1.24379 0
M  V30 11484 H 1085.84 3.98847 -1.3601 0
M  V30 11485 H 1084.51 3.20458 -0.456966 0
M  V30 11486 H 1083.42 2.59659 -2.69311 0
M  V30 11487 H 1084.75 3.43045 -3.5296 0
M  V30 11488 N 1086.4 1.28806 0.908124 0
M  V30 11489 C 1087.63 1.19153 1.69146 0
M  V30 11490 C 1088.05 -0.249056 1.8715 0
M  V30 11491 O 1087.4 -1.16772 1.40251 0
M  V30 11492 C 1087.45 1.89167 3.08055 0
M  V30 11493 O 1087.18 3.27599 2.90879 0
M  V30 11494 C 1088.68 1.85886 4.02444 0
M  V30 11495 H 1085.9 0.413359 0.528559 0
M  V30 11496 H 1088.44 1.7003 1.13622 0
M  V30 11497 H 1086.6 1.42146 3.60379 0
M  V30 11498 H 1087.01 3.62743 3.78837 0
M  V30 11499 H 1088.48 2.39454 4.97359 0
M  V30 11500 H 1088.96 0.832483 4.31238 0
M  V30 11501 H 1089.57 2.32612 3.5605 0
M  V30 11502 N 1087.88 -1.11734 1.11145 0
M  V30 11503 C 1089.13 -1.83677 0.859684 0
M  V30 11504 C 1089.46 -1.84265 -0.613182 0
M  V30 11505 O 1088.74 -1.29351 -1.45254 0
M  V30 11506 C 1089.02 -3.31003 1.41805 0
M  V30 11507 C 1088.87 -3.38827 2.95831 0
M  V30 11508 C 1090.19 -4.26984 1.06645 0
M  V30 11509 H 1087.31 -0.666879 0.313754 0
M  V30 11510 H 1089.95 -1.31038 1.37583 0
M  V30 11511 H 1088.1 -3.75961 0.979054 0
M  V30 11512 H 1089.77 -3.02451 3.48312 0
M  V30 11513 H 1088.02 -2.79143 3.32056 0
M  V30 11514 H 1088.69 -4.42508 3.29986 0
M  V30 11515 H 1091.16 -3.9019 1.44537 0
M  V30 11516 H 1090.04 -5.2846 1.48394 0
M  V30 11517 H 1090.3 -4.42094 -0.0231866 0
M  V30 11518 N 1089.36 -0.901303 -1.29284 0
M  V30 11519 C 1090.78 -0.597634 -1.47988 0
M  V30 11520 C 1090.98 0.860434 -1.82205 0
M  V30 11521 O 1090.03 1.64049 -1.91948 0
M  V30 11522 C 1091.34 -1.52484 -2.5917 0
M  V30 11523 C 1092.89 -1.53021 -2.73045 0
M  V30 11524 C 1093.37 -2.44373 -3.87357 0
M  V30 11525 N 1094.86 -2.42429 -3.94693 0
M  V30 11526 C 1095.59 -3.09817 -4.82495 0
M  V30 11527 N 1095.09 -3.86489 -5.74976 0
M  V30 11528 N 1096.88 -2.98966 -4.76 0
M  V30 11529 H 1089.03 -1.84432 -1.0535 0
M  V30 11530 H 1091.3 -0.790367 -0.523473 0
M  V30 11531 H 1091 -2.56378 -2.40756 0
M  V30 11532 H 1090.88 -1.24657 -3.56006 0
M  V30 11533 H 1093.26 -0.498709 -2.90855 0
M  V30 11534 H 1093.34 -1.84886 -1.76779 0
M  V30 11535 H 1092.99 -3.47618 -3.70302 0
M  V30 11536 H 1092.92 -2.09817 -4.82995 0
M  V30 11537 H 1095.41 -1.86724 -3.28546 0
M  V30 11538 H 1095.72 -4.34959 -6.38773 0
M  V30 11539 H 1094.07 -3.90596 -5.74857 0
M  V30 11540 H 1097.26 -2.38581 -4.02737 0
M  V30 11541 H 1097.43 -3.51758 -5.44215 0
M  V30 11542 N 1090.84 1.42931 -0.663954 0
M  V30 11543 C 1092.06 2.06544 -0.188201 0
M  V30 11544 C 1092.49 1.495 1.14155 0
M  V30 11545 O 1091.85 0.609164 1.7076 0
M  V30 11546 C 1091.89 3.60393 -0.122105 0
M  V30 11547 O 1091 4.02176 0.91258 0
M  V30 11548 H 1090.34 0.656458 -0.0997967 0
M  V30 11549 H 1092.87 1.83253 -0.909909 0
M  V30 11550 H 1092.88 4.07959 0.0576568 0
M  V30 11551 H 1091.55 4.01287 -1.09276 0
M  V30 11552 H 1090.13 3.6618 0.704738 0
M  V30 11553 N 1092.32 0.406567 1.52266 0
M  V30 11554 C 1093.55 -0.169378 2.05905 0
M  V30 11555 C 1093.95 -1.39626 1.27676 0
M  V30 11556 O 1093.3 -1.80871 0.32114 0
M  V30 11557 C 1093.36 -0.587209 3.54672 0
M  V30 11558 C 1093.02 0.528588 4.53933 0
M  V30 11559 C 1094.02 1.39137 5.00936 0
M  V30 11560 C 1091.7 0.700549 4.97391 0
M  V30 11561 C 1093.7 2.41108 5.90039 0
M  V30 11562 C 1091.39 1.72357 5.8629 0
M  V30 11563 C 1092.38 2.57725 6.32509 0
M  V30 11564 O 1092.07 3.58275 7.19649 0
M  V30 11565 H 1091.8 -0.0250574 0.675535 0
M  V30 11566 H 1094.36 0.575377 1.97177 0
M  V30 11567 H 1092.59 -1.38421 3.61077 0
M  V30 11568 H 1094.28 -1.09078 3.90969 0
M  V30 11569 H 1095.04 1.26991 4.68079 0
M  V30 11570 H 1090.92 0.0457503 4.60977 0
M  V30 11571 H 1094.47 3.07774 6.26036 0
M  V30 11572 H 1090.36 1.84535 6.1856 0
M  V30 11573 H 1091.13 3.54489 7.37753 0
M  V30 11574 N 1093.79 -1.57004 0.136909 0
M  V30 11575 C 1095.04 -1.95797 -0.516711 0
M  V30 11576 C 1095.37 -1.02123 -1.65533 0
M  V30 11577 O 1094.62 -0.0484835 -1.9564 0
M  V30 11578 C 1094.92 -3.40903 -1.07331 0
M  V30 11579 C 1094.59 -4.50867 -0.0541941 0
M  V30 11580 C 1093.25 -4.80669 0.225988 0
M  V30 11581 C 1095.6 -5.17264 0.639361 0
M  V30 11582 C 1092.93 -5.74177 1.2057 0
M  V30 11583 C 1095.28 -6.11827 1.60783 0
M  V30 11584 C 1093.95 -6.40012 1.89581 0
M  V30 11585 H 1093.22 -0.716471 -0.189078 0
M  V30 11586 H 1095.86 -1.90213 0.221605 0
M  V30 11587 H 1094.17 -3.43268 -1.88876 0
M  V30 11588 H 1095.87 -3.6824 -1.58745 0
M  V30 11589 H 1092.46 -4.27666 -0.282754 0
M  V30 11590 H 1096.64 -4.9438 0.436085 0
M  V30 11591 H 1091.9 -5.94312 1.43538 0
M  V30 11592 H 1096.07 -6.62354 2.15081 0
M  V30 11593 H 1093.7 -7.12274 2.65649 0
M  V30 11594 N 1095.27 0.136881 -1.57004 0
M  V30 11595 C 1096.68 0.695911 -1.73245 0
M  V30 11596 C 1097.03 1.8118 -0.75288 0
M  V30 11597 O 1096.16 2.16258 0.0782477 0
M  V30 11598 C 1096.75 1.26914 -3.14131 0
M  V30 11599 C 1095.31 1.77463 -3.31939 0
M  V30 11600 C 1094.46 0.667128 -2.69156 0
M  V30 11601 H 1097.41 -0.0888841 -1.58451 0
M  V30 11602 H 1097.43 2.13892 -3.14691 0
M  V30 11603 H 1096.94 0.456754 -3.85403 0
M  V30 11604 H 1095.05 2.61236 -2.65681 0
M  V30 11605 H 1095.16 1.89638 -4.39971 0
M  V30 11606 H 1093.52 1.09629 -2.29899 0
M  V30 11607 H 1094.31 -0.13398 -3.43038 0
M  V30 11608 N 1096.75 1.52266 0.40654 0
M  V30 11609 C 1097.66 1.78688 1.52012 0
M  V30 11610 C 1098.68 0.6726 1.60475 0
M  V30 11611 O 1099.85 0.95829 1.77141 0
M  V30 11612 C 1096.92 1.93434 2.87722 0
M  V30 11613 C 1095.98 3.17341 2.89125 0
M  V30 11614 C 1095.21 3.31374 4.18362 0
M  V30 11615 O 1095.43 2.50613 5.12396 0
M  V30 11616 O 1094.37 4.24539 4.26674 0
M  V30 11617 H 1098.19 2.73213 1.3262 0
M  V30 11618 H 1095.78 1.37142 0.592653 0
M  V30 11619 H 1097.66 2.04941 3.68208 0
M  V30 11620 H 1096.34 1.02099 3.07177 0
M  V30 11621 H 1095.24 3.1129 2.07483 0
M  V30 11622 H 1096.58 4.08466 2.7462 0
M  V30 11623 N 1098.23 -0.663929 1.42933 0
M  V30 11624 C 1099.46 -1.45192 1.474 0
M  V30 11625 C 1099.87 -1.88592 0.0886014 0
M  V30 11626 O 1099.23 -1.58824 -0.898962 0
M  V30 11627 C 1099.28 -2.69394 2.41059 0
M  V30 11628 O 1099 -2.27812 3.7421 0
M  V30 11629 C 1100.5 -3.62855 2.54659 0
M  V30 11630 H 1097.72 -0.446394 0.500973 0
M  V30 11631 H 1100.27 -0.814875 1.87563 0
M  V30 11632 H 1098.42 -3.29262 2.0412 0
M  V30 11633 H 1098.83 -3.08095 4.24474 0
M  V30 11634 H 1100.31 -4.46698 3.24291 0
M  V30 11635 H 1100.79 -4.09487 1.58799 0
M  V30 11636 H 1101.39 -3.08874 2.92364 0
M  V30 11637 N 1099.71 -1.29285 -0.901281 0
M  V30 11638 C 1100.95 -1.18348 -1.65424 0
M  V30 11639 C 1101.31 0.26276 -1.90597 0
M  V30 11640 O 1100.6 1.1868 -1.50418 0
M  V30 11641 C 1100.79 -1.92865 -3.00895 0
M  V30 11642 C 1100.62 -3.44588 -2.88945 0
M  V30 11643 C 1099.39 -4.13938 -2.89799 0
M  V30 11644 C 1101.59 -4.40113 -2.66092 0
M  V30 11645 N 1099.57 -5.52036 -2.68569 0
M  V30 11646 C 1100.94 -5.65661 -2.53827 0
M  V30 11647 C 1103 -4.29895 -2.51187 0
M  V30 11648 C 1101.7 -6.8215 -2.28175 0
M  V30 11649 C 1103.73 -5.46134 -2.26917 0
M  V30 11650 C 1103.09 -6.70653 -2.15416 0
M  V30 11651 H 1099.19 -0.48806 -0.611 0
M  V30 11652 H 1101.77 -1.63094 -1.06341 0
M  V30 11653 H 1099.94 -1.50535 -3.58042 0
M  V30 11654 H 1101.68 -1.74207 -3.65286 0
M  V30 11655 H 1098.43 -3.65625 -3.01023 0
M  V30 11656 H 1098.86 -6.24662 -2.61011 0
M  V30 11657 H 1103.5 -3.34321 -2.58823 0
M  V30 11658 H 1101.22 -7.77781 -2.19277 0
M  V30 11659 H 1104.8 -5.40126 -2.1623 0
M  V30 11660 H 1103.68 -7.5908 -1.96896 0
M  V30 11661 N 1101.18 1.11143 -1.11736 0
M  V30 11662 C 1102.43 1.82311 -0.862875 0
M  V30 11663 C 1102.75 1.85735 0.613326 0
M  V30 11664 O 1103.95 2.53034 0.984168 0
M  V30 11665 C 1102.41 3.27427 -1.49396 0
M  V30 11666 C 1102.02 3.32323 -3.00443 0
M  V30 11667 C 1103.76 4.03474 -1.31944 0
M  V30 11668 C 1101.67 4.71855 -3.56521 0
M  V30 11669 H 1100.6 0.683124 -0.31915 0
M  V30 11670 H 1103.25 1.25045 -1.34298 0
M  V30 11671 H 1101.63 3.84644 -0.941528 0
M  V30 11672 H 1102.8 2.84971 -3.62117 0
M  V30 11673 H 1101.12 2.69758 -3.17206 0
M  V30 11674 H 1103.72 5.06528 -1.71271 0
M  V30 11675 H 1104.06 4.15473 -0.262339 0
M  V30 11676 H 1104.59 3.52652 -1.84069 0
M  V30 11677 H 1101.33 4.65054 -4.61958 0
M  V30 11678 H 1100.85 5.19604 -2.99619 0
M  V30 11679 H 1102.53 5.40816 -3.55144 0
M  V30 11680 N 1102.66 0.908147 1.28804 0
M  V30 11681 C 1103.91 0.548635 1.95861 0
M  V30 11682 C 1104.26 -0.896789 1.70222 0
M  V30 11683 O 1103.56 -1.6285 1.00948 0
M  V30 11684 C 1103.75 0.787327 3.4862 0
M  V30 11685 C 1103.58 2.2544 3.8911 0
M  V30 11686 C 1102.35 2.90345 4.13555 0
M  V30 11687 C 1104.55 3.23034 4.00192 0
M  V30 11688 N 1102.53 4.27408 4.40676 0
M  V30 11689 C 1103.9 4.45242 4.31462 0
M  V30 11690 C 1105.96 3.18509 3.82696 0
M  V30 11691 C 1104.66 5.63498 4.47059 0
M  V30 11692 C 1106.68 4.36059 3.99508 0
M  V30 11693 C 1106.05 5.5704 4.31145 0
M  V30 11694 H 1102.15 0.250526 0.740784 0
M  V30 11695 H 1104.73 1.17071 1.55571 0
M  V30 11696 H 1102.9 0.194565 3.87912 0
M  V30 11697 H 1104.63 0.392407 4.02793 0
M  V30 11698 H 1101.39 2.411 4.07637 0
M  V30 11699 H 1101.81 4.98259 4.5833 0
M  V30 11700 H 1106.45 2.26058 3.57292 0
M  V30 11701 H 1104.17 6.56434 4.71296 0
M  V30 11702 H 1107.76 4.34054 3.87413 0
M  V30 11703 H 1106.64 6.46483 4.4388 0
M  V30 11704 N 1104.14 -1.42577 0.671525 0
M  V30 11705 C 1105.05 -2.34598 -0.00898225 0
M  V30 11706 C 1106.07 -1.54909 -0.792407 0
M  V30 11707 O 1107.24 -1.87491 -0.735477 0
M  V30 11708 C 1104.31 -3.33405 -0.950888 0
M  V30 11709 C 1103.37 -4.28993 -0.16236 0
M  V30 11710 C 1102.6 -5.2308 -1.0594 0
M  V30 11711 O 1102.82 -5.22022 -2.2989 0
M  V30 11712 O 1101.76 -5.99632 -0.521966 0
M  V30 11713 H 1105.58 -2.94321 0.748927 0
M  V30 11714 H 1103.17 -1.43025 0.43175 0
M  V30 11715 H 1105.05 -3.94115 -1.49169 0
M  V30 11716 H 1103.73 -2.7616 -1.68871 0
M  V30 11717 H 1102.63 -3.71707 0.42247 0
M  V30 11718 H 1103.97 -4.8927 0.536274 0
M  V30 11719 N 1105.62 -0.414636 -1.52048 0
M  V30 11720 C 1106.55 0.399119 -2.30064 0
M  V30 11721 C 1107.53 1.04126 -1.34506 0
M  V30 11722 O 1108.71 1.04923 -1.63416 0
M  V30 11723 C 1105.84 1.51305 -3.12608 0
M  V30 11724 C 1104.8 0.995621 -4.16259 0
M  V30 11725 C 1104.12 2.20357 -4.87183 0
M  V30 11726 C 1105.42 0.0458178 -5.2228 0
M  V30 11727 H 1107.12 -0.251879 -2.98339 0
M  V30 11728 H 1104.66 -0.122579 -1.43477 0
M  V30 11729 H 1106.62 2.08936 -3.65956 0
M  V30 11730 H 1105.34 2.19201 -2.42113 0
M  V30 11731 H 1104 0.441676 -3.6393 0
M  V30 11732 H 1103.65 2.8682 -4.13211 0
M  V30 11733 H 1103.35 1.86385 -5.57256 0
M  V30 11734 H 1104.87 2.78584 -5.43345 0
M  V30 11735 H 1106.29 0.531102 -5.70835 0
M  V30 11736 H 1104.68 -0.20536 -5.99749 0
M  V30 11737 H 1105.75 -0.897807 -4.76516 0
M  V30 11738 N 1107.1 1.56929 -0.145233 0
M  V30 11739 C 1108.34 1.96358 0.50707 0
M  V30 11740 C 1108.68 1.03005 1.64632 0
M  V30 11741 O 1107.95 0.0721045 1.94366 0
M  V30 11742 C 1108.23 3.45502 1.01492 0
M  V30 11743 C 1108.09 4.49633 -0.122708 0
M  V30 11744 C 1109.41 3.97103 1.89729 0
M  V30 11745 H 1106.52 0.713958 0.182848 0
M  V30 11746 H 1109.17 1.8865 -0.226102 0
M  V30 11747 H 1107.32 3.52202 1.6397 0
M  V30 11748 H 1108.99 4.55013 -0.758988 0
M  V30 11749 H 1107.23 4.26691 -0.782109 0
M  V30 11750 H 1107.9 5.51318 0.27432 0
M  V30 11751 H 1110.38 3.92871 1.37082 0
M  V30 11752 H 1109.25 5.01927 2.22173 0
M  V30 11753 H 1109.52 3.39354 2.83357 0
M  V30 11754 N 1108.58 -0.128553 1.57075 0
M  V30 11755 C 1109.54 -1.14215 1.98715 0
M  V30 11756 C 1110.54 -1.34843 0.876019 0
M  V30 11757 O 1111.73 -1.31522 1.14227 0
M  V30 11758 C 1108.86 -2.49865 2.31905 0
M  V30 11759 H 1110.05 -0.784481 2.89458 0
M  V30 11760 H 1107.61 -0.372531 1.51796 0
M  V30 11761 H 1108.34 -2.9057 1.44012 0
M  V30 11762 H 1108.13 -2.3625 3.12935 0
M  V30 11763 H 1109.62 -3.22832 2.64895 0
M  V30 11764 N 1110.05 -1.5248 -0.398459 0
M  V30 11765 C 1111.3 -1.67309 -1.1461 0
M  V30 11766 C 1111.63 -0.407095 -1.89885 0
M  V30 11767 O 1110.91 0.594834 -1.85181 0
M  V30 11768 C 1111.19 -2.90204 -2.13198 0
M  V30 11769 C 1111.04 -4.26881 -1.4175 0
M  V30 11770 C 1112.36 -3.08634 -3.13741 0
M  V30 11771 H 1109.48 -0.608853 -0.415292 0
M  V30 11772 H 1112.12 -1.85057 -0.430573 0
M  V30 11773 H 1110.27 -2.75204 -2.74218 0
M  V30 11774 H 1111.95 -4.53631 -0.837676 0
M  V30 11775 H 1110.19 -4.27793 -0.719387 0
M  V30 11776 H 1110.86 -5.08939 -2.1374 0
M  V30 11777 H 1113.34 -3.22603 -2.62805 0
M  V30 11778 H 1112.21 -3.96117 -3.79977 0
M  V30 11779 H 1112.47 -2.22425 -3.82073 0
M  V30 11780 N 1111.53 0.65634 -1.43283 0
M  V30 11781 C 1112.48 1.79058 -1.48462 0
M  V30 11782 C 1113.47 1.65563 -0.358512 0
M  V30 11783 O 1114.68 1.71947 -0.532365 0
M  V30 11784 H 1111.05 0.590716 -0.465358 0
M  V30 11785 H 1113.03 1.7181 -2.43975 0
M  V30 11786 C 1111.77 3.17304 -1.42175 0
M  V30 11787 H 1111.1 3.28324 -2.2813 0
M  V30 11788 H 1112.54 3.96633 -1.4986 0
M  V30 11789 C 1111 3.36613 -0.138929 0
M  V30 11790 O 1111.53 3.93633 0.80101 0
M  V30 11791 N 1109.73 2.90557 -0.0501237 0
M  V30 11792 H 1109.28 2.4434 -0.815821 0
M  V30 11793 H 1109.24 3.03853 0.807504 0
M  V30 11794 N 1113.01 1.29761 0.894412 0
M  V30 11795 C 1114.23 1.21064 1.68399 0
M  V30 11796 C 1114.66 -0.224608 1.86754 0
M  V30 11797 O 1114.02 -1.16199 1.39167 0
M  V30 11798 C 1114.07 1.93468 3.04306 0
M  V30 11799 O 1113.17 1.25533 3.9283 0
M  V30 11800 H 1112.51 0.419223 0.514925 0
M  V30 11801 H 1115.04 1.71421 1.11696 0
M  V30 11802 H 1115.05 2.02127 3.54413 0
M  V30 11803 H 1113.73 2.97857 2.90265 0
M  V30 11804 H 1112.3 1.25168 3.51266 0
M  V30 11805 N 1114.49 -1.10549 1.12324 0
M  V30 11806 C 1115.71 -1.8681 0.900927 0
M  V30 11807 C 1116.14 -1.80049 -0.54443 0
M  V30 11808 O 1115.5 -1.16957 -1.38531 0
M  V30 11809 C 1115.54 -3.33197 1.37883 0
M  V30 11810 O 1114.65 -4.08628 0.556529 0
M  V30 11811 H 1113.99 -0.579709 0.32378 0
M  V30 11812 H 1116.52 -1.39678 1.49503 0
M  V30 11813 H 1116.53 -3.84047 1.37739 0
M  V30 11814 H 1115.2 -3.37435 2.43127 0
M  V30 11815 H 1113.78 -3.67627 0.62486 0
M  V30 11816 N 1115.97 -0.914965 -1.28321 0
M  V30 11817 C 1117.21 -0.547665 -1.94538 0
M  V30 11818 C 1117.53 0.911834 -1.72368 0
M  V30 11819 O 1116.8 1.64481 -1.06408 0
M  V30 11820 H 1115.38 -0.199549 -0.719853 0
M  V30 11821 H 1118.05 -1.16459 -1.5628 0
M  V30 11822 H 1117.14 -0.743138 -3.03124 0
M  V30 11823 N 1117.44 1.42219 -0.679077 0
M  V30 11824 C 1118.69 2.01777 -0.20342 0
M  V30 11825 C 1119.02 1.53592 1.18841 0
M  V30 11826 O 1118.3 0.739954 1.79875 0
M  V30 11827 C 1118.58 3.59281 -0.242791 0
M  V30 11828 C 1118.43 4.17634 -1.67038 0
M  V30 11829 C 1119.75 4.38218 0.406624 0
M  V30 11830 H 1116.87 0.733134 -0.0753916 0
M  V30 11831 H 1119.51 1.69185 -0.864673 0
M  V30 11832 H 1117.66 3.87178 0.320248 0
M  V30 11833 H 1119.34 4.00674 -2.286 0
M  V30 11834 H 1117.58 3.73301 -2.20973 0
M  V30 11835 H 1118.25 5.26776 -1.64958 0
M  V30 11836 H 1120.73 4.16036 -0.0727077 0
M  V30 11837 H 1119.6 5.47793 0.348457 0
M  V30 11838 H 1119.86 4.16418 1.48487 0
M  V30 11839 N 1118.92 0.422693 1.51826 0
M  V30 11840 C 1119.88 -0.384307 2.25955 0
M  V30 11841 C 1120.88 -0.962184 1.28836 0
M  V30 11842 O 1122.07 -0.838931 1.52668 0
M  V30 11843 C 1119.21 -1.54228 3.04018 0
M  V30 11844 H 1120.4 0.265157 2.98726 0
M  V30 11845 H 1117.95 0.175515 1.55311 0
M  V30 11846 H 1118.69 -2.22822 2.35629 0
M  V30 11847 H 1118.47 -1.13425 3.75336 0
M  V30 11848 H 1119.96 -2.1128 3.60209 0
M  V30 11849 N 1120.4 -1.5685 0.153553 0
M  V30 11850 C 1121.31 -2.20664 -0.796528 0
M  V30 11851 C 1122.33 -1.19289 -1.26674 0
M  V30 11852 O 1123.5 -1.51889 -1.32256 0
M  V30 11853 C 1120.57 -2.82088 -2.01561 0
M  V30 11854 C 1119.63 -3.9861 -1.59401 0
M  V30 11855 C 1118.86 -4.57096 -2.75498 0
M  V30 11856 O 1119.08 -4.14462 -3.9189 0
M  V30 11857 O 1118.02 -5.47254 -2.50593 0
M  V30 11858 H 1121.84 -3.02376 -0.283282 0
M  V30 11859 H 1119.43 -1.49218 -0.0737927 0
M  V30 11860 H 1121.31 -3.21103 -2.72893 0
M  V30 11861 H 1119.99 -2.03385 -2.51826 0
M  V30 11862 H 1118.89 -3.64299 -0.850725 0
M  V30 11863 H 1120.23 -4.78853 -1.13845 0
M  V30 11864 N 1121.88 0.120221 -1.57141 0
M  V30 11865 C 1123.12 0.829449 -1.85062 0
M  V30 11866 C 1123.46 1.79585 -0.739116 0
M  V30 11867 O 1122.73 1.92819 0.255147 0
M  V30 11868 C 1123.01 1.58042 -3.23566 0
M  V30 11869 C 1122.87 0.633706 -4.45314 0
M  V30 11870 C 1124.19 2.53688 -3.59625 0
M  V30 11871 H 1121.31 0.300086 -0.67314 0
M  V30 11872 H 1123.95 0.0937393 -1.89769 0
M  V30 11873 H 1122.1 2.20758 -3.19684 0
M  V30 11874 H 1123.77 0.0154836 -4.61297 0
M  V30 11875 H 1122.01 -0.054846 -4.33765 0
M  V30 11876 H 1122.68 1.19577 -5.38893 0
M  V30 11877 H 1125.16 2.01078 -3.6429 0
M  V30 11878 H 1124.04 3.03265 -4.57516 0
M  V30 11879 H 1124.3 3.36296 -2.8698 0
M  V30 11880 N 1123.36 1.52689 0.390367 0
M  V30 11881 C 1124.6 1.67335 1.13329 0
M  V30 11882 C 1124.93 0.415068 1.90531 0
M  V30 11883 O 1124.2 -0.570504 1.87409 0
M  V30 11884 H 1122.78 0.616821 0.421356 0
M  V30 11885 H 1125.44 1.89799 0.443 0
M  V30 11886 H 1124.53 2.52314 1.83696 0
M  V30 11887 N 1124.83 -0.648732 1.43629 0
M  V30 11888 C 1126.08 -1.41066 1.45699 0
M  V30 11889 C 1126.41 -1.94024 0.082612 0
M  V30 11890 O 1125.69 -1.7257 -0.897207 0
M  V30 11891 C 1125.97 -2.58882 2.50304 0
M  V30 11892 C 1125.82 -2.11387 3.97033 0
M  V30 11893 C 1127.14 -3.61092 2.51597 0
M  V30 11894 H 1124.26 -0.511591 0.530512 0
M  V30 11895 H 1126.9 -0.735069 1.75205 0
M  V30 11896 H 1125.05 -3.16518 2.25274 0
M  V30 11897 H 1126.73 -1.58718 4.33136 0
M  V30 11898 H 1124.97 -1.4272 4.0965 0
M  V30 11899 H 1125.64 -2.96129 4.65845 0
M  V30 11900 H 1128.12 -3.13223 2.73917 0
M  V30 11901 H 1126.99 -4.41071 3.26722 0
M  V30 11902 H 1127.25 -4.13985 1.55141 0
M  V30 11903 N 1126.31 -1.30234 -0.887518 0
M  V30 11904 C 1127.54 -1.21829 -1.67229 0
M  V30 11905 C 1127.96 0.219251 -1.87523 0
M  V30 11906 O 1127.31 1.14526 -1.42091 0
M  V30 11907 C 1127.36 -1.94044 -3.05007 0
M  V30 11908 O 1127.08 -3.32185 -2.85631 0
M  V30 11909 C 1128.59 -1.92265 -3.99436 0
M  V30 11910 H 1125.81 -0.421716 -0.521916 0
M  V30 11911 H 1128.35 -1.71816 -1.10903 0
M  V30 11912 H 1126.5 -1.47861 -3.58072 0
M  V30 11913 H 1126.92 -3.68724 -3.73018 0
M  V30 11914 H 1128.39 -2.47336 -4.93486 0
M  V30 11915 H 1128.87 -0.900984 -4.29859 0
M  V30 11916 H 1129.48 -2.38247 -3.52305 0
M  V30 11917 N 1127.79 1.09952 -1.12909 0
M  V30 11918 C 1129.04 1.82286 -0.888797 0
M  V30 11919 C 1129.37 1.85218 0.58379 0
M  V30 11920 O 1128.64 1.31645 1.43177 0
M  V30 11921 C 1128.93 3.28706 -1.47053 0
M  V30 11922 C 1128.78 3.34078 -3.01184 0
M  V30 11923 C 1130.1 4.25233 -1.13424 0
M  V30 11924 H 1127.22 0.661803 -0.324324 0
M  V30 11925 H 1129.86 1.28833 -1.3965 0
M  V30 11926 H 1128.01 3.74356 -1.03874 0
M  V30 11927 H 1129.68 2.96871 -3.5308 0
M  V30 11928 H 1127.93 2.73825 -3.36455 0
M  V30 11929 H 1128.6 4.37202 -3.36984 0
M  V30 11930 H 1131.07 3.87841 -1.50726 0
M  V30 11931 H 1129.95 5.26033 -1.56783 0
M  V30 11932 H 1130.21 4.42075 -0.0471496 0
M  V30 11933 N 1129.27 0.921757 1.27833 0
M  V30 11934 C 1130.68 0.604496 1.76643 0
M  V30 11935 C 1131.03 -0.880294 1.75343 0
M  V30 11936 O 1130.16 -1.68875 1.35315 0
M  V30 11937 C 1130.75 1.09055 3.20768 0
M  V30 11938 C 1129.31 0.824066 3.67268 0
M  V30 11939 C 1128.46 1.25269 2.47392 0
M  V30 11940 H 1131.41 1.10217 1.14184 0
M  V30 11941 H 1131.43 0.435558 3.77999 0
M  V30 11942 H 1130.94 2.17122 3.21682 0
M  V30 11943 H 1129.04 -0.243055 3.71806 0
M  V30 11944 H 1129.15 1.43743 4.57028 0
M  V30 11945 H 1127.52 0.671313 2.45694 0
M  V30 11946 H 1128.3 2.34188 2.5102 0
M  V30 11947 N 1130.75 -1.41857 0.686609 0
M  V30 11948 C 1132.02 -1.95082 0.142228 0
M  V30 11949 C 1132.4 -1.62646 -1.34572 0
M  V30 11950 O 1131.75 -0.928757 -2.08773 0
M  V30 11951 C 1131.96 -3.46415 0.423955 0
M  V30 11952 C 1133.31 -4.23181 0.346842 0
M  V30 11953 O 1134.33 -3.54393 0.358363 0
M  V30 11954 O 1133.19 -5.4568 0.299211 0
M  V30 11955 H 1130.29 -0.826943 0.00974 0
M  V30 11956 H 1132.83 -1.51622 0.762153 0
M  V30 11957 H 1131.6 -3.63273 1.45424 0
M  V30 11958 H 1131.23 -3.96949 -0.227391 0
M  V30 11959 N 1132.22 -0.430739 -1.51599 0
M  V30 11960 C 1133.45 0.136797 -2.06447 0
M  V30 11961 C 1133.87 1.37027 -1.29881 0
M  V30 11962 O 1133.22 1.78983 -0.356543 0
M  V30 11963 C 1133.28 0.465637 -3.58489 0
M  V30 11964 O 1133 -0.718873 -4.32162 0
M  V30 11965 C 1134.5 1.08456 -4.29828 0
M  V30 11966 H 1131.72 0.0108468 -0.670912 0
M  V30 11967 H 1134.26 -0.607921 -1.95255 0
M  V30 11968 H 1132.42 1.16025 -3.69617 0
M  V30 11969 H 1132.83 -0.439195 -5.22658 0
M  V30 11970 H 1134.3 1.2647 -5.37317 0
M  V30 11971 H 1134.78 2.06376 -3.87693 0
M  V30 11972 H 1135.39 0.429525 -4.23125 0
M  V30 11973 N 1133.7 1.56767 -0.161869 0
M  V30 11974 C 1134.95 1.95769 0.485536 0
M  V30 11975 C 1135.26 1.05006 1.65025 0
M  V30 11976 O 1136.47 1.33649 2.36326 0
M  V30 11977 C 1134.93 3.4807 0.915176 0
M  V30 11978 C 1134.53 4.47443 -0.223416 0
M  V30 11979 C 1136.28 3.95909 1.53153 0
M  V30 11980 C 1134.19 5.90971 0.225325 0
M  V30 11981 H 1133.12 0.730911 0.185161 0
M  V30 11982 H 1135.77 1.81808 -0.248592 0
M  V30 11983 H 1134.15 3.57415 1.705 0
M  V30 11984 H 1135.32 4.49805 -1.00061 0
M  V30 11985 H 1133.64 4.09606 -0.749127 0
M  V30 11986 H 1136.23 5.00592 1.87915 0
M  V30 11987 H 1136.58 3.38307 2.42599 0
M  V30 11988 H 1137.11 3.89542 0.806322 0
M  V30 11989 H 1133.85 6.52426 -0.634124 0
M  V30 11990 H 1133.37 5.91936 0.96808 0
M  V30 11991 H 1135.05 6.43497 0.672373 0
M  V30 11992 N 1135.18 -0.111886 1.57202 0
M  V30 11993 C 1136.41 -0.832407 1.89416 0
M  V30 11994 C 1136.82 -1.73096 0.753861 0
M  V30 11995 O 1136.18 -1.80416 -0.274992 0
M  V30 11996 C 1136.23 -1.65988 3.21139 0
M  V30 11997 O 1135.95 -0.797485 4.3078 0
M  V30 11998 C 1137.45 -2.48493 3.67105 0
M  V30 11999 H 1134.67 -0.238919 0.627024 0
M  V30 12000 H 1137.22 -0.0941456 2.04283 0
M  V30 12001 H 1135.37 -2.35082 3.07921 0
M  V30 12002 H 1135.79 -1.36892 5.06321 0
M  V30 12003 H 1137.26 -3.02072 4.62014 0
M  V30 12004 H 1137.74 -3.26182 2.94112 0
M  V30 12005 H 1138.34 -1.84628 3.83135 0
M  V30 12006 N 1136.66 -1.52894 -0.382264 0
M  V30 12007 C 1137.57 -1.81084 -1.4915 0
M  V30 12008 C 1138.58 -0.698045 -1.59384 0
M  V30 12009 O 1139.76 -0.98635 -1.75594 0
M  V30 12010 C 1136.83 -1.97987 -2.84608 0
M  V30 12011 C 1135.89 -3.219 -2.8404 0
M  V30 12012 C 1135.12 -3.37988 -4.13037 0
M  V30 12013 O 1135.34 -2.58733 -5.08344 0
M  V30 12014 O 1134.28 -4.31273 -4.19866 0
M  V30 12015 H 1138.1 -2.75289 -1.28257 0
M  V30 12016 H 1135.69 -1.38068 -0.57076 0
M  V30 12017 H 1137.57 -2.10773 -3.64901 0
M  V30 12018 H 1136.24 -1.06972 -3.05514 0
M  V30 12019 H 1135.15 -3.14551 -2.02505 0
M  V30 12020 H 1136.48 -4.12783 -2.68087 0
M  V30 12021 N 1138.14 0.641106 -1.43971 0
M  V30 12022 C 1139.38 1.40118 -1.4744 0
M  V30 12023 C 1139.74 1.92131 -0.101647 0
M  V30 12024 O 1139.03 1.70112 0.881614 0
M  V30 12025 C 1139.23 2.59092 -2.46183 0
M  V30 12026 C 1139.05 2.18725 -3.92924 0
M  V30 12027 C 1137.82 2.06475 -4.6119 0
M  V30 12028 C 1140.02 1.78255 -4.82421 0
M  V30 12029 N 1138 1.59566 -5.928 0
M  V30 12030 C 1139.38 1.42517 -6.03398 0
M  V30 12031 C 1141.43 1.65546 -4.69573 0
M  V30 12032 C 1140.13 0.953428 -7.12953 0
M  V30 12033 C 1142.16 1.19776 -5.79144 0
M  V30 12034 C 1141.52 0.84983 -6.99255 0
M  V30 12035 H 1137.62 0.507917 -0.594596 0
M  V30 12036 H 1140.2 0.736517 -1.80232 0
M  V30 12037 H 1138.38 3.232 -2.15398 0
M  V30 12038 H 1140.11 3.25847 -2.40012 0
M  V30 12039 H 1136.86 2.26615 -4.15863 0
M  V30 12040 H 1137.29 1.38438 -6.62694 0
M  V30 12041 H 1141.93 1.91081 -3.77158 0
M  V30 12042 H 1139.65 0.68558 -8.05187 0
M  V30 12043 H 1143.23 1.10415 -5.71226 0
M  V30 12044 H 1142.11 0.501081 -7.82597 0
M  V30 12045 N 1139.62 1.30703 0.880598 0
M  V30 12046 C 1140.56 1.17455 1.98678 0
M  V30 12047 C 1141.53 0.0629569 1.65981 0
M  V30 12048 O 1142.72 0.233926 1.89361 0
M  V30 12049 C 1139.86 0.876882 3.33774 0
M  V30 12050 C 1138.97 2.07078 3.79134 0
M  V30 12051 C 1138.11 1.71082 5.02896 0
M  V30 12052 C 1137.14 2.86942 5.40676 0
M  V30 12053 N 1136.28 2.51212 6.55619 0
M  V30 12054 H 1141.12 2.12086 2.09341 0
M  V30 12055 H 1138.66 1.05514 1.02495 0
M  V30 12056 H 1140.62 0.684899 4.1154 0
M  V30 12057 H 1139.25 -0.0325633 3.22784 0
M  V30 12058 H 1138.3 2.37388 2.97239 0
M  V30 12059 H 1139.61 2.9383 4.0307 0
M  V30 12060 H 1138.76 1.48284 5.883 0
M  V30 12061 H 1137.5 0.815064 4.80841 0
M  V30 12062 H 1136.51 3.10401 4.53797 0
M  V30 12063 H 1137.73 3.77211 5.64703 0
M  V30 12064 H 1135.68 1.64147 6.35131 0
M  V30 12065 H 1135.6 3.31495 6.79446 0
M  V30 12066 H 1136.86 2.31781 7.44243 0
M  V30 12067 N 1141.09 -1.09351 1.1349 0
M  V30 12068 C 1142.06 -2.14185 0.815919 0
M  V30 12069 C 1143.06 -1.59845 -0.174976 0
M  V30 12070 O 1144.25 -1.74122 0.0521971 0
M  V30 12071 C 1141.38 -3.40224 0.214517 0
M  V30 12072 H 1142.57 -2.43913 1.74489 0
M  V30 12073 H 1140.12 -1.24902 0.939634 0
M  V30 12074 H 1140.86 -3.16123 -0.723634 0
M  V30 12075 H 1140.64 -3.80958 0.928102 0
M  V30 12076 H 1142.13 -4.17599 0.00821999 0
M  V30 12077 N 1142.57 -0.928524 -1.27343 0
M  V30 12078 C 1143.82 -0.568267 -1.93946 0
M  V30 12079 C 1144.14 0.893501 -1.73325 0
M  V30 12080 O 1143.41 1.63344 -1.08147 0
M  V30 12081 H 1141.99 -0.207173 -0.717696 0
M  V30 12082 H 1144.65 -1.1811 -1.55036 0
M  V30 12083 H 1143.75 -0.775246 -3.02318 0
M  V30 12084 N 1144.05 1.41491 -0.694123 0
M  V30 12085 C 1145.01 2.2917 -0.0368562 0
M  V30 12086 C 1146.01 1.44305 0.709426 0
M  V30 12087 O 1147.2 1.6547 0.544533 0
M  V30 12088 C 1144.33 3.27156 0.958201 0
M  V30 12089 H 1145.53 2.88787 -0.808829 0
M  V30 12090 H 1143.08 1.49453 -0.457538 0
M  V30 12091 H 1143.82 2.72516 1.75799 0
M  V30 12092 H 1143.6 3.89776 0.426227 0
M  V30 12093 H 1145.09 3.92863 1.41592 0
M  V30 12094 N 1145.53 0.438773 1.51369 0
M  V30 12095 C 1146.77 -0.127213 2.021 0
M  V30 12096 C 1147.1 -1.42587 1.32284 0
M  V30 12097 O 1146.36 -1.90986 0.426949 0
M  V30 12098 C 1146.66 -0.39186 3.55245 0
M  V30 12099 C 1146.32 0.821158 4.4336 0
M  V30 12100 C 1144.98 1.15381 4.67162 0
M  V30 12101 C 1147.34 1.6303 4.95046 0
M  V30 12102 C 1144.66 2.29626 5.39897 0
M  V30 12103 C 1147.02 2.76376 5.69033 0
M  V30 12104 C 1145.68 3.10094 5.91099 0
M  V30 12105 H 1144.95 -0.0465505 0.739536 0
M  V30 12106 H 1147.6 0.586261 1.82305 0
M  V30 12107 H 1145.9 -1.18724 3.73379 0
M  V30 12108 H 1147.6 -0.843228 3.92034 0
M  V30 12109 H 1144.19 0.551946 4.25031 0
M  V30 12110 H 1148.37 1.38651 4.76539 0
M  V30 12111 H 1143.63 2.56062 5.55196 0
M  V30 12112 H 1147.8 3.39442 6.08072 0
M  V30 12113 H 1145.43 3.98731 6.47238 0
M  V30 12114 N 1147.01 -1.56678 0.170181 0
M  V30 12115 C 1148.25 -1.98743 -0.477534 0
M  V30 12116 C 1148.61 -1.0538 -1.60497 0
M  V30 12117 O 1149.81 -1.3658 -2.31515 0
M  V30 12118 C 1148.08 -3.44565 -0.949186 0
M  V30 12119 S 1149.64 -4.08658 -1.59824 0
M  V30 12120 H 1146.46 -0.694202 -0.153639 0
M  V30 12121 H 1149.06 -1.93663 0.267373 0
M  V30 12122 H 1147.76 -4.1023 -0.118205 0
M  V30 12123 H 1147.3 -3.53409 -1.72816 0
M  V30 12124 H 1149.31 -4.03614 -2.88635 0
M  V30 12125 N 1148.48 0.103547 -1.57259 0
M  V30 12126 C 1149.41 1.12714 -2.04494 0
M  V30 12127 C 1150.39 1.42278 -0.932255 0
M  V30 12128 O 1151.58 1.52453 -1.20298 0
M  V30 12129 C 1148.71 2.44927 -2.46228 0
M  V30 12130 C 1147.66 2.2979 -3.61082 0
M  V30 12131 C 1146.99 3.67105 -3.88765 0
M  V30 12132 C 1148.29 1.7455 -4.9227 0
M  V30 12133 H 1149.98 0.734198 -2.90258 0
M  V30 12134 H 1147.53 0.351725 -1.39638 0
M  V30 12135 H 1149.48 3.16798 -2.77879 0
M  V30 12136 H 1148.21 2.8614 -1.57453 0
M  V30 12137 H 1146.87 1.60366 -3.29664 0
M  V30 12138 H 1146.51 4.05831 -2.97171 0
M  V30 12139 H 1146.21 3.57825 -4.66084 0
M  V30 12140 H 1147.74 4.40456 -4.22884 0
M  V30 12141 H 1149.15 2.36253 -5.22358 0
M  V30 12142 H 1147.55 1.76051 -5.73695 0
M  V30 12143 H 1148.62 0.704242 -4.79759 0
M  V30 12144 N 1149.96 1.53094 0.37415 0
M  V30 12145 C 1151.19 1.73061 1.143 0
M  V30 12146 C 1151.61 0.454611 1.82524 0
M  V30 12147 O 1150.97 -0.590743 1.71406 0
M  V30 12148 C 1151.02 2.89086 2.15549 0
M  V30 12149 O 1150.12 2.57096 3.22452 0
M  V30 12150 H 1149.46 0.575009 0.332055 0
M  V30 12151 H 1151.99 1.99946 0.433897 0
M  V30 12152 H 1152 3.15007 2.59296 0
M  V30 12153 H 1150.68 3.81647 1.65283 0
M  V30 12154 H 1149.25 2.41965 2.83738 0
M  V30 12155 N 1151.44 -0.633461 1.44309 0
M  V30 12156 C 1152.35 -1.77428 1.53481 0
M  V30 12157 C 1153.37 -1.68839 0.420628 0
M  V30 12158 O 1154.54 -1.89658 0.677638 0
M  V30 12159 C 1151.61 -3.13801 1.47409 0
M  V30 12160 C 1150.67 -3.34039 2.6966 0
M  V30 12161 C 1149.9 -4.63907 2.63868 0
M  V30 12162 O 1150.12 -5.44559 1.69741 0
M  V30 12163 O 1149.06 -4.86295 3.54684 0
M  V30 12164 H 1152.88 -1.72642 2.49857 0
M  V30 12165 H 1150.47 -0.794399 1.26529 0
M  V30 12166 H 1152.35 -3.95101 1.46537 0
M  V30 12167 H 1151.03 -3.19134 0.541769 0
M  V30 12168 H 1149.93 -2.52427 2.761 0
M  V30 12169 H 1151.27 -3.33566 3.61931 0
M  V30 12170 N 1152.92 -1.31168 -0.873655 0
M  V30 12171 C 1154.2 -1.11285 -1.60857 0
M  V30 12172 C 1154.58 0.333788 -2.08444 0
M  V30 12173 O 1153.92 1.32726 -1.86 0
M  V30 12174 C 1154.13 -2.12379 -2.7694 0
M  V30 12175 C 1155.48 -2.44704 -3.46994 0
M  V30 12176 O 1156.51 -2.10778 -2.87143 0
M  V30 12177 O 1155.36 -3.02786 -4.54954 0
M  V30 12178 H 1152.46 -0.428177 -0.707526 0
M  V30 12179 H 1155 -1.42634 -0.91944 0
M  V30 12180 H 1153.78 -3.09703 -2.39164 0
M  V30 12181 H 1153.4 -1.81914 -3.53544 0
M  V30 12182 N 1154.4 1.08748 -1.14068 0
M  V30 12183 C 1155.36 2.1375 -0.827266 0
M  V30 12184 C 1156.36 1.59936 0.166496 0
M  V30 12185 O 1157.55 1.74092 -0.0614305 0
M  V30 12186 C 1154.68 3.40106 -0.232557 0
M  V30 12187 H 1155.87 2.42985 -1.7578 0
M  V30 12188 H 1153.43 1.24402 -0.946244 0
M  V30 12189 H 1154.16 3.16503 0.706859 0
M  V30 12190 H 1153.95 3.8046 -0.948293 0
M  V30 12191 H 1155.44 4.17589 -0.0303662 0
M  V30 12192 N 1155.87 0.935264 1.26849 0
M  V30 12193 C 1157.12 0.578545 1.93642 0
M  V30 12194 C 1157.44 -0.884296 1.73796 0
M  V30 12195 O 1156.71 -1.62768 1.09011 0
M  V30 12196 H 1155.29 0.210976 0.716588 0
M  V30 12197 H 1157.96 1.1893 1.54407 0
M  V30 12198 H 1157.05 0.791268 3.01903 0
M  V30 12199 N 1157.35 -1.41121 0.701616 0
M  V30 12200 C 1158.28 -2.33436 0.0545974 0
M  V30 12201 C 1159.26 -1.52144 -0.760662 0
M  V30 12202 O 1160.45 -1.80661 -0.712414 0
M  V30 12203 C 1157.58 -3.36015 -0.878117 0
M  V30 12204 C 1156.53 -4.27664 -0.169511 0
M  V30 12205 C 1155.86 -5.20666 -1.21699 0
M  V30 12206 C 1157.16 -5.13254 0.967859 0
M  V30 12207 H 1158.85 -2.87791 0.825637 0
M  V30 12208 H 1156.4 -1.38377 0.398484 0
M  V30 12209 H 1158.35 -3.99526 -1.34004 0
M  V30 12210 H 1157.08 -2.80024 -1.68089 0
M  V30 12211 H 1155.73 -3.65586 0.272441 0
M  V30 12212 H 1155.38 -4.60987 -2.01246 0
M  V30 12213 H 1155.08 -5.82822 -0.747836 0
M  V30 12214 H 1156.61 -5.87053 -1.6793 0
M  V30 12215 H 1158.02 -5.70298 0.585944 0
M  V30 12216 H 1156.42 -5.84381 1.3645 0
M  V30 12217 H 1157.49 -4.5006 1.80483 0
M  V30 12218 N 1158.83 -0.446794 -1.51134 0
M  V30 12219 C 1160.08 0.116263 -2.01765 0
M  V30 12220 C 1160.4 1.42382 -1.33238 0
M  V30 12221 O 1159.67 1.9018 -0.469915 0
M  V30 12222 H 1158.25 0.0459558 -0.745585 0
M  V30 12223 H 1160.91 -0.591664 -1.85702 0
M  V30 12224 H 1160.01 0.285358 -3.10793 0
M  V30 12225 N 1160.31 1.56586 -0.178487 0
M  V30 12226 C 1161.56 1.96273 0.464745 0
M  V30 12227 C 1161.87 1.0675 1.63902 0
M  V30 12228 O 1163.08 1.36148 2.34896 0
M  V30 12229 C 1161.53 3.49021 0.878207 0
M  V30 12230 C 1161.14 4.4718 -0.270861 0
M  V30 12231 C 1162.88 3.97512 1.48946 0
M  V30 12232 C 1160.79 5.91176 0.162632 0
M  V30 12233 H 1159.72 0.732834 0.177398 0
M  V30 12234 H 1162.37 1.81534 -0.267861 0
M  V30 12235 H 1160.75 3.59203 1.667 0
M  V30 12236 H 1161.93 4.48718 -1.04826 0
M  V30 12237 H 1160.24 4.08788 -0.792529 0
M  V30 12238 H 1162.84 5.02556 1.82595 0
M  V30 12239 H 1163.18 3.40861 2.38997 0
M  V30 12240 H 1163.72 3.90376 0.76496 0
M  V30 12241 H 1160.46 6.51716 -0.703286 0
M  V30 12242 H 1159.98 5.9293 0.905243 0
M  V30 12243 H 1161.65 6.44174 0.604084 0
M  V30 12244 N 1161.79 -0.095206 1.57312 0
M  V30 12245 C 1163.01 -0.81614 1.90667 0
M  V30 12246 C 1163.44 -1.71494 0.772746 0
M  V30 12247 O 1162.79 -1.79192 -0.275682 0
M  V30 12248 C 1162.84 -1.60555 3.22885 0
M  V30 12249 O 1161.95 -2.71448 3.10467 0
M  V30 12250 H 1161.29 -0.224217 0.624998 0
M  V30 12251 H 1163.82 -0.070464 2.04479 0
M  V30 12252 H 1163.83 -1.98979 3.5619 0
M  V30 12253 H 1162.5 -0.945918 4.05 0
M  V30 12254 H 1161.08 -2.36053 2.88675 0
M  V30 12255 N 1163.26 -1.53291 -0.366026 0
M  V30 12256 C 1164.49 -1.73665 -1.13381 0
M  V30 12257 C 1164.91 -0.464284 -1.8228 0
M  V30 12258 O 1164.27 0.581645 -1.71717 0
M  V30 12259 C 1164.32 -2.90225 -2.14013 0
M  V30 12260 O 1163.42 -2.58803 -3.21084 0
M  V30 12261 H 1162.77 -0.576762 -0.329 0
M  V30 12262 H 1165.3 -2.00174 -0.423287 0
M  V30 12263 H 1165.31 -3.16378 -2.57622 0
M  V30 12264 H 1163.98 -3.82518 -1.63257 0
M  V30 12265 H 1162.56 -2.43466 -2.82451 0
M  V30 12266 N 1164.74 0.6258 -1.44643 0
M  V30 12267 C 1165.97 1.41233 -1.51198 0
M  V30 12268 C 1166.39 1.88291 -0.138572 0
M  V30 12269 O 1165.74 1.61151 0.856537 0
M  V30 12270 C 1165.79 2.62908 -2.48117 0
M  V30 12271 O 1165.51 2.1781 -3.80119 0
M  V30 12272 C 1167.02 3.55976 -2.6419 0
M  V30 12273 H 1164.24 0.432954 -0.512632 0
M  V30 12274 H 1166.78 0.76486 -1.89658 0
M  V30 12275 H 1164.93 3.23735 -2.12778 0
M  V30 12276 H 1165.35 2.96732 -4.32493 0
M  V30 12277 H 1166.82 4.37943 -3.3602 0
M  V30 12278 H 1167.3 4.05133 -1.696 0
M  V30 12279 H 1167.91 3.01014 -3.00451 0
M  V30 12280 N 1166.22 1.31629 0.866686 0
M  V30 12281 C 1167.18 1.1951 1.95576 0
M  V30 12282 C 1168.18 0.121319 1.60342 0
M  V30 12283 O 1169.37 0.370832 1.70207 0
M  V30 12284 C 1166.51 0.835201 3.30511 0
M  V30 12285 H 1167.7 2.16285 2.07752 0
M  V30 12286 H 1165.25 1.15288 1.05539 0
M  V30 12287 H 1165.99 -0.131245 3.24034 0
M  V30 12288 H 1165.77 1.61142 3.57457 0
M  V30 12289 H 1167.26 0.774393 4.10357 0
M  V30 12290 N 1167.7 -1.08142 1.14644 0
M  V30 12291 C 1168.92 -1.84857 0.940349 0
M  V30 12292 C 1169.35 -1.81163 -0.506117 0
M  V30 12293 O 1168.71 -1.19869 -1.36019 0
M  V30 12294 C 1168.76 -3.30198 1.4492 0
M  V30 12295 O 1167.86 -4.07355 0.64308 0
M  V30 12296 H 1167.2 -0.572711 0.336003 0
M  V30 12297 H 1169.73 -1.36475 1.52432 0
M  V30 12298 H 1169.74 -3.81039 1.45854 0
M  V30 12299 H 1168.42 -3.32202 2.50229 0
M  V30 12300 H 1166.99 -3.66219 0.702698 0
M  V30 12301 N 1169.18 -0.941978 -1.26351 0
M  V30 12302 C 1170.11 -0.469913 -2.28723 0
M  V30 12303 C 1171.09 0.477218 -1.63269 0
M  V30 12304 O 1172.27 0.378902 -1.90468 0
M  V30 12305 C 1169.4 0.264971 -3.46288 0
M  V30 12306 C 1168.36 -0.595682 -4.23834 0
M  V30 12307 C 1167.68 0.269208 -5.34022 0
M  V30 12308 C 1168.98 -1.86743 -4.87775 0
M  V30 12309 H 1170.68 -1.32551 -2.6846 0
M  V30 12310 H 1168.22 -0.638809 -1.29055 0
M  V30 12311 H 1170.18 0.606259 -4.17016 0
M  V30 12312 H 1168.9 1.15471 -3.05506 0
M  V30 12313 H 1167.56 -0.919875 -3.54872 0
M  V30 12314 H 1167.21 1.15832 -4.89481 0
M  V30 12315 H 1166.91 -0.30325 -5.86817 0
M  V30 12316 H 1168.43 0.605748 -6.07588 0
M  V30 12317 H 1169.85 -1.59333 -5.50714 0
M  V30 12318 H 1168.24 -2.38452 -5.50691 0
M  V30 12319 H 1169.31 -2.57831 -4.10671 0
M  V30 12320 N 1170.66 1.40747 -0.709091 0
M  V30 12321 C 1172.07 1.54961 -0.381989 0
M  V30 12322 C 1172.27 1.68181 1.10985 0
M  V30 12323 O 1171.33 1.66776 1.89584 0
M  V30 12324 C 1172.64 2.78156 -1.14236 0
M  V30 12325 C 1174.19 2.91967 -1.12803 0
M  V30 12326 C 1174.66 4.18066 -1.87042 0
M  V30 12327 N 1176.15 4.25052 -1.84078 0
M  V30 12328 C 1176.89 5.21514 -2.38349 0
M  V30 12329 N 1176.39 6.23924 -3.01149 0
M  V30 12330 N 1178.18 5.13548 -2.28528 0
M  V30 12331 H 1170.33 1.30412 -1.6765 0
M  V30 12332 H 1172.59 0.630147 -0.70825 0
M  V30 12333 H 1172.3 2.74643 -2.19691 0
M  V30 12334 H 1172.17 3.70074 -0.729731 0
M  V30 12335 H 1174.56 2.94987 -0.0816956 0
M  V30 12336 H 1174.64 2.01185 -1.57982 0
M  V30 12337 H 1174.28 4.15808 -2.91662 0
M  V30 12338 H 1174.21 5.07845 -1.39287 0
M  V30 12339 H 1176.71 3.51682 -1.38305 0
M  V30 12340 H 1177.02 6.93942 -3.40094 0
M  V30 12341 H 1175.36 6.24387 -3.05231 0
M  V30 12342 H 1178.55 4.3247 -1.79129 0
M  V30 12343 H 1178.73 5.88553 -2.71126 0
M  V30 12344 N 1172.13 0.454803 1.50895 0
M  V30 12345 C 1173.1 -0.336293 2.26719 0
M  V30 12346 C 1174.1 -0.93464 1.30848 0
M  V30 12347 O 1175.29 -0.80636 1.54413 0
M  V30 12348 C 1172.42 -1.47744 3.07221 0
M  V30 12349 H 1173.61 0.328462 2.98096 0
M  V30 12350 H 1171.16 0.208419 1.54904 0
M  V30 12351 H 1171.9 -2.17773 2.40302 0
M  V30 12352 H 1171.68 -1.05438 3.77658 0
M  V30 12353 H 1173.17 -2.03592 3.6461 0
M  V30 12354 N 1173.61 -1.56489 0.186789 0
M  V30 12355 C 1174.86 -1.97341 -0.454158 0
M  V30 12356 C 1175.19 -1.07337 -1.622 0
M  V30 12357 O 1174.44 -0.1107 -1.95387 0
M  V30 12358 C 1174.74 -3.44145 -0.964315 0
M  V30 12359 C 1174.41 -4.50812 0.0892734 0
M  V30 12360 C 1173.07 -4.79707 0.378794 0
M  V30 12361 C 1175.42 -5.14968 0.8036 0
M  V30 12362 C 1172.75 -5.70051 1.38776 0
M  V30 12363 C 1175.1 -6.06402 1.80166 0
M  V30 12364 C 1173.76 -6.33657 2.09847 0
M  V30 12365 H 1173.03 -0.722124 -0.166188 0
M  V30 12366 H 1175.68 -1.89412 0.282008 0
M  V30 12367 H 1173.99 -3.49103 -1.7786 0
M  V30 12368 H 1175.68 -3.73104 -1.4695 0
M  V30 12369 H 1172.27 -4.28349 -0.146552 0
M  V30 12370 H 1176.46 -4.92743 0.593147 0
M  V30 12371 H 1171.71 -5.89445 1.62373 0
M  V30 12372 H 1175.89 -6.55176 2.36045 0
M  V30 12373 H 1173.51 -7.03462 2.88175 0
M  V30 12374 N 1175.09 0.086862 -1.5736 0
M  V30 12375 C 1176.02 1.13117 -1.99342 0
M  V30 12376 C 1177.03 1.35849 -0.897151 0
M  V30 12377 O 1178.22 1.34356 -1.17519 0
M  V30 12378 C 1175.32 2.48511 -2.30425 0
M  V30 12379 C 1174.5 2.45942 -3.61706 0
M  V30 12380 C 1173.56 3.63327 -3.80631 0
M  V30 12381 O 1172.58 3.45443 -4.52392 0
M  V30 12382 N 1173.78 4.83118 -3.21835 0
M  V30 12383 H 1176.55 0.773782 -2.89539 0
M  V30 12384 H 1174.11 0.275731 -1.59535 0
M  V30 12385 H 1176.1 3.25656 -2.40272 0
M  V30 12386 H 1174.67 2.76308 -1.46194 0
M  V30 12387 H 1173.89 1.54287 -3.62752 0
M  V30 12388 H 1175.18 2.41313 -4.47935 0
M  V30 12389 H 1174.58 5.00552 -2.6356 0
M  V30 12390 H 1173.13 5.57827 -3.37154 0
M  V30 12391 N 1176.57 1.53483 0.357892 0
M  V30 12392 C 1177.98 1.61641 0.934289 0
M  V30 12393 C 1178.33 0.488655 1.90017 0
M  V30 12394 O 1177.45 -0.38378 2.1297 0
M  V30 12395 C 1178.05 2.92987 1.7013 0
M  V30 12396 C 1176.61 3.03456 2.22692 0
M  V30 12397 C 1175.76 2.56992 1.04165 0
M  V30 12398 H 1178.71 1.58112 0.136452 0
M  V30 12399 H 1178.73 2.81221 2.5631 0
M  V30 12400 H 1178.24 3.75047 0.998056 0
M  V30 12401 H 1176.34 2.25999 2.96235 0
M  V30 12402 H 1176.45 4.08673 2.50046 0
M  V30 12403 H 1174.82 2.12052 1.41088 0
M  V30 12404 H 1175.6 3.41477 0.353272 0
M  V30 12405 N 1178.05 -0.61812 1.44973 0
M  V30 12406 C 1179.29 -1.3774 1.48439 0
M  V30 12407 C 1179.62 -1.94117 0.121999 0
M  V30 12408 O 1178.88 -1.749 -0.877974 0
M  V30 12409 C 1179.17 -2.55143 2.50274 0
M  V30 12410 C 1178.84 -2.16976 3.95262 0
M  V30 12411 C 1177.5 -2.06281 4.34743 0
M  V30 12412 C 1179.85 -1.8703 4.86486 0
M  V30 12413 C 1177.18 -1.63846 5.63357 0
M  V30 12414 C 1179.53 -1.46085 6.15501 0
M  V30 12415 C 1178.2 -1.3394 6.53924 0
M  V30 12416 H 1177.47 -0.504026 0.543175 0
M  V30 12417 H 1180.12 -0.699685 1.7826 0
M  V30 12418 H 1178.42 -3.28205 2.13983 0
M  V30 12419 H 1180.12 -3.13373 2.50197 0
M  V30 12420 H 1176.71 -2.26223 3.64034 0
M  V30 12421 H 1180.89 -1.94196 4.56729 0
M  V30 12422 H 1176.15 -1.53058 5.91932 0
M  V30 12423 H 1180.32 -1.21956 6.85638 0
M  V30 12424 H 1177.95 -1.00832 7.53483 0
M  V30 12425 N 1179.52 -1.32087 -0.859693 0
M  V30 12426 C 1180.77 -1.2236 -1.61351 0
M  V30 12427 C 1181.1 0.215796 -1.93299 0
M  V30 12428 O 1180.35 1.16742 -1.57066 0
M  V30 12429 C 1180.65 -2.0234 -2.94607 0
M  V30 12430 C 1180.32 -3.51746 -2.82109 0
M  V30 12431 C 1178.98 -3.92482 -2.78408 0
M  V30 12432 C 1181.33 -4.46776 -2.68403 0
M  V30 12433 C 1178.66 -5.265 -2.58873 0
M  V30 12434 C 1181.01 -5.80931 -2.50404 0
M  V30 12435 C 1179.68 -6.20875 -2.45092 0
M  V30 12436 H 1178.95 -0.447748 -0.590426 0
M  V30 12437 H 1181.59 -1.63461 -0.997637 0
M  V30 12438 H 1179.9 -1.53952 -3.60286 0
M  V30 12439 H 1181.6 -1.92187 -3.51945 0
M  V30 12440 H 1178.19 -3.19389 -2.85812 0
M  V30 12441 H 1182.37 -4.16228 -2.70311 0
M  V30 12442 H 1177.63 -5.5651 -2.53192 0
M  V30 12443 H 1181.8 -6.54185 -2.38777 0
M  V30 12444 H 1179.43 -7.24662 -2.29714 0
M  V30 12445 N 1181 1.07532 -1.15215 0
M  V30 12446 C 1182.25 1.8036 -0.927263 0
M  V30 12447 C 1182.58 1.86414 0.544371 0
M  V30 12448 O 1181.86 1.34653 1.40353 0
M  V30 12449 C 1182.14 3.25512 -1.53992 0
M  V30 12450 C 1181.99 3.27614 -3.08203 0
M  V30 12451 C 1183.31 4.22731 -1.22418 0
M  V30 12452 H 1180.43 0.654775 -0.338289 0
M  V30 12453 H 1183.07 1.25842 -1.42351 0
M  V30 12454 H 1181.22 3.72068 -1.11791 0
M  V30 12455 H 1182.89 2.89315 -3.59297 0
M  V30 12456 H 1181.14 2.66627 -3.42188 0
M  V30 12457 H 1181.81 4.29956 -3.46182 0
M  V30 12458 H 1184.28 3.84557 -1.58919 0
M  V30 12459 H 1183.16 5.22589 -1.67906 0
M  V30 12460 H 1183.42 4.41875 -0.14091 0
M  V30 12461 N 1182.48 0.948665 1.2585 0
M  V30 12462 C 1183.39 0.470525 2.29833 0
M  V30 12463 C 1184.41 -0.45919 1.67832 0
M  V30 12464 O 1185.58 -0.336893 1.98562 0
M  V30 12465 C 1182.65 -0.249635 3.458 0
M  V30 12466 C 1181.71 0.717559 4.23261 0
M  V30 12467 C 1180.94 0.0316724 5.33691 0
M  V30 12468 O 1181.16 -1.18384 5.5798 0
M  V30 12469 O 1180.1 0.71418 5.97648 0
M  V30 12470 H 1183.92 1.33447 2.72811 0
M  V30 12471 H 1181.51 0.714864 1.31187 0
M  V30 12472 H 1183.39 -0.654993 4.16279 0
M  V30 12473 H 1182.07 -1.08885 3.04837 0
M  V30 12474 H 1180.97 1.17301 3.55234 0
M  V30 12475 H 1182.31 1.52461 4.67992 0
M  V30 12476 N 1183.96 -1.40369 0.716545 0
M  V30 12477 C 1184.89 -2.33365 0.0793533 0
M  V30 12478 C 1185.87 -1.52943 -0.744482 0
M  V30 12479 O 1187.05 -1.81406 -0.693212 0
M  V30 12480 C 1184.18 -3.36928 -0.842429 0
M  V30 12481 C 1183.14 -4.2782 -0.124142 0
M  V30 12482 C 1182.46 -5.21928 -1.1617 0
M  V30 12483 C 1183.76 -5.12199 1.02224 0
M  V30 12484 H 1185.46 -2.86899 0.856115 0
M  V30 12485 H 1183 -1.37946 0.413138 0
M  V30 12486 H 1184.96 -4.00925 -1.29759 0
M  V30 12487 H 1183.68 -2.81791 -1.6511 0
M  V30 12488 H 1182.34 -3.65277 0.311201 0
M  V30 12489 H 1181.99 -4.63096 -1.96345 0
M  V30 12490 H 1181.69 -5.83582 -0.685978 0
M  V30 12491 H 1183.21 -5.88802 -1.61694 0
M  V30 12492 H 1184.63 -5.69644 0.646399 0
M  V30 12493 H 1183.02 -5.82901 1.4264 0
M  V30 12494 H 1184.09 -4.4812 1.85246 0
M  V30 12495 N 1185.44 -0.462799 -1.50652 0
M  V30 12496 C 1186.66 0.0929761 -2.06691 0
M  V30 12497 C 1187.08 1.34241 -1.32758 0
M  V30 12498 O 1186.44 1.78187 -0.394427 0
M  V30 12499 C 1186.49 0.389492 -3.59396 0
M  V30 12500 O 1186.21 -0.810379 -4.3054 0
M  V30 12501 C 1187.71 0.993147 -4.32032 0
M  V30 12502 H 1184.93 -0.00338664 -0.670991 0
M  V30 12503 H 1187.47 -0.649201 -1.93922 0
M  V30 12504 H 1185.63 1.08159 -3.71995 0
M  V30 12505 H 1186.04 -0.54996 -5.21609 0
M  V30 12506 H 1187.52 1.15044 -5.39878 0
M  V30 12507 H 1187.99 1.98106 -3.91983 0
M  V30 12508 H 1188.6 0.339677 -4.23941 0
M  V30 12509 N 1186.91 1.56388 -0.195085 0
M  V30 12510 C 1187.85 2.14992 0.765096 0
M  V30 12511 C 1188.83 1.08663 1.20959 0
M  V30 12512 O 1190.01 1.36775 1.29711 0
M  V30 12513 C 1187.14 2.7088 2.03327 0
M  V30 12514 C 1186.18 3.89797 1.7309 0
M  V30 12515 S 1187.02 5.28236 0.879025 0
M  V30 12516 C 1188.17 5.87545 2.15734 0
M  V30 12517 H 1188.4 2.961 0.266902 0
M  V30 12518 H 1185.94 1.54387 0.0199116 0
M  V30 12519 H 1187.9 3.03723 2.76157 0
M  V30 12520 H 1186.56 1.89814 2.50259 0
M  V30 12521 H 1185.75 4.27312 2.67246 0
M  V30 12522 H 1185.35 3.57964 1.08342 0
M  V30 12523 H 1187.64 6.01907 3.10989 0
M  V30 12524 H 1188.59 6.84137 1.82652 0
M  V30 12525 H 1188.99 5.16151 2.2858 0
M  V30 12526 N 1188.39 -0.0785156 1.57404 0
M  V30 12527 C 1189.8 -0.631132 1.75709 0
M  V30 12528 C 1190.15 -1.78261 0.819605 0
M  V30 12529 O 1189.28 -2.164 0.00206912 0
M  V30 12530 C 1189.87 -1.15168 3.18625 0
M  V30 12531 C 1188.43 -1.65021 3.38297 0
M  V30 12532 C 1187.58 -0.566773 2.71446 0
M  V30 12533 H 1190.53 0.147631 1.58012 0
M  V30 12534 H 1190.55 -2.02065 3.22413 0
M  V30 12535 H 1190.06 -0.313399 3.86833 0
M  V30 12536 H 1188.17 -2.51196 2.75194 0
M  V30 12537 H 1188.28 -1.73179 4.46706 0
M  V30 12538 H 1186.64 -1.01021 2.33809 0
M  V30 12539 H 1187.43 0.261204 3.42305 0
M  V30 12540 N 1189.87 -1.5367 -0.349747 0
M  V30 12541 C 1191.1 -1.74294 -1.10928 0
M  V30 12542 C 1191.51 -0.479102 -1.83033 0
M  V30 12543 O 1190.85 0.558621 -1.75 0
M  V30 12544 C 1190.91 -2.86457 -2.17216 0
M  V30 12545 C 1190.58 -4.26274 -1.6474 0
M  V30 12546 C 1191.57 -5.08065 -1.10302 0
M  V30 12547 C 1189.26 -4.72739 -1.69774 0
M  V30 12548 C 1191.25 -6.34417 -0.615938 0
M  V30 12549 C 1188.94 -5.99066 -1.20678 0
M  V30 12550 C 1189.94 -6.79737 -0.6668 0
M  V30 12551 O 1189.63 -8.03691 -0.183143 0
M  V30 12552 H 1189.36 -0.586046 -0.336937 0
M  V30 12553 H 1191.91 -2.01274 -0.409645 0
M  V30 12554 H 1190.14 -2.54988 -2.9072 0
M  V30 12555 H 1191.83 -2.95109 -2.78686 0
M  V30 12556 H 1192.6 -4.73333 -1.05739 0
M  V30 12557 H 1188.48 -4.1001 -2.10744 0
M  V30 12558 H 1192.02 -6.97331 -0.193795 0
M  V30 12559 H 1187.92 -6.33293 -1.24939 0
M  V30 12560 H 1188.69 -8.17946 -0.301008 0
M  V30 12561 N 1191.35 0.610423 -1.45298 0
M  V30 12562 C 1192.57 1.40112 -1.52917 0
M  V30 12563 C 1193 1.87404 -0.161696 0
M  V30 12564 O 1192.36 1.59973 0.853135 0
M  V30 12565 C 1192.4 2.58359 -2.51561 0
M  V30 12566 O 1191.51 3.58895 -2.03146 0
M  V30 12567 H 1190.85 0.41841 -0.515586 0
M  V30 12568 H 1193.38 0.743159 -1.90626 0
M  V30 12569 H 1193.39 3.0564 -2.70275 0
M  V30 12570 H 1192.06 2.23286 -3.50879 0
M  V30 12571 H 1190.64 3.18282 -1.94296 0
M  V30 12572 N 1192.83 1.32541 0.852676 0
M  V30 12573 C 1194.07 1.23397 1.60938 0
M  V30 12574 C 1194.41 -0.203294 1.93133 0
M  V30 12575 O 1193.68 -1.14097 1.57519 0
M  V30 12576 C 1193.96 2.0956 2.92842 0
M  V30 12577 C 1193.82 3.61675 2.67416 0
M  V30 12578 C 1195.14 1.95825 3.94133 0
M  V30 12579 H 1192.25 0.449608 0.583971 0
M  V30 12580 H 1194.9 1.62507 0.98446 0
M  V30 12581 H 1193.05 1.76336 3.46176 0
M  V30 12582 H 1194.72 4.05122 2.20621 0
M  V30 12583 H 1192.96 3.84242 2.01347 0
M  V30 12584 H 1193.63 4.17292 3.61347 0
M  V30 12585 H 1196.11 2.24935 3.50062 0
M  V30 12586 H 1194.98 2.58387 4.8428 0
M  V30 12587 H 1195.25 0.926466 4.32284 0
M  V30 12588 N 1194.3 -1.0692 1.15784 0
M  V30 12589 C 1195.55 -1.78983 0.929944 0
M  V30 12590 C 1195.87 -1.87884 -0.543969 0
M  V30 12591 O 1197.07 -2.56513 -0.889578 0
M  V30 12592 C 1195.53 -3.21657 1.61446 0
M  V30 12593 C 1195.14 -3.20943 3.12569 0
M  V30 12594 C 1196.88 -3.98299 1.46828 0
M  V30 12595 C 1194.79 -4.58298 3.73788 0
M  V30 12596 H 1193.72 -0.670809 0.344284 0
M  V30 12597 H 1196.37 -1.19975 1.38846 0
M  V30 12598 H 1194.75 -3.80885 1.08364 0
M  V30 12599 H 1195.92 -2.71334 3.72444 0
M  V30 12600 H 1194.24 -2.57799 3.26999 0
M  V30 12601 H 1196.84 -4.99822 1.89952 0
M  V30 12602 H 1197.18 -4.14213 0.416358 0
M  V30 12603 H 1197.71 -3.45577 1.97031 0
M  V30 12604 H 1194.45 -4.47588 4.789 0
M  V30 12605 H 1193.97 -5.08126 3.18698 0
M  V30 12606 H 1195.65 -5.27262 3.74972 0
M  V30 12607 N 1195.78 -0.955326 -1.25345 0
M  V30 12608 C 1197.2 -0.659863 -1.4532 0
M  V30 12609 C 1197.4 0.78238 -1.85691 0
M  V30 12610 O 1196.45 1.5576 -1.98734 0
M  V30 12611 C 1197.77 -1.63339 -2.5247 0
M  V30 12612 C 1199.32 -1.64464 -2.66309 0
M  V30 12613 C 1199.79 -2.60583 -3.76644 0
M  V30 12614 N 1201.28 -2.58951 -3.84055 0
M  V30 12615 C 1202.02 -3.30002 -4.6892 0
M  V30 12616 N 1201.51 -4.10528 -5.58067 0
M  V30 12617 N 1203.31 -3.18886 -4.62891 0
M  V30 12618 H 1195.46 -1.88734 -0.97433 0
M  V30 12619 H 1197.72 -0.811858 -0.48948 0
M  V30 12620 H 1197.43 -2.66358 -2.29665 0
M  V30 12621 H 1197.3 -1.39644 -3.50399 0
M  V30 12622 H 1199.69 -0.621622 -2.88479 0
M  V30 12623 H 1199.77 -1.92218 -1.68778 0
M  V30 12624 H 1199.41 -3.63011 -3.55226 0
M  V30 12625 H 1199.34 -2.30113 -4.73662 0
M  V30 12626 H 1201.83 -2.00491 -3.20331 0
M  V30 12627 H 1202.15 -4.6166 -6.1975 0
M  V30 12628 H 1200.49 -4.14626 -5.57773 0
M  V30 12629 H 1203.68 -2.55447 -3.92255 0
M  V30 12630 H 1203.85 -3.74524 -5.28806 0
M  V30 12631 N 1197.26 1.39987 -0.723979 0
M  V30 12632 C 1198.51 2.00334 -0.266587 0
M  V30 12633 C 1198.83 1.57714 1.14679 0
M  V30 12634 O 1198.1 0.82037 1.77895 0
M  V30 12635 H 1196.68 0.740861 -0.095573 0
M  V30 12636 H 1199.34 1.712 -0.931481 0
M  V30 12637 H 1198.44 3.10594 -0.306282 0
M  V30 12638 N 1198.74 0.470782 1.50404 0
M  V30 12639 C 1199.65 -0.328877 2.32283 0
M  V30 12640 C 1200.67 -0.99629 1.42654 0
M  V30 12641 O 1201.84 -0.984331 1.75707 0
M  V30 12642 C 1198.91 -1.39675 3.1732 0
M  V30 12643 C 1197.97 -0.745965 4.22769 0
M  V30 12644 C 1197.2 -1.76295 5.03742 0
M  V30 12645 O 1197.42 -2.98943 4.85788 0
M  V30 12646 O 1196.36 -1.33495 5.86909 0
M  V30 12647 H 1200.18 0.340491 3.01785 0
M  V30 12648 H 1197.77 0.232637 1.47578 0
M  V30 12649 H 1199.65 -2.0153 3.70086 0
M  V30 12650 H 1198.33 -2.04959 2.50546 0
M  V30 12651 H 1197.23 -0.0884647 3.73995 0
M  V30 12652 H 1198.57 -0.136074 4.92012 0
M  V30 12653 N 1200.22 -1.56282 0.203376 0
M  V30 12654 C 1201.46 -1.98105 -0.433844 0
M  V30 12655 C 1201.8 -1.09044 -1.60695 0
M  V30 12656 O 1201.07 -0.144193 -1.93965 0
M  V30 12657 C 1201.35 -3.4903 -0.885992 0
M  V30 12658 C 1201.21 -4.48867 0.289501 0
M  V30 12659 C 1202.53 -4.03871 -1.7486 0
M  V30 12660 H 1199.65 -0.720252 -0.156224 0
M  V30 12661 H 1202.29 -1.87681 0.295963 0
M  V30 12662 H 1200.44 -3.58045 -1.50785 0
M  V30 12663 H 1202.11 -4.51883 0.92734 0
M  V30 12664 H 1200.35 -4.23495 0.939934 0
M  V30 12665 H 1201.02 -5.51956 -0.0695128 0
M  V30 12666 H 1203.5 -3.97688 -1.22407 0
M  V30 12667 H 1202.38 -5.09827 -2.03391 0
M  V30 12668 H 1202.64 -3.49637 -2.70567 0
M  V30 12669 N 1201.7 0.070167 -1.57444 0
M  V30 12670 C 1202.94 0.769014 -1.8733 0
M  V30 12671 C 1203.27 1.77496 -0.79533 0
M  V30 12672 O 1202.53 1.94586 0.208495 0
M  V30 12673 C 1202.82 1.5111 -3.23883 0
M  V30 12674 C 1202.49 0.644988 -4.46263 0
M  V30 12675 C 1201.15 0.406307 -4.79482 0
M  V30 12676 C 1203.5 0.0444938 -5.21181 0
M  V30 12677 C 1200.83 -0.442322 -5.8503 0
M  V30 12678 C 1203.18 -0.791599 -6.27628 0
M  V30 12679 C 1201.85 -1.04014 -6.59346 0
M  V30 12680 H 1201.12 0.281402 -0.685488 0
M  V30 12681 H 1203.77 0.029752 -1.91477 0
M  V30 12682 H 1202.07 2.32261 -3.15535 0
M  V30 12683 H 1203.77 2.05665 -3.44242 0
M  V30 12684 H 1200.36 0.841148 -4.20265 0
M  V30 12685 H 1204.54 0.216005 -4.9583 0
M  V30 12686 H 1199.8 -0.643607 -6.08003 0
M  V30 12687 H 1203.97 -1.26363 -6.8484 0
M  V30 12688 H 1201.6 -1.69949 -7.4096 0
M  V30 12689 N 1203.17 1.53854 0.341593 0
M  V30 12690 C 1204.4 1.75134 1.10162 0
M  V30 12691 C 1204.82 0.491415 1.82292 0
M  V30 12692 O 1204.17 -0.53703 1.7442 0
M  V30 12693 C 1204.22 2.93273 2.1136 0
M  V30 12694 O 1203.95 4.14393 1.42162 0
M  V30 12695 C 1205.45 3.26621 2.99723 0
M  V30 12696 H 1202.67 0.585126 0.328434 0
M  V30 12697 H 1205.21 2.00684 0.393204 0
M  V30 12698 H 1203.37 2.70048 2.77764 0
M  V30 12699 H 1203.78 4.8072 2.09783 0
M  V30 12700 H 1205.25 4.12629 3.66662 0
M  V30 12701 H 1205.73 2.43008 3.65847 0
M  V30 12702 H 1206.34 3.51858 2.38906 0
M  V30 12703 N 1204.65 -0.602709 1.4562 0
M  V30 12704 C 1205.58 -1.72374 1.5751 0
M  V30 12705 C 1206.56 -1.64669 0.426389 0
M  V30 12706 O 1207.75 -1.82994 0.650143 0
M  V30 12707 C 1204.88 -3.10987 1.5461 0
M  V30 12708 C 1203.83 -3.33507 2.68248 0
M  V30 12709 C 1203.16 -4.72443 2.50403 0
M  V30 12710 C 1204.46 -3.23285 4.10224 0
M  V30 12711 H 1206.15 -1.62679 2.51348 0
M  V30 12712 H 1203.7 -0.781217 1.20967 0
M  V30 12713 H 1205.65 -3.89214 1.61525 0
M  V30 12714 H 1204.37 -3.21533 0.573049 0
M  V30 12715 H 1203.03 -2.57672 2.60769 0
M  V30 12716 H 1202.68 -4.79729 1.51226 0
M  V30 12717 H 1202.38 -4.88466 3.26611 0
M  V30 12718 H 1203.91 -5.52864 2.59179 0
M  V30 12719 H 1205.32 -3.91381 4.1892 0
M  V30 12720 H 1203.72 -3.50837 4.86861 0
M  V30 12721 H 1204.79 -2.20652 4.31788 0
M  V30 12722 N 1206.13 -1.32992 -0.845635 0
M  V30 12723 C 1207.08 -1.22682 -1.95494 0
M  V30 12724 C 1208.05 -0.106942 -1.65755 0
M  V30 12725 O 1209.23 -0.28405 -1.88674 0
M  V30 12726 C 1206.37 -0.965068 -3.31331 0
M  V30 12727 C 1205.48 -2.17058 -3.7351 0
M  V30 12728 C 1204.62 -1.84355 -4.98183 0
M  V30 12729 C 1203.66 -3.01176 -5.32878 0
M  V30 12730 N 1202.8 -2.68506 -6.48729 0
M  V30 12731 H 1207.64 -2.17562 -2.03644 0
M  V30 12732 H 1205.17 -1.08194 -0.996613 0
M  V30 12733 H 1207.13 -0.793771 -4.09579 0
M  V30 12734 H 1205.76 -0.0530285 -3.22756 0
M  V30 12735 H 1204.81 -2.45185 -2.90841 0
M  V30 12736 H 1206.12 -3.04413 -3.95138 0
M  V30 12737 H 1205.28 -1.6383 -5.84162 0
M  V30 12738 H 1204.02 -0.942264 -4.78511 0
M  V30 12739 H 1203.02 -3.22323 -4.45408 0
M  V30 12740 H 1204.25 -3.9205 -5.54503 0
M  V30 12741 H 1202.19 -1.80929 -6.30556 0
M  V30 12742 H 1202.11 -3.49392 -6.70419 0
M  V30 12743 H 1203.38 -2.51432 -7.37836 0
M  V30 12744 N 1207.61 1.06304 -1.1635 0
M  V30 12745 C 1208.57 2.11947 -0.872419 0
M  V30 12746 C 1209.57 1.60253 0.132534 0
M  V30 12747 O 1210.76 1.73922 -0.0983441 0
M  V30 12748 C 1207.89 3.39536 -0.304646 0
M  V30 12749 H 1209.09 2.39201 -1.80894 0
M  V30 12750 H 1206.64 1.22367 -0.972419 0
M  V30 12751 H 1207.37 3.17931 0.639565 0
M  V30 12752 H 1207.16 3.78363 -1.02878 0
M  V30 12753 H 1208.65 4.17431 -0.118936 0
M  V30 12754 N 1209.09 0.96196 1.24836 0
M  V30 12755 C 1210.31 0.63814 1.96813 0
M  V30 12756 C 1210.73 -0.79127 1.71419 0
M  V30 12757 O 1210.09 -1.5302 0.994546 0
M  V30 12758 C 1210.14 0.89626 3.50213 0
M  V30 12759 O 1209.86 2.26947 3.74735 0
M  V30 12760 C 1211.36 0.585836 4.39412 0
M  V30 12761 H 1208.58 0.238598 0.627146 0
M  V30 12762 H 1211.12 1.28833 1.58815 0
M  V30 12763 H 1209.28 0.292368 3.86295 0
M  V30 12764 H 1209.69 2.34514 4.69152 0
M  V30 12765 H 1211.17 0.816935 5.45921 0
M  V30 12766 H 1211.64 -0.479784 4.36572 0
M  V30 12767 H 1212.25 1.16938 4.08908 0
M  V30 12768 N 1210.56 -1.39601 0.731392 0
M  V30 12769 C 1211.81 -2.00883 0.278168 0
M  V30 12770 C 1212.14 -1.57897 -1.13059 0
M  V30 12771 O 1211.42 -0.806203 -1.77005 0
M  V30 12772 C 1211.7 -3.58132 0.375969 0
M  V30 12773 C 1211.55 -4.11147 1.82423 0
M  V30 12774 C 1212.87 -4.39425 -0.243702 0
M  V30 12775 H 1209.99 -0.729831 0.102549 0
M  V30 12776 H 1212.63 -1.65859 0.926869 0
M  V30 12777 H 1210.78 -3.881 -0.176329 0
M  V30 12778 H 1212.46 -3.91914 2.43313 0
M  V30 12779 H 1210.7 -3.64842 2.34675 0
M  V30 12780 H 1211.37 -5.20291 1.84396 0
M  V30 12781 H 1213.85 -4.1548 0.227067 0
M  V30 12782 H 1212.72 -5.48709 -0.144907 0
M  V30 12783 H 1212.98 -4.21642 -1.32929 0
M  V30 12784 N 1212.04 -0.478751 -1.50152 0
M  V30 12785 C 1212.97 0.301182 -2.31549 0
M  V30 12786 C 1213.95 0.983276 -1.38801 0
M  V30 12787 O 1215.14 0.978973 -1.67719 0
M  V30 12788 C 1212.27 1.3791 -3.18745 0
M  V30 12789 C 1211.22 0.818175 -4.20107 0
M  V30 12790 C 1210.55 1.99496 -4.9609 0
M  V30 12791 C 1211.85 -0.17574 -5.22004 0
M  V30 12792 H 1213.54 -0.378188 -2.97002 0
M  V30 12793 H 1211.09 -0.183323 -1.42828 0
M  V30 12794 H 1213.04 1.93227 -3.74488 0
M  V30 12795 H 1211.77 2.08735 -2.51192 0
M  V30 12796 H 1210.42 0.286924 -3.65475 0
M  V30 12797 H 1210.07 2.69036 -4.25004 0
M  V30 12798 H 1209.77 1.62582 -5.6466 0
M  V30 12799 H 1211.3 2.55288 -5.54671 0
M  V30 12800 H 1212.71 0.288513 -5.72574 0
M  V30 12801 H 1211.11 -0.459549 -5.98338 0
M  V30 12802 H 1212.18 -1.09911 -4.72279 0
M  V30 12803 N 1213.52 1.56172 -0.211661 0
M  V30 12804 C 1214.47 2.21206 0.719063 0
M  V30 12805 C 1215.46 1.18835 1.20725 0
M  V30 12806 O 1216.67 1.36939 1.16823 0
M  V30 12807 H 1213.04 0.709129 0.250279 0
M  V30 12808 H 1215.01 2.98038 0.147022 0
M  V30 12809 C 1213.76 2.89826 1.92084 0
M  V30 12810 H 1213.09 3.68351 1.55428 0
M  V30 12811 H 1214.53 3.38744 2.55006 0
M  V30 12812 C 1212.99 1.91756 2.77004 0
M  V30 12813 O 1213.52 1.42826 3.75451 0
M  V30 12814 N 1211.72 1.59622 2.42836 0
M  V30 12815 H 1211.27 1.99606 1.62835 0
M  V30 12816 H 1211.23 0.942641 2.99936 0
M  V30 12817 N 1215 -0.0618163 1.57479 0
M  V30 12818 C 1216.23 -0.770605 1.9169 0
M  V30 12819 C 1216.64 -1.71134 0.806841 0
M  V30 12820 O 1215.98 -1.8228 -0.228002 0
M  V30 12821 C 1216.04 -1.60962 3.21452 0
M  V30 12822 C 1215.71 -0.837193 4.49266 0
M  V30 12823 C 1216.7 -0.151964 5.19678 0
M  V30 12824 C 1214.39 -0.801414 4.95866 0
M  V30 12825 C 1216.38 0.558705 6.34947 0
M  V30 12826 C 1214.07 -0.0869788 6.11038 0
M  V30 12827 C 1215.07 0.591871 6.80431 0
M  V30 12828 O 1214.75 1.29478 7.93405 0
M  V30 12829 H 1214.49 -0.223673 0.637923 0
M  V30 12830 H 1217.04 -0.0333424 2.05373 0
M  V30 12831 H 1215.27 -2.38992 3.04006 0
M  V30 12832 H 1216.96 -2.19799 3.41238 0
M  V30 12833 H 1217.73 -0.170848 4.84699 0
M  V30 12834 H 1213.6 -1.31927 4.4172 0
M  V30 12835 H 1217.15 1.08913 6.89046 0
M  V30 12836 H 1213.05 -0.066057 6.45466 0
M  V30 12837 H 1213.81 1.20507 8.0958 0
M  V30 12838 N 1216.48 -1.54033 -0.333429 0
M  V30 12839 C 1217.41 -1.85719 -1.4153 0
M  V30 12840 C 1218.39 -0.713144 -1.54429 0
M  V30 12841 O 1219.57 -0.965984 -1.68471 0
M  V30 12842 C 1216.7 -2.07578 -2.78439 0
M  V30 12843 C 1215.66 -3.23411 -2.80338 0
M  V30 12844 C 1214.98 -3.30622 -4.2023 0
M  V30 12845 C 1216.28 -4.6129 -2.44968 0
M  V30 12846 H 1217.98 -2.76325 -1.15261 0
M  V30 12847 H 1215.52 -1.32957 -0.55303 0
M  V30 12848 H 1217.48 -2.28329 -3.5418 0
M  V30 12849 H 1216.2 -1.13713 -3.06165 0
M  V30 12850 H 1214.86 -3.02531 -2.07052 0
M  V30 12851 H 1214.51 -2.34333 -4.45081 0
M  V30 12852 H 1214.21 -4.08466 -4.22409 0
M  V30 12853 H 1215.73 -3.53596 -4.97798 0
M  V30 12854 H 1217.14 -4.81987 -3.10421 0
M  V30 12855 H 1215.54 -5.41611 -2.58414 0
M  V30 12856 H 1216.61 -4.6421 -1.40134 0
M  V30 12857 N 1217.95 0.594978 -1.45938 0
M  V30 12858 C 1219.37 1.17703 -1.44924 0
M  V30 12859 C 1219.72 1.9534 -0.183522 0
M  V30 12860 O 1218.84 2.04276 0.714163 0
M  V30 12861 C 1219.44 2.14119 -2.62561 0
M  V30 12862 C 1218 2.67674 -2.64627 0
M  V30 12863 C 1217.14 1.43312 -2.37397 0
M  V30 12864 H 1220.09 0.383583 -1.53995 0
M  V30 12865 H 1220.11 2.97374 -2.3738 0
M  V30 12866 H 1219.63 1.57586 -3.54667 0
M  V30 12867 H 1217.73 3.28111 -1.76562 0
M  V30 12868 H 1217.84 3.11246 -3.64229 0
M  V30 12869 H 1216.2 1.72702 -1.87206 0
M  V30 12870 H 1216.99 0.886276 -3.31663 0
M  V30 12871 N 1219.43 1.33438 0.838571 0
M  V30 12872 C 1220.38 1.23717 1.94841 0
M  V30 12873 C 1221.35 0.11573 1.65696 0
M  V30 12874 O 1222.53 0.294051 1.8852 0
M  V30 12875 C 1219.67 0.982626 3.30815 0
M  V30 12876 C 1218.79 2.19036 3.72354 0
M  V30 12877 C 1217.92 1.86995 4.97199 0
M  V30 12878 C 1216.96 3.03998 5.31274 0
M  V30 12879 N 1216.1 2.71943 6.47295 0
M  V30 12880 H 1220.94 2.18639 2.02487 0
M  V30 12881 H 1218.48 1.08721 0.990861 0
M  V30 12882 H 1220.43 0.81548 4.09152 0
M  V30 12883 H 1219.06 0.0701443 3.22724 0
M  V30 12884 H 1218.12 2.46724 2.89537 0
M  V30 12885 H 1219.43 3.06505 3.93518 0
M  V30 12886 H 1218.58 1.66925 5.83285 0
M  V30 12887 H 1217.32 0.967628 4.78004 0
M  V30 12888 H 1216.33 3.24681 4.43692 0
M  V30 12889 H 1217.55 3.94985 5.52416 0
M  V30 12890 H 1215.5 1.8427 6.29588 0
M  V30 12891 H 1215.41 3.52943 6.68556 0
M  V30 12892 H 1216.68 2.55342 7.36492 0
M  V30 12893 N 1220.91 -1.05686 1.16912 0
M  V30 12894 C 1222.15 -1.80177 0.965182 0
M  V30 12895 C 1222.51 -1.85437 -0.497698 0
M  V30 12896 O 1223.72 -2.5597 -0.82054 0
M  V30 12897 C 1221.99 -3.20441 1.58279 0
M  V30 12898 S 1223.55 -4.11472 1.52435 0
M  V30 12899 H 1220.36 -0.620595 0.346962 0
M  V30 12900 H 1222.97 -1.26841 1.48767 0
M  V30 12901 H 1221.67 -3.14211 2.64006 0
M  V30 12902 H 1221.2 -3.78853 1.05989 0
M  V30 12903 H 1223.22 -4.93373 0.528876 0
M  V30 12904 N 1222.39 -0.968567 -1.24324 0
M  V30 12905 C 1223.64 -0.626519 -1.91723 0
M  V30 12906 C 1223.95 0.84225 -1.76538 0
M  V30 12907 O 1225.16 1.29486 -2.38633 0
M  V30 12908 C 1223.61 -1.06992 -3.43629 0
M  V30 12909 C 1223.22 -2.5622 -3.67499 0
M  V30 12910 C 1224.96 -0.801057 -4.16873 0
M  V30 12911 C 1222.87 -2.94288 -5.1298 0
M  V30 12912 H 1221.8 -0.23062 -0.717865 0
M  V30 12913 H 1224.45 -1.17489 -1.40956 0
M  V30 12914 H 1222.83 -0.44985 -3.93437 0
M  V30 12915 H 1224.01 -3.23364 -3.28287 0
M  V30 12916 H 1222.32 -2.80726 -3.07542 0
M  V30 12917 H 1224.92 -1.06147 -5.24058 0
M  V30 12918 H 1225.26 0.262742 -4.1547 0
M  V30 12919 H 1225.8 -1.38213 -3.73017 0
M  V30 12920 H 1222.54 -3.99743 -5.19506 0
M  V30 12921 H 1222.06 -2.31829 -5.53187 0
M  V30 12922 H 1223.73 -2.84242 -5.81219 0
M  V30 12923 N 1223.87 1.39211 -0.738786 0
M  V30 12924 C 1225.28 1.54116 -0.414773 0
M  V30 12925 C 1225.48 1.70497 1.07392 0
M  V30 12926 O 1224.54 1.7076 1.86003 0
M  V30 12927 C 1225.85 2.7567 -1.2011 0
M  V30 12928 C 1227.4 2.89508 -1.1897 0
M  V30 12929 C 1227.87 4.14005 -1.95868 0
M  V30 12930 N 1229.37 4.21052 -1.93053 0
M  V30 12931 C 1230.1 5.16341 -2.49358 0
M  V30 12932 N 1229.6 6.17396 -3.14316 0
M  V30 12933 N 1231.39 5.08585 -2.3937 0
M  V30 12934 H 1223.54 1.26827 -1.70378 0
M  V30 12935 H 1225.8 0.614983 -0.721457 0
M  V30 12936 H 1225.51 2.69922 -2.25467 0
M  V30 12937 H 1225.38 3.68443 -0.808065 0
M  V30 12938 H 1227.77 2.94747 -0.144248 0
M  V30 12939 H 1227.85 1.97788 -1.62214 0
M  V30 12940 H 1227.5 4.09527 -3.00416 0
M  V30 12941 H 1227.43 5.04776 -1.50028 0
M  V30 12942 H 1229.92 3.48669 -1.45733 0
M  V30 12943 H 1230.23 6.86572 -3.54737 0
M  V30 12944 H 1228.57 6.17772 -3.18407 0
M  V30 12945 H 1231.77 4.28573 -1.88262 0
M  V30 12946 H 1231.94 5.8267 -2.83549 0
M  V30 12947 N 1225.34 0.486708 1.49896 0
M  V30 12948 C 1226.59 -0.0629451 2.02702 0
M  V30 12949 C 1226.92 -1.37956 1.36681 0
M  V30 12950 O 1226.2 -1.88025 0.497678 0
M  V30 12951 C 1226.48 -0.230461 3.59362 0
M  V30 12952 C 1226.33 1.10828 4.35933 0
M  V30 12953 C 1227.65 -0.977785 4.29101 0
M  V30 12954 H 1224.77 -0.0214017 0.736689 0
M  V30 12955 H 1227.41 0.635339 1.79063 0
M  V30 12956 H 1225.56 -0.825222 3.79634 0
M  V30 12957 H 1227.24 1.74082 4.27192 0
M  V30 12958 H 1225.48 1.7011 3.99055 0
M  V30 12959 H 1226.15 0.944532 5.43859 0
M  V30 12960 H 1228.63 -0.473505 4.13397 0
M  V30 12961 H 1227.5 -1.06382 5.38492 0
M  V30 12962 H 1227.76 -2.01813 3.9335 0
M  V30 12963 N 1226.82 -1.56058 0.219941 0
M  V30 12964 C 1228.05 -2.031 -0.42014 0
M  V30 12965 C 1228.47 -1.09875 -1.52673 0
M  V30 12966 O 1227.83 -0.0866458 -1.81093 0
M  V30 12967 C 1227.88 -3.48389 -0.93047 0
M  V30 12968 O 1226.98 -3.583 -2.04192 0
M  V30 12969 H 1226.32 -0.657129 -0.0952772 0
M  V30 12970 H 1228.85 -2.01787 0.338105 0
M  V30 12971 H 1228.86 -3.88678 -1.2407 0
M  V30 12972 H 1227.54 -4.15725 -0.120539 0
M  V30 12973 H 1226.12 -3.29898 -1.73845 0
M  V30 12974 N 1228.3 0.053464 -1.57509 0
M  V30 12975 C 1229.55 0.750212 -1.88414 0
M  V30 12976 C 1229.88 1.76288 -0.814619 0
M  V30 12977 O 1229.16 1.93728 0.173136 0
M  V30 12978 C 1229.44 1.44176 -3.29978 0
M  V30 12979 C 1229.29 0.444263 -4.47601 0
M  V30 12980 C 1230.61 2.38207 -3.70061 0
M  V30 12981 H 1227.73 0.271266 -0.685262 0
M  V30 12982 H 1230.37 0.0131676 -1.89995 0
M  V30 12983 H 1228.52 2.07001 -3.2876 0
M  V30 12984 H 1230.19 -0.180182 -4.60948 0
M  V30 12985 H 1228.44 -0.238771 -4.33142 0
M  V30 12986 H 1229.11 0.966134 -5.43479 0
M  V30 12987 H 1231.58 1.85446 -3.7249 0
M  V30 12988 H 1230.46 2.83588 -4.69967 0
M  V30 12989 H 1230.72 3.23821 -3.00985 0
M  V30 12990 N 1229.78 1.54207 0.325255 0
M  V30 12991 C 1230.71 1.79812 1.42128 0
M  V30 12992 C 1231.72 0.68003 1.47917 0
M  V30 12993 O 1232.91 0.957107 1.50671 0
M  V30 12994 C 1230.01 1.89935 2.80674 0
M  V30 12995 C 1229.19 3.20078 2.98108 0
M  V30 12996 C 1228.25 3.20924 4.17006 0
M  V30 12997 O 1227.27 3.94571 4.10247 0
M  V30 12998 N 1228.47 2.44588 5.26457 0
M  V30 12999 H 1231.24 2.74396 1.20527 0
M  V30 13000 H 1228.8 1.53483 0.515233 0
M  V30 13001 H 1230.79 1.8793 3.58419 0
M  V30 13002 H 1229.36 1.02455 2.95333 0
M  V30 13003 H 1228.58 3.35057 2.07679 0
M  V30 13004 H 1229.87 4.06008 3.06651 0
M  V30 13005 H 1229.27 1.8434 5.34823 0
M  V30 13006 H 1227.82 2.48363 6.02627 0
M  V30 13007 N 1231.26 -0.58723 1.46251 0
M  V30 13008 C 1232.19 -1.70694 1.5933 0
M  V30 13009 C 1233.17 -1.64208 0.443831 0
M  V30 13010 O 1234.35 -1.82294 0.669516 0
M  V30 13011 C 1231.48 -3.0933 1.579 0
M  V30 13012 C 1230.44 -3.30643 2.7177 0
M  V30 13013 C 1229.76 -4.69761 2.554 0
M  V30 13014 C 1231.06 -3.18916 4.1363 0
M  V30 13015 H 1232.76 -1.60004 2.53059 0
M  V30 13016 H 1230.3 -0.768343 1.21789 0
M  V30 13017 H 1232.26 -3.87479 1.65644 0
M  V30 13018 H 1230.98 -3.20907 0.60712 0
M  V30 13019 H 1229.64 -2.54892 2.63488 0
M  V30 13020 H 1229.29 -4.78098 1.56306 0
M  V30 13021 H 1228.99 -4.84974 3.31774 0
M  V30 13022 H 1230.51 -5.50084 2.65028 0
M  V30 13023 H 1231.93 -3.86915 4.23048 0
M  V30 13024 H 1230.32 -3.45653 4.90555 0
M  V30 13025 H 1231.39 -2.1606 4.34104 0
M  V30 13026 N 1232.74 -1.33881 -0.831482 0
M  V30 13027 C 1233.68 -1.24748 -1.94182 0
M  V30 13028 C 1234.65 -0.124516 -1.65633 0
M  V30 13029 O 1235.84 -0.304045 -1.88362 0
M  V30 13030 C 1232.98 -1.00016 -3.30289 0
M  V30 13031 C 1232.09 -2.21007 -3.71187 0
M  V30 13032 C 1231.23 -1.89629 -4.962 0
M  V30 13033 C 1230.26 -3.06811 -5.29654 0
M  V30 13034 N 1229.4 -2.75372 -6.45844 0
M  V30 13035 H 1234.24 -2.19709 -2.01325 0
M  V30 13036 H 1231.78 -1.09245 -0.985081 0
M  V30 13037 H 1233.74 -0.837167 -4.08714 0
M  V30 13038 H 1232.37 -0.0872582 -3.22682 0
M  V30 13039 H 1231.42 -2.48256 -2.88224 0
M  V30 13040 H 1232.73 -3.08587 -3.91887 0
M  V30 13041 H 1231.88 -1.70016 -5.82391 0
M  V30 13042 H 1230.62 -0.992964 -4.77485 0
M  V30 13043 H 1229.63 -3.27029 -4.41964 0
M  V30 13044 H 1230.85 -3.97909 -5.50314 0
M  V30 13045 H 1228.8 -1.87607 -6.28601 0
M  V30 13046 H 1228.72 -3.56483 -6.66675 0
M  V30 13047 H 1229.98 -2.59244 -7.35128 0
M  V30 13048 N 1234.21 1.05064 -1.1747 0
M  V30 13049 C 1235.18 2.1101 -0.89485 0
M  V30 13050 C 1236.18 1.60384 0.11553 0
M  V30 13051 O 1237.37 1.73808 -0.116785 0
M  V30 13052 C 1234.5 3.39194 -0.340642 0
M  V30 13053 H 1235.69 2.37269 -1.83421 0
M  V30 13054 H 1233.24 1.21329 -0.985343 0
M  V30 13055 H 1233.98 3.18591 0.605808 0
M  V30 13056 H 1233.76 3.77251 -1.06885 0
M  V30 13057 H 1235.25 4.17281 -0.163204 0
M  V30 13058 N 1235.69 0.975146 1.23809 0
M  V30 13059 C 1236.92 0.658605 1.96665 0
M  V30 13060 C 1237.34 -0.766744 1.71763 0
M  V30 13061 O 1236.7 -1.52151 0.985887 0
M  V30 13062 C 1236.75 0.948438 3.47904 0
M  V30 13063 O 1235.85 0.0377241 4.12383 0
M  V30 13064 H 1235.19 0.248231 0.615855 0
M  V30 13065 H 1237.72 1.30732 1.57386 0
M  V30 13066 H 1237.73 0.883 3.9833 0
M  V30 13067 H 1236.41 1.98717 3.65355 0
M  V30 13068 H 1234.98 0.157122 3.72569 0
M  V30 13069 N 1237.17 -1.38817 0.746158 0
M  V30 13070 C 1238.58 -1.83045 0.367629 0
M  V30 13071 C 1238.93 -1.62285 -1.10263 0
M  V30 13072 O 1238.06 -1.12001 -1.85162 0
M  V30 13073 C 1238.65 -3.323 0.660482 0
M  V30 13074 C 1237.21 -3.74903 0.335318 0
M  V30 13075 C 1236.36 -2.61683 0.917446 0
M  V30 13076 H 1239.31 -1.27651 0.94291 0
M  V30 13077 H 1239.33 -3.80446 -0.0639061 0
M  V30 13078 H 1238.84 -3.47377 1.73062 0
M  V30 13079 H 1236.94 -3.65408 -0.728538 0
M  V30 13080 H 1237.06 -4.71932 0.825677 0
M  V30 13081 H 1235.42 -2.52376 0.343316 0
M  V30 13082 H 1236.2 -2.79563 1.99247 0
M  V30 13083 N 1238.65 -0.49465 -1.49636 0
M  V30 13084 C 1239.61 0.276064 -2.27531 0
M  V30 13085 C 1240.61 0.899619 -1.3328 0
M  V30 13086 O 1241.8 0.765136 -1.56497 0
M  V30 13087 C 1238.93 1.39547 -3.1103 0
M  V30 13088 H 1240.13 -0.407381 -2.9712 0
M  V30 13089 H 1237.68 -0.249416 -1.54297 0
M  V30 13090 H 1238.41 2.11326 -2.45992 0
M  V30 13091 H 1238.2 0.953877 -3.8032 0
M  V30 13092 H 1239.69 1.93853 -3.69879 0
M  V30 13093 N 1240.13 1.55939 -0.228214 0
M  V30 13094 C 1241.37 1.98476 0.401677 0
M  V30 13095 C 1241.7 1.116 1.59297 0
M  V30 13096 O 1240.96 0.162465 1.95024 0
M  V30 13097 C 1241.25 3.46581 0.872732 0
M  V30 13098 C 1240.92 4.50416 -0.208767 0
M  V30 13099 C 1239.58 4.78534 -0.505847 0
M  V30 13100 C 1241.93 5.12656 -0.939852 0
M  V30 13101 C 1239.26 5.66171 -1.53841 0
M  V30 13102 C 1241.61 6.01412 -1.9618 0
M  V30 13103 C 1240.28 6.2787 -2.26573 0
M  V30 13104 H 1239.55 0.726276 0.146984 0
M  V30 13105 H 1242.2 1.88598 -0.332128 0
M  V30 13106 H 1240.5 3.53696 1.68541 0
M  V30 13107 H 1242.2 3.76869 1.37006 0
M  V30 13108 H 1238.79 4.28587 0.0329308 0
M  V30 13109 H 1242.97 4.90997 -0.723581 0
M  V30 13110 H 1238.23 5.84933 -1.77944 0
M  V30 13111 H 1242.4 6.48688 -2.53332 0
M  V30 13112 H 1240.03 6.95574 -3.06725 0
M  V30 13113 N 1241.6 -0.0451101 1.57535 0
M  V30 13114 C 1242.53 -1.05046 2.08537 0
M  V30 13115 C 1243.52 -1.3872 0.984418 0
M  V30 13116 O 1244.7 -1.47884 1.25873 0
M  V30 13117 C 1241.83 -2.3562 2.55148 0
M  V30 13118 C 1240.78 -2.16231 3.69362 0
M  V30 13119 C 1240.11 -3.52423 4.02122 0
M  V30 13120 C 1241.41 -1.56159 4.98409 0
M  V30 13121 H 1243.1 -0.625965 2.92783 0
M  V30 13122 H 1240.65 -0.299657 1.40848 0
M  V30 13123 H 1242.6 -3.06266 2.89446 0
M  V30 13124 H 1241.33 -2.80099 1.67964 0
M  V30 13125 H 1239.99 -1.4802 3.35389 0
M  V30 13126 H 1239.63 -3.94522 3.12028 0
M  V30 13127 H 1239.33 -3.4028 4.79044 0
M  V30 13128 H 1240.86 -4.24458 4.38939 0
M  V30 13129 H 1242.27 -2.16703 5.30766 0
M  V30 13130 H 1240.67 -1.54638 5.79834 0
M  V30 13131 H 1241.74 -0.525698 4.82042 0
M  V30 13132 N 1243.08 -1.54377 -0.317073 0
M  V30 13133 C 1244.05 -1.83488 -1.37349 0
M  V30 13134 C 1245.05 -0.706981 -1.44424 0
M  V30 13135 O 1246.24 -0.975289 -1.44339 0
M  V30 13136 C 1243.37 -2.00074 -2.76013 0
M  V30 13137 H 1244.56 -2.77883 -1.12789 0
M  V30 13138 H 1242.11 -1.46194 -0.552902 0
M  V30 13139 H 1242.85 -1.07913 -3.05819 0
M  V30 13140 H 1242.63 -2.82155 -2.7227 0
M  V30 13141 H 1244.12 -2.24022 -3.52426 0
M  V30 13142 N 1244.56 0.579466 -1.4656 0
M  V30 13143 C 1245.79 1.36837 -1.55854 0
M  V30 13144 C 1246.21 1.87019 -0.20141 0
M  V30 13145 O 1245.57 1.61746 0.81901 0
M  V30 13146 C 1245.62 2.52965 -2.56985 0
M  V30 13147 O 1244.72 3.54505 -2.10713 0
M  V30 13148 H 1244.06 0.407379 -0.524345 0
M  V30 13149 H 1246.59 0.702558 -1.9216 0
M  V30 13150 H 1246.6 2.99838 -2.76697 0
M  V30 13151 H 1245.28 2.15793 -3.55536 0
M  V30 13152 H 1243.85 3.14089 -2.01003 0
M  V30 13153 N 1246.04 1.3432 0.824371 0
M  V30 13154 C 1246.97 1.21619 1.94271 0
M  V30 13155 C 1247.98 0.143628 1.62165 0
M  V30 13156 O 1249.17 0.395353 1.74067 0
M  V30 13157 C 1246.27 0.846128 3.28167 0
M  V30 13158 C 1245.45 2.01337 3.88307 0
M  V30 13159 C 1244.5 1.62194 5.00579 0
M  V30 13160 O 1243.53 2.33831 5.18953 0
M  V30 13161 N 1244.73 0.535262 5.78027 0
M  V30 13162 H 1247.5 2.17963 2.05699 0
M  V30 13163 H 1245.06 1.27256 1.00088 0
M  V30 13164 H 1247.05 0.566086 4.00721 0
M  V30 13165 H 1245.62 -0.0270764 3.12588 0
M  V30 13166 H 1244.84 2.45823 3.08164 0
M  V30 13167 H 1246.13 2.79404 4.25219 0
M  V30 13168 H 1245.53 -0.0603126 5.65668 0
M  V30 13169 H 1244.08 0.314946 6.51039 0
M  V30 13170 N 1247.52 -1.0444 1.18026 0
M  V30 13171 C 1248.46 -2.14474 0.900202 0
M  V30 13172 C 1249.46 -1.68836 -0.138086 0
M  V30 13173 O 1250.66 -1.79997 0.00971011 0
M  V30 13174 H 1247.04 -0.700457 0.273613 0
M  V30 13175 H 1249.01 -2.35295 1.83518 0
M  V30 13176 C 1247.76 -3.44926 0.438305 0
M  V30 13177 H 1247.08 -3.8045 1.22874 0
M  V30 13178 H 1248.52 -4.23066 0.281306 0
M  V30 13179 C 1246.98 -3.26124 -0.845268 0
M  V30 13180 O 1247.51 -3.53368 -1.91034 0
M  V30 13181 N 1245.72 -2.79474 -0.7964 0
M  V30 13182 H 1245.26 -2.57503 0.0705595 0
M  V30 13183 H 1245.22 -2.67274 -1.65566 0
M  V30 13184 N 1248.99 -0.981699 -1.2329 0
M  V30 13185 C 1250.22 -0.66937 -1.95773 0
M  V30 13186 C 1250.64 0.763898 -1.72656 0
M  V30 13187 O 1249.99 1.51418 -1.01876 0
M  V30 13188 C 1250.05 -0.951863 -3.48743 0
M  V30 13189 O 1249.77 -2.3288 -3.71078 0
M  V30 13190 C 1251.27 -0.655668 -4.38424 0
M  V30 13191 H 1248.49 -0.248545 -0.623271 0
M  V30 13192 H 1251.03 -1.31343 -1.56746 0
M  V30 13193 H 1249.19 -0.353787 -3.85781 0
M  V30 13194 H 1249.6 -2.41948 -4.65362 0
M  V30 13195 H 1251.07 -0.903683 -5.44553 0
M  V30 13196 H 1251.55 0.410269 -4.3728 0
M  V30 13197 H 1252.16 -1.23428 -4.06996 0
M  V30 13198 N 1250.47 1.3842 -0.753509 0
M  V30 13199 C 1251.42 2.30457 -0.12574 0
M  V30 13200 C 1252.39 1.50173 0.709728 0
M  V30 13201 O 1253.57 1.78804 0.665872 0
M  V30 13202 C 1250.71 3.36593 0.761503 0
M  V30 13203 C 1249.83 4.31909 -0.0885848 0
M  V30 13204 C 1248.96 5.25116 0.801655 0
M  V30 13205 C 1248 6.12078 -0.0520719 0
M  V30 13206 N 1247.14 6.97583 0.795124 0
M  V30 13207 H 1251.98 2.83567 -0.916187 0
M  V30 13208 H 1249.52 1.39609 -0.463436 0
M  V30 13209 H 1251.47 3.96738 1.29054 0
M  V30 13210 H 1250.1 2.84894 1.51774 0
M  V30 13211 H 1249.16 3.73227 -0.735249 0
M  V30 13212 H 1250.47 4.93161 -0.747899 0
M  V30 13213 H 1249.62 5.90377 1.39786 0
M  V30 13214 H 1248.36 4.6423 1.4947 0
M  V30 13215 H 1247.37 5.45813 -0.660946 0
M  V30 13216 H 1248.59 6.75032 -0.742178 0
M  V30 13217 H 1246.54 6.39246 1.47312 0
M  V30 13218 H 1246.45 7.55754 0.192705 0
M  V30 13219 H 1247.72 7.67254 1.3763 0
M  V30 13220 N 1251.95 0.502579 1.49372 0
M  V30 13221 C 1253.2 -0.0412993 2.02058 0
M  V30 13222 C 1253.52 -1.37338 1.38431 0
M  V30 13223 O 1252.79 -1.88305 0.540175 0
M  V30 13224 H 1251.37 -0.0182522 0.746777 0
M  V30 13225 H 1254.03 0.660179 1.83378 0
M  V30 13226 H 1253.13 -0.169812 3.11638 0
M  V30 13227 N 1253.43 -1.55816 0.23648 0
M  V30 13228 C 1254.34 -2.24576 -0.678439 0
M  V30 13229 C 1255.35 -1.25836 -1.20172 0
M  V30 13230 O 1256.53 -1.58686 -1.24019 0
M  V30 13231 C 1253.6 -2.92376 -1.86325 0
M  V30 13232 C 1252.66 -4.06499 -1.38047 0
M  V30 13233 C 1251.89 -4.71057 -2.50881 0
M  V30 13234 O 1252.11 -4.34652 -3.69369 0
M  V30 13235 O 1251.05 -5.59768 -2.21232 0
M  V30 13236 H 1254.87 -3.03452 -0.122601 0
M  V30 13237 H 1252.46 -1.49399 0.00540803 0
M  V30 13238 H 1254.34 -3.35117 -2.55488 0
M  V30 13239 H 1253.01 -2.16448 -2.40691 0
M  V30 13240 H 1251.92 -3.68296 -0.656422 0
M  V30 13241 H 1253.25 -4.84214 -0.883024 0
M  V30 13242 N 1254.91 0.036755 -1.57557 0
M  V30 13243 C 1255.82 1.05687 -2.09446 0
M  V30 13244 C 1256.83 1.40137 -1.03139 0
M  V30 13245 O 1258.01 1.49611 -1.34828 0
M  V30 13246 C 1255.07 2.34114 -2.55717 0
M  V30 13247 C 1254.13 2.06316 -3.76473 0
M  V30 13248 C 1253.37 3.2862 -4.20529 0
M  V30 13249 O 1253.59 4.3902 -3.64167 0
M  V30 13250 O 1252.52 3.14772 -5.13033 0
M  V30 13251 H 1256.35 0.64593 -2.96751 0
M  V30 13252 H 1253.94 0.253235 -1.47238 0
M  V30 13253 H 1255.82 3.09631 -2.85844 0
M  V30 13254 H 1254.49 2.74519 -1.71526 0
M  V30 13255 H 1253.4 1.28392 -3.51378 0
M  V30 13256 H 1254.73 1.70772 -4.61625 0
M  V30 13257 N 1256.39 1.54543 0.308881 0
M  V30 13258 C 1257.61 1.77753 1.06857 0
M  V30 13259 C 1258.04 0.531616 1.80431 0
M  V30 13260 O 1257.39 -0.517513 1.73757 0
M  V30 13261 C 1257.44 2.97968 2.03094 0
M  V30 13262 O 1256.55 2.70541 3.11257 0
M  V30 13263 H 1255.89 0.588576 0.307368 0
M  V30 13264 H 1258.42 2.01607 0.348703 0
M  V30 13265 H 1258.43 3.25722 2.45702 0
M  V30 13266 H 1257.1 3.88314 1.48948 0
M  V30 13267 H 1255.68 2.53781 2.7322 0
M  V30 13268 N 1257.86 -0.571685 1.46866 0
M  V30 13269 C 1259.09 -1.35327 1.56109 0
M  V30 13270 C 1259.5 -1.88086 0.20504 0
M  V30 13271 O 1258.84 -1.64896 -0.809626 0
M  V30 13272 C 1258.91 -2.56939 2.51441 0
M  V30 13273 C 1258.57 -2.2557 3.97451 0
M  V30 13274 C 1259.57 -1.83737 4.86351 0
M  V30 13275 C 1257.25 -2.37375 4.42672 0
M  V30 13276 C 1259.25 -1.54118 6.18487 0
M  V30 13277 C 1256.93 -2.07368 5.7484 0
M  V30 13278 C 1257.93 -1.65806 6.62569 0
M  V30 13279 O 1257.62 -1.36173 7.92283 0
M  V30 13280 H 1257.35 -0.419368 0.530194 0
M  V30 13281 H 1259.91 -0.700859 1.93073 0
M  V30 13282 H 1258.14 -3.25023 2.09517 0
M  V30 13283 H 1259.82 -3.19012 2.5097 0
M  V30 13284 H 1260.59 -1.74122 4.52666 0
M  V30 13285 H 1256.47 -2.68686 3.74605 0
M  V30 13286 H 1260.01 -1.21603 6.8692 0
M  V30 13287 H 1255.91 -2.16611 6.08071 0
M  V30 13288 H 1256.68 -1.49926 8.04652 0
M  V30 13289 N 1259.34 -1.34755 -0.817236 0
M  V30 13290 C 1260.58 -1.28786 -1.58725 0
M  V30 13291 C 1260.95 0.138807 -1.91498 0
M  V30 13292 O 1262.15 0.322743 -2.66855 0
M  V30 13293 C 1260.42 -2.15907 -2.84814 0
M  V30 13294 S 1261.98 -2.27347 -3.75311 0
M  V30 13295 H 1258.79 -0.457844 -0.543967 0
M  V30 13296 H 1261.4 -1.70031 -0.96487 0
M  V30 13297 H 1260.1 -3.18559 -2.58744 0
M  V30 13298 H 1259.63 -1.7558 -3.52044 0
M  V30 13299 H 1261.65 -1.45044 -4.74528 0
M  V30 13300 N 1260.82 1.03812 -1.18578 0
M  V30 13301 C 1262.07 1.76455 -0.977071 0
M  V30 13302 C 1262.38 1.8926 0.493964 0
M  V30 13303 O 1263.59 2.58781 0.821256 0
M  V30 13304 C 1262.04 3.17264 -1.69917 0
M  V30 13305 C 1261.65 3.12543 -3.20969 0
M  V30 13306 C 1263.4 3.94266 -1.57337 0
M  V30 13307 C 1261.3 4.48226 -3.85807 0
M  V30 13308 H 1260.23 0.661445 -0.361949 0
M  V30 13309 H 1262.88 1.16252 -1.41978 0
M  V30 13310 H 1261.27 3.77878 -1.18424 0
M  V30 13311 H 1262.44 2.61364 -3.79507 0
M  V30 13312 H 1260.75 2.49039 -3.33719 0
M  V30 13313 H 1263.35 4.9461 -2.03137 0
M  V30 13314 H 1263.69 4.12963 -0.526033 0
M  V30 13315 H 1264.23 3.40232 -2.06124 0
M  V30 13316 H 1260.97 4.34734 -4.90599 0
M  V30 13317 H 1260.49 4.99497 -3.32058 0
M  V30 13318 H 1262.17 5.17135 -3.88819 0
M  V30 13319 N 1262.3 0.988223 1.22768 0
M  V30 13320 C 1263.54 0.669599 1.93121 0
M  V30 13321 C 1263.9 -0.783331 1.75294 0
M  V30 13322 O 1265.1 -1.21315 2.39867 0
M  V30 13323 C 1263.37 1.05876 3.41358 0
M  V30 13324 S 1264.93 0.857797 4.30334 0
M  V30 13325 H 1261.75 0.244972 0.667465 0
M  V30 13326 H 1264.35 1.26952 1.48673 0
M  V30 13327 H 1263.06 2.11267 3.51844 0
M  V30 13328 H 1262.59 0.450453 3.90813 0
M  V30 13329 H 1264.6 -0.254171 4.95549 0
M  V30 13330 N 1263.78 -1.38018 0.760839 0
M  V30 13331 C 1265.02 -1.99557 0.319609 0
M  V30 13332 C 1265.34 -1.60699 -1.10457 0
M  V30 13333 O 1264.61 -0.867248 -1.75658 0
M  V30 13334 H 1263.19 -0.738066 0.115182 0
M  V30 13335 H 1265.86 -1.6867 0.976544 0
M  V30 13336 H 1264.95 -3.09672 0.388523 0
M  V30 13337 N 1265.25 -0.510493 -1.49103 0
M  V30 13338 C 1266.2 0.276449 -2.30951 0
M  V30 13339 C 1267.2 0.953893 -1.3999 0
M  V30 13340 O 1268.4 0.880499 -1.56994 0
M  V30 13341 H 1264.78 0.108013 -0.744202 0
M  V30 13342 H 1266.75 -0.433725 -2.95231 0
M  V30 13343 C 1265.5 1.32234 -3.21573 0
M  V30 13344 H 1264.82 0.810468 -3.91499 0
M  V30 13345 H 1266.26 1.84476 -3.81765 0
M  V30 13346 C 1264.72 2.3456 -2.41833 0
M  V30 13347 O 1265.25 3.40627 -2.12922 0
M  V30 13348 N 1263.45 2.07272 -2.03682 0
M  V30 13349 H 1263 1.21036 -2.27394 0
M  V30 13350 H 1262.96 2.75963 -1.50638 0
M  V30 13351 N 1266.73 1.55688 -0.24474 0
M  V30 13352 C 1267.64 2.24933 0.666519 0
M  V30 13353 C 1268.66 1.26471 1.19503 0
M  V30 13354 O 1269.83 1.59342 1.23176 0
M  V30 13355 C 1266.9 2.9336 1.84772 0
M  V30 13356 C 1265.96 4.07225 1.35889 0
M  V30 13357 C 1265.19 4.72381 2.48379 0
M  V30 13358 O 1265.42 4.36605 3.67059 0
M  V30 13359 O 1264.35 5.60933 2.18261 0
M  V30 13360 H 1268.18 3.03513 0.106507 0
M  V30 13361 H 1265.76 1.49394 -0.0133309 0
M  V30 13362 H 1267.64 3.36468 2.53708 0
M  V30 13363 H 1266.32 2.17721 2.39539 0
M  V30 13364 H 1265.22 3.68639 0.636881 0
M  V30 13365 H 1266.56 4.84676 0.857333 0
M  V30 13366 N 1268.21 -0.0283989 1.57574 0
M  V30 13367 C 1269.63 -0.384054 1.5491 0
M  V30 13368 C 1269.83 -1.76564 0.970947 0
M  V30 13369 O 1268.88 -2.45455 0.592288 0
M  V30 13370 C 1270.19 -0.285297 2.99344 0
M  V30 13371 C 1271.74 -0.36233 3.10896 0
M  V30 13372 C 1272.22 -0.293014 4.57062 0
M  V30 13373 N 1273.71 -0.351788 4.61862 0
M  V30 13374 C 1274.44 -0.321054 5.725 0
M  V30 13375 N 1273.94 -0.242573 6.92375 0
M  V30 13376 N 1275.73 -0.370832 5.60875 0
M  V30 13377 H 1267.88 0.87573 1.93506 0
M  V30 13378 H 1270.15 0.33305 0.887571 0
M  V30 13379 H 1269.85 0.664146 3.45372 0
M  V30 13380 H 1269.73 -1.07869 3.61447 0
M  V30 13381 H 1272.11 -1.30221 2.64814 0
M  V30 13382 H 1272.19 0.460422 2.51622 0
M  V30 13383 H 1271.84 0.643197 5.03811 0
M  V30 13384 H 1271.77 -1.13388 5.14248 0
M  V30 13385 H 1274.26 -0.414929 3.75615 0
M  V30 13386 H 1274.57 -0.224239 7.72475 0
M  V30 13387 H 1272.92 -0.208612 6.94687 0
M  V30 13388 H 1276.11 -0.430141 4.6612 0
M  V30 13389 H 1276.28 -0.343412 6.47089 0
M  V30 13390 N 1269.69 -1.54705 -0.300681 0
M  V30 13391 C 1270.62 -1.8205 -1.39249 0
M  V30 13392 C 1271.63 -0.703476 -1.46816 0
M  V30 13393 O 1272.82 -0.980957 -1.49129 0
M  V30 13394 C 1269.92 -1.94376 -2.77617 0
M  V30 13395 C 1269.09 -3.2478 -2.92979 0
M  V30 13396 C 1268.15 -3.27518 -4.11848 0
M  V30 13397 O 1267.18 -4.01047 -4.03918 0
M  V30 13398 N 1268.38 -2.52932 -5.22499 0
M  V30 13399 H 1271.15 -2.76279 -1.16146 0
M  V30 13400 H 1268.71 -1.54283 -0.49075 0
M  V30 13401 H 1270.7 -1.93609 -3.55384 0
M  V30 13402 H 1269.27 -1.07141 -2.93666 0
M  V30 13403 H 1268.49 -3.38319 -2.02322 0
M  V30 13404 H 1269.78 -4.10835 -3.00153 0
M  V30 13405 H 1269.18 -1.92825 -5.31822 0
M  V30 13406 H 1267.73 -2.57919 -5.98599 0
M  V30 13407 N 1271.17 0.563888 -1.47167 0
M  V30 13408 C 1272.39 1.34693 -1.57052 0
M  V30 13409 C 1272.81 1.87534 -0.218308 0
M  V30 13410 O 1272.17 1.64639 0.787416 0
M  V30 13411 C 1272.22 2.52148 -2.59044 0
M  V30 13412 O 1271.94 2.01492 -3.89015 0
M  V30 13413 C 1273.44 3.4445 -2.7905 0
M  V30 13414 H 1270.66 0.410822 -0.530534 0
M  V30 13415 H 1273.2 0.683731 -1.92731 0
M  V30 13416 H 1271.36 3.14419 -2.26317 0
M  V30 13417 H 1271.77 2.78122 -4.44689 0
M  V30 13418 H 1273.25 4.23297 -3.54293 0
M  V30 13419 H 1273.72 3.97575 -1.86631 0
M  V30 13420 H 1274.33 2.88 -3.12948 0
M  V30 13421 N 1272.64 1.35187 0.810078 0
M  V30 13422 C 1273.57 1.30481 1.93641 0
M  V30 13423 C 1274.56 0.179875 1.69146 0
M  V30 13424 O 1275.74 0.374284 1.90559 0
M  V30 13425 C 1272.87 1.07251 3.30325 0
M  V30 13426 C 1271.82 2.16348 3.69293 0
M  V30 13427 C 1271.15 1.78288 5.04101 0
M  V30 13428 C 1272.45 3.58285 3.80038 0
M  V30 13429 H 1274.14 2.24725 1.97836 0
M  V30 13430 H 1271.69 1.08179 0.950436 0
M  V30 13431 H 1273.64 1.02599 4.08719 0
M  V30 13432 H 1272.37 0.0945203 3.26463 0
M  V30 13433 H 1271.03 2.2009 2.93182 0
M  V30 13434 H 1270.67 0.791163 4.96739 0
M  V30 13435 H 1270.37 2.51315 5.31144 0
M  V30 13436 H 1271.9 1.75155 5.84938 0
M  V30 13437 H 1273.31 3.56884 4.48672 0
M  V30 13438 H 1271.71 4.30044 4.18548 0
M  V30 13439 H 1272.78 3.94691 2.81685 0
M  V30 13440 N 1274.12 -1.03182 1.19127 0
M  V30 13441 C 1275.35 -1.80703 1.01791 0
M  V30 13442 C 1275.77 -1.83147 -0.428824 0
M  V30 13443 O 1275.13 -1.2553 -1.30812 0
M  V30 13444 C 1275.18 -3.23754 1.58794 0
M  V30 13445 O 1274.28 -4.04261 0.815274 0
M  V30 13446 H 1273.62 -0.557944 0.359992 0
M  V30 13447 H 1276.15 -1.29887 1.58084 0
M  V30 13448 H 1276.16 -3.7451 1.61884 0
M  V30 13449 H 1274.84 -3.2129 2.64094 0
M  V30 13450 H 1273.42 -3.62909 0.857392 0
M  V30 13451 N 1275.6 -0.99472 -1.22242 0
M  V30 13452 C 1276.85 -0.682256 -1.91616 0
M  V30 13453 C 1277.2 0.777397 -1.75995 0
M  V30 13454 O 1276.49 1.55509 -1.11926 0
M  V30 13455 C 1276.69 -1.02561 -3.42368 0
M  V30 13456 C 1276.52 -2.5171 -3.72656 0
M  V30 13457 C 1275.29 -3.18144 -3.92571 0
M  V30 13458 C 1277.49 -3.49835 -3.76988 0
M  V30 13459 N 1275.47 -4.5675 -4.10186 0
M  V30 13460 C 1276.84 -4.73907 -3.99765 0
M  V30 13461 C 1278.89 -3.44116 -3.59845 0
M  V30 13462 C 1277.6 -5.92957 -4.07179 0
M  V30 13463 C 1279.62 -4.62545 -3.68519 0
M  V30 13464 C 1278.98 -5.85417 -3.91748 0
M  V30 13465 H 1275.08 -0.300961 -0.721766 0
M  V30 13466 H 1277.67 -1.2751 -1.47137 0
M  V30 13467 H 1275.84 -0.461327 -3.85651 0
M  V30 13468 H 1277.57 -0.66895 -3.99133 0
M  V30 13469 H 1274.33 -2.68608 -3.9006 0
M  V30 13470 H 1274.75 -5.28649 -4.22917 0
M  V30 13471 H 1279.39 -2.50134 -3.40871 0
M  V30 13472 H 1277.11 -6.87341 -4.24956 0
M  V30 13473 H 1280.7 -4.59711 -3.56591 0
M  V30 13474 H 1279.58 -6.75525 -3.98291 0
M  V30 13475 N 1277.08 1.37613 -0.768148 0
M  V30 13476 C 1278.31 2.04052 -0.342111 0
M  V30 13477 C 1278.72 1.57936 1.03449 0
M  V30 13478 O 1278.08 0.758981 1.65969 0
M  V30 13479 C 1278.13 3.5958 -0.372096 0
M  V30 13480 O 1277.85 4.04008 -1.69439 0
M  V30 13481 C 1279.35 4.43251 0.0659884 0
M  V30 13482 H 1276.57 0.655391 -0.143886 0
M  V30 13483 H 1279.12 1.76017 -1.04107 0
M  V30 13484 H 1277.27 3.86399 0.278248 0
M  V30 13485 H 1277.68 4.98511 -1.63054 0
M  V30 13486 H 1279.16 5.52 -0.00614775 0
M  V30 13487 H 1279.64 4.24788 1.11588 0
M  V30 13488 H 1280.24 4.2165 -0.55603 0
M  V30 13489 N 1278.56 0.518393 1.4883 0
M  V30 13490 C 1279.8 -0.0199348 2.0279 0
M  V30 13491 C 1280.14 -1.35026 1.39576 0
M  V30 13492 O 1279.41 -1.86927 0.537449 0
M  V30 13493 C 1279.69 -0.154184 3.5977 0
M  V30 13494 C 1279.55 1.2005 4.33484 0
M  V30 13495 C 1280.87 -0.886547 4.31078 0
M  V30 13496 H 1277.98 -0.00577061 0.736977 0
M  V30 13497 H 1280.63 0.673178 1.77675 0
M  V30 13498 H 1278.78 -0.74451 3.81299 0
M  V30 13499 H 1280.45 1.83104 4.23404 0
M  V30 13500 H 1278.69 1.78537 3.95357 0
M  V30 13501 H 1279.36 1.05968 5.41733 0
M  V30 13502 H 1281.84 -0.385711 4.14308 0
M  V30 13503 H 1280.71 -0.949355 5.40628 0
M  V30 13504 H 1280.98 -1.93424 3.97542 0
M  V30 13505 N 1280.03 -1.55556 0.252993 0
M  V30 13506 C 1281.26 -2.03491 -0.374022 0
M  V30 13507 C 1281.68 -1.13208 -1.51094 0
M  V30 13508 O 1281.03 -0.147705 -1.81901 0
M  V30 13509 C 1281.09 -3.50724 -0.876047 0
M  V30 13510 O 1280.81 -4.37569 0.215574 0
M  V30 13511 C 1282.31 -4.14448 -1.57313 0
M  V30 13512 H 1279.53 -0.665183 -0.0881644 0
M  V30 13513 H 1282.07 -2.00964 0.378636 0
M  V30 13514 H 1280.23 -3.53766 -1.57886 0
M  V30 13515 H 1280.64 -5.24235 -0.166625 0
M  V30 13516 H 1282.11 -5.19142 -1.87606 0
M  V30 13517 H 1282.59 -3.61299 -2.49719 0
M  V30 13518 H 1283.2 -4.15346 -0.914735 0
M  V30 13519 N 1281.51 0.0200419 -1.57587 0
M  V30 13520 C 1282.92 0.565484 -1.7793 0
M  V30 13521 C 1283.27 1.75096 -0.885201 0
M  V30 13522 O 1282.4 2.16243 -0.0823831 0
M  V30 13523 C 1282.99 1.03263 -3.2268 0
M  V30 13524 C 1281.55 1.52352 -3.44189 0
M  V30 13525 C 1280.7 0.465637 -2.73363 0
M  V30 13526 H 1283.65 -0.206174 -1.57355 0
M  V30 13527 H 1283.67 1.89959 -3.2969 0
M  V30 13528 H 1283.18 0.169613 -3.87729 0
M  V30 13529 H 1281.29 2.40809 -2.84327 0
M  V30 13530 H 1281.4 1.5648 -4.52825 0
M  V30 13531 H 1279.76 0.922738 -2.37398 0
M  V30 13532 H 1280.55 -0.388068 -3.411 0
M  V30 13533 N 1282.99 1.54862 0.292472 0
M  V30 13534 C 1283.94 1.86403 1.36098 0
M  V30 13535 C 1284.91 0.713694 1.49985 0
M  V30 13536 O 1286.09 0.963134 1.64707 0
M  V30 13537 C 1283.23 2.1244 2.71962 0
M  V30 13538 C 1282.35 3.40038 2.66454 0
M  V30 13539 C 1281.48 3.55875 3.94368 0
M  V30 13540 C 1280.52 4.77235 3.83293 0
M  V30 13541 N 1279.66 4.89832 5.03 0
M  V30 13542 H 1284.5 2.77546 1.085 0
M  V30 13543 H 1282.03 1.37427 0.524607 0
M  V30 13544 H 1283.99 2.25533 3.50985 0
M  V30 13545 H 1282.62 1.24554 2.97802 0
M  V30 13546 H 1281.67 3.35521 1.79248 0
M  V30 13547 H 1282.99 4.29188 2.54163 0
M  V30 13548 H 1282.14 3.68679 4.8183 0
M  V30 13549 H 1280.88 2.64874 4.09503 0
M  V30 13550 H 1279.88 4.64455 2.94214 0
M  V30 13551 H 1281.11 5.69651 3.69695 0
M  V30 13552 H 1279.05 4.01756 5.18582 0
M  V30 13553 H 1278.97 5.72996 4.93165 0
M  V30 13554 H 1280.24 5.07001 5.92089 0
M  V30 13555 N 1284.47 -0.556076 1.47464 0
M  V30 13556 C 1285.7 -1.33858 1.57764 0
M  V30 13557 C 1286.11 -1.87415 0.22825 0
M  V30 13558 O 1285.47 -1.65054 -0.778674 0
M  V30 13559 C 1285.52 -2.5077 2.60378 0
M  V30 13560 O 1285.24 -1.99426 3.90078 0
M  V30 13561 C 1286.74 -3.42965 2.80873 0
M  V30 13562 H 1283.96 -0.408003 0.532705 0
M  V30 13563 H 1286.51 -0.673501 1.93091 0
M  V30 13564 H 1284.66 -3.13214 2.27982 0
M  V30 13565 H 1285.07 -2.75759 4.46158 0
M  V30 13566 H 1286.55 -4.21412 3.56533 0
M  V30 13567 H 1287.03 -3.96579 1.88737 0
M  V30 13568 H 1287.63 -2.86336 3.14471 0
M  V30 13569 N 1285.95 -1.35615 -0.802897 0
M  V30 13570 C 1286.88 -1.31506 -1.92947 0
M  V30 13571 C 1287.86 -0.188843 -1.69048 0
M  V30 13572 O 1289.04 -0.384384 -1.90358 0
M  V30 13573 C 1286.17 -1.09001 -3.29752 0
M  V30 13574 C 1285.13 -2.18303 -3.68141 0
M  V30 13575 C 1284.45 -1.80959 -5.03148 0
M  V30 13576 C 1285.75 -3.60296 -3.78132 0
M  V30 13577 H 1287.45 -2.25771 -1.96642 0
M  V30 13578 H 1284.99 -1.08682 -0.944685 0
M  V30 13579 H 1286.95 -1.04766 -4.08169 0
M  V30 13580 H 1285.67 -0.111832 -3.26408 0
M  V30 13581 H 1284.33 -2.21642 -2.92011 0
M  V30 13582 H 1283.98 -0.817495 -4.96312 0
M  V30 13583 H 1283.68 -2.54129 -5.29804 0
M  V30 13584 H 1285.2 -1.78255 -5.84001 0
M  V30 13585 H 1286.62 -3.59259 -4.46773 0
M  V30 13586 H 1285.01 -4.32258 -4.16261 0
M  V30 13587 H 1286.08 -3.9618 -2.79588 0
M  V30 13588 N 1287.43 1.02549 -1.19673 0
M  V30 13589 C 1288.67 1.75656 -0.999463 0
M  V30 13590 C 1288.99 1.89238 0.470517 0
M  V30 13591 O 1288.26 1.42843 1.34062 0
M  V30 13592 H 1286.84 0.650732 -0.366821 0
M  V30 13593 H 1289.51 1.23684 -1.50627 0
M  V30 13594 H 1288.6 2.76353 -1.45035 0
M  V30 13595 N 1288.9 1.00119 1.21713 0
M  V30 13596 C 1289.85 0.551452 2.25969 0
M  V30 13597 C 1290.85 -0.402075 1.64559 0
M  V30 13598 O 1292.05 -0.273685 1.77907 0
M  V30 13599 H 1288.43 0.159968 0.734789 0
M  V30 13600 H 1290.4 1.44201 2.61244 0
M  V30 13601 C 1289.15 -0.109992 3.47526 0
M  V30 13602 H 1288.47 0.614686 3.95046 0
M  V30 13603 H 1289.91 -0.388007 4.22221 0
M  V30 13604 C 1288.37 -1.34798 3.08757 0
M  V30 13605 O 1288.9 -2.44266 3.189 0
M  V30 13606 N 1287.1 -1.2263 2.63458 0
M  V30 13607 H 1286.65 -0.335571 2.55405 0
M  V30 13608 H 1286.61 -2.05565 2.37887 0
M  V30 13609 N 1290.38 -1.37203 0.775435 0
M  V30 13610 C 1291.63 -1.99897 0.341936 0
M  V30 13611 C 1291.96 -1.61414 -1.07978 0
M  V30 13612 O 1291.24 -0.862108 -1.7435 0
M  V30 13613 C 1291.52 -3.56755 0.489715 0
M  V30 13614 C 1291.37 -4.05135 1.95411 0
M  V30 13615 C 1292.69 -4.39978 -0.103779 0
M  V30 13616 H 1289.81 -0.726199 0.125717 0
M  V30 13617 H 1292.45 -1.62826 0.979167 0
M  V30 13618 H 1290.6 -3.88464 -0.0527684 0
M  V30 13619 H 1292.27 -3.83975 2.55658 0
M  V30 13620 H 1290.52 -3.57192 2.46164 0
M  V30 13621 H 1291.19 -5.14161 2.00855 0
M  V30 13622 H 1293.66 -4.14547 0.359134 0
M  V30 13623 H 1292.54 -5.48892 0.0297337 0
M  V30 13624 H 1292.8 -4.25658 -1.19448 0
M  V30 13625 N 1291.86 -0.526279 -1.48553 0
M  V30 13626 C 1292.81 0.251938 -2.31232 0
M  V30 13627 C 1293.8 0.938991 -1.40994 0
M  V30 13628 O 1295.01 0.863798 -1.57919 0
M  V30 13629 H 1291.38 0.100114 -0.745306 0
M  V30 13630 H 1293.35 -0.465013 -2.94754 0
M  V30 13631 C 1292.1 1.28816 -3.22958 0
M  V30 13632 H 1291.43 0.768899 -3.92337 0
M  V30 13633 H 1292.87 1.80417 -3.837 0
M  V30 13634 C 1291.32 2.31982 -2.44307 0
M  V30 13635 O 1291.85 3.3835 -2.16523 0
M  V30 13636 N 1290.06 2.051 -2.05869 0
M  V30 13637 H 1289.61 1.18618 -2.28665 0
M  V30 13638 H 1289.57 2.74349 -1.53557 0
M  V30 13639 N 1293.34 1.5542 -0.261239 0
M  V30 13640 C 1294.58 1.99284 0.359487 0
M  V30 13641 C 1294.91 1.14954 1.56894 0
M  V30 13642 O 1294.17 0.203796 1.94636 0
M  V30 13643 C 1294.47 3.48354 0.799021 0
M  V30 13644 C 1294.13 4.49872 -0.30426 0
M  V30 13645 C 1292.79 4.77353 -0.607237 0
M  V30 13646 C 1295.15 5.10547 -1.04838 0
M  V30 13647 C 1292.47 5.62781 -1.65816 0
M  V30 13648 C 1294.83 5.97115 -2.08893 0
M  V30 13649 C 1293.49 6.22923 -2.3984 0
M  V30 13650 H 1292.76 0.72923 0.131546 0
M  V30 13651 H 1295.41 1.87851 -0.372058 0
M  V30 13652 H 1293.71 3.57192 1.61001 0
M  V30 13653 H 1295.41 3.7969 1.28981 0
M  V30 13654 H 1292 4.28561 -0.0579863 0
M  V30 13655 H 1296.18 4.89352 -0.827566 0
M  V30 13656 H 1291.44 5.81026 -1.90311 0
M  V30 13657 H 1295.61 6.43168 -2.67035 0
M  V30 13658 H 1293.24 6.88912 -3.2141 0
M  V30 13659 N 1294.82 -0.0116844 1.57596 0
M  V30 13660 C 1296.04 -0.713924 1.94725 0
M  V30 13661 C 1296.47 -1.67157 0.862565 0
M  V30 13662 O 1295.82 -1.80401 -0.180308 0
M  V30 13663 C 1295.87 -1.43214 3.30941 0
M  V30 13664 O 1294.98 -2.5461 3.24419 0
M  V30 13665 H 1294.32 -0.190772 0.636005 0
M  V30 13666 H 1296.85 0.0380247 2.04565 0
M  V30 13667 H 1296.86 -1.79819 3.66237 0
M  V30 13668 H 1295.53 -0.729906 4.09445 0
M  V30 13669 H 1294.11 -2.20419 3.00782 0
M  V30 13670 N 1296.29 -1.55015 -0.284256 0
M  V30 13671 C 1297.54 -1.7535 -1.01884 0
M  V30 13672 C 1297.87 -0.546825 -1.86342 0
M  V30 13673 O 1297.15 0.455832 -1.89083 0
M  V30 13674 C 1297.43 -3.05219 -1.91084 0
M  V30 13675 C 1297.28 -4.36219 -1.09694 0
M  V30 13676 C 1298.6 -3.31056 -2.89983 0
M  V30 13677 H 1295.72 -0.637981 -0.368984 0
M  V30 13678 H 1298.36 -1.87741 -0.292116 0
M  V30 13679 H 1296.51 -2.94786 -2.53048 0
M  V30 13680 H 1298.19 -4.58594 -0.498876 0
M  V30 13681 H 1296.43 -4.31951 -0.400078 0
M  V30 13682 H 1297.1 -5.23392 -1.75399 0
M  V30 13683 H 1299.58 -3.41209 -2.38151 0
M  V30 13684 H 1298.45 -4.23212 -3.49547 0
M  V30 13685 H 1298.71 -2.50153 -3.64521 0
M  V30 13686 N 1297.77 0.548248 -1.47757 0
M  V30 13687 C 1299 1.335 -1.58722 0
M  V30 13688 C 1299.42 1.86549 -0.241034 0
M  V30 13689 O 1298.78 1.63447 0.784517 0
M  V30 13690 C 1298.83 2.47457 -2.62293 0
M  V30 13691 O 1297.93 3.49956 -2.18185 0
M  V30 13692 H 1297.27 0.396166 -0.532868 0
M  V30 13693 H 1299.8 0.66164 -1.93607 0
M  V30 13694 H 1299.81 2.93901 -2.82995 0
M  V30 13695 H 1298.49 2.08203 -3.60034 0
M  V30 13696 H 1297.06 3.09755 -2.0762 0
M  V30 13697 N 1299.25 1.36039 0.795694 0
M  V30 13698 C 1300.21 1.29709 1.88966 0
M  V30 13699 C 1301.21 0.206142 1.59473 0
M  V30 13700 O 1302.4 0.460534 1.68002 0
M  V30 13701 C 1299.53 1.00922 3.25619 0
M  V30 13702 H 1300.73 2.26993 1.95995 0
M  V30 13703 H 1298.28 1.2072 0.992791 0
M  V30 13704 H 1299.02 0.0407027 3.24274 0
M  V30 13705 H 1298.8 1.79863 3.48413 0
M  V30 13706 H 1300.29 0.990826 4.05675 0
M  V30 13707 N 1300.73 -1.01913 1.20215 0
M  V30 13708 C 1301.64 -2.13864 0.964328 0
M  V30 13709 C 1302.65 -1.73821 -0.0789556 0
M  V30 13710 O 1303.83 -2.01111 0.107914 0
M  V30 13711 C 1300.9 -3.42827 0.516757 0
M  V30 13712 C 1299.96 -3.97127 1.63059 0
M  V30 13713 C 1299.19 -5.19935 1.20428 0
M  V30 13714 O 1299.41 -5.70355 0.0719119 0
M  V30 13715 O 1298.35 -5.67322 2.01071 0
M  V30 13716 H 1302.17 -2.36795 1.90162 0
M  V30 13717 H 1299.76 -1.1226 0.985803 0
M  V30 13718 H 1301.64 -4.20493 0.276272 0
M  V30 13719 H 1300.31 -3.21318 -0.391983 0
M  V30 13720 H 1299.22 -3.20752 1.92533 0
M  V30 13721 H 1300.55 -4.2302 2.51624 0
M  V30 13722 N 1302.21 -1.00763 -1.2118 0
M  V30 13723 C 1303.17 -0.575183 -2.21865 0
M  V30 13724 C 1304.17 0.349871 -1.56948 0
M  V30 13725 O 1305.36 0.139795 -1.73638 0
M  V30 13726 C 1302.49 0.161308 -3.40518 0
M  V30 13727 H 1303.68 -1.46578 -2.61639 0
M  V30 13728 H 1301.24 -0.79643 -1.34487 0
M  V30 13729 H 1301.97 1.06723 -3.06236 0
M  V30 13730 H 1301.76 -0.503101 -3.88859 0
M  V30 13731 H 1303.25 0.451527 -4.15152 0
M  V30 13732 N 1303.68 1.3679 -0.7827 0
M  V30 13733 C 1304.62 2.27871 -0.122531 0
M  V30 13734 C 1305.6 1.46885 0.697399 0
M  V30 13735 O 1306.78 1.76198 0.669819 0
M  V30 13736 C 1303.91 3.28314 0.832311 0
M  V30 13737 C 1302.95 4.26394 0.0950152 0
M  V30 13738 S 1303.79 5.2131 -1.22457 0
M  V30 13739 C 1304.94 6.25302 -0.273558 0
M  V30 13740 H 1305.17 2.83514 -0.894814 0
M  V30 13741 H 1302.71 1.43229 -0.5766 0
M  V30 13742 H 1304.67 3.86688 1.37778 0
M  V30 13743 H 1303.33 2.71597 1.57779 0
M  V30 13744 H 1302.52 4.97297 0.819278 0
M  V30 13745 H 1302.12 3.72067 -0.379778 0
M  V30 13746 H 1304.41 6.75263 0.550064 0
M  V30 13747 H 1305.36 7.01684 -0.951071 0
M  V30 13748 H 1305.76 5.64372 0.120115 0
M  V30 13749 N 1305.16 0.53415 1.48272 0
M  V30 13750 C 1306.09 -0.263508 2.2768 0
M  V30 13751 C 1307.11 -0.90064 1.35618 0
M  V30 13752 O 1308.3 -0.778379 1.60635 0
M  V30 13753 C 1305.4 -1.38878 3.09138 0
M  V30 13754 C 1304.57 -0.852784 4.29006 0
M  V30 13755 C 1303.63 -1.85969 4.92242 0
M  V30 13756 O 1302.65 -1.41497 5.51332 0
M  V30 13757 N 1303.86 -3.19207 4.84858 0
M  V30 13758 H 1306.62 0.417548 2.96777 0
M  V30 13759 H 1304.18 0.368743 1.57645 0
M  V30 13760 H 1306.17 -2.06062 3.48311 0
M  V30 13761 H 1304.74 -1.97343 2.42434 0
M  V30 13762 H 1303.96 -0.0048227 3.942 0
M  V30 13763 H 1305.25 -0.473634 5.06591 0
M  V30 13764 H 1304.65 -3.58001 4.38009 0
M  V30 13765 H 1303.21 -3.82013 5.28119 0
M  V30 13766 N 1306.64 -1.55279 0.269478 0
M  V30 13767 C 1307.87 -2.04334 -0.355313 0
M  V30 13768 C 1308.29 -1.14677 -1.491 0
M  V30 13769 O 1307.65 -0.144215 -1.80726 0
M  V30 13770 C 1307.7 -3.51172 -0.819162 0
M  V30 13771 O 1306.8 -3.64615 -1.9269 0
M  V30 13772 H 1306.14 -0.659827 -0.0743229 0
M  V30 13773 H 1308.67 -2.00609 0.402131 0
M  V30 13774 H 1308.68 -3.92428 -1.11642 0
M  V30 13775 H 1307.36 -4.15898 0.0117821 0
M  V30 13776 H 1305.93 -3.35261 -1.63261 0
M  V30 13777 N 1308.12 0.00332656 -1.576 0
M  V30 13778 C 1309.05 0.994803 -2.11248 0
M  V30 13779 C 1310.03 1.36061 -1.02085 0
M  V30 13780 O 1311.21 1.44494 -1.2975 0
M  V30 13781 C 1308.34 2.28772 -2.61306 0
M  V30 13782 C 1307.3 2.06362 -3.74965 0
M  V30 13783 C 1306.62 3.41638 -4.11324 0
M  V30 13784 C 1307.92 1.4289 -5.02374 0
M  V30 13785 H 1309.62 0.548119 -2.9434 0
M  V30 13786 H 1307.16 0.262208 -1.41593 0
M  V30 13787 H 1309.12 2.98485 -2.97464 0
M  V30 13788 H 1307.84 2.75547 -1.75332 0
M  V30 13789 H 1306.5 1.39076 -3.39195 0
M  V30 13790 H 1306.15 3.8611 -3.22379 0
M  V30 13791 H 1305.85 3.2746 -4.87897 0
M  V30 13792 H 1307.37 4.12671 -4.50039 0
M  V30 13793 H 1308.79 2.02555 -5.36325 0
M  V30 13794 H 1307.18 1.3921 -5.8373 0
M  V30 13795 H 1308.25 0.397708 -4.83266 0
M  V30 13796 N 1309.6 1.55164 0.276031 0
M  V30 13797 C 1310.51 1.90928 1.36321 0
M  V30 13798 C 1311.52 0.806183 1.54197 0
M  V30 13799 O 1312.7 1.10497 1.68382 0
M  V30 13800 C 1309.76 2.17123 2.70293 0
M  V30 13801 C 1308.82 3.40703 2.6119 0
M  V30 13802 C 1308.06 3.65638 3.88773 0
M  V30 13803 O 1308.28 2.93137 4.89313 0
M  V30 13804 O 1307.21 4.59172 3.89159 0
M  V30 13805 H 1311.04 2.8347 1.08988 0
M  V30 13806 H 1308.63 1.41672 0.474292 0
M  V30 13807 H 1310.51 2.3541 3.49514 0
M  V30 13808 H 1309.18 1.27765 2.97419 0
M  V30 13809 H 1308.09 3.27754 1.80355 0
M  V30 13810 H 1309.42 4.30271 2.39014 0
M  V30 13811 N 1311.07 -0.540404 1.48045 0
M  V30 13812 C 1312 -1.65538 1.6468 0
M  V30 13813 C 1312.99 -1.62713 0.495847 0
M  V30 13814 O 1314.17 -1.80072 0.727172 0
M  V30 13815 C 1311.3 -3.0415 1.67661 0
M  V30 13816 C 1310.25 -3.2183 2.82152 0
M  V30 13817 C 1309.58 -4.61397 2.70216 0
M  V30 13818 C 1310.88 -3.05596 4.23567 0
M  V30 13819 H 1312.57 -1.51873 2.58021 0
M  V30 13820 H 1310.12 -0.729208 1.24171 0
M  V30 13821 H 1312.07 -3.82013 1.77887 0
M  V30 13822 H 1310.8 -3.18814 0.708907 0
M  V30 13823 H 1309.46 -2.4638 2.71463 0
M  V30 13824 H 1309.1 -4.72883 1.71437 0
M  V30 13825 H 1308.8 -4.74174 3.47035 0
M  V30 13826 H 1310.33 -5.41374 2.82395 0
M  V30 13827 H 1311.74 -3.73261 4.35143 0
M  V30 13828 H 1310.14 -3.29871 5.01303 0
M  V30 13829 H 1311.21 -2.0214 4.40758 0
M  V30 13830 N 1312.55 -1.36459 -0.788468 0
M  V30 13831 C 1313.79 -1.32124 -1.55957 0
M  V30 13832 C 1314.16 0.0981565 -1.91749 0
M  V30 13833 O 1315.36 0.266067 -2.6748 0
M  V30 13834 C 1313.63 -2.219 -2.8017 0
M  V30 13835 S 1315.19 -2.35257 -3.70405 0
M  V30 13836 H 1312.01 -0.469279 -0.534133 0
M  V30 13837 H 1314.61 -1.72039 -0.928587 0
M  V30 13838 H 1313.31 -3.23976 -2.51928 0
M  V30 13839 H 1312.84 -1.83008 -3.48241 0
M  V30 13840 H 1314.86 -1.55077 -4.71344 0
M  V30 13841 N 1314.03 1.01274 -1.20754 0
M  V30 13842 C 1315.28 1.74586 -1.01804 0
M  V30 13843 C 1315.6 1.89727 0.450419 0
M  V30 13844 O 1314.87 1.44257 1.32539 0
M  V30 13845 H 1313.45 0.646804 -0.373702 0
M  V30 13846 H 1316.11 1.22079 -1.5193 0
M  V30 13847 H 1315.21 2.748 -1.47958 0
M  V30 13848 N 1315.51 1.01404 1.20644 0
M  V30 13849 C 1316.46 0.575388 2.25371 0
M  V30 13850 C 1317.45 -0.384598 1.64976 0
M  V30 13851 O 1318.66 -0.2548 1.78187 0
M  V30 13852 H 1315.03 0.167752 0.733051 0
M  V30 13853 H 1317 1.46964 2.597 0
M  V30 13854 C 1315.75 -0.0731257 3.47623 0
M  V30 13855 H 1315.08 0.656551 3.94372 0
M  V30 13856 H 1316.52 -0.343203 4.22609 0
M  V30 13857 C 1314.97 -1.31515 3.1017 0
M  V30 13858 O 1315.5 -2.40869 3.21473 0
M  V30 13859 N 1313.71 -1.19829 2.64744 0
M  V30 13860 H 1313.26 -0.308463 2.55746 0
M  V30 13861 H 1313.22 -2.0303 2.40054 0
M  V30 13862 N 1316.99 -1.36373 0.789944 0
M  V30 13863 C 1317.9 -2.3383 0.189873 0
M  V30 13864 C 1318.91 -1.61068 -0.65827 0
M  V30 13865 O 1320.09 -1.93049 -0.573932 0
M  V30 13866 C 1317.15 -3.40264 -0.664905 0
M  V30 13867 C 1316.22 -4.28825 0.201798 0
M  V30 13868 C 1315.45 -5.30176 -0.612278 0
M  V30 13869 O 1315.67 -5.39627 -1.84821 0
M  V30 13870 O 1314.61 -6.01899 -0.0118964 0
M  V30 13871 H 1318.43 -2.86915 0.995671 0
M  V30 13872 H 1316.02 -1.38852 0.551412 0
M  V30 13873 H 1317.9 -4.05339 -1.15231 0
M  V30 13874 H 1316.57 -2.89478 -1.44858 0
M  V30 13875 H 1315.48 -3.66789 0.735974 0
M  V30 13876 H 1316.81 -4.82965 0.949003 0
M  V30 13877 N 1318.47 -0.542005 -1.47987 0
M  V30 13878 C 1319.71 -0.0123299 -2.02796 0
M  V30 13879 C 1320.04 1.32789 -1.41707 0
M  V30 13880 O 1319.32 1.86048 -0.567119 0
M  V30 13881 C 1319.6 0.0969277 -3.5997 0
M  V30 13882 C 1319.46 -1.26931 -4.31519 0
M  V30 13883 C 1320.77 0.817854 -4.32434 0
M  V30 13884 H 1317.89 -0.00595479 -0.736976 0
M  V30 13885 H 1320.54 -0.70136 -1.76581 0
M  V30 13886 H 1318.69 0.683755 -3.82436 0
M  V30 13887 H 1320.36 -1.89817 -4.20437 0
M  V30 13888 H 1318.6 -1.84804 -3.92467 0
M  V30 13889 H 1319.27 -1.14573 -5.39979 0
M  V30 13890 H 1321.75 0.319749 -4.1487 0
M  V30 13891 H 1320.62 0.863225 -5.4207 0
M  V30 13892 H 1320.88 1.87075 -4.00569 0
M  V30 13893 N 1319.94 1.55134 -0.277709 0
M  V30 13894 C 1321.19 1.99949 0.338831 0
M  V30 13895 C 1321.52 1.16587 1.5531 0
M  V30 13896 O 1320.8 0.236572 1.93056 0
M  V30 13897 C 1321.08 3.5286 0.718457 0
M  V30 13898 C 1320.93 4.46975 -0.503332 0
M  V30 13899 C 1322.25 4.11754 1.55392 0
M  V30 13900 H 1319.37 0.726885 0.121682 0
M  V30 13901 H 1322.01 1.86055 -0.385171 0
M  V30 13902 H 1320.16 3.64831 1.33531 0
M  V30 13903 H 1321.84 4.46944 -1.14188 0
M  V30 13904 H 1320.08 4.18528 -1.14092 0
M  V30 13905 H 1320.75 5.51659 -0.193912 0
M  V30 13906 H 1323.23 4.03075 1.03293 0
M  V30 13907 H 1322.1 5.1895 1.78835 0
M  V30 13908 H 1322.36 3.62147 2.53578 0
M  V30 13909 N 1321.42 0.00503138 1.57599 0
M  V30 13910 C 1322.33 -1.00097 2.12174 0
M  V30 13911 C 1323.35 -1.37353 1.06818 0
M  V30 13912 O 1324.52 -1.45984 1.38747 0
M  V30 13913 C 1321.59 -2.27252 2.61835 0
M  V30 13914 C 1320.65 -1.96262 3.81811 0
M  V30 13915 C 1319.88 -3.17355 4.29094 0
M  V30 13916 O 1320.11 -4.2921 3.75679 0
M  V30 13917 O 1319.04 -3.01059 5.21198 0
M  V30 13918 H 1322.87 -0.567024 2.9836 0
M  V30 13919 H 1320.45 -0.214109 1.47858 0
M  V30 13920 H 1322.33 -3.01944 2.93952 0
M  V30 13921 H 1321.01 -2.69875 1.78744 0
M  V30 13922 H 1319.91 -1.19031 3.54658 0
M  V30 13923 H 1321.25 -1.58473 4.65991 0
M  V30 13924 N 1322.9 -1.55308 -0.267798 0
M  V30 13925 C 1324.15 -1.7642 -1.00019 0
M  V30 13926 C 1324.48 -0.566559 -1.85752 0
M  V30 13927 O 1323.75 0.435752 -1.89556 0
M  V30 13928 C 1324.04 -3.07229 -1.87836 0
M  V30 13929 C 1323.89 -4.37358 -1.05061 0
M  V30 13930 C 1325.21 -3.34113 -2.86455 0
M  V30 13931 H 1322.33 -0.641859 -0.362197 0
M  V30 13932 H 1324.97 -1.8804 -0.272188 0
M  V30 13933 H 1323.12 -2.97454 -2.49907 0
M  V30 13934 H 1324.79 -4.59098 -0.450208 0
M  V30 13935 H 1323.03 -4.32351 -0.354242 0
M  V30 13936 H 1323.71 -5.25223 -1.69838 0
M  V30 13937 H 1326.18 -3.43715 -2.34519 0
M  V30 13938 H 1325.06 -4.26896 -3.45038 0
M  V30 13939 H 1325.32 -2.54005 -3.61848 0
M  V30 13940 N 1324.38 0.532545 -1.4833 0
M  V30 13941 C 1325.79 1.11451 -1.49785 0
M  V30 13942 C 1326.14 1.94386 -0.266207 0
M  V30 13943 O 1325.26 2.07121 0.62688 0
M  V30 13944 C 1325.86 2.0279 -2.71407 0
M  V30 13945 C 1324.42 2.56209 -2.75742 0
M  V30 13946 C 1323.57 1.33114 -2.43261 0
M  V30 13947 H 1326.52 0.317924 -1.55483 0
M  V30 13948 H 1326.54 2.87038 -2.49779 0
M  V30 13949 H 1326.05 1.42401 -3.61031 0
M  V30 13950 H 1324.15 3.20327 -1.9032 0
M  V30 13951 H 1324.26 2.95518 -3.77102 0
M  V30 13952 H 1322.63 1.64607 -1.94362 0
M  V30 13953 H 1323.41 0.744809 -3.35123 0
M  V30 13954 N 1325.86 1.36875 0.78122 0
M  V30 13955 C 1326.77 1.3404 1.92537 0
M  V30 13956 C 1327.78 0.241354 1.72318 0
M  V30 13957 O 1328.96 0.475128 1.95715 0
M  V30 13958 C 1326.02 1.13708 3.27523 0
M  V30 13959 C 1325.08 2.33165 3.60462 0
M  V30 13960 C 1324.32 2.13793 4.89007 0
M  V30 13961 O 1324.54 1.11732 5.5935 0
M  V30 13962 O 1323.47 3.01762 5.20791 0
M  V30 13963 H 1327.3 2.30386 1.97879 0
M  V30 13964 H 1324.88 1.17506 0.922637 0
M  V30 13965 H 1326.77 1.0432 4.08283 0
M  V30 13966 H 1325.44 0.204306 3.23055 0
M  V30 13967 H 1324.35 2.48123 2.79974 0
M  V30 13968 H 1325.68 3.24977 3.69663 0
M  V30 13969 N 1327.33 -1.00632 1.21289 0
M  V30 13970 C 1328.58 -1.73802 1.02351 0
M  V30 13971 C 1328.9 -1.90503 -0.443611 0
M  V30 13972 O 1330.1 -2.60868 -0.752356 0
M  V30 13973 C 1328.56 -3.12647 1.78269 0
M  V30 13974 C 1328.17 -3.03923 3.29142 0
M  V30 13975 C 1329.91 -3.89956 1.67735 0
M  V30 13976 C 1327.82 -4.3784 3.97556 0
M  V30 13977 H 1326.75 -0.651616 0.379358 0
M  V30 13978 H 1329.4 -1.12446 1.45011 0
M  V30 13979 H 1327.78 -3.74605 1.28401 0
M  V30 13980 H 1328.95 -2.51211 3.86303 0
M  V30 13981 H 1327.27 -2.40103 3.40205 0
M  V30 13982 H 1329.87 -4.89051 2.1618 0
M  V30 13983 H 1330.21 -4.11423 0.635338 0
M  V30 13984 H 1330.74 -3.34647 2.15072 0
M  V30 13985 H 1327.48 -4.21573 5.01952 0
M  V30 13986 H 1327 -4.90518 3.45184 0
M  V30 13987 H 1328.68 -5.06644 4.02393 0
M  V30 13988 N 1328.81 -1.02043 -1.20104 0
M  V30 13989 C 1329.76 -0.593945 -2.23027 0
M  V30 13990 C 1330.73 0.387931 -1.61506 0
M  V30 13991 O 1331.91 0.286504 -1.88637 0
M  V30 13992 C 1329.05 0.0577309 -3.45052 0
M  V30 13993 C 1328.17 -0.969169 -4.20988 0
M  V30 13994 C 1327.3 -0.288143 -5.30418 0
M  V30 13995 C 1326.34 -1.30154 -5.98102 0
M  V30 13996 N 1325.48 -0.646912 -6.99113 0
M  V30 13997 H 1330.32 -1.47623 -2.58866 0
M  V30 13998 H 1327.85 -0.738901 -1.27195 0
M  V30 13999 H 1329.81 0.452726 -4.14736 0
M  V30 14000 H 1328.44 0.90364 -3.09894 0
M  V30 14001 H 1327.49 -1.48229 -3.50332 0
M  V30 14002 H 1328.81 -1.73972 -4.67477 0
M  V30 14003 H 1327.96 0.162149 -6.06483 0
M  V30 14004 H 1326.7 0.514683 -4.84977 0
M  V30 14005 H 1325.7 -1.76218 -5.20795 0
M  V30 14006 H 1326.93 -2.10571 -6.45629 0
M  V30 14007 H 1324.88 0.135976 -6.55859 0
M  V30 14008 H 1324.79 -1.35548 -7.43749 0
M  V30 14009 H 1326.06 -0.220339 -7.79189 0
M  V30 14010 N 1330.29 1.35952 -0.797165 0
M  V30 14011 C 1331.71 1.52218 -0.479765 0
M  V30 14012 C 1331.91 1.74898 1.00064 0
M  V30 14013 O 1330.96 1.78495 1.78594 0
M  V30 14014 C 1332.28 2.70328 -1.31694 0
M  V30 14015 C 1333.82 2.84202 -1.31142 0
M  V30 14016 C 1334.3 4.05325 -2.13251 0
M  V30 14017 N 1335.79 4.12485 -2.10737 0
M  V30 14018 C 1336.52 5.053 -2.71033 0
M  V30 14019 N 1336.02 6.03509 -3.40219 0
M  V30 14020 N 1337.81 4.97975 -2.60725 0
M  V30 14021 H 1329.96 1.19486 -1.75604 0
M  V30 14022 H 1332.23 0.58383 -0.746892 0
M  V30 14023 H 1331.93 2.60116 -2.36712 0
M  V30 14024 H 1331.81 3.64684 -0.963607 0
M  V30 14025 H 1334.19 2.9387 -0.269131 0
M  V30 14026 H 1334.28 1.9073 -1.70457 0
M  V30 14027 H 1333.92 3.96417 -3.17515 0
M  V30 14028 H 1333.85 4.97959 -1.71302 0
M  V30 14029 H 1336.34 3.42174 -1.6039 0
M  V30 14030 H 1336.65 6.70909 -3.83537 0
M  V30 14031 H 1335 6.03711 -3.44322 0
M  V30 14032 H 1338.19 4.20203 -2.0627 0
M  V30 14033 H 1338.36 5.70119 -3.08007 0
M  V30 14034 N 1331.77 0.549846 1.47697 0
M  V30 14035 C 1332.72 -0.201961 2.29915 0
M  V30 14036 C 1333.69 -0.915287 1.38606 0
M  V30 14037 O 1334.87 -0.912427 1.67569 0
M  V30 14038 C 1332.01 -1.2306 3.22413 0
M  V30 14039 C 1331.12 -0.524091 4.28809 0
M  V30 14040 C 1330.26 -1.53738 5.08466 0
M  V30 14041 C 1329.3 -0.815437 6.06644 0
M  V30 14042 N 1328.43 -1.77521 6.79287 0
M  V30 14043 H 1333.27 0.505289 2.93685 0
M  V30 14044 H 1330.81 0.261012 1.44766 0
M  V30 14045 H 1332.77 -1.83949 3.74458 0
M  V30 14046 H 1331.4 -1.90597 2.60523 0
M  V30 14047 H 1330.45 0.199174 3.79878 0
M  V30 14048 H 1331.76 0.0418145 4.98782 0
M  V30 14049 H 1330.92 -2.22001 5.64624 0
M  V30 14050 H 1329.66 -2.1372 4.38378 0
M  V30 14051 H 1328.66 -0.11884 5.49672 0
M  V30 14052 H 1329.89 -0.221462 6.78739 0
M  V30 14053 H 1327.83 -2.36374 6.11934 0
M  V30 14054 H 1327.75 -1.26126 7.45405 0
M  V30 14055 H 1329.02 -2.44921 7.40023 0
M  V30 14056 N 1333.25 -1.54984 0.285932 0
M  V30 14057 C 1334.52 -1.91872 -0.380083 0
M  V30 14058 C 1334.9 -1.21146 -1.72878 0
M  V30 14059 O 1334.25 -0.341999 -2.25926 0
M  V30 14060 C 1334.46 -3.45258 -0.509667 0
M  V30 14061 C 1335.81 -4.17232 -0.787549 0
M  V30 14062 O 1336.83 -3.51211 -0.594062 0
M  V30 14063 O 1335.69 -5.34085 -1.15826 0
M  V30 14064 H 1332.79 -0.799931 -0.209856 0
M  V30 14065 H 1335.33 -1.66403 0.332882 0
M  V30 14066 H 1334.1 -3.88829 0.439049 0
M  V30 14067 H 1333.73 -3.76715 -1.27168 0
M  V30 14068 N 1334.72 -0.0133892 -1.57594 0
M  V30 14069 C 1335.95 0.679255 -1.95432 0
M  V30 14070 C 1336.37 1.66558 -0.889028 0
M  V30 14071 O 1335.72 1.82031 0.130755 0
M  V30 14072 C 1335.78 1.39943 -3.33314 0
M  V30 14073 O 1335.5 0.452643 -4.35755 0
M  V30 14074 C 1337 2.18535 -3.85691 0
M  V30 14075 H 1334.22 0.188337 -0.644026 0
M  V30 14076 H 1336.76 -0.0684861 -2.04385 0
M  V30 14077 H 1334.92 2.0987 -3.25628 0
M  V30 14078 H 1335.33 0.962243 -5.15598 0
M  V30 14079 H 1336.8 2.64403 -4.84557 0
M  V30 14080 H 1337.28 3.01779 -3.19102 0
M  V30 14081 H 1337.89 1.53598 -3.96595 0
M  V30 14082 N 1336.2 1.55448 0.259558 0
M  V30 14083 C 1337.45 1.76948 0.990816 0
M  V30 14084 C 1337.78 0.576401 1.85449 0
M  V30 14085 O 1337.06 -0.425693 1.89784 0
M  V30 14086 C 1337.34 3.08221 1.86204 0
M  V30 14087 C 1337.19 4.37909 1.0274 0
M  V30 14088 C 1338.51 3.35627 2.84679 0
M  V30 14089 H 1335.63 0.64377 0.358788 0
M  V30 14090 H 1338.27 1.88182 0.262211 0
M  V30 14091 H 1336.42 2.98775 2.48326 0
M  V30 14092 H 1338.09 4.5933 0.425855 0
M  V30 14093 H 1336.34 4.32533 0.331308 0
M  V30 14094 H 1337.01 5.26116 1.6705 0
M  V30 14095 H 1339.48 3.44954 2.32693 0
M  V30 14096 H 1338.36 4.28719 3.42769 0
M  V30 14097 H 1338.62 2.55921 3.60496 0
M  V30 14098 N 1337.68 -0.524672 1.4861 0
M  V30 14099 C 1338.93 -1.27671 1.5615 0
M  V30 14100 C 1339.24 -1.94088 0.242709 0
M  V30 14101 O 1340.45 -2.70789 0.196407 0
M  V30 14102 C 1338.9 -2.31686 2.75408 0
M  V30 14103 C 1338.51 -1.71315 4.13951 0
M  V30 14104 C 1340.26 -3.07867 2.92264 0
M  V30 14105 C 1338.16 -2.73302 5.24462 0
M  V30 14106 H 1337.09 -0.480177 0.581332 0
M  V30 14107 H 1339.74 -0.553473 1.74954 0
M  V30 14108 H 1338.13 -3.07069 2.50049 0
M  V30 14109 H 1339.3 -1.02085 4.4935 0
M  V30 14110 H 1337.62 -1.07608 4.02255 0
M  V30 14111 H 1340.21 -3.84088 3.71995 0
M  V30 14112 H 1340.56 -3.64052 2.01921 0
M  V30 14113 H 1341.09 -2.39599 3.17549 0
M  V30 14114 H 1337.83 -2.21929 6.16788 0
M  V30 14115 H 1337.35 -3.40843 4.93544 0
M  V30 14116 H 1339.03 -3.36186 5.528 0
M  V30 14117 N 1339.16 -1.37287 -0.77395 0
M  V30 14118 C 1340.11 -1.32872 -1.88716 0
M  V30 14119 C 1341.08 -0.194655 -1.64955 0
M  V30 14120 O 1342.26 -0.383662 -1.86903 0
M  V30 14121 C 1339.4 -1.13934 -3.2575 0
M  V30 14122 C 1338.51 -2.36552 -3.61479 0
M  V30 14123 C 1337.65 -2.10504 -4.87711 0
M  V30 14124 C 1336.69 -3.28999 -5.16165 0
M  V30 14125 N 1335.82 -3.02517 -6.33584 0
M  V30 14126 H 1340.66 -2.28051 -1.91825 0
M  V30 14127 H 1338.2 -1.13325 -0.93786 0
M  V30 14128 H 1340.16 -1.00976 -4.04796 0
M  V30 14129 H 1338.79 -0.22404 -3.22022 0
M  V30 14130 H 1337.84 -2.60257 -2.77435 0
M  V30 14131 H 1339.15 -3.24931 -3.78446 0
M  V30 14132 H 1338.31 -1.94564 -5.74656 0
M  V30 14133 H 1337.05 -1.19459 -4.72843 0
M  V30 14134 H 1336.05 -3.4548 -4.27696 0
M  V30 14135 H 1337.28 -4.20892 -5.32942 0
M  V30 14136 H 1335.22 -2.14099 -6.20079 0
M  V30 14137 H 1335.14 -3.84439 -6.50955 0
M  V30 14138 H 1336.41 -2.9019 -7.23471 0
M  V30 14139 N 1340.64 0.999871 -1.21821 0
M  V30 14140 C 1341.86 1.77405 -1.06467 0
M  V30 14141 C 1342.28 1.84828 0.385227 0
M  V30 14142 O 1341.64 1.31338 1.26714 0
M  V30 14143 C 1341.69 3.21062 -1.66137 0
M  V30 14144 O 1341.41 3.14054 -3.05454 0
M  V30 14145 C 1342.91 4.14958 -1.55963 0
M  V30 14146 H 1340.13 0.557368 -0.373607 0
M  V30 14147 H 1342.67 1.2575 -1.61267 0
M  V30 14148 H 1340.83 3.69808 -1.15416 0
M  V30 14149 H 1341.24 4.04346 -3.34073 0
M  V30 14150 H 1342.72 5.13536 -2.02448 0
M  V30 14151 H 1343.19 4.36171 -0.514949 0
M  V30 14152 H 1343.8 3.72105 -2.05956 0
M  V30 14153 N 1342.11 1.02678 1.19562 0
M  V30 14154 C 1343.04 0.626359 2.24942 0
M  V30 14155 C 1344.03 -0.363612 1.66168 0
M  V30 14156 O 1345.21 -0.246793 1.92625 0
M  V30 14157 C 1342.34 -0.0257912 3.4729 0
M  V30 14158 C 1341.29 0.886237 4.18724 0
M  V30 14159 C 1340.62 0.0993081 5.34608 0
M  V30 14160 C 1341.92 2.19901 4.73752 0
M  V30 14161 H 1343.61 1.50729 2.58691 0
M  V30 14162 H 1341.16 0.726195 1.24348 0
M  V30 14163 H 1343.11 -0.317545 4.20202 0
M  V30 14164 H 1341.84 -0.941511 3.12735 0
M  V30 14165 H 1340.5 1.16215 3.47692 0
M  V30 14166 H 1340.14 -0.81838 4.96298 0
M  V30 14167 H 1339.84 0.706776 5.83334 0
M  V30 14168 H 1341.37 -0.185754 6.10317 0
M  V30 14169 H 1342.78 1.96892 5.3843 0
M  V30 14170 H 1341.18 2.75821 5.32956 0
M  V30 14171 H 1342.25 2.85509 3.91934 0
M  V30 14172 N 1343.59 -1.35528 0.804364 0
M  V30 14173 C 1344.52 -2.32388 0.227604 0
M  V30 14174 C 1345.5 -1.57368 -0.645709 0
M  V30 14175 O 1346.69 -1.85448 -0.576441 0
M  V30 14176 C 1343.82 -3.41603 -0.62645 0
M  V30 14177 C 1342.77 -4.27743 0.148187 0
M  V30 14178 C 1342.1 -5.28259 -0.827425 0
M  V30 14179 C 1343.4 -5.04661 1.34591 0
M  V30 14180 H 1345.09 -2.80874 1.03684 0
M  V30 14181 H 1342.64 -1.3504 0.500031 0
M  V30 14182 H 1344.59 -4.08365 -1.03999 0
M  V30 14183 H 1343.32 -2.91721 -1.46855 0
M  V30 14184 H 1341.97 -3.62558 0.542874 0
M  V30 14185 H 1341.62 -4.74645 -1.66496 0
M  V30 14186 H 1341.32 -5.86763 -0.313453 0
M  V30 14187 H 1342.85 -5.97893 -1.23921 0
M  V30 14188 H 1344.26 -5.6438 1.00736 0
M  V30 14189 H 1342.66 -5.7265 1.79422 0
M  V30 14190 H 1343.73 -4.35432 2.1337 0
M  V30 14191 N 1345.07 -0.557671 -1.47404 0
M  V30 14192 C 1346.32 -0.0338384 -2.02772 0
M  V30 14193 C 1346.65 1.31278 -1.43107 0
M  V30 14194 O 1345.93 1.85436 -0.58682 0
M  V30 14195 C 1346.21 0.0587427 -3.60052 0
M  V30 14196 C 1346.06 -1.315 -4.30148 0
M  V30 14197 C 1347.38 0.771942 -4.33277 0
M  V30 14198 H 1344.5 -0.0137711 -0.736871 0
M  V30 14199 H 1347.14 -0.720049 -1.75827 0
M  V30 14200 H 1345.29 0.643154 -3.83139 0
M  V30 14201 H 1346.96 -1.94265 -4.184 0
M  V30 14202 H 1345.21 -1.88956 -3.90484 0
M  V30 14203 H 1345.88 -1.20294 -5.38733 0
M  V30 14204 H 1348.35 0.275729 -4.15185 0
M  V30 14205 H 1347.23 0.805683 -5.42955 0
M  V30 14206 H 1347.49 1.82816 -4.0253 0
M  V30 14207 N 1346.55 1.54831 -0.294147 0
M  V30 14208 C 1347.46 2.26939 0.594621 0
M  V30 14209 C 1348.48 1.30209 1.15419 0
M  V30 14210 O 1349.65 1.6318 1.18044 0
M  V30 14211 C 1346.72 2.9909 1.75345 0
M  V30 14212 C 1345.78 4.11342 1.22865 0
M  V30 14213 C 1345.01 4.80043 2.33225 0
M  V30 14214 O 1345.23 4.48062 3.52983 0
M  V30 14215 O 1344.17 5.67593 2.00304 0
M  V30 14216 H 1347.99 3.03698 0.00989235 0
M  V30 14217 H 1345.58 1.49276 -0.0608528 0
M  V30 14218 H 1347.46 3.44369 2.42875 0
M  V30 14219 H 1346.14 2.25232 2.32492 0
M  V30 14220 H 1345.04 3.70478 0.519279 0
M  V30 14221 H 1346.38 4.87158 0.702703 0
M  V30 14222 N 1348.03 0.0217466 1.57585 0
M  V30 14223 C 1348.99 -0.947546 2.08696 0
M  V30 14224 C 1349.99 -1.25879 1.00055 0
M  V30 14225 O 1351.18 -1.20035 1.26242 0
M  V30 14226 C 1348.31 -2.26624 2.54665 0
M  V30 14227 H 1349.51 -0.505016 2.95617 0
M  V30 14228 H 1347.06 -0.226152 1.54655 0
M  V30 14229 H 1347.79 -2.75521 1.71052 0
M  V30 14230 H 1347.58 -2.05347 3.34028 0
M  V30 14231 H 1349.07 -2.96114 2.94459 0
M  V30 14232 N 1349.51 -1.55583 -0.251311 0
M  V30 14233 C 1350.42 -1.93073 -1.33266 0
M  V30 14234 C 1351.43 -0.830612 -1.52895 0
M  V30 14235 O 1352.61 -1.13162 -1.66602 0
M  V30 14236 C 1349.67 -2.21396 -2.66805 0
M  V30 14237 C 1348.73 -3.44815 -2.55737 0
M  V30 14238 C 1347.97 -3.71777 -3.82907 0
M  V30 14239 O 1348.19 -3.00884 -4.84587 0
M  V30 14240 O 1347.12 -4.65305 -3.81805 0
M  V30 14241 H 1350.95 -2.85168 -1.04465 0
M  V30 14242 H 1348.53 -1.42408 -0.451693 0
M  V30 14243 H 1350.42 -2.4094 -3.45725 0
M  V30 14244 H 1349.09 -1.3248 -2.95348 0
M  V30 14245 H 1348 -3.30582 -1.75118 0
M  V30 14246 H 1349.33 -4.34019 -2.32139 0
M  V30 14247 N 1350.98 0.516783 -1.48886 0
M  V30 14248 C 1352.23 1.26936 -1.57263 0
M  V30 14249 C 1352.55 1.93337 -0.254156 0
M  V30 14250 O 1351.82 1.81977 0.725345 0
M  V30 14251 H 1350.4 0.4715 -0.579393 0
M  V30 14252 H 1353.06 0.600289 -1.85425 0
M  V30 14253 H 1352.16 2.04167 -2.36055 0
M  V30 14254 N 1352.46 1.37696 0.766659 0
M  V30 14255 C 1353.71 1.32507 1.52069 0
M  V30 14256 C 1354.02 -0.0864967 1.95409 0
M  V30 14257 O 1355.23 -0.260877 2.70244 0
M  V30 14258 C 1353.69 2.32614 2.74625 0
M  V30 14259 C 1353.29 3.79325 2.38363 0
M  V30 14260 C 1355.04 2.36445 3.52554 0
M  V30 14261 C 1352.94 4.7115 3.57451 0
M  V30 14262 H 1351.87 0.492491 0.570937 0
M  V30 14263 H 1354.53 1.63183 0.839268 0
M  V30 14264 H 1352.91 1.94963 3.44682 0
M  V30 14265 H 1354.08 4.25841 1.76056 0
M  V30 14266 H 1352.4 3.78488 1.73597 0
M  V30 14267 H 1354.99 3.02252 4.41076 0
M  V30 14268 H 1355.34 1.37953 3.92778 0
M  V30 14269 H 1355.87 2.72829 2.89498 0
M  V30 14270 H 1352.61 5.70789 3.22304 0
M  V30 14271 H 1352.13 4.29335 4.18846 0
M  V30 14272 H 1353.81 4.88532 4.242 0
M  V30 14273 N 1353.94 -0.993397 1.22349 0
M  V30 14274 C 1354.85 -2.11771 1.00947 0
M  V30 14275 C 1355.87 -1.73949 -0.0420679 0
M  V30 14276 O 1357.04 -2.00837 0.150548 0
M  V30 14277 C 1354.11 -3.41654 0.589359 0
M  V30 14278 C 1353.17 -3.93579 1.71446 0
M  V30 14279 C 1352.4 -5.17264 1.3143 0
M  V30 14280 O 1352.62 -5.70074 0.192876 0
M  V30 14281 O 1351.56 -5.62929 2.13059 0
M  V30 14282 H 1355.38 -2.32708 1.95142 0
M  V30 14283 H 1352.97 -1.10144 1.00939 0
M  V30 14284 H 1354.85 -4.19813 0.365403 0
M  V30 14285 H 1353.53 -3.22077 -0.323738 0
M  V30 14286 H 1352.43 -3.16596 1.99294 0
M  V30 14287 H 1353.77 -4.17588 2.6054 0
M  V30 14288 N 1355.42 -1.03311 -1.19015 0
M  V30 14289 C 1356.35 -0.575655 -2.21853 0
M  V30 14290 C 1357.36 0.350705 -1.58978 0
M  V30 14291 O 1358.55 0.146425 -1.77898 0
M  V30 14292 C 1355.65 0.179949 -3.38422 0
M  V30 14293 C 1354.82 -0.752403 -4.3088 0
M  V30 14294 C 1353.88 -0.0414484 -5.26184 0
M  V30 14295 O 1352.91 -0.669403 -5.6525 0
M  V30 14296 N 1354.11 1.22783 -5.67366 0
M  V30 14297 H 1356.88 -1.46013 -2.61726 0
M  V30 14298 H 1354.44 -0.912655 -1.33724 0
M  V30 14299 H 1356.43 0.66522 -3.99195 0
M  V30 14300 H 1355 0.965879 -2.97304 0
M  V30 14301 H 1354.22 -1.41768 -3.67825 0
M  V30 14302 H 1355.51 -1.38592 -4.89561 0
M  V30 14303 H 1354.91 1.75867 -5.37668 0
M  V30 14304 H 1353.46 1.65752 -6.30372 0
M  V30 14305 N 1356.9 1.35099 -0.81154 0
M  V30 14306 C 1357.81 2.33499 -0.22705 0
M  V30 14307 C 1358.82 1.62095 0.632562 0
M  V30 14308 O 1360 1.93938 0.543147 0
M  V30 14309 C 1357.06 3.41279 0.610687 0
M  V30 14310 C 1356.12 4.2845 -0.269994 0
M  V30 14311 C 1355.36 5.31083 0.527854 0
M  V30 14312 O 1355.58 5.42499 1.76213 0
M  V30 14313 O 1354.51 6.01842 -0.083862 0
M  V30 14314 H 1358.34 2.85294 -1.04119 0
M  V30 14315 H 1355.92 1.37957 -0.573432 0
M  V30 14316 H 1357.81 4.07121 1.08768 0
M  V30 14317 H 1356.48 2.91746 1.40235 0
M  V30 14318 H 1355.39 3.65572 -0.794234 0
M  V30 14319 H 1356.72 4.81394 -1.02572 0
M  V30 14320 N 1358.37 0.56548 1.47106 0
M  V30 14321 C 1359.32 -0.177564 2.30116 0
M  V30 14322 C 1360.29 -0.900534 1.39569 0
M  V30 14323 O 1361.48 -0.894603 1.68527 0
M  V30 14324 C 1358.62 -1.19633 3.237 0
M  V30 14325 C 1357.73 -0.47858 4.29341 0
M  V30 14326 C 1356.86 -1.48336 5.10068 0
M  V30 14327 C 1355.9 -0.751049 6.07475 0
M  V30 14328 N 1355.04 -1.70306 6.81132 0
M  V30 14329 H 1359.88 0.536409 2.93132 0
M  V30 14330 H 1357.42 0.276352 1.44481 0
M  V30 14331 H 1359.37 -1.79967 3.76388 0
M  V30 14332 H 1358 -1.87823 2.6253 0
M  V30 14333 H 1357.06 0.239454 3.79646 0
M  V30 14334 H 1358.37 0.0947147 4.9871 0
M  V30 14335 H 1357.52 -2.16 5.66947 0
M  V30 14336 H 1356.26 -2.09058 4.4062 0
M  V30 14337 H 1355.27 -0.0605336 5.49767 0
M  V30 14338 H 1356.49 -0.14946 6.78936 0
M  V30 14339 H 1354.44 -2.2987 6.14407 0
M  V30 14340 H 1354.35 -1.18213 7.46701 0
M  V30 14341 H 1355.62 -2.37058 7.42579 0
M  V30 14342 N 1359.85 -1.54672 0.302354 0
M  V30 14343 C 1361.08 -2.04578 -0.309093 0
M  V30 14344 C 1361.5 -1.17957 -1.47416 0
M  V30 14345 O 1360.85 -0.2055 -1.81339 0
M  V30 14346 C 1360.9 -3.53334 -0.764023 0
M  V30 14347 O 1360.62 -4.36662 0.354674 0
M  V30 14348 C 1362.13 -4.19243 -1.44048 0
M  V30 14349 H 1359.35 -0.667651 -0.0669575 0
M  V30 14350 H 1361.89 -1.99658 0.442379 0
M  V30 14351 H 1360.04 -3.5861 -1.46552 0
M  V30 14352 H 1360.46 -5.245 0.000241188 0
M  V30 14353 H 1361.93 -5.24847 -1.70995 0
M  V30 14354 H 1362.41 -3.69061 -2.38098 0
M  V30 14355 H 1363.02 -4.18046 -0.782132 0
M  V30 14356 N 1361.33 -0.0301034 -1.57571 0
M  V30 14357 C 1362.58 0.648323 -1.91841 0
M  V30 14358 C 1362.91 1.72078 -0.906601 0
M  V30 14359 O 1362.16 1.95518 0.0843233 0
M  V30 14360 C 1362.46 1.30206 -3.32838 0
M  V30 14361 C 1362.13 0.359876 -4.49462 0
M  V30 14362 C 1360.79 0.100552 -4.81095 0
M  V30 14363 C 1363.14 -0.287048 -5.20409 0
M  V30 14364 C 1360.47 -0.813484 -5.81033 0
M  V30 14365 C 1362.82 -1.18914 -6.21323 0
M  V30 14366 C 1361.48 -1.45735 -6.51397 0
M  V30 14367 H 1360.75 0.237238 -0.701997 0
M  V30 14368 H 1363.4 -0.0920804 -1.91278 0
M  V30 14369 H 1361.71 2.11724 -3.29667 0
M  V30 14370 H 1363.4 1.83356 -3.56625 0
M  V30 14371 H 1359.99 0.572172 -4.24764 0
M  V30 14372 H 1364.18 -0.0997611 -4.962 0
M  V30 14373 H 1359.43 -1.02897 -6.02679 0
M  V30 14374 H 1363.61 -1.69661 -6.75417 0
M  V30 14375 H 1361.23 -2.16727 -7.28652 0
M  V30 14376 N 1362.81 1.55714 0.243056 0
M  V30 14377 C 1364.03 1.82126 0.992219 0
M  V30 14378 C 1364.46 0.607665 1.78014 0
M  V30 14379 O 1363.82 -0.443351 1.75796 0
M  V30 14380 C 1363.86 3.06314 1.90274 0
M  V30 14381 O 1362.97 2.83499 2.99503 0
M  V30 14382 H 1362.31 0.601082 0.282128 0
M  V30 14383 H 1364.84 2.02904 0.262881 0
M  V30 14384 H 1364.85 3.35849 2.31666 0
M  V30 14385 H 1363.52 3.94282 1.32344 0
M  V30 14386 H 1362.1 2.65141 2.62211 0
M  V30 14387 N 1364.29 -0.50888 1.49158 0
M  V30 14388 C 1365.51 -1.29245 1.62205 0
M  V30 14389 C 1365.94 -1.85845 0.29041 0
M  V30 14390 O 1365.29 -1.6547 -0.740906 0
M  V30 14391 C 1365.34 -2.40415 2.68762 0
M  V30 14392 O 1364.45 -3.44048 2.27387 0
M  V30 14393 H 1363.79 -0.381898 0.543185 0
M  V30 14394 H 1366.32 -0.610076 1.95293 0
M  V30 14395 H 1366.33 -2.86295 2.90688 0
M  V30 14396 H 1365 -1.98584 3.65427 0
M  V30 14397 H 1363.58 -3.04141 2.1576 0
M  V30 14398 N 1365.76 -1.381 -0.759346 0
M  V30 14399 C 1366.7 -1.29241 -1.88075 0
M  V30 14400 C 1367.68 -0.170526 -1.61703 0
M  V30 14401 O 1368.86 -0.346865 -1.85281 0
M  V30 14402 C 1365.99 -1.00115 -3.23566 0
M  V30 14403 C 1365.03 -2.14161 -3.68832 0
M  V30 14404 S 1365.87 -3.76251 -3.81045 0
M  V30 14405 C 1367.02 -3.49301 -5.19365 0
M  V30 14406 H 1367.25 -2.24152 -1.95303 0
M  V30 14407 H 1364.79 -1.23869 -0.921734 0
M  V30 14408 H 1366.75 -0.839934 -4.01815 0
M  V30 14409 H 1365.41 -0.0693088 -3.14024 0
M  V30 14410 H 1364.6 -1.89313 -4.67094 0
M  V30 14411 H 1364.2 -2.2636 -2.9772 0
M  V30 14412 H 1366.49 -3.05058 -6.04935 0
M  V30 14413 H 1367.44 -4.46935 -5.49231 0
M  V30 14414 H 1367.84 -2.83944 -4.87889 0
M  V30 14415 N 1367.24 0.986894 -1.22875 0
M  V30 14416 C 1368.47 1.76266 -1.08342 0
M  V30 14417 C 1368.89 1.85226 0.365602 0
M  V30 14418 O 1368.24 1.32675 1.25314 0
M  V30 14419 C 1368.29 3.19282 -1.69533 0
M  V30 14420 O 1368.01 3.10796 -3.08768 0
M  V30 14421 C 1369.52 4.13281 -1.60355 0
M  V30 14422 H 1366.74 0.553374 -0.379497 0
M  V30 14423 H 1369.28 1.24033 -1.62592 0
M  V30 14424 H 1367.43 3.68563 -1.19332 0
M  V30 14425 H 1367.85 4.0078 -3.38343 0
M  V30 14426 H 1369.32 5.11359 -2.07884 0
M  V30 14427 H 1369.8 4.356 -0.561182 0
M  V30 14428 H 1370.41 3.699 -2.09891 0
M  V30 14429 N 1368.72 1.0394 1.18466 0
M  V30 14430 C 1369.96 0.750905 1.90107 0
M  V30 14431 C 1370.32 -0.708278 1.78458 0
M  V30 14432 O 1371.53 -1.11033 2.44796 0
M  V30 14433 C 1369.8 1.20259 3.3656 0
M  V30 14434 S 1371.36 1.03954 4.26308 0
M  V30 14435 H 1368.17 0.273061 0.656475 0
M  V30 14436 H 1370.78 1.33143 1.43154 0
M  V30 14437 H 1369.48 2.26 3.42567 0
M  V30 14438 H 1369.01 0.615804 3.8855 0
M  V30 14439 H 1371.03 -0.0437629 4.96181 0
M  V30 14440 N 1370.2 -1.34667 0.818693 0
M  V30 14441 C 1371.16 -2.27908 0.243037 0
M  V30 14442 C 1372.16 -1.50106 -0.576622 0
M  V30 14443 O 1373.35 -1.69701 -0.393342 0
M  V30 14444 C 1370.48 -3.34455 -0.659759 0
M  V30 14445 H 1371.68 -2.80332 1.06555 0
M  V30 14446 H 1369.23 -1.44727 0.590237 0
M  V30 14447 H 1369.96 -2.87238 -1.50549 0
M  V30 14448 H 1369.75 -3.92031 -0.073567 0
M  V30 14449 H 1371.24 -4.04016 -1.05646 0
M  V30 14450 N 1371.68 -0.573274 -1.46804 0
M  V30 14451 C 1372.9 -0.0586717 -2.07317 0
M  V30 14452 C 1373.33 1.2328 -1.42069 0
M  V30 14453 O 1372.68 1.74235 -0.501188 0
M  V30 14454 C 1372.73 0.103503 -3.60451 0
M  V30 14455 O 1371.84 1.16229 -3.95682 0
M  V30 14456 H 1371.18 -0.0585504 -0.661414 0
M  V30 14457 H 1373.71 -0.793532 -1.88585 0
M  V30 14458 H 1373.72 0.312658 -4.068 0
M  V30 14459 H 1372.39 -0.839684 -4.07335 0
M  V30 14460 H 1370.97 0.932347 -3.61056 0
M  V30 14461 N 1373.15 1.5451 -0.310553 0
M  V30 14462 C 1374.4 1.99931 0.29532 0
M  V30 14463 C 1374.72 1.20042 1.53672 0
M  V30 14464 O 1373.99 0.298841 1.93607 0
M  V30 14465 H 1372.57 0.738539 0.112111 0
M  V30 14466 H 1375.24 1.9023 -0.424092 0
M  V30 14467 H 1374.33 3.07021 0.560749 0
M  V30 14468 N 1374.63 0.0384594 1.57553 0
M  V30 14469 C 1375.6 -0.925358 2.0969 0
M  V30 14470 C 1376.6 -1.24811 1.01385 0
M  V30 14471 O 1377.79 -1.1869 1.27508 0
M  V30 14472 C 1374.92 -2.2391 2.57055 0
M  V30 14473 H 1376.11 -0.473633 2.96136 0
M  V30 14474 H 1373.66 -0.209736 1.54886 0
M  V30 14475 H 1374.4 -2.73691 1.73964 0
M  V30 14476 H 1374.18 -2.01793 3.36188 0
M  V30 14477 H 1375.67 -2.92974 2.97583 0
M  V30 14478 N 1376.11 -1.55841 -0.234795 0
M  V30 14479 C 1377.06 -1.92165 -1.31055 0
M  V30 14480 C 1378.05 -0.802106 -1.49207 0
M  V30 14481 O 1379.26 -0.986832 -1.50538 0
M  V30 14482 H 1375.63 -0.610487 -0.439101 0
M  V30 14483 H 1377.61 -2.81955 -0.976926 0
M  V30 14484 C 1376.35 -2.24329 -2.65654 0
M  V30 14485 H 1375.68 -3.09982 -2.5249 0
M  V30 14486 H 1377.12 -2.53639 -3.3977 0
M  V30 14487 C 1375.58 -1.0638 -3.19664 0
M  V30 14488 O 1376.11 -0.318047 -4.00439 0
M  V30 14489 N 1374.31 -0.851167 -2.77855 0
M  V30 14490 H 1373.86 -1.45932 -2.12277 0
M  V30 14491 H 1373.82 -0.0636875 -3.14335 0
M  V30 14492 N 1377.59 0.500963 -1.49426 0
M  V30 14493 C 1378.84 1.25694 -1.5915 0
M  V30 14494 C 1379.17 1.92209 -0.277365 0
M  V30 14495 O 1378.44 1.8072 0.719065 0
M  V30 14496 C 1378.73 2.32391 -2.75076 0
M  V30 14497 C 1378.58 1.70377 -4.16283 0
M  V30 14498 C 1379.9 3.33952 -2.86643 0
M  V30 14499 H 1377.02 0.455631 -0.579283 0
M  V30 14500 H 1379.66 0.555099 -1.8171 0
M  V30 14501 H 1377.81 2.92252 -2.55971 0
M  V30 14502 H 1379.48 1.14343 -4.46904 0
M  V30 14503 H 1377.72 1.00789 -4.21929 0
M  V30 14504 H 1378.4 2.47767 -4.9327 0
M  V30 14505 H 1380.87 2.84081 -3.04035 0
M  V30 14506 H 1379.75 4.05969 -3.69433 0
M  V30 14507 H 1380.01 3.96279 -1.95998 0
M  V30 14508 N 1379.07 1.38501 0.752011 0
M  V30 14509 C 1380.29 1.38212 1.54636 0
M  V30 14510 C 1380.72 -0.0256356 1.88083 0
M  V30 14511 O 1380.08 -1.00812 1.50687 0
M  V30 14512 C 1380.12 2.24597 2.82114 0
M  V30 14513 O 1379.23 1.66415 3.77332 0
M  V30 14514 H 1378.57 0.47138 0.46765 0
M  V30 14515 H 1381.1 1.82283 0.929205 0
M  V30 14516 H 1381.11 2.38511 3.31023 0
M  V30 14517 H 1379.78 3.26913 2.57101 0
M  V30 14518 H 1378.36 1.61651 3.36041 0
M  V30 14519 N 1380.55 -0.980364 1.23396 0
M  V30 14520 C 1381.46 -2.10688 1.03188 0
M  V30 14521 C 1382.47 -1.73984 -0.0236159 0
M  V30 14522 O 1383.65 -2.00666 0.171841 0
M  V30 14523 C 1380.71 -3.4101 0.625563 0
M  V30 14524 C 1379.77 -3.91739 1.75611 0
M  V30 14525 C 1379.01 -5.15841 1.36908 0
M  V30 14526 O 1379.23 -5.69837 0.253329 0
M  V30 14527 O 1378.16 -5.60638 2.19018 0
M  V30 14528 H 1381.99 -2.30626 1.97599 0
M  V30 14529 H 1379.57 -1.09067 1.02102 0
M  V30 14530 H 1381.46 -4.19402 0.409909 0
M  V30 14531 H 1380.13 -3.22402 -0.28956 0
M  V30 14532 H 1379.04 -3.14464 2.0264 0
M  V30 14533 H 1380.37 -4.14801 2.64955 0
M  V30 14534 N 1382.02 -1.04567 -1.17913 0
M  V30 14535 C 1382.96 -0.599154 -2.2123 0
M  V30 14536 C 1383.97 0.333824 -1.59341 0
M  V30 14537 O 1385.16 0.127548 -1.78044 0
M  V30 14538 C 1382.26 0.144045 -3.38594 0
M  V30 14539 C 1381.43 -0.798061 -4.30058 0
M  V30 14540 C 1380.49 -0.0972548 -5.2611 0
M  V30 14541 O 1379.52 -0.729318 -5.64508 0
M  V30 14542 N 1380.72 1.16759 -5.68637 0
M  V30 14543 H 1383.48 -1.48781 -2.60162 0
M  V30 14544 H 1381.04 -0.926787 -1.32749 0
M  V30 14545 H 1383.04 0.622843 -3.99878 0
M  V30 14546 H 1381.61 0.934292 -2.98311 0
M  V30 14547 H 1380.83 -1.45662 -3.66301 0
M  V30 14548 H 1382.11 -1.43777 -4.88063 0
M  V30 14549 H 1381.51 1.70155 -5.39503 0
M  V30 14550 H 1380.07 1.59057 -6.32095 0
M  V30 14551 N 1383.5 1.34231 -0.825823 0
M  V30 14552 C 1384.43 2.31997 -0.264546 0
M  V30 14553 C 1385.41 1.58375 0.620592 0
M  V30 14554 O 1386.6 1.86341 0.546865 0
M  V30 14555 C 1383.73 3.42557 0.572025 0
M  V30 14556 C 1382.68 4.27454 -0.216219 0
M  V30 14557 C 1382.01 5.29509 0.743279 0
M  V30 14558 C 1383.31 5.02456 -1.42603 0
M  V30 14559 H 1385 2.79189 -1.08139 0
M  V30 14560 H 1382.55 1.34227 -0.521451 0
M  V30 14561 H 1384.5 4.09968 0.974889 0
M  V30 14562 H 1383.22 2.94021 1.42195 0
M  V30 14563 H 1381.88 3.61649 -0.600485 0
M  V30 14564 H 1381.53 4.77234 1.58924 0
M  V30 14565 H 1381.23 5.87188 0.220064 0
M  V30 14566 H 1382.76 5.99789 1.14394 0
M  V30 14567 H 1384.17 5.62706 -1.09702 0
M  V30 14568 H 1382.57 5.69723 -1.88509 0
M  V30 14569 H 1383.64 4.31983 -2.2027 0
M  V30 14570 N 1384.98 0.581051 1.46498 0
M  V30 14571 C 1386.2 0.0696654 2.07283 0
M  V30 14572 C 1386.63 -1.22525 1.42721 0
M  V30 14573 O 1385.99 -1.73967 0.510421 0
M  V30 14574 C 1386.04 -0.0843864 3.60501 0
M  V30 14575 O 1385.14 -1.14129 3.96293 0
M  V30 14576 H 1384.48 0.0620572 0.661094 0
M  V30 14577 H 1387.01 0.803522 1.88161 0
M  V30 14578 H 1387.02 -0.29108 4.0696 0
M  V30 14579 H 1385.7 0.861274 4.06884 0
M  V30 14580 H 1384.27 -0.913186 3.61546 0
M  V30 14581 N 1386.46 -1.54343 0.318742 0
M  V30 14582 C 1387.39 -2.27118 -0.542206 0
M  V30 14583 C 1388.37 -1.27731 -1.12334 0
M  V30 14584 O 1389.55 -1.56535 -1.14937 0
M  V30 14585 C 1386.68 -3.02535 -1.70558 0
M  V30 14586 C 1385.64 -4.09218 -1.25398 0
M  V30 14587 C 1384.96 -4.72449 -2.50391 0
M  V30 14588 C 1386.26 -5.20971 -0.372332 0
M  V30 14589 H 1387.96 -2.9933 0.0648226 0
M  V30 14590 H 1385.5 -1.43963 0.0326168 0
M  V30 14591 H 1387.46 -3.52174 -2.31412 0
M  V30 14592 H 1386.18 -2.27931 -2.33912 0
M  V30 14593 H 1384.84 -3.60455 -0.668392 0
M  V30 14594 H 1384.49 -3.94466 -3.12099 0
M  V30 14595 H 1384.19 -5.4451 -2.20868 0
M  V30 14596 H 1385.71 -5.2486 -3.12016 0
M  V30 14597 H 1387.13 -5.66396 -0.887029 0
M  V30 14598 H 1385.52 -5.99859 -0.17009 0
M  V30 14599 H 1386.59 -4.81198 0.598064 0
M  V30 14600 N 1387.94 -0.0468143 -1.5753 0
M  V30 14601 C 1388.88 0.929065 -2.11275 0
M  V30 14602 C 1389.85 1.31166 -1.01905 0
M  V30 14603 O 1391.04 1.40189 -1.29428 0
M  V30 14604 C 1388.18 2.20012 -2.65873 0
M  V30 14605 C 1387.29 1.8724 -3.89314 0
M  V30 14606 C 1386.43 3.08772 -4.32242 0
M  V30 14607 C 1385.46 2.719 -5.48395 0
M  V30 14608 N 1384.6 3.86112 -5.86397 0
M  V30 14609 H 1389.44 0.463854 -2.94368 0
M  V30 14610 H 1386.98 0.217338 -1.45486 0
M  V30 14611 H 1388.94 2.94383 -2.95626 0
M  V30 14612 H 1387.57 2.64118 -1.85584 0
M  V30 14613 H 1386.62 1.03037 -3.6618 0
M  V30 14614 H 1387.93 1.56096 -4.73746 0
M  V30 14615 H 1387.08 3.91446 -4.63525 0
M  V30 14616 H 1385.82 3.4309 -3.46613 0
M  V30 14617 H 1384.83 1.87642 -5.16789 0
M  V30 14618 H 1386.05 2.38779 -6.35737 0
M  V30 14619 H 1384 4.2024 -5.03721 0
M  V30 14620 H 1383.92 3.58652 -6.65511 0
M  V30 14621 H 1385.18 4.69438 -6.22293 0
M  V30 14622 N 1389.41 1.55964 0.226527 0
M  V30 14623 C 1390.34 1.95028 1.284 0
M  V30 14624 C 1391.33 0.817833 1.49149 0
M  V30 14625 O 1392.51 1.07975 1.61416 0
M  V30 14626 C 1389.64 2.26266 2.63478 0
M  V30 14627 C 1388.59 3.41954 2.57393 0
M  V30 14628 C 1387.92 3.58786 3.96456 0
M  V30 14629 C 1389.22 4.77069 2.12608 0
M  V30 14630 H 1390.91 2.83608 0.959513 0
M  V30 14631 H 1388.46 1.36451 0.460125 0
M  V30 14632 H 1390.41 2.52186 3.3761 0
M  V30 14633 H 1389.14 1.34533 2.97604 0
M  V30 14634 H 1387.8 3.16076 1.85719 0
M  V30 14635 H 1387.44 2.64437 4.27881 0
M  V30 14636 H 1387.14 4.36595 3.93267 0
M  V30 14637 H 1388.67 3.87048 4.72256 0
M  V30 14638 H 1390.08 5.02226 2.76481 0
M  V30 14639 H 1388.48 5.58126 2.2049 0
M  V30 14640 H 1389.55 4.7276 1.07823 0
M  V30 14641 N 1390.89 -0.493031 1.4969 0
M  V30 14642 C 1392.3 -1.0744 1.52688 0
M  V30 14643 C 1392.65 -1.93612 0.317652 0
M  V30 14644 O 1391.78 -2.0871 -0.571745 0
M  V30 14645 C 1392.37 -1.95523 2.76688 0
M  V30 14646 C 1390.93 -2.48808 2.82438 0
M  V30 14647 C 1390.08 -1.26617 2.46705 0
M  V30 14648 H 1393.03 -0.276589 1.56271 0
M  V30 14649 H 1393.05 -2.80315 2.57301 0
M  V30 14650 H 1392.56 -1.32779 3.6468 0
M  V30 14651 H 1390.67 -3.15168 1.98746 0
M  V30 14652 H 1390.78 -2.85416 3.84805 0
M  V30 14653 H 1389.14 -1.59396 1.98658 0
M  V30 14654 H 1389.93 -0.655695 3.3698 0
M  V30 14655 N 1392.37 -1.38898 -0.744656 0
M  V30 14656 C 1393.6 -1.3903 -1.53901 0
M  V30 14657 C 1394.02 0.0156607 -1.88093 0
M  V30 14658 O 1393.38 1.00012 -1.51219 0
M  V30 14659 C 1393.43 -2.2609 -2.80919 0
M  V30 14660 O 1392.53 -1.68414 -3.76444 0
M  V30 14661 H 1391.87 -0.473854 -0.465144 0
M  V30 14662 H 1394.4 -1.82773 -0.919525 0
M  V30 14663 H 1394.41 -2.40264 -3.29754 0
M  V30 14664 H 1393.09 -3.28271 -2.55364 0
M  V30 14665 H 1391.66 -1.63431 -3.35179 0
M  V30 14666 N 1393.85 0.973806 -1.23914 0
M  V30 14667 C 1394.8 2.08861 -1.02372 0
M  V30 14668 C 1395.79 1.69354 0.039415 0
M  V30 14669 O 1397 1.79635 -0.114637 0
M  V30 14670 H 1393.37 0.683313 -0.313986 0
M  V30 14671 H 1395.34 2.24195 -1.96924 0
M  V30 14672 C 1394.09 3.41784 -0.638661 0
M  V30 14673 H 1393.41 3.72639 -1.44846 0
M  V30 14674 H 1394.85 4.20706 -0.527487 0
M  V30 14675 C 1393.31 3.30497 0.65369 0
M  V30 14676 O 1393.84 3.63905 1.70107 0
M  V30 14677 N 1392.05 2.83642 0.632104 0
M  V30 14678 H 1391.6 2.56654 -0.220571 0
M  V30 14679 H 1391.55 2.76472 1.49701 0
M  V30 14680 N 1395.33 1.05191 1.17357 0
M  V30 14681 C 1396.57 0.763113 1.87895 0
M  V30 14682 C 1396.91 -0.708071 1.80831 0
M  V30 14683 O 1396.18 -1.51777 1.21631 0
M  V30 14684 C 1396.46 1.2442 3.37923 0
M  V30 14685 C 1396.32 2.77832 3.53737 0
M  V30 14686 C 1397.64 0.843209 4.31947 0
M  V30 14687 H 1394.75 0.27869 0.682276 0
M  V30 14688 H 1397.4 1.3059 1.38008 0
M  V30 14689 H 1395.55 0.782438 3.80539 0
M  V30 14690 H 1397.22 3.32131 3.20135 0
M  V30 14691 H 1395.46 3.17108 2.96015 0
M  V30 14692 H 1396.13 3.06555 4.59052 0
M  V30 14693 H 1398.61 1.24073 3.97171 0
M  V30 14694 H 1397.48 1.20743 5.35455 0
M  V30 14695 H 1397.75 -0.252802 4.41377 0
M  V30 14696 N 1396.8 -1.33791 0.83293 0
M  V30 14697 C 1398.05 -1.98266 0.426412 0
M  V30 14698 C 1398.38 -1.65848 -1.01035 0
M  V30 14699 O 1397.66 -0.93528 -1.70537 0
M  V30 14700 C 1397.94 -3.54356 0.640586 0
M  V30 14701 C 1397.79 -3.96482 2.12419 0
M  V30 14702 C 1399.11 -4.40022 0.0829237 0
M  V30 14703 H 1396.23 -0.720213 0.156404 0
M  V30 14704 H 1398.87 -1.58527 1.04735 0
M  V30 14705 H 1397.02 -3.88338 0.11204 0
M  V30 14706 H 1398.7 -3.72786 2.71714 0
M  V30 14707 H 1396.94 -3.46429 2.61092 0
M  V30 14708 H 1397.61 -5.05179 2.22482 0
M  V30 14709 H 1400.09 -4.12651 0.534634 0
M  V30 14710 H 1398.96 -5.48272 0.262511 0
M  V30 14711 H 1399.22 -4.30341 -1.01287 0
M  V30 14712 N 1398.28 -0.588812 -1.46187 0
M  V30 14713 C 1399.23 0.140932 -2.30369 0
M  V30 14714 C 1400.2 0.878216 -1.40984 0
M  V30 14715 O 1401.38 0.867678 -1.69929 0
M  V30 14716 C 1398.52 1.14468 -3.25563 0
M  V30 14717 C 1397.64 0.410215 -4.30048 0
M  V30 14718 C 1396.77 1.40203 -5.12364 0
M  V30 14719 C 1395.81 0.65431 -6.08593 0
M  V30 14720 N 1394.95 1.59448 -6.83755 0
M  V30 14721 H 1399.79 -0.582976 -2.92242 0
M  V30 14722 H 1397.33 -0.299302 -1.44023 0
M  V30 14723 H 1399.28 1.73957 -3.79203 0
M  V30 14724 H 1397.91 1.83623 -2.65485 0
M  V30 14725 H 1396.97 -0.299822 -3.79217 0
M  V30 14726 H 1398.28 -0.174043 -4.98496 0
M  V30 14727 H 1397.43 2.06953 -5.70312 0
M  V30 14728 H 1396.17 2.02022 -4.4389 0
M  V30 14729 H 1395.18 -0.0269371 -5.49793 0
M  V30 14730 H 1396.4 0.0414285 -6.79087 0
M  V30 14731 H 1394.35 2.20066 -6.17986 0
M  V30 14732 H 1394.26 1.06318 -7.48487 0
M  V30 14733 H 1395.53 2.25215 -7.46256 0
M  V30 14734 N 1399.76 1.54172 -0.326923 0
M  V30 14735 C 1400.67 2.28149 0.546351 0
M  V30 14736 C 1401.69 1.32628 1.12631 0
M  V30 14737 O 1402.86 1.65647 1.14556 0
M  V30 14738 C 1399.93 3.02742 1.68962 0
M  V30 14739 C 1398.99 4.13856 1.14112 0
M  V30 14740 C 1398.22 4.84882 2.2299 0
M  V30 14741 O 1398.44 4.55448 3.43399 0
M  V30 14742 O 1397.38 5.71714 1.8822 0
M  V30 14743 H 1401.2 3.03651 -0.0545288 0
M  V30 14744 H 1398.79 1.49113 -0.0925027 0
M  V30 14745 H 1400.67 3.49443 2.35515 0
M  V30 14746 H 1399.35 2.30113 2.27662 0
M  V30 14747 H 1398.25 3.71497 0.440579 0
M  V30 14748 H 1399.59 4.88539 0.599211 0
M  V30 14749 N 1401.24 0.0551678 1.57503 0
M  V30 14750 C 1402.46 -0.630692 1.97578 0
M  V30 14751 C 1402.89 -1.63348 0.932686 0
M  V30 14752 O 1402.25 -1.81004 -0.103632 0
M  V30 14753 C 1402.29 -1.29049 3.36718 0
M  V30 14754 O 1401.4 -2.40621 3.34926 0
M  V30 14755 H 1400.74 -0.163625 0.643524 0
M  V30 14756 H 1403.27 0.124753 2.04219 0
M  V30 14757 H 1403.28 -1.64124 3.73534 0
M  V30 14758 H 1401.95 -0.55559 4.12172 0
M  V30 14759 H 1400.53 -2.07463 3.0986 0
M  V30 14760 N 1402.72 -1.56081 -0.218252 0
M  V30 14761 C 1403.68 -1.91851 -1.25402 0
M  V30 14762 C 1404.68 -0.797399 -1.39636 0
M  V30 14763 O 1405.87 -1.06511 -1.37844 0
M  V30 14764 C 1403 -2.17223 -2.6273 0
M  V30 14765 H 1404.19 -2.84493 -0.948882 0
M  V30 14766 H 1401.75 -1.49414 -0.458809 0
M  V30 14767 H 1402.48 -1.27144 -2.98337 0
M  V30 14768 H 1402.27 -2.98899 -2.53775 0
M  V30 14769 H 1403.76 -2.45981 -3.37466 0
M  V30 14770 N 1404.2 0.485086 -1.49949 0
M  V30 14771 C 1405.61 0.817651 -1.37064 0
M  V30 14772 C 1405.81 1.9716 -0.415949 0
M  V30 14773 O 1404.87 2.52074 0.146567 0
M  V30 14774 C 1406.18 1.14288 -2.78134 0
M  V30 14775 C 1407.73 1.25016 -2.8695 0
M  V30 14776 C 1408.2 1.60859 -4.28822 0
M  V30 14777 N 1409.69 1.67878 -4.31707 0
M  V30 14778 C 1410.43 1.97089 -5.38464 0
M  V30 14779 N 1409.93 2.24415 -6.55446 0
M  V30 14780 N 1411.72 1.98474 -5.25894 0
M  V30 14781 H 1403.87 -0.275606 -2.10604 0
M  V30 14782 H 1406.13 -0.0607486 -0.946052 0
M  V30 14783 H 1405.84 0.36817 -3.49768 0
M  V30 14784 H 1405.71 2.0825 -3.14502 0
M  V30 14785 H 1408.1 2.01556 -2.15544 0
M  V30 14786 H 1408.18 0.290664 -2.54143 0
M  V30 14787 H 1407.82 0.848639 -5.0076 0
M  V30 14788 H 1407.75 2.57936 -4.59104 0
M  V30 14789 H 1410.25 1.48856 -3.47347 0
M  V30 14790 H 1410.56 2.45938 -7.32622 0
M  V30 14791 H 1408.9 2.21837 -6.58645 0
M  V30 14792 H 1412.09 1.76612 -4.33504 0
M  V30 14793 H 1412.27 2.20904 -6.09184 0
M  V30 14794 N 1405.67 1.39291 0.737279 0
M  V30 14795 C 1406.64 1.37607 1.83294 0
M  V30 14796 C 1407.64 0.273594 1.58455 0
M  V30 14797 O 1408.83 0.531375 1.65898 0
M  V30 14798 C 1405.96 1.14642 3.21045 0
M  V30 14799 H 1407.15 2.35102 1.86191 0
M  V30 14800 H 1404.7 1.24822 0.940696 0
M  V30 14801 H 1405.44 0.178202 3.2381 0
M  V30 14802 H 1405.22 1.94479 3.40471 0
M  V30 14803 H 1406.71 1.162 4.01108 0
M  V30 14804 N 1407.15 -0.967221 1.24429 0
M  V30 14805 C 1408.38 -1.75053 1.11226 0
M  V30 14806 C 1408.8 -1.85162 -0.331139 0
M  V30 14807 O 1408.16 -1.32288 -1.23974 0
M  V30 14808 C 1408.21 -3.14882 1.75733 0
M  V30 14809 O 1407.31 -3.99371 1.02842 0
M  V30 14810 H 1406.65 -0.538078 0.389061 0
M  V30 14811 H 1409.18 -1.21325 1.64746 0
M  V30 14812 H 1409.19 -3.65402 1.81509 0
M  V30 14813 H 1407.87 -3.06839 2.80754 0
M  V30 14814 H 1406.44 -3.57854 1.04856 0
M  V30 14815 N 1408.63 -1.05812 -1.16797 0
M  V30 14816 C 1409.88 -0.771923 -1.8721 0
M  V30 14817 C 1410.2 0.701365 -1.81414 0
M  V30 14818 O 1409.46 1.5292 -1.22122 0
M  V30 14819 C 1409.76 -1.20565 -3.3645 0
M  V30 14820 C 1409.42 -2.68222 -3.62447 0
M  V30 14821 C 1408.09 -3.08556 -3.69251 0
M  V30 14822 C 1410.44 -3.63607 -3.73416 0
M  V30 14823 C 1407.77 -4.43126 -3.84521 0
M  V30 14824 C 1410.12 -4.97918 -3.90205 0
M  V30 14825 C 1408.78 -5.37897 -3.9525 0
M  V30 14826 H 1408.05 -0.282467 -0.68505 0
M  V30 14827 H 1410.7 -1.32633 -1.38133 0
M  V30 14828 H 1409 -0.570347 -3.87626 0
M  V30 14829 H 1410.7 -0.961326 -3.89306 0
M  V30 14830 H 1407.29 -2.3599 -3.5778 0
M  V30 14831 H 1411.48 -3.33581 -3.67474 0
M  V30 14832 H 1406.73 -4.73593 -3.86677 0
M  V30 14833 H 1410.91 -5.71716 -3.97635 0
M  V30 14834 H 1408.53 -6.42176 -4.06834 0
M  V30 14835 N 1410.11 1.33347 -0.840014 0
M  V30 14836 C 1411.33 2.02485 -0.448856 0
M  V30 14837 C 1411.76 1.62781 0.942543 0
M  V30 14838 O 1411.12 0.82099 1.61646 0
M  V30 14839 C 1411.16 3.55928 -0.578582 0
M  V30 14840 O 1410.27 4.10507 0.394695 0
M  V30 14841 H 1409.61 0.63848 -0.182317 0
M  V30 14842 H 1412.14 1.70221 -1.13516 0
M  V30 14843 H 1412.15 4.05391 -0.460653 0
M  V30 14844 H 1410.82 3.8417 -1.5933 0
M  V30 14845 H 1409.4 3.72164 0.234227 0
M  V30 14846 N 1411.59 0.596556 1.45873 0
M  V30 14847 C 1412.83 0.0875879 2.02611 0
M  V30 14848 C 1413.16 -1.27438 1.46538 0
M  V30 14849 O 1412.44 -1.83815 0.635779 0
M  V30 14850 C 1412.72 0.0367394 3.60081 0
M  V30 14851 C 1412.58 1.42859 4.26511 0
M  V30 14852 C 1413.89 -0.656795 4.35171 0
M  V30 14853 H 1411.01 0.0333031 0.736247 0
M  V30 14854 H 1413.66 0.766413 1.73857 0
M  V30 14855 H 1411.81 -0.541345 3.8471 0
M  V30 14856 H 1413.48 2.0529 4.13102 0
M  V30 14857 H 1411.72 1.99243 3.85337 0
M  V30 14858 H 1412.39 1.34535 5.35354 0
M  V30 14859 H 1414.87 -0.165553 4.15771 0
M  V30 14860 H 1413.74 -0.661445 5.449 0
M  V30 14861 H 1414 -1.72079 4.07236 0
M  V30 14862 N 1413.06 -1.53996 0.335095 0
M  V30 14863 C 1413.99 -2.2768 -0.518087 0
M  V30 14864 C 1414.97 -1.28915 -1.10972 0
M  V30 14865 O 1416.16 -1.57745 -1.1327 0
M  V30 14866 C 1413.29 -3.04327 -1.67339 0
M  V30 14867 C 1412.24 -4.10525 -1.2105 0
M  V30 14868 C 1411.57 -4.75078 -2.45366 0
M  V30 14869 C 1412.87 -5.21337 -0.317055 0
M  V30 14870 H 1414.56 -2.99244 0.0965669 0
M  V30 14871 H 1412.11 -1.4392 0.0478842 0
M  V30 14872 H 1414.06 -3.54608 -2.27664 0
M  V30 14873 H 1412.79 -2.30399 -2.31481 0
M  V30 14874 H 1411.45 -3.61144 -0.630124 0
M  V30 14875 H 1411.09 -3.97754 -3.07897 0
M  V30 14876 H 1410.79 -5.46822 -2.1508 0
M  V30 14877 H 1412.32 -5.2814 -3.06432 0
M  V30 14878 H 1413.73 -5.67305 -0.826905 0
M  V30 14879 H 1412.13 -6.00006 -0.106458 0
M  V30 14880 H 1413.2 -4.80536 0.649068 0
M  V30 14881 N 1414.54 -0.0635198 -1.57472 0
M  V30 14882 C 1415.79 0.606285 -1.92792 0
M  V30 14883 C 1416.11 1.70648 -0.943615 0
M  V30 14884 O 1415.38 1.95898 0.00957612 0
M  V30 14885 H 1413.96 0.226943 -0.711692 0
M  V30 14886 H 1416.62 -0.119429 -1.94534 0
M  V30 14887 H 1415.72 1.03694 -2.9437 0
M  V30 14888 N 1416.02 1.56195 0.209972 0
M  V30 14889 C 1417.3 1.70553 0.957653 0
M  V30 14890 C 1417.68 0.614091 2.01971 0
M  V30 14891 O 1417.02 -0.377192 2.25365 0
M  V30 14892 C 1417.23 3.12314 1.55759 0
M  V30 14893 C 1418.58 3.72085 2.04543 0
M  V30 14894 O 1419.61 3.15349 1.65631 0
M  V30 14895 O 1418.47 4.71627 2.76099 0
M  V30 14896 H 1415.56 0.695077 0.448104 0
M  V30 14897 H 1418.11 1.68507 0.20084 0
M  V30 14898 H 1416.88 3.83215 0.791302 0
M  V30 14899 H 1416.5 3.18526 2.37964 0
M  V30 14900 N 1417.5 -0.477127 1.50204 0
M  V30 14901 C 1418.75 -1.22639 1.60133 0
M  V30 14902 C 1419.06 -1.93218 0.304333 0
M  V30 14903 O 1420.27 -2.70027 0.282457 0
M  V30 14904 C 1418.72 -2.22807 2.82639 0
M  V30 14905 C 1418.33 -1.58059 4.19191 0
M  V30 14906 C 1420.07 -2.98413 3.01911 0
M  V30 14907 C 1417.98 -2.56478 5.32891 0
M  V30 14908 H 1416.91 -0.461439 0.596314 0
M  V30 14909 H 1419.56 -0.497533 1.76626 0
M  V30 14910 H 1417.94 -2.98959 2.59692 0
M  V30 14911 H 1419.12 -0.877374 4.5237 0
M  V30 14912 H 1417.43 -0.947563 4.05475 0
M  V30 14913 H 1420.03 -3.72059 3.84026 0
M  V30 14914 H 1420.37 -3.57444 2.134 0
M  V30 14915 H 1420.91 -2.29375 3.25011 0
M  V30 14916 H 1417.64 -2.02194 6.23536 0
M  V30 14917 H 1417.16 -3.24969 5.04138 0
M  V30 14918 H 1418.84 -3.18429 5.63216 0
M  V30 14919 N 1418.98 -1.3968 -0.729882 0
M  V30 14920 C 1419.91 -1.41549 -1.85704 0
M  V30 14921 C 1420.89 -0.278186 -1.6781 0
M  V30 14922 O 1422.07 -0.484749 -1.88053 0
M  V30 14923 C 1419.2 -1.26327 -3.2351 0
M  V30 14924 C 1418.16 -2.37511 -3.56051 0
M  V30 14925 C 1417.48 -2.07375 -4.92849 0
M  V30 14926 C 1418.78 -3.79833 -3.58502 0
M  V30 14927 H 1420.48 -2.35877 -1.84398 0
M  V30 14928 H 1418.02 -1.13536 -0.885747 0
M  V30 14929 H 1419.98 -1.26254 -4.02042 0
M  V30 14930 H 1418.7 -0.284697 -3.25357 0
M  V30 14931 H 1417.36 -2.36809 -2.79852 0
M  V30 14932 H 1417.01 -1.07943 -4.91281 0
M  V30 14933 H 1416.71 -2.81855 -5.15588 0
M  V30 14934 H 1418.23 -2.08961 -5.73731 0
M  V30 14935 H 1419.64 -3.82436 -4.27101 0
M  V30 14936 H 1418.04 -4.53715 -3.92763 0
M  V30 14937 H 1419.11 -4.10443 -2.58195 0
M  V30 14938 N 1420.45 0.960609 -1.2494 0
M  V30 14939 C 1421.7 1.70111 -1.09117 0
M  V30 14940 C 1422.02 1.91466 0.369544 0
M  V30 14941 O 1421.29 1.49749 1.26302 0
M  V30 14942 H 1419.87 0.630372 -0.400799 0
M  V30 14943 H 1422.54 1.15525 -1.56971 0
M  V30 14944 H 1421.63 2.68277 -1.5948 0
M  V30 14945 N 1421.93 1.0643 1.16234 0
M  V30 14946 C 1423.16 0.802671 1.91238 0
M  V30 14947 C 1423.58 -0.637222 1.76978 0
M  V30 14948 O 1422.94 -1.44419 1.09603 0
M  V30 14949 C 1422.99 1.20389 3.3991 0
M  V30 14950 O 1422.09 0.343516 4.10967 0
M  V30 14951 H 1421.43 0.29323 0.595745 0
M  V30 14952 H 1423.96 1.42046 1.47255 0
M  V30 14953 H 1423.97 1.17604 3.90683 0
M  V30 14954 H 1422.65 2.2527 3.49608 0
M  V30 14955 H 1421.23 0.433051 3.70377 0
M  V30 14956 N 1423.41 -1.329 0.847073 0
M  V30 14957 C 1424.37 -2.27341 0.291324 0
M  V30 14958 C 1425.37 -1.51295 -0.544653 0
M  V30 14959 O 1426.56 -1.70497 -0.357258 0
M  V30 14960 C 1423.7 -3.35779 -0.588668 0
M  V30 14961 H 1424.89 -2.78009 1.12477 0
M  V30 14962 H 1422.44 -1.43442 0.620803 0
M  V30 14963 H 1423.18 -2.90366 -1.44423 0
M  V30 14964 H 1422.96 -3.92099 0.00960515 0
M  V30 14965 H 1424.45 -4.06166 -0.970526 0
M  V30 14966 N 1424.89 -0.604284 -1.45555 0
M  V30 14967 C 1425.82 0.165286 -2.27601 0
M  V30 14968 C 1426.8 0.876749 -1.36937 0
M  V30 14969 O 1427.98 0.886288 -1.66365 0
M  V30 14970 C 1425.11 1.23897 -3.15226 0
M  V30 14971 C 1424.16 0.631002 -4.21806 0
M  V30 14972 S 1424.99 -0.558612 -5.32578 0
M  V30 14973 C 1426.15 0.515745 -6.23772 0
M  V30 14974 H 1426.38 -0.53081 -2.92523 0
M  V30 14975 H 1423.91 -0.391717 -1.49348 0
M  V30 14976 H 1425.87 1.85358 -3.66268 0
M  V30 14977 H 1424.53 1.90712 -2.49575 0
M  V30 14978 H 1423.72 1.43876 -4.83028 0
M  V30 14979 H 1423.33 0.0915984 -3.73888 0
M  V30 14980 H 1425.62 1.39571 -6.62968 0
M  V30 14981 H 1426.56 -0.0602302 -7.08074 0
M  V30 14982 H 1426.97 0.829588 -5.58371 0
M  V30 14983 N 1426.37 1.53816 -0.343257 0
M  V30 14984 C 1427.3 2.22552 0.548015 0
M  V30 14985 C 1428.31 1.23202 1.06419 0
M  V30 14986 O 1429.5 1.49559 0.974394 0
M  V30 14987 C 1426.6 2.89197 1.76687 0
M  V30 14988 C 1425.77 4.14859 1.38603 0
M  V30 14989 C 1424.83 4.64917 2.46453 0
M  V30 14990 O 1423.86 5.29135 2.09773 0
M  V30 14991 N 1425.06 4.4082 3.77701 0
M  V30 14992 H 1427.83 2.99672 -0.040645 0
M  V30 14993 H 1425.39 1.61033 -0.167368 0
M  V30 14994 H 1427.38 3.19601 2.48268 0
M  V30 14995 H 1425.95 2.15664 2.26291 0
M  V30 14996 H 1425.17 3.91003 0.501001 0
M  V30 14997 H 1426.46 4.96599 1.10756 0
M  V30 14998 H 1425.85 3.8946 4.1029 0
M  V30 14999 H 1424.41 4.7583 4.45453 0
M  V30 15000 N 1427.84 0.0718701 1.57436 0
M  V30 15001 C 1428.79 -0.913026 2.13931 0
M  V30 15002 C 1429.79 -1.3082 1.07622 0
M  V30 15003 O 1430.99 -1.28544 1.26002 0
M  V30 15004 H 1427.37 -0.31238 0.684049 0
M  V30 15005 H 1429.34 -0.411613 2.95547 0
M  V30 15006 C 1428.09 -2.17109 2.71586 0
M  V30 15007 H 1427.41 -1.87585 3.53061 0
M  V30 15008 H 1428.85 -2.84134 3.14712 0
M  V30 15009 C 1427.31 -2.92967 1.6635 0
M  V30 15010 O 1427.84 -3.8667 1.08854 0
M  V30 15011 N 1426.05 -2.56075 1.37383 0
M  V30 15012 H 1425.59 -1.79949 1.84326 0
M  V30 15013 H 1425.55 -3.07134 0.672039 0
M  V30 15014 N 1429.32 -1.56304 -0.201686 0
M  V30 15015 C 1430.57 -1.79433 -0.921241 0
M  V30 15016 C 1430.88 -0.643943 -1.84696 0
M  V30 15017 O 1432.09 -0.759359 -2.60665 0
M  V30 15018 C 1430.55 -3.17835 -1.68846 0
M  V30 15019 C 1430.15 -4.40655 -0.807892 0
M  V30 15020 C 1431.9 -3.50277 -2.39805 0
M  V30 15021 C 1429.81 -5.7008 -1.5736 0
M  V30 15022 H 1428.74 -0.669029 -0.34773 0
M  V30 15023 H 1431.39 -1.82667 -0.174657 0
M  V30 15024 H 1429.77 -3.08832 -2.47869 0
M  V30 15025 H 1430.94 -4.60765 -0.0567923 0
M  V30 15026 H 1429.26 -4.15873 -0.209465 0
M  V30 15027 H 1431.85 -4.44207 -2.97631 0
M  V30 15028 H 1432.2 -2.7371 -3.1367 0
M  V30 15029 H 1432.73 -3.60698 -1.67754 0
M  V30 15030 H 1429.47 -6.49595 -0.877855 0
M  V30 15031 H 1428.99 -5.53999 -2.2988 0
M  V30 15032 H 1430.67 -6.10964 -2.12912 0
M  V30 15033 N 1430.8 0.469154 -1.50455 0
M  V30 15034 C 1431.73 1.58443 -1.65615 0
M  V30 15035 C 1432.75 1.53668 -0.537584 0
M  V30 15036 O 1433.93 1.59021 -0.810832 0
M  V30 15037 C 1431.03 2.97327 -1.62634 0
M  V30 15038 C 1430.21 3.2695 -2.90555 0
M  V30 15039 C 1429.27 4.45398 -2.80191 0
M  V30 15040 O 1428.29 4.45611 -3.54146 0
M  V30 15041 N 1429.49 5.47167 -1.93878 0
M  V30 15042 H 1432.26 1.45854 -2.61814 0
M  V30 15043 H 1429.82 0.657604 -1.47943 0
M  V30 15044 H 1431.81 3.74537 -1.53311 0
M  V30 15045 H 1430.38 3.03675 -0.741624 0
M  V30 15046 H 1429.6 2.38335 -3.13991 0
M  V30 15047 H 1430.89 3.43554 -3.75297 0
M  V30 15048 H 1430.29 5.49817 -1.33109 0
M  V30 15049 H 1428.85 6.23353 -1.90457 0
M  V30 15050 N 1432.28 1.40065 0.722464 0
M  V30 15051 C 1433.23 1.39947 1.85789 0
M  V30 15052 C 1434.22 0.28089 1.67055 0
M  V30 15053 O 1435.43 0.451575 1.74244 0
M  V30 15054 H 1431.8 0.437296 0.611781 0
M  V30 15055 H 1433.77 2.35695 1.83004 0
M  V30 15056 C 1432.52 1.27218 3.2359 0
M  V30 15057 H 1431.84 2.12566 3.38609 0
M  V30 15058 H 1433.28 1.31194 4.03192 0
M  V30 15059 C 1431.74 -0.0182466 3.36895 0
M  V30 15060 O 1432.27 -0.983761 3.89468 0
M  V30 15061 N 1430.48 -0.0854707 2.90474 0
M  V30 15062 H 1430.03 0.700953 2.4788 0
M  V30 15063 H 1429.98 -0.948367 2.99755 0
M  V30 15064 N 1433.76 -0.95397 1.25448 0
M  V30 15065 C 1434.69 -2.06828 1.08372 0
M  V30 15066 C 1435.67 -1.70098 -0.00741585 0
M  V30 15067 O 1436.85 -1.93521 0.16224 0
M  V30 15068 C 1433.98 -3.40124 0.702365 0
M  V30 15069 C 1432.94 -3.90865 1.74381 0
M  V30 15070 C 1432.26 -5.20663 1.21712 0
M  V30 15071 C 1433.56 -4.17169 3.14273 0
M  V30 15072 H 1435.26 -2.21372 2.01581 0
M  V30 15073 H 1432.8 -1.06374 0.970592 0
M  V30 15074 H 1434.76 -4.17529 0.569837 0
M  V30 15075 H 1433.48 -3.2552 -0.265428 0
M  V30 15076 H 1432.14 -3.15628 1.86479 0
M  V30 15077 H 1431.79 -5.02429 0.23954 0
M  V30 15078 H 1431.49 -5.55581 1.91319 0
M  V30 15079 H 1433.01 -6.00665 1.097 0
M  V30 15080 H 1434.43 -4.85231 3.05325 0
M  V30 15081 H 1432.82 -4.63344 3.81356 0
M  V30 15082 H 1433.89 -3.23421 3.61285 0
M  V30 15083 N 1435.24 -1.07045 -1.15668 0
M  V30 15084 C 1436.17 -0.709413 -2.22463 0
M  V30 15085 C 1437.15 0.30169 -1.67403 0
M  V30 15086 O 1438.33 0.175131 -1.93409 0
M  V30 15087 C 1435.46 -0.103121 -3.47147 0
M  V30 15088 C 1434.42 -1.04103 -4.15146 0
M  V30 15089 C 1433.74 -0.297656 -5.33871 0
M  V30 15090 C 1435.04 -2.37332 -4.65264 0
M  V30 15091 H 1436.74 -1.60227 -2.52918 0
M  V30 15092 H 1434.28 -0.771846 -1.21567 0
M  V30 15093 H 1436.23 0.161371 -4.21091 0
M  V30 15094 H 1434.96 0.824792 -3.16014 0
M  V30 15095 H 1433.62 -1.2904 -3.43139 0
M  V30 15096 H 1433.27 0.633618 -4.98993 0
M  V30 15097 H 1432.97 -0.922789 -5.80309 0
M  V30 15098 H 1434.49 -0.0408892 -6.10586 0
M  V30 15099 H 1435.9 -2.1674 -5.30751 0
M  V30 15100 H 1434.3 -2.95412 -5.22352 0
M  V30 15101 H 1435.37 -2.99859 -3.81068 0
M  V30 15102 N 1436.71 1.32449 -0.85411 0
M  V30 15103 C 1437.65 2.2777 -0.255605 0
M  V30 15104 C 1438.66 1.52407 0.572355 0
M  V30 15105 O 1439.85 1.74031 0.396935 0
M  V30 15106 C 1436.95 3.32461 0.657496 0
M  V30 15107 C 1436.12 4.37193 -0.134492 0
M  V30 15108 C 1435.18 5.21465 0.704288 0
M  V30 15109 O 1434.21 5.69033 0.138001 0
M  V30 15110 N 1435.41 5.44254 2.01911 0
M  V30 15111 H 1438.17 2.79769 -1.07468 0
M  V30 15112 H 1435.73 1.45304 -0.714038 0
M  V30 15113 H 1437.73 3.85748 1.22396 0
M  V30 15114 H 1436.3 2.80625 1.37726 0
M  V30 15115 H 1435.52 3.84198 -0.882378 0
M  V30 15116 H 1436.8 5.04256 -0.678508 0
M  V30 15117 H 1436.2 5.07336 2.50252 0
M  V30 15118 H 1434.76 6.00538 2.53371 0
M  V30 15119 N 1438.19 0.611994 1.45232 0
M  V30 15120 C 1439.12 -0.153214 2.27685 0
M  V30 15121 C 1440.1 -0.869474 1.37401 0
M  V30 15122 O 1441.29 -0.877453 1.66832 0
M  V30 15123 C 1438.41 -1.22224 3.15878 0
M  V30 15124 C 1437.46 -0.608624 4.22135 0
M  V30 15125 S 1438.29 0.586848 5.32275 0
M  V30 15126 C 1439.45 -0.482657 6.24036 0
M  V30 15127 H 1439.68 0.546316 2.92237 0
M  V30 15128 H 1437.21 0.399631 1.49139 0
M  V30 15129 H 1439.17 -1.83413 3.67246 0
M  V30 15130 H 1437.83 -1.89386 2.50583 0
M  V30 15131 H 1437.03 -1.41312 4.83784 0
M  V30 15132 H 1436.63 -0.0717689 3.73931 0
M  V30 15133 H 1438.92 -1.36053 6.63699 0
M  V30 15134 H 1439.86 0.0977803 7.08032 0
M  V30 15135 H 1440.27 -0.799965 5.58803 0
M  V30 15136 N 1439.67 -1.53632 0.351409 0
M  V30 15137 C 1441.08 -1.86241 -0.130834 0
M  V30 15138 C 1441.43 -1.27243 -1.49344 0
M  V30 15139 O 1440.56 -0.589006 -2.0823 0
M  V30 15140 C 1441.15 -3.37919 -0.244179 0
M  V30 15141 C 1439.71 -3.70377 -0.670662 0
M  V30 15142 C 1438.86 -2.76643 0.190813 0
M  V30 15143 H 1441.81 -1.48083 0.570724 0
M  V30 15144 H 1441.83 -3.65137 -1.07029 0
M  V30 15145 H 1441.34 -3.8083 0.747688 0
M  V30 15146 H 1439.44 -3.33015 -1.67127 0
M  V30 15147 H 1439.56 -4.76934 -0.455102 0
M  V30 15148 H 1437.92 -2.52446 -0.338092 0
M  V30 15149 H 1438.7 -3.22385 1.17996 0
M  V30 15150 N 1441.15 -0.0802183 -1.57396 0
M  V30 15151 C 1442.38 0.59489 -1.9785 0
M  V30 15152 C 1442.79 1.63174 -0.957641 0
M  V30 15153 O 1442.13 1.83592 0.0629632 0
M  V30 15154 C 1442.19 1.31367 -3.34639 0
M  V30 15155 C 1441.85 0.429303 -4.54979 0
M  V30 15156 C 1442.85 -0.316537 -5.18935 0
M  V30 15157 C 1440.54 0.351714 -5.01067 0
M  V30 15158 C 1442.53 -1.1281 -6.27338 0
M  V30 15159 C 1440.22 -0.463513 -6.0934 0
M  V30 15160 C 1441.22 -1.20208 -6.72338 0
M  V30 15161 O 1440.9 -2.00385 -7.78525 0
M  V30 15162 H 1440.64 0.165331 -0.655471 0
M  V30 15163 H 1443.19 -0.151697 -2.04839 0
M  V30 15164 H 1441.42 2.10651 -3.24289 0
M  V30 15165 H 1443.11 1.88184 -3.59641 0
M  V30 15166 H 1443.87 -0.266237 -4.84269 0
M  V30 15167 H 1439.75 0.916218 -4.51804 0
M  V30 15168 H 1443.3 -1.70508 -6.76441 0
M  V30 15169 H 1439.19 -0.515347 -6.4344 0
M  V30 15170 H 1439.96 -1.92907 -7.95443 0
M  V30 15171 N 1442.63 1.56409 0.193394 0
M  V30 15172 C 1443.87 1.80367 0.911717 0
M  V30 15173 C 1444.19 0.653561 1.83721 0
M  V30 15174 O 1443.46 -0.328001 1.93135 0
M  V30 15175 H 1442.04 0.665316 0.339652 0
M  V30 15176 H 1444.71 1.93887 0.198496 0
M  V30 15177 H 1443.8 2.7359 1.50182 0
M  V30 15178 N 1444.1 -0.461169 1.50702 0
M  V30 15179 C 1445.34 -1.22225 1.6383 0
M  V30 15180 C 1445.71 -1.8904 0.335858 0
M  V30 15181 O 1446.91 -2.66607 0.342674 0
M  V30 15182 C 1445.18 -2.2305 2.79256 0
M  V30 15183 S 1446.74 -3.07964 3.12576 0
M  V30 15184 H 1443.56 -0.41483 0.57744 0
M  V30 15185 H 1446.16 -0.517625 1.88523 0
M  V30 15186 H 1444.86 -1.72562 3.72358 0
M  V30 15187 H 1444.39 -2.98126 2.56679 0
M  V30 15188 H 1446.41 -4.24358 2.57167 0
M  V30 15189 N 1445.58 -1.40446 -0.715026 0
M  V30 15190 C 1446.83 -1.3848 -1.47199 0
M  V30 15191 C 1447.15 0.0119198 -1.94996 0
M  V30 15192 O 1446.42 0.966772 -1.70383 0
M  V30 15193 H 1445 -0.509669 -0.54612 0
M  V30 15194 H 1447.66 -1.75505 -0.847588 0
M  V30 15195 H 1446.76 -2.06002 -2.34456 0
M  V30 15196 N 1447.06 0.947303 -1.25952 0
M  V30 15197 C 1447.97 2.07878 -1.08738 0
M  V30 15198 C 1448.99 1.73985 -0.0225212 0
M  V30 15199 O 1450.16 2.00139 -0.224984 0
M  V30 15200 C 1447.23 3.39231 -0.715756 0
M  V30 15201 C 1446.29 3.86945 -1.85935 0
M  V30 15202 C 1445.52 5.1203 -1.50537 0
M  V30 15203 O 1445.74 5.68965 -0.404323 0
M  V30 15204 O 1444.68 5.54634 -2.33805 0
M  V30 15205 H 1448.5 2.25305 -2.03645 0
M  V30 15206 H 1446.09 1.06321 -1.04958 0
M  V30 15207 H 1447.97 4.18167 -0.520962 0
M  V30 15208 H 1446.65 3.23057 0.203978 0
M  V30 15209 H 1445.55 3.08981 -2.10906 0
M  V30 15210 H 1446.89 4.0763 -2.75859 0
M  V30 15211 N 1448.54 1.07657 1.15099 0
M  V30 15212 C 1449.47 0.657598 2.19564 0
M  V30 15213 C 1450.48 -0.29146 1.6017 0
M  V30 15214 O 1451.67 -0.0802981 1.78319 0
M  V30 15215 C 1448.77 -0.0542221 3.38857 0
M  V30 15216 C 1447.95 0.911803 4.27791 0
M  V30 15217 C 1447 0.236709 5.25667 0
M  V30 15218 O 1446.03 0.878731 5.62376 0
M  V30 15219 N 1447.23 -1.01641 5.71532 0
M  V30 15220 H 1450 1.55626 2.56126 0
M  V30 15221 H 1447.56 0.961657 1.30245 0
M  V30 15222 H 1449.55 -0.516603 4.01389 0
M  V30 15223 H 1448.12 -0.854871 3.00684 0
M  V30 15224 H 1447.34 1.55322 3.6231 0
M  V30 15225 H 1448.63 1.56667 4.8408 0
M  V30 15226 H 1448.03 -1.55791 5.43825 0
M  V30 15227 H 1446.58 -1.42242 6.3609 0
M  V30 15228 N 1450.02 -1.31994 0.861122 0
M  V30 15229 C 1450.96 -2.30666 0.299352 0
M  V30 15230 C 1451.96 -1.59133 -0.580779 0
M  V30 15231 O 1453.16 -1.73813 -0.467864 0
M  V30 15232 H 1449.54 -0.747932 0.0781091 0
M  V30 15233 H 1451.51 -2.7553 1.14567 0
M  V30 15234 C 1450.26 -3.44203 -0.491883 0
M  V30 15235 H 1449.58 -3.99412 0.17608 0
M  V30 15236 H 1451.02 -4.15384 -0.850434 0
M  V30 15237 C 1449.48 -2.92042 -1.67967 0
M  V30 15238 O 1450.01 -2.90073 -2.77886 0
M  V30 15239 N 1448.22 -2.48358 -1.50887 0
M  V30 15240 H 1447.76 -2.50159 -0.614683 0
M  V30 15241 H 1447.72 -2.13813 -2.30503 0
M  V30 15242 N 1451.49 -0.619688 -1.44906 0
M  V30 15243 C 1452.43 0.141137 -2.27763 0
M  V30 15244 C 1453.41 0.862176 -1.3786 0
M  V30 15245 O 1454.59 0.868593 -1.67295 0
M  V30 15246 C 1451.72 1.20547 -3.16522 0
M  V30 15247 C 1450.76 0.586228 -4.22452 0
M  V30 15248 S 1451.6 -0.615067 -5.31956 0
M  V30 15249 C 1452.75 0.449556 -6.24283 0
M  V30 15250 H 1452.98 -0.561806 -2.91944 0
M  V30 15251 H 1450.52 -0.407535 -1.48925 0
M  V30 15252 H 1452.48 1.81463 -3.68214 0
M  V30 15253 H 1451.14 1.88054 -2.51584 0
M  V30 15254 H 1450.33 1.38744 -4.84527 0
M  V30 15255 H 1449.93 0.0519375 -3.73964 0
M  V30 15256 H 1452.22 1.32531 -6.64411 0
M  V30 15257 H 1453.17 -0.135328 -7.07971 0
M  V30 15258 H 1453.57 0.770319 -5.59219 0
M  V30 15259 N 1452.97 1.53444 -0.359552 0
M  V30 15260 C 1454.22 2.01464 0.232366 0
M  V30 15261 C 1454.55 1.24656 1.48911 0
M  V30 15262 O 1453.83 0.338574 1.9153 0
M  V30 15263 C 1454.11 3.56172 0.530403 0
M  V30 15264 C 1453.96 4.43678 -0.739556 0
M  V30 15265 C 1455.28 4.19412 1.33347 0
M  V30 15266 H 1452.4 0.732314 0.0829802 0
M  V30 15267 H 1455.04 1.83752 -0.483253 0
M  V30 15268 H 1453.19 3.71396 1.14004 0
M  V30 15269 H 1454.86 4.40263 -1.37719 0
M  V30 15270 H 1453.11 4.11892 -1.36117 0
M  V30 15271 H 1453.78 5.49856 -0.486062 0
M  V30 15272 H 1456.25 4.07984 0.817816 0
M  V30 15273 H 1455.13 5.277 1.51075 0
M  V30 15274 H 1455.39 3.7508 2.34024 0
M  V30 15275 N 1454.45 0.0885642 1.57351 0
M  V30 15276 C 1455.38 -0.869946 2.16689 0
M  V30 15277 C 1456.36 -1.29878 1.09844 0
M  V30 15278 O 1457.55 -1.36684 1.37954 0
M  V30 15279 C 1454.68 -2.13148 2.74199 0
M  V30 15280 C 1453.63 -1.84149 3.86359 0
M  V30 15281 C 1452.96 -3.17075 4.30543 0
M  V30 15282 C 1454.26 -1.13357 5.09851 0
M  V30 15283 H 1455.95 -0.375578 2.97035 0
M  V30 15284 H 1453.5 -0.17921 1.42881 0
M  V30 15285 H 1455.45 -2.80634 3.14361 0
M  V30 15286 H 1454.17 -2.64856 1.91098 0
M  V30 15287 H 1452.83 -1.19063 3.46727 0
M  V30 15288 H 1452.48 -3.66658 3.44342 0
M  V30 15289 H 1452.18 -2.98457 5.06159 0
M  V30 15290 H 1453.7 -3.85731 4.73333 0
M  V30 15291 H 1455.12 -1.70941 5.47222 0
M  V30 15292 H 1453.52 -1.0494 5.90853 0
M  V30 15293 H 1454.59 -0.115273 4.84763 0
M  V30 15294 N 1455.93 -1.56509 -0.185096 0
M  V30 15295 C 1457.18 -1.81206 -0.903924 0
M  V30 15296 C 1457.5 -0.663423 -1.82836 0
M  V30 15297 O 1456.76 0.350211 -1.92541 0
M  V30 15298 C 1457.06 -3.11968 -1.74387 0
M  V30 15299 C 1456.72 -4.40353 -0.969552 0
M  V30 15300 C 1455.39 -4.75227 -0.755799 0
M  V30 15301 C 1457.74 -5.19461 -0.425443 0
M  V30 15302 C 1455.07 -5.86698 0.0133856 0
M  V30 15303 C 1457.42 -6.31736 0.330582 0
M  V30 15304 C 1456.08 -6.65187 0.555262 0
M  V30 15305 H 1455.35 -0.663078 -0.330769 0
M  V30 15306 H 1458 -1.90747 -0.169673 0
M  V30 15307 H 1456.3 -2.97708 -2.5471 0
M  V30 15308 H 1458 -3.28284 -2.30284 0
M  V30 15309 H 1454.59 -4.1299 -1.14618 0
M  V30 15310 H 1458.77 -4.92923 -0.577959 0
M  V30 15311 H 1454.03 -6.11081 0.197335 0
M  V30 15312 H 1458.2 -6.92246 0.759523 0
M  V30 15313 H 1455.83 -7.51403 1.15318 0
M  V30 15314 N 1457.41 0.45317 -1.50944 0
M  V30 15315 C 1458.37 1.5313 -1.7054 0
M  V30 15316 C 1459.37 1.50142 -0.575678 0
M  V30 15317 O 1460.56 1.52444 -0.842997 0
M  V30 15318 C 1457.69 2.92719 -1.74723 0
M  V30 15319 H 1458.88 1.37066 -2.66745 0
M  V30 15320 H 1456.44 0.680783 -1.40695 0
M  V30 15321 H 1457.17 3.14208 -0.802753 0
M  V30 15322 H 1456.96 2.96295 -2.56811 0
M  V30 15323 H 1458.45 3.7096 -1.91777 0
M  V30 15324 N 1458.88 1.40823 0.707568 0
M  V30 15325 C 1460.3 1.35249 1.28704 0
M  V30 15326 C 1460.65 0.0298026 1.96177 0
M  V30 15327 O 1459.77 -0.872126 1.98048 0
M  V30 15328 C 1460.37 2.44965 2.34046 0
M  V30 15329 C 1458.93 2.42826 2.87598 0
M  V30 15330 C 1458.07 2.25429 1.61483 0
M  V30 15331 H 1461.02 1.50513 0.503141 0
M  V30 15332 H 1461.04 2.13334 3.1507 0
M  V30 15333 H 1460.56 3.41219 1.84908 0
M  V30 15334 H 1458.66 1.50294 3.40944 0
M  V30 15335 H 1458.77 3.38704 3.38845 0
M  V30 15336 H 1457.13 1.73089 1.86848 0
M  V30 15337 H 1457.92 3.23693 1.14359 0
M  V30 15338 N 1460.36 -0.94061 1.26453 0
M  V30 15339 C 1461.31 -2.06073 1.07873 0
M  V30 15340 C 1462.3 -1.69399 0.0055001 0
M  V30 15341 O 1463.51 -1.79267 0.162224 0
M  V30 15342 H 1459.89 -0.674748 0.331993 0
M  V30 15343 H 1461.86 -2.18895 2.02799 0
M  V30 15344 C 1460.61 -3.39971 0.729054 0
M  V30 15345 H 1459.93 -3.68667 1.54675 0
M  V30 15346 H 1461.37 -4.1916 0.638844 0
M  V30 15347 C 1459.83 -3.32114 -0.565835 0
M  V30 15348 O 1460.36 -3.68287 -1.60399 0
M  V30 15349 N 1458.56 -2.85218 -0.556679 0
M  V30 15350 H 1458.11 -2.55979 0.288541 0
M  V30 15351 H 1458.07 -2.80344 -1.42318 0
M  V30 15352 N 1461.84 -1.08266 -1.14527 0
M  V30 15353 C 1463.09 -0.806405 -1.84878 0
M  V30 15354 C 1463.4 0.670151 -1.83762 0
M  V30 15355 O 1464.61 1.06151 -2.49888 0
M  V30 15356 C 1463.06 -1.39257 -3.31867 0
M  V30 15357 C 1462.67 -2.90081 -3.41404 0
M  V30 15358 C 1464.42 -1.19475 -4.0734 0
M  V30 15359 C 1462.32 -3.41842 -4.82595 0
M  V30 15360 H 1461.25 -0.297993 -0.692615 0
M  V30 15361 H 1463.9 -1.30389 -1.29116 0
M  V30 15362 H 1462.29 -0.822802 -3.87358 0
M  V30 15363 H 1463.46 -3.53182 -2.95971 0
M  V30 15364 H 1461.78 -3.08761 -2.79385 0
M  V30 15365 H 1464.37 -1.55614 -5.11555 0
M  V30 15366 H 1464.72 -0.134455 -4.16083 0
M  V30 15367 H 1465.25 -1.73138 -3.58145 0
M  V30 15368 H 1461.99 -4.47439 -4.79039 0
M  V30 15369 H 1461.51 -2.835 -5.28572 0
M  V30 15370 H 1463.19 -3.38346 -5.51481 0
M  V30 15371 N 1463.32 1.31536 -0.86811 0
M  V30 15372 C 1464.55 2.00661 -0.491815 0
M  V30 15373 C 1464.96 1.65341 0.919733 0
M  V30 15374 O 1464.3 0.87773 1.61374 0
M  V30 15375 C 1464.36 3.55002 -0.566926 0
M  V30 15376 C 1464.03 4.1379 -1.93976 0
M  V30 15377 C 1465.02 4.31032 -2.90702 0
M  V30 15378 C 1462.71 4.4956 -2.24056 0
M  V30 15379 C 1464.7 4.8323 -4.15653 0
M  V30 15380 C 1462.39 5.01461 -3.49257 0
M  V30 15381 C 1463.39 5.18246 -4.44871 0
M  V30 15382 O 1463.08 5.69033 -5.67852 0
M  V30 15383 H 1462.81 0.648663 -0.190296 0
M  V30 15384 H 1465.36 1.68783 -1.17053 0
M  V30 15385 H 1463.59 3.86332 0.168704 0
M  V30 15386 H 1465.28 4.05385 -0.204323 0
M  V30 15387 H 1466.05 4.03717 -2.6877 0
M  V30 15388 H 1461.93 4.35772 -1.50412 0
M  V30 15389 H 1465.47 4.96247 -4.9029 0
M  V30 15390 H 1461.37 5.28209 -3.71033 0
M  V30 15391 H 1462.13 5.87405 -5.69998 0
M  V30 15392 N 1464.8 0.627364 1.44575 0
M  V30 15393 C 1466.04 0.130545 2.02379 0
M  V30 15394 C 1466.38 -1.24301 1.49208 0
M  V30 15395 O 1465.65 -1.82425 0.674626 0
M  V30 15396 C 1465.93 0.11311 3.59922 0
M  V30 15397 C 1465.79 1.51874 4.23385 0
M  V30 15398 C 1467.11 -0.564341 4.36467 0
M  V30 15399 H 1464.23 0.0489125 0.735375 0
M  V30 15400 H 1466.87 0.803118 1.72192 0
M  V30 15401 H 1465.02 -0.459621 3.85772 0
M  V30 15402 H 1466.69 2.14007 4.08655 0
M  V30 15403 H 1464.93 2.07371 3.81024 0
M  V30 15404 H 1465.6 1.4586 5.3238 0
M  V30 15405 H 1468.08 -0.0773244 4.16028 0
M  V30 15406 H 1466.96 -0.545715 5.46181 0
M  V30 15407 H 1467.22 -1.63403 4.10794 0
M  V30 15408 N 1466.28 -1.53251 0.367684 0
M  V30 15409 C 1467.21 -2.28728 -0.469676 0
M  V30 15410 C 1468.19 -1.3124 -1.08213 0
M  V30 15411 O 1469.37 -1.60112 -1.09898 0
M  V30 15412 C 1466.5 -3.07808 -1.60846 0
M  V30 15413 C 1465.46 -4.13 -1.12315 0
M  V30 15414 C 1464.78 -4.80176 -2.35234 0
M  V30 15415 C 1466.08 -5.21892 -0.2064 0
M  V30 15416 H 1467.78 -2.98972 0.160019 0
M  V30 15417 H 1465.32 -1.43786 0.0784011 0
M  V30 15418 H 1467.27 -3.59358 -2.20091 0
M  V30 15419 H 1466 -2.35258 -2.26542 0
M  V30 15420 H 1464.66 -3.62399 -0.553378 0
M  V30 15421 H 1464.31 -4.04196 -2.99391 0
M  V30 15422 H 1464.01 -5.51261 -2.03433 0
M  V30 15423 H 1465.53 -5.34521 -2.9516 0
M  V30 15424 H 1466.94 -5.68932 -0.706386 0
M  V30 15425 H 1465.34 -6.00096 0.0208362 0
M  V30 15426 H 1466.41 -4.79051 0.750851 0
M  V30 15427 N 1467.75 -0.0969077 -1.57302 0
M  V30 15428 C 1468.7 0.878876 -2.15357 0
M  V30 15429 C 1469.7 1.29091 -1.0969 0
M  V30 15430 O 1470.9 1.26523 -1.28031 0
M  V30 15431 H 1467.28 0.301458 -0.688932 0
M  V30 15432 H 1469.25 0.364542 -2.96165 0
M  V30 15433 C 1468 2.12761 -2.75006 0
M  V30 15434 H 1467.32 1.81944 -3.56 0
M  V30 15435 H 1468.76 2.79092 -3.19193 0
M  V30 15436 C 1467.22 2.90283 -1.70989 0
M  V30 15437 O 1467.75 3.84889 -1.14992 0
M  V30 15438 N 1465.95 2.53857 -1.41439 0
M  V30 15439 H 1465.5 1.76993 -1.87166 0
M  V30 15440 H 1465.46 3.06025 -0.720816 0
M  V30 15441 N 1469.23 1.56605 0.176793 0
M  V30 15442 C 1470.46 1.85543 0.9087 0
M  V30 15443 C 1470.87 0.679554 1.76575 0
M  V30 15444 O 1470.21 -0.360668 1.80125 0
M  V30 15445 C 1470.27 3.08823 1.84034 0
M  V30 15446 C 1469.94 4.41942 1.16344 0
M  V30 15447 C 1470.94 5.17176 0.531526 0
M  V30 15448 C 1468.62 4.88679 1.16183 0
M  V30 15449 C 1470.61 6.37332 -0.0929601 0
M  V30 15450 C 1468.3 6.08767 0.533514 0
M  V30 15451 C 1469.3 6.82937 -0.0927812 0
M  V30 15452 O 1468.99 8.00748 -0.711202 0
M  V30 15453 H 1468.72 0.619862 0.269717 0
M  V30 15454 H 1471.27 2.04579 0.183414 0
M  V30 15455 H 1469.5 2.85718 2.6058 0
M  V30 15456 H 1471.19 3.24253 2.44161 0
M  V30 15457 H 1471.96 4.82152 0.524784 0
M  V30 15458 H 1467.84 4.30891 1.63871 0
M  V30 15459 H 1471.38 6.95165 -0.582409 0
M  V30 15460 H 1467.28 6.43256 0.537821 0
M  V30 15461 H 1468.05 8.16224 -0.609911 0
M  V30 15462 N 1470.71 -0.445159 1.51182 0
M  V30 15463 C 1471.64 -1.5473 1.74874 0
M  V30 15464 C 1472.62 -1.5923 0.598323 0
M  V30 15465 O 1473.81 -1.75083 0.840219 0
M  V30 15466 C 1470.94 -2.92872 1.86664 0
M  V30 15467 C 1469.89 -3.03235 3.02048 0
M  V30 15468 C 1469.22 -4.43279 2.99012 0
M  V30 15469 C 1470.52 -2.7804 4.42144 0
M  V30 15470 H 1472.21 -1.35156 2.67158 0
M  V30 15471 H 1469.76 -0.648763 1.28558 0
M  V30 15472 H 1471.71 -3.69927 2.01822 0
M  V30 15473 H 1470.43 -3.1366 0.910225 0
M  V30 15474 H 1469.09 -2.28617 2.86583 0
M  V30 15475 H 1468.74 -4.61023 2.01163 0
M  V30 15476 H 1468.44 -4.51144 3.76488 0
M  V30 15477 H 1469.96 -5.22319 3.16252 0
M  V30 15478 H 1471.38 -3.44831 4.58 0
M  V30 15479 H 1469.77 -2.97323 5.21267 0
M  V30 15480 H 1470.84 -1.737 4.52721 0
M  V30 15481 N 1472.19 -1.41197 -0.700089 0
M  V30 15482 C 1473.14 -1.42885 -1.83539 0
M  V30 15483 C 1474.13 -0.307431 -1.66587 0
M  V30 15484 O 1475.34 -0.479238 -1.73503 0
M  V30 15485 H 1471.71 -0.446973 -0.604747 0
M  V30 15486 H 1473.68 -2.38576 -1.79231 0
M  V30 15487 C 1472.43 -1.3235 -3.21526 0
M  V30 15488 H 1471.75 -2.17926 -3.35184 0
M  V30 15489 H 1473.19 -1.37592 -4.01054 0
M  V30 15490 C 1471.65 -0.0353528 -3.36881 0
M  V30 15491 O 1472.18 0.921676 -3.90983 0
M  V30 15492 N 1470.39 0.0392479 -2.90573 0
M  V30 15493 H 1469.94 -0.740299 -2.46733 0
M  V30 15494 H 1469.89 0.900559 -3.01226 0
M  V30 15495 N 1473.67 0.933891 -1.2695 0
M  V30 15496 C 1474.58 2.06713 -1.10936 0
M  V30 15497 C 1475.59 1.73952 -0.0409734 0
M  V30 15498 O 1476.77 1.9989 -0.246199 0
M  V30 15499 C 1473.83 3.38453 -0.751696 0
M  V30 15500 C 1472.89 3.84951 -1.90029 0
M  V30 15501 C 1472.13 5.10404 -1.55959 0
M  V30 15502 O 1472.35 5.68504 -0.464646 0
M  V30 15503 O 1471.28 5.52123 -2.39675 0
M  V30 15504 H 1475.11 2.23133 -2.06023 0
M  V30 15505 H 1472.69 1.05202 -1.06079 0
M  V30 15506 H 1474.58 4.17591 -0.565285 0
M  V30 15507 H 1473.25 3.23255 0.169703 0
M  V30 15508 H 1472.16 3.06727 -2.14172 0
M  V30 15509 H 1473.49 4.04681 -2.80167 0
M  V30 15510 N 1475.14 1.08871 1.13951 0
M  V30 15511 C 1476.37 0.842913 1.88951 0
M  V30 15512 C 1476.79 -0.605348 1.78832 0
M  V30 15513 O 1476.14 -1.41631 1.15095 0
M  V30 15514 C 1476.19 1.26198 3.38757 0
M  V30 15515 O 1475.92 2.65344 3.48603 0
M  V30 15516 C 1477.42 1.04773 4.30741 0
M  V30 15517 H 1474.64 0.303651 0.598362 0
M  V30 15518 H 1477.18 1.44922 1.44284 0
M  V30 15519 H 1475.34 0.699682 3.81029 0
M  V30 15520 H 1475.75 2.82863 4.41688 0
M  V30 15521 H 1477.22 1.39029 5.34205 0
M  V30 15522 H 1477.7 -0.0149046 4.39197 0
M  V30 15523 H 1478.31 1.5957 3.9423 0
M  V30 15524 N 1476.62 -1.31073 0.875073 0
M  V30 15525 C 1477.55 -2.27335 0.291809 0
M  V30 15526 C 1478.57 -1.53298 -0.548036 0
M  V30 15527 O 1479.76 -1.7464 -0.369198 0
M  V30 15528 C 1476.86 -3.33465 -0.604521 0
M  V30 15529 C 1476.03 -4.36924 0.204029 0
M  V30 15530 C 1475.09 -5.2252 -0.621238 0
M  V30 15531 O 1474.11 -5.6918 -0.0474551 0
M  V30 15532 N 1475.32 -5.47397 -1.93227 0
M  V30 15533 H 1478.08 -2.78024 1.11906 0
M  V30 15534 H 1475.64 -1.44149 0.737064 0
M  V30 15535 H 1477.63 -3.87646 -1.16243 0
M  V30 15536 H 1476.2 -2.8278 -1.33244 0
M  V30 15537 H 1475.42 -3.82745 0.943389 0
M  V30 15538 H 1476.71 -5.03112 0.758644 0
M  V30 15539 H 1476.11 -5.11253 -2.4215 0
M  V30 15540 H 1474.67 -6.04493 -2.43785 0
M  V30 15541 N 1478.1 -0.635022 -1.4424 0
M  V30 15542 C 1479.03 0.106038 -2.28955 0
M  V30 15543 C 1480.05 0.805076 -1.415 0
M  V30 15544 O 1481.23 0.665872 -1.65615 0
M  V30 15545 C 1478.33 1.17252 -3.1797 0
M  V30 15546 C 1477.51 0.555225 -4.33862 0
M  V30 15547 C 1476.57 1.51618 -5.03883 0
M  V30 15548 O 1475.59 1.03181 -5.5977 0
M  V30 15549 N 1476.79 2.85048 -5.05696 0
M  V30 15550 H 1479.56 -0.620999 -2.93196 0
M  V30 15551 H 1477.12 -0.476466 -1.5473 0
M  V30 15552 H 1479.11 1.81578 -3.61679 0
M  V30 15553 H 1477.68 1.80174 -2.55453 0
M  V30 15554 H 1476.9 -0.266745 -3.93296 0
M  V30 15555 H 1478.19 0.123529 -5.0865 0
M  V30 15556 H 1477.59 3.26977 -4.6163 0
M  V30 15557 H 1476.15 3.44724 -5.5318 0
M  V30 15558 N 1479.58 1.53054 -0.375806 0
M  V30 15559 C 1480.51 2.28973 0.45754 0
M  V30 15560 C 1481.49 1.31812 1.07516 0
M  V30 15561 O 1482.67 1.60693 1.09048 0
M  V30 15562 C 1479.8 3.08657 1.59212 0
M  V30 15563 C 1478.76 4.1359 1.10123 0
M  V30 15564 C 1478.08 4.81417 2.32684 0
M  V30 15565 C 1479.38 5.21994 0.17872 0
M  V30 15566 H 1481.08 2.98883 -0.175872 0
M  V30 15567 H 1478.62 1.43743 -0.0860253 0
M  V30 15568 H 1480.58 3.6052 2.18182 0
M  V30 15569 H 1479.3 2.36456 2.25291 0
M  V30 15570 H 1477.96 3.62688 0.534151 0
M  V30 15571 H 1477.61 4.05778 2.97243 0
M  V30 15572 H 1477.31 5.52332 2.00506 0
M  V30 15573 H 1478.83 5.36079 2.92322 0
M  V30 15574 H 1480.25 5.69298 0.676204 0
M  V30 15575 H 1478.64 6.00077 -0.0526605 0
M  V30 15576 H 1479.71 4.78646 -0.776246 0
M  V30 15577 N 1481.06 0.105248 1.57248 0
M  V30 15578 C 1482.28 -0.564157 1.9906 0
M  V30 15579 C 1482.7 -1.61092 0.984624 0
M  V30 15580 O 1482.06 -1.82484 -0.0244031 0
M  V30 15581 C 1482.11 -1.20272 3.40906 0
M  V30 15582 O 1481.83 -0.197815 4.37653 0
M  V30 15583 C 1483.33 -1.95677 3.97776 0
M  V30 15584 H 1480.55 -0.150468 0.653912 0
M  V30 15585 H 1483.09 0.187532 2.03638 0
M  V30 15586 H 1481.25 -1.90528 3.3731 0
M  V30 15587 H 1481.66 -0.659998 5.20331 0
M  V30 15588 H 1483.14 -2.35702 4.99148 0
M  V30 15589 H 1483.61 -2.82661 3.36154 0
M  V30 15590 H 1484.22 -1.30215 4.04876 0
M  V30 15591 N 1482.53 -1.56697 -0.168486 0
M  V30 15592 C 1483.47 -1.93197 -1.23319 0
M  V30 15593 C 1484.48 -0.825373 -1.40326 0
M  V30 15594 O 1485.67 -1.10381 -1.40279 0
M  V30 15595 C 1482.77 -2.17205 -2.60145 0
M  V30 15596 C 1481.94 -3.48442 -2.64399 0
M  V30 15597 C 1481 -3.61244 -3.82609 0
M  V30 15598 O 1480.03 -4.33837 -3.68476 0
M  V30 15599 N 1481.23 -2.96304 -4.99183 0
M  V30 15600 H 1483.99 -2.85128 -0.923138 0
M  V30 15601 H 1481.55 -1.57887 -0.358229 0
M  V30 15602 H 1483.55 -2.23031 -3.37697 0
M  V30 15603 H 1482.12 -1.31643 -2.83529 0
M  V30 15604 H 1481.34 -3.54248 -1.72922 0
M  V30 15605 H 1482.62 -4.34795 -2.64255 0
M  V30 15606 H 1482.02 -2.37203 -5.13567 0
M  V30 15607 H 1480.58 -3.07722 -5.74587 0
M  V30 15608 N 1484.01 0.437135 -1.51416 0
M  V30 15609 C 1484.92 1.55581 -1.75589 0
M  V30 15610 C 1485.94 1.61797 -0.640132 0
M  V30 15611 O 1487.11 1.79035 -0.922406 0
M  V30 15612 C 1484.18 2.91561 -1.87598 0
M  V30 15613 C 1483.24 2.9546 -3.11451 0
M  V30 15614 C 1482.47 4.24954 -3.22878 0
M  V30 15615 O 1482.7 5.17341 -2.40238 0
M  V30 15616 O 1481.63 4.35141 -4.15856 0
M  V30 15617 H 1485.46 1.38098 -2.70486 0
M  V30 15618 H 1483.04 0.620163 -1.3592 0
M  V30 15619 H 1484.92 3.72262 -1.97481 0
M  V30 15620 H 1483.6 3.09171 -0.958889 0
M  V30 15621 H 1482.51 2.13713 -3.07046 0
M  V30 15622 H 1483.84 2.82794 -4.0285 0
M  V30 15623 N 1485.49 1.41566 0.692592 0
M  V30 15624 C 1486.74 1.40381 1.44831 0
M  V30 15625 C 1487.05 0.0172068 1.95592 0
M  V30 15626 O 1488.26 -0.11726 2.71247 0
M  V30 15627 C 1486.71 2.46844 2.61908 0
M  V30 15628 C 1486.32 3.91426 2.17921 0
M  V30 15629 C 1488.07 2.548 3.39525 0
M  V30 15630 C 1485.97 4.89436 3.31974 0
M  V30 15631 H 1484.9 0.522062 0.544028 0
M  V30 15632 H 1487.55 1.67402 0.751589 0
M  V30 15633 H 1485.94 2.12959 3.33863 0
M  V30 15634 H 1487.11 4.34575 1.53236 0
M  V30 15635 H 1485.43 3.87158 1.5329 0
M  V30 15636 H 1488.02 3.25207 4.24434 0
M  V30 15637 H 1488.37 1.58579 3.84913 0
M  V30 15638 H 1488.9 2.87791 2.74629 0
M  V30 15639 H 1485.64 5.87071 2.91595 0
M  V30 15640 H 1485.16 4.50933 3.95499 0
M  V30 15641 H 1486.84 5.10331 3.97708 0
M  V30 15642 N 1486.97 -0.927146 1.27443 0
M  V30 15643 C 1487.92 -2.02783 1.10216 0
M  V30 15644 C 1488.89 -1.661 0.00307842 0
M  V30 15645 O 1490.07 -1.90081 0.165508 0
M  V30 15646 C 1487.21 -3.36718 0.755984 0
M  V30 15647 C 1486.32 -3.86353 1.93276 0
M  V30 15648 C 1485.46 -5.08737 1.52841 0
M  V30 15649 C 1484.5 -5.50669 2.67263 0
M  V30 15650 N 1483.63 -6.6425 2.27413 0
M  V30 15651 H 1488.47 -2.16851 2.04401 0
M  V30 15652 H 1486.01 -1.06232 1.0175 0
M  V30 15653 H 1487.97 -4.13741 0.53609 0
M  V30 15654 H 1486.6 -3.22456 -0.148909 0
M  V30 15655 H 1485.65 -3.05604 2.26518 0
M  V30 15656 H 1486.96 -4.13401 2.79108 0
M  V30 15657 H 1486.12 -5.93263 1.26979 0
M  V30 15658 H 1484.86 -4.83467 0.641187 0
M  V30 15659 H 1483.86 -4.64692 2.93839 0
M  V30 15660 H 1485.09 -5.77934 3.56607 0
M  V30 15661 H 1483.03 -6.40636 1.41143 0
M  V30 15662 H 1482.95 -6.90955 3.06784 0
M  V30 15663 H 1484.22 -7.52115 2.048 0
M  V30 15664 N 1488.45 -1.09474 -1.13372 0
M  V30 15665 C 1489.41 -0.738173 -2.16988 0
M  V30 15666 C 1490.41 0.232488 -1.5911 0
M  V30 15667 O 1491.6 0.0106093 -1.74197 0
M  V30 15668 C 1488.73 -0.091724 -3.40777 0
M  V30 15669 H 1489.92 -1.65582 -2.50045 0
M  V30 15670 H 1487.48 -0.893994 -1.28209 0
M  V30 15671 H 1488.21 0.837129 -3.13309 0
M  V30 15672 H 1488 -0.790161 -3.84056 0
M  V30 15673 H 1489.49 0.142334 -4.17357 0
M  V30 15674 N 1489.92 1.30607 -0.882012 0
M  V30 15675 C 1490.87 2.2821 -0.344826 0
M  V30 15676 C 1491.84 1.56254 0.563361 0
M  V30 15677 O 1493.03 1.84336 0.492416 0
M  V30 15678 C 1490.17 3.42319 0.437216 0
M  V30 15679 C 1489.28 4.29098 -0.499851 0
M  V30 15680 C 1488.41 5.30366 0.297497 0
M  V30 15681 C 1487.45 6.08795 -0.63523 0
M  V30 15682 N 1486.59 7.01986 0.12661 0
M  V30 15683 H 1491.43 2.73543 -1.18229 0
M  V30 15684 H 1488.97 1.34556 -0.594392 0
M  V30 15685 H 1490.93 4.07232 0.906521 0
M  V30 15686 H 1489.56 2.98063 1.23928 0
M  V30 15687 H 1488.61 3.6452 -1.08764 0
M  V30 15688 H 1489.92 4.83787 -1.21454 0
M  V30 15689 H 1489.07 6.01013 0.828786 0
M  V30 15690 H 1487.81 4.76364 1.04542 0
M  V30 15691 H 1486.82 5.37028 -1.17817 0
M  V30 15692 H 1488.04 6.64885 -1.3822 0
M  V30 15693 H 1485.99 6.50376 0.857125 0
M  V30 15694 H 1485.91 7.5415 -0.528512 0
M  V30 15695 H 1487.17 7.76879 0.638738 0
M  V30 15696 N 1491.4 0.642663 1.43901 0
M  V30 15697 C 1492.37 -0.0457858 2.29154 0
M  V30 15698 C 1493.37 -0.760988 1.41653 0
M  V30 15699 O 1494.56 -0.603832 1.634 0
M  V30 15700 C 1491.69 -1.07552 3.23489 0
M  V30 15701 H 1492.88 0.704193 2.91515 0
M  V30 15702 H 1490.43 0.403361 1.51006 0
M  V30 15703 H 1491.17 -1.85509 2.66002 0
M  V30 15704 H 1490.95 -0.566468 3.87987 0
M  V30 15705 H 1492.44 -1.55663 3.87503 0
M  V30 15706 N 1492.88 -1.52852 0.383918 0
M  V30 15707 C 1494.13 -2.01809 -0.200285 0
M  V30 15708 C 1494.46 -1.27009 -1.46909 0
M  V30 15709 O 1493.74 -0.369002 -1.90968 0
M  V30 15710 C 1494.02 -3.56971 -0.473672 0
M  V30 15711 C 1493.87 -4.42446 0.810048 0
M  V30 15712 C 1495.19 -4.21481 -1.26658 0
M  V30 15713 H 1492.31 -0.733541 -0.0713192 0
M  V30 15714 H 1494.95 -1.8296 0.512425 0
M  V30 15715 H 1493.1 -3.73163 -1.08081 0
M  V30 15716 H 1494.77 -4.38016 1.44706 0
M  V30 15717 H 1493.02 -4.09674 1.42652 0
M  V30 15718 H 1493.69 -5.49013 0.573478 0
M  V30 15719 H 1496.16 -4.09233 -0.752806 0
M  V30 15720 H 1495.04 -5.30037 -1.42661 0
M  V30 15721 H 1495.3 -3.78756 -2.28028 0
M  V30 15722 N 1494.36 -0.113586 -1.5719 0
M  V30 15723 C 1495.61 0.544642 -1.94623 0
M  V30 15724 C 1495.93 1.6756 -0.997428 0
M  V30 15725 O 1495.2 1.95829 -0.0527521 0
M  V30 15726 H 1493.78 0.204186 -0.718552 0
M  V30 15727 H 1496.44 -0.181258 -1.94055 0
M  V30 15728 H 1495.54 0.942765 -2.9752 0
M  V30 15729 N 1495.84 1.56784 0.160173 0
M  V30 15730 C 1497.07 1.86496 0.888969 0
M  V30 15731 C 1497.48 0.698244 1.75844 0
M  V30 15732 O 1496.82 -0.341543 1.80497 0
M  V30 15733 C 1496.88 3.10758 1.80748 0
M  V30 15734 C 1496.54 4.43152 1.1165 0
M  V30 15735 C 1497.54 5.1771 0.476643 0
M  V30 15736 C 1495.23 4.89883 1.10993 0
M  V30 15737 C 1497.22 6.37198 -0.160552 0
M  V30 15738 C 1494.91 6.09298 0.468916 0
M  V30 15739 C 1495.91 6.828 -0.165211 0
M  V30 15740 O 1495.59 7.99948 -0.796092 0
M  V30 15741 H 1495.33 0.622688 0.263128 0
M  V30 15742 H 1497.88 2.04762 0.161706 0
M  V30 15743 H 1496.11 2.88466 2.57535 0
M  V30 15744 H 1497.8 3.26825 2.40708 0
M  V30 15745 H 1498.56 4.82682 0.473616 0
M  V30 15746 H 1494.44 4.32605 1.59292 0
M  V30 15747 H 1497.99 6.94508 -0.656107 0
M  V30 15748 H 1493.88 6.4379 0.469565 0
M  V30 15749 H 1494.65 8.15532 -0.696448 0
M  V30 15750 N 1497.32 -0.429099 1.51646 0
M  V30 15751 C 1498.25 -1.52867 1.76505 0
M  V30 15752 C 1499.23 -1.58586 0.615178 0
M  V30 15753 O 1500.41 -1.74182 0.858742 0
M  V30 15754 C 1497.54 -2.90875 1.8976 0
M  V30 15755 C 1496.5 -3.00014 3.05247 0
M  V30 15756 C 1495.82 -4.40082 3.03696 0
M  V30 15757 C 1497.12 -2.73334 4.45068 0
M  V30 15758 H 1498.82 -1.32315 2.68576 0
M  V30 15759 H 1496.36 -0.635091 1.29238 0
M  V30 15760 H 1498.31 -3.67765 2.05734 0
M  V30 15761 H 1497.04 -3.12677 0.943442 0
M  V30 15762 H 1495.7 -2.25565 2.88991 0
M  V30 15763 H 1495.35 -4.58864 2.06042 0
M  V30 15764 H 1495.05 -4.47125 3.81252 0
M  V30 15765 H 1496.57 -5.18935 3.21774 0
M  V30 15766 H 1497.98 -3.39954 4.61632 0
M  V30 15767 H 1496.38 -2.91777 5.24391 0
M  V30 15768 H 1497.45 -1.68889 4.54538 0
M  V30 15769 N 1498.79 -1.41931 -0.685074 0
M  V30 15770 C 1500.04 -1.41147 -1.44085 0
M  V30 15771 C 1500.36 -0.0275793 -1.95581 0
M  V30 15772 O 1501.56 0.102873 -2.71305 0
M  V30 15773 C 1500.02 -2.4823 -2.60596 0
M  V30 15774 C 1499.63 -3.92576 -2.15842 0
M  V30 15775 C 1501.37 -2.56597 -3.38169 0
M  V30 15776 C 1499.28 -4.91189 -3.29374 0
M  V30 15777 H 1498.21 -0.52494 -0.541252 0
M  V30 15778 H 1500.86 -1.67798 -0.7427 0
M  V30 15779 H 1499.24 -2.14727 -3.32729 0
M  V30 15780 H 1500.41 -4.35381 -1.50929 0
M  V30 15781 H 1498.73 -3.87965 -1.51235 0
M  V30 15782 H 1501.33 -3.27453 -4.22704 0
M  V30 15783 H 1501.67 -1.60618 -3.84067 0
M  V30 15784 H 1502.2 -2.89244 -2.73099 0
M  V30 15785 H 1498.94 -5.88609 -2.88477 0
M  V30 15786 H 1498.46 -4.53024 -3.93102 0
M  V30 15787 H 1500.14 -5.12433 -3.94996 0
M  V30 15788 N 1500.27 0.920374 -1.27933 0
M  V30 15789 C 1501.5 1.70275 -1.17533 0
M  V30 15790 C 1501.91 1.86904 0.266903 0
M  V30 15791 O 1501.27 1.39131 1.18105 0
M  V30 15792 C 1501.32 3.09847 -1.86219 0
M  V30 15793 O 1501.04 2.93992 -3.24808 0
M  V30 15794 C 1502.54 4.042 -1.82037 0
M  V30 15795 H 1499.76 0.53248 -0.408297 0
M  V30 15796 H 1502.31 1.1524 -1.68938 0
M  V30 15797 H 1500.46 3.61719 -1.38701 0
M  V30 15798 H 1500.88 3.82281 -3.59112 0
M  V30 15799 H 1502.35 4.99621 -2.34697 0
M  V30 15800 H 1502.83 4.32013 -0.791295 0
M  V30 15801 H 1503.43 3.58254 -2.29203 0
M  V30 15802 N 1501.75 1.10074 1.1279 0
M  V30 15803 C 1503 0.839212 1.83852 0
M  V30 15804 C 1503.32 -0.637023 1.84301 0
M  V30 15805 O 1502.59 -1.46239 1.30349 0
M  V30 15806 H 1501.17 0.307468 0.680788 0
M  V30 15807 H 1503.83 1.39025 1.36595 0
M  V30 15808 H 1502.93 1.19872 2.88162 0
M  V30 15809 N 1503.23 -1.30138 0.888926 0
M  V30 15810 C 1504.46 -1.99853 0.523676 0
M  V30 15811 C 1504.87 -1.66783 -0.893312 0
M  V30 15812 O 1504.21 -0.903292 -1.59957 0
M  V30 15813 C 1504.27 -3.54055 0.623332 0
M  V30 15814 C 1503.93 -4.10652 2.00534 0
M  V30 15815 C 1504.93 -4.26353 2.97522 0
M  V30 15816 C 1502.62 -4.45938 2.3118 0
M  V30 15817 C 1504.61 -4.76557 4.23288 0
M  V30 15818 C 1502.3 -4.95841 3.57191 0
M  V30 15819 C 1503.3 -5.11103 4.53059 0
M  V30 15820 O 1502.98 -5.59927 5.76833 0
M  V30 15821 H 1502.72 -0.645553 0.200591 0
M  V30 15822 H 1505.27 -1.66899 1.19724 0
M  V30 15823 H 1503.5 -3.86551 -0.107221 0
M  V30 15824 H 1505.19 -4.05009 0.26879 0
M  V30 15825 H 1505.95 -3.9939 2.75159 0
M  V30 15826 H 1501.83 -4.33324 1.57326 0
M  V30 15827 H 1505.38 -4.88385 4.98123 0
M  V30 15828 H 1501.27 -5.22239 3.7939 0
M  V30 15829 H 1502.04 -5.78263 5.79271 0
M  V30 15830 N 1504.71 -0.650285 -1.43559 0
M  V30 15831 C 1505.64 0.0817484 -2.29054 0
M  V30 15832 C 1506.65 0.790023 -1.42346 0
M  V30 15833 O 1507.84 0.648269 -1.66312 0
M  V30 15834 C 1504.94 1.13873 -3.19196 0
M  V30 15835 C 1504.11 0.509177 -4.34426 0
M  V30 15836 C 1503.17 1.46265 -5.05463 0
M  V30 15837 O 1502.2 0.972378 -5.60833 0
M  V30 15838 N 1503.4 2.79668 -5.08691 0
M  V30 15839 H 1506.16 -0.652062 -2.92521 0
M  V30 15840 H 1503.73 -0.49285 -1.54216 0
M  V30 15841 H 1505.72 1.77732 -3.63584 0
M  V30 15842 H 1504.29 1.77454 -2.5735 0
M  V30 15843 H 1503.51 -0.308444 -3.92991 0
M  V30 15844 H 1504.8 0.0695732 -5.08752 0
M  V30 15845 H 1504.19 3.22062 -4.65072 0
M  V30 15846 H 1502.75 3.38838 -5.56805 0
M  V30 15847 N 1506.18 1.52647 -0.392018 0
M  V30 15848 C 1507.6 1.59544 -0.0421007 0
M  V30 15849 C 1507.8 1.40586 1.44353 0
M  V30 15850 O 1506.86 1.22422 2.20837 0
M  V30 15851 C 1508.17 2.9614 -0.521713 0
M  V30 15852 C 1509.72 3.09325 -0.478205 0
M  V30 15853 C 1510.19 4.48374 -0.93405 0
M  V30 15854 N 1511.68 4.54566 -0.890173 0
M  V30 15855 C 1512.42 5.60395 -1.21427 0
M  V30 15856 N 1511.91 6.73858 -1.60897 0
M  V30 15857 N 1513.71 5.50515 -1.13534 0
M  V30 15858 H 1505.86 1.63219 -1.35917 0
M  V30 15859 H 1508.12 0.766913 -0.557269 0
M  V30 15860 H 1507.83 3.15238 -1.55942 0
M  V30 15861 H 1507.7 3.7712 0.0777658 0
M  V30 15862 H 1510.09 2.89921 0.550418 0
M  V30 15863 H 1510.17 2.30292 -1.11352 0
M  V30 15864 H 1509.81 4.68519 -1.96092 0
M  V30 15865 H 1509.74 5.25878 -0.275717 0
M  V30 15866 H 1512.23 3.7311 -0.599758 0
M  V30 15867 H 1512.55 7.5058 -1.83983 0
M  V30 15868 H 1510.89 6.75182 -1.64786 0
M  V30 15869 H 1514.08 4.60755 -0.825977 0
M  V30 15870 H 1514.26 6.32889 -1.39124 0
M  V30 15871 N 1507.66 0.121921 1.57128 0
M  V30 15872 C 1508.59 -0.857725 2.12546 0
M  V30 15873 C 1509.61 -1.22797 1.06886 0
M  V30 15874 O 1510.8 -1.17641 1.34249 0
M  V30 15875 C 1507.9 -2.15869 2.61254 0
M  V30 15876 C 1507.07 -1.95969 3.91043 0
M  V30 15877 C 1506.13 -3.09822 4.2532 0
M  V30 15878 O 1505.15 -2.82608 4.94087 0
M  V30 15879 N 1506.36 -4.36333 3.82875 0
M  V30 15880 H 1509.12 -0.384239 2.97227 0
M  V30 15881 H 1506.68 -0.062416 1.6178 0
M  V30 15882 H 1508.67 -2.91035 2.81213 0
M  V30 15883 H 1507.24 -2.54557 1.81437 0
M  V30 15884 H 1506.46 -1.04979 3.79965 0
M  V30 15885 H 1507.75 -1.79981 4.75904 0
M  V30 15886 H 1507.15 -4.61318 3.27417 0
M  V30 15887 H 1505.71 -5.08362 4.07936 0
M  V30 15888 N 1509.14 -1.56867 -0.151857 0
M  V30 15889 C 1510.07 -2.00932 -1.18949 0
M  V30 15890 C 1511.05 -0.888062 -1.45077 0
M  V30 15891 O 1512.24 -1.15553 -1.56081 0
M  V30 15892 C 1509.37 -2.3858 -2.52383 0
M  V30 15893 C 1508.32 -3.53845 -2.40785 0
M  V30 15894 C 1507.65 -3.77292 -3.78886 0
M  V30 15895 C 1508.95 -4.8667 -1.89605 0
M  V30 15896 H 1510.64 -2.87863 -0.823107 0
M  V30 15897 H 1508.19 -1.38491 -0.394499 0
M  V30 15898 H 1510.14 -2.68006 -3.25193 0
M  V30 15899 H 1508.86 -1.48579 -2.90847 0
M  V30 15900 H 1507.52 -3.24577 -1.70427 0
M  V30 15901 H 1507.17 -2.84551 -4.14777 0
M  V30 15902 H 1506.87 -4.54861 -3.71989 0
M  V30 15903 H 1508.39 -4.09139 -4.53252 0
M  V30 15904 H 1509.81 -5.14846 -2.52204 0
M  V30 15905 H 1508.21 -5.6801 -1.93609 0
M  V30 15906 H 1509.28 -4.77366 -0.851438 0
M  V30 15907 N 1510.62 0.421051 -1.51871 0
M  V30 15908 C 1511.57 1.53277 -1.74954 0
M  V30 15909 C 1512.56 1.57792 -0.616282 0
M  V30 15910 O 1513.77 1.61342 -0.798054 0
M  V30 15911 H 1510.14 0.50953 -0.553067 0
M  V30 15912 H 1512.11 1.30988 -2.68113 0
M  V30 15913 C 1510.86 2.90772 -1.90649 0
M  V30 15914 H 1510.18 2.88035 -2.77265 0
M  V30 15915 H 1511.62 3.67882 -2.10805 0
M  V30 15916 C 1510.08 3.30161 -0.670463 0
M  V30 15917 O 1510.61 4.01352 0.167271 0
M  V30 15918 N 1508.82 2.86093 -0.509813 0
M  V30 15919 H 1508.37 2.28329 -1.19262 0
M  V30 15920 H 1508.32 3.12809 0.315918 0
M  V30 15921 N 1512.1 1.42293 0.677538 0
M  V30 15922 C 1513.33 1.45797 1.46379 0
M  V30 15923 C 1513.73 0.0669696 1.89081 0
M  V30 15924 O 1513.08 -0.928025 1.58535 0
M  V30 15925 C 1513.14 2.31982 2.74635 0
M  V30 15926 C 1512.8 3.79894 2.54026 0
M  V30 15927 C 1513.8 4.71615 2.18805 0
M  V30 15928 C 1511.49 4.24131 2.69106 0
M  V30 15929 C 1513.48 6.05563 1.98927 0
M  V30 15930 C 1511.17 5.5814 2.48844 0
M  V30 15931 C 1512.16 6.48672 2.13807 0
M  V30 15932 O 1511.85 7.80206 1.93737 0
M  V30 15933 H 1511.58 0.498113 0.457012 0
M  V30 15934 H 1514.14 1.87432 0.840151 0
M  V30 15935 H 1512.37 1.85191 3.39472 0
M  V30 15936 H 1514.06 2.26974 3.36508 0
M  V30 15937 H 1514.82 4.38723 2.06753 0
M  V30 15938 H 1510.7 3.53957 2.95357 0
M  V30 15939 H 1514.25 6.7619 1.71502 0
M  V30 15940 H 1510.14 5.90605 2.60491 0
M  V30 15941 H 1510.91 7.91536 2.08357 0
M  V30 15942 N 1513.57 -0.913576 1.28419 0
M  V30 15943 C 1514.52 -2.01603 1.12361 0
M  V30 15944 C 1515.49 -1.66087 0.0206953 0
M  V30 15945 O 1516.68 -1.89895 0.185659 0
M  V30 15946 C 1513.82 -3.35897 0.791655 0
M  V30 15947 C 1512.93 -3.84281 1.97363 0
M  V30 15948 C 1512.06 -5.07087 1.58228 0
M  V30 15949 C 1511.1 -5.47804 2.73089 0
M  V30 15950 N 1510.24 -6.618 2.34446 0
M  V30 15951 H 1515.08 -2.1467 2.0669 0
M  V30 15952 H 1512.62 -1.05147 1.02871 0
M  V30 15953 H 1514.58 -4.13149 0.579943 0
M  V30 15954 H 1513.21 -3.22596 -0.114699 0
M  V30 15955 H 1512.26 -3.03184 2.29746 0
M  V30 15956 H 1513.57 -4.10417 2.83477 0
M  V30 15957 H 1512.72 -5.91883 1.33264 0
M  V30 15958 H 1511.46 -4.82759 0.692429 0
M  V30 15959 H 1510.47 -4.61549 2.98751 0
M  V30 15960 H 1511.69 -5.74119 3.62717 0
M  V30 15961 H 1509.64 -6.39103 1.4793 0
M  V30 15962 H 1509.56 -6.87663 3.14096 0
M  V30 15963 H 1510.82 -7.49901 2.12766 0
M  V30 15964 N 1515.05 -1.1067 -1.12204 0
M  V30 15965 C 1516 -0.726979 -2.161 0
M  V30 15966 C 1516.99 0.26505 -1.58702 0
M  V30 15967 O 1518.18 0.0734052 -1.76848 0
M  V30 15968 C 1515.31 -0.163062 -3.42913 0
M  V30 15969 C 1514.39 -1.18228 -4.07287 0
M  V30 15970 N 1514.78 -2.3738 -4.46637 0
M  V30 15971 C 1513.08 -1.02336 -4.34101 0
M  V30 15972 C 1513.78 -3.02318 -4.9697 0
M  V30 15973 N 1512.76 -2.29826 -4.92627 0
M  V30 15974 H 1516.56 -1.63396 -2.44293 0
M  V30 15975 H 1514.08 -0.984782 -1.29135 0
M  V30 15976 H 1516.07 0.127067 -4.16706 0
M  V30 15977 H 1514.73 0.738611 -3.16188 0
M  V30 15978 H 1515.74 -2.74889 -4.38926 0
M  V30 15979 H 1512.42 -0.177452 -4.17123 0
M  V30 15980 H 1513.81 -4.03685 -5.3711 0
M  V30 15981 N 1516.53 1.29665 -0.895815 0
M  V30 15982 C 1517.46 2.26842 -0.327939 0
M  V30 15983 C 1518.48 1.54151 0.523578 0
M  V30 15984 O 1519.66 1.75205 0.341367 0
M  V30 15985 C 1516.76 3.34384 0.551393 0
M  V30 15986 C 1515.94 4.36544 -0.273514 0
M  V30 15987 C 1515 5.23442 0.538031 0
M  V30 15988 O 1514.02 5.69184 -0.0431025 0
M  V30 15989 N 1515.22 5.50402 1.84493 0
M  V30 15990 H 1517.99 2.76208 -1.16315 0
M  V30 15991 H 1515.55 1.42958 -0.759903 0
M  V30 15992 H 1517.54 3.89446 1.10062 0
M  V30 15993 H 1516.11 2.84864 1.28728 0
M  V30 15994 H 1515.33 3.81196 -1.00416 0
M  V30 15995 H 1516.62 5.01842 -0.838589 0
M  V30 15996 H 1516.02 5.15041 2.33985 0
M  V30 15997 H 1514.58 6.08295 2.34137 0
M  V30 15998 N 1518.01 0.657889 1.43212 0
M  V30 15999 C 1519.29 0.102895 1.95329 0
M  V30 16000 C 1519.67 -1.37821 1.59901 0
M  V30 16001 O 1519.01 -2.10602 0.886505 0
M  V30 16002 C 1519.22 0.354075 3.47199 0
M  V30 16003 C 1520.57 0.261511 4.23794 0
M  V30 16004 O 1521.6 0.286889 3.55043 0
M  V30 16005 O 1520.45 0.189209 5.46172 0
M  V30 16006 H 1517.55 -0.00692284 0.826971 0
M  V30 16007 H 1520.09 0.73145 1.53127 0
M  V30 16008 H 1518.87 1.38075 3.6613 0
M  V30 16009 H 1518.49 -0.307321 3.96411 0
M  V30 16010 N 1519.49 -1.52437 0.400108 0
M  V30 16011 C 1520.73 -2.01312 -0.178252 0
M  V30 16012 C 1521.06 -1.28797 -1.46411 0
M  V30 16013 O 1520.33 -0.411211 -1.91536 0
M  V30 16014 H 1518.91 -0.743819 -0.0688613 0
M  V30 16015 H 1521.57 -1.87434 0.53428 0
M  V30 16016 H 1520.66 -3.09768 -0.380793 0
M  V30 16017 N 1520.96 -0.130252 -1.57061 0
M  V30 16018 C 1522.19 0.535707 -2.00362 0
M  V30 16019 C 1522.61 1.58712 -1.00956 0
M  V30 16020 O 1521.97 1.81292 0.0171546 0
M  V30 16021 C 1522.02 1.12836 -3.42491 0
M  V30 16022 O 1521.12 2.24367 -3.46025 0
M  V30 16023 H 1520.47 0.132735 -0.650598 0
M  V30 16024 H 1523 -0.222047 -2.03392 0
M  V30 16025 H 1523.01 1.46115 -3.80939 0
M  V30 16026 H 1521.68 0.358304 -4.14354 0
M  V30 16027 H 1520.26 1.92443 -3.19406 0
M  V30 16028 N 1522.44 1.56945 0.143535 0
M  V30 16029 C 1523.67 1.87429 0.869139 0
M  V30 16030 C 1524.08 0.716856 1.75094 0
M  V30 16031 O 1523.42 -0.322379 1.80849 0
M  V30 16032 C 1523.49 3.12657 1.77442 0
M  V30 16033 C 1523.15 4.44311 1.06943 0
M  V30 16034 C 1524.15 5.18187 0.421706 0
M  V30 16035 C 1521.83 4.91033 1.05791 0
M  V30 16036 C 1523.83 6.36992 -0.228127 0
M  V30 16037 C 1521.51 6.09761 0.404266 0
M  V30 16038 C 1522.51 6.82587 -0.237621 0
M  V30 16039 O 1522.2 7.99059 -0.880893 0
M  V30 16040 H 1521.93 0.625443 0.256508 0
M  V30 16041 H 1524.49 2.04922 0.139979 0
M  V30 16042 H 1522.72 2.91181 2.54461 0
M  V30 16043 H 1524.4 3.29359 2.37228 0
M  V30 16044 H 1525.17 4.83157 0.422395 0
M  V30 16045 H 1521.05 4.3427 1.54694 0
M  V30 16046 H 1524.59 6.93773 -0.729732 0
M  V30 16047 H 1520.49 6.44252 0.401256 0
M  V30 16048 H 1521.26 8.14747 -0.782907 0
M  V30 16049 N 1523.92 -0.412991 1.52093 0
M  V30 16050 C 1525.15 -1.18667 1.70096 0
M  V30 16051 C 1525.57 -1.83622 0.408012 0
M  V30 16052 O 1524.93 -1.69847 -0.634174 0
M  V30 16053 C 1524.98 -2.22837 2.83507 0
M  V30 16054 O 1524.08 -3.2889 2.48807 0
M  V30 16055 H 1523.42 -0.346581 0.566373 0
M  V30 16056 H 1525.95 -0.484642 1.98777 0
M  V30 16057 H 1525.96 -2.67229 3.08306 0
M  V30 16058 H 1524.64 -1.74942 3.77317 0
M  V30 16059 H 1523.21 -2.89804 2.34665 0
M  V30 16060 N 1525.4 -1.4265 -0.669982 0
M  V30 16061 C 1526.63 -1.46784 -1.45816 0
M  V30 16062 C 1527.04 -0.080606 -1.88628 0
M  V30 16063 O 1526.4 0.905687 -1.58441 0
M  V30 16064 C 1526.45 -2.39915 -2.70413 0
M  V30 16065 O 1526.17 -3.73241 -2.29396 0
M  V30 16066 C 1527.67 -2.53118 -3.63931 0
M  V30 16067 H 1524.89 -0.499076 -0.448513 0
M  V30 16068 H 1527.44 -1.87216 -0.822819 0
M  V30 16069 H 1525.59 -2.02722 -3.30125 0
M  V30 16070 H 1526.01 -4.23164 -3.09891 0
M  V30 16071 H 1527.48 -3.22395 -4.48069 0
M  V30 16072 H 1527.96 -1.57062 -4.10156 0
M  V30 16073 H 1528.56 -2.91052 -3.10111 0
M  V30 16074 N 1526.88 0.906753 -1.28902 0
M  V30 16075 C 1528.12 1.65658 -1.16464 0
M  V30 16076 C 1528.45 1.92396 0.285342 0
M  V30 16077 O 1527.71 1.52755 1.22329 0
M  V30 16078 C 1528.01 3.0171 -1.91588 0
M  V30 16079 C 1527.67 2.94606 -3.41347 0
M  V30 16080 C 1526.33 2.92376 -3.8219 0
M  V30 16081 C 1528.69 2.84335 -4.3681 0
M  V30 16082 C 1526.01 2.77685 -5.16825 0
M  V30 16083 C 1528.37 2.71184 -5.71526 0
M  V30 16084 C 1527.03 2.67316 -6.11636 0
M  V30 16085 H 1526.3 0.606184 -0.426171 0
M  V30 16086 H 1528.95 1.05592 -1.59758 0
M  V30 16087 H 1527.25 3.65602 -1.40863 0
M  V30 16088 H 1528.95 3.58645 -1.79374 0
M  V30 16089 H 1525.54 2.97141 -3.08878 0
M  V30 16090 H 1529.72 2.85141 -4.06212 0
M  V30 16091 H 1524.98 2.7309 -5.47021 0
M  V30 16092 H 1529.15 2.62206 -6.45152 0
M  V30 16093 H 1526.78 2.5569 -7.1591 0
M  V30 16094 N 1528.36 1.11264 1.11616 0
M  V30 16095 C 1529.6 0.858664 1.82952 0
M  V30 16096 C 1529.92 -0.617439 1.84967 0
M  V30 16097 O 1529.19 -1.44849 1.31893 0
M  V30 16098 H 1527.77 0.314671 0.677489 0
M  V30 16099 H 1530.44 1.40466 1.35113 0
M  V30 16100 H 1529.53 1.22921 2.86874 0
M  V30 16101 N 1529.83 -1.29188 0.902679 0
M  V30 16102 C 1530.74 -2.3138 0.387363 0
M  V30 16103 C 1531.76 -1.66067 -0.519396 0
M  V30 16104 O 1532.94 -1.97219 -0.408257 0
M  V30 16105 C 1530 -3.44675 -0.374137 0
M  V30 16106 C 1529.06 -4.25572 0.564503 0
M  V30 16107 C 1528.29 -5.33458 -0.160748 0
M  V30 16108 O 1528.52 -5.53349 -1.38423 0
M  V30 16109 O 1527.45 -5.99834 0.498259 0
M  V30 16110 H 1531.28 -2.77444 1.23525 0
M  V30 16111 H 1528.86 -1.33679 0.667106 0
M  V30 16112 H 1530.74 -4.13647 -0.80464 0
M  V30 16113 H 1529.42 -3.00714 -1.19804 0
M  V30 16114 H 1528.33 -3.59232 1.04418 0
M  V30 16115 H 1529.66 -4.73184 1.3549 0
M  V30 16116 N 1531.31 -0.665475 -1.42861 0
M  V30 16117 C 1532.73 -0.334157 -1.56063 0
M  V30 16118 C 1532.93 1.16104 -1.64688 0
M  V30 16119 O 1531.98 1.94622 -1.60867 0
M  V30 16120 C 1533.3 -1.05628 -2.81537 0
M  V30 16121 C 1534.84 -1.03771 -2.95297 0
M  V30 16122 C 1535.32 -1.74098 -4.2362 0
M  V30 16123 N 1536.81 -1.7092 -4.30512 0
M  V30 16124 C 1537.55 -2.222 -5.28597 0
M  V30 16125 N 1537.04 -2.81821 -6.32889 0
M  V30 16126 N 1538.83 -2.12628 -5.20332 0
M  V30 16127 H 1530.99 -1.6356 -1.35506 0
M  V30 16128 H 1533.25 -0.688538 -0.651628 0
M  V30 16129 H 1532.95 -2.11141 -2.81269 0
M  V30 16130 H 1532.83 -0.615586 -3.72143 0
M  V30 16131 H 1535.22 0.00905324 -2.95099 0
M  V30 16132 H 1535.3 -1.51721 -2.05948 0
M  V30 16133 H 1534.94 -2.78737 -4.2458 0
M  V30 16134 H 1534.87 -1.23604 -5.11888 0
M  V30 16135 H 1537.36 -1.27425 -3.55769 0
M  V30 16136 H 1537.67 -3.18594 -7.04072 0
M  V30 16137 H 1536.02 -2.85887 -6.33478 0
M  V30 16138 H 1539.21 -1.65746 -4.37774 0
M  V30 16139 H 1539.38 -2.52899 -5.96612 0
M  V30 16140 N 1532.79 1.52222 -0.408187 0
M  V30 16141 C 1534.02 2.05922 0.167187 0
M  V30 16142 C 1534.43 1.27824 1.3949 0
M  V30 16143 O 1533.77 0.323065 1.80837 0
M  V30 16144 C 1533.83 3.54734 0.583435 0
M  V30 16145 C 1533.5 4.53876 -0.533419 0
M  V30 16146 C 1534.49 5.00788 -1.3967 0
M  V30 16147 C 1532.18 4.97316 -0.705841 0
M  V30 16148 C 1534.17 5.89782 -2.41736 0
M  V30 16149 C 1531.86 5.86106 -1.72981 0
M  V30 16150 C 1532.86 6.32234 -2.58397 0
M  V30 16151 O 1532.55 7.19267 -3.59041 0
M  V30 16152 H 1532.28 0.675562 0.0243385 0
M  V30 16153 H 1534.83 1.97115 -0.577475 0
M  V30 16154 H 1533.06 3.61224 1.38036 0
M  V30 16155 H 1534.75 3.91085 1.08662 0
M  V30 16156 H 1535.52 4.67944 -1.27489 0
M  V30 16157 H 1531.4 4.60972 -0.0506558 0
M  V30 16158 H 1534.94 6.25708 -3.0844 0
M  V30 16159 H 1530.84 6.18364 -1.85193 0
M  V30 16160 H 1531.6 7.37376 -3.55274 0
M  V30 16161 N 1534.27 0.138579 1.5699 0
M  V30 16162 C 1535.52 -0.513611 1.95465 0
M  V30 16163 C 1535.84 -1.65952 1.02396 0
M  V30 16164 O 1535.11 -1.9572 0.0839001 0
M  V30 16165 H 1533.69 -0.192729 0.72171 0
M  V30 16166 H 1536.35 0.212107 1.93742 0
M  V30 16167 H 1535.44 -0.895313 2.98983 0
M  V30 16168 N 1535.75 -1.57019 -0.13521 0
M  V30 16169 C 1537.16 -1.51949 -0.48824 0
M  V30 16170 C 1537.36 -0.848955 -1.82743 0
M  V30 16171 O 1536.42 -0.424441 -2.48907 0
M  V30 16172 C 1537.73 -2.96719 -0.487673 0
M  V30 16173 C 1539.28 -3.07722 -0.572365 0
M  V30 16174 C 1539.75 -4.54022 -0.602347 0
M  V30 16175 N 1541.24 -4.58413 -0.664242 0
M  V30 16176 C 1541.98 -5.69005 -0.70862 0
M  V30 16177 N 1541.48 -6.89135 -0.711626 0
M  V30 16178 N 1543.27 -5.57069 -0.750399 0
M  V30 16179 H 1535.42 -1.99001 0.742465 0
M  V30 16180 H 1537.68 -0.908116 0.272083 0
M  V30 16181 H 1537.39 -3.49082 0.428363 0
M  V30 16182 H 1537.26 -3.53299 -1.32136 0
M  V30 16183 H 1539.65 -2.55372 -1.47882 0
M  V30 16184 H 1539.73 -2.54166 0.288696 0
M  V30 16185 H 1539.37 -5.07013 0.3 0
M  V30 16186 H 1539.3 -5.05373 -1.48006 0
M  V30 16187 H 1541.8 -3.71936 -0.668739 0
M  V30 16188 H 1542.11 -7.69175 -0.747663 0
M  V30 16189 H 1540.45 -6.91672 -0.679311 0
M  V30 16190 H 1543.64 -4.62129 -0.745301 0
M  V30 16191 H 1543.82 -6.4327 -0.781518 0
M  V30 16192 N 1537.22 0.404919 -1.52309 0
M  V30 16193 C 1538.17 1.51412 -1.7657 0
M  V30 16194 C 1539.17 1.5713 -0.632983 0
M  V30 16195 O 1540.37 1.60486 -0.815121 0
M  V30 16196 H 1536.75 0.503636 -0.55844 0
M  V30 16197 H 1538.72 1.28137 -2.69488 0
M  V30 16198 C 1537.47 2.88733 -1.93722 0
M  V30 16199 H 1536.79 2.85078 -2.80304 0
M  V30 16200 H 1538.23 3.65626 -2.14695 0
M  V30 16201 C 1536.69 3.29431 -0.705444 0
M  V30 16202 O 1537.22 4.01506 0.124693 0
M  V30 16203 N 1535.43 2.85536 -0.540128 0
M  V30 16204 H 1534.97 2.27052 -1.21677 0
M  V30 16205 H 1534.93 3.13126 0.282723 0
M  V30 16206 N 1538.7 1.43003 0.662408 0
M  V30 16207 C 1539.63 1.43407 1.78793 0
M  V30 16208 C 1540.65 0.331423 1.59391 0
M  V30 16209 O 1541.84 0.595291 1.68281 0
M  V30 16210 C 1538.94 1.22239 3.16087 0
M  V30 16211 C 1538.11 2.4517 3.6223 0
M  V30 16212 C 1537.17 2.19362 4.78296 0
M  V30 16213 O 1536.19 2.92651 4.88205 0
M  V30 16214 N 1537.4 1.20449 5.67866 0
M  V30 16215 H 1540.16 2.40426 1.78928 0
M  V30 16216 H 1537.72 1.38042 0.845936 0
M  V30 16217 H 1539.71 1.02871 3.91407 0
M  V30 16218 H 1538.28 0.336983 3.10778 0
M  V30 16219 H 1537.5 2.80024 2.77453 0
M  V30 16220 H 1538.79 3.27003 3.89803 0
M  V30 16221 H 1538.19 0.598577 5.62524 0
M  V30 16222 H 1536.75 1.07066 6.42946 0
M  V30 16223 N 1540.18 -0.899904 1.29381 0
M  V30 16224 C 1541.43 -1.64712 1.17109 0
M  V30 16225 C 1541.75 -1.93011 -0.277772 0
M  V30 16226 O 1541.02 -1.55604 -1.19013 0
M  V30 16227 H 1539.6 -0.610532 0.430418 0
M  V30 16228 H 1542.26 -1.07905 1.62304 0
M  V30 16229 H 1541.36 -2.60362 1.72098 0
M  V30 16230 N 1541.66 -1.11854 -1.11024 0
M  V30 16231 C 1542.61 -0.77596 -2.19275 0
M  V30 16232 C 1543.6 0.234503 -1.67769 0
M  V30 16233 O 1544.81 0.0933372 -1.79758 0
M  V30 16234 H 1541.18 -0.23307 -0.71497 0
M  V30 16235 H 1543.15 -1.69749 -2.45414 0
M  V30 16236 C 1541.9 -0.240148 -3.4687 0
M  V30 16237 H 1541.22 -1.00895 -3.86859 0
M  V30 16238 H 1542.66 -0.0386799 -4.23982 0
M  V30 16239 C 1541.12 1.03056 -3.20751 0
M  V30 16240 O 1541.65 2.10948 -3.41854 0
M  V30 16241 N 1539.86 0.955066 -2.74457 0
M  V30 16242 H 1539.41 0.0769523 -2.57485 0
M  V30 16243 H 1539.36 1.80593 -2.57359 0
M  V30 16244 N 1543.14 1.28707 -0.909517 0
M  V30 16245 C 1544.36 1.99283 -0.556211 0
M  V30 16246 C 1544.78 1.68 0.861475 0
M  V30 16247 O 1544.14 0.930421 1.57001 0
M  V30 16248 C 1544.19 3.5362 -0.75068 0
M  V30 16249 O 1543.91 3.83799 -2.11258 0
M  V30 16250 C 1545.41 4.41459 -0.403637 0
M  V30 16251 H 1542.63 0.636476 -0.212462 0
M  V30 16252 H 1545.17 1.64007 -1.22156 0
M  V30 16253 H 1543.33 3.87174 -0.132384 0
M  V30 16254 H 1543.74 4.78448 -2.14913 0
M  V30 16255 H 1545.22 5.48833 -0.590496 0
M  V30 16256 H 1545.69 4.34214 0.659897 0
M  V30 16257 H 1546.3 4.13394 -0.999292 0
M  V30 16258 N 1544.61 0.673042 1.42506 0
M  V30 16259 C 1545.86 0.203538 2.02379 0
M  V30 16260 C 1546.22 -1.17624 1.52258 0
M  V30 16261 O 1545.51 -1.77787 0.714297 0
M  V30 16262 C 1545.7 0.175896 3.56967 0
M  V30 16263 C 1545.53 1.55145 4.2209 0
M  V30 16264 C 1544.3 2.14878 4.57335 0
M  V30 16265 C 1546.5 2.49378 4.49794 0
M  V30 16266 N 1544.48 3.45232 5.0763 0
M  V30 16267 C 1545.85 3.64385 5.01621 0
M  V30 16268 C 1547.91 2.4793 4.31781 0
M  V30 16269 C 1546.61 4.78196 5.37328 0
M  V30 16270 C 1548.64 3.60836 4.68563 0
M  V30 16271 C 1548 4.74571 5.2054 0
M  V30 16272 H 1544.1 0.119362 0.772837 0
M  V30 16273 H 1546.68 0.885648 1.73391 0
M  V30 16274 H 1544.85 -0.475621 3.85477 0
M  V30 16275 H 1546.58 -0.306326 4.03539 0
M  V30 16276 H 1543.34 1.67385 4.43034 0
M  V30 16277 H 1543.76 4.1199 5.37209 0
M  V30 16278 H 1548.41 1.61227 3.90853 0
M  V30 16279 H 1546.12 5.65576 5.77191 0
M  V30 16280 H 1549.71 3.60941 4.56304 0
M  V30 16281 H 1548.59 5.6049 5.48471 0
M  V30 16282 N 1546.09 -1.52004 0.416254 0
M  V30 16283 C 1547.02 -2.30106 -0.396671 0
M  V30 16284 C 1548 -1.34616 -1.03983 0
M  V30 16285 O 1549.19 -1.63528 -1.04749 0
M  V30 16286 C 1546.32 -3.12769 -1.50972 0
M  V30 16287 C 1545.27 -4.16365 -0.99119 0
M  V30 16288 C 1544.6 -4.87417 -2.19838 0
M  V30 16289 C 1545.9 -5.22284 -0.0402599 0
M  V30 16290 H 1547.59 -2.98312 0.255054 0
M  V30 16291 H 1545.14 -1.43464 0.124106 0
M  V30 16292 H 1547.09 -3.66178 -2.08547 0
M  V30 16293 H 1545.82 -2.42346 -2.18943 0
M  V30 16294 H 1544.47 -3.63976 -0.437803 0
M  V30 16295 H 1544.12 -4.13516 -2.8638 0
M  V30 16296 H 1543.82 -5.57454 -1.85792 0
M  V30 16297 H 1545.35 -5.43641 -2.78006 0
M  V30 16298 H 1546.76 -5.70891 -0.525027 0
M  V30 16299 H 1545.16 -5.99726 0.211742 0
M  V30 16300 H 1546.23 -4.7642 0.902877 0
M  V30 16301 N 1547.57 -0.146903 -1.56914 0
M  V30 16302 C 1548.8 0.511181 -2.00486 0
M  V30 16303 C 1549.21 1.58425 -1.02699 0
M  V30 16304 O 1548.57 1.82484 -0.0239878 0
M  V30 16305 C 1548.62 1.11191 -3.43975 0
M  V30 16306 O 1548.34 0.0817094 -4.38024 0
M  V30 16307 C 1549.84 1.85061 -4.02824 0
M  V30 16308 H 1547.06 0.133078 -0.657671 0
M  V30 16309 H 1549.61 -0.241457 -2.0307 0
M  V30 16310 H 1547.76 1.81517 -3.42243 0
M  V30 16311 H 1548.18 0.52181 -5.21898 0
M  V30 16312 H 1549.65 2.22385 -5.05222 0
M  V30 16313 H 1550.13 2.73649 -3.4353 0
M  V30 16314 H 1550.73 1.19434 -4.08186 0
M  V30 16315 N 1549.05 1.57088 0.126881 0
M  V30 16316 C 1550.01 1.98836 1.14003 0
M  V30 16317 C 1551.01 0.877454 1.34749 0
M  V30 16318 O 1552.2 1.14366 1.314 0
M  V30 16319 C 1549.33 2.32171 2.49618 0
M  V30 16320 H 1550.53 2.89541 0.7814 0
M  V30 16321 H 1548.08 1.51835 0.370915 0
M  V30 16322 H 1548.81 1.44321 2.90417 0
M  V30 16323 H 1548.6 3.13187 2.35916 0
M  V30 16324 H 1550.09 2.65238 3.2255 0
M  V30 16325 N 1550.53 -0.396836 1.52522 0
M  V30 16326 C 1551.77 -1.14263 1.67183 0
M  V30 16327 C 1552.1 -1.90176 0.407845 0
M  V30 16328 O 1551.36 -1.85965 -0.609553 0
M  V30 16329 C 1551.66 -2.15308 2.85267 0
M  V30 16330 C 1551.32 -1.56111 4.23013 0
M  V30 16331 C 1549.98 -1.39692 4.60478 0
M  V30 16332 C 1552.34 -1.12998 5.08803 0
M  V30 16333 C 1549.66 -0.786963 5.81398 0
M  V30 16334 C 1552.02 -0.534159 6.30341 0
M  V30 16335 C 1550.68 -0.357204 6.66544 0
M  V30 16336 H 1549.95 -0.418118 0.611766 0
M  V30 16337 H 1552.6 -0.428255 1.8665 0
M  V30 16338 H 1550.9 -2.92935 2.60185 0
M  V30 16339 H 1552.6 -2.72908 2.93806 0
M  V30 16340 H 1549.19 -1.69876 3.93497 0
M  V30 16341 H 1553.37 -1.24488 4.80434 0
M  V30 16342 H 1548.63 -0.63799 6.08062 0
M  V30 16343 H 1552.8 -0.191759 6.96136 0
M  V30 16344 H 1550.43 0.117528 7.60109 0
M  V30 16345 N 1552.01 -1.43353 -0.654814 0
M  V30 16346 C 1553.25 -1.451 -1.41682 0
M  V30 16347 C 1553.58 -0.0743864 -1.94057 0
M  V30 16348 O 1552.86 0.904515 -1.72188 0
M  V30 16349 C 1553.14 -2.49204 -2.59941 0
M  V30 16350 C 1553 -3.96134 -2.13069 0
M  V30 16351 C 1554.31 -2.50064 -3.62155 0
M  V30 16352 H 1551.43 -0.528339 -0.513836 0
M  V30 16353 H 1554.08 -1.74892 -0.742489 0
M  V30 16354 H 1552.23 -2.2393 -3.1747 0
M  V30 16355 H 1553.9 -4.32459 -1.60552 0
M  V30 16356 H 1552.14 -4.09042 -1.44455 0
M  V30 16357 H 1552.81 -4.64585 -2.98101 0
M  V30 16358 H 1555.29 -2.72587 -3.14382 0
M  V30 16359 H 1554.16 -3.24849 -4.42452 0
M  V30 16360 H 1554.42 -1.53385 -4.14639 0
M  V30 16361 N 1553.48 0.89303 -1.29857 0
M  V30 16362 C 1554.41 2.01422 -1.18117 0
M  V30 16363 C 1555.39 1.6994 -0.0737487 0
M  V30 16364 O 1556.58 1.92527 -0.254387 0
M  V30 16365 C 1553.71 3.36385 -0.863842 0
M  V30 16366 C 1552.66 3.821 -1.92831 0
M  V30 16367 C 1551.99 5.14263 -1.46415 0
M  V30 16368 C 1553.29 4.01699 -3.33819 0
M  V30 16369 H 1554.98 2.11502 -2.11913 0
M  V30 16370 H 1552.53 1.01622 -1.02024 0
M  V30 16371 H 1554.48 4.14335 -0.768397 0
M  V30 16372 H 1553.21 3.26415 0.109816 0
M  V30 16373 H 1551.87 3.06372 -2.01325 0
M  V30 16374 H 1551.51 5.00714 -0.478983 0
M  V30 16375 H 1551.21 5.45821 -2.17609 0
M  V30 16376 H 1552.74 5.94747 -1.38234 0
M  V30 16377 H 1554.15 4.70111 -3.28129 0
M  V30 16378 H 1552.55 4.44621 -4.03029 0
M  V30 16379 H 1553.62 3.05816 -3.76304 0
M  V30 16380 N 1554.96 1.12442 1.10429 0
M  V30 16381 C 1555.91 0.792332 2.16773 0
M  V30 16382 C 1556.88 -0.240945 1.64343 0
M  V30 16383 O 1558.06 -0.115504 1.9045 0
M  V30 16384 C 1555.2 0.253166 3.4417 0
M  V30 16385 C 1554.32 1.34426 4.10553 0
M  V30 16386 C 1553.45 0.764527 5.2567 0
M  V30 16387 C 1552.49 1.83474 5.83955 0
M  V30 16388 N 1551.63 1.27372 6.9045 0
M  V30 16389 H 1556.47 1.7033 2.44524 0
M  V30 16390 H 1554 0.850418 1.20026 0
M  V30 16391 H 1555.96 -0.0774862 4.17128 0
M  V30 16392 H 1554.59 -0.620962 3.16771 0
M  V30 16393 H 1553.64 1.79169 3.35563 0
M  V30 16394 H 1554.96 2.15354 4.49916 0
M  V30 16395 H 1554.11 0.384548 6.0548 0
M  V30 16396 H 1552.85 -0.0759512 4.87641 0
M  V30 16397 H 1551.85 2.22391 5.02814 0
M  V30 16398 H 1553.08 2.67844 6.24048 0
M  V30 16399 H 1551.03 0.455069 6.5442 0
M  V30 16400 H 1550.94 2.01959 7.28525 0
M  V30 16401 H 1552.21 0.920975 7.7404 0
M  V30 16402 N 1556.44 -1.28223 0.91633 0
M  V30 16403 C 1557.67 -1.98986 0.566772 0
M  V30 16404 C 1558.08 -1.68455 -0.852553 0
M  V30 16405 O 1557.44 -0.938734 -1.56506 0
M  V30 16406 C 1557.49 -3.53217 0.769423 0
M  V30 16407 O 1557.21 -3.82674 2.1329 0
M  V30 16408 C 1558.71 -4.41238 0.427043 0
M  V30 16409 H 1555.93 -0.63534 0.215834 0
M  V30 16410 H 1558.48 -1.63357 1.23024 0
M  V30 16411 H 1556.63 -3.87098 0.152915 0
M  V30 16412 H 1557.05 -4.77302 2.17448 0
M  V30 16413 H 1558.52 -5.48512 0.619594 0
M  V30 16414 H 1559 -4.34558 -0.63686 0
M  V30 16415 H 1559.6 -4.12858 1.0212 0
M  V30 16416 N 1557.92 -0.68059 -1.42147 0
M  V30 16417 C 1559.16 -0.205263 -2.01457 0
M  V30 16418 C 1559.49 1.19015 -1.53837 0
M  V30 16419 O 1558.75 1.81423 -0.733763 0
M  V30 16420 C 1559.05 -0.194825 -3.56869 0
M  V30 16421 C 1558.71 -1.5357 -4.23942 0
M  V30 16422 C 1557.37 -1.90282 -4.4198 0
M  V30 16423 C 1559.73 -2.41852 -4.61689 0
M  V30 16424 C 1557.05 -3.14891 -4.95036 0
M  V30 16425 C 1559.41 -3.65779 -5.16129 0
M  V30 16426 C 1558.07 -4.02653 -5.32379 0
M  V30 16427 H 1557.34 -0.0751109 -0.737183 0
M  V30 16428 H 1559.99 -0.87672 -1.70252 0
M  V30 16429 H 1558.29 0.560155 -3.87775 0
M  V30 16430 H 1559.99 0.190248 -4.00548 0
M  V30 16431 H 1556.58 -1.24012 -4.10267 0
M  V30 16432 H 1560.76 -2.14773 -4.47422 0
M  V30 16433 H 1556.02 -3.43474 -5.05802 0
M  V30 16434 H 1560.19 -4.34384 -5.4432 0
M  V30 16435 H 1557.82 -4.99283 -5.73254 0
M  V30 16436 N 1559.4 1.51781 -0.424309 0
M  V30 16437 C 1560.36 2.25996 0.381903 0
M  V30 16438 C 1561.36 1.28938 0.960813 0
M  V30 16439 O 1562.55 1.52757 0.837306 0
M  V30 16440 C 1559.68 3.04181 1.53904 0
M  V30 16441 H 1560.87 2.98697 -0.268336 0
M  V30 16442 H 1558.43 1.55293 -0.177167 0
M  V30 16443 H 1559.16 2.35866 2.22571 0
M  V30 16444 H 1558.95 3.75457 1.13025 0
M  V30 16445 H 1560.44 3.60434 2.10896 0
M  V30 16446 N 1560.87 0.155222 1.56834 0
M  V30 16447 C 1561.81 -0.812448 2.14317 0
M  V30 16448 C 1562.82 -1.20502 1.09467 0
M  V30 16449 O 1564.01 -1.14767 1.36714 0
M  V30 16450 C 1561.11 -2.10279 2.65774 0
M  V30 16451 C 1560.28 -1.8763 3.95112 0
M  V30 16452 C 1559.34 -3.0073 4.31796 0
M  V30 16453 O 1558.37 -2.72064 4.9997 0
M  V30 16454 N 1559.57 -4.28114 3.92044 0
M  V30 16455 H 1562.33 -0.321106 2.97975 0
M  V30 16456 H 1559.89 -0.0280861 1.61876 0
M  V30 16457 H 1561.89 -2.85005 2.87323 0
M  V30 16458 H 1560.46 -2.50652 1.86796 0
M  V30 16459 H 1559.68 -0.968958 3.82106 0
M  V30 16460 H 1560.96 -1.69845 4.79614 0
M  V30 16461 H 1560.36 -4.54269 3.37129 0
M  V30 16462 H 1558.92 -4.99594 4.18627 0
M  V30 16463 N 1562.35 -1.57153 -0.118549 0
M  V30 16464 C 1563.31 -1.99438 -1.12947 0
M  V30 16465 C 1564.31 -0.884588 -1.34282 0
M  V30 16466 O 1565.5 -1.15062 -1.30792 0
M  V30 16467 C 1562.64 -2.33492 -2.48384 0
M  V30 16468 H 1563.83 -2.89952 -0.766034 0
M  V30 16469 H 1561.38 -1.5203 -0.362858 0
M  V30 16470 H 1562.12 -1.45859 -2.89647 0
M  V30 16471 H 1561.9 -3.14433 -2.34252 0
M  V30 16472 H 1563.39 -2.66945 -3.21139 0
M  V30 16473 N 1563.83 0.388742 -1.5273 0
M  V30 16474 C 1565.25 0.728828 -1.41987 0
M  V30 16475 C 1565.45 1.94116 -0.540493 0
M  V30 16476 O 1564.5 2.52496 -0.0140397 0
M  V30 16477 C 1565.81 0.963683 -2.8484 0
M  V30 16478 C 1567.36 1.06514 -2.94319 0
M  V30 16479 C 1567.84 1.33262 -4.38184 0
M  V30 16480 N 1569.33 1.40083 -4.4151 0
M  V30 16481 C 1570.06 1.62446 -5.49908 0
M  V30 16482 N 1569.56 1.82277 -6.68391 0
M  V30 16483 N 1571.35 1.64627 -5.37452 0
M  V30 16484 H 1563.5 -0.408984 -2.08425 0
M  V30 16485 H 1565.77 -0.120791 -0.940273 0
M  V30 16486 H 1565.47 0.144986 -3.51401 0
M  V30 16487 H 1565.35 1.87828 -3.27109 0
M  V30 16488 H 1567.73 1.8744 -2.27926 0
M  V30 16489 H 1567.81 0.12845 -2.55477 0
M  V30 16490 H 1567.46 0.528457 -5.05143 0
M  V30 16491 H 1567.39 2.28216 -4.74579 0
M  V30 16492 H 1569.88 1.26465 -3.56111 0
M  V30 16493 H 1570.19 1.98848 -7.46779 0
M  V30 16494 H 1568.54 1.79501 -6.7142 0
M  V30 16495 H 1571.73 1.48686 -4.43858 0
M  V30 16496 H 1571.9 1.81715 -6.22 0
M  V30 16497 N 1565.31 1.43698 0.647203 0
M  V30 16498 C 1566.53 1.49301 1.43958 0
M  V30 16499 C 1566.96 0.11395 1.87755 0
M  V30 16500 O 1566.32 -0.893571 1.5775 0
M  V30 16501 C 1566.36 2.44905 2.64677 0
M  V30 16502 O 1565.47 1.93947 3.63948 0
M  V30 16503 H 1564.81 0.504771 0.431396 0
M  V30 16504 H 1567.34 1.88673 0.791432 0
M  V30 16505 H 1567.35 2.62409 3.12419 0
M  V30 16506 H 1566.02 3.45083 2.32143 0
M  V30 16507 H 1564.6 1.86133 3.23124 0
M  V30 16508 N 1566.79 -0.886131 1.30328 0
M  V30 16509 C 1568.02 -1.66857 1.2183 0
M  V30 16510 C 1568.42 -1.87899 -0.221474 0
M  V30 16511 O 1567.77 -1.42571 -1.15841 0
M  V30 16512 C 1567.83 -3.06732 1.87499 0
M  V30 16513 C 1567.49 -3.08865 3.36825 0
M  V30 16514 C 1568.49 -2.88008 4.32836 0
M  V30 16515 C 1566.18 -3.305 3.78253 0
M  V30 16516 C 1568.17 -2.8874 5.6825 0
M  V30 16517 C 1565.86 -3.30861 5.13784 0
M  V30 16518 C 1566.85 -3.10005 6.08593 0
M  V30 16519 O 1566.54 -3.10181 7.41649 0
M  V30 16520 H 1566.27 -0.527473 0.422786 0
M  V30 16521 H 1568.83 -1.11553 1.72468 0
M  V30 16522 H 1567.06 -3.63695 1.31389 0
M  V30 16523 H 1568.75 -3.67122 1.73136 0
M  V30 16524 H 1569.51 -2.71093 4.02161 0
M  V30 16525 H 1565.39 -3.45769 3.04902 0
M  V30 16526 H 1568.94 -2.7238 6.42227 0
M  V30 16527 H 1564.83 -3.47312 5.441 0
M  V30 16528 H 1565.6 -3.26354 7.50623 0
M  V30 16529 N 1568.26 -1.13026 -1.09832 0
M  V30 16530 C 1569.51 -0.884093 -1.81292 0
M  V30 16531 C 1569.83 0.591608 -1.86439 0
M  V30 16532 O 1571.03 0.954571 -2.54166 0
M  V30 16533 C 1569.49 -1.53207 -3.25662 0
M  V30 16534 C 1569.1 -3.043 -3.28794 0
M  V30 16535 C 1570.84 -1.36644 -4.01906 0
M  V30 16536 C 1568.75 -3.62003 -4.67662 0
M  V30 16537 H 1567.68 -0.327101 -0.679353 0
M  V30 16538 H 1570.33 -1.35748 -1.2347 0
M  V30 16539 H 1568.71 -0.986353 -3.83519 0
M  V30 16540 H 1569.88 -3.65418 -2.80725 0
M  V30 16541 H 1568.2 -3.20332 -2.66038 0
M  V30 16542 H 1570.8 -1.7717 -5.04495 0
M  V30 16543 H 1571.14 -0.310809 -4.15138 0
M  V30 16544 H 1571.67 -1.88172 -3.5048 0
M  V30 16545 H 1568.41 -4.67354 -4.59631 0
M  V30 16546 H 1567.93 -3.05663 -5.16072 0
M  V30 16547 H 1569.61 -3.61432 -5.36634 0
M  V30 16548 N 1569.74 1.27735 -0.923117 0
M  V30 16549 C 1570.99 1.9457 -0.561149 0
M  V30 16550 C 1571.32 1.72591 0.896805 0
M  V30 16551 O 1570.57 1.04546 1.65434 0
M  V30 16552 C 1570.87 3.47677 -0.827959 0
M  V30 16553 C 1570.54 3.8977 -2.26693 0
M  V30 16554 C 1569.2 4.00973 -2.66033 0
M  V30 16555 C 1571.55 4.11173 -3.20291 0
M  V30 16556 C 1568.88 4.30963 -3.98105 0
M  V30 16557 C 1571.23 4.42645 -4.51938 0
M  V30 16558 C 1569.9 4.52061 -4.91119 0
M  V30 16559 H 1569.17 0.711981 -0.205339 0
M  V30 16560 H 1571.81 1.51894 -1.16621 0
M  V30 16561 H 1570.12 3.91549 -0.140178 0
M  V30 16562 H 1571.81 3.97523 -0.526932 0
M  V30 16563 H 1568.4 3.81584 -1.95171 0
M  V30 16564 H 1572.59 4.01962 -2.91102 0
M  V30 16565 H 1567.84 4.36461 -4.28149 0
M  V30 16566 H 1572.02 4.58153 -5.2447 0
M  V30 16567 H 1569.65 4.75053 -5.93488 0
M  V30 16568 N 1571.22 0.688118 1.41784 0
M  V30 16569 C 1572.47 0.213085 2.00571 0
M  V30 16570 C 1572.78 -1.19176 1.55101 0
M  V30 16571 O 1573.99 -1.76387 2.06397 0
M  V30 16572 C 1572.44 0.330075 3.58383 0
M  V30 16573 C 1572.05 1.73981 4.12837 0
M  V30 16574 C 1573.8 -0.0855651 4.24414 0
M  V30 16575 C 1571.7 1.80886 5.63058 0
M  V30 16576 H 1570.63 0.075906 0.750169 0
M  V30 16577 H 1573.28 0.855236 1.62351 0
M  V30 16578 H 1571.67 -0.380199 3.94171 0
M  V30 16579 H 1572.84 2.47825 3.88484 0
M  V30 16580 H 1571.16 2.10447 3.59306 0
M  V30 16581 H 1573.75 -0.0543142 5.34672 0
M  V30 16582 H 1574.1 -1.12307 4.00865 0
M  V30 16583 H 1574.63 0.574169 3.93635 0
M  V30 16584 H 1571.37 2.82663 5.91424 0
M  V30 16585 H 1570.89 1.11417 5.89361 0
M  V30 16586 H 1572.57 1.56835 6.27704 0
M  V30 16587 N 1572.7 -1.51554 0.432352 0
M  V30 16588 C 1573.98 -1.94621 -0.195472 0
M  V30 16589 C 1574.36 -1.37072 -1.60544 0
M  V30 16590 O 1573.7 -0.555781 -2.21638 0
M  V30 16591 C 1573.91 -3.48544 -0.178267 0
M  V30 16592 C 1575.26 -4.22839 -0.386283 0
M  V30 16593 O 1576.29 -3.55275 -0.256604 0
M  V30 16594 O 1575.14 -5.42693 -0.643927 0
M  V30 16595 H 1572.24 -0.816291 -0.132656 0
M  V30 16596 H 1574.78 -1.62473 0.489972 0
M  V30 16597 H 1573.56 -3.82874 0.807658 0
M  V30 16598 H 1573.18 -3.87121 -0.906832 0
M  V30 16599 N 1574.18 -0.163538 -1.56749 0
M  V30 16600 C 1575.09 0.782461 -2.21167 0
M  V30 16601 C 1576.1 1.25911 -1.20093 0
M  V30 16602 O 1577.28 1.31286 -1.52728 0
M  V30 16603 C 1574.34 1.99761 -2.83366 0
M  V30 16604 C 1573.4 1.56859 -3.99617 0
M  V30 16605 C 1572.64 2.72582 -4.58841 0
M  V30 16606 O 1572.86 3.89243 -4.16949 0
M  V30 16607 O 1571.79 2.47104 -5.48838 0
M  V30 16608 H 1575.62 0.264023 -3.0255 0
M  V30 16609 H 1573.21 0.06429 -1.49262 0
M  V30 16610 H 1575.09 2.70843 -3.22835 0
M  V30 16611 H 1573.76 2.50526 -2.04984 0
M  V30 16612 H 1572.67 0.827511 -3.64833 0
M  V30 16613 H 1574 1.10794 -4.79568 0
M  V30 16614 N 1575.65 1.57214 0.110213 0
M  V30 16615 C 1576.62 2.00034 1.11888 0
M  V30 16616 C 1577.62 0.891697 1.33811 0
M  V30 16617 O 1578.81 1.15754 1.3018 0
M  V30 16618 C 1575.94 2.34806 2.47142 0
M  V30 16619 H 1577.13 2.90354 0.750647 0
M  V30 16620 H 1574.69 1.5222 0.35479 0
M  V30 16621 H 1575.42 1.47393 2.8887 0
M  V30 16622 H 1575.21 3.15671 2.32581 0
M  V30 16623 H 1576.7 2.68644 3.19719 0
M  V30 16624 N 1577.13 -0.380637 1.52934 0
M  V30 16625 C 1578.08 -1.46521 1.74687 0
M  V30 16626 C 1579.07 -1.49251 0.601087 0
M  V30 16627 O 1580.26 -1.54746 0.859224 0
M  V30 16628 C 1577.39 -2.84137 1.92668 0
M  V30 16629 C 1576.47 -2.85944 3.13204 0
M  V30 16630 N 1576.86 -2.57413 4.35399 0
M  V30 16631 C 1575.16 -3.1711 3.13619 0
M  V30 16632 C 1575.86 -2.66516 5.17053 0
M  V30 16633 N 1574.84 -3.00598 4.52926 0
M  V30 16634 H 1578.64 -1.23301 2.66785 0
M  V30 16635 H 1576.16 -0.588675 1.51355 0
M  V30 16636 H 1578.15 -3.62236 2.06376 0
M  V30 16637 H 1576.81 -3.08333 1.01789 0
M  V30 16638 H 1577.82 -2.31281 4.63389 0
M  V30 16639 H 1574.5 -3.46717 2.3258 0
M  V30 16640 H 1575.89 -2.47931 6.24484 0
M  V30 16641 N 1578.61 -1.44039 -0.639573 0
M  V30 16642 C 1579.86 -1.4566 -1.39521 0
M  V30 16643 C 1580.17 -0.0897878 -1.95394 0
M  V30 16644 O 1581.38 0.0165074 -2.71495 0
M  V30 16645 C 1579.83 -2.56395 -2.52566 0
M  V30 16646 C 1579.44 -3.99245 -2.03243 0
M  V30 16647 C 1581.19 -2.67226 -3.29834 0
M  V30 16648 C 1579.09 -5.01419 -3.1358 0
M  V30 16649 H 1578.02 -0.541894 -0.524277 0
M  V30 16650 H 1580.67 -1.70076 -0.688941 0
M  V30 16651 H 1579.06 -2.25204 -3.25729 0
M  V30 16652 H 1580.23 -4.39963 -1.37002 0
M  V30 16653 H 1578.55 -3.9258 -1.38816 0
M  V30 16654 H 1581.14 -3.40736 -4.12072 0
M  V30 16655 H 1581.49 -1.72756 -3.78763 0
M  V30 16656 H 1582.02 -2.97786 -2.63758 0
M  V30 16657 H 1578.76 -5.97489 -2.69605 0
M  V30 16658 H 1578.28 -4.65301 -3.7849 0
M  V30 16659 H 1579.96 -5.2474 -3.78493 0
M  V30 16660 N 1580.09 0.879207 -1.30796 0
M  V30 16661 C 1581.32 1.66449 -1.22891 0
M  V30 16662 C 1581.73 1.87658 0.207306 0
M  V30 16663 O 1581.09 1.42818 1.13619 0
M  V30 16664 C 1581.14 3.03765 -1.95982 0
M  V30 16665 O 1580.86 2.8351 -3.33997 0
M  V30 16666 C 1582.36 3.98204 -1.94804 0
M  V30 16667 H 1579.58 0.51922 -0.425031 0
M  V30 16668 H 1582.13 1.09807 -1.72519 0
M  V30 16669 H 1580.28 3.57124 -1.50138 0
M  V30 16670 H 1580.69 3.70663 -3.71092 0
M  V30 16671 H 1582.17 4.91901 -2.50474 0
M  V30 16672 H 1582.65 4.29277 -0.928336 0
M  V30 16673 H 1583.25 3.50781 -2.40485 0
M  V30 16674 N 1581.57 1.13606 1.09231 0
M  V30 16675 C 1582.5 0.77306 2.15769 0
M  V30 16676 C 1583.51 -0.206148 1.6149 0
M  V30 16677 O 1584.7 0.014338 1.78494 0
M  V30 16678 C 1581.8 0.125475 3.38668 0
M  V30 16679 C 1580.97 1.13728 4.22356 0
M  V30 16680 C 1580.03 0.515021 5.23674 0
M  V30 16681 O 1579.06 1.1756 5.56928 0
M  V30 16682 N 1580.26 -0.712028 5.76117 0
M  V30 16683 H 1583.03 1.68984 2.47517 0
M  V30 16684 H 1580.59 1.02935 1.24964 0
M  V30 16685 H 1582.58 -0.303109 4.03563 0
M  V30 16686 H 1581.15 -0.694284 3.04792 0
M  V30 16687 H 1580.37 1.74309 3.53568 0
M  V30 16688 H 1581.66 1.82106 4.75094 0
M  V30 16689 H 1581.06 -1.26745 5.51319 0
M  V30 16690 H 1579.61 -1.08324 6.42736 0
M  V30 16691 N 1583.05 -1.27244 0.929878 0
M  V30 16692 C 1584.27 -1.98912 0.587277 0
M  V30 16693 C 1584.7 -1.68888 -0.828168 0
M  V30 16694 O 1584.05 -0.930394 -1.55606 0
M  V30 16695 C 1584.1 -3.51097 0.822399 0
M  V30 16696 O 1583.21 -4.12251 -0.110968 0
M  V30 16697 H 1582.55 -0.624404 0.225867 0
M  V30 16698 H 1585.08 -1.61997 1.24973 0
M  V30 16699 H 1585.09 -4.01255 0.738824 0
M  V30 16700 H 1583.76 -3.72282 1.85416 0
M  V30 16701 H 1582.34 -3.72893 0.0227053 0
M  V30 16702 N 1584.52 -0.695628 -1.41417 0
M  V30 16703 C 1585.45 -0.0447013 -2.33457 0
M  V30 16704 C 1586.43 0.767104 -1.51821 0
M  V30 16705 O 1587.62 0.720066 -1.80357 0
M  V30 16706 C 1584.75 0.892353 -3.3564 0
M  V30 16707 C 1583.7 0.187638 -4.27588 0
M  V30 16708 C 1583.03 1.23906 -5.20146 0
M  V30 16709 C 1584.33 -0.946093 -5.1366 0
M  V30 16710 H 1586.02 -0.81343 -2.88138 0
M  V30 16711 H 1583.57 -0.392614 -1.38544 0
M  V30 16712 H 1585.52 1.35696 -3.98954 0
M  V30 16713 H 1584.25 1.69275 -2.79309 0
M  V30 16714 H 1582.91 -0.256942 -3.65698 0
M  V30 16715 H 1582.55 2.03198 -4.6013 0
M  V30 16716 H 1582.25 0.772536 -5.82499 0
M  V30 16717 H 1583.78 1.70417 -5.86336 0
M  V30 16718 H 1585.19 -0.561764 -5.70541 0
M  V30 16719 H 1583.59 -1.33971 -5.84954 0
M  V30 16720 H 1584.66 -1.78573 -4.50821 0
M  V30 16721 N 1586 1.51322 -0.440383 0
M  V30 16722 C 1587.23 2.0653 0.123649 0
M  V30 16723 C 1587.64 1.30751 1.36197 0
M  V30 16724 O 1587 0.367932 1.78753 0
M  V30 16725 C 1587.05 3.58778 0.442802 0
M  V30 16726 O 1586.77 4.31695 -0.746375 0
M  V30 16727 C 1588.27 4.3051 1.05717 0
M  V30 16728 H 1585.49 0.670968 0.00657466 0
M  V30 16729 H 1588.04 1.94864 -0.620341 0
M  V30 16730 H 1586.19 3.70349 1.13669 0
M  V30 16731 H 1586.61 5.22368 -0.472466 0
M  V30 16732 H 1588.08 5.38111 1.23046 0
M  V30 16733 H 1588.56 3.88999 2.03903 0
M  V30 16734 H 1589.16 4.2339 0.402574 0
M  V30 16735 N 1587.48 0.171848 1.5666 0
M  V30 16736 C 1588.73 -0.467156 1.97963 0
M  V30 16737 C 1589.08 -1.60824 1.05609 0
M  V30 16738 O 1588.37 -1.9136 0.0958638 0
M  V30 16739 C 1588.57 -0.99711 3.43209 0
M  V30 16740 C 1588.4 0.0910934 4.49608 0
M  V30 16741 C 1587.17 0.540935 5.02396 0
M  V30 16742 C 1589.36 0.891679 5.06511 0
M  V30 16743 N 1587.35 1.60939 5.92429 0
M  V30 16744 C 1588.72 1.81005 5.9299 0
M  V30 16745 C 1590.77 0.9367 4.8901 0
M  V30 16746 C 1589.48 2.76964 6.6384 0
M  V30 16747 C 1591.5 1.88423 5.60581 0
M  V30 16748 C 1590.86 2.79008 6.46787 0
M  V30 16749 H 1586.96 -0.139033 0.769541 0
M  V30 16750 H 1589.55 0.272188 1.92788 0
M  V30 16751 H 1587.72 -1.70597 3.48929 0
M  V30 16752 H 1589.45 -1.60479 3.71522 0
M  V30 16753 H 1586.2 0.138545 4.73397 0
M  V30 16754 H 1586.63 2.14412 6.4215 0
M  V30 16755 H 1591.27 0.250396 4.22058 0
M  V30 16756 H 1588.99 3.46582 7.30005 0
M  V30 16757 H 1592.57 1.92518 5.49025 0
M  V30 16758 H 1591.45 3.51133 7.01196 0
M  V30 16759 N 1588.96 -1.5727 -0.101874 0
M  V30 16760 C 1589.89 -2.04614 -1.12496 0
M  V30 16761 C 1590.87 -0.933768 -1.42179 0
M  V30 16762 O 1592.05 -1.2046 -1.52325 0
M  V30 16763 C 1589.18 -2.46488 -2.44665 0
M  V30 16764 C 1588.14 -3.61327 -2.29406 0
M  V30 16765 C 1587.46 -3.89155 -3.66691 0
M  V30 16766 C 1588.76 -4.92455 -1.74026 0
M  V30 16767 H 1590.46 -2.90336 -0.731109 0
M  V30 16768 H 1588 -1.39676 -0.350239 0
M  V30 16769 H 1589.96 -2.78216 -3.16502 0
M  V30 16770 H 1588.68 -1.57757 -2.85972 0
M  V30 16771 H 1587.34 -3.29835 -1.60015 0
M  V30 16772 H 1586.99 -2.97603 -4.05514 0
M  V30 16773 H 1586.69 -4.66465 -3.57329 0
M  V30 16774 H 1588.21 -4.23352 -4.40006 0
M  V30 16775 H 1589.63 -5.22609 -2.35697 0
M  V30 16776 H 1588.02 -5.73882 -1.75441 0
M  V30 16777 H 1589.09 -4.79833 -0.699136 0
M  V30 16778 N 1590.44 0.372521 -1.53134 0
M  V30 16779 C 1591.66 1.14116 -1.73183 0
M  V30 16780 C 1592.09 1.82475 -0.456553 0
M  V30 16781 O 1591.44 1.71468 0.588919 0
M  V30 16782 C 1591.49 2.15241 -2.89316 0
M  V30 16783 O 1590.6 3.22178 -2.57439 0
M  V30 16784 H 1589.94 0.331442 -0.575362 0
M  V30 16785 H 1592.47 0.431769 -1.99992 0
M  V30 16786 H 1592.48 2.58961 -3.15283 0
M  V30 16787 H 1591.15 1.64877 -3.81822 0
M  V30 16788 H 1589.73 2.83481 -2.42267 0
M  V30 16789 N 1591.91 1.44376 0.631925 0
M  V30 16790 C 1592.85 1.47167 1.75711 0
M  V30 16791 C 1593.86 0.365158 1.58652 0
M  V30 16792 O 1595.05 0.630852 1.66981 0
M  V30 16793 C 1592.15 1.28916 3.13423 0
M  V30 16794 C 1591.32 2.52798 3.56948 0
M  V30 16795 C 1590.38 2.29458 4.73535 0
M  V30 16796 O 1589.41 3.02941 4.81887 0
M  V30 16797 N 1590.61 1.32467 5.65184 0
M  V30 16798 H 1593.37 2.44168 1.73788 0
M  V30 16799 H 1590.93 1.39805 0.816465 0
M  V30 16800 H 1592.93 1.1115 3.89137 0
M  V30 16801 H 1591.5 0.402828 3.09994 0
M  V30 16802 H 1590.72 2.85846 2.71451 0
M  V30 16803 H 1592 3.35198 3.82779 0
M  V30 16804 H 1591.4 0.717762 5.61128 0
M  V30 16805 H 1589.96 1.2068 6.40531 0
M  V30 16806 N 1593.39 -0.872258 1.31261 0
M  V30 16807 C 1594.32 -1.98231 1.13047 0
M  V30 16808 C 1595.3 -1.62563 0.0345979 0
M  V30 16809 O 1596.49 -1.87534 0.190586 0
M  V30 16810 C 1593.61 -3.30809 0.726841 0
M  V30 16811 C 1592.66 -3.85461 1.82542 0
M  V30 16812 S 1593.49 -4.11197 3.43041 0
M  V30 16813 C 1594.65 -5.46776 3.0461 0
M  V30 16814 H 1594.88 -2.13377 2.07021 0
M  V30 16815 H 1592.41 -1.02217 1.1572 0
M  V30 16816 H 1594.37 -4.07435 0.500707 0
M  V30 16817 H 1593.03 -3.13502 -0.193741 0
M  V30 16818 H 1592.23 -4.81299 1.49558 0
M  V30 16819 H 1591.83 -3.1562 2.0065 0
M  V30 16820 H 1594.12 -6.28343 2.53361 0
M  V30 16821 H 1595.06 -5.84708 3.99402 0
M  V30 16822 H 1595.47 -5.09941 2.42116 0
M  V30 16823 N 1594.87 -1.14184 -1.08627 0
M  V30 16824 C 1595.8 -0.784492 -2.15356 0
M  V30 16825 C 1596.81 0.197581 -1.61597 0
M  V30 16826 O 1598 -0.0238037 -1.78484 0
M  V30 16827 C 1595.1 -0.143433 -3.38596 0
M  V30 16828 C 1594.28 -1.15967 -4.21747 0
M  V30 16829 C 1593.34 -0.542786 -5.23393 0
M  V30 16830 O 1592.36 -1.20512 -5.56296 0
M  V30 16831 N 1593.56 0.681466 -5.76486 0
M  V30 16832 H 1596.33 -1.70294 -2.46617 0
M  V30 16833 H 1593.89 -1.03596 -1.24417 0
M  V30 16834 H 1595.88 0.281703 -4.03718 0
M  V30 16835 H 1594.45 0.67811 -3.05156 0
M  V30 16836 H 1593.67 -1.76182 -3.52638 0
M  V30 16837 H 1594.96 -1.84623 -4.74122 0
M  V30 16838 H 1594.36 1.23819 -5.51983 0
M  V30 16839 H 1592.91 1.04914 -6.43301 0
M  V30 16840 N 1596.35 1.26749 -0.936613 0
M  V30 16841 C 1597.3 2.26542 -0.441307 0
M  V30 16842 C 1598.27 1.58503 0.496581 0
M  V30 16843 O 1599.45 1.86259 0.41379 0
M  V30 16844 C 1596.59 3.43866 0.291633 0
M  V30 16845 C 1595.7 4.26592 -0.681397 0
M  V30 16846 C 1594.84 5.31151 0.0722826 0
M  V30 16847 C 1593.88 6.05553 -0.892869 0
M  V30 16848 N 1593.01 7.01891 -0.17124 0
M  V30 16849 H 1597.85 2.68282 -1.29725 0
M  V30 16850 H 1595.39 1.31914 -0.650928 0
M  V30 16851 H 1597.35 4.10711 0.732984 0
M  V30 16852 H 1595.98 3.03051 1.11175 0
M  V30 16853 H 1595.03 3.59579 -1.24126 0
M  V30 16854 H 1596.34 4.78201 -1.41864 0
M  V30 16855 H 1595.5 6.03987 0.57313 0
M  V30 16856 H 1594.24 4.80369 0.842439 0
M  V30 16857 H 1593.24 5.31548 -1.40488 0
M  V30 16858 H 1594.47 6.58424 -1.66296 0
M  V30 16859 H 1592.41 6.53426 0.580507 0
M  V30 16860 H 1592.33 7.5123 -0.847897 0
M  V30 16861 H 1593.6 7.78889 0.308662 0
M  V30 16862 N 1597.83 0.703118 1.41046 0
M  V30 16863 C 1599.1 0.164985 1.94903 0
M  V30 16864 C 1599.48 -1.32665 1.64205 0
M  V30 16865 O 1598.83 -2.07675 0.953058 0
M  V30 16866 C 1599.04 0.464354 3.45897 0
M  V30 16867 C 1600.39 0.396205 4.22747 0
M  V30 16868 O 1601.41 0.399698 3.5395 0
M  V30 16869 O 1600.27 0.362874 5.45294 0
M  V30 16870 H 1597.37 0.0193901 0.826773 0
M  V30 16871 H 1599.91 0.779796 1.50722 0
M  V30 16872 H 1598.68 1.49653 3.61552 0
M  V30 16873 H 1598.31 -0.18105 3.97188 0
M  V30 16874 N 1599.3 -1.51086 0.448402 0
M  V30 16875 C 1600.25 -2.29611 -0.371711 0
M  V30 16876 C 1601.25 -1.35926 -1.01096 0
M  V30 16877 O 1602.45 -1.53219 -0.944663 0
M  V30 16878 H 1598.83 -0.739099 -0.138694 0
M  V30 16879 H 1600.8 -2.96772 0.311275 0
M  V30 16880 C 1599.55 -3.1583 -1.45418 0
M  V30 16881 H 1598.87 -3.87813 -0.971661 0
M  V30 16882 H 1600.31 -3.7381 -2.00105 0
M  V30 16883 C 1598.77 -2.31927 -2.44359 0
M  V30 16884 O 1599.3 -1.98655 -3.4914 0
M  V30 16885 N 1597.51 -1.94938 -2.15517 0
M  V30 16886 H 1597.05 -2.22195 -1.30335 0
M  V30 16887 H 1597.01 -1.39098 -2.81956 0
M  V30 16888 N 1600.78 -0.180154 -1.56567 0
M  V30 16889 C 1602.03 0.461606 -1.96758 0
M  V30 16890 C 1602.35 1.63179 -1.0676 0
M  V30 16891 O 1601.62 1.95429 -0.135762 0
M  V30 16892 H 1600.2 0.173526 -0.726566 0
M  V30 16893 H 1602.86 -0.2634 -1.93112 0
M  V30 16894 H 1601.96 0.815729 -3.01251 0
M  V30 16895 N 1602.26 1.57322 0.0935319 0
M  V30 16896 C 1603.5 1.87995 0.802335 0
M  V30 16897 C 1603.86 0.771337 1.75825 0
M  V30 16898 O 1605.07 0.960519 2.51053 0
M  V30 16899 C 1603.34 3.23907 1.5106 0
M  V30 16900 S 1604.9 3.76276 2.25747 0
M  V30 16901 H 1601.71 0.658851 0.267275 0
M  V30 16902 H 1604.32 1.9541 0.0593887 0
M  V30 16903 H 1603.02 4.02512 0.800784 0
M  V30 16904 H 1602.55 3.19634 2.29341 0
M  V30 16905 H 1604.57 3.49818 3.51912 0
M  V30 16906 N 1603.74 -0.364395 1.53329 0
M  V30 16907 C 1604.99 -1.10691 1.69569 0
M  V30 16908 C 1605.31 -1.89268 0.448093 0
M  V30 16909 O 1604.57 -1.87216 -0.56997 0
M  V30 16910 C 1604.87 -2.09208 2.8977 0
M  V30 16911 C 1604.53 -1.47103 4.26229 0
M  V30 16912 C 1603.2 -1.29893 4.63337 0
M  V30 16913 C 1605.55 -1.0218 5.11086 0
M  V30 16914 C 1602.88 -0.663463 5.82937 0
M  V30 16915 C 1605.23 -0.400334 6.31332 0
M  V30 16916 C 1603.89 -0.21574 6.67151 0
M  V30 16917 H 1603.16 -0.405048 0.620498 0
M  V30 16918 H 1605.81 -0.388568 1.87516 0
M  V30 16919 H 1604.11 -2.8735 2.6634 0
M  V30 16920 H 1605.81 -2.66615 2.99529 0
M  V30 16921 H 1602.4 -1.61491 3.97012 0
M  V30 16922 H 1606.58 -1.14269 4.82966 0
M  V30 16923 H 1601.84 -0.508867 6.09279 0
M  V30 16924 H 1606.01 -0.0440554 6.96386 0
M  V30 16925 H 1603.64 0.278732 7.59689 0
M  V30 16926 N 1605.22 -1.44709 -0.62426 0
M  V30 16927 C 1606.63 -1.28747 -0.9432 0
M  V30 16928 C 1606.83 -0.228265 -2.00203 0
M  V30 16929 O 1605.89 0.383506 -2.49571 0
M  V30 16930 C 1607.2 -2.66124 -1.39995 0
M  V30 16931 C 1608.75 -2.73889 -1.51506 0
M  V30 16932 C 1609.22 -4.11751 -2.00562 0
M  V30 16933 N 1610.72 -4.13962 -2.07821 0
M  V30 16934 C 1611.45 -5.1749 -2.46964 0
M  V30 16935 N 1610.95 -6.31376 -2.85195 0
M  V30 16936 N 1612.74 -5.04846 -2.47158 0
M  V30 16937 H 1604.89 -2.12264 0.0758746 0
M  V30 16938 H 1607.15 -0.947566 -0.0286915 0
M  V30 16939 H 1606.86 -3.4474 -0.696203 0
M  V30 16940 H 1606.73 -2.93474 -2.36967 0
M  V30 16941 H 1609.12 -1.95587 -2.20975 0
M  V30 16942 H 1609.2 -2.50272 -0.528911 0
M  V30 16943 H 1608.85 -4.90532 -1.31685 0
M  V30 16944 H 1608.78 -4.32749 -3.0006 0
M  V30 16945 H 1611.27 -3.31771 -1.80933 0
M  V30 16946 H 1611.58 -7.06179 -3.13896 0
M  V30 16947 H 1609.92 -6.34804 -2.8293 0
M  V30 16948 H 1613.12 -4.14927 -2.16686 0
M  V30 16949 H 1613.29 -5.85651 -2.77339 0
M  V30 16950 N 1606.69 0.865285 -1.31722 0
M  V30 16951 C 1607.92 1.65661 -1.24785 0
M  V30 16952 C 1608.34 1.87208 0.182952 0
M  V30 16953 O 1607.7 1.41721 1.1307 0
M  V30 16954 C 1607.75 2.99921 -2.00199 0
M  V30 16955 O 1606.85 3.89936 -1.34253 0
M  V30 16956 H 1606.2 0.505459 -0.430589 0
M  V30 16957 H 1608.73 1.0785 -1.73867 0
M  V30 16958 H 1608.74 3.49823 -2.09971 0
M  V30 16959 H 1607.41 2.83559 -3.04249 0
M  V30 16960 H 1605.99 3.4839 -1.32961 0
M  V30 16961 N 1608.17 1.14759 1.0802 0
M  V30 16962 C 1609.4 0.942316 1.84757 0
M  V30 16963 C 1609.82 -0.504188 1.81217 0
M  V30 16964 O 1609.18 -1.35891 1.20014 0
M  V30 16965 C 1609.23 1.45271 3.30043 0
M  V30 16966 O 1608.33 0.647414 4.07287 0
M  V30 16967 H 1607.67 0.336613 0.572353 0
M  V30 16968 H 1610.2 1.52578 1.36313 0
M  V30 16969 H 1610.21 1.4626 3.80883 0
M  V30 16970 H 1608.89 2.50583 3.31935 0
M  V30 16971 H 1607.47 0.706595 3.66144 0
M  V30 16972 N 1609.65 -1.26251 0.943322 0
M  V30 16973 C 1610.9 -1.9327 0.590863 0
M  V30 16974 C 1611.22 -1.74356 -0.873212 0
M  V30 16975 O 1610.49 -1.10046 -1.6207 0
M  V30 16976 H 1609.07 -0.71523 0.215535 0
M  V30 16977 H 1611.73 -1.53647 1.19911 0
M  V30 16978 H 1610.83 -3.01393 0.810475 0
M  V30 16979 N 1611.13 -0.710588 -1.40671 0
M  V30 16980 C 1612.35 -0.256007 -2.05814 0
M  V30 16981 C 1612.78 1.09178 -1.53173 0
M  V30 16982 O 1612.14 1.68665 -0.664977 0
M  V30 16983 C 1612.19 -0.240528 -3.59797 0
M  V30 16984 O 1611.29 0.779859 -4.04959 0
M  V30 16985 H 1610.63 -0.121326 -0.652822 0
M  V30 16986 H 1613.16 -0.969667 -1.80163 0
M  V30 16987 H 1613.17 -0.0765027 -4.07928 0
M  V30 16988 H 1611.85 -1.22411 -3.97478 0
M  V30 16989 H 1610.42 0.583965 -3.68299 0
M  V30 16990 N 1612.61 1.50847 -0.456408 0
M  V30 16991 C 1613.54 2.31077 0.335523 0
M  V30 16992 C 1614.52 1.37326 1.00377 0
M  V30 16993 O 1615.7 1.66247 1.00376 0
M  V30 16994 C 1612.83 3.16662 1.42627 0
M  V30 16995 C 1611.79 4.18846 0.88045 0
M  V30 16996 C 1611.11 4.93074 2.06838 0
M  V30 16997 C 1612.41 5.22208 -0.0982288 0
M  V30 16998 H 1614.11 2.97531 -0.334056 0
M  V30 16999 H 1611.65 1.43085 -0.162099 0
M  V30 17000 H 1613.61 3.71578 1.98765 0
M  V30 17001 H 1612.33 2.48066 2.12441 0
M  V30 17002 H 1610.99 3.65009 0.341147 0
M  V30 17003 H 1610.64 4.20963 2.75316 0
M  V30 17004 H 1610.34 5.62184 1.70947 0
M  V30 17005 H 1611.86 5.5082 2.63494 0
M  V30 17006 H 1613.28 5.72082 0.373481 0
M  V30 17007 H 1611.67 5.98954 -0.370674 0
M  V30 17008 H 1612.74 4.73859 -1.02887 0
M  V30 17009 N 1614.09 0.188454 1.56469 0
M  V30 17010 C 1615.02 -0.730379 2.21783 0
M  V30 17011 C 1616 -1.22629 1.17882 0
M  V30 17012 O 1617.18 -1.27634 1.46367 0
M  V30 17013 C 1614.31 -1.95278 2.872 0
M  V30 17014 C 1613.27 -1.59205 3.97288 0
M  V30 17015 C 1612.59 -2.89052 4.49836 0
M  V30 17016 C 1613.89 -0.807027 5.16027 0
M  V30 17017 H 1615.59 -0.185914 2.98822 0
M  V30 17018 H 1613.13 -0.0879804 1.43731 0
M  V30 17019 H 1615.08 -2.60074 3.31571 0
M  V30 17020 H 1613.81 -2.52167 2.07556 0
M  V30 17021 H 1612.47 -0.967713 3.53597 0
M  V30 17022 H 1612.12 -3.44017 3.66963 0
M  V30 17023 H 1611.82 -2.65663 5.24115 0
M  V30 17024 H 1613.34 -3.54847 4.96906 0
M  V30 17025 H 1614.75 -1.35794 5.56986 0
M  V30 17026 H 1613.15 -0.671516 5.96331 0
M  V30 17027 H 1614.22 0.193251 4.84515 0
M  V30 17028 N 1615.56 -1.5737 -0.0851874 0
M  V30 17029 C 1616.51 -2.03781 -1.12142 0
M  V30 17030 C 1617.51 -0.940669 -1.40882 0
M  V30 17031 O 1618.71 -1.12582 -1.40447 0
M  V30 17032 H 1615.09 -0.64956 -0.378914 0
M  V30 17033 H 1617.06 -2.89983 -0.703736 0
M  V30 17034 C 1615.81 -2.48628 -2.43062 0
M  V30 17035 H 1615.13 -3.32637 -2.21795 0
M  V30 17036 H 1616.57 -2.84869 -3.14048 0
M  V30 17037 C 1615.03 -1.36364 -3.08069 0
M  V30 17038 O 1615.56 -0.698273 -3.95584 0
M  V30 17039 N 1613.76 -1.11213 -2.68477 0
M  V30 17040 H 1613.31 -1.655 -1.97402 0
M  V30 17041 H 1613.27 -0.363003 -3.12297 0
M  V30 17042 N 1617.04 0.356258 -1.53521 0
M  V30 17043 C 1617.99 1.45718 -1.81298 0
M  V30 17044 C 1618.98 1.55036 -0.682652 0
M  V30 17045 O 1620.19 1.57812 -0.865766 0
M  V30 17046 H 1616.56 0.485614 -0.57418 0
M  V30 17047 H 1618.54 1.19498 -2.73428 0
M  V30 17048 C 1617.28 2.82424 -2.0281 0
M  V30 17049 H 1616.61 2.76016 -2.89232 0
M  V30 17050 H 1618.05 3.5861 -2.26218 0
M  V30 17051 C 1616.51 3.2702 -0.809893 0
M  V30 17052 O 1617.04 4.017 -0.00310668 0
M  V30 17053 N 1615.24 2.83673 -0.630696 0
M  V30 17054 H 1614.79 2.23066 -1.28839 0
M  V30 17055 H 1614.75 3.13867 0.182961 0
M  V30 17056 N 1618.52 1.45038 0.616577 0
M  V30 17057 C 1619.48 1.52647 1.70973 0
M  V30 17058 C 1620.48 0.406902 1.55567 0
M  V30 17059 O 1621.67 0.670062 1.60797 0
M  V30 17060 C 1618.8 1.41438 3.10174 0
M  V30 17061 H 1620 2.50036 1.65596 0
M  V30 17062 H 1617.55 1.32346 0.831524 0
M  V30 17063 H 1618.29 0.451991 3.21135 0
M  V30 17064 H 1618.07 2.22634 3.22764 0
M  V30 17065 H 1619.56 1.49776 3.89817 0
M  V30 17066 N 1620 -0.858287 1.32179 0
M  V30 17067 C 1621.25 -1.60706 1.21887 0
M  V30 17068 C 1621.56 -1.94372 -0.218836 0
M  V30 17069 O 1622.77 -2.67852 -0.443572 0
M  V30 17070 C 1621.22 -2.8977 2.13452 0
M  V30 17071 C 1620.83 -2.63542 3.62284 0
M  V30 17072 C 1622.57 -3.67779 2.11988 0
M  V30 17073 C 1620.48 -3.88584 4.45821 0
M  V30 17074 H 1619.41 -0.603026 0.452632 0
M  V30 17075 H 1622.06 -0.948016 1.57114 0
M  V30 17076 H 1620.44 -3.57112 1.71135 0
M  V30 17077 H 1621.62 -2.04534 4.12919 0
M  V30 17078 H 1619.93 -1.98869 3.65842 0
M  V30 17079 H 1622.53 -4.60561 2.71639 0
M  V30 17080 H 1622.87 -4.0123 1.10995 0
M  V30 17081 H 1623.41 -3.07336 2.52565 0
M  V30 17082 H 1620.14 -3.60276 5.47614 0
M  V30 17083 H 1619.66 -4.47001 3.99937 0
M  V30 17084 H 1621.34 -4.56358 4.58635 0
M  V30 17085 N 1621.48 -1.1533 -1.07409 0
M  V30 17086 C 1622.42 -0.849527 -2.14597 0
M  V30 17087 C 1623.39 0.197288 -1.64924 0
M  V30 17088 O 1624.58 0.0649694 -1.90689 0
M  V30 17089 C 1621.72 -0.344327 -3.43378 0
M  V30 17090 C 1620.83 -1.45264 -4.06844 0
M  V30 17091 C 1619.97 -0.90363 -5.23458 0
M  V30 17092 C 1619 -1.98892 -5.78885 0
M  V30 17093 N 1618.14 -1.45633 -6.8683 0
M  V30 17094 H 1622.98 -1.76753 -2.39922 0
M  V30 17095 H 1620.52 -0.881942 -1.17729 0
M  V30 17096 H 1622.48 -0.0331352 -4.17187 0
M  V30 17097 H 1621.11 0.536757 -3.18306 0
M  V30 17098 H 1620.16 -1.88003 -3.30695 0
M  V30 17099 H 1621.47 -2.27207 -4.44048 0
M  V30 17100 H 1620.62 -0.544945 -6.04248 0
M  V30 17101 H 1619.36 -0.0533648 -4.87671 0
M  V30 17102 H 1618.37 -2.35644 -4.96741 0
M  V30 17103 H 1619.59 -2.84295 -6.16728 0
M  V30 17104 H 1617.54 -0.628417 -6.52983 0
M  V30 17105 H 1617.46 -2.21204 -7.22914 0
M  V30 17106 H 1618.72 -1.12587 -7.71326 0
M  V30 17107 N 1622.95 1.25748 -0.950004 0
M  V30 17108 C 1624.2 1.92954 -0.601104 0
M  V30 17109 C 1624.52 1.74817 0.863953 0
M  V30 17110 O 1623.79 1.10904 1.61484 0
M  V30 17111 H 1622.37 0.714077 -0.219325 0
M  V30 17112 H 1625.03 1.53009 -1.20724 0
M  V30 17113 H 1624.13 3.00959 -0.826447 0
M  V30 17114 N 1624.43 0.718038 1.40292 0
M  V30 17115 C 1625.68 0.258092 2.00445 0
M  V30 17116 C 1626 -1.15347 1.57226 0
M  V30 17117 O 1625.27 -1.78241 0.812822 0
M  V30 17118 H 1623.85 0.0924316 0.741259 0
M  V30 17119 H 1626.51 0.924216 1.71593 0
M  V30 17120 H 1625.61 0.293113 3.10721 0
M  V30 17121 N 1625.91 -1.50602 0.464402 0
M  V30 17122 C 1627.16 -2.02587 -0.0930295 0
M  V30 17123 C 1627.49 -1.34618 -1.3997 0
M  V30 17124 O 1626.76 -0.469711 -1.88743 0
M  V30 17125 C 1627.05 -3.5898 -0.283783 0
M  V30 17126 C 1626.9 -4.3753 1.04344 0
M  V30 17127 C 1628.22 -4.27602 -1.04138 0
M  V30 17128 H 1625.34 -0.73629 -0.0323356 0
M  V30 17129 H 1627.98 -1.79986 0.608687 0
M  V30 17130 H 1626.13 -3.78368 -0.881488 0
M  V30 17131 H 1627.8 -4.29729 1.67721 0
M  V30 17132 H 1626.05 -4.01536 1.64168 0
M  V30 17133 H 1626.72 -5.45201 0.863691 0
M  V30 17134 H 1629.19 -4.12649 -0.534822 0
M  V30 17135 H 1628.07 -5.36854 -1.14364 0
M  V30 17136 H 1628.33 -3.9031 -2.0763 0
M  V30 17137 N 1627.39 -0.19675 -1.56367 0
M  V30 17138 C 1628.3 0.735372 -2.22777 0
M  V30 17139 C 1629.31 1.23336 -1.22737 0
M  V30 17140 O 1630.49 1.28017 -1.55479 0
M  V30 17141 C 1627.56 1.93706 -2.8754 0
M  V30 17142 C 1626.62 1.48348 -4.02854 0
M  V30 17143 C 1625.85 2.62788 -4.64519 0
M  V30 17144 O 1626.07 3.80311 -4.25111 0
M  V30 17145 O 1625.01 2.35406 -5.53956 0
M  V30 17146 H 1628.83 0.199788 -3.03042 0
M  V30 17147 H 1626.42 0.0326149 -1.49364 0
M  V30 17148 H 1628.3 2.63934 -3.28507 0
M  V30 17149 H 1626.97 2.46121 -2.10252 0
M  V30 17150 H 1625.88 0.749939 -3.66506 0
M  V30 17151 H 1627.21 1.00597 -4.8181 0
M  V30 17152 N 1628.87 1.57413 0.0768405 0
M  V30 17153 C 1630.14 1.78056 0.809663 0
M  V30 17154 C 1630.52 0.783053 1.9604 0
M  V30 17155 O 1629.87 -0.184836 2.27751 0
M  V30 17156 C 1630.08 3.24391 1.2873 0
M  V30 17157 C 1631.43 3.88082 1.72272 0
M  V30 17158 O 1632.45 3.28251 1.38309 0
M  V30 17159 O 1631.31 4.93329 2.35135 0
M  V30 17160 H 1628.41 0.730553 0.387584 0
M  V30 17161 H 1630.95 1.69603 0.057307 0
M  V30 17162 H 1629.72 3.88543 0.463678 0
M  V30 17163 H 1629.35 3.37548 2.10112 0
M  V30 17164 N 1630.34 -0.348112 1.53707 0
M  V30 17165 C 1631.25 -1.45079 1.84361 0
M  V30 17166 C 1632.27 -1.5779 0.733375 0
M  V30 17167 O 1633.45 -1.73353 1.02522 0
M  V30 17168 C 1630.51 -2.80127 2.04278 0
M  V30 17169 C 1629.57 -2.76799 3.28148 0
M  V30 17170 C 1628.81 -4.05406 3.47105 0
M  V30 17171 O 1629.03 -5.02454 2.69992 0
M  V30 17172 O 1627.96 -4.10155 4.40519 0
M  V30 17173 H 1631.79 -1.22093 2.78077 0
M  V30 17174 H 1629.37 -0.539863 1.39305 0
M  V30 17175 H 1631.26 -3.60115 2.18849 0
M  V30 17176 H 1629.93 -3.03055 1.13751 0
M  V30 17177 H 1628.84 -1.95448 3.18984 0
M  V30 17178 H 1630.17 -2.58826 4.18653 0
M  V30 17179 N 1631.82 -1.45363 -0.608876 0
M  V30 17180 C 1632.79 -1.53551 -1.70161 0
M  V30 17181 C 1633.79 -0.415146 -1.55349 0
M  V30 17182 O 1634.98 -0.67858 -1.6044 0
M  V30 17183 C 1632.11 -1.43081 -3.0942 0
M  V30 17184 H 1633.3 -2.5091 -1.64268 0
M  V30 17185 H 1630.85 -1.32785 -0.824493 0
M  V30 17186 H 1631.59 -0.469016 -3.20891 0
M  V30 17187 H 1631.37 -2.24343 -3.21579 0
M  V30 17188 H 1632.86 -1.51841 -3.89017 0
M  V30 17189 N 1633.3 0.851265 -1.32632 0
M  V30 17190 C 1634.53 1.63805 -1.26394 0
M  V30 17191 C 1634.94 1.88056 0.167454 0
M  V30 17192 O 1634.3 1.45196 1.10564 0
M  V30 17193 C 1634.35 2.9954 -2.02381 0
M  V30 17194 O 1634.07 2.76361 -3.39935 0
M  V30 17195 C 1635.57 3.93982 -2.03207 0
M  V30 17196 H 1632.79 0.510088 -0.435948 0
M  V30 17197 H 1635.34 1.06123 -1.74809 0
M  V30 17198 H 1633.49 3.53859 -1.5768 0
M  V30 17199 H 1633.91 3.62708 -3.78871 0
M  V30 17200 H 1635.38 4.86478 -2.60851 0
M  V30 17201 H 1635.86 4.27211 -1.01918 0
M  V30 17202 H 1636.46 3.45601 -2.47871 0
M  V30 17203 N 1634.78 1.15898 1.06796 0
M  V30 17204 C 1635.71 0.88395 2.16122 0
M  V30 17205 C 1636.69 -0.167708 1.69271 0
M  V30 17206 O 1637.87 -0.0208846 1.94189 0
M  V30 17207 C 1635 0.378656 3.4523 0
M  V30 17208 C 1633.96 1.36764 4.05561 0
M  V30 17209 C 1633.28 0.720956 5.29817 0
M  V30 17210 C 1634.58 2.73554 4.44933 0
M  V30 17211 H 1636.28 1.79818 2.39386 0
M  V30 17212 H 1633.82 0.866008 1.15049 0
M  V30 17213 H 1635.78 0.17376 4.21042 0
M  V30 17214 H 1634.5 -0.571063 3.21569 0
M  V30 17215 H 1633.16 1.55899 3.318 0
M  V30 17216 H 1632.81 -0.235089 5.0245 0
M  V30 17217 H 1632.51 1.38101 5.71141 0
M  V30 17218 H 1634.03 0.525963 6.0833 0
M  V30 17219 H 1635.45 2.58231 5.11849 0
M  V30 17220 H 1633.84 3.35986 4.97226 0
M  V30 17221 H 1634.91 3.29192 3.56034 0
M  V30 17222 N 1636.26 -1.25243 0.956659 0
M  V30 17223 C 1637.48 -1.97621 0.629337 0
M  V30 17224 C 1637.91 -1.70606 -0.792158 0
M  V30 17225 O 1637.26 -0.963192 -1.53598 0
M  V30 17226 C 1637.31 -3.49273 0.896687 0
M  V30 17227 O 1636.42 -4.12393 -0.0234986 0
M  V30 17228 H 1635.76 -0.619472 0.239061 0
M  V30 17229 H 1638.29 -1.5931 1.28381 0
M  V30 17230 H 1638.3 -3.99597 0.82377 0
M  V30 17231 H 1636.97 -3.68265 1.93271 0
M  V30 17232 H 1635.55 -3.72761 0.101796 0
M  V30 17233 N 1637.73 -0.725468 -1.3991 0
M  V30 17234 C 1638.7 -0.0878956 -2.29031 0
M  V30 17235 C 1639.7 0.677105 -1.45849 0
M  V30 17236 O 1640.89 0.507538 -1.66642 0
M  V30 17237 C 1638.02 0.885087 -3.2921 0
M  V30 17238 H 1639.21 -0.872957 -2.86914 0
M  V30 17239 H 1636.77 -0.490715 -1.48397 0
M  V30 17240 H 1637.5 1.69685 -2.76365 0
M  V30 17241 H 1637.29 0.339297 -3.90629 0
M  V30 17242 H 1638.78 1.32806 -3.9592 0
M  V30 17243 N 1639.21 1.50354 -0.472382 0
M  V30 17244 C 1640.44 2.06446 0.0796976 0
M  V30 17245 C 1640.85 1.33626 1.33943 0
M  V30 17246 O 1640.19 0.399473 1.79304 0
M  V30 17247 C 1640.26 3.56889 0.432455 0
M  V30 17248 C 1639.92 4.51205 -0.725443 0
M  V30 17249 C 1640.92 4.94413 -1.60784 0
M  V30 17250 C 1638.6 4.93875 -0.916135 0
M  V30 17251 C 1640.6 5.78998 -2.66533 0
M  V30 17252 C 1638.28 5.78242 -1.97684 0
M  V30 17253 C 1639.28 6.20706 -2.8498 0
M  V30 17254 O 1638.97 7.03391 -3.89224 0
M  V30 17255 H 1638.7 0.675986 -0.00433625 0
M  V30 17256 H 1641.25 1.94489 -0.660558 0
M  V30 17257 H 1639.48 3.66754 1.22591 0
M  V30 17258 H 1641.17 3.95342 0.919769 0
M  V30 17259 H 1641.94 4.62116 -1.47221 0
M  V30 17260 H 1637.82 4.60343 -0.246124 0
M  V30 17261 H 1641.36 6.12063 -3.34701 0
M  V30 17262 H 1637.26 6.09953 -2.11254 0
M  V30 17263 H 1638.03 7.21644 -3.86229 0
M  V30 17264 N 1640.69 0.205039 1.56261 0
M  V30 17265 C 1641.94 -0.431735 1.98151 0
M  V30 17266 C 1642.27 -1.60579 1.09215 0
M  V30 17267 O 1641.55 -1.93949 0.146257 0
M  V30 17268 C 1641.83 -0.882278 3.49124 0
M  V30 17269 C 1641.68 0.294278 4.48836 0
M  V30 17270 C 1643 -1.7443 4.04057 0
M  V30 17271 H 1640.12 -0.155457 0.720418 0
M  V30 17272 H 1642.76 0.29796 1.87649 0
M  V30 17273 H 1640.91 -1.50404 3.58205 0
M  V30 17274 H 1642.58 0.932148 4.51784 0
M  V30 17275 H 1640.83 0.94444 4.23394 0
M  V30 17276 H 1641.5 -0.063639 5.51963 0
M  V30 17277 H 1643.97 -1.21983 3.97818 0
M  V30 17278 H 1642.85 -2.02848 5.10043 0
M  V30 17279 H 1643.11 -2.70195 3.49924 0
M  V30 17280 N 1642.17 -1.57451 -0.0684915 0
M  V30 17281 C 1643.4 -1.9164 -0.779855 0
M  V30 17282 C 1643.81 -0.801309 -1.70952 0
M  V30 17283 O 1643.17 0.225134 -1.81106 0
M  V30 17284 C 1643.22 -3.25594 -1.57068 0
M  V30 17285 O 1642.94 -4.32816 -0.678385 0
M  V30 17286 C 1644.44 -3.73818 -2.38275 0
M  V30 17287 H 1641.66 -0.633374 -0.221537 0
M  V30 17288 H 1644.21 -2.04465 -0.0377746 0
M  V30 17289 H 1642.36 -3.14287 -2.26501 0
M  V30 17290 H 1642.78 -5.09903 -1.22877 0
M  V30 17291 H 1644.25 -4.70168 -2.89216 0
M  V30 17292 H 1644.73 -3.02995 -3.17947 0
M  V30 17293 H 1645.33 -3.88081 -1.73992 0
M  V30 17294 N 1643.65 0.339955 -1.5389 0
M  V30 17295 C 1644.9 1.07723 -1.70524 0
M  V30 17296 C 1645.21 1.89693 -0.477058 0
M  V30 17297 O 1646.42 2.66387 -0.524424 0
M  V30 17298 C 1644.87 1.96455 -3.01551 0
M  V30 17299 C 1644.48 1.19675 -4.3172 0
M  V30 17300 C 1646.22 2.70019 -3.27552 0
M  V30 17301 C 1644.13 2.07458 -5.53819 0
M  V30 17302 H 1643.06 0.405877 -0.635437 0
M  V30 17303 H 1645.71 0.336489 -1.80388 0
M  V30 17304 H 1644.09 2.74364 -2.85553 0
M  V30 17305 H 1645.27 0.466526 -4.58432 0
M  V30 17306 H 1643.58 0.578651 -4.1236 0
M  V30 17307 H 1646.18 3.35973 -4.15964 0
M  V30 17308 H 1646.52 3.36779 -2.44716 0
M  V30 17309 H 1647.06 1.99182 -3.44342 0
M  V30 17310 H 1643.79 1.45234 -6.39208 0
M  V30 17311 H 1643.31 2.7826 -5.31349 0
M  V30 17312 H 1644.99 2.66428 -5.89598 0
M  V30 17313 N 1645.13 1.45684 0.601159 0
M  V30 17314 C 1646.09 1.54451 1.69344 0
M  V30 17315 C 1647.09 0.423379 1.55126 0
M  V30 17316 O 1648.28 0.687079 1.60078 0
M  V30 17317 C 1645.41 1.4472 3.08657 0
M  V30 17318 H 1646.6 2.51778 1.62935 0
M  V30 17319 H 1644.16 1.3322 0.81744 0
M  V30 17320 H 1644.89 0.486027 3.20637 0
M  V30 17321 H 1644.68 2.26045 3.20384 0
M  V30 17322 H 1646.17 1.53902 3.88206 0
M  V30 17323 N 1646.6 -0.84422 1.33082 0
M  V30 17324 C 1647.53 -1.96899 1.25511 0
M  V30 17325 C 1648.51 -1.69549 0.13677 0
M  V30 17326 O 1649.7 -1.9145 0.325667 0
M  V30 17327 C 1646.83 -3.32947 0.988094 0
M  V30 17328 C 1645.78 -3.7468 2.06879 0
M  V30 17329 C 1645.11 -5.08475 1.65401 0
M  V30 17330 C 1646.41 -3.89033 3.48498 0
M  V30 17331 H 1648.1 -2.03491 2.19617 0
M  V30 17332 H 1645.65 -0.977659 1.05725 0
M  V30 17333 H 1647.6 -4.11198 0.921645 0
M  V30 17334 H 1646.33 -3.26598 0.0114067 0
M  V30 17335 H 1644.99 -2.98689 2.12557 0
M  V30 17336 H 1644.63 -4.98592 0.66449 0
M  V30 17337 H 1644.33 -5.37368 2.37717 0
M  V30 17338 H 1645.86 -5.89207 1.60212 0
M  V30 17339 H 1647.27 -4.57609 3.4535 0
M  V30 17340 H 1645.67 -4.29357 4.19253 0
M  V30 17341 H 1646.74 -2.91639 3.87395 0
M  V30 17342 N 1648.08 -1.16463 -1.0618 0
M  V30 17343 C 1649.01 -0.895399 -2.1565 0
M  V30 17344 C 1649.99 0.158729 -1.69358 0
M  V30 17345 O 1651.18 0.010586 -1.94197 0
M  V30 17346 C 1648.31 -0.396959 -3.45024 0
M  V30 17347 C 1647.26 -1.38913 -4.0483 0
M  V30 17348 C 1646.59 -0.749043 -5.29427 0
M  V30 17349 C 1647.89 -2.7591 -4.43476 0
M  V30 17350 H 1649.58 -1.81085 -2.38429 0
M  V30 17351 H 1647.13 -0.872098 -1.14588 0
M  V30 17352 H 1649.08 -0.196086 -4.20944 0
M  V30 17353 H 1647.8 0.554002 -3.21867 0
M  V30 17354 H 1646.46 -1.57657 -3.30968 0
M  V30 17355 H 1646.11 0.208439 -5.02568 0
M  V30 17356 H 1645.81 -1.41128 -5.704 0
M  V30 17357 H 1647.34 -0.558217 -6.08043 0
M  V30 17358 H 1648.75 -2.60942 -5.10473 0
M  V30 17359 H 1647.15 -3.38618 -4.95437 0
M  V30 17360 H 1648.22 -3.31076 -3.54284 0
M  V30 17361 N 1649.56 1.24734 -0.963288 0
M  V30 17362 C 1650.47 2.29268 -0.497316 0
M  V30 17363 C 1651.49 1.68356 0.439572 0
M  V30 17364 O 1652.66 1.98942 0.313697 0
M  V30 17365 C 1649.73 3.46068 0.209261 0
M  V30 17366 C 1648.79 4.22394 -0.766907 0
M  V30 17367 C 1648.02 5.33617 -0.0939542 0
M  V30 17368 O 1648.24 5.59323 1.11864 0
M  V30 17369 O 1647.18 5.96774 -0.78388 0
M  V30 17370 H 1651 2.71235 -1.36622 0
M  V30 17371 H 1648.59 1.30344 -0.730126 0
M  V30 17372 H 1650.47 4.17015 0.606367 0
M  V30 17373 H 1649.15 3.06087 1.0532 0
M  V30 17374 H 1648.05 3.53841 -1.21439 0
M  V30 17375 H 1649.39 4.66181 -1.57912 0
M  V30 17376 N 1651.04 0.732878 1.39523 0
M  V30 17377 C 1652.29 0.276787 1.99792 0
M  V30 17378 C 1652.6 -1.14181 1.58814 0
M  V30 17379 O 1653.81 -1.69731 2.11905 0
M  V30 17380 C 1652.26 0.443924 3.57152 0
M  V30 17381 C 1651.87 1.87027 4.07093 0
M  V30 17382 C 1653.61 0.0495022 4.24471 0
M  V30 17383 C 1651.52 1.98708 5.57018 0
M  V30 17384 H 1650.45 0.0997337 0.747375 0
M  V30 17385 H 1653.1 0.906454 1.59548 0
M  V30 17386 H 1651.48 -0.254605 3.95181 0
M  V30 17387 H 1652.66 2.60059 3.80403 0
M  V30 17388 H 1650.97 2.21772 3.52429 0
M  V30 17389 H 1653.57 0.115815 5.34575 0
M  V30 17390 H 1653.91 -0.994967 4.04235 0
M  V30 17391 H 1654.45 0.69911 3.91609 0
M  V30 17392 H 1651.18 3.01336 5.82131 0
M  V30 17393 H 1650.7 1.30111 5.85518 0
M  V30 17394 H 1652.38 1.76725 6.22396 0
M  V30 17395 N 1652.52 -1.50101 0.480349 0
M  V30 17396 C 1653.93 -1.8668 0.0274773 0
M  V30 17397 C 1654.28 -1.39442 -1.38023 0
M  V30 17398 O 1653.4 -0.763363 -2.02489 0
M  V30 17399 C 1654 -3.38773 0.043087 0
M  V30 17400 C 1652.56 -3.74728 -0.354352 0
M  V30 17401 C 1651.7 -2.7403 0.424583 0
M  V30 17402 H 1654.65 -1.42713 0.694172 0
M  V30 17403 H 1654.68 -3.72894 -0.756989 0
M  V30 17404 H 1654.19 -3.73123 1.06775 0
M  V30 17405 H 1652.29 -3.45981 -1.38303 0
M  V30 17406 H 1652.4 -4.79075 -0.0492608 0
M  V30 17407 H 1650.77 -2.54403 -0.122927 0
M  V30 17408 H 1651.55 -3.11225 1.44894 0
M  V30 17409 N 1653.99 -0.213323 -1.5615 0
M  V30 17410 C 1654.92 0.695003 -2.22917 0
M  V30 17411 C 1655.9 1.20738 -1.19818 0
M  V30 17412 O 1657.09 1.25289 -1.48379 0
M  V30 17413 C 1654.22 1.90685 -2.9027 0
M  V30 17414 C 1653.17 1.52865 -3.9977 0
M  V30 17415 C 1652.5 2.81859 -4.54378 0
M  V30 17416 C 1653.8 0.724829 -5.17246 0
M  V30 17417 H 1655.49 0.138351 -2.9908 0
M  V30 17418 H 1653.04 0.0651029 -1.43853 0
M  V30 17419 H 1654.99 2.54766 -3.35667 0
M  V30 17420 H 1653.72 2.48833 -2.11541 0
M  V30 17421 H 1652.38 0.911336 -3.55092 0
M  V30 17422 H 1652.02 3.38135 -3.72389 0
M  V30 17423 H 1651.72 2.57291 -5.28275 0
M  V30 17424 H 1653.25 3.46897 -5.02489 0
M  V30 17425 H 1654.66 1.26915 -5.59076 0
M  V30 17426 H 1653.06 0.57656 -5.97324 0
M  V30 17427 H 1654.13 -0.270309 -4.84146 0
M  V30 17428 N 1655.47 1.57485 0.0601405 0
M  V30 17429 C 1656.88 1.76433 0.610583 0
M  V30 17430 C 1657.23 0.840353 1.77292 0
M  V30 17431 O 1656.36 0.0273238 2.16383 0
M  V30 17432 C 1656.95 3.19947 1.11441 0
M  V30 17433 C 1655.51 3.402 1.61062 0
M  V30 17434 C 1654.66 2.72089 0.535055 0
M  V30 17435 H 1657.61 1.57829 -0.166062 0
M  V30 17436 H 1657.63 3.24749 1.98288 0
M  V30 17437 H 1657.14 3.87172 0.268233 0
M  V30 17438 H 1655.25 2.78106 2.47967 0
M  V30 17439 H 1655.36 4.48696 1.67954 0
M  V30 17440 H 1653.72 2.34972 0.982855 0
M  V30 17441 H 1654.51 3.41977 -0.301135 0
M  V30 17442 N 1656.95 -0.331789 1.54068 0
M  V30 17443 C 1658.2 -1.07228 1.72134 0
M  V30 17444 C 1658.53 -1.87936 0.489265 0
M  V30 17445 O 1657.8 -1.87592 -0.513761 0
M  V30 17446 C 1658.09 -2.00379 2.99199 0
M  V30 17447 C 1657.94 -1.23056 4.3264 0
M  V30 17448 C 1659.26 -3.00026 3.21982 0
M  V30 17449 H 1656.38 -0.388428 0.626333 0
M  V30 17450 H 1659.02 -0.34971 1.86754 0
M  V30 17451 H 1657.17 -2.61993 2.86865 0
M  V30 17452 H 1658.84 -0.639661 4.56844 0
M  V30 17453 H 1657.09 -0.532717 4.30517 0
M  V30 17454 H 1657.76 -1.91411 5.17751 0
M  V30 17455 H 1660.23 -2.48531 3.33724 0
M  V30 17456 H 1659.11 -3.62395 4.12263 0
M  V30 17457 H 1659.37 -3.72041 2.38826 0
M  V30 17458 N 1658.43 -1.46001 -0.593424 0
M  V30 17459 C 1659.66 -1.54307 -1.3783 0
M  V30 17460 C 1660.07 -0.18048 -1.87935 0
M  V30 17461 O 1659.43 0.820427 -1.63019 0
M  V30 17462 C 1659.48 -2.53911 -2.57316 0
M  V30 17463 O 1659.2 -3.84876 -2.09289 0
M  V30 17464 C 1660.7 -2.72054 -3.50002 0
M  V30 17465 H 1657.92 -0.522149 -0.421428 0
M  V30 17466 H 1660.47 -1.91315 -0.722423 0
M  V30 17467 H 1658.62 -2.19937 -3.18915 0
M  V30 17468 H 1659.03 -4.38996 -2.87025 0
M  V30 17469 H 1660.51 -3.45692 -4.3035 0
M  V30 17470 H 1660.99 -1.78583 -4.01254 0
M  V30 17471 H 1661.59 -3.07082 -2.94246 0
M  V30 17472 N 1659.91 0.83715 -1.33527 0
M  V30 17473 C 1660.85 1.96849 -1.23908 0
M  V30 17474 C 1661.85 1.6882 -0.140096 0
M  V30 17475 O 1663.05 1.77411 -0.304166 0
M  V30 17476 H 1659.43 0.646232 -0.384562 0
M  V30 17477 H 1661.4 2.02087 -2.19552 0
M  V30 17478 C 1660.15 3.33102 -0.996907 0
M  V30 17479 H 1659.47 3.5521 -1.83482 0
M  V30 17480 H 1660.91 4.12757 -0.96991 0
M  V30 17481 C 1659.37 3.3556 0.30013 0
M  V30 17482 O 1659.9 3.79868 1.30626 0
M  V30 17483 N 1658.11 2.8874 0.328269 0
M  V30 17484 H 1657.65 2.52877 -0.491043 0
M  V30 17485 H 1657.61 2.90767 1.19591 0
M  V30 17486 N 1661.38 1.17024 1.05561 0
M  V30 17487 C 1662.8 0.962856 1.59956 0
M  V30 17488 C 1663.15 -0.491388 1.89947 0
M  V30 17489 O 1662.27 -1.366 1.67838 0
M  V30 17490 C 1662.87 1.74146 2.90617 0
M  V30 17491 C 1661.43 1.57885 3.41686 0
M  V30 17492 C 1660.57 1.74548 2.15472 0
M  V30 17493 H 1663.52 1.31787 0.88419 0
M  V30 17494 H 1663.54 1.22165 3.60355 0
M  V30 17495 H 1663.06 2.79984 2.68758 0
M  V30 17496 H 1661.16 0.545207 3.6859 0
M  V30 17497 H 1661.27 2.36745 4.16519 0
M  V30 17498 H 1659.63 1.17356 2.26052 0
M  V30 17499 H 1660.42 2.81789 1.96087 0
M  V30 17500 N 1662.86 -1.24221 0.969889 0
M  V30 17501 C 1664.11 -1.91656 0.628559 0
M  V30 17502 C 1664.42 -1.76627 -0.840371 0
M  V30 17503 O 1665.63 -2.38771 -1.29232 0
M  V30 17504 C 1664.09 -3.43515 1.07357 0
M  V30 17505 C 1663.69 -3.67226 2.56611 0
M  V30 17506 C 1665.44 -4.16788 0.805493 0
M  V30 17507 C 1663.35 -5.12667 2.94834 0
M  V30 17508 H 1662.28 -0.717619 0.231384 0
M  V30 17509 H 1664.93 -1.40831 1.17639 0
M  V30 17510 H 1663.31 -3.93388 0.454037 0
M  V30 17511 H 1664.48 -3.27942 3.23713 0
M  V30 17512 H 1662.8 -3.07243 2.81053 0
M  V30 17513 H 1665.39 -5.23945 1.06705 0
M  V30 17514 H 1665.74 -4.15498 -0.258321 0
M  V30 17515 H 1666.27 -3.7287 1.3861 0
M  V30 17516 H 1663.01 -5.1908 4.00295 0
M  V30 17517 H 1662.53 -5.5294 2.32417 0
M  V30 17518 H 1664.21 -5.80916 2.8486 0
M  V30 17519 N 1664.34 -0.740267 -1.39132 0
M  V30 17520 C 1665.59 -0.290953 -2.00702 0
M  V30 17521 C 1665.92 1.12051 -1.58613 0
M  V30 17522 O 1665.19 1.76488 -0.817457 0
M  V30 17523 C 1665.48 -0.398765 -3.57885 0
M  V30 17524 C 1665.33 -1.85038 -4.09977 0
M  V30 17525 C 1666.65 0.215717 -4.39571 0
M  V30 17526 H 1663.77 -0.107194 -0.729163 0
M  V30 17527 H 1666.41 -0.937411 -1.65265 0
M  V30 17528 H 1664.56 0.151613 -3.88204 0
M  V30 17529 H 1666.23 -2.45804 -3.90357 0
M  V30 17530 H 1664.48 -2.36994 -3.63341 0
M  V30 17531 H 1665.15 -1.87705 -5.19106 0
M  V30 17532 H 1667.62 -0.253518 -4.15327 0
M  V30 17533 H 1666.5 0.109966 -5.4879 0
M  V30 17534 H 1666.76 1.30242 -4.2248 0
M  V30 17535 N 1665.82 1.49844 -0.488302 0
M  V30 17536 C 1667.23 1.58954 -0.14348 0
M  V30 17537 C 1667.43 1.49482 1.3512 0
M  V30 17538 O 1666.49 1.36218 2.12605 0
M  V30 17539 C 1667.8 2.92222 -0.708991 0
M  V30 17540 C 1669.35 3.05658 -0.673957 0
M  V30 17541 C 1669.83 4.41526 -1.21731 0
M  V30 17542 N 1671.32 4.47985 -1.17746 0
M  V30 17543 C 1672.05 5.51539 -1.5682 0
M  V30 17544 N 1671.55 6.62261 -2.03426 0
M  V30 17545 N 1673.34 5.4218 -1.48315 0
M  V30 17546 H 1665.49 1.54244 -1.46022 0
M  V30 17547 H 1667.76 0.72992 -0.604914 0
M  V30 17548 H 1667.46 3.04683 -1.75674 0
M  V30 17549 H 1667.34 3.76851 -0.162226 0
M  V30 17550 H 1669.72 2.92835 0.364925 0
M  V30 17551 H 1669.8 2.22744 -1.25772 0
M  V30 17552 H 1669.45 4.551 -2.25491 0
M  V30 17553 H 1669.38 5.2306 -0.609598 0
M  V30 17554 H 1671.87 3.68541 -0.835828 0
M  V30 17555 H 1672.18 7.3736 -2.31345 0
M  V30 17556 H 1670.53 6.63335 -2.07392 0
M  V30 17557 H 1673.72 4.54569 -1.11733 0
M  V30 17558 H 1673.89 6.2276 -1.79092 0
M  V30 17559 N 1667.3 0.221601 1.56034 0
M  V30 17560 C 1668.24 -0.704963 2.2166 0
M  V30 17561 C 1669.24 -1.19966 1.19601 0
M  V30 17562 O 1670.44 -1.15949 1.37681 0
M  V30 17563 H 1666.82 -0.245758 0.710709 0
M  V30 17564 H 1668.79 -0.128041 2.98125 0
M  V30 17565 C 1667.54 -1.90234 2.91043 0
M  V30 17566 H 1666.86 -1.53079 3.69333 0
M  V30 17567 H 1668.3 -2.52844 3.40361 0
M  V30 17568 C 1666.76 -2.75777 1.93516 0
M  V30 17569 O 1667.29 -3.74534 1.45214 0
M  V30 17570 N 1665.5 -2.41815 1.61165 0
M  V30 17571 H 1665.04 -1.61561 2.00639 0
M  V30 17572 H 1665 -2.9933 0.96172 0
M  V30 17573 N 1668.77 -1.57515 -0.0517878 0
M  V30 17574 C 1669.74 -2.04049 -1.04387 0
M  V30 17575 C 1670.74 -0.940745 -1.30409 0
M  V30 17576 O 1671.93 -1.20505 -1.25794 0
M  V30 17577 C 1669.06 -2.43816 -2.38257 0
M  V30 17578 H 1670.25 -2.9294 -0.642367 0
M  V30 17579 H 1667.81 -1.53432 -0.29805 0
M  V30 17580 H 1668.54 -1.58013 -2.832 0
M  V30 17581 H 1668.33 -3.24086 -2.20705 0
M  V30 17582 H 1669.82 -2.80325 -3.09528 0
M  V30 17583 N 1670.25 0.323614 -1.54242 0
M  V30 17584 C 1671.18 1.40344 -1.86616 0
M  V30 17585 C 1672.16 1.53972 -0.722963 0
M  V30 17586 O 1673.35 1.67852 -0.976692 0
M  V30 17587 C 1670.48 2.77112 -2.09347 0
M  V30 17588 C 1669.43 2.78273 -3.25189 0
M  V30 17589 C 1668.76 4.18116 -3.33291 0
M  V30 17590 C 1670.06 2.42025 -4.6284 0
M  V30 17591 H 1671.75 1.13499 -2.77053 0
M  V30 17592 H 1669.3 0.544553 -1.33306 0
M  V30 17593 H 1671.25 3.52719 -2.3058 0
M  V30 17594 H 1669.98 3.05435 -1.1566 0
M  V30 17595 H 1668.64 2.05121 -3.03844 0
M  V30 17596 H 1668.28 4.4358 -2.37163 0
M  V30 17597 H 1667.98 4.19799 -4.11147 0
M  V30 17598 H 1669.51 4.95536 -3.56758 0
M  V30 17599 H 1670.92 3.07346 -4.83954 0
M  V30 17600 H 1669.32 2.5496 -5.43245 0
M  V30 17601 H 1670.39 1.37175 -4.65092 0
M  V30 17602 N 1671.73 1.46313 0.585673 0
M  V30 17603 C 1672.98 1.5147 1.34399 0
M  V30 17604 C 1673.31 0.165209 1.93797 0
M  V30 17605 O 1672.56 -0.838796 1.76813 0
M  V30 17606 C 1672.86 2.55895 2.49504 0
M  V30 17607 C 1672.53 3.99997 2.08118 0
M  V30 17608 C 1671.19 4.3923 1.96545 0
M  V30 17609 C 1673.54 4.90532 1.76147 0
M  V30 17610 C 1670.87 5.66867 1.51256 0
M  V30 17611 C 1673.22 6.18603 1.32338 0
M  V30 17612 C 1671.88 6.56745 1.1934 0
M  V30 17613 H 1671.15 0.554268 0.491801 0
M  V30 17614 H 1673.8 1.79774 0.659803 0
M  V30 17615 H 1672.11 2.21241 3.23357 0
M  V30 17616 H 1673.8 2.57116 3.07722 0
M  V30 17617 H 1670.39 3.68983 2.18058 0
M  V30 17618 H 1674.58 4.60942 1.83974 0
M  V30 17619 H 1669.83 5.95194 1.39834 0
M  V30 17620 H 1674.01 6.88185 1.06653 0
M  V30 17621 H 1671.63 7.55542 0.840228 0
M  V30 17622 N 1673.21 -0.830057 1.33969 0
M  V30 17623 C 1674.45 -1.59946 1.27266 0
M  V30 17624 C 1674.81 -1.91356 -0.157074 0
M  V30 17625 O 1676.01 -2.66535 -0.348192 0
M  V30 17626 C 1674.29 -2.86861 2.13179 0
M  V30 17627 S 1675.84 -3.77464 2.23756 0
M  V30 17628 H 1672.66 -0.548311 0.452632 0
M  V30 17629 H 1675.26 -0.981051 1.69102 0
M  V30 17630 H 1673.97 -2.61772 3.16076 0
M  V30 17631 H 1673.5 -3.53704 1.72212 0
M  V30 17632 H 1675.51 -4.7589 1.4051 0
M  V30 17633 N 1674.69 -1.17582 -1.04939 0
M  V30 17634 C 1675.62 -0.918221 -2.14688 0
M  V30 17635 C 1676.6 0.140757 -1.69517 0
M  V30 17636 O 1677.78 -0.0100118 -1.94197 0
M  V30 17637 C 1674.91 -0.433531 -3.44584 0
M  V30 17638 C 1673.87 -1.43199 -4.03334 0
M  V30 17639 C 1673.19 -0.805154 -5.28603 0
M  V30 17640 C 1674.49 -2.80598 -4.40525 0
M  V30 17641 H 1676.19 -1.83604 -2.36495 0
M  V30 17642 H 1673.73 -0.884202 -1.13657 0
M  V30 17643 H 1675.69 -0.240722 -4.20712 0
M  V30 17644 H 1674.41 0.519832 -3.22437 0
M  V30 17645 H 1673.07 -1.61158 -3.29277 0
M  V30 17646 H 1672.72 0.155124 -5.02761 0
M  V30 17647 H 1672.42 -1.4717 -5.68871 0
M  V30 17648 H 1673.94 -0.622677 -6.07417 0
M  V30 17649 H 1675.36 -2.66341 -5.07676 0
M  V30 17650 H 1673.75 -3.43854 -4.91817 0
M  V30 17651 H 1674.82 -3.34815 -3.50752 0
M  V30 17652 N 1676.17 1.23705 -0.976463 0
M  V30 17653 C 1677.08 2.28728 -0.521605 0
M  V30 17654 C 1678.09 1.68813 0.421691 0
M  V30 17655 O 1679.27 1.99263 0.292579 0
M  V30 17656 C 1676.33 3.4627 0.172545 0
M  V30 17657 C 1675.39 4.21557 -0.811664 0
M  V30 17658 C 1674.63 5.33488 -0.150546 0
M  V30 17659 O 1674.85 5.60478 1.05926 0
M  V30 17660 O 1673.78 5.95909 -0.847132 0
M  V30 17661 H 1677.61 2.6977 -1.39491 0
M  V30 17662 H 1675.19 1.29562 -0.743909 0
M  V30 17663 H 1677.08 4.17634 0.562103 0
M  V30 17664 H 1675.75 3.07187 1.02067 0
M  V30 17665 H 1674.66 3.52533 -1.25185 0
M  V30 17666 H 1675.99 4.6448 -1.62848 0
M  V30 17667 N 1677.64 0.747635 1.38738 0
M  V30 17668 C 1678.87 0.310484 2.05063 0
M  V30 17669 C 1679.29 -1.05078 1.56013 0
M  V30 17670 O 1678.65 -1.66842 0.709461 0
M  V30 17671 C 1678.7 0.335837 3.59033 0
M  V30 17672 O 1677.8 -0.672218 4.06884 0
M  V30 17673 H 1677.14 0.138591 0.649375 0
M  V30 17674 H 1679.67 1.01709 1.77529 0
M  V30 17675 H 1679.68 0.184631 4.07582 0
M  V30 17676 H 1678.36 1.32906 3.94092 0
M  V30 17677 H 1676.94 -0.486112 3.69718 0
M  V30 17678 N 1679.12 -1.49583 0.496242 0
M  V30 17679 C 1680.08 -2.27561 -0.273642 0
M  V30 17680 C 1681.08 -1.33375 -0.8982 0
M  V30 17681 O 1682.27 -1.56578 -0.76347 0
M  V30 17682 C 1679.41 -3.11178 -1.39216 0
M  V30 17683 H 1680.6 -2.97077 0.410543 0
M  V30 17684 H 1678.15 -1.54271 0.251058 0
M  V30 17685 H 1678.89 -2.46217 -2.11064 0
M  V30 17686 H 1678.67 -3.80422 -0.949829 0
M  V30 17687 H 1680.16 -3.70085 -1.93459 0
M  V30 17688 N 1680.6 -0.229873 -1.55915 0
M  V30 17689 C 1681.85 0.393361 -1.9956 0
M  V30 17690 C 1682.2 1.56794 -1.11506 0
M  V30 17691 O 1681.49 1.90872 -0.16682 0
M  V30 17692 C 1681.69 0.869043 -3.46673 0
M  V30 17693 C 1681.52 -0.2579 -4.4896 0
M  V30 17694 C 1680.29 -0.727024 -5.00042 0
M  V30 17695 C 1682.48 -1.07905 -5.02853 0
M  V30 17696 N 1680.47 -1.82816 -5.86047 0
M  V30 17697 C 1681.84 -2.02888 -5.85864 0
M  V30 17698 C 1683.89 -1.11755 -4.85196 0
M  V30 17699 C 1682.6 -3.01411 -6.53103 0
M  V30 17700 C 1684.62 -2.09099 -5.53201 0
M  V30 17701 C 1683.98 -3.02821 -6.35987 0
M  V30 17702 H 1680.08 0.110376 -0.774171 0
M  V30 17703 H 1682.67 -0.343552 -1.91645 0
M  V30 17704 H 1680.84 1.57529 -3.5502 0
M  V30 17705 H 1682.57 1.46579 -3.77222 0
M  V30 17706 H 1679.32 -0.314148 -4.72557 0
M  V30 17707 H 1679.75 -2.38097 -6.3375 0
M  V30 17708 H 1684.39 -0.406867 -4.20838 0
M  V30 17709 H 1682.11 -3.73437 -7.16638 0
M  V30 17710 H 1685.69 -2.12762 -5.41501 0
M  V30 17711 H 1684.57 -3.76915 -6.8768 0
M  V30 17712 N 1682.08 1.5754 0.0434337 0
M  V30 17713 C 1683.03 2.06683 1.067 0
M  V30 17714 C 1684.02 0.977691 1.38339 0
M  V30 17715 O 1685.23 1.16266 1.37412 0
M  V30 17716 H 1681.6 0.659378 0.361559 0
M  V30 17717 H 1683.57 2.91747 0.626605 0
M  V30 17718 C 1682.32 2.54985 2.36385 0
M  V30 17719 H 1681.64 3.384 2.12897 0
M  V30 17720 H 1683.08 2.93095 3.06384 0
M  V30 17721 C 1681.54 1.44484 3.04345 0
M  V30 17722 O 1682.07 0.80291 3.93594 0
M  V30 17723 N 1680.28 1.18292 2.65434 0
M  V30 17724 H 1679.83 1.70676 1.92944 0
M  V30 17725 H 1679.78 0.445676 3.11225 0
M  V30 17726 N 1683.56 -0.31543 1.54411 0
M  V30 17727 C 1684.8 -1.05396 1.73261 0
M  V30 17728 C 1685.13 -1.87406 0.509171 0
M  V30 17729 O 1684.41 -1.88126 -0.493836 0
M  V30 17730 C 1684.69 -1.97195 3.01308 0
M  V30 17731 C 1684.55 -1.18461 4.33921 0
M  V30 17732 C 1685.86 -2.96594 3.25146 0
M  V30 17733 H 1682.98 -0.381763 0.630417 0
M  V30 17734 H 1685.63 -0.329882 1.87114 0
M  V30 17735 H 1683.78 -2.58936 2.89628 0
M  V30 17736 H 1685.45 -0.591171 4.57496 0
M  V30 17737 H 1683.69 -0.487025 4.31057 0
M  V30 17738 H 1684.36 -1.85909 5.19752 0
M  V30 17739 H 1686.84 -2.44977 3.36341 0
M  V30 17740 H 1685.71 -3.58002 4.16084 0
M  V30 17741 H 1685.97 -3.69487 2.42758 0
M  V30 17742 N 1685.03 -1.46622 -0.577906 0
M  V30 17743 C 1686 -1.57126 -1.66865 0
M  V30 17744 C 1687 -0.448004 -1.54433 0
M  V30 17745 O 1688.19 -0.712459 -1.58964 0
M  V30 17746 C 1685.32 -1.49612 -3.06315 0
M  V30 17747 H 1686.51 -2.54338 -1.58909 0
M  V30 17748 H 1684.07 -1.34504 -0.796142 0
M  V30 17749 H 1684.8 -0.536976 -3.19823 0
M  V30 17750 H 1684.59 -2.31113 -3.16748 0
M  V30 17751 H 1686.08 -1.60058 -3.85709 0
M  V30 17752 N 1686.51 0.822941 -1.34408 0
M  V30 17753 C 1687.46 1.93383 -1.25982 0
M  V30 17754 C 1688.43 1.6555 -0.13506 0
M  V30 17755 O 1689.61 1.88164 -0.316033 0
M  V30 17756 C 1686.75 3.29646 -1.02117 0
M  V30 17757 C 1685.87 3.69772 -2.23366 0
M  V30 17758 C 1685 4.94982 -1.92784 0
M  V30 17759 C 1684.04 5.2769 -3.10177 0
M  V30 17760 N 1683.18 6.44078 -2.79479 0
M  V30 17761 H 1688.02 1.99922 -2.20987 0
M  V30 17762 H 1685.56 0.978105 -1.0987 0
M  V30 17763 H 1687.51 4.08173 -0.863175 0
M  V30 17764 H 1686.14 3.2262 -0.107803 0
M  V30 17765 H 1685.2 2.86637 -2.50086 0
M  V30 17766 H 1686.51 3.89914 -3.11076 0
M  V30 17767 H 1685.66 5.81297 -1.73721 0
M  V30 17768 H 1684.4 4.76843 -1.02335 0
M  V30 17769 H 1683.41 4.39873 -3.29837 0
M  V30 17770 H 1684.63 5.47769 -4.01405 0
M  V30 17771 H 1682.58 6.27394 -1.91605 0
M  V30 17772 H 1682.49 6.64392 -3.60721 0
M  V30 17773 H 1683.76 7.33462 -2.63919 0
M  V30 17774 N 1687.99 1.18137 1.04314 0
M  V30 17775 C 1688.9 0.921044 2.15764 0
M  V30 17776 C 1689.92 -0.11396 1.73626 0
M  V30 17777 O 1691.09 0.0673733 2.01287 0
M  V30 17778 C 1688.16 0.447581 3.43799 0
M  V30 17779 C 1687.22 1.55025 4.00332 0
M  V30 17780 C 1686.45 1.09928 5.22256 0
M  V30 17781 O 1686.67 -0.0430152 5.70384 0
M  V30 17782 O 1685.61 1.896 5.71258 0
M  V30 17783 H 1689.43 1.85353 2.40579 0
M  V30 17784 H 1687.02 0.962985 1.14223 0
M  V30 17785 H 1688.9 0.191497 4.20965 0
M  V30 17786 H 1687.58 -0.456641 3.20463 0
M  V30 17787 H 1686.48 1.86032 3.24566 0
M  V30 17788 H 1687.82 2.4305 4.28004 0
M  V30 17789 N 1689.47 -1.23186 0.98301 0
M  V30 17790 C 1690.72 -1.91292 0.652051 0
M  V30 17791 C 1691.04 -1.77046 -0.8173 0
M  V30 17792 O 1690.31 -1.15146 -1.58487 0
M  V30 17793 H 1688.89 -0.708011 0.23818 0
M  V30 17794 H 1691.55 -1.49754 1.24739 0
M  V30 17795 H 1690.65 -2.98662 0.905951 0
M  V30 17796 N 1690.95 -0.754982 -1.38339 0
M  V30 17797 C 1692.17 -0.322624 -2.04369 0
M  V30 17798 C 1692.59 1.04951 -1.56942 0
M  V30 17799 O 1691.95 1.66686 -0.743109 0
M  V30 17800 C 1692 -0.337767 -3.59919 0
M  V30 17801 O 1691.72 -1.65576 -4.05606 0
M  V30 17802 C 1693.22 0.108281 -4.43168 0
M  V30 17803 H 1690.44 -0.137626 -0.656734 0
M  V30 17804 H 1692.98 -1.02422 -1.77003 0
M  V30 17805 H 1691.14 0.315106 -3.86116 0
M  V30 17806 H 1691.55 -1.5829 -5.00045 0
M  V30 17807 H 1693.03 0.0465256 -5.5198 0
M  V30 17808 H 1693.5 1.15636 -4.23704 0
M  V30 17809 H 1694.11 -0.51577 -4.22161 0
M  V30 17810 N 1692.42 1.49318 -0.504168 0
M  V30 17811 C 1693.37 2.26124 0.291886 0
M  V30 17812 C 1694.36 1.31105 0.932753 0
M  V30 17813 O 1695.55 1.55807 0.839828 0
M  V30 17814 C 1692.68 3.15477 1.35384 0
M  V30 17815 C 1691.77 4.1796 0.719059 0
M  V30 17816 N 1692.16 5.05479 -0.180167 0
M  V30 17817 C 1690.45 4.35116 0.979276 0
M  V30 17818 C 1691.16 5.79152 -0.543837 0
M  V30 17819 N 1690.13 5.43527 0.0889959 0
M  V30 17820 H 1693.93 2.91161 -0.400301 0
M  V30 17821 H 1691.45 1.59207 -0.320454 0
M  V30 17822 H 1693.44 3.69137 1.93762 0
M  V30 17823 H 1692.1 2.51993 2.04767 0
M  V30 17824 H 1693.12 5.14959 -0.551179 0
M  V30 17825 H 1689.79 3.82836 1.66562 0
M  V30 17826 H 1691.18 6.59601 -1.27968 0
M  V30 17827 N 1693.9 0.238138 1.5579 0
M  V30 17828 C 1695.15 -0.388263 1.98335 0
M  V30 17829 C 1695.47 -1.59104 1.12743 0
M  V30 17830 O 1694.74 -1.9479 0.208201 0
M  V30 17831 H 1693.32 -0.14644 0.732505 0
M  V30 17832 H 1695.98 0.334891 1.92001 0
M  V30 17833 H 1695.08 -0.703359 3.04071 0
M  V30 17834 N 1695.38 -1.57561 -0.0350783 0
M  V30 17835 C 1696.61 -1.93644 -0.742753 0
M  V30 17836 C 1697.03 -0.837655 -1.68419 0
M  V30 17837 O 1696.39 0.207069 -1.80114 0
M  V30 17838 C 1696.44 -3.28779 -1.48111 0
M  V30 17839 O 1695.54 -3.20604 -2.59398 0
M  V30 17840 H 1694.88 -0.633103 -0.200192 0
M  V30 17841 H 1697.41 -2.04599 0.00765271 0
M  V30 17842 H 1697.42 -3.63527 -1.85236 0
M  V30 17843 H 1696.1 -4.08316 -0.790608 0
M  V30 17844 H 1694.67 -2.97477 -2.2486 0
M  V30 17845 N 1696.86 0.307236 -1.54576 0
M  V30 17846 C 1697.81 1.38019 -1.81479 0
M  V30 17847 C 1698.79 1.46213 -0.671612 0
M  V30 17848 O 1699.98 1.5047 -0.932077 0
M  V30 17849 C 1697.11 2.74621 -2.06005 0
M  V30 17850 C 1696.2 2.70675 -3.2649 0
M  V30 17851 N 1696.59 2.36346 -4.47185 0
M  V30 17852 C 1694.89 3.01786 -3.28392 0
M  V30 17853 C 1695.59 2.41543 -5.2918 0
M  V30 17854 N 1694.57 2.78646 -4.66752 0
M  V30 17855 H 1698.37 1.10432 -2.72364 0
M  V30 17856 H 1695.88 0.515792 -1.53991 0
M  V30 17857 H 1697.88 3.51977 -2.23424 0
M  V30 17858 H 1696.54 3.03125 -1.16384 0
M  V30 17859 H 1697.55 2.08908 -4.73896 0
M  V30 17860 H 1694.23 3.35225 -2.48858 0
M  V30 17861 H 1695.62 2.17854 -6.35602 0
M  V30 17862 N 1698.34 1.46926 0.570122 0
M  V30 17863 C 1699.58 1.53113 1.32982 0
M  V30 17864 C 1699.92 0.187401 1.93294 0
M  V30 17865 O 1699.19 -0.802585 1.77169 0
M  V30 17866 C 1699.47 2.63936 2.44969 0
M  V30 17867 C 1699.33 4.07882 1.8961 0
M  V30 17868 C 1700.65 2.70753 3.46959 0
M  V30 17869 H 1697.76 0.557398 0.482158 0
M  V30 17870 H 1700.41 1.78923 0.639259 0
M  V30 17871 H 1698.56 2.42059 3.03874 0
M  V30 17872 H 1700.23 4.41084 1.35066 0
M  V30 17873 H 1698.47 4.16768 1.20361 0
M  V30 17874 H 1699.14 4.81175 2.70508 0
M  V30 17875 H 1701.62 2.90452 2.97954 0
M  V30 17876 H 1700.49 3.50093 4.2276 0
M  V30 17877 H 1700.76 1.77299 4.04991 0
M  V30 17878 N 1699.82 -0.815801 1.34842 0
M  V30 17879 C 1701.05 -1.60164 1.30503 0
M  V30 17880 C 1701.45 -1.88809 -0.121561 0
M  V30 17881 O 1700.8 -1.48511 -1.08121 0
M  V30 17882 C 1700.86 -2.96361 2.03495 0
M  V30 17883 C 1700.52 -2.90577 3.52724 0
M  V30 17884 C 1701.52 -2.6466 4.47495 0
M  V30 17885 C 1699.2 -3.09985 3.9524 0
M  V30 17886 C 1701.2 -2.58212 5.82757 0
M  V30 17887 C 1698.89 -3.03161 5.306 0
M  V30 17888 C 1699.88 -2.77309 6.2417 0
M  V30 17889 O 1699.57 -2.70431 7.57048 0
M  V30 17890 H 1699.3 -0.504321 0.450151 0
M  V30 17891 H 1701.86 -1.02254 1.78139 0
M  V30 17892 H 1700.09 -3.56219 1.50483 0
M  V30 17893 H 1701.78 -3.57429 1.92353 0
M  V30 17894 H 1702.54 -2.49394 4.15966 0
M  V30 17895 H 1698.42 -3.2912 3.22801 0
M  V30 17896 H 1701.97 -2.37954 6.55762 0
M  V30 17897 H 1697.86 -3.17982 5.61745 0
M  V30 17898 H 1698.63 -2.86107 7.66867 0
M  V30 17899 N 1701.29 -1.18689 -1.03686 0
M  V30 17900 C 1702.52 -1.00961 -1.80595 0
M  V30 17901 C 1702.94 0.44188 -1.83556 0
M  V30 17902 O 1702.29 1.30693 -1.27379 0
M  V30 17903 C 1702.34 -1.56185 -3.26019 0
M  V30 17904 O 1702.07 -2.95652 -3.23298 0
M  V30 17905 C 1703.57 -1.43129 -4.19558 0
M  V30 17906 H 1700.79 -0.356291 -0.568593 0
M  V30 17907 H 1703.33 -1.57324 -1.3065 0
M  V30 17908 H 1701.49 -1.03989 -3.73182 0
M  V30 17909 H 1701.9 -3.21481 -4.14427 0
M  V30 17910 H 1703.37 -1.86561 -5.19518 0
M  V30 17911 H 1703.85 -0.380581 -4.37548 0
M  V30 17912 H 1704.46 -1.94416 -3.78262 0
M  V30 17913 N 1702.77 1.22662 -0.989529 0
M  V30 17914 C 1703.72 2.24466 -0.536994 0
M  V30 17915 C 1704.69 1.60467 0.428907 0
M  V30 17916 O 1705.87 1.87846 0.334418 0
M  V30 17917 C 1703.01 3.44793 0.145526 0
M  V30 17918 C 1702.13 4.23318 -0.861716 0
M  V30 17919 C 1701.26 5.30979 -0.153062 0
M  V30 17920 C 1700.3 6.01221 -1.1489 0
M  V30 17921 N 1699.44 7.00533 -0.468782 0
M  V30 17922 H 1704.28 2.62539 -1.40987 0
M  V30 17923 H 1701.81 1.29035 -0.706291 0
M  V30 17924 H 1703.77 4.1345 0.558128 0
M  V30 17925 H 1702.4 3.07494 0.982213 0
M  V30 17926 H 1701.45 3.5399 -1.39266 0
M  V30 17927 H 1702.77 4.71753 -1.62019 0
M  V30 17928 H 1701.92 6.05874 0.316443 0
M  V30 17929 H 1700.66 4.8351 0.63794 0
M  V30 17930 H 1699.66 5.25111 -1.62907 0
M  V30 17931 H 1700.89 6.50779 -1.94072 0
M  V30 17932 H 1698.84 6.55301 0.302844 0
M  V30 17933 H 1698.75 7.46958 -1.16576 0
M  V30 17934 H 1700.02 7.79497 -0.0219686 0
M  V30 17935 N 1704.25 0.762308 1.37937 0
M  V30 17936 C 1705.21 0.148588 2.28718 0
M  V30 17937 C 1706.21 -0.638198 1.47593 0
M  V30 17938 O 1707.4 -0.463178 1.67929 0
M  V30 17939 C 1704.53 -0.797492 3.31441 0
M  V30 17940 H 1705.73 0.94872 2.84498 0
M  V30 17941 H 1703.28 0.529888 1.47044 0
M  V30 17942 H 1704.02 -1.62298 2.80767 0
M  V30 17943 H 1703.8 -0.23561 3.91391 0
M  V30 17944 H 1705.29 -1.22262 3.99302 0
M  V30 17945 N 1705.73 -1.49049 0.51208 0
M  V30 17946 C 1706.66 -2.32163 -0.249529 0
M  V30 17947 C 1707.64 -1.40957 -0.952114 0
M  V30 17948 O 1708.82 -1.69858 -0.94137 0
M  V30 17949 C 1705.95 -3.21737 -1.30776 0
M  V30 17950 C 1704.91 -4.21825 -0.724392 0
M  V30 17951 C 1704.23 -5.00411 -1.88396 0
M  V30 17952 C 1705.53 -5.21483 0.291975 0
M  V30 17953 H 1707.23 -2.96086 0.444253 0
M  V30 17954 H 1704.77 -1.42385 0.215093 0
M  V30 17955 H 1706.73 -3.78699 -1.84837 0
M  V30 17956 H 1705.45 -2.55779 -2.03088 0
M  V30 17957 H 1704.11 -3.66024 -0.205441 0
M  V30 17958 H 1703.76 -4.30891 -2.59502 0
M  V30 17959 H 1703.46 -5.68141 -1.49964 0
M  V30 17960 H 1704.98 -5.6022 -2.42869 0
M  V30 17961 H 1706.4 -5.73074 -0.160899 0
M  V30 17962 H 1704.79 -5.97166 0.592717 0
M  V30 17963 H 1705.86 -4.69714 1.20404 0
M  V30 17964 N 1707.21 -0.246397 -1.55662 0
M  V30 17965 C 1708.14 0.647563 -2.24341 0
M  V30 17966 C 1709.12 1.1817 -1.22352 0
M  V30 17967 O 1710.3 1.22114 -1.51003 0
M  V30 17968 C 1707.43 1.84485 -2.94249 0
M  V30 17969 C 1706.39 1.4435 -4.02923 0
M  V30 17970 C 1705.71 2.72158 -4.60255 0
M  V30 17971 C 1707.01 0.614951 -5.18667 0
M  V30 17972 H 1708.71 0.0748803 -2.99306 0
M  V30 17973 H 1706.25 0.034575 -1.43958 0
M  V30 17974 H 1708.2 2.47588 -3.40995 0
M  V30 17975 H 1706.93 2.4429 -2.16772 0
M  V30 17976 H 1705.59 0.835811 -3.56945 0
M  V30 17977 H 1705.24 3.3016 -3.79478 0
M  V30 17978 H 1704.94 2.46028 -5.33614 0
M  V30 17979 H 1706.46 3.36161 -5.09734 0
M  V30 17980 H 1707.87 1.15028 -5.61642 0
M  V30 17981 H 1706.27 0.449729 -5.98412 0
M  V30 17982 H 1707.34 -0.372943 -4.83464 0
M  V30 17983 N 1708.68 1.57577 0.026722 0
M  V30 17984 C 1709.65 2.05684 1.01127 0
M  V30 17985 C 1710.65 0.961373 1.28896 0
M  V30 17986 O 1711.84 1.22491 1.23861 0
M  V30 17987 C 1708.97 2.47576 2.34348 0
M  V30 17988 H 1710.16 2.93925 0.595681 0
M  V30 17989 H 1707.71 1.53887 0.273603 0
M  V30 17990 H 1708.45 1.62498 2.80651 0
M  V30 17991 H 1708.23 3.27556 2.15521 0
M  V30 17992 H 1709.72 2.85214 3.05029 0
M  V30 17993 N 1710.16 -0.299034 1.54737 0
M  V30 17994 C 1711.39 -1.05138 1.77847 0
M  V30 17995 C 1711.8 -1.81359 0.53902 0
M  V30 17996 O 1711.14 -1.76742 -0.500783 0
M  V30 17997 C 1711.2 -2.07681 2.93443 0
M  V30 17998 C 1710.87 -1.50636 4.3146 0
M  V30 17999 C 1711.87 -0.935378 5.11416 0
M  V30 18000 C 1709.55 -1.5414 4.78065 0
M  V30 18001 C 1711.54 -0.407022 6.36099 0
M  V30 18002 C 1709.23 -1.00917 6.0271 0
M  V30 18003 C 1710.23 -0.442956 6.81562 0
M  V30 18004 O 1709.92 0.081192 8.03859 0
M  V30 18005 H 1709.65 -0.317487 0.596807 0
M  V30 18006 H 1712.2 -0.343249 2.02512 0
M  V30 18007 H 1710.43 -2.82179 2.64408 0
M  V30 18008 H 1712.12 -2.68832 3.04112 0
M  V30 18009 H 1712.89 -0.901197 4.76554 0
M  V30 18010 H 1708.77 -1.9715 4.16717 0
M  V30 18011 H 1712.31 0.035577 6.97591 0
M  V30 18012 H 1708.21 -1.04051 6.37059 0
M  V30 18013 H 1708.98 -0.031922 8.18494 0
M  V30 18014 N 1711.64 -1.47227 -0.562322 0
M  V30 18015 C 1712.6 -1.58887 -1.6519 0
M  V30 18016 C 1713.6 -0.464359 -1.53949 0
M  V30 18017 O 1714.79 -0.729279 -1.582 0
M  V30 18018 C 1711.92 -1.52853 -3.04711 0
M  V30 18019 H 1713.12 -2.5601 -1.56202 0
M  V30 18020 H 1710.67 -1.35341 -0.781832 0
M  V30 18021 H 1711.41 -0.570867 -3.19236 0
M  V30 18022 H 1711.19 -2.3446 -3.14279 0
M  V30 18023 H 1712.68 -1.6414 -3.83989 0
M  V30 18024 N 1713.12 0.808639 -1.35273 0
M  V30 18025 C 1714.36 1.56562 -1.28431 0
M  V30 18026 C 1714.69 1.93982 0.141842 0
M  V30 18027 O 1713.95 1.61409 1.10661 0
M  V30 18028 C 1714.25 2.86667 -2.1344 0
M  V30 18029 C 1713.91 2.68475 -3.6226 0
M  V30 18030 C 1712.57 2.63221 -4.02825 0
M  V30 18031 C 1714.93 2.51151 -4.56698 0
M  V30 18032 C 1712.25 2.38583 -5.35999 0
M  V30 18033 C 1714.61 2.28043 -5.90067 0
M  V30 18034 C 1713.27 2.2121 -6.2978 0
M  V30 18035 H 1712.54 0.572902 -0.469963 0
M  V30 18036 H 1715.19 0.934504 -1.6715 0
M  V30 18037 H 1713.49 3.54146 -1.67595 0
M  V30 18038 H 1715.19 3.44351 -2.05483 0
M  V30 18039 H 1711.78 2.7341 -3.30068 0
M  V30 18040 H 1715.96 2.54223 -4.26244 0
M  V30 18041 H 1711.22 2.31761 -5.65771 0
M  V30 18042 H 1715.39 2.13628 -6.62824 0
M  V30 18043 H 1713.02 2.01881 -7.32904 0
M  V30 18044 N 1714.6 1.19237 1.03055 0
M  V30 18045 C 1715.82 1.01983 1.80594 0
M  V30 18046 C 1716.25 -0.426875 1.83192 0
M  V30 18047 O 1715.6 -1.30678 1.2567 0
M  V30 18048 C 1715.65 1.59139 3.23585 0
M  V30 18049 O 1714.76 0.819576 4.04174 0
M  V30 18050 H 1714.1 0.360585 0.557561 0
M  V30 18051 H 1716.63 1.58222 1.29719 0
M  V30 18052 H 1716.64 1.62283 3.74337 0
M  V30 18053 H 1715.31 2.64436 3.21009 0
M  V30 18054 H 1713.89 0.861253 3.62818 0
M  V30 18055 N 1716.07 -1.22136 0.99602 0
M  V30 18056 C 1717 -2.26463 0.568909 0
M  V30 18057 C 1717.99 -1.65189 -0.405783 0
M  V30 18058 O 1719.17 -1.91935 -0.295735 0
M  V30 18059 C 1716.3 -3.47112 -0.114166 0
M  V30 18060 C 1715.25 -4.20844 0.779387 0
M  V30 18061 C 1714.58 -5.34687 -0.0367787 0
M  V30 18062 C 1715.88 -4.79195 2.07773 0
M  V30 18063 H 1717.57 -2.62443 1.44097 0
M  V30 18064 H 1715.12 -1.26156 0.694314 0
M  V30 18065 H 1717.07 -4.19258 -0.424381 0
M  V30 18066 H 1715.8 -3.10238 -1.02079 0
M  V30 18067 H 1714.46 -3.50537 1.07329 0
M  V30 18068 H 1714.1 -4.94054 -0.94442 0
M  V30 18069 H 1713.8 -5.84944 0.558092 0
M  V30 18070 H 1715.33 -6.09647 -0.341016 0
M  V30 18071 H 1716.74 -5.43266 1.83126 0
M  V30 18072 H 1715.14 -5.39803 2.62169 0
M  V30 18073 H 1716.21 -3.99073 2.75442 0
M  V30 18074 N 1717.55 -0.769612 -1.37531 0
M  V30 18075 C 1718.48 -0.168389 -2.32892 0
M  V30 18076 C 1719.46 0.685549 -1.55673 0
M  V30 18077 O 1720.65 0.62345 -1.8392 0
M  V30 18078 C 1717.78 0.713183 -3.39898 0
M  V30 18079 C 1716.73 -0.0392808 -4.27982 0
M  V30 18080 C 1716.06 0.961596 -5.25982 0
M  V30 18081 C 1717.36 -1.21704 -5.07923 0
M  V30 18082 H 1719.05 -0.965022 -2.83421 0
M  V30 18083 H 1716.6 -0.465502 -1.36268 0
M  V30 18084 H 1718.55 1.14358 -4.05586 0
M  V30 18085 H 1717.28 1.54231 -2.87889 0
M  V30 18086 H 1715.93 -0.450429 -3.63822 0
M  V30 18087 H 1715.58 1.78522 -4.70254 0
M  V30 18088 H 1715.28 0.462679 -5.85776 0
M  V30 18089 H 1716.81 1.39097 -5.94545 0
M  V30 18090 H 1718.22 -0.863405 -5.66761 0
M  V30 18091 H 1716.62 -1.6479 -5.77031 0
M  V30 18092 H 1717.69 -2.02219 -4.40722 0
M  V30 18093 N 1719.03 1.48775 -0.519977 0
M  V30 18094 C 1720.28 2.02092 0.0177154 0
M  V30 18095 C 1720.6 1.40024 1.35714 0
M  V30 18096 O 1719.87 0.562115 1.87662 0
M  V30 18097 H 1718.45 0.746939 0.00953578 0
M  V30 18098 H 1721.11 1.82595 -0.681535 0
M  V30 18099 H 1720.21 3.11815 0.133431 0
M  V30 18100 N 1720.51 0.254649 1.55529 0
M  V30 18101 C 1721.46 -0.64162 2.21702 0
M  V30 18102 C 1722.43 -1.16544 1.1835 0
M  V30 18103 O 1723.61 -1.2185 1.46824 0
M  V30 18104 C 1720.75 -1.82935 2.92624 0
M  V30 18105 C 1719.86 -1.34132 4.10649 0
M  V30 18106 C 1719 -2.48922 4.69267 0
M  V30 18107 C 1718.04 -1.9702 5.79525 0
M  V30 18108 N 1717.17 -3.05206 6.32293 0
M  V30 18109 H 1722.01 -0.0706476 2.97916 0
M  V30 18110 H 1719.55 -0.0231077 1.47082 0
M  V30 18111 H 1721.51 -2.52719 3.31947 0
M  V30 18112 H 1720.14 -2.37267 2.1887 0
M  V30 18113 H 1719.19 -0.53726 3.76587 0
M  V30 18114 H 1720.5 -0.921003 4.90223 0
M  V30 18115 H 1719.66 -3.26735 5.11203 0
M  V30 18116 H 1718.4 -2.94259 3.88925 0
M  V30 18117 H 1717.4 -1.17679 5.37058 0
M  V30 18118 H 1718.63 -1.52643 6.61723 0
M  V30 18119 H 1716.57 -3.49963 5.54853 0
M  V30 18120 H 1716.49 -2.67528 7.07082 0
M  V30 18121 H 1717.76 -3.83055 6.78888 0
M  V30 18122 N 1721.99 -1.57589 -0.0183649 0
M  V30 18123 C 1722.92 -2.04071 -1.04343 0
M  V30 18124 C 1723.93 -0.955366 -1.3182 0
M  V30 18125 O 1725.12 -1.23249 -1.29119 0
M  V30 18126 C 1722.22 -2.41011 -2.38258 0
M  V30 18127 C 1721.39 -3.72057 -2.29984 0
M  V30 18128 C 1720.45 -3.96067 -3.46435 0
M  V30 18129 O 1719.48 -4.66982 -3.25447 0
M  V30 18130 N 1720.68 -3.42535 -4.68669 0
M  V30 18131 H 1723.45 -2.92629 -0.647168 0
M  V30 18132 H 1721.01 -1.60583 -0.20611 0
M  V30 18133 H 1723 -2.54203 -3.14902 0
M  V30 18134 H 1721.57 -1.58068 -2.69691 0
M  V30 18135 H 1720.79 -3.69117 -1.38369 0
M  V30 18136 H 1722.08 -4.58003 -2.2161 0
M  V30 18137 H 1721.47 -2.85073 -4.8862 0
M  V30 18138 H 1720.03 -3.61087 -5.42641 0
M  V30 18139 N 1723.46 0.290824 -1.54893 0
M  V30 18140 C 1724.41 1.37898 -1.87315 0
M  V30 18141 C 1725.41 1.52001 -0.747794 0
M  V30 18142 O 1726.61 1.53998 -0.93192 0
M  V30 18143 H 1722.99 0.460824 -0.59426 0
M  V30 18144 H 1724.96 1.07794 -2.7825 0
M  V30 18145 C 1723.71 2.73568 -2.14606 0
M  V30 18146 H 1723.03 2.63501 -3.00678 0
M  V30 18147 H 1724.47 3.48693 -2.41225 0
M  V30 18148 C 1722.93 3.23291 -0.947865 0
M  V30 18149 O 1723.46 4.01325 -0.173479 0
M  V30 18150 N 1721.67 2.80743 -0.750444 0
M  V30 18151 H 1721.21 2.174 -1.38184 0
M  V30 18152 H 1721.17 3.14361 0.0496746 0
M  V30 18153 N 1724.94 1.47523 0.554506 0
M  V30 18154 C 1725.87 1.56275 1.67663 0
M  V30 18155 C 1726.89 0.448743 1.56493 0
M  V30 18156 O 1728.08 0.718478 1.63402 0
M  V30 18157 C 1725.18 1.45348 3.06149 0
M  V30 18158 C 1724.35 2.71364 3.43046 0
M  V30 18159 C 1723.41 2.54237 4.60706 0
M  V30 18160 O 1722.43 3.28059 4.65152 0
M  V30 18161 N 1723.64 1.6224 5.57367 0
M  V30 18162 H 1726.4 2.53036 1.60601 0
M  V30 18163 H 1723.96 1.43936 0.741209 0
M  V30 18164 H 1725.95 1.31621 3.82698 0
M  V30 18165 H 1724.52 0.566583 3.07423 0
M  V30 18166 H 1723.74 2.99833 2.55917 0
M  V30 18167 H 1725.03 3.55017 3.64473 0
M  V30 18168 H 1724.43 1.01419 5.56534 0
M  V30 18169 H 1722.99 1.54463 6.33233 0
M  V30 18170 N 1726.42 -0.801453 1.357 0
M  V30 18171 C 1727.37 -1.93495 1.29083 0
M  V30 18172 C 1728.36 -1.68389 0.184806 0
M  V30 18173 O 1729.57 -1.76543 0.351097 0
M  V30 18174 H 1725.94 -0.635809 0.40156 0
M  V30 18175 H 1727.91 -1.96195 2.24833 0
M  V30 18176 C 1726.66 -3.30342 1.08487 0
M  V30 18177 H 1725.99 -3.50221 1.92835 0
M  V30 18178 H 1727.43 -4.10041 1.079 0
M  V30 18179 C 1725.89 -3.36238 -0.211057 0
M  V30 18180 O 1726.42 -3.83198 -1.20508 0
M  V30 18181 N 1724.62 -2.89509 -0.251599 0
M  V30 18182 H 1724.17 -2.51486 0.557916 0
M  V30 18183 H 1724.13 -2.93836 -1.11839 0
M  V30 18184 N 1727.9 -1.19782 -1.02421 0
M  V30 18185 C 1729.31 -0.951034 -1.2817 0
M  V30 18186 C 1729.51 0.373883 -1.98001 0
M  V30 18187 O 1728.57 1.10427 -2.27073 0
M  V30 18188 C 1729.88 -2.12833 -2.12421 0
M  V30 18189 C 1731.43 -2.16847 -2.25713 0
M  V30 18190 C 1731.91 -3.34041 -3.13337 0
M  V30 18191 N 1733.4 -3.34007 -3.20926 0
M  V30 18192 C 1734.13 -4.21333 -3.88929 0
M  V30 18193 N 1733.63 -5.18823 -4.59123 0
M  V30 18194 N 1735.42 -4.09197 -3.85376 0
M  V30 18195 H 1727.57 -2.05017 -0.555122 0
M  V30 18196 H 1729.84 -0.896717 -0.307576 0
M  V30 18197 H 1729.54 -3.08742 -1.68437 0
M  V30 18198 H 1729.42 -2.10288 -3.13143 0
M  V30 18199 H 1731.8 -1.21506 -2.68924 0
M  V30 18200 H 1731.88 -2.23444 -1.24525 0
M  V30 18201 H 1731.53 -4.29665 -2.70833 0
M  V30 18202 H 1731.46 -3.24682 -4.14595 0
M  V30 18203 H 1733.95 -2.63441 -2.70938 0
M  V30 18204 H 1734.26 -5.81796 -5.08658 0
M  V30 18205 H 1732.61 -5.22767 -4.57973 0
M  V30 18206 H 1735.8 -3.32308 -3.2968 0
M  V30 18207 H 1735.97 -4.77465 -4.38099 0
M  V30 18208 N 1729.38 1.21606 -1.00248 0
M  V30 18209 C 1730.29 2.2757 -0.570004 0
M  V30 18210 C 1731.3 1.69669 0.385788 0
M  V30 18211 O 1732.48 1.99839 0.250246 0
M  V30 18212 C 1729.54 3.46558 0.0990566 0
M  V30 18213 C 1728.61 4.19741 -0.9009 0
M  V30 18214 C 1727.84 5.33048 -0.263673 0
M  V30 18215 O 1728.06 5.62599 0.940131 0
M  V30 18216 O 1727 5.93978 -0.973342 0
M  V30 18217 H 1730.82 2.66751 -1.45182 0
M  V30 18218 H 1728.41 1.27955 -0.771224 0
M  V30 18219 H 1730.29 4.18733 0.47339 0
M  V30 18220 H 1728.96 3.09283 0.955285 0
M  V30 18221 H 1727.87 3.49798 -1.32634 0
M  V30 18222 H 1729.2 4.60921 -1.72664 0
M  V30 18223 N 1730.86 0.776895 1.37121 0
M  V30 18224 C 1732.1 0.340209 1.9881 0
M  V30 18225 C 1732.42 -1.09071 1.62367 0
M  V30 18226 O 1733.62 -1.62904 2.17197 0
M  V30 18227 C 1732.08 0.557325 3.55559 0
M  V30 18228 C 1731.69 1.99884 4.00937 0
M  V30 18229 C 1733.43 0.184519 4.24099 0
M  V30 18230 C 1731.34 2.16328 5.50415 0
M  V30 18231 H 1730.27 0.12346 0.743824 0
M  V30 18232 H 1732.92 0.956754 1.56584 0
M  V30 18233 H 1731.3 -0.128752 3.95791 0
M  V30 18234 H 1732.48 2.72029 3.71937 0
M  V30 18235 H 1730.79 2.32872 3.45195 0
M  V30 18236 H 1733.39 0.285827 5.33935 0
M  V30 18237 H 1733.73 -0.865859 4.07196 0
M  V30 18238 H 1734.26 0.823343 3.89186 0
M  V30 18239 H 1731 3.19703 5.7225 0
M  V30 18240 H 1730.52 1.48673 5.81082 0
M  V30 18241 H 1732.2 1.96437 6.16459 0
M  V30 18242 N 1732.33 -1.48497 0.527859 0
M  V30 18243 C 1733.26 -2.32414 -0.224891 0
M  V30 18244 C 1734.24 -1.41959 -0.93711 0
M  V30 18245 O 1735.43 -1.70847 -0.923302 0
M  V30 18246 C 1732.56 -3.23106 -1.27356 0
M  V30 18247 C 1731.51 -4.2257 -0.679611 0
M  V30 18248 C 1730.84 -5.02381 -1.83077 0
M  V30 18249 C 1732.14 -5.21144 0.347269 0
M  V30 18250 H 1733.83 -2.95598 0.475632 0
M  V30 18251 H 1731.38 -1.42148 0.230182 0
M  V30 18252 H 1733.33 -3.80639 -1.8081 0
M  V30 18253 H 1732.06 -2.57919 -2.00363 0
M  V30 18254 H 1730.72 -3.66221 -0.166608 0
M  V30 18255 H 1730.36 -4.3362 -2.54918 0
M  V30 18256 H 1730.06 -5.697 -1.43929 0
M  V30 18257 H 1731.59 -5.62765 -2.36914 0
M  V30 18258 H 1733 -5.73213 -0.100107 0
M  V30 18259 H 1731.4 -5.96503 0.656021 0
M  V30 18260 H 1732.47 -4.6841 1.25379 0
M  V30 18261 N 1733.81 -0.262893 -1.55392 0
M  V30 18262 C 1734.76 0.645946 -2.23451 0
M  V30 18263 C 1735.75 1.16753 -1.2274 0
M  V30 18264 O 1736.96 1.12257 -1.40706 0
M  V30 18265 H 1733.33 0.226829 -0.716975 0
M  V30 18266 H 1735.31 0.0489539 -2.9836 0
M  V30 18267 C 1734.05 1.82451 -2.95985 0
M  V30 18268 H 1733.38 1.43233 -3.73262 0
M  V30 18269 H 1734.82 2.43731 -3.46945 0
M  V30 18270 C 1733.28 2.7055 -2.0076 0
M  V30 18271 O 1733.81 3.70552 -1.55093 0
M  V30 18272 N 1732.01 2.37457 -1.67519 0
M  V30 18273 H 1731.56 1.56184 -2.04852 0
M  V30 18274 H 1731.52 2.96675 -1.04074 0
M  V30 18275 N 1735.29 1.57597 0.0100073 0
M  V30 18276 C 1736.51 1.94801 0.711852 0
M  V30 18277 C 1736.94 0.864343 1.67065 0
M  V30 18278 O 1736.3 -0.178388 1.8042 0
M  V30 18279 C 1736.35 3.31094 1.42862 0
M  V30 18280 O 1735.45 3.2469 2.54264 0
M  V30 18281 H 1734.79 0.636207 0.190095 0
M  V30 18282 H 1737.32 2.04561 -0.0402016 0
M  V30 18283 H 1737.33 3.66428 1.79429 0
M  V30 18284 H 1736.01 4.09522 0.725549 0
M  V30 18285 H 1734.58 3.01017 2.20099 0
M  V30 18286 N 1736.77 -0.282606 1.55045 0
M  V30 18287 C 1737.7 -1.35347 1.90272 0
M  V30 18288 C 1738.68 -1.52001 0.763532 0
M  V30 18289 O 1739.86 -1.65204 1.02085 0
M  V30 18290 C 1736.99 -2.71464 2.16621 0
M  V30 18291 C 1735.95 -2.69554 3.32453 0
M  V30 18292 C 1735.27 -4.09132 3.4426 0
M  V30 18293 C 1736.57 -2.29669 4.69094 0
M  V30 18294 H 1738.27 -1.06113 2.79965 0
M  V30 18295 H 1735.81 -0.509018 1.34703 0
M  V30 18296 H 1737.77 -3.46482 2.39851 0
M  V30 18297 H 1736.49 -3.02261 1.23717 0
M  V30 18298 H 1735.15 -1.96993 3.09175 0
M  V30 18299 H 1734.8 -4.37136 2.4884 0
M  V30 18300 H 1734.5 -4.08751 4.22133 0
M  V30 18301 H 1736.02 -4.85903 3.69771 0
M  V30 18302 H 1737.44 -2.94407 4.91932 0
M  V30 18303 H 1735.83 -2.40467 5.49814 0
M  V30 18304 H 1736.9 -1.24796 4.68566 0
M  V30 18305 N 1738.25 -1.47815 -0.546675 0
M  V30 18306 C 1739.52 -1.45464 -1.30765 0
M  V30 18307 C 1739.9 -0.157249 -2.10514 0
M  V30 18308 O 1739.25 0.861203 -2.1165 0
M  V30 18309 C 1739.46 -2.70661 -2.20326 0
M  V30 18310 C 1740.81 -3.18309 -2.81007 0
M  V30 18311 O 1741.83 -2.71462 -2.30623 0
M  V30 18312 O 1740.69 -3.9978 -3.7261 0
M  V30 18313 H 1737.79 -0.580175 -0.589343 0
M  V30 18314 H 1740.33 -1.60029 -0.564707 0
M  V30 18315 H 1739.1 -3.56612 -1.61069 0
M  V30 18316 H 1738.73 -2.58734 -3.01898 0
M  V30 18317 N 1739.72 0.794246 -1.36123 0
M  V30 18318 C 1740.67 1.90668 -1.30056 0
M  V30 18319 C 1741.64 1.65226 -0.170145 0
M  V30 18320 O 1742.83 1.87452 -0.355874 0
M  V30 18321 C 1739.97 3.27405 -1.09086 0
M  V30 18322 C 1739.08 3.64951 -2.31159 0
M  V30 18323 C 1738.21 4.90782 -2.0324 0
M  V30 18324 C 1737.25 5.20992 -3.21301 0
M  V30 18325 N 1736.39 6.38005 -2.93078 0
M  V30 18326 H 1741.23 1.9519 -2.25178 0
M  V30 18327 H 1738.77 0.95458 -1.1192 0
M  V30 18328 H 1740.72 4.0625 -0.94956 0
M  V30 18329 H 1739.35 3.22319 -0.176211 0
M  V30 18330 H 1738.41 2.81268 -2.5611 0
M  V30 18331 H 1739.72 3.83228 -3.19277 0
M  V30 18332 H 1738.87 5.77481 -1.86012 0
M  V30 18333 H 1737.61 4.74565 -1.12426 0
M  V30 18334 H 1736.62 4.32777 -3.39093 0
M  V30 18335 H 1737.84 5.39131 -4.12934 0
M  V30 18336 H 1735.79 6.23189 -2.0487 0
M  V30 18337 H 1735.7 6.56591 -3.74733 0
M  V30 18338 H 1736.97 7.27699 -2.79418 0
M  V30 18339 N 1741.2 1.20323 1.01785 0
M  V30 18340 C 1742.11 0.966603 2.13761 0
M  V30 18341 C 1743.13 -0.0771059 1.73829 0
M  V30 18342 O 1744.3 0.110054 2.01099 0
M  V30 18343 C 1741.37 0.520405 3.42772 0
M  V30 18344 C 1740.43 1.63482 3.96954 0
M  V30 18345 C 1739.66 1.20981 5.19807 0
M  V30 18346 O 1739.89 0.0779814 5.70347 0
M  V30 18347 O 1738.82 2.01674 5.67108 0
M  V30 18348 H 1742.65 1.90414 2.36593 0
M  V30 18349 H 1740.23 0.986997 1.12155 0
M  V30 18350 H 1742.11 0.280747 4.20464 0
M  V30 18351 H 1740.79 -0.388563 3.21359 0
M  V30 18352 H 1739.69 1.92874 3.20547 0
M  V30 18353 H 1741.03 2.52074 4.22752 0
M  V30 18354 N 1742.68 -1.21073 1.00892 0
M  V30 18355 C 1743.64 -2.21804 0.577543 0
M  V30 18356 C 1744.64 -1.56985 -0.348201 0
M  V30 18357 O 1745.83 -1.73653 -0.137947 0
M  V30 18358 C 1742.96 -3.40535 -0.157685 0
M  V30 18359 H 1744.16 -2.61483 1.46856 0
M  V30 18360 H 1741.71 -1.34402 0.79786 0
M  V30 18361 H 1742.45 -3.0635 -1.06397 0
M  V30 18362 H 1742.23 -3.88805 0.507238 0
M  V30 18363 H 1743.72 -4.152 -0.447109 0
M  V30 18364 N 1744.16 -0.784156 -1.36707 0
M  V30 18365 C 1745.4 -0.354658 -1.99675 0
M  V30 18366 C 1745.74 1.06948 -1.62098 0
M  V30 18367 O 1745.01 1.73798 -0.873192 0
M  V30 18368 C 1745.3 -0.512421 -3.56435 0
M  V30 18369 C 1745.15 -1.97987 -4.03883 0
M  V30 18370 C 1746.47 0.075762 -4.40035 0
M  V30 18371 H 1743.59 -0.130338 -0.725383 0
M  V30 18372 H 1746.23 -0.989515 -1.62199 0
M  V30 18373 H 1744.38 0.0280323 -3.8849 0
M  V30 18374 H 1746.05 -2.58098 -3.82339 0
M  V30 18375 H 1744.29 -2.48433 -3.55617 0
M  V30 18376 H 1744.96 -2.04125 -5.12871 0
M  V30 18377 H 1747.44 -0.385522 -4.1431 0
M  V30 18378 H 1746.32 -0.0646832 -5.48862 0
M  V30 18379 H 1746.58 1.16735 -4.2641 0
M  V30 18380 N 1745.64 1.48215 -0.535727 0
M  V30 18381 C 1746.58 2.29711 0.223891 0
M  V30 18382 C 1747.55 1.37727 0.928471 0
M  V30 18383 O 1748.74 1.66691 0.928375 0
M  V30 18384 C 1745.88 3.21224 1.26131 0
M  V30 18385 C 1744.99 4.2829 0.564985 0
M  V30 18386 C 1744.13 5.06976 1.58583 0
M  V30 18387 C 1743.17 6.05838 0.873288 0
M  V30 18388 N 1742.3 6.77562 1.83994 0
M  V30 18389 H 1747.14 2.94154 -0.477242 0
M  V30 18390 H 1744.68 1.45008 -0.247186 0
M  V30 18391 H 1746.64 3.72685 1.87514 0
M  V30 18392 H 1745.27 2.58693 1.93075 0
M  V30 18393 H 1744.32 3.80051 -0.162916 0
M  V30 18394 H 1745.63 4.988 0.00578231 0
M  V30 18395 H 1744.79 5.6248 2.27379 0
M  V30 18396 H 1743.52 4.36319 2.17893 0
M  V30 18397 H 1742.53 5.49533 0.171286 0
M  V30 18398 H 1743.75 6.78497 0.286219 0
M  V30 18399 H 1741.7 6.09651 2.42202 0
M  V30 18400 H 1741.62 7.44167 1.33233 0
M  V30 18401 H 1742.89 7.37652 2.51971 0
M  V30 18402 N 1747.11 0.27113 1.5525 0
M  V30 18403 C 1748.02 -0.628245 2.26031 0
M  V30 18404 C 1749.04 -1.17339 1.28481 0
M  V30 18405 O 1750.22 -1.20453 1.61409 0
M  V30 18406 C 1747.28 -1.79766 2.96454 0
M  V30 18407 C 1746.34 -1.28958 4.09473 0
M  V30 18408 C 1745.58 -2.40326 4.76528 0
M  V30 18409 O 1745.8 -3.59595 4.42772 0
M  V30 18410 O 1744.73 -2.08708 5.64557 0
M  V30 18411 H 1748.56 -0.0549756 3.0365 0
M  V30 18412 H 1746.14 0.0386859 1.4935 0
M  V30 18413 H 1748.03 -2.4796 3.40725 0
M  V30 18414 H 1746.7 -2.35809 2.21756 0
M  V30 18415 H 1745.61 -0.57422 3.69667 0
M  V30 18416 H 1746.94 -0.774945 4.86061 0
M  V30 18417 N 1748.59 -1.576 -0.00164943 0
M  V30 18418 C 1749.87 -1.81716 -0.723788 0
M  V30 18419 C 1750.25 -0.875694 -1.9208 0
M  V30 18420 O 1749.6 0.0759629 -2.28374 0
M  V30 18421 C 1749.81 -3.30164 -1.13106 0
M  V30 18422 C 1751.16 -3.95859 -1.5356 0
M  V30 18423 O 1752.18 -3.34477 -1.2249 0
M  V30 18424 O 1751.04 -5.03986 -2.1133 0
M  V30 18425 H 1748.13 -0.748213 -0.352287 0
M  V30 18426 H 1750.68 -1.69683 0.0236782 0
M  V30 18427 H 1749.45 -3.90313 -0.277771 0
M  V30 18428 H 1749.07 -3.47188 -1.93768 0
M  V30 18429 N 1750.07 0.274379 -1.55193 0
M  V30 18430 C 1751.02 1.35903 -1.88767 0
M  V30 18431 C 1752.01 1.512 -0.763874 0
M  V30 18432 O 1753.22 1.53 -0.948201 0
M  V30 18433 H 1749.59 0.454495 -0.599114 0
M  V30 18434 H 1751.56 1.04837 -2.79378 0
M  V30 18435 C 1750.31 2.71277 -2.17496 0
M  V30 18436 H 1749.64 2.60297 -3.03456 0
M  V30 18437 H 1751.08 3.46115 -2.44909 0
M  V30 18438 C 1749.54 3.22268 -0.982101 0
M  V30 18439 O 1750.07 4.01119 -0.216035 0
M  V30 18440 N 1748.27 2.79931 -0.780179 0
M  V30 18441 H 1747.82 2.15923 -1.40482 0
M  V30 18442 H 1747.78 3.14396 0.0163297 0
M  V30 18443 N 1751.55 1.48103 0.538828 0
M  V30 18444 C 1752.48 1.64856 1.65363 0
M  V30 18445 C 1753.46 0.497579 1.6266 0
M  V30 18446 O 1754.64 0.729088 1.79994 0
M  V30 18447 C 1751.77 1.67984 3.03971 0
M  V30 18448 C 1750.73 2.82494 3.21529 0
M  V30 18449 C 1750.05 2.70706 4.6111 0
M  V30 18450 C 1751.35 4.23892 3.05145 0
M  V30 18451 H 1753.05 2.58183 1.51598 0
M  V30 18452 H 1750.59 1.24249 0.727886 0
M  V30 18453 H 1752.55 1.78294 3.81824 0
M  V30 18454 H 1751.27 0.712299 3.18738 0
M  V30 18455 H 1749.93 2.71725 2.46091 0
M  V30 18456 H 1749.58 1.7194 4.727 0
M  V30 18457 H 1749.28 3.47539 4.73804 0
M  V30 18458 H 1750.8 2.82971 5.41073 0
M  V30 18459 H 1752.22 4.3554 3.72797 0
M  V30 18460 H 1750.61 5.01654 3.29338 0
M  V30 18461 H 1751.68 4.40973 2.01671 0
M  V30 18462 N 1753.03 -0.787016 1.36542 0
M  V30 18463 C 1754.27 -1.54728 1.311 0
M  V30 18464 C 1754.61 -1.93895 -0.108853 0
M  V30 18465 O 1753.88 -1.62896 -1.06278 0
M  V30 18466 C 1754.16 -2.82272 2.23594 0
M  V30 18467 C 1754.02 -2.49457 3.74287 0
M  V30 18468 C 1755.34 -3.84112 2.14816 0
M  V30 18469 H 1752.45 -0.561347 0.477555 0
M  V30 18470 H 1755.1 -0.904027 1.67115 0
M  V30 18471 H 1753.25 -3.37163 1.93011 0
M  V30 18472 H 1754.92 -2.00599 4.15401 0
M  V30 18473 H 1753.16 -1.82366 3.93605 0
M  V30 18474 H 1753.83 -3.40563 4.3442 0
M  V30 18475 H 1756.31 -3.38674 2.41741 0
M  V30 18476 H 1755.18 -4.71101 2.817 0
M  V30 18477 H 1755.45 -4.2725 1.13621 0
M  V30 18478 N 1754.5 -1.20861 -1.01145 0
M  V30 18479 C 1755.45 -0.929642 -2.08187 0
M  V30 18480 C 1756.44 0.112578 -1.60506 0
M  V30 18481 O 1757.63 -0.0954894 -1.76742 0
M  V30 18482 C 1754.76 -0.489163 -3.39797 0
M  V30 18483 C 1753.85 -1.5651 -3.94164 0
M  V30 18484 N 1754.24 -2.7887 -4.21978 0
M  V30 18485 C 1752.53 -1.43246 -4.2237 0
M  V30 18486 C 1753.24 -3.48309 -4.65892 0
M  V30 18487 N 1752.21 -2.75734 -4.68478 0
M  V30 18488 H 1756.01 -1.85937 -2.27606 0
M  V30 18489 H 1753.53 -1.10338 -1.19161 0
M  V30 18490 H 1755.52 -0.27069 -4.1602 0
M  V30 18491 H 1754.18 0.433877 -3.21788 0
M  V30 18492 H 1755.2 -3.15473 -4.10727 0
M  V30 18493 H 1751.87 -0.57422 -4.13532 0
M  V30 18494 H 1753.26 -4.53042 -4.96188 0
M  V30 18495 N 1755.98 1.20536 -1.01532 0
M  V30 18496 C 1757.23 1.90431 -0.714682 0
M  V30 18497 C 1757.58 1.77289 0.747413 0
M  V30 18498 O 1756.88 1.1455 1.53587 0
M  V30 18499 C 1757.07 3.40578 -1.08358 0
M  V30 18500 C 1756.9 3.6833 -2.57999 0
M  V30 18501 C 1755.67 3.87115 -3.24762 0
M  V30 18502 C 1757.87 3.70996 -3.56183 0
M  V30 18503 N 1755.85 4.02375 -4.63646 0
M  V30 18504 C 1757.22 3.91664 -4.80624 0
M  V30 18505 C 1759.28 3.53953 -3.50174 0
M  V30 18506 C 1757.98 3.97056 -5.99782 0
M  V30 18507 C 1760 3.60615 -4.68733 0
M  V30 18508 C 1759.37 3.81755 -5.91982 0
M  V30 18509 H 1755.47 0.716554 -0.313169 0
M  V30 18510 H 1758.05 1.44951 -1.29989 0
M  V30 18511 H 1756.22 3.84812 -0.526718 0
M  V30 18512 H 1757.95 3.9794 -0.736599 0
M  V30 18513 H 1754.71 3.85444 -2.7519 0
M  V30 18514 H 1755.13 4.13884 -5.35751 0
M  V30 18515 H 1759.77 3.36576 -2.55883 0
M  V30 18516 H 1757.49 4.13229 -6.94455 0
M  V30 18517 H 1761.08 3.48737 -4.65697 0
M  V30 18518 H 1759.96 3.86768 -6.82188 0
M  V30 18519 N 1757.46 0.791395 1.36289 0
M  V30 18520 C 1758.37 0.192362 2.3381 0
M  V30 18521 C 1759.39 -0.656556 1.61138 0
M  V30 18522 O 1760.56 -0.571877 1.9311 0
M  V30 18523 C 1757.63 -0.661283 3.40335 0
M  V30 18524 C 1756.69 0.206361 4.28804 0
M  V30 18525 C 1755.92 -0.606636 5.30241 0
M  V30 18526 O 1756.14 -1.84247 5.39823 0
M  V30 18527 O 1755.08 -0.00549116 6.019 0
M  V30 18528 H 1758.9 0.998723 2.86809 0
M  V30 18529 H 1756.49 0.552889 1.38793 0
M  V30 18530 H 1758.37 -1.148 4.05461 0
M  V30 18531 H 1757.05 -1.4455 2.89632 0
M  V30 18532 H 1755.95 0.739877 3.66711 0
M  V30 18533 H 1757.29 0.954142 4.82863 0
M  V30 18534 N 1758.94 -1.47929 0.54358 0
M  V30 18535 C 1760.36 -1.58312 0.202376 0
M  V30 18536 C 1760.56 -1.54394 -1.29479 0
M  V30 18537 O 1759.61 -1.44015 -2.07403 0
M  V30 18538 C 1760.92 -2.89389 0.816958 0
M  V30 18539 C 1762.47 -3.02946 0.786935 0
M  V30 18540 C 1762.95 -4.36704 1.38034 0
M  V30 18541 N 1764.44 -4.43306 1.34291 0
M  V30 18542 C 1765.17 -5.45339 1.77182 0
M  V30 18543 N 1764.67 -6.54255 2.27866 0
M  V30 18544 N 1766.46 -5.36302 1.68336 0
M  V30 18545 H 1758.61 -1.48719 1.51646 0
M  V30 18546 H 1760.88 -0.706966 0.631587 0
M  V30 18547 H 1760.58 -2.97953 1.86861 0
M  V30 18548 H 1760.46 -3.75989 0.30198 0
M  V30 18549 H 1762.84 -2.93988 -0.25599 0
M  V30 18550 H 1762.92 -2.17923 1.33953 0
M  V30 18551 H 1762.57 -4.46418 2.42226 0
M  V30 18552 H 1762.5 -5.20437 0.803308 0
M  V30 18553 H 1764.99 -3.65185 0.972033 0
M  V30 18554 H 1765.3 -7.28265 2.58552 0
M  V30 18555 H 1763.65 -6.55181 2.31868 0
M  V30 18556 H 1766.84 -4.50109 1.28527 0
M  V30 18557 H 1767.01 -6.15684 2.02082 0
M  V30 18558 N 1760.42 -0.27936 -1.55104 0
M  V30 18559 C 1761.83 0.217569 -1.85428 0
M  V30 18560 C 1762.18 1.55117 -1.20138 0
M  V30 18561 O 1761.3 2.10751 -0.491229 0
M  V30 18562 C 1761.9 0.401547 -3.36412 0
M  V30 18563 C 1760.46 0.842706 -3.66845 0
M  V30 18564 C 1759.61 -0.0615565 -2.77232 0
M  V30 18565 H 1762.56 -0.501025 -1.50584 0
M  V30 18566 H 1762.58 1.23946 -3.59747 0
M  V30 18567 H 1762.09 -0.569224 -3.83903 0
M  V30 18568 H 1760.19 1.8248 -3.24857 0
M  V30 18569 H 1760.3 0.677088 -4.74291 0
M  V30 18570 H 1758.67 0.455486 -2.50594 0
M  V30 18571 H 1759.45 -1.02829 -3.27538 0
M  V30 18572 N 1761.9 1.57599 -0.0067085 0
M  V30 18573 C 1762.83 2.05706 1.01084 0
M  V30 18574 C 1763.84 0.976216 1.30284 0
M  V30 18575 O 1765.03 1.25288 1.27142 0
M  V30 18576 C 1762.13 2.44771 2.34393 0
M  V30 18577 C 1761.3 3.75668 2.24036 0
M  V30 18578 C 1760.36 4.01528 3.4009 0
M  V30 18579 O 1759.39 4.72101 3.17977 0
M  V30 18580 N 1760.59 3.49947 4.6316 0
M  V30 18581 H 1763.35 2.93622 0.600532 0
M  V30 18582 H 1760.92 1.6089 0.180536 0
M  V30 18583 H 1762.91 2.5918 3.10818 0
M  V30 18584 H 1761.48 1.62339 2.67142 0
M  V30 18585 H 1760.7 3.71272 1.3248 0
M  V30 18586 H 1761.99 4.6147 2.14295 0
M  V30 18587 H 1761.38 2.92811 4.84023 0
M  V30 18588 H 1759.94 3.69675 5.36828 0
M  V30 18589 N 1763.37 -0.266145 1.55336 0
M  V30 18590 C 1764.79 -0.613693 1.47329 0
M  V30 18591 C 1764.99 -1.89207 0.693038 0
M  V30 18592 O 1764.05 -2.51586 0.214642 0
M  V30 18593 C 1765.36 -0.734287 2.91597 0
M  V30 18594 C 1766.91 -0.82789 3.01853 0
M  V30 18595 C 1767.38 -0.980205 4.47388 0
M  V30 18596 N 1768.87 -1.04556 4.51245 0
M  V30 18597 C 1769.61 -1.18233 5.61078 0
M  V30 18598 N 1769.1 -1.28587 6.80762 0
M  V30 18599 N 1770.9 -1.21398 5.48834 0
M  V30 18600 H 1763.05 0.573316 2.04516 0
M  V30 18601 H 1765.31 0.195128 0.927701 0
M  V30 18602 H 1765.02 0.134714 3.51442 0
M  V30 18603 H 1764.89 -1.6124 3.41001 0
M  V30 18604 H 1767.28 -1.68735 2.421 0
M  V30 18605 H 1767.36 0.0749719 2.5569 0
M  V30 18606 H 1767 -0.125373 5.07745 0
M  V30 18607 H 1766.93 -1.89782 4.91213 0
M  V30 18608 H 1769.42 -0.977667 3.65034 0
M  V30 18609 H 1769.74 -1.38876 7.60219 0
M  V30 18610 H 1768.08 -1.25579 6.8356 0
M  V30 18611 H 1771.27 -1.12944 4.5427 0
M  V30 18612 H 1771.45 -1.31713 6.34473 0
M  V30 18613 N 1764.85 -1.48386 -0.530967 0
M  V30 18614 C 1766.26 -1.49904 -1.11291 0
M  V30 18615 C 1766.61 -0.268276 -1.94357 0
M  V30 18616 O 1765.74 0.624676 -2.07188 0
M  V30 18617 C 1766.33 -2.71622 -2.02501 0
M  V30 18618 C 1764.89 -2.76015 -2.55916 0
M  V30 18619 C 1764.04 -2.43403 -1.32855 0
M  V30 18620 H 1766.99 -1.55517 -0.316269 0
M  V30 18621 H 1767.01 -2.50084 -2.86772 0
M  V30 18622 H 1766.52 -3.61182 -1.42017 0
M  V30 18623 H 1764.62 -1.9066 -3.20124 0
M  V30 18624 H 1764.74 -3.77416 -2.95116 0
M  V30 18625 H 1763.1 -1.94537 -1.644 0
M  V30 18626 H 1763.88 -3.35202 -0.741242 0
M  V30 18627 N 1766.33 0.779763 -1.36958 0
M  V30 18628 C 1767.28 1.89278 -1.32071 0
M  V30 18629 C 1768.25 1.65037 -0.18766 0
M  V30 18630 O 1769.43 1.87064 -0.375736 0
M  V30 18631 C 1766.57 3.2623 -1.12552 0
M  V30 18632 C 1765.68 3.62479 -2.35017 0
M  V30 18633 C 1764.82 4.88599 -2.08434 0
M  V30 18634 C 1763.86 5.17555 -3.26808 0
M  V30 18635 N 1763 6.3486 -2.99828 0
M  V30 18636 H 1767.84 1.9279 -2.27235 0
M  V30 18637 H 1765.37 0.942656 -1.12927 0
M  V30 18638 H 1767.33 4.0522 -0.992595 0
M  V30 18639 H 1765.96 3.22114 -0.210387 0
M  V30 18640 H 1765.01 2.78536 -2.59079 0
M  V30 18641 H 1766.32 3.7982 -3.23324 0
M  V30 18642 H 1765.48 5.75476 -1.92127 0
M  V30 18643 H 1764.22 4.73346 -1.17453 0
M  V30 18644 H 1763.22 4.29156 -3.43664 0
M  V30 18645 H 1764.45 5.34721 -4.18629 0
M  V30 18646 H 1762.39 6.20981 -2.11468 0
M  V30 18647 H 1762.31 6.52579 -3.81676 0
M  V30 18648 H 1763.58 7.24695 -2.8712 0
M  V30 18649 N 1767.81 1.21396 1.00503 0
M  V30 18650 C 1768.77 0.974756 2.07439 0
M  V30 18651 C 1769.77 -0.0542142 1.60709 0
M  V30 18652 O 1770.96 0.183056 1.73236 0
M  V30 18653 C 1768.09 0.46989 3.37646 0
M  V30 18654 H 1769.29 1.92346 2.30094 0
M  V30 18655 H 1766.84 1.03095 1.17479 0
M  V30 18656 H 1767.57 -0.483735 3.20672 0
M  V30 18657 H 1767.36 1.2121 3.72895 0
M  V30 18658 H 1768.85 0.322393 4.16354 0
M  V30 18659 N 1769.29 -1.19996 1.0217 0
M  V30 18660 C 1770.7 -1.71202 0.744777 0
M  V30 18661 C 1771.05 -1.81862 -0.736238 0
M  V30 18662 O 1770.17 -1.48475 -1.5743 0
M  V30 18663 C 1770.77 -3.10945 1.34531 0
M  V30 18664 C 1769.33 -3.5944 1.11714 0
M  V30 18665 C 1768.47 -2.36501 1.44784 0
M  V30 18666 H 1771.42 -1.04938 1.19054 0
M  V30 18667 H 1771.45 -3.73264 0.738531 0
M  V30 18668 H 1770.96 -3.03154 2.42321 0
M  V30 18669 H 1769.06 -3.72556 0.0571346 0
M  V30 18670 H 1769.17 -4.43969 1.80079 0
M  V30 18671 H 1767.54 -2.3949 0.866981 0
M  V30 18672 H 1768.32 -2.31347 2.53641 0
M  V30 18673 N 1770.76 -0.798611 -1.35867 0
M  V30 18674 C 1772.01 -0.375816 -1.99287 0
M  V30 18675 C 1772.34 1.05223 -1.63223 0
M  V30 18676 O 1771.62 1.72862 -0.891576 0
M  V30 18677 C 1771.9 -0.550197 -3.55872 0
M  V30 18678 C 1771.75 -2.0226 -4.0176 0
M  V30 18679 C 1773.07 0.0290862 -4.4009 0
M  V30 18680 H 1770.19 -0.138024 -0.72396 0
M  V30 18681 H 1772.83 -1.00666 -1.61141 0
M  V30 18682 H 1770.98 -0.0131739 -3.88498 0
M  V30 18683 H 1772.66 -2.62139 -3.7958 0
M  V30 18684 H 1770.9 -2.52191 -3.52962 0
M  V30 18685 H 1771.57 -2.09553 -5.10678 0
M  V30 18686 H 1774.05 -0.429444 -4.13878 0
M  V30 18687 H 1772.92 -0.122894 -5.48762 0
M  V30 18688 H 1773.18 1.12206 -4.27624 0
M  V30 18689 N 1772.24 1.47639 -0.551417 0
M  V30 18690 C 1773.49 2.02084 -0.0251553 0
M  V30 18691 C 1773.81 1.42872 1.32713 0
M  V30 18692 O 1773.08 0.601794 1.86428 0
M  V30 18693 H 1771.66 0.746973 -0.00631005 0
M  V30 18694 H 1774.32 1.81109 -0.720113 0
M  V30 18695 H 1773.42 3.12028 0.0672608 0
M  V30 18696 N 1773.72 0.287581 1.54954 0
M  V30 18697 C 1774.67 -0.609238 2.1971 0
M  V30 18698 C 1775.65 -1.10905 1.16571 0
M  V30 18699 O 1776.85 -1.05206 1.4234 0
M  V30 18700 C 1773.98 -1.78705 2.9312 0
M  V30 18701 C 1773.06 -1.30383 4.0356 0
M  V30 18702 N 1773.45 -0.537641 5.02934 0
M  V30 18703 C 1771.75 -1.58573 4.16858 0
M  V30 18704 C 1772.45 -0.281993 5.81016 0
M  V30 18705 N 1771.43 -0.857984 5.36786 0
M  V30 18706 H 1775.23 -0.0161538 2.93896 0
M  V30 18707 H 1772.74 0.0917131 1.62141 0
M  V30 18708 H 1774.74 -2.44095 3.37969 0
M  V30 18709 H 1773.4 -2.38397 2.20448 0
M  V30 18710 H 1774.41 -0.183797 5.17574 0
M  V30 18711 H 1771.09 -2.1911 3.55383 0
M  V30 18712 H 1772.48 0.332479 6.71077 0
M  V30 18713 N 1775.2 -1.57593 0.0150662 0
M  V30 18714 C 1776.13 -2.12395 -0.970081 0
M  V30 18715 C 1777.11 -1.03666 -1.34861 0
M  V30 18716 O 1778.29 -1.31427 -1.4297 0
M  V30 18717 C 1775.42 -2.63958 -2.25707 0
M  V30 18718 C 1774.38 -3.77348 -2.01971 0
M  V30 18719 C 1773.7 -4.15284 -3.36814 0
M  V30 18720 C 1775 -5.04008 -1.37017 0
M  V30 18721 H 1776.7 -2.9496 -0.513731 0
M  V30 18722 H 1774.24 -1.41889 -0.245666 0
M  V30 18723 H 1776.2 -3.00927 -2.94993 0
M  V30 18724 H 1774.92 -1.78535 -2.73483 0
M  V30 18725 H 1773.58 -3.40795 -1.35107 0
M  V30 18726 H 1773.23 -3.26863 -3.82321 0
M  V30 18727 H 1772.93 -4.91686 -3.21744 0
M  V30 18728 H 1774.45 -4.54824 -4.07391 0
M  V30 18729 H 1775.87 -5.38652 -1.96282 0
M  V30 18730 H 1774.26 -5.85315 -1.32388 0
M  V30 18731 H 1775.33 -4.83698 -0.341281 0
M  V30 18732 N 1776.68 0.257904 -1.55475 0
M  V30 18733 C 1777.91 1.00385 -1.80572 0
M  V30 18734 C 1778.31 1.79866 -0.586915 0
M  V30 18735 O 1777.66 1.78008 0.453747 0
M  V30 18736 C 1777.72 1.99828 -2.98846 0
M  V30 18737 C 1777.38 1.39144 -4.35302 0
M  V30 18738 C 1778.38 0.799456 -5.13717 0
M  V30 18739 C 1776.07 1.4141 -4.81984 0
M  V30 18740 C 1778.06 0.238228 -6.36955 0
M  V30 18741 C 1775.75 0.849019 -6.05173 0
M  V30 18742 C 1776.74 0.262096 -6.82497 0
M  V30 18743 O 1776.43 -0.294292 -8.03361 0
M  V30 18744 H 1776.16 0.301552 -0.605014 0
M  V30 18745 H 1778.72 0.289436 -2.03351 0
M  V30 18746 H 1776.95 2.7507 -2.71797 0
M  V30 18747 H 1778.64 2.60675 -3.11133 0
M  V30 18748 H 1779.4 0.774531 -4.78776 0
M  V30 18749 H 1775.28 1.86032 -4.21797 0
M  V30 18750 H 1778.83 -0.220518 -6.97251 0
M  V30 18751 H 1774.72 0.871235 -6.39593 0
M  V30 18752 H 1775.49 -0.185098 -8.18291 0
M  V30 18753 N 1778.15 1.48666 0.52309 0
M  V30 18754 C 1779.09 1.59796 1.64311 0
M  V30 18755 C 1780.1 0.481836 1.55506 0
M  V30 18756 O 1781.29 0.752977 1.61841 0
M  V30 18757 C 1778.39 1.5181 3.02997 0
M  V30 18758 C 1777.56 2.7858 3.37212 0
M  V30 18759 C 1776.62 2.63952 4.5521 0
M  V30 18760 O 1775.65 3.37851 4.58088 0
M  V30 18761 N 1776.85 1.74026 5.53801 0
M  V30 18762 H 1779.61 2.56386 1.55197 0
M  V30 18763 H 1777.17 1.45476 0.710511 0
M  V30 18764 H 1779.17 1.39709 3.7982 0
M  V30 18765 H 1777.74 0.631664 3.06152 0
M  V30 18766 H 1776.96 3.05194 2.495 0
M  V30 18767 H 1778.24 3.62668 3.56861 0
M  V30 18768 H 1777.64 1.13202 5.54258 0
M  V30 18769 H 1776.2 1.6786 6.29814 0
M  V30 18770 N 1779.63 -0.772489 1.37369 0
M  V30 18771 C 1780.86 -1.56158 1.35729 0
M  V30 18772 C 1781.28 -1.88712 -0.0575274 0
M  V30 18773 O 1780.63 -1.51395 -1.01911 0
M  V30 18774 C 1780.68 -2.87231 2.19501 0
M  V30 18775 O 1780.4 -2.56072 3.5547 0
M  V30 18776 C 1781.91 -3.81464 2.25831 0
M  V30 18777 H 1779.13 -0.483803 0.464947 0
M  V30 18778 H 1781.67 -0.957502 1.80699 0
M  V30 18779 H 1779.82 -3.44063 1.78042 0
M  V30 18780 H 1780.24 -3.40002 3.99373 0
M  V30 18781 H 1781.71 -4.70442 2.8877 0
M  V30 18782 H 1782.19 -4.20542 1.26653 0
M  V30 18783 H 1782.8 -3.30561 2.67599 0
M  V30 18784 N 1781.11 -1.21927 -0.998575 0
M  V30 18785 C 1782.04 -0.942076 -2.08944 0
M  V30 18786 C 1783.06 0.0771683 -1.62617 0
M  V30 18787 O 1784.24 -0.156133 -1.77816 0
M  V30 18788 C 1781.34 -0.394201 -3.366 0
M  V30 18789 C 1780.52 -1.46931 -4.11983 0
M  V30 18790 C 1779.58 -0.929531 -5.17925 0
M  V30 18791 O 1778.6 -1.61444 -5.45824 0
M  V30 18792 N 1779.8 0.251965 -5.79953 0
M  V30 18793 H 1782.57 -1.88119 -2.33306 0
M  V30 18794 H 1780.13 -1.12539 -1.16389 0
M  V30 18795 H 1782.12 -0.0185416 -4.04696 0
M  V30 18796 H 1780.69 0.449884 -3.09346 0
M  V30 18797 H 1779.91 -2.01854 -3.38598 0
M  V30 18798 H 1781.2 -2.19284 -4.59121 0
M  V30 18799 H 1780.6 0.825333 -5.59647 0
M  V30 18800 H 1779.16 0.569068 -6.49311 0
M  V30 18801 N 1782.59 1.19452 -1.02805 0
M  V30 18802 C 1783.55 2.20857 -0.612757 0
M  V30 18803 C 1784.55 1.57519 0.323182 0
M  V30 18804 O 1785.74 1.7385 0.110303 0
M  V30 18805 C 1782.87 3.40743 0.103488 0
M  V30 18806 H 1784.07 2.59113 -1.50998 0
M  V30 18807 H 1781.62 1.33116 -0.819142 0
M  V30 18808 H 1782.35 3.08004 1.0151 0
M  V30 18809 H 1782.14 3.87949 -0.56903 0
M  V30 18810 H 1783.63 4.15858 0.380998 0
M  V30 18811 N 1784.07 0.805805 1.35442 0
M  V30 18812 C 1785.48 0.446863 1.81273 0
M  V30 18813 C 1785.83 -1.03104 1.66925 0
M  V30 18814 O 1784.95 -1.80117 1.19945 0
M  V30 18815 C 1785.55 0.80433 3.29114 0
M  V30 18816 C 1784.11 0.497997 3.73091 0
M  V30 18817 C 1783.25 1.03035 2.57447 0
M  V30 18818 H 1786.21 0.997517 1.23431 0
M  V30 18819 H 1786.23 0.101559 3.80364 0
M  V30 18820 H 1785.74 1.88001 3.39525 0
M  V30 18821 H 1783.84 -0.568982 3.6823 0
M  V30 18822 H 1783.95 1.03008 4.67896 0
M  V30 18823 H 1782.32 0.452716 2.50644 0
M  V30 18824 H 1783.1 2.11213 2.70636 0
M  V30 18825 N 1785.54 -1.47344 0.559239 0
M  V30 18826 C 1786.77 -2.07364 0.0388864 0
M  V30 18827 C 1787.19 -1.40886 -1.2463 0
M  V30 18828 O 1786.55 -0.48454 -1.74705 0
M  V30 18829 C 1786.6 -3.60336 -0.137894 0
M  V30 18830 O 1785.7 -3.94555 -1.2 0
M  V30 18831 H 1785.05 -0.661942 0.0522363 0
M  V30 18832 H 1787.58 -1.89333 0.7755 0
M  V30 18833 H 1787.59 -4.06483 -0.351462 0
M  V30 18834 H 1786.26 -4.08118 0.800776 0
M  V30 18835 H 1784.84 -3.6015 -0.966757 0
M  V30 18836 N 1787.02 -0.295795 -1.54799 0
M  V30 18837 C 1787.99 0.569699 -2.22007 0
M  V30 18838 C 1788.99 1.06535 -1.20445 0
M  V30 18839 O 1790.18 0.962212 -1.45214 0
M  V30 18840 C 1787.31 1.78821 -2.90234 0
M  V30 18841 H 1788.5 -0.0174148 -2.99895 0
M  V30 18842 H 1786.05 -0.0465813 -1.56231 0
M  V30 18843 H 1786.79 2.4153 -2.16412 0
M  V30 18844 H 1786.57 1.44051 -3.6468 0
M  V30 18845 H 1788.06 2.40321 -3.41519 0
M  V30 18846 N 1788.5 1.57583 -0.0234236 0
M  V30 18847 C 1789.41 2.13328 0.976138 0
M  V30 18848 C 1790.43 1.08414 1.36097 0
M  V30 18849 O 1791.6 1.40441 1.44354 0
M  V30 18850 C 1788.67 2.64469 2.24181 0
M  V30 18851 C 1787.73 3.84076 1.91793 0
M  V30 18852 C 1786.96 4.32768 3.12326 0
M  V30 18853 O 1787.19 3.80663 4.24797 0
M  V30 18854 O 1786.12 5.24676 2.94956 0
M  V30 18855 H 1789.95 2.99001 0.532166 0
M  V30 18856 H 1787.53 1.48098 0.196838 0
M  V30 18857 H 1789.41 2.97456 2.98492 0
M  V30 18858 H 1788.09 1.81881 2.6777 0
M  V30 18859 H 1786.99 3.56023 1.14883 0
M  V30 18860 H 1788.33 4.67808 1.53024 0
M  V30 18861 N 1789.98 -0.249655 1.5561 0
M  V30 18862 C 1791.23 -0.979529 1.77576 0
M  V30 18863 C 1791.56 -1.85078 0.588198 0
M  V30 18864 O 1790.83 -1.90052 -0.4136 0
M  V30 18865 C 1791.12 -1.84238 3.094 0
M  V30 18866 C 1790.97 -0.9995 4.38554 0
M  V30 18867 C 1792.29 -2.82536 3.37433 0
M  V30 18868 H 1789.41 -0.354681 0.646042 0
M  V30 18869 H 1792.05 -0.250224 1.88345 0
M  V30 18870 H 1790.2 -2.46419 3.0035 0
M  V30 18871 H 1791.87 -0.396599 4.59592 0
M  V30 18872 H 1790.11 -0.30376 4.32735 0
M  V30 18873 H 1790.79 -1.63697 5.27169 0
M  V30 18874 H 1793.26 -2.30491 3.46429 0
M  V30 18875 H 1792.14 -3.40033 4.30893 0
M  V30 18876 H 1792.4 -3.58859 2.58211 0
M  V30 18877 N 1791.46 -1.48941 -0.515198 0
M  V30 18878 C 1792.37 -1.67271 -1.64492 0
M  V30 18879 C 1793.38 -0.555222 -1.64904 0
M  V30 18880 O 1794.56 -0.828161 -1.83585 0
M  V30 18881 C 1791.62 -1.722 -3.00912 0
M  V30 18882 C 1790.69 -2.95683 -3.11239 0
M  V30 18883 C 1789.92 -3.00368 -4.41152 0
M  V30 18884 O 1790.14 -2.13041 -5.29122 0
M  V30 18885 O 1789.08 -3.92691 -4.56155 0
M  V30 18886 H 1792.9 -2.62947 -1.51962 0
M  V30 18887 H 1790.49 -1.32515 -0.68993 0
M  V30 18888 H 1792.37 -1.77877 -3.82018 0
M  V30 18889 H 1791.04 -0.796995 -3.13735 0
M  V30 18890 H 1789.95 -2.95531 -2.29374 0
M  V30 18891 H 1791.28 -3.87617 -3.03338 0
M  V30 18892 N 1792.94 0.765193 -1.37777 0
M  V30 18893 C 1793.87 1.88621 -1.28442 0
M  V30 18894 C 1794.85 1.61774 -0.16367 0
M  V30 18895 O 1796.03 1.85427 -0.339007 0
M  V30 18896 C 1793.16 3.23987 -0.987421 0
M  V30 18897 C 1792.2 3.69737 -2.12596 0
M  V30 18898 S 1793.04 3.82637 -3.74632 0
M  V30 18899 C 1794.19 5.20841 -3.47096 0
M  V30 18900 H 1794.43 1.96251 -2.23322 0
M  V30 18901 H 1791.96 0.926976 -1.23477 0
M  V30 18902 H 1793.92 4.02168 -0.822893 0
M  V30 18903 H 1792.58 3.1405 -0.0559964 0
M  V30 18904 H 1791.77 4.67892 -1.87332 0
M  V30 18905 H 1791.37 2.98677 -2.25096 0
M  V30 18906 H 1793.66 6.06222 -3.02491 0
M  V30 18907 H 1794.61 5.5112 -4.44603 0
M  V30 18908 H 1795.02 4.89089 -2.81873 0
M  V30 18909 N 1794.41 1.22455 0.992094 0
M  V30 18910 C 1795.64 1.07594 1.76723 0
M  V30 18911 C 1796.06 -0.37345 1.8507 0
M  V30 18912 O 1795.41 -1.25876 1.32142 0
M  V30 18913 C 1795.46 1.68178 3.19998 0
M  V30 18914 O 1795.19 3.07447 3.12102 0
M  V30 18915 C 1796.69 1.58602 4.13957 0
M  V30 18916 H 1793.91 0.377148 0.554978 0
M  V30 18917 H 1796.45 1.62065 1.24721 0
M  V30 18918 H 1794.61 1.17768 3.69066 0
M  V30 18919 H 1795.02 3.36641 4.0221 0
M  V30 18920 H 1796.49 2.05714 5.12236 0
M  V30 18921 H 1796.97 0.542712 4.35834 0
M  V30 18922 H 1797.58 2.08321 3.70786 0
M  V30 18923 N 1795.89 -1.18905 1.03437 0
M  V30 18924 C 1797.12 -1.93219 0.753743 0
M  V30 18925 C 1797.54 -1.75299 -0.682055 0
M  V30 18926 O 1796.9 -1.05892 -1.47161 0
M  V30 18927 C 1796.95 -3.42864 1.117 0
M  V30 18928 O 1796.05 -4.11708 0.238816 0
M  V30 18929 H 1795.39 -0.603015 0.277973 0
M  V30 18930 H 1797.92 -1.50823 1.38252 0
M  V30 18931 H 1797.93 -3.9355 1.07623 0
M  V30 18932 H 1796.61 -3.55228 2.163 0
M  V30 18933 H 1795.18 -3.71359 0.338652 0
M  V30 18934 N 1797.37 -0.812977 -1.35013 0
M  V30 18935 C 1798.6 -0.408421 -2.02523 0
M  V30 18936 C 1799.01 0.987315 -1.61396 0
M  V30 18937 O 1798.35 1.64865 -0.810251 0
M  V30 18938 C 1798.41 -0.419647 -3.57042 0
M  V30 18939 C 1798.08 -1.767 -4.21457 0
M  V30 18940 C 1799.07 -2.7263 -4.42684 0
M  V30 18941 C 1796.76 -2.05275 -4.5844 0
M  V30 18942 C 1798.75 -3.95315 -5.00004 0
M  V30 18943 C 1796.44 -3.28223 -5.15473 0
M  V30 18944 C 1797.44 -4.23061 -5.36198 0
M  V30 18945 O 1797.13 -5.43837 -5.92027 0
M  V30 18946 H 1796.86 -0.163311 -0.655977 0
M  V30 18947 H 1799.41 -1.09974 -1.73479 0
M  V30 18948 H 1797.64 0.328309 -3.85304 0
M  V30 18949 H 1799.33 -0.0365204 -4.05884 0
M  V30 18950 H 1800.1 -2.51846 -4.14486 0
M  V30 18951 H 1795.98 -1.32265 -4.41619 0
M  V30 18952 H 1799.52 -4.69351 -5.16097 0
M  V30 18953 H 1795.42 -3.48874 -5.43099 0
M  V30 18954 H 1796.18 -5.45221 -6.10472 0
M  V30 18955 N 1798.85 1.47045 -0.567045 0
M  V30 18956 C 1800.09 2.02746 -0.046749 0
M  V30 18957 C 1800.43 1.4394 1.30364 0
M  V30 18958 O 1799.7 0.598616 1.85059 0
M  V30 18959 C 1799.98 3.60082 0.0358156 0
M  V30 18960 C 1799.84 4.29302 -1.34237 0
M  V30 18961 C 1801.16 4.3376 0.744338 0
M  V30 18962 H 1798.28 0.736769 -0.0184627 0
M  V30 18963 H 1800.92 1.75365 -0.73123 0
M  V30 18964 H 1799.07 3.83541 0.618745 0
M  V30 18965 H 1800.74 4.17155 -1.96926 0
M  V30 18966 H 1798.98 3.89273 -1.91439 0
M  V30 18967 H 1799.65 5.37956 -1.23722 0
M  V30 18968 H 1802.13 4.15353 0.249287 0
M  V30 18969 H 1801.01 5.43457 0.771095 0
M  V30 18970 H 1801.27 4.03686 1.80249 0
M  V30 18971 N 1800.33 0.304 1.5464 0
M  V30 18972 C 1801.26 -0.563854 2.2659 0
M  V30 18973 C 1802.24 -1.13547 1.26653 0
M  V30 18974 O 1803.42 -1.16425 1.55431 0
M  V30 18975 C 1800.55 -1.73437 3.00894 0
M  V30 18976 C 1799.51 -1.29297 4.08003 0
M  V30 18977 C 1798.83 -2.54888 4.70038 0
M  V30 18978 C 1800.13 -0.422027 5.20592 0
M  V30 18979 H 1801.83 0.0362569 2.99378 0
M  V30 18980 H 1799.37 0.0188781 1.43988 0
M  V30 18981 H 1801.32 -2.34762 3.4995 0
M  V30 18982 H 1800.05 -2.36076 2.25689 0
M  V30 18983 H 1798.71 -0.702757 3.59801 0
M  V30 18984 H 1798.36 -3.15848 3.9147 0
M  V30 18985 H 1798.06 -2.26054 5.42378 0
M  V30 18986 H 1799.58 -3.17011 5.21859 0
M  V30 18987 H 1800.99 -0.941036 5.65524 0
M  V30 18988 H 1799.39 -0.227323 5.99669 0
M  V30 18989 H 1800.46 0.55212 4.81746 0
M  V30 18990 N 1801.8 -1.57568 0.0317802 0
M  V30 18991 C 1802.73 -2.13412 -0.947499 0
M  V30 18992 C 1803.71 -1.05091 -1.33753 0
M  V30 18993 O 1804.9 -1.32936 -1.41568 0
M  V30 18994 C 1802.03 -2.66337 -2.22895 0
M  V30 18995 C 1800.98 -3.79469 -1.97958 0
M  V30 18996 C 1800.31 -4.18833 -3.3239 0
M  V30 18997 C 1801.61 -5.05432 -1.31664 0
M  V30 18998 H 1803.3 -2.95488 -0.482417 0
M  V30 18999 H 1800.85 -1.42142 -0.230603 0
M  V30 19000 H 1802.8 -3.04039 -2.91784 0
M  V30 19001 H 1801.53 -1.81426 -2.71574 0
M  V30 19002 H 1800.19 -3.42209 -1.31485 0
M  V30 19003 H 1799.83 -3.30899 -3.78833 0
M  V30 19004 H 1799.53 -4.95071 -3.16511 0
M  V30 19005 H 1801.06 -4.5912 -4.02544 0
M  V30 19006 H 1802.47 -5.40704 -1.90558 0
M  V30 19007 H 1800.87 -5.86686 -1.26173 0
M  V30 19008 H 1801.94 -4.84032 -0.28996 0
M  V30 19009 N 1803.28 0.241399 -1.5574 0
M  V30 19010 C 1804.25 1.28236 -1.89969 0
M  V30 19011 C 1805.25 1.40804 -0.776582 0
M  V30 19012 O 1806.44 1.3941 -1.04453 0
M  V30 19013 C 1803.57 2.65926 -2.13299 0
M  V30 19014 H 1804.76 0.991011 -2.83053 0
M  V30 19015 H 1802.31 0.480939 -1.48717 0
M  V30 19016 H 1803.05 3.00192 -1.22701 0
M  V30 19017 H 1802.83 2.58184 -2.95099 0
M  V30 19018 H 1804.32 3.4108 -2.40944 0
M  V30 19019 N 1804.76 1.49212 0.507292 0
M  V30 19020 C 1805.99 1.61845 1.28412 0
M  V30 19021 C 1806.4 0.286619 1.87016 0
M  V30 19022 O 1805.74 -0.737169 1.6826 0
M  V30 19023 C 1805.8 2.62374 2.45764 0
M  V30 19024 C 1805.47 4.06882 2.08077 0
M  V30 19025 C 1806.46 4.93879 1.62418 0
M  V30 19026 C 1804.15 4.52574 2.17904 0
M  V30 19027 C 1806.14 6.24603 1.27082 0
M  V30 19028 C 1803.83 5.83313 1.8218 0
M  V30 19029 C 1804.83 6.69151 1.36843 0
M  V30 19030 O 1804.52 7.97454 1.01598 0
M  V30 19031 H 1804.25 0.547926 0.395921 0
M  V30 19032 H 1806.8 1.95937 0.616255 0
M  V30 19033 H 1805.03 2.23449 3.15606 0
M  V30 19034 H 1806.72 2.64603 3.07799 0
M  V30 19035 H 1807.49 4.59808 1.54277 0
M  V30 19036 H 1803.37 3.85932 2.52146 0
M  V30 19037 H 1806.91 6.91557 0.91623 0
M  V30 19038 H 1802.81 6.16913 1.89969 0
M  V30 19039 H 1803.58 8.10409 1.148 0
M  V30 19040 N 1806.24 -0.757876 1.38181 0
M  V30 19041 C 1807.17 -1.88519 1.37779 0
M  V30 19042 C 1808.15 -1.68336 0.24432 0
M  V30 19043 O 1809.33 -1.88991 0.446762 0
M  V30 19044 C 1806.46 -3.2599 1.19784 0
M  V30 19045 C 1805.42 -3.60764 2.30289 0
M  V30 19046 C 1804.74 -4.96927 1.97403 0
M  V30 19047 C 1806.04 -3.66082 3.72533 0
M  V30 19048 H 1807.74 -1.89112 2.32114 0
M  V30 19049 H 1805.28 -0.908442 1.11729 0
M  V30 19050 H 1807.24 -4.04504 1.18129 0
M  V30 19051 H 1805.96 -3.25864 0.219088 0
M  V30 19052 H 1804.62 -2.84566 2.31123 0
M  V30 19053 H 1804.27 -4.93356 0.98023 0
M  V30 19054 H 1803.97 -5.21162 2.7141 0
M  V30 19055 H 1805.49 -5.77825 1.97359 0
M  V30 19056 H 1806.91 -4.3472 3.73754 0
M  V30 19057 H 1805.3 -4.01824 4.4571 0
M  V30 19058 H 1806.37 -2.66412 4.05158 0
M  V30 19059 N 1807.72 -1.22979 -0.985586 0
M  V30 19060 C 1808.94 -1.0853 -1.7615 0
M  V30 19061 C 1809.36 0.36363 -1.85265 0
M  V30 19062 O 1808.72 1.25173 -1.32808 0
M  V30 19063 C 1808.77 -1.69872 -3.19101 0
M  V30 19064 O 1808.49 -3.09098 -3.10467 0
M  V30 19065 C 1809.99 -1.60795 -4.1311 0
M  V30 19066 H 1807.21 -0.380086 -0.55297 0
M  V30 19067 H 1809.75 -1.62724 -1.2386 0
M  V30 19068 H 1807.91 -1.19724 -3.68436 0
M  V30 19069 H 1808.32 -3.38769 -4.00419 0
M  V30 19070 H 1809.8 -2.08428 -5.11138 0
M  V30 19071 H 1810.27 -0.565817 -4.3554 0
M  V30 19072 H 1810.88 -2.10284 -3.69676 0
M  V30 19073 N 1809.19 1.18355 -1.04066 0
M  V30 19074 C 1810.16 2.20195 -0.636148 0
M  V30 19075 C 1811.16 1.57853 0.306457 0
M  V30 19076 O 1812.35 1.73958 0.0918576 0
M  V30 19077 C 1809.48 3.40833 0.0673423 0
M  V30 19078 H 1810.67 2.57497 -1.53738 0
M  V30 19079 H 1808.23 1.32239 -0.833214 0
M  V30 19080 H 1808.96 3.09063 0.982371 0
M  V30 19081 H 1808.75 3.87324 -0.610145 0
M  V30 19082 H 1810.24 4.16239 0.336869 0
M  V30 19083 N 1810.67 0.820125 1.3458 0
M  V30 19084 C 1811.6 0.197556 2.28347 0
M  V30 19085 C 1812.62 -0.610956 1.50901 0
M  V30 19086 O 1813.81 -0.441096 1.72964 0
M  V30 19087 C 1810.91 -0.741893 3.3068 0
M  V30 19088 C 1810.08 0.0231854 4.37394 0
M  V30 19089 C 1809.14 -0.83677 5.19504 0
M  V30 19090 O 1808.16 -0.282772 5.68497 0
M  V30 19091 N 1809.37 -2.15696 5.38939 0
M  V30 19092 H 1812.13 1.00314 2.82413 0
M  V30 19093 H 1809.69 0.676827 1.47074 0
M  V30 19094 H 1811.68 -1.32173 3.82508 0
M  V30 19095 H 1810.25 -1.44823 2.77029 0
M  V30 19096 H 1809.47 0.784316 3.86319 0
M  V30 19097 H 1810.76 0.549958 5.05819 0
M  V30 19098 H 1810.16 -2.63083 5.00803 0
M  V30 19099 H 1808.72 -2.68572 5.93896 0
M  V30 19100 N 1812.15 -1.46743 0.574835 0
M  V30 19101 C 1813.56 -1.86127 0.146143 0
M  V30 19102 C 1813.91 -1.47938 -1.28875 0
M  V30 19103 O 1813.04 -0.890593 -1.97224 0
M  V30 19104 C 1813.63 -3.37813 0.258447 0
M  V30 19105 C 1812.19 -3.76223 -0.115322 0
M  V30 19106 C 1811.34 -2.70775 0.597997 0
M  V30 19107 H 1814.29 -1.38009 0.783526 0
M  V30 19108 H 1814.31 -3.76953 -0.51831 0
M  V30 19109 H 1813.82 -3.65577 1.30288 0
M  V30 19110 H 1811.92 -3.54077 -1.16019 0
M  V30 19111 H 1812.04 -4.78418 0.255513 0
M  V30 19112 H 1810.4 -2.5467 0.039113 0
M  V30 19113 H 1811.18 -3.0138 1.64393 0
M  V30 19114 N 1813.63 -0.312197 -1.54477 0
M  V30 19115 C 1814.59 0.54612 -2.22599 0
M  V30 19116 C 1815.59 1.05252 -1.21568 0
M  V30 19117 O 1816.78 0.946756 -1.46226 0
M  V30 19118 C 1813.91 1.75733 -2.92114 0
M  V30 19119 H 1815.11 -0.0492216 -2.9986 0
M  V30 19120 H 1812.66 -0.063149 -1.56172 0
M  V30 19121 H 1813.39 2.39221 -2.18961 0
M  V30 19122 H 1813.18 1.40175 -3.66188 0
M  V30 19123 H 1814.67 2.36685 -3.44049 0
M  V30 19124 N 1815.11 1.57549 -0.040136 0
M  V30 19125 C 1816.52 1.79959 0.497142 0
M  V30 19126 C 1816.87 0.951403 1.71589 0
M  V30 19127 O 1815.99 0.16488 2.15771 0
M  V30 19128 C 1816.59 3.26387 0.908682 0
M  V30 19129 C 1815.15 3.49754 1.39101 0
M  V30 19130 C 1814.29 2.74941 0.360933 0
M  V30 19131 H 1817.25 1.56453 -0.266099 0
M  V30 19132 H 1817.27 3.36702 1.77234 0
M  V30 19133 H 1816.78 3.88094 0.0214628 0
M  V30 19134 H 1814.88 2.93313 2.29778 0
M  V30 19135 H 1814.99 4.58469 1.39078 0
M  V30 19136 H 1813.36 2.40747 0.831432 0
M  V30 19137 H 1814.14 3.39369 -0.51801 0
M  V30 19138 N 1816.58 -0.233136 1.55866 0
M  V30 19139 C 1817.81 -0.976415 1.82411 0
M  V30 19140 C 1818.23 -1.78409 0.617724 0
M  V30 19141 O 1817.58 -1.77749 -0.413709 0
M  V30 19142 C 1817.64 -1.90328 3.07339 0
M  V30 19143 O 1817.36 -1.12828 4.23322 0
M  V30 19144 C 1818.86 -2.76142 3.46786 0
M  V30 19145 H 1816.08 -0.2867 0.606666 0
M  V30 19146 H 1818.62 -0.251863 2.02943 0
M  V30 19147 H 1816.78 -2.58193 2.88816 0
M  V30 19148 H 1817.19 -1.75643 4.94216 0
M  V30 19149 H 1818.66 -3.36901 4.37266 0
M  V30 19150 H 1819.14 -3.47953 2.68003 0
M  V30 19151 H 1819.75 -2.13708 3.67708 0
M  V30 19152 N 1818.06 -1.49479 -0.499372 0
M  V30 19153 C 1819.29 -1.63025 -1.28209 0
M  V30 19154 C 1819.71 -0.302238 -1.85656 0
M  V30 19155 O 1819.07 0.730355 -1.65938 0
M  V30 19156 C 1819.12 -2.70287 -2.38699 0
M  V30 19157 O 1818.22 -2.29573 -3.42593 0
M  V30 19158 H 1817.56 -0.545605 -0.378432 0
M  V30 19159 H 1820.09 -1.95677 -0.597628 0
M  V30 19160 H 1820.1 -2.92505 -2.84438 0
M  V30 19161 H 1818.78 -3.66684 -1.96253 0
M  V30 19162 H 1817.36 -2.17692 -3.02761 0
M  V30 19163 N 1819.54 0.750537 -1.38581 0
M  V30 19164 C 1820.79 1.50676 -1.34689 0
M  V30 19165 C 1821.11 1.94903 0.0615414 0
M  V30 19166 O 1820.38 1.67867 1.00982 0
M  V30 19167 H 1818.96 0.558914 -0.495605 0
M  V30 19168 H 1821.62 0.891979 -1.73291 0
M  V30 19169 H 1820.72 2.39623 -1.99969 0
M  V30 19170 N 1821.02 1.235 0.979051 0
M  V30 19171 C 1822.3 0.976124 1.69503 0
M  V30 19172 C 1822.68 -0.504883 2.04974 0
M  V30 19173 O 1822.02 -1.47642 1.74397 0
M  V30 19174 C 1822.23 1.8877 2.93542 0
M  V30 19175 C 1823.58 2.15196 3.66027 0
M  V30 19176 O 1824.61 1.8633 3.03578 0
M  V30 19177 O 1823.47 2.64157 4.78417 0
M  V30 19178 H 1820.56 0.36825 0.740487 0
M  V30 19179 H 1823.11 1.34549 1.03415 0
M  V30 19180 H 1821.88 2.88882 2.63937 0
M  V30 19181 H 1821.5 1.52079 3.67366 0
M  V30 19182 N 1822.5 -1.17802 1.04693 0
M  V30 19183 C 1823.43 -2.23847 0.664448 0
M  V30 19184 C 1824.41 -1.66761 -0.335356 0
M  V30 19185 O 1825.59 -1.93017 -0.214062 0
M  V30 19186 C 1822.72 -3.47284 0.0331587 0
M  V30 19187 C 1821.68 -4.1716 0.95718 0
M  V30 19188 C 1821 -5.34362 0.190034 0
M  V30 19189 C 1822.3 -4.69951 2.2791 0
M  V30 19190 H 1824 -2.56095 1.55099 0
M  V30 19191 H 1821.54 -1.23097 0.747196 0
M  V30 19192 H 1823.5 -4.2068 -0.246178 0
M  V30 19193 H 1822.22 -3.14288 -0.888294 0
M  V30 19194 H 1820.88 -3.45669 1.221 0
M  V30 19195 H 1820.53 -4.97615 -0.734025 0
M  V30 19196 H 1820.23 -5.8205 0.805684 0
M  V30 19197 H 1821.75 -6.10545 -0.0821372 0
M  V30 19198 H 1823.17 -5.3501 2.06003 0
M  V30 19199 H 1821.56 -5.28198 2.84828 0
M  V30 19200 H 1822.63 -3.87032 2.9212 0
M  V30 19201 N 1823.98 -0.827251 -1.34143 0
M  V30 19202 C 1825.2 -0.430502 -2.02372 0
M  V30 19203 C 1825.62 0.964846 -1.62284 0
M  V30 19204 O 1824.98 1.62512 -0.830421 0
M  V30 19205 C 1825.03 -0.528077 -3.57622 0
M  V30 19206 O 1824.75 -1.86843 -3.96259 0
M  V30 19207 C 1826.25 -0.126784 -4.43119 0
M  V30 19208 H 1823.47 -0.172244 -0.648516 0
M  V30 19209 H 1826.01 -1.11661 -1.71325 0
M  V30 19210 H 1824.17 0.109991 -3.87244 0
M  V30 19211 H 1824.58 -1.84573 -4.90951 0
M  V30 19212 H 1826.06 -0.246133 -5.51451 0
M  V30 19213 H 1826.53 0.930138 -4.29238 0
M  V30 19214 H 1827.14 -0.738824 -4.18833 0
M  V30 19215 N 1825.45 1.46436 -0.582609 0
M  V30 19216 C 1826.68 2.07275 -0.0718712 0
M  V30 19217 C 1827.1 1.42851 1.22373 0
M  V30 19218 O 1826.46 0.512272 1.73912 0
M  V30 19219 C 1826.51 3.6051 0.08055 0
M  V30 19220 O 1825.61 3.96414 1.13707 0
M  V30 19221 H 1824.95 0.661027 -0.0627607 0
M  V30 19222 H 1827.48 1.88076 -0.805524 0
M  V30 19223 H 1827.49 4.06991 0.286749 0
M  V30 19224 H 1826.17 4.06792 -0.865603 0
M  V30 19225 H 1824.75 3.61643 0.909338 0
M  V30 19226 N 1826.93 0.320385 1.54309 0
M  V30 19227 C 1827.89 -0.534308 2.22885 0
M  V30 19228 C 1828.89 -1.04605 1.22124 0
M  V30 19229 O 1830.08 -0.938988 1.46726 0
M  V30 19230 C 1827.22 -1.74181 2.93042 0
M  V30 19231 H 1828.41 0.0651232 2.99829 0
M  V30 19232 H 1825.96 0.0714303 1.56137 0
M  V30 19233 H 1826.7 -2.38056 2.20227 0
M  V30 19234 H 1826.48 -1.38231 3.66926 0
M  V30 19235 H 1827.97 -2.34857 3.45299 0
M  V30 19236 N 1828.41 -1.57525 0.0484906 0
M  V30 19237 C 1829.64 -1.96897 -0.635553 0
M  V30 19238 C 1830.05 -0.925909 -1.64537 0
M  V30 19239 O 1829.41 0.0901742 -1.82277 0
M  V30 19240 C 1829.46 -3.36348 -1.32484 0
M  V30 19241 O 1829.18 -4.36656 -0.355464 0
M  V30 19242 C 1830.68 -3.90463 -2.0989 0
M  V30 19243 H 1827.9 -0.648062 -0.173945 0
M  V30 19244 H 1830.45 -2.04182 0.113997 0
M  V30 19245 H 1828.6 -3.30222 -2.02564 0
M  V30 19246 H 1829.02 -5.17613 -0.847153 0
M  V30 19247 H 1830.49 -4.90326 -2.53543 0
M  V30 19248 H 1830.97 -3.25745 -2.94596 0
M  V30 19249 H 1831.57 -3.99918 -1.44726 0
M  V30 19250 N 1829.89 0.224867 -1.55988 0
M  V30 19251 C 1830.84 1.29829 -1.92995 0
M  V30 19252 C 1831.83 1.48693 -0.81159 0
M  V30 19253 O 1833.04 1.49906 -0.996397 0
M  V30 19254 H 1829.41 0.435205 -0.61327 0
M  V30 19255 H 1831.38 0.958953 -2.82571 0
M  V30 19256 C 1830.13 2.6422 -2.26016 0
M  V30 19257 H 1829.45 2.50511 -3.11584 0
M  V30 19258 H 1830.89 3.38148 -2.55797 0
M  V30 19259 C 1829.35 3.1898 -1.08413 0
M  V30 19260 O 1829.88 4.00228 -0.343538 0
M  V30 19261 N 1828.09 2.77308 -0.868842 0
M  V30 19262 H 1827.64 2.11344 -1.4728 0
M  V30 19263 H 1827.59 3.14289 -0.0837012 0
M  V30 19264 N 1831.37 1.49742 0.491438 0
M  V30 19265 C 1832.61 1.58956 1.24161 0
M  V30 19266 C 1832.93 0.285882 1.935 0
M  V30 19267 O 1834.13 0.256678 2.70284 0
M  V30 19268 C 1832.59 2.805 2.25494 0
M  V30 19269 C 1832.2 4.17664 1.62051 0
M  V30 19270 C 1833.94 2.99049 3.0128 0
M  V30 19271 C 1831.85 5.3042 2.61551 0
M  V30 19272 H 1830.78 0.591883 0.467108 0
M  V30 19273 H 1833.43 1.76144 0.514364 0
M  V30 19274 H 1831.81 2.56827 3.01423 0
M  V30 19275 H 1832.99 4.51512 0.9205 0
M  V30 19276 H 1831.3 4.04553 0.986211 0
M  V30 19277 H 1833.9 3.80458 3.75707 0
M  V30 19278 H 1834.24 2.0998 3.59464 0
M  V30 19279 H 1834.77 3.22807 2.32466 0
M  V30 19280 H 1831.51 6.21579 2.08135 0
M  V30 19281 H 1831.03 5.01014 3.29765 0
M  V30 19282 H 1832.71 5.60152 3.23789 0
M  V30 19283 N 1832.84 -0.743177 1.38977 0
M  V30 19284 C 1834.09 -1.50479 1.35956 0
M  V30 19285 C 1834.42 -1.94143 -0.0471116 0
M  V30 19286 O 1833.7 -1.66195 -1.01042 0
M  V30 19287 C 1833.98 -2.75016 2.32461 0
M  V30 19288 C 1833.83 -2.37423 3.82034 0
M  V30 19289 C 1835.15 -3.77084 2.26927 0
M  V30 19290 H 1832.27 -0.545869 0.495172 0
M  V30 19291 H 1834.91 -0.850403 1.69906 0
M  V30 19292 H 1833.06 -3.30852 2.03639 0
M  V30 19293 H 1834.74 -1.87282 4.21572 0
M  V30 19294 H 1832.98 -1.69752 3.99208 0
M  V30 19295 H 1833.65 -3.2657 4.45035 0
M  V30 19296 H 1836.13 -3.30812 2.52394 0
M  V30 19297 H 1835 -4.61901 2.96545 0
M  V30 19298 H 1835.26 -4.23419 1.27156 0
M  V30 19299 N 1834.32 -1.24018 -0.972487 0
M  V30 19300 C 1835.27 -1.02834 -2.06625 0
M  V30 19301 C 1836.24 0.056804 -1.66003 0
M  V30 19302 O 1837.42 -0.0968745 -1.90554 0
M  V30 19303 C 1834.56 -0.634103 -3.39224 0
M  V30 19304 C 1833.68 -1.79222 -3.93069 0
M  V30 19305 C 1832.81 -1.34401 -5.13916 0
M  V30 19306 C 1831.85 -2.47238 -5.59946 0
M  V30 19307 N 1830.99 -2.03319 -6.72016 0
M  V30 19308 H 1835.83 -1.96451 -2.24078 0
M  V30 19309 H 1833.37 -0.978545 -1.09831 0
M  V30 19310 H 1835.32 -0.386584 -4.15405 0
M  V30 19311 H 1833.95 0.26506 -3.2171 0
M  V30 19312 H 1833.01 -2.15353 -3.13572 0
M  V30 19313 H 1834.32 -2.64023 -4.23194 0
M  V30 19314 H 1833.47 -1.05509 -5.97455 0
M  V30 19315 H 1832.21 -0.466476 -4.85464 0
M  V30 19316 H 1831.22 -2.76895 -4.74983 0
M  V30 19317 H 1832.44 -3.35541 -5.90415 0
M  V30 19318 H 1830.39 -1.17956 -6.45308 0
M  V30 19319 H 1830.3 -2.81675 -7.01566 0
M  V30 19320 H 1831.57 -1.77553 -7.59009 0
M  V30 19321 N 1835.8 1.17245 -1.05316 0
M  V30 19322 C 1837.05 1.88061 -0.774904 0
M  V30 19323 C 1837.4 1.79577 0.690631 0
M  V30 19324 O 1836.69 1.19378 1.49865 0
M  V30 19325 C 1836.89 3.36958 -1.19138 0
M  V30 19326 C 1836.72 3.59935 -2.69586 0
M  V30 19327 C 1835.49 3.76587 -3.36913 0
M  V30 19328 C 1837.69 3.59476 -3.67806 0
M  V30 19329 N 1835.67 3.8742 -4.76213 0
M  V30 19330 C 1837.04 3.76175 -4.92841 0
M  V30 19331 C 1839.09 3.42633 -3.61257 0
M  V30 19332 C 1837.8 3.77773 -6.12111 0
M  V30 19333 C 1839.82 3.45521 -4.79968 0
M  V30 19334 C 1839.18 3.62728 -6.03827 0
M  V30 19335 H 1835.28 0.706228 -0.335807 0
M  V30 19336 H 1837.87 1.40743 -1.34535 0
M  V30 19337 H 1836.04 3.82941 -0.648876 0
M  V30 19338 H 1837.77 3.95395 -0.862828 0
M  V30 19339 H 1834.53 3.76494 -2.87314 0
M  V30 19340 H 1834.95 3.9663 -5.48647 0
M  V30 19341 H 1839.59 3.28265 -2.66462 0
M  V30 19342 H 1837.31 3.90926 -7.0725 0
M  V30 19343 H 1840.9 3.33745 -4.76556 0
M  V30 19344 H 1839.78 3.64869 -6.94147 0
M  V30 19345 N 1837.28 0.834353 1.33702 0
M  V30 19346 C 1838.53 0.424225 1.97188 0
M  V30 19347 C 1838.84 -1.02086 1.66846 0
M  V30 19348 O 1840.05 -1.53545 2.23911 0
M  V30 19349 C 1838.5 0.707628 3.52875 0
M  V30 19350 C 1838.11 2.16709 3.92098 0
M  V30 19351 C 1839.85 0.364228 4.22935 0
M  V30 19352 C 1837.76 2.39478 5.40744 0
M  V30 19353 H 1836.69 0.154897 0.737918 0
M  V30 19354 H 1839.34 1.02231 1.52385 0
M  V30 19355 H 1837.72 0.0392323 3.95981 0
M  V30 19356 H 1838.9 2.87559 3.60064 0
M  V30 19357 H 1837.21 2.47303 3.35008 0
M  V30 19358 H 1839.81 0.512031 5.32243 0
M  V30 19359 H 1840.15 -0.692375 4.10502 0
M  V30 19360 H 1840.69 0.98767 3.85344 0
M  V30 19361 H 1837.43 3.43687 5.58175 0
M  V30 19362 H 1836.95 1.73184 5.74254 0
M  V30 19363 H 1838.62 2.22406 6.07573 0
M  V30 19364 N 1838.76 -1.46125 0.590367 0
M  V30 19365 C 1839.69 -2.27433 -0.186997 0
M  V30 19366 C 1840.67 -1.36095 -0.889776 0
M  V30 19367 O 1841.85 -1.65511 -0.902123 0
M  V30 19368 C 1838.98 -3.14029 -1.26899 0
M  V30 19369 C 1838.02 -4.21185 -0.671223 0
M  V30 19370 S 1838.86 -5.33087 0.507766 0
M  V30 19371 C 1840.01 -6.23251 -0.575243 0
M  V30 19372 H 1840.25 -2.93016 0.502873 0
M  V30 19373 H 1837.78 -1.49715 0.377448 0
M  V30 19374 H 1839.74 -3.64483 -1.88845 0
M  V30 19375 H 1838.4 -2.47744 -1.93085 0
M  V30 19376 H 1837.59 -4.81633 -1.48478 0
M  V30 19377 H 1837.19 -3.73783 -0.127271 0
M  V30 19378 H 1839.49 -6.61606 -1.4589 0
M  V30 19379 H 1840.43 -7.081 -0.00733853 0
M  V30 19380 H 1840.84 -5.57554 -0.882831 0
M  V30 19381 N 1840.23 -0.328564 -1.54137 0
M  V30 19382 C 1841.18 0.535112 -2.24511 0
M  V30 19383 C 1842.15 1.10765 -1.23776 0
M  V30 19384 O 1843.34 1.14706 -1.52471 0
M  V30 19385 C 1840.48 1.68765 -3.01019 0
M  V30 19386 C 1839.59 1.14387 -4.16581 0
M  V30 19387 C 1838.72 2.26249 -4.80609 0
M  V30 19388 C 1837.76 1.69146 -5.88265 0
M  V30 19389 N 1836.9 2.74691 -6.46134 0
M  V30 19390 H 1841.74 -0.0715726 -2.97914 0
M  V30 19391 H 1839.28 -0.0470933 -1.47025 0
M  V30 19392 H 1841.24 2.36594 -3.43626 0
M  V30 19393 H 1839.87 2.26555 -2.29941 0
M  V30 19394 H 1838.92 0.356974 -3.78721 0
M  V30 19395 H 1840.23 0.686063 -4.94059 0
M  V30 19396 H 1839.38 3.01973 -5.2621 0
M  V30 19397 H 1838.12 2.75368 -4.02522 0
M  V30 19398 H 1837.13 0.919217 -5.42061 0
M  V30 19399 H 1838.35 1.20897 -6.68252 0
M  V30 19400 H 1836.3 3.23091 -5.70918 0
M  V30 19401 H 1836.22 2.33488 -7.19041 0
M  V30 19402 H 1837.48 3.50228 -6.96391 0
M  V30 19403 N 1841.71 1.57497 -0.0568439 0
M  V30 19404 C 1842.64 2.08817 0.94488 0
M  V30 19405 C 1843.66 1.01717 1.27112 0
M  V30 19406 O 1844.85 1.2927 1.23092 0
M  V30 19407 C 1841.95 2.52104 2.26488 0
M  V30 19408 C 1841.12 3.82606 2.11971 0
M  V30 19409 C 1840.18 4.12145 3.27144 0
M  V30 19410 O 1839.2 4.81978 3.02797 0
M  V30 19411 N 1840.41 3.64505 4.51792 0
M  V30 19412 H 1843.17 2.95384 0.506814 0
M  V30 19413 H 1840.73 1.61383 0.129259 0
M  V30 19414 H 1842.72 2.68938 3.02415 0
M  V30 19415 H 1841.29 1.70756 2.61842 0
M  V30 19416 H 1840.51 3.75299 1.20601 0
M  V30 19417 H 1841.8 4.68055 1.99505 0
M  V30 19418 H 1841.2 3.08061 4.74462 0
M  V30 19419 H 1839.76 3.86566 5.24795 0
M  V30 19420 N 1843.19 -0.216591 1.56105 0
M  V30 19421 C 1844.12 -1.29202 1.89313 0
M  V30 19422 C 1845.14 -1.42798 0.781832 0
M  V30 19423 O 1846.32 -1.43607 1.06016 0
M  V30 19424 C 1843.42 -2.66701 2.09102 0
M  V30 19425 C 1842.6 -2.74989 3.40147 0
M  V30 19426 C 1841.66 -3.93536 3.49308 0
M  V30 19427 O 1840.68 -3.81642 4.22301 0
M  V30 19428 N 1841.88 -5.08059 2.80814 0
M  V30 19429 H 1844.65 -1.01038 2.82155 0
M  V30 19430 H 1842.21 -0.406611 1.56711 0
M  V30 19431 H 1844.2 -3.44396 2.12541 0
M  V30 19432 H 1842.77 -2.87443 1.22862 0
M  V30 19433 H 1841.99 -1.83733 3.48763 0
M  V30 19434 H 1843.28 -2.775 4.26464 0
M  V30 19435 H 1842.68 -5.20618 2.21299 0
M  V30 19436 H 1841.24 -5.83778 2.89908 0
M  V30 19437 N 1844.67 -1.5 -0.48349 0
M  V30 19438 C 1845.62 -1.68467 -1.6038 0
M  V30 19439 C 1846.61 -0.550508 -1.60205 0
M  V30 19440 O 1847.82 -0.730656 -1.64504 0
M  V30 19441 H 1844.19 -0.531525 -0.531964 0
M  V30 19442 H 1846.16 -2.62468 -1.41962 0
M  V30 19443 C 1844.91 -1.78462 -2.98407 0
M  V30 19444 H 1844.23 -2.65117 -2.99254 0
M  V30 19445 H 1845.67 -1.95413 -3.76284 0
M  V30 19446 C 1844.13 -0.533368 -3.32651 0
M  V30 19447 O 1844.66 0.333087 -4.00317 0
M  V30 19448 N 1842.87 -0.391077 -2.87957 0
M  V30 19449 H 1842.42 -1.09719 -2.33066 0
M  V30 19450 H 1842.37 0.444995 -3.11235 0
M  V30 19451 N 1846.15 0.735796 -1.39369 0
M  V30 19452 C 1847.11 1.83148 -1.37802 0
M  V30 19453 C 1848.11 1.58426 -0.27528 0
M  V30 19454 O 1849.3 1.65841 -0.53314 0
M  V30 19455 C 1846.43 3.20923 -1.14984 0
M  V30 19456 H 1847.62 1.85941 -2.353 0
M  V30 19457 H 1845.18 0.939367 -1.24922 0
M  V30 19458 H 1845.91 3.23791 -0.181648 0
M  V30 19459 H 1845.7 3.40264 -1.94841 0
M  V30 19460 H 1847.19 4.00984 -1.16626 0
M  V30 19461 N 1847.63 1.24532 0.965897 0
M  V30 19462 C 1848.56 0.997143 2.06373 0
M  V30 19463 C 1849.57 -0.0340261 1.62764 0
M  V30 19464 O 1850.76 0.203223 1.77339 0
M  V30 19465 C 1847.86 0.483305 3.35436 0
M  V30 19466 C 1847.03 1.57803 4.07942 0
M  V30 19467 C 1846.09 1.06652 5.15278 0
M  V30 19468 O 1845.12 1.75859 5.41352 0
M  V30 19469 N 1846.32 -0.0981119 5.80417 0
M  V30 19470 H 1849.08 1.94238 2.28236 0
M  V30 19471 H 1846.65 1.15586 1.13365 0
M  V30 19472 H 1848.64 0.125833 4.04504 0
M  V30 19473 H 1847.21 -0.367709 3.1043 0
M  V30 19474 H 1846.43 2.1076 3.33127 0
M  V30 19475 H 1847.72 2.3138 4.53146 0
M  V30 19476 H 1847.11 -0.676662 5.61638 0
M  V30 19477 H 1845.67 -0.396714 6.50592 0
M  V30 19478 N 1849.1 -1.16685 1.05936 0
M  V30 19479 C 1850.35 -1.86758 0.772386 0
M  V30 19480 C 1850.67 -1.81885 -0.703051 0
M  V30 19481 O 1849.94 -1.24992 -1.50844 0
M  V30 19482 H 1848.52 -0.69143 0.282725 0
M  V30 19483 H 1851.18 -1.41518 1.3401 0
M  V30 19484 H 1850.28 -2.92296 1.09405 0
M  V30 19485 N 1850.58 -0.841432 -1.33258 0
M  V30 19486 C 1851.83 -0.437512 -1.97307 0
M  V30 19487 C 1852.15 1.00723 -1.66973 0
M  V30 19488 O 1851.42 1.70199 -0.969998 0
M  V30 19489 H 1850 -0.158794 -0.729927 0
M  V30 19490 H 1852.66 -1.07495 -1.62575 0
M  V30 19491 H 1851.76 -0.571675 -3.0682 0
M  V30 19492 N 1852.06 1.4581 -0.598108 0
M  V30 19493 C 1853.31 2.02302 -0.0896112 0
M  V30 19494 C 1853.63 1.46772 1.27625 0
M  V30 19495 O 1852.89 0.628712 1.85326 0
M  V30 19496 C 1853.19 3.57399 0.00976809 0
M  V30 19497 C 1852.85 4.32038 -1.29051 0
M  V30 19498 C 1851.52 4.52147 -1.64671 0
M  V30 19499 C 1853.87 4.74776 -2.15028 0
M  V30 19500 C 1851.2 5.12249 -2.86038 0
M  V30 19501 C 1853.55 5.3622 -3.35635 0
M  V30 19502 C 1852.21 5.54554 -3.71519 0
M  V30 19503 H 1851.48 0.740274 -0.0327911 0
M  V30 19504 H 1854.13 1.74992 -0.77783 0
M  V30 19505 H 1852.43 3.83933 0.781201 0
M  V30 19506 H 1854.13 3.98803 0.419212 0
M  V30 19507 H 1850.72 4.16693 -1.00324 0
M  V30 19508 H 1854.91 4.58982 -1.8881 0
M  V30 19509 H 1850.16 5.24633 -3.13958 0
M  V30 19510 H 1854.34 5.68292 -4.02514 0
M  V30 19511 H 1851.96 6.00894 -4.65651 0
M  V30 19512 N 1853.54 0.336733 1.53961 0
M  V30 19513 C 1854.76 -0.26614 2.05685 0
M  V30 19514 C 1855.19 -1.43973 1.21051 0
M  V30 19515 O 1854.55 -1.79928 0.222652 0
M  V30 19516 C 1854.59 -0.66571 3.54402 0
M  V30 19517 O 1853.7 -1.76656 3.72648 0
M  V30 19518 H 1853.04 -0.0455655 0.662435 0
M  V30 19519 H 1855.57 0.488969 1.98671 0
M  V30 19520 H 1855.58 -0.944748 3.96911 0
M  V30 19521 H 1854.25 0.192589 4.15454 0
M  V30 19522 H 1852.83 -1.48531 3.42042 0
M  V30 19523 N 1855.02 -1.57465 0.0651956 0
M  V30 19524 C 1856.24 -1.97975 -0.618099 0
M  V30 19525 C 1856.67 -0.943068 -1.62751 0
M  V30 19526 O 1856.02 0.0921045 -1.81066 0
M  V30 19527 C 1856.07 -3.37533 -1.26902 0
M  V30 19528 O 1855.18 -3.36451 -2.38483 0
M  V30 19529 H 1854.52 -0.644553 -0.159524 0
M  V30 19530 H 1857.05 -2.04136 0.137754 0
M  V30 19531 H 1857.06 -3.74571 -1.61742 0
M  V30 19532 H 1855.73 -4.12518 -0.529334 0
M  V30 19533 H 1854.31 -3.11175 -2.05486 0
M  V30 19534 N 1856.49 0.20831 -1.56217 0
M  V30 19535 C 1857.72 0.947271 -1.83941 0
M  V30 19536 C 1858.14 1.77403 -0.646029 0
M  V30 19537 O 1857.49 1.78385 0.385378 0
M  V30 19538 C 1857.54 1.85415 -3.10328 0
M  V30 19539 O 1857.27 1.06079 -4.25063 0
M  V30 19540 C 1858.77 2.7059 -3.51135 0
M  V30 19541 H 1855.99 0.277012 -0.611151 0
M  V30 19542 H 1858.53 0.219545 -2.03318 0
M  V30 19543 H 1856.69 2.53566 -2.92888 0
M  V30 19544 H 1857.1 1.67758 -4.96948 0
M  V30 19545 H 1858.57 3.29902 -4.42571 0
M  V30 19546 H 1859.05 3.43645 -2.73505 0
M  V30 19547 H 1859.66 2.07831 -3.71061 0
M  V30 19548 N 1857.97 1.50255 0.475528 0
M  V30 19549 C 1858.9 1.64942 1.59144 0
M  V30 19550 C 1859.92 0.531065 1.53895 0
M  V30 19551 O 1861.11 0.804084 1.59364 0
M  V30 19552 C 1858.21 1.61372 2.98014 0
M  V30 19553 C 1857.38 2.89167 3.28179 0
M  V30 19554 C 1856.44 2.783 4.46582 0
M  V30 19555 O 1855.46 3.52254 4.47108 0
M  V30 19556 N 1856.67 1.91557 5.47984 0
M  V30 19557 H 1859.43 2.61194 1.46962 0
M  V30 19558 H 1856.99 1.47663 0.663869 0
M  V30 19559 H 1858.98 1.51722 3.75183 0
M  V30 19560 H 1857.55 0.728744 3.03987 0
M  V30 19561 H 1856.77 3.12977 2.39664 0
M  V30 19562 H 1858.06 3.73838 3.45142 0
M  V30 19563 H 1857.46 1.30778 5.50376 0
M  V30 19564 H 1856.02 1.87813 6.24155 0
M  V30 19565 N 1859.45 -0.728395 1.39758 0
M  V30 19566 C 1860.73 -1.48036 1.27846 0
M  V30 19567 C 1861.11 -2.10818 -0.108996 0
M  V30 19568 O 1860.45 -1.99125 -1.12078 0
M  V30 19569 C 1860.66 -2.52644 2.40774 0
M  V30 19570 C 1862.01 -3.1884 2.80404 0
M  V30 19571 O 1863.04 -2.6296 2.40272 0
M  V30 19572 O 1861.9 -4.19971 3.49696 0
M  V30 19573 H 1858.99 -0.657688 0.501374 0
M  V30 19574 H 1861.54 -0.761658 1.51647 0
M  V30 19575 H 1860.31 -2.04678 3.335 0
M  V30 19576 H 1859.93 -3.32066 2.18674 0
M  V30 19577 N 1860.93 -1.25042 -0.959279 0
M  V30 19578 C 1862.16 -1.12242 -1.73809 0
M  V30 19579 C 1862.57 0.324251 -1.85995 0
M  V30 19580 O 1861.93 1.22328 -1.35433 0
M  V30 19581 C 1861.98 -1.76603 -3.15426 0
M  V30 19582 O 1861.7 -3.15614 -3.03841 0
M  V30 19583 C 1863.2 -1.69522 -4.09606 0
M  V30 19584 H 1860.42 -0.39173 -0.544783 0
M  V30 19585 H 1862.96 -1.65314 -1.2038 0
M  V30 19586 H 1861.12 -1.27512 -3.65813 0
M  V30 19587 H 1861.53 -3.47186 -3.93144 0
M  V30 19588 H 1863.01 -2.19223 -5.06602 0
M  V30 19589 H 1863.48 -0.658074 -4.34242 0
M  V30 19590 H 1864.09 -2.18079 -3.65133 0
M  V30 19591 N 1862.41 1.16121 -1.06553 0
M  V30 19592 C 1863.65 1.86991 -0.784989 0
M  V30 19593 C 1863.99 1.81645 0.686919 0
M  V30 19594 O 1863.26 1.23394 1.50347 0
M  V30 19595 C 1863.54 3.36448 -1.28355 0
M  V30 19596 C 1863.4 3.5047 -2.81941 0
M  V30 19597 C 1864.72 4.30933 -0.893561 0
M  V30 19598 H 1861.83 0.678978 -0.286633 0
M  V30 19599 H 1864.48 1.36475 -1.32192 0
M  V30 19600 H 1862.63 3.796 -0.826796 0
M  V30 19601 H 1864.3 3.16237 -3.35845 0
M  V30 19602 H 1862.54 2.92294 -3.20541 0
M  V30 19603 H 1863.21 4.55443 -3.11891 0
M  V30 19604 H 1865.69 3.95696 -1.287 0
M  V30 19605 H 1864.56 5.3401 -1.26984 0
M  V30 19606 H 1864.83 4.41642 0.201274 0
M  V30 19607 N 1863.88 0.848487 1.3281 0
M  V30 19608 C 1865.13 0.449521 1.97755 0
M  V30 19609 C 1865.46 -0.990923 1.67016 0
M  V30 19610 O 1864.74 -1.69434 0.955119 0
M  V30 19611 C 1865.02 0.681898 3.53585 0
M  V30 19612 C 1864.87 2.17031 3.93976 0
M  V30 19613 C 1866.19 0.134271 4.39895 0
M  V30 19614 H 1863.31 0.164799 0.718339 0
M  V30 19615 H 1865.95 1.06578 1.57293 0
M  V30 19616 H 1864.1 0.157353 3.88181 0
M  V30 19617 H 1865.78 2.76046 3.69589 0
M  V30 19618 H 1864.02 2.65117 3.43359 0
M  V30 19619 H 1864.69 2.28362 5.02548 0
M  V30 19620 H 1867.17 0.582756 4.11999 0
M  V30 19621 H 1866.04 0.326479 5.47928 0
M  V30 19622 H 1866.3 -0.962576 4.31494 0
M  V30 19623 N 1865.36 -1.4549 0.605832 0
M  V30 19624 C 1866.33 -2.28964 -0.104089 0
M  V30 19625 C 1867.33 -1.39671 -0.796791 0
M  V30 19626 O 1868.52 -1.6181 -0.645221 0
M  V30 19627 C 1865.65 -3.20647 -1.1575 0
M  V30 19628 H 1866.84 -2.93213 0.629776 0
M  V30 19629 H 1864.39 -1.51983 0.3648 0
M  V30 19630 H 1865.13 -2.61194 -1.92219 0
M  V30 19631 H 1864.91 -3.86419 -0.665025 0
M  V30 19632 H 1866.4 -3.83416 -1.65474 0
M  V30 19633 N 1866.84 -0.344893 -1.5378 0
M  V30 19634 C 1867.77 0.503579 -2.28005 0
M  V30 19635 C 1868.75 1.10149 -1.29619 0
M  V30 19636 O 1869.94 1.12263 -1.58463 0
M  V30 19637 C 1867.07 1.65398 -3.05386 0
M  V30 19638 C 1866.02 1.18434 -4.11288 0
M  V30 19639 C 1865.35 2.42336 -4.76631 0
M  V30 19640 C 1866.65 0.283853 -5.21528 0
M  V30 19641 H 1868.34 -0.115619 -2.99177 0
M  V30 19642 H 1865.89 -0.0570472 -1.43887 0
M  V30 19643 H 1867.84 2.25401 -3.56051 0
M  V30 19644 H 1866.56 2.3001 -2.31869 0
M  V30 19645 H 1865.22 0.607115 -3.61538 0
M  V30 19646 H 1864.87 3.05358 -3.99707 0
M  V30 19647 H 1864.57 2.11594 -5.4818 0
M  V30 19648 H 1866.09 3.03063 -5.3008 0
M  V30 19649 H 1867.51 0.790766 -5.6782 0
M  V30 19650 H 1865.91 0.0682509 -6.00061 0
M  V30 19651 H 1866.98 -0.679653 -4.80113 0
M  V30 19652 N 1868.32 1.57428 -0.0735454 0
M  V30 19653 C 1869.27 2.09347 0.903216 0
M  V30 19654 C 1870.25 1.00355 1.25769 0
M  V30 19655 O 1871.44 1.26661 1.23637 0
M  V30 19656 C 1868.57 2.66006 2.17015 0
M  V30 19657 C 1867.66 3.82005 1.84208 0
M  V30 19658 N 1868.05 4.90901 1.21859 0
M  V30 19659 C 1866.35 3.91334 2.13948 0
M  V30 19660 C 1867.05 5.7174 1.07183 0
M  V30 19661 N 1866.03 5.20067 1.58211 0
M  V30 19662 H 1869.83 2.90929 0.41686 0
M  V30 19663 H 1867.34 1.61876 0.130295 0
M  V30 19664 H 1869.34 3.01518 2.87911 0
M  V30 19665 H 1868 1.85871 2.66237 0
M  V30 19666 H 1869.01 5.1023 0.888021 0
M  V30 19667 H 1865.69 3.22177 2.65534 0
M  V30 19668 H 1867.08 6.6934 0.585939 0
M  V30 19669 N 1869.8 -0.200022 1.56326 0
M  V30 19670 C 1870.76 -1.23155 1.93302 0
M  V30 19671 C 1871.76 -1.38696 0.81364 0
M  V30 19672 O 1872.95 -1.36592 1.08112 0
M  V30 19673 C 1870.08 -2.60177 2.20274 0
M  V30 19674 H 1871.27 -0.915616 2.85581 0
M  V30 19675 H 1868.83 -0.44134 1.4994 0
M  V30 19676 H 1869.56 -2.96833 1.30617 0
M  V30 19677 H 1869.35 -2.50269 3.01841 0
M  V30 19678 H 1870.84 -3.34572 2.49903 0
M  V30 19679 N 1871.27 -1.50505 -0.467553 0
M  V30 19680 C 1872.2 -1.72558 -1.57309 0
M  V30 19681 C 1873.19 -0.574619 -1.601 0
M  V30 19682 O 1874.37 -0.814135 -1.76311 0
M  V30 19683 C 1871.5 -1.82296 -2.9561 0
M  V30 19684 C 1870.45 -2.97513 -3.07685 0
M  V30 19685 C 1869.78 -2.92398 -4.47669 0
M  V30 19686 C 1871.08 -4.37968 -2.84573 0
M  V30 19687 H 1872.77 -2.65122 -1.39107 0
M  V30 19688 H 1870.32 -1.2758 -0.667776 0
M  V30 19689 H 1872.27 -1.96308 -3.72882 0
M  V30 19690 H 1871 -0.863562 -3.14976 0
M  V30 19691 H 1869.66 -2.83157 -2.32847 0
M  V30 19692 H 1869.3 -1.94297 -4.63959 0
M  V30 19693 H 1869 -3.69749 -4.56683 0
M  V30 19694 H 1870.53 -3.08464 -5.26956 0
M  V30 19695 H 1871.94 -4.52831 -3.51593 0
M  V30 19696 H 1870.34 -5.16796 -3.05028 0
M  V30 19697 H 1871.41 -4.50093 -1.80402 0
M  V30 19698 N 1872.75 0.720973 -1.40142 0
M  V30 19699 C 1873.98 1.51519 -1.41622 0
M  V30 19700 C 1874.4 1.88093 -0.0162669 0
M  V30 19701 O 1873.76 1.52895 0.974307 0
M  V30 19702 C 1873.81 2.77041 -2.30826 0
M  V30 19703 O 1872.91 3.73532 -1.74779 0
M  V30 19704 H 1872.25 0.457034 -0.481681 0
M  V30 19705 H 1874.78 0.88837 -1.84307 0
M  V30 19706 H 1874.79 3.25628 -2.45826 0
M  V30 19707 H 1873.47 2.49755 -3.32558 0
M  V30 19708 H 1872.05 3.32356 -1.69097 0
M  V30 19709 N 1874.23 1.25549 0.952634 0
M  V30 19710 C 1875.65 1.02414 1.22407 0
M  V30 19711 C 1875.85 -0.257807 1.99844 0
M  V30 19712 O 1874.9 -0.969999 2.33125 0
M  V30 19713 C 1876.22 2.24856 1.9965 0
M  V30 19714 C 1877.76 2.29638 2.12686 0
M  V30 19715 C 1878.24 3.51742 2.93329 0
M  V30 19716 N 1879.73 3.5215 3.00907 0
M  V30 19717 C 1880.46 4.43292 3.63703 0
M  V30 19718 N 1879.96 5.44709 4.28094 0
M  V30 19719 N 1881.75 4.30969 3.60863 0
M  V30 19720 H 1873.9 2.07905 0.434647 0
M  V30 19721 H 1876.17 0.913124 0.254772 0
M  V30 19722 H 1875.87 3.18037 1.5015 0
M  V30 19723 H 1875.75 2.28188 3.0035 0
M  V30 19724 H 1878.13 1.36978 2.61383 0
M  V30 19725 H 1878.22 2.30324 1.11285 0
M  V30 19726 H 1877.86 4.44724 2.45322 0
M  V30 19727 H 1877.79 3.48301 3.9496 0
M  V30 19728 H 1880.28 2.78789 2.55118 0
M  V30 19729 H 1880.59 6.10462 4.73873 0
M  V30 19730 H 1878.94 5.48579 4.26715 0
M  V30 19731 H 1882.13 3.50964 3.09745 0
M  V30 19732 H 1882.3 5.02196 4.09516 0
M  V30 19733 N 1875.71 -1.15554 1.07168 0
M  V30 19734 C 1876.94 -1.89906 0.813588 0
M  V30 19735 C 1877.35 -1.78164 -0.636732 0
M  V30 19736 O 1876.69 -1.13 -1.44833 0
M  V30 19737 C 1876.75 -3.40937 1.14028 0
M  V30 19738 C 1876.42 -3.76465 2.59082 0
M  V30 19739 C 1877.41 -3.77643 3.57326 0
M  V30 19740 C 1875.1 -4.06829 2.94611 0
M  V30 19741 C 1877.09 -4.08688 4.89134 0
M  V30 19742 C 1874.78 -4.37539 4.26618 0
M  V30 19743 C 1875.78 -4.3845 5.23689 0
M  V30 19744 O 1875.46 -4.68425 6.53325 0
M  V30 19745 H 1875.2 -0.608773 0.293891 0
M  V30 19746 H 1877.75 -1.4735 1.43098 0
M  V30 19747 H 1875.98 -3.83884 0.465848 0
M  V30 19748 H 1877.67 -3.96575 0.865029 0
M  V30 19749 H 1878.44 -3.54286 3.31219 0
M  V30 19750 H 1874.31 -4.05279 2.19704 0
M  V30 19751 H 1877.86 -4.09315 5.64896 0
M  V30 19752 H 1873.76 -4.60363 4.52478 0
M  V30 19753 H 1874.52 -4.86198 6.58448 0
M  V30 19754 N 1877.19 -0.855519 -1.32358 0
M  V30 19755 C 1878.44 -0.458415 -1.96832 0
M  V30 19756 C 1878.76 0.98946 -1.68032 0
M  V30 19757 O 1878.03 1.69161 -0.987995 0
M  V30 19758 H 1876.61 -0.166527 -0.728202 0
M  V30 19759 H 1879.27 -1.09214 -1.61426 0
M  V30 19760 H 1878.36 -0.604185 -3.06196 0
M  V30 19761 N 1878.67 1.45167 -0.61354 0
M  V30 19762 C 1879.63 2.29016 0.0919454 0
M  V30 19763 C 1880.63 1.40091 0.789373 0
M  V30 19764 O 1881.82 1.6215 0.636631 0
M  V30 19765 C 1878.95 3.21257 1.14048 0
M  V30 19766 H 1880.14 2.92875 -0.645317 0
M  V30 19767 H 1877.7 1.51788 -0.372855 0
M  V30 19768 H 1878.43 2.6221 1.90831 0
M  V30 19769 H 1878.22 3.86766 0.644523 0
M  V30 19770 H 1879.71 3.84288 1.63439 0
M  V30 19771 N 1880.14 0.353044 1.53595 0
M  V30 19772 C 1881.11 -0.48691 2.23968 0
M  V30 19773 C 1882.11 -1.01991 1.24316 0
M  V30 19774 O 1883.3 -0.907654 1.48685 0
M  V30 19775 C 1880.43 -1.67926 2.96671 0
M  V30 19776 H 1881.62 0.128707 2.99624 0
M  V30 19777 H 1879.17 0.104533 1.5595 0
M  V30 19778 H 1879.91 -2.33331 2.25227 0
M  V30 19779 H 1879.69 -1.30417 3.69776 0
M  V30 19780 H 1881.18 -2.2748 3.50203 0
M  V30 19781 N 1881.62 -1.57387 0.0818932 0
M  V30 19782 C 1882.85 -1.98201 -0.593645 0
M  V30 19783 C 1883.26 -0.960602 -1.62536 0
M  V30 19784 O 1882.62 0.0514903 -1.82427 0
M  V30 19785 C 1882.67 -3.39083 -1.2532 0
M  V30 19786 O 1882.39 -4.37311 -0.262763 0
M  V30 19787 C 1883.89 -3.94827 -2.0156 0
M  V30 19788 H 1881.11 -0.651606 -0.160159 0
M  V30 19789 H 1883.66 -2.03894 0.157281 0
M  V30 19790 H 1881.81 -3.34444 -1.95514 0
M  V30 19791 H 1882.23 -5.19294 -0.737169 0
M  V30 19792 H 1883.7 -4.95594 -2.43086 0
M  V30 19793 H 1884.18 -3.31921 -2.8762 0
M  V30 19794 H 1884.78 -4.02898 -1.36211 0
M  V30 19795 N 1883.1 0.191729 -1.56429 0
M  V30 19796 C 1884.35 0.911598 -1.80821 0
M  V30 19797 C 1884.67 1.83115 -0.655667 0
M  V30 19798 O 1883.93 1.92391 0.35837 0
M  V30 19799 C 1884.23 1.75708 -3.11226 0
M  V30 19800 C 1883.89 0.988211 -4.39938 0
M  V30 19801 C 1882.56 0.775937 -4.74903 0
M  V30 19802 C 1884.91 0.447459 -5.19276 0
M  V30 19803 C 1882.24 0.0114851 -5.86699 0
M  V30 19804 C 1884.59 -0.303799 -6.3187 0
M  V30 19805 C 1883.25 -0.527059 -6.65416 0
M  V30 19806 H 1882.52 0.333577 -0.66167 0
M  V30 19807 H 1885.17 0.177758 -1.90673 0
M  V30 19808 H 1883.47 2.5597 -2.96626 0
M  V30 19809 H 1885.17 2.31674 -3.27304 0
M  V30 19810 H 1881.76 1.16368 -4.125 0
M  V30 19811 H 1885.95 0.59885 -4.92674 0
M  V30 19812 H 1881.2 -0.171429 -6.1116 0
M  V30 19813 H 1885.38 -0.730171 -6.92562 0
M  V30 19814 H 1883 -1.12131 -7.51885 0
M  V30 19815 N 1884.58 1.50751 0.459565 0
M  V30 19816 C 1885.81 1.66089 1.23377 0
M  V30 19817 C 1886.22 0.348952 1.85547 0
M  V30 19818 O 1885.58 -0.670323 1.69744 0
M  V30 19819 C 1885.63 2.76047 2.3341 0
M  V30 19820 O 1885.35 4.02156 1.73787 0
M  V30 19821 C 1886.85 3.02461 3.24087 0
M  V30 19822 H 1884.07 0.557971 0.372705 0
M  V30 19823 H 1886.61 1.97042 0.547242 0
M  V30 19824 H 1884.77 2.47756 2.97818 0
M  V30 19825 H 1885.18 4.63055 2.46335 0
M  V30 19826 H 1886.66 3.83034 3.97478 0
M  V30 19827 H 1887.13 2.13984 3.83546 0
M  V30 19828 H 1887.74 3.32326 2.65404 0
M  V30 19829 N 1886.06 -0.713531 1.40522 0
M  V30 19830 C 1887.47 -1.02187 1.22597 0
M  V30 19831 C 1887.67 -2.01239 0.102623 0
M  V30 19832 O 1886.73 -2.46684 -0.538822 0
M  V30 19833 C 1888.04 -1.56362 2.56849 0
M  V30 19834 C 1889.59 -1.68337 2.63878 0
M  V30 19835 C 1890.06 -2.25918 3.98403 0
M  V30 19836 N 1891.55 -2.33301 4.00156 0
M  V30 19837 C 1892.29 -2.78842 5.01034 0
M  V30 19838 N 1891.79 -3.24119 6.12306 0
M  V30 19839 N 1893.58 -2.78244 4.88402 0
M  V30 19840 H 1885.73 -0.0570118 2.12323 0
M  V30 19841 H 1887.99 -0.0878906 0.943917 0
M  V30 19842 H 1887.7 -0.910421 3.39712 0
M  V30 19843 H 1887.57 -2.54855 2.78081 0
M  V30 19844 H 1889.96 -2.32773 1.81385 0
M  V30 19845 H 1890.04 -0.684382 2.46475 0
M  V30 19846 H 1889.68 -1.62102 4.81337 0
M  V30 19847 H 1889.61 -3.26534 4.13138 0
M  V30 19848 H 1892.11 -2.01326 3.19807 0
M  V30 19849 H 1892.42 -3.57442 6.85168 0
M  V30 19850 H 1890.76 -3.22073 6.15868 0
M  V30 19851 H 1893.95 -2.42209 4.00565 0
M  V30 19852 H 1894.13 -3.13419 5.67162 0
M  V30 19853 N 1887.53 -1.26053 -0.945962 0
M  V30 19854 C 1888.76 -1.14079 -1.72608 0
M  V30 19855 C 1889.18 0.304506 -1.86328 0
M  V30 19856 O 1888.53 1.20885 -1.36723 0
M  V30 19857 C 1888.58 -1.79938 -3.13535 0
M  V30 19858 O 1888.31 -3.18819 -3.00476 0
M  V30 19859 C 1889.81 -1.73856 -4.07785 0
M  V30 19860 H 1887.03 -0.397486 -0.540598 0
M  V30 19861 H 1889.57 -1.66582 -1.1862 0
M  V30 19862 H 1887.73 -1.31385 -3.6444 0
M  V30 19863 H 1888.14 -3.51337 -3.89439 0
M  V30 19864 H 1889.61 -2.24584 -5.04248 0
M  V30 19865 H 1890.09 -0.704095 -4.33519 0
M  V30 19866 H 1890.7 -2.21939 -3.62799 0
M  V30 19867 N 1889.01 1.14984 -1.07779 0
M  V30 19868 C 1889.92 2.23484 -0.713576 0
M  V30 19869 C 1890.94 1.71779 0.277104 0
M  V30 19870 O 1892.11 2.01026 0.122649 0
M  V30 19871 C 1889.18 3.46487 -0.121542 0
M  V30 19872 C 1888.24 4.13162 -1.16602 0
M  V30 19873 C 1887.47 5.30292 -0.602138 0
M  V30 19874 O 1887.7 5.67439 0.580436 0
M  V30 19875 O 1886.63 5.86585 -1.34912 0
M  V30 19876 H 1890.46 2.56978 -1.61852 0
M  V30 19877 H 1888.04 1.22791 -0.851038 0
M  V30 19878 H 1889.92 4.20896 0.206134 0
M  V30 19879 H 1888.6 3.14732 0.756659 0
M  V30 19880 H 1887.5 3.40655 -1.54612 0
M  V30 19881 H 1888.84 4.49007 -2.01627 0
M  V30 19882 N 1890.49 0.862526 1.31902 0
M  V30 19883 C 1891.44 0.31091 2.28696 0
M  V30 19884 C 1892.41 -0.586495 1.55401 0
M  V30 19885 O 1893.59 -0.519727 1.83585 0
M  V30 19886 C 1890.73 -0.487986 3.41632 0
M  V30 19887 C 1889.84 0.436096 4.29793 0
M  V30 19888 C 1888.98 -0.376197 5.29866 0
M  V30 19889 C 1888.02 0.544784 6.09671 0
M  V30 19890 N 1887.16 -0.230806 7.01721 0
M  V30 19891 H 1892 1.14156 2.75268 0
M  V30 19892 H 1889.53 0.574352 1.35424 0
M  V30 19893 H 1891.49 -0.966875 4.05842 0
M  V30 19894 H 1890.12 -1.28339 2.96191 0
M  V30 19895 H 1889.17 1.03341 3.66094 0
M  V30 19896 H 1890.48 1.14259 4.85537 0
M  V30 19897 H 1889.64 -0.917915 5.99716 0
M  V30 19898 H 1888.38 -1.11602 4.74759 0
M  V30 19899 H 1887.38 1.09832 5.38718 0
M  V30 19900 H 1888.61 1.28334 6.66864 0
M  V30 19901 H 1886.55 -0.95358 6.49032 0
M  V30 19902 H 1886.47 0.416499 7.54852 0
M  V30 19903 H 1887.74 -0.753996 7.75845 0
M  V30 19904 N 1891.97 -1.4484 0.62123 0
M  V30 19905 C 1893.2 -2.065 0.128561 0
M  V30 19906 C 1893.61 -1.46351 -1.19277 0
M  V30 19907 O 1892.97 -0.582692 -1.72948 0
M  V30 19908 C 1893.02 -3.615 -0.00297622 0
M  V30 19909 O 1892.74 -4.19407 1.26609 0
M  V30 19910 C 1894.24 -4.40174 -0.525505 0
M  V30 19911 H 1891.46 -0.666783 0.0751128 0
M  V30 19912 H 1894.01 -1.85868 0.852829 0
M  V30 19913 H 1892.16 -3.81427 -0.677635 0
M  V30 19914 H 1892.57 -5.12738 1.10454 0
M  V30 19915 H 1894.05 -5.49085 -0.566585 0
M  V30 19916 H 1894.53 -4.10918 -1.55057 0
M  V30 19917 H 1895.13 -4.25143 0.115568 0
M  V30 19918 N 1893.45 -0.361184 -1.53405 0
M  V30 19919 C 1894.41 0.475026 -2.24223 0
M  V30 19920 C 1895.41 1.01331 -1.24855 0
M  V30 19921 O 1896.6 0.899756 -1.49164 0
M  V30 19922 C 1893.73 1.6635 -2.97557 0
M  V30 19923 H 1894.92 -0.144595 -2.99551 0
M  V30 19924 H 1892.48 -0.112802 -1.55892 0
M  V30 19925 H 1893.21 2.32133 -2.26461 0
M  V30 19926 H 1893 1.28454 -3.70462 0
M  V30 19927 H 1894.49 2.2562 -3.51405 0
M  V30 19928 N 1894.92 1.57341 -0.0902386 0
M  V30 19929 C 1895.86 2.10775 0.900374 0
M  V30 19930 C 1896.87 1.0439 1.24926 0
M  V30 19931 O 1898.06 1.31851 1.20322 0
M  V30 19932 C 1895.16 2.56852 2.21089 0
M  V30 19933 C 1894.33 3.87016 2.03808 0
M  V30 19934 C 1893.39 4.18991 3.18328 0
M  V30 19935 O 1892.42 4.88292 2.92505 0
M  V30 19936 N 1893.62 3.74006 4.43959 0
M  V30 19937 H 1896.38 2.96392 0.444045 0
M  V30 19938 H 1893.94 1.61621 0.0949979 0
M  V30 19939 H 1895.94 2.75292 2.96642 0
M  V30 19940 H 1894.51 1.76271 2.58161 0
M  V30 19941 H 1893.73 3.77772 1.12613 0
M  V30 19942 H 1895.01 4.72181 1.89532 0
M  V30 19943 H 1894.41 3.18056 4.67821 0
M  V30 19944 H 1892.97 3.97611 5.16477 0
M  V30 19945 N 1896.4 -0.183431 1.56529 0
M  V30 19946 C 1897.65 -0.903332 1.8157 0
M  V30 19947 C 1897.98 -1.82417 0.666167 0
M  V30 19948 O 1897.26 -1.91635 -0.332621 0
M  V30 19949 C 1897.54 -1.70949 3.16936 0
M  V30 19950 C 1897.39 -0.812595 4.42399 0
M  V30 19951 C 1898.71 -2.6797 3.49113 0
M  V30 19952 H 1895.83 -0.326961 0.660504 0
M  V30 19953 H 1898.47 -0.170115 1.89237 0
M  V30 19954 H 1896.62 -2.33458 3.10531 0
M  V30 19955 H 1898.29 -0.201313 4.60861 0
M  V30 19956 H 1896.54 -0.119949 4.33634 0
M  V30 19957 H 1897.21 -1.4119 5.33638 0
M  V30 19958 H 1899.68 -2.15591 3.55893 0
M  V30 19959 H 1898.56 -3.21451 4.44927 0
M  V30 19960 H 1898.82 -3.47584 2.73199 0
M  V30 19961 N 1897.88 -1.50992 -0.451564 0
M  V30 19962 C 1899.11 -1.66741 -1.22495 0
M  V30 19963 C 1899.52 -0.358787 -1.8536 0
M  V30 19964 O 1898.88 0.661312 -1.70097 0
M  V30 19965 C 1898.93 -2.77281 -2.31943 0
M  V30 19966 O 1898.65 -4.03072 -1.71652 0
M  V30 19967 C 1900.15 -3.04175 -3.22479 0
M  V30 19968 H 1897.37 -0.55994 -0.369741 0
M  V30 19969 H 1899.92 -1.97329 -0.536785 0
M  V30 19970 H 1898.07 -2.49332 -2.965 0
M  V30 19971 H 1898.49 -4.64354 -2.43875 0
M  V30 19972 H 1899.96 -3.85137 -3.95441 0
M  V30 19973 H 1900.44 -2.16015 -3.82406 0
M  V30 19974 H 1901.04 -3.33729 -2.63638 0
M  V30 19975 N 1899.36 0.706069 -1.40899 0
M  V30 19976 C 1900.6 1.46821 -1.39898 0
M  V30 19977 C 1900.94 1.942 -0.00437855 0
M  V30 19978 O 1900.21 1.68815 0.966002 0
M  V30 19979 C 1900.5 2.68756 -2.39671 0
M  V30 19980 C 1900.35 2.27211 -3.88195 0
M  V30 19981 C 1901.67 3.70935 -2.36845 0
M  V30 19982 H 1898.79 0.532549 -0.509471 0
M  V30 19983 H 1901.43 0.805057 -1.72101 0
M  V30 19984 H 1899.58 3.25337 -2.1234 0
M  V30 19985 H 1901.25 1.76038 -4.2639 0
M  V30 19986 H 1899.49 1.59108 -4.03568 0
M  V30 19987 H 1900.16 3.14656 -4.53537 0
M  V30 19988 H 1902.64 3.24004 -2.61076 0
M  V30 19989 H 1901.52 4.53876 -3.08687 0
M  V30 19990 H 1901.78 4.19899 -1.38337 0
M  V30 19991 N 1900.84 1.26553 0.939264 0
M  V30 19992 C 1901.77 1.04069 2.04211 0
M  V30 19993 C 1902.78 0.000506291 1.628 0
M  V30 19994 O 1903.97 0.240794 1.76868 0
M  V30 19995 C 1901.07 0.554348 3.34335 0
M  V30 19996 C 1900.24 1.6642 4.04503 0
M  V30 19997 C 1899.3 1.17558 5.129 0
M  V30 19998 O 1898.33 1.87303 5.375 0
M  V30 19999 N 1899.53 0.0250252 5.80495 0
M  V30 20000 H 1902.3 1.99036 2.24065 0
M  V30 20001 H 1899.86 1.17964 1.10888 0
M  V30 20002 H 1901.85 0.211606 4.04146 0
M  V30 20003 H 1900.42 -0.301779 3.1114 0
M  V30 20004 H 1899.64 2.17779 3.28582 0
M  V30 20005 H 1900.93 2.4094 4.48136 0
M  V30 20006 H 1900.32 -0.557378 5.62947 0
M  V30 20007 H 1898.88 -0.258625 6.51287 0
M  V30 20008 N 1902.31 -1.14411 1.08387 0
M  V30 20009 C 1903.59 -1.8162 0.726188 0
M  V30 20010 C 1903.97 -1.95755 -0.790129 0
M  V30 20011 O 1903.32 -1.51725 -1.70856 0
M  V30 20012 C 1903.53 -3.17321 1.45287 0
M  V30 20013 C 1904.88 -3.92818 1.6118 0
M  V30 20014 O 1905.9 -3.2691 1.41451 0
M  V30 20015 O 1904.76 -5.1101 1.93728 0
M  V30 20016 H 1901.85 -0.785182 0.25965 0
M  V30 20017 H 1904.4 -1.21431 1.18544 0
M  V30 20018 H 1903.17 -3.02195 2.48584 0
M  V30 20019 H 1902.8 -3.85203 0.985093 0
M  V30 20020 N 1903.79 -0.869509 -1.31443 0
M  V30 20021 C 1905.02 -0.493849 -2.01435 0
M  V30 20022 C 1905.44 0.906049 -1.6484 0
M  V30 20023 O 1904.8 1.59777 -0.856794 0
M  V30 20024 C 1904.85 -0.657723 -3.54551 0
M  V30 20025 O 1903.95 0.303155 -4.11284 0
M  V30 20026 H 1903.29 -0.196494 -0.63426 0
M  V30 20027 H 1905.82 -1.1728 -1.6765 0
M  V30 20028 H 1905.83 -0.550841 -4.04264 0
M  V30 20029 H 1904.51 -1.67848 -3.80526 0
M  V30 20030 H 1903.09 0.151268 -3.72593 0
M  V30 20031 N 1905.27 1.44508 -0.628902 0
M  V30 20032 C 1906.2 2.28908 0.115743 0
M  V30 20033 C 1907.22 1.41158 0.811067 0
M  V30 20034 O 1908.4 1.65331 0.672887 0
M  V30 20035 C 1905.5 3.17471 1.18599 0
M  V30 20036 C 1904.68 4.33622 0.573612 0
M  V30 20037 C 1903.74 5.03236 1.53752 0
M  V30 20038 O 1902.76 5.59328 1.05553 0
M  V30 20039 N 1903.96 5.04483 2.87189 0
M  V30 20040 H 1906.73 2.93456 -0.608565 0
M  V30 20041 H 1904.29 1.54931 -0.469902 0
M  V30 20042 H 1906.28 3.60906 1.8311 0
M  V30 20043 H 1904.85 2.54687 1.81255 0
M  V30 20044 H 1904.07 3.93406 -0.25007 0
M  V30 20045 H 1905.36 5.08593 0.14509 0
M  V30 20046 H 1904.76 4.6024 3.28931 0
M  V30 20047 H 1903.32 5.51714 3.47066 0
M  V30 20048 N 1906.75 0.369315 1.53212 0
M  V30 20049 C 1907.98 -0.219858 2.05729 0
M  V30 20050 C 1908.39 -1.42148 1.24255 0
M  V30 20051 O 1907.75 -1.80274 0.284146 0
M  V30 20052 C 1907.8 -0.609683 3.56322 0
M  V30 20053 O 1907.52 0.544184 4.34707 0
M  V30 20054 C 1909.02 -1.25685 4.2511 0
M  V30 20055 H 1906.24 -0.037867 0.669931 0
M  V30 20056 H 1908.79 0.528765 1.97546 0
M  V30 20057 H 1906.94 -1.30822 3.64643 0
M  V30 20058 H 1907.36 0.228276 5.24003 0
M  V30 20059 H 1908.83 -1.48014 5.31785 0
M  V30 20060 H 1909.31 -2.21827 3.79064 0
M  V30 20061 H 1909.91 -0.59964 4.21052 0
M  V30 20062 N 1908.23 -1.57291 0.0985816 0
M  V30 20063 C 1909.47 -1.94478 -0.564304 0
M  V30 20064 C 1909.8 -0.980557 -1.67974 0
M  V30 20065 O 1909.06 -0.000761176 -1.957 0
M  V30 20066 C 1909.36 -3.38184 -1.15613 0
M  V30 20067 C 1909.02 -4.50601 -0.164125 0
M  V30 20068 C 1907.68 -4.81077 0.108706 0
M  V30 20069 C 1910.04 -5.18669 0.513033 0
M  V30 20070 C 1907.36 -5.76947 1.06533 0
M  V30 20071 C 1909.72 -6.15565 1.45815 0
M  V30 20072 C 1908.38 -6.44445 1.73918 0
M  V30 20073 H 1907.65 -0.711647 -0.206493 0
M  V30 20074 H 1910.3 -1.90697 0.175155 0
M  V30 20075 H 1908.6 -3.3856 -1.97191 0
M  V30 20076 H 1910.3 -3.6426 -1.67678 0
M  V30 20077 H 1906.89 -4.2685 -0.386958 0
M  V30 20078 H 1911.07 -4.95297 0.315398 0
M  V30 20079 H 1906.33 -5.97636 1.29002 0
M  V30 20080 H 1910.5 -6.67402 1.98865 0
M  V30 20081 H 1908.13 -7.1854 2.48201 0
M  V30 20082 N 1909.71 0.175127 -1.56624 0
M  V30 20083 C 1910.93 0.912099 -1.86267 0
M  V30 20084 C 1911.36 1.75204 -0.684485 0
M  V30 20085 O 1910.71 1.77557 0.366501 0
M  V30 20086 C 1910.76 1.76776 -3.14297 0
M  V30 20087 O 1909.87 2.86894 -2.96253 0
M  V30 20088 H 1909.21 0.255728 -0.61278 0
M  V30 20089 H 1911.74 0.174416 -2.03855 0
M  V30 20090 H 1911.75 2.16845 -3.45604 0
M  V30 20091 H 1910.42 1.15077 -3.99663 0
M  V30 20092 H 1909 2.50435 -2.76291 0
M  V30 20093 N 1911.18 1.5123 0.44355 0
M  V30 20094 C 1912.41 1.67389 1.21609 0
M  V30 20095 C 1912.83 0.368612 1.85167 0
M  V30 20096 O 1912.18 -0.652282 1.70445 0
M  V30 20097 C 1912.23 2.78507 2.30469 0
M  V30 20098 O 1911.96 4.03977 1.69512 0
M  V30 20099 C 1913.46 3.05881 3.20861 0
M  V30 20100 H 1910.68 0.561893 0.366766 0
M  V30 20101 H 1913.22 1.97611 0.526312 0
M  V30 20102 H 1911.38 2.50901 2.95173 0
M  V30 20103 H 1911.79 4.65641 2.41409 0
M  V30 20104 H 1913.26 3.87229 3.93393 0
M  V30 20105 H 1913.74 2.1804 3.81255 0
M  V30 20106 H 1914.35 3.35123 2.61864 0
M  V30 20107 N 1912.66 -0.698586 1.41271 0
M  V30 20108 C 1913.61 -1.83387 1.43081 0
M  V30 20109 C 1914.6 -1.66554 0.309204 0
M  V30 20110 O 1915.81 -1.73452 0.481084 0
M  V30 20111 H 1912.18 -0.604271 0.447617 0
M  V30 20112 H 1914.16 -1.78977 2.38767 0
M  V30 20113 C 1912.9 -3.21385 1.32692 0
M  V30 20114 H 1912.23 -3.34952 2.18283 0
M  V30 20115 H 1913.67 -4.00907 1.38019 0
M  V30 20116 C 1912.13 -3.36877 0.0389378 0
M  V30 20117 O 1912.66 -3.91081 -0.917515 0
M  V30 20118 N 1910.86 -2.90578 -0.0361557 0
M  V30 20119 H 1910.41 -2.46654 0.742925 0
M  V30 20120 H 1910.37 -3.01322 -0.897353 0
M  V30 20121 N 1914.14 -1.27049 -0.93254 0
M  V30 20122 C 1915.39 -1.13103 -1.6797 0
M  V30 20123 C 1915.71 0.324047 -1.91782 0
M  V30 20124 O 1914.97 1.25381 -1.5026 0
M  V30 20125 C 1915.27 -1.8547 -3.05509 0
M  V30 20126 C 1914.93 -3.35342 -3.01424 0
M  V30 20127 C 1913.6 -3.76222 -3.00017 0
M  V30 20128 C 1915.95 -4.30993 -2.93078 0
M  V30 20129 C 1913.28 -5.11125 -2.88041 0
M  V30 20130 C 1915.63 -5.65946 -2.82644 0
M  V30 20131 C 1914.29 -6.06126 -2.79585 0
M  V30 20132 H 1913.56 -0.413872 -0.614647 0
M  V30 20133 H 1916.21 -1.57598 -1.08789 0
M  V30 20134 H 1914.51 -1.33469 -3.68366 0
M  V30 20135 H 1916.21 -1.72112 -3.62186 0
M  V30 20136 H 1912.8 -3.02828 -3.03303 0
M  V30 20137 H 1916.99 -4.00385 -2.93267 0
M  V30 20138 H 1912.24 -5.41408 -2.84056 0
M  V30 20139 H 1916.42 -6.39738 -2.75151 0
M  V30 20140 H 1914.04 -7.10613 -2.70061 0
M  V30 20141 N 1915.62 1.13835 -1.08993 0
M  V30 20142 C 1916.55 2.18781 -0.683177 0
M  V30 20143 C 1917.56 1.60499 0.272748 0
M  V30 20144 O 1918.75 1.78401 0.059482 0
M  V30 20145 C 1915.85 3.38897 0.0146723 0
M  V30 20146 C 1915.02 4.26697 -0.961666 0
M  V30 20147 C 1914.08 5.25355 -0.298041 0
M  V30 20148 O 1913.11 5.61312 -0.944303 0
M  V30 20149 N 1914.31 5.7268 0.949645 0
M  V30 20150 H 1917.08 2.54293 -1.58605 0
M  V30 20151 H 1914.64 1.29114 -0.976792 0
M  V30 20152 H 1916.63 4.01965 0.469724 0
M  V30 20153 H 1915.2 3.01661 0.819722 0
M  V30 20154 H 1914.42 3.60473 -1.5954 0
M  V30 20155 H 1915.71 4.82218 -1.62305 0
M  V30 20156 H 1915.11 5.45606 1.49433 0
M  V30 20157 H 1913.66 6.37707 1.34809 0
M  V30 20158 N 1917.1 0.876467 1.3098 0
M  V30 20159 C 1918.34 0.491367 1.96757 0
M  V30 20160 C 1918.67 -0.955274 1.6908 0
M  V30 20161 O 1917.95 -1.6737 0.990843 0
M  V30 20162 C 1918.23 0.756745 3.52059 0
M  V30 20163 C 1918.09 2.25339 3.89284 0
M  V30 20164 C 1919.4 0.227549 4.39511 0
M  V30 20165 H 1916.52 0.179998 0.714681 0
M  V30 20166 H 1919.17 1.0989 1.54997 0
M  V30 20167 H 1917.32 0.239657 3.8776 0
M  V30 20168 H 1918.99 2.83824 3.63651 0
M  V30 20169 H 1917.23 2.72341 3.37658 0
M  V30 20170 H 1917.9 2.38971 4.97591 0
M  V30 20171 H 1920.38 0.670016 4.1067 0
M  V30 20172 H 1919.25 0.442629 5.47112 0
M  V30 20173 H 1919.51 -0.870833 4.33438 0
M  V30 20174 N 1918.57 -1.44173 0.636557 0
M  V30 20175 C 1919.85 -1.9546 0.0738864 0
M  V30 20176 C 1920.23 -1.57838 -1.4018 0
M  V30 20177 O 1919.58 -0.855144 -2.11895 0
M  V30 20178 C 1919.79 -3.47687 0.302493 0
M  V30 20179 C 1921.14 -4.24135 0.198569 0
M  V30 20180 O 1922.16 -3.5543 0.234151 0
M  V30 20181 O 1921.02 -5.46393 0.108108 0
M  V30 20182 H 1918.11 -0.826777 -0.0191985 0
M  V30 20183 H 1920.66 -1.54196 0.708638 0
M  V30 20184 H 1919.43 -3.68139 1.32625 0
M  V30 20185 H 1919.05 -3.95911 -0.366134 0
M  V30 20186 N 1920.05 -0.377435 -1.53014 0
M  V30 20187 C 1921 0.478416 -2.27627 0
M  V30 20188 C 1921.99 1.07327 -1.31062 0
M  V30 20189 O 1923.2 1.01511 -1.48646 0
M  V30 20190 H 1919.57 0.173021 -0.731825 0
M  V30 20191 H 1921.55 -0.172497 -2.97901 0
M  V30 20192 C 1920.29 1.59993 -3.08703 0
M  V30 20193 H 1919.62 1.15151 -3.82858 0
M  V30 20194 H 1921.06 2.17324 -3.64069 0
M  V30 20195 C 1919.52 2.54912 -2.20275 0
M  V30 20196 O 1920.05 3.58027 -1.82152 0
M  V30 20197 N 1918.25 2.24376 -1.84672 0
M  V30 20198 H 1917.8 1.40559 -2.15873 0
M  V30 20199 H 1917.76 2.88137 -1.25794 0
M  V30 20200 N 1921.53 1.57237 -0.106922 0
M  V30 20201 C 1922.48 2.15912 0.865145 0
M  V30 20202 C 1923.47 1.1051 1.2839 0
M  V30 20203 O 1924.68 1.28834 1.25705 0
M  V30 20204 H 1921.05 0.690837 0.297065 0
M  V30 20205 H 1923.02 2.96391 0.345677 0
M  V30 20206 C 1921.77 2.76355 2.11005 0
M  V30 20207 H 1921.1 3.57152 1.79674 0
M  V30 20208 H 1922.54 3.20963 2.77053 0
M  V30 20209 C 1921 1.72834 2.89188 0
M  V30 20210 O 1921.53 1.1744 3.84149 0
M  V30 20211 N 1919.73 1.43053 2.52951 0
M  V30 20212 H 1919.28 1.88289 1.75798 0
M  V30 20213 H 1919.24 0.740287 3.0556 0
M  V30 20214 N 1923.01 -0.166818 1.56715 0
M  V30 20215 C 1923.96 -1.22576 1.97681 0
M  V30 20216 C 1924.95 -1.45578 0.866218 0
M  V30 20217 O 1926.16 -1.46105 1.05135 0
M  V30 20218 H 1922.53 -0.412144 0.629 0
M  V30 20219 H 1924.5 -0.853418 2.85936 0
M  V30 20220 C 1923.25 -2.55649 2.35667 0
M  V30 20221 H 1922.57 -2.38774 3.20666 0
M  V30 20222 H 1924.01 -3.28421 2.68171 0
M  V30 20223 C 1922.47 -3.14737 1.20177 0
M  V30 20224 O 1923 -3.98678 0.491844 0
M  V30 20225 N 1921.21 -2.73892 0.971164 0
M  V30 20226 H 1920.76 -2.05732 1.55023 0
M  V30 20227 H 1920.71 -3.13761 0.20029 0
M  V30 20228 N 1924.49 -1.51463 -0.435524 0
M  V30 20229 C 1925.42 -1.75856 -1.53613 0
M  V30 20230 C 1926.4 -0.608449 -1.58846 0
M  V30 20231 O 1927.58 -0.85135 -1.74544 0
M  V30 20232 C 1924.71 -1.88525 -2.91677 0
M  V30 20233 C 1923.67 -3.03972 -3.01305 0
M  V30 20234 C 1922.99 -3.01828 -4.41366 0
M  V30 20235 C 1924.29 -4.43905 -2.75219 0
M  V30 20236 H 1925.99 -2.68013 -1.33452 0
M  V30 20237 H 1923.53 -1.28968 -0.640564 0
M  V30 20238 H 1925.49 -2.04173 -3.68634 0
M  V30 20239 H 1924.21 -0.930179 -3.13074 0
M  V30 20240 H 1922.87 -2.88033 -2.26788 0
M  V30 20241 H 1922.52 -2.04095 -4.59733 0
M  V30 20242 H 1922.22 -3.79353 -4.48737 0
M  V30 20243 H 1923.74 -3.19572 -5.20294 0
M  V30 20244 H 1925.15 -4.60187 -3.41908 0
M  V30 20245 H 1923.55 -5.2315 -2.93998 0
M  V30 20246 H 1924.62 -4.53818 -1.70814 0
M  V30 20247 N 1925.96 0.691085 -1.4164 0
M  V30 20248 C 1926.89 1.8173 -1.46616 0
M  V30 20249 C 1927.88 1.66979 -0.324357 0
M  V30 20250 O 1929.06 1.86644 -0.536424 0
M  V30 20251 C 1926.19 3.19903 -1.35201 0
M  V30 20252 C 1925.14 3.49366 -2.47239 0
M  V30 20253 C 1924.47 4.86942 -2.20887 0
M  V30 20254 C 1925.77 3.47891 -3.89575 0
M  V30 20255 H 1927.46 1.77823 -2.40872 0
M  V30 20256 H 1925.01 0.8541 -1.15936 0
M  V30 20257 H 1926.96 3.98407 -1.37293 0
M  V30 20258 H 1925.69 3.24448 -0.374312 0
M  V30 20259 H 1924.35 2.73215 -2.44436 0
M  V30 20260 H 1923.99 4.88118 -1.2145 0
M  V30 20261 H 1923.69 5.0762 -2.95966 0
M  V30 20262 H 1925.22 5.67751 -2.24703 0
M  V30 20263 H 1926.63 4.16392 -3.94069 0
M  V30 20264 H 1925.03 3.80101 -4.64374 0
M  V30 20265 H 1926.1 2.46778 -4.17407 0
M  V30 20266 N 1927.44 1.27542 0.925789 0
M  V30 20267 C 1928.37 1.12952 2.04363 0
M  V30 20268 C 1929.35 0.0304761 1.70073 0
M  V30 20269 O 1930.54 0.205307 1.93112 0
M  V30 20270 C 1927.67 0.777954 3.38475 0
M  V30 20271 C 1926.62 1.83044 3.86883 0
M  V30 20272 C 1925.95 1.3328 5.17823 0
M  V30 20273 C 1927.25 3.23488 4.10065 0
M  V30 20274 H 1928.94 2.06462 2.16827 0
M  V30 20275 H 1926.49 0.994046 1.04186 0
M  V30 20276 H 1928.44 0.662702 4.16156 0
M  V30 20277 H 1927.17 -0.192851 3.2603 0
M  V30 20278 H 1925.82 1.93463 3.11396 0
M  V30 20279 H 1925.47 0.351399 5.01771 0
M  V30 20280 H 1925.17 2.03648 5.51182 0
M  V30 20281 H 1926.7 1.23053 5.98072 0
M  V30 20282 H 1928.11 3.16058 4.7831 0
M  V30 20283 H 1926.51 3.91583 4.54734 0
M  V30 20284 H 1927.58 3.68399 3.15293 0
M  V30 20285 N 1928.92 -1.13255 1.09595 0
M  V30 20286 C 1929.85 -2.20827 0.758791 0
M  V30 20287 C 1930.83 -1.68034 -0.264325 0
M  V30 20288 O 1932.02 -1.93751 -0.132005 0
M  V30 20289 C 1929.15 -3.46831 0.180424 0
M  V30 20290 C 1928.1 -4.12724 1.13325 0
M  V30 20291 C 1927.43 -5.33075 0.416504 0
M  V30 20292 C 1928.73 -4.59862 2.47637 0
M  V30 20293 H 1930.42 -2.49287 1.65821 0
M  V30 20294 H 1927.97 -1.19818 0.798734 0
M  V30 20295 H 1929.92 -4.21346 -0.0675313 0
M  V30 20296 H 1928.64 -3.17773 -0.754194 0
M  V30 20297 H 1927.3 -3.40179 1.36651 0
M  V30 20298 H 1926.95 -5.00281 -0.522308 0
M  V30 20299 H 1926.65 -5.78109 1.05183 0
M  V30 20300 H 1928.17 -6.10344 0.17689 0
M  V30 20301 H 1929.59 -5.25791 2.28509 0
M  V30 20302 H 1927.99 -5.15642 3.06974 0
M  V30 20303 H 1929.06 -3.74294 3.08273 0
M  V30 20304 N 1930.4 -0.883401 -1.30514 0
M  V30 20305 C 1931.33 -0.306278 -2.27144 0
M  V30 20306 C 1932.34 0.538264 -1.53644 0
M  V30 20307 O 1933.53 0.35807 -1.74872 0
M  V30 20308 C 1930.63 0.583276 -3.33843 0
M  V30 20309 C 1929.81 -0.231845 -4.36785 0
M  V30 20310 C 1928.86 0.587955 -5.22905 0
M  V30 20311 O 1927.89 0.0112122 -5.69199 0
M  V30 20312 N 1929.09 1.89737 -5.48617 0
M  V30 20313 H 1931.86 -1.13674 -2.77306 0
M  V30 20314 H 1929.42 -0.746227 -1.43677 0
M  V30 20315 H 1931.41 1.13773 -3.88379 0
M  V30 20316 H 1929.98 1.31441 -2.83623 0
M  V30 20317 H 1929.2 -0.967741 -3.82137 0
M  V30 20318 H 1930.49 -0.790664 -5.02619 0
M  V30 20319 H 1929.89 2.38889 -5.12785 0
M  V30 20320 H 1928.44 2.39931 -6.06033 0
M  V30 20321 N 1931.88 1.43833 -0.644194 0
M  V30 20322 C 1932.81 2.29017 0.0914574 0
M  V30 20323 C 1933.82 1.4201 0.79605 0
M  V30 20324 O 1935.01 1.66036 0.655313 0
M  V30 20325 C 1932.11 3.18711 1.15225 0
M  V30 20326 C 1931.28 4.34206 0.527588 0
M  V30 20327 C 1930.34 5.04839 1.48406 0
M  V30 20328 O 1929.37 5.60416 0.996143 0
M  V30 20329 N 1930.57 5.075 2.81822 0
M  V30 20330 H 1933.34 2.92794 -0.639656 0
M  V30 20331 H 1930.9 1.54424 -0.486308 0
M  V30 20332 H 1932.89 3.62827 1.79272 0
M  V30 20333 H 1931.46 2.56595 1.78543 0
M  V30 20334 H 1930.68 3.93119 -0.291782 0
M  V30 20335 H 1931.97 5.08718 0.091139 0
M  V30 20336 H 1931.36 4.63703 3.24031 0
M  V30 20337 H 1929.92 5.55364 3.41195 0
M  V30 20338 N 1933.35 0.385544 1.52811 0
M  V30 20339 C 1934.6 -0.19907 2.00715 0
M  V30 20340 C 1934.92 -1.48216 1.27638 0
M  V30 20341 O 1936.12 -2.14659 1.66234 0
M  V30 20342 C 1934.58 -0.405311 3.5761 0
M  V30 20343 C 1934.19 0.864306 4.39584 0
M  V30 20344 C 1935.93 -0.946495 4.13814 0
M  V30 20345 C 1933.84 0.626551 5.88072 0
M  V30 20346 H 1932.77 -0.0781676 0.749937 0
M  V30 20347 H 1935.42 0.507365 1.76346 0
M  V30 20348 H 1933.8 -1.1735 3.78213 0
M  V30 20349 H 1934.97 1.63683 4.30749 0
M  V30 20350 H 1933.29 1.33017 3.94583 0
M  V30 20351 H 1935.89 -1.14002 5.22406 0
M  V30 20352 H 1936.23 -1.91447 3.69667 0
M  V30 20353 H 1936.76 -0.23797 3.97088 0
M  V30 20354 H 1933.5 1.56542 6.36534 0
M  V30 20355 H 1933.02 -0.107102 5.99704 0
M  V30 20356 H 1934.7 0.259654 6.46479 0
M  V30 20357 N 1934.83 -1.57178 0.115259 0
M  V30 20358 C 1936.06 -1.99842 -0.554802 0
M  V30 20359 C 1936.48 -0.994368 -1.59668 0
M  V30 20360 O 1935.84 0.0344531 -1.81267 0
M  V30 20361 C 1935.89 -3.41399 -1.16099 0
M  V30 20362 O 1934.99 -3.43868 -2.27659 0
M  V30 20363 H 1934.33 -0.649301 -0.138937 0
M  V30 20364 H 1936.86 -2.03594 0.202629 0
M  V30 20365 H 1936.87 -3.79527 -1.49743 0
M  V30 20366 H 1935.55 -4.13993 -0.397827 0
M  V30 20367 H 1934.13 -3.17555 -1.95482 0
M  V30 20368 N 1936.31 0.158505 -1.56801 0
M  V30 20369 C 1937.24 1.19799 -2.00426 0
M  V30 20370 C 1938.22 1.45453 -0.881905 0
M  V30 20371 O 1939.41 1.56569 -1.1489 0
M  V30 20372 C 1936.54 2.53392 -2.37508 0
M  V30 20373 C 1935.49 2.42283 -3.52822 0
M  V30 20374 C 1934.82 3.80482 -3.75683 0
M  V30 20375 C 1936.12 1.91666 -4.85862 0
M  V30 20376 H 1937.81 0.835303 -2.87512 0
M  V30 20377 H 1935.36 0.400366 -1.38322 0
M  V30 20378 H 1937.31 3.26326 -2.66625 0
M  V30 20379 H 1936.03 2.91474 -1.47345 0
M  V30 20380 H 1934.69 1.71801 -3.23852 0
M  V30 20381 H 1934.34 4.15979 -2.8279 0
M  V30 20382 H 1934.04 3.73913 -4.5328 0
M  V30 20383 H 1935.57 4.54982 -4.07214 0
M  V30 20384 H 1936.98 2.54384 -5.13772 0
M  V30 20385 H 1935.38 1.96016 -5.67184 0
M  V30 20386 H 1936.45 0.871666 -4.77001 0
M  V30 20387 N 1937.79 1.51692 0.427485 0
M  V30 20388 C 1939.2 1.57214 1.007 0
M  V30 20389 C 1939.55 0.401527 1.92047 0
M  V30 20390 O 1938.68 -0.480464 2.10999 0
M  V30 20391 C 1939.27 2.84927 1.83309 0
M  V30 20392 C 1937.83 2.92989 2.36294 0
M  V30 20393 C 1936.98 2.51977 1.15772 0
M  V30 20394 H 1939.93 1.57326 0.208386 0
M  V30 20395 H 1939.95 2.69245 2.68863 0
M  V30 20396 H 1939.46 3.70108 1.16799 0
M  V30 20397 H 1937.56 2.1226 3.06229 0
M  V30 20398 H 1937.68 3.9685 2.68416 0
M  V30 20399 H 1936.04 2.054 1.50608 0
M  V30 20400 H 1936.82 3.39512 0.508568 0
M  V30 20401 N 1939.27 -0.683564 1.42004 0
M  V30 20402 C 1940.18 -1.82689 1.4718 0
M  V30 20403 C 1941.19 -1.70208 0.361298 0
M  V30 20404 O 1942.37 -1.91912 0.610867 0
M  V30 20405 C 1939.43 -3.18767 1.3634 0
M  V30 20406 C 1938.5 -3.43269 2.57808 0
M  V30 20407 C 1937.73 -4.72855 2.47476 0
M  V30 20408 O 1937.95 -5.50164 1.50584 0
M  V30 20409 O 1936.89 -4.98407 3.37452 0
M  V30 20410 H 1940.71 -1.81279 2.43663 0
M  V30 20411 H 1938.3 -0.838182 1.23672 0
M  V30 20412 H 1940.18 -3.99986 1.32624 0
M  V30 20413 H 1938.85 -3.20834 0.429781 0
M  V30 20414 H 1937.76 -2.61933 2.67099 0
M  V30 20415 H 1939.09 -3.46025 3.50039 0
M  V30 20416 N 1940.75 -1.28031 -0.919012 0
M  V30 20417 C 1941.68 -1.14034 -2.03761 0
M  V30 20418 C 1942.66 -0.039495 -1.70054 0
M  V30 20419 O 1943.84 -0.215546 -1.93 0
M  V30 20420 C 1940.97 -0.795894 -3.38057 0
M  V30 20421 C 1939.93 -1.85093 -3.85907 0
M  V30 20422 C 1939.25 -1.36024 -5.17109 0
M  V30 20423 C 1940.55 -3.25658 -4.08343 0
M  V30 20424 H 1942.25 -2.07609 -2.15729 0
M  V30 20425 H 1939.79 -0.999558 -1.03657 0
M  V30 20426 H 1941.74 -0.684762 -4.15799 0
M  V30 20427 H 1940.47 0.175558 -3.26128 0
M  V30 20428 H 1939.13 -1.95112 -3.10366 0
M  V30 20429 H 1938.78 -0.378004 -5.01578 0
M  V30 20430 H 1938.48 -2.06568 -5.50094 0
M  V30 20431 H 1940 -1.26223 -5.97411 0
M  V30 20432 H 1941.41 -3.1859 -4.76627 0
M  V30 20433 H 1939.81 -3.93989 -4.52651 0
M  V30 20434 H 1940.88 -3.70066 -3.13335 0
M  V30 20435 N 1942.22 1.12672 -1.10194 0
M  V30 20436 C 1943.63 1.65664 -0.860944 0
M  V30 20437 C 1943.99 1.86502 0.609208 0
M  V30 20438 O 1943.11 1.58967 1.46828 0
M  V30 20439 C 1943.71 3.00939 -1.55632 0
M  V30 20440 C 1942.26 3.5089 -1.36209 0
M  V30 20441 C 1941.41 2.25966 -1.60732 0
M  V30 20442 H 1944.36 0.964871 -1.26 0
M  V30 20443 H 1944.38 3.6729 -0.99391 0
M  V30 20444 H 1943.9 2.85741 -2.62629 0
M  V30 20445 H 1942 3.71278 -0.313645 0
M  V30 20446 H 1942.11 4.30509 -2.10235 0
M  V30 20447 H 1940.47 2.32949 -1.0299 0
M  V30 20448 H 1941.26 2.13324 -2.68975 0
M  V30 20449 N 1943.7 0.89031 1.30043 0
M  V30 20450 C 1944.95 0.51044 1.95548 0
M  V30 20451 C 1945.27 -0.944562 1.70596 0
M  V30 20452 O 1944.54 -1.66482 1.0325 0
M  V30 20453 H 1943.12 0.185776 0.723531 0
M  V30 20454 H 1945.78 1.13455 1.58474 0
M  V30 20455 H 1944.88 0.685155 3.04487 0
M  V30 20456 N 1945.18 -1.43489 0.651812 0
M  V30 20457 C 1946.09 -2.34564 -0.0413115 0
M  V30 20458 C 1947.11 -1.53803 -0.81368 0
M  V30 20459 O 1948.28 -1.86459 -0.761246 0
M  V30 20460 C 1945.35 -3.32063 -0.996745 0
M  V30 20461 C 1944.41 -4.28728 -0.221464 0
M  V30 20462 C 1943.64 -5.2157 -1.13139 0
M  V30 20463 O 1943.86 -5.18804 -2.37062 0
M  V30 20464 O 1942.8 -5.98856 -0.604552 0
M  V30 20465 H 1946.62 -2.95325 0.708295 0
M  V30 20466 H 1944.21 -1.43607 0.411999 0
M  V30 20467 H 1946.09 -3.92022 -1.54586 0
M  V30 20468 H 1944.77 -2.73807 -1.7266 0
M  V30 20469 H 1943.67 -3.72254 0.371205 0
M  V30 20470 H 1945.01 -4.89962 0.468797 0
M  V30 20471 N 1946.66 -0.393643 -1.52605 0
M  V30 20472 C 1947.89 0.186829 -2.05754 0
M  V30 20473 C 1948.3 1.40704 -1.26488 0
M  V30 20474 O 1947.64 1.81137 -0.305794 0
M  V30 20475 C 1947.7 0.617257 -3.54161 0
M  V30 20476 C 1947.36 -0.490084 -4.54365 0
M  V30 20477 C 1948.36 -1.34885 -5.02098 0
M  V30 20478 C 1946.05 -0.658354 -4.97967 0
M  V30 20479 C 1948.04 -2.36097 -5.92062 0
M  V30 20480 C 1945.73 -1.6738 -5.8773 0
M  V30 20481 C 1946.73 -2.52353 -6.34671 0
M  V30 20482 O 1946.41 -3.52161 -7.2266 0
M  V30 20483 H 1946.15 0.0307838 -0.675299 0
M  V30 20484 H 1948.7 -0.558639 -1.97657 0
M  V30 20485 H 1946.93 1.41477 -3.5989 0
M  V30 20486 H 1948.62 1.12389 -3.9003 0
M  V30 20487 H 1949.38 -1.23018 -4.69139 0
M  V30 20488 H 1945.26 -0.00666652 -4.61 0
M  V30 20489 H 1948.81 -3.02456 -6.28623 0
M  V30 20490 H 1944.7 -1.79284 -6.20103 0
M  V30 20491 H 1945.47 -3.48221 -7.40732 0
M  V30 20492 N 1948.14 1.57115 -0.123593 0
M  V30 20493 C 1949.38 1.95641 0.534082 0
M  V30 20494 C 1949.71 1.00726 1.66036 0
M  V30 20495 O 1948.99 0.045312 1.94447 0
M  V30 20496 C 1949.27 3.4407 1.06244 0
M  V30 20497 C 1949.13 4.49759 -0.0607321 0
M  V30 20498 C 1950.44 3.94451 1.95183 0
M  V30 20499 H 1947.56 0.71137 0.19267 0
M  V30 20500 H 1950.21 1.88944 -0.200083 0
M  V30 20501 H 1948.36 3.49909 1.68808 0
M  V30 20502 H 1950.03 4.56016 -0.69621 0
M  V30 20503 H 1948.27 4.27729 -0.723232 0
M  V30 20504 H 1948.94 5.50888 0.350271 0
M  V30 20505 H 1951.42 3.90945 1.42483 0
M  V30 20506 H 1950.29 4.98817 2.29069 0
M  V30 20507 H 1950.55 3.35417 2.88007 0
M  V30 20508 N 1949.61 -0.150187 1.56883 0
M  V30 20509 C 1950.86 -0.861749 1.82364 0
M  V30 20510 C 1951.18 -1.82479 0.704319 0
M  V30 20511 O 1952.38 -2.58027 0.844649 0
M  V30 20512 C 1950.84 -1.58305 3.23214 0
M  V30 20513 C 1950.45 -0.662577 4.43073 0
M  V30 20514 C 1952.19 -2.28159 3.57972 0
M  V30 20515 C 1950.1 -1.38532 5.74946 0
M  V30 20516 H 1949.03 -0.325546 0.6801 0
M  V30 20517 H 1951.68 -0.114505 1.83142 0
M  V30 20518 H 1950.06 -2.37581 3.16814 0
M  V30 20519 H 1951.23 0.0947281 4.60703 0
M  V30 20520 H 1949.55 -0.0726217 4.16337 0
M  V30 20521 H 1952.15 -2.82865 4.53753 0
M  V30 20522 H 1952.49 -3.04501 2.83874 0
M  V30 20523 H 1953.02 -1.55805 3.66019 0
M  V30 20524 H 1949.76 -0.663808 6.5213 0
M  V30 20525 H 1949.28 -2.11542 5.61258 0
M  V30 20526 H 1950.96 -1.9271 6.17634 0
M  V30 20527 N 1951.09 -1.51916 -0.419434 0
M  V30 20528 C 1952.32 -1.69302 -1.1893 0
M  V30 20529 C 1952.74 -0.398024 -1.84557 0
M  V30 20530 O 1952.09 0.625083 -1.71461 0
M  V30 20531 C 1952.14 -2.82139 -2.26009 0
M  V30 20532 O 1951.86 -4.06623 -1.63064 0
M  V30 20533 C 1953.37 -3.10947 -3.15954 0
M  V30 20534 H 1950.59 -0.567657 -0.357781 0
M  V30 20535 H 1953.13 -1.98424 -0.494807 0
M  V30 20536 H 1951.28 -2.55565 -2.91144 0
M  V30 20537 H 1951.7 -4.69423 -2.33971 0
M  V30 20538 H 1953.17 -3.93438 -3.87183 0
M  V30 20539 H 1953.65 -2.24078 -3.77738 0
M  V30 20540 H 1954.26 -3.39246 -2.56499 0
M  V30 20541 N 1952.57 0.676023 -1.42365 0
M  V30 20542 C 1953.82 1.43821 -1.4298 0
M  V30 20543 C 1954.15 1.94147 -0.0455702 0
M  V30 20544 O 1953.42 1.70826 0.929976 0
M  V30 20545 C 1953.71 2.63612 -2.45318 0
M  V30 20546 C 1953.56 2.18926 -3.92927 0
M  V30 20547 C 1954.88 3.65827 -2.4466 0
M  V30 20548 H 1952 0.521622 -0.520653 0
M  V30 20549 H 1954.64 0.76837 -1.7377 0
M  V30 20550 H 1952.79 3.2076 -2.19193 0
M  V30 20551 H 1954.46 1.66955 -4.30028 0
M  V30 20552 H 1952.71 1.50512 -4.06852 0
M  V30 20553 H 1953.38 3.04965 -4.60109 0
M  V30 20554 H 1955.85 3.18393 -2.6789 0
M  V30 20555 H 1954.73 4.47226 -3.18245 0
M  V30 20556 H 1954.99 4.1687 -1.47213 0
M  V30 20557 N 1954.05 1.28517 0.912209 0
M  V30 20558 C 1955.28 1.18615 1.69523 0
M  V30 20559 C 1955.69 -0.254997 1.8707 0
M  V30 20560 O 1955.05 -1.17217 1.3988 0
M  V30 20561 C 1955.1 1.88188 3.08655 0
M  V30 20562 O 1954.82 3.26673 2.91918 0
M  V30 20563 C 1956.32 1.84607 4.03032 0
M  V30 20564 H 1953.54 0.411679 0.529869 0
M  V30 20565 H 1956.09 1.69668 1.14162 0
M  V30 20566 H 1954.24 1.41001 3.60829 0
M  V30 20567 H 1954.65 3.61538 3.79987 0
M  V30 20568 H 1956.13 2.37874 4.98116 0
M  V30 20569 H 1956.61 0.818787 4.315 0
M  V30 20570 H 1957.21 2.3148 3.56787 0
M  V30 20571 N 1955.53 -1.12086 1.1079 0
M  V30 20572 C 1956.77 -1.83314 0.850901 0
M  V30 20573 C 1957.1 -1.84703 -0.625275 0
M  V30 20574 O 1956.37 -1.31277 -1.45406 0
M  V30 20575 H 1954.95 -0.678817 0.311797 0
M  V30 20576 H 1957.61 -1.35707 1.39891 0
M  V30 20577 H 1956.7 -2.87393 1.21704 0
M  V30 20578 N 1957 -0.897194 -1.29569 0
M  V30 20579 C 1957.91 -0.377551 -2.31542 0
M  V30 20580 C 1958.93 0.526431 -1.65845 0
M  V30 20581 O 1960.11 0.416614 -1.97044 0
M  V30 20582 C 1957.17 0.388744 -3.44514 0
M  V30 20583 C 1956.23 -0.546458 -4.25808 0
M  V30 20584 C 1955.47 0.183361 -5.33385 0
M  V30 20585 O 1955.69 1.40767 -5.52757 0
M  V30 20586 O 1954.62 -0.472827 -6.0004 0
M  V30 20587 H 1958.45 -1.22348 -2.77965 0
M  V30 20588 H 1956.03 -0.661433 -1.33961 0
M  V30 20589 H 1957.92 0.822167 -4.13302 0
M  V30 20590 H 1956.59 1.21077 -3.00203 0
M  V30 20591 H 1955.5 -1.02894 -3.59671 0
M  V30 20592 H 1956.83 -1.33483 -4.73754 0
M  V30 20593 N 1958.48 1.43142 -0.659413 0
M  V30 20594 C 1959.9 1.56203 -0.327538 0
M  V30 20595 C 1960.1 1.64194 1.16801 0
M  V30 20596 O 1959.15 1.60041 1.95303 0
M  V30 20597 C 1960.47 2.81982 -1.04434 0
M  V30 20598 C 1962.02 2.95735 -1.02518 0
M  V30 20599 C 1962.49 4.24354 -1.723 0
M  V30 20600 N 1963.98 4.31232 -1.69094 0
M  V30 20601 C 1964.72 5.29534 -2.19957 0
M  V30 20602 N 1964.21 6.34078 -2.79135 0
M  V30 20603 N 1966.01 5.21229 -2.10421 0
M  V30 20604 H 1958.16 1.36198 -1.62984 0
M  V30 20605 H 1960.42 0.654541 -0.685769 0
M  V30 20606 H 1960.13 2.82162 -2.09947 0
M  V30 20607 H 1960 3.72401 -0.599805 0
M  V30 20608 H 1962.39 2.95092 0.0215626 0
M  V30 20609 H 1962.47 2.06589 -1.50846 0
M  V30 20610 H 1962.11 4.25758 -2.76935 0
M  V30 20611 H 1962.04 5.12408 -1.21433 0
M  V30 20612 H 1964.53 3.56306 -1.25915 0
M  V30 20613 H 1964.85 7.05417 -3.15606 0
M  V30 20614 H 1963.19 6.34684 -2.83199 0
M  V30 20615 H 1966.38 4.38473 -1.63888 0
M  V30 20616 H 1966.55 5.97679 -2.50368 0
M  V30 20617 N 1959.96 0.40173 1.52394 0
M  V30 20618 C 1961.2 -0.176078 2.0364 0
M  V30 20619 C 1961.56 -1.43004 1.28117 0
M  V30 20620 O 1962.77 -2.08581 1.69551 0
M  V30 20621 C 1961.04 -0.425192 3.54862 0
M  V30 20622 S 1962.6 -0.971506 4.2791 0
M  V30 20623 H 1959.41 -0.0484885 0.709345 0
M  V30 20624 H 1962.02 0.552944 1.87517 0
M  V30 20625 H 1960.72 0.494352 4.07412 0
M  V30 20626 H 1960.25 -1.18229 3.75214 0
M  V30 20627 H 1962.27 -2.25275 4.42115 0
M  V30 20628 N 1961.44 -1.57047 0.131923 0
M  V30 20629 C 1962.68 -1.95921 -0.5237 0
M  V30 20630 C 1963.02 -1.01606 -1.65499 0
M  V30 20631 O 1962.29 -0.0556233 -1.9442 0
M  V30 20632 C 1962.58 -3.44629 -1.04418 0
M  V30 20633 C 1962.43 -4.4972 0.084583 0
M  V30 20634 C 1963.75 -3.9548 -1.93089 0
M  V30 20635 H 1960.87 -0.712382 -0.188894 0
M  V30 20636 H 1963.51 -1.88835 0.2101 0
M  V30 20637 H 1961.66 -3.50799 -1.6695 0
M  V30 20638 H 1963.33 -4.5564 0.720384 0
M  V30 20639 H 1961.57 -4.27339 0.745906 0
M  V30 20640 H 1962.24 -5.51066 -0.321051 0
M  V30 20641 H 1964.72 -3.91695 -1.40408 0
M  V30 20642 H 1963.6 -5.00025 -2.2642 0
M  V30 20643 H 1963.86 -3.36939 -2.86224 0
M  V30 20644 N 1962.92 0.141865 -1.5696 0
M  V30 20645 C 1964.15 0.867144 -1.87521 0
M  V30 20646 C 1964.55 1.75017 -0.718719 0
M  V30 20647 O 1963.9 1.80883 0.320455 0
M  V30 20648 C 1963.96 1.77109 -3.12846 0
M  V30 20649 C 1963.62 1.06471 -4.44424 0
M  V30 20650 C 1964.62 0.416192 -5.18231 0
M  V30 20651 C 1962.31 1.05268 -4.91145 0
M  V30 20652 C 1964.3 -0.234905 -6.36967 0
M  V30 20653 C 1961.99 0.397777 -6.09804 0
M  V30 20654 C 1962.98 -0.244885 -6.82561 0
M  V30 20655 O 1962.67 -0.889395 -7.98965 0
M  V30 20656 H 1962.4 0.255843 -0.625716 0
M  V30 20657 H 1964.96 0.137798 -2.04937 0
M  V30 20658 H 1963.19 2.54151 -2.91452 0
M  V30 20659 H 1964.88 2.36878 -3.29612 0
M  V30 20660 H 1965.64 0.417253 -4.83202 0
M  V30 20661 H 1961.52 1.54232 -4.34435 0
M  V30 20662 H 1965.07 -0.737115 -6.93695 0
M  V30 20663 H 1960.96 0.3944 -6.44294 0
M  V30 20664 H 1961.73 -0.791577 -8.14663 0
M  V30 20665 N 1964.39 1.52136 0.411372 0
M  V30 20666 C 1965.32 1.78277 1.50796 0
M  V30 20667 C 1966.31 0.633643 1.57857 0
M  V30 20668 O 1967.49 0.879011 1.73168 0
M  V30 20669 C 1964.62 1.93142 2.88641 0
M  V30 20670 C 1963.57 3.08727 2.96431 0
M  V30 20671 C 1962.9 3.08812 4.36508 0
M  V30 20672 C 1964.2 4.48228 2.68122 0
M  V30 20673 H 1965.89 2.70102 1.29171 0
M  V30 20674 H 1963.44 1.29971 0.619965 0
M  V30 20675 H 1965.39 2.10012 3.65339 0
M  V30 20676 H 1964.12 0.979869 3.11554 0
M  V30 20677 H 1962.78 2.91604 2.22177 0
M  V30 20678 H 1962.42 2.11383 4.56428 0
M  V30 20679 H 1962.12 3.86444 4.42645 0
M  V30 20680 H 1963.65 3.27809 5.15144 0
M  V30 20681 H 1965.06 4.65568 3.34544 0
M  V30 20682 H 1963.46 5.27761 2.85638 0
M  V30 20683 H 1964.53 4.56478 1.63572 0
M  V30 20684 N 1965.87 -0.668464 1.42721 0
M  V30 20685 C 1966.81 -1.794 1.42648 0
M  V30 20686 C 1967.82 -1.5953 0.324664 0
M  V30 20687 O 1969.01 -1.68532 0.588153 0
M  V30 20688 C 1966.11 -3.16602 1.20898 0
M  V30 20689 C 1965.28 -3.63266 2.43632 0
M  V30 20690 C 1964.34 -4.79221 2.17333 0
M  V30 20691 O 1963.37 -4.89441 2.90579 0
M  V30 20692 N 1964.57 -5.68372 1.18041 0
M  V30 20693 H 1967.33 -1.79946 2.39666 0
M  V30 20694 H 1964.89 -0.85178 1.37682 0
M  V30 20695 H 1966.89 -3.9184 1.01211 0
M  V30 20696 H 1965.46 -3.10918 0.323806 0
M  V30 20697 H 1964.68 -2.78638 2.78845 0
M  V30 20698 H 1965.96 -3.91186 3.25348 0
M  V30 20699 H 1965.36 -5.62773 0.574725 0
M  V30 20700 H 1963.92 -6.43394 1.0434 0
M  V30 20701 N 1967.35 -1.28999 -0.905381 0
M  V30 20702 C 1968.58 -1.19512 -1.68892 0
M  V30 20703 C 1968.99 0.245073 -1.87203 0
M  V30 20704 O 1968.35 1.16474 -1.405 0
M  V30 20705 C 1968.4 -1.89822 -3.07652 0
M  V30 20706 O 1968.12 -3.28217 -2.90181 0
M  V30 20707 C 1969.62 -1.86742 -4.02048 0
M  V30 20708 H 1966.84 -0.414483 -0.527678 0
M  V30 20709 H 1969.39 -1.70271 -1.1326 0
M  V30 20710 H 1967.54 -1.42913 -3.60076 0
M  V30 20711 H 1967.96 -3.63549 -3.78064 0
M  V30 20712 H 1969.43 -2.40512 -4.96848 0
M  V30 20713 H 1969.91 -0.841659 -4.3106 0
M  V30 20714 H 1970.51 -2.33369 -3.55555 0
M  V30 20715 N 1968.83 1.11497 -1.11383 0
M  V30 20716 C 1970.05 1.87567 -0.885056 0
M  V30 20717 C 1970.48 1.79581 0.559675 0
M  V30 20718 O 1969.84 1.15779 1.39517 0
M  V30 20719 C 1969.89 3.34354 -1.35053 0
M  V30 20720 O 1968.99 4.09085 -0.521865 0
M  V30 20721 H 1968.33 0.582433 -0.318853 0
M  V30 20722 H 1970.86 1.4094 -1.48314 0
M  V30 20723 H 1970.87 3.85201 -1.34478 0
M  V30 20724 H 1969.55 3.39484 -2.40257 0
M  V30 20725 H 1968.12 3.68144 -0.593669 0
M  V30 20726 N 1970.31 0.904053 1.29092 0
M  V30 20727 C 1971.24 0.329596 2.25807 0
M  V30 20728 C 1972.22 -0.560697 1.52627 0
M  V30 20729 O 1973.4 -0.50653 1.81567 0
M  V30 20730 C 1970.53 -0.529778 3.34531 0
M  V30 20731 C 1969.58 0.293796 4.25487 0
M  V30 20732 S 1970.41 1.69436 5.07988 0
M  V30 20733 C 1971.56 0.842029 6.2021 0
M  V30 20734 H 1971.8 1.14936 2.74184 0
M  V30 20735 H 1969.33 0.704675 1.37382 0
M  V30 20736 H 1971.29 -1.01981 3.97631 0
M  V30 20737 H 1969.95 -1.32382 2.8484 0
M  V30 20738 H 1969.14 -0.362868 5.02692 0
M  V30 20739 H 1968.74 0.717127 3.6706 0
M  V30 20740 H 1971.04 0.0673423 6.77467 0
M  V30 20741 H 1971.98 1.5863 6.90103 0
M  V30 20742 H 1972.39 0.394489 5.6312 0
M  V30 20743 N 1971.79 -1.4279 0.666995 0
M  V30 20744 C 1972.73 -2.30794 -0.0161644 0
M  V30 20745 C 1973.7 -1.45527 -0.800701 0
M  V30 20746 O 1974.89 -1.74372 -0.774527 0
M  V30 20747 C 1972.03 -3.31276 -0.966974 0
M  V30 20748 C 1971.14 -4.31637 -0.177086 0
M  V30 20749 C 1970.28 -5.19195 -1.12294 0
M  V30 20750 C 1969.31 -6.1124 -0.324284 0
M  V30 20751 N 1968.45 -6.91376 -1.22244 0
M  V30 20752 H 1973.29 -2.88662 0.74014 0
M  V30 20753 H 1970.83 -1.42194 0.376738 0
M  V30 20754 H 1972.79 -3.88054 -1.53198 0
M  V30 20755 H 1971.42 -2.75025 -1.69 0
M  V30 20756 H 1970.47 -3.77041 0.504428 0
M  V30 20757 H 1971.78 -4.96826 0.443328 0
M  V30 20758 H 1970.93 -5.80667 -1.75813 0
M  V30 20759 H 1969.67 -4.54164 -1.77725 0
M  V30 20760 H 1968.68 -5.48843 0.324174 0
M  V30 20761 H 1969.9 -6.78318 0.325818 0
M  V30 20762 H 1967.85 -6.28981 -1.86329 0
M  V30 20763 H 1967.77 -7.5314 -0.656918 0
M  V30 20764 H 1969.03 -7.57342 -1.84535 0
M  V30 20765 N 1973.26 -0.409806 -1.52179 0
M  V30 20766 C 1974.49 0.164995 -2.0594 0
M  V30 20767 C 1974.9 1.39354 -1.27973 0
M  V30 20768 O 1974.24 1.80802 -0.324989 0
M  V30 20769 C 1974.31 0.579659 -3.54796 0
M  V30 20770 C 1973.97 -0.538248 -4.53819 0
M  V30 20771 C 1974.97 -1.40203 -5.00639 0
M  V30 20772 C 1972.65 -0.711133 -4.97241 0
M  V30 20773 C 1974.65 -2.42363 -5.89524 0
M  V30 20774 C 1972.33 -1.73605 -5.85922 0
M  V30 20775 C 1973.33 -2.5907 -6.31959 0
M  V30 20776 O 1973.02 -3.59806 -7.18884 0
M  V30 20777 H 1972.75 0.0236196 -0.675587 0
M  V30 20778 H 1975.31 -0.579572 -1.97054 0
M  V30 20779 H 1973.54 1.37652 -3.61371 0
M  V30 20780 H 1975.22 1.08246 -3.912 0
M  V30 20781 H 1975.99 -1.27987 -4.67808 0
M  V30 20782 H 1971.87 -0.0555613 -4.60967 0
M  V30 20783 H 1975.41 -3.09106 -6.25379 0
M  V30 20784 H 1971.31 -1.85851 -6.18166 0
M  V30 20785 H 1972.08 -3.56058 -7.36997 0
M  V30 20786 N 1974.74 1.56975 -0.14025 0
M  V30 20787 C 1975.69 2.17699 0.819153 0
M  V30 20788 C 1976.68 1.13208 1.26017 0
M  V30 20789 O 1977.89 1.31472 1.22944 0
M  V30 20790 H 1974.26 0.696983 0.282345 0
M  V30 20791 H 1976.24 2.97058 0.28273 0
M  V30 20792 C 1974.98 2.80769 2.05096 0
M  V30 20793 H 1974.31 3.60882 1.72058 0
M  V30 20794 H 1975.75 3.26768 2.70183 0
M  V30 20795 C 1974.21 1.7893 2.85457 0
M  V30 20796 O 1974.74 1.25562 3.81572 0
M  V30 20797 N 1972.94 1.48386 2.4986 0
M  V30 20798 H 1972.49 1.91976 1.71765 0
M  V30 20799 H 1972.45 0.804935 3.03921 0
M  V30 20800 N 1976.22 -0.133539 1.57033 0
M  V30 20801 C 1977.47 -0.842358 1.83268 0
M  V30 20802 C 1977.78 -1.81722 0.723634 0
M  V30 20803 O 1978.99 -2.57117 0.871969 0
M  V30 20804 C 1977.44 -1.54868 3.24875 0
M  V30 20805 C 1977.05 -0.615546 4.43751 0
M  V30 20806 C 1978.8 -2.24349 3.60372 0
M  V30 20807 C 1976.7 -1.32426 5.76383 0
M  V30 20808 H 1975.63 -0.318314 0.683515 0
M  V30 20809 H 1978.28 -0.0950741 1.83254 0
M  V30 20810 H 1976.67 -2.34207 3.19316 0
M  V30 20811 H 1977.84 0.143586 4.60576 0
M  V30 20812 H 1976.15 -0.0284595 4.1639 0
M  V30 20813 H 1978.75 -2.78037 4.56727 0
M  V30 20814 H 1979.09 -3.01473 2.87088 0
M  V30 20815 H 1979.63 -1.51914 3.67651 0
M  V30 20816 H 1976.37 -0.594603 6.52798 0
M  V30 20817 H 1975.89 -2.05577 5.6347 0
M  V30 20818 H 1977.57 -1.86148 6.19643 0
M  V30 20819 N 1977.7 -1.52352 -0.403298 0
M  V30 20820 C 1978.63 -1.79074 -1.49849 0
M  V30 20821 C 1979.61 -0.642006 -1.57519 0
M  V30 20822 O 1980.79 -0.888182 -1.72699 0
M  V30 20823 C 1977.92 -1.9467 -2.87612 0
M  V30 20824 C 1976.88 -3.10295 -2.9479 0
M  V30 20825 C 1976.2 -3.11122 -4.34864 0
M  V30 20826 C 1977.5 -4.49643 -2.65741 0
M  V30 20827 H 1979.2 -2.70783 -1.27737 0
M  V30 20828 H 1976.74 -1.30298 -0.613064 0
M  V30 20829 H 1978.7 -2.11947 -3.64221 0
M  V30 20830 H 1977.42 -0.996377 -3.1103 0
M  V30 20831 H 1976.08 -2.92778 -2.20627 0
M  V30 20832 H 1975.73 -2.13801 -4.553 0
M  V30 20833 H 1975.43 -3.88786 -4.4059 0
M  V30 20834 H 1976.95 -3.30536 -5.13399 0
M  V30 20835 H 1978.37 -4.67335 -3.3207 0
M  V30 20836 H 1976.76 -5.29268 -2.82835 0
M  V30 20837 H 1977.83 -4.57339 -1.61149 0
M  V30 20838 N 1979.18 0.660885 -1.43074 0
M  V30 20839 C 1980.59 1.24187 -1.39407 0
M  V30 20840 C 1980.94 1.95973 -0.0942854 0
M  V30 20841 O 1980.06 2.00808 0.80654 0
M  V30 20842 C 1980.66 2.25865 -2.52528 0
M  V30 20843 C 1979.22 2.79459 -2.5215 0
M  V30 20844 C 1978.36 1.53984 -2.30617 0
M  V30 20845 H 1981.31 0.453383 -1.52086 0
M  V30 20846 H 1981.34 3.07886 -2.23577 0
M  V30 20847 H 1980.85 1.73589 -3.47114 0
M  V30 20848 H 1978.95 3.35818 -1.61422 0
M  V30 20849 H 1979.06 3.27526 -3.49662 0
M  V30 20850 H 1977.43 1.81056 -1.79139 0
M  V30 20851 H 1978.21 1.03654 -3.27278 0
M  V30 20852 N 1980.65 1.29477 0.898527 0
M  V30 20853 C 1981.56 1.16595 2.03575 0
M  V30 20854 C 1982.58 0.0889285 1.73773 0
M  V30 20855 O 1983.76 0.301228 1.99135 0
M  V30 20856 C 1980.82 0.844745 3.36251 0
M  V30 20857 C 1979.88 2.00573 3.79564 0
M  V30 20858 C 1979.12 1.69975 5.05909 0
M  V30 20859 O 1979.34 0.621246 5.67007 0
M  V30 20860 O 1978.27 2.54809 5.45303 0
M  V30 20861 H 1982.1 2.12098 2.17367 0
M  V30 20862 H 1979.68 1.0894 1.02237 0
M  V30 20863 H 1981.57 0.680229 4.15874 0
M  V30 20864 H 1980.24 -0.080494 3.236 0
M  V30 20865 H 1979.15 2.22549 3.00704 0
M  V30 20866 H 1980.48 2.91221 3.96801 0
M  V30 20867 N 1982.13 -1.10905 1.11972 0
M  V30 20868 C 1983.08 -2.17107 0.783135 0
M  V30 20869 C 1984.05 -1.6424 -0.24791 0
M  V30 20870 O 1985.23 -1.90399 -0.123577 0
M  V30 20871 C 1982.37 -3.44274 0.238574 0
M  V30 20872 C 1981.49 -4.11119 1.32685 0
M  V30 20873 C 1980.62 -5.25989 0.742236 0
M  V30 20874 C 1979.66 -5.84728 1.80997 0
M  V30 20875 N 1978.8 -6.90983 1.24444 0
M  V30 20876 H 1983.64 -2.45243 1.69292 0
M  V30 20877 H 1981.18 -1.20386 0.845323 0
M  V30 20878 H 1983.13 -4.17091 -0.0951679 0
M  V30 20879 H 1981.76 -3.16505 -0.634384 0
M  V30 20880 H 1980.82 -3.3632 1.77745 0
M  V30 20881 H 1982.13 -4.50824 2.13445 0
M  V30 20882 H 1981.28 -6.05638 0.358877 0
M  V30 20883 H 1980.02 -4.87604 -0.096622 0
M  V30 20884 H 1979.03 -5.03753 2.20258 0
M  V30 20885 H 1980.25 -6.25178 2.65196 0
M  V30 20886 H 1978.2 -6.54607 0.427323 0
M  V30 20887 H 1978.11 -7.29374 1.98869 0
M  V30 20888 H 1979.38 -7.74424 0.888154 0
M  V30 20889 N 1983.61 -0.910886 -1.2861 0
M  V30 20890 C 1984.52 -0.402088 -2.31129 0
M  V30 20891 C 1985.54 0.508811 -1.66394 0
M  V30 20892 O 1986.71 0.395691 -1.97475 0
M  V30 20893 C 1983.78 0.352182 -3.44907 0
M  V30 20894 C 1982.84 -0.59159 -4.25204 0
M  V30 20895 C 1982.07 0.126778 -5.33549 0
M  V30 20896 O 1982.29 1.34897 -5.54219 0
M  V30 20897 O 1981.23 -0.536442 -5.99505 0
M  V30 20898 H 1985.05 -1.25289 -2.76652 0
M  V30 20899 H 1982.64 -0.675604 -1.33251 0
M  V30 20900 H 1984.52 0.778285 -4.14151 0
M  V30 20901 H 1983.2 1.17886 -3.01471 0
M  V30 20902 H 1982.1 -1.06703 -3.5856 0
M  V30 20903 H 1983.44 -1.38501 -4.72312 0
M  V30 20904 N 1985.09 1.42434 -0.674558 0
M  V30 20905 C 1986.37 1.95196 -0.125683 0
M  V30 20906 C 1986.75 1.61499 1.35946 0
M  V30 20907 O 1986.09 0.911023 2.09553 0
M  V30 20908 C 1986.3 3.46762 -0.39457 0
M  V30 20909 C 1987.65 4.2346 -0.310951 0
M  V30 20910 O 1988.68 3.54684 -0.328304 0
M  V30 20911 O 1987.53 5.45914 -0.252937 0
M  V30 20912 H 1984.63 0.826995 -0.00272875 0
M  V30 20913 H 1987.17 1.52263 -0.749271 0
M  V30 20914 H 1985.95 3.64493 -1.42339 0
M  V30 20915 H 1985.57 3.96742 0.261037 0
M  V30 20916 N 1986.57 0.417871 1.51959 0
M  V30 20917 C 1987.79 -0.156736 2.06807 0
M  V30 20918 C 1988.22 -1.37354 1.28512 0
M  V30 20919 O 1987.57 -1.78494 0.317715 0
M  V30 20920 C 1987.62 -0.476913 3.57432 0
M  V30 20921 O 1986.73 -1.56654 3.81488 0
M  V30 20922 H 1986.07 -0.0103873 0.663919 0
M  V30 20923 H 1988.6 0.593593 1.958 0
M  V30 20924 H 1988.61 -0.733026 4.01361 0
M  V30 20925 H 1987.28 0.412542 4.13849 0
M  V30 20926 H 1985.86 -1.30191 3.49435 0
M  V30 20927 N 1988.04 -1.56898 0.148573 0
M  V30 20928 C 1989.46 -1.82957 -0.371991 0
M  V30 20929 C 1989.81 -1.06735 -1.64627 0
M  V30 20930 O 1988.93 -0.313128 -2.14123 0
M  V30 20931 C 1989.53 -3.31871 -0.681682 0
M  V30 20932 C 1988.09 -3.58506 -1.14676 0
M  V30 20933 C 1987.23 -2.76774 -0.170675 0
M  V30 20934 H 1990.18 -1.54248 0.373244 0
M  V30 20935 H 1990.2 -3.48112 -1.53618 0
M  V30 20936 H 1989.72 -3.8732 0.245938 0
M  V30 20937 H 1987.82 -3.08445 -2.09027 0
M  V30 20938 H 1987.93 -4.66961 -1.07165 0
M  V30 20939 H 1986.29 -2.45903 -0.663611 0
M  V30 20940 H 1987.08 -3.34995 0.750563 0
M  V30 20941 N 1989.52 0.125209 -1.57102 0
M  V30 20942 C 1990.77 0.834085 -1.84524 0
M  V30 20943 C 1991.1 1.8017 -0.732742 0
M  V30 20944 O 1990.35 1.93738 0.276448 0
M  V30 20945 C 1990.65 1.62349 -3.18398 0
M  V30 20946 C 1990.32 0.800729 -4.43733 0
M  V30 20947 C 1988.98 0.573817 -4.77766 0
M  V30 20948 C 1991.33 0.226814 -5.20706 0
M  V30 20949 C 1988.66 -0.237364 -5.8622 0
M  V30 20950 C 1991.01 -0.571524 -6.30013 0
M  V30 20951 C 1989.68 -0.80881 -6.62582 0
M  V30 20952 H 1988.95 0.305213 -0.675223 0
M  V30 20953 H 1991.59 0.0967265 -1.91256 0
M  V30 20954 H 1989.9 2.43158 -3.07215 0
M  V30 20955 H 1991.59 2.17583 -3.36836 0
M  V30 20956 H 1988.18 0.987673 -4.17065 0
M  V30 20957 H 1992.37 0.389351 -4.9477 0
M  V30 20958 H 1987.62 -0.430488 -6.09883 0
M  V30 20959 H 1991.8 -1.02325 -6.88841 0
M  V30 20960 H 1989.43 -1.4392 -7.46452 0
M  V30 20961 N 1991 1.52564 0.395213 0
M  V30 20962 C 1991.96 1.76262 1.46508 0
M  V30 20963 C 1992.96 0.632579 1.47835 0
M  V30 20964 O 1994.15 0.900582 1.49115 0
M  V30 20965 C 1991.29 1.85771 2.85835 0
M  V30 20966 H 1992.48 2.71784 1.26782 0
M  V30 20967 H 1990.03 1.43191 0.626572 0
M  V30 20968 H 1990.77 0.922125 3.10914 0
M  V30 20969 H 1990.55 2.67936 2.86274 0
M  V30 20970 H 1992.04 2.05799 3.63368 0
M  V30 20971 N 1992.48 -0.653289 1.43422 0
M  V30 20972 C 1993.41 -1.77779 1.51383 0
M  V30 20973 C 1994.39 -1.6606 0.368515 0
M  V30 20974 O 1995.57 -1.85157 0.585721 0
M  V30 20975 C 1992.7 -3.16206 1.43635 0
M  V30 20976 C 1991.66 -3.42688 2.56415 0
M  V30 20977 C 1990.98 -4.80915 2.3372 0
M  V30 20978 C 1992.28 -3.3744 3.98662 0
M  V30 20979 H 1993.98 -1.71374 2.45502 0
M  V30 20980 H 1991.52 -0.823062 1.1816 0
M  V30 20981 H 1993.48 -3.94627 1.47808 0
M  V30 20982 H 1992.2 -3.23341 0.460202 0
M  V30 20983 H 1990.86 -2.66638 2.51594 0
M  V30 20984 H 1990.51 -4.84726 1.34349 0
M  V30 20985 H 1990.21 -4.99594 3.09321 0
M  V30 20986 H 1991.73 -5.61594 2.39677 0
M  V30 20987 H 1993.15 -4.05798 4.0497 0
M  V30 20988 H 1991.54 -3.67656 4.74288 0
M  V30 20989 H 1992.61 -2.35624 4.23803 0
M  V30 20990 N 1993.96 -1.29952 -0.891648 0
M  V30 20991 C 1994.9 -1.15767 -1.99667 0
M  V30 20992 C 1995.87 -0.0488826 -1.66028 0
M  V30 20993 O 1997.06 -0.217864 -1.89552 0
M  V30 20994 C 1994.2 -0.848553 -3.34505 0
M  V30 20995 C 1993.31 -2.03857 -3.80876 0
M  V30 20996 C 1992.45 -1.66812 -5.04328 0
M  V30 20997 C 1991.49 -2.82348 -5.4309 0
M  V30 20998 N 1990.62 -2.45645 -6.57726 0
M  V30 20999 H 1995.46 -2.10304 -2.11131 0
M  V30 21000 H 1993 -1.04641 -1.03386 0
M  V30 21001 H 1994.96 -0.649983 -4.12106 0
M  V30 21002 H 1993.59 0.059928 -3.22744 0
M  V30 21003 H 1992.64 -2.34859 -2.99241 0
M  V30 21004 H 1993.95 -2.90402 -4.05547 0
M  V30 21005 H 1993.11 -1.43291 -5.89536 0
M  V30 21006 H 1991.84 -0.774269 -4.81515 0
M  V30 21007 H 1990.85 -3.06542 -4.56412 0
M  V30 21008 H 1992.07 -3.72409 -5.6788 0
M  V30 21009 H 1990.02 -1.58757 -6.365 0
M  V30 21010 H 1989.94 -3.25722 -6.82232 0
M  V30 21011 H 1991.21 -2.25463 -7.46181 0
M  V30 21012 N 1995.44 1.1031 -1.12559 0
M  V30 21013 C 1996.68 1.82567 -0.883005 0
M  V30 21014 C 1997.01 1.85031 0.589667 0
M  V30 21015 O 1996.29 1.3119 1.43595 0
M  V30 21016 C 1996.57 3.29171 -1.46009 0
M  V30 21017 C 1996.43 3.35032 -3.00122 0
M  V30 21018 C 1997.74 4.25591 -1.12073 0
M  V30 21019 H 1994.86 0.662829 -0.322221 0
M  V30 21020 H 1997.51 1.29276 -1.3924 0
M  V30 21021 H 1995.66 3.74684 -1.02685 0
M  V30 21022 H 1997.33 2.9799 -3.52135 0
M  V30 21023 H 1995.57 2.74892 -3.35584 0
M  V30 21024 H 1996.24 4.3827 -3.35595 0
M  V30 21025 H 1998.72 3.88318 -1.49494 0
M  V30 21026 H 1997.59 5.26528 -1.55112 0
M  V30 21027 H 1997.85 4.42088 -0.0331138 0
M  V30 21028 N 1996.91 0.917694 1.28125 0
M  V30 21029 C 1997.85 0.366394 2.26253 0
M  V30 21030 C 1998.86 -0.497338 1.55017 0
M  V30 21031 O 2000.05 -0.31158 1.7576 0
M  V30 21032 C 1997.15 -0.494558 3.35272 0
M  V30 21033 C 1996.32 0.34757 4.36017 0
M  V30 21034 C 1995.38 -0.449109 5.2428 0
M  V30 21035 O 1994.41 0.139705 5.69029 0
M  V30 21036 N 1995.61 -1.75125 5.53454 0
M  V30 21037 H 1998.37 1.20986 2.74194 0
M  V30 21038 H 1995.93 0.784058 1.41648 0
M  V30 21039 H 1997.93 -1.03436 3.91258 0
M  V30 21040 H 1996.5 -1.23875 2.87008 0
M  V30 21041 H 1995.72 1.06872 3.79437 0
M  V30 21042 H 1997 0.923647 5.00346 0
M  V30 21043 H 1996.4 -2.2521 5.18938 0
M  V30 21044 H 1994.96 -2.23778 6.12182 0
M  V30 21045 N 1998.39 -1.42074 0.682102 0
M  V30 21046 C 1999.62 -2.05769 0.216029 0
M  V30 21047 C 2000.03 -1.51278 -1.12962 0
M  V30 21048 O 1999.39 -0.655521 -1.70321 0
M  V30 21049 C 1999.44 -3.61187 0.150351 0
M  V30 21050 O 1999.16 -4.13659 1.44283 0
M  V30 21051 C 2000.66 -4.42007 -0.338339 0
M  V30 21052 H 1997.88 -0.662997 0.103326 0
M  V30 21053 H 2000.43 -1.82084 0.930895 0
M  V30 21054 H 1998.58 -3.83958 -0.515249 0
M  V30 21055 H 1999 -5.07592 1.32101 0
M  V30 21056 H 2000.47 -5.50994 -0.33319 0
M  V30 21057 H 2000.95 -4.17125 -1.37489 0
M  V30 21058 H 2001.55 -4.2427 0.295782 0
M  V30 21059 N 1999.87 -0.425924 -1.51735 0
M  V30 21060 C 2001.12 0.144557 -2.02284 0
M  V30 21061 C 2001.45 1.43351 -1.31012 0
M  V30 21062 O 2000.72 1.89877 -0.421524 0
M  V30 21063 C 2001.01 0.37505 -3.58142 0
M  V30 21064 C 2000.86 -0.931753 -4.40044 0
M  V30 21065 C 2002.18 1.14986 -4.24813 0
M  V30 21066 H 1999.3 0.0510632 -0.735229 0
M  V30 21067 H 2001.94 -0.562685 -1.81477 0
M  V30 21068 H 2000.09 0.977495 -3.76002 0
M  V30 21069 H 2001.76 -1.5673 -4.33859 0
M  V30 21070 H 2000 -1.53896 -4.05584 0
M  V30 21071 H 2000.68 -0.724661 -5.47223 0
M  V30 21072 H 2003.15 0.639666 -4.11154 0
M  V30 21073 H 2002.03 1.27989 -5.3377 0
M  V30 21074 H 2002.29 2.17496 -3.849 0
M  V30 21075 N 2001.35 1.56817 -0.156891 0
M  V30 21076 C 2002.76 1.83151 0.362283 0
M  V30 21077 C 2003.11 1.07606 1.64059 0
M  V30 21078 O 2002.23 0.324479 2.13953 0
M  V30 21079 C 2002.83 3.32228 0.664072 0
M  V30 21080 C 2001.39 3.59109 1.12773 0
M  V30 21081 C 2000.54 2.76861 0.155995 0
M  V30 21082 H 2003.49 1.54048 -0.381419 0
M  V30 21083 H 2003.51 3.48921 1.5177 0
M  V30 21084 H 2003.02 3.87184 -0.266475 0
M  V30 21085 H 2001.12 3.0955 2.07388 0
M  V30 21086 H 2001.23 4.67523 1.04687 0
M  V30 21087 H 1999.6 2.46251 0.650561 0
M  V30 21088 H 2000.38 3.34592 -0.768318 0
M  V30 21089 N 2002.83 -0.116876 1.57166 0
M  V30 21090 C 2003.76 -1.16901 1.97147 0
M  V30 21091 C 2004.77 -1.37537 0.871063 0
M  V30 21092 O 2005.96 -1.36574 1.14934 0
M  V30 21093 C 2003.06 -2.52863 2.2564 0
M  V30 21094 C 2002.23 -2.528 3.56946 0
M  V30 21095 C 2001.29 -3.70525 3.73628 0
M  V30 21096 O 2000.32 -3.54013 4.45717 0
M  V30 21097 N 2001.52 -4.89172 3.12556 0
M  V30 21098 H 2004.28 -0.828895 2.88009 0
M  V30 21099 H 2001.85 -0.306125 1.5898 0
M  V30 21100 H 2003.84 -3.30182 2.34013 0
M  V30 21101 H 2002.41 -2.79048 1.40894 0
M  V30 21102 H 2001.63 -1.61181 3.59742 0
M  V30 21103 H 2002.92 -2.49817 4.43248 0
M  V30 21104 H 2002.31 -5.05491 2.5396 0
M  V30 21105 H 2000.87 -5.64159 3.26447 0
M  V30 21106 N 2004.3 -1.52772 -0.387116 0
M  V30 21107 C 2005.53 -1.71787 -1.15312 0
M  V30 21108 C 2005.95 -0.437082 -1.83671 0
M  V30 21109 O 2005.3 0.588573 -1.72749 0
M  V30 21110 C 2005.35 -2.86869 -2.19974 0
M  V30 21111 O 2005.08 -4.0999 -1.54402 0
M  V30 21112 C 2006.58 -3.17579 -3.09287 0
M  V30 21113 H 2003.8 -0.575118 -0.345659 0
M  V30 21114 H 2006.34 -1.99428 -0.452607 0
M  V30 21115 H 2004.5 -2.61684 -2.85658 0
M  V30 21116 H 2004.91 -4.7428 -2.23961 0
M  V30 21117 H 2006.38 -4.01562 -3.7875 0
M  V30 21118 H 2006.86 -2.3204 -3.729 0
M  V30 21119 H 2007.47 -3.44611 -2.49246 0
M  V30 21120 N 2005.78 0.645673 -1.43767 0
M  V30 21121 C 2007.02 1.41719 -1.47293 0
M  V30 21122 C 2007.39 1.91753 -0.0972655 0
M  V30 21123 O 2008.59 2.68799 -0.007206 0
M  V30 21124 C 2006.86 2.56163 -2.4923 0
M  V30 21125 S 2008.42 3.44572 -2.7169 0
M  V30 21126 H 2005.23 0.483664 -0.521143 0
M  V30 21127 H 2007.84 0.748898 -1.80587 0
M  V30 21128 H 2006.54 2.17691 -3.47906 0
M  V30 21129 H 2006.07 3.27834 -2.17458 0
M  V30 21130 H 2008.09 4.53139 -2.02186 0
M  V30 21131 N 2007.26 1.30423 0.884744 0
M  V30 21132 C 2008.54 1.09917 1.61795 0
M  V30 21133 C 2008.92 -0.351448 2.08154 0
M  V30 21134 O 2008.26 -1.34299 1.84868 0
M  V30 21135 C 2008.47 2.10024 2.78731 0
M  V30 21136 C 2009.82 2.41754 3.49056 0
M  V30 21137 O 2010.85 2.08336 2.8892 0
M  V30 21138 O 2009.71 2.98918 4.57505 0
M  V30 21139 H 2006.8 0.422163 0.711131 0
M  V30 21140 H 2009.35 1.41849 0.9315 0
M  V30 21141 H 2008.12 3.07665 2.41781 0
M  V30 21142 H 2007.74 1.7891 3.55073 0
M  V30 21143 N 2008.74 -1.09711 1.13142 0
M  V30 21144 C 2009.99 -1.81468 0.889593 0
M  V30 21145 C 2010.31 -1.85988 -0.585956 0
M  V30 21146 O 2009.58 -1.34332 -1.42589 0
M  V30 21147 H 2008.16 -0.67205 0.326125 0
M  V30 21148 H 2010.82 -1.32709 1.42739 0
M  V30 21149 H 2009.91 -2.84746 1.27773 0
M  V30 21150 N 2010.22 -0.924476 -1.27637 0
M  V30 21151 C 2011.17 -0.392138 -2.24602 0
M  V30 21152 C 2012.15 0.501783 -1.52876 0
M  V30 21153 O 2013.34 0.339754 -1.73709 0
M  V30 21154 C 2010.47 0.356902 -3.4144 0
M  V30 21155 C 2009.56 -0.553352 -4.20475 0
M  V30 21156 N 2009.95 -1.67175 -4.77374 0
M  V30 21157 C 2008.25 -0.355752 -4.44579 0
M  V30 21158 C 2008.95 -2.23762 -5.36941 0
M  V30 21159 N 2007.92 -1.52759 -5.21695 0
M  V30 21160 H 2011.73 -1.24612 -2.66175 0
M  V30 21161 H 2009.24 -0.778373 -1.42531 0
M  V30 21162 H 2011.24 0.755192 -4.10003 0
M  V30 21163 H 2009.9 1.20785 -3.01399 0
M  V30 21164 H 2010.91 -2.05418 -4.7542 0
M  V30 21165 H 2007.58 0.454798 -4.15015 0
M  V30 21166 H 2008.97 -3.17902 -5.91936 0
M  V30 21167 N 2011.69 1.41711 -0.689627 0
M  V30 21168 C 2012.64 2.30791 -0.020555 0
M  V30 21169 C 2013.61 1.46782 0.777447 0
M  V30 21170 O 2014.8 1.75582 0.746688 0
M  V30 21171 C 2011.94 3.32772 0.914149 0
M  V30 21172 C 2011.05 4.31864 0.108394 0
M  V30 21173 C 2010.18 5.20916 1.0402 0
M  V30 21174 C 2009.22 6.11679 0.227 0
M  V30 21175 N 2008.36 6.93233 1.11229 0
M  V30 21176 H 2013.2 2.87448 -0.78597 0
M  V30 21177 H 2010.74 1.41576 -0.399313 0
M  V30 21178 H 2012.7 3.90442 1.47005 0
M  V30 21179 H 2011.33 2.77679 1.64603 0
M  V30 21180 H 2010.38 3.7619 -0.564348 0
M  V30 21181 H 2011.69 4.96058 -0.522312 0
M  V30 21182 H 2010.84 5.83391 1.66553 0
M  V30 21183 H 2009.58 4.56934 1.70477 0
M  V30 21184 H 2008.59 5.48258 -0.411449 0
M  V30 21185 H 2009.81 6.77714 -0.433691 0
M  V30 21186 H 2007.76 6.31866 1.76299 0
M  V30 21187 H 2007.68 7.5409 0.537017 0
M  V30 21188 H 2008.94 7.60182 1.72463 0
M  V30 21189 N 2013.17 0.433965 1.51507 0
M  V30 21190 C 2014.14 -0.367505 2.26234 0
M  V30 21191 C 2015.14 -0.952583 1.29547 0
M  V30 21192 O 2016.33 -0.827563 1.53287 0
M  V30 21193 C 2013.46 -1.51964 3.05155 0
M  V30 21194 H 2014.65 0.28735 2.9852 0
M  V30 21195 H 2012.2 0.187052 1.55177 0
M  V30 21196 H 2012.94 -2.21064 2.37278 0
M  V30 21197 H 2012.72 -1.10632 3.76169 0
M  V30 21198 H 2014.21 -2.08597 3.61769 0
M  V30 21199 N 2014.65 -1.56732 0.165206 0
M  V30 21200 C 2015.6 -2.14257 -0.779625 0
M  V30 21201 C 2016.58 -1.07517 -1.19704 0
M  V30 21202 O 2017.78 -1.33654 -1.16042 0
M  V30 21203 C 2014.91 -2.78206 -2.01137 0
M  V30 21204 C 2013.99 -3.92096 -1.61623 0
M  V30 21205 N 2014.38 -4.97171 -0.930308 0
M  V30 21206 C 2012.68 -4.03142 -1.90768 0
M  V30 21207 C 2013.38 -5.77017 -0.736666 0
M  V30 21208 N 2012.36 -5.28407 -1.27621 0
M  V30 21209 H 2016.16 -2.92864 -0.246531 0
M  V30 21210 H 2013.67 -1.62361 -0.0356946 0
M  V30 21211 H 2015.67 -3.17791 -2.69842 0
M  V30 21212 H 2014.33 -2.01078 -2.54947 0
M  V30 21213 H 2015.34 -5.14539 -0.589031 0
M  V30 21214 H 2012.02 -3.3711 -2.46299 0
M  V30 21215 H 2013.41 -6.71618 -0.194698 0
M  V30 21216 N 2016.13 0.10854 -1.57226 0
M  V30 21217 C 2017.36 0.828374 -1.89593 0
M  V30 21218 C 2017.77 1.72936 -0.757543 0
M  V30 21219 O 2017.13 1.80474 0.271152 0
M  V30 21220 C 2017.18 1.65304 -3.21492 0
M  V30 21221 O 2016.9 0.788315 -4.30949 0
M  V30 21222 C 2018.4 2.47711 -3.67633 0
M  V30 21223 H 2015.62 0.237584 -0.627531 0
M  V30 21224 H 2018.17 0.0897975 -2.04303 0
M  V30 21225 H 2016.32 2.34426 -3.0842 0
M  V30 21226 H 2016.73 1.35814 -5.06611 0
M  V30 21227 H 2018.21 3.01088 -4.62655 0
M  V30 21228 H 2018.69 3.25555 -2.94806 0
M  V30 21229 H 2019.29 1.83812 -3.83527 0
M  V30 21230 N 2017.61 1.52975 0.379009 0
M  V30 21231 C 2018.83 1.72698 1.14849 0
M  V30 21232 C 2019.26 0.448814 1.82667 0
M  V30 21233 O 2018.61 -0.596182 1.71217 0
M  V30 21234 C 2018.66 2.884 2.16466 0
M  V30 21235 O 2017.77 2.56071 3.23267 0
M  V30 21236 H 2017.11 0.573952 0.333878 0
M  V30 21237 H 2019.64 1.99807 0.440243 0
M  V30 21238 H 2019.65 3.14183 2.60295 0
M  V30 21239 H 2018.32 3.8112 1.66494 0
M  V30 21240 H 2016.9 2.41063 2.84505 0
M  V30 21241 N 2019.08 -0.63804 1.44107 0
M  V30 21242 C 2020.33 -1.39772 1.46526 0
M  V30 21243 C 2020.66 -1.94267 0.0952359 0
M  V30 21244 O 2019.91 -1.73674 -0.901993 0
M  V30 21245 C 2020.21 -2.58567 2.46734 0
M  V30 21246 C 2019.88 -2.22403 3.92234 0
M  V30 21247 C 2018.54 -2.12252 4.31859 0
M  V30 21248 C 2020.89 -1.93717 4.83863 0
M  V30 21249 C 2018.22 -1.71594 5.61046 0
M  V30 21250 C 2020.57 -1.54553 6.1343 0
M  V30 21251 C 2019.24 -1.42939 6.52016 0
M  V30 21252 H 2018.51 -0.511463 0.536177 0
M  V30 21253 H 2021.15 -0.724184 1.77279 0
M  V30 21254 H 2019.46 -3.31123 2.0944 0
M  V30 21255 H 2021.16 -3.16791 2.45855 0
M  V30 21256 H 2017.75 -2.31219 3.60882 0
M  V30 21257 H 2021.93 -2.00472 4.5401 0
M  V30 21258 H 2017.19 -1.612 5.89766 0
M  V30 21259 H 2021.36 -1.31393 6.83892 0
M  V30 21260 H 2018.99 -1.11206 7.52022 0
M  V30 21261 N 2020.56 -1.3089 -0.877815 0
M  V30 21262 C 2021.49 -1.13694 -1.99013 0
M  V30 21263 C 2022.51 -0.0781797 -1.62612 0
M  V30 21264 O 2023.7 -0.324906 -1.75518 0
M  V30 21265 C 2020.8 -0.713232 -3.3131 0
M  V30 21266 C 2019.97 -1.8553 -3.96103 0
M  V30 21267 C 2019.03 -1.41895 -5.06707 0
M  V30 21268 O 2018.05 -2.12734 -5.27952 0
M  V30 21269 N 2019.26 -0.301958 -5.79714 0
M  V30 21270 H 2022.02 -2.09499 -2.14313 0
M  V30 21271 H 2019.58 -1.2312 -1.05133 0
M  V30 21272 H 2021.57 -0.404189 -4.02677 0
M  V30 21273 H 2020.14 0.152987 -3.12225 0
M  V30 21274 H 2019.36 -2.33208 -3.17817 0
M  V30 21275 H 2020.65 -2.62046 -4.3613 0
M  V30 21276 H 2020.05 0.288154 -5.64966 0
M  V30 21277 H 2018.61 -0.0524068 -6.51779 0
M  V30 21278 N 2022.04 1.0911 -1.13723 0
M  V30 21279 C 2023.29 1.80725 -0.895618 0
M  V30 21280 C 2023.6 1.86812 0.579725 0
M  V30 21281 O 2024.81 2.54768 0.938368 0
M  V30 21282 C 2023.26 3.24679 -1.55278 0
M  V30 21283 C 2022.87 3.26849 -3.06388 0
M  V30 21284 C 2024.62 4.01028 -1.392 0
M  V30 21285 C 2022.52 4.65347 -3.64974 0
M  V30 21286 H 2021.45 0.677257 -0.33142 0
M  V30 21287 H 2024.1 1.22603 -1.36531 0
M  V30 21288 H 2022.49 3.82883 -1.01075 0
M  V30 21289 H 2023.66 2.78393 -3.67198 0
M  V30 21290 H 2021.98 2.63993 -3.2202 0
M  V30 21291 H 2024.57 5.03356 -1.80379 0
M  V30 21292 H 2024.92 4.14932 -0.337236 0
M  V30 21293 H 2025.45 3.49274 -1.904 0
M  V30 21294 H 2022.19 4.56646 -4.70271 0
M  V30 21295 H 2021.71 5.14115 -3.08943 0
M  V30 21296 H 2023.39 5.34322 -3.64841 0
M  V30 21297 N 2023.52 0.931232 1.27145 0
M  V30 21298 C 2024.74 0.589393 1.98849 0
M  V30 21299 C 2025.17 -0.82637 1.68976 0
M  V30 21300 O 2024.53 -1.55507 0.93205 0
M  V30 21301 C 2024.57 0.826135 3.51009 0
M  V30 21302 O 2023.68 -0.106581 4.12262 0
M  V30 21303 H 2023.02 0.226532 0.624163 0
M  V30 21304 H 2025.55 1.25145 1.61864 0
M  V30 21305 H 2025.56 0.743094 4.01176 0
M  V30 21306 H 2024.23 1.85812 3.72084 0
M  V30 21307 H 2022.81 0.0266735 3.7289 0
M  V30 21308 N 2025 -1.41343 0.697132 0
M  V30 21309 C 2025.93 -2.33452 0.0471857 0
M  V30 21310 C 2026.91 -1.51902 -0.765488 0
M  V30 21311 O 2028.09 -1.80434 -0.718146 0
M  V30 21312 C 2025.22 -3.35735 -0.888781 0
M  V30 21313 C 2024.18 -4.27608 -0.183088 0
M  V30 21314 C 2023.5 -5.20277 -1.23352 0
M  V30 21315 C 2024.8 -5.13559 0.951558 0
M  V30 21316 H 2026.5 -2.88052 0.816496 0
M  V30 21317 H 2024.04 -1.38502 0.394089 0
M  V30 21318 H 2026 -3.99098 -1.35272 0
M  V30 21319 H 2024.72 -2.79489 -1.68977 0
M  V30 21320 H 2023.38 -3.65671 0.260833 0
M  V30 21321 H 2023.03 -4.60346 -2.02708 0
M  V30 21322 H 2022.73 -5.82581 -0.766336 0
M  V30 21323 H 2024.25 -5.86517 -1.69793 0
M  V30 21324 H 2025.67 -5.70481 0.567835 0
M  V30 21325 H 2024.06 -5.84812 1.34593 0
M  V30 21326 H 2025.13 -4.50631 1.79053 0
M  V30 21327 N 2026.48 -0.441993 -1.51275 0
M  V30 21328 C 2027.7 0.121451 -2.06543 0
M  V30 21329 C 2028.12 1.36058 -1.30896 0
M  V30 21330 O 2027.48 1.78713 -0.369834 0
M  V30 21331 C 2027.53 0.438983 -3.58825 0
M  V30 21332 O 2027.25 -0.750969 -4.31616 0
M  V30 21333 C 2028.75 1.05259 -4.30622 0
M  V30 21334 H 2025.97 0.00586064 -0.670974 0
M  V30 21335 H 2028.51 -0.622415 -1.94798 0
M  V30 21336 H 2026.67 1.13275 -3.70469 0
M  V30 21337 H 2027.08 -0.478024 -5.22317 0
M  V30 21338 H 2028.56 1.22474 -5.38242 0
M  V30 21339 H 2029.03 2.03489 -3.89216 0
M  V30 21340 H 2029.64 0.398068 -4.23433 0
M  V30 21341 N 2027.95 1.56642 -0.173515 0
M  V30 21342 C 2029.2 1.96124 0.470974 0
M  V30 21343 C 2029.52 1.06229 1.6424 0
M  V30 21344 O 2030.72 1.35402 2.35327 0
M  V30 21345 C 2029.18 3.4874 0.889284 0
M  V30 21346 C 2028.79 4.47264 -0.256662 0
M  V30 21347 C 2030.53 3.97037 1.50207 0
M  V30 21348 C 2028.44 5.91122 0.181401 0
M  V30 21349 H 2027.37 0.732267 0.179724 0
M  V30 21350 H 2030.02 1.81619 -0.262096 0
M  V30 21351 H 2028.4 3.58672 1.6784 0
M  V30 21352 H 2029.57 4.49049 -1.03401 0
M  V30 21353 H 2027.89 4.09038 -0.779546 0
M  V30 21354 H 2030.49 5.01974 1.8419 0
M  V30 21355 H 2030.83 3.401 2.40078 0
M  V30 21356 H 2031.36 3.90131 0.777351 0
M  V30 21357 H 2028.1 6.51936 -0.682591 0
M  V30 21358 H 2027.62 5.92639 0.924063 0
M  V30 21359 H 2029.3 6.43979 0.624532 0
M  V30 21360 N 2029.43 -0.1002 1.57281 0
M  V30 21361 C 2030.66 -0.82219 1.90407 0
M  V30 21362 C 2031.08 -1.71739 0.767297 0
M  V30 21363 O 2030.44 -1.79103 -0.281369 0
M  V30 21364 C 2030.49 -1.61579 3.22373 0
M  V30 21365 O 2029.59 -2.72433 3.09603 0
M  V30 21366 H 2028.93 -0.2262 0.624283 0
M  V30 21367 H 2031.46 -0.0769557 2.04455 0
M  V30 21368 H 2031.47 -2.00109 3.55556 0
M  V30 21369 H 2030.15 -0.958772 4.04698 0
M  V30 21370 H 2028.72 -2.36968 2.87925 0
M  V30 21371 N 2030.91 -1.53174 -0.370891 0
M  V30 21372 C 2032.14 -1.72749 -1.13319 0
M  V30 21373 C 2032.55 -0.453832 -1.83676 0
M  V30 21374 O 2031.89 0.582685 -1.74214 0
M  V30 21375 C 2031.95 -2.83436 -2.21143 0
M  V30 21376 C 2031.62 -4.23963 -1.70599 0
M  V30 21377 C 2032.61 -5.06496 -1.17293 0
M  V30 21378 C 2030.3 -4.70354 -1.76273 0
M  V30 21379 C 2032.29 -6.33508 -0.703308 0
M  V30 21380 C 2029.98 -5.97346 -1.28923 0
M  V30 21381 C 2030.98 -6.78754 -0.760411 0
M  V30 21382 O 2030.67 -8.03363 -0.293883 0
M  V30 21383 H 2030.4 -0.581347 -0.344981 0
M  V30 21384 H 2032.95 -2.0069 -0.437343 0
M  V30 21385 H 2031.18 -2.50957 -2.94206 0
M  V30 21386 H 2032.87 -2.9124 -2.82726 0
M  V30 21387 H 2033.64 -4.71831 -1.12252 0
M  V30 21388 H 2029.52 -4.07066 -2.16375 0
M  V30 21389 H 2033.06 -6.96997 -0.289876 0
M  V30 21390 H 2028.96 -6.31511 -1.33655 0
M  V30 21391 H 2029.72 -8.17454 -0.413701 0
M  V30 21392 N 2032.39 0.630389 -1.44443 0
M  V30 21393 C 2033.62 1.41712 -1.50749 0
M  V30 21394 C 2034.03 1.88334 -0.132593 0
M  V30 21395 O 2033.39 1.60878 0.861649 0
M  V30 21396 C 2033.44 2.63694 -2.47281 0
M  V30 21397 O 2033.16 2.19016 -3.79425 0
M  V30 21398 C 2034.66 3.56813 -2.63058 0
M  V30 21399 H 2031.88 0.43458 -0.511255 0
M  V30 21400 H 2034.42 0.770878 -1.89414 0
M  V30 21401 H 2032.58 3.24409 -2.11749 0
M  V30 21402 H 2032.99 2.98104 -4.31549 0
M  V30 21403 H 2034.47 4.39008 -3.34628 0
M  V30 21404 H 2034.94 4.05669 -1.68313 0
M  V30 21405 H 2035.55 3.01966 -2.99494 0
M  V30 21406 N 2033.87 1.31354 0.870861 0
M  V30 21407 C 2035.11 1.20749 1.62062 0
M  V30 21408 C 2035.43 -0.234709 1.93582 0
M  V30 21409 O 2034.7 -1.15517 1.58217 0
M  V30 21410 H 2033.28 0.443911 0.600793 0
M  V30 21411 H 2035.95 1.64667 1.04262 0
M  V30 21412 H 2035.04 1.77855 2.56464 0
M  V30 21413 N 2035.34 -1.08505 1.143 0
M  V30 21414 C 2036.29 -2.17492 0.824612 0
M  V30 21415 C 2037.29 -1.6825 -0.197073 0
M  V30 21416 O 2038.49 -1.79921 -0.0532722 0
M  V30 21417 H 2034.87 -0.709601 0.248938 0
M  V30 21418 H 2036.84 -2.41572 1.75173 0
M  V30 21419 C 2035.59 -3.46249 0.317355 0
M  V30 21420 H 2034.91 -3.84516 1.09488 0
M  V30 21421 H 2036.35 -4.23791 0.133114 0
M  V30 21422 C 2034.81 -3.22967 -0.958852 0
M  V30 21423 O 2035.34 -3.46468 -2.03281 0
M  V30 21424 N 2033.54 -2.76517 -0.893693 0
M  V30 21425 H 2033.09 -2.57593 -0.0195774 0
M  V30 21426 H 2033.05 -2.61318 -1.74815 0
M  V30 21427 N 2036.82 -0.937962 -1.26649 0
M  V30 21428 C 2038.24 -0.639774 -1.46216 0
M  V30 21429 C 2038.44 0.807896 -1.84595 0
M  V30 21430 O 2037.49 1.58484 -1.96568 0
M  V30 21431 C 2038.81 -1.59844 -2.54697 0
M  V30 21432 C 2040.35 -1.60779 -2.6855 0
M  V30 21433 C 2040.83 -2.55367 -3.80199 0
M  V30 21434 N 2042.32 -2.53634 -3.87587 0
M  V30 21435 C 2043.06 -3.23509 -4.73423 0
M  V30 21436 N 2042.55 -4.02798 -5.63671 0
M  V30 21437 N 2044.34 -3.12477 -4.67242 0
M  V30 21438 H 2036.5 -1.87374 -1.00025 0
M  V30 21439 H 2038.76 -0.805036 -0.500621 0
M  V30 21440 H 2038.46 -2.63168 -2.33314 0
M  V30 21441 H 2038.34 -1.34802 -3.5229 0
M  V30 21442 H 2040.73 -0.581808 -2.89308 0
M  V30 21443 H 2040.81 -1.89873 -1.71411 0
M  V30 21444 H 2040.45 -3.58081 -3.60195 0
M  V30 21445 H 2040.38 -2.23564 -4.76788 0
M  V30 21446 H 2042.87 -1.96058 -3.23063 0
M  V30 21447 H 2043.18 -4.53075 -6.26053 0
M  V30 21448 H 2041.53 -4.069 -5.63434 0
M  V30 21449 H 2044.72 -2.50018 -3.95738 0
M  V30 21450 H 2044.89 -3.67201 -5.33917 0
M  V30 21451 N 2038.3 1.40971 -0.704618 0
M  V30 21452 C 2039.71 1.84055 -0.313126 0
M  V30 21453 C 2040.06 1.5894 1.15033 0
M  V30 21454 O 2039.19 1.06454 1.88405 0
M  V30 21455 C 2039.78 3.34114 -0.561542 0
M  V30 21456 C 2038.34 3.75734 -0.223873 0
M  V30 21457 C 2037.49 2.64292 -0.839356 0
M  V30 21458 H 2040.44 1.30394 -0.904599 0
M  V30 21459 H 2040.46 3.80089 0.176821 0
M  V30 21460 H 2039.97 3.52362 -1.62673 0
M  V30 21461 H 2038.07 3.63084 0.836696 0
M  V30 21462 H 2038.19 4.74175 -0.685211 0
M  V30 21463 H 2036.55 2.53284 -0.268242 0
M  V30 21464 H 2037.33 2.85355 -1.9086 0
M  V30 21465 N 2039.78 0.45001 1.51039 0
M  V30 21466 C 2040.74 -0.343489 2.26612 0
M  V30 21467 C 2041.74 -0.938789 1.3055 0
M  V30 21468 O 2042.93 -0.811258 1.54157 0
M  V30 21469 C 2040.06 -1.48719 3.0675 0
M  V30 21470 H 2041.26 0.318996 2.98199 0
M  V30 21471 H 2038.81 0.2035 1.5497 0
M  V30 21472 H 2039.54 -2.18535 2.3961 0
M  V30 21473 H 2039.33 -1.06636 3.77321 0
M  V30 21474 H 2040.82 -2.04748 3.63961 0
M  V30 21475 N 2041.26 -1.56548 0.18182 0
M  V30 21476 C 2042.48 -2.02015 -0.469543 0
M  V30 21477 C 2042.91 -1.06119 -1.55307 0
M  V30 21478 O 2042.26 -0.0424595 -1.8125 0
M  V30 21479 C 2042.31 -3.46016 -1.01515 0
M  V30 21480 O 2041.42 -3.53215 -2.12869 0
M  V30 21481 H 2040.76 -0.65461 -0.111273 0
M  V30 21482 H 2043.29 -2.02552 0.288798 0
M  V30 21483 H 2043.3 -3.85537 -1.33511 0
M  V30 21484 H 2041.97 -4.15308 -0.22188 0
M  V30 21485 H 2040.55 -3.2556 -1.81838 0
M  V30 21486 N 2042.73 0.0918577 -1.57332 0
M  V30 21487 C 2043.68 1.13005 -2.03304 0
M  V30 21488 C 2044.68 1.4128 -0.934688 0
M  V30 21489 O 2045.88 1.40923 -1.11986 0
M  V30 21490 H 2042.26 0.381664 -0.647948 0
M  V30 21491 H 2044.23 0.716022 -2.89682 0
M  V30 21492 C 2042.98 2.44114 -2.47595 0
M  V30 21493 H 2042.3 2.23203 -3.31694 0
M  V30 21494 H 2043.74 3.15252 -2.83535 0
M  V30 21495 C 2042.2 3.08644 -1.35057 0
M  V30 21496 O 2042.73 3.95877 -0.681498 0
M  V30 21497 N 2040.94 2.68946 -1.10074 0
M  V30 21498 H 2040.48 1.98101 -1.64662 0
M  V30 21499 H 2040.44 3.12448 -0.349761 0
M  V30 21500 N 2044.21 1.53368 0.362763 0
M  V30 21501 C 2045.15 1.74792 1.46707 0
M  V30 21502 C 2046.12 0.596367 1.51269 0
M  V30 21503 O 2047.31 0.829291 1.69278 0
M  V30 21504 C 2044.43 1.82926 2.85054 0
M  V30 21505 C 2043.48 3.04921 2.98204 0
M  V30 21506 S 2044.31 4.64381 2.66666 0
M  V30 21507 C 2045.47 4.75367 4.07157 0
M  V30 21508 H 2045.7 2.68184 1.28314 0
M  V30 21509 H 2043.24 1.43993 0.557272 0
M  V30 21510 H 2045.19 1.88297 3.64766 0
M  V30 21511 H 2043.85 0.905801 3.00756 0
M  V30 21512 H 2043.05 3.0723 3.99532 0
M  V30 21513 H 2042.65 2.97676 2.26418 0
M  V30 21514 H 2044.94 4.55595 5.01437 0
M  V30 21515 H 2045.88 5.77432 4.09852 0
M  V30 21516 H 2046.29 4.03977 3.94288 0
M  V30 21517 N 2045.69 -0.62272 1.44776 0
M  V30 21518 C 2046.94 -1.38415 1.4822 0
M  V30 21519 C 2047.27 -1.93844 0.117595 0
M  V30 21520 O 2046.54 -1.7416 -0.865935 0
M  V30 21521 C 2046.83 -2.54325 2.54933 0
M  V30 21522 C 2046.68 -2.04192 4.00782 0
M  V30 21523 C 2048 -3.56495 2.58069 0
M  V30 21524 H 2045.12 -0.501939 0.539654 0
M  V30 21525 H 2047.76 -0.703347 1.76502 0
M  V30 21526 H 2045.91 -3.12403 2.30947 0
M  V30 21527 H 2047.58 -1.50879 4.35928 0
M  V30 21528 H 2045.83 -1.35308 4.12158 0
M  V30 21529 H 2046.5 -2.87679 4.7111 0
M  V30 21530 H 2048.97 -3.08232 2.79522 0
M  V30 21531 H 2047.85 -4.35106 3.34625 0
M  V30 21532 H 2048.11 -4.11119 1.62583 0
M  V30 21533 N 2047.17 -1.31814 -0.863883 0
M  V30 21534 C 2048.42 -1.21205 -1.61221 0
M  V30 21535 C 2048.73 0.227073 -1.94277 0
M  V30 21536 O 2049.94 0.454922 -2.67662 0
M  V30 21537 C 2048.39 -2.12221 -2.90672 0
M  V30 21538 C 2048 -3.61163 -2.65076 0
M  V30 21539 C 2049.74 -2.10427 -3.68674 0
M  V30 21540 C 2047.65 -4.44169 -3.90471 0
M  V30 21541 H 2046.58 -0.450072 -0.604939 0
M  V30 21542 H 2049.23 -1.56711 -0.954668 0
M  V30 21543 H 2047.61 -1.6962 -3.57834 0
M  V30 21544 H 2048.79 -4.12049 -2.06283 0
M  V30 21545 H 2047.1 -3.64995 -2.00418 0
M  V30 21546 H 2049.7 -2.69684 -4.61708 0
M  V30 21547 H 2050.04 -1.09293 -4.01697 0
M  V30 21548 H 2050.58 -2.5126 -3.08404 0
M  V30 21549 H 2047.32 -5.46082 -3.62595 0
M  V30 21550 H 2046.84 -3.98039 -4.48693 0
M  V30 21551 H 2048.51 -4.56696 -4.58299 0
M  V30 21552 N 2048.65 1.07897 -1.14873 0
M  V30 21553 C 2049.89 1.80653 -0.921532 0
M  V30 21554 C 2050.23 1.8624 0.550287 0
M  V30 21555 O 2049.5 1.34206 1.4078 0
M  V30 21556 C 2049.78 3.26 -1.52958 0
M  V30 21557 C 2049.64 3.28591 -3.07161 0
M  V30 21558 C 2050.96 4.23118 -1.21076 0
M  V30 21559 H 2048.07 0.655845 -0.336208 0
M  V30 21560 H 2050.72 1.26293 -1.41951 0
M  V30 21561 H 2048.87 3.72421 -1.1061 0
M  V30 21562 H 2050.54 2.90454 -3.58377 0
M  V30 21563 H 2048.78 2.67712 -3.4134 0
M  V30 21564 H 2049.45 4.31053 -3.44815 0
M  V30 21565 H 2051.93 3.85059 -1.57697 0
M  V30 21566 H 2050.8 5.23119 -1.66246 0
M  V30 21567 H 2051.07 4.41918 -0.12688 0
M  V30 21568 N 2050.12 0.944665 1.2615 0
M  V30 21569 C 2051.4 0.511841 1.88784 0
M  V30 21570 C 2051.78 -1.01066 1.85335 0
M  V30 21571 O 2051.13 -1.87217 1.31004 0
M  V30 21572 C 2051.34 1.07714 3.31962 0
M  V30 21573 C 2052.69 1.14792 4.08788 0
M  V30 21574 O 2053.71 1.02798 3.41044 0
M  V30 21575 O 2052.57 1.3349 5.29946 0
M  V30 21576 H 2049.66 0.167346 0.809892 0
M  V30 21577 H 2052.21 1.03745 1.34294 0
M  V30 21578 H 2050.98 2.12066 3.28852 0
M  V30 21579 H 2050.61 0.534184 3.93995 0
M  V30 21580 N 2051.6 -1.40596 0.712085 0
M  V30 21581 C 2052.85 -2.01247 0.250458 0
M  V30 21582 C 2053.18 -1.56324 -1.15224 0
M  V30 21583 O 2052.46 -0.781734 -1.78099 0
M  V30 21584 C 2052.74 -3.58616 0.326579 0
M  V30 21585 C 2052.59 -4.13622 1.7674 0
M  V30 21586 C 2053.91 -4.39047 -0.304236 0
M  V30 21587 H 2051.03 -0.731174 0.0924819 0
M  V30 21588 H 2053.67 -1.6712 0.903924 0
M  V30 21589 H 2051.82 -3.8782 -0.229796 0
M  V30 21590 H 2053.49 -3.9523 2.37889 0
M  V30 21591 H 2051.74 -3.68042 2.29625 0
M  V30 21592 H 2052.41 -5.22782 1.77208 0
M  V30 21593 H 2054.88 -4.15753 0.169788 0
M  V30 21594 H 2053.76 -5.48457 -0.220511 0
M  V30 21595 H 2054.02 -4.1977 -1.38727 0
M  V30 21596 N 2053.08 -0.458013 -1.50798 0
M  V30 21597 C 2054.03 0.342913 -2.28238 0
M  V30 21598 C 2055 0.99876 -1.32718 0
M  V30 21599 O 2056.18 1.01371 -1.61643 0
M  V30 21600 C 2053.32 1.42646 -3.14239 0
M  V30 21601 C 2052.44 0.786698 -4.24776 0
M  V30 21602 C 2051.57 1.84704 -4.98054 0
M  V30 21603 C 2050.61 1.18681 -6.00484 0
M  V30 21604 N 2049.75 2.18942 -6.6709 0
M  V30 21605 H 2054.59 -0.323799 -2.96236 0
M  V30 21606 H 2052.12 -0.171528 -1.46097 0
M  V30 21607 H 2054.08 2.0662 -3.62442 0
M  V30 21608 H 2052.71 2.06252 -2.48314 0
M  V30 21609 H 2051.76 0.0347215 -3.80384 0
M  V30 21610 H 2053.08 0.264877 -4.98096 0
M  V30 21611 H 2052.23 2.5629 -5.49909 0
M  V30 21612 H 2050.97 2.40263 -4.24411 0
M  V30 21613 H 2049.97 0.45651 -5.47901 0
M  V30 21614 H 2051.2 0.638278 -6.76094 0
M  V30 21615 H 2049.14 2.73543 -5.96247 0
M  V30 21616 H 2049.06 1.71709 -7.36242 0
M  V30 21617 H 2050.33 2.89949 -7.23568 0
M  V30 21618 N 2054.56 1.56449 -0.190119 0
M  V30 21619 C 2055.49 2.14748 0.771918 0
M  V30 21620 C 2056.47 1.08278 1.21304 0
M  V30 21621 O 2057.65 1.36362 1.30144 0
M  V30 21622 C 2054.78 2.70233 2.04186 0
M  V30 21623 C 2053.83 3.89246 1.74327 0
M  V30 21624 S 2054.66 5.27954 0.895791 0
M  V30 21625 C 2055.82 5.86857 2.17599 0
M  V30 21626 H 2056.05 2.96013 0.276302 0
M  V30 21627 H 2053.58 1.5438 0.0248132 0
M  V30 21628 H 2055.54 3.02845 2.7712 0
M  V30 21629 H 2054.2 1.89018 2.5086 0
M  V30 21630 H 2053.39 4.26461 2.68602 0
M  V30 21631 H 2053 3.57618 1.09478 0
M  V30 21632 H 2055.29 6.00917 3.12898 0
M  V30 21633 H 2056.23 6.83554 1.84823 0
M  V30 21634 H 2056.64 5.15422 2.30218 0
M  V30 21635 N 2056.04 -0.0835127 1.57379 0
M  V30 21636 C 2057.28 -0.786031 1.86948 0
M  V30 21637 C 2057.62 -1.77811 0.780828 0
M  V30 21638 O 2056.89 -1.93362 -0.210075 0
M  V30 21639 C 2057.17 -1.50447 3.27166 0
M  V30 21640 C 2057.03 -0.529601 4.46671 0
M  V30 21641 C 2058.35 -2.45226 3.65448 0
M  V30 21642 H 2055.47 -0.284294 0.67996 0
M  V30 21643 H 2058.11 -0.0494231 1.89936 0
M  V30 21644 H 2056.26 -2.13237 3.24749 0
M  V30 21645 H 2057.93 0.0921842 4.61208 0
M  V30 21646 H 2056.17 0.156069 4.33519 0
M  V30 21647 H 2056.84 -1.06967 5.41537 0
M  V30 21648 H 2059.32 -1.92521 3.68883 0
M  V30 21649 H 2058.2 -2.92505 4.6447 0
M  V30 21650 H 2058.46 -3.29506 2.94751 0
M  V30 21651 N 2057.52 -1.53558 -0.354624 0
M  V30 21652 C 2058.74 -1.74503 -1.12087 0
M  V30 21653 C 2059.17 -0.477817 -1.8193 0
M  V30 21654 O 2058.52 0.568868 -1.72144 0
M  V30 21655 C 2058.57 -2.91808 -2.1185 0
M  V30 21656 O 2057.68 -2.61182 -3.19152 0
M  V30 21657 H 2057.02 -0.579191 -0.324705 0
M  V30 21658 H 2059.55 -2.00483 -0.4084 0
M  V30 21659 H 2059.56 -3.18284 -2.55263 0
M  V30 21660 H 2058.23 -3.83721 -1.6041 0
M  V30 21661 H 2056.81 -2.45558 -2.80634 0
M  V30 21662 N 2058.99 0.615033 -1.45104 0
M  V30 21663 C 2060.24 1.37152 -1.48438 0
M  V30 21664 C 2060.56 1.94602 -0.124508 0
M  V30 21665 O 2059.83 1.76728 0.845222 0
M  V30 21666 H 2058.41 0.509131 -0.546621 0
M  V30 21667 H 2061.07 0.722747 -1.81004 0
M  V30 21668 H 2060.17 2.19472 -2.21898 0
M  V30 21669 N 2060.47 1.3227 0.85688 0
M  V30 21670 C 2061.72 1.22703 1.6109 0
M  V30 21671 C 2062.05 -0.211682 1.93345 0
M  V30 21672 O 2061.3 -1.16408 1.57314 0
M  V30 21673 C 2061.6 2.02967 2.94175 0
M  V30 21674 C 2061.27 3.52346 2.8136 0
M  V30 21675 C 2059.93 3.93074 2.77572 0
M  V30 21676 C 2062.28 4.47347 2.67452 0
M  V30 21677 C 2059.61 5.27049 2.57751 0
M  V30 21678 C 2061.96 5.81463 2.49167 0
M  V30 21679 C 2060.62 6.21396 2.4377 0
M  V30 21680 H 2059.89 0.449003 0.589472 0
M  V30 21681 H 2062.54 1.63673 0.994156 0
M  V30 21682 H 2060.85 1.54719 3.59957 0
M  V30 21683 H 2062.54 1.92936 3.51535 0
M  V30 21684 H 2059.13 3.19997 2.85132 0
M  V30 21685 H 2063.32 4.16802 2.69424 0
M  V30 21686 H 2058.57 5.57048 2.52007 0
M  V30 21687 H 2062.75 6.54692 2.37384 0
M  V30 21688 H 2060.37 7.2515 2.28171 0
M  V30 21689 N 2061.95 -1.07287 1.15444 0
M  V30 21690 C 2063.2 -1.79277 0.924257 0
M  V30 21691 C 2063.51 -1.8771 -0.549932 0
M  V30 21692 O 2064.72 -2.56229 -0.897718 0
M  V30 21693 C 2063.17 -3.22168 1.60424 0
M  V30 21694 C 2062.78 -3.21934 3.11549 0
M  V30 21695 C 2064.53 -3.98763 1.45563 0
M  V30 21696 C 2062.43 -4.59482 3.72331 0
M  V30 21697 H 2061.36 -0.671898 0.342153 0
M  V30 21698 H 2064.01 -1.20415 1.38465 0
M  V30 21699 H 2062.4 -3.81227 1.07154 0
M  V30 21700 H 2063.57 -2.72516 3.7158 0
M  V30 21701 H 2061.88 -2.58836 3.26179 0
M  V30 21702 H 2064.48 -5.00423 1.88364 0
M  V30 21703 H 2064.82 -4.14343 0.403205 0
M  V30 21704 H 2065.36 -3.46201 1.95933 0
M  V30 21705 H 2062.1 -4.49106 4.77476 0
M  V30 21706 H 2061.62 -5.09135 3.17083 0
M  V30 21707 H 2063.3 -5.2845 3.73296 0
M  V30 21708 N 2063.43 -0.951342 -1.25647 0
M  V30 21709 C 2064.84 -0.645559 -1.75184 0
M  V30 21710 C 2065.19 0.83913 -1.7735 0
M  V30 21711 O 2064.31 1.65671 -1.3922 0
M  V30 21712 C 2064.91 -1.16512 -3.18136 0
M  V30 21713 C 2063.47 -0.90956 -3.65245 0
M  V30 21714 C 2062.62 -1.31009 -2.44401 0
M  V30 21715 H 2065.57 -1.12852 -1.1158 0
M  V30 21716 H 2065.59 -0.523662 -3.76879 0
M  V30 21717 H 2065.1 -2.24571 -3.16527 0
M  V30 21718 H 2063.2 0.156212 -3.72272 0
M  V30 21719 H 2063.31 -1.54371 -4.53549 0
M  V30 21720 H 2061.68 -0.728474 -2.4406 0
M  V30 21721 H 2062.46 -2.39983 -2.45486 0
M  V30 21722 N 2064.91 1.40216 -0.719531 0
M  V30 21723 C 2065.84 2.33348 -0.08432 0
M  V30 21724 C 2066.82 1.53101 0.741225 0
M  V30 21725 O 2068 1.81553 0.68935 0
M  V30 21726 C 2065.13 3.37106 0.835256 0
M  V30 21727 C 2064.09 4.27845 0.115036 0
M  V30 21728 C 2063.41 5.22174 1.15059 0
M  V30 21729 C 2064.71 5.1198 -1.03314 0
M  V30 21730 H 2066.41 2.86716 -0.862219 0
M  V30 21731 H 2063.95 1.37858 -0.416073 0
M  V30 21732 H 2065.9 4.012 1.28905 0
M  V30 21733 H 2064.63 2.82142 1.6451 0
M  V30 21734 H 2063.29 3.6521 -0.318975 0
M  V30 21735 H 2062.94 4.63513 1.95359 0
M  V30 21736 H 2062.64 5.83727 0.673556 0
M  V30 21737 H 2064.16 5.89144 1.60441 0
M  V30 21738 H 2065.57 5.69505 -0.658522 0
M  V30 21739 H 2063.97 5.82596 -1.4388 0
M  V30 21740 H 2065.04 4.47725 -1.86199 0
M  V30 21741 N 2066.38 0.466004 1.50553 0
M  V30 21742 C 2067.33 -0.330804 2.28417 0
M  V30 21743 C 2068.3 -0.991708 1.33246 0
M  V30 21744 O 2069.49 -1.00512 1.62179 0
M  V30 21745 C 2066.63 -1.40978 3.14991 0
M  V30 21746 C 2065.74 -0.76416 4.25188 0
M  V30 21747 C 2064.87 -1.8206 4.99027 0
M  V30 21748 C 2063.91 -1.15495 6.01105 0
M  V30 21749 N 2063.05 -2.15401 6.68242 0
M  V30 21750 H 2067.89 0.339504 2.9606 0
M  V30 21751 H 2065.43 0.179273 1.46003 0
M  V30 21752 H 2067.38 -2.04695 3.63532 0
M  V30 21753 H 2066.01 -2.04932 2.49405 0
M  V30 21754 H 2065.07 -0.0145483 3.80397 0
M  V30 21755 H 2066.38 -0.238458 4.9823 0
M  V30 21756 H 2065.53 -2.5337 5.51261 0
M  V30 21757 H 2064.27 -2.38009 4.25679 0
M  V30 21758 H 2063.28 -0.427447 5.48136 0
M  V30 21759 H 2064.5 -0.602414 6.76423 0
M  V30 21760 H 2062.45 -2.70378 5.97689 0
M  V30 21761 H 2062.36 -1.67802 7.37142 0
M  V30 21762 H 2063.63 -2.86107 7.25095 0
M  V30 21763 N 2067.86 -1.56346 0.198413 0
M  V30 21764 C 2069.27 -1.84047 -0.313597 0
M  V30 21765 C 2069.62 -1.11918 -1.61148 0
M  V30 21766 O 2068.75 -0.381091 -2.13018 0
M  V30 21767 C 2069.34 -3.33872 -0.575755 0
M  V30 21768 C 2067.9 -3.61973 -1.03213 0
M  V30 21769 C 2067.05 -2.77177 -0.0825349 0
M  V30 21770 H 2070 -1.52983 0.422128 0
M  V30 21771 H 2070.02 -3.52823 -1.42466 0
M  V30 21772 H 2069.53 -3.86341 0.369036 0
M  V30 21773 H 2067.63 -3.14939 -1.99108 0
M  V30 21774 H 2067.75 -4.70134 -0.922545 0
M  V30 21775 H 2066.11 -2.4789 -0.585043 0
M  V30 21776 H 2066.89 -3.32437 0.856759 0
M  V30 21777 N 2069.34 0.0751653 -1.57421 0
M  V30 21778 C 2070.57 0.787972 -1.91308 0
M  V30 21779 C 2070.98 1.7129 -0.794055 0
M  V30 21780 O 2070.34 1.81009 0.23281 0
M  V30 21781 C 2070.39 1.58447 -3.24926 0
M  V30 21782 O 2070.11 0.696727 -4.32524 0
M  V30 21783 C 2071.61 2.39857 -3.72805 0
M  V30 21784 H 2068.83 0.22422 -0.632429 0
M  V30 21785 H 2071.38 0.0464417 -2.04447 0
M  V30 21786 H 2069.53 2.27831 -3.13324 0
M  V30 21787 H 2069.95 1.25038 -5.09378 0
M  V30 21788 H 2071.42 2.91207 -4.68938 0
M  V30 21789 H 2071.9 3.19229 -3.01645 0
M  V30 21790 H 2072.5 1.75636 -3.8734 0
M  V30 21791 N 2070.82 1.53744 0.346476 0
M  V30 21792 C 2072.06 1.71103 1.08866 0
M  V30 21793 C 2072.4 0.47131 1.88394 0
M  V30 21794 O 2071.67 -0.531638 1.87093 0
M  V30 21795 C 2071.96 2.97273 2.03225 0
M  V30 21796 C 2071.81 4.31446 1.27179 0
M  V30 21797 C 2073.13 3.19105 3.03084 0
M  V30 21798 H 2070.25 0.622598 0.394387 0
M  V30 21799 H 2072.89 1.86412 0.367514 0
M  V30 21800 H 2071.04 2.84352 2.64719 0
M  V30 21801 H 2072.71 4.56212 0.683225 0
M  V30 21802 H 2070.95 4.29989 0.573773 0
M  V30 21803 H 2071.62 5.15901 1.96343 0
M  V30 21804 H 2074.1 3.31337 2.51704 0
M  V30 21805 H 2072.98 4.08786 3.66313 0
M  V30 21806 H 2073.24 2.35265 3.74303 0
M  V30 21807 N 2072.3 -0.607329 1.45428 0
M  V30 21808 C 2073.24 -1.71802 1.54119 0
M  V30 21809 C 2074.21 -1.61527 0.387071 0
M  V30 21810 O 2075.4 -1.81102 0.60055 0
M  V30 21811 C 2072.54 -3.10112 1.5141 0
M  V30 21812 C 2071.65 -3.31191 2.77375 0
M  V30 21813 C 2070.79 -4.59608 2.66335 0
M  V30 21814 C 2069.83 -4.73946 3.87353 0
M  V30 21815 N 2068.96 -5.93662 3.74846 0
M  V30 21816 H 2073.8 -1.6371 2.49004 0
M  V30 21817 H 2071.34 -0.798251 1.23557 0
M  V30 21818 H 2073.3 -3.90132 1.47826 0
M  V30 21819 H 2071.93 -3.17161 0.600749 0
M  V30 21820 H 2070.98 -2.44944 2.91044 0
M  V30 21821 H 2072.29 -3.37658 3.67135 0
M  V30 21822 H 2071.45 -5.47823 2.60719 0
M  V30 21823 H 2070.18 -4.55538 1.74174 0
M  V30 21824 H 2069.19 -3.84153 3.93327 0
M  V30 21825 H 2070.41 -4.79812 4.8058 0
M  V30 21826 H 2068.36 -5.90637 2.85454 0
M  V30 21827 H 2068.28 -6.01291 4.58241 0
M  V30 21828 H 2069.55 -6.84375 3.73163 0
M  V30 21829 N 2073.77 -1.32722 -0.849853 0
M  V30 21830 C 2074.71 -1.16395 -1.96284 0
M  V30 21831 C 2075.69 -0.062185 -1.62481 0
M  V30 21832 O 2076.87 -0.222389 -1.87184 0
M  V30 21833 C 2074 -0.782885 -3.29528 0
M  V30 21834 C 2073.04 -1.89059 -3.82308 0
M  V30 21835 S 2073.88 -3.49971 -4.05315 0
M  V30 21836 C 2075.03 -3.13846 -5.41527 0
M  V30 21837 H 2075.26 -2.10613 -2.09832 0
M  V30 21838 H 2072.8 -1.17438 -1.00238 0
M  V30 21839 H 2074.76 -0.56979 -4.06526 0
M  V30 21840 H 2073.42 0.140502 -3.13786 0
M  V30 21841 H 2072.61 -1.57706 -4.78691 0
M  V30 21842 H 2072.21 -2.05978 -3.12169 0
M  V30 21843 H 2074.5 -2.63989 -6.23952 0
M  V30 21844 H 2075.45 -4.09269 -5.77845 0
M  V30 21845 H 2075.85 -2.50737 -5.05758 0
M  V30 21846 N 2075.25 1.06673 -1.16011 0
M  V30 21847 C 2076.18 2.16027 -0.886249 0
M  V30 21848 C 2077.16 1.69289 0.165907 0
M  V30 21849 O 2078.35 1.94191 0.0188181 0
M  V30 21850 C 2075.48 3.45189 -0.382329 0
M  V30 21851 C 2074.43 4.05415 -1.37195 0
M  V30 21852 C 2073.76 5.2974 -0.726594 0
M  V30 21853 C 2075.06 4.44642 -2.74027 0
M  V30 21854 H 2076.75 2.39195 -1.80073 0
M  V30 21855 H 2074.3 1.14957 -0.867232 0
M  V30 21856 H 2076.25 4.21023 -0.17824 0
M  V30 21857 H 2074.98 3.21629 0.567641 0
M  V30 21858 H 2073.63 3.31634 -1.56252 0
M  V30 21859 H 2073.28 5.02475 0.229742 0
M  V30 21860 H 2072.98 5.70993 -1.38709 0
M  V30 21861 H 2074.51 6.08274 -0.532437 0
M  V30 21862 H 2075.92 5.11574 -2.58775 0
M  V30 21863 H 2074.32 4.96868 -3.36515 0
M  V30 21864 H 2075.39 3.55684 -3.29571 0
M  V30 21865 N 2076.73 0.957992 1.25141 0
M  V30 21866 C 2077.64 0.487592 2.29477 0
M  V30 21867 C 2078.66 -0.446704 1.68168 0
M  V30 21868 O 2079.83 -0.322127 1.98807 0
M  V30 21869 C 2076.9 -0.22393 3.45976 0
M  V30 21870 C 2075.96 0.748994 4.22716 0
M  V30 21871 C 2075.19 0.0713329 5.33652 0
M  V30 21872 O 2075.41 -1.14234 5.58844 0
M  V30 21873 O 2074.35 0.758575 5.97101 0
M  V30 21874 H 2078.17 1.35471 2.71811 0
M  V30 21875 H 2075.76 0.724594 1.30652 0
M  V30 21876 H 2077.64 -0.624039 4.16754 0
M  V30 21877 H 2076.32 -1.06616 3.05638 0
M  V30 21878 H 2075.22 1.19938 3.54353 0
M  V30 21879 H 2076.56 1.55935 4.66846 0
M  V30 21880 N 2078.21 -1.39832 0.726957 0
M  V30 21881 C 2079.62 -1.54462 0.401692 0
M  V30 21882 C 2079.82 -1.6958 -1.08834 0
M  V30 21883 O 2078.88 -1.69177 -1.87444 0
M  V30 21884 C 2080.19 -2.76679 1.17769 0
M  V30 21885 C 2081.74 -2.90507 1.16511 0
M  V30 21886 C 2082.22 -4.1565 1.9235 0
M  V30 21887 N 2083.71 -4.22674 1.89476 0
M  V30 21888 C 2084.44 -5.18437 2.44971 0
M  V30 21889 N 2083.94 -6.20038 3.0907 0
M  V30 21890 N 2085.73 -5.10596 2.3505 0
M  V30 21891 H 2077.88 -1.28266 1.69297 0
M  V30 21892 H 2080.15 -0.621077 0.716217 0
M  V30 21893 H 2079.85 -2.71823 2.2317 0
M  V30 21894 H 2079.73 -3.69115 0.776799 0
M  V30 21895 H 2082.11 -2.94859 0.119254 0
M  V30 21896 H 2082.19 -1.99157 1.60531 0
M  V30 21897 H 2081.84 -4.1206 2.96933 0
M  V30 21898 H 2081.77 -5.0603 1.45743 0
M  V30 21899 H 2084.26 -3.49892 1.42772 0
M  V30 21900 H 2084.57 -6.89555 3.48903 0
M  V30 21901 H 2082.92 -6.20449 3.13158 0
M  V30 21902 H 2086.11 -4.30154 1.84622 0
M  V30 21903 H 2086.28 -5.85053 2.78599 0
M  V30 21904 N 2079.69 -0.473982 -1.50304 0
M  V30 21905 C 2080.91 0.0798733 -2.07246 0
M  V30 21906 C 2081.34 1.3249 -1.33521 0
M  V30 21907 O 2080.69 1.77192 -0.383743 0
M  V30 21908 C 2080.74 0.343926 -3.58956 0
M  V30 21909 O 2079.85 1.42387 -3.8704 0
M  V30 21910 H 2079.19 -0.0142608 -0.663847 0
M  V30 21911 H 2081.72 -0.665854 -1.93462 0
M  V30 21912 H 2081.73 0.583558 -4.03805 0
M  V30 21913 H 2080.4 -0.565855 -4.12033 0
M  V30 21914 H 2078.98 1.17132 -3.54026 0
M  V30 21915 N 2081.16 1.56239 -0.206702 0
M  V30 21916 C 2082.39 2.02736 0.437344 0
M  V30 21917 C 2082.81 1.08577 1.53599 0
M  V30 21918 O 2082.17 0.0712895 1.8116 0
M  V30 21919 C 2082.22 3.47587 0.959974 0
M  V30 21920 O 2081.32 3.56556 2.07223 0
M  V30 21921 H 2080.67 0.656297 0.100845 0
M  V30 21922 H 2083.2 2.02066 -0.320985 0
M  V30 21923 H 2083.21 3.87612 1.27361 0
M  V30 21924 H 2081.88 4.15608 0.15578 0
M  V30 21925 H 2080.46 3.28412 1.76635 0
M  V30 21926 N 2082.64 -0.0668159 1.57458 0
M  V30 21927 C 2083.87 -0.781616 1.92108 0
M  V30 21928 C 2084.29 -1.70072 0.803553 0
M  V30 21929 O 2083.65 -1.7966 -0.243316 0
M  V30 21930 C 2083.7 -1.54705 3.25728 0
M  V30 21931 O 2082.8 -2.65804 3.15312 0
M  V30 21932 H 2082.14 -0.212907 0.628941 0
M  V30 21933 H 2084.67 -0.0335704 2.04572 0
M  V30 21934 H 2084.68 -1.92522 3.59721 0
M  V30 21935 H 2083.36 -0.872713 4.06641 0
M  V30 21936 H 2081.94 -2.30807 2.92886 0
M  V30 21937 N 2084.12 -1.53926 -0.338317 0
M  V30 21938 C 2085.37 -1.71678 -1.07957 0
M  V30 21939 C 2085.7 -0.481294 -1.88141 0
M  V30 21940 O 2084.98 0.521709 -1.87372 0
M  V30 21941 C 2085.26 -2.98347 -2.01646 0
M  V30 21942 C 2085.11 -4.32114 -1.24889 0
M  V30 21943 C 2086.43 -3.20708 -3.01388 0
M  V30 21944 H 2083.55 -0.62468 -0.39108 0
M  V30 21945 H 2086.19 -1.86604 -0.357623 0
M  V30 21946 H 2084.34 -2.85752 -2.63207 0
M  V30 21947 H 2086.01 -4.56568 -0.659021 0
M  V30 21948 H 2084.26 -4.30287 -0.550962 0
M  V30 21949 H 2084.93 -5.16935 -1.93604 0
M  V30 21950 H 2087.4 -3.32667 -2.49943 0
M  V30 21951 H 2086.28 -4.10723 -3.6414 0
M  V30 21952 H 2086.54 -2.37246 -3.7305 0
M  V30 21953 N 2085.6 0.599608 -1.45748 0
M  V30 21954 C 2086.82 1.38971 -1.53954 0
M  V30 21955 C 2087.25 1.87278 -0.175618 0
M  V30 21956 O 2086.61 1.60602 0.841223 0
M  V30 21957 C 2086.66 2.56482 -2.53474 0
M  V30 21958 O 2085.76 3.57375 -2.05808 0
M  V30 21959 H 2085.1 0.414567 -0.518681 0
M  V30 21960 H 2087.63 0.728972 -1.91173 0
M  V30 21961 H 2087.64 3.03623 -2.72539 0
M  V30 21962 H 2086.32 2.20672 -3.52529 0
M  V30 21963 H 2084.89 3.1683 -1.96656 0
M  V30 21964 N 2087.08 1.33171 0.842803 0
M  V30 21965 C 2088.49 1.1242 1.13287 0
M  V30 21966 C 2088.69 -0.0875106 2.0131 0
M  V30 21967 O 2087.75 -0.768934 2.40507 0
M  V30 21968 C 2089.06 2.40967 1.79876 0
M  V30 21969 C 2090.61 2.46837 1.92459 0
M  V30 21970 C 2091.09 3.75336 2.62463 0
M  V30 21971 N 2092.58 3.76385 2.69979 0
M  V30 21972 C 2093.31 4.72521 3.24825 0
M  V30 21973 N 2092.81 5.7903 3.80389 0
M  V30 21974 N 2094.6 4.60002 3.2304 0
M  V30 21975 H 2086.75 2.10841 0.256882 0
M  V30 21976 H 2089.01 0.931431 0.176468 0
M  V30 21977 H 2088.72 3.29618 1.22656 0
M  V30 21978 H 2088.59 2.52821 2.79931 0
M  V30 21979 H 2090.98 1.58638 2.48833 0
M  V30 21980 H 2091.06 2.38927 0.913649 0
M  V30 21981 H 2090.71 4.63915 2.06749 0
M  V30 21982 H 2090.64 3.80521 3.64021 0
M  V30 21983 H 2093.13 2.99407 2.30573 0
M  V30 21984 H 2093.44 6.48427 4.20431 0
M  V30 21985 H 2091.79 5.8277 3.78688 0
M  V30 21986 H 2094.98 3.75953 2.78886 0
M  V30 21987 H 2095.15 5.35096 3.65482 0
M  V30 21988 N 2088.56 -1.06056 1.16576 0
M  V30 21989 C 2089.78 -1.82592 0.973019 0
M  V30 21990 C 2090.2 -1.82629 -0.478773 0
M  V30 21991 O 2089.56 -1.2472 -1.33233 0
M  V30 21992 C 2089.61 -3.291 1.49585 0
M  V30 21993 O 2089.33 -3.29189 2.89078 0
M  V30 21994 C 2090.83 -4.22357 1.34647 0
M  V30 21995 H 2088.05 -0.575656 0.344763 0
M  V30 21996 H 2090.59 -1.33793 1.5466 0
M  V30 21997 H 2088.75 -3.75202 0.964496 0
M  V30 21998 H 2089.16 -4.2082 3.13066 0
M  V30 21999 H 2090.64 -5.23171 1.76056 0
M  V30 22000 H 2091.11 -4.38226 0.292348 0
M  V30 22001 H 2091.72 -3.82103 1.86755 0
M  V30 22002 N 2090.03 -0.964615 -1.24631 0
M  V30 22003 C 2090.94 -0.499755 -2.29215 0
M  V30 22004 C 2091.96 0.43778 -1.68403 0
M  V30 22005 O 2093.14 0.311579 -1.98975 0
M  V30 22006 C 2090.2 0.205579 -3.4609 0
M  V30 22007 C 2089.26 -0.771401 -4.22313 0
M  V30 22008 C 2088.49 -0.0996328 -5.33607 0
M  V30 22009 O 2088.72 1.11269 -5.59442 0
M  V30 22010 O 2087.65 -0.79023 -5.9669 0
M  V30 22011 H 2091.48 -1.3691 -2.71089 0
M  V30 22012 H 2089.06 -0.731512 -1.30266 0
M  V30 22013 H 2090.94 0.601929 -4.17079 0
M  V30 22014 H 2089.62 1.04994 -3.06199 0
M  V30 22015 H 2088.53 -1.21815 -3.53712 0
M  V30 22016 H 2089.86 -1.58408 -4.66012 0
M  V30 22017 N 2091.51 1.39445 -0.734362 0
M  V30 22018 C 2092.76 2.00824 -0.282443 0
M  V30 22019 C 2093.09 1.58137 1.12722 0
M  V30 22020 O 2092.37 0.809969 1.76833 0
M  V30 22021 C 2092.65 3.58051 -0.38359 0
M  V30 22022 C 2092.5 4.10758 -1.83298 0
M  V30 22023 C 2093.82 4.39476 0.234349 0
M  V30 22024 H 2090.94 0.729611 -0.104103 0
M  V30 22025 H 2093.58 1.65661 -0.930397 0
M  V30 22026 H 2091.73 3.88136 0.168068 0
M  V30 22027 H 2093.4 3.91395 -2.44147 0
M  V30 22028 H 2091.65 3.64342 -2.35451 0
M  V30 22029 H 2092.32 5.19897 -1.85503 0
M  V30 22030 H 2094.79 4.15431 -0.235909 0
M  V30 22031 H 2093.67 5.48738 0.133228 0
M  V30 22032 H 2093.93 4.21924 1.32032 0
M  V30 22033 N 2092.99 0.481946 1.5005 0
M  V30 22034 C 2094.21 -0.0688814 2.07286 0
M  V30 22035 C 2094.64 -1.3178 1.34222 0
M  V30 22036 O 2094 -1.76986 0.393135 0
M  V30 22037 C 2094.05 -0.324885 3.59133 0
M  V30 22038 O 2093.15 -1.40333 3.87789 0
M  V30 22039 H 2092.49 0.0177812 0.663762 0
M  V30 22040 H 2095.02 0.676104 1.93106 0
M  V30 22041 H 2095.03 -0.562135 4.04109 0
M  V30 22042 H 2093.71 0.587698 4.11727 0
M  V30 22043 H 2092.28 -1.15253 3.54642 0
M  V30 22044 N 2094.47 -1.56127 0.214985 0
M  V30 22045 C 2095.42 -2.21359 -0.714353 0
M  V30 22046 C 2096.41 -1.19092 -1.20472 0
M  V30 22047 O 2097.62 -1.37188 -1.16531 0
M  V30 22048 H 2093.99 -0.70966 -0.248769 0
M  V30 22049 H 2095.96 -2.98068 -0.140678 0
M  V30 22050 C 2094.71 -2.90234 -1.91466 0
M  V30 22051 H 2094.03 -3.68681 -1.54644 0
M  V30 22052 H 2095.47 -3.39286 -2.54285 0
M  V30 22053 C 2093.93 -1.92345 -2.76595 0
M  V30 22054 O 2094.46 -1.43625 -3.75146 0
M  V30 22055 N 2092.67 -1.60138 -2.42496 0
M  V30 22056 H 2092.22 -1.99952 -1.6241 0
M  V30 22057 H 2092.17 -0.949023 -2.99735 0
M  V30 22058 N 2095.95 0.0584645 -1.57492 0
M  V30 22059 C 2096.89 1.08667 -2.05655 0
M  V30 22060 C 2097.89 1.39265 -0.964446 0
M  V30 22061 O 2099.09 1.38515 -1.1495 0
M  V30 22062 H 2095.47 0.367834 -0.655898 0
M  V30 22063 H 2097.44 0.654416 -2.91136 0
M  V30 22064 C 2096.19 2.38807 -2.52718 0
M  V30 22065 H 2095.51 2.16117 -3.36353 0
M  V30 22066 H 2096.95 3.09167 -2.90158 0
M  V30 22067 C 2095.41 3.0571 -1.41573 0
M  V30 22068 O 2095.94 3.94342 -0.765316 0
M  V30 22069 N 2094.15 2.66551 -1.15754 0
M  V30 22070 H 2093.69 1.94564 -1.68827 0
M  V30 22071 H 2093.65 3.11636 -0.415957 0
M  V30 22072 N 2097.42 1.54103 0.330149 0
M  V30 22073 C 2098.37 1.7941 1.40698 0
M  V30 22074 C 2099.36 0.649833 1.47194 0
M  V30 22075 O 2100.55 0.909637 1.51837 0
M  V30 22076 C 2097.68 2.01906 2.77649 0
M  V30 22077 C 2096.76 3.22436 2.75492 0
M  V30 22078 N 2097.16 4.43627 2.42959 0
M  V30 22079 C 2095.45 3.23876 3.06628 0
M  V30 22080 C 2096.15 5.25536 2.49372 0
M  V30 22081 N 2095.13 4.62564 2.85544 0
M  V30 22082 H 2098.93 2.70694 1.14463 0
M  V30 22083 H 2096.45 1.53209 0.538595 0
M  V30 22084 H 2098.44 2.18174 3.55255 0
M  V30 22085 H 2097.1 1.11872 3.04819 0
M  V30 22086 H 2098.11 4.70743 2.1592 0
M  V30 22087 H 2094.79 2.43854 3.38883 0
M  V30 22088 H 2096.18 6.32297 2.27265 0
M  V30 22089 N 2098.9 -0.59187 1.46064 0
M  V30 22090 C 2100.15 -1.3524 1.51122 0
M  V30 22091 C 2100.48 -1.93551 0.158686 0
M  V30 22092 O 2099.76 -1.75958 -0.828798 0
M  V30 22093 C 2100.04 -2.48861 2.6027 0
M  V30 22094 C 2099.89 -1.95645 4.05023 0
M  V30 22095 C 2101.21 -3.50941 2.65572 0
M  V30 22096 H 2098.33 -0.49038 0.550179 0
M  V30 22097 H 2100.97 -0.66575 1.77954 0
M  V30 22098 H 2099.12 -3.07434 2.37521 0
M  V30 22099 H 2100.79 -1.41599 4.3903 0
M  V30 22100 H 2099.04 -1.26535 4.14935 0
M  V30 22101 H 2099.71 -2.77621 4.77107 0
M  V30 22102 H 2102.18 -3.02233 2.85997 0
M  V30 22103 H 2101.06 -4.27911 3.43779 0
M  V30 22104 H 2101.32 -4.07578 1.71267 0
M  V30 22105 N 2100.38 -1.33616 -0.835729 0
M  V30 22106 C 2101.31 -1.26762 -1.96096 0
M  V30 22107 C 2102.29 -0.147563 -1.69459 0
M  V30 22108 O 2103.48 -0.33785 -1.91239 0
M  V30 22109 C 2100.61 -1.00927 -3.32312 0
M  V30 22110 C 2099.56 -2.09261 -3.73355 0
M  V30 22111 C 2098.89 -1.68635 -5.07411 0
M  V30 22112 C 2100.19 -3.50968 -3.86806 0
M  V30 22113 H 2101.88 -2.20908 -2.02089 0
M  V30 22114 H 2099.43 -1.06346 -0.970907 0
M  V30 22115 H 2101.38 -0.947809 -4.10603 0
M  V30 22116 H 2100.1 -0.0322023 -3.26584 0
M  V30 22117 H 2098.76 -2.14455 -2.97329 0
M  V30 22118 H 2098.41 -0.696223 -4.98158 0
M  V30 22119 H 2098.11 -2.41134 -5.35844 0
M  V30 22120 H 2099.63 -1.63961 -5.88175 0
M  V30 22121 H 2101.05 -3.48257 -4.55401 0
M  V30 22122 H 2099.45 -4.21978 -4.26678 0
M  V30 22123 H 2100.52 -3.89244 -2.89166 0
M  V30 22124 N 2101.86 1.05436 -1.17136 0
M  V30 22125 C 2103.11 1.77784 -0.952661 0
M  V30 22126 C 2103.42 1.88561 0.519999 0
M  V30 22127 O 2104.63 2.57625 0.856841 0
M  V30 22128 C 2103.08 3.19575 -1.65529 0
M  V30 22129 C 2102.69 3.16936 -3.16631 0
M  V30 22130 C 2104.43 3.96397 -1.51888 0
M  V30 22131 C 2102.34 4.535 -3.79594 0
M  V30 22132 H 2101.27 0.66637 -0.352799 0
M  V30 22133 H 2103.92 1.18197 -1.40363 0
M  V30 22134 H 2102.3 3.79474 -1.13205 0
M  V30 22135 H 2103.48 2.6657 -3.75869 0
M  V30 22136 H 2101.79 2.53614 -3.30256 0
M  V30 22137 H 2104.39 4.97363 -1.96302 0
M  V30 22138 H 2104.73 4.13649 -0.469072 0
M  V30 22139 H 2105.27 3.4304 -2.01416 0
M  V30 22140 H 2102.01 4.41453 -4.84561 0
M  V30 22141 H 2101.53 5.04026 -3.25143 0
M  V30 22142 H 2103.2 5.22444 -3.81656 0
M  V30 22143 N 2103.34 0.971211 1.24118 0
M  V30 22144 C 2104.57 0.651802 1.96049 0
M  V30 22145 C 2104.97 -0.783604 1.7221 0
M  V30 22146 O 2104.32 -1.53782 1.00483 0
M  V30 22147 C 2104.38 0.850953 3.49284 0
M  V30 22148 C 2104.04 2.26667 3.96826 0
M  V30 22149 C 2105.04 3.24467 4.06223 0
M  V30 22150 C 2102.73 2.5953 4.30057 0
M  V30 22151 C 2104.72 4.53215 4.4819 0
M  V30 22152 C 2102.41 3.88503 4.71708 0
M  V30 22153 C 2103.4 4.85158 4.8074 0
M  V30 22154 O 2103.09 6.1183 5.21459 0
M  V30 22155 H 2102.82 0.241912 0.631233 0
M  V30 22156 H 2105.38 1.30265 1.58809 0
M  V30 22157 H 2103.61 0.142941 3.86436 0
M  V30 22158 H 2105.3 0.530099 4.02424 0
M  V30 22159 H 2106.06 3.00407 3.80763 0
M  V30 22160 H 2101.94 1.85015 4.22245 0
M  V30 22161 H 2105.49 5.28659 4.55155 0
M  V30 22162 H 2101.38 4.12363 4.96616 0
M  V30 22163 H 2102.15 6.15448 5.39598 0
M  V30 22164 N 2104.81 -1.39054 0.741747 0
M  V30 22165 C 2106.06 -2.00671 0.293089 0
M  V30 22166 C 2106.39 -1.58733 -1.11882 0
M  V30 22167 O 2105.67 -0.819335 -1.76401 0
M  V30 22168 C 2105.95 -3.57843 0.402573 0
M  V30 22169 C 2105.8 -4.0978 1.85474 0
M  V30 22170 C 2107.12 -4.39594 -0.211039 0
M  V30 22171 H 2104.24 -0.729048 0.10797 0
M  V30 22172 H 2106.88 -1.65165 0.939169 0
M  V30 22173 H 2105.03 -3.8822 -0.147482 0
M  V30 22174 H 2106.71 -3.90095 2.46219 0
M  V30 22175 H 2104.95 -3.63088 2.3738 0
M  V30 22176 H 2105.62 -5.18906 1.88257 0
M  V30 22177 H 2108.1 -4.153 0.257937 0
M  V30 22178 H 2106.97 -5.48801 -0.104126 0
M  V30 22179 H 2107.23 -4.22618 -1.29792 0
M  V30 22180 N 2106.29 -0.489897 -1.49792 0
M  V30 22181 C 2107.2 0.29927 -2.32683 0
M  V30 22182 C 2108.22 0.978042 -1.43911 0
M  V30 22183 O 2109.39 0.961875 -1.76946 0
M  V30 22184 C 2106.46 1.35623 -3.19073 0
M  V30 22185 C 2105.52 0.692067 -4.23685 0
M  V30 22186 C 2104.75 1.69866 -5.05946 0
M  V30 22187 O 2104.98 2.92732 -4.89555 0
M  V30 22188 O 2103.91 1.2601 -5.88562 0
M  V30 22189 H 2107.74 -0.378894 -3.01327 0
M  V30 22190 H 2105.32 -0.251411 -1.47269 0
M  V30 22191 H 2107.2 1.96801 -3.72622 0
M  V30 22192 H 2105.88 2.01752 -2.53136 0
M  V30 22193 H 2104.79 0.040831 -3.74078 0
M  V30 22194 H 2106.12 0.0734074 -4.92145 0
M  V30 22195 N 2107.77 1.56011 -0.223262 0
M  V30 22196 C 2108.7 2.17647 0.718502 0
M  V30 22197 C 2109.72 1.14602 1.15629 0
M  V30 22198 O 2110.9 1.41574 1.08715 0
M  V30 22199 C 2108 2.74665 1.98525 0
M  V30 22200 C 2107.18 4.02896 1.70275 0
M  V30 22201 C 2106.24 4.44462 2.81673 0
M  V30 22202 O 2105.26 5.11326 2.5007 0
M  V30 22203 N 2106.46 4.10287 4.10664 0
M  V30 22204 H 2109.23 2.99089 0.191253 0
M  V30 22205 H 2106.79 1.61845 -0.0423185 0
M  V30 22206 H 2108.78 2.99442 2.72244 0
M  V30 22207 H 2107.35 1.97516 2.42293 0
M  V30 22208 H 2106.57 3.85957 0.801915 0
M  V30 22209 H 2107.86 4.86545 1.48833 0
M  V30 22210 H 2107.26 3.5656 4.39183 0
M  V30 22211 H 2105.82 4.39952 4.80921 0
M  V30 22212 N 2109.25 -0.0501116 1.5752 0
M  V30 22213 C 2110.49 -0.7462 1.88573 0
M  V30 22214 C 2110.83 -1.76115 0.818369 0
M  V30 22215 O 2110.1 -1.93764 -0.169013 0
M  V30 22216 C 2110.39 -1.43474 3.30284 0
M  V30 22217 C 2110.24 -0.434736 4.47694 0
M  V30 22218 C 2111.56 -2.37419 3.70568 0
M  V30 22219 H 2108.68 -0.269807 0.685838 0
M  V30 22220 H 2111.32 -0.00912382 1.89998 0
M  V30 22221 H 2109.47 -2.06301 3.29199 0
M  V30 22222 H 2111.14 0.189992 4.60909 0
M  V30 22223 H 2109.38 0.24799 4.33091 0
M  V30 22224 H 2110.05 -0.954564 5.43684 0
M  V30 22225 H 2112.53 -1.84653 3.72884 0
M  V30 22226 H 2111.41 -2.82587 4.7057 0
M  V30 22227 H 2111.67 -3.2318 3.01674 0
M  V30 22228 N 2110.73 -1.54276 -0.321972 0
M  V30 22229 C 2111.95 -1.76523 -1.07923 0
M  V30 22230 C 2112.37 -0.514589 -1.81652 0
M  V30 22231 O 2111.73 0.514775 -1.75089 0
M  V30 22232 C 2111.78 -2.95941 -2.07609 0
M  V30 22233 O 2111.5 -4.1617 -1.36874 0
M  V30 22234 C 2113 -3.30411 -2.95539 0
M  V30 22235 H 2110.22 -0.589261 -0.320956 0
M  V30 22236 H 2112.76 -2.01169 -0.367616 0
M  V30 22237 H 2110.92 -2.73564 -2.74302 0
M  V30 22238 H 2111.33 -4.83352 -2.03644 0
M  V30 22239 H 2112.81 -4.17265 -3.61378 0
M  V30 22240 H 2113.28 -2.47647 -3.62723 0
M  V30 22241 H 2113.89 -3.54872 -2.34405 0
M  V30 22242 N 2112.2 0.584116 -1.46376 0
M  V30 22243 C 2113.15 1.71437 -1.57201 0
M  V30 22244 C 2114.15 1.6357 -0.440579 0
M  V30 22245 O 2115.35 1.6908 -0.617397 0
M  V30 22246 H 2111.73 0.56679 -0.49422 0
M  V30 22247 H 2113.7 1.59438 -2.52234 0
M  V30 22248 C 2112.45 3.09824 -1.57812 0
M  V30 22249 H 2111.77 3.16547 -2.44209 0
M  V30 22250 H 2113.21 3.88672 -1.69441 0
M  V30 22251 C 2111.67 3.35503 -0.306515 0
M  V30 22252 O 2112.2 3.97136 0.60384 0
M  V30 22253 N 2110.41 2.89946 -0.194866 0
M  V30 22254 H 2109.95 2.39971 -0.936579 0
M  V30 22255 H 2109.91 3.075 0.655069 0
M  V30 22256 N 2113.68 1.34058 0.828631 0
M  V30 22257 C 2114.62 1.21002 1.94657 0
M  V30 22258 C 2115.63 0.138478 1.6221 0
M  V30 22259 O 2116.82 0.389824 1.74191 0
M  V30 22260 C 2113.92 0.835704 3.28434 0
M  V30 22261 C 2113.09 2.00103 3.88944 0
M  V30 22262 C 2112.15 1.60604 5.01092 0
M  V30 22263 O 2111.18 2.32182 5.19692 0
M  V30 22264 N 2112.38 0.516907 5.78194 0
M  V30 22265 H 2115.14 2.17309 2.0639 0
M  V30 22266 H 2112.7 1.26938 1.00491 0
M  V30 22267 H 2114.7 0.553361 4.00899 0
M  V30 22268 H 2113.27 -0.0370007 3.12578 0
M  V30 22269 H 2112.49 2.44843 3.08943 0
M  V30 22270 H 2113.77 2.78052 4.26104 0
M  V30 22271 H 2113.17 -0.0782718 5.65646 0
M  V30 22272 H 2111.73 0.294274 6.51135 0
M  V30 22273 N 2115.16 -1.04814 1.17694 0
M  V30 22274 C 2116.39 -1.8155 0.99233 0
M  V30 22275 C 2116.8 -1.83126 -0.459376 0
M  V30 22276 O 2116.16 -1.26127 -1.31903 0
M  V30 22277 C 2116.21 -3.27495 1.53067 0
M  V30 22278 O 2115.93 -3.26104 2.92554 0
M  V30 22279 C 2117.43 -4.20905 1.39119 0
M  V30 22280 H 2114.65 -0.571967 0.350849 0
M  V30 22281 H 2117.2 -1.32145 1.5607 0
M  V30 22282 H 2115.35 -3.74157 1.00424 0
M  V30 22283 H 2115.77 -4.17476 3.17512 0
M  V30 22284 H 2117.24 -5.21275 1.81595 0
M  V30 22285 H 2117.72 -4.37891 0.338812 0
M  V30 22286 H 2118.32 -3.801 1.90798 0
M  V30 22287 N 2116.64 -0.977779 -1.23601 0
M  V30 22288 C 2117.57 -0.535228 -2.27283 0
M  V30 22289 C 2118.55 0.430261 -1.64568 0
M  V30 22290 O 2119.74 0.324195 -1.91475 0
M  V30 22291 C 2116.87 0.165683 -3.46905 0
M  V30 22292 C 2115.82 -0.716827 -4.21954 0
M  V30 22293 C 2115.15 0.116149 -5.34574 0
M  V30 22294 C 2116.45 -2.00636 -4.82227 0
M  V30 22295 H 2118.14 -1.40185 -2.64553 0
M  V30 22296 H 2115.69 -0.67551 -1.27173 0
M  V30 22297 H 2117.64 0.486573 -4.18581 0
M  V30 22298 H 2116.36 1.06674 -3.08688 0
M  V30 22299 H 2115.02 -1.02114 -3.52091 0
M  V30 22300 H 2114.67 1.01766 -4.92598 0
M  V30 22301 H 2114.37 -0.471195 -5.85708 0
M  V30 22302 H 2115.89 0.431481 -6.09074 0
M  V30 22303 H 2117.31 -1.75041 -5.45925 0
M  V30 22304 H 2115.7 -2.54126 -5.43636 0
M  V30 22305 H 2116.77 -2.69488 -4.03118 0
M  V30 22306 N 2118.12 1.38658 -0.749111 0
M  V30 22307 C 2119.34 2.0503 -0.312666 0
M  V30 22308 C 2119.77 1.56125 1.04912 0
M  V30 22309 O 2119.13 0.711236 1.66767 0
M  V30 22310 C 2119.17 3.58997 -0.339658 0
M  V30 22311 O 2118.28 4.06956 0.667887 0
M  V30 22312 H 2117.62 0.649228 -0.139282 0
M  V30 22313 H 2120.15 1.7742 -1.01898 0
M  V30 22314 H 2120.16 4.07562 -0.188968 0
M  V30 22315 H 2118.83 3.93951 -1.33325 0
M  V30 22316 H 2117.41 3.69769 0.482177 0
M  V30 22317 N 2119.6 0.497834 1.49531 0
M  V30 22318 C 2120.84 -0.0478087 2.02444 0
M  V30 22319 C 2121.17 -1.37286 1.37778 0
M  V30 22320 O 2120.43 -1.89163 0.501565 0
M  V30 22321 C 2120.72 -0.252156 3.56509 0
M  V30 22322 C 2120.39 0.994505 4.39796 0
M  V30 22323 C 2119.05 1.33624 4.62275 0
M  V30 22324 C 2121.4 1.82331 4.88267 0
M  V30 22325 C 2118.73 2.50636 5.3047 0
M  V30 22326 C 2121.08 2.98493 5.5775 0
M  V30 22327 C 2119.75 3.3305 5.78475 0
M  V30 22328 H 2119.02 -0.0174944 0.740793 0
M  V30 22329 H 2121.67 0.657348 1.79864 0
M  V30 22330 H 2119.97 -1.03981 3.7775 0
M  V30 22331 H 2121.67 -0.68874 3.95041 0
M  V30 22332 H 2118.26 0.718308 4.22538 0
M  V30 22333 H 2122.44 1.57244 4.70731 0
M  V30 22334 H 2117.7 2.77651 5.4472 0
M  V30 22335 H 2121.87 3.63042 5.94284 0
M  V30 22336 H 2119.5 4.23822 6.31093 0
M  V30 22337 N 2121.07 -1.5589 0.231532 0
M  V30 22338 C 2122.3 -2.03407 -0.405035 0
M  V30 22339 C 2122.72 -1.11007 -1.51852 0
M  V30 22340 O 2122.08 -0.100101 -1.81023 0
M  V30 22341 C 2122.13 -3.4907 -0.904554 0
M  V30 22342 O 2121.23 -3.59808 -2.01524 0
M  V30 22343 H 2120.57 -0.657819 -0.090391 0
M  V30 22344 H 2123.1 -2.0153 0.353092 0
M  V30 22345 H 2123.11 -3.89589 -1.21178 0
M  V30 22346 H 2121.79 -4.15803 -0.0896407 0
M  V30 22347 H 2120.37 -3.3118 -1.71388 0
M  V30 22348 N 2122.55 0.0417572 -1.57545 0
M  V30 22349 C 2123.8 0.7351 -1.88686 0
M  V30 22350 C 2124.13 1.76032 -0.827216 0
M  V30 22351 O 2123.38 1.94931 0.173363 0
M  V30 22352 C 2123.68 1.45244 -3.26556 0
M  V30 22353 C 2123.35 0.56439 -4.47354 0
M  V30 22354 C 2122.01 0.319756 -4.80136 0
M  V30 22355 C 2124.36 -0.0495197 -5.21176 0
M  V30 22356 C 2121.69 -0.547773 -5.84137 0
M  V30 22357 C 2124.04 -0.904676 -6.26098 0
M  V30 22358 C 2122.7 -1.15889 -6.57363 0
M  V30 22359 H 2121.97 0.268992 -0.690452 0
M  V30 22360 H 2124.62 -0.00478987 -1.91499 0
M  V30 22361 H 2122.93 2.26532 -3.19673 0
M  V30 22362 H 2124.62 1.99422 -3.47896 0
M  V30 22363 H 2121.21 0.765207 -4.21714 0
M  V30 22364 H 2125.4 0.126537 -4.96139 0
M  V30 22365 H 2120.65 -0.753169 -6.06743 0
M  V30 22366 H 2124.83 -1.38695 -6.82449 0
M  V30 22367 H 2122.45 -1.83286 -7.37774 0
M  V30 22368 N 2124.03 1.54445 0.313786 0
M  V30 22369 C 2124.96 1.79371 1.41072 0
M  V30 22370 C 2125.94 0.644191 1.49295 0
M  V30 22371 O 2127.12 0.882726 1.66554 0
M  V30 22372 C 2124.25 1.91902 2.7909 0
M  V30 22373 C 2123.3 3.14253 2.88352 0
M  V30 22374 S 2124.13 4.7263 2.51757 0
M  V30 22375 C 2125.29 4.8808 3.91828 0
M  V30 22376 H 2125.52 2.72131 1.19717 0
M  V30 22377 H 2123.05 1.45693 0.51118 0
M  V30 22378 H 2125.01 1.99807 3.58591 0
M  V30 22379 H 2123.67 1.00103 2.97722 0
M  V30 22380 H 2122.86 3.19785 3.89556 0
M  V30 22381 H 2122.47 3.04729 2.16833 0
M  V30 22382 H 2124.76 4.71317 4.86689 0
M  V30 22383 H 2125.7 5.90178 3.91274 0
M  V30 22384 H 2126.11 4.16316 3.81236 0
M  V30 22385 N 2125.51 -0.576345 1.46683 0
M  V30 22386 C 2126.75 -1.3363 1.52548 0
M  V30 22387 C 2127.09 -1.93371 0.179205 0
M  V30 22388 O 2126.36 -1.76827 -0.810088 0
M  V30 22389 C 2126.64 -2.46086 2.62895 0
M  V30 22390 C 2126.5 -1.91338 4.07075 0
M  V30 22391 C 2127.82 -3.48104 2.6928 0
M  V30 22392 H 2124.94 -0.484517 0.555349 0
M  V30 22393 H 2127.58 -0.646838 1.78651 0
M  V30 22394 H 2125.73 -3.04898 2.40769 0
M  V30 22395 H 2127.4 -1.36934 4.40507 0
M  V30 22396 H 2125.64 -1.22127 4.16254 0
M  V30 22397 H 2126.31 -2.72545 4.80024 0
M  V30 22398 H 2128.79 -2.99183 2.89187 0
M  V30 22399 H 2127.67 -4.2424 3.48298 0
M  V30 22400 H 2127.93 -4.05739 1.7558 0
M  V30 22401 N 2126.99 -1.34495 -0.82151 0
M  V30 22402 C 2127.92 -1.28835 -1.94741 0
M  V30 22403 C 2128.9 -0.165528 -1.69293 0
M  V30 22404 O 2130.08 -0.358115 -1.9087 0
M  V30 22405 C 2127.21 -1.04446 -3.31222 0
M  V30 22406 C 2126.17 -2.13209 -3.71114 0
M  V30 22407 C 2125.49 -1.74007 -5.05594 0
M  V30 22408 C 2126.79 -3.55051 -3.83062 0
M  V30 22409 H 2128.49 -2.23039 -1.99734 0
M  V30 22410 H 2126.03 -1.07369 -0.959573 0
M  V30 22411 H 2127.98 -0.991306 -4.09574 0
M  V30 22412 H 2126.71 -0.0668391 -3.26532 0
M  V30 22413 H 2125.37 -2.17597 -2.95038 0
M  V30 22414 H 2125.02 -0.749021 -4.97392 0
M  V30 22415 H 2124.72 -2.46803 -5.33256 0
M  V30 22416 H 2126.24 -1.7019 -5.86402 0
M  V30 22417 H 2127.65 -3.53068 -4.51681 0
M  V30 22418 H 2126.05 -4.2648 -4.22179 0
M  V30 22419 H 2127.12 -3.92289 -2.85021 0
M  V30 22420 N 2128.46 1.04188 -1.18248 0
M  V30 22421 C 2129.4 2.12204 -0.866138 0
M  V30 22422 C 2130.41 1.62233 0.135743 0
M  V30 22423 O 2131.6 1.78263 -0.0919276 0
M  V30 22424 C 2128.7 3.37802 -0.272597 0
M  V30 22425 C 2127.87 4.17012 -1.31983 0
M  V30 22426 C 2126.93 5.20939 -0.74221 0
M  V30 22427 O 2125.96 5.5129 -1.41662 0
M  V30 22428 N 2127.16 5.78668 0.460879 0
M  V30 22429 H 2129.92 2.39936 -1.79585 0
M  V30 22430 H 2127.48 1.20371 -1.0827 0
M  V30 22431 H 2129.48 4.045 0.127367 0
M  V30 22432 H 2128.05 3.07523 0.561114 0
M  V30 22433 H 2127.27 3.45655 -1.89516 0
M  V30 22434 H 2128.55 4.66728 -2.0259 0
M  V30 22435 H 2127.95 5.56308 1.02655 0
M  V30 22436 H 2126.51 6.46837 0.80278 0
M  V30 22437 N 2129.94 0.98432 1.23081 0
M  V30 22438 C 2131.22 0.571642 1.8706 0
M  V30 22439 C 2131.6 -0.951185 1.88456 0
M  V30 22440 O 2130.95 -1.82954 1.36894 0
M  V30 22441 C 2131.16 1.18221 3.28367 0
M  V30 22442 C 2132.51 1.27739 4.04929 0
M  V30 22443 O 2133.53 1.13596 3.37601 0
M  V30 22444 O 2132.39 1.50282 5.25431 0
M  V30 22445 H 2129.48 0.193027 0.804158 0
M  V30 22446 H 2132.03 1.07965 1.30926 0
M  V30 22447 H 2130.8 2.22421 3.21939 0
M  V30 22448 H 2130.42 0.65926 3.92096 0
M  V30 22449 N 2131.42 -1.38259 0.756453 0
M  V30 22450 C 2132.67 -1.99293 0.310658 0
M  V30 22451 C 2132.98 -1.60729 -1.11469 0
M  V30 22452 O 2134.19 -2.14755 -1.6611 0
M  V30 22453 C 2132.64 -3.56347 0.50448 0
M  V30 22454 C 2132.25 -4.0386 1.9391 0
M  V30 22455 C 2134 -4.24326 0.121541 0
M  V30 22456 C 2131.9 -5.53565 2.08133 0
M  V30 22457 H 2130.83 -0.745574 0.112405 0
M  V30 22458 H 2133.48 -1.57987 0.933403 0
M  V30 22459 H 2131.87 -3.95556 -0.187493 0
M  V30 22460 H 2133.04 -3.75934 2.66478 0
M  V30 22461 H 2131.36 -3.48614 2.27722 0
M  V30 22462 H 2133.95 -5.34301 0.206533 0
M  V30 22463 H 2134.3 -4.05866 -0.926213 0
M  V30 22464 H 2134.83 -3.90366 0.765478 0
M  V30 22465 H 2131.57 -5.76933 3.11173 0
M  V30 22466 H 2131.09 -5.83225 1.4003 0
M  V30 22467 H 2132.77 -6.19307 1.87264 0
M  V30 22468 N 2132.9 -0.505757 -1.49264 0
M  V30 22469 C 2134.31 -0.0591588 -1.86606 0
M  V30 22470 C 2134.66 1.35636 -1.41765 0
M  V30 22471 O 2133.79 2.01164 -0.797622 0
M  V30 22472 C 2134.38 -0.100581 -3.38651 0
M  V30 22473 C 2132.94 0.290698 -3.75276 0
M  V30 22474 C 2132.09 -0.471033 -2.7327 0
M  V30 22475 H 2135.04 -0.718294 -1.41514 0
M  V30 22476 H 2135.06 0.693588 -3.74125 0
M  V30 22477 H 2134.57 -1.13093 -3.71257 0
M  V30 22478 H 2132.67 1.3241 -3.48279 0
M  V30 22479 H 2132.78 -0.0320604 -4.79089 0
M  V30 22480 H 2131.15 0.0797288 -2.54575 0
M  V30 22481 H 2131.93 -1.50155 -3.0872 0
M  V30 22482 N 2134.38 1.55765 -0.239796 0
M  V30 22483 C 2135.62 1.99064 0.387489 0
M  V30 22484 C 2135.96 1.12765 1.58107 0
M  V30 22485 O 2135.23 0.189423 1.93575 0
M  V30 22486 C 2135.51 3.51003 0.80429 0
M  V30 22487 C 2135.37 4.48069 -0.394185 0
M  V30 22488 C 2136.69 4.07842 1.65386 0
M  V30 22489 H 2133.8 0.723702 0.139371 0
M  V30 22490 H 2136.45 1.86939 -0.339685 0
M  V30 22491 H 2134.6 3.61466 1.42388 0
M  V30 22492 H 2136.27 4.49595 -1.03255 0
M  V30 22493 H 2134.51 4.21186 -1.03852 0
M  V30 22494 H 2135.18 5.51968 -0.0593288 0
M  V30 22495 H 2137.66 4.00437 1.13092 0
M  V30 22496 H 2136.53 5.14435 1.91436 0
M  V30 22497 H 2136.8 3.55856 2.62333 0
M  V30 22498 N 2135.85 -0.0334016 1.57565 0
M  V30 22499 C 2137.1 -0.723651 1.887 0
M  V30 22500 C 2137.42 -1.76126 0.836929 0
M  V30 22501 O 2136.69 -1.95468 -0.12998 0
M  V30 22502 H 2135.27 -0.270263 0.696396 0
M  V30 22503 H 2137.94 -0.000381018 1.949 0
M  V30 22504 H 2137.03 -1.21594 2.87439 0
M  V30 22505 N 2137.33 -1.54609 -0.305591 0
M  V30 22506 C 2138.61 -1.64344 -1.06068 0
M  V30 22507 C 2138.99 -0.488774 -2.05364 0
M  V30 22508 O 2138.34 0.515015 -2.2262 0
M  V30 22509 C 2138.55 -3.02149 -1.74663 0
M  V30 22510 C 2139.9 -3.58808 -2.27029 0
M  V30 22511 O 2140.92 -3.04571 -1.84703 0
M  V30 22512 O 2139.78 -4.53762 -3.04568 0
M  V30 22513 H 2136.87 -0.666216 -0.489984 0
M  V30 22514 H 2139.42 -1.66954 -0.304046 0
M  V30 22515 H 2138.19 -3.77626 -1.02538 0
M  V30 22516 H 2137.81 -3.03296 -2.57094 0
M  V30 22517 N 2138.81 0.568558 -1.46987 0
M  V30 22518 C 2139.74 1.68651 -1.61491 0
M  V30 22519 C 2140.72 1.63629 -0.464706 0
M  V30 22520 O 2141.91 1.81427 -0.692676 0
M  V30 22521 C 2139.04 3.07294 -1.61826 0
M  V30 22522 C 2137.99 3.27156 -2.75959 0
M  V30 22523 C 2137.32 4.6647 -2.61361 0
M  V30 22524 C 2138.62 3.13623 -4.17658 0
M  V30 22525 H 2140.31 1.56769 -2.55076 0
M  V30 22526 H 2137.86 0.752771 -1.22757 0
M  V30 22527 H 2139.81 3.85338 -1.70565 0
M  V30 22528 H 2138.53 3.20108 -0.647937 0
M  V30 22529 H 2137.19 2.51516 -2.66712 0
M  V30 22530 H 2136.84 4.76069 -1.62381 0
M  V30 22531 H 2136.54 4.8071 -3.37923 0
M  V30 22532 H 2138.06 5.46664 -2.72012 0
M  V30 22533 H 2139.48 3.81497 -4.27941 0
M  V30 22534 H 2137.88 3.39378 -4.94917 0
M  V30 22535 H 2138.95 2.10514 -4.3682 0
M  V30 22536 N 2140.29 1.34929 0.814366 0
M  V30 22537 C 2141.24 1.27211 1.92577 0
M  V30 22538 C 2142.21 0.145599 1.65461 0
M  V30 22539 O 2143.39 0.328007 1.87959 0
M  V30 22540 C 2140.53 1.04214 3.28989 0
M  V30 22541 C 2139.64 2.25716 3.68343 0
M  V30 22542 C 2138.78 1.95932 4.93745 0
M  V30 22543 C 2137.82 3.13531 5.25704 0
M  V30 22544 N 2136.95 2.83574 6.42285 0
M  V30 22545 H 2141.79 2.22255 1.98511 0
M  V30 22546 H 2139.33 1.10491 0.97109 0
M  V30 22547 H 2141.29 0.889147 4.07615 0
M  V30 22548 H 2139.92 0.128343 3.22545 0
M  V30 22549 H 2138.97 2.51906 2.85039 0
M  V30 22550 H 2140.28 3.13553 3.87925 0
M  V30 22551 H 2139.44 1.77419 5.80179 0
M  V30 22552 H 2138.18 1.05369 4.76181 0
M  V30 22553 H 2137.18 3.32631 4.37763 0
M  V30 22554 H 2138.41 4.04885 5.45202 0
M  V30 22555 H 2136.35 1.95596 6.26161 0
M  V30 22556 H 2136.27 3.64944 6.62081 0
M  V30 22557 H 2137.54 2.68584 7.31767 0
M  V30 22558 N 2141.77 -1.0356 1.18799 0
M  V30 22559 C 2143.18 -1.58299 0.989867 0
M  V30 22560 C 2143.53 -1.90754 -0.459077 0
M  V30 22561 O 2142.65 -1.70132 -1.33731 0
M  V30 22562 C 2143.25 -2.8762 1.79054 0
M  V30 22563 C 2141.81 -3.38957 1.63662 0
M  V30 22564 C 2140.95 -2.12479 1.7818 0
M  V30 22565 H 2143.91 -0.861694 1.33269 0
M  V30 22566 H 2143.93 -3.5823 1.28263 0
M  V30 22567 H 2143.44 -2.63967 2.84505 0
M  V30 22568 H 2141.54 -3.67611 0.607689 0
M  V30 22569 H 2141.65 -4.12441 2.43781 0
M  V30 22570 H 2140.02 -2.24028 1.21176 0
M  V30 22571 H 2140.8 -1.91275 2.85076 0
M  V30 22572 N 2143.25 -0.990834 -1.22557 0
M  V30 22573 C 2144.21 -0.544553 -2.22637 0
M  V30 22574 C 2145.21 0.371467 -1.56451 0
M  V30 22575 O 2146.4 0.163711 -1.73429 0
M  V30 22576 C 2143.53 0.20822 -3.40264 0
M  V30 22577 H 2144.72 -1.42959 -2.63634 0
M  V30 22578 H 2142.28 -0.77782 -1.35572 0
M  V30 22579 H 2143.01 1.10933 -3.04737 0
M  V30 22580 H 2142.8 -0.449464 -3.89515 0
M  V30 22581 H 2144.29 0.508696 -4.1449 0
M  V30 22582 N 2144.72 1.37856 -0.763775 0
M  V30 22583 C 2145.97 1.99126 -0.321223 0
M  V30 22584 C 2146.29 1.61318 1.10615 0
M  V30 22585 O 2147.49 2.15633 1.64969 0
M  V30 22586 C 2145.95 3.56074 -0.523371 0
M  V30 22587 C 2145.56 4.02826 -1.96049 0
M  V30 22588 C 2147.3 4.24256 -0.144043 0
M  V30 22589 C 2145.21 5.52454 -2.11066 0
M  V30 22590 H 2144.14 0.744968 -0.116357 0
M  V30 22591 H 2146.79 1.5749 -0.941769 0
M  V30 22592 H 2145.17 3.9565 0.166513 0
M  V30 22593 H 2146.34 3.74515 -2.68468 0
M  V30 22594 H 2144.66 3.47402 -2.29567 0
M  V30 22595 H 2147.26 5.34184 -0.234865 0
M  V30 22596 H 2147.6 4.06351 0.904676 0
M  V30 22597 H 2148.13 3.89954 -0.786169 0
M  V30 22598 H 2144.87 5.75275 -3.14228 0
M  V30 22599 H 2144.39 5.82474 -1.43121 0
M  V30 22600 H 2146.07 6.18305 -1.90546 0
M  V30 22601 N 2146.2 0.513665 1.48994 0
M  V30 22602 C 2147.45 -0.0263732 2.02783 0
M  V30 22603 C 2147.78 -1.35469 1.39147 0
M  V30 22604 O 2147.06 -1.87097 0.531511 0
M  V30 22605 C 2147.34 -0.165605 3.59719 0
M  V30 22606 C 2147.19 1.18673 4.33863 0
M  V30 22607 C 2148.51 -0.900228 4.30794 0
M  V30 22608 H 2145.63 -0.00811043 0.736955 0
M  V30 22609 H 2148.27 0.667534 1.77888 0
M  V30 22610 H 2146.42 -0.756613 3.81061 0
M  V30 22611 H 2148.09 1.81759 4.23983 0
M  V30 22612 H 2146.34 1.77281 3.95922 0
M  V30 22613 H 2147.01 1.04247 5.42067 0
M  V30 22614 H 2149.48 -0.398863 4.14184 0
M  V30 22615 H 2148.36 -0.966514 5.40324 0
M  V30 22616 H 2148.62 -1.94685 3.96926 0
M  V30 22617 N 2147.68 -1.55636 0.248053 0
M  V30 22618 C 2148.63 -2.21428 -0.651012 0
M  V30 22619 C 2149.6 -1.17855 -1.17045 0
M  V30 22620 O 2150.78 -1.46306 -1.22471 0
M  V30 22621 C 2147.92 -2.91846 -1.84174 0
M  V30 22622 C 2147.03 -4.10077 -1.35872 0
M  V30 22623 C 2146.17 -4.68207 -2.50909 0
M  V30 22624 C 2145.21 -5.78685 -1.99475 0
M  V30 22625 N 2144.35 -6.30993 -3.07883 0
M  V30 22626 H 2149.19 -2.97884 -0.0832758 0
M  V30 22627 H 2146.72 -1.47071 -0.0293424 0
M  V30 22628 H 2148.68 -3.30873 -2.54124 0
M  V30 22629 H 2147.31 -2.17862 -2.38193 0
M  V30 22630 H 2146.36 -3.76356 -0.553219 0
M  V30 22631 H 2147.67 -4.89829 -0.941776 0
M  V30 22632 H 2146.83 -5.09814 -3.28899 0
M  V30 22633 H 2145.57 -3.87674 -2.95905 0
M  V30 22634 H 2144.57 -5.36555 -1.19955 0
M  V30 22635 H 2145.8 -6.6107 -1.55447 0
M  V30 22636 H 2143.74 -5.53365 -3.52312 0
M  V30 22637 H 2143.66 -7.05941 -2.70523 0
M  V30 22638 H 2144.93 -6.77258 -3.8593 0
M  V30 22639 N 2149.16 0.0250451 -1.5758 0
M  V30 22640 C 2150.4 0.716105 -1.89736 0
M  V30 22641 C 2150.74 1.7479 -0.846284 0
M  V30 22642 O 2150.01 1.94009 0.138165 0
M  V30 22643 C 2150.29 1.38201 -3.32524 0
M  V30 22644 C 2150.15 0.363457 -4.48329 0
M  V30 22645 C 2151.47 2.31493 -3.74298 0
M  V30 22646 H 2148.59 0.258862 -0.690043 0
M  V30 22647 H 2151.23 -0.0211043 -1.89988 0
M  V30 22648 H 2149.38 2.01037 -3.3244 0
M  V30 22649 H 2151.05 -0.263295 -4.60548 0
M  V30 22650 H 2149.29 -0.316859 -4.32641 0
M  V30 22651 H 2149.96 0.867948 -5.45134 0
M  V30 22652 H 2152.44 1.78697 -3.75774 0
M  V30 22653 H 2151.32 2.75065 -4.75006 0
M  V30 22654 H 2151.58 3.1834 -3.06777 0
M  V30 22655 N 2150.64 1.54769 0.297388 0
M  V30 22656 C 2151.87 1.77959 1.04948 0
M  V30 22657 C 2152.27 0.54095 1.81302 0
M  V30 22658 O 2151.62 -0.498902 1.76796 0
M  V30 22659 C 2151.68 2.93664 2.07368 0
M  V30 22660 C 2151.34 4.3162 1.50177 0
M  V30 22661 C 2152.34 5.11516 0.929935 0
M  V30 22662 C 2150.02 4.78229 1.53631 0
M  V30 22663 C 2152.02 6.36142 0.400253 0
M  V30 22664 C 2149.71 6.02817 1.00276 0
M  V30 22665 C 2150.7 6.81609 0.435703 0
M  V30 22666 O 2150.39 8.0385 -0.0897463 0
M  V30 22667 H 2150.12 0.597144 0.316852 0
M  V30 22668 H 2152.68 2.02548 0.341093 0
M  V30 22669 H 2150.91 2.64708 2.81898 0
M  V30 22670 H 2152.6 3.04398 2.68509 0
M  V30 22671 H 2153.36 4.76649 0.896125 0
M  V30 22672 H 2149.24 4.16926 1.96707 0
M  V30 22673 H 2152.79 6.97587 -0.0430005 0
M  V30 22674 H 2148.68 6.37169 1.03373 0
M  V30 22675 H 2149.45 8.18497 0.0232118 0
M  V30 22676 N 2152.11 -0.560755 1.47286 0
M  V30 22677 C 2153.39 -1.32148 1.4421 0
M  V30 22678 C 2153.77 -2.10654 0.137154 0
M  V30 22679 O 2153.12 -2.10818 -0.88136 0
M  V30 22680 C 2153.33 -2.22899 2.68546 0
M  V30 22681 C 2154.68 -2.84031 3.15613 0
M  V30 22682 O 2155.7 -2.33202 2.69249 0
M  V30 22683 O 2154.56 -3.76408 3.96206 0
M  V30 22684 H 2151.65 -0.594853 0.574525 0
M  V30 22685 H 2154.2 -0.579952 1.59482 0
M  V30 22686 H 2152.97 -1.64465 3.55059 0
M  V30 22687 H 2152.59 -3.04353 2.55842 0
M  V30 22688 N 2153.59 -1.35359 -0.807199 0
M  V30 22689 C 2154.82 -1.3152 -1.5933 0
M  V30 22690 C 2155.23 0.109536 -1.88883 0
M  V30 22691 O 2154.57 1.07173 -1.49196 0
M  V30 22692 C 2154.63 -2.05378 -2.9506 0
M  V30 22693 C 2154.3 -3.54567 -2.88325 0
M  V30 22694 C 2155.3 -4.49171 -2.61805 0
M  V30 22695 C 2152.98 -3.97206 -3.07462 0
M  V30 22696 C 2154.97 -5.84389 -2.54496 0
M  V30 22697 C 2152.66 -5.3252 -2.99776 0
M  V30 22698 C 2153.66 -6.25923 -2.73329 0
M  V30 22699 O 2153.35 -7.58755 -2.65605 0
M  V30 22700 H 2153.08 -0.453354 -0.501444 0
M  V30 22701 H 2155.63 -1.78786 -1.01117 0
M  V30 22702 H 2153.86 -1.52748 -3.55253 0
M  V30 22703 H 2155.55 -1.94625 -3.56197 0
M  V30 22704 H 2156.32 -4.17546 -2.4674 0
M  V30 22705 H 2152.2 -3.24891 -3.27058 0
M  V30 22706 H 2155.74 -6.57264 -2.33774 0
M  V30 22707 H 2151.64 -5.63758 -3.14399 0
M  V30 22708 H 2152.41 -7.68673 -2.81218 0
M  V30 22709 N 2155.07 1.02928 -1.19346 0
M  V30 22710 C 2156.3 1.79687 -1.01961 0
M  V30 22711 C 2156.71 1.84137 0.434779 0
M  V30 22712 O 2156.05 1.28397 1.31377 0
M  V30 22713 C 2156.11 3.26152 -1.51213 0
M  V30 22714 C 2155.78 3.45338 -2.99317 0
M  V30 22715 C 2156.77 3.35591 -3.97083 0
M  V30 22716 C 2154.46 3.71566 -3.38 0
M  V30 22717 C 2156.45 3.51795 -5.31525 0
M  V30 22718 C 2154.14 3.87415 -4.72602 0
M  V30 22719 C 2155.14 3.77532 -5.69174 0
M  V30 22720 O 2154.83 3.92914 -7.01337 0
M  V30 22721 H 2154.56 0.572339 -0.359729 0
M  V30 22722 H 2157.11 1.30533 -1.58588 0
M  V30 22723 H 2155.34 3.76328 -0.889605 0
M  V30 22724 H 2157.03 3.84505 -1.30042 0
M  V30 22725 H 2157.8 3.1528 -3.68542 0
M  V30 22726 H 2153.68 3.78351 -2.63385 0
M  V30 22727 H 2157.22 3.43997 -6.06887 0
M  V30 22728 H 2153.12 4.07223 -5.00839 0
M  V30 22729 H 2153.88 4.10007 -7.08404 0
M  V30 22730 N 2156.55 0.997319 1.2203 0
M  V30 22731 C 2157.46 0.560352 2.2781 0
M  V30 22732 C 2158.47 -0.392977 1.69504 0
M  V30 22733 O 2159.65 -0.258715 1.99731 0
M  V30 22734 C 2156.71 -0.113747 3.46513 0
M  V30 22735 C 2155.78 0.883099 4.20119 0
M  V30 22736 C 2155.01 0.241074 5.33155 0
M  V30 22737 O 2155.23 -0.963972 5.62195 0
M  V30 22738 O 2154.17 0.948154 5.94385 0
M  V30 22739 H 2157.99 1.44049 2.67364 0
M  V30 22740 H 2155.58 0.765793 1.28281 0
M  V30 22741 H 2157.46 -0.491137 4.18528 0
M  V30 22742 H 2156.13 -0.968387 3.08875 0
M  V30 22743 H 2155.04 1.3115 3.50358 0
M  V30 22744 H 2156.37 1.70708 4.61649 0
M  V30 22745 N 2158.03 -1.37449 0.771075 0
M  V30 22746 C 2159.25 -2.03979 0.346453 0
M  V30 22747 C 2159.67 -1.58156 -1.03113 0
M  V30 22748 O 2159.03 -0.762511 -1.65807 0
M  V30 22749 C 2159.08 -3.595 0.379748 0
M  V30 22750 O 2158.8 -4.03646 1.70298 0
M  V30 22751 C 2160.3 -4.43264 -0.0565544 0
M  V30 22752 H 2157.52 -0.655084 0.145281 0
M  V30 22753 H 2160.06 -1.75795 1.04481 0
M  V30 22754 H 2158.22 -3.86458 -0.270023 0
M  V30 22755 H 2158.63 -4.98163 1.64115 0
M  V30 22756 H 2160.11 -5.51997 0.0178961 0
M  V30 22757 H 2160.58 -4.25025 -1.10683 0
M  V30 22758 H 2161.19 -4.2153 0.565003 0
M  V30 22759 N 2159.5 -0.52156 -1.4872 0
M  V30 22760 C 2160.78 0.0795904 -1.95438 0
M  V30 22761 C 2161.16 1.52124 -1.46361 0
M  V30 22762 O 2160.51 2.17948 -0.686376 0
M  V30 22763 C 2160.72 -0.028961 -3.48988 0
M  V30 22764 C 2162.07 0.134582 -4.24387 0
M  V30 22765 O 2163.09 0.0452419 -3.56171 0
M  V30 22766 O 2161.95 0.32062 -5.45559 0
M  V30 22767 H 2159.04 0.0839623 -0.822727 0
M  V30 22768 H 2161.59 -0.58556 -1.59277 0
M  V30 22769 H 2160.36 -1.03353 -3.77404 0
M  V30 22770 H 2159.99 0.675418 -3.91821 0
M  V30 22771 N 2160.98 1.55502 -0.256304 0
M  V30 22772 C 2161.89 2.25422 0.649785 0
M  V30 22773 C 2162.91 1.27356 1.1856 0
M  V30 22774 O 2164.08 1.60253 1.21988 0
M  V30 22775 C 2161.15 2.94725 1.82587 0
M  V30 22776 C 2160.21 4.08224 1.32859 0
M  V30 22777 C 2159.44 4.74213 2.44862 0
M  V30 22778 O 2159.67 4.39321 3.63804 0
M  V30 22779 O 2158.6 5.6254 2.14086 0
M  V30 22780 H 2162.43 3.03584 0.083948 0
M  V30 22781 H 2160.01 1.4938 -0.0244329 0
M  V30 22782 H 2161.89 3.38344 2.512 0
M  V30 22783 H 2160.57 2.19495 2.37915 0
M  V30 22784 H 2159.48 3.69102 0.609468 0
M  V30 22785 H 2160.81 4.853 0.82129 0
M  V30 22786 N 2162.46 -0.0166879 1.57591 0
M  V30 22787 C 2163.69 -0.720103 1.94497 0
M  V30 22788 C 2164.11 -1.6743 0.857254 0
M  V30 22789 O 2163.47 -1.80343 -0.186035 0
M  V30 22790 C 2163.52 -1.44264 3.30485 0
M  V30 22791 O 2162.62 -2.55638 3.23609 0
M  V30 22792 H 2161.96 -0.19279 0.635396 0
M  V30 22793 H 2164.49 0.0315297 2.04576 0
M  V30 22794 H 2164.5 -1.80981 3.65664 0
M  V30 22795 H 2163.18 -0.742902 4.09211 0
M  V30 22796 H 2161.75 -2.21373 3.00081 0
M  V30 22797 N 2163.94 -1.54924 -0.289176 0
M  V30 22798 C 2165.18 -1.75025 -1.0244 0
M  V30 22799 C 2165.52 -0.540906 -1.86515 0
M  V30 22800 O 2164.79 0.461833 -1.88937 0
M  V30 22801 C 2165.08 -3.04611 -1.92052 0
M  V30 22802 C 2164.93 -4.35869 -1.11079 0
M  V30 22803 C 2166.25 -3.30134 -2.91032 0
M  V30 22804 H 2163.37 -0.636806 -0.371008 0
M  V30 22805 H 2166.01 -1.87647 -0.298076 0
M  V30 22806 H 2164.16 -2.93981 -2.53983 0
M  V30 22807 H 2165.83 -4.58434 -0.513434 0
M  V30 22808 H 2164.07 -4.31822 -0.41379 0
M  V30 22809 H 2164.74 -5.22832 -1.7706 0
M  V30 22810 H 2167.22 -3.40451 -2.39233 0
M  V30 22811 H 2166.1 -4.221 -3.50889 0
M  V30 22812 H 2166.36 -2.48995 -3.65314 0
M  V30 22813 N 2165.42 0.552936 -1.47582 0
M  V30 22814 C 2166.66 1.31186 -1.54655 0
M  V30 22815 C 2167 1.93062 -0.209946 0
M  V30 22816 O 2166.27 1.78093 0.781854 0
M  V30 22817 C 2166.55 2.41873 -2.66776 0
M  V30 22818 C 2166.41 1.84837 -4.10067 0
M  V30 22819 C 2167.73 3.43776 -2.74784 0
M  V30 22820 H 2164.84 0.47562 -0.562987 0
M  V30 22821 H 2167.49 0.618335 -1.79657 0
M  V30 22822 H 2165.64 3.01029 -2.45589 0
M  V30 22823 H 2167.31 1.29909 -4.4263 0
M  V30 22824 H 2165.55 1.15489 -4.18144 0
M  V30 22825 H 2166.22 2.64874 -4.84299 0
M  V30 22826 H 2168.7 2.94544 -2.9391 0
M  V30 22827 H 2167.57 4.18646 -3.55003 0
M  V30 22828 H 2167.84 4.02894 -1.82013 0
M  V30 22829 N 2166.89 1.35785 0.800009 0
M  V30 22830 C 2167.86 1.29109 1.89377 0
M  V30 22831 C 2168.86 0.201077 1.59538 0
M  V30 22832 O 2170.05 0.455197 1.68148 0
M  V30 22833 C 2167.18 0.99888 3.25937 0
M  V30 22834 H 2168.37 2.2637 1.96715 0
M  V30 22835 H 2165.93 1.20404 0.996618 0
M  V30 22836 H 2166.66 0.0304071 3.24286 0
M  V30 22837 H 2166.45 1.78756 3.48982 0
M  V30 22838 H 2167.94 0.977941 4.05988 0
M  V30 22839 N 2168.37 -1.02294 1.19891 0
M  V30 22840 C 2169.28 -2.14169 0.957533 0
M  V30 22841 C 2170.3 -1.73795 -0.0844739 0
M  V30 22842 O 2171.47 -2.01144 0.101528 0
M  V30 22843 C 2168.54 -3.4299 0.50587 0
M  V30 22844 C 2167.6 -3.97643 1.61797 0
M  V30 22845 C 2166.83 -5.20315 1.18777 0
M  V30 22846 O 2167.06 -5.70375 0.0538032 0
M  V30 22847 O 2165.99 -5.67957 1.99268 0
M  V30 22848 H 2169.82 -2.37398 1.89409 0
M  V30 22849 H 2167.4 -1.12572 0.982234 0
M  V30 22850 H 2169.28 -4.20579 0.26292 0
M  V30 22851 H 2167.96 -3.21192 -0.402182 0
M  V30 22852 H 2166.87 -3.21362 1.91514 0
M  V30 22853 H 2168.2 -4.23817 2.5028 0
M  V30 22854 N 2169.85 -1.00378 -1.21499 0
M  V30 22855 C 2171.08 -0.703551 -1.94252 0
M  V30 22856 C 2171.49 0.73767 -1.74227 0
M  V30 22857 O 2170.83 1.51064 -1.04525 0
M  V30 22858 C 2170.89 -0.94326 -3.46905 0
M  V30 22859 C 2170.56 -2.37108 -3.90677 0
M  V30 22860 C 2171.55 -3.35123 -3.97478 0
M  V30 22861 C 2169.24 -2.70841 -4.23025 0
M  V30 22862 C 2171.23 -4.64939 -4.36017 0
M  V30 22863 C 2168.92 -4.00873 -4.61242 0
M  V30 22864 C 2169.92 -4.97734 -4.67708 0
M  V30 22865 O 2169.61 -6.25441 -5.05054 0
M  V30 22866 H 2169.34 -0.258563 -0.624597 0
M  V30 22867 H 2171.89 -1.34429 -1.55299 0
M  V30 22868 H 2170.12 -0.245347 -3.85921 0
M  V30 22869 H 2171.81 -0.636609 -4.00877 0
M  V30 22870 H 2172.58 -3.10397 -3.72665 0
M  V30 22871 H 2168.46 -1.96145 -4.17191 0
M  V30 22872 H 2172 -5.4054 -4.40978 0
M  V30 22873 H 2167.9 -4.25385 -4.85508 0
M  V30 22874 H 2168.67 -6.29538 -5.23091 0
M  V30 22875 N 2171.33 1.37038 -0.778354 0
M  V30 22876 C 2172.58 1.98774 -0.342325 0
M  V30 22877 C 2172.89 1.62483 1.08898 0
M  V30 22878 O 2174.1 2.1737 1.62673 0
M  V30 22879 C 2172.55 3.55499 -0.561108 0
M  V30 22880 C 2172.16 4.00724 -2.00311 0
M  V30 22881 C 2173.9 4.24079 -0.189032 0
M  V30 22882 C 2171.81 5.50184 -2.16914 0
M  V30 22883 H 2170.74 0.743692 -0.124252 0
M  V30 22884 H 2173.39 1.56482 -0.95842 0
M  V30 22885 H 2171.77 3.95804 0.12454 0
M  V30 22886 H 2172.95 3.71647 -2.72425 0
M  V30 22887 H 2171.26 3.44947 -2.33239 0
M  V30 22888 H 2173.86 5.33905 -0.291509 0
M  V30 22889 H 2174.2 4.07288 0.861526 0
M  V30 22890 H 2174.74 3.89098 -0.827484 0
M  V30 22891 H 2171.48 5.71909 -3.20312 0
M  V30 22892 H 2171 5.80924 -1.49291 0
M  V30 22893 H 2172.67 6.16249 -1.97093 0
M  V30 22894 N 2172.81 0.529439 1.48441 0
M  V30 22895 C 2173.77 -0.222884 2.28114 0
M  V30 22896 C 2174.77 -0.868268 1.35343 0
M  V30 22897 O 2175.96 -0.728402 1.5824 0
M  V30 22898 C 2173.09 -1.3225 3.14202 0
M  V30 22899 H 2174.29 0.476616 2.96088 0
M  V30 22900 H 2171.84 0.28536 1.53673 0
M  V30 22901 H 2172.57 -2.05527 2.50857 0
M  V30 22902 H 2172.36 -0.864853 3.82443 0
M  V30 22903 H 2173.85 -1.85168 3.74303 0
M  V30 22904 N 2174.29 -1.55364 0.264547 0
M  V30 22905 C 2175.7 -1.85212 -0.235254 0
M  V30 22906 C 2176.05 -1.18652 -1.56256 0
M  V30 22907 O 2175.17 -0.471096 -2.1121 0
M  V30 22908 C 2175.77 -3.36014 -0.43363 0
M  V30 22909 C 2174.33 -3.66024 -0.877673 0
M  V30 22910 C 2173.47 -2.77278 0.0350996 0
M  V30 22911 H 2176.42 -1.51055 0.486633 0
M  V30 22912 H 2176.45 -3.58548 -1.27373 0
M  V30 22913 H 2175.96 -3.84429 0.532565 0
M  V30 22914 H 2174.06 -3.23101 -1.85571 0
M  V30 22915 H 2174.17 -4.73624 -0.722315 0
M  V30 22916 H 2172.54 -2.50148 -0.479378 0
M  V30 22917 H 2173.32 -3.28504 0.996986 0
M  V30 22918 N 2175.76 0.00833021 -1.57598 0
M  V30 22919 C 2177 0.699511 -1.92058 0
M  V30 22920 C 2177.37 1.71397 -0.865278 0
M  V30 22921 O 2178.57 2.45492 -1.09486 0
M  V30 22922 C 2176.84 1.33325 -3.31601 0
M  V30 22923 S 2178.4 2.05071 -3.87932 0
M  V30 22924 H 2175.22 0.231259 -0.672339 0
M  V30 22925 H 2177.82 -0.0463571 -1.95445 0
M  V30 22926 H 2176.52 0.581972 -4.06253 0
M  V30 22927 H 2176.05 2.11723 -3.31567 0
M  V30 22928 H 2178.07 3.32482 -3.68334 0
M  V30 22929 N 2177.24 1.55075 0.280956 0
M  V30 22930 C 2178.47 1.79652 1.03634 0
M  V30 22931 C 2178.89 0.564074 1.79443 0
M  V30 22932 O 2178.25 -0.486088 1.74662 0
M  V30 22933 C 2178.3 3.01583 1.97687 0
M  V30 22934 O 2177.4 2.76111 3.06327 0
M  V30 22935 H 2176.74 0.594024 0.296701 0
M  V30 22936 H 2179.27 2.02203 0.312282 0
M  V30 22937 H 2179.28 3.301 2.39787 0
M  V30 22938 H 2177.96 3.90937 1.41919 0
M  V30 22939 H 2176.53 2.58668 2.68598 0
M  V30 22940 N 2178.72 -0.545102 1.47873 0
M  V30 22941 C 2179.95 -1.32682 1.58755 0
M  V30 22942 C 2180.36 -1.8724 0.242172 0
M  V30 22943 O 2179.72 -1.65628 -0.766386 0
M  V30 22944 C 2179.77 -2.48828 2.62234 0
M  V30 22945 O 2179.49 -1.96522 3.91549 0
M  V30 22946 C 2180.99 -3.40869 2.83414 0
M  V30 22947 H 2178.21 -0.404033 0.535722 0
M  V30 22948 H 2180.76 -0.659132 1.93586 0
M  V30 22949 H 2178.91 -3.11511 2.30303 0
M  V30 22950 H 2179.33 -2.72436 4.48195 0
M  V30 22951 H 2180.8 -4.18751 3.59655 0
M  V30 22952 H 2181.28 -3.95166 1.91679 0
M  V30 22953 H 2181.88 -2.83991 3.1659 0
M  V30 22954 N 2180.2 -1.36208 -0.792797 0
M  V30 22955 C 2181.47 -1.20801 -1.53839 0
M  V30 22956 C 2181.85 0.20722 -2.1008 0
M  V30 22957 O 2181.2 1.21244 -1.9368 0
M  V30 22958 C 2181.41 -2.28726 -2.63601 0
M  V30 22959 C 2182.76 -2.65225 -3.31573 0
M  V30 22960 O 2183.78 -2.27744 -2.73882 0
M  V30 22961 O 2182.64 -3.29724 -4.35826 0
M  V30 22962 H 2179.74 -0.470148 -0.68036 0
M  V30 22963 H 2182.28 -1.47929 -0.83157 0
M  V30 22964 H 2181.06 -3.2359 -2.20013 0
M  V30 22965 H 2180.68 -2.02945 -3.41905 0
M  V30 22966 N 2181.68 1.01656 -1.20431 0
M  V30 22967 C 2182.9 1.78855 -1.04012 0
M  V30 22968 C 2183.32 1.8428 0.410661 0
M  V30 22969 O 2182.68 1.29579 1.28512 0
M  V30 22970 C 2182.73 3.23321 -1.61696 0
M  V30 22971 O 2182.45 3.18233 -3.01097 0
M  V30 22972 C 2183.95 4.17068 -1.5023 0
M  V30 22973 H 2181.17 0.562464 -0.36589 0
M  V30 22974 H 2183.71 1.27961 -1.59519 0
M  V30 22975 H 2181.87 3.71363 -1.10309 0
M  V30 22976 H 2182.28 4.08911 -3.28469 0
M  V30 22977 H 2183.76 5.16277 -1.95352 0
M  V30 22978 H 2184.23 4.36839 -0.454792 0
M  V30 22979 H 2184.84 3.74908 -2.00808 0
M  V30 22980 N 2183.15 1.01021 1.20965 0
M  V30 22981 C 2184.06 0.584483 2.27202 0
M  V30 22982 C 2185.08 -0.374977 1.69912 0
M  V30 22983 O 2186.26 -0.237516 1.99995 0
M  V30 22984 C 2183.32 -0.0769879 3.46615 0
M  V30 22985 C 2182.38 0.927608 4.19159 0
M  V30 22986 C 2181.61 0.297609 5.3287 0
M  V30 22987 O 2181.84 -0.904289 5.63186 0
M  V30 22988 O 2180.77 1.01114 5.93346 0
M  V30 22989 H 2184.6 1.46877 2.65821 0
M  V30 22990 H 2182.18 0.779356 1.27461 0
M  V30 22991 H 2184.06 -0.446718 4.19026 0
M  V30 22992 H 2182.74 -0.935572 3.09885 0
M  V30 22993 H 2181.65 1.34859 3.48947 0
M  V30 22994 H 2182.98 1.75595 4.59812 0
M  V30 22995 N 2184.63 -1.36623 0.78561 0
M  V30 22996 C 2185.58 -2.27475 0.154576 0
M  V30 22997 C 2186.57 -1.46775 -0.659246 0
M  V30 22998 O 2187.76 -1.69191 -0.519944 0
M  V30 22999 C 2184.89 -3.35819 -0.712793 0
M  V30 23000 C 2183.97 -4.23958 0.109612 0
M  V30 23001 N 2184.36 -4.92266 1.16221 0
M  V30 23002 C 2182.66 -4.45859 -0.112163 0
M  V30 23003 C 2183.36 -5.57436 1.66254 0
M  V30 23004 N 2182.34 -5.34832 0.972395 0
M  V30 23005 H 2186.14 -2.77769 0.960279 0
M  V30 23006 H 2183.65 -1.49904 0.624702 0
M  V30 23007 H 2185.65 -3.9983 -1.18075 0
M  V30 23008 H 2184.31 -2.87079 -1.51708 0
M  V30 23009 H 2185.32 -4.94331 1.54459 0
M  V30 23010 H 2182 -4.07963 -0.887264 0
M  V30 23011 H 2183.39 -6.21995 2.54111 0
M  V30 23012 N 2186.11 -0.537304 -1.48158 0
M  V30 23013 C 2187.36 -0.00587084 -2.02099 0
M  V30 23014 C 2187.68 1.3407 -1.41599 0
M  V30 23015 O 2186.95 1.86993 -0.583977 0
M  V30 23016 H 2185.53 0.000818022 -0.747 0
M  V30 23017 H 2188.19 -0.702798 -1.81788 0
M  V30 23018 H 2187.29 0.0970321 -3.11949 0
M  V30 23019 N 2187.59 1.55221 -0.272782 0
M  V30 23020 C 2188.54 2.23858 0.631705 0
M  V30 23021 C 2189.53 1.23481 1.15969 0
M  V30 23022 O 2190.74 1.41418 1.11359 0
M  V30 23023 H 2187.11 0.718404 0.222259 0
M  V30 23024 H 2189.08 2.98385 0.0299551 0
M  V30 23025 C 2187.83 2.9714 1.80563 0
M  V30 23026 H 2187.15 3.74166 1.40854 0
M  V30 23027 H 2188.59 3.4849 2.41517 0
M  V30 23028 C 2187.05 2.02478 2.69266 0
M  V30 23029 O 2187.58 1.57449 3.69557 0
M  V30 23030 N 2185.79 1.69028 2.36385 0
M  V30 23031 H 2185.34 2.05842 1.54877 0
M  V30 23032 H 2185.29 1.05961 2.96006 0
M  V30 23033 N 2189.07 2.77022e-05 1.576 0
M  V30 23034 C 2190.31 -0.685829 1.90851 0
M  V30 23035 C 2190.65 -1.73422 0.873984 0
M  V30 23036 O 2189.92 -1.94204 -0.107282 0
M  V30 23037 C 2190.2 -1.32893 3.34681 0
M  V30 23038 C 2190.06 -0.292085 4.48851 0
M  V30 23039 C 2191.38 -2.25509 3.77933 0
M  V30 23040 H 2188.49 -0.247851 0.694074 0
M  V30 23041 H 2191.14 0.0513272 1.89931 0
M  V30 23042 H 2189.29 -1.95723 3.35596 0
M  V30 23043 H 2190.96 0.336531 4.60071 0
M  V30 23044 H 2189.2 0.385648 4.32082 0
M  V30 23045 H 2189.87 -0.781112 5.46445 0
M  V30 23046 H 2192.35 -1.72696 3.7857 0
M  V30 23047 H 2191.22 -2.67473 4.79322 0
M  V30 23048 H 2191.49 -3.13419 3.11803 0
M  V30 23049 O 2190.58 -1.60872 -0.142236 0
M  V30 23050 H 2191.27 -1.77477 -0.775988 0
M  V30 END ATOM
M  V30 BEGIN BOND
M  V30 END BOND
M  V30 END CTAB
M  END
$$$$
