drugbank_target|P20851 C4b-binding protein beta chain (DB01593; DB14487; DB14533; DB14548)
 OpenBabel12092121073D

  0  0  0     0  0            999 V3000
M  V30 BEGIN CTAB
M  V30 COUNTS 3892 3942 0 0 0
M  V30 BEGIN ATOM
M  V30 1 H -0.908 1.98254 -0.117106 0
M  V30 2 N 0 1.576 0 0
M  V30 3 C 0.933 2.03868 1.02534 0
M  V30 4 C 1.911 0.928543 1.3348 0
M  V30 5 O 3.095 1.19667 1.45644 0
M  V30 6 C 0.222 2.43627 2.35294 0
M  V30 7 C -0.732 3.65373 2.2001 0
M  V30 8 S 0.101 5.13292 1.52614 0
M  V30 9 C 1.257 5.56322 2.86805 0
M  V30 10 H 1.49 2.90518 0.631377 0
M  V30 11 H -0.977 1.52953 0.210867 0
M  V30 12 H 0.981 2.67203 3.11629 0
M  V30 13 H -0.358 1.57376 2.7183 0
M  V30 14 H -1.165 3.90944 3.18086 0
M  V30 15 H -1.563 3.418 1.51819 0
M  V30 16 H 0.729 5.58782 3.83104 0
M  V30 17 H 1.672 6.56266 2.65933 0
M  V30 18 H 2.08 4.83886 2.90714 0
M  V30 19 N 1.4781 -0.272755 1.55222 0
M  V30 20 C 2.7251 -1.00433 1.7584 0
M  V30 21 C 3.0531 -1.86275 0.559629 0
M  V30 22 O 2.3081 -1.90269 -0.457857 0
M  V30 23 C 2.6071 -1.91642 3.01675 0
M  V30 24 C 2.2731 -1.21548 4.34208 0
M  V30 25 C 0.9351 -1.02166 4.70229 0
M  V30 26 C 3.2871 -0.716684 5.16249 0
M  V30 27 C 0.6151 -0.316334 5.85847 0
M  V30 28 C 2.9671 -0.0249476 6.32595 0
M  V30 29 C 1.6311 0.180579 6.67256 0
M  V30 30 H 0.9011 -0.367509 0.643443 0
M  V30 31 H 3.5481 -0.276596 1.89492 0
M  V30 32 H 1.8531 -2.71037 2.82924 0
M  V30 33 H 3.5501 -2.48369 3.14824 0
M  V30 34 H 0.1401 -1.37645 4.05896 0
M  V30 35 H 4.3241 -0.854047 4.88896 0
M  V30 36 H -0.4199 -0.146378 6.11225 0
M  V30 37 H 3.7541 0.369311 6.9542 0
M  V30 38 H 1.3811 0.729098 7.56696 0
M  V30 39 N 2.9562 -1.48159 -0.537278 0
M  V30 40 C 4.2032 -1.55804 -1.29349 0
M  V30 41 C 4.5312 -0.228802 -1.9315 0
M  V30 42 O 3.7862 0.780242 -1.79473 0
M  V30 43 C 4.0852 -2.63956 -2.40961 0
M  V30 44 C 3.7512 -4.0662 -1.94861 0
M  V30 45 C 2.4132 -4.45452 -1.82006 0
M  V30 46 C 4.7652 -4.96055 -1.59933 0
M  V30 47 C 2.0932 -5.71531 -1.32547 0
M  V30 48 C 4.4452 -6.22617 -1.11939 0
M  V30 49 C 3.1092 -6.60312 -0.976951 0
M  V30 50 H 2.3792 -0.570129 -0.473322 0
M  V30 51 H 5.0262 -1.81845 -0.600372 0
M  V30 52 H 3.3312 -2.31747 -3.15912 0
M  V30 53 H 5.0282 -2.67089 -2.99107 0
M  V30 54 H 1.6182 -3.75949 -2.05815 0
M  V30 55 H 5.8022 -4.66738 -1.68728 0
M  V30 56 H 1.0582 -5.99468 -1.202 0
M  V30 57 H 5.2322 -6.91318 -0.839811 0
M  V30 58 H 2.8592 -7.57895 -0.591501 0
M  V30 59 N 4.4343 0.785586 -1.36625 0
M  V30 60 C 5.6803 1.5452 -1.32269 0
M  V30 61 C 6.0353 1.92159 0.0962266 0
M  V30 62 O 5.3283 1.60158 1.05167 0
M  V30 63 C 5.5223 2.83007 -2.1827 0
M  V30 64 C 5.3513 2.57925 -3.68382 0
M  V30 65 C 4.1213 2.52752 -4.37544 0
M  V30 66 C 6.3193 2.26861 -4.61561 0
M  V30 67 N 4.3013 2.19608 -5.73276 0
M  V30 68 C 5.6723 2.03738 -5.85569 0
M  V30 69 C 7.7273 2.129 -4.50087 0
M  V30 70 C 6.4303 1.68065 -6.9939 0
M  V30 71 C 8.4563 1.78626 -5.63779 0
M  V30 72 C 7.8183 1.56353 -6.86828 0
M  V30 73 H 3.9173 0.566301 -0.539283 0
M  V30 74 H 6.5013 0.917736 -1.71714 0
M  V30 75 H 4.6723 3.43614 -1.81063 0
M  V30 76 H 6.4043 3.48775 -2.05275 0
M  V30 77 H 3.1593 2.6813 -3.90389 0
M  V30 78 H 3.5833 2.05771 -6.44971 0
M  V30 79 H 8.2253 2.28808 -3.55537 0
M  V30 80 H 5.9433 1.50895 -7.93887 0
M  V30 81 H 9.5293 1.68502 -5.56865 0
M  V30 82 H 8.4093 1.30223 -7.73312 0
M  V30 83 N 5.9124 1.20967 1.01018 0
M  V30 84 C 7.1524 1.03511 1.76252 0
M  V30 85 C 7.5164 -0.42458 1.87247 0
M  V30 86 O 8.7174 -0.719508 2.58991 0
M  V30 87 C 6.9884 1.70726 3.13986 0
M  V30 88 S 8.5474 1.68458 4.05176 0
M  V30 89 H 5.3654 0.371037 0.606508 0
M  V30 90 H 7.9674 1.53628 1.20908 0
M  V30 91 H 6.6714 2.76128 3.03614 0
M  V30 92 H 6.2024 1.20767 3.74405 0
M  V30 93 H 8.2174 0.721987 4.90919 0
M  V30 94 N 7.3905 -1.2043 1.01659 0
M  V30 95 C 8.3535 -2.21433 0.591616 0
M  V30 96 C 9.3535 -1.57203 -0.338226 0
M  V30 97 O 10.5435 -1.73737 -0.126918 0
M  V30 98 C 7.6755 -3.40628 -0.136058 0
M  V30 99 H 8.8685 -2.60545 1.48514 0
M  V30 100 H 6.4215 -1.33893 0.806379 0
M  V30 101 H 7.1565 -3.07019 -1.04449 0
M  V30 102 H 6.9415 -3.88475 0.531917 0
M  V30 103 H 8.4315 -4.15475 -0.420735 0
M  V30 104 N 8.8686 -0.792821 -1.36206 0
M  V30 105 C 10.1086 -0.372238 -2.00982 0
M  V30 106 C 10.4726 1.03749 -1.61555 0
M  V30 107 O 11.6736 1.55934 -2.18948 0
M  V30 108 C 9.9446 -0.534566 -3.5338 0
M  V30 109 S 11.5036 -0.202365 -4.38333 0
M  V30 110 H 8.3216 -0.142044 -0.696667 0
M  V30 111 H 10.9236 -1.03206 -1.66039 0
M  V30 112 H 9.6276 -1.5608 -3.79562 0
M  V30 113 H 9.1586 0.141065 -3.93147 0
M  V30 114 H 11.1736 0.994869 -4.86124 0
M  V30 115 N 10.3467 1.47872 -0.545128 0
M  V30 116 C 11.5867 2.04391 -0.0187854 0
M  V30 117 C 11.9507 1.41162 1.30144 0
M  V30 118 O 13.1517 1.88656 1.91474 0
M  V30 119 C 11.4227 3.57299 0.0850867 0
M  V30 120 S 12.9817 4.35221 0.559302 0
M  V30 121 H 9.7997 0.710737 -0.0193301 0
M  V30 122 H 12.4017 1.81395 -0.729125 0
M  V30 123 H 11.1057 4.00847 -0.880351 0
M  V30 124 H 10.6367 3.84773 0.819348 0
M  V30 125 H 12.6517 4.61571 1.82118 0
M  V30 126 N 11.8248 0.280983 1.55075 0
M  V30 127 C 12.7548 -0.597469 2.25727 0
M  V30 128 C 13.7358 -1.15417 1.24952 0
M  V30 129 O 14.9208 -1.18722 1.53684 0
M  V30 130 C 12.0508 -1.7789 2.98283 0
M  V30 131 C 11.0048 -1.35347 4.06036 0
M  V30 132 C 10.3308 -2.61846 4.66198 0
M  V30 133 C 11.6308 -0.499354 5.19907 0
M  V30 134 H 13.3248 -0.00824265 2.99399 0
M  V30 135 H 10.8708 -0.0025244 1.44 0
M  V30 136 H 12.8238 -2.39937 3.46422 0
M  V30 137 H 11.5478 -2.39405 2.22155 0
M  V30 138 H 10.2068 -0.756156 3.58717 0
M  V30 139 H 9.8548 -3.21632 3.86732 0
M  V30 140 H 9.5548 -2.3409 5.38958 0
M  V30 141 H 11.0788 -3.24732 5.1709 0
M  V30 142 H 12.4928 -1.02498 5.64063 0
M  V30 143 H 10.8898 -0.316424 5.99265 0
M  V30 144 H 11.9598 0.480459 4.82514 0
M  V30 145 N 13.3029 -1.57598 0.00835791 0
M  V30 146 C 14.2359 -2.04409 -1.01451 0
M  V30 147 C 15.2139 -0.935609 -1.32985 0
M  V30 148 O 16.3979 -1.20437 -1.45007 0
M  V30 149 C 13.5249 -2.44872 -2.33999 0
M  V30 150 C 12.5709 -3.66535 -2.18069 0
M  V30 151 S 13.4039 -5.14095 -1.4989 0
M  V30 152 C 14.5599 -5.57835 -2.8385 0
M  V30 153 H 14.7929 -2.90849 -0.615961 0
M  V30 154 H 12.3259 -1.53063 -0.202752 0
M  V30 155 H 14.2839 -2.68852 -3.10208 0
M  V30 156 H 12.9449 -1.58815 -2.70992 0
M  V30 157 H 12.1379 -3.92626 -3.16008 0
M  V30 158 H 11.7399 -3.426 -1.50004 0
M  V30 159 H 14.0319 -5.60806 -3.80136 0
M  V30 160 H 14.9749 -6.57667 -2.62449 0
M  V30 161 H 15.3829 -4.85421 -2.88144 0
M  V30 162 N 14.781 0.264519 -1.55364 0
M  V30 163 C 16.027 0.99646 -1.76631 0
M  V30 164 C 16.36 1.85632 -0.570478 0
M  V30 165 O 15.635 1.89647 0.43175 0
M  V30 166 C 15.918 1.87187 -3.07625 0
M  V30 167 C 15.771 1.04138 -4.37579 0
M  V30 168 C 17.09 2.85749 -3.34717 0
M  V30 169 H 14.209 0.360841 -0.642622 0
M  V30 170 H 16.851 0.268218 -1.88097 0
M  V30 171 H 15.001 2.49279 -2.9798 0
M  V30 172 H 16.673 0.440517 -4.59192 0
M  V30 173 H 14.916 0.345115 -4.32425 0
M  V30 174 H 15.587 1.68729 -5.2558 0
M  V30 175 H 18.063 2.33793 -3.4421 0
M  V30 176 H 16.939 3.44136 -4.27623 0
M  V30 177 H 17.2 3.61311 -2.54768 0
M  V30 178 N 16.2591 1.48442 0.529413 0
M  V30 179 C 17.2221 1.62524 1.61612 0
M  V30 180 C 18.2221 0.498509 1.52877 0
M  V30 181 O 19.4121 0.76431 1.56537 0
M  V30 182 C 16.5441 1.59597 3.01233 0
M  V30 183 H 17.7371 2.59423 1.50465 0
M  V30 184 H 15.2901 1.37047 0.751514 0
M  V30 185 H 16.0251 0.641781 3.17886 0
M  V30 186 H 15.8101 2.41397 3.08982 0
M  V30 187 H 17.3001 1.72646 3.80241 0
M  V30 188 N 17.7372 -0.778329 1.37039 0
M  V30 189 C 18.9832 -1.53817 1.33086 0
M  V30 190 C 19.3382 -1.92208 -0.0860346 0
M  V30 191 O 18.6312 -1.60713 -1.04316 0
M  V30 192 C 18.8252 -2.81845 2.19768 0
M  V30 193 C 18.6542 -2.55967 3.69744 0
M  V30 194 C 17.4242 -2.50428 4.38878 0
M  V30 195 C 19.6222 -2.2441 4.62758 0
M  V30 196 N 17.6042 -2.16564 5.74433 0
M  V30 197 C 18.9752 -2.0063 5.86641 0
M  V30 198 C 21.0302 -2.1051 4.5121 0
M  V30 199 C 19.7332 -1.64354 7.00272 0
M  V30 200 C 21.7592 -1.75634 5.64718 0
M  V30 201 C 21.1212 -1.52709 6.87648 0
M  V30 202 H 17.2202 -0.563434 0.542279 0
M  V30 203 H 19.8042 -0.908617 1.72198 0
M  V30 204 H 17.9752 -3.42649 1.82883 0
M  V30 205 H 19.7072 -3.47682 2.07122 0
M  V30 206 H 16.4622 -2.66056 3.91805 0
M  V30 207 H 16.8862 -2.02348 6.46053 0
M  V30 208 H 21.5282 -2.26919 3.56746 0
M  V30 209 H 19.2462 -1.46683 7.94676 0
M  V30 210 H 22.8322 -1.65546 5.57751 0
M  V30 211 H 21.7122 -1.2612 7.73992 0
M  V30 212 N 19.2153 -1.21501 -1.00376 0
M  V30 213 C 20.6313 -0.972629 -1.26539 0
M  V30 214 C 20.8313 0.340257 -1.98606 0
M  V30 215 O 19.8873 1.06561 -2.28913 0
M  V30 216 C 21.2003 -2.16404 -2.08781 0
M  V30 217 C 22.7483 -2.20643 -2.22004 0
M  V30 218 C 23.2233 -3.39306 -3.07629 0
M  V30 219 N 24.7143 -3.39401 -3.15217 0
M  V30 220 C 25.4493 -4.27867 -3.81729 0
M  V30 221 N 24.9453 -5.26533 -4.5026 0
M  V30 222 N 26.7383 -4.15672 -3.78382 0
M  V30 223 H 18.8893 -2.05929 -0.520281 0
M  V30 224 H 21.1523 -0.901803 -0.292328 0
M  V30 225 H 20.8583 -3.11554 -1.63178 0
M  V30 226 H 20.7323 -2.15567 -3.09533 0
M  V30 227 H 23.1193 -1.26048 -2.66825 0
M  V30 228 H 23.2003 -2.25523 -1.20718 0
M  V30 229 H 22.8443 -4.34195 -2.63509 0
M  V30 230 H 22.7743 -3.31665 -4.09031 0
M  V30 231 H 25.2653 -2.67997 -2.66432 0
M  V30 232 H 25.5783 -5.90337 -4.98721 0
M  V30 233 H 23.9233 -5.30457 -4.49044 0
M  V30 234 H 27.1143 -3.3785 -3.23998 0
M  V30 235 H 27.2873 -4.84825 -4.2994 0
M  V30 236 N 20.6934 1.19889 -1.02296 0
M  V30 237 C 21.9394 1.89701 -0.717033 0
M  V30 238 C 22.2724 1.7905 0.751989 0
M  V30 239 O 21.5474 1.17891 1.547 0
M  V30 240 C 21.8304 3.40858 -1.16136 0
M  V30 241 C 21.6834 3.60411 -2.69117 0
M  V30 242 C 23.0024 4.33876 -0.737549 0
M  V30 243 H 20.1214 0.688874 -0.261957 0
M  V30 244 H 22.7634 1.41154 -1.27183 0
M  V30 245 H 20.9134 3.82335 -0.689342 0
M  V30 246 H 22.5854 3.28145 -3.2422 0
M  V30 247 H 20.8284 3.03665 -3.0979 0
M  V30 248 H 21.4994 4.66396 -2.95261 0
M  V30 249 H 23.9754 4.00081 -1.14344 0
M  V30 250 H 22.8514 5.38242 -1.0764 0
M  V30 251 H 23.1124 4.40628 0.360436 0
M  V30 252 N 22.1715 0.800033 1.35784 0
M  V30 253 C 23.3965 0.388511 2.03729 0
M  V30 254 C 23.8215 -0.990481 1.5991 0
M  V30 255 O 23.1795 -1.64013 0.772612 0
M  V30 256 C 23.2275 0.4726 3.5749 0
M  V30 257 O 22.3315 -0.51646 4.09153 0
M  V30 258 H 21.6725 0.163271 0.643614 0
M  V30 259 H 24.2025 1.0841 1.73518 0
M  V30 260 H 24.2125 0.34003 4.06581 0
M  V30 261 H 22.8875 1.47848 3.88734 0
M  V30 262 H 21.4645 -0.344673 3.71304 0
M  V30 263 N 23.6496 -1.47581 0.552962 0
M  V30 264 C 24.6126 -2.28439 -0.186605 0
M  V30 265 C 25.6126 -1.36706 -0.84665 0
M  V30 266 O 26.8026 -1.59378 -0.703164 0
M  V30 267 C 23.9346 -3.16264 -1.2724 0
M  V30 268 H 25.1276 -2.95294 0.523609 0
M  V30 269 H 22.6806 -1.532 0.309745 0
M  V30 270 H 23.4156 -2.54091 -2.01514 0
M  V30 271 H 23.2006 -3.83769 -0.803968 0
M  V30 272 H 24.6906 -3.77198 -1.79196 0
M  V30 273 N 25.1277 -0.289203 -1.54924 0
M  V30 274 C 26.3527 0.329299 -2.04769 0
M  V30 275 C 26.7777 1.4763 -1.16564 0
M  V30 276 O 26.1357 1.80527 -0.167186 0
M  V30 277 C 26.1837 0.774438 -3.52186 0
M  V30 278 O 25.2877 1.88038 -3.67036 0
M  V30 279 H 24.6287 0.0659259 -0.660719 0
M  V30 280 H 27.1587 -0.42761 -2.00082 0
M  V30 281 H 27.1687 1.06642 -3.93816 0
M  V30 282 H 25.8437 -0.0646707 -4.1585 0
M  V30 283 H 24.4207 1.58985 -3.3731 0
M  V30 284 N 26.6058 1.57591 -0.0167156 0
M  V30 285 C 27.8828 1.82547 0.702564 0
M  V30 286 C 28.2628 0.898018 1.91047 0
M  V30 287 O 27.6108 -0.0493456 2.28447 0
M  V30 288 C 27.8208 3.31459 1.09251 0
M  V30 289 C 29.1688 3.97622 1.48937 0
M  V30 290 O 30.1928 3.35881 1.18584 0
M  V30 291 O 29.0518 5.06415 2.05442 0
M  V30 292 H 26.1458 0.752268 0.343544 0
M  V30 293 H 28.6918 1.69644 -0.0434495 0
M  V30 294 H 27.4638 3.9061 0.23227 0
M  V30 295 H 27.0868 3.49422 1.89709 0
M  V30 296 N 28.0839 -0.256276 1.55502 0
M  V30 297 C 29.0469 -1.30047 1.88734 0
M  V30 298 C 30.0469 -1.4154 0.763086 0
M  V30 299 O 31.2369 -1.40403 1.03115 0
M  V30 300 C 28.3689 -2.67953 2.10747 0
M  V30 301 H 29.5619 -1.01802 2.82093 0
M  V30 302 H 27.1149 -0.495134 1.4825 0
M  V30 303 H 27.8499 -3.01351 1.19825 0
M  V30 304 H 27.6349 -2.60993 2.92617 0
M  V30 305 H 29.1249 -3.43368 2.37673 0
M  V30 306 N 29.562 -1.4872 -0.521534 0
M  V30 307 C 30.472 -1.66569 -1.65203 0
M  V30 308 C 31.488 -0.548197 -1.65139 0
M  V30 309 O 32.664 -0.820339 -1.83936 0
M  V30 310 C 29.729 -1.70917 -3.01642 0
M  V30 311 C 28.79 -2.94356 -3.12495 0
M  V30 312 C 28.023 -2.98487 -4.42426 0
M  V30 313 O 28.246 -2.10786 -5.30024 0
M  V30 314 O 27.18 -3.90746 -4.57822 0
M  V30 315 H 31.006 -2.62298 -1.5308 0
M  V30 316 H 28.591 -1.3222 -0.695565 0
M  V30 317 H 30.473 -1.7625 -3.82771 0
M  V30 318 H 29.148 -0.783633 -3.14071 0
M  V30 319 H 28.055 -2.94552 -2.3063 0
M  V30 320 H 29.388 -3.86322 -3.04986 0
M  V30 321 N 31.0401 0.771051 -1.3745 0
M  V30 322 C 31.9901 1.87456 -1.29785 0
M  V30 323 C 32.9741 1.59827 -0.185541 0
M  V30 324 O 34.1661 1.71945 -0.419997 0
M  V30 325 C 31.2951 3.24935 -1.1078 0
M  V30 326 C 30.3811 3.58514 -2.26558 0
M  V30 327 N 30.7721 3.6327 -3.5195 0
M  V30 328 C 29.0701 3.88683 -2.18727 0
M  V30 329 C 29.7711 3.93616 -4.283 0
M  V30 330 N 28.7471 4.09551 -3.57448 0
M  V30 331 H 32.5491 1.89386 -2.24745 0
M  V30 332 H 30.0631 0.967531 -1.30432 0
M  V30 333 H 32.0601 4.03881 -1.03374 0
M  V30 334 H 30.7201 3.24268 -0.16738 0
M  V30 335 H 31.7311 3.45458 -3.85848 0
M  V30 336 H 28.4081 3.95834 -1.32746 0
M  V30 337 H 29.7981 4.04066 -5.36824 0
M  V30 338 N 32.5182 1.22032 0.997298 0
M  V30 339 C 33.7582 1.05375 1.75144 0
M  V30 340 C 34.1222 -0.404696 1.87686 0
M  V30 341 O 35.3232 -0.691998 2.5974 0
M  V30 342 C 33.5942 1.74046 3.12158 0
M  V30 343 S 35.1532 1.72745 4.03366 0
M  V30 344 H 31.9712 0.377449 0.602539 0
M  V30 345 H 34.5732 1.54902 1.19272 0
M  V30 346 H 33.2772 2.79332 3.00669 0
M  V30 347 H 32.8082 1.24731 3.73103 0
M  V30 348 H 34.8232 0.774015 4.90126 0
M  V30 349 N 33.9963 -1.19345 1.0293 0
M  V30 350 C 35.4073 -1.70725 0.755633 0
M  V30 351 C 35.7583 -1.82326 -0.724676 0
M  V30 352 O 34.8833 -1.49471 -1.56484 0
M  V30 353 C 35.4783 -3.10084 1.36503 0
M  V30 354 C 34.0373 -3.58723 1.13994 0
M  V30 355 C 33.1843 -2.35577 1.46283 0
M  V30 356 H 36.1353 -1.0418 1.19718 0
M  V30 357 H 36.1563 -3.72787 0.762217 0
M  V30 358 H 35.6683 -3.01609 2.44241 0
M  V30 359 H 33.7693 -3.72512 0.0807901 0
M  V30 360 H 33.8823 -4.42816 1.82894 0
M  V30 361 H 32.2463 -2.38935 0.88217 0
M  V30 362 H 33.0293 -2.29731 2.55105 0
M  V30 363 N 35.4744 -0.807222 -1.35358 0
M  V30 364 C 36.3844 -0.219594 -2.3357 0
M  V30 365 C 37.4004 0.637734 -1.61892 0
M  V30 366 O 38.5764 0.549336 -1.93763 0
M  V30 367 C 35.6414 0.62158 -3.41083 0
M  V30 368 C 34.7024 -0.256315 -4.28534 0
M  V30 369 C 33.9354 0.544807 -5.30912 0
M  V30 370 O 34.1584 1.77944 -5.41934 0
M  V30 371 O 33.0924 -0.0646478 -6.01865 0
M  V30 372 H 36.9184 -1.03208 -2.85625 0
M  V30 373 H 34.5034 -0.569025 -1.38139 0
M  V30 374 H 36.3854 1.10067 -4.06772 0
M  V30 375 H 35.0604 1.41165 -2.91297 0
M  V30 376 H 33.9674 -0.782559 -3.65823 0
M  V30 377 H 35.3004 -1.01034 -4.81719 0
M  V30 378 N 36.9525 1.47285 -0.560781 0
M  V30 379 C 37.8825 2.32857 0.173105 0
M  V30 380 C 38.8635 1.44009 0.905281 0
M  V30 381 O 40.0485 1.7286 0.885046 0
M  V30 382 C 37.1785 3.25861 1.20133 0
M  V30 383 C 36.1325 4.23978 0.585388 0
M  V30 384 C 35.4585 5.06332 1.7185 0
M  V30 385 C 36.7585 5.20242 -0.463178 0
M  V30 386 H 38.4525 2.94466 -0.541307 0
M  V30 387 H 35.9985 1.41601 -0.261764 0
M  V30 388 H 37.9515 3.84569 1.72293 0
M  V30 389 H 36.6755 2.62315 1.94573 0
M  V30 390 H 35.3345 3.66501 0.085054 0
M  V30 391 H 34.9825 4.39186 2.45203 0
M  V30 392 H 34.6825 5.72762 1.31213 0
M  V30 393 H 36.2065 5.67899 2.24329 0
M  V30 394 H 37.6205 5.73293 -0.027502 0
M  V30 395 H 36.0175 5.94896 -0.788627 0
M  V30 396 H 37.0875 4.65504 -1.35773 0
M  V30 397 N 38.4306 0.297415 1.54768 0
M  V30 398 C 39.8416 -0.195947 1.85669 0
M  V30 399 C 40.1926 -1.53707 1.21937 0
M  V30 400 O 39.3176 -2.10164 0.515754 0
M  V30 401 C 39.9126 -0.362318 3.36857 0
M  V30 402 C 38.4716 -0.799901 3.67802 0
M  V30 403 C 37.6186 0.0938578 2.77141 0
M  V30 404 H 40.5696 0.518538 1.4999 0
M  V30 405 H 40.5906 -1.19745 3.61167 0
M  V30 406 H 40.1026 0.613921 3.83214 0
M  V30 407 H 38.2036 -1.78682 3.26961 0
M  V30 408 H 38.3166 -0.621773 4.75048 0
M  V30 409 H 36.6806 -0.426254 2.51108 0
M  V30 410 H 37.4636 1.06639 3.26318 0
M  V30 411 N 39.9087 -1.5758 0.0250728 0
M  V30 412 C 41.3197 -1.79476 -0.514323 0
M  V30 413 C 41.6707 -0.934956 -1.72491 0
M  V30 414 O 40.7957 -0.144245 -2.15919 0
M  V30 415 C 41.3907 -3.25503 -0.939842 0
M  V30 416 C 39.9497 -3.48408 -1.42438 0
M  V30 417 C 39.0967 -2.74583 -0.387201 0
M  V30 418 H 42.0477 -1.567 0.25113 0
M  V30 419 H 42.0687 -3.34992 -1.80445 0
M  V30 420 H 41.5807 -3.88056 -0.0585628 0
M  V30 421 H 39.6817 -2.91103 -2.32572 0
M  V30 422 H 39.7947 -4.57119 -1.43455 0
M  V30 423 H 38.1587 -2.39942 -0.854409 0
M  V30 424 H 38.9417 -3.39849 0.485543 0
M  V30 425 N 41.3868 0.248026 -1.55636 0
M  V30 426 C 42.6328 0.97767 -1.77678 0
M  V30 427 C 42.9658 1.85016 -0.590135 0
M  V30 428 O 42.2408 1.90095 0.411611 0
M  V30 429 C 42.5238 1.83914 -3.09593 0
M  V30 430 C 42.3768 0.99491 -4.38659 0
M  V30 431 C 43.6958 2.82183 -3.37729 0
M  V30 432 H 40.8148 0.354005 -0.646413 0
M  V30 433 H 43.4568 0.248253 -1.88371 0
M  V30 434 H 41.6068 2.46104 -3.00608 0
M  V30 435 H 43.2788 0.391789 -4.59633 0
M  V30 436 H 41.5218 0.299231 -4.32767 0
M  V30 437 H 42.1928 1.63145 -5.2734 0
M  V30 438 H 44.6688 2.30129 -3.4667 0
M  V30 439 H 43.5448 3.39582 -4.31249 0
M  V30 440 H 43.8058 3.58588 -2.58586 0
M  V30 441 N 42.8649 1.48995 0.513639 0
M  V30 442 C 44.1419 1.48338 1.27495 0
M  V30 443 C 44.5219 0.204065 2.10111 0
M  V30 444 O 43.8699 -0.813881 2.13514 0
M  V30 445 C 44.0799 2.75498 2.14247 0
M  V30 446 C 45.4279 3.24484 2.73852 0
M  V30 447 O 46.4519 2.76528 2.24523 0
M  V30 448 O 45.3109 4.07974 3.6362 0
M  V30 449 H 42.4049 0.593149 0.576284 0
M  V30 450 H 44.9509 1.61246 0.528948 0
M  V30 451 H 43.7229 3.60109 1.53092 0
M  V30 452 H 43.3459 2.6539 2.96064 0
M  V30 453 N 44.343 -0.763751 1.37857 0
M  V30 454 C 45.291 -1.89864 1.34367 0
M  V30 455 C 46.285 -1.67816 0.231143 0
M  V30 456 O 47.491 -1.75508 0.399617 0
M  V30 457 H 43.866 -0.624501 0.41893 0
M  V30 458 H 45.837 -1.89925 2.30155 0
M  V30 459 C 44.586 -3.27227 1.1755 0
M  V30 460 H 43.909 -3.44773 2.02414 0
M  V30 461 H 45.349 -4.06911 1.1916 0
M  V30 462 C 43.808 -3.36692 -0.118311 0
M  V30 463 O 44.338 -3.86374 -1.09902 0
M  V30 464 N 42.544 -2.90092 -0.171717 0
M  V30 465 H 42.091 -2.49853 0.627012 0
M  V30 466 H 42.049 -2.96806 -1.03699 0
M  V30 467 N 45.8211 -1.22559 -0.990812 0
M  V30 468 C 47.0461 -1.07862 -1.77145 0
M  V30 469 C 47.4711 0.366447 -1.84496 0
M  V30 470 O 46.8291 1.26478 -1.29896 0
M  V30 471 C 46.8771 -1.69686 -3.18181 0
M  V30 472 O 45.9811 -0.951946 -4.01263 0
M  V30 473 H 45.3221 -0.378712 -0.545411 0
M  V30 474 H 47.8521 -1.62399 -1.2445 0
M  V30 475 H 47.8621 -1.74496 -3.68802 0
M  V30 476 H 46.5371 -2.74841 -3.12146 0
M  V30 477 H 45.1141 -0.980011 -3.59792 0
M  V30 478 N 47.2992 1.18797 -1.03562 0
M  V30 479 C 48.5482 1.87978 -0.731235 0
M  V30 480 C 48.8612 1.80911 0.743671 0
M  V30 481 O 50.0672 2.45407 1.16137 0
M  V30 482 C 48.5232 3.3721 -1.25768 0
M  V30 483 C 48.1312 3.52818 -2.76085 0
M  V30 484 C 49.8752 4.11825 -1.0296 0
M  V30 485 C 47.7822 4.9598 -3.22114 0
M  V30 486 H 46.7122 0.704063 -0.269835 0
M  V30 487 H 49.3632 1.34266 -1.25079 0
M  V30 488 H 47.7452 3.90359 -0.666011 0
M  V30 489 H 48.9192 3.09965 -3.40966 0
M  V30 490 H 47.2342 2.91602 -2.97249 0
M  V30 491 H 49.8312 5.17411 -1.34869 0
M  V30 492 H 50.1742 4.16287 0.0333546 0
M  V30 493 H 50.7072 3.64833 -1.58562 0
M  V30 494 H 47.4462 4.96684 -4.27768 0
M  V30 495 H 46.9662 5.39569 -2.61965 0
M  V30 496 H 48.6452 5.6467 -3.15844 0
M  V30 497 N 48.7773 0.814389 1.34928 0
M  V30 498 C 50.0243 0.398423 1.98542 0
M  V30 499 C 50.3523 -1.03638 1.64589 0
M  V30 500 O 49.6073 -1.73509 0.90516 0
M  V30 501 C 49.9063 0.537781 3.53331 0
M  V30 502 C 49.5723 1.93704 4.07172 0
M  V30 503 C 48.2343 2.31984 4.21589 0
M  V30 504 C 50.5863 2.85213 4.36237 0
M  V30 505 C 47.9143 3.61125 4.62391 0
M  V30 506 C 50.2663 4.13809 4.78482 0
M  V30 507 C 48.9303 4.52077 4.91104 0
M  V30 508 H 48.2003 0.145793 0.726516 0
M  V30 509 H 50.8473 1.03669 1.61012 0
M  V30 510 H 49.1523 -0.183906 3.91368 0
M  V30 511 H 50.8493 0.196588 4.00518 0
M  V30 512 H 47.4393 1.62966 3.96409 0
M  V30 513 H 51.6233 2.56885 4.24645 0
M  V30 514 H 46.8793 3.90612 4.70353 0
M  V30 515 H 51.0533 4.84811 4.99932 0
M  V30 516 H 48.6803 5.52196 5.22478 0
M  V30 517 N 50.2554 -1.46986 0.568584 0
M  V30 518 C 51.5014 -2.02741 0.0488709 0
M  V30 519 C 51.8344 -1.44077 -1.30214 0
M  V30 520 O 51.1094 -0.600552 -1.84996 0
M  V30 521 C 51.3924 -3.60086 -0.032047 0
M  V30 522 C 51.2454 -4.29162 1.34686 0
M  V30 523 C 52.5644 -4.33838 -0.739798 0
M  V30 524 H 49.6834 -0.736749 0.0192338 0
M  V30 525 H 52.3254 -1.75289 0.733065 0
M  V30 526 H 50.4754 -3.83606 -0.61473 0
M  V30 527 H 52.1474 -4.16948 1.97362 0
M  V30 528 H 50.3904 -3.89073 1.91846 0
M  V30 529 H 51.0614 -5.37826 1.24285 0
M  V30 530 H 53.5374 -4.15378 -0.244939 0
M  V30 531 H 52.4134 -5.43537 -0.765406 0
M  V30 532 H 52.6744 -4.03875 -1.79827 0
M  V30 533 N 51.7335 -0.305618 -1.54608 0
M  V30 534 C 52.6965 0.555591 -2.22364 0
M  V30 535 C 53.6965 1.05768 -1.21119 0
M  V30 536 O 54.8865 0.952972 -1.45822 0
M  V30 537 C 52.0185 1.76974 -2.91364 0
M  V30 538 H 53.2115 -0.0364572 -2.99878 0
M  V30 539 H 50.7645 -0.0565007 -1.56198 0
M  V30 540 H 51.4995 2.40151 -2.17941 0
M  V30 541 H 51.2845 1.41732 -3.65588 0
M  V30 542 H 52.7745 2.38148 -3.43038 0
M  V30 543 N 53.2116 1.57565 -0.0334293 0
M  V30 544 C 54.1586 2.10478 0.946981 0
M  V30 545 C 55.1286 1.00787 1.32027 0
M  V30 546 O 56.3136 1.28232 1.41284 0
M  V30 547 C 53.4536 2.63994 2.22263 0
M  V30 548 C 52.5666 3.87709 1.90541 0
M  V30 549 C 51.7016 4.29604 3.12433 0
M  V30 550 C 50.7406 5.46065 2.76549 0
M  V30 551 N 49.8776 5.83096 3.9108 0
M  V30 552 H 54.7176 2.93963 0.488846 0
M  V30 553 H 52.2546 1.45296 0.22969 0
M  V30 554 H 54.2126 2.93114 2.96884 0
M  V30 555 H 52.8426 1.83333 2.65685 0
M  V30 556 H 51.8946 3.65291 1.06144 0
M  V30 557 H 53.2066 4.72403 1.60116 0
M  V30 558 H 52.3606 4.60182 3.9537 0
M  V30 559 H 51.0996 3.43685 3.46023 0
M  V30 560 H 50.1046 5.15176 1.92026 0
M  V30 561 H 51.3296 6.33685 2.44171 0
M  V30 562 H 49.2756 5.00132 4.24504 0
M  V30 563 H 49.1926 6.6244 3.64293 0
M  V30 564 H 50.4606 6.18282 4.74708 0
M  V30 565 N 54.6897 -0.239769 1.55765 0
M  V30 566 C 55.5997 -1.31831 1.94056 0
M  V30 567 C 56.6157 -1.52275 0.841925 0
M  V30 568 O 57.7917 -1.65759 1.14394 0
M  V30 569 C 54.8567 -2.65156 2.23368 0
M  V30 570 C 53.9177 -2.53173 3.46701 0
M  V30 571 C 53.1507 -3.8014 3.74606 0
M  V30 572 O 53.3737 -4.82343 3.04469 0
M  V30 573 O 52.3077 -3.78344 4.68123 0
M  V30 574 H 56.1337 -1.02347 2.85935 0
M  V30 575 H 53.7187 -0.441123 1.42739 0
M  V30 576 H 55.6007 -3.43929 2.43497 0
M  V30 577 H 54.2757 -2.94358 1.34666 0
M  V30 578 H 53.1827 -1.72662 3.31871 0
M  V30 579 H 54.5157 -2.28915 4.35728 0
M  V30 580 N 56.1678 -1.49265 -0.50573 0
M  V30 581 C 57.4138 -1.58748 -1.26202 0
M  V30 582 C 57.7468 -0.271227 -1.92297 0
M  V30 583 O 57.0218 0.724831 -1.80489 0
M  V30 584 C 57.3048 -2.74332 -2.33268 0
M  V30 585 C 57.1578 -4.15737 -1.71705 0
M  V30 586 C 58.4768 -2.85576 -3.34865 0
M  V30 587 H 55.5958 -0.577826 -0.457478 0
M  V30 588 H 58.2378 -1.81532 -0.560897 0
M  V30 589 H 56.3878 -2.55036 -2.93068 0
M  V30 590 H 58.0598 -4.46537 -1.15769 0
M  V30 591 H 56.3028 -4.21605 -1.02135 0
M  V30 592 H 56.9738 -4.92477 -2.49341 0
M  V30 593 H 59.4498 -3.03127 -2.8505 0
M  V30 594 H 58.3258 -3.68135 -4.07146 0
M  V30 595 H 58.5868 -1.94732 -3.96903 0
M  V30 596 N 57.6459 0.756429 -1.3826 0
M  V30 597 C 58.5559 1.9009 -1.37488 0
M  V30 598 C 59.5719 1.71855 -0.272366 0
M  V30 599 O 60.7479 1.94827 -0.510318 0
M  V30 600 C 57.8129 3.25421 -1.19592 0
M  V30 601 C 56.8739 3.56202 -2.39622 0
M  V30 602 C 56.1069 4.85075 -2.2257 0
M  V30 603 O 56.3299 5.57246 -1.21793 0
M  V30 604 O 55.2639 5.15269 -3.11098 0
M  V30 605 H 59.0899 1.93695 -2.33914 0
M  V30 606 H 56.6749 0.901313 -1.1915 0
M  V30 607 H 58.5569 4.06337 -1.11661 0
M  V30 608 H 57.2319 3.22634 -0.262486 0
M  V30 609 H 56.1389 2.75458 -2.53128 0
M  V30 610 H 57.4719 3.63747 -3.31586 0
M  V30 611 N 59.124 1.23083 0.984299 0
M  V30 612 C 60.372 1.05848 1.72165 0
M  V30 613 C 60.693 -0.406049 1.90726 0
M  V30 614 O 59.963 -1.29139 1.47309 0
M  V30 615 H 58.543 0.388685 0.637913 0
M  V30 616 H 61.205 1.54736 1.18503 0
M  V30 617 H 60.301 1.54327 2.71274 0
M  V30 618 N 60.6021 -1.18246 1.0419 0
M  V30 619 C 61.5341 -2.2142 0.592088 0
M  V30 620 C 62.5471 -1.59233 -0.338909 0
M  V30 621 O 63.7361 -1.78002 -0.133231 0
M  V30 622 C 60.8361 -3.38546 -0.154854 0
M  V30 623 C 60.0091 -4.3031 0.784328 0
M  V30 624 C 59.0681 -5.26138 0.0804583 0
M  V30 625 O 58.0941 -5.64738 0.711292 0
M  V30 626 N 59.2961 -5.68261 -1.18574 0
M  V30 627 H 62.0611 -2.60636 1.47949 0
M  V30 628 H 59.6221 -1.33044 0.922544 0
M  V30 629 H 61.6141 -3.99678 -0.635606 0
M  V30 630 H 60.1841 -2.98012 -0.943811 0
M  V30 631 H 59.4041 -3.66764 1.44491 0
M  V30 632 H 60.6921 -4.8852 1.42218 0
M  V30 633 H 60.0901 -5.38957 -1.71876 0
M  V30 634 H 58.6471 -6.31584 -1.61074 0
M  V30 635 N 62.0802 -0.821533 -1.34494 0
M  V30 636 C 63.3292 -0.405355 -1.97585 0
M  V30 637 C 63.6422 1.03677 -1.65863 0
M  V30 638 O 64.8482 1.55679 -2.22433 0
M  V30 639 C 63.3042 -0.673861 -3.53535 0
M  V30 640 C 62.9122 -2.12951 -3.94152 0
M  V30 641 C 64.6562 -0.32378 -4.23263 0
M  V30 642 C 62.5632 -2.34298 -5.43009 0
M  V30 643 H 61.4932 -0.147836 -0.739365 0
M  V30 644 H 64.1442 -1.00769 -1.53355 0
M  V30 645 H 62.5262 -0.00137554 -3.96 0
M  V30 646 H 63.7002 -2.84104 -3.62797 0
M  V30 647 H 62.0152 -2.44089 -3.37356 0
M  V30 648 H 64.6122 -0.461126 -5.32708 0
M  V30 649 H 64.9552 0.731586 -4.09821 0
M  V30 650 H 65.4882 -0.950786 -3.8627 0
M  V30 651 H 62.2272 -3.38335 -5.61435 0
M  V30 652 H 61.7472 -1.67687 -5.75883 0
M  V30 653 H 63.4262 -2.16588 -6.09671 0
M  V30 654 N 63.5583 1.46682 -0.576371 0
M  V30 655 C 64.4883 2.33028 0.148397 0
M  V30 656 C 65.4693 1.44961 0.889956 0
M  V30 657 O 66.6543 1.73789 0.866662 0
M  V30 658 C 63.7843 3.27117 1.1667 0
M  V30 659 C 62.7383 4.24575 0.540386 0
M  V30 660 C 62.0643 5.08126 1.6647 0
M  V30 661 C 63.3643 5.19722 -0.518331 0
M  V30 662 H 65.0583 2.93875 -0.572509 0
M  V30 663 H 62.6043 1.41315 -0.276768 0
M  V30 664 H 64.5573 3.86374 1.68204 0
M  V30 665 H 63.2813 2.64364 1.9178 0
M  V30 666 H 61.9403 3.66571 0.0461769 0
M  V30 667 H 61.5883 4.41762 2.40531 0
M  V30 668 H 61.2883 5.74122 1.25131 0
M  V30 669 H 62.8123 5.70246 2.18293 0
M  V30 670 H 64.2263 5.73232 -0.0883058 0
M  V30 671 H 62.6233 5.94026 -0.851679 0
M  V30 672 H 63.6933 4.64037 -1.40703 0
M  V30 673 N 65.0364 0.313813 1.54444 0
M  V30 674 C 66.2844 -0.291099 1.99993 0
M  V30 675 C 66.6054 -1.53418 1.20366 0
M  V30 676 O 65.8754 -1.93544 0.302927 0
M  V30 677 H 64.4554 -0.110552 0.738774 0
M  V30 678 H 67.1174 0.428106 1.9014 0
M  V30 679 H 66.2134 -0.554268 3.07139 0
M  V30 680 N 66.5145 -1.57545 0.0417849 0
M  V30 681 C 67.7425 -1.96624 -0.643928 0
M  V30 682 C 68.1575 -0.918897 -1.64929 0
M  V30 683 O 67.5145 0.0979323 -1.82237 0
M  V30 684 C 67.5655 -3.35781 -1.33914 0
M  V30 685 O 67.2865 -4.365 -0.374048 0
M  V30 686 C 68.7875 -3.89566 -2.1155 0
M  V30 687 H 66.0075 -0.647316 -0.176702 0
M  V30 688 H 68.5515 -2.04229 0.105304 0
M  V30 689 H 66.7065 -3.29357 -2.03968 0
M  V30 690 H 67.1205 -5.17248 -0.869179 0
M  V30 691 H 68.5945 -4.89242 -2.55628 0
M  V30 692 H 69.0715 -3.24488 -2.9598 0
M  V30 693 H 69.6775 -3.99298 -1.46427 0
M  V30 694 N 67.9926 0.231505 -1.5589 0
M  V30 695 C 69.2226 0.973092 -1.82248 0
M  V30 696 C 69.6306 1.78845 -0.617328 0
M  V30 697 O 68.9736 1.78752 0.423499 0
M  V30 698 C 69.0356 1.94732 -3.02192 0
M  V30 699 C 68.6996 1.31743 -4.37599 0
M  V30 700 C 69.6966 0.712238 -5.14998 0
M  V30 701 C 67.3816 1.33218 -4.84312 0
M  V30 702 C 69.3756 0.130195 -6.37267 0
M  V30 703 C 67.0626 0.746286 -6.06526 0
M  V30 704 C 68.0606 0.146337 -6.82843 0
M  V30 705 O 67.7486 -0.430465 -8.02747 0
M  V30 706 H 67.4806 0.29125 -0.61004 0
M  V30 707 H 70.0346 0.254915 -2.03812 0
M  V30 708 H 68.2646 2.70422 -2.76422 0
M  V30 709 H 69.9536 2.55362 -3.15508 0
M  V30 710 H 70.7196 0.69324 -4.8002 0
M  V30 711 H 66.5986 1.78854 -4.24891 0
M  V30 712 H 70.1426 -0.33871 -6.96777 0
M  V30 713 H 66.0396 0.762663 -6.40979 0
M  V30 714 H 66.8076 -0.323818 -8.17859 0
M  V30 715 N 69.4707 1.49531 0.497807 0
M  V30 716 C 70.7167 1.59415 1.25358 0
M  V30 717 C 71.0497 0.281422 1.9215 0
M  V30 718 O 70.3247 -0.715249 1.80871 0
M  V30 719 C 70.6077 2.75566 2.3181 0
M  V30 720 C 70.4607 4.16642 1.69498 0
M  V30 721 C 71.7797 2.87347 3.33346 0
M  V30 722 H 68.8987 0.580244 0.454408 0
M  V30 723 H 71.5407 1.81827 0.551262 0
M  V30 724 H 69.6907 2.56587 2.91711 0
M  V30 725 H 71.3627 4.47145 1.13399 0
M  V30 726 H 69.6057 4.22141 0.998978 0
M  V30 727 H 70.2767 4.93792 2.46725 0
M  V30 728 H 72.7527 3.04634 2.83438 0
M  V30 729 H 71.6287 3.70289 4.05188 0
M  V30 730 H 71.8897 1.96834 3.95865 0
M  V30 731 N 70.9488 -0.749086 1.3866 0
M  V30 732 C 72.1888 -1.52112 1.36534 0
M  V30 733 C 72.5528 -1.91951 -0.0432316 0
M  V30 734 O 73.7538 -2.68132 -0.189396 0
M  V30 735 C 72.0248 -2.73704 2.29828 0
M  V30 736 S 73.5838 -3.63519 2.45763 0
M  V30 737 H 70.4018 -0.520482 0.484375 0
M  V30 738 H 73.0038 -0.878963 1.74627 0
M  V30 739 H 71.7078 -2.42552 3.31054 0
M  V30 740 H 71.2388 -3.4286 1.929 0
M  V30 741 H 73.2538 -4.66712 1.68505 0
M  V30 742 N 72.4269 -1.23603 -0.977757 0
M  V30 743 C 73.6759 -1.06377 -1.71368 0
M  V30 744 C 73.9889 0.399062 -1.91486 0
M  V30 745 O 75.1949 0.691312 -2.62551 0
M  V30 746 C 73.6509 -1.85512 -3.08404 0
M  V30 747 C 73.2589 -3.36141 -2.96164 0
M  V30 748 C 75.0029 -1.76783 -3.85938 0
M  V30 749 C 72.9099 -4.07659 -4.28449 0
M  V30 750 H 71.8399 -0.394452 -0.642591 0
M  V30 751 H 74.4909 -1.47594 -1.09034 0
M  V30 752 H 72.8729 -1.37103 -3.71509 0
M  V30 753 H 74.0469 -3.92056 -2.42133 0
M  V30 754 H 72.3619 -3.45712 -2.32104 0
M  V30 755 H 74.9589 -2.27526 -4.83876 0
M  V30 756 H 75.3019 -0.731116 -4.0983 0
M  V30 757 H 75.8349 -2.22818 -3.2954 0
M  V30 758 H 72.5739 -5.11648 -4.09752 0
M  V30 759 H 72.0939 -3.5653 -4.82334 0
M  V30 760 H 73.7729 -4.141 -4.97122 0
M  V30 761 N 73.905 1.17692 -1.04816 0
M  V30 762 C 74.852 2.21581 -0.645797 0
M  V30 763 C 75.822 1.62367 0.350159 0
M  V30 764 O 77.007 1.89254 0.242433 0
M  V30 765 C 74.147 3.45092 -0.0227568 0
M  V30 766 C 73.26 4.18613 -1.06709 0
M  V30 767 C 72.395 5.29602 -0.411767 0
M  V30 768 C 71.434 5.94904 -1.44067 0
M  V30 769 N 70.571 6.97414 -0.809781 0
M  V30 770 H 75.411 2.55353 -1.5362 0
M  V30 771 H 72.948 1.25438 -0.768364 0
M  V30 772 H 74.906 4.15679 0.35588 0
M  V30 773 H 73.536 3.11917 0.831122 0
M  V30 774 H 72.588 3.46779 -1.5636 0
M  V30 775 H 73.9 4.63293 -1.84827 0
M  V30 776 H 73.054 6.06696 0.0206623 0
M  V30 777 H 71.793 4.86045 0.401438 0
M  V30 778 H 70.798 5.16544 -1.88316 0
M  V30 779 H 72.023 6.40542 -2.25571 0
M  V30 780 H 69.969 6.55998 -0.0170186 0
M  V30 781 H 69.886 7.40386 -1.52856 0
M  V30 782 H 71.154 7.78463 -0.401999 0
M  V30 783 N 75.3831 0.828654 1.34056 0
M  V30 784 C 76.6311 0.41863 1.97717 0
M  V30 785 C 76.9521 -1.02314 1.66002 0
M  V30 786 O 76.2221 -1.71119 0.953683 0
M  V30 787 H 74.8021 0.151809 0.731412 0
M  V30 788 H 77.4641 1.05936 1.63596 0
M  V30 789 H 76.5601 0.542318 3.07352 0
M  V30 790 N 76.8612 -1.46375 0.584142 0
M  V30 791 C 78.0912 -2.06461 0.0758195 0
M  V30 792 C 78.4992 -1.43322 -1.23512 0
M  V30 793 O 77.8422 -0.533216 -1.75791 0
M  V30 794 C 77.9042 -3.59131 -0.162773 0
M  V30 795 C 77.5682 -4.4447 1.06279 0
M  V30 796 C 78.5652 -4.80918 1.97519 0
M  V30 797 C 76.2502 -4.85584 1.28504 0
M  V30 798 C 78.2442 -5.57309 3.09331 0
M  V30 799 C 75.9312 -5.61734 2.4062 0
M  V30 800 C 76.9292 -5.9751 3.30863 0
M  V30 801 O 76.6172 -6.72121 4.41032 0
M  V30 802 H 76.3492 -0.673745 0.0551725 0
M  V30 803 H 78.9032 -1.88969 0.804984 0
M  V30 804 H 77.1332 -3.74936 -0.946565 0
M  V30 805 H 78.8222 -4.0114 -0.619782 0
M  V30 806 H 79.5882 -4.49732 1.81565 0
M  V30 807 H 75.4672 -4.57187 0.591702 0
M  V30 808 H 79.0112 -5.85152 3.79793 0
M  V30 809 H 74.9082 -5.92334 2.56537 0
M  V30 810 H 75.6762 -6.90547 4.39417 0
M  V30 811 N 78.3393 -0.321999 -1.54275 0
M  V30 812 C 79.2893 0.560185 -2.21011 0
M  V30 813 C 80.2733 1.08283 -1.19011 0
M  V30 814 O 81.4653 1.02011 -1.44647 0
M  V30 815 C 78.5943 1.72137 -2.97025 0
M  V30 816 C 77.6803 1.21369 -4.06363 0
M  V30 817 N 78.0713 0.425566 -5.04007 0
M  V30 818 C 76.3693 1.49255 -4.20284 0
M  V30 819 C 77.0703 0.152601 -5.815 0
M  V30 820 N 76.0463 0.738294 -5.38563 0
M  V30 821 H 79.8483 -0.049265 -2.93859 0
M  V30 822 H 77.3623 -0.127779 -1.61897 0
M  V30 823 H 79.3593 2.36512 -3.43319 0
M  V30 824 H 78.0193 2.33431 -2.25699 0
M  V30 825 H 79.0303 0.068551 -5.17855 0
M  V30 826 H 75.7073 2.11145 -3.60172 0
M  V30 827 H 77.0973 -0.481764 -6.70171 0
M  V30 828 N 79.8174 1.5752 -0.0501392 0
M  V30 829 C 80.7474 2.14502 0.922566 0
M  V30 830 C 81.7284 1.06642 1.3252 0
M  V30 831 O 82.9134 1.34577 1.4001 0
M  V30 832 C 80.0434 2.68916 2.19776 0
M  V30 833 C 78.9974 3.8175 1.93523 0
M  V30 834 C 78.3234 4.22677 3.27487 0
M  V30 835 C 79.6234 5.06932 1.25765 0
M  V30 836 H 81.3174 2.9603 0.447952 0
M  V30 837 H 78.8634 1.42401 0.214024 0
M  V30 838 H 80.8164 3.07419 2.88222 0
M  V30 839 H 79.5404 1.84578 2.69441 0
M  V30 840 H 78.1994 3.43718 1.27489 0
M  V30 841 H 77.8474 3.35291 3.74952 0
M  V30 842 H 77.5474 4.98725 3.1072 0
M  V30 843 H 79.0714 4.63779 3.97166 0
M  V30 844 H 80.4854 5.42888 1.84244 0
M  V30 845 H 78.8824 5.88116 1.19328 0
M  V30 846 H 79.9524 4.84337 0.233536 0
M  V30 847 N 81.2955 -0.223234 1.56011 0
M  V30 848 C 82.5415 -0.949279 1.79211 0
M  V30 849 C 82.8745 -1.84054 0.619494 0
M  V30 850 O 82.1495 -1.90726 -0.381317 0
M  V30 851 C 82.4325 -1.78965 3.12479 0
M  V30 852 C 82.2855 -0.924997 4.40186 0
M  V30 853 C 83.6045 -2.76774 3.42175 0
M  V30 854 H 80.7235 -0.343676 0.651963 0
M  V30 855 H 83.3655 -0.218253 1.88742 0
M  V30 856 H 81.5155 -2.41291 3.04485 0
M  V30 857 H 83.1875 -0.318615 4.60198 0
M  V30 858 H 81.4305 -0.230344 4.33188 0
M  V30 859 H 82.1015 -1.54735 5.29869 0
M  V30 860 H 84.5775 -2.24584 3.50287 0
M  V30 861 H 83.4535 -3.32678 4.36597 0
M  V30 862 H 83.7145 -3.54429 2.64258 0
M  V30 863 N 82.7736 -1.49793 -0.48987 0
M  V30 864 C 84.0216 -1.59525 -1.24081 0
M  V30 865 C 84.3426 -0.288953 -1.92847 0
M  V30 866 O 83.6126 0.692436 -1.83254 0
M  V30 867 H 82.1926 -0.587796 -0.460983 0
M  V30 868 H 84.8546 -1.86477 -0.566778 0
M  V30 869 H 83.9506 -2.39696 -1.99881 0
M  V30 870 N 84.2517 0.741722 -1.39055 0
M  V30 871 C 85.1987 1.85566 -1.37237 0
M  V30 872 C 86.1687 1.64457 -0.233072 0
M  V30 873 O 87.3537 1.85957 -0.427147 0
M  V30 874 C 84.4937 3.23004 -1.215 0
M  V30 875 C 83.6067 3.55864 -2.44918 0
M  V30 876 C 82.7417 4.82669 -2.21821 0
M  V30 877 C 81.7807 5.08351 -3.40948 0
M  V30 878 N 80.9177 6.26356 -3.17211 0
M  V30 879 H 85.7577 1.86455 -2.32462 0
M  V30 880 H 83.2947 0.911176 -1.15482 0
M  V30 881 H 85.2527 4.02331 -1.10389 0
M  V30 882 H 83.8827 3.21411 -0.29908 0
M  V30 883 H 82.9347 2.7129 -2.66657 0
M  V30 884 H 84.2467 3.70765 -3.33668 0
M  V30 885 H 83.4007 5.69962 -2.07914 0
M  V30 886 H 82.1397 4.69929 -1.30454 0
M  V30 887 H 81.1447 4.19522 -3.55361 0
M  V30 888 H 82.3697 5.22981 -4.33207 0
M  V30 889 H 80.3157 6.14917 -2.28502 0
M  V30 890 H 80.2327 6.41813 -3.99515 0
M  V30 891 H 81.5007 7.16506 -3.06984 0
M  V30 892 N 85.7298 1.2412 0.971189 0
M  V30 893 C 86.6768 1.0305 2.06517 0
M  V30 894 C 87.6468 -0.0550666 1.66009 0
M  V30 895 O 88.8318 0.0988688 1.90544 0
M  V30 896 C 85.9718 0.637653 3.39158 0
M  V30 897 C 85.0848 1.79633 3.92882 0
M  V30 898 C 84.2198 1.34939 5.13775 0
M  V30 899 C 83.2588 2.47823 5.59687 0
M  V30 900 N 82.3958 2.04022 6.71803 0
M  V30 901 H 87.2358 1.96685 2.23873 0
M  V30 902 H 84.7728 0.979694 1.09729 0
M  V30 903 H 86.7308 0.390931 4.15364 0
M  V30 904 H 85.3608 -0.261693 3.21737 0
M  V30 905 H 84.4128 2.15681 3.13346 0
M  V30 906 H 85.7248 2.64466 4.22918 0
M  V30 907 H 84.8788 1.06134 5.97345 0
M  V30 908 H 83.6178 0.471557 4.85415 0
M  V30 909 H 82.6228 2.77392 4.74693 0
M  V30 910 H 83.8478 3.36158 5.90063 0
M  V30 911 H 81.7938 1.18632 6.45184 0
M  V30 912 H 81.7108 2.82409 7.01271 0
M  V30 913 H 82.9788 1.78347 7.58823 0
M  V30 914 N 87.2079 -1.17134 1.05439 0
M  V30 915 C 88.4359 -1.91372 0.786414 0
M  V30 916 C 88.8509 -1.76955 -0.658202 0
M  V30 917 O 88.2079 -1.10838 -1.44987 0
M  V30 918 C 88.2589 -3.42356 1.1608 0
M  V30 919 O 87.9799 -3.56332 2.54871 0
M  V30 920 C 89.4809 -4.33663 0.919322 0
M  V30 921 H 86.7009 -0.607118 0.285743 0
M  V30 922 H 89.2449 -1.48525 1.40572 0
M  V30 923 H 87.3999 -3.82939 0.586191 0
M  V30 924 H 87.8139 -4.49896 2.69618 0
M  V30 925 H 89.2879 -5.38099 1.231 0
M  V30 926 H 89.7649 -4.38959 -0.145359 0
M  V30 927 H 90.3709 -3.98796 1.47789 0
M  V30 928 N 88.686 -0.835752 -1.33615 0
M  V30 929 C 89.616 -0.281739 -2.31794 0
M  V30 930 C 90.597 0.608833 -1.58831 0
M  V30 931 O 91.782 0.533035 -1.86741 0
M  V30 932 C 88.912 0.546612 -3.42971 0
M  V30 933 C 87.866 -0.247904 -4.27281 0
M  V30 934 C 87.192 0.704001 -5.30045 0
M  V30 935 C 88.492 -1.46324 -5.01385 0
M  V30 936 H 90.186 -1.10206 -2.78379 0
M  V30 937 H 87.732 -0.531388 -1.33837 0
M  V30 938 H 89.685 0.944467 -4.1068 0
M  V30 939 H 88.409 1.40011 -2.95067 0
M  V30 940 H 87.068 -0.627281 -3.61194 0
M  V30 941 H 86.716 1.55381 -4.78399 0
M  V30 942 H 86.416 0.176524 -5.87335 0
M  V30 943 H 87.94 1.09944 -6.0062 0
M  V30 944 H 89.354 -1.13871 -5.61877 0
M  V30 945 H 87.751 -1.92728 -5.6831 0
M  V30 946 H 88.821 -2.23467 -4.30338 0
M  V30 947 N 90.1641 1.46063 -0.591896 0
M  V30 948 C 91.4111 2.02338 -0.0809991 0
M  V30 949 C 91.7391 1.46228 1.28249 0
M  V30 950 O 90.9941 0.620818 1.85592 0
M  V30 951 C 91.2931 3.57391 0.0249813 0
M  V30 952 C 90.9591 4.32583 -1.27211 0
M  V30 953 C 89.6211 4.52844 -1.62745 0
M  V30 954 C 91.9731 4.75687 -2.13005 0
M  V30 955 C 89.3011 5.13462 -2.83855 0
M  V30 956 C 91.6531 5.37644 -3.3335 0
M  V30 957 C 90.3171 5.5613 -3.69155 0
M  V30 958 H 89.5871 0.740407 -0.0296397 0
M  V30 959 H 92.2341 1.75321 -0.770374 0
M  V30 960 H 90.5391 3.83597 0.797537 0
M  V30 961 H 92.2361 3.98621 0.436184 0
M  V30 962 H 88.8261 4.17116 -0.985499 0
M  V30 963 H 93.0101 4.59782 -1.86855 0
M  V30 964 H 88.2661 5.25965 -3.11722 0
M  V30 965 H 92.4401 5.7 -4.00092 0
M  V30 966 H 90.0671 6.0287 -4.63089 0
M  V30 967 N 91.6422 0.330177 1.54103 0
M  V30 968 C 92.8822 -0.270916 2.02597 0
M  V30 969 C 93.2462 -1.48826 1.21304 0
M  V30 970 O 94.4472 -2.16266 1.59633 0
M  V30 971 C 92.7182 -0.590328 3.52491 0
M  V30 972 S 94.2772 -1.17014 4.2291 0
M  V30 973 H 91.0952 -0.0815379 0.706309 0
M  V30 974 H 93.6972 0.464835 1.89893 0
M  V30 975 H 92.4012 0.303691 4.09275 0
M  V30 976 H 91.9322 -1.3561 3.69288 0
M  V30 977 H 93.9472 -2.45662 4.3112 0
M  V30 978 N 93.1203 -1.57491 0.0584922 0
M  V30 979 C 94.0683 -2.13148 -0.931168 0
M  V30 980 C 95.0623 -1.06507 -1.31729 0
M  V30 981 O 96.2683 -1.24906 -1.29609 0
M  V30 982 H 92.6433 -0.68137 -0.31818 0
M  V30 983 H 94.6143 -2.95187 -0.436707 0
M  V30 984 C 93.3633 -2.69732 -2.19408 0
M  V30 985 H 92.6863 -3.51454 -1.90578 0
M  V30 986 H 94.1263 -3.12287 -2.86798 0
M  V30 987 C 92.5853 -1.63855 -2.94369 0
M  V30 988 O 93.1153 -1.05565 -3.87581 0
M  V30 989 N 91.3213 -1.35202 -2.57233 0
M  V30 990 H 90.8683 -1.82791 -1.81508 0
M  V30 991 H 90.8263 -0.645922 -3.07693 0
M  V30 992 N 94.5984 0.214957 -1.56127 0
M  V30 993 C 95.5614 1.24997 -1.92116 0
M  V30 994 C 96.5614 1.39467 -0.800344 0
M  V30 995 O 97.7514 1.37619 -1.06802 0
M  V30 996 C 94.8834 2.62271 -2.17777 0
M  V30 997 H 96.0764 0.942875 -2.84693 0
M  V30 998 H 93.6294 0.455654 -1.49511 0
M  V30 999 H 94.3644 2.98068 -1.27773 0
M  V30 1000 H 94.1494 2.53143 -2.99434 0
M  V30 1001 H 95.6394 3.36946 -2.46693 0
M  V30 1002 N 96.0765 1.50051 0.48192 0
M  V30 1003 C 97.3015 1.64508 1.26301 0
M  V30 1004 C 97.7265 0.323851 1.85291 0
M  V30 1005 O 97.0845 -0.710969 1.66778 0
M  V30 1006 C 97.1325 2.7305 2.35533 0
M  V30 1007 O 96.2365 2.3355 3.39895 0
M  V30 1008 H 95.5775 0.549978 0.372048 0
M  V30 1009 H 98.1075 1.9636 0.574786 0
M  V30 1010 H 98.1175 2.95799 2.8101 0
M  V30 1011 H 96.7925 3.68946 1.91967 0
M  V30 1012 H 95.3695 2.21205 3.00204 0
M  V30 1013 N 97.5546 -0.734337 1.39446 0
M  V30 1014 C 98.5016 -1.84835 1.38219 0
M  V30 1015 C 99.4716 -1.64331 0.24179 0
M  V30 1016 O 100.657 -1.85728 0.437002 0
M  V30 1017 C 97.7966 -3.22355 1.23212 0
M  V30 1018 C 96.9096 -3.5456 2.46801 0
M  V30 1019 C 96.0446 -4.81485 2.24377 0
M  V30 1020 C 95.0836 -5.06536 3.43639 0
M  V30 1021 N 94.2206 -6.24665 3.20528 0
M  V30 1022 H 99.0606 -1.85219 2.33448 0
M  V30 1023 H 96.5976 -0.905039 1.15963 0
M  V30 1024 H 98.5556 -4.0174 1.12522 0
M  V30 1025 H 97.1856 -3.21248 0.316121 0
M  V30 1026 H 96.2376 -2.69872 2.68092 0
M  V30 1027 H 97.5496 -3.6899 3.3563 0
M  V30 1028 H 96.7036 -5.68852 2.10933 0
M  V30 1029 H 95.4426 -4.6923 1.32944 0
M  V30 1030 H 94.4476 -4.17632 3.5758 0
M  V30 1031 H 95.6726 -5.20676 4.35974 0
M  V30 1032 H 93.6186 -6.13696 2.3176 0
M  V30 1033 H 93.5356 -6.39685 4.02913 0
M  V30 1034 H 94.8036 -7.14868 3.10779 0
M  V30 1035 N 99.0327 -1.24633 -0.964593 0
M  V30 1036 C 99.9427 -1.05859 -2.09359 0
M  V30 1037 C 100.959 0.00148855 -1.74 0
M  V30 1038 O 102.135 -0.197346 -2.00431 0
M  V30 1039 C 99.1997 -0.668879 -3.40187 0
M  V30 1040 C 98.2607 -1.80578 -3.89474 0
M  V30 1041 C 97.4937 -1.43457 -5.14058 0
M  V30 1042 O 97.7167 -0.325775 -5.69469 0
M  V30 1043 O 96.6507 -2.2613 -5.57807 0
M  V30 1044 H 100.477 -2.00516 -2.28094 0
M  V30 1045 H 98.0617 -1.03481 -1.0776 0
M  V30 1046 H 99.9437 -0.463211 -4.18846 0
M  V30 1047 H 98.6187 0.248536 -3.22744 0
M  V30 1048 H 97.5257 -2.06623 -3.11862 0
M  V30 1049 H 98.8587 -2.70208 -4.11398 0
M  V30 1050 N 100.511 1.16574 -1.06058 0
M  V30 1051 C 101.757 1.87565 -0.78683 0
M  V30 1052 C 102.112 1.80012 0.679214 0
M  V30 1053 O 101.405 1.20327 1.49104 0
M  V30 1054 C 101.599 3.36195 -1.21275 0
M  V30 1055 C 101.428 3.58216 -2.71866 0
M  V30 1056 C 100.198 3.7444 -3.39298 0
M  V30 1057 C 102.396 3.57134 -3.70081 0
M  V30 1058 N 100.378 3.84389 -4.78663 0
M  V30 1059 C 101.749 3.73038 -4.9522 0
M  V30 1060 C 103.804 3.40332 -3.63426 0
M  V30 1061 C 102.507 3.73879 -6.14497 0
M  V30 1062 C 104.533 3.42466 -4.82153 0
M  V30 1063 C 103.895 3.58887 -6.06118 0
M  V30 1064 H 99.9938 0.704081 -0.340284 0
M  V30 1065 H 102.578 1.39885 -1.35426 0
M  V30 1066 H 100.749 3.82522 -0.673179 0
M  V30 1067 H 102.481 3.94839 -0.887917 0
M  V30 1068 H 99.2358 3.74662 -2.89699 0
M  V30 1069 H 99.6598 3.93138 -5.51155 0
M  V30 1070 H 104.302 3.26566 -2.68541 0
M  V30 1071 H 102.02 3.86427 -7.09718 0
M  V30 1072 H 105.606 3.30712 -4.78666 0
M  V30 1073 H 104.486 3.60454 -6.9645 0
M  V30 1074 N 101.989 0.842826 1.3317 0
M  V30 1075 C 103.266 0.362216 1.92217 0
M  V30 1076 C 103.646 -1.15289 1.76838 0
M  V30 1077 O 102.994 -1.96914 1.15919 0
M  V30 1078 C 103.204 0.813495 3.39387 0
M  V30 1079 C 104.552 0.823804 4.16532 0
M  V30 1080 O 105.576 0.757358 3.48055 0
M  V30 1081 O 104.435 0.915193 5.38782 0
M  V30 1082 H 101.529 0.103317 0.820521 0
M  V30 1083 H 104.075 0.928942 1.42017 0
M  V30 1084 H 102.847 1.85624 3.4447 0
M  V30 1085 H 102.47 0.223561 3.96971 0
M  V30 1086 N 103.467 -1.45747 0.599634 0
M  V30 1087 C 104.415 -2.322 -0.136426 0
M  V30 1088 C 105.409 -1.45497 -0.867583 0
M  V30 1089 O 106.615 -1.62027 -0.78405 0
M  V30 1090 H 102.99 -0.749368 -0.0628588 0
M  V30 1091 H 104.961 -2.92072 0.611281 0
M  V30 1092 C 103.71 -3.28974 -1.12567 0
M  V30 1093 H 103.033 -3.9568 -0.572484 0
M  V30 1094 H 104.473 -3.92212 -1.61077 0
M  V30 1095 C 102.932 -2.55561 -2.19523 0
M  V30 1096 O 103.462 -2.33111 -3.27143 0
M  V30 1097 N 101.668 -2.15832 -1.94589 0
M  V30 1098 H 101.215 -2.3429 -1.07078 0
M  V30 1099 H 101.173 -1.67034 -2.66359 0
M  V30 1100 N 104.945 -0.338344 -1.53925 0
M  V30 1101 C 106.173 0.261298 -2.05243 0
M  V30 1102 C 106.588 1.44625 -1.21363 0
M  V30 1103 O 105.945 1.80811 -0.247736 0
M  V30 1104 C 105.996 0.681412 -3.5502 0
M  V30 1105 O 105.717 -0.456414 -4.35716 0
M  V30 1106 C 107.218 1.34232 -4.22489 0
M  V30 1107 H 104.438 0.0513685 -0.669031 0
M  V30 1108 H 106.982 -0.488822 -1.98572 0
M  V30 1109 H 105.137 1.38148 -3.61931 0
M  V30 1110 H 105.551 -0.122564 -5.24357 0
M  V30 1111 H 107.025 1.58708 -5.28693 0
M  V30 1112 H 107.502 2.29426 -3.74514 0
M  V30 1113 H 108.108 0.684424 -4.19757 0
M  V30 1114 N 106.423 1.57458 -0.0668435 0
M  V30 1115 C 107.651 1.97624 0.612565 0
M  V30 1116 C 108.066 0.94502 1.63447 0
M  V30 1117 O 107.423 -0.0689276 1.8237 0
M  V30 1118 C 107.474 3.37869 1.28555 0
M  V30 1119 O 107.195 4.3704 0.304557 0
M  V30 1120 C 108.696 3.92882 2.05325 0
M  V30 1121 H 105.916 0.650045 0.166381 0
M  V30 1122 H 108.46 2.04035 -0.137782 0
M  V30 1123 H 106.615 3.3256 1.98702 0
M  V30 1124 H 107.029 5.18565 0.786779 0
M  V30 1125 H 108.503 4.93247 2.47812 0
M  V30 1126 H 108.98 3.29156 2.9078 0
M  V30 1127 H 109.586 4.01577 1.40056 0
M  V30 1128 N 107.901 -0.206675 1.56239 0
M  V30 1129 C 109.129 -0.945345 1.8404 0
M  V30 1130 C 109.544 -1.77336 0.647885 0
M  V30 1131 O 108.901 -1.78425 -0.383511 0
M  V30 1132 C 108.952 -1.8509 3.10522 0
M  V30 1133 O 108.673 -1.05634 4.25174 0
M  V30 1134 C 110.174 -2.70222 3.51418 0
M  V30 1135 H 107.394 -0.276372 0.61144 0
M  V30 1136 H 109.938 -0.217417 2.03341 0
M  V30 1137 H 108.093 -2.53259 2.93153 0
M  V30 1138 H 108.507 -1.67238 4.97124 0
M  V30 1139 H 109.981 -3.29438 4.42916 0
M  V30 1140 H 110.458 -3.43358 2.73864 0
M  V30 1141 H 111.064 -2.07443 3.71278 0
M  V30 1142 N 109.379 -1.50304 -0.473955 0
M  V30 1143 C 110.289 -1.7174 -1.5982 0
M  V30 1144 C 111.305 -0.600457 -1.63311 0
M  V30 1145 O 112.481 -0.878441 -1.81233 0
M  V30 1146 C 109.546 -1.80427 -2.96052 0
M  V30 1147 C 108.607 -3.04148 -3.02972 0
M  V30 1148 C 107.84 -3.12411 -4.32706 0
M  V30 1149 O 108.063 -2.27542 -5.23049 0
M  V30 1150 O 106.997 -4.05113 -4.45159 0
M  V30 1151 H 110.823 -2.67035 -1.44657 0
M  V30 1152 H 108.408 -1.34366 -0.653148 0
M  V30 1153 H 110.29 -1.88338 -3.7697 0
M  V30 1154 H 108.965 -0.883156 -3.11419 0
M  V30 1155 H 107.872 -3.0174 -2.21142 0
M  V30 1156 H 109.205 -3.95829 -2.92541 0
M  V30 1157 N 110.857 0.726932 -1.39834 0
M  V30 1158 C 112.097 1.4992 -1.38936 0
M  V30 1159 C 112.461 1.91996 0.0126883 0
M  V30 1160 O 113.662 2.68399 0.146715 0
M  V30 1161 C 111.933 2.70013 -2.34153 0
M  V30 1162 S 113.492 3.59563 -2.51515 0
M  V30 1163 H 110.31 0.51271 -0.492595 0
M  V30 1164 H 112.912 0.85107 -1.76003 0
M  V30 1165 H 111.616 2.37254 -3.34871 0
M  V30 1166 H 111.147 3.39748 -1.98331 0
M  V30 1167 H 113.162 4.63973 -1.75909 0
M  V30 1168 N 112.336 1.25143 0.95797 0
M  V30 1169 C 113.752 1.01892 1.22842 0
M  V30 1170 C 113.952 -0.266311 1.99732 0
M  V30 1171 O 113.008 -0.979913 2.3271 0
M  V30 1172 C 114.321 2.24004 2.00606 0
M  V30 1173 C 115.869 2.28731 2.13662 0
M  V30 1174 C 116.344 3.5049 2.94823 0
M  V30 1175 N 117.835 3.50866 3.02403 0
M  V30 1176 C 118.57 4.4174 3.65586 0
M  V30 1177 N 118.066 5.42882 4.30408 0
M  V30 1178 N 119.859 4.29429 3.62694 0
M  V30 1179 H 112.01 2.07718 0.443493 0
M  V30 1180 H 114.273 0.912031 0.258657 0
M  V30 1181 H 113.979 3.17395 1.51503 0
M  V30 1182 H 113.853 2.26907 3.01319 0
M  V30 1183 H 116.24 1.35865 2.61963 0
M  V30 1184 H 116.321 2.29848 1.12265 0
M  V30 1185 H 115.965 4.43676 2.47213 0
M  V30 1186 H 115.895 3.46617 3.96439 0
M  V30 1187 H 118.386 2.777 2.56302 0
M  V30 1188 H 118.699 6.0844 4.76467 0
M  V30 1189 H 117.044 5.46758 4.29047 0
M  V30 1190 H 120.235 3.49643 3.11236 0
M  V30 1191 H 120.408 5.00448 4.1165 0
M  V30 1192 N 113.814 -1.1601 1.06675 0
M  V30 1193 C 114.744 -2.22688 0.702307 0
M  V30 1194 C 115.725 -1.67306 -0.307032 0
M  V30 1195 O 116.91 -1.93352 -0.181305 0
M  V30 1196 C 114.04 -3.47178 0.092038 0
M  V30 1197 C 112.994 -4.15477 1.02777 0
M  V30 1198 C 112.32 -5.33963 0.28061 0
M  V30 1199 C 113.62 -4.66019 2.35846 0
M  V30 1200 H 115.314 -2.53429 1.59419 0
M  V30 1201 H 112.86 -1.21813 0.767961 0
M  V30 1202 H 114.813 -4.21037 -0.174814 0
M  V30 1203 H 113.537 -3.15749 -0.834877 0
M  V30 1204 H 112.196 -3.43549 1.27944 0
M  V30 1205 H 111.844 -4.98788 -0.649545 0
M  V30 1206 H 111.544 -5.806 0.904258 0
M  V30 1207 H 113.068 -6.10596 0.021396 0
M  V30 1208 H 114.482 -5.3144 2.15045 0
M  V30 1209 H 112.879 -5.23293 2.93743 0
M  V30 1210 H 113.949 -3.82023 2.98641 0
M  V30 1211 N 115.292 -0.849877 -1.32721 0
M  V30 1212 C 116.54 -0.450032 -1.97026 0
M  V30 1213 C 116.861 0.996604 -1.67609 0
M  V30 1214 O 116.131 1.6958 -0.980786 0
M  V30 1215 H 114.711 -0.163426 -0.728904 0
M  V30 1216 H 117.373 -1.08526 -1.6189 0
M  V30 1217 H 116.469 -0.591146 -3.0645 0
M  V30 1218 N 116.77 1.45427 -0.607355 0
M  V30 1219 C 117.72 2.27612 0.133038 0
M  V30 1220 C 118.704 1.37307 0.838785 0
M  V30 1221 O 119.896 1.61299 0.728813 0
M  V30 1222 C 117.025 3.24173 1.12991 0
M  V30 1223 C 116.111 4.21965 0.425011 0
M  V30 1224 N 116.502 5.02982 -0.533217 0
M  V30 1225 C 114.8 4.40899 0.672593 0
M  V30 1226 C 115.501 5.73931 -0.947518 0
M  V30 1227 N 114.477 5.42819 -0.291321 0
M  V30 1228 H 118.279 2.87649 -0.602935 0
M  V30 1229 H 115.793 1.56576 -0.431006 0
M  V30 1230 H 117.79 3.81783 1.67473 0
M  V30 1231 H 116.45 2.65696 1.86644 0
M  V30 1232 H 117.461 5.09843 -0.90995 0
M  V30 1233 H 114.138 3.93547 1.39382 0
M  V30 1234 H 115.528 6.49037 -1.73782 0
M  V30 1235 N 118.248 0.346503 1.53744 0
M  V30 1236 C 119.488 -0.249413 2.02873 0
M  V30 1237 C 119.852 -1.47532 1.22876 0
M  V30 1238 O 121.053 -2.1456 1.61918 0
M  V30 1239 C 119.324 -0.552909 3.53097 0
M  V30 1240 S 120.883 -1.12521 4.24128 0
M  V30 1241 H 117.701 -0.074042 0.707134 0
M  V30 1242 H 120.303 0.48495 1.8939 0
M  V30 1243 H 119.007 0.347083 4.0893 0
M  V30 1244 H 118.538 -1.31686 3.70705 0
M  V30 1245 H 120.553 -2.41075 4.33702 0
M  V30 1246 N 119.726 -1.57421 0.075193 0
M  V30 1247 C 121.137 -1.81021 -0.456964 0
M  V30 1248 C 121.488 -0.98936 -1.69429 0
M  V30 1249 O 120.613 -0.212865 -2.15351 0
M  V30 1250 C 121.208 -3.28329 -0.83581 0
M  V30 1251 C 119.767 -3.52764 -1.31281 0
M  V30 1252 C 118.914 -2.75676 -0.299648 0
M  V30 1253 H 121.865 -1.55822 0.300856 0
M  V30 1254 H 121.886 -3.40564 -1.69696 0
M  V30 1255 H 121.398 -3.88046 0.0649238 0
M  V30 1256 H 119.499 -2.98355 -2.23193 0
M  V30 1257 H 119.612 -4.61451 -1.28839 0
M  V30 1258 H 117.976 -2.42538 -0.777641 0
M  V30 1259 H 118.759 -3.38132 0.593417 0
M  V30 1260 N 121.204 0.198386 -1.56346 0
M  V30 1261 C 122.481 0.944982 -1.71258 0
M  V30 1262 C 122.861 2.0151 -0.629048 0
M  V30 1263 O 122.209 2.25639 0.360473 0
M  V30 1264 C 122.419 1.5344 -3.1346 0
M  V30 1265 C 123.767 2.01778 -3.73591 0
M  V30 1266 O 124.791 1.63288 -3.16568 0
M  V30 1267 O 123.65 2.72594 -4.73661 0
M  V30 1268 H 120.744 0.442939 -0.69838 0
M  V30 1269 H 123.29 0.188342 -1.68652 0
M  V30 1270 H 122.062 0.762869 -3.83792 0
M  V30 1271 H 121.685 2.35596 -3.20282 0
M  V30 1272 N 122.682 1.50554 0.465978 0
M  V30 1273 C 124.093 1.54599 1.04671 0
M  V30 1274 C 124.444 0.352488 1.93008 0
M  V30 1275 O 123.569 -0.534044 2.09707 0
M  V30 1276 C 124.164 2.80166 1.90505 0
M  V30 1277 C 122.723 2.86876 2.43678 0
M  V30 1278 C 121.87 2.48947 1.22151 0
M  V30 1279 H 124.821 1.56744 0.248384 0
M  V30 1280 H 124.842 2.62311 2.75633 0
M  V30 1281 H 124.354 3.67013 1.26186 0
M  V30 1282 H 122.455 2.04393 3.11536 0
M  V30 1283 H 122.568 3.89885 2.78436 0
M  V30 1284 H 120.932 2.01498 1.5579 0
M  V30 1285 H 121.715 3.38107 0.594866 0
M  V30 1286 N 124.16 -0.719506 1.40217 0
M  V30 1287 C 125.406 -1.48152 1.38488 0
M  V30 1288 C 125.739 -1.94195 -0.0141867 0
M  V30 1289 O 125.014 -1.67884 -0.982096 0
M  V30 1290 C 125.297 -2.71035 2.37091 0
M  V30 1291 C 125.15 -2.30912 3.86005 0
M  V30 1292 C 126.469 -3.73182 2.33288 0
M  V30 1293 H 123.588 -0.537395 0.504357 0
M  V30 1294 H 126.23 -0.821472 1.71324 0
M  V30 1295 H 124.38 -3.27352 2.0922 0
M  V30 1296 H 126.052 -1.80107 4.24687 0
M  V30 1297 H 124.295 -1.62958 4.02029 0
M  V30 1298 H 124.966 -3.18978 4.50508 0
M  V30 1299 H 127.442 -3.26485 2.57966 0
M  V30 1300 H 126.318 -4.56806 3.04334 0
M  V30 1301 H 126.579 -4.21202 1.34317 0
M  V30 1302 N 125.638 -1.25649 -0.95132 0
M  V30 1303 C 126.568 -1.08808 -2.06599 0
M  V30 1304 C 127.549 0.00382547 -1.701 0
M  V30 1305 O 128.734 -0.166325 -1.93486 0
M  V30 1306 C 125.864 -0.709542 -3.39975 0
M  V30 1307 C 124.818 -1.75206 -3.90496 0
M  V30 1308 C 124.144 -1.22811 -5.20405 0
M  V30 1309 C 125.444 -3.15153 -4.16504 0
M  V30 1310 H 127.138 -2.02048 -2.20946 0
M  V30 1311 H 124.684 -0.972835 -1.06169 0
M  V30 1312 H 126.637 -0.578649 -4.17408 0
M  V30 1313 H 125.361 0.258556 -3.25575 0
M  V30 1314 H 124.02 -1.87145 -3.15234 0
M  V30 1315 H 123.668 -0.250145 -5.02378 0
M  V30 1316 H 123.368 -1.92492 -5.55176 0
M  V30 1317 H 124.892 -1.10968 -6.00432 0
M  V30 1318 H 126.306 -3.06349 -4.84586 0
M  V30 1319 H 124.703 -3.82333 -4.62538 0
M  V30 1320 H 125.773 -3.61966 -3.22658 0
M  V30 1321 N 127.117 1.15442 -1.07289 0
M  V30 1322 C 128.363 1.86489 -0.796846 0
M  V30 1323 C 128.696 1.82078 0.675371 0
M  V30 1324 O 127.971 1.24346 1.4956 0
M  V30 1325 C 128.254 3.35626 -1.30489 0
M  V30 1326 C 128.107 3.48673 -2.84161 0
M  V30 1327 C 129.426 4.30357 -0.920907 0
M  V30 1328 H 126.545 0.677144 -0.290939 0
M  V30 1329 H 129.187 1.35633 -1.33056 0
M  V30 1330 H 127.337 3.79068 -0.850883 0
M  V30 1331 H 129.009 3.14099 -3.37846 0
M  V30 1332 H 127.252 2.90253 -3.22391 0
M  V30 1333 H 127.923 4.53453 -3.14777 0
M  V30 1334 H 130.399 3.94871 -1.3121 0
M  V30 1335 H 129.275 5.33193 -1.30372 0
M  V30 1336 H 129.536 4.4176 0.173226 0
M  V30 1337 N 128.595 0.856903 1.32268 0
M  V30 1338 C 129.543 0.291987 2.3076 0
M  V30 1339 C 130.537 -0.585857 1.58947 0
M  V30 1340 O 131.743 -0.47341 1.73663 0
M  V30 1341 H 128.118 0.075721 0.748178 0
M  V30 1342 H 130.089 1.13687 2.75895 0
M  V30 1343 C 128.838 -0.502869 3.44044 0
M  V30 1344 H 128.161 0.163328 3.99466 0
M  V30 1345 H 129.601 -0.863691 4.1511 0
M  V30 1346 C 128.06 -1.68898 2.91505 0
M  V30 1347 O 128.59 -2.78811 2.89184 0
M  V30 1348 N 126.796 -1.51679 2.47875 0
M  V30 1349 H 126.343 -0.622666 2.49961 0
M  V30 1350 H 126.301 -2.31184 2.13076 0
M  V30 1351 N 130.073 -1.45103 0.615059 0
M  V30 1352 C 131.321 -2.01784 0.112955 0
M  V30 1353 C 131.642 -1.48504 -1.26378 0
M  V30 1354 O 130.912 -0.682245 -1.83636 0
M  V30 1355 H 129.492 -0.745993 0.0387668 0
M  V30 1356 H 132.154 -1.77808 0.798141 0
M  V30 1357 H 131.25 -3.12025 0.0684069 0
M  V30 1358 N 131.551 -0.354651 -1.53558 0
M  V30 1359 C 132.461 0.50515 -2.29097 0
M  V30 1360 C 133.477 1.10223 -1.34636 0
M  V30 1361 O 134.653 1.11553 -1.67684 0
M  V30 1362 C 131.718 1.63479 -3.05738 0
M  V30 1363 C 130.779 1.06636 -4.15845 0
M  V30 1364 C 130.012 2.14217 -4.88822 0
M  V30 1365 O 130.235 3.35137 -4.61562 0
M  V30 1366 O 129.169 1.77887 -5.75013 0
M  V30 1367 H 132.995 -0.109237 -3.03503 0
M  V30 1368 H 130.58 -0.119357 -1.48922 0
M  V30 1369 H 132.462 2.2918 -3.5363 0
M  V30 1370 H 131.137 2.23478 -2.34178 0
M  V30 1371 H 130.044 0.373565 -3.7223 0
M  V30 1372 H 131.377 0.511081 -4.89539 0
M  V30 1373 N 133.029 1.57378 -0.0835403 0
M  V30 1374 C 134.276 1.9393 0.58287 0
M  V30 1375 C 134.604 0.964455 1.68904 0
M  V30 1376 O 133.859 -0.0179474 1.95692 0
M  V30 1377 C 134.158 3.37063 1.1884 0
M  V30 1378 C 133.824 4.50424 0.207194 0
M  V30 1379 C 132.486 4.81159 -0.0627115 0
M  V30 1380 C 134.838 5.19136 -0.463426 0
M  V30 1381 C 132.166 5.77939 -1.01012 0
M  V30 1382 C 134.518 6.16931 -1.39924 0
M  V30 1383 C 133.182 6.46078 -1.67749 0
M  V30 1384 H 132.452 0.70964 0.213287 0
M  V30 1385 H 135.099 1.90856 -0.156916 0
M  V30 1386 H 133.404 3.3666 2.00418 0
M  V30 1387 H 135.101 3.6264 1.71153 0
M  V30 1388 H 131.691 4.2646 0.427747 0
M  V30 1389 H 135.875 4.95576 -0.268034 0
M  V30 1390 H 131.131 5.98842 -1.23283 0
M  V30 1391 H 135.305 6.69273 -1.92476 0
M  V30 1392 H 132.932 7.2088 -2.41321 0
M  V30 1393 N 134.507 -0.190092 1.56449 0
M  V30 1394 C 135.732 -0.929864 1.85387 0
M  V30 1395 C 136.157 -1.7585 0.667704 0
M  V30 1396 O 135.515 -1.77198 -0.383459 0
M  V30 1397 C 135.563 -1.79773 3.12593 0
M  V30 1398 O 134.667 -2.89713 2.93496 0
M  V30 1399 H 134.008 -0.261574 0.610307 0
M  V30 1400 H 136.538 -0.193896 2.03679 0
M  V30 1401 H 136.548 -2.20139 3.43515 0
M  V30 1402 H 135.223 -1.18892 3.98544 0
M  V30 1403 H 133.8 -2.53065 2.73884 0
M  V30 1404 N 135.985 -1.50799 -0.457987 0
M  V30 1405 C 137.21 -1.66496 -1.23668 0
M  V30 1406 C 137.635 -0.353288 -1.84752 0
M  V30 1407 O 136.993 0.684346 -1.67888 0
M  V30 1408 C 137.041 -2.76763 -2.3116 0
M  V30 1409 O 136.145 -2.38928 -3.36136 0
M  V30 1410 H 135.486 -0.555828 -0.363252 0
M  V30 1411 H 138.016 -1.9725 -0.543474 0
M  V30 1412 H 138.026 -3.00232 -2.76269 0
M  V30 1413 H 136.701 -3.71954 -1.86073 0
M  V30 1414 H 135.278 -2.25953 -2.96647 0
M  V30 1415 N 137.463 0.71206 -1.40597 0
M  V30 1416 C 138.688 1.50617 -1.42581 0
M  V30 1417 C 139.113 1.88079 -0.0282102 0
M  V30 1418 O 138.471 1.53511 0.964579 0
M  V30 1419 C 138.519 2.7557 -2.3258 0
M  V30 1420 O 137.623 3.72414 -1.77148 0
M  V30 1421 H 136.964 0.453966 -0.484573 0
M  V30 1422 H 139.494 0.876649 -1.84868 0
M  V30 1423 H 139.504 3.2406 -2.47889 0
M  V30 1424 H 138.179 2.47639 -3.34138 0
M  V30 1425 H 136.756 3.31276 -1.71204 0
M  V30 1426 N 138.941 1.26152 0.944643 0
M  V30 1427 C 140.189 1.11271 1.6871 0
M  V30 1428 C 140.51 -0.345166 1.91921 0
M  V30 1429 O 139.78 -1.24387 1.51343 0
M  V30 1430 H 138.36 0.408783 0.625224 0
M  V30 1431 H 141.022 1.58427 1.1352 0
M  V30 1432 H 140.118 1.62879 2.66227 0
M  V30 1433 N 140.419 -1.14872 1.07899 0
M  V30 1434 C 141.83 -1.67367 0.827363 0
M  V30 1435 C 142.181 -1.85236 -0.646693 0
M  V30 1436 O 141.306 -1.55974 -1.50004 0
M  V30 1437 C 141.901 -3.04016 1.49532 0
M  V30 1438 C 140.46 -3.53566 1.29106 0
M  V30 1439 C 139.607 -2.29161 1.56143 0
M  V30 1440 H 142.558 -0.990083 1.24028 0
M  V30 1441 H 142.579 -3.69219 0.919643 0
M  V30 1442 H 142.091 -2.90978 2.56814 0
M  V30 1443 H 140.192 -3.71835 0.238713 0
M  V30 1444 H 140.305 -4.34661 2.01511 0
M  V30 1445 H 138.669 -2.34978 0.982717 0
M  V30 1446 H 139.452 -2.18705 2.64619 0
M  V30 1447 N 141.898 -0.863906 -1.31812 0
M  V30 1448 C 143.144 -0.472535 -1.97218 0
M  V30 1449 C 143.477 0.971394 -1.68159 0
M  V30 1450 O 142.752 1.68309 -0.974798 0
M  V30 1451 C 143.035 -0.723054 -3.52766 0
M  V30 1452 C 142.888 -2.21608 -3.91421 0
M  V30 1453 C 144.207 -0.185522 -4.39709 0
M  V30 1454 H 141.326 -0.173158 -0.71637 0
M  V30 1455 H 143.968 -1.08403 -1.56041 0
M  V30 1456 H 142.118 -0.202577 -3.87971 0
M  V30 1457 H 143.79 -2.80334 -3.66347 0
M  V30 1458 H 142.033 -2.691 -3.40246 0
M  V30 1459 H 142.704 -2.34203 -4.99853 0
M  V30 1460 H 145.18 -0.630726 -4.11292 0
M  V30 1461 H 144.056 -0.390306 -5.47511 0
M  V30 1462 H 144.317 0.912229 -4.32586 0
M  V30 1463 N 143.376 1.44774 -0.622745 0
M  V30 1464 C 144.324 2.32387 0.0994683 0
M  V30 1465 C 145.318 1.46859 0.844326 0
M  V30 1466 O 146.524 1.63254 0.758174 0
M  V30 1467 H 142.899 0.750273 0.0509291 0
M  V30 1468 H 144.87 2.91062 -0.65767 0
M  V30 1469 C 143.619 3.30723 1.07319 0
M  V30 1470 H 142.942 3.96541 0.509462 0
M  V30 1471 H 144.382 3.94725 1.54817 0
M  V30 1472 C 142.841 2.59021 2.15429 0
M  V30 1473 O 143.371 2.38286 3.23393 0
M  V30 1474 N 141.577 2.189 1.91131 0
M  V30 1475 H 141.124 2.35964 1.03337 0
M  V30 1476 H 141.082 1.71251 2.63668 0
M  V30 1477 N 144.854 0.36279 1.53368 0
M  V30 1478 C 146.1 -0.228113 2.01513 0
M  V30 1479 C 146.433 -1.48648 1.2497 0
M  V30 1480 O 145.708 -1.91459 0.342616 0
M  V30 1481 C 145.991 -0.522884 3.56284 0
M  V30 1482 C 145.844 0.74892 4.43521 0
M  V30 1483 C 147.163 -1.32461 4.19693 0
M  V30 1484 H 144.282 -0.0814343 0.732487 0
M  V30 1485 H 146.924 0.48713 1.83649 0
M  V30 1486 H 145.074 -1.1322 3.71636 0
M  V30 1487 H 146.746 1.38648 4.39971 0
M  V30 1488 H 144.989 1.36986 4.11603 0
M  V30 1489 H 145.66 0.497667 5.49752 0
M  V30 1490 H 148.136 -0.809203 4.08156 0
M  V30 1491 H 147.012 -1.49961 5.28018 0
M  V30 1492 H 147.273 -2.33232 3.75573 0
M  V30 1493 N 146.332 -1.57332 0.0918853 0
M  V30 1494 C 147.557 -1.98995 -0.584442 0
M  V30 1495 C 147.982 -0.970528 -1.61128 0
M  V30 1496 O 147.34 0.0613904 -1.81196 0
M  V30 1497 C 147.388 -3.39636 -1.21161 0
M  V30 1498 O 146.492 -3.40447 -2.32744 0
M  V30 1499 H 145.833 -0.647165 -0.148572 0
M  V30 1500 H 148.363 -2.03873 0.172347 0
M  V30 1501 H 148.373 -3.7726 -1.55367 0
M  V30 1502 H 147.048 -4.13356 -0.459313 0
M  V30 1503 H 145.625 -3.14614 -2.0018 0
M  V30 1504 N 147.81 0.181792 -1.56548 0
M  V30 1505 C 149.087 0.926765 -1.72251 0
M  V30 1506 C 149.467 2.00831 -0.650386 0
M  V30 1507 O 148.815 2.26008 0.336521 0
M  V30 1508 C 149.025 1.50106 -3.1507 0
M  V30 1509 C 150.373 1.97805 -3.75711 0
M  V30 1510 O 151.397 1.59922 -3.18282 0
M  V30 1511 O 150.256 2.67555 -4.76525 0
M  V30 1512 H 147.35 0.435506 -0.703039 0
M  V30 1513 H 149.896 0.170443 -1.68842 0
M  V30 1514 H 148.668 0.72212 -3.84579 0
M  V30 1515 H 148.291 2.32186 -3.22763 0
M  V30 1516 N 149.288 1.51039 0.449983 0
M  V30 1517 C 150.235 1.71439 1.54523 0
M  V30 1518 C 151.205 0.555871 1.56522 0
M  V30 1519 O 152.39 0.788871 1.73728 0
M  V30 1520 C 149.53 1.83384 2.92343 0
M  V30 1521 C 148.643 3.10873 2.9997 0
M  V30 1522 C 147.778 3.13488 4.28834 0
M  V30 1523 C 146.817 4.35343 4.30282 0
M  V30 1524 N 145.954 4.35579 5.5065 0
M  V30 1525 H 150.794 2.64934 1.36433 0
M  V30 1526 H 148.331 1.31312 0.662982 0
M  V30 1527 H 150.289 1.88291 3.72293 0
M  V30 1528 H 148.919 0.933086 3.0902 0
M  V30 1529 H 147.971 3.15336 2.12761 0
M  V30 1530 H 149.283 4.00814 2.96901 0
M  V30 1531 H 148.437 3.17241 5.17149 0
M  V30 1532 H 147.176 2.21414 4.34543 0
M  V30 1533 H 146.181 4.3178 3.40362 0
M  V30 1534 H 147.406 5.28668 4.26248 0
M  V30 1535 H 145.352 3.46369 5.57104 0
M  V30 1536 H 145.269 5.19313 5.49409 0
M  V30 1537 H 146.537 4.43507 6.41032 0
M  V30 1538 N 150.766 -0.704594 1.40972 0
M  V30 1539 C 152.015 -1.46018 1.39146 0
M  V30 1540 C 152.328 -1.956 0.000589254 0
M  V30 1541 O 153.534 -2.71137 -0.1403 0
M  V30 1542 C 151.99 -2.63996 2.4461 0
M  V30 1543 C 151.598 -2.21238 3.89561 0
M  V30 1544 C 153.342 -3.41677 2.51907 0
M  V30 1545 C 151.249 -3.3612 4.86598 0
M  V30 1546 H 150.179 -0.548444 0.517422 0
M  V30 1547 H 152.83 -0.765784 1.66757 0
M  V30 1548 H 151.212 -3.3566 2.10115 0
M  V30 1549 H 152.386 -1.56923 4.33257 0
M  V30 1550 H 150.701 -1.56574 3.85841 0
M  V30 1551 H 153.298 -4.27182 3.2159 0
M  V30 1552 H 153.641 -3.86247 1.55303 0
M  V30 1553 H 154.174 -2.77064 2.85448 0
M  V30 1554 H 150.913 -2.96572 5.84573 0
M  V30 1555 H 150.433 -3.99315 4.47557 0
M  V30 1556 H 152.112 -4.02029 5.06934 0
M  V30 1557 N 152.244 -1.26651 -0.937939 0
M  V30 1558 C 153.472 -1.15173 -1.7188 0
M  V30 1559 C 153.887 0.292668 -1.86518 0
M  V30 1560 O 153.244 1.20014 -1.37488 0
M  V30 1561 C 153.295 -1.81925 -3.12387 0
M  V30 1562 O 153.016 -3.2072 -2.98446 0
M  V30 1563 C 154.517 -1.76442 -4.06673 0
M  V30 1564 H 151.737 -0.400911 -0.538063 0
M  V30 1565 H 154.281 -1.67332 -1.1756 0
M  V30 1566 H 152.436 -1.33696 -3.63599 0
M  V30 1567 H 152.85 -3.53802 -3.872 0
M  V30 1568 H 154.324 -2.27781 -5.02812 0
M  V30 1569 H 154.801 -0.731608 -4.33064 0
M  V30 1570 H 155.407 -2.24238 -3.61382 0
M  V30 1571 N 153.722 1.14298 -1.08507 0
M  V30 1572 C 154.969 1.85359 -0.815373 0
M  V30 1573 C 155.297 1.83001 0.658865 0
M  V30 1574 O 154.552 1.25655 1.50031 0
M  V30 1575 C 154.851 3.33547 -1.28379 0
M  V30 1576 C 154.517 3.56093 -2.76602 0
M  V30 1577 C 153.179 3.61955 -3.17084 0
M  V30 1578 C 155.531 3.64834 -3.72217 0
M  V30 1579 C 152.859 3.74082 -4.51973 0
M  V30 1580 C 155.211 3.78487 -5.06883 0
M  V30 1581 C 153.875 3.82598 -5.46969 0
M  V30 1582 H 153.145 0.678276 -0.298366 0
M  V30 1583 H 155.792 1.35002 -1.35819 0
M  V30 1584 H 154.097 3.86191 -0.660593 0
M  V30 1585 H 155.794 3.86959 -1.05186 0
M  V30 1586 H 152.384 3.52179 -2.4427 0
M  V30 1587 H 156.568 3.59595 -3.42061 0
M  V30 1588 H 151.824 3.75527 -4.82483 0
M  V30 1589 H 155.998 3.84193 -5.80834 0
M  V30 1590 H 153.625 3.91747 -6.51489 0
M  V30 1591 N 155.201 0.870884 1.31352 0
M  V30 1592 C 156.134 0.271983 2.26573 0
M  V30 1593 C 157.112 -0.599385 1.51149 0
M  V30 1594 O 158.296 -0.552605 1.80218 0
M  V30 1595 C 155.423 -0.614801 3.33073 0
M  V30 1596 C 154.469 0.185342 4.26097 0
M  V30 1597 S 155.302 1.56444 5.12138 0
M  V30 1598 C 156.458 0.683807 6.22153 0
M  V30 1599 H 156.691 1.07916 2.77023 0
M  V30 1600 H 154.224 0.669459 1.39132 0
M  V30 1601 H 156.182 -1.12074 3.94905 0
M  V30 1602 H 154.843 -1.39593 2.81376 0
M  V30 1603 H 154.036 -0.490771 5.01605 0
M  V30 1604 H 153.638 0.623415 3.68768 0
M  V30 1605 H 155.93 -0.10521 6.77418 0
M  V30 1606 H 156.873 1.41004 6.93919 0
M  V30 1607 H 157.281 0.250952 5.63942 0
M  V30 1608 N 156.679 -1.44442 0.630414 0
M  V30 1609 C 157.919 -2.03934 0.137919 0
M  V30 1610 C 158.283 -1.48509 -1.21692 0
M  V30 1611 O 159.484 -1.99499 -1.80149 0
M  V30 1612 C 157.755 -3.57187 0.123373 0
M  V30 1613 S 159.314 -4.37741 -0.304604 0
M  V30 1614 H 156.132 -0.708401 0.0607353 0
M  V30 1615 H 158.734 -1.76835 0.833643 0
M  V30 1616 H 157.438 -3.95032 1.11256 0
M  V30 1617 H 156.969 -3.88895 -0.59362 0
M  V30 1618 H 158.984 -4.71403 -1.54897 0
M  V30 1619 N 158.157 -0.370918 -1.53173 0
M  V30 1620 C 159.105 0.488101 -2.27421 0
M  V30 1621 C 160.099 1.07884 -1.30604 0
M  V30 1622 O 161.305 1.02143 -1.48212 0
M  V30 1623 H 157.68 0.176134 -0.731082 0
M  V30 1624 H 159.651 -0.159815 -2.97972 0
M  V30 1625 C 158.4 1.61306 -3.08019 0
M  V30 1626 H 157.723 1.1678 -3.82364 0
M  V30 1627 H 159.163 2.18872 -3.63141 0
M  V30 1628 C 157.622 2.55848 -2.19188 0
M  V30 1629 O 158.152 3.58799 -1.80626 0
M  V30 1630 N 156.358 2.2516 -1.83715 0
M  V30 1631 H 155.905 1.41476 -2.15273 0
M  V30 1632 H 155.863 2.8867 -1.24567 0
M  V30 1633 N 159.635 1.57281 -0.100228 0
M  V30 1634 C 160.912 1.86014 0.604812 0
M  V30 1635 C 161.292 0.998025 1.86018 0
M  V30 1636 O 160.64 0.0718184 2.28387 0
M  V30 1637 C 160.85 3.36784 0.915278 0
M  V30 1638 C 162.198 4.04957 1.27651 0
M  V30 1639 O 163.222 3.41695 1.00613 0
M  V30 1640 O 162.081 5.16593 1.7831 0
M  V30 1641 H 159.175 0.76942 0.303185 0
M  V30 1642 H 161.721 1.69176 -0.133313 0
M  V30 1643 H 160.493 3.91292 0.0248896 0
M  V30 1644 H 160.116 3.58987 1.70921 0
M  V30 1645 N 161.113 -0.173488 1.56642 0
M  V30 1646 C 162.063 -1.21941 1.92651 0
M  V30 1647 C 163.047 -1.39912 0.794577 0
M  V30 1648 O 164.239 -1.41919 1.05773 0
M  V30 1649 C 161.368 -2.55935 2.28806 0
M  V30 1650 C 160.454 -2.41667 3.48508 0
M  V30 1651 N 160.845 -1.9711 4.65813 0
M  V30 1652 C 159.143 -2.72499 3.53072 0
M  V30 1653 C 159.844 -1.95253 5.47952 0
M  V30 1654 N 158.82 -2.37575 4.88937 0
M  V30 1655 H 162.622 -0.866581 2.80834 0
M  V30 1656 H 160.136 -0.381776 1.57849 0
M  V30 1657 H 162.133 -3.31511 2.52797 0
M  V30 1658 H 160.793 -2.92022 1.41961 0
M  V30 1659 H 161.804 -1.67481 4.90072 0
M  V30 1660 H 158.481 -3.12639 2.767 0
M  V30 1661 H 159.871 -1.6252 6.51948 0
M  V30 1662 N 162.591 -1.51276 -0.441967 0
M  V30 1663 C 163.821 -1.67273 -1.21257 0
M  V30 1664 C 164.229 -0.367624 -1.85594 0
M  V30 1665 O 163.572 0.663349 -1.71305 0
M  V30 1666 C 163.634 -2.72807 -2.34129 0
M  V30 1667 C 163.298 -4.1554 -1.90198 0
M  V30 1668 C 164.295 -5.00471 -1.40801 0
M  V30 1669 C 161.98 -4.61616 -1.9803 0
M  V30 1670 C 163.974 -6.29536 -0.998174 0
M  V30 1671 C 161.661 -5.90679 -1.56658 0
M  V30 1672 C 162.659 -6.74466 -1.07633 0
M  V30 1673 O 162.347 -8.01116 -0.668459 0
M  V30 1674 H 162.079 -0.564614 -0.371734 0
M  V30 1675 H 164.633 -1.9843 -0.530521 0
M  V30 1676 H 162.863 -2.36954 -3.05597 0
M  V30 1677 H 164.552 -2.77729 -2.96009 0
M  V30 1678 H 165.318 -4.66079 -1.34148 0
M  V30 1679 H 161.197 -3.96526 -2.35135 0
M  V30 1680 H 164.741 -6.94885 -0.61482 0
M  V30 1681 H 160.638 -6.24586 -1.62979 0
M  V30 1682 H 161.406 -8.14633 -0.794722 0
M  V30 1683 N 164.069 0.697108 -1.41344 0
M  V30 1684 C 165.318 1.45279 -1.39918 0
M  V30 1685 C 165.631 1.95597 -0.0109624 0
M  V30 1686 O 166.837 2.71208 0.125919 0
M  V30 1687 C 165.293 2.62695 -2.46007 0
M  V30 1688 C 164.901 2.19169 -3.90729 0
M  V30 1689 C 166.645 3.40336 -2.53715 0
M  V30 1690 C 164.552 3.33535 -4.88373 0
M  V30 1691 H 163.482 0.545692 -0.520323 0
M  V30 1692 H 166.133 0.756929 -1.67161 0
M  V30 1693 H 164.515 3.34541 -2.11892 0
M  V30 1694 H 165.689 1.54623 -4.34083 0
M  V30 1695 H 164.004 1.54525 -3.86666 0
M  V30 1696 H 166.601 4.2547 -3.2385 0
M  V30 1697 H 166.944 3.85418 -1.5735 0
M  V30 1698 H 167.477 2.75546 -2.86913 0
M  V30 1699 H 164.216 2.93468 -5.86137 0
M  V30 1700 H 163.736 3.96936 -4.49668 0
M  V30 1701 H 165.415 3.99335 -5.09059 0
M  V30 1702 N 165.547 1.27147 0.931209 0
M  V30 1703 C 166.477 1.12081 2.04842 0
M  V30 1704 C 167.458 0.0232364 1.70084 0
M  V30 1705 O 168.643 0.197085 1.93197 0
M  V30 1706 C 165.773 0.76354 3.38803 0
M  V30 1707 C 164.727 1.81396 3.87659 0
M  V30 1708 C 164.053 1.31075 5.18385 0
M  V30 1709 C 165.353 3.21739 4.11438 0
M  V30 1710 H 167.047 2.05537 2.17703 0
M  V30 1711 H 164.593 0.989603 1.04608 0
M  V30 1712 H 166.546 0.644982 4.16435 0
M  V30 1713 H 165.27 -0.206727 3.25945 0
M  V30 1714 H 163.929 1.92136 3.12217 0
M  V30 1715 H 163.577 0.330037 5.01916 0
M  V30 1716 H 163.277 2.013 5.52044 0
M  V30 1717 H 164.801 1.20506 5.98591 0
M  V30 1718 H 166.215 3.14019 4.79651 0
M  V30 1719 H 164.612 3.89644 4.56397 0
M  V30 1720 H 165.682 3.67054 3.16859 0
M  V30 1721 N 167.025 -1.13721 1.09112 0
M  V30 1722 C 167.972 -2.19031 0.727591 0
M  V30 1723 C 168.942 -1.63555 -0.289656 0
M  V30 1724 O 170.127 -1.90023 -0.172026 0
M  V30 1725 C 167.267 -3.4477 0.15082 0
M  V30 1726 C 166.38 -4.14365 1.22172 0
M  V30 1727 C 165.515 -5.27709 0.608042 0
M  V30 1728 C 164.554 -5.89147 1.66047 0
M  V30 1729 N 163.691 -6.93929 1.06806 0
M  V30 1730 H 168.531 -2.49475 1.62991 0
M  V30 1731 H 166.068 -1.22499 0.81439 0
M  V30 1732 H 168.026 -4.16714 -0.201358 0
M  V30 1733 H 166.656 -3.14787 -0.714783 0
M  V30 1734 H 165.708 -3.40737 1.69122 0
M  V30 1735 H 167.02 -4.56114 2.01895 0
M  V30 1736 H 166.174 -6.06355 0.204523 0
M  V30 1737 H 164.913 -4.872 -0.220769 0
M  V30 1738 H 163.918 -5.09198 2.07357 0
M  V30 1739 H 165.143 -6.31729 2.49189 0
M  V30 1740 H 163.089 -6.55483 0.260476 0
M  V30 1741 H 163.006 -7.34202 1.8023 0
M  V30 1742 H 164.274 -7.76434 0.690644 0
M  V30 1743 N 168.503 -0.877838 -1.30888 0
M  V30 1744 C 169.751 -0.491723 -1.96027 0
M  V30 1745 C 170.072 0.960827 -1.69685 0
M  V30 1746 O 169.342 1.67462 -1.01654 0
M  V30 1747 H 167.922 -0.17885 -0.725273 0
M  V30 1748 H 170.584 -1.11935 -1.59551 0
M  V30 1749 H 169.68 -0.656016 -3.05128 0
M  V30 1750 N 169.982 1.44106 -0.638065 0
M  V30 1751 C 171.207 2.0685 -0.150916 0
M  V30 1752 C 171.632 1.47417 1.16833 0
M  V30 1753 O 170.99 0.578264 1.71831 0
M  V30 1754 C 171.038 3.60555 -0.05708 0
M  V30 1755 O 170.142 4.00465 0.984972 0
M  V30 1756 H 169.483 0.658151 -0.0879399 0
M  V30 1757 H 172.013 1.84865 -0.876707 0
M  V30 1758 H 172.023 4.07789 0.131232 0
M  V30 1759 H 170.698 4.03193 -1.02021 0
M  V30 1760 H 169.275 3.64849 0.770672 0
M  V30 1761 N 171.46 0.379036 1.52974 0
M  V30 1762 C 172.408 -0.476033 2.27677 0
M  V30 1763 C 173.402 -1.0719 1.31174 0
M  V30 1764 O 174.608 -1.01355 1.48752 0
M  V30 1765 H 170.983 -0.172255 0.732006 0
M  V30 1766 H 172.954 0.175615 2.97883 0
M  V30 1767 C 171.703 -1.5967 3.0887 0
M  V30 1768 H 171.026 -1.1475 3.82978 0
M  V30 1769 H 172.466 -2.16943 3.64296 0
M  V30 1770 C 170.925 -2.54682 2.20542 0
M  V30 1771 O 171.455 -3.57836 1.82527 0
M  V30 1772 N 169.661 -2.24183 1.84907 0
M  V30 1773 H 169.208 -1.40333 2.1602 0
M  V30 1774 H 169.166 -2.88006 1.26096 0
M  V30 1775 N 172.938 -1.57226 0.108567 0
M  V30 1776 C 174.354 -1.5766 -0.248058 0
M  V30 1777 C 174.554 -1.12063 -1.67464 0
M  V30 1778 O 173.61 -0.803236 -2.39383 0
M  V30 1779 C 174.923 -3.0069 -0.0242287 0
M  V30 1780 C 176.471 -3.12868 -0.0909372 0
M  V30 1781 C 176.946 -4.57879 0.105067 0
M  V30 1782 N 178.437 -4.63172 0.0506846 0
M  V30 1783 C 179.172 -5.73126 0.177396 0
M  V30 1784 N 178.668 -6.91866 0.359696 0
M  V30 1785 N 180.461 -5.61977 0.117709 0
M  V30 1786 H 172.612 -1.85169 1.04049 0
M  V30 1787 H 174.875 -0.85529 0.40888 0
M  V30 1788 H 174.581 -3.38299 0.961604 0
M  V30 1789 H 174.455 -3.6945 -0.76068 0
M  V30 1790 H 176.842 -2.75124 -1.06729 0
M  V30 1791 H 176.923 -2.46672 0.677225 0
M  V30 1792 H 176.567 -4.96321 1.07834 0
M  V30 1793 H 176.497 -5.22153 -0.682954 0
M  V30 1794 H 178.988 -3.778 -0.0871266 0
M  V30 1795 H 179.301 -7.71503 0.447529 0
M  V30 1796 H 177.646 -6.93874 0.395536 0
M  V30 1797 H 180.837 -4.68094 -0.0236741 0
M  V30 1798 H 181.01 -6.47627 0.219905 0
M  V30 1799 N 174.416 0.165178 -1.56732 0
M  V30 1800 C 175.641 0.900253 -1.86843 0
M  V30 1801 C 176.066 1.74766 -0.695596 0
M  V30 1802 O 175.424 1.77786 0.35522 0
M  V30 1803 C 175.472 1.74777 -3.15413 0
M  V30 1804 O 174.576 2.85007 -2.98068 0
M  V30 1805 H 173.917 0.251832 -0.614391 0
M  V30 1806 H 176.447 0.161468 -2.03962 0
M  V30 1807 H 176.457 2.14646 -3.46974 0
M  V30 1808 H 175.132 1.12537 -4.00385 0
M  V30 1809 H 173.709 2.48676 -2.77875 0
M  V30 1810 N 175.894 1.51508 0.433938 0
M  V30 1811 C 176.826 1.69266 1.54537 0
M  V30 1812 C 177.839 0.573276 1.52373 0
M  V30 1813 O 179.028 0.847698 1.57087 0
M  V30 1814 C 176.128 1.69524 2.93453 0
M  V30 1815 C 175.301 2.98101 3.20085 0
M  V30 1816 C 174.36 2.90502 4.38742 0
M  V30 1817 O 173.386 3.64442 4.3723 0
M  V30 1818 N 174.588 2.06586 5.42496 0
M  V30 1819 H 177.353 2.65145 1.39708 0
M  V30 1820 H 174.914 1.49437 0.622922 0
M  V30 1821 H 176.906 1.62004 3.70859 0
M  V30 1822 H 175.476 0.812245 3.01863 0
M  V30 1823 H 174.696 3.19464 2.30947 0
M  V30 1824 H 175.984 3.83207 3.34708 0
M  V30 1825 H 175.382 1.45896 5.46563 0
M  V30 1826 H 173.939 2.04943 6.18742 0
M  V30 1827 N 177.372 -0.689602 1.41712 0
M  V30 1828 C 178.612 -1.46184 1.42862 0
M  V30 1829 C 178.976 -1.91962 0.0382204 0
M  V30 1830 O 180.177 -2.68694 -0.0755019 0
M  V30 1831 C 178.448 -2.6371 2.4123 0
M  V30 1832 S 180.007 -3.52768 2.6096 0
M  V30 1833 H 176.825 -0.49947 0.506015 0
M  V30 1834 H 179.427 -0.804107 1.78198 0
M  V30 1835 H 178.131 -2.28293 3.41044 0
M  V30 1836 H 177.662 -3.3437 2.07269 0
M  V30 1837 H 179.677 -4.59146 1.88148 0
M  V30 1838 N 178.85 -1.27639 -0.924453 0
M  V30 1839 C 179.78 -1.13166 -2.04244 0
M  V30 1840 C 180.761 -0.032256 -1.70069 0
M  V30 1841 O 181.946 -0.207328 -1.9309 0
M  V30 1842 C 179.076 -0.781496 -3.38393 0
M  V30 1843 C 178.03 -1.83449 -3.86692 0
M  V30 1844 C 177.356 -1.33822 -5.17683 0
M  V30 1845 C 178.656 -3.23917 -4.09726 0
M  V30 1846 H 180.35 -2.06689 -2.1661 0
M  V30 1847 H 177.896 -0.995136 -1.04082 0
M  V30 1848 H 179.849 -0.667057 -4.16087 0
M  V30 1849 H 178.573 0.189439 -3.2605 0
M  V30 1850 H 177.232 -1.93789 -3.11193 0
M  V30 1851 H 176.88 -0.35665 -5.01734 0
M  V30 1852 H 176.58 -2.04224 -5.50968 0
M  V30 1853 H 178.104 -1.23679 -5.97943 0
M  V30 1854 H 179.518 -3.16559 -4.77978 0
M  V30 1855 H 177.915 -3.92059 -4.54324 0
M  V30 1856 H 178.985 -3.68729 -3.14908 0
M  V30 1857 N 180.328 1.1314 -1.09713 0
M  V30 1858 C 181.238 2.22242 -0.751367 0
M  V30 1859 C 182.254 1.72224 0.247938 0
M  V30 1860 O 183.43 2.01205 0.0885463 0
M  V30 1861 C 180.495 3.46231 -0.180274 0
M  V30 1862 C 179.556 4.11125 -1.2359 0
M  V30 1863 C 178.789 5.29195 -0.691966 0
M  V30 1864 O 179.012 5.68342 0.48414 0
M  V30 1865 O 177.946 5.84214 -1.44838 0
M  V30 1866 H 181.772 2.54197 -1.66186 0
M  V30 1867 H 179.357 1.21331 -0.871735 0
M  V30 1868 H 181.239 4.21185 0.134739 0
M  V30 1869 H 179.914 3.1597 0.703185 0
M  V30 1870 H 178.821 3.37985 -1.60366 0
M  V30 1871 H 180.154 4.45524 -2.09211 0
M  V30 1872 N 181.806 0.884767 1.30421 0
M  V30 1873 C 183.083 0.423185 1.90967 0
M  V30 1874 C 183.463 -1.09605 1.80416 0
M  V30 1875 O 182.811 -1.93126 1.22125 0
M  V30 1876 C 183.021 0.921056 3.36627 0
M  V30 1877 C 184.369 0.955903 4.137 0
M  V30 1878 O 185.393 0.867706 3.4547 0
M  V30 1879 O 184.252 1.08614 5.35598 0
M  V30 1880 H 181.346 0.129369 0.816819 0
M  V30 1881 H 183.892 0.973653 1.3899 0
M  V30 1882 H 182.664 1.96489 3.3839 0
M  V30 1883 H 182.287 0.349741 3.96059 0
M  V30 1884 N 183.284 -1.43765 0.645699 0
M  V30 1885 C 184.234 -2.27884 -0.0726442 0
M  V30 1886 C 185.218 -1.39483 -0.802086 0
M  V30 1887 O 186.41 -1.63174 -0.685791 0
M  V30 1888 C 183.539 -3.27055 -1.04356 0
M  V30 1889 C 182.625 -4.22944 -0.312985 0
M  V30 1890 N 183.016 -5.01391 0.666386 0
M  V30 1891 C 181.314 -4.42528 -0.55546 0
M  V30 1892 C 182.015 -5.71217 1.09935 0
M  V30 1893 N 180.991 -5.41856 0.435137 0
M  V30 1894 H 184.793 -2.85949 0.678988 0
M  V30 1895 H 182.307 -1.55378 0.472368 0
M  V30 1896 H 184.304 -3.86089 -1.57292 0
M  V30 1897 H 182.964 -2.70551 -1.79534 0
M  V30 1898 H 183.975 -5.07252 1.04481 0
M  V30 1899 H 180.652 -3.97104 -1.28899 0
M  V30 1900 H 182.042 -6.44202 1.90929 0
M  V30 1901 N 184.763 -0.387143 -1.52771 0
M  V30 1902 C 185.991 0.195869 -2.05971 0
M  V30 1903 C 186.406 1.40691 -1.25903 0
M  V30 1904 O 185.763 1.79931 -0.305134 0
M  V30 1905 C 185.814 0.56812 -3.57008 0
M  V30 1906 O 185.535 -0.594803 -4.34043 0
M  V30 1907 C 187.036 1.20723 -4.26545 0
M  V30 1908 H 184.256 0.0300578 -0.670326 0
M  V30 1909 H 186.8 -0.551749 -1.96916 0
M  V30 1910 H 184.955 1.26564 -3.66143 0
M  V30 1911 H 185.369 -0.289322 -5.23701 0
M  V30 1912 H 186.843 1.41807 -5.33474 0
M  V30 1913 H 187.32 2.17395 -3.81623 0
M  V30 1914 H 187.926 0.550535 -4.21722 0
M  V30 1915 N 186.241 1.57166 -0.116904 0
M  V30 1916 C 187.487 1.96206 0.536166 0
M  V30 1917 C 187.842 0.99915 1.64422 0
M  V30 1918 O 187.135 0.0288195 1.91578 0
M  V30 1919 C 187.329 3.39508 1.11664 0
M  V30 1920 C 187.158 4.49651 0.0663474 0
M  V30 1921 C 185.928 5.03982 -0.36474 0
M  V30 1922 C 188.126 5.09322 -0.713829 0
M  V30 1923 N 186.108 5.97699 -1.40102 0
M  V30 1924 C 187.479 5.98963 -1.60136 0
M  V30 1925 C 189.534 4.91989 -0.764948 0
M  V30 1926 C 188.237 6.73128 -2.53556 0
M  V30 1927 C 190.263 5.66833 -1.68685 0
M  V30 1928 C 189.625 6.56158 -2.56196 0
M  V30 1929 H 185.724 0.764203 0.165886 0
M  V30 1930 H 188.308 1.93623 -0.204535 0
M  V30 1931 H 186.479 3.42743 1.82707 0
M  V30 1932 H 188.211 3.65677 1.73386 0
M  V30 1933 H 184.966 4.73592 0.027252 0
M  V30 1934 H 185.39 6.49262 -1.91802 0
M  V30 1935 H 190.032 4.22676 -0.102501 0
M  V30 1936 H 187.75 7.41689 -3.20816 0
M  V30 1937 H 191.336 5.55427 -1.73181 0
M  V30 1938 H 190.216 7.13057 -3.26372 0
M  V30 1939 N 187.719 -0.156864 1.56817 0
M  V30 1940 C 188.682 -1.17781 1.96622 0
M  V30 1941 C 189.682 -1.36401 0.851555 0
M  V30 1942 O 190.872 -1.33561 1.11836 0
M  V30 1943 C 188.004 -2.54008 2.27361 0
M  V30 1944 H 189.197 -0.836564 2.87996 0
M  V30 1945 H 186.75 -0.39985 1.51099 0
M  V30 1946 H 187.485 -2.9312 1.38748 0
M  V30 1947 H 187.27 -2.41856 3.08623 0
M  V30 1948 H 188.76 -3.27558 2.59029 0
M  V30 1949 N 189.197 -1.51736 -0.425897 0
M  V30 1950 C 190.608 -1.5732 -1.00536 0
M  V30 1951 C 190.959 -0.403537 -1.92005 0
M  V30 1952 O 190.084 0.478256 -2.11049 0
M  V30 1953 C 190.679 -2.85119 -1.8301 0
M  V30 1954 C 189.238 -2.93236 -2.35987 0
M  V30 1955 C 188.385 -2.52098 -1.15508 0
M  V30 1956 H 191.336 -1.57348 -0.206739 0
M  V30 1957 H 191.357 -2.69526 -2.68581 0
M  V30 1958 H 190.869 -3.7023 -1.16411 0
M  V30 1959 H 188.97 -2.12581 -3.06007 0
M  V30 1960 H 189.083 -3.9713 -2.68001 0
M  V30 1961 H 187.447 -2.05558 -1.50393 0
M  V30 1962 H 188.23 -3.39565 -0.505014 0
M  V30 1963 N 190.675 0.682077 -1.42076 0
M  V30 1964 C 192.086 1.26246 -1.37546 0
M  V30 1965 C 192.437 1.96092 -0.0651481 0
M  V30 1966 O 191.562 1.99587 0.836297 0
M  V30 1967 C 192.157 2.29594 -2.49143 0
M  V30 1968 C 190.716 2.83175 -2.47969 0
M  V30 1969 C 189.863 1.57395 -2.28303 0
M  V30 1970 H 192.814 0.475937 -1.51395 0
M  V30 1971 H 192.835 3.11175 -2.18976 0
M  V30 1972 H 192.347 1.78729 -3.44496 0
M  V30 1973 H 190.448 3.3818 -1.56413 0
M  V30 1974 H 190.561 3.32687 -3.44755 0
M  V30 1975 H 188.925 1.83699 -1.76428 0
M  V30 1976 H 189.708 1.08507 -3.25701 0
M  V30 1977 N 192.153 1.28127 0.917671 0
M  V30 1978 C 193.4 1.15052 1.66641 0
M  V30 1979 C 193.728 -0.301677 1.92146 0
M  V30 1980 O 192.983 -1.23622 1.51711 0
M  V30 1981 C 193.282 1.89018 3.03327 0
M  V30 1982 C 192.948 3.38832 2.97496 0
M  V30 1983 C 191.61 3.79693 2.95613 0
M  V30 1984 C 193.962 4.34378 2.88036 0
M  V30 1985 C 191.29 5.14447 2.82066 0
M  V30 1986 C 193.642 5.69201 2.7603 0
M  V30 1987 C 192.306 6.09343 2.72502 0
M  V30 1988 H 191.576 0.421006 0.609783 0
M  V30 1989 H 194.223 1.58855 1.06945 0
M  V30 1990 H 192.528 1.37752 3.66785 0
M  V30 1991 H 194.225 1.76321 3.60156 0
M  V30 1992 H 190.815 3.06342 2.99754 0
M  V30 1993 H 194.999 4.03775 2.88581 0
M  V30 1994 H 190.255 5.44681 2.77728 0
M  V30 1995 H 194.429 6.42901 2.67678 0
M  V30 1996 H 192.056 7.13712 2.61762 0
M  V30 1997 N 193.631 -1.12557 1.10312 0
M  V30 1998 C 195.042 -1.65574 0.862678 0
M  V30 1999 C 195.393 -1.86566 -0.607256 0
M  V30 2000 O 194.518 -1.59121 -1.46662 0
M  V30 2001 C 195.113 -3.00776 1.55947 0
M  V30 2002 C 193.672 -3.50748 1.36576 0
M  V30 2003 C 192.819 -2.25797 1.60968 0
M  V30 2004 H 195.77 -0.963552 1.26101 0
M  V30 2005 H 195.791 -3.67185 0.997753 0
M  V30 2006 H 195.303 -2.85465 2.62928 0
M  V30 2007 H 193.404 -3.71245 0.317531 0
M  V30 2008 H 193.517 -4.30289 2.10686 0
M  V30 2009 H 191.881 -2.32841 1.03234 0
M  V30 2010 H 192.664 -2.13043 2.69198 0
M  V30 2011 N 195.109 -0.891671 -1.2995 0
M  V30 2012 C 196.358 -0.509521 -1.95158 0
M  V30 2013 C 196.671 0.947388 -1.71125 0
M  V30 2014 O 197.877 1.43669 -2.30372 0
M  V30 2015 C 196.333 -0.860315 -3.49466 0
M  V30 2016 C 195.941 -2.33545 -3.8231 0
M  V30 2017 C 197.685 -0.547687 -4.20952 0
M  V30 2018 C 195.592 -2.62752 -5.29826 0
M  V30 2019 H 194.522 -0.18682 -0.730489 0
M  V30 2020 H 197.173 -1.08756 -1.47798 0
M  V30 2021 H 195.555 -0.211285 -3.95436 0
M  V30 2022 H 196.729 -3.02936 -3.47227 0
M  V30 2023 H 195.044 -2.61629 -3.23944 0
M  V30 2024 H 197.641 -0.742854 -5.29515 0
M  V30 2025 H 197.984 0.51332 -4.13123 0
M  V30 2026 H 198.517 -1.1542 -3.80688 0
M  V30 2027 H 195.256 -3.6762 -5.42712 0
M  V30 2028 H 194.776 -1.97977 -5.66185 0
M  V30 2029 H 196.455 -2.48601 -5.97333 0
M  V30 2030 N 196.587 1.43421 -0.653314 0
M  V30 2031 C 197.827 2.03689 -0.170346 0
M  V30 2032 C 198.191 1.50427 1.19314 0
M  V30 2033 O 199.392 2.0234 1.76952 0
M  V30 2034 C 197.663 3.56946 -0.180183 0
M  V30 2035 S 199.222 4.38171 0.234925 0
M  V30 2036 H 196.04 0.707345 -0.0719976 0
M  V30 2037 H 198.642 1.75486 -0.86167 0
M  V30 2038 H 197.346 3.93212 -1.17526 0
M  V30 2039 H 196.877 3.89791 0.531675 0
M  V30 2040 H 198.892 4.73808 1.47378 0
M  V30 2041 N 198.065 0.39524 1.52563 0
M  V30 2042 C 199.012 -0.437036 2.26624 0
M  V30 2043 C 199.982 -1.05281 1.28472 0
M  V30 2044 O 201.167 -1.07971 1.57311 0
M  V30 2045 C 198.307 -1.55524 3.08069 0
M  V30 2046 C 197.42 -0.961745 4.21158 0
M  V30 2047 C 196.555 -2.05149 4.89987 0
M  V30 2048 C 195.594 -1.4342 5.95061 0
M  V30 2049 N 194.731 -2.46351 6.57462 0
M  V30 2050 H 199.571 0.200976 2.97322 0
M  V30 2051 H 197.108 0.110944 1.46681 0
M  V30 2052 H 199.066 -2.21437 3.53584 0
M  V30 2053 H 197.696 -2.16348 2.3957 0
M  V30 2054 H 196.748 -0.192048 3.79915 0
M  V30 2055 H 198.06 -0.470701 4.96574 0
M  V30 2056 H 197.214 -2.78819 5.38837 0
M  V30 2057 H 195.953 -2.57615 4.14109 0
M  V30 2058 H 194.958 -0.682774 5.45544 0
M  V30 2059 H 196.183 -0.917416 6.72875 0
M  V30 2060 H 194.129 -2.97975 5.8442 0
M  V30 2061 H 194.046 -2.02019 7.28508 0
M  V30 2062 H 195.314 -3.19633 7.10954 0
M  V30 2063 N 199.544 -1.57102 0.125237 0
M  V30 2064 C 200.769 -2.0019 -0.542101 0
M  V30 2065 C 201.194 -1.00449 -1.59034 0
M  V30 2066 O 200.552 0.0229423 -1.81285 0
M  V30 2067 C 200.6 -3.42129 -1.13929 0
M  V30 2068 O 199.704 -3.45307 -2.2547 0
M  V30 2069 H 199.045 -0.650171 -0.134812 0
M  V30 2070 H 201.575 -2.03461 0.215553 0
M  V30 2071 H 201.585 -3.80471 -1.4733 0
M  V30 2072 H 200.26 -4.14237 -0.371531 0
M  V30 2073 H 198.837 -3.1879 -1.93462 0
M  V30 2074 N 201.022 0.148545 -1.56898 0
M  V30 2075 C 202.438 0.501131 -1.51528 0
M  V30 2076 C 202.638 1.83458 -0.833399 0
M  V30 2077 O 201.694 2.49259 -0.40328 0
M  V30 2078 C 203.007 0.512864 -2.96294 0
M  V30 2079 C 204.555 0.598487 -3.07225 0
M  V30 2080 C 205.03 0.640897 -4.53494 0
M  V30 2081 N 206.521 0.703163 -4.57832 0
M  V30 2082 C 207.256 0.756935 -5.68382 0
M  V30 2083 N 206.752 0.770147 -6.88506 0
M  V30 2084 N 208.545 0.797698 -5.56411 0
M  V30 2085 H 200.696 -0.725532 -1.99624 0
M  V30 2086 H 202.959 -0.264358 -0.910395 0
M  V30 2087 H 202.665 -0.398691 -3.49433 0
M  V30 2088 H 202.539 1.35133 -3.52163 0
M  V30 2089 H 204.926 1.50046 -2.54106 0
M  V30 2090 H 205.007 -0.267093 -2.54402 0
M  V30 2091 H 204.651 -0.256915 -5.0725 0
M  V30 2092 H 204.581 1.52295 -5.04097 0
M  V30 2093 H 207.072 0.700314 -3.71354 0
M  V30 2094 H 207.385 0.812983 -7.68512 0
M  V30 2095 H 205.73 0.738049 -6.9107 0
M  V30 2096 H 208.921 0.784535 -4.61479 0
M  V30 2097 H 209.094 0.83614 -6.42583 0
M  V30 2098 N 202.5 1.5196 0.417844 0
M  V30 2099 C 203.777 1.56146 1.17803 0
M  V30 2100 C 204.157 0.337275 2.08388 0
M  V30 2101 O 203.505 -0.676447 2.18258 0
M  V30 2102 C 203.715 2.88566 1.96293 0
M  V30 2103 C 205.063 3.41244 2.52662 0
M  V30 2104 O 206.087 2.90247 2.06483 0
M  V30 2105 O 204.946 4.30273 3.36938 0
M  V30 2106 H 202.04 0.628598 0.537395 0
M  V30 2107 H 204.586 1.64283 0.425331 0
M  V30 2108 H 203.358 3.69116 1.2988 0
M  V30 2109 H 202.981 2.83681 2.78587 0
M  V30 2110 N 203.978 -0.674533 1.42435 0
M  V30 2111 C 205.218 -1.4466 1.44405 0
M  V30 2112 C 205.582 -1.91911 0.0585784 0
M  V30 2113 O 206.783 -2.68759 -0.0469991 0
M  V30 2114 C 205.054 -2.61136 2.44013 0
M  V30 2115 S 206.613 -3.49981 2.64687 0
M  V30 2116 H 203.431 -0.494074 0.511284 0
M  V30 2117 H 206.033 -0.785162 1.7904 0
M  V30 2118 H 204.737 -2.24662 3.43446 0
M  V30 2119 H 204.268 -3.32153 2.10803 0
M  V30 2120 H 206.283 -4.57124 1.93007 0
M  V30 2121 N 205.456 -1.28612 -0.910864 0
M  V30 2122 C 206.733 -1.06632 -1.63979 0
M  V30 2123 C 207.113 0.393351 -2.07403 0
M  V30 2124 O 206.461 1.37999 -1.82122 0
M  V30 2125 C 206.671 -2.0436 -2.8291 0
M  V30 2126 C 208.019 -2.34666 -3.5386 0
M  V30 2127 O 209.043 -2.02467 -2.93062 0
M  V30 2128 O 207.902 -2.89631 -4.63439 0
M  V30 2129 H 204.996 -0.407737 -0.7195 0
M  V30 2130 H 207.542 -1.39942 -0.959914 0
M  V30 2131 H 206.314 -3.02727 -2.47936 0
M  V30 2132 H 205.937 -1.71714 -3.58609 0
M  V30 2133 N 206.934 1.1197 -1.10907 0
M  V30 2134 C 208.345 1.65114 -0.871446 0
M  V30 2135 C 208.696 1.86885 0.597353 0
M  V30 2136 O 207.821 1.59896 1.45816 0
M  V30 2137 C 208.416 2.99944 -1.5754 0
M  V30 2138 C 206.975 3.50018 -1.38435 0
M  V30 2139 C 206.122 2.24941 -1.62164 0
M  V30 2140 H 209.073 0.956851 -1.2661 0
M  V30 2141 H 209.094 3.66651 -1.01721 0
M  V30 2142 H 208.606 2.84067 -2.64438 0
M  V30 2143 H 206.707 3.71071 -0.337214 0
M  V30 2144 H 206.82 4.29165 -2.12965 0
M  V30 2145 H 205.184 2.3229 -1.04467 0
M  V30 2146 H 205.967 2.11612 -2.70324 0
M  V30 2147 N 208.412 0.89855 1.29475 0
M  V30 2148 C 209.823 0.572537 1.77705 0
M  V30 2149 C 210.174 -0.911778 1.73727 0
M  V30 2150 O 209.299 -1.71288 1.32247 0
M  V30 2151 C 209.894 1.03252 3.22683 0
M  V30 2152 C 208.453 0.757687 3.68695 0
M  V30 2153 C 207.6 1.20787 2.49612 0
M  V30 2154 H 210.551 1.08139 1.16153 0
M  V30 2155 H 210.572 0.367307 3.78723 0
M  V30 2156 H 210.084 2.11285 3.25546 0
M  V30 2157 H 208.185 -0.310079 3.71308 0
M  V30 2158 H 208.298 1.35476 4.59547 0
M  V30 2159 H 206.662 0.626888 2.46865 0
M  V30 2160 H 207.445 2.29622 2.55203 0
M  V30 2161 N 209.89 -1.43072 0.660911 0
M  V30 2162 C 211.138 -2.01323 0.177094 0
M  V30 2163 C 211.459 -1.5245 -1.2159 0
M  V30 2164 O 210.729 -0.740322 -1.81373 0
M  V30 2165 H 209.309 -0.744382 0.0624804 0
M  V30 2166 H 211.971 -1.75179 0.854305 0
M  V30 2167 H 211.067 -3.11649 0.167641 0
M  V30 2168 N 211.368 -0.403325 -1.52352 0
M  V30 2169 C 212.316 0.439752 -2.28405 0
M  V30 2170 C 213.31 1.05089 -1.32863 0
M  V30 2171 O 214.516 0.989759 -1.50345 0
M  V30 2172 H 210.891 0.160587 -0.734653 0
M  V30 2173 H 212.862 -0.222983 -2.97566 0
M  V30 2174 C 211.611 1.54736 -3.11371 0
M  V30 2175 H 210.934 1.08643 -3.84755 0
M  V30 2176 H 212.374 2.1112 -3.67701 0
M  V30 2177 C 210.833 2.51141 -2.24566 0
M  V30 2178 O 211.363 3.54887 -1.88196 0
M  V30 2179 N 209.569 2.21213 -1.8845 0
M  V30 2180 H 209.116 1.36878 -2.18225 0
M  V30 2181 H 209.074 2.85963 -1.30662 0
M  V30 2182 N 212.846 1.57033 -0.133567 0
M  V30 2183 C 214.257 1.82593 0.389464 0
M  V30 2184 C 214.608 1.05156 1.6564 0
M  V30 2185 O 213.733 0.292644 2.14412 0
M  V30 2186 C 214.328 3.31204 0.713377 0
M  V30 2187 C 212.887 3.57393 1.18098 0
M  V30 2188 C 212.034 2.76598 0.197126 0
M  V30 2189 H 214.985 1.54598 -0.358481 0
M  V30 2190 H 215.006 3.46627 1.56939 0
M  V30 2191 H 214.518 3.87537 -0.2089 0
M  V30 2192 H 212.619 3.06433 2.11966 0
M  V30 2193 H 212.732 4.65915 1.11624 0
M  V30 2194 H 211.096 2.45257 0.687088 0
M  V30 2195 H 211.879 3.35697 -0.718504 0
M  V30 2196 N 214.325 -0.140222 1.56975 0
M  V30 2197 C 215.571 -0.852949 1.83991 0
M  V30 2198 C 215.904 -1.80512 0.716187 0
M  V30 2199 O 215.179 -1.92479 -0.279681 0
M  V30 2200 C 215.462 -1.6215 3.21527 0
M  V30 2201 C 215.315 -0.690363 4.4447 0
M  V30 2202 C 216.634 -2.58247 3.56366 0
M  V30 2203 H 213.753 -0.308634 0.669264 0
M  V30 2204 H 216.395 -0.117898 1.89634 0
M  V30 2205 H 214.545 -2.24812 3.16847 0
M  V30 2206 H 216.217 -0.0742264 4.6124 0
M  V30 2207 H 214.46 -0.000396433 4.338 0
M  V30 2208 H 215.131 -1.2643 5.37326 0
M  V30 2209 H 217.607 -2.05701 3.61699 0
M  V30 2210 H 216.483 -3.09067 4.53617 0
M  V30 2211 H 216.744 -3.39923 2.82674 0
M  V30 2212 N 215.803 -1.52179 -0.40978 0
M  V30 2213 C 216.753 -1.71857 -1.49831 0
M  V30 2214 C 217.737 -0.572469 -1.50372 0
M  V30 2215 O 218.929 -0.829509 -1.56359 0
M  V30 2216 C 216.058 -1.87206 -2.87765 0
M  V30 2217 C 215.144 -3.07685 -2.91875 0
M  V30 2218 N 215.535 -4.30403 -2.65683 0
M  V30 2219 C 213.833 -3.07505 -3.23043 0
M  V30 2220 C 214.534 -5.11868 -2.76344 0
M  V30 2221 N 213.51 -4.47101 -3.09195 0
M  V30 2222 H 217.312 -2.64381 -1.28375 0
M  V30 2223 H 214.826 -1.50203 -0.617479 0
M  V30 2224 H 216.823 -1.99419 -3.66111 0
M  V30 2225 H 215.483 -0.958814 -3.10221 0
M  V30 2226 H 216.494 -4.58887 -2.4009 0
M  V30 2227 H 213.171 -2.25915 -3.51096 0
M  V30 2228 H 214.561 -6.19634 -2.59814 0
M  V30 2229 N 217.281 0.66697 -1.42791 0
M  V30 2230 C 218.529 1.42417 -1.43394 0
M  V30 2231 C 218.85 1.94925 -0.0542373 0
M  V30 2232 O 218.12 1.73564 0.908415 0
M  V30 2233 H 216.7 0.528515 -0.527902 0
M  V30 2234 H 219.362 0.787562 -1.78279 0
M  V30 2235 H 218.458 2.27333 -2.13837 0
M  V30 2236 N 218.759 1.29093 0.90403 0
M  V30 2237 C 219.989 1.19516 1.68522 0
M  V30 2238 C 220.397 -0.24738 1.87576 0
M  V30 2239 O 219.74 -1.17798 1.40959 0
M  V30 2240 C 219.802 1.83249 3.0929 0
M  V30 2241 C 219.466 3.32531 3.13484 0
M  V30 2242 C 220.463 4.28821 2.93953 0
M  V30 2243 C 218.148 3.73656 3.35688 0
M  V30 2244 C 220.142 5.64212 2.96553 0
M  V30 2245 C 217.829 5.0917 3.37919 0
M  V30 2246 C 218.827 6.04258 3.18373 0
M  V30 2247 O 218.515 7.37298 3.20385 0
M  V30 2248 H 218.247 0.415467 0.533257 0
M  V30 2249 H 220.801 1.70912 1.13922 0
M  V30 2250 H 219.031 1.26358 3.65473 0
M  V30 2251 H 220.72 1.68054 3.69476 0
M  V30 2252 H 221.486 3.98382 2.76616 0
M  V30 2253 H 217.365 3.00101 3.49943 0
M  V30 2254 H 220.909 6.38407 2.81216 0
M  V30 2255 H 216.806 5.39256 3.54787 0
M  V30 2256 H 217.574 7.46048 3.36681 0
M  V30 2257 N 220.237 -1.11381 1.11499 0
M  V30 2258 C 221.484 -1.83132 0.864231 0
M  V30 2259 C 221.812 -1.84683 -0.610114 0
M  V30 2260 O 221.067 -1.29589 -1.46646 0
M  V30 2261 C 221.366 -3.30026 1.37177 0
M  V30 2262 C 221.032 -3.48634 2.85946 0
M  V30 2263 C 219.694 -3.53421 3.26569 0
M  V30 2264 C 222.046 -3.54837 3.81759 0
M  V30 2265 C 219.374 -3.61967 4.61733 0
M  V30 2266 C 221.726 -3.64915 5.1674 0
M  V30 2267 C 220.39 -3.67962 5.5692 0
M  V30 2268 H 219.66 -0.670127 0.316245 0
M  V30 2269 H 222.307 -1.31354 1.3935 0
M  V30 2270 H 220.612 -3.84304 0.762753 0
M  V30 2271 H 222.309 -3.84034 1.15408 0
M  V30 2272 H 218.899 -3.45579 2.53521 0
M  V30 2273 H 223.083 -3.50399 3.51474 0
M  V30 2274 H 218.339 -3.62603 4.92269 0
M  V30 2275 H 222.513 -3.68658 5.90816 0
M  V30 2276 H 220.14 -3.74336 6.61647 0
M  V30 2277 N 221.715 -0.905404 -1.28997 0
M  V30 2278 C 222.625 -0.392246 -2.31298 0
M  V30 2279 C 223.641 0.515889 -1.66176 0
M  V30 2280 O 224.817 0.404093 -1.97304 0
M  V30 2281 C 221.882 0.36686 -3.44754 0
M  V30 2282 C 220.943 -0.573485 -4.25452 0
M  V30 2283 C 220.176 0.149488 -5.33491 0
M  V30 2284 O 220.399 1.37255 -5.5364 0
M  V30 2285 O 219.333 -0.510919 -5.99728 0
M  V30 2286 H 223.159 -1.2411 -2.77183 0
M  V30 2287 H 220.744 -0.669926 -1.33538 0
M  V30 2288 H 222.626 0.795907 -4.13816 0
M  V30 2289 H 221.301 1.19169 -3.00966 0
M  V30 2290 H 220.208 -1.05176 -3.59011 0
M  V30 2291 H 221.541 -1.36489 -4.72897 0
M  V30 2292 N 223.193 1.4272 -0.668489 0
M  V30 2293 C 224.441 2.01226 -0.187769 0
M  V30 2294 C 224.762 1.53092 1.2078 0
M  V30 2295 O 224.032 0.74993 1.80977 0
M  V30 2296 H 222.612 0.744041 -0.0664272 0
M  V30 2297 H 225.274 1.74723 -0.863583 0
M  V30 2298 H 224.37 3.11556 -0.184166 0
M  V30 2299 N 224.671 0.411399 1.52136 0
M  V30 2300 C 225.619 -0.427633 2.28635 0
M  V30 2301 C 226.613 -1.04383 1.33419 0
M  V30 2302 O 227.819 -0.981772 1.50868 0
M  V30 2303 H 224.194 -0.156689 0.735495 0
M  V30 2304 H 226.165 0.238761 2.97443 0
M  V30 2305 C 224.914 -1.53082 3.12188 0
M  V30 2306 H 224.237 -1.06601 3.85326 0
M  V30 2307 H 225.677 -2.09167 3.68816 0
M  V30 2308 C 224.136 -2.49946 2.25895 0
M  V30 2309 O 224.666 -3.53884 1.90076 0
M  V30 2310 N 222.872 -2.2021 1.8962 0
M  V30 2311 H 222.419 -1.35719 2.18948 0
M  V30 2312 H 222.377 -2.85266 1.32176 0
M  V30 2313 N 226.149 -1.5696 0.141893 0
M  V30 2314 C 227.097 -2.17784 -0.816874 0
M  V30 2315 C 228.091 -1.1334 -1.25899 0
M  V30 2316 O 229.297 -1.316 -1.22806 0
M  V30 2317 H 225.672 -0.697278 -0.281615 0
M  V30 2318 H 227.643 -2.97087 -0.279621 0
M  V30 2319 C 226.392 -2.80983 -2.04802 0
M  V30 2320 H 225.715 -3.61062 -1.7168 0
M  V30 2321 H 227.155 -3.2705 -2.69841 0
M  V30 2322 C 225.614 -1.79228 -2.8527 0
M  V30 2323 O 226.144 -1.25962 -3.8144 0
M  V30 2324 N 224.35 -1.48647 -2.49704 0
M  V30 2325 H 223.897 -1.92155 -1.71564 0
M  V30 2326 H 223.855 -0.808115 -3.03837 0
M  V30 2327 N 227.627 0.131896 -1.57047 0
M  V30 2328 C 228.874 0.841932 -1.84168 0
M  V30 2329 C 229.202 1.8048 -0.725066 0
M  V30 2330 O 228.457 1.93618 0.284692 0
M  V30 2331 C 228.756 1.63703 -3.17704 0
M  V30 2332 C 228.422 0.81961 -4.43388 0
M  V30 2333 C 227.084 0.594148 -4.77518 0
M  V30 2334 C 229.436 0.248977 -5.20605 0
M  V30 2335 C 226.764 -0.212409 -5.86315 0
M  V30 2336 C 229.116 -0.544701 -6.30251 0
M  V30 2337 C 227.78 -0.780599 -6.6292 0
M  V30 2338 H 227.05 0.308085 -0.673917 0
M  V30 2339 H 229.697 0.104867 -1.91213 0
M  V30 2340 H 228.002 2.44464 -3.06177 0
M  V30 2341 H 229.699 2.19015 -3.35907 0
M  V30 2342 H 226.289 1.00542 -4.16641 0
M  V30 2343 H 230.473 0.410408 -4.946 0
M  V30 2344 H 225.729 -0.404524 -6.1006 0
M  V30 2345 H 229.903 -0.993922 -6.89271 0
M  V30 2346 H 227.53 -1.40742 -7.47058 0
M  V30 2347 N 229.106 1.52395 0.401703 0
M  V30 2348 C 230.334 1.70676 1.16949 0
M  V30 2349 C 230.749 0.419503 1.8408 0
M  V30 2350 O 230.106 -0.605061 1.72178 0
M  V30 2351 C 230.157 2.84753 2.22706 0
M  V30 2352 O 229.878 4.08495 1.58314 0
M  V30 2353 C 231.379 3.14608 3.12309 0
M  V30 2354 H 228.599 0.571787 0.351142 0
M  V30 2355 H 231.143 1.98987 0.471652 0
M  V30 2356 H 229.298 2.58941 2.88147 0
M  V30 2357 H 229.712 4.72117 2.28485 0
M  V30 2358 H 231.186 3.97923 3.82572 0
M  V30 2359 H 231.663 2.28464 3.75101 0
M  V30 2360 H 232.269 3.42212 2.52529 0
M  V30 2361 N 230.584 -0.659388 1.43143 0
M  V30 2362 C 231.514 -1.78422 1.50625 0
M  V30 2363 C 232.495 -1.66216 0.361443 0
M  V30 2364 O 233.68 -1.85404 0.577834 0
M  V30 2365 C 230.81 -3.16815 1.42287 0
M  V30 2366 C 229.764 -3.43777 2.54954 0
M  V30 2367 C 229.09 -4.81905 2.31671 0
M  V30 2368 C 230.39 -3.39134 3.97222 0
M  V30 2369 H 232.084 -1.72417 2.44771 0
M  V30 2370 H 229.63 -0.828084 1.17808 0
M  V30 2371 H 231.583 -3.95253 1.46127 0
M  V30 2372 H 230.307 -3.23534 0.446435 0
M  V30 2373 H 228.966 -2.67707 2.50457 0
M  V30 2374 H 228.614 -4.85294 1.32284 0
M  V30 2375 H 228.314 -5.00906 3.07192 0
M  V30 2376 H 229.838 -5.62609 2.37284 0
M  V30 2377 H 231.252 -4.07518 4.03239 0
M  V30 2378 H 229.649 -3.69671 4.72719 0
M  V30 2379 H 230.719 -2.37426 4.22797 0
M  V30 2380 N 232.062 -1.29571 -0.897171 0
M  V30 2381 C 233.31 -1.17456 -1.64464 0
M  V30 2382 C 233.631 0.273698 -1.9307 0
M  V30 2383 O 232.901 1.18684 -1.55855 0
M  V30 2384 H 231.481 -0.431706 -0.609622 0
M  V30 2385 H 234.143 -1.62531 -1.07562 0
M  V30 2386 H 233.239 -1.72648 -2.59998 0
M  V30 2387 N 233.54 1.10788 -1.12088 0
M  V30 2388 C 234.765 1.87002 -0.896949 0
M  V30 2389 C 235.19 1.79933 0.548261 0
M  V30 2390 O 234.548 1.16662 1.38779 0
M  V30 2391 C 234.596 3.3349 -1.37174 0
M  V30 2392 O 233.7 4.08745 -0.547831 0
M  V30 2393 H 233.041 0.580397 -0.322545 0
M  V30 2394 H 235.571 1.39996 -1.49206 0
M  V30 2395 H 235.581 3.84339 -1.36922 0
M  V30 2396 H 234.256 3.37951 -2.42408 0
M  V30 2397 H 232.833 3.6776 -0.617034 0
M  V30 2398 N 235.018 0.912232 1.28515 0
M  V30 2399 C 236.246 0.560416 1.99166 0
M  V30 2400 C 236.661 -0.857927 1.68182 0
M  V30 2401 O 236.018 -1.56805 0.933733 0
M  V30 2402 C 236.069 0.758142 3.53461 0
M  V30 2403 O 235.79 2.12067 3.83352 0
M  V30 2404 C 237.291 0.412954 4.41372 0
M  V30 2405 H 234.511 0.213805 0.636026 0
M  V30 2406 H 237.055 1.22502 1.63749 0
M  V30 2407 H 235.21 0.140556 3.87145 0
M  V30 2408 H 235.624 2.15923 4.77993 0
M  V30 2409 H 237.098 0.60208 5.48707 0
M  V30 2410 H 237.575 -0.65073 4.34353 0
M  V30 2411 H 238.181 1.00802 4.13182 0
M  V30 2412 N 236.496 -1.42363 0.676048 0
M  V30 2413 C 237.745 -2.00745 0.196037 0
M  V30 2414 C 238.058 -1.54083 -1.20489 0
M  V30 2415 O 239.264 -2.04891 -1.78134 0
M  V30 2416 C 237.72 -3.58651 0.299616 0
M  V30 2417 C 237.328 -4.143 1.70468 0
M  V30 2418 C 239.072 -4.24326 -0.121619 0
M  V30 2419 C 236.979 -5.64574 1.76096 0
M  V30 2420 H 235.909 -0.750787 0.0695301 0
M  V30 2421 H 238.56 -1.63072 0.841412 0
M  V30 2422 H 236.942 -3.93833 -0.413673 0
M  V30 2423 H 238.116 -3.90575 2.44515 0
M  V30 2424 H 236.431 -3.61081 2.07387 0
M  V30 2425 H 239.028 -5.34607 -0.0997362 0
M  V30 2426 H 239.371 -3.99897 -1.15708 0
M  V30 2427 H 239.904 -3.94108 0.540706 0
M  V30 2428 H 236.643 -5.93804 2.77628 0
M  V30 2429 H 236.163 -5.90286 1.06406 0
M  V30 2430 H 237.842 -6.29013 1.51496 0
M  V30 2431 N 237.974 -0.419461 -1.51915 0
M  V30 2432 C 239.199 0.154572 -2.06823 0
M  V30 2433 C 239.624 1.3722 -1.28656 0
M  V30 2434 O 238.982 1.78461 -0.319583 0
M  V30 2435 C 239.03 0.473172 -3.57482 0
M  V30 2436 O 238.134 1.56255 -3.81652 0
M  V30 2437 H 237.475 0.0096924 -0.663929 0
M  V30 2438 H 240.005 -0.595642 -1.95738 0
M  V30 2439 H 240.015 0.728825 -4.01438 0
M  V30 2440 H 238.69 -0.416873 -4.13805 0
M  V30 2441 H 237.267 1.29825 -3.49571 0
M  V30 2442 N 239.452 1.56882 -0.150215 0
M  V30 2443 C 240.682 2.00302 0.506213 0
M  V30 2444 C 241.09 1.02934 1.58749 0
M  V30 2445 O 240.433 0.0188384 1.8369 0
M  V30 2446 C 240.495 3.40156 1.16337 0
M  V30 2447 C 240.159 4.56439 0.226311 0
M  V30 2448 C 241.156 5.17012 -0.547265 0
M  V30 2449 C 238.841 5.02136 0.128279 0
M  V30 2450 C 240.835 6.21693 -1.40629 0
M  V30 2451 C 238.522 6.06672 -0.734345 0
M  V30 2452 C 239.52 6.6632 -1.50023 0
M  V30 2453 O 239.208 7.68831 -2.34848 0
M  V30 2454 H 238.94 0.662182 0.135984 0
M  V30 2455 H 241.494 2.03961 -0.242746 0
M  V30 2456 H 239.724 3.33346 1.96004 0
M  V30 2457 H 241.413 3.67663 1.71985 0
M  V30 2458 H 242.179 4.82603 -0.48158 0
M  V30 2459 H 238.058 4.55435 0.714157 0
M  V30 2460 H 241.602 6.68179 -2.00455 0
M  V30 2461 H 237.499 6.40507 -0.801309 0
M  V30 2462 H 238.267 7.86065 -2.28131 0
M  V30 2463 N 240.93 -0.123565 1.57115 0
M  V30 2464 C 242.16 -0.845233 1.88519 0
M  V30 2465 C 242.568 -1.74168 0.739064 0
M  V30 2466 O 241.911 -1.81244 -0.299355 0
M  V30 2467 C 241.973 -1.73452 3.14888 0
M  V30 2468 C 241.637 -1.01285 4.45635 0
M  V30 2469 C 242.634 -0.355774 5.18681 0
M  V30 2470 C 240.319 -0.99538 4.92339 0
M  V30 2471 C 242.313 0.309114 6.3665 0
M  V30 2472 C 240 -0.32669 6.10226 0
M  V30 2473 C 240.998 0.324406 6.82229 0
M  V30 2474 O 240.686 0.982437 7.97874 0
M  V30 2475 H 240.418 -0.248534 0.628655 0
M  V30 2476 H 242.972 -0.113907 2.05084 0
M  V30 2477 H 241.202 -2.50737 2.94394 0
M  V30 2478 H 242.891 -2.33021 3.32349 0
M  V30 2479 H 243.657 -0.360918 4.83655 0
M  V30 2480 H 239.536 -1.49159 4.36202 0
M  V30 2481 H 243.08 0.8179 6.92789 0
M  V30 2482 H 238.977 -0.319294 6.4471 0
M  V30 2483 H 239.745 0.886454 8.13686 0
M  V30 2484 N 242.408 -1.52605 -0.393616 0
M  V30 2485 C 243.648 -1.6911 -1.1481 0
M  V30 2486 C 244.012 -0.41969 -1.87357 0
M  V30 2487 O 245.213 -0.461034 -2.64817 0
M  V30 2488 C 243.484 -2.88909 -2.10395 0
M  V30 2489 S 245.043 -3.25977 -2.93742 0
M  V30 2490 H 241.861 -0.595337 -0.38871 0
M  V30 2491 H 244.463 -1.90641 -0.433178 0
M  V30 2492 H 243.167 -3.79672 -1.55812 0
M  V30 2493 H 242.698 -2.69698 -2.86403 0
M  V30 2494 H 244.713 -2.75806 -4.12487 0
M  V30 2495 N 243.887 0.651787 -1.4349 0
M  V30 2496 C 244.797 1.79368 -1.5121 0
M  V30 2497 C 245.813 1.69361 -0.399093 0
M  V30 2498 O 246.989 1.90505 -0.653431 0
M  V30 2499 C 244.054 3.15653 -1.43401 0
M  V30 2500 C 243.115 3.37446 -2.65384 0
M  V30 2501 C 242.348 4.67229 -2.57939 0
M  V30 2502 O 242.571 5.46676 -1.62792 0
M  V30 2503 O 241.505 4.90773 -3.48462 0
M  V30 2504 H 245.331 1.7581 -2.47638 0
M  V30 2505 H 242.916 0.810447 -1.25507 0
M  V30 2506 H 244.798 3.96935 -1.41494 0
M  V30 2507 H 243.473 3.19798 -0.501085 0
M  V30 2508 H 242.38 2.55923 -2.72863 0
M  V30 2509 H 243.713 3.38148 -3.57654 0
M  V30 2510 N 245.365 1.30045 0.890287 0
M  V30 2511 C 246.642 1.09227 1.62262 0
M  V30 2512 C 247.022 -0.360305 2.08002 0
M  V30 2513 O 246.37 -1.35084 1.84295 0
M  V30 2514 C 246.58 2.08835 2.79623 0
M  V30 2515 C 247.928 2.40266 3.50082 0
M  V30 2516 O 248.952 2.07104 2.89804 0
M  V30 2517 O 247.811 2.96967 4.58773 0
M  V30 2518 H 244.905 0.419132 0.712922 0
M  V30 2519 H 247.451 1.41451 0.937529 0
M  V30 2520 H 246.223 3.06633 2.43089 0
M  V30 2521 H 245.846 1.77397 3.55832 0
M  V30 2522 N 246.843 -1.10192 1.12674 0
M  V30 2523 C 248.259 -1.34235 0.863317 0
M  V30 2524 C 248.459 -1.95062 -0.505277 0
M  V30 2525 O 247.515 -2.19192 -1.25345 0
M  V30 2526 C 248.828 -2.2616 1.98172 0
M  V30 2527 C 250.376 -2.3969 2.0129 0
M  V30 2528 C 250.851 -3.34946 3.1237 0
M  V30 2529 N 252.342 -3.42515 3.11829 0
M  V30 2530 C 253.077 -4.16199 3.94419 0
M  V30 2531 N 252.573 -4.92747 4.87004 0
M  V30 2532 N 254.366 -4.11843 3.82547 0
M  V30 2533 H 246.517 -0.690798 2.00853 0
M  V30 2534 H 248.78 -0.366774 0.874174 0
M  V30 2535 H 248.486 -1.8868 2.96804 0
M  V30 2536 H 248.36 -3.26488 1.88906 0
M  V30 2537 H 250.747 -2.76438 1.03276 0
M  V30 2538 H 250.828 -1.39169 2.14629 0
M  V30 2539 H 250.472 -2.98923 4.10619 0
M  V30 2540 H 250.402 -4.35353 2.96269 0
M  V30 2541 H 252.893 -2.87926 2.44759 0
M  V30 2542 H 253.206 -5.46376 5.46528 0
M  V30 2543 H 251.551 -4.91862 4.91016 0
M  V30 2544 H 254.742 -3.51136 3.0955 0
M  V30 2545 H 254.915 -4.69007 4.47142 0
M  V30 2546 N 248.321 -0.919034 -1.28029 0
M  V30 2547 C 249.551 -0.570143 -1.98577 0
M  V30 2548 C 249.959 0.854172 -1.68821 0
M  V30 2549 O 249.302 1.57807 -0.940351 0
M  V30 2550 C 249.364 -0.705734 -3.52505 0
M  V30 2551 C 249.028 -2.10057 -4.05863 0
M  V30 2552 C 250.025 -3.07385 -4.19298 0
M  V30 2553 C 247.71 -2.41517 -4.40426 0
M  V30 2554 C 249.704 -4.34287 -4.66555 0
M  V30 2555 C 247.391 -3.68657 -4.87376 0
M  V30 2556 C 248.389 -4.64856 -5.00398 0
M  V30 2557 O 248.077 -5.89735 -5.46322 0
M  V30 2558 H 247.809 -0.215592 -0.6407 0
M  V30 2559 H 250.363 -1.23583 -1.64062 0
M  V30 2560 H 248.593 0.0170414 -3.86696 0
M  V30 2561 H 250.282 -0.363172 -4.04272 0
M  V30 2562 H 251.048 -2.84398 -3.92865 0
M  V30 2563 H 246.927 -1.67389 -4.29537 0
M  V30 2564 H 250.471 -5.09377 -4.76635 0
M  V30 2565 H 246.368 -3.91466 -5.13249 0
M  V30 2566 H 247.136 -5.92599 -5.64596 0
M  V30 2567 N 249.799 1.42003 -0.683588 0
M  V30 2568 C 251.029 2.05448 -0.217866 0
M  V30 2569 C 251.437 1.51491 1.13346 0
M  V30 2570 O 250.78 0.653048 1.717 0
M  V30 2571 C 250.842 3.59399 -0.0850118 0
M  V30 2572 C 250.506 4.36093 -1.36645 0
M  V30 2573 C 251.503 4.66169 -2.30179 0
M  V30 2574 C 249.188 4.75578 -1.61649 0
M  V30 2575 C 251.182 5.34676 -3.46988 0
M  V30 2576 C 248.869 5.43824 -2.78745 0
M  V30 2577 C 249.867 5.73299 -3.71238 0
M  V30 2578 O 249.555 6.40142 -4.86285 0
M  V30 2579 H 249.287 0.668344 -0.101454 0
M  V30 2580 H 251.841 1.82974 -0.933248 0
M  V30 2581 H 250.071 3.80566 0.686031 0
M  V30 2582 H 251.76 4.04457 0.341973 0
M  V30 2583 H 252.526 4.36156 -2.12115 0
M  V30 2584 H 248.405 4.52025 -0.905243 0
M  V30 2585 H 251.949 5.57599 -4.19201 0
M  V30 2586 H 247.846 5.73254 -2.96732 0
M  V30 2587 H 248.614 6.58636 -4.85944 0
M  V30 2588 N 251.277 0.427512 1.51691 0
M  V30 2589 C 252.207 -0.3796 2.30394 0
M  V30 2590 C 253.188 -1.02982 1.35384 0
M  V30 2591 O 254.373 -1.03534 1.643 0
M  V30 2592 C 251.503 -1.48649 3.1388 0
M  V30 2593 C 250.457 -0.960294 4.17088 0
M  V30 2594 C 249.783 -2.16219 4.89033 0
M  V30 2595 C 251.083 -0.00153679 5.223 0
M  V30 2596 H 252.777 0.277164 2.98114 0
M  V30 2597 H 250.323 0.134739 1.43368 0
M  V30 2598 H 252.276 -2.05826 3.67714 0
M  V30 2599 H 251 -2.1714 2.43962 0
M  V30 2600 H 249.659 -0.410806 3.64291 0
M  V30 2601 H 249.307 -2.83307 4.15628 0
M  V30 2602 H 249.007 -1.81654 5.58816 0
M  V30 2603 H 250.531 -2.73968 5.45687 0
M  V30 2604 H 251.945 -0.482687 5.71264 0
M  V30 2605 H 250.342 0.256199 5.99553 0
M  V30 2606 H 251.412 0.938174 4.75738 0
M  V30 2607 N 252.755 -1.56801 0.158532 0
M  V30 2608 C 254.001 -1.96781 -0.490405 0
M  V30 2609 C 254.334 -1.04397 -1.63753 0
M  V30 2610 O 253.609 -0.0885805 -1.94298 0
M  V30 2611 C 253.892 -3.4635 -0.985594 0
M  V30 2612 C 253.745 -4.49512 0.160824 0
M  V30 2613 C 255.064 -3.98697 -1.86355 0
M  V30 2614 H 252.183 -0.715482 -0.176788 0
M  V30 2615 H 254.825 -1.88451 0.242088 0
M  V30 2616 H 252.975 -3.53579 -1.60978 0
M  V30 2617 H 254.647 -4.54353 0.797537 0
M  V30 2618 H 252.89 -4.26013 0.818256 0
M  V30 2619 H 253.561 -5.51531 -0.227569 0
M  V30 2620 H 256.037 -3.94019 -1.33746 0
M  V30 2621 H 254.913 -5.03792 -2.17909 0
M  V30 2622 H 255.174 -3.41744 -2.8047 0
M  V30 2623 N 254.233 0.115231 -1.57178 0
M  V30 2624 C 255.481 0.820727 -1.84685 0
M  V30 2625 C 255.802 1.80237 -0.744279 0
M  V30 2626 O 255.072 1.94529 0.231375 0
M  V30 2627 H 253.652 0.306084 -0.681411 0
M  V30 2628 H 256.314 0.101656 -1.94635 0
M  V30 2629 H 255.41 1.36366 -2.80733 0
M  V30 2630 N 255.711 1.52812 0.385517 0
M  V30 2631 C 256.957 1.68275 1.13188 0
M  V30 2632 C 257.29 0.423179 1.89533 0
M  V30 2633 O 256.565 -0.579113 1.85679 0
M  V30 2634 C 256.848 2.92001 2.1073 0
M  V30 2635 C 256.701 4.28067 1.38125 0
M  V30 2636 C 258.02 3.11283 3.11113 0
M  V30 2637 H 255.139 0.612352 0.410115 0
M  V30 2638 H 257.781 1.85415 0.414869 0
M  V30 2639 H 255.931 2.77519 2.71874 0
M  V30 2640 H 257.603 4.54324 0.799187 0
M  V30 2641 H 255.846 4.28388 0.683092 0
M  V30 2642 H 256.517 5.10733 2.09417 0
M  V30 2643 H 258.993 3.2482 2.6006 0
M  V30 2644 H 257.869 3.99325 3.76605 0
M  V30 2645 H 258.13 2.25656 3.80173 0
M  V30 2646 N 257.189 -0.644168 1.43834 0
M  V30 2647 C 258.121 -1.76955 1.45669 0
M  V30 2648 C 259.134 -1.58956 0.351666 0
M  V30 2649 O 260.323 -1.6751 0.616644 0
M  V30 2650 C 257.423 -3.14507 1.26248 0
M  V30 2651 C 256.596 -3.59083 2.49757 0
M  V30 2652 C 255.655 -4.75467 2.25427 0
M  V30 2653 O 254.681 -4.84444 2.98836 0
M  V30 2654 N 255.883 -5.66289 1.27661 0
M  V30 2655 H 258.648 -1.75856 2.42682 0
M  V30 2656 H 256.209 -0.828312 1.39106 0
M  V30 2657 H 258.201 -3.90067 1.0784 0
M  V30 2658 H 256.771 -3.10325 0.376478 0
M  V30 2659 H 255.991 -2.7387 2.8353 0
M  V30 2660 H 257.279 -3.85613 3.31934 0
M  V30 2661 H 256.677 -5.61718 0.670064 0
M  V30 2662 H 255.234 -6.41533 1.15234 0
M  V30 2663 N 258.668 -1.30515 -0.883378 0
M  V30 2664 C 259.578 -1.18959 -2.02203 0
M  V30 2665 C 260.594 -0.109172 -1.73657 0
M  V30 2666 O 261.77 -0.324413 -1.9877 0
M  V30 2667 C 258.835 -0.883871 -3.35244 0
M  V30 2668 C 257.896 -2.04982 -3.77201 0
M  V30 2669 C 257.129 -1.75859 -5.03894 0
M  V30 2670 O 257.352 -0.687276 -5.66244 0
M  V30 2671 O 256.286 -2.61146 -5.42297 0
M  V30 2672 H 260.112 -2.14616 -2.1488 0
M  V30 2673 H 257.697 -1.10124 -1.0096 0
M  V30 2674 H 259.579 -0.728644 -4.15053 0
M  V30 2675 H 258.254 0.0427798 -3.23672 0
M  V30 2676 H 257.161 -2.26038 -2.9809 0
M  V30 2677 H 258.494 -2.95825 -3.93381 0
M  V30 2678 N 260.146 1.09593 -1.13257 0
M  V30 2679 C 261.078 2.16015 -0.766167 0
M  V30 2680 C 262.091 1.61423 0.211303 0
M  V30 2681 O 263.28 1.78498 -0.00863946 0
M  V30 2682 C 260.38 3.38706 -0.114662 0
M  V30 2683 C 259.553 4.22717 -1.12379 0
M  V30 2684 C 258.612 5.23835 -0.498301 0
M  V30 2685 O 257.638 5.573 -1.15781 0
M  V30 2686 N 258.84 5.75886 0.730417 0
M  V30 2687 H 261.605 2.48055 -1.68193 0
M  V30 2688 H 259.166 1.25292 -1.02535 0
M  V30 2689 H 261.158 4.03464 0.315991 0
M  V30 2690 H 259.728 3.04569 0.704011 0
M  V30 2691 H 258.948 3.54122 -1.73179 0
M  V30 2692 H 260.236 4.75673 -1.80589 0
M  V30 2693 H 259.634 5.50911 1.28504 0
M  V30 2694 H 258.191 6.42387 1.10376 0
M  V30 2695 N 261.624 0.925811 1.2754 0
M  V30 2696 C 262.556 0.380753 2.26015 0
M  V30 2697 C 263.569 -0.487485 1.5533 0
M  V30 2698 O 264.758 -0.300413 1.75954 0
M  V30 2699 C 261.858 -0.473259 3.35579 0
M  V30 2700 C 261.031 0.375249 4.35787 0
M  V30 2701 C 260.09 -0.415809 5.24555 0
M  V30 2702 O 259.116 0.175834 5.68928 0
M  V30 2703 N 260.318 -1.71607 5.54555 0
M  V30 2704 H 263.083 1.22725 2.73421 0
M  V30 2705 H 260.644 0.793037 1.41147 0
M  V30 2706 H 262.636 -1.00949 3.91907 0
M  V30 2707 H 261.206 -1.2205 2.87789 0
M  V30 2708 H 260.426 1.09279 3.7875 0
M  V30 2709 H 261.714 0.955399 4.99749 0
M  V30 2710 H 261.112 -2.2191 5.20358 0
M  V30 2711 H 259.669 -2.19887 6.1359 0
M  V30 2712 N 263.102 -1.41638 0.69111 0
M  V30 2713 C 264.342 -2.03166 0.224291 0
M  V30 2714 C 264.706 -1.53537 -1.15284 0
M  V30 2715 O 265.907 -2.0696 -1.71525 0
M  V30 2716 C 264.178 -3.56342 0.274758 0
M  V30 2717 S 265.737 -4.3864 -0.118669 0
M  V30 2718 H 262.555 -0.705188 0.0907263 0
M  V30 2719 H 265.157 -1.7314 0.907895 0
M  V30 2720 H 263.861 -3.89958 1.2791 0
M  V30 2721 H 263.392 -3.91063 -0.428142 0
M  V30 2722 H 265.407 -4.77549 -1.34764 0
M  V30 2723 N 264.58 -0.43555 -1.51462 0
M  V30 2724 C 265.826 0.131709 -2.02372 0
M  V30 2725 C 266.159 1.42516 -1.3192 0
M  V30 2726 O 265.434 1.89606 -0.433573 0
M  V30 2727 C 265.717 0.352301 -3.58373 0
M  V30 2728 C 265.57 -0.959676 -4.39443 0
M  V30 2729 C 266.889 1.12286 -4.25535 0
M  V30 2730 H 264.008 0.0463936 -0.735538 0
M  V30 2731 H 266.65 -0.574197 -1.81116 0
M  V30 2732 H 264.8 0.9536 -3.76615 0
M  V30 2733 H 266.472 -1.59482 -4.32855 0
M  V30 2734 H 264.715 -1.56468 -4.04599 0
M  V30 2735 H 265.386 -0.759394 -5.46752 0
M  V30 2736 H 267.862 0.613545 -4.11552 0
M  V30 2737 H 266.738 1.24598 -5.34571 0
M  V30 2738 H 266.999 2.15048 -3.86273 0
M  V30 2739 N 266.058 1.56714 -0.166846 0
M  V30 2740 C 267.335 1.88412 0.525373 0
M  V30 2741 C 267.715 1.07602 1.81618 0
M  V30 2742 O 267.063 0.168621 2.27877 0
M  V30 2743 C 267.273 3.40363 0.771613 0
M  V30 2744 C 268.621 4.10007 1.1036 0
M  V30 2745 O 269.645 3.45655 0.860304 0
M  V30 2746 O 268.504 5.2369 1.56239 0
M  V30 2747 H 265.598 0.781587 0.270278 0
M  V30 2748 H 268.144 1.68458 -0.204946 0
M  V30 2749 H 266.916 3.91046 -0.141093 0
M  V30 2750 H 266.539 3.65914 1.55541 0
M  V30 2751 N 267.536 -0.106894 1.57237 0
M  V30 2752 C 268.784 -0.810921 1.85117 0
M  V30 2753 C 269.105 -1.7984 0.753827 0
M  V30 2754 O 268.375 -1.94649 -0.221056 0
M  V30 2755 H 266.955 -0.302466 0.683025 0
M  V30 2756 H 269.617 -0.0913324 1.94686 0
M  V30 2757 H 268.713 -1.34875 2.81452 0
M  V30 2758 N 269.014 -1.53014 -0.377408 0
M  V30 2759 C 269.924 -1.81557 -1.48574 0
M  V30 2760 C 270.94 -0.703102 -1.59162 0
M  V30 2761 O 272.116 -0.99192 -1.75279 0
M  V30 2762 C 269.181 -1.9889 -2.83978 0
M  V30 2763 C 268.242 -3.22801 -2.83016 0
M  V30 2764 C 267.475 -3.39298 -4.11962 0
M  V30 2765 O 267.698 -2.60345 -5.0752 0
M  V30 2766 O 266.632 -4.32604 -4.18494 0
M  V30 2767 H 270.458 -2.75695 -1.27382 0
M  V30 2768 H 268.043 -1.38248 -0.566373 0
M  V30 2769 H 269.925 -2.11931 -3.6423 0
M  V30 2770 H 268.6 -1.07942 -3.05172 0
M  V30 2771 H 267.507 -3.15193 -2.01505 0
M  V30 2772 H 268.84 -4.13632 -2.66775 0
M  V30 2773 N 270.492 0.636531 -1.44174 0
M  V30 2774 C 271.738 1.39649 -1.47884 0
M  V30 2775 C 272.093 1.92098 -0.107747 0
M  V30 2776 O 271.386 1.70391 0.876208 0
M  V30 2777 C 271.58 2.58309 -2.47005 0
M  V30 2778 C 271.409 2.17476 -3.93617 0
M  V30 2779 C 270.179 2.0501 -4.61843 0
M  V30 2780 C 272.377 1.76722 -4.82984 0
M  V30 2781 N 270.359 1.57683 -5.93304 0
M  V30 2782 C 271.73 1.40601 -6.03847 0
M  V30 2783 C 273.785 1.64054 -4.70096 0
M  V30 2784 C 272.488 0.930787 -7.13252 0
M  V30 2785 C 274.514 1.17937 -5.79521 0
M  V30 2786 C 273.876 0.827625 -6.99521 0
M  V30 2787 H 269.975 0.506027 -0.596205 0
M  V30 2788 H 272.559 0.730791 -1.80465 0
M  V30 2789 H 270.73 3.22514 -2.16423 0
M  V30 2790 H 272.462 3.25083 -2.41045 0
M  V30 2791 H 269.217 2.25294 -4.16581 0
M  V30 2792 H 269.641 1.36334 -6.63131 0
M  V30 2793 H 274.283 1.89882 -3.77762 0
M  V30 2794 H 272.001 0.660012 -8.054 0
M  V30 2795 H 275.587 1.08601 -5.71574 0
M  V30 2796 H 274.467 0.476231 -7.82753 0
M  V30 2797 N 271.97 1.30982 0.876444 0
M  V30 2798 C 273.195 1.23373 1.66715 0
M  V30 2799 C 273.62 -0.19885 1.87046 0
M  V30 2800 O 272.978 -1.1427 1.40756 0
M  V30 2801 C 273.026 1.97644 3.01611 0
M  V30 2802 O 272.13 1.30935 3.91062 0
M  V30 2803 H 271.471 0.426279 0.509099 0
M  V30 2804 H 274.001 1.72944 1.09323 0
M  V30 2805 H 274.011 2.06992 3.51594 0
M  V30 2806 H 272.686 3.01829 2.86133 0
M  V30 2807 H 271.263 1.29996 3.49507 0
M  V30 2808 N 273.449 -1.08991 1.13837 0
M  V30 2809 C 274.674 -1.85551 0.926585 0
M  V30 2810 C 275.099 -1.80782 -0.519566 0
M  V30 2811 O 274.457 -1.18855 -1.36906 0
M  V30 2812 C 274.505 -3.31266 1.42462 0
M  V30 2813 O 273.609 -4.07822 0.612789 0
M  V30 2814 H 272.95 -0.575192 0.331738 0
M  V30 2815 H 275.48 -1.37604 1.51414 0
M  V30 2816 H 275.49 -3.82112 1.43019 0
M  V30 2817 H 274.165 -3.34052 2.47754 0
M  V30 2818 H 272.742 -3.66731 0.675463 0
M  V30 2819 N 274.927 -0.932562 -1.27047 0
M  V30 2820 C 275.89 -0.440064 -2.24936 0
M  V30 2821 C 276.89 0.444071 -1.54547 0
M  V30 2822 O 278.08 0.244465 -1.72476 0
M  V30 2823 C 275.212 0.36678 -3.38921 0
M  V30 2824 H 276.405 -1.305 -2.70018 0
M  V30 2825 H 273.958 -0.713707 -1.39054 0
M  V30 2826 H 274.693 1.25033 -2.99228 0
M  V30 2827 H 274.478 -0.267204 -3.91188 0
M  V30 2828 H 275.968 0.701567 -4.11665 0
M  V30 2829 N 276.405 1.4127 -0.698611 0
M  V30 2830 C 277.335 2.33447 -0.049629 0
M  V30 2831 C 278.316 1.51982 0.763898 0
M  V30 2832 O 279.501 1.80509 0.716257 0
M  V30 2833 C 276.631 3.35828 0.885267 0
M  V30 2834 C 275.585 4.27627 0.178613 0
M  V30 2835 C 274.911 5.20406 1.22807 0
M  V30 2836 C 276.211 5.13459 -0.956933 0
M  V30 2837 H 277.905 2.87966 -0.81951 0
M  V30 2838 H 275.451 1.38461 -0.395538 0
M  V30 2839 H 277.404 3.9924 1.34854 0
M  V30 2840 H 276.128 2.79666 1.68685 0
M  V30 2841 H 274.787 3.65643 -0.26466 0
M  V30 2842 H 274.435 4.60558 2.02226 0
M  V30 2843 H 274.135 5.82661 0.760239 0
M  V30 2844 H 275.659 5.86695 1.69179 0
M  V30 2845 H 277.073 5.70421 -0.573805 0
M  V30 2846 H 275.47 5.8467 -1.35205 0
M  V30 2847 H 276.54 4.50443 -1.79524 0
M  V30 2848 N 277.883 0.443576 1.51229 0
M  V30 2849 C 279.294 -0.0180867 1.86691 0
M  V30 2850 C 279.645 -1.41384 1.36033 0
M  V30 2851 O 278.77 -2.04291 0.713722 0
M  V30 2852 C 279.365 -0.039597 3.38777 0
M  V30 2853 C 277.924 -0.445692 3.73752 0
M  V30 2854 C 277.071 0.357584 2.74985 0
M  V30 2855 H 280.022 0.659138 1.44364 0
M  V30 2856 H 280.043 -0.847761 3.70936 0
M  V30 2857 H 279.555 0.976382 3.75617 0
M  V30 2858 H 277.656 -1.46704 3.42503 0
M  V30 2859 H 277.769 -0.166155 4.78812 0
M  V30 2860 H 276.133 -0.184973 2.54027 0
M  V30 2861 H 276.916 1.37256 3.14668 0
M  V30 2862 N 279.361 -1.56624 0.175154 0
M  V30 2863 C 280.607 -1.9729 -0.469506 0
M  V30 2864 C 280.94 -1.06128 -1.62636 0
M  V30 2865 O 280.215 -0.109183 -1.94193 0
M  V30 2866 C 280.498 -3.47375 -0.948804 0
M  V30 2867 C 280.351 -4.49317 0.208491 0
M  V30 2868 C 281.67 -4.00652 -1.82116 0
M  V30 2869 H 278.789 -0.717317 -0.16919 0
M  V30 2870 H 281.431 -1.88184 0.262062 0
M  V30 2871 H 279.581 -3.55267 -1.57219 0
M  V30 2872 H 281.253 -4.53482 0.845682 0
M  V30 2873 H 279.496 -4.25121 0.863395 0
M  V30 2874 H 280.167 -5.51741 -0.169059 0
M  V30 2875 H 282.643 -3.95416 -1.2956 0
M  V30 2876 H 281.519 -5.06075 -2.12554 0
M  V30 2877 H 281.78 -3.44699 -2.7683 0
M  V30 2878 N 280.839 0.0985539 -1.57292 0
M  V30 2879 C 282.079 0.808332 -1.87737 0
M  V30 2880 C 282.443 1.7607 -0.76572 0
M  V30 2881 O 283.644 2.51358 -0.952499 0
M  V30 2882 C 281.915 1.52093 -3.23423 0
M  V30 2883 S 283.474 2.26947 -3.75554 0
M  V30 2884 H 280.292 0.269377 -0.657995 0
M  V30 2885 H 282.894 0.0656269 -1.9539 0
M  V30 2886 H 281.598 0.81363 -4.02254 0
M  V30 2887 H 281.129 2.30361 -3.189 0
M  V30 2888 H 283.144 3.53027 -3.48692 0
M  V30 2889 N 282.317 1.53212 0.369288 0
M  V30 2890 C 283.264 1.79388 1.45219 0
M  V30 2891 C 284.234 0.638059 1.53356 0
M  V30 2892 O 285.419 0.879852 1.69302 0
M  V30 2893 C 282.559 1.98623 2.82211 0
M  V30 2894 C 281.672 3.26337 2.8307 0
M  V30 2895 C 280.807 3.35779 4.11614 0
M  V30 2896 C 279.846 4.5754 4.06601 0
M  V30 2897 N 278.983 4.64155 5.26787 0
M  V30 2898 H 283.823 2.71794 1.22198 0
M  V30 2899 H 281.36 1.34642 0.592444 0
M  V30 2900 H 283.318 2.07761 3.61789 0
M  V30 2901 H 281.948 1.09558 3.03639 0
M  V30 2902 H 281 3.26171 1.95747 0
M  V30 2903 H 282.312 4.15988 2.75237 0
M  V30 2904 H 281.466 3.44208 4.99606 0
M  V30 2905 H 280.205 2.44137 4.22195 0
M  V30 2906 H 279.21 4.49215 3.16996 0
M  V30 2907 H 280.435 5.50519 3.97625 0
M  V30 2908 H 278.381 3.75413 5.3796 0
M  V30 2909 H 278.298 5.47706 5.21109 0
M  V30 2910 H 279.566 4.76863 6.16621 0
M  V30 2911 N 283.795 -0.628877 1.44509 0
M  V30 2912 C 284.725 -1.75187 1.54376 0
M  V30 2913 C 285.706 -1.65411 0.396618 0
M  V30 2914 O 286.891 -1.84137 0.617031 0
M  V30 2915 C 284.021 -3.13725 1.48976 0
M  V30 2916 C 282.975 -3.38291 2.62189 0
M  V30 2917 C 282.301 -4.76883 2.41841 0
M  V30 2918 C 283.601 -3.30632 4.04326 0
M  V30 2919 H 285.295 -1.67187 2.48373 0
M  V30 2920 H 282.841 -0.802909 1.19538 0
M  V30 2921 H 284.794 -3.92064 1.54478 0
M  V30 2922 H 283.518 -3.22515 0.514961 0
M  V30 2923 H 282.177 -2.62334 2.56079 0
M  V30 2924 H 281.825 -4.82378 1.42548 0
M  V30 2925 H 281.525 -4.94278 3.17747 0
M  V30 2926 H 283.049 -5.57449 2.49165 0
M  V30 2927 H 284.463 -3.98873 4.11793 0
M  V30 2928 H 282.86 -3.59561 4.80454 0
M  V30 2929 H 283.93 -2.28404 4.27738 0
M  V30 2930 N 285.273 -1.31445 -0.869486 0
M  V30 2931 C 286.522 -1.20517 -1.61736 0
M  V30 2932 C 286.835 0.235341 -1.94179 0
M  V30 2933 O 288.041 0.466312 -2.67465 0
M  V30 2934 C 286.497 -2.10982 -2.91573 0
M  V30 2935 C 286.105 -3.60032 -2.66611 0
M  V30 2936 C 287.849 -2.08856 -3.69567 0
M  V30 2937 C 285.756 -4.42503 -3.92358 0
M  V30 2938 H 284.686 -0.447493 -0.606849 0
M  V30 2939 H 287.337 -1.56303 -0.96133 0
M  V30 2940 H 285.719 -1.68095 -3.58553 0
M  V30 2941 H 286.893 -4.11167 -2.08035 0
M  V30 2942 H 285.208 -3.64139 -2.0197 0
M  V30 2943 H 287.805 -2.67716 -4.62852 0
M  V30 2944 H 288.148 -1.07582 -4.02159 0
M  V30 2945 H 288.681 -2.49945 -3.09471 0
M  V30 2946 H 285.42 -5.44533 -3.64916 0
M  V30 2947 H 284.94 -3.96125 -4.50383 0
M  V30 2948 H 286.619 -4.54741 -4.60238 0
M  V30 2949 N 286.751 1.08385 -1.14413 0
M  V30 2950 C 287.683 2.1519 -0.789036 0
M  V30 2951 C 288.696 1.61638 0.19417 0
M  V30 2952 O 289.885 1.78479 -0.0275711 0
M  V30 2953 C 286.985 3.38565 -0.15058 0
M  V30 2954 C 286.158 4.21501 -1.16857 0
M  V30 2955 C 285.217 5.23277 -0.553832 0
M  V30 2956 O 284.243 5.56041 -1.21686 0
M  V30 2957 N 285.445 5.76629 0.669296 0
M  V30 2958 H 288.21 2.46257 -1.70814 0
M  V30 2959 H 285.771 1.24198 -1.03858 0
M  V30 2960 H 287.763 4.03777 0.273181 0
M  V30 2961 H 286.333 3.05299 0.671667 0
M  V30 2962 H 285.553 3.52265 -1.76926 0
M  V30 2963 H 286.841 4.73731 -1.85624 0
M  V30 2964 H 286.239 5.52243 1.22654 0
M  V30 2965 H 284.796 6.43521 1.03556 0
M  V30 2966 N 288.23 0.939286 1.26551 0
M  V30 2967 C 289.14 0.453432 2.30176 0
M  V30 2968 C 290.156 -0.471649 1.67486 0
M  V30 2969 O 291.332 -0.35164 1.98306 0
M  V30 2970 C 288.397 -0.275326 3.45605 0
M  V30 2971 C 287.458 0.686084 4.23782 0
M  V30 2972 C 286.691 -0.00798994 5.33699 0
M  V30 2973 O 286.914 -1.22528 5.57085 0
M  V30 2974 O 285.848 0.669746 5.98162 0
M  V30 2975 H 289.674 1.31416 2.73795 0
M  V30 2976 H 287.259 0.705095 1.31715 0
M  V30 2977 H 289.141 -0.685911 4.1578 0
M  V30 2978 H 287.816 -1.11147 3.0402 0
M  V30 2979 H 286.723 1.14658 3.56096 0
M  V30 2980 H 288.056 1.48979 4.69112 0
M  V30 2981 N 289.708 -1.40897 0.706093 0
M  V30 2982 C 290.671 -2.29131 0.0562841 0
M  V30 2983 C 291.671 -1.44901 -0.697166 0
M  V30 2984 O 292.861 -1.65926 -0.530484 0
M  V30 2985 C 289.993 -3.27957 -0.93043 0
M  V30 2986 H 291.186 -2.88091 0.833284 0
M  V30 2987 H 288.739 -1.4906 0.470192 0
M  V30 2988 H 289.474 -2.73997 -1.73482 0
M  V30 2989 H 289.259 -3.90124 -0.393166 0
M  V30 2990 H 290.749 -3.94049 -1.38256 0
M  V30 2991 N 291.186 -0.45159 -1.50991 0
M  V30 2992 C 292.597 0.00818571 -1.86698 0
M  V30 2993 C 292.948 1.40661 -1.3678 0
M  V30 2994 O 292.073 2.0391 -0.724546 0
M  V30 2995 C 292.668 0.0216303 -3.38793 0
M  V30 2996 C 291.227 0.425865 -3.73983 0
M  V30 2997 C 290.374 -0.372163 -2.74791 0
M  V30 2998 H 293.325 -0.666785 -1.44013 0
M  V30 2999 H 293.346 0.828078 -3.7138 0
M  V30 3000 H 292.858 -0.996288 -3.75094 0
M  V30 3001 H 290.959 1.44886 -3.43277 0
M  V30 3002 H 291.072 0.140761 -4.78893 0
M  V30 3003 H 289.436 0.171498 -2.54122 0
M  V30 3004 H 290.219 -1.38922 -3.13935 0
M  V30 3005 N 292.664 1.56529 -0.183458 0
M  V30 3006 C 293.611 2.18546 0.742055 0
M  V30 3007 C 294.581 1.12912 1.2182 0
M  V30 3008 O 295.766 1.41115 1.28418 0
M  V30 3009 C 292.906 2.83977 1.96089 0
M  V30 3010 C 292.019 4.04105 1.52719 0
M  V30 3011 C 291.154 4.57427 2.70063 0
M  V30 3012 C 290.193 5.69938 2.23243 0
M  V30 3013 N 289.33 6.17717 3.33722 0
M  V30 3014 H 294.17 2.97284 0.206432 0
M  V30 3015 H 291.707 1.46823 0.0901571 0
M  V30 3016 H 293.665 3.20077 2.67594 0
M  V30 3017 H 292.295 2.07822 2.47002 0
M  V30 3018 H 291.347 3.73745 0.708436 0
M  V30 3019 H 292.659 4.85513 1.1436 0
M  V30 3020 H 291.813 4.95772 3.49708 0
M  V30 3021 H 290.552 3.75101 3.11689 0
M  V30 3022 H 289.557 5.31133 1.42048 0
M  V30 3023 H 290.782 6.54073 1.82661 0
M  V30 3024 H 288.728 5.38317 3.74902 0
M  V30 3025 H 288.645 6.94146 2.99495 0
M  V30 3026 H 289.913 6.60713 4.13616 0
M  V30 3027 N 294.142 -0.090211 1.57342 0
M  V30 3028 C 295.553 -0.644173 1.75235 0
M  V30 3029 C 295.904 -1.78865 0.806335 0
M  V30 3030 O 295.029 -2.16395 -0.0140128 0
M  V30 3031 C 295.624 -1.17532 3.1776 0
M  V30 3032 C 294.183 -1.67531 3.37061 0
M  V30 3033 C 293.33 -0.58693 2.71017 0
M  V30 3034 H 296.281 0.135884 1.58117 0
M  V30 3035 H 296.302 -2.04455 3.20902 0
M  V30 3036 H 295.814 -0.342138 3.86589 0
M  V30 3037 H 293.915 -2.53234 2.73319 0
M  V30 3038 H 294.028 -1.76493 4.45406 0
M  V30 3039 H 292.392 -1.02756 2.33052 0
M  V30 3040 H 293.175 0.235758 3.4249 0
M  V30 3041 N 295.62 -1.53406 -0.361157 0
M  V30 3042 C 296.53 -1.83122 -1.4664 0
M  V30 3043 C 297.546 -0.719943 -1.58407 0
M  V30 3044 O 298.722 -1.01046 -1.74218 0
M  V30 3045 C 295.787 -2.01891 -2.81853 0
M  V30 3046 C 294.848 -3.25784 -2.79577 0
M  V30 3047 C 294.081 -3.43648 -4.0834 0
M  V30 3048 O 294.304 -2.65714 -5.0473 0
M  V30 3049 O 293.238 -4.37018 -4.13883 0
M  V30 3050 H 297.064 -2.7703 -1.24451 0
M  V30 3051 H 294.649 -1.38841 -0.551678 0
M  V30 3052 H 296.531 -2.15782 -3.61962 0
M  V30 3053 H 295.206 -1.11173 -3.0401 0
M  V30 3054 H 294.113 -3.17312 -1.98151 0
M  V30 3055 H 295.446 -4.16439 -2.62373 0
M  V30 3056 N 297.098 0.621204 -1.44841 0
M  V30 3057 C 298.338 1.39201 -1.49674 0
M  V30 3058 C 298.702 1.91561 -0.129764 0
M  V30 3059 O 299.903 2.68748 -0.0527814 0
M  V30 3060 C 298.174 2.519 -2.53537 0
M  V30 3061 S 299.733 3.39916 -2.77494 0
M  V30 3062 H 296.551 0.474758 -0.529269 0
M  V30 3063 H 299.153 0.718171 -1.81831 0
M  V30 3064 H 297.857 2.11761 -3.51547 0
M  V30 3065 H 297.388 3.241 -2.22986 0
M  V30 3066 H 299.403 4.49646 -2.0984 0
M  V30 3067 N 298.576 1.31904 0.862503 0
M  V30 3068 C 299.486 1.22161 2.00285 0
M  V30 3069 C 300.502 0.136785 1.73462 0
M  V30 3070 O 301.678 0.355994 1.98229 0
M  V30 3071 C 298.743 0.937093 3.33796 0
M  V30 3072 C 297.804 2.10957 3.73893 0
M  V30 3073 C 297.037 1.83853 5.01033 0
M  V30 3074 O 297.26 0.777274 5.65079 0
M  V30 3075 O 296.194 2.69741 5.38074 0
M  V30 3076 H 300.02 2.18008 2.11439 0
M  V30 3077 H 297.605 1.11716 0.991957 0
M  V30 3078 H 299.487 0.794583 4.13841 0
M  V30 3079 H 298.162 0.00871894 3.23699 0
M  V30 3080 H 297.069 2.30752 2.94456 0
M  V30 3081 H 298.402 3.02046 3.88625 0
M  V30 3082 N 300.054 -1.07777 1.14986 0
M  V30 3083 C 301.001 -2.14867 0.842672 0
M  V30 3084 C 301.971 -1.6486 -0.202552 0
M  V30 3085 O 303.156 -1.90668 -0.0710568 0
M  V30 3086 C 300.296 -3.43486 0.333363 0
M  V30 3087 C 299.409 -4.07306 1.43965 0
M  V30 3088 C 298.544 -5.23744 0.886914 0
M  V30 3089 C 297.583 -5.79517 1.97043 0
M  V30 3090 N 296.72 -6.87291 1.4344 0
M  V30 3091 H 301.56 -2.40485 1.75986 0
M  V30 3092 H 299.097 -1.1801 0.878179 0
M  V30 3093 H 301.055 -4.17195 0.0198163 0
M  V30 3094 H 299.685 -3.18133 -0.546916 0
M  V30 3095 H 298.737 -3.31293 1.86946 0
M  V30 3096 H 300.049 -4.44771 2.25788 0
M  V30 3097 H 299.203 -6.04419 0.525651 0
M  V30 3098 H 297.942 -4.87685 0.0377957 0
M  V30 3099 H 296.947 -4.97491 2.34057 0
M  V30 3100 H 298.172 -6.17632 2.82325 0
M  V30 3101 H 296.118 -6.5318 0.607567 0
M  V30 3102 H 296.035 -7.23617 2.18895 0
M  V30 3103 H 297.303 -7.71682 1.10124 0
M  V30 3104 N 301.532 -0.945985 -1.26051 0
M  V30 3105 C 302.495 -0.463897 -2.24456 0
M  V30 3106 C 303.495 0.427655 -1.55009 0
M  V30 3107 O 304.685 0.226157 -1.72726 0
M  V30 3108 C 301.817 0.330812 -3.39291 0
M  V30 3109 H 303.01 -1.33357 -2.68619 0
M  V30 3110 H 300.563 -0.728416 -1.38289 0
M  V30 3111 H 301.298 1.21852 -3.00537 0
M  V30 3112 H 301.083 -0.308679 -3.90883 0
M  V30 3113 H 302.573 0.657865 -4.12386 0
M  V30 3114 N 303.011 1.40521 -0.713556 0
M  V30 3115 C 303.941 2.33381 -0.0743864 0
M  V30 3116 C 304.922 1.52784 0.747735 0
M  V30 3117 O 306.107 1.81258 0.697071 0
M  V30 3118 C 303.237 3.36748 0.849598 0
M  V30 3119 C 302.191 4.27793 0.133247 0
M  V30 3120 C 301.517 5.21679 1.17281 0
M  V30 3121 C 302.817 5.12415 -1.01134 0
M  V30 3122 H 304.511 2.87081 -0.850007 0
M  V30 3123 H 302.057 1.38034 -0.410201 0
M  V30 3124 H 304.01 4.00648 1.30612 0
M  V30 3125 H 302.734 2.81439 1.65709 0
M  V30 3126 H 301.393 3.65342 -0.303426 0
M  V30 3127 H 301.041 4.62677 1.9733 0
M  V30 3128 H 300.741 5.83435 0.698397 0
M  V30 3129 H 302.265 5.88456 1.62947 0
M  V30 3130 H 303.679 5.69781 -0.634274 0
M  V30 3131 H 302.076 5.83203 -1.41399 0
M  V30 3132 H 303.146 4.48514 -1.84292 0
M  V30 3133 N 304.489 0.459591 1.5075 0
M  V30 3134 C 305.419 -0.330644 2.31147 0
M  V30 3135 C 306.4 -1.00087 1.37538 0
M  V30 3136 O 307.585 -1.00025 1.66459 0
M  V30 3137 C 304.715 -1.41958 3.16962 0
M  V30 3138 C 303.669 -0.871608 4.19031 0
M  V30 3139 C 302.995 -2.05797 4.9351 0
M  V30 3140 C 304.295 0.109251 5.22186 0
M  V30 3141 H 305.989 0.340336 2.97459 0
M  V30 3142 H 303.535 0.165119 1.4305 0
M  V30 3143 H 305.488 -1.9798 3.71997 0
M  V30 3144 H 304.212 -2.11917 2.48513 0
M  V30 3145 H 302.871 -0.333442 3.6508 0
M  V30 3146 H 302.519 -2.74427 4.21544 0
M  V30 3147 H 302.219 -1.6976 5.62544 0
M  V30 3148 H 303.743 -2.62331 5.51375 0
M  V30 3149 H 305.157 -0.361405 5.7216 0
M  V30 3150 H 303.554 0.383316 5.98875 0
M  V30 3151 H 304.624 1.03887 4.73641 0
M  V30 3152 N 305.967 -1.56429 0.191757 0
M  V30 3153 C 306.93 -2.17707 -0.716688 0
M  V30 3154 C 307.93 -1.13061 -1.14341 0
M  V30 3155 O 309.12 -1.38464 -1.05704 0
M  V30 3156 C 306.252 -2.77644 -1.97804 0
M  V30 3157 H 307.445 -2.99342 -0.1829 0
M  V30 3158 H 304.998 -1.56193 -0.0578566 0
M  V30 3159 H 305.733 -1.99799 -2.55443 0
M  V30 3160 H 305.518 -3.54246 -1.68083 0
M  V30 3161 H 307.008 -3.24708 -2.62592 0
M  V30 3162 N 307.445 0.0818655 -1.57387 0
M  V30 3163 C 308.692 0.782914 -1.86753 0
M  V30 3164 C 309.02 1.78082 -0.782118 0
M  V30 3165 O 308.275 1.94426 0.22295 0
M  V30 3166 C 308.574 1.53513 -3.22752 0
M  V30 3167 C 308.24 0.678134 -4.45771 0
M  V30 3168 C 306.902 0.441929 -4.79166 0
M  V30 3169 C 309.254 0.0832243 -5.21134 0
M  V30 3170 C 306.582 -0.398833 -5.85343 0
M  V30 3171 C 308.934 -0.744935 -6.28199 0
M  V30 3172 C 307.598 -0.991107 -6.60101 0
M  V30 3173 H 306.868 0.286489 -0.683378 0
M  V30 3174 H 309.515 0.0439808 -1.91449 0
M  V30 3175 H 307.82 2.34599 -3.138 0
M  V30 3176 H 309.517 2.08218 -3.42705 0
M  V30 3177 H 306.107 0.872357 -4.19628 0
M  V30 3178 H 310.291 0.252847 -4.95655 0
M  V30 3179 H 305.547 -0.598405 -6.08465 0
M  V30 3180 H 309.721 -1.21271 -6.8576 0
M  V30 3181 H 307.348 -1.64437 -7.42202 0
M  V30 3182 N 308.923 1.53595 0.353017 0
M  V30 3183 C 309.855 1.77219 1.45348 0
M  V30 3184 C 310.868 0.65324 1.49119 0
M  V30 3185 O 312.057 0.929775 1.52373 0
M  V30 3186 C 309.157 1.84841 2.84055 0
M  V30 3187 C 308.33 3.14649 3.03833 0
M  V30 3188 C 307.389 3.13351 4.22727 0
M  V30 3189 O 306.415 3.87107 4.17297 0
M  V30 3190 N 307.617 2.35052 5.30783 0
M  V30 3191 H 310.382 2.72178 1.25457 0
M  V30 3192 H 307.943 1.52528 0.542833 0
M  V30 3193 H 309.935 1.81435 3.61751 0
M  V30 3194 H 308.505 0.971114 2.97133 0
M  V30 3195 H 307.725 3.31256 2.13689 0
M  V30 3196 H 309.013 4.00411 3.13925 0
M  V30 3197 H 308.411 1.74663 5.38061 0
M  V30 3198 H 306.968 2.37453 6.07009 0
M  V30 3199 N 310.401 -0.613514 1.45168 0
M  V30 3200 C 311.311 -1.75296 1.55912 0
M  V30 3201 C 312.327 -1.68244 0.443856 0
M  V30 3202 O 313.503 -1.88706 0.70371 0
M  V30 3203 C 310.568 -3.1174 1.5172 0
M  V30 3204 C 309.629 -3.30291 2.74238 0
M  V30 3205 C 308.862 -4.60226 2.70236 0
M  V30 3206 O 309.085 -5.42168 1.77229 0
M  V30 3207 O 308.019 -4.81361 3.61352 0
M  V30 3208 H 311.845 -1.69183 2.52212 0
M  V30 3209 H 309.43 -0.776886 1.27612 0
M  V30 3210 H 311.312 -3.93044 1.51968 0
M  V30 3211 H 309.987 -3.18357 0.585697 0
M  V30 3212 H 308.894 -2.48598 2.79553 0
M  V30 3213 H 310.227 -3.28547 3.66494 0
M  V30 3214 N 311.879 -1.3236 -0.855495 0
M  V30 3215 C 313.104 -1.2601 -1.64731 0
M  V30 3216 C 313.529 0.169068 -1.87339 0
M  V30 3217 O 312.887 1.12016 -1.42556 0
M  V30 3218 C 312.935 -2.02417 -2.98429 0
M  V30 3219 O 312.039 -1.3714 -3.8893 0
M  V30 3220 H 311.38 -0.434325 -0.502253 0
M  V30 3221 H 313.91 -1.74661 -1.06558 0
M  V30 3222 H 313.92 -2.12559 -3.48257 0
M  V30 3223 H 312.595 -3.06343 -2.81295 0
M  V30 3224 H 311.172 -1.3554 -3.47395 0
M  V30 3225 N 313.357 1.07166 -1.15556 0
M  V30 3226 C 314.304 2.14417 -0.854055 0
M  V30 3227 C 315.274 1.64965 0.193806 0
M  V30 3228 O 316.459 1.90703 0.0609443 0
M  V30 3229 C 313.599 3.43304 -0.351574 0
M  V30 3230 C 312.712 4.06537 -1.46123 0
M  V30 3231 C 311.847 5.23266 -0.914677 0
M  V30 3232 C 310.886 5.78464 -2.00114 0
M  V30 3233 N 310.023 6.86521 -1.47083 0
M  V30 3234 H 314.863 2.39548 -1.77259 0
M  V30 3235 H 312.4 1.17543 -0.884425 0
M  V30 3236 H 314.358 4.17179 -0.0419409 0
M  V30 3237 H 312.988 3.18419 0.530037 0
M  V30 3238 H 312.04 3.30297 -1.88701 0
M  V30 3239 H 313.352 4.43567 -2.28144 0
M  V30 3240 H 312.506 6.04131 -0.557698 0
M  V30 3241 H 311.245 4.87658 -0.0636583 0
M  V30 3242 H 310.25 4.96243 -2.36692 0
M  V30 3243 H 311.475 6.16126 -2.85597 0
M  V30 3244 H 309.421 6.52849 -0.642198 0
M  V30 3245 H 309.338 7.22446 -2.22729 0
M  V30 3246 H 310.606 7.71087 -1.14215 0
M  V30 3247 N 314.835 0.952656 1.25548 0
M  V30 3248 C 315.783 0.462354 2.27958 0
M  V30 3249 C 316.777 -0.46634 1.62855 0
M  V30 3250 O 317.983 -0.343287 1.76696 0
M  V30 3251 H 314.358 0.13101 0.7405 0
M  V30 3252 H 316.329 1.33839 2.66702 0
M  V30 3253 C 315.078 -0.24628 3.46827 0
M  V30 3254 H 314.401 0.459192 3.97154 0
M  V30 3255 H 315.841 -0.553393 4.20373 0
M  V30 3256 C 314.3 -1.4681 3.0323 0
M  V30 3257 O 314.83 -2.56591 3.09069 0
M  V30 3258 N 313.036 -1.32874 2.58443 0
M  V30 3259 H 312.583 -0.435536 2.53891 0
M  V30 3260 H 312.541 -2.14742 2.29637 0
M  V30 3261 N 316.313 -1.40141 0.720998 0
M  V30 3262 C 317.243 -2.33339 0.0867621 0
M  V30 3263 C 318.224 -1.53178 -0.739622 0
M  V30 3264 O 319.409 -1.81625 -0.687449 0
M  V30 3265 C 316.539 -3.37194 -0.831728 0
M  V30 3266 C 315.493 -4.27857 -0.110558 0
M  V30 3267 C 314.819 -5.22294 -1.14513 0
M  V30 3268 C 316.119 -5.11872 1.0385 0
M  V30 3269 H 317.813 -2.86626 0.865219 0
M  V30 3270 H 315.359 -1.37814 0.417516 0
M  V30 3271 H 317.312 -4.01335 -1.28485 0
M  V30 3272 H 316.036 -2.82314 -1.64214 0
M  V30 3273 H 314.695 -3.65176 0.322797 0
M  V30 3274 H 314.343 -4.63717 -1.94874 0
M  V30 3275 H 314.043 -5.83797 -0.667446 0
M  V30 3276 H 315.567 -5.89312 -1.59824 0
M  V30 3277 H 316.981 -5.69436 0.664482 0
M  V30 3278 H 315.378 -5.82445 1.4449 0
M  V30 3279 H 316.448 -4.4753 1.86668 0
M  V30 3280 N 317.792 -0.46758 -1.50504 0
M  V30 3281 C 319.032 0.0874114 -2.04213 0
M  V30 3282 C 319.396 1.37301 -1.34211 0
M  V30 3283 O 320.597 2.01015 -1.78456 0
M  V30 3284 C 318.868 0.270571 -3.56374 0
M  V30 3285 S 320.427 0.784623 -4.31728 0
M  V30 3286 H 317.245 0.0176153 -0.710782 0
M  V30 3287 H 319.847 -0.633915 -1.84937 0
M  V30 3288 H 318.551 -0.670942 -4.04878 0
M  V30 3289 H 318.082 1.01811 -3.79997 0
M  V30 3290 H 320.097 2.05849 -4.51487 0
M  V30 3291 N 319.27 1.56325 -0.20005 0
M  V30 3292 C 320.18 2.22931 0.730668 0
M  V30 3293 C 321.196 1.22997 1.23076 0
M  V30 3294 O 322.372 1.55748 1.27689 0
M  V30 3295 C 319.437 2.87948 1.93098 0
M  V30 3296 C 318.498 4.03166 1.47497 0
M  V30 3297 C 317.731 4.65073 2.61807 0
M  V30 3298 O 317.954 4.25913 3.79413 0
M  V30 3299 O 316.888 5.54452 2.34237 0
M  V30 3300 H 320.714 3.03084 0.193391 0
M  V30 3301 H 318.299 1.49371 0.0294621 0
M  V30 3302 H 320.181 3.29063 2.6324 0
M  V30 3303 H 318.856 2.10771 2.45677 0
M  V30 3304 H 317.763 3.66664 0.742201 0
M  V30 3305 H 319.096 4.82022 0.995796 0
M  V30 3306 N 320.748 -0.0735177 1.57428 0
M  V30 3307 C 321.711 -1.07192 2.02589 0
M  V30 3308 C 322.711 -1.31695 0.922661 0
M  V30 3309 O 323.901 -1.27445 1.18758 0
M  V30 3310 C 321.033 -2.41599 2.40506 0
M  V30 3311 H 322.226 -0.682727 2.92025 0
M  V30 3312 H 319.779 -0.319193 1.53006 0
M  V30 3313 H 320.514 -2.85354 1.5409 0
M  V30 3314 H 320.299 -2.25156 3.21009 0
M  V30 3315 H 321.789 -3.13367 2.76027 0
M  V30 3316 N 322.226 -1.5378 -0.344866 0
M  V30 3317 C 323.159 -1.7649 -1.4466 0
M  V30 3318 C 324.137 -0.613954 -1.50563 0
M  V30 3319 O 325.321 -0.84896 -1.683 0
M  V30 3320 C 322.448 -1.86235 -2.82903 0
M  V30 3321 C 321.494 -3.08375 -2.94631 0
M  V30 3322 S 322.327 -4.67457 -2.61236 0
M  V30 3323 C 323.483 -4.80079 -4.0159 0
M  V30 3324 H 323.716 -2.69661 -1.2518 0
M  V30 3325 H 321.249 -1.44632 -0.540455 0
M  V30 3326 H 323.207 -1.92535 -3.62547 0
M  V30 3327 H 321.868 -0.940786 -2.9968 0
M  V30 3328 H 321.061 -3.11865 -3.95925 0
M  V30 3329 H 320.663 -3.00294 -2.22934 0
M  V30 3330 H 322.955 -4.61407 -4.96094 0
M  V30 3331 H 323.898 -5.82168 -4.03095 0
M  V30 3332 H 324.306 -4.08544 -3.89554 0
M  V30 3333 N 323.704 0.605807 -1.45491 0
M  V30 3334 C 324.614 1.74466 -1.56839 0
M  V30 3335 C 325.63 1.68006 -0.452772 0
M  V30 3336 O 326.806 1.8833 -0.713708 0
M  V30 3337 C 323.871 3.10931 -1.53371 0
M  V30 3338 C 322.932 3.28832 -2.75986 0
M  V30 3339 C 322.165 4.58787 -2.72673 0
M  V30 3340 O 322.388 5.4122 -1.80102 0
M  V30 3341 O 321.322 4.79438 -3.63899 0
M  V30 3342 H 325.148 1.67843 -2.53106 0
M  V30 3343 H 322.733 0.770108 -1.28022 0
M  V30 3344 H 324.615 3.92233 -1.54051 0
M  V30 3345 H 323.29 3.18042 -0.602572 0
M  V30 3346 H 322.197 2.47112 -2.80867 0
M  V30 3347 H 323.53 3.26599 -3.68231 0
M  V30 3348 N 325.182 1.32811 0.848464 0
M  V30 3349 C 326.13 1.22231 1.97895 0
M  V30 3350 C 327.124 0.125749 1.68933 0
M  V30 3351 O 328.33 0.289083 1.77663 0
M  V30 3352 H 324.705 0.379058 0.649476 0
M  V30 3353 H 326.676 2.17828 2.03945 0
M  V30 3354 C 325.425 0.968572 3.33937 0
M  V30 3355 H 324.748 1.80458 3.56756 0
M  V30 3356 H 326.188 0.934808 4.13567 0
M  V30 3357 C 324.647 -0.328628 3.35293 0
M  V30 3358 O 325.177 -1.33848 3.78745 0
M  V30 3359 N 323.383 -0.352788 2.88451 0
M  V30 3360 H 322.93 0.469541 2.53285 0
M  V30 3361 H 322.888 -1.22057 2.89741 0
M  V30 3362 N 326.66 -1.06551 1.16123 0
M  V30 3363 C 327.907 -1.79302 0.941126 0
M  V30 3364 C 328.235 -1.87105 -0.531235 0
M  V30 3365 O 327.49 -1.35692 -1.41018 0
M  V30 3366 C 327.789 -3.23911 1.51052 0
M  V30 3367 C 327.455 -3.36193 3.00475 0
M  V30 3368 C 326.117 -3.39252 3.41265 0
M  V30 3369 C 328.469 -3.38326 3.96465 0
M  V30 3370 C 325.797 -3.42057 4.76669 0
M  V30 3371 C 328.149 -3.4267 5.31752 0
M  V30 3372 C 326.813 -3.4401 5.72026 0
M  V30 3373 H 326.083 -0.656111 0.344382 0
M  V30 3374 H 328.73 -1.25325 1.44796 0
M  V30 3375 H 327.035 -3.80723 0.925063 0
M  V30 3376 H 328.732 -3.78793 1.31593 0
M  V30 3377 H 325.322 -3.34516 2.6795 0
M  V30 3378 H 329.506 -3.35176 3.6602 0
M  V30 3379 H 324.762 -3.41398 5.07206 0
M  V30 3380 H 328.936 -3.43268 6.05921 0
M  V30 3381 H 326.563 -3.45937 6.76928 0
M  V30 3382 N 328.138 -0.959301 -1.25041 0
M  V30 3383 C 329.071 -0.427418 -2.24161 0
M  V30 3384 C 330.049 0.493837 -1.54919 0
M  V30 3385 O 331.233 0.427144 -1.83597 0
M  V30 3386 C 328.36 0.383893 -3.36517 0
M  V30 3387 C 327.406 -0.478431 -4.23808 0
M  V30 3388 S 328.239 -1.91353 -5.00144 0
M  V30 3389 C 329.395 -1.11077 -6.15965 0
M  V30 3390 H 329.628 -1.26743 -2.6893 0
M  V30 3391 H 327.161 -0.763714 -1.34189 0
M  V30 3392 H 329.119 0.846039 -4.01687 0
M  V30 3393 H 327.78 1.19878 -2.90324 0
M  V30 3394 H 326.973 0.14406 -5.03794 0
M  V30 3395 H 326.575 -0.87597 -3.63597 0
M  V30 3396 H 328.867 -0.361699 -6.76534 0
M  V30 3397 H 329.81 -1.88472 -6.82557 0
M  V30 3398 H 330.218 -0.638843 -5.60873 0
M  V30 3399 N 329.616 1.39756 -0.72842 0
M  V30 3400 C 330.548 2.29157 -0.0446202 0
M  V30 3401 C 331.561 1.46484 0.710367 0
M  V30 3402 O 332.75 1.69632 0.55562 0
M  V30 3403 C 329.85 3.24987 0.961071 0
M  V30 3404 C 329.023 4.36572 0.268967 0
M  V30 3405 C 328.082 5.12756 1.18184 0
M  V30 3406 O 327.108 5.6534 0.661794 0
M  V30 3407 N 328.31 5.23331 2.51206 0
M  V30 3408 H 331.075 2.88482 -0.812295 0
M  V30 3409 H 328.636 1.51265 -0.577098 0
M  V30 3410 H 330.628 3.72827 1.57423 0
M  V30 3411 H 329.198 2.66739 1.63 0
M  V30 3412 H 328.418 3.90694 -0.524574 0
M  V30 3413 H 329.706 5.08363 -0.210934 0
M  V30 3414 H 329.104 4.82116 2.9594 0
M  V30 3415 H 327.661 5.74634 3.07634 0
M  V30 3416 N 331.094 0.475555 1.50254 0
M  V30 3417 C 332.026 -0.352649 2.26471 0
M  V30 3418 C 333.039 -0.953165 1.3198 0
M  V30 3419 O 334.228 -0.840815 1.57457 0
M  V30 3420 C 331.328 -1.50902 3.0345 0
M  V30 3421 C 330.501 -1.02047 4.25329 0
M  V30 3422 C 329.56 -2.05142 4.84565 0
M  V30 3423 O 328.586 -1.63023 5.45355 0
M  V30 3424 N 329.788 -3.37987 4.71959 0
M  V30 3425 H 332.553 0.300767 2.98187 0
M  V30 3426 H 330.114 0.306598 1.5897 0
M  V30 3427 H 332.106 -2.19572 3.39956 0
M  V30 3428 H 330.676 -2.06705 2.34504 0
M  V30 3429 H 329.896 -0.159507 3.93877 0
M  V30 3430 H 331.184 -0.672061 5.04342 0
M  V30 3431 H 330.582 -3.74913 4.23623 0
M  V30 3432 H 329.139 -4.02443 5.12721 0
M  V30 3433 N 332.573 -1.56217 0.208337 0
M  V30 3434 C 333.503 -2.22694 -0.702116 0
M  V30 3435 C 334.484 -1.19432 -1.2112 0
M  V30 3436 O 335.669 -1.47978 -1.25762 0
M  V30 3437 C 332.799 -2.8966 -1.9161 0
M  V30 3438 C 331.753 -3.9928 -1.5414 0
M  V30 3439 C 331.079 -4.53476 -2.83308 0
M  V30 3440 C 332.379 -5.17012 -0.741339 0
M  V30 3441 H 334.073 -2.99034 -0.147898 0
M  V30 3442 H 331.619 -1.43831 -0.0696951 0
M  V30 3443 H 333.572 -3.34852 -2.55836 0
M  V30 3444 H 332.296 -2.10746 -2.49507 0
M  V30 3445 H 330.955 -3.54799 -0.922668 0
M  V30 3446 H 330.603 -3.71308 -3.39322 0
M  V30 3447 H 330.303 -5.27451 -2.58976 0
M  V30 3448 H 331.827 -5.01378 -3.485 0
M  V30 3449 H 333.241 -5.58667 -1.28699 0
M  V30 3450 H 331.638 -5.97137 -0.595627 0
M  V30 3451 H 332.708 -4.8423 0.254851 0
M  V30 3452 N 334.051 0.0651679 -1.57465 0
M  V30 3453 C 334.998 1.07675 -2.04144 0
M  V30 3454 C 335.968 1.38071 -0.923335 0
M  V30 3455 O 337.153 1.49026 -1.19146 0
M  V30 3456 C 334.293 2.38337 -2.49579 0
M  V30 3457 C 333.406 2.14413 -3.75035 0
M  V30 3458 C 332.541 3.38686 -4.09225 0
M  V30 3459 C 331.58 3.10156 -5.27702 0
M  V30 3460 N 330.717 4.26778 -5.57499 0
M  V30 3461 H 335.557 0.671716 -2.90331 0
M  V30 3462 H 333.094 0.3201 -1.43575 0
M  V30 3463 H 335.052 3.14632 -2.73975 0
M  V30 3464 H 333.682 2.7663 -1.6636 0
M  V30 3465 H 332.734 1.2878 -3.57939 0
M  V30 3466 H 334.046 1.89344 -4.61466 0
M  V30 3467 H 333.2 4.23373 -4.34558 0
M  V30 3468 H 331.939 3.66837 -3.21374 0
M  V30 3469 H 330.944 2.23866 -5.02159 0
M  V30 3470 H 332.169 2.8332 -6.17176 0
M  V30 3471 H 330.115 4.54948 -4.72608 0
M  V30 3472 H 330.032 4.05005 -6.38362 0
M  V30 3473 H 331.3 5.12443 -5.87386 0
M  V30 3474 N 335.529 1.53961 0.336706 0
M  V30 3475 C 336.439 1.85432 1.43708 0
M  V30 3476 C 337.455 0.745053 1.57242 0
M  V30 3477 O 338.631 1.03804 1.72588 0
M  V30 3478 C 335.696 2.06349 2.78605 0
M  V30 3479 C 334.757 3.30191 2.74358 0
M  V30 3480 C 333.99 3.50101 4.02822 0
M  V30 3481 O 334.213 2.7371 5.00439 0
M  V30 3482 O 333.147 4.43547 4.06878 0
M  V30 3483 H 336.973 2.78975 1.20028 0
M  V30 3484 H 334.558 1.39701 0.52952 0
M  V30 3485 H 336.44 2.21513 3.58483 0
M  V30 3486 H 335.115 1.15995 3.02203 0
M  V30 3487 H 334.022 3.20425 1.93078 0
M  V30 3488 H 335.355 4.2056 2.55715 0
M  V30 3489 N 337.007 -0.598083 1.45811 0
M  V30 3490 C 338.232 -1.3881 1.54099 0
M  V30 3491 C 338.657 -1.8726 0.177578 0
M  V30 3492 O 338.015 -1.6069 -0.839541 0
M  V30 3493 C 338.063 -2.56217 2.53743 0
M  V30 3494 O 337.167 -3.5716 2.06182 0
M  V30 3495 H 336.508 -0.414024 0.519115 0
M  V30 3496 H 339.038 -0.726971 1.91249 0
M  V30 3497 H 339.048 -3.03337 2.72856 0
M  V30 3498 H 337.723 -2.20303 3.5276 0
M  V30 3499 H 336.3 -3.16624 1.96987 0
M  V30 3500 N 338.485 -1.33259 -0.841409 0
M  V30 3501 C 339.733 -1.24326 -1.59334 0
M  V30 3502 C 340.054 0.191564 -1.94057 0
M  V30 3503 O 339.324 1.11967 -1.60749 0
M  V30 3504 H 337.904 -0.457174 -0.590763 0
M  V30 3505 H 340.566 -1.66947 -1.00571 0
M  V30 3506 H 339.662 -1.8352 -2.52442 0
M  V30 3507 N 339.963 1.05934 -1.16686 0
M  V30 3508 C 340.896 2.1295 -0.820225 0
M  V30 3509 C 341.874 1.61242 0.209722 0
M  V30 3510 O 343.058 1.88271 0.0929688 0
M  V30 3511 C 340.185 3.3797 -0.22223 0
M  V30 3512 C 339.231 4.08488 -1.22637 0
M  V30 3513 S 340.064 4.58015 -2.77457 0
M  V30 3514 C 341.22 5.86292 -2.19117 0
M  V30 3515 H 341.453 2.42025 -1.72659 0
M  V30 3516 H 338.986 1.18423 -0.990722 0
M  V30 3517 H 340.944 4.10335 0.116322 0
M  V30 3518 H 339.605 3.07045 0.66196 0
M  V30 3519 H 338.798 4.98291 -0.756455 0
M  V30 3520 H 338.4 3.42154 -1.51019 0
M  V30 3521 H 340.692 6.59246 -1.56209 0
M  V30 3522 H 341.635 6.38019 -3.07144 0
M  V30 3523 H 342.043 5.40497 -1.62858 0
M  V30 3524 N 341.441 0.965919 1.2453 0
M  V30 3525 C 342.669 0.644385 1.96609 0
M  V30 3526 C 343.084 -0.785823 1.71669 0
M  V30 3527 O 342.441 -1.52703 0.999399 0
M  V30 3528 C 342.492 0.907375 3.49927 0
M  V30 3529 O 342.213 2.28136 3.74013 0
M  V30 3530 C 343.714 0.599784 4.39224 0
M  V30 3531 H 340.934 0.240588 0.626385 0
M  V30 3532 H 343.478 1.29337 1.58405 0
M  V30 3533 H 341.633 0.304631 3.862 0
M  V30 3534 H 342.047 2.36002 4.68405 0
M  V30 3535 H 343.521 0.834263 5.45659 0
M  V30 3536 H 343.998 -0.465921 4.36722 0
M  V30 3537 H 344.604 1.18235 4.08535 0
M  V30 3538 N 342.919 -1.39368 0.735821 0
M  V30 3539 C 343.852 -2.28155 0.0451175 0
M  V30 3540 C 344.83 -1.44433 -0.746852 0
M  V30 3541 O 346.014 -1.73823 -0.729237 0
M  V30 3542 C 343.141 -3.253 -0.943266 0
M  V30 3543 C 342.187 -4.25826 -0.239685 0
M  V30 3544 S 343.02 -5.25166 1.04693 0
M  V30 3545 C 344.176 -6.2587 0.0611639 0
M  V30 3546 H 344.409 -2.86388 0.79807 0
M  V30 3547 H 341.942 -1.45104 0.527653 0
M  V30 3548 H 343.9 -3.81789 -1.50824 0
M  V30 3549 H 342.561 -2.66085 -1.66906 0
M  V30 3550 H 341.754 -4.94229 -0.987596 0
M  V30 3551 H 341.356 -3.73141 0.253274 0
M  V30 3552 H 343.648 -6.73007 -0.778941 0
M  V30 3553 H 344.591 -7.04508 0.712362 0
M  V30 3554 H 344.999 -5.63639 -0.311602 0
M  V30 3555 N 344.397 -0.483516 -1.5 0
M  V30 3556 C 345.307 0.309172 -2.32554 0
M  V30 3557 C 346.323 0.984159 -1.43493 0
M  V30 3558 O 347.499 0.969399 -1.76535 0
M  V30 3559 C 344.564 1.36979 -3.18493 0
M  V30 3560 C 343.625 0.710095 -4.23387 0
M  V30 3561 C 342.858 1.72018 -5.05218 0
M  V30 3562 O 343.081 2.94813 -4.88305 0
M  V30 3563 O 342.015 1.28515 -5.8802 0
M  V30 3564 H 345.841 -0.366064 -3.01486 0
M  V30 3565 H 343.426 -0.24514 -1.47375 0
M  V30 3566 H 345.308 1.98385 -3.71781 0
M  V30 3567 H 343.983 2.02828 -2.52275 0
M  V30 3568 H 342.89 0.0567539 -3.74057 0
M  V30 3569 H 344.223 0.0943557 -4.9211 0
M  V30 3570 N 345.875 1.56104 -0.216619 0
M  V30 3571 C 346.785 2.23694 0.706982 0
M  V30 3572 C 347.801 1.24295 1.21765 0
M  V30 3573 O 348.977 1.57094 1.2603 0
M  V30 3574 C 346.042 2.8998 1.90033 0
M  V30 3575 C 345.103 4.04708 1.43213 0
M  V30 3576 C 344.336 4.67824 2.56859 0
M  V30 3577 O 344.559 4.29913 3.74874 0
M  V30 3578 O 343.493 5.56905 2.28343 0
M  V30 3579 H 347.319 3.03272 0.161235 0
M  V30 3580 H 344.904 1.49394 0.0136177 0
M  V30 3581 H 346.786 3.31837 2.59735 0
M  V30 3582 H 345.461 2.13365 2.43428 0
M  V30 3583 H 344.368 3.6743 0.70327 0
M  V30 3584 H 345.701 4.83051 0.944615 0
M  V30 3585 N 347.353 -0.0568162 1.57498 0
M  V30 3586 C 348.283 -1.06593 2.0775 0
M  V30 3587 C 349.264 -1.39448 0.974082 0
M  V30 3588 O 350.449 -1.48815 1.24771 0
M  V30 3589 C 347.579 -2.37509 2.5339 0
M  V30 3590 C 346.533 -2.1897 3.67745 0
M  V30 3591 C 345.859 -3.55402 3.99492 0
M  V30 3592 C 347.159 -1.59859 4.97235 0
M  V30 3593 H 348.853 -0.647706 2.9231 0
M  V30 3594 H 346.399 -0.310116 1.40621 0
M  V30 3595 H 348.352 -3.08409 2.87162 0
M  V30 3596 H 347.076 -2.8134 1.65878 0
M  V30 3597 H 345.735 -1.50508 3.3428 0
M  V30 3598 H 345.383 -3.9683 3.09088 0
M  V30 3599 H 345.083 -3.43831 4.76502 0
M  V30 3600 H 346.607 -4.27708 4.35773 0
M  V30 3601 H 348.021 -2.20642 5.29141 0
M  V30 3602 H 346.418 -1.58942 5.78669 0
M  V30 3603 H 347.488 -0.561506 4.81638 0
M  V30 3604 N 348.832 -1.54138 -0.328536 0
M  V30 3605 C 349.779 -1.83176 -1.40411 0
M  V30 3606 C 350.749 -0.678494 -1.5161 0
M  V30 3607 O 351.934 -0.92443 -1.6691 0
M  V30 3608 C 349.074 -2.06035 -2.76846 0
M  V30 3609 C 348.187 -3.33727 -2.74318 0
M  V30 3610 C 347.322 -3.46574 -4.02567 0
M  V30 3611 C 346.361 -4.68159 -3.94327 0
M  V30 3612 N 345.498 -4.77959 -5.14296 0
M  V30 3613 H 350.338 -2.74938 -1.14948 0
M  V30 3614 H 347.875 -1.36166 -0.556538 0
M  V30 3615 H 349.833 -2.1728 -3.56153 0
M  V30 3616 H 348.463 -1.1757 -3.00628 0
M  V30 3617 H 347.515 -3.31246 -1.8703 0
M  V30 3618 H 348.827 -4.23139 -2.64111 0
M  V30 3619 H 347.981 -3.57333 -4.90304 0
M  V30 3620 H 346.72 -2.55245 -4.15574 0
M  V30 3621 H 345.725 -4.57461 -3.04974 0
M  V30 3622 H 346.95 -5.60868 -3.82889 0
M  V30 3623 H 344.896 -3.89544 -5.27818 0
M  V30 3624 H 344.813 -5.6133 -5.06404 0
M  V30 3625 H 346.081 -4.93044 -6.03761 0
M  V30 3626 N 350.31 0.590341 -1.46126 0
M  V30 3627 C 351.54 1.37304 -1.54373 0
M  V30 3628 C 351.948 1.88332 -0.181071 0
M  V30 3629 O 351.291 1.63852 0.830559 0
M  V30 3630 C 351.353 2.6012 -2.48149 0
M  V30 3631 C 351.017 2.30613 -3.94546 0
M  V30 3632 C 352.014 1.89915 -4.83971 0
M  V30 3633 C 349.699 2.42993 -4.39613 0
M  V30 3634 C 351.693 1.61981 -6.16475 0
M  V30 3635 C 349.38 2.14672 -5.72153 0
M  V30 3636 C 350.378 1.7423 -6.60404 0
M  V30 3637 O 350.066 1.46251 -7.90485 0
M  V30 3638 H 349.798 0.426086 -0.524811 0
M  V30 3639 H 352.352 0.72539 -1.92165 0
M  V30 3640 H 350.582 3.27664 -2.05361 0
M  V30 3641 H 352.271 3.22182 -2.46887 0
M  V30 3642 H 353.037 1.79872 -4.50412 0
M  V30 3643 H 348.916 2.73435 -3.71153 0
M  V30 3644 H 352.46 1.30341 -6.85315 0
M  V30 3645 H 348.357 2.24337 -6.05263 0
M  V30 3646 H 349.125 1.6016 -8.02677 0
M  V30 3647 N 351.788 1.33704 0.83433 0
M  V30 3648 C 353.013 1.28615 1.62705 0
M  V30 3649 C 353.438 -0.139242 1.87584 0
M  V30 3650 O 352.796 -1.09734 1.4432 0
M  V30 3651 C 352.844 2.07139 2.95171 0
M  V30 3652 O 351.948 1.4331 3.86699 0
M  V30 3653 H 351.289 0.44226 0.49528 0
M  V30 3654 H 353.819 1.76335 1.03766 0
M  V30 3655 H 353.829 2.18073 3.44831 0
M  V30 3656 H 352.504 3.10779 2.76386 0
M  V30 3657 H 351.081 1.4105 3.45195 0
M  V30 3658 N 353.266 -1.05314 1.17247 0
M  V30 3659 C 354.196 -2.1498 0.911362 0
M  V30 3660 C 355.177 -1.69471 -0.146169 0
M  V30 3661 O 356.362 -1.942 0.003812 0
M  V30 3662 C 353.492 -3.4472 0.422528 0
M  V30 3663 C 352.446 -4.03789 1.4191 0
M  V30 3664 C 351.772 -5.28858 0.788274 0
M  V30 3665 C 353.072 -4.41418 2.7919 0
M  V30 3666 H 354.766 -2.3708 1.82848 0
M  V30 3667 H 352.312 -1.13938 0.880569 0
M  V30 3668 H 354.265 -4.20787 0.227289 0
M  V30 3669 H 352.989 -3.22269 -0.530123 0
M  V30 3670 H 351.648 -3.2979 1.60106 0
M  V30 3671 H 351.296 -5.02709 -0.171173 0
M  V30 3672 H 350.996 -5.69338 1.45353 0
M  V30 3673 H 352.52 -6.07612 0.603282 0
M  V30 3674 H 353.934 -5.08524 2.64719 0
M  V30 3675 H 352.331 -4.92913 3.42282 0
M  V30 3676 H 353.401 -3.51819 3.33693 0
M  V30 3677 N 354.744 -0.972509 -1.24016 0
M  V30 3678 C 355.654 -0.5143 -2.28893 0
M  V30 3679 C 356.67 0.427078 -1.68677 0
M  V30 3680 O 357.846 0.298939 -1.99169 0
M  V30 3681 C 354.911 0.183598 -3.46214 0
M  V30 3682 C 353.972 -0.798202 -4.21814 0
M  V30 3683 C 353.205 -0.133514 -5.33533 0
M  V30 3684 O 353.428 1.07714 -5.60137 0
M  V30 3685 O 352.362 -0.828103 -5.96176 0
M  V30 3686 H 356.188 -1.38629 -2.70214 0
M  V30 3687 H 353.773 -0.739769 -1.29799 0
M  V30 3688 H 355.655 0.575433 -4.17453 0
M  V30 3689 H 354.33 1.03048 -3.0686 0
M  V30 3690 H 353.237 -1.24059 -3.52931 0
M  V30 3691 H 354.57 -1.61364 -4.64997 0
M  V30 3692 N 356.222 1.38976 -0.743202 0
M  V30 3693 C 357.152 2.33171 -0.123873 0
M  V30 3694 C 358.133 1.54336 0.71516 0
M  V30 3695 O 359.318 1.82696 0.658467 0
M  V30 3696 C 356.448 3.38474 0.777978 0
M  V30 3697 C 355.402 4.27979 0.0424758 0
M  V30 3698 C 354.728 5.2405 1.06189 0
M  V30 3699 C 356.028 5.10155 -1.1198 0
M  V30 3700 H 357.722 2.85213 -0.910709 0
M  V30 3701 H 355.268 1.37133 -0.439388 0
M  V30 3702 H 357.221 4.03328 1.22084 0
M  V30 3703 H 355.945 2.84891 1.59702 0
M  V30 3704 H 354.604 3.64616 -0.380853 0
M  V30 3705 H 354.252 4.66758 1.87472 0
M  V30 3706 H 353.952 5.84785 0.574485 0
M  V30 3707 H 355.476 5.9178 1.50428 0
M  V30 3708 H 356.89 5.68307 -0.75499 0
M  V30 3709 H 355.287 5.80073 -1.53738 0
M  V30 3710 H 356.357 4.44504 -1.93764 0
M  V30 3711 N 357.7 0.491464 1.49741 0
M  V30 3712 C 358.647 -0.292027 2.28945 0
M  V30 3713 C 359.617 -0.968973 1.34908 0
M  V30 3714 O 360.802 -0.97748 1.6386 0
M  V30 3715 C 357.942 -1.35617 3.17336 0
M  V30 3716 C 357.055 -0.691957 4.26422 0
M  V30 3717 C 356.19 -1.73572 5.02042 0
M  V30 3718 C 355.229 -1.05286 6.02977 0
M  V30 3719 N 354.366 -2.0404 6.71798 0
M  V30 3720 H 359.206 0.389654 2.95442 0
M  V30 3721 H 356.743 0.204003 1.45679 0
M  V30 3722 H 358.701 -1.98502 3.66951 0
M  V30 3723 H 357.331 -2.00674 2.52844 0
M  V30 3724 H 356.383 0.0499523 3.80367 0
M  V30 3725 H 357.695 -0.153946 4.98562 0
M  V30 3726 H 356.849 -2.43987 5.55478 0
M  V30 3727 H 355.588 -2.30757 4.29654 0
M  V30 3728 H 354.593 -0.334446 5.48782 0
M  V30 3729 H 355.818 -0.487636 6.77347 0
M  V30 3730 H 353.764 -2.60205 6.02187 0
M  V30 3731 H 353.681 -1.55279 7.39881 0
M  V30 3732 H 354.949 -2.73772 7.29842 0
M  V30 3733 N 359.178 -1.55987 0.224894 0
M  V30 3734 C 360.125 -2.20436 -0.68385 0
M  V30 3735 C 361.095 -1.16102 -1.18783 0
M  V30 3736 O 362.28 -1.4447 -1.24632 0
M  V30 3737 C 359.42 -2.89076 -1.88491 0
M  V30 3738 C 358.533 -4.08012 -1.41951 0
M  V30 3739 C 357.668 -4.64426 -2.5784 0
M  V30 3740 C 356.707 -5.75656 -2.08053 0
M  V30 3741 N 355.844 -6.26347 -3.17227 0
M  V30 3742 H 360.684 -2.97727 -0.12754 0
M  V30 3743 H 358.221 -1.47011 -0.0511978 0
M  V30 3744 H 360.179 -3.27059 -2.59014 0
M  V30 3745 H 358.809 -2.14298 -2.41405 0
M  V30 3746 H 357.861 -3.75492 -0.609095 0
M  V30 3747 H 359.173 -4.88375 -1.01447 0
M  V30 3748 H 358.327 -5.04869 -3.3644 0
M  V30 3749 H 357.066 -3.83233 -3.01635 0
M  V30 3750 H 356.071 -5.34712 -1.27916 0
M  V30 3751 H 357.296 -6.58686 -1.65255 0
M  V30 3752 H 355.242 -5.48067 -3.60497 0
M  V30 3753 H 355.159 -7.01843 -2.80986 0
M  V30 3754 H 356.427 -6.71447 -3.95953 0
M  V30 3755 N 360.656 0.0484629 -1.57525 0
M  V30 3756 C 361.619 1.03956 -2.04269 0
M  V30 3757 C 362.619 1.30211 -0.943496 0
M  V30 3758 O 363.809 1.25539 -1.20771 0
M  V30 3759 C 360.941 2.37742 -2.44319 0
M  V30 3760 H 362.134 0.636182 -2.93075 0
M  V30 3761 H 359.687 0.294811 -1.53494 0
M  V30 3762 H 360.422 2.82866 -1.5861 0
M  V30 3763 H 360.207 2.20021 -3.24551 0
M  V30 3764 H 361.697 3.08936 -2.80978 0
M  V30 3765 N 362.134 1.5431 0.320358 0
M  V30 3766 C 363.044 1.86946 1.41734 0
M  V30 3767 C 364.06 0.761689 1.56443 0
M  V30 3768 O 365.236 1.05629 1.71477 0
M  V30 3769 C 362.301 2.09293 2.76401 0
M  V30 3770 C 361.362 3.33082 2.70841 0
M  V30 3771 C 360.595 3.54353 3.99086 0
M  V30 3772 O 360.818 2.79002 4.97508 0
M  V30 3773 O 359.752 4.47838 4.0215 0
M  V30 3774 H 363.578 2.80232 1.17062 0
M  V30 3775 H 361.163 1.40255 0.514673 0
M  V30 3776 H 363.045 2.25303 3.56113 0
M  V30 3777 H 361.72 1.19194 3.00956 0
M  V30 3778 H 360.627 3.22454 1.89668 0
M  V30 3779 H 361.96 4.23249 2.5124 0
M  V30 3780 N 363.613 -0.582584 1.46437 0
M  V30 3781 C 364.543 -1.70187 1.59871 0
M  V30 3782 C 365.524 -1.64066 0.449042 0
M  V30 3783 O 366.709 -1.82081 0.6753 0
M  V30 3784 C 363.839 -3.08827 1.58881 0
M  V30 3785 C 362.793 -3.29779 2.72819 0
M  V30 3786 C 362.119 -4.68947 2.5689 0
M  V30 3787 C 363.419 -3.17601 4.1464 0
M  V30 3788 H 365.113 -1.592 2.53566 0
M  V30 3789 H 362.659 -0.764472 1.22032 0
M  V30 3790 H 364.612 -3.86951 1.66873 0
M  V30 3791 H 363.336 -3.20713 0.617306 0
M  V30 3792 H 361.995 -2.54054 2.64296 0
M  V30 3793 H 361.643 -4.77599 1.57823 0
M  V30 3794 H 361.343 -4.83919 3.33312 0
M  V30 3795 H 362.867 -5.4924 2.66773 0
M  V30 3796 H 364.281 -3.8557 4.24274 0
M  V30 3797 H 362.678 -3.44094 4.9165 0
M  V30 3798 H 363.748 -2.14681 4.34788 0
M  V30 3799 N 365.091 -1.34144 -0.827227 0
M  V30 3800 C 366.038 -1.25364 -1.93785 0
M  V30 3801 C 367.008 -0.129774 -1.65592 0
M  V30 3802 O 368.193 -0.310024 -1.88264 0
M  V30 3803 C 365.333 -1.01064 -3.2997 0
M  V30 3804 C 364.446 -2.22185 -3.70484 0
M  V30 3805 C 363.581 -1.91203 -4.95595 0
M  V30 3806 C 362.62 -3.08491 -5.28677 0
M  V30 3807 N 361.757 -2.77421 -6.44967 0
M  V30 3808 H 366.597 -2.20347 -2.00627 0
M  V30 3809 H 364.134 -1.09558 -0.981608 0
M  V30 3810 H 366.092 -0.850139 -4.08446 0
M  V30 3811 H 364.722 -0.0975026 -3.22653 0
M  V30 3812 H 363.774 -2.4917 -2.87434 0
M  V30 3813 H 365.086 -3.0983 -3.90905 0
M  V30 3814 H 364.24 -1.71864 -5.81848 0
M  V30 3815 H 362.979 -1.00812 -4.77167 0
M  V30 3816 H 361.984 -3.28431 -4.40923 0
M  V30 3817 H 363.209 -3.99655 -5.49047 0
M  V30 3818 H 361.155 -1.89601 -6.28003 0
M  V30 3819 H 361.072 -3.58598 -6.6554 0
M  V30 3820 H 362.34 -2.61577 -7.34301 0
M  V30 3821 N 366.569 1.04691 -1.17803 0
M  V30 3822 C 367.532 2.10724 -0.901545 0
M  V30 3823 C 368.532 1.6042 0.110437 0
M  V30 3824 O 369.722 1.7377 -0.122303 0
M  V30 3825 C 366.854 3.39084 -0.351409 0
M  V30 3826 H 368.047 2.36686 -1.84174 0
M  V30 3827 H 365.6 1.21015 -0.98919 0
M  V30 3828 H 366.335 3.18782 0.59569 0
M  V30 3829 H 366.12 3.76909 -1.08083 0
M  V30 3830 H 367.61 4.17227 -0.176451 0
M  V30 3831 N 368.047 0.979072 1.23499 0
M  V30 3832 C 368.994 0.517904 2.24914 0
M  V30 3833 C 369.964 -0.442525 1.60097 0
M  V30 3834 O 371.149 -0.350365 1.87556 0
M  V30 3835 C 368.289 -0.174813 3.44657 0
M  V30 3836 C 367.402 0.825721 4.24035 0
M  V30 3837 C 366.537 0.107946 5.3109 0
M  V30 3838 C 365.576 1.09778 6.02175 0
M  V30 3839 N 364.713 0.40925 7.00906 0
M  V30 3840 H 369.553 1.38751 2.63727 0
M  V30 3841 H 367.09 0.695303 1.2963 0
M  V30 3842 H 369.048 -0.593233 4.12961 0
M  V30 3843 H 367.678 -1.0083 3.06648 0
M  V30 3844 H 366.73 1.36253 3.55161 0
M  V30 3845 H 368.042 1.58005 4.73113 0
M  V30 3846 H 367.196 -0.367904 6.05583 0
M  V30 3847 H 365.935 -0.678994 4.8295 0
M  V30 3848 H 364.94 1.5844 5.26476 0
M  V30 3849 H 366.165 1.88536 6.52404 0
M  V30 3850 H 364.111 -0.358506 6.5502 0
M  V30 3851 H 364.028 1.10226 7.47921 0
M  V30 3852 H 365.296 -0.0442557 7.79487 0
M  V30 3853 N 369.525 -1.3858 0.750561 0
M  V30 3854 C 370.455 -2.33102 0.136237 0
M  V30 3855 C 371.436 -1.54713 -0.706965 0
M  V30 3856 O 372.621 -1.83043 -0.648769 0
M  V30 3857 C 369.751 -3.38882 -0.760017 0
M  V30 3858 C 368.705 -4.27995 -0.0197785 0
M  V30 3859 C 368.031 -5.24605 -1.03408 0
M  V30 3860 C 369.331 -5.09554 1.14684 0
M  V30 3861 H 371.025 -2.84726 0.925822 0
M  V30 3862 H 368.571 -1.36898 0.446654 0
M  V30 3863 H 370.524 -4.0397 -1.19943 0
M  V30 3864 H 369.248 -2.85734 -1.58189 0
M  V30 3865 H 367.907 -3.64409 0.400184 0
M  V30 3866 H 367.555 -4.67746 -1.84994 0
M  V30 3867 H 367.255 -5.85081 -0.543464 0
M  V30 3868 H 368.779 -5.9257 -1.47288 0
M  V30 3869 H 370.193 -5.67899 0.785118 0
M  V30 3870 H 368.59 -5.7925 1.56812 0
M  V30 3871 H 369.66 -4.4347 1.96118 0
M  V30 3872 N 371.003 -0.499398 -1.49478 0
M  V30 3873 C 371.933 0.269244 -2.31943 0
M  V30 3874 C 372.914 0.964054 -1.40143 0
M  V30 3875 O 374.099 0.955767 -1.69052 0
M  V30 3876 C 371.229 1.33504 -3.20615 0
M  V30 3877 C 370.183 0.760202 -4.21195 0
M  V30 3878 C 369.509 1.9264 -4.98792 0
M  V30 3879 C 370.809 -0.247661 -5.21712 0
M  V30 3880 H 372.503 -0.419082 -2.96452 0
M  V30 3881 H 370.049 -0.202988 -1.42562 0
M  V30 3882 H 372.002 1.88048 -3.77115 0
M  V30 3883 H 370.726 2.05253 -2.54045 0
M  V30 3884 H 369.385 0.23653 -3.65836 0
M  V30 3885 H 369.033 2.63154 -4.28671 0
M  V30 3886 H 368.733 1.54785 -5.66847 0
M  V30 3887 H 370.257 2.4762 -5.58137 0
M  V30 3888 H 371.671 0.209579 -5.72917 0
M  V30 3889 H 370.068 -0.541962 -5.97648 0
M  V30 3890 H 371.138 -1.16409 -4.7072 0
M  V30 3891 O 372.52 1.5709 -0.374834 0
M  V30 3892 H 373.211 1.9292 0.173648 0
M  V30 END ATOM
M  V30 BEGIN BOND
M  V30 END BOND
M  V30 END CTAB
M  END
$$$$
