drugbank_target|P20807 Calpain-3 (DB06124)
 OpenBabel12092120333D

  0  0  0     0  0            999 V3000
M  V30 BEGIN CTAB
M  V30 COUNTS 13073 13237 0 0 0
M  V30 BEGIN ATOM
M  V30 1 H -0.908 1.98254 -0.117106 0
M  V30 2 N 0 1.576 0 0
M  V30 3 C 0.933 2.03868 1.02534 0
M  V30 4 C 1.911 0.928543 1.3348 0
M  V30 5 O 3.095 1.19667 1.45644 0
M  V30 6 C 0.222 2.43627 2.35294 0
M  V30 7 C -0.732 3.65373 2.2001 0
M  V30 8 S 0.101 5.13292 1.52614 0
M  V30 9 C 1.257 5.56322 2.86805 0
M  V30 10 H 1.49 2.90518 0.631377 0
M  V30 11 H -0.977 1.52953 0.210867 0
M  V30 12 H 0.981 2.67203 3.11629 0
M  V30 13 H -0.358 1.57376 2.7183 0
M  V30 14 H -1.165 3.90944 3.18086 0
M  V30 15 H -1.563 3.418 1.51819 0
M  V30 16 H 0.729 5.58782 3.83104 0
M  V30 17 H 1.672 6.56266 2.65933 0
M  V30 18 H 2.08 4.83886 2.90714 0
M  V30 19 N 1.4781 -0.272755 1.55222 0
M  V30 20 C 2.8891 -0.84378 1.66545 0
M  V30 21 C 3.2401 -1.87035 0.592641 0
M  V30 22 O 2.3651 -2.14761 -0.265818 0
M  V30 23 C 2.9601 -1.53723 3.01918 0
M  V30 24 C 1.5191 -2.05628 3.15268 0
M  V30 25 C 0.6661 -0.898424 2.62343 0
M  V30 26 H 3.6171 -0.0490998 1.58624 0
M  V30 27 H 3.6381 -2.40421 2.94921 0
M  V30 28 H 3.1501 -0.78983 3.79978 0
M  V30 29 H 1.2511 -2.83329 2.41983 0
M  V30 30 H 1.3641 -2.27142 4.21833 0
M  V30 31 H -0.2719 -1.29186 2.19506 0
M  V30 32 H 0.5111 -0.164528 3.42906 0
M  V30 33 N 2.9562 -1.48159 -0.537278 0
M  V30 34 C 4.1842 -1.59454 -1.31841 0
M  V30 35 C 4.5992 -0.252065 -1.8711 0
M  V30 36 O 3.9562 0.757621 -1.66031 0
M  V30 37 C 4.0072 -2.63546 -2.47439 0
M  V30 38 O 3.7282 -3.92583 -1.94449 0
M  V30 39 C 5.2292 -2.85212 -3.39366 0
M  V30 40 H 2.4492 -0.53785 -0.401196 0
M  V30 41 H 4.9932 -1.93932 -0.648891 0
M  V30 42 H 3.1482 -2.31946 -3.1029 0
M  V30 43 H 3.5622 -4.49629 -2.70063 0
M  V30 44 H 5.0362 -3.61863 -4.16844 0
M  V30 45 H 5.5132 -1.93765 -3.94147 0
M  V30 46 H 6.1192 -3.18086 -2.82314 0
M  V30 47 N 4.4343 0.785586 -1.36625 0
M  V30 48 C 5.6803 1.54591 -1.31261 0
M  V30 49 C 6.0133 1.93906 0.106823 0
M  V30 50 O 5.2883 1.63007 1.06108 0
M  V30 51 C 5.5713 2.82038 -2.23889 0
M  V30 52 C 5.4243 2.49066 -3.74548 0
M  V30 53 C 6.7433 3.83887 -2.15217 0
M  V30 54 H 3.8623 0.560846 -0.478143 0
M  V30 55 H 6.5043 0.902278 -1.67209 0
M  V30 56 H 4.6543 3.36961 -1.93363 0
M  V30 57 H 6.3263 2.00164 -4.15611 0
M  V30 58 H 4.5693 1.81954 -3.93796 0
M  V30 59 H 5.2403 3.40109 -4.34776 0
M  V30 60 H 7.7163 3.38421 -2.42096 0
M  V30 61 H 6.5923 4.70806 -2.82193 0
M  V30 62 H 6.8533 4.27131 -1.14068 0
M  V30 63 N 5.9124 1.20967 1.01018 0
M  V30 64 C 7.1614 1.01796 1.74128 0
M  V30 65 C 7.4744 -0.449691 1.90361 0
M  V30 66 O 8.6804 -0.76068 2.60626 0
M  V30 67 C 7.1364 1.7727 3.13215 0
M  V30 68 C 6.7444 3.28171 3.04972 0
M  V30 69 C 8.4884 1.66489 3.90489 0
M  V30 70 C 6.3954 3.96156 4.39107 0
M  V30 71 H 5.3254 0.377276 0.652824 0
M  V30 72 H 7.9764 1.44651 1.12909 0
M  V30 73 H 6.3584 1.27205 3.75013 0
M  V30 74 H 7.5324 3.85499 2.52443 0
M  V30 75 H 5.8474 3.39437 2.41188 0
M  V30 76 H 8.4444 2.14617 4.89738 0
M  V30 77 H 8.7874 0.6222 4.11624 0
M  V30 78 H 9.3204 2.14003 3.35332 0
M  V30 79 H 6.0594 5.00604 4.23174 0
M  V30 80 H 5.5794 3.43617 4.91617 0
M  V30 81 H 7.2584 4.00774 5.07926 0
M  V30 82 N 7.3905 -1.2043 1.01659 0
M  V30 83 C 8.6155 -1.94318 0.724942 0
M  V30 84 C 9.0405 -1.74266 -0.708034 0
M  V30 85 O 8.3985 -1.03694 -1.48719 0
M  V30 86 C 8.4465 -3.44486 1.06591 0
M  V30 87 O 7.5505 -4.12017 0.177599 0
M  V30 88 H 6.8915 -0.60708 0.26898 0
M  V30 89 H 9.4215 -1.52861 1.35995 0
M  V30 90 H 9.4315 -3.95106 1.01762 0
M  V30 91 H 8.1065 -3.58404 2.10997 0
M  V30 92 H 6.6835 -3.71821 0.283421 0
M  V30 93 N 8.8686 -0.792821 -1.36206 0
M  V30 94 C 9.8316 -0.199459 -2.2833 0
M  V30 95 C 10.8316 0.605189 -1.48977 0
M  V30 96 O 12.0216 0.425685 -1.68919 0
M  V30 97 C 9.1536 0.723523 -3.33134 0
M  V30 98 H 10.3466 -1.01181 -2.82316 0
M  V30 99 H 7.8996 -0.562485 -1.45828 0
M  V30 100 H 8.6346 1.56008 -2.84309 0
M  V30 101 H 8.4196 0.148436 -3.91819 0
M  V30 102 H 9.9096 1.13344 -4.01924 0
M  V30 103 N 10.3467 1.47872 -0.545128 0
M  V30 104 C 11.5717 2.07391 -0.0190611 0
M  V30 105 C 11.9967 1.39688 1.25971 0
M  V30 106 O 11.3547 0.467816 1.7516 0
M  V30 107 C 11.4027 3.60188 0.172335 0
M  V30 108 O 10.5067 3.9339 1.23766 0
M  V30 109 H 9.8477 0.662411 -0.0459059 0
M  V30 110 H 12.3777 1.90066 -0.757365 0
M  V30 111 H 12.3877 4.06129 0.390305 0
M  V30 112 H 11.0627 4.08865 -0.761725 0
M  V30 113 H 9.6397 3.5921 1.00114 0
M  V30 114 N 11.8248 0.280983 1.55075 0
M  V30 115 C 13.0708 -0.33461 2.00021 0
M  V30 116 C 13.4038 -1.55063 1.16915 0
M  V30 117 O 12.6788 -1.93006 0.240646 0
M  V30 118 C 12.9618 -0.711007 3.53011 0
M  V30 119 C 12.8148 0.512766 4.46868 0
M  V30 120 C 14.1338 -1.54522 4.12081 0
M  V30 121 H 11.2528 -0.120147 0.727141 0
M  V30 122 H 13.8948 0.389097 1.85973 0
M  V30 123 H 12.0448 -1.32761 3.65112 0
M  V30 124 H 13.7168 1.15131 4.46702 0
M  V30 125 H 11.9598 1.14975 4.18286 0
M  V30 126 H 12.6308 0.205556 5.51617 0
M  V30 127 H 15.1068 -1.02442 4.03293 0
M  V30 128 H 13.9828 -1.77739 5.19327 0
M  V30 129 H 14.2438 -2.52813 3.62682 0
M  V30 130 N 13.3029 -1.57598 0.00835791 0
M  V30 131 C 14.2659 -2.07884 -0.965242 0
M  V30 132 C 15.2659 -0.989825 -1.26725 0
M  V30 133 O 16.4559 -1.25218 -1.21104 0
M  V30 134 C 13.5879 -2.52731 -2.28779 0
M  V30 135 H 14.7809 -2.95178 -0.530112 0
M  V30 136 H 12.3339 -1.54458 -0.239283 0
M  V30 137 H 13.0689 -1.68705 -2.76964 0
M  V30 138 H 12.8539 -3.32272 -2.08177 0
M  V30 139 H 14.3439 -2.91933 -2.98605 0
M  V30 140 N 14.781 0.264519 -1.55364 0
M  V30 141 C 16.192 0.834936 -1.6699 0
M  V30 142 C 16.543 1.86718 -0.602552 0
M  V30 143 O 15.668 2.14899 0.254425 0
M  V30 144 C 16.263 1.5212 -3.02729 0
M  V30 145 C 14.822 2.03954 -3.16354 0
M  V30 146 C 13.969 0.884498 -2.62815 0
M  V30 147 H 16.92 0.0406869 -1.58648 0
M  V30 148 H 16.941 2.38853 -2.96191 0
M  V30 149 H 16.453 0.769668 -3.80392 0
M  V30 150 H 14.554 2.82041 -2.43482 0
M  V30 151 H 14.667 2.24902 -4.23032 0
M  V30 152 H 13.031 1.2802 -2.20188 0
M  V30 153 H 13.814 0.14634 -3.42988 0
M  V30 154 N 16.2591 1.48442 0.529413 0
M  V30 155 C 17.6751 1.34575 0.858004 0
M  V30 156 C 17.8751 0.3572 1.98309 0
M  V30 157 O 16.9311 -0.221379 2.51528 0
M  V30 158 C 18.2441 2.74617 1.22499 0
M  V30 159 C 19.7921 2.83109 1.33484 0
M  V30 160 C 20.2671 4.23854 1.73526 0
M  V30 161 N 21.7581 4.2653 1.80628 0
M  V30 162 C 22.4931 5.32372 2.12997 0
M  V30 163 N 21.9891 6.48491 2.43786 0
M  V30 164 N 23.7821 5.19766 2.14008 0
M  V30 165 H 15.9331 2.1133 -0.212925 0
M  V30 166 H 18.1961 0.947439 -0.0326199 0
M  V30 167 H 17.9021 3.4852 0.471905 0
M  V30 168 H 17.7761 3.08177 2.17501 0
M  V30 169 H 20.1631 2.09462 2.0787 0
M  V30 170 H 20.2441 2.53168 0.366027 0
M  V30 171 H 19.8881 4.98018 0.997013 0
M  V30 172 H 19.8181 4.5124 2.71459 0
M  V30 173 H 22.3091 3.42772 1.59108 0
M  V30 174 H 22.6221 7.24993 2.67592 0
M  V30 175 H 20.9671 6.51765 2.41304 0
M  V30 176 H 24.1581 4.28066 1.89412 0
M  V30 177 H 24.3311 6.02354 2.38902 0
M  V30 178 N 17.7372 -0.778329 1.37039 0
M  V30 179 C 18.9652 -1.56734 1.35063 0
M  V30 180 C 19.3802 -1.88686 -0.0655597 0
M  V30 181 O 18.7372 -1.5096 -1.02554 0
M  V30 182 C 18.7882 -2.88163 2.18276 0
M  V30 183 O 18.5092 -2.57583 3.54376 0
M  V30 184 C 20.0102 -3.82422 2.24206 0
M  V30 185 H 17.2302 -0.485778 0.462883 0
M  V30 186 H 19.7742 -0.965185 1.8029 0
M  V30 187 H 17.9292 -3.44818 1.76576 0
M  V30 188 H 18.3432 -3.41699 3.97922 0
M  V30 189 H 19.8172 -4.71667 2.86765 0
M  V30 190 H 20.2942 -4.21078 1.24861 0
M  V30 191 H 20.9002 -3.31697 2.6619 0
M  V30 192 N 19.2153 -1.21501 -1.00376 0
M  V30 193 C 20.1783 -0.976927 -2.07337 0
M  V30 194 C 21.1783 0.0525322 -1.60714 0
M  V30 195 O 22.3683 -0.184869 -1.73216 0
M  V30 196 C 19.5003 -0.473423 -3.37597 0
M  V30 197 H 20.6933 -1.92587 -2.29892 0
M  V30 198 H 18.2463 -1.03217 -1.17371 0
M  V30 199 H 18.9813 0.480379 -3.20722 0
M  V30 200 H 18.7663 -1.216 -3.72768 0
M  V30 201 H 20.2563 -0.32675 -4.1632 0
M  V30 202 N 20.6934 1.19889 -1.02296 0
M  V30 203 C 21.6564 2.21116 -0.603351 0
M  V30 204 C 22.6564 1.5738 0.329884 0
M  V30 205 O 23.8464 1.73802 0.117702 0
M  V30 206 C 20.9784 3.40696 0.117992 0
M  V30 207 H 22.1714 2.59754 -1.49893 0
M  V30 208 H 19.7244 1.33463 -0.813468 0
M  V30 209 H 20.4594 3.07569 1.0282 0
M  V30 210 H 20.2444 3.88188 -0.552511 0
M  V30 211 H 21.7344 4.15692 0.398696 0
M  V30 212 N 22.1715 0.800033 1.35784 0
M  V30 213 C 23.0815 0.207204 2.33683 0
M  V30 214 C 24.0975 -0.64631 1.61551 0
M  V30 215 O 25.2735 -0.559604 1.93469 0
M  V30 216 C 22.3385 -0.639659 3.40748 0
M  V30 217 C 21.3995 0.233585 4.28664 0
M  V30 218 C 20.6325 -0.572954 5.30616 0
M  V30 219 O 20.8555 -1.80816 5.40982 0
M  V30 220 O 19.7895 0.0327285 6.01891 0
M  V30 221 H 23.6155 1.01692 2.86169 0
M  V30 222 H 21.2005 0.561691 1.38439 0
M  V30 223 H 23.0825 -1.12223 4.06182 0
M  V30 224 H 21.7575 -1.42708 2.90544 0
M  V30 225 H 20.6645 0.763147 3.66233 0
M  V30 226 H 21.9975 0.984784 4.82248 0
M  V30 227 N 23.6496 -1.47581 0.552962 0
M  V30 228 C 25.0606 -1.86324 0.118463 0
M  V30 229 C 25.4116 -1.46006 -1.3106 0
M  V30 230 O 24.5366 -0.861182 -1.98526 0
M  V30 231 C 25.1316 -3.3816 0.20821 0
M  V30 232 C 23.6906 -3.7601 -0.171226 0
M  V30 233 C 22.8376 -2.71634 0.557686 0
M  V30 234 H 25.7886 -1.39159 0.762928 0
M  V30 235 H 25.8096 -3.76141 -0.574278 0
M  V30 236 H 25.3216 -3.67473 1.24841 0
M  V30 237 H 23.4226 -3.52313 -1.21269 0
M  V30 238 H 23.5356 -4.78745 0.184379 0
M  V30 239 H 21.8996 -2.547 0.00125792 0
M  V30 240 H 22.6826 -3.0379 1.59896 0
M  V30 241 N 25.1277 -0.289203 -1.54924 0
M  V30 242 C 26.5437 0.0645403 -1.59469 0
M  V30 243 C 26.7437 1.53419 -1.30632 0
M  V30 244 O 25.7997 2.2852 -1.074 0
M  V30 245 C 27.1127 -0.32278 -2.98963 0
M  V30 246 C 28.6607 -0.270564 -3.11828 0
M  V30 247 C 29.1357 -0.632532 -4.53611 0
M  V30 248 N 30.6267 -0.584617 -4.59496 0
M  V30 249 C 31.3617 -0.837314 -5.67254 0
M  V30 250 N 30.8577 -1.15536 -6.83098 0
M  V30 251 N 32.6507 -0.765166 -5.56868 0
M  V30 252 H 24.8017 -1.24714 -1.71931 0
M  V30 253 H 27.0647 -0.504809 -0.802416 0
M  V30 254 H 26.7707 -1.34541 -3.24948 0
M  V30 255 H 26.6447 0.32944 -3.75759 0
M  V30 256 H 29.0317 0.742805 -2.85598 0
M  V30 257 H 29.1127 -0.957242 -2.37214 0
M  V30 258 H 28.7567 -1.64365 -4.80569 0
M  V30 259 H 28.6867 0.07609 -5.26545 0
M  V30 260 H 31.1777 -0.349248 -3.76283 0
M  V30 261 H 31.4907 -1.33447 -7.61191 0
M  V30 262 H 29.8357 -1.19328 -6.84679 0
M  V30 263 H 33.0267 -0.516432 -4.65243 0
M  V30 264 H 33.1997 -0.965477 -6.40767 0
M  V30 265 N 26.6058 1.57591 -0.0167156 0
M  V30 266 C 27.8308 1.9598 0.67872 0
M  V30 267 C 28.2558 0.892546 1.65575 0
M  V30 268 O 27.6138 -0.147772 1.80697 0
M  V30 269 C 27.6618 3.33468 1.37227 0
M  V30 270 O 26.7658 3.28954 2.48722 0
M  V30 271 H 26.1068 0.639339 0.17928 0
M  V30 272 H 28.6368 2.04463 -0.0748802 0
M  V30 273 H 28.6468 3.69417 1.7319 0
M  V30 274 H 27.3218 4.10694 0.656007 0
M  V30 275 H 25.8988 3.04705 2.14963 0
M  V30 276 N 28.0839 -0.256276 1.55502 0
M  V30 277 C 29.4949 -0.826068 1.67431 0
M  V30 278 C 29.8459 -1.86396 0.612446 0
M  V30 279 O 28.9709 -2.15031 -0.243025 0
M  V30 280 C 29.5659 -1.50512 3.03532 0
M  V30 281 C 28.1249 -2.02273 3.17431 0
M  V30 282 C 27.2719 -0.870548 2.63281 0
M  V30 283 H 30.2229 -0.0322728 1.58667 0
M  V30 284 H 30.2439 -2.37279 2.97454 0
M  V30 285 H 29.7559 -0.749484 3.80794 0
M  V30 286 H 27.8569 -2.80746 2.44974 0
M  V30 287 H 27.9699 -2.22655 4.24219 0
M  V30 288 H 26.3339 -1.26851 2.20864 0
M  V30 289 H 27.1169 -0.128149 3.43061 0
M  V30 290 N 29.562 -1.4872 -0.521534 0
M  V30 291 C 30.81 -1.56857 -1.27437 0
M  V30 292 C 31.131 -0.247982 -1.93417 0
M  V30 293 O 30.401 0.731151 -1.81744 0
M  V30 294 H 28.981 -0.577885 -0.473347 0
M  V30 295 H 31.643 -1.85233 -0.606205 0
M  V30 296 H 30.739 -2.35402 -2.0492 0
M  V30 297 N 31.0401 0.771051 -1.3745 0
M  V30 298 C 32.4511 1.34737 -1.29239 0
M  V30 299 C 32.8021 1.96109 0.0596908 0
M  V30 300 O 31.9271 1.93865 0.961534 0
M  V30 301 C 32.5221 2.44973 -2.34037 0
M  V30 302 C 31.0811 2.98372 -2.29458 0
M  V30 303 C 30.2281 1.71595 -2.17831 0
M  V30 304 H 33.1791 0.571256 -1.48062 0
M  V30 305 H 33.2001 3.24471 -1.98744 0
M  V30 306 H 32.7121 2.00276 -3.32432 0
M  V30 307 H 30.8131 3.47443 -1.34589 0
M  V30 308 H 30.9261 3.53939 -3.229 0
M  V30 309 H 29.2901 1.94547 -1.64388 0
M  V30 310 H 30.0731 1.29001 -3.18141 0
M  V30 311 N 32.5182 1.22032 0.997298 0
M  V30 312 C 33.7642 1.04376 1.73878 0
M  V30 313 C 34.0972 -0.420716 1.89588 0
M  V30 314 O 33.3722 -1.31202 1.43583 0
M  V30 315 C 33.6552 1.75047 3.14691 0
M  V30 316 C 33.5082 3.29062 3.06656 0
M  V30 317 C 34.8272 1.49928 4.13775 0
M  V30 318 H 31.9462 0.380578 0.631133 0
M  V30 319 H 34.5882 1.50312 1.16217 0
M  V30 320 H 32.7382 1.35996 3.63919 0
M  V30 321 H 34.4102 3.7753 2.65083 0
M  V30 322 H 32.6532 3.58967 2.43568 0
M  V30 323 H 33.3242 3.73683 4.06282 0
M  V30 324 H 35.8002 1.83842 3.73285 0
M  V30 325 H 34.6762 2.01878 5.10428 0
M  V30 326 H 34.9372 0.430929 4.39995 0
M  V30 327 N 33.9963 -1.19345 1.0293 0
M  V30 328 C 35.4073 -1.70725 0.755633 0
M  V30 329 C 35.7583 -1.82326 -0.724676 0
M  V30 330 O 34.8833 -1.49471 -1.56484 0
M  V30 331 C 35.4783 -3.10084 1.36503 0
M  V30 332 C 34.0373 -3.58723 1.13994 0
M  V30 333 C 33.1843 -2.35577 1.46283 0
M  V30 334 H 36.1353 -1.0418 1.19718 0
M  V30 335 H 36.1563 -3.72787 0.762217 0
M  V30 336 H 35.6683 -3.01609 2.44241 0
M  V30 337 H 33.7693 -3.72512 0.0807901 0
M  V30 338 H 33.8823 -4.42816 1.82894 0
M  V30 339 H 32.2463 -2.38935 0.88217 0
M  V30 340 H 33.0293 -2.29731 2.55105 0
M  V30 341 N 35.4744 -0.807222 -1.35358 0
M  V30 342 C 36.4244 -0.190706 -2.27201 0
M  V30 343 C 37.4084 0.635838 -1.47804 0
M  V30 344 O 38.6004 0.492991 -1.69996 0
M  V30 345 C 35.7294 0.659337 -3.36909 0
M  V30 346 C 34.8154 -0.176971 -4.23731 0
M  V30 347 N 35.2064 -1.24029 -4.90357 0
M  V30 348 C 33.5044 0.0412953 -4.45981 0
M  V30 349 C 34.2054 -1.75092 -5.54723 0
M  V30 350 N 33.1814 -1.05727 -5.33219 0
M  V30 351 H 36.9834 -1.0043 -2.76208 0
M  V30 352 H 34.4974 -0.648445 -1.48892 0
M  V30 353 H 36.4944 1.11706 -4.01656 0
M  V30 354 H 35.1544 1.47127 -2.89454 0
M  V30 355 H 36.1654 -1.62295 -4.91814 0
M  V30 356 H 32.8424 0.82232 -4.09322 0
M  V30 357 H 34.2324 -2.63963 -6.17878 0
M  V30 358 N 36.9525 1.47285 -0.560781 0
M  V30 359 C 38.3635 1.86258 -0.128343 0
M  V30 360 C 38.7145 1.46699 1.30284 0
M  V30 361 O 37.8395 0.871698 1.98067 0
M  V30 362 C 38.4345 3.38044 -0.22614 0
M  V30 363 C 36.9935 3.76096 0.151283 0
M  V30 364 C 36.1405 2.71335 -0.572084 0
M  V30 365 H 39.0915 1.38752 -0.770297 0
M  V30 366 H 39.1125 3.76441 0.554322 0
M  V30 367 H 38.6245 3.66806 -1.26788 0
M  V30 368 H 36.7255 3.52951 1.19399 0
M  V30 369 H 36.8385 4.78641 -0.209765 0
M  V30 370 H 35.2025 2.54696 -0.0147653 0
M  V30 371 H 35.9855 3.02938 -1.61504 0
M  V30 372 N 38.4306 0.297415 1.54768 0
M  V30 373 C 39.3936 -0.567375 2.22066 0
M  V30 374 C 40.3936 -1.06409 1.20556 0
M  V30 375 O 41.5836 -0.960691 1.45315 0
M  V30 376 C 38.7156 -1.78517 2.90421 0
M  V30 377 H 39.9086 0.0205534 2.99893 0
M  V30 378 H 37.4616 0.0482163 1.56226 0
M  V30 379 H 38.1966 -2.41303 2.16664 0
M  V30 380 H 37.9816 -1.43669 3.64831 0
M  V30 381 H 39.4716 -2.39964 3.41771 0
M  V30 382 N 39.9087 -1.5758 0.0250728 0
M  V30 383 C 40.8407 -2.06869 -0.986796 0
M  V30 384 C 41.8537 -0.991332 -1.29137 0
M  V30 385 O 43.0427 -1.26761 -1.25674 0
M  V30 386 C 40.1427 -2.47486 -2.31525 0
M  V30 387 C 39.3157 -3.78253 -2.19643 0
M  V30 388 C 38.3747 -4.05464 -3.35388 0
M  V30 389 O 37.4007 -4.75774 -3.12454 0
M  V30 390 N 38.6027 -3.55321 -4.59051 0
M  V30 391 H 41.3677 -2.94302 -0.566276 0
M  V30 392 H 38.9287 -1.6109 -0.161776 0
M  V30 393 H 40.9207 -2.62785 -3.07776 0
M  V30 394 H 39.4907 -1.65441 -2.65232 0
M  V30 395 H 38.7107 -3.7279 -1.28144 0
M  V30 396 H 39.9987 -4.63936 -2.08903 0
M  V30 397 H 39.3967 -2.98431 -4.80578 0
M  V30 398 H 37.9537 -3.75905 -5.32483 0
M  V30 399 N 41.3868 0.248026 -1.55636 0
M  V30 400 C 42.6118 0.998028 -1.81808 0
M  V30 401 C 43.0368 1.78207 -0.601979 0
M  V30 402 O 42.3948 1.75653 0.448961 0
M  V30 403 C 42.4428 1.9125 -3.05705 0
M  V30 404 O 41.5468 3.00406 -2.82542 0
M  V30 405 H 40.8878 0.284045 -0.600179 0
M  V30 406 H 43.4178 0.269357 -2.02819 0
M  V30 407 H 43.4278 2.32737 -3.35108 0
M  V30 408 H 42.1028 1.33602 -3.93857 0
M  V30 409 H 40.6798 2.63056 -2.64303 0
M  V30 410 N 42.8649 1.48995 0.513639 0
M  V30 411 C 43.8119 1.6473 1.61656 0
M  V30 412 C 44.7819 0.488984 1.58739 0
M  V30 413 O 45.9669 0.714478 1.76918 0
M  V30 414 C 43.1069 1.7082 2.99858 0
M  V30 415 C 42.2199 2.9787 3.12885 0
M  V30 416 C 41.3549 2.95017 4.41744 0
M  V30 417 C 40.3939 4.16702 4.48359 0
M  V30 418 N 39.5309 4.11832 5.68629 0
M  V30 419 H 44.3709 2.58909 1.47547 0
M  V30 420 H 41.9079 1.28382 0.71808 0
M  V30 421 H 43.8659 1.72331 3.79944 0
M  V30 422 H 42.4959 0.801181 3.12699 0
M  V30 423 H 41.5479 3.06029 2.25944 0
M  V30 424 H 42.8599 3.8786 3.13633 0
M  V30 425 H 42.0139 2.95021 5.30139 0
M  V30 426 H 40.7529 2.02784 4.43542 0
M  V30 427 H 39.7579 4.16955 3.58369 0
M  V30 428 H 40.9829 5.10113 4.48287 0
M  V30 429 H 38.9289 3.22428 5.71293 0
M  V30 430 H 38.8459 4.95543 5.7094 0
M  V30 431 H 40.1139 4.1592 6.59266 0
M  V30 432 N 44.343 -0.763751 1.37857 0
M  V30 433 C 45.306 -1.85889 1.34081 0
M  V30 434 C 46.306 -1.58949 0.243277 0
M  V30 435 O 47.496 -1.66882 0.499589 0
M  V30 436 C 44.628 -3.23176 1.08489 0
M  V30 437 H 45.821 -1.90648 2.31502 0
M  V30 438 H 43.374 -0.964367 1.23003 0
M  V30 439 H 44.109 -3.24091 0.116318 0
M  V30 440 H 43.894 -3.44124 1.8794 0
M  V30 441 H 45.384 -4.03254 1.08517 0
M  V30 442 N 45.8211 -1.22559 -0.990812 0
M  V30 443 C 47.0491 -1.07779 -1.76611 0
M  V30 444 C 47.4641 0.371513 -1.85109 0
M  V30 445 O 46.8211 1.25737 -1.32274 0
M  V30 446 C 46.8721 -1.68512 -3.19822 0
M  V30 447 O 46.5931 -3.07774 -3.1178 0
M  V30 448 C 48.0941 -1.59035 -4.13791 0
M  V30 449 H 45.3141 -0.377729 -0.554583 0
M  V30 450 H 47.8581 -1.62195 -1.24551 0
M  V30 451 H 46.0131 -1.18154 -3.68942 0
M  V30 452 H 46.4271 -3.37062 -4.01858 0
M  V30 453 H 47.9011 -2.0625 -5.1202 0
M  V30 454 H 48.3781 -0.547273 -4.35777 0
M  V30 455 H 48.9841 -2.08709 -3.70568 0
M  V30 456 N 47.2992 1.18797 -1.03562 0
M  V30 457 C 48.2092 2.25913 -0.632505 0
M  V30 458 C 49.2252 1.70668 0.338882 0
M  V30 459 O 50.4012 2.00453 0.195076 0
M  V30 460 C 47.4662 3.467 0.00350942 0
M  V30 461 C 46.5272 4.17098 -1.01624 0
M  V30 462 C 45.7602 5.32119 -0.410478 0
M  V30 463 O 45.9832 5.64976 0.784725 0
M  V30 464 O 44.9172 5.9107 -1.13667 0
M  V30 465 H 48.7432 2.62648 -1.52478 0
M  V30 466 H 46.3282 1.25781 -0.806195 0
M  V30 467 H 48.2102 4.19878 0.35781 0
M  V30 468 H 46.8852 3.11798 0.869686 0
M  V30 469 H 45.7922 3.4601 -1.42224 0
M  V30 470 H 47.1252 4.55987 -1.85301 0
M  V30 471 N 48.7773 0.814389 1.34928 0
M  V30 472 C 49.7403 0.235759 2.27984 0
M  V30 473 C 50.7403 -0.581412 1.49921 0
M  V30 474 O 51.9303 -0.398758 1.69575 0
M  V30 475 C 49.0623 -0.670433 3.34242 0
M  V30 476 H 50.2553 1.05659 2.80671 0
M  V30 477 H 47.8083 0.585614 1.44915 0
M  V30 478 H 48.5433 -1.51466 2.86755 0
M  V30 479 H 48.3283 -0.0860822 3.92005 0
M  V30 480 H 49.8183 -1.06935 4.03676 0
M  V30 481 N 50.2554 -1.46986 0.568584 0
M  V30 482 C 51.5034 -2.02041 0.0487022 0
M  V30 483 C 51.8244 -1.44408 -1.31039 0
M  V30 484 O 51.0944 -0.623477 -1.85714 0
M  V30 485 H 49.6744 -0.746849 0.015014 0
M  V30 486 H 52.3364 -1.80257 0.741168 0
M  V30 487 H 51.4324 -3.12085 -0.0308961 0
M  V30 488 N 51.7335 -0.305618 -1.54608 0
M  V30 489 C 52.9815 0.301701 -1.99835 0
M  V30 490 C 53.3025 1.54054 -1.19551 0
M  V30 491 O 52.5725 1.93702 -0.292658 0
M  V30 492 H 51.1525 0.114468 -0.738178 0
M  V30 493 H 53.8145 -0.418016 -1.90364 0
M  V30 494 H 52.9105 0.570548 -3.06841 0
M  V30 495 N 53.2116 1.57565 -0.0334293 0
M  V30 496 C 54.4596 1.91598 0.642999 0
M  V30 497 C 54.7806 0.910847 1.7242 0
M  V30 498 O 54.0506 -0.0469931 1.95844 0
M  V30 499 H 52.6306 0.707228 0.240496 0
M  V30 500 H 55.2926 1.94726 -0.0822488 0
M  V30 501 H 54.3886 2.92336 1.09298 0
M  V30 502 N 54.6897 -0.239769 1.55765 0
M  V30 503 C 55.6377 -1.31668 1.91745 0
M  V30 504 C 56.6317 -1.49462 0.797338 0
M  V30 505 O 57.8377 -1.50852 0.982021 0
M  V30 506 H 54.2127 -0.441048 0.609082 0
M  V30 507 H 56.1837 -0.985923 2.81642 0
M  V30 508 C 54.9327 -2.66368 2.2348 0
M  V30 509 H 54.2557 -2.53478 3.09175 0
M  V30 510 H 55.6957 -3.40578 2.52553 0
M  V30 511 C 54.1547 -3.20002 1.05359 0
M  V30 512 O 54.6847 -4.00538 0.305261 0
M  V30 513 N 52.8907 -2.78126 0.842292 0
M  V30 514 H 52.4377 -2.12742 1.45253 0
M  V30 515 H 52.3957 -3.14354 0.053652 0
M  V30 516 N 56.1678 -1.49265 -0.50573 0
M  V30 517 C 57.5788 -1.51769 -1.08734 0
M  V30 518 C 57.9298 -0.301192 -1.93874 0
M  V30 519 O 57.0548 0.589456 -2.08217 0
M  V30 520 C 57.6498 -2.75017 -1.97867 0
M  V30 521 C 56.2088 -2.80314 -2.51199 0
M  V30 522 C 55.3558 -2.4562 -1.28709 0
M  V30 523 H 58.3068 -1.56031 -0.289855 0
M  V30 524 H 58.3278 -2.5491 -2.82491 0
M  V30 525 H 57.8398 -3.63539 -1.35873 0
M  V30 526 H 55.9408 -1.96061 -3.16845 0
M  V30 527 H 56.0538 -3.82366 -2.88675 0
M  V30 528 H 54.4178 -1.97297 -1.61078 0
M  V30 529 H 55.2008 -3.36411 -0.6843 0
M  V30 530 N 57.6459 0.756429 -1.3826 0
M  V30 531 C 58.8709 1.55077 -1.37717 0
M  V30 532 C 59.2959 1.88073 0.03164 0
M  V30 533 O 58.6539 1.50364 1.01293 0
M  V30 534 C 58.7019 2.8283 -2.23695 0
M  V30 535 O 57.8059 3.77862 -1.6521 0
M  V30 536 H 57.1469 0.469152 -0.469885 0
M  V30 537 H 59.6769 0.935019 -1.81985 0
M  V30 538 H 59.6869 3.31783 -2.37453 0
M  V30 539 H 58.3619 2.58144 -3.2609 0
M  V30 540 H 56.9389 3.36555 -1.60578 0
M  V30 541 N 59.124 1.23083 0.984299 0
M  V30 542 C 60.372 1.05848 1.72165 0
M  V30 543 C 60.693 -0.406049 1.90726 0
M  V30 544 O 59.963 -1.29139 1.47309 0
M  V30 545 H 58.543 0.388685 0.637913 0
M  V30 546 H 61.205 1.54736 1.18503 0
M  V30 547 H 60.301 1.54327 2.71274 0
M  V30 548 N 60.6021 -1.18246 1.0419 0
M  V30 549 C 61.8511 -1.87588 0.741194 0
M  V30 550 C 62.1641 -1.81303 -0.734066 0
M  V30 551 O 63.3701 -2.46019 -1.14834 0
M  V30 552 C 61.8261 -3.36538 1.27555 0
M  V30 553 C 61.4341 -3.51349 2.77953 0
M  V30 554 C 63.1781 -4.11273 1.05143 0
M  V30 555 C 61.0851 -4.94265 3.2474 0
M  V30 556 H 60.0151 -0.702622 0.273565 0
M  V30 557 H 62.6661 -1.33601 1.25789 0
M  V30 558 H 61.0481 -3.9 0.686703 0
M  V30 559 H 62.2221 -3.08153 3.42605 0
M  V30 560 H 60.5371 -2.90022 2.98791 0
M  V30 561 H 63.1341 -5.16689 1.37611 0
M  V30 562 H 63.4771 -4.16298 -0.0112774 0
M  V30 563 H 64.0101 -3.63987 1.60495 0
M  V30 564 H 60.7491 -4.94408 4.30396 0
M  V30 565 H 60.2691 -5.38172 2.64823 0
M  V30 566 H 61.9481 -5.62987 3.18834 0
M  V30 567 N 62.0802 -0.821533 -1.34494 0
M  V30 568 C 63.3102 -0.421272 -2.02259 0
M  V30 569 C 63.7182 0.977047 -1.6202 0
M  V30 570 O 63.0612 1.64348 -0.820703 0
M  V30 571 C 63.1232 -0.44231 -3.56769 0
M  V30 572 C 62.7872 -1.79372 -4.20327 0
M  V30 573 C 63.7842 -2.75435 -4.40944 0
M  V30 574 C 61.4692 -2.08182 -4.57127 0
M  V30 575 C 63.4632 -3.98482 -4.97484 0
M  V30 576 C 61.1502 -3.31489 -5.13379 0
M  V30 577 C 62.1482 -4.26457 -5.33501 0
M  V30 578 O 61.8362 -5.47585 -5.88562 0
M  V30 579 H 61.5682 -0.167473 -0.654927 0
M  V30 580 H 64.1222 -1.11073 -1.72777 0
M  V30 581 H 62.3522 0.303836 -3.85505 0
M  V30 582 H 64.0412 -0.0622925 -4.05852 0
M  V30 583 H 64.8072 -2.54473 -4.12878 0
M  V30 584 H 60.6862 -1.35066 -4.4077 0
M  V30 585 H 64.2302 -4.72618 -5.13106 0
M  V30 586 H 60.1272 -3.52316 -5.40873 0
M  V30 587 H 60.8952 -5.49086 -6.06998 0
M  V30 588 N 63.5583 1.46682 -0.576371 0
M  V30 589 C 64.7833 2.07304 -0.0630475 0
M  V30 590 C 65.2083 1.42329 1.2298 0
M  V30 591 O 64.5663 0.504865 1.74129 0
M  V30 592 C 64.6143 3.60472 0.095895 0
M  V30 593 O 63.7183 3.95927 1.15394 0
M  V30 594 H 63.0593 0.661288 -0.0599463 0
M  V30 595 H 65.5893 1.88417 -0.797511 0
M  V30 596 H 65.5993 4.06865 0.304071 0
M  V30 597 H 64.2743 4.07157 -0.84828 0
M  V30 598 H 62.8513 3.61252 0.924724 0
M  V30 599 N 65.0364 0.313813 1.54444 0
M  V30 600 C 65.9994 -0.54379 2.22656 0
M  V30 601 C 66.9994 -1.05124 1.21678 0
M  V30 602 O 68.1894 -0.945225 1.46325 0
M  V30 603 C 65.3214 -1.75427 2.92298 0
M  V30 604 H 66.5144 0.0523599 2.99854 0
M  V30 605 H 64.0674 0.0647834 1.56166 0
M  V30 606 H 64.8024 -2.38991 2.19211 0
M  V30 607 H 64.5874 -1.39791 3.66334 0
M  V30 608 H 66.0774 -2.36325 3.44297 0
M  V30 609 N 66.5145 -1.57545 0.0417849 0
M  V30 610 C 67.7635 -1.91494 -0.633492 0
M  V30 611 C 68.0765 -0.921084 -1.72556 0
M  V30 612 O 69.2825 -1.15228 -2.45835 0
M  V30 613 C 67.7385 -3.40072 -1.17808 0
M  V30 614 C 67.3465 -4.47843 -0.118633 0
M  V30 615 C 69.0905 -3.8307 -1.82915 0
M  V30 616 C 66.9975 -5.87529 -0.675578 0
M  V30 617 H 65.9275 -0.714653 -0.24039 0
M  V30 618 H 68.5785 -1.83175 0.109148 0
M  V30 619 H 66.9605 -3.43364 -1.97274 0
M  V30 620 H 68.1345 -4.56128 0.654494 0
M  V30 621 H 66.4495 -4.14128 0.434414 0
M  V30 622 H 69.0465 -4.84794 -2.25563 0
M  V30 623 H 69.3895 -3.1881 -2.67705 0
M  V30 624 H 69.9225 -3.82255 -1.10119 0
M  V30 625 H 66.6615 -6.55362 0.134475 0
M  V30 626 H 66.1815 -5.82824 -1.4169 0
M  V30 627 H 67.8605 -6.36491 -1.1614 0
M  V30 628 N 67.9926 0.231505 -1.5589 0
M  V30 629 C 69.2416 0.955346 -1.7764 0
M  V30 630 C 69.5546 1.85893 -0.608546 0
M  V30 631 O 70.7606 2.62067 -0.70943 0
M  V30 632 C 69.2166 1.74886 -3.14552 0
M  V30 633 C 68.8246 0.891915 -4.39032 0
M  V30 634 C 70.5686 2.46452 -3.45633 0
M  V30 635 C 68.4756 1.68221 -5.66971 0
M  V30 636 H 67.4056 0.360446 -0.662265 0
M  V30 637 H 70.0566 0.209516 -1.823 0
M  V30 638 H 68.4386 2.53723 -3.04041 0
M  V30 639 H 69.6126 0.144793 -4.60572 0
M  V30 640 H 67.9276 0.288863 -4.15397 0
M  V30 641 H 70.5246 3.06061 -4.38441 0
M  V30 642 H 70.8676 3.18841 -2.67668 0
M  V30 643 H 71.4006 1.74613 -3.57428 0
M  V30 644 H 68.1396 1.00178 -6.478 0
M  V30 645 H 67.6596 2.4042 -5.49507 0
M  V30 646 H 69.3386 2.24544 -6.06786 0
M  V30 647 N 69.4707 1.49531 0.497807 0
M  V30 648 C 70.6957 1.63159 1.28039 0
M  V30 649 C 71.1207 0.30418 1.85624 0
M  V30 650 O 70.4787 -0.728618 1.66015 0
M  V30 651 C 70.5267 2.70537 2.38416 0
M  V30 652 O 69.6307 2.29931 3.42353 0
M  V30 653 H 68.9717 0.546001 0.377861 0
M  V30 654 H 71.5017 1.9574 0.59558 0
M  V30 655 H 71.5117 2.92802 2.84132 0
M  V30 656 H 70.1867 3.6689 1.95869 0
M  V30 657 H 68.7637 2.18009 3.02533 0
M  V30 658 N 70.9488 -0.749086 1.3866 0
M  V30 659 C 72.3648 -1.05276 1.19955 0
M  V30 660 C 72.5648 -2.01435 0.05134 0
M  V30 661 O 71.6208 -2.45232 -0.60147 0
M  V30 662 C 72.9338 -1.62853 2.52783 0
M  V30 663 C 74.4818 -1.75002 2.59506 0
M  V30 664 C 74.9568 -2.35991 3.92521 0
M  V30 665 N 76.4478 -2.43416 3.94085 0
M  V30 666 C 77.1828 -2.91511 4.9377 0
M  V30 667 N 76.6788 -3.39608 6.03853 0
M  V30 668 N 78.4718 -2.90592 4.81157 0
M  V30 669 H 70.6228 -0.111066 2.12109 0
M  V30 670 H 72.8858 -0.111901 0.941373 0
M  V30 671 H 72.5918 -0.99664 3.37283 0
M  V30 672 H 72.4658 -2.61854 2.715 0
M  V30 673 H 74.8528 -2.37317 1.75398 0
M  V30 674 H 74.9338 -0.74693 2.44652 0
M  V30 675 H 74.5778 -1.74308 4.77053 0
M  V30 676 H 74.5078 -3.3695 4.04688 0
M  V30 677 H 76.9988 -2.09405 3.14576 0
M  V30 678 H 77.3118 -3.74775 6.75843 0
M  V30 679 H 75.6568 -3.37653 6.07466 0
M  V30 680 H 78.8478 -2.52332 3.94267 0
M  V30 681 H 79.0208 -3.27762 5.58996 0
M  V30 682 N 72.4269 -1.23603 -0.977757 0
M  V30 683 C 73.3749 -1.01704 -2.09187 0
M  V30 684 C 74.3689 0.0448214 -1.69341 0
M  V30 685 O 75.5749 -0.108902 -1.7967 0
M  V30 686 H 71.9499 -0.311803 -0.684312 0
M  V30 687 H 73.9209 -1.96207 -2.24823 0
M  V30 688 C 72.6699 -0.627746 -3.41986 0
M  V30 689 H 71.9929 -1.43656 -3.73099 0
M  V30 690 H 73.4329 -0.514053 -4.20872 0
M  V30 691 C 71.8919 0.664238 -3.30287 0
M  V30 692 O 72.4219 1.71268 -3.6336 0
M  V30 693 N 70.6279 0.641156 -2.83439 0
M  V30 694 H 70.1749 -0.212376 -2.56723 0
M  V30 695 H 70.1329 1.50583 -2.75993 0
M  V30 696 N 73.905 1.17692 -1.04816 0
M  V30 697 C 75.152 1.87859 -0.75599 0
M  V30 698 C 75.48 1.80812 0.716752 0
M  V30 699 O 74.735 1.20819 1.53952 0
M  V30 700 C 75.034 3.37462 -1.17703 0
M  V30 701 C 74.7 3.64713 -2.65133 0
M  V30 702 C 73.362 3.71859 -3.05408 0
M  V30 703 C 75.714 3.76492 -3.60421 0
M  V30 704 C 73.042 3.88271 -4.39843 0
M  V30 705 C 75.394 3.94421 -4.94585 0
M  V30 706 C 74.058 3.99806 -5.3452 0
M  V30 707 H 73.328 0.687425 -0.276636 0
M  V30 708 H 75.975 1.39255 -1.31455 0
M  V30 709 H 74.28 3.88097 -0.537395 0
M  V30 710 H 75.977 3.90109 -0.928218 0
M  V30 711 H 72.567 3.59772 -2.32942 0
M  V30 712 H 76.751 3.70295 -3.30447 0
M  V30 713 H 72.007 3.90687 -4.70291 0
M  V30 714 H 76.181 4.02477 -5.68318 0
M  V30 715 H 73.808 4.12276 -6.38696 0
M  V30 716 N 75.3831 0.828654 1.34056 0
M  V30 717 C 76.7941 0.477534 1.8049 0
M  V30 718 C 77.1451 -1.00258 1.6865 0
M  V30 719 O 76.2701 -1.78057 1.22982 0
M  V30 720 C 76.8651 0.860018 3.27703 0
M  V30 721 C 75.4241 0.561185 3.72193 0
M  V30 722 C 74.5711 1.07385 2.55663 0
M  V30 723 H 77.5221 1.0183 1.21722 0
M  V30 724 H 77.5431 0.166038 3.80138 0
M  V30 725 H 77.0551 1.93731 3.36288 0
M  V30 726 H 75.1561 -0.506465 3.69142 0
M  V30 727 H 75.2691 1.10926 4.66082 0
M  V30 728 H 73.6331 0.495149 2.49841 0
M  V30 729 H 74.4161 2.15771 2.67016 0
M  V30 730 N 76.8612 -1.46375 0.584142 0
M  V30 731 C 78.1102 -2.01585 0.0679741 0
M  V30 732 C 78.4232 -1.46109 -1.30045 0
M  V30 733 O 79.6292 -1.93148 -1.90804 0
M  V30 734 C 78.0852 -3.5983 0.0709207 0
M  V30 735 C 77.6932 -4.24303 1.43775 0
M  V30 736 C 79.4372 -4.22693 -0.391228 0
M  V30 737 C 77.3442 -5.74631 1.39834 0
M  V30 738 H 76.2742 -0.753689 0.0216421 0
M  V30 739 H 78.9252 -1.68093 0.736001 0
M  V30 740 H 77.3072 -3.90405 -0.663299 0
M  V30 741 H 78.4812 -4.05335 2.19181 0
M  V30 742 H 76.7962 -3.73539 1.84004 0
M  V30 743 H 79.3932 -5.3289 -0.439524 0
M  V30 744 H 79.7362 -3.91728 -1.40906 0
M  V30 745 H 80.2692 -3.96749 0.288974 0
M  V30 746 H 77.0082 -6.10258 2.39303 0
M  V30 747 H 76.5282 -5.95858 0.686505 0
M  V30 748 H 78.2072 -6.37375 1.11187 0
M  V30 749 N 78.3393 -0.321999 -1.54275 0
M  V30 750 C 79.5883 0.281931 -1.9972 0
M  V30 751 C 79.9013 1.53369 -1.21397 0
M  V30 752 O 81.1073 2.21352 -1.57211 0
M  V30 753 C 79.5633 0.5529 -3.55628 0
M  V30 754 C 79.1713 -0.681721 -4.42783 0
M  V30 755 C 80.9153 1.11687 -4.09544 0
M  V30 756 C 78.8223 -0.382742 -5.9016 0
M  V30 757 H 77.7523 0.109124 -0.746062 0
M  V30 758 H 80.4033 -0.43398 -1.78294 0
M  V30 759 H 78.7853 1.32896 -3.73035 0
M  V30 760 H 79.9593 -1.45723 -4.37151 0
M  V30 761 H 78.2743 -1.1658 -3.99748 0
M  V30 762 H 80.8713 1.35515 -5.17242 0
M  V30 763 H 81.2143 2.06575 -3.61431 0
M  V30 764 H 81.7473 0.402032 -3.95763 0
M  V30 765 H 78.4863 -1.30076 -6.42464 0
M  V30 766 H 78.0063 0.355094 -5.98748 0
M  V30 767 H 79.6853 0.00800157 -6.47 0
M  V30 768 N 79.8174 1.5752 -0.0501392 0
M  V30 769 C 81.0654 1.9227 0.622642 0
M  V30 770 C 81.3864 0.929083 1.71444 0
M  V30 771 O 80.6564 -0.0262186 1.95882 0
M  V30 772 H 79.2364 0.709739 0.232981 0
M  V30 773 H 81.8984 1.94628 -0.102898 0
M  V30 774 H 80.9944 2.93479 1.06191 0
M  V30 775 N 81.2955 -0.223234 1.56011 0
M  V30 776 C 82.5415 -0.949279 1.79211 0
M  V30 777 C 82.8745 -1.84054 0.619494 0
M  V30 778 O 82.1495 -1.90726 -0.381317 0
M  V30 779 C 82.4325 -1.78965 3.12479 0
M  V30 780 C 82.2855 -0.924997 4.40186 0
M  V30 781 C 83.6045 -2.76774 3.42175 0
M  V30 782 H 80.7235 -0.343676 0.651963 0
M  V30 783 H 83.3655 -0.218253 1.88742 0
M  V30 784 H 81.5155 -2.41291 3.04485 0
M  V30 785 H 83.1875 -0.318615 4.60198 0
M  V30 786 H 81.4305 -0.230344 4.33188 0
M  V30 787 H 82.1015 -1.54735 5.29869 0
M  V30 788 H 84.5775 -2.24584 3.50287 0
M  V30 789 H 83.4535 -3.32678 4.36597 0
M  V30 790 H 83.7145 -3.54429 2.64258 0
M  V30 791 N 82.7736 -1.49793 -0.48987 0
M  V30 792 C 83.7206 -1.67281 -1.59014 0
M  V30 793 C 84.6906 -0.514177 -1.57941 0
M  V30 794 O 85.8756 -0.742533 -1.75759 0
M  V30 795 C 83.0156 -1.75569 -2.97102 0
M  V30 796 C 82.1286 -3.0281 -3.08107 0
M  V30 797 C 81.2636 -3.02008 -4.36995 0
M  V30 798 C 80.3026 -4.23782 -4.41673 0
M  V30 799 N 79.4396 -4.20826 -5.62005 0
M  V30 800 H 84.2796 -2.61224 -1.43409 0
M  V30 801 H 81.8166 -1.29508 -0.697565 0
M  V30 802 H 83.7746 -1.78354 -3.77155 0
M  V30 803 H 82.4046 -0.850827 -3.11385 0
M  V30 804 H 81.4566 -3.09584 -2.21047 0
M  V30 805 H 82.7686 -3.92801 -3.07423 0
M  V30 806 H 81.9226 -3.03418 -5.25378 0
M  V30 807 H 80.6616 -2.09815 -4.4026 0
M  V30 808 H 79.6666 -4.22604 -3.5169 0
M  V30 809 H 80.8916 -5.17181 -4.40115 0
M  V30 810 H 78.8376 -3.31476 -5.66091 0
M  V30 811 H 78.7546 -5.04564 -5.62984 0
M  V30 812 H 80.0226 -4.26355 -6.52565 0
M  V30 813 N 84.2517 0.741722 -1.39055 0
M  V30 814 C 85.1617 1.88621 -1.39496 0
M  V30 815 C 86.1777 1.71557 -0.290578 0
M  V30 816 O 87.3537 1.94275 -0.530954 0
M  V30 817 C 84.4187 3.24134 -1.23037 0
M  V30 818 C 83.4797 3.5364 -2.43387 0
M  V30 819 C 82.7127 4.82687 -2.27703 0
M  V30 820 O 82.9357 5.55922 -1.27696 0
M  V30 821 O 81.8697 5.1194 -3.16545 0
M  V30 822 H 85.6957 1.91203 -2.35956 0
M  V30 823 H 83.2807 0.888625 -1.20099 0
M  V30 824 H 85.1627 4.0513 -1.15964 0
M  V30 825 H 83.8377 3.22337 -0.296691 0
M  V30 826 H 82.7447 2.72758 -2.56035 0
M  V30 827 H 84.0777 3.60209 -3.35425 0
M  V30 828 N 85.7298 1.2412 0.971189 0
M  V30 829 C 86.6768 1.0305 2.06517 0
M  V30 830 C 87.6468 -0.0550666 1.66009 0
M  V30 831 O 88.8318 0.0988688 1.90544 0
M  V30 832 C 85.9718 0.637653 3.39158 0
M  V30 833 C 85.0848 1.79633 3.92882 0
M  V30 834 C 84.2198 1.34939 5.13775 0
M  V30 835 C 83.2588 2.47823 5.59687 0
M  V30 836 N 82.3958 2.04022 6.71803 0
M  V30 837 H 87.2358 1.96685 2.23873 0
M  V30 838 H 84.7728 0.979694 1.09729 0
M  V30 839 H 86.7308 0.390931 4.15364 0
M  V30 840 H 85.3608 -0.261693 3.21737 0
M  V30 841 H 84.4128 2.15681 3.13346 0
M  V30 842 H 85.7248 2.64466 4.22918 0
M  V30 843 H 84.8788 1.06134 5.97345 0
M  V30 844 H 83.6178 0.471557 4.85415 0
M  V30 845 H 82.6228 2.77392 4.74693 0
M  V30 846 H 83.8478 3.36158 5.90063 0
M  V30 847 H 81.7938 1.18632 6.45184 0
M  V30 848 H 81.7108 2.82409 7.01271 0
M  V30 849 H 82.9788 1.78347 7.58823 0
M  V30 850 N 87.2079 -1.17134 1.05439 0
M  V30 851 C 88.4359 -1.91372 0.786414 0
M  V30 852 C 88.8509 -1.76955 -0.658202 0
M  V30 853 O 88.2079 -1.10838 -1.44987 0
M  V30 854 C 88.2589 -3.42356 1.1608 0
M  V30 855 O 87.9799 -3.56332 2.54871 0
M  V30 856 C 89.4809 -4.33663 0.919322 0
M  V30 857 H 86.7009 -0.607118 0.285743 0
M  V30 858 H 89.2449 -1.48525 1.40572 0
M  V30 859 H 87.3999 -3.82939 0.586191 0
M  V30 860 H 87.8139 -4.49896 2.69618 0
M  V30 861 H 89.2879 -5.38099 1.231 0
M  V30 862 H 89.7649 -4.38959 -0.145359 0
M  V30 863 H 90.3709 -3.98796 1.47789 0
M  V30 864 N 88.686 -0.835752 -1.33615 0
M  V30 865 C 89.933 -0.429959 -1.97883 0
M  V30 866 C 90.261 1.01006 -1.66217 0
M  V30 867 O 89.516 1.72047 -0.93265 0
M  V30 868 C 89.815 -0.593925 -3.52431 0
M  V30 869 C 89.481 -2.00158 -4.04039 0
M  V30 870 C 88.143 -2.38662 -4.17844 0
M  V30 871 C 90.495 -2.92117 -4.31644 0
M  V30 872 C 87.823 -3.68435 -4.56588 0
M  V30 873 C 90.175 -4.21368 -4.71838 0
M  V30 874 C 88.839 -4.59833 -4.83849 0
M  V30 875 H 88.109 -0.157333 -0.724104 0
M  V30 876 H 90.756 -1.06217 -1.59343 0
M  V30 877 H 89.061 0.121619 -3.91611 0
M  V30 878 H 90.758 -0.260282 -4.00154 0
M  V30 879 H 87.348 -1.69252 -3.93766 0
M  V30 880 H 91.532 -2.63608 -4.20505 0
M  V30 881 H 86.788 -3.98046 -4.64079 0
M  V30 882 H 90.962 -4.92703 -4.92155 0
M  V30 883 H 88.589 -5.60438 -5.13627 0
M  V30 884 N 90.1641 1.46063 -0.591896 0
M  V30 885 C 91.0741 2.34192 0.13831 0
M  V30 886 C 92.0901 1.50305 0.876608 0
M  V30 887 O 93.2661 1.8315 0.837728 0
M  V30 888 C 90.3311 3.27656 1.13326 0
M  V30 889 C 89.3921 4.27445 0.39863 0
M  V30 890 C 88.6251 5.16443 1.34618 0
M  V30 891 O 88.8481 5.08553 2.58321 0
M  V30 892 O 87.7821 5.95843 0.851768 0
M  V30 893 H 91.6081 2.98002 -0.58552 0
M  V30 894 H 89.1931 1.45188 -0.352239 0
M  V30 895 H 91.0751 3.85291 1.70671 0
M  V30 896 H 89.7501 2.6643 1.83839 0
M  V30 897 H 88.6571 3.73471 -0.216895 0
M  V30 898 H 89.9901 4.91482 -0.265709 0
M  V30 899 N 91.6422 0.330177 1.54103 0
M  V30 900 C 92.5742 -0.566902 2.22079 0
M  V30 901 C 93.5872 -1.07462 1.22294 0
M  V30 902 O 94.7762 -0.987065 1.48726 0
M  V30 903 C 91.8762 -1.79138 2.87685 0
M  V30 904 C 91.0492 -1.42123 4.13666 0
M  V30 905 C 90.1082 -2.50394 4.62806 0
M  V30 906 O 89.1342 -2.14261 5.27334 0
M  V30 907 N 90.3362 -3.81433 4.37595 0
M  V30 908 H 93.1012 0.0151844 2.99696 0
M  V30 909 H 90.6622 0.153681 1.61169 0
M  V30 910 H 92.6542 -2.50975 3.1748 0
M  V30 911 H 91.2242 -2.28115 2.13734 0
M  V30 912 H 90.4442 -0.534201 3.90564 0
M  V30 913 H 91.7322 -1.14971 4.9564 0
M  V30 914 H 91.1302 -4.13584 3.8596 0
M  V30 915 H 89.6872 -4.4948 4.72029 0
M  V30 916 N 93.1203 -1.57491 0.0584922 0
M  V30 917 C 94.0503 -2.14988 -0.911178 0
M  V30 918 C 95.0313 -1.07343 -1.31952 0
M  V30 919 O 96.2163 -1.35318 -1.39294 0
M  V30 920 C 93.3463 -2.70078 -2.18347 0
M  V30 921 C 92.3003 -3.82771 -1.91495 0
M  V30 922 C 91.6263 -4.24408 -3.25241 0
M  V30 923 C 92.9263 -5.07592 -1.23075 0
M  V30 924 H 94.6203 -2.96263 -0.432246 0
M  V30 925 H 92.1663 -1.42512 -0.206469 0
M  V30 926 H 94.1193 -3.08943 -2.86587 0
M  V30 927 H 92.8433 -1.86005 -2.68458 0
M  V30 928 H 91.5023 -3.44389 -1.25664 0
M  V30 929 H 91.1503 -3.37275 -3.73168 0
M  V30 930 H 90.8503 -5.00366 -3.08071 0
M  V30 931 H 92.3743 -4.65879 -3.94701 0
M  V30 932 H 93.7883 -5.43857 -1.81362 0
M  V30 933 H 92.1853 -5.88741 -1.16207 0
M  V30 934 H 93.2553 -4.84454 -0.207847 0
M  V30 935 N 94.5984 0.214957 -1.56127 0
M  V30 936 C 95.5484 1.27006 -1.8935 0
M  V30 937 C 96.5324 1.41969 -0.757202 0
M  V30 938 O 97.7244 1.44673 -1.01973 0
M  V30 939 C 94.8534 2.61911 -2.2194 0
M  V30 940 C 93.9394 2.50822 -3.41978 0
M  V30 941 N 94.3304 2.09391 -4.60423 0
M  V30 942 C 92.6284 2.81765 -3.45723 0
M  V30 943 C 93.3294 2.09712 -5.42582 0
M  V30 944 N 92.3054 2.50454 -4.82466 0
M  V30 945 H 96.1074 0.940734 -2.78437 0
M  V30 946 H 93.6214 0.423492 -1.56781 0
M  V30 947 H 95.6184 3.38096 -2.43919 0
M  V30 948 H 94.2784 2.95684 -1.34169 0
M  V30 949 H 95.2894 1.80416 -4.85459 0
M  V30 950 H 91.9664 3.19865 -2.68314 0
M  V30 951 H 93.3564 1.79748 -6.4741 0
M  V30 952 N 96.0765 1.50051 0.48192 0
M  V30 953 C 97.0235 1.68122 1.58125 0
M  V30 954 C 97.9935 0.522545 1.57666 0
M  V30 955 O 99.1785 0.751844 1.75362 0
M  V30 956 C 96.3185 1.77142 2.96167 0
M  V30 957 C 95.4315 3.0444 3.06497 0
M  V30 958 C 94.5665 3.04321 4.35387 0
M  V30 959 C 93.6055 4.26118 4.3942 0
M  V30 960 N 92.7425 4.238 5.59766 0
M  V30 961 H 97.5825 2.6198 1.42022 0
M  V30 962 H 95.1195 1.29877 0.690687 0
M  V30 963 H 97.0775 1.80352 3.76203 0
M  V30 964 H 95.7075 0.867329 3.1093 0
M  V30 965 H 94.7595 3.10752 2.19402 0
M  V30 966 H 96.0715 3.94426 3.05336 0
M  V30 967 H 95.2255 3.062 5.23762 0
M  V30 968 H 93.9645 2.12147 4.39141 0
M  V30 969 H 92.9695 4.24463 3.49444 0
M  V30 970 H 94.1945 5.19507 4.37366 0
M  V30 971 H 92.1405 3.34474 5.64326 0
M  V30 972 H 92.0575 5.07542 5.60301 0
M  V30 973 H 93.3255 4.2981 6.50295 0
M  V30 974 N 97.5546 -0.734337 1.39446 0
M  V30 975 C 98.5016 -1.84835 1.38219 0
M  V30 976 C 99.4716 -1.64331 0.24179 0
M  V30 977 O 100.657 -1.85728 0.437002 0
M  V30 978 C 97.7966 -3.22355 1.23212 0
M  V30 979 C 96.9096 -3.5456 2.46801 0
M  V30 980 C 96.0446 -4.81485 2.24377 0
M  V30 981 C 95.0836 -5.06536 3.43639 0
M  V30 982 N 94.2206 -6.24665 3.20528 0
M  V30 983 H 99.0606 -1.85219 2.33448 0
M  V30 984 H 96.5976 -0.905039 1.15963 0
M  V30 985 H 98.5556 -4.0174 1.12522 0
M  V30 986 H 97.1856 -3.21248 0.316121 0
M  V30 987 H 96.2376 -2.69872 2.68092 0
M  V30 988 H 97.5496 -3.6899 3.3563 0
M  V30 989 H 96.7036 -5.68852 2.10933 0
M  V30 990 H 95.4426 -4.6923 1.32944 0
M  V30 991 H 94.4476 -4.17632 3.5758 0
M  V30 992 H 95.6726 -5.20676 4.35974 0
M  V30 993 H 93.6186 -6.13696 2.3176 0
M  V30 994 H 93.5356 -6.39685 4.02913 0
M  V30 995 H 94.8036 -7.14868 3.10779 0
M  V30 996 N 99.0327 -1.24633 -0.964593 0
M  V30 997 C 100.273 -1.09981 -1.72289 0
M  V30 998 C 100.637 0.354792 -1.88693 0
M  V30 999 O 101.838 0.62289 -2.61483 0
M  V30 1000 C 100.109 -1.82262 -3.07434 0
M  V30 1001 S 101.668 -1.83379 -3.98645 0
M  V30 1002 H 98.4857 -0.393292 -0.59232 0
M  V30 1003 H 101.088 -1.58009 -1.15123 0
M  V30 1004 H 99.7917 -2.87206 -2.93157 0
M  V30 1005 H 99.3227 -1.3458 -3.69664 0
M  V30 1006 H 101.338 -0.903691 -4.87901 0
M  V30 1007 N 100.511 1.16574 -1.06058 0
M  V30 1008 C 101.441 2.23057 -0.690488 0
M  V30 1009 C 102.422 1.67141 0.315901 0
M  V30 1010 O 103.607 1.93253 0.191556 0
M  V30 1011 C 100.737 3.47222 -0.073625 0
M  V30 1012 C 99.6908 4.16016 -1.00573 0
M  V30 1013 C 99.0168 5.34104 -0.252289 0
M  V30 1014 C 100.317 4.67264 -2.33371 0
M  V30 1015 H 102.011 2.54271 -1.58072 0
M  V30 1016 H 99.5568 1.22218 -0.76149 0
M  V30 1017 H 101.51 4.20939 0.19714 0
M  V30 1018 H 100.234 3.15302 0.85161 0
M  V30 1019 H 98.8928 3.44223 -1.2612 0
M  V30 1020 H 98.5408 4.98437 0.675988 0
M  V30 1021 H 98.2408 5.81072 -0.873455 0
M  V30 1022 H 99.7648 6.10599 0.0109857 0
M  V30 1023 H 101.179 5.32573 -2.12223 0
M  V30 1024 H 99.5758 5.24843 -2.90963 0
M  V30 1025 H 100.646 3.83602 -2.96611 0
M  V30 1026 N 101.989 0.842826 1.3317 0
M  V30 1027 C 102.899 0.281444 2.32906 0
M  V30 1028 C 103.915 -0.594587 1.63526 0
M  V30 1029 O 105.091 -0.49777 1.95152 0
M  V30 1030 C 102.156 -0.530929 3.42611 0
M  V30 1031 C 101.217 0.369843 4.27704 0
M  V30 1032 C 100.45 -0.403853 5.3217 0
M  V30 1033 O 100.673 -1.63513 5.46461 0
M  V30 1034 O 99.6069 0.224199 6.01482 0
M  V30 1035 H 103.433 1.10744 2.82789 0
M  V30 1036 H 101.018 0.60545 1.36582 0
M  V30 1037 H 102.9 -0.992437 4.09547 0
M  V30 1038 H 101.575 -1.33392 2.94938 0
M  V30 1039 H 100.482 0.879275 3.6362 0
M  V30 1040 H 101.815 1.13771 4.78871 0
M  V30 1041 N 103.467 -1.45747 0.599634 0
M  V30 1042 C 104.414 -2.30467 -0.123849 0
M  V30 1043 C 105.384 -1.41632 -0.86774 0
M  V30 1044 O 106.569 -1.70568 -0.855056 0
M  V30 1045 C 103.709 -3.26402 -1.12051 0
M  V30 1046 C 102.822 -4.3034 -0.37832 0
M  V30 1047 C 101.957 -5.13389 -1.364 0
M  V30 1048 C 100.996 -6.09061 -0.609171 0
M  V30 1049 N 100.133 -6.84918 -1.54374 0
M  V30 1050 H 104.973 -2.91802 0.604627 0
M  V30 1051 H 102.51 -1.43797 0.309972 0
M  V30 1052 H 104.468 -3.80482 -1.7114 0
M  V30 1053 H 103.098 -2.66839 -1.8165 0
M  V30 1054 H 102.15 -3.78984 0.327929 0
M  V30 1055 H 103.462 -4.98354 0.210997 0
M  V30 1056 H 102.616 -5.7183 -2.02719 0
M  V30 1057 H 101.355 -4.45376 -1.98725 0
M  V30 1058 H 100.36 -5.49758 0.0676979 0
M  V30 1059 H 101.585 -6.79099 0.00891991 0
M  V30 1060 H 99.531 -6.19601 -2.15478 0
M  V30 1061 H 99.448 -7.49254 -1.00766 0
M  V30 1062 H 100.716 -7.47906 -2.19676 0
M  V30 1063 N 104.945 -0.338344 -1.53925 0
M  V30 1064 C 105.892 0.520845 -2.24846 0
M  V30 1065 C 106.862 1.09976 -1.24477 0
M  V30 1066 O 108.047 1.13735 -1.53196 0
M  V30 1067 C 105.187 1.6685 -3.02084 0
M  V30 1068 C 104.3 1.11739 -4.17299 0
M  V30 1069 C 103.435 2.23193 -4.82036 0
M  V30 1070 C 102.474 1.65407 -5.89328 0
M  V30 1071 N 101.611 2.70582 -6.47866 0
M  V30 1072 H 106.451 -0.0904881 -2.97863 0
M  V30 1073 H 103.988 -0.0564282 -1.46992 0
M  V30 1074 H 105.946 2.34407 -3.45122 0
M  V30 1075 H 104.576 2.2509 -2.31375 0
M  V30 1076 H 103.628 0.332919 -3.7894 0
M  V30 1077 H 104.94 0.654677 -4.94485 0
M  V30 1078 H 104.094 2.98626 -5.28117 0
M  V30 1079 H 102.833 2.72807 -4.04262 0
M  V30 1080 H 101.838 0.884779 -5.42634 0
M  V30 1081 H 103.063 1.16652 -6.69006 0
M  V30 1082 H 101.009 3.1946 -5.72959 0
M  V30 1083 H 100.926 2.28917 -7.20509 0
M  V30 1084 H 102.194 3.45799 -6.98601 0
M  V30 1085 N 106.423 1.57458 -0.0668435 0
M  V30 1086 C 107.669 1.93587 0.6043 0
M  V30 1087 C 108.002 0.946722 1.69561 0
M  V30 1088 O 107.277 -0.0248516 1.94484 0
M  V30 1089 C 107.56 3.40014 1.18585 0
M  V30 1090 C 107.413 4.49685 0.101529 0
M  V30 1091 C 108.732 3.87154 2.09284 0
M  V30 1092 H 105.851 0.703958 0.218202 0
M  V30 1093 H 108.493 1.89542 -0.131804 0
M  V30 1094 H 106.643 3.43592 1.81319 0
M  V30 1095 H 108.315 4.5823 -0.531279 0
M  V30 1096 H 106.558 4.30059 -0.568487 0
M  V30 1097 H 107.229 5.49266 0.54874 0
M  V30 1098 H 109.705 3.85551 1.56491 0
M  V30 1099 H 108.581 4.90231 2.46911 0
M  V30 1100 H 108.842 3.2481 2.99918 0
M  V30 1101 N 107.901 -0.206675 1.56239 0
M  V30 1102 C 108.831 -1.25909 1.96645 0
M  V30 1103 C 109.812 -1.48097 0.836734 0
M  V30 1104 O 110.997 -1.6003 1.10019 0
M  V30 1105 C 108.127 -2.6058 2.29599 0
M  V30 1106 C 107.081 -2.53024 3.452 0
M  V30 1107 C 106.407 -3.91861 3.63798 0
M  V30 1108 C 107.707 -2.06524 4.79734 0
M  V30 1109 H 109.401 -0.923369 2.84806 0
M  V30 1110 H 106.947 -0.442735 1.37025 0
M  V30 1111 H 108.9 -3.34375 2.56459 0
M  V30 1112 H 107.624 -2.95869 1.38307 0
M  V30 1113 H 106.283 -1.81684 3.18412 0
M  V30 1114 H 105.931 -4.24483 2.69857 0
M  V30 1115 H 105.631 -3.87683 4.4156 0
M  V30 1116 H 107.155 -4.67296 3.93022 0
M  V30 1117 H 108.569 -2.70072 5.05702 0
M  V30 1118 H 106.966 -2.13374 5.60885 0
M  V30 1119 H 108.036 -1.01802 4.74093 0
M  V30 1120 N 109.379 -1.50304 -0.473955 0
M  V30 1121 C 110.609 -1.64663 -1.24778 0
M  V30 1122 C 111.017 -0.328174 -1.86332 0
M  V30 1123 O 110.36 0.699536 -1.69859 0
M  V30 1124 C 110.422 -2.6778 -2.39863 0
M  V30 1125 C 110.086 -4.11413 -1.98969 0
M  V30 1126 C 111.083 -4.97372 -1.51385 0
M  V30 1127 C 108.768 -4.57312 -2.07777 0
M  V30 1128 C 110.762 -6.27277 -1.13148 0
M  V30 1129 C 108.449 -5.87223 -1.69152 0
M  V30 1130 C 109.447 -6.72031 -1.21915 0
M  V30 1131 O 109.135 -7.99518 -0.838237 0
M  V30 1132 H 108.867 -0.556602 -0.383627 0
M  V30 1133 H 111.421 -1.9726 -0.572491 0
M  V30 1134 H 109.651 -2.30419 -3.10554 0
M  V30 1135 H 111.34 -2.71388 -3.01833 0
M  V30 1136 H 112.106 -4.63128 -1.44004 0
M  V30 1137 H 107.985 -3.91449 -2.43493 0
M  V30 1138 H 111.529 -6.93425 -0.762077 0
M  V30 1139 H 107.426 -6.20989 -1.76191 0
M  V30 1140 H 108.194 -8.12764 -0.967339 0
M  V30 1141 N 110.857 0.726932 -1.39834 0
M  V30 1142 C 112.103 1.48884 -1.377 0
M  V30 1143 C 112.436 1.94185 0.0244852 0
M  V30 1144 O 111.711 1.67361 0.990986 0
M  V30 1145 C 111.994 2.72288 -2.3565 0
M  V30 1146 C 111.847 2.32956 -3.84775 0
M  V30 1147 C 113.166 3.74414 -2.31306 0
M  V30 1148 H 110.285 0.540062 -0.5015 0
M  V30 1149 H 112.927 0.830547 -1.70886 0
M  V30 1150 H 111.077 3.28457 -2.07481 0
M  V30 1151 H 112.749 1.82356 -4.23726 0
M  V30 1152 H 110.992 1.65088 -4.01159 0
M  V30 1153 H 111.663 3.21362 -4.4881 0
M  V30 1154 H 114.139 3.27849 -2.56231 0
M  V30 1155 H 113.015 4.58414 -3.01907 0
M  V30 1156 H 113.276 4.21909 -1.32081 0
M  V30 1157 N 112.336 1.25143 0.95797 0
M  V30 1158 C 113.613 1.00472 1.67823 0
M  V30 1159 C 113.993 -0.470056 2.058 0
M  V30 1160 O 113.341 -1.44663 1.76875 0
M  V30 1161 C 113.551 1.9372 2.90299 0
M  V30 1162 C 114.899 2.21371 3.62326 0
M  V30 1163 O 115.923 1.91451 3.00375 0
M  V30 1164 O 114.782 2.72231 4.7387 0
M  V30 1165 H 111.876 0.380752 0.734137 0
M  V30 1166 H 114.422 1.36283 1.01119 0
M  V30 1167 H 113.194 2.93316 2.59001 0
M  V30 1168 H 112.817 1.58286 3.64735 0
M  V30 1169 N 113.814 -1.1601 1.06675 0
M  V30 1170 C 115.225 -1.68235 0.809565 0
M  V30 1171 C 115.576 -1.8454 -0.666303 0
M  V30 1172 O 114.701 -1.54374 -1.5165 0
M  V30 1173 C 115.296 -3.05585 1.46299 0
M  V30 1174 C 113.855 -3.54915 1.25349 0
M  V30 1175 C 113.002 -2.30804 1.53703 0
M  V30 1176 H 115.953 -1.00318 1.22971 0
M  V30 1177 H 115.974 -3.70174 0.880431 0
M  V30 1178 H 115.486 -2.93686 2.53713 0
M  V30 1179 H 113.587 -3.72067 0.199261 0
M  V30 1180 H 113.7 -4.36774 1.9689 0
M  V30 1181 H 112.064 -2.36007 0.957739 0
M  V30 1182 H 112.847 -2.21499 2.62284 0
M  V30 1183 N 115.292 -0.849877 -1.32721 0
M  V30 1184 C 116.202 -0.293791 -2.32753 0
M  V30 1185 C 117.218 0.585906 -1.63839 0
M  V30 1186 O 118.394 0.487413 -1.95413 0
M  V30 1187 C 115.459 0.512752 -3.42887 0
M  V30 1188 C 114.52 -0.39252 -4.27502 0
M  V30 1189 C 113.753 0.375625 -5.32377 0
M  V30 1190 O 113.976 1.60613 -5.4732 0
M  V30 1191 O 112.91 -0.256094 -6.01355 0
M  V30 1192 H 116.736 -1.12242 -2.82197 0
M  V30 1193 H 114.321 -0.612685 -1.36259 0
M  V30 1194 H 116.203 0.970704 -4.10067 0
M  V30 1195 H 114.878 1.31826 -2.95641 0
M  V30 1196 H 113.785 -0.898547 -3.63149 0
M  V30 1197 H 115.118 -1.16309 -4.7826 0
M  V30 1198 N 116.77 1.45427 -0.607355 0
M  V30 1199 C 118.017 2.02241 -0.102455 0
M  V30 1200 C 118.345 1.4758 1.26691 0
M  V30 1201 O 117.6 0.640468 1.84923 0
M  V30 1202 C 117.899 3.57398 -0.0129263 0
M  V30 1203 C 117.565 4.3121 -1.31792 0
M  V30 1204 C 116.227 4.51092 -1.67539 0
M  V30 1205 C 118.579 4.73401 -2.18039 0
M  V30 1206 C 115.907 5.10422 -2.89285 0
M  V30 1207 C 118.259 5.34078 -3.39034 0
M  V30 1208 C 116.923 5.52184 -3.75033 0
M  V30 1209 H 116.193 0.740051 -0.037491 0
M  V30 1210 H 118.84 1.74494 -0.788926 0
M  V30 1211 H 117.145 3.84421 0.756806 0
M  V30 1212 H 118.842 3.99061 0.393881 0
M  V30 1213 H 115.432 4.16047 -1.02968 0
M  V30 1214 H 119.616 4.57774 -1.91721 0
M  V30 1215 H 114.872 5.22629 -3.17283 0
M  V30 1216 H 119.046 5.65724 -4.06115 0
M  V30 1217 H 116.673 5.97925 -4.69457 0
M  V30 1218 N 118.248 0.346503 1.53744 0
M  V30 1219 C 119.659 -0.136779 1.86198 0
M  V30 1220 C 120.01 -1.49749 1.26766 0
M  V30 1221 O 119.135 -2.08417 0.582355 0
M  V30 1222 C 119.73 -0.254966 3.37839 0
M  V30 1223 C 118.289 -0.682482 3.70161 0
M  V30 1224 C 117.436 0.181981 2.76702 0
M  V30 1225 H 120.387 0.565994 1.48264 0
M  V30 1226 H 120.408 -1.08195 3.64793 0
M  V30 1227 H 119.92 0.735526 3.81066 0
M  V30 1228 H 118.021 -1.68189 3.3248 0
M  V30 1229 H 118.134 -0.470326 4.76786 0
M  V30 1230 H 116.498 -0.34615 2.52337 0
M  V30 1231 H 117.281 1.16966 3.2276 0
M  V30 1232 N 119.726 -1.57421 0.075193 0
M  V30 1233 C 121.137 -1.81021 -0.456964 0
M  V30 1234 C 121.488 -0.98936 -1.69429 0
M  V30 1235 O 120.613 -0.212865 -2.15351 0
M  V30 1236 C 121.208 -3.28329 -0.83581 0
M  V30 1237 C 119.767 -3.52764 -1.31281 0
M  V30 1238 C 118.914 -2.75676 -0.299648 0
M  V30 1239 H 121.865 -1.55822 0.300856 0
M  V30 1240 H 121.886 -3.40564 -1.69696 0
M  V30 1241 H 121.398 -3.88046 0.0649238 0
M  V30 1242 H 119.499 -2.98355 -2.23193 0
M  V30 1243 H 119.612 -4.61451 -1.28839 0
M  V30 1244 H 117.976 -2.42538 -0.777641 0
M  V30 1245 H 118.759 -3.38132 0.593417 0
M  V30 1246 N 121.204 0.198386 -1.56346 0
M  V30 1247 C 122.481 0.944982 -1.71258 0
M  V30 1248 C 122.861 2.0151 -0.629048 0
M  V30 1249 O 122.209 2.25639 0.360473 0
M  V30 1250 C 122.419 1.5344 -3.1346 0
M  V30 1251 C 123.767 2.01778 -3.73591 0
M  V30 1252 O 124.791 1.63288 -3.16568 0
M  V30 1253 O 123.65 2.72594 -4.73661 0
M  V30 1254 H 120.744 0.442939 -0.69838 0
M  V30 1255 H 123.29 0.188342 -1.68652 0
M  V30 1256 H 122.062 0.762869 -3.83792 0
M  V30 1257 H 121.685 2.35596 -3.20282 0
M  V30 1258 N 122.682 1.50554 0.465978 0
M  V30 1259 C 123.592 1.72585 1.58907 0
M  V30 1260 C 124.608 0.60911 1.6299 0
M  V30 1261 O 125.784 0.88804 1.80765 0
M  V30 1262 C 122.849 1.81995 2.95091 0
M  V30 1263 C 121.91 3.05751 3.01355 0
M  V30 1264 C 121.143 3.14702 4.31043 0
M  V30 1265 O 121.366 2.30313 5.21835 0
M  V30 1266 O 120.3 4.07468 4.43005 0
M  V30 1267 H 124.126 2.67799 1.43239 0
M  V30 1268 H 121.711 1.34711 0.646013 0
M  V30 1269 H 123.593 1.90335 3.75966 0
M  V30 1270 H 122.268 0.899659 3.10947 0
M  V30 1271 H 121.175 3.02908 2.19539 0
M  V30 1272 H 122.508 3.97375 2.90437 0
M  V30 1273 N 124.16 -0.719506 1.40217 0
M  V30 1274 C 125.388 -1.50864 1.41589 0
M  V30 1275 C 125.803 -1.88794 0.0145275 0
M  V30 1276 O 125.16 -1.55174 -0.960594 0
M  V30 1277 C 125.211 -2.78646 2.30302 0
M  V30 1278 O 124.932 -2.42321 3.64983 0
M  V30 1279 C 126.433 -3.72569 2.40224 0
M  V30 1280 H 123.653 -0.465709 0.48307 0
M  V30 1281 H 126.197 -0.88785 1.84221 0
M  V30 1282 H 124.352 -3.37019 1.91042 0
M  V30 1283 H 124.766 -3.24514 4.12057 0
M  V30 1284 H 126.24 -4.5908 3.06512 0
M  V30 1285 H 126.717 -4.15403 1.42608 0
M  V30 1286 H 127.323 -3.20109 2.80019 0
M  V30 1287 N 125.638 -1.25649 -0.95132 0
M  V30 1288 C 126.863 -1.13443 -1.73624 0
M  V30 1289 C 127.288 0.307565 -1.85568 0
M  V30 1290 O 126.646 1.22282 -1.33854 0
M  V30 1291 C 126.694 -1.79723 -3.12621 0
M  V30 1292 O 125.798 -1.07912 -3.98031 0
M  V30 1293 H 125.139 -0.395872 -0.533086 0
M  V30 1294 H 127.669 -1.66276 -1.1922 0
M  V30 1295 H 127.679 -1.86141 -3.63064 0
M  V30 1296 H 126.354 -2.84633 -3.03244 0
M  V30 1297 H 124.931 -1.09398 -3.56492 0
M  V30 1298 N 127.117 1.15442 -1.07289 0
M  V30 1299 C 128.047 2.22312 -0.714107 0
M  V30 1300 C 129.028 1.67467 0.298155 0
M  V30 1301 O 130.213 1.93445 0.171048 0
M  V30 1302 C 127.343 3.47124 -0.110448 0
M  V30 1303 C 126.297 4.14926 -1.04979 0
M  V30 1304 C 125.623 5.33807 -0.308924 0
M  V30 1305 C 126.923 4.64762 -2.38314 0
M  V30 1306 H 128.617 2.5258 -1.6076 0
M  V30 1307 H 126.163 1.21404 -0.77441 0
M  V30 1308 H 128.116 4.21124 0.152482 0
M  V30 1309 H 126.84 3.16187 0.81812 0
M  V30 1310 H 125.499 3.42866 -1.29764 0
M  V30 1311 H 125.147 4.99126 0.623084 0
M  V30 1312 H 124.847 5.80113 -0.935036 0
M  V30 1313 H 126.371 6.10576 -0.0537771 0
M  V30 1314 H 127.785 5.30292 -2.1786 0
M  V30 1315 H 126.182 5.21728 -2.96514 0
M  V30 1316 H 127.252 3.80434 -3.00663 0
M  V30 1317 N 128.595 0.856903 1.32268 0
M  V30 1318 C 129.842 0.461386 1.97174 0
M  V30 1319 C 130.17 -0.983491 1.67803 0
M  V30 1320 O 129.425 -1.70541 0.959903 0
M  V30 1321 C 129.724 0.649919 3.51441 0
M  V30 1322 C 129.39 2.0656 4.00804 0
M  V30 1323 C 128.052 2.45279 4.13995 0
M  V30 1324 C 130.404 2.98947 4.26943 0
M  V30 1325 C 127.732 3.75653 4.50668 0
M  V30 1326 C 130.084 4.28822 4.65075 0
M  V30 1327 C 128.748 4.67472 4.76472 0
M  V30 1328 H 128.018 0.168833 0.72151 0
M  V30 1329 H 130.665 1.08739 1.57633 0
M  V30 1330 H 128.97 -0.0593018 3.91755 0
M  V30 1331 H 130.667 0.32391 3.9969 0
M  V30 1332 H 127.257 1.75495 3.91024 0
M  V30 1333 H 131.441 2.70265 4.16258 0
M  V30 1334 H 126.697 4.05379 4.57688 0
M  V30 1335 H 130.871 5.0047 4.84255 0
M  V30 1336 H 128.498 5.68539 5.04646 0
M  V30 1337 N 130.073 -1.45103 0.615059 0
M  V30 1338 C 131.303 -2.06254 0.119596 0
M  V30 1339 C 131.711 -1.4591 -1.20445 0
M  V30 1340 O 131.054 -0.570384 -1.7462 0
M  V30 1341 C 131.116 -3.59396 -0.0865591 0
M  V30 1342 C 130.78 -4.42116 1.15683 0
M  V30 1343 C 131.777 -4.7662 2.07676 0
M  V30 1344 C 129.462 -4.82749 1.38775 0
M  V30 1345 C 131.456 -5.50622 3.21082 0
M  V30 1346 C 129.143 -5.56504 2.52481 0
M  V30 1347 C 130.141 -5.90358 3.43463 0
M  V30 1348 O 129.829 -6.62615 4.55189 0
M  V30 1349 H 129.561 -0.672423 0.0694512 0
M  V30 1350 H 132.115 -1.87219 0.844885 0
M  V30 1351 H 130.345 -3.76859 -0.866823 0
M  V30 1352 H 132.034 -4.02365 -0.534555 0
M  V30 1353 H 132.8 -4.4578 1.91063 0
M  V30 1354 H 128.679 -4.55829 0.688545 0
M  V30 1355 H 132.223 -5.76965 3.92119 0
M  V30 1356 H 128.12 -5.86759 2.69043 0
M  V30 1357 H 128.888 -6.81071 4.53966 0
M  V30 1358 N 131.551 -0.354651 -1.53558 0
M  V30 1359 C 132.776 0.242153 -2.05981 0
M  V30 1360 C 133.201 1.42553 -1.2272 0
M  V30 1361 O 132.559 1.79656 -0.243604 0
M  V30 1362 C 132.607 0.624367 -3.55154 0
M  V30 1363 O 131.711 1.72301 -3.74681 0
M  V30 1364 H 131.052 0.0378432 -0.662921 0
M  V30 1365 H 133.582 -0.512087 -1.98088 0
M  V30 1366 H 133.592 0.898433 -3.97985 0
M  V30 1367 H 132.267 -0.240989 -4.15201 0
M  V30 1368 H 130.844 1.44535 -3.4375 0
M  V30 1369 N 133.029 1.57378 -0.0835403 0
M  V30 1370 C 133.961 2.10389 0.909338 0
M  V30 1371 C 134.974 1.03858 1.25369 0
M  V30 1372 O 136.163 1.31338 1.20882 0
M  V30 1373 C 133.263 2.55908 2.2218 0
M  V30 1374 C 132.436 3.86145 2.05453 0
M  V30 1375 C 131.495 4.17633 3.20108 0
M  V30 1376 O 130.521 4.87043 2.94581 0
M  V30 1377 N 131.723 3.72113 4.45547 0
M  V30 1378 H 134.488 2.962 0.456657 0
M  V30 1379 H 132.049 1.61579 0.101877 0
M  V30 1380 H 134.041 2.74027 2.97811 0
M  V30 1381 H 132.611 1.75171 2.58909 0
M  V30 1382 H 131.831 3.7729 1.1422 0
M  V30 1383 H 133.119 4.7137 1.91541 0
M  V30 1384 H 132.517 3.16062 4.69171 0
M  V30 1385 H 131.074 3.95409 5.18165 0
M  V30 1386 N 134.507 -0.190092 1.56449 0
M  V30 1387 C 135.454 -1.23557 1.94942 0
M  V30 1388 C 136.424 -1.44972 0.810696 0
M  V30 1389 O 137.609 -1.58023 1.06927 0
M  V30 1390 C 134.749 -2.57416 2.2985 0
M  V30 1391 C 133.862 -2.43537 3.5681 0
M  V30 1392 C 132.997 -3.70134 3.81017 0
M  V30 1393 C 132.036 -3.51109 5.01387 0
M  V30 1394 N 131.173 -4.6973 5.21822 0
M  V30 1395 H 136.013 -0.900304 2.84075 0
M  V30 1396 H 133.55 -0.43318 1.40577 0
M  V30 1397 H 135.508 -3.35409 2.48106 0
M  V30 1398 H 134.138 -2.88975 1.43852 0
M  V30 1399 H 133.19 -1.56816 3.46573 0
M  V30 1400 H 134.502 -2.25415 4.4496 0
M  V30 1401 H 133.656 -4.56566 3.9954 0
M  V30 1402 H 132.395 -3.91215 2.91207 0
M  V30 1403 H 131.4 -2.63063 4.82782 0
M  V30 1404 H 132.625 -3.31468 5.9271 0
M  V30 1405 H 130.571 -4.91065 4.34961 0
M  V30 1406 H 130.488 -4.54452 6.0416 0
M  V30 1407 H 131.756 -5.57499 5.44808 0
M  V30 1408 N 135.985 -1.50799 -0.457987 0
M  V30 1409 C 137.232 -1.62442 -1.20908 0
M  V30 1410 C 137.56 -0.330865 -1.91665 0
M  V30 1411 O 136.815 0.68401 -1.83357 0
M  V30 1412 C 137.114 -2.76358 -2.2663 0
M  V30 1413 C 136.78 -4.16378 -1.73033 0
M  V30 1414 C 135.442 -4.54473 -1.58138 0
M  V30 1415 C 137.794 -5.03836 -1.33413 0
M  V30 1416 C 135.122 -5.77754 -1.02065 0
M  V30 1417 C 137.474 -6.27676 -0.78778 0
M  V30 1418 C 136.138 -6.64562 -0.625561 0
M  V30 1419 H 135.408 -0.594417 -0.442435 0
M  V30 1420 H 138.055 -1.84772 -0.503136 0
M  V30 1421 H 136.36 -2.48167 -3.03184 0
M  V30 1422 H 138.057 -2.82568 -2.84528 0
M  V30 1423 H 134.647 -3.86331 -1.85598 0
M  V30 1424 H 138.831 -4.75026 -1.4375 0
M  V30 1425 H 134.087 -6.04997 -0.882547 0
M  V30 1426 H 138.261 -6.94797 -0.472177 0
M  V30 1427 H 135.888 -7.59965 -0.188926 0
M  V30 1428 N 137.463 0.71206 -1.40597 0
M  V30 1429 C 138.874 1.29135 -1.34837 0
M  V30 1430 C 139.225 1.96186 -0.0235395 0
M  V30 1431 O 138.35 1.97768 0.878444 0
M  V30 1432 C 138.945 2.34827 -2.44217 0
M  V30 1433 C 137.504 2.88371 -2.41907 0
M  V30 1434 C 136.651 1.62202 -2.24913 0
M  V30 1435 H 139.602 0.507944 -1.50352 0
M  V30 1436 H 139.623 3.15749 -2.12327 0
M  V30 1437 H 139.135 1.85996 -3.40627 0
M  V30 1438 H 137.236 3.41422 -1.49204 0
M  V30 1439 H 137.349 3.39925 -3.37621 0
M  V30 1440 H 135.713 1.874 -1.72492 0
M  V30 1441 H 136.496 1.15391 -3.23326 0
M  V30 1442 N 138.941 1.26152 0.944643 0
M  V30 1443 C 140.19 1.10883 1.68487 0
M  V30 1444 C 140.503 -0.348153 1.92477 0
M  V30 1445 O 141.709 -0.621459 2.64292 0
M  V30 1446 C 140.165 1.93624 3.03377 0
M  V30 1447 C 139.773 3.43875 2.87148 0
M  V30 1448 C 141.517 1.86954 3.81115 0
M  V30 1449 C 139.424 4.18875 4.1749 0
M  V30 1450 H 138.354 0.41135 0.631907 0
M  V30 1451 H 141.005 1.50433 1.05082 0
M  V30 1452 H 139.387 1.46904 3.67743 0
M  V30 1453 H 140.561 3.98338 2.31653 0
M  V30 1454 H 138.876 3.51744 2.22856 0
M  V30 1455 H 141.473 2.40275 4.77673 0
M  V30 1456 H 141.816 0.839518 4.07747 0
M  V30 1457 H 142.349 2.31477 3.23517 0
M  V30 1458 H 139.088 5.22332 3.96043 0
M  V30 1459 H 138.608 3.69193 4.72712 0
M  V30 1460 H 140.287 4.27134 4.85968 0
M  V30 1461 N 140.419 -1.14872 1.07899 0
M  V30 1462 C 141.351 -2.19425 0.662231 0
M  V30 1463 C 142.364 -1.60231 -0.288079 0
M  V30 1464 O 143.553 -1.78336 -0.076534 0
M  V30 1465 C 140.653 -3.38867 -0.0470695 0
M  V30 1466 C 139.826 -4.27597 0.920831 0
M  V30 1467 C 138.885 -5.25616 0.247805 0
M  V30 1468 O 137.911 -5.62189 0.890599 0
M  V30 1469 N 139.113 -5.71746 -1.00435 0
M  V30 1470 H 141.878 -2.55797 1.56166 0
M  V30 1471 H 139.439 -1.30042 0.964404 0
M  V30 1472 H 141.431 -4.01497 -0.50813 0
M  V30 1473 H 140.001 -3.00864 -0.848523 0
M  V30 1474 H 139.221 -3.61982 1.56087 0
M  V30 1475 H 140.509 -4.83748 1.57688 0
M  V30 1476 H 139.907 -5.44153 -1.54642 0
M  V30 1477 H 138.464 -6.36389 -1.40899 0
M  V30 1478 N 141.898 -0.863906 -1.31812 0
M  V30 1479 C 143.145 -0.471836 -1.96926 0
M  V30 1480 C 143.473 0.974578 -1.68322 0
M  V30 1481 O 142.728 1.7003 -0.968933 0
M  V30 1482 C 143.027 -0.668547 -3.51091 0
M  V30 1483 C 142.693 -2.08683 -3.99703 0
M  V30 1484 C 141.355 -2.47471 -4.12688 0
M  V30 1485 C 143.707 -3.01207 -4.25351 0
M  V30 1486 C 141.035 -3.78037 -4.4867 0
M  V30 1487 C 143.387 -4.31282 -4.62794 0
M  V30 1488 C 142.051 -4.69992 -4.73987 0
M  V30 1489 H 141.321 -0.172657 -0.720604 0
M  V30 1490 H 143.968 -1.09573 -1.57054 0
M  V30 1491 H 142.273 0.0385252 -3.91781 0
M  V30 1492 H 143.97 -0.345102 -3.99512 0
M  V30 1493 H 140.56 -1.77566 -3.90087 0
M  V30 1494 H 144.744 -2.72469 -4.14819 0
M  V30 1495 H 140 -4.078 -4.55532 0
M  V30 1496 H 144.174 -5.03031 -4.81594 0
M  V30 1497 H 141.801 -5.71207 -5.01624 0
M  V30 1498 N 143.376 1.44774 -0.622745 0
M  V30 1499 C 144.622 2.0242 -0.124083 0
M  V30 1500 C 144.955 1.4881 1.24777 0
M  V30 1501 O 144.23 0.668799 1.8264 0
M  V30 1502 C 144.513 3.59957 -0.101619 0
M  V30 1503 C 144.366 4.23867 -1.50521 0
M  V30 1504 C 145.685 4.36284 0.578272 0
M  V30 1505 H 142.804 0.735528 -0.0465645 0
M  V30 1506 H 145.446 1.72447 -0.797617 0
M  V30 1507 H 143.596 3.85623 0.471934 0
M  V30 1508 H 145.268 4.09336 -2.12701 0
M  V30 1509 H 143.511 3.81684 -2.06154 0
M  V30 1510 H 144.182 5.32843 -1.4416 0
M  V30 1511 H 146.658 4.16001 0.0906057 0
M  V30 1512 H 145.534 5.46004 0.563149 0
M  V30 1513 H 145.795 4.10271 1.64713 0
M  V30 1514 N 144.854 0.36279 1.53368 0
M  V30 1515 C 146.1 -0.220702 2.02199 0
M  V30 1516 C 146.455 -1.46649 1.24546 0
M  V30 1517 O 145.748 -1.88737 0.32996 0
M  V30 1518 C 145.942 -0.568417 3.52851 0
M  V30 1519 C 145.771 0.642126 4.45092 0
M  V30 1520 C 144.541 1.15335 4.91961 0
M  V30 1521 C 146.739 1.50649 4.91741 0
M  V30 1522 N 144.721 2.3242 5.68202 0
M  V30 1523 C 146.092 2.52404 5.66297 0
M  V30 1524 C 148.147 1.52969 4.73819 0
M  V30 1525 C 146.85 3.56331 6.24836 0
M  V30 1526 C 148.876 2.55789 5.33222 0
M  V30 1527 C 148.238 3.56268 6.07662 0
M  V30 1528 H 144.337 -0.0435508 0.780786 0
M  V30 1529 H 146.921 0.506704 1.87991 0
M  V30 1530 H 145.092 -1.2649 3.67226 0
M  V30 1531 H 146.824 -1.13676 3.88407 0
M  V30 1532 H 143.579 0.718412 4.68119 0
M  V30 1533 H 144.003 2.91591 6.10986 0
M  V30 1534 H 148.645 0.766418 4.15795 0
M  V30 1535 H 146.363 4.33543 6.81958 0
M  V30 1536 H 149.949 2.58435 5.21251 0
M  V30 1537 H 148.829 4.34524 6.52808 0
M  V30 1538 N 146.332 -1.57332 0.0918853 0
M  V30 1539 C 147.279 -2.13847 -0.868211 0
M  V30 1540 C 148.249 -1.05618 -1.28196 0
M  V30 1541 O 149.434 -1.33387 -1.36427 0
M  V30 1542 C 146.574 -2.72062 -2.12312 0
M  V30 1543 C 145.687 -3.94514 -1.7602 0
M  V30 1544 C 144.822 -4.40903 -2.96273 0
M  V30 1545 C 143.861 -5.55953 -2.56092 0
M  V30 1546 N 142.998 -5.97209 -3.69169 0
M  V30 1547 H 147.838 -2.95575 -0.379406 0
M  V30 1548 H 145.375 -1.46048 -0.175606 0
M  V30 1549 H 147.333 -3.03931 -2.858 0
M  V30 1550 H 145.963 -1.93068 -2.58698 0
M  V30 1551 H 145.015 -3.68979 -0.925135 0
M  V30 1552 H 146.327 -4.7802 -1.42472 0
M  V30 1553 H 145.481 -4.74539 -3.78018 0
M  V30 1554 H 144.22 -3.56291 -3.33029 0
M  V30 1555 H 143.225 -5.21948 -1.72773 0
M  V30 1556 H 144.45 -6.42311 -2.20484 0
M  V30 1557 H 142.396 -5.15543 -4.05649 0
M  V30 1558 H 142.313 -6.75504 -3.39456 0
M  V30 1559 H 143.581 -6.35475 -4.51434 0
M  V30 1560 N 147.81 0.181792 -1.56548 0
M  V30 1561 C 149.226 0.53316 -1.50431 0
M  V30 1562 C 149.426 1.85184 -0.794297 0
M  V30 1563 O 148.482 2.50058 -0.350318 0
M  V30 1564 C 149.795 0.575597 -2.9514 0
M  V30 1565 C 151.343 0.663519 -3.05886 0
M  V30 1566 C 151.818 0.736946 -4.52032 0
M  V30 1567 N 153.309 0.800118 -4.56237 0
M  V30 1568 C 154.044 0.877327 -5.66649 0
M  V30 1569 N 153.54 0.916016 -6.86718 0
M  V30 1570 N 155.333 0.915542 -5.54594 0
M  V30 1571 H 147.484 -0.683025 -2.01118 0
M  V30 1572 H 149.747 -0.244988 -0.915797 0
M  V30 1573 H 149.453 -0.324482 -3.502 0
M  V30 1574 H 149.327 1.42572 -3.49218 0
M  V30 1575 H 151.714 1.55403 -2.50867 0
M  V30 1576 H 151.795 -0.21307 -2.54911 0
M  V30 1577 H 151.439 -0.149262 -5.07681 0
M  V30 1578 H 151.369 1.62953 -5.00753 0
M  V30 1579 H 153.86 0.778926 -3.69785 0
M  V30 1580 H 154.173 0.975813 -7.66614 0
M  V30 1581 H 152.518 0.884469 -6.89349 0
M  V30 1582 H 155.709 0.882245 -4.59711 0
M  V30 1583 H 155.882 0.972253 -6.40665 0
M  V30 1584 N 149.288 1.51039 0.449983 0
M  V30 1585 C 150.699 1.557 1.03026 0
M  V30 1586 C 151.05 0.372939 1.92623 0
M  V30 1587 O 150.175 -0.511771 2.10261 0
M  V30 1588 C 150.77 2.82171 1.87523 0
M  V30 1589 C 149.329 2.89444 2.40622 0
M  V30 1590 C 148.476 2.50228 1.19504 0
M  V30 1591 H 151.427 1.56999 0.231745 0
M  V30 1592 H 151.448 2.65219 2.72835 0
M  V30 1593 H 150.96 3.68331 1.22286 0
M  V30 1594 H 149.061 2.07685 3.0935 0
M  V30 1595 H 149.174 3.92816 2.74285 0
M  V30 1596 H 147.538 2.03139 1.53644 0
M  V30 1597 H 148.321 3.38719 0.558972 0
M  V30 1598 N 150.766 -0.704594 1.40972 0
M  V30 1599 C 152.177 -1.28418 1.3552 0
M  V30 1600 C 152.528 -1.96171 0.0339434 0
M  V30 1601 O 151.653 -1.98231 -0.867944 0
M  V30 1602 C 152.248 -2.33528 2.45459 0
M  V30 1603 C 150.807 -2.87085 2.43433 0
M  V30 1604 C 149.954 -1.61007 2.2577 0
M  V30 1605 H 152.905 -0.499963 1.50619 0
M  V30 1606 H 152.926 -3.14619 2.13998 0
M  V30 1607 H 152.438 -1.84187 3.41609 0
M  V30 1608 H 150.539 -3.40626 1.51013 0
M  V30 1609 H 150.652 -3.3813 3.39419 0
M  V30 1610 H 149.016 -1.86482 1.73483 0
M  V30 1611 H 149.799 -1.13675 3.23933 0
M  V30 1612 N 152.244 -1.26651 -0.937939 0
M  V30 1613 C 153.154 -1.10276 -2.07066 0
M  V30 1614 C 154.17 -0.0354197 -1.73964 0
M  V30 1615 O 155.346 -0.239816 -1.99967 0
M  V30 1616 C 152.411 -0.740887 -3.38691 0
M  V30 1617 C 151.472 -1.88799 -3.85556 0
M  V30 1618 C 150.705 -1.54329 -5.10899 0
M  V30 1619 O 150.928 -0.446494 -5.6865 0
M  V30 1620 O 149.862 -2.37911 -5.52885 0
M  V30 1621 H 153.688 -2.05309 -2.23789 0
M  V30 1622 H 151.273 -1.05743 -1.0554 0
M  V30 1623 H 153.155 -0.55195 -4.1777 0
M  V30 1624 H 151.83 0.180022 -3.23199 0
M  V30 1625 H 150.737 -2.13191 -3.07409 0
M  V30 1626 H 152.07 -2.78874 -4.05574 0
M  V30 1627 N 153.722 1.14298 -1.08507 0
M  V30 1628 C 154.971 1.84708 -0.810305 0
M  V30 1629 C 155.284 1.83903 0.666271 0
M  V30 1630 O 156.49 2.50112 1.05624 0
M  V30 1631 C 154.946 3.31572 -1.39957 0
M  V30 1632 C 154.554 3.40791 -2.90801 0
M  V30 1633 C 156.298 4.07087 -1.20334 0
M  V30 1634 C 154.205 4.81872 -3.4286 0
M  V30 1635 H 153.135 0.691985 -0.299454 0
M  V30 1636 H 155.786 1.28841 -1.30661 0
M  V30 1637 H 154.168 3.87183 -0.830976 0
M  V30 1638 H 155.342 2.95225 -3.53806 0
M  V30 1639 H 153.657 2.78732 -3.0935 0
M  V30 1640 H 156.254 5.11225 -1.56693 0
M  V30 1641 H 156.597 4.16054 -0.143237 0
M  V30 1642 H 157.13 3.57779 -1.73893 0
M  V30 1643 H 153.869 4.78094 -4.48449 0
M  V30 1644 H 153.389 5.27972 -2.84615 0
M  V30 1645 H 155.068 5.50765 -3.39509 0
M  V30 1646 N 155.201 0.870884 1.31352 0
M  V30 1647 C 156.441 0.488783 1.9847 0
M  V30 1648 C 156.805 -0.941536 1.67329 0
M  V30 1649 O 158.006 -1.42903 2.27667 0
M  V30 1650 C 156.277 0.739688 3.49662 0
M  V30 1651 S 157.836 0.457582 4.36408 0
M  V30 1652 H 154.654 0.18242 0.6872 0
M  V30 1653 H 157.256 1.12711 1.59739 0
M  V30 1654 H 155.96 1.77944 3.69816 0
M  V30 1655 H 155.491 0.0883905 3.93301 0
M  V30 1656 H 157.506 -0.709752 4.91098 0
M  V30 1657 N 156.679 -1.44442 0.630414 0
M  V30 1658 C 157.589 -2.34476 -0.0761693 0
M  V30 1659 C 158.605 -1.52576 -0.836449 0
M  V30 1660 O 159.781 -1.85307 -0.788874 0
M  V30 1661 C 156.846 -3.30545 -1.04599 0
M  V30 1662 C 155.907 -4.28352 -0.28516 0
M  V30 1663 C 155.14 -5.19831 -1.20878 0
M  V30 1664 O 155.363 -5.15223 -2.44747 0
M  V30 1665 O 154.297 -5.97892 -0.693491 0
M  V30 1666 H 158.123 -2.96345 0.664324 0
M  V30 1667 H 155.708 -1.44203 0.39061 0
M  V30 1668 H 157.59 -3.89681 -1.60396 0
M  V30 1669 H 156.265 -2.7121 -1.76711 0
M  V30 1670 H 155.172 -3.72764 0.315837 0
M  V30 1671 H 156.505 -4.90605 0.395924 0
M  V30 1672 N 158.157 -0.370918 -1.53173 0
M  V30 1673 C 159.105 0.488101 -2.27421 0
M  V30 1674 C 160.099 1.07884 -1.30604 0
M  V30 1675 O 161.305 1.02143 -1.48212 0
M  V30 1676 H 157.68 0.176134 -0.731082 0
M  V30 1677 H 159.651 -0.159815 -2.97972 0
M  V30 1678 C 158.4 1.61306 -3.08019 0
M  V30 1679 H 157.723 1.1678 -3.82364 0
M  V30 1680 H 159.163 2.18872 -3.63141 0
M  V30 1681 C 157.622 2.55848 -2.19188 0
M  V30 1682 O 158.152 3.58799 -1.80626 0
M  V30 1683 N 156.358 2.2516 -1.83715 0
M  V30 1684 H 155.905 1.41476 -2.15273 0
M  V30 1685 H 155.863 2.8867 -1.24567 0
M  V30 1686 N 159.635 1.57281 -0.100228 0
M  V30 1687 C 161.046 1.81725 0.428107 0
M  V30 1688 C 161.397 1.01619 1.67833 0
M  V30 1689 O 160.522 0.247098 2.14985 0
M  V30 1690 C 161.117 3.29617 0.78347 0
M  V30 1691 C 159.676 3.54808 1.25653 0
M  V30 1692 C 158.823 2.76118 0.255752 0
M  V30 1693 H 161.774 1.55324 -0.325608 0
M  V30 1694 H 161.795 3.4322 1.64256 0
M  V30 1695 H 161.307 3.87893 -0.12665 0
M  V30 1696 H 159.408 3.01868 2.18418 0
M  V30 1697 H 159.521 4.63443 1.21482 0
M  V30 1698 H 157.885 2.43745 0.738956 0
M  V30 1699 H 158.668 3.37145 -0.647136 0
M  V30 1700 N 161.113 -0.173488 1.56642 0
M  V30 1701 C 162.529 -0.525174 1.50712 0
M  V30 1702 C 162.729 -1.8476 0.804107 0
M  V30 1703 O 161.785 -2.49869 0.363574 0
M  V30 1704 C 163.098 -0.559937 2.95441 0
M  V30 1705 C 164.646 -0.647288 3.06234 0
M  V30 1706 C 165.121 -0.712963 4.52417 0
M  V30 1707 N 166.612 -0.775911 4.56655 0
M  V30 1708 C 167.347 -0.847264 5.67106 0
M  V30 1709 N 166.843 -0.879585 6.87194 0
M  V30 1710 N 168.636 -0.886117 5.55071 0
M  V30 1711 H 160.787 0.693681 2.00753 0
M  V30 1712 H 163.05 0.249841 0.914485 0
M  V30 1713 H 162.756 0.343049 3.50023 0
M  V30 1714 H 162.63 -1.40718 3.49969 0
M  V30 1715 H 165.017 -1.5407 2.51687 0
M  V30 1716 H 165.098 0.226586 2.54794 0
M  V30 1717 H 164.742 0.176183 5.07594 0
M  V30 1718 H 164.672 -1.60295 5.0161 0
M  V30 1719 H 167.163 -0.759304 3.70193 0
M  V30 1720 H 167.476 -0.935144 7.67121 0
M  V30 1721 H 165.821 -0.847898 6.89808 0
M  V30 1722 H 169.012 -0.857853 4.60172 0
M  V30 1723 H 169.185 -0.938263 6.41171 0
M  V30 1724 N 162.591 -1.51276 -0.441967 0
M  V30 1725 C 163.838 -1.63715 -1.19179 0
M  V30 1726 C 164.166 -0.351175 -1.91303 0
M  V30 1727 O 163.421 0.664524 -1.84072 0
M  V30 1728 C 163.72 -2.78746 -2.23686 0
M  V30 1729 C 163.386 -4.18189 -1.68607 0
M  V30 1730 C 162.048 -4.56125 -1.53308 0
M  V30 1731 C 164.4 -5.05222 -1.28062 0
M  V30 1732 C 161.728 -5.78804 -0.959317 0
M  V30 1733 C 164.08 -6.28476 -0.721162 0
M  V30 1734 C 162.744 -6.65188 -0.55504 0
M  V30 1735 H 162.014 -0.599076 -0.436106 0
M  V30 1736 H 164.661 -1.85296 -0.48351 0
M  V30 1737 H 162.966 -2.51369 -3.00535 0
M  V30 1738 H 164.663 -2.8557 -2.81515 0
M  V30 1739 H 161.253 -3.88277 -1.8149 0
M  V30 1740 H 165.437 -4.76524 -1.38704 0
M  V30 1741 H 160.693 -6.05899 -0.81833 0
M  V30 1742 H 164.867 -6.95259 -0.398458 0
M  V30 1743 H 162.494 -7.60123 -0.108311 0
M  V30 1744 N 164.069 0.697108 -1.41344 0
M  V30 1745 C 165.318 1.45279 -1.39918 0
M  V30 1746 C 165.631 1.95597 -0.0109624 0
M  V30 1747 O 166.837 2.71208 0.125919 0
M  V30 1748 C 165.293 2.62695 -2.46007 0
M  V30 1749 C 164.901 2.19169 -3.90729 0
M  V30 1750 C 166.645 3.40336 -2.53715 0
M  V30 1751 C 164.552 3.33535 -4.88373 0
M  V30 1752 H 163.482 0.545692 -0.520323 0
M  V30 1753 H 166.133 0.756929 -1.67161 0
M  V30 1754 H 164.515 3.34541 -2.11892 0
M  V30 1755 H 165.689 1.54623 -4.34083 0
M  V30 1756 H 164.004 1.54525 -3.86666 0
M  V30 1757 H 166.601 4.2547 -3.2385 0
M  V30 1758 H 166.944 3.85418 -1.5735 0
M  V30 1759 H 167.477 2.75546 -2.86913 0
M  V30 1760 H 164.216 2.93468 -5.86137 0
M  V30 1761 H 163.736 3.96936 -4.49668 0
M  V30 1762 H 165.415 3.99335 -5.09059 0
M  V30 1763 N 165.547 1.27147 0.931209 0
M  V30 1764 C 166.796 1.12664 1.67302 0
M  V30 1765 C 167.109 -0.327718 1.92835 0
M  V30 1766 O 168.315 -0.593392 2.64936 0
M  V30 1767 C 166.771 1.9683 3.01307 0
M  V30 1768 C 166.379 3.46901 2.83485 0
M  V30 1769 C 168.123 1.90985 3.79111 0
M  V30 1770 C 166.03 4.23279 4.13024 0
M  V30 1771 H 164.96 0.41803 0.627509 0
M  V30 1772 H 167.611 1.51539 1.03481 0
M  V30 1773 H 165.993 1.50797 3.66164 0
M  V30 1774 H 167.167 4.00773 2.27415 0
M  V30 1775 H 165.482 3.54088 2.19113 0
M  V30 1776 H 168.079 2.45328 4.75098 0
M  V30 1777 H 168.422 0.882718 4.06834 0
M  V30 1778 H 168.955 2.34895 3.21044 0
M  V30 1779 H 165.694 5.26503 3.90481 0
M  V30 1780 H 165.214 3.74186 4.6877 0
M  V30 1781 H 166.893 4.32265 4.81411 0
M  V30 1782 N 167.025 -1.13721 1.09112 0
M  V30 1783 C 168.302 -1.81155 0.737706 0
M  V30 1784 C 168.682 -1.96253 -0.777683 0
M  V30 1785 O 168.03 -1.52807 -1.69889 0
M  V30 1786 C 168.24 -3.16392 1.47299 0
M  V30 1787 C 169.588 -3.91787 1.63671 0
M  V30 1788 O 170.612 -3.26005 1.43524 0
M  V30 1789 O 169.471 -5.0977 1.96969 0
M  V30 1790 H 166.565 -0.783518 0.26463 0
M  V30 1791 H 169.111 -1.20676 1.19312 0
M  V30 1792 H 167.883 -3.0061 2.50498 0
M  V30 1793 H 167.506 -3.8457 1.00953 0
M  V30 1794 N 168.503 -0.877838 -1.30888 0
M  V30 1795 C 169.751 -0.491723 -1.96027 0
M  V30 1796 C 170.072 0.960827 -1.69685 0
M  V30 1797 O 169.342 1.67462 -1.01654 0
M  V30 1798 H 167.922 -0.17885 -0.725273 0
M  V30 1799 H 170.584 -1.11935 -1.59551 0
M  V30 1800 H 169.68 -0.656016 -3.05128 0
M  V30 1801 N 169.982 1.44106 -0.638065 0
M  V30 1802 C 170.945 2.29138 0.0531013 0
M  V30 1803 C 171.945 1.41409 0.765506 0
M  V30 1804 O 173.135 1.63206 0.609046 0
M  V30 1805 C 170.267 3.23144 1.08584 0
M  V30 1806 H 171.46 2.91739 -0.694883 0
M  V30 1807 H 169.013 1.51134 -0.398538 0
M  V30 1808 H 169.748 2.65408 1.86357 0
M  V30 1809 H 169.533 3.87804 0.578852 0
M  V30 1810 H 171.023 3.87004 1.56899 0
M  V30 1811 N 171.46 0.379036 1.52974 0
M  V30 1812 C 172.408 -0.476033 2.27677 0
M  V30 1813 C 173.402 -1.0719 1.31174 0
M  V30 1814 O 174.608 -1.01355 1.48752 0
M  V30 1815 H 170.983 -0.172255 0.732006 0
M  V30 1816 H 172.954 0.175615 2.97883 0
M  V30 1817 C 171.703 -1.5967 3.0887 0
M  V30 1818 H 171.026 -1.1475 3.82978 0
M  V30 1819 H 172.466 -2.16943 3.64296 0
M  V30 1820 C 170.925 -2.54682 2.20542 0
M  V30 1821 O 171.455 -3.57836 1.82527 0
M  V30 1822 N 169.661 -2.24183 1.84907 0
M  V30 1823 H 169.208 -1.40333 2.1602 0
M  V30 1824 H 169.166 -2.88006 1.26096 0
M  V30 1825 N 172.938 -1.57226 0.108567 0
M  V30 1826 C 174.354 -1.5766 -0.248058 0
M  V30 1827 C 174.554 -1.12063 -1.67464 0
M  V30 1828 O 173.61 -0.803236 -2.39383 0
M  V30 1829 C 174.923 -3.0069 -0.0242287 0
M  V30 1830 C 176.471 -3.12868 -0.0909372 0
M  V30 1831 C 176.946 -4.57879 0.105067 0
M  V30 1832 N 178.437 -4.63172 0.0506846 0
M  V30 1833 C 179.172 -5.73126 0.177396 0
M  V30 1834 N 178.668 -6.91866 0.359696 0
M  V30 1835 N 180.461 -5.61977 0.117709 0
M  V30 1836 H 172.612 -1.85169 1.04049 0
M  V30 1837 H 174.875 -0.85529 0.40888 0
M  V30 1838 H 174.581 -3.38299 0.961604 0
M  V30 1839 H 174.455 -3.6945 -0.76068 0
M  V30 1840 H 176.842 -2.75124 -1.06729 0
M  V30 1841 H 176.923 -2.46672 0.677225 0
M  V30 1842 H 176.567 -4.96321 1.07834 0
M  V30 1843 H 176.497 -5.22153 -0.682954 0
M  V30 1844 H 178.988 -3.778 -0.0871266 0
M  V30 1845 H 179.301 -7.71503 0.447529 0
M  V30 1846 H 177.646 -6.93874 0.395536 0
M  V30 1847 H 180.837 -4.68094 -0.0236741 0
M  V30 1848 H 181.01 -6.47627 0.219905 0
M  V30 1849 N 174.416 0.165178 -1.56732 0
M  V30 1850 C 175.644 0.896218 -1.86482 0
M  V30 1851 C 176.059 1.75555 -0.694675 0
M  V30 1852 O 175.416 1.79379 0.33607 0
M  V30 1853 C 175.467 1.76792 -3.1532 0
M  V30 1854 O 175.188 0.943239 -4.27825 0
M  V30 1855 C 176.689 2.6081 -3.58459 0
M  V30 1856 H 173.909 0.260064 -0.618553 0
M  V30 1857 H 176.453 0.163428 -2.03846 0
M  V30 1858 H 174.608 2.45398 -2.99764 0
M  V30 1859 H 175.022 1.53998 -5.01383 0
M  V30 1860 H 176.496 3.17579 -4.51495 0
M  V30 1861 H 176.973 3.35977 -2.82872 0
M  V30 1862 H 177.579 1.97526 -3.76648 0
M  V30 1863 N 175.894 1.51508 0.433938 0
M  V30 1864 C 177.171 1.54888 1.19453 0
M  V30 1865 C 177.551 0.315154 2.08734 0
M  V30 1866 O 176.899 -0.699558 2.17528 0
M  V30 1867 C 177.109 2.86467 1.99342 0
M  V30 1868 C 178.457 3.38545 2.56267 0
M  V30 1869 O 179.481 2.88041 2.0955 0
M  V30 1870 O 178.34 4.26675 3.41483 0
M  V30 1871 H 175.434 0.622863 0.544032 0
M  V30 1872 H 177.98 1.63823 0.442732 0
M  V30 1873 H 176.752 3.67718 1.33788 0
M  V30 1874 H 176.375 2.8071 2.8158 0
M  V30 1875 N 177.372 -0.689602 1.41712 0
M  V30 1876 C 178.621 -1.44534 1.40686 0
M  V30 1877 C 178.934 -1.95588 0.0213352 0
M  V30 1878 O 180.14 -2.71271 -0.111534 0
M  V30 1879 C 178.596 -2.61387 2.47396 0
M  V30 1880 C 178.204 -2.17094 3.91885 0
M  V30 1881 C 179.948 -3.38986 2.55517 0
M  V30 1882 C 177.855 -3.3094 4.90135 0
M  V30 1883 H 176.785 -0.542925 0.52321 0
M  V30 1884 H 179.436 -0.748054 1.6756 0
M  V30 1885 H 177.818 -3.33412 2.13664 0
M  V30 1886 H 178.992 -1.52318 4.34897 0
M  V30 1887 H 177.307 -1.52473 3.8748 0
M  V30 1888 H 179.904 -4.23747 3.26102 0
M  V30 1889 H 180.247 -3.84578 1.59391 0
M  V30 1890 H 180.78 -2.74021 2.8837 0
M  V30 1891 H 177.519 -2.90355 5.87685 0
M  V30 1892 H 177.039 -3.94546 4.51767 0
M  V30 1893 H 178.718 -3.9663 5.11169 0
M  V30 1894 N 178.85 -1.27639 -0.924453 0
M  V30 1895 C 180.09 -1.15407 -1.68703 0
M  V30 1896 C 180.454 0.294581 -1.89727 0
M  V30 1897 O 181.655 0.539385 -2.63333 0
M  V30 1898 C 179.926 -1.9195 -3.0148 0
M  V30 1899 S 181.485 -1.95969 -3.92609 0
M  V30 1900 H 178.303 -0.411937 -0.579507 0
M  V30 1901 H 180.905 -1.61592 -1.10038 0
M  V30 1902 H 179.609 -2.96387 -2.83871 0
M  V30 1903 H 179.14 -1.46272 -3.65196 0
M  V30 1904 H 181.155 -1.05846 -4.84779 0
M  V30 1905 N 180.328 1.1314 -1.09713 0
M  V30 1906 C 181.26 2.18343 -0.697056 0
M  V30 1907 C 182.273 1.60669 0.262551 0
M  V30 1908 O 183.462 1.78435 0.0481527 0
M  V30 1909 C 180.562 3.38899 -0.00684728 0
M  V30 1910 C 179.735 4.26078 -0.988741 0
M  V30 1911 C 178.794 5.25155 -0.331394 0
M  V30 1912 O 177.82 5.60701 -0.979926 0
M  V30 1913 N 179.022 5.73271 0.913261 0
M  V30 1914 H 181.787 2.5328 -1.60216 0
M  V30 1915 H 179.348 1.28491 -0.984971 0
M  V30 1916 H 181.34 4.02255 0.444191 0
M  V30 1917 H 179.91 3.02175 0.800551 0
M  V30 1918 H 179.13 3.59453 -1.61826 0
M  V30 1919 H 180.418 4.81178 -1.65364 0
M  V30 1920 H 179.816 5.46544 1.45966 0
M  V30 1921 H 178.373 6.3855 1.30757 0
M  V30 1922 N 181.806 0.884767 1.30421 0
M  V30 1923 C 183.054 0.502112 1.95763 0
M  V30 1924 C 183.375 -0.951815 1.70192 0
M  V30 1925 O 182.645 -1.6692 1.0254 0
M  V30 1926 H 181.225 0.182694 0.724315 0
M  V30 1927 H 183.887 1.1278 1.58955 0
M  V30 1928 H 182.983 0.672188 3.04775 0
M  V30 1929 N 183.284 -1.43765 0.645699 0
M  V30 1930 C 184.194 -2.34544 -0.0512957 0
M  V30 1931 C 185.21 -1.53455 -0.82022 0
M  V30 1932 O 186.386 -1.86133 -0.769176 0
M  V30 1933 C 183.451 -3.31636 -1.01087 0
M  V30 1934 C 182.512 -4.2863 -0.239712 0
M  V30 1935 C 181.745 -5.21084 -1.15358 0
M  V30 1936 O 181.968 -5.1779 -2.39269 0
M  V30 1937 O 180.902 -5.98593 -0.630038 0
M  V30 1938 H 184.728 -2.95624 0.695718 0
M  V30 1939 H 182.313 -1.43781 0.405882 0
M  V30 1940 H 184.195 -3.9136 -1.56254 0
M  V30 1941 H 182.87 -2.73069 -1.73824 0
M  V30 1942 H 181.777 -3.72408 0.355356 0
M  V30 1943 H 183.11 -4.90157 0.447936 0
M  V30 1944 N 184.763 -0.387143 -1.52771 0
M  V30 1945 C 185.693 0.440551 -2.29306 0
M  V30 1946 C 186.674 1.06535 -1.32606 0
M  V30 1947 O 187.859 1.07853 -1.61497 0
M  V30 1948 C 184.989 1.56919 -3.09829 0
M  V30 1949 C 183.943 1.07054 -4.14395 0
M  V30 1950 C 183.269 2.29109 -4.83129 0
M  V30 1951 C 184.569 0.140015 -5.22112 0
M  V30 1952 H 186.263 -0.198026 -2.98744 0
M  V30 1953 H 183.809 -0.09668 -1.43675 0
M  V30 1954 H 185.762 2.15503 -3.62128 0
M  V30 1955 H 184.486 2.23532 -2.3812 0
M  V30 1956 H 183.145 0.507247 -3.63074 0
M  V30 1957 H 182.793 2.94227 -4.0797 0
M  V30 1958 H 182.493 1.96406 -5.53804 0
M  V30 1959 H 184.017 2.88339 -5.38231 0
M  V30 1960 H 185.431 0.633978 -5.69784 0
M  V30 1961 H 183.828 -0.0971485 -6.00021 0
M  V30 1962 H 184.898 -0.811711 -4.78058 0
M  V30 1963 N 186.241 1.57166 -0.116904 0
M  V30 1964 C 187.489 1.94737 0.540533 0
M  V30 1965 C 187.81 1.00096 1.67349 0
M  V30 1966 O 187.08 0.0568854 1.95817 0
M  V30 1967 H 185.66 0.718981 0.202669 0
M  V30 1968 H 188.322 1.94017 -0.185353 0
M  V30 1969 H 187.418 2.97719 0.936483 0
M  V30 1970 N 187.719 -0.156864 1.56817 0
M  V30 1971 C 188.996 -0.899244 1.73704 0
M  V30 1972 C 189.376 -1.99771 0.682254 0
M  V30 1973 O 188.724 -2.26515 -0.300522 0
M  V30 1974 C 188.934 -1.45075 3.17418 0
M  V30 1975 C 190.282 -1.91802 3.7881 0
M  V30 1976 O 191.306 -1.54838 3.20786 0
M  V30 1977 O 190.165 -2.5994 4.80722 0
M  V30 1978 H 187.259 -0.424267 0.709878 0
M  V30 1979 H 189.805 -0.143561 1.69092 0
M  V30 1980 H 188.577 -0.660846 3.85679 0
M  V30 1981 H 188.2 -2.27021 3.26416 0
M  V30 1982 N 189.197 -1.51736 -0.425897 0
M  V30 1983 C 190.437 -1.66636 -1.18371 0
M  V30 1984 C 190.801 -0.379854 -1.88205 0
M  V30 1985 O 192.002 -0.404758 -2.65735 0
M  V30 1986 C 190.273 -2.84382 -2.16476 0
M  V30 1987 S 191.832 -3.19673 -3.0059 0
M  V30 1988 H 188.65 -0.586957 -0.40125 0
M  V30 1989 H 191.252 -1.89679 -0.473518 0
M  V30 1990 H 189.956 -3.76281 -1.63831 0
M  V30 1991 H 189.487 -2.63562 -2.92059 0
M  V30 1992 H 191.502 -2.66994 -4.18245 0
M  V30 1993 N 190.675 0.682077 -1.42076 0
M  V30 1994 C 191.921 1.44283 -1.43366 0
M  V30 1995 C 192.276 1.92344 -0.0465775 0
M  V30 1996 O 191.569 1.67517 0.929973 0
M  V30 1997 C 191.763 2.66036 -2.38662 0
M  V30 1998 C 191.592 2.29889 -3.86499 0
M  V30 1999 C 190.362 2.19599 -4.55087 0
M  V30 2000 C 192.56 1.91999 -4.77117 0
M  V30 2001 N 190.542 1.76478 -5.87987 0
M  V30 2002 C 191.913 1.59741 -5.99068 0
M  V30 2003 C 193.968 1.78927 -4.64639 0
M  V30 2004 C 192.671 1.15723 -7.0993 0
M  V30 2005 C 194.697 1.36314 -5.75476 0
M  V30 2006 C 194.059 1.04975 -6.96534 0
M  V30 2007 H 190.158 0.524739 -0.579805 0
M  V30 2008 H 192.742 0.787834 -1.78048 0
M  V30 2009 H 190.913 3.29237 -2.06053 0
M  V30 2010 H 192.645 3.32588 -2.30581 0
M  V30 2011 H 189.4 2.38433 -4.09202 0
M  V30 2012 H 189.824 1.57362 -6.58458 0
M  V30 2013 H 194.466 2.01805 -3.7153 0
M  V30 2014 H 192.184 0.91591 -8.02893 0
M  V30 2015 H 195.77 1.26731 -5.6783 0
M  V30 2016 H 194.65 0.725017 -7.80841 0
M  V30 2017 N 192.153 1.28127 0.917671 0
M  V30 2018 C 193.4 1.15052 1.66641 0
M  V30 2019 C 193.728 -0.301677 1.92146 0
M  V30 2020 O 192.983 -1.23622 1.51711 0
M  V30 2021 C 193.282 1.89018 3.03327 0
M  V30 2022 C 192.948 3.38832 2.97496 0
M  V30 2023 C 191.61 3.79693 2.95613 0
M  V30 2024 C 193.962 4.34378 2.88036 0
M  V30 2025 C 191.29 5.14447 2.82066 0
M  V30 2026 C 193.642 5.69201 2.7603 0
M  V30 2027 C 192.306 6.09343 2.72502 0
M  V30 2028 H 191.576 0.421006 0.609783 0
M  V30 2029 H 194.223 1.58855 1.06945 0
M  V30 2030 H 192.528 1.37752 3.66785 0
M  V30 2031 H 194.225 1.76321 3.60156 0
M  V30 2032 H 190.815 3.06342 2.99754 0
M  V30 2033 H 194.999 4.03775 2.88581 0
M  V30 2034 H 190.255 5.44681 2.77728 0
M  V30 2035 H 194.429 6.42901 2.67678 0
M  V30 2036 H 192.056 7.13712 2.61762 0
M  V30 2037 N 193.631 -1.12557 1.10312 0
M  V30 2038 C 194.561 -2.20341 0.772798 0
M  V30 2039 C 195.542 -1.68198 -0.25365 0
M  V30 2040 O 196.727 -1.93831 -0.119699 0
M  V30 2041 C 193.857 -3.46709 0.202443 0
M  V30 2042 C 192.811 -4.11996 1.15943 0
M  V30 2043 C 192.137 -5.328 0.450345 0
M  V30 2044 C 193.437 -4.5828 2.50552 0
M  V30 2045 H 195.131 -2.48229 1.674 0
M  V30 2046 H 192.677 -1.19308 0.806326 0
M  V30 2047 H 194.63 -4.2138 -0.0407752 0
M  V30 2048 H 193.354 -3.18245 -0.734001 0
M  V30 2049 H 192.013 -3.39305 1.38808 0
M  V30 2050 H 191.661 -5.00602 -0.490531 0
M  V30 2051 H 191.361 -5.7743 1.08851 0
M  V30 2052 H 192.885 -6.10219 0.215642 0
M  V30 2053 H 194.299 -5.2433 2.31843 0
M  V30 2054 H 192.696 -5.13683 3.10242 0
M  V30 2055 H 193.766 -3.72329 3.10643 0
M  V30 2056 N 195.109 -0.891671 -1.2995 0
M  V30 2057 C 196.072 -0.36828 -2.26222 0
M  V30 2058 C 197.072 0.493014 -1.53056 0
M  V30 2059 O 198.262 0.299213 -1.71611 0
M  V30 2060 C 195.394 0.47442 -3.37583 0
M  V30 2061 H 196.587 -1.21844 -2.74033 0
M  V30 2062 H 194.14 -0.669107 -1.41254 0
M  V30 2063 H 194.875 1.34489 -2.95099 0
M  V30 2064 H 194.66 -0.142615 -3.91841 0
M  V30 2065 H 196.15 0.83218 -4.09224 0
M  V30 2066 N 196.587 1.43421 -0.653314 0
M  V30 2067 C 197.55 2.29182 0.0287951 0
M  V30 2068 C 198.55 1.42213 0.750465 0
M  V30 2069 O 199.74 1.63843 0.591701 0
M  V30 2070 C 196.872 3.24278 1.05151 0
M  V30 2071 H 198.065 2.90985 -0.725786 0
M  V30 2072 H 195.618 1.50702 -0.414545 0
M  V30 2073 H 196.353 2.6737 1.83532 0
M  V30 2074 H 196.138 3.88396 0.537687 0
M  V30 2075 H 197.628 3.88647 1.52786 0
M  V30 2076 N 198.065 0.39524 1.52563 0
M  V30 2077 C 199.314 -0.186321 2.00838 0
M  V30 2078 C 199.627 -1.47402 1.28577 0
M  V30 2079 O 200.833 -2.13599 1.67593 0
M  V30 2080 C 199.289 -0.382595 3.57861 0
M  V30 2081 C 198.897 0.892202 4.39026 0
M  V30 2082 C 200.641 -0.9202 4.14406 0
M  V30 2083 C 198.548 0.66388 5.87662 0
M  V30 2084 H 197.478 -0.0734041 0.750418 0
M  V30 2085 H 200.129 0.518552 1.76021 0
M  V30 2086 H 198.511 -1.14946 3.7895 0
M  V30 2087 H 199.685 1.66414 4.29701 0
M  V30 2088 H 198 1.35519 3.9373 0
M  V30 2089 H 200.597 -1.10683 5.23119 0
M  V30 2090 H 200.94 -1.89096 3.70875 0
M  V30 2091 H 201.473 -0.212751 3.97231 0
M  V30 2092 H 198.212 1.6058 6.35527 0
M  V30 2093 H 197.732 -0.0690193 5.9976 0
M  V30 2094 H 199.411 0.300699 6.46301 0
M  V30 2095 N 199.544 -1.57102 0.125237 0
M  V30 2096 C 200.507 -2.14471 -0.80838 0
M  V30 2097 C 201.507 -1.0811 -1.19033 0
M  V30 2098 O 202.697 -1.33856 -1.11482 0
M  V30 2099 C 199.829 -2.69005 -2.09402 0
M  V30 2100 H 201.022 -2.98297 -0.309696 0
M  V30 2101 H 198.575 -1.55807 -0.124051 0
M  V30 2102 H 199.31 -1.88785 -2.63687 0
M  V30 2103 H 199.095 -3.46799 -1.82957 0
M  V30 2104 H 200.585 -3.13278 -2.76128 0
M  V30 2105 N 201.022 0.148545 -1.56898 0
M  V30 2106 C 202.262 0.86765 -1.85071 0
M  V30 2107 C 202.626 1.78417 -0.709317 0
M  V30 2108 O 203.827 2.54261 -0.872049 0
M  V30 2109 C 202.098 1.62306 -3.1842 0
M  V30 2110 S 203.657 2.3878 -3.68143 0
M  V30 2111 H 200.475 0.290174 -0.649092 0
M  V30 2112 H 203.077 0.127755 -1.95082 0
M  V30 2113 H 201.781 0.941192 -3.99462 0
M  V30 2114 H 201.312 2.4039 -3.1141 0
M  V30 2115 H 203.327 3.63942 -3.37285 0
M  V30 2116 N 202.5 1.5196 0.417844 0
M  V30 2117 C 203.43 1.77634 1.51554 0
M  V30 2118 C 204.411 0.626918 1.58126 0
M  V30 2119 O 205.596 0.871632 1.7354 0
M  V30 2120 C 202.726 1.91911 2.8946 0
M  V30 2121 C 201.68 3.07463 2.97743 0
M  V30 2122 C 201.006 3.06951 4.37819 0
M  V30 2123 C 202.306 4.47082 2.70027 0
M  V30 2124 H 204 2.6955 1.3032 0
M  V30 2125 H 201.546 1.29706 0.625492 0
M  V30 2126 H 203.499 2.08455 3.6623 0
M  V30 2127 H 202.223 0.966598 3.11969 0
M  V30 2128 H 200.882 2.90656 2.23416 0
M  V30 2129 H 200.53 2.09438 4.57323 0
M  V30 2130 H 200.23 3.84556 4.44286 0
M  V30 2131 H 201.754 3.25613 5.16535 0
M  V30 2132 H 203.168 4.6414 3.36522 0
M  V30 2133 H 201.565 5.2654 2.87881 0
M  V30 2134 H 202.635 4.55777 1.65514 0
M  V30 2135 N 203.978 -0.674533 1.42435 0
M  V30 2136 C 205.206 -1.46283 1.46317 0
M  V30 2137 C 205.621 -1.88653 0.0745836 0
M  V30 2138 O 204.978 -1.58151 -0.91074 0
M  V30 2139 C 205.029 -2.71178 2.3905 0
M  V30 2140 O 204.75 -2.30586 3.72507 0
M  V30 2141 C 206.251 -3.64738 2.51955 0
M  V30 2142 H 203.471 -0.450104 0.497642 0
M  V30 2143 H 206.015 -0.828792 1.86953 0
M  V30 2144 H 204.17 -3.3077 2.01667 0
M  V30 2145 H 204.584 -3.11241 4.22172 0
M  V30 2146 H 206.058 -4.49096 3.20962 0
M  V30 2147 H 206.535 -4.10656 1.55752 0
M  V30 2148 H 207.141 -3.11038 2.90061 0
M  V30 2149 N 205.456 -1.28612 -0.910864 0
M  V30 2150 C 206.386 -1.15326 -2.03032 0
M  V30 2151 C 207.367 -0.0502924 -1.70026 0
M  V30 2152 O 208.552 -0.227797 -1.92859 0
M  V30 2153 C 205.682 -0.817343 -3.37545 0
M  V30 2154 C 204.636 -1.8754 -3.84724 0
M  V30 2155 C 203.962 -1.39305 -5.16235 0
M  V30 2156 C 205.262 -3.28244 -4.06267 0
M  V30 2157 H 206.956 -2.08975 -2.14406 0
M  V30 2158 H 204.502 -1.00612 -1.03021 0
M  V30 2159 H 206.455 -0.711151 -4.15356 0
M  V30 2160 H 205.179 0.154846 -3.26233 0
M  V30 2161 H 203.838 -1.97079 -3.09121 0
M  V30 2162 H 203.486 -0.409846 -5.01328 0
M  V30 2163 H 203.186 -2.10057 -5.48771 0
M  V30 2164 H 204.71 -1.30014 -5.96598 0
M  V30 2165 H 206.124 -3.21611 -4.74594 0
M  V30 2166 H 204.521 -3.96855 -4.5014 0
M  V30 2167 H 205.591 -3.72048 -3.10979 0
M  V30 2168 N 206.934 1.1197 -1.10907 0
M  V30 2169 C 207.882 2.19927 -0.757303 0
M  V30 2170 C 208.876 1.67564 0.248747 0
M  V30 2171 O 210.082 1.79672 0.108605 0
M  V30 2172 H 206.457 0.716925 -0.226987 0
M  V30 2173 H 208.428 2.46847 -1.67658 0
M  V30 2174 C 207.177 3.47061 -0.210671 0
M  V30 2175 H 206.5 3.87703 -0.976049 0
M  V30 2176 H 207.94 4.24 -0.0026584 0
M  V30 2177 C 206.399 3.19864 1.05777 0
M  V30 2178 O 206.929 3.40049 2.13845 0
M  V30 2179 N 205.135 2.73636 0.978349 0
M  V30 2180 H 204.682 2.5741 0.0988246 0
M  V30 2181 H 204.64 2.55815 1.82773 0
M  V30 2182 N 208.412 0.89855 1.29475 0
M  V30 2183 C 209.344 0.332726 2.26772 0
M  V30 2184 C 210.357 -0.520323 1.54261 0
M  V30 2185 O 211.546 -0.337668 1.75277 0
M  V30 2186 C 208.646 -0.544334 3.345 0
M  V30 2187 C 207.819 0.282728 4.36485 0
M  V30 2188 C 206.878 -0.526982 5.23555 0
M  V30 2189 O 205.904 0.0551165 5.69173 0
M  V30 2190 N 207.106 -1.83331 5.5079 0
M  V30 2191 H 209.871 1.16897 2.75962 0
M  V30 2192 H 207.432 0.762919 1.42798 0
M  V30 2193 H 209.424 -1.09239 3.89678 0
M  V30 2194 H 207.994 -1.28127 2.85136 0
M  V30 2195 H 207.214 1.01221 3.80983 0
M  V30 2196 H 208.502 0.84918 5.01664 0
M  V30 2197 H 207.9 -2.32898 5.15534 0
M  V30 2198 H 206.457 -2.32852 6.08788 0
M  V30 2199 N 209.89 -1.43072 0.660911 0
M  V30 2200 C 210.84 -2.27948 -0.04847 0
M  V30 2201 C 211.824 -1.40325 -0.787246 0
M  V30 2202 O 213.016 -1.63893 -0.668446 0
M  V30 2203 C 210.145 -3.28143 -1.00881 0
M  V30 2204 C 209.231 -4.23252 -0.268108 0
M  V30 2205 N 209.622 -5.00656 0.719528 0
M  V30 2206 C 207.92 -4.43092 -0.508493 0
M  V30 2207 C 208.621 -5.70019 1.15988 0
M  V30 2208 N 207.597 -5.41364 0.492584 0
M  V30 2209 H 211.399 -2.85213 0.709279 0
M  V30 2210 H 208.913 -1.54869 0.488822 0
M  V30 2211 H 210.91 -3.87736 -1.53188 0
M  V30 2212 H 209.57 -2.7244 -1.76654 0
M  V30 2213 H 210.581 -5.06115 1.09855 0
M  V30 2214 H 207.258 -3.98449 -1.24679 0
M  V30 2215 H 208.648 -6.4214 1.97751 0
M  V30 2216 N 211.368 -0.403325 -1.52352 0
M  V30 2217 C 212.298 0.416205 -2.29761 0
M  V30 2218 C 213.279 1.05123 -1.33728 0
M  V30 2219 O 214.464 1.06134 -1.62632 0
M  V30 2220 C 211.594 1.53624 -3.11475 0
M  V30 2221 C 210.548 1.02653 -4.15507 0
M  V30 2222 C 209.874 2.23971 -4.85532 0
M  V30 2223 C 211.174 0.08463 -5.22231 0
M  V30 2224 H 212.868 -0.229701 -2.98518 0
M  V30 2225 H 210.414 -0.111913 -1.43564 0
M  V30 2226 H 212.367 2.1165 -3.64393 0
M  V30 2227 H 211.091 2.20994 -2.40477 0
M  V30 2228 H 209.75 0.46871 -3.63591 0
M  V30 2229 H 209.398 2.89883 -4.11068 0
M  V30 2230 H 209.098 1.90521 -5.55856 0
M  V30 2231 H 210.622 2.82614 -5.41259 0
M  V30 2232 H 212.036 0.573509 -5.70424 0
M  V30 2233 H 210.433 -0.160783 -5.99885 0
M  V30 2234 H 211.503 -0.86237 -4.7717 0
M  V30 2235 N 212.846 1.57033 -0.133567 0
M  V30 2236 C 213.776 2.1909 0.807567 0
M  V30 2237 C 214.757 1.13517 1.26681 0
M  V30 2238 O 215.942 1.41809 1.32679 0
M  V30 2239 C 213.072 2.80188 2.05212 0
M  V30 2240 C 212.026 3.91471 1.73015 0
M  V30 2241 C 211.352 4.39443 3.04622 0
M  V30 2242 C 212.652 5.12886 0.987168 0
M  V30 2243 H 214.346 2.97988 0.290403 0
M  V30 2244 H 211.892 1.43335 0.138239 0
M  V30 2245 H 213.845 3.22264 2.71521 0
M  V30 2246 H 212.569 1.98601 2.59278 0
M  V30 2247 H 211.228 3.49993 1.0909 0
M  V30 2248 H 210.876 3.54695 3.56651 0
M  V30 2249 H 210.576 5.14495 2.83847 0
M  V30 2250 H 212.1 4.8418 3.72024 0
M  V30 2251 H 213.514 5.51891 1.55208 0
M  V30 2252 H 211.911 5.93615 0.87985 0
M  V30 2253 H 212.981 4.84894 -0.0235286 0
M  V30 2254 N 214.325 -0.140222 1.56975 0
M  V30 2255 C 215.572 -0.851687 1.83719 0
M  V30 2256 C 215.9 -1.80862 0.715485 0
M  V30 2257 O 215.155 -1.93464 -0.294956 0
M  V30 2258 C 215.454 -1.65386 3.16832 0
M  V30 2259 C 215.12 -0.843112 4.42947 0
M  V30 2260 C 213.782 -0.619464 4.77196 0
M  V30 2261 C 216.134 -0.276582 5.20466 0
M  V30 2262 C 213.462 0.181312 5.8642 0
M  V30 2263 C 215.814 0.51127 6.30531 0
M  V30 2264 C 214.478 0.745432 6.63325 0
M  V30 2265 H 213.748 -0.311654 0.672274 0
M  V30 2266 H 216.395 -0.115006 1.91154 0
M  V30 2267 H 214.7 -2.46084 3.04877 0
M  V30 2268 H 216.397 -2.20793 3.34741 0
M  V30 2269 H 212.987 -1.0275 4.16101 0
M  V30 2270 H 217.171 -0.436632 4.94376 0
M  V30 2271 H 212.427 0.372165 6.10266 0
M  V30 2272 H 216.601 0.957354 6.89788 0
M  V30 2273 H 214.228 1.36778 7.47794 0
M  V30 2274 N 215.803 -1.52179 -0.40978 0
M  V30 2275 C 217.219 -1.40968 -0.74835 0
M  V30 2276 C 217.419 -0.513657 -1.94843 0
M  V30 2277 O 216.475 0.0208026 -2.52491 0
M  V30 2278 C 217.788 -2.83483 -1.0029 0
M  V30 2279 C 219.336 -2.92821 -1.10565 0
M  V30 2280 C 219.811 -4.36303 -1.39296 0
M  V30 2281 N 221.302 -4.39535 -1.46162 0
M  V30 2282 C 222.037 -5.47614 -1.70018 0
M  V30 2283 N 221.533 -6.65812 -1.91483 0
M  V30 2284 N 223.326 -5.35129 -1.72027 0
M  V30 2285 H 215.477 -2.0897 0.380186 0
M  V30 2286 H 217.74 -0.94185 0.107805 0
M  V30 2287 H 217.446 -3.51168 -0.193461 0
M  V30 2288 H 217.32 -3.24487 -1.92323 0
M  V30 2289 H 219.707 -2.25318 -1.90568 0
M  V30 2290 H 219.788 -2.55276 -0.16369 0
M  V30 2291 H 219.432 -5.04366 -0.598109 0
M  V30 2292 H 219.362 -4.71385 -2.34743 0
M  V30 2293 H 221.853 -3.54332 -1.31367 0
M  V30 2294 H 222.166 -7.43964 -2.09134 0
M  V30 2295 H 220.511 -6.68879 -1.88749 0
M  V30 2296 H 223.702 -4.41764 -1.54796 0
M  V30 2297 H 223.875 -6.19433 -1.9028 0
M  V30 2298 N 217.281 0.66697 -1.42791 0
M  V30 2299 C 218.527 1.4291 -1.43891 0
M  V30 2300 C 218.86 1.94114 -0.0578972 0
M  V30 2301 O 218.135 1.71414 0.91911 0
M  V30 2302 C 218.418 2.62049 -2.46987 0
M  V30 2303 C 218.271 2.16426 -3.94309 0
M  V30 2304 C 219.59 3.64266 -2.46978 0
M  V30 2305 H 216.709 0.518306 -0.523954 0
M  V30 2306 H 219.351 0.757321 -1.74255 0
M  V30 2307 H 217.501 3.19361 -2.21225 0
M  V30 2308 H 219.173 1.64221 -4.31079 0
M  V30 2309 H 217.416 1.47925 -4.078 0
M  V30 2310 H 218.087 3.02038 -4.62036 0
M  V30 2311 H 220.563 3.16686 -2.69906 0
M  V30 2312 H 219.439 4.45196 -3.21079 0
M  V30 2313 H 219.7 4.15927 -1.49857 0
M  V30 2314 N 218.759 1.29093 0.90403 0
M  V30 2315 C 220.008 1.16187 1.64874 0
M  V30 2316 C 220.321 -0.286742 1.93487 0
M  V30 2317 O 221.527 -0.537062 2.66135 0
M  V30 2318 C 219.983 2.03177 2.97064 0
M  V30 2319 C 219.591 3.52836 2.76062 0
M  V30 2320 C 221.335 1.98984 3.74974 0
M  V30 2321 C 219.242 4.31945 4.03952 0
M  V30 2322 H 218.172 0.431246 0.618501 0
M  V30 2323 H 220.823 1.53699 1.00243 0
M  V30 2324 H 219.205 1.5853 3.62883 0
M  V30 2325 H 220.379 4.05507 2.18863 0
M  V30 2326 H 218.694 3.58656 2.11553 0
M  V30 2327 H 221.291 2.55351 4.69787 0
M  V30 2328 H 221.634 0.968815 4.0487 0
M  V30 2329 H 222.167 2.41652 3.15989 0
M  V30 2330 H 218.906 5.34667 3.79225 0
M  V30 2331 H 218.426 3.84045 4.60727 0
M  V30 2332 H 220.105 4.42379 4.72133 0
M  V30 2333 N 220.237 -1.11381 1.11499 0
M  V30 2334 C 221.648 -1.6465 0.880191 0
M  V30 2335 C 221.999 -1.87199 -0.587434 0
M  V30 2336 O 221.124 -1.60667 -1.44966 0
M  V30 2337 C 221.719 -2.99105 1.59128 0
M  V30 2338 C 220.278 -3.49279 1.40289 0
M  V30 2339 C 219.425 -2.24077 1.63354 0
M  V30 2340 H 222.376 -0.950123 1.27116 0
M  V30 2341 H 222.397 -3.66107 1.03664 0
M  V30 2342 H 221.909 -2.82661 2.65941 0
M  V30 2343 H 220.01 -3.70887 0.356888 0
M  V30 2344 H 220.123 -4.2803 2.15238 0
M  V30 2345 H 218.487 -2.31733 1.05698 0
M  V30 2346 H 219.27 -2.10175 2.71443 0
M  V30 2347 N 221.715 -0.905404 -1.28997 0
M  V30 2348 C 222.665 -0.358713 -2.25161 0
M  V30 2349 C 223.649 0.524449 -1.52113 0
M  V30 2350 O 224.841 0.365534 -1.73184 0
M  V30 2351 C 221.97 0.407609 -3.40872 0
M  V30 2352 C 221.056 -0.490797 -4.21251 0
M  V30 2353 N 221.447 -1.60061 -4.79806 0
M  V30 2354 C 219.745 -0.289636 -4.45059 0
M  V30 2355 C 220.446 -2.15757 -5.40207 0
M  V30 2356 N 219.422 -1.44988 -5.23908 0
M  V30 2357 H 223.224 -1.20642 -2.67998 0
M  V30 2358 H 220.738 -0.757103 -1.43672 0
M  V30 2359 H 222.735 0.816046 -4.08835 0
M  V30 2360 H 221.395 1.25251 -2.9957 0
M  V30 2361 H 222.406 -1.98329 -4.7842 0
M  V30 2362 H 219.083 0.51643 -4.14294 0
M  V30 2363 H 220.473 -3.09069 -5.96595 0
M  V30 2364 N 223.193 1.4272 -0.668489 0
M  V30 2365 C 224.47 1.95248 -0.117373 0
M  V30 2366 C 224.85 1.60919 1.36632 0
M  V30 2367 O 224.198 0.902095 2.09939 0
M  V30 2368 C 224.408 3.46927 -0.379806 0
M  V30 2369 C 225.756 4.23588 -0.292923 0
M  V30 2370 O 226.78 3.5482 -0.313204 0
M  V30 2371 O 225.639 5.46017 -0.229697 0
M  V30 2372 H 222.733 0.827 0.00079152 0
M  V30 2373 H 225.279 1.52581 -0.742783 0
M  V30 2374 H 224.051 3.65096 -1.40786 0
M  V30 2375 H 223.674 3.96627 0.277923 0
M  V30 2376 N 224.671 0.411399 1.52136 0
M  V30 2377 C 225.603 -0.448386 2.24771 0
M  V30 2378 C 226.616 -1.00828 1.27818 0
M  V30 2379 O 227.805 -0.906841 1.53749 0
M  V30 2380 C 224.905 -1.63636 2.96777 0
M  V30 2381 C 224.078 -1.19995 4.20618 0
M  V30 2382 C 223.137 -2.25509 4.75428 0
M  V30 2383 O 222.163 -1.86007 5.3795 0
M  V30 2384 N 223.365 -3.577 4.57199 0
M  V30 2385 H 226.13 0.174025 2.99194 0
M  V30 2386 H 223.691 0.238897 1.60128 0
M  V30 2387 H 225.683 -2.33793 3.30338 0
M  V30 2388 H 224.253 -2.16465 2.25526 0
M  V30 2389 H 223.473 -0.326421 3.92846 0
M  V30 2390 H 224.761 -0.885365 5.01038 0
M  V30 2391 H 224.159 -3.92543 4.07341 0
M  V30 2392 H 222.716 -4.23827 4.95191 0
M  V30 2393 N 226.149 -1.5696 0.141893 0
M  V30 2394 C 227.374 -2.00754 -0.520838 0
M  V30 2395 C 227.799 -1.0213 -1.57959 0
M  V30 2396 O 227.157 0.00371324 -1.813 0
M  V30 2397 C 227.205 -3.43318 -1.10294 0
M  V30 2398 O 226.309 -3.47679 -2.21795 0
M  V30 2399 H 225.65 -0.651564 -0.127908 0
M  V30 2400 H 228.18 -2.03221 0.23712 0
M  V30 2401 H 228.19 -3.82012 -1.43287 0
M  V30 2402 H 226.865 -4.14608 -0.327574 0
M  V30 2403 H 225.442 -3.20824 -1.9007 0
M  V30 2404 N 227.627 0.131896 -1.57047 0
M  V30 2405 C 228.874 0.841932 -1.84168 0
M  V30 2406 C 229.202 1.8048 -0.725066 0
M  V30 2407 O 228.457 1.93618 0.284692 0
M  V30 2408 C 228.756 1.63703 -3.17704 0
M  V30 2409 C 228.422 0.81961 -4.43388 0
M  V30 2410 C 227.084 0.594148 -4.77518 0
M  V30 2411 C 229.436 0.248977 -5.20605 0
M  V30 2412 C 226.764 -0.212409 -5.86315 0
M  V30 2413 C 229.116 -0.544701 -6.30251 0
M  V30 2414 C 227.78 -0.780599 -6.6292 0
M  V30 2415 H 227.05 0.308085 -0.673917 0
M  V30 2416 H 229.697 0.104867 -1.91213 0
M  V30 2417 H 228.002 2.44464 -3.06177 0
M  V30 2418 H 229.699 2.19015 -3.35907 0
M  V30 2419 H 226.289 1.00542 -4.16641 0
M  V30 2420 H 230.473 0.410408 -4.946 0
M  V30 2421 H 225.729 -0.404524 -6.1006 0
M  V30 2422 H 229.903 -0.993922 -6.89271 0
M  V30 2423 H 227.53 -1.40742 -7.47058 0
M  V30 2424 N 229.106 1.52395 0.401703 0
M  V30 2425 C 230.355 1.66044 1.14509 0
M  V30 2426 C 230.668 0.400216 1.91462 0
M  V30 2427 O 231.874 0.416632 2.68284 0
M  V30 2428 C 230.33 2.93388 2.0845 0
M  V30 2429 C 229.938 4.26545 1.36978 0
M  V30 2430 C 231.682 3.16402 2.83001 0
M  V30 2431 C 229.589 5.45007 2.29611 0
M  V30 2432 H 228.519 0.618562 0.431158 0
M  V30 2433 H 231.17 1.78886 0.40892 0
M  V30 2434 H 229.552 2.74263 2.8565 0
M  V30 2435 H 230.726 4.56179 0.650916 0
M  V30 2436 H 229.041 4.09692 0.74438 0
M  V30 2437 H 231.638 4.02085 3.52465 0
M  V30 2438 H 231.981 2.30943 3.46368 0
M  V30 2439 H 232.514 3.36034 2.12898 0
M  V30 2440 H 229.253 6.32835 1.70879 0
M  V30 2441 H 228.773 5.19702 2.9945 0
M  V30 2442 H 230.452 5.7838 2.89974 0
M  V30 2443 N 230.584 -0.659388 1.43143 0
M  V30 2444 C 231.494 -1.80167 1.50256 0
M  V30 2445 C 232.51 -1.69571 0.390106 0
M  V30 2446 O 233.686 -1.90849 0.643319 0
M  V30 2447 C 230.751 -3.16409 1.41725 0
M  V30 2448 C 229.812 -3.38848 2.63591 0
M  V30 2449 C 229.045 -4.68591 2.55458 0
M  V30 2450 O 229.268 -5.47532 1.59891 0
M  V30 2451 O 228.202 -4.92614 3.45854 0
M  V30 2452 H 232.028 -1.77121 2.46702 0
M  V30 2453 H 229.613 -0.817092 1.25076 0
M  V30 2454 H 231.495 -3.9768 1.39387 0
M  V30 2455 H 230.17 -3.20059 0.484118 0
M  V30 2456 H 229.077 -2.57366 2.71502 0
M  V30 2457 H 230.41 -3.4004 3.55856 0
M  V30 2458 N 232.062 -1.29571 -0.897171 0
M  V30 2459 C 233.01 -1.14802 -2.02295 0
M  V30 2460 C 234.004 -0.0629637 -1.69283 0
M  V30 2461 O 235.21 -0.222945 -1.78614 0
M  V30 2462 H 231.585 -0.354692 -0.663097 0
M  V30 2463 H 233.556 -2.10108 -2.11889 0
M  V30 2464 C 232.305 -0.843966 -3.37302 0
M  V30 2465 H 231.628 -1.67093 -3.63208 0
M  V30 2466 H 233.068 -0.780672 -4.16751 0
M  V30 2467 C 231.527 0.452843 -3.33843 0
M  V30 2468 O 232.057 1.47813 -3.73516 0
M  V30 2469 N 230.263 0.459601 -2.86943 0
M  V30 2470 H 229.81 -0.375213 -2.54853 0
M  V30 2471 H 229.768 1.32726 -2.85011 0
M  V30 2472 N 233.54 1.10788 -1.12088 0
M  V30 2473 C 234.77 1.86191 -0.895351 0
M  V30 2474 C 235.178 1.80763 0.558702 0
M  V30 2475 O 234.521 1.19188 1.39785 0
M  V30 2476 C 234.583 3.35659 -1.28737 0
M  V30 2477 C 234.247 3.64849 -2.75198 0
M  V30 2478 C 235.244 3.61757 -3.734 0
M  V30 2479 C 232.929 3.93641 -3.12013 0
M  V30 2480 C 234.923 3.87045 -5.06434 0
M  V30 2481 C 232.61 4.18585 -4.4523 0
M  V30 2482 C 233.608 4.15277 -5.42249 0
M  V30 2483 O 233.296 4.3959 -6.73065 0
M  V30 2484 H 233.028 0.595425 -0.32007 0
M  V30 2485 H 235.582 1.40992 -1.49367 0
M  V30 2486 H 233.812 3.81497 -0.63224 0
M  V30 2487 H 235.501 3.92441 -1.03656 0
M  V30 2488 H 236.267 3.39557 -3.46303 0
M  V30 2489 H 232.146 3.95348 -2.37109 0
M  V30 2490 H 235.69 3.84378 -5.82151 0
M  V30 2491 H 231.587 4.40264 -4.72057 0
M  V30 2492 H 232.355 4.57123 -6.78956 0
M  V30 2493 N 235.018 0.912232 1.28515 0
M  V30 2494 C 235.981 0.404223 2.25607 0
M  V30 2495 C 236.981 -0.468602 1.53821 0
M  V30 2496 O 238.171 -0.271873 1.72065 0
M  V30 2497 C 235.303 -0.420653 3.38295 0
M  V30 2498 H 236.496 1.26188 2.7206 0
M  V30 2499 H 234.049 0.691495 1.40171 0
M  V30 2500 H 234.784 -1.29777 2.97201 0
M  V30 2501 H 234.569 0.204935 3.91564 0
M  V30 2502 H 236.059 -0.766971 4.10496 0
M  V30 2503 N 236.496 -1.42363 0.676048 0
M  V30 2504 C 237.744 -2.01123 0.198437 0
M  V30 2505 C 238.065 -1.53731 -1.19966 0
M  V30 2506 O 237.335 -0.759518 -1.80577 0
M  V30 2507 H 235.915 -0.743678 0.0703721 0
M  V30 2508 H 238.577 -1.74263 0.872837 0
M  V30 2509 H 237.673 -3.11454 0.200686 0
M  V30 2510 N 237.974 -0.419461 -1.51915 0
M  V30 2511 C 239.223 0.154346 -2.01109 0
M  V30 2512 C 239.536 1.45338 -1.30905 0
M  V30 2513 O 240.742 2.10906 -1.7097 0
M  V30 2514 C 239.198 0.325615 -3.58424 0
M  V30 2515 C 238.806 -0.961934 -4.37551 0
M  V30 2516 C 240.55 0.854155 -4.15818 0
M  V30 2517 C 238.457 -0.757287 -5.86531 0
M  V30 2518 H 237.387 0.0614563 -0.751491 0
M  V30 2519 H 240.038 -0.54649 -1.75173 0
M  V30 2520 H 238.42 1.08903 -3.80731 0
M  V30 2521 H 239.594 -1.7323 -4.26999 0
M  V30 2522 H 237.909 -1.41766 -3.91524 0
M  V30 2523 H 240.506 1.02346 -5.24814 0
M  V30 2524 H 240.849 1.83172 -3.73837 0
M  V30 2525 H 241.382 0.149528 -3.97519 0
M  V30 2526 H 238.121 -1.70671 -6.32892 0
M  V30 2527 H 237.641 -0.0264061 -5.99794 0
M  V30 2528 H 239.32 -0.403482 -6.45741 0
M  V30 2529 N 239.452 1.56882 -0.150215 0
M  V30 2530 C 240.699 1.96228 0.500093 0
M  V30 2531 C 241.027 1.03522 1.64661 0
M  V30 2532 O 240.282 0.0650683 1.95592 0
M  V30 2533 C 240.581 3.41801 1.04437 0
M  V30 2534 C 240.247 4.50897 0.0159671 0
M  V30 2535 C 238.909 4.8046 -0.266731 0
M  V30 2536 C 241.261 5.16703 -0.683192 0
M  V30 2537 C 238.589 5.73135 -1.25434 0
M  V30 2538 C 240.941 6.10441 -1.65964 0
M  V30 2539 C 239.605 6.38382 -1.95 0
M  V30 2540 H 238.875 0.718048 0.182997 0
M  V30 2541 H 241.522 1.90019 -0.237724 0
M  V30 2542 H 239.827 3.44857 1.85959 0
M  V30 2543 H 241.524 3.69573 1.55618 0
M  V30 2544 H 238.114 4.27891 0.246485 0
M  V30 2545 H 242.298 4.93993 -0.477983 0
M  V30 2546 H 237.554 5.93074 -1.48571 0
M  V30 2547 H 241.728 6.60507 -2.20689 0
M  V30 2548 H 239.355 7.09996 -2.71679 0
M  V30 2549 N 240.93 -0.123565 1.57115 0
M  V30 2550 C 241.88 -1.1575 1.96433 0
M  V30 2551 C 242.864 -1.37313 0.838686 0
M  V30 2552 O 244.056 -1.38482 1.10235 0
M  V30 2553 C 241.185 -2.48526 2.36833 0
M  V30 2554 C 240.271 -2.30457 3.5602 0
M  V30 2555 N 240.662 -1.8219 4.71848 0
M  V30 2556 C 238.96 -2.61129 3.61563 0
M  V30 2557 C 239.661 -1.77721 5.53886 0
M  V30 2558 N 238.637 -2.21899 4.96248 0
M  V30 2559 H 242.439 -0.776797 2.83449 0
M  V30 2560 H 239.953 -0.331364 1.58983 0
M  V30 2561 H 241.95 -3.233 2.63216 0
M  V30 2562 H 240.61 -2.87358 1.5118 0
M  V30 2563 H 241.621 -1.51805 4.95152 0
M  V30 2564 H 238.298 -3.03678 2.86507 0
M  V30 2565 H 239.688 -1.41697 6.56789 0
M  V30 2566 N 242.408 -1.52605 -0.393616 0
M  V30 2567 C 243.655 -1.67424 -1.1391 0
M  V30 2568 C 243.983 -0.411859 -1.90089 0
M  V30 2569 O 243.238 0.605626 -1.86093 0
M  V30 2570 C 243.537 -2.85721 -2.14705 0
M  V30 2571 C 243.203 -4.23342 -1.55218 0
M  V30 2572 C 241.865 -4.60771 -1.3872 0
M  V30 2573 C 244.217 -5.09041 -1.11924 0
M  V30 2574 C 241.545 -5.81563 -0.774689 0
M  V30 2575 C 243.897 -6.30452 -0.520853 0
M  V30 2576 C 242.561 -6.66617 -0.343134 0
M  V30 2577 H 241.831 -0.612648 -0.416826 0
M  V30 2578 H 244.478 -1.8674 -0.424315 0
M  V30 2579 H 242.783 -2.60803 -2.92385 0
M  V30 2580 H 244.48 -2.94382 -2.72288 0
M  V30 2581 H 241.07 -3.93855 -1.69045 0
M  V30 2582 H 245.254 -4.80695 -1.23473 0
M  V30 2583 H 240.51 -6.08196 -0.625154 0
M  V30 2584 H 244.684 -6.96175 -0.177065 0
M  V30 2585 H 242.311 -7.60083 0.133571 0
M  V30 2586 N 243.887 0.651787 -1.4349 0
M  V30 2587 C 244.819 1.77725 -1.44729 0
M  V30 2588 C 245.832 1.59141 -0.343231 0
M  V30 2589 O 247.021 1.67835 -0.607751 0
M  V30 2590 C 244.121 3.15172 -1.24579 0
M  V30 2591 C 243.294 3.60402 -2.47849 0
M  V30 2592 C 242.353 4.76656 -2.22902 0
M  V30 2593 O 241.379 4.86022 -2.96263 0
M  V30 2594 N 242.581 5.66958 -1.24656 0
M  V30 2595 H 245.346 1.77141 -2.41746 0
M  V30 2596 H 242.907 0.835678 -1.38665 0
M  V30 2597 H 244.899 3.90634 -1.0577 0
M  V30 2598 H 243.469 3.1052 -0.360015 0
M  V30 2599 H 242.689 2.75369 -2.82073 0
M  V30 2600 H 243.977 3.87368 -3.29884 0
M  V30 2601 H 243.375 5.62065 -0.640265 0
M  V30 2602 H 241.932 6.42135 -1.1183 0
M  V30 2603 N 245.365 1.30045 0.890287 0
M  V30 2604 C 246.612 1.18561 1.64163 0
M  V30 2605 C 246.94 -0.260852 1.92743 0
M  V30 2606 O 246.195 -1.20376 1.54299 0
M  V30 2607 C 246.494 1.95409 2.99249 0
M  V30 2608 C 246.16 3.45066 2.90242 0
M  V30 2609 C 244.822 3.85878 2.87492 0
M  V30 2610 C 247.174 4.4039 2.78758 0
M  V30 2611 C 244.502 5.20314 2.7109 0
M  V30 2612 C 246.854 5.74928 2.63894 0
M  V30 2613 C 245.518 6.14986 2.59516 0
M  V30 2614 H 244.788 0.433846 0.600715 0
M  V30 2615 H 247.435 1.61088 1.03552 0
M  V30 2616 H 245.74 1.45501 3.63781 0
M  V30 2617 H 247.437 1.8392 3.56334 0
M  V30 2618 H 244.027 3.12631 2.93189 0
M  V30 2619 H 248.211 4.09806 2.79952 0
M  V30 2620 H 243.467 5.50449 2.66112 0
M  V30 2621 H 247.641 6.48434 2.53981 0
M  V30 2622 H 245.268 7.19104 2.46565 0
M  V30 2623 N 246.843 -1.10192 1.12674 0
M  V30 2624 C 248.089 -1.82658 0.894847 0
M  V30 2625 C 248.444 -1.83666 -0.573107 0
M  V30 2626 O 247.737 -1.28816 -1.41835 0
M  V30 2627 C 247.931 -3.28552 1.4067 0
M  V30 2628 C 247.76 -3.41756 2.92289 0
M  V30 2629 C 246.53 -3.54021 3.60551 0
M  V30 2630 C 248.728 -3.34949 3.90274 0
M  V30 2631 N 246.71 -3.55827 5.0026 0
M  V30 2632 C 248.081 -3.43531 5.16127 0
M  V30 2633 C 250.136 -3.18565 3.8265 0
M  V30 2634 C 248.839 -3.37416 6.3525 0
M  V30 2635 C 250.865 -3.13772 5.01299 0
M  V30 2636 C 250.227 -3.22938 6.26012 0
M  V30 2637 H 246.326 -0.683044 0.380756 0
M  V30 2638 H 248.91 -1.31752 1.43351 0
M  V30 2639 H 247.081 -3.77946 0.895055 0
M  V30 2640 H 248.813 -3.88991 1.11661 0
M  V30 2641 H 245.568 -3.57135 3.1105 0
M  V30 2642 H 245.992 -3.60335 5.73138 0
M  V30 2643 H 250.634 -3.10354 2.87124 0
M  V30 2644 H 248.352 -3.44391 7.3104 0
M  V30 2645 H 251.938 -3.02242 4.97133 0
M  V30 2646 H 250.818 -3.19235 7.16281 0
M  V30 2647 N 248.321 -0.919034 -1.28029 0
M  V30 2648 C 249.737 -0.617972 -1.4715 0
M  V30 2649 C 249.937 0.835242 -1.83374 0
M  V30 2650 O 248.993 1.61388 -1.94191 0
M  V30 2651 C 250.306 -1.56041 -2.57044 0
M  V30 2652 C 251.854 -1.56769 -2.7091 0
M  V30 2653 C 252.329 -2.49688 -3.83953 0
M  V30 2654 N 253.82 -2.47845 -3.91314 0
M  V30 2655 C 254.555 -3.16437 -4.78179 0
M  V30 2656 N 254.051 -3.94376 -5.69596 0
M  V30 2657 N 255.844 -3.05498 -4.71834 0
M  V30 2658 H 247.995 -1.85866 -1.02798 0
M  V30 2659 H 250.258 -0.797506 -0.512531 0
M  V30 2660 H 249.964 -2.59671 -2.372 0
M  V30 2661 H 249.838 -1.29551 -3.54255 0
M  V30 2662 H 252.225 -0.538745 -2.90141 0
M  V30 2663 H 252.306 -1.87305 -1.74214 0
M  V30 2664 H 251.95 -3.52688 -3.65477 0
M  V30 2665 H 251.88 -2.16453 -4.80058 0
M  V30 2666 H 254.371 -1.91234 -3.25941 0
M  V30 2667 H 254.684 -4.43721 -6.32718 0
M  V30 2668 H 253.029 -3.98481 -5.69419 0
M  V30 2669 H 256.22 -2.44108 -3.99411 0
M  V30 2670 H 256.393 -3.59225 -5.39316 0
M  V30 2671 N 249.799 1.42003 -0.683588 0
M  V30 2672 C 251.029 2.05448 -0.217866 0
M  V30 2673 C 251.437 1.51491 1.13346 0
M  V30 2674 O 250.78 0.653048 1.717 0
M  V30 2675 C 250.842 3.59399 -0.0850118 0
M  V30 2676 C 250.506 4.36093 -1.36645 0
M  V30 2677 C 251.503 4.66169 -2.30179 0
M  V30 2678 C 249.188 4.75578 -1.61649 0
M  V30 2679 C 251.182 5.34676 -3.46988 0
M  V30 2680 C 248.869 5.43824 -2.78745 0
M  V30 2681 C 249.867 5.73299 -3.71238 0
M  V30 2682 O 249.555 6.40142 -4.86285 0
M  V30 2683 H 249.287 0.668344 -0.101454 0
M  V30 2684 H 251.841 1.82974 -0.933248 0
M  V30 2685 H 250.071 3.80566 0.686031 0
M  V30 2686 H 251.76 4.04457 0.341973 0
M  V30 2687 H 252.526 4.36156 -2.12115 0
M  V30 2688 H 248.405 4.52025 -0.905243 0
M  V30 2689 H 251.949 5.57599 -4.19201 0
M  V30 2690 H 247.846 5.73254 -2.96732 0
M  V30 2691 H 248.614 6.58636 -4.85944 0
M  V30 2692 N 251.277 0.427512 1.51691 0
M  V30 2693 C 252.525 -0.141948 2.01601 0
M  V30 2694 C 252.846 -1.44067 1.31414 0
M  V30 2695 O 252.116 -1.90763 0.445658 0
M  V30 2696 H 250.696 -0.0554468 0.744939 0
M  V30 2697 H 253.358 0.567968 1.86441 0
M  V30 2698 H 252.454 -0.324913 3.10404 0
M  V30 2699 N 252.755 -1.56801 0.158532 0
M  V30 2700 C 253.665 -2.20916 -0.789518 0
M  V30 2701 C 254.681 -1.1969 -1.26294 0
M  V30 2702 O 255.857 -1.52308 -1.31773 0
M  V30 2703 C 252.922 -2.82727 -2.00665 0
M  V30 2704 C 251.983 -3.99114 -1.58134 0
M  V30 2705 C 251.216 -4.57968 -2.74045 0
M  V30 2706 O 251.439 -4.15704 -3.90572 0
M  V30 2707 O 250.373 -5.48047 -2.48855 0
M  V30 2708 H 254.199 -3.02464 -0.273681 0
M  V30 2709 H 251.784 -1.4924 -0.0690548 0
M  V30 2710 H 253.666 -3.21968 -2.71872 0
M  V30 2711 H 252.341 -2.04184 -2.51179 0
M  V30 2712 H 251.248 -3.64567 -0.839155 0
M  V30 2713 H 252.581 -4.79212 -1.12325 0
M  V30 2714 N 254.233 0.115231 -1.57178 0
M  V30 2715 C 255.479 0.818565 -1.86202 0
M  V30 2716 C 255.834 1.77316 -0.746785 0
M  V30 2717 O 255.127 1.89923 0.25291 0
M  V30 2718 C 255.321 1.60324 -3.19423 0
M  V30 2719 C 255.15 0.726138 -4.43799 0
M  V30 2720 C 253.92 0.379535 -5.03873 0
M  V30 2721 C 256.118 0.0420774 -5.14283 0
M  V30 2722 N 254.1 -0.507841 -6.11796 0
M  V30 2723 C 255.471 -0.704152 -6.15988 0
M  V30 2724 C 257.526 -0.0339486 -4.97888 0
M  V30 2725 C 256.229 -1.51927 -7.03072 0
M  V30 2726 C 258.255 -0.835906 -5.85463 0
M  V30 2727 C 257.617 -1.57031 -6.86673 0
M  V30 2728 H 253.716 0.276343 -0.731545 0
M  V30 2729 H 256.3 0.0821032 -1.94527 0
M  V30 2730 H 254.471 2.31072 -3.12186 0
M  V30 2731 H 256.203 2.2522 -3.36241 0
M  V30 2732 H 252.958 0.722634 -4.68054 0
M  V30 2733 H 253.382 -0.94349 -6.70393 0
M  V30 2734 H 258.024 0.519496 -4.19596 0
M  V30 2735 H 255.742 -2.08386 -7.80769 0
M  V30 2736 H 259.328 -0.89714 -5.74841 0
M  V30 2737 H 258.208 -2.18088 -7.53264 0
M  V30 2738 N 255.711 1.52812 0.385517 0
M  V30 2739 C 256.957 1.68275 1.13188 0
M  V30 2740 C 257.29 0.423179 1.89533 0
M  V30 2741 O 256.565 -0.579113 1.85679 0
M  V30 2742 C 256.848 2.92001 2.1073 0
M  V30 2743 C 256.701 4.28067 1.38125 0
M  V30 2744 C 258.02 3.11283 3.11113 0
M  V30 2745 H 255.139 0.612352 0.410115 0
M  V30 2746 H 257.781 1.85415 0.414869 0
M  V30 2747 H 255.931 2.77519 2.71874 0
M  V30 2748 H 257.603 4.54324 0.799187 0
M  V30 2749 H 255.846 4.28388 0.683092 0
M  V30 2750 H 256.517 5.10733 2.09417 0
M  V30 2751 H 258.993 3.2482 2.6006 0
M  V30 2752 H 257.869 3.99325 3.76605 0
M  V30 2753 H 258.13 2.25656 3.80173 0
M  V30 2754 N 257.189 -0.644168 1.43834 0
M  V30 2755 C 258.466 -1.40188 1.36406 0
M  V30 2756 C 258.846 -2.11094 0.0163124 0
M  V30 2757 O 258.194 -2.05426 -1.00062 0
M  V30 2758 C 258.404 -2.3791 2.55343 0
M  V30 2759 C 259.752 -3.01637 2.98832 0
M  V30 2760 O 260.776 -2.48237 2.55455 0
M  V30 2761 O 259.635 -3.98477 3.74003 0
M  V30 2762 H 256.729 -0.626773 0.539523 0
M  V30 2763 H 259.275 -0.670317 1.559 0
M  V30 2764 H 258.047 -1.84525 3.4506 0
M  V30 2765 H 257.67 -3.18503 2.37995 0
M  V30 2766 N 258.668 -1.30515 -0.883378 0
M  V30 2767 C 259.914 -1.19607 -1.63774 0
M  V30 2768 C 260.247 0.248314 -1.92606 0
M  V30 2769 O 259.522 1.17742 -1.54813 0
M  V30 2770 C 259.805 -2.02669 -2.97653 0
M  V30 2771 C 259.658 -3.55335 -2.75784 0
M  V30 2772 C 260.977 -1.86573 -3.98596 0
M  V30 2773 H 258.096 -0.435856 -0.594305 0
M  V30 2774 H 260.738 -1.60165 -1.02212 0
M  V30 2775 H 258.888 -1.68208 -3.50197 0
M  V30 2776 H 260.56 -3.99863 -2.30016 0
M  V30 2777 H 258.803 -3.79438 -2.1026 0
M  V30 2778 H 259.474 -4.08745 -3.70988 0
M  V30 2779 H 261.95 -2.16703 -3.55217 0
M  V30 2780 H 260.826 -2.47014 -4.90179 0
M  V30 2781 H 261.087 -0.825321 -4.34328 0
M  V30 2782 N 260.146 1.09593 -1.13257 0
M  V30 2783 C 261.392 1.82003 -0.89458 0
M  V30 2784 C 261.725 1.85402 0.577906 0
M  V30 2785 O 261 1.32099 1.42759 0
M  V30 2786 C 261.283 3.28237 -1.48096 0
M  V30 2787 C 261.136 3.3312 -3.02244 0
M  V30 2788 C 262.455 4.24871 -1.14774 0
M  V30 2789 H 259.574 0.66077 -0.326424 0
M  V30 2790 H 262.216 1.28389 -1.40058 0
M  V30 2791 H 260.366 3.74024 -1.05062 0
M  V30 2792 H 262.038 2.95748 -3.54021 0
M  V30 2793 H 260.281 2.72756 -3.37323 0
M  V30 2794 H 260.952 4.3613 -3.38371 0
M  V30 2795 H 263.428 3.87361 -1.51957 0
M  V30 2796 H 262.304 5.25532 -1.58452 0
M  V30 2797 H 262.565 4.42058 -0.0611849 0
M  V30 2798 N 261.624 0.925811 1.2754 0
M  V30 2799 C 262.873 0.561084 1.93739 0
M  V30 2800 C 263.186 -0.901685 1.73577 0
M  V30 2801 O 264.392 -1.37511 2.34101 0
M  V30 2802 C 262.848 0.952668 3.47062 0
M  V30 2803 C 262.456 2.43599 3.75983 0
M  V30 2804 C 264.2 0.659103 4.19352 0
M  V30 2805 C 262.107 2.76707 5.22673 0
M  V30 2806 H 261.037 0.206122 0.725279 0
M  V30 2807 H 263.688 1.12637 1.44863 0
M  V30 2808 H 262.07 0.316053 3.94737 0
M  V30 2809 H 263.244 3.12035 3.39073 0
M  V30 2810 H 261.559 2.70125 3.16893 0
M  V30 2811 H 264.156 0.882985 5.27359 0
M  V30 2812 H 264.499 -0.403607 4.14339 0
M  V30 2813 H 265.032 1.25473 3.77494 0
M  V30 2814 H 261.771 3.8188 5.32774 0
M  V30 2815 H 261.291 2.12919 5.60737 0
M  V30 2816 H 262.97 2.6435 5.90532 0
M  V30 2817 N 263.102 -1.41638 0.69111 0
M  V30 2818 C 264.379 -1.95036 0.148421 0
M  V30 2819 C 264.759 -1.63072 -1.34055 0
M  V30 2820 O 264.107 -0.93538 -2.08478 0
M  V30 2821 C 264.317 -3.46279 0.434951 0
M  V30 2822 C 265.665 -4.23069 0.360275 0
M  V30 2823 O 266.689 -3.54277 0.369613 0
M  V30 2824 O 265.548 -5.45583 0.316534 0
M  V30 2825 H 262.642 -0.826908 0.0123654 0
M  V30 2826 H 265.188 -1.5138 0.766963 0
M  V30 2827 H 263.96 -3.6281 1.46576 0
M  V30 2828 H 263.583 -3.97019 -0.214787 0
M  V30 2829 N 264.58 -0.43555 -1.51462 0
M  V30 2830 C 265.857 0.191364 -1.94662 0
M  V30 2831 C 266.237 1.60254 -1.37411 0
M  V30 2832 O 265.585 2.2152 -0.560458 0
M  V30 2833 C 265.795 0.17091 -3.48581 0
M  V30 2834 C 267.143 0.377357 -4.2292 0
M  V30 2835 O 268.167 0.249104 -3.55328 0
M  V30 2836 O 267.026 0.63247 -5.42828 0
M  V30 2837 H 264.12 0.130932 -0.816569 0
M  V30 2838 H 266.666 -0.4934 -1.62369 0
M  V30 2839 H 265.438 -0.815738 -3.82703 0
M  V30 2840 H 265.061 0.898659 -3.87311 0
M  V30 2841 N 266.058 1.56714 -0.166846 0
M  V30 2842 C 267.298 1.98641 0.481763 0
M  V30 2843 C 267.662 1.05038 1.6072 0
M  V30 2844 O 268.863 1.36087 2.31805 0
M  V30 2845 C 267.134 3.44362 0.956517 0
M  V30 2846 S 268.693 4.08317 1.60694 0
M  V30 2847 H 265.511 0.693873 0.155116 0
M  V30 2848 H 268.113 1.93719 -0.263251 0
M  V30 2849 H 266.817 4.10204 0.126936 0
M  V30 2850 H 266.348 3.53041 1.73568 0
M  V30 2851 H 268.363 4.02999 2.89494 0
M  V30 2852 N 267.536 -0.106894 1.57237 0
M  V30 2853 C 268.466 -1.13148 2.04254 0
M  V30 2854 C 269.447 -1.42476 0.929224 0
M  V30 2855 O 270.632 -1.52709 1.19973 0
M  V30 2856 C 267.762 -2.4545 2.45706 0
M  V30 2857 C 266.716 -2.30558 3.60592 0
M  V30 2858 C 266.042 -3.67931 3.87983 0
M  V30 2859 C 267.342 -1.75597 4.91897 0
M  V30 2860 H 269.036 -0.740374 2.90101 0
M  V30 2861 H 266.582 -0.354696 1.39563 0
M  V30 2862 H 268.535 -3.17389 2.77205 0
M  V30 2863 H 267.259 -2.86475 1.56843 0
M  V30 2864 H 265.918 -1.61067 3.29322 0
M  V30 2865 H 265.566 -4.06462 2.96306 0
M  V30 2866 H 265.266 -3.58817 4.65322 0
M  V30 2867 H 266.79 -4.41356 4.21945 0
M  V30 2868 H 268.204 -2.37364 5.21854 0
M  V30 2869 H 266.601 -1.77272 5.73319 0
M  V30 2870 H 267.671 -0.714451 4.79608 0
M  V30 2871 N 269.014 -1.53014 -0.377408 0
M  V30 2872 C 270.425 -1.60438 -0.954798 0
M  V30 2873 C 270.776 -0.464418 -1.90624 0
M  V30 2874 O 269.901 0.41087 -2.12464 0
M  V30 2875 C 270.496 -2.90797 -1.73847 0
M  V30 2876 C 269.055 -3.00595 -2.26538 0
M  V30 2877 C 268.202 -2.55645 -1.07429 0
M  V30 2878 H 271.153 -1.57926 -0.156575 0
M  V30 2879 H 271.174 -2.77935 -2.5987 0
M  V30 2880 H 270.686 -3.73746 -1.04574 0
M  V30 2881 H 268.787 -2.22208 -2.99089 0
M  V30 2882 H 268.9 -4.05456 -2.5523 0
M  V30 2883 H 267.264 -2.10239 -1.43777 0
M  V30 2884 H 268.047 -3.41 -0.396728 0
M  V30 2885 N 270.492 0.636531 -1.44174 0
M  V30 2886 C 271.72 1.42353 -1.50144 0
M  V30 2887 C 272.135 1.88389 -0.124575 0
M  V30 2888 O 271.492 1.6051 0.868489 0
M  V30 2889 C 271.543 2.64744 -2.46156 0
M  V30 2890 O 271.264 2.20629 -3.7849 0
M  V30 2891 C 272.765 3.57929 -2.61537 0
M  V30 2892 H 269.985 0.436752 -0.5094 0
M  V30 2893 H 272.529 0.778933 -1.89084 0
M  V30 2894 H 270.684 3.25307 -2.10366 0
M  V30 2895 H 271.098 2.99938 -4.30276 0
M  V30 2896 H 272.572 4.40428 -3.32757 0
M  V30 2897 H 273.049 4.06382 -1.66585 0
M  V30 2898 H 273.655 3.03238 -2.98206 0
M  V30 2899 N 271.97 1.30982 0.876444 0
M  V30 2900 C 273.2 1.23063 1.65949 0
M  V30 2901 C 273.608 -0.207537 1.88058 0
M  V30 2902 O 272.951 -1.14781 1.43426 0
M  V30 2903 C 273.013 1.89768 3.05333 0
M  V30 2904 C 272.677 3.39106 3.0636 0
M  V30 2905 C 273.674 4.3496 2.84791 0
M  V30 2906 C 271.359 3.80693 3.27686 0
M  V30 2907 C 273.353 5.70375 2.84519 0
M  V30 2908 C 271.04 5.16223 3.27043 0
M  V30 2909 C 272.038 6.10875 3.05485 0
M  V30 2910 O 271.726 7.43928 3.04674 0
M  V30 2911 H 271.458 0.426685 0.524324 0
M  V30 2912 H 274.012 1.7329 1.10271 0
M  V30 2913 H 272.242 1.34082 3.6271 0
M  V30 2914 H 273.931 1.75853 3.65829 0
M  V30 2915 H 274.697 4.0416 2.68103 0
M  V30 2916 H 270.576 3.07457 3.43499 0
M  V30 2917 H 274.12 6.44228 2.67611 0
M  V30 2918 H 270.017 5.4666 3.43269 0
M  V30 2919 H 270.785 7.53022 3.2078 0
M  V30 2920 N 273.449 -1.08991 1.13837 0
M  V30 2921 C 274.397 -2.17841 0.815347 0
M  V30 2922 C 275.391 -1.68164 -0.204233 0
M  V30 2923 O 276.597 -1.79897 -0.0609304 0
M  V30 2924 H 272.972 -0.710654 0.245915 0
M  V30 2925 H 274.943 -2.42315 1.74143 0
M  V30 2926 C 273.692 -3.46381 0.302614 0
M  V30 2927 H 273.015 -3.84979 1.0785 0
M  V30 2928 H 274.455 -4.23844 0.115074 0
M  V30 2929 C 272.914 -3.22556 -0.972591 0
M  V30 2930 O 273.444 -3.45599 -2.04754 0
M  V30 2931 N 271.65 -2.76134 -0.905455 0
M  V30 2932 H 271.197 -2.57582 -0.0305421 0
M  V30 2933 H 271.155 -2.60571 -1.75926 0
M  V30 2934 N 274.927 -0.932562 -1.27047 0
M  V30 2935 C 275.875 -0.42603 -2.28665 0
M  V30 2936 C 276.869 0.49219 -1.62092 0
M  V30 2937 O 278.075 0.371355 -1.76128 0
M  V30 2938 H 274.45 -0.119213 -0.742491 0
M  V30 2939 H 276.421 -1.29579 -2.68797 0
M  V30 2940 C 275.17 0.301426 -3.46391 0
M  V30 2941 H 274.493 -0.39595 -3.97834 0
M  V30 2942 H 275.933 0.6202 -4.1944 0
M  V30 2943 C 274.392 1.51616 -3.00856 0
M  V30 2944 O 274.922 2.61476 -3.04948 0
M  V30 2945 N 273.128 1.36969 -2.56296 0
M  V30 2946 H 272.675 0.475873 -2.53166 0
M  V30 2947 H 272.633 2.18368 -2.26192 0
M  V30 2948 N 276.405 1.4127 -0.698611 0
M  V30 2949 C 277.337 2.292 0.00399731 0
M  V30 2950 C 278.35 1.44944 0.741279 0
M  V30 2951 O 279.539 1.68416 0.591477 0
M  V30 2952 C 276.639 3.22875 1.02979 0
M  V30 2953 C 275.812 4.35904 0.36151 0
M  V30 2954 C 274.871 5.10134 1.29033 0
M  V30 2955 O 273.897 5.63809 0.781562 0
M  V30 2956 N 275.099 5.17885 2.6225 0
M  V30 2957 H 277.864 2.9014 -0.750921 0
M  V30 2958 H 275.425 1.52455 -0.544882 0
M  V30 2959 H 277.417 3.69404 1.65296 0
M  V30 2960 H 275.987 2.63221 1.68622 0
M  V30 2961 H 275.207 3.91719 -0.441584 0
M  V30 2962 H 276.495 5.08696 -0.103055 0
M  V30 2963 H 275.893 4.7573 3.061 0
M  V30 2964 H 274.45 5.6798 3.19754 0
M  V30 2965 N 277.883 0.443576 1.51229 0
M  V30 2966 C 278.813 -0.355142 2.30783 0
M  V30 2967 C 279.794 -1.0154 1.36468 0
M  V30 2968 O 280.979 -1.01785 1.65389 0
M  V30 2969 C 278.109 -1.45312 3.15439 0
M  V30 2970 C 277.063 -0.916002 4.18083 0
M  V30 2971 C 276.389 -2.1102 4.91299 0
M  V30 2972 C 277.689 0.0538602 5.22272 0
M  V30 2973 H 279.383 0.308767 2.97804 0
M  V30 2974 H 276.929 0.149937 1.43217 0
M  V30 2975 H 278.882 -2.01914 3.69876 0
M  V30 2976 H 277.606 -2.14541 2.46252 0
M  V30 2977 H 276.265 -0.372145 3.64706 0
M  V30 2978 H 275.913 -2.78882 4.18609 0
M  V30 2979 H 275.613 -1.75717 5.60712 0
M  V30 2980 H 277.137 -2.68164 5.48562 0
M  V30 2981 H 278.551 -0.422069 5.71744 0
M  V30 2982 H 276.948 0.319776 5.99247 0
M  V30 2983 H 278.018 0.98858 4.74716 0
M  V30 2984 N 279.361 -1.56624 0.175154 0
M  V30 2985 C 280.607 -1.9729 -0.469506 0
M  V30 2986 C 280.94 -1.06128 -1.62636 0
M  V30 2987 O 280.215 -0.109183 -1.94193 0
M  V30 2988 C 280.498 -3.47375 -0.948804 0
M  V30 2989 C 280.351 -4.49317 0.208491 0
M  V30 2990 C 281.67 -4.00652 -1.82116 0
M  V30 2991 H 278.789 -0.717317 -0.16919 0
M  V30 2992 H 281.431 -1.88184 0.262062 0
M  V30 2993 H 279.581 -3.55267 -1.57219 0
M  V30 2994 H 281.253 -4.53482 0.845682 0
M  V30 2995 H 279.496 -4.25121 0.863395 0
M  V30 2996 H 280.167 -5.51741 -0.169059 0
M  V30 2997 H 282.643 -3.95416 -1.2956 0
M  V30 2998 H 281.519 -5.06075 -2.12554 0
M  V30 2999 H 281.78 -3.44699 -2.7683 0
M  V30 3000 N 280.839 0.0985539 -1.57292 0
M  V30 3001 C 282.086 0.802678 -1.85912 0
M  V30 3002 C 282.414 1.78901 -0.763186 0
M  V30 3003 O 281.669 1.94178 0.243559 0
M  V30 3004 C 281.968 1.56927 -3.21105 0
M  V30 3005 C 281.634 0.725376 -4.45027 0
M  V30 3006 C 280.296 0.492726 -4.78671 0
M  V30 3007 C 282.648 0.138493 -5.21016 0
M  V30 3008 C 279.976 -0.336727 -5.85733 0
M  V30 3009 C 282.328 -0.678264 -6.28953 0
M  V30 3010 C 280.992 -0.921039 -6.61115 0
M  V30 3011 H 280.262 0.293721 -0.680301 0
M  V30 3012 H 282.909 0.0642841 -1.91392 0
M  V30 3013 H 281.214 2.37914 -3.11294 0
M  V30 3014 H 282.911 2.11841 -3.40477 0
M  V30 3015 H 279.501 0.916815 -4.18679 0
M  V30 3016 H 283.685 0.305404 -4.95359 0
M  V30 3017 H 278.941 -0.533836 -6.09065 0
M  V30 3018 H 283.115 -1.1399 -6.87007 0
M  V30 3019 H 280.742 -1.56556 -7.43905 0
M  V30 3020 N 282.317 1.53212 0.369288 0
M  V30 3021 C 283.545 1.73119 1.13303 0
M  V30 3022 C 283.96 0.458455 1.83149 0
M  V30 3023 O 283.317 -0.568403 1.73423 0
M  V30 3024 C 283.368 2.89413 2.16616 0
M  V30 3025 O 283.089 4.11761 1.49614 0
M  V30 3026 C 284.59 3.21161 3.05566 0
M  V30 3027 H 281.81 0.579107 0.338934 0
M  V30 3028 H 284.354 1.99942 0.429338 0
M  V30 3029 H 282.509 2.64994 2.82589 0
M  V30 3030 H 282.923 4.76858 2.18419 0
M  V30 3031 H 284.397 4.05949 3.74045 0
M  V30 3032 H 284.874 2.36369 3.70171 0
M  V30 3033 H 285.48 3.47492 2.45213 0
M  V30 3034 N 283.795 -0.628877 1.44509 0
M  V30 3035 C 284.742 -1.74074 1.51549 0
M  V30 3036 C 285.712 -1.62084 0.363021 0
M  V30 3037 O 286.897 -1.81975 0.573567 0
M  V30 3038 C 284.037 -3.12328 1.46784 0
M  V30 3039 C 283.15 -3.35277 2.72422 0
M  V30 3040 C 282.285 -4.63515 2.59475 0
M  V30 3041 C 281.324 -4.7965 3.80266 0
M  V30 3042 N 280.461 -5.99168 3.65981 0
M  V30 3043 H 285.301 -1.67392 2.46544 0
M  V30 3044 H 282.838 -0.816527 1.22357 0
M  V30 3045 H 284.796 -3.92286 1.42012 0
M  V30 3046 H 283.426 -3.18018 0.553544 0
M  V30 3047 H 282.478 -2.49242 2.87372 0
M  V30 3048 H 283.79 -3.43078 3.62076 0
M  V30 3049 H 282.944 -5.51638 2.52548 0
M  V30 3050 H 281.683 -4.58076 1.67384 0
M  V30 3051 H 280.688 -3.89957 3.87574 0
M  V30 3052 H 281.913 -4.86902 4.73395 0
M  V30 3053 H 279.859 -5.94814 2.76644 0
M  V30 3054 H 279.776 -6.08035 4.49254 0
M  V30 3055 H 281.044 -6.89846 3.6295 0
M  V30 3056 N 285.273 -1.31445 -0.869486 0
M  V30 3057 C 286.498 -1.24256 -1.66058 0
M  V30 3058 C 286.923 0.188928 -1.87149 0
M  V30 3059 O 286.281 1.13522 -1.4136 0
M  V30 3060 C 286.329 -1.9924 -3.00559 0
M  V30 3061 O 285.433 -1.33007 -3.90362 0
M  V30 3062 H 284.774 -0.428973 -0.506831 0
M  V30 3063 H 287.304 -1.73521 -1.08404 0
M  V30 3064 H 287.314 -2.08854 -3.50491 0
M  V30 3065 H 285.989 -3.03342 -2.84528 0
M  V30 3066 H 284.566 -1.31848 -3.48813 0
M  V30 3067 N 286.751 1.08385 -1.14413 0
M  V30 3068 C 287.699 2.17406 -0.826888 0
M  V30 3069 C 288.693 1.6827 0.195312 0
M  V30 3070 O 289.899 1.79927 0.0513892 0
M  V30 3071 H 286.274 0.70934 -0.249681 0
M  V30 3072 H 288.245 2.41388 -1.75426 0
M  V30 3073 C 286.994 3.46215 -0.320979 0
M  V30 3074 H 286.317 3.84401 -1.0989 0
M  V30 3075 H 287.757 4.23777 -0.137549 0
M  V30 3076 C 286.216 3.23067 0.955472 0
M  V30 3077 O 286.746 3.4668 2.02918 0
M  V30 3078 N 284.952 2.7661 0.890798 0
M  V30 3079 H 284.499 2.57594 0.0168815 0
M  V30 3080 H 284.457 2.61501 1.74542 0
M  V30 3081 N 288.23 0.939286 1.26551 0
M  V30 3082 C 289.18 0.418284 2.2413 0
M  V30 3083 C 290.164 -0.483935 1.5345 0
M  V30 3084 O 291.356 -0.319489 1.74093 0
M  V30 3085 C 288.485 -0.31709 3.41832 0
M  V30 3086 C 287.571 0.602311 4.19801 0
M  V30 3087 N 287.962 1.72726 4.75394 0
M  V30 3088 C 286.26 0.407534 4.44134 0
M  V30 3089 C 286.961 2.30004 5.34297 0
M  V30 3090 N 285.937 1.58828 5.1988 0
M  V30 3091 H 289.739 1.27705 2.64705 0
M  V30 3092 H 287.253 0.794929 1.41614 0
M  V30 3093 H 289.25 -0.707364 4.10855 0
M  V30 3094 H 287.91 -1.17264 3.02786 0
M  V30 3095 H 288.921 2.10944 4.72994 0
M  V30 3096 H 285.598 -0.406406 4.15517 0
M  V30 3097 H 286.988 3.24778 5.88191 0
M  V30 3098 N 289.708 -1.40897 0.706093 0
M  V30 3099 C 291.124 -1.55042 0.37869 0
M  V30 3100 C 291.324 -1.67944 -1.11342 0
M  V30 3101 O 290.38 -1.66372 -1.89938 0
M  V30 3102 C 291.693 -2.78398 1.13643 0
M  V30 3103 C 293.241 -2.92206 1.12181 0
M  V30 3104 C 293.716 -4.18463 1.86152 0
M  V30 3105 N 295.207 -4.25443 1.83173 0
M  V30 3106 C 295.942 -5.2202 2.37239 0
M  V30 3107 N 295.438 -6.24563 2.99821 0
M  V30 3108 N 297.231 -5.14033 2.27435 0
M  V30 3109 H 289.382 -1.30769 1.67372 0
M  V30 3110 H 291.645 -0.631653 0.706907 0
M  V30 3111 H 291.351 -2.7511 2.19106 0
M  V30 3112 H 291.225 -3.70228 0.721853 0
M  V30 3113 H 293.612 -2.95004 0.0754171 0
M  V30 3114 H 293.693 -2.01521 1.57554 0
M  V30 3115 H 293.337 -4.16427 2.90776 0
M  V30 3116 H 293.267 -5.08141 1.38206 0
M  V30 3117 H 295.758 -3.51976 1.37556 0
M  V30 3118 H 296.071 -6.94665 3.38616 0
M  V30 3119 H 294.416 -6.25035 3.03902 0
M  V30 3120 H 297.607 -4.3285 1.78208 0
M  V30 3121 H 297.78 -5.89129 2.69873 0
M  V30 3122 N 291.186 -0.45159 -1.50991 0
M  V30 3123 C 292.134 0.366864 -2.29689 0
M  V30 3124 C 293.128 1.00809 -1.36139 0
M  V30 3125 O 294.334 0.941427 -1.53418 0
M  V30 3126 H 290.709 0.137133 -0.739391 0
M  V30 3127 H 292.68 -0.317538 -2.96706 0
M  V30 3128 C 291.429 1.44751 -3.16137 0
M  V30 3129 H 290.752 0.963473 -3.88017 0
M  V30 3130 H 292.192 1.99315 -3.74232 0
M  V30 3131 C 290.651 2.43869 -2.32442 0
M  V30 3132 O 291.181 3.4872 -1.99392 0
M  V30 3133 N 289.387 2.15105 -1.95392 0
M  V30 3134 H 288.934 1.29866 -2.22469 0
M  V30 3135 H 288.892 2.81661 -1.39693 0
M  V30 3136 N 292.664 1.56529 -0.183458 0
M  V30 3137 C 293.574 2.22144 0.754272 0
M  V30 3138 C 294.59 1.21684 1.24374 0
M  V30 3139 O 295.766 1.54385 1.29333 0
M  V30 3140 C 292.831 2.85884 1.96141 0
M  V30 3141 C 291.892 4.01579 1.51765 0
M  V30 3142 C 291.125 4.6227 2.66725 0
M  V30 3143 O 291.348 4.21865 3.83909 0
M  V30 3144 O 290.282 5.51936 2.40104 0
M  V30 3145 H 294.108 3.02861 0.225527 0
M  V30 3146 H 291.693 1.49331 0.0453032 0
M  V30 3147 H 293.575 3.26253 2.66715 0
M  V30 3148 H 292.25 2.08154 2.47899 0
M  V30 3149 H 291.157 3.65856 0.781049 0
M  V30 3150 H 292.49 4.80938 1.04686 0
M  V30 3151 N 294.142 -0.090211 1.57342 0
M  V30 3152 C 295.389 -0.792807 1.86335 0
M  V30 3153 C 295.717 -1.78494 0.772662 0
M  V30 3154 O 294.972 -1.94305 -0.233258 0
M  V30 3155 C 295.271 -1.55222 3.21933 0
M  V30 3156 C 294.937 -0.701765 4.45406 0
M  V30 3157 C 293.599 -0.467334 4.78925 0
M  V30 3158 C 295.951 -0.11086 5.21082 0
M  V30 3159 C 293.279 0.367785 5.85546 0
M  V30 3160 C 295.631 0.711609 6.28585 0
M  V30 3161 C 294.295 0.956086 6.60617 0
M  V30 3162 H 293.565 -0.290109 0.681849 0
M  V30 3163 H 296.212 -0.0541332 1.91423 0
M  V30 3164 H 294.517 -2.3626 3.12551 0
M  V30 3165 H 296.214 -2.10032 3.41595 0
M  V30 3166 H 292.804 -0.894598 4.1916 0
M  V30 3167 H 296.988 -0.279129 4.95514 0
M  V30 3168 H 292.244 0.566128 6.08773 0
M  V30 3169 H 296.418 1.17632 6.86393 0
M  V30 3170 H 294.045 1.60499 7.43064 0
M  V30 3171 N 295.62 -1.53406 -0.361157 0
M  V30 3172 C 296.866 -1.70999 -1.1014 0
M  V30 3173 C 297.221 -0.458425 -1.86859 0
M  V30 3174 O 296.514 0.548654 -1.83577 0
M  V30 3175 C 296.708 -2.90211 -2.08596 0
M  V30 3176 C 296.537 -4.26841 -1.41553 0
M  V30 3177 C 295.307 -4.91621 -1.16778 0
M  V30 3178 C 297.505 -5.07212 -0.850915 0
M  V30 3179 N 295.487 -6.12164 -0.461312 0
M  V30 3180 C 296.858 -6.19394 -0.274046 0
M  V30 3181 C 298.913 -4.92218 -0.750036 0
M  V30 3182 C 297.616 -7.18221 0.393868 0
M  V30 3183 C 299.642 -5.91322 -0.095894 0
M  V30 3184 C 299.004 -7.0283 0.470081 0
M  V30 3185 H 295.103 -0.678939 -0.388028 0
M  V30 3186 H 297.687 -1.90811 -0.38722 0
M  V30 3187 H 295.858 -2.71931 -2.77323 0
M  V30 3188 H 297.59 -2.96606 -2.7533 0
M  V30 3189 H 294.345 -4.50849 -1.45024 0
M  V30 3190 H 294.769 -6.76888 -0.123312 0
M  V30 3191 H 299.411 -4.06192 -1.17337 0
M  V30 3192 H 297.129 -8.03835 0.82914 0
M  V30 3193 H 300.715 -5.81797 -0.0187075 0
M  V30 3194 H 299.595 -7.782 0.968241 0
M  V30 3195 N 297.098 0.621204 -1.44841 0
M  V30 3196 C 298.323 1.41244 -1.51871 0
M  V30 3197 C 298.748 1.87519 -0.147764 0
M  V30 3198 O 298.106 1.59334 0.865 0
M  V30 3199 C 298.154 2.60221 -2.49634 0
M  V30 3200 O 297.258 3.60395 -2.00473 0
M  V30 3201 H 296.599 0.42223 -0.512463 0
M  V30 3202 H 299.129 0.757305 -1.90069 0
M  V30 3203 H 299.139 3.0764 -2.67996 0
M  V30 3204 H 297.814 2.25887 -3.4921 0
M  V30 3205 H 296.391 3.19717 -1.91925 0
M  V30 3206 N 298.576 1.31904 0.862503 0
M  V30 3207 C 299.539 1.20131 1.95195 0
M  V30 3208 C 300.539 0.126409 1.60302 0
M  V30 3209 O 301.729 0.376234 1.70089 0
M  V30 3210 C 298.861 0.845691 3.30244 0
M  V30 3211 H 300.054 2.16943 2.07064 0
M  V30 3212 H 297.607 1.15622 1.05172 0
M  V30 3213 H 298.342 -0.120957 3.24074 0
M  V30 3214 H 298.127 1.62276 3.56944 0
M  V30 3215 H 299.617 0.787418 4.10109 0
M  V30 3216 N 300.054 -1.07777 1.14986 0
M  V30 3217 C 300.984 -2.16865 0.865557 0
M  V30 3218 C 301.965 -1.69123 -0.182083 0
M  V30 3219 O 303.15 -1.94164 -0.0373815 0
M  V30 3220 C 300.28 -3.45539 0.349313 0
M  V30 3221 C 299.234 -4.06708 1.33313 0
M  V30 3222 C 298.56 -5.30411 0.675918 0
M  V30 3223 C 299.86 -4.47241 2.69764 0
M  V30 3224 H 301.554 -2.40905 1.77778 0
M  V30 3225 H 299.1 -1.15781 0.856203 0
M  V30 3226 H 301.053 -4.21174 0.137983 0
M  V30 3227 H 299.777 -3.21072 -0.598362 0
M  V30 3228 H 298.436 -3.33112 1.53075 0
M  V30 3229 H 298.084 -5.02232 -0.277767 0
M  V30 3230 H 297.784 -5.72293 1.33244 0
M  V30 3231 H 299.308 -6.08755 0.474262 0
M  V30 3232 H 300.722 -5.14025 2.53873 0
M  V30 3233 H 299.119 -5.00062 3.3175 0
M  V30 3234 H 300.189 -3.58818 3.26156 0
M  V30 3235 N 301.532 -0.945985 -1.26051 0
M  V30 3236 C 302.462 -0.477172 -2.28572 0
M  V30 3237 C 303.443 0.472032 -1.63419 0
M  V30 3238 O 304.628 0.372853 -1.90587 0
M  V30 3239 C 301.758 0.253975 -3.4637 0
M  V30 3240 C 300.712 -0.609135 -4.23643 0
M  V30 3241 C 300.038 0.252252 -5.34105 0
M  V30 3242 C 301.338 -1.8829 -4.8718 0
M  V30 3243 H 303.032 -1.33402 -2.68038 0
M  V30 3244 H 300.578 -0.642904 -1.28852 0
M  V30 3245 H 302.531 0.593016 -4.17207 0
M  V30 3246 H 301.255 1.145 -3.05871 0
M  V30 3247 H 299.914 -0.931138 -3.54578 0
M  V30 3248 H 299.562 1.14278 -4.89846 0
M  V30 3249 H 299.262 -0.32188 -5.86718 0
M  V30 3250 H 300.786 0.586454 -6.07777 0
M  V30 3251 H 302.2 -1.61081 -5.50205 0
M  V30 3252 H 300.597 -2.40199 -5.49931 0
M  V30 3253 H 301.667 -2.59134 -4.09851 0
M  V30 3254 N 303.011 1.40521 -0.713556 0
M  V30 3255 C 303.921 2.34522 -0.0606667 0
M  V30 3256 C 304.937 1.57193 0.74607 0
M  V30 3257 O 306.113 1.89591 0.679493 0
M  V30 3258 C 303.178 3.36081 0.851491 0
M  V30 3259 C 302.239 4.29286 0.0349339 0
M  V30 3260 C 301.472 5.25994 0.903649 0
M  V30 3261 O 301.695 5.28616 2.14292 0
M  V30 3262 O 300.629 6.00918 0.343723 0
M  V30 3263 H 304.455 2.91968 -0.835972 0
M  V30 3264 H 302.04 1.41681 -0.47402 0
M  V30 3265 H 303.922 3.98369 1.37404 0
M  V30 3266 H 302.597 2.81052 1.60598 0
M  V30 3267 H 301.504 3.70289 -0.532633 0
M  V30 3268 H 302.837 4.87462 -0.681287 0
M  V30 3269 N 304.489 0.459591 1.5075 0
M  V30 3270 C 305.436 -0.340524 2.28274 0
M  V30 3271 C 306.406 -0.997371 1.32822 0
M  V30 3272 O 307.591 -1.01202 1.61749 0
M  V30 3273 C 304.731 -1.42317 3.14388 0
M  V30 3274 C 303.844 -0.782251 4.24859 0
M  V30 3275 C 302.979 -1.84182 4.98247 0
M  V30 3276 C 302.018 -1.18053 6.00608 0
M  V30 3277 N 301.155 -2.18244 6.67319 0
M  V30 3278 H 305.995 0.326899 2.96202 0
M  V30 3279 H 303.532 0.173057 1.46078 0
M  V30 3280 H 305.49 -2.06241 3.62658 0
M  V30 3281 H 304.12 -2.05992 2.4853 0
M  V30 3282 H 303.172 -0.0307404 3.80388 0
M  V30 3283 H 304.484 -0.259663 4.98124 0
M  V30 3284 H 303.638 -2.55714 5.50177 0
M  V30 3285 H 302.377 -2.39819 4.24662 0
M  V30 3286 H 301.382 -0.450776 5.47949 0
M  V30 3287 H 302.607 -0.631202 6.7616 0
M  V30 3288 H 300.553 -2.72919 5.96533 0
M  V30 3289 H 300.47 -1.70938 7.36421 0
M  V30 3290 H 301.738 -2.89191 7.23871 0
M  V30 3291 N 305.967 -1.56429 0.191757 0
M  V30 3292 C 306.93 -2.17707 -0.716688 0
M  V30 3293 C 307.93 -1.13061 -1.14341 0
M  V30 3294 O 309.12 -1.38464 -1.05704 0
M  V30 3295 C 306.252 -2.77644 -1.97804 0
M  V30 3296 H 307.445 -2.99342 -0.1829 0
M  V30 3297 H 304.998 -1.56193 -0.0578566 0
M  V30 3298 H 305.733 -1.99799 -2.55443 0
M  V30 3299 H 305.518 -3.54246 -1.68083 0
M  V30 3300 H 307.008 -3.24708 -2.62592 0
M  V30 3301 N 307.445 0.0818655 -1.57387 0
M  V30 3302 C 308.675 0.794954 -1.90694 0
M  V30 3303 C 309.083 1.72147 -0.784982 0
M  V30 3304 O 308.426 1.81974 0.251196 0
M  V30 3305 C 308.488 1.65042 -3.19376 0
M  V30 3306 C 308.152 0.894337 -4.48164 0
M  V30 3307 C 309.149 0.21813 -5.19442 0
M  V30 3308 C 306.834 0.864495 -4.94805 0
M  V30 3309 C 308.828 -0.477802 -6.35607 0
M  V30 3310 C 306.515 0.164785 -6.10878 0
M  V30 3311 C 307.513 -0.505173 -6.81129 0
M  V30 3312 O 307.201 -1.19363 -7.94989 0
M  V30 3313 H 306.933 0.231779 -0.635023 0
M  V30 3314 H 309.487 0.059493 -2.05314 0
M  V30 3315 H 307.717 2.42844 -3.00938 0
M  V30 3316 H 309.406 2.24127 -3.38411 0
M  V30 3317 H 310.172 0.232558 -4.84442 0
M  V30 3318 H 306.051 1.37542 -4.40004 0
M  V30 3319 H 309.595 -1.00129 -6.90377 0
M  V30 3320 H 305.492 0.148249 -6.4533 0
M  V30 3321 H 306.26 -1.10188 -8.11049 0
M  V30 3322 N 308.923 1.53595 0.353017 0
M  V30 3323 C 309.886 1.80232 1.41594 0
M  V30 3324 C 310.886 0.673081 1.46035 0
M  V30 3325 O 312.076 0.941335 1.46576 0
M  V30 3326 C 309.208 1.93578 2.80607 0
M  V30 3327 H 310.401 2.75174 1.19244 0
M  V30 3328 H 307.954 1.44864 0.586872 0
M  V30 3329 H 308.689 1.00746 3.08254 0
M  V30 3330 H 308.474 2.75724 2.78781 0
M  V30 3331 H 309.964 2.15735 3.57558 0
M  V30 3332 N 310.401 -0.613514 1.45168 0
M  V30 3333 C 311.348 -1.72456 1.53387 0
M  V30 3334 C 312.318 -1.6169 0.380191 0
M  V30 3335 O 313.503 -1.81356 0.592836 0
M  V30 3336 C 310.643 -3.10753 1.50088 0
M  V30 3337 C 309.756 -3.32368 2.75963 0
M  V30 3338 C 308.891 -4.60737 2.64376 0
M  V30 3339 C 307.93 -4.7559 3.85332 0
M  V30 3340 N 307.067 -5.95253 3.72315 0
M  V30 3341 H 311.907 -1.64768 2.48305 0
M  V30 3342 H 309.444 -0.803503 1.23216 0
M  V30 3343 H 311.402 -3.90758 1.46164 0
M  V30 3344 H 310.032 -3.17413 0.587243 0
M  V30 3345 H 309.084 -2.4618 2.89999 0
M  V30 3346 H 310.396 -3.39218 3.65695 0
M  V30 3347 H 309.55 -5.48928 2.58385 0
M  V30 3348 H 308.289 -4.56275 1.72233 0
M  V30 3349 H 307.294 -3.85824 3.91688 0
M  V30 3350 H 308.519 -4.81854 4.78533 0
M  V30 3351 H 306.465 -5.91847 2.82937 0
M  V30 3352 H 306.382 -6.03236 4.55677 0
M  V30 3353 H 307.65 -6.85958 3.70246 0
M  V30 3354 N 311.879 -1.3236 -0.855495 0
M  V30 3355 C 312.809 -1.23833 -1.97958 0
M  V30 3356 C 313.79 -0.122361 -1.69659 0
M  V30 3357 O 314.975 -0.30939 -1.9172 0
M  V30 3358 C 312.105 -0.959772 -3.33775 0
M  V30 3359 C 311.059 -2.03689 -3.76424 0
M  V30 3360 C 310.385 -1.61075 -5.09862 0
M  V30 3361 C 311.685 -3.4518 -3.9198 0
M  V30 3362 H 313.379 -2.1788 -2.0535 0
M  V30 3363 H 310.925 -1.04891 -0.986605 0
M  V30 3364 H 312.878 -0.886678 -4.11966 0
M  V30 3365 H 311.602 0.0163404 -3.26596 0
M  V30 3366 H 310.261 -2.10012 -3.00484 0
M  V30 3367 H 309.909 -0.622107 -4.99138 0
M  V30 3368 H 309.609 -2.33143 -5.39368 0
M  V30 3369 H 311.133 -1.55201 -5.90546 0
M  V30 3370 H 312.547 -3.4145 -4.60526 0
M  V30 3371 H 310.944 -4.1559 -4.32903 0
M  V30 3372 H 312.014 -3.84903 -2.94919 0
M  V30 3373 N 313.357 1.07166 -1.15556 0
M  V30 3374 C 314.307 2.12649 -0.82247 0
M  V30 3375 C 315.291 1.59725 0.194129 0
M  V30 3376 O 316.483 1.76999 -0.00540402 0
M  V30 3377 C 313.612 3.41847 -0.315572 0
M  V30 3378 C 312.698 4.0162 -1.36244 0
M  V30 3379 N 313.089 4.35625 -2.5703 0
M  V30 3380 C 311.387 4.29114 -1.21562 0
M  V30 3381 C 312.088 4.83017 -3.24144 0
M  V30 3382 N 311.064 4.81906 -2.51531 0
M  V30 3383 H 314.866 2.36776 -1.74111 0
M  V30 3384 H 312.38 1.24622 -1.0413 0
M  V30 3385 H 314.377 4.16859 -0.0585855 0
M  V30 3386 H 313.037 3.19163 0.597105 0
M  V30 3387 H 314.048 4.26253 -2.94158 0
M  V30 3388 H 310.725 4.15919 -0.362988 0
M  V30 3389 H 312.115 5.18605 -4.27198 0
M  V30 3390 N 314.835 0.952656 1.25548 0
M  V30 3391 C 316.083 0.605176 1.92826 0
M  V30 3392 C 316.404 -0.860261 1.74999 0
M  V30 3393 O 315.674 -1.6125 1.11244 0
M  V30 3394 H 314.254 0.220832 0.713612 0
M  V30 3395 H 316.916 1.21047 1.52754 0
M  V30 3396 H 316.012 0.832798 3.00784 0
M  V30 3397 N 316.313 -1.40141 0.720998 0
M  V30 3398 C 317.538 -2.05618 0.271258 0
M  V30 3399 C 317.963 -1.53978 -1.08039 0
M  V30 3400 O 317.321 -0.677463 -1.68167 0
M  V30 3401 C 317.369 -3.59609 0.267197 0
M  V30 3402 O 316.473 -4.05526 -0.749814 0
M  V30 3403 H 315.814 -0.651904 0.126162 0
M  V30 3404 H 318.344 -1.79439 0.982997 0
M  V30 3405 H 318.354 -4.0786 0.106744 0
M  V30 3406 H 317.029 -3.96559 1.25354 0
M  V30 3407 H 315.606 -3.68722 -0.556644 0
M  V30 3408 N 317.792 -0.46758 -1.50504 0
M  V30 3409 C 319.022 0.086288 -2.0642 0
M  V30 3410 C 319.43 1.34369 -1.33197 0
M  V30 3411 O 318.773 1.79431 -0.393747 0
M  V30 3412 C 318.835 0.443846 -3.5675 0
M  V30 3413 C 318.499 -0.711035 -4.51435 0
M  V30 3414 C 319.496 -1.59205 -4.94924 0
M  V30 3415 C 317.181 -0.900363 -4.94165 0
M  V30 3416 C 319.175 -2.64683 -5.79846 0
M  V30 3417 C 316.862 -1.95837 -5.7887 0
M  V30 3418 C 317.86 -2.82997 -6.21612 0
M  V30 3419 O 317.548 -3.86977 -7.0463 0
M  V30 3420 H 317.28 -0.00217814 -0.675996 0
M  V30 3421 H 319.834 -0.654346 -1.94698 0
M  V30 3422 H 318.064 1.23762 -3.6636 0
M  V30 3423 H 319.753 0.932386 -3.95046 0
M  V30 3424 H 320.519 -1.45745 -4.62583 0
M  V30 3425 H 316.398 -0.231427 -4.60419 0
M  V30 3426 H 319.942 -3.32745 -6.13128 0
M  V30 3427 H 315.839 -2.09305 -6.10624 0
M  V30 3428 H 316.607 -3.83923 -7.22873 0
M  V30 3429 N 319.27 1.56325 -0.20005 0
M  V30 3430 C 320.18 2.22931 0.730668 0
M  V30 3431 C 321.196 1.22997 1.23076 0
M  V30 3432 O 322.372 1.55748 1.27689 0
M  V30 3433 C 319.437 2.87948 1.93098 0
M  V30 3434 C 318.498 4.03166 1.47497 0
M  V30 3435 C 317.731 4.65073 2.61807 0
M  V30 3436 O 317.954 4.25913 3.79413 0
M  V30 3437 O 316.888 5.54452 2.34237 0
M  V30 3438 H 320.714 3.03084 0.193391 0
M  V30 3439 H 318.299 1.49371 0.0294621 0
M  V30 3440 H 320.181 3.29063 2.6324 0
M  V30 3441 H 318.856 2.10771 2.45677 0
M  V30 3442 H 317.763 3.66664 0.742201 0
M  V30 3443 H 319.096 4.82022 0.995796 0
M  V30 3444 N 320.748 -0.0735177 1.57428 0
M  V30 3445 C 321.711 -1.07192 2.02589 0
M  V30 3446 C 322.711 -1.31695 0.922661 0
M  V30 3447 O 323.901 -1.27445 1.18758 0
M  V30 3448 C 321.033 -2.41599 2.40506 0
M  V30 3449 H 322.226 -0.682727 2.92025 0
M  V30 3450 H 319.779 -0.319193 1.53006 0
M  V30 3451 H 320.514 -2.85354 1.5409 0
M  V30 3452 H 320.299 -2.25156 3.21009 0
M  V30 3453 H 321.789 -3.13367 2.76027 0
M  V30 3454 N 322.226 -1.5378 -0.344866 0
M  V30 3455 C 323.156 -1.84662 -1.42906 0
M  V30 3456 C 324.137 -0.701648 -1.54955 0
M  V30 3457 O 325.322 -0.953438 -1.69184 0
M  V30 3458 C 322.452 -2.05503 -2.79974 0
M  V30 3459 C 321.406 -3.21318 -2.82734 0
M  V30 3460 C 320.732 -3.2749 -4.22675 0
M  V30 3461 C 322.032 -4.59456 -2.48389 0
M  V30 3462 H 323.726 -2.75461 -1.17311 0
M  V30 3463 H 321.272 -1.32542 -0.562896 0
M  V30 3464 H 323.225 -2.25691 -3.55867 0
M  V30 3465 H 321.949 -1.11434 -3.07002 0
M  V30 3466 H 320.608 -3.00984 -2.09294 0
M  V30 3467 H 320.256 -2.31019 -4.4681 0
M  V30 3468 H 319.956 -4.05316 -4.25433 0
M  V30 3469 H 321.48 -3.49887 -5.00412 0
M  V30 3470 H 322.894 -4.79667 -3.13995 0
M  V30 3471 H 321.291 -5.39675 -2.62432 0
M  V30 3472 H 322.361 -4.63155 -1.4358 0
M  V30 3473 N 323.704 0.605807 -1.45491 0
M  V30 3474 C 324.651 1.7164 -1.54299 0
M  V30 3475 C 325.621 1.61486 -0.388761 0
M  V30 3476 O 326.806 1.81039 -0.602445 0
M  V30 3477 C 323.946 3.09953 -1.51734 0
M  V30 3478 C 323.059 3.309 -2.77721 0
M  V30 3479 C 322.194 4.59329 -2.66816 0
M  V30 3480 C 321.233 4.7354 -3.87848 0
M  V30 3481 N 320.37 5.9327 -3.75467 0
M  V30 3482 H 325.21 1.63449 -2.49176 0
M  V30 3483 H 322.747 0.796957 -1.23641 0
M  V30 3484 H 324.705 3.89977 -1.48235 0
M  V30 3485 H 323.335 3.17098 -0.604068 0
M  V30 3486 H 322.387 2.44639 -2.913 0
M  V30 3487 H 323.699 3.37274 -3.67488 0
M  V30 3488 H 322.853 5.4755 -2.61292 0
M  V30 3489 H 321.592 4.55355 -1.74651 0
M  V30 3490 H 320.597 3.83741 -3.93729 0
M  V30 3491 H 321.822 4.79309 -4.81082 0
M  V30 3492 H 319.768 5.90338 -2.86072 0
M  V30 3493 H 319.685 6.00811 -4.5887 0
M  V30 3494 H 320.953 6.83984 -3.73879 0
M  V30 3495 N 325.182 1.32811 0.848464 0
M  V30 3496 C 326.43 1.23479 1.59991 0
M  V30 3497 C 326.751 -0.201853 1.93952 0
M  V30 3498 O 326.021 -1.12818 1.60153 0
M  V30 3499 H 324.601 0.454034 0.593179 0
M  V30 3500 H 327.263 1.66412 1.01455 0
M  V30 3501 H 326.359 1.82178 2.53412 0
M  V30 3502 N 326.66 -1.06551 1.16123 0
M  V30 3503 C 327.908 -1.78947 0.939267 0
M  V30 3504 C 328.229 -1.87532 -0.534476 0
M  V30 3505 O 327.499 -1.38211 -1.38833 0
M  V30 3506 H 326.079 -0.662807 0.344523 0
M  V30 3507 H 328.741 -1.28725 1.46342 0
M  V30 3508 H 327.837 -2.81117 1.35572 0
M  V30 3509 N 328.138 -0.959301 -1.25041 0
M  V30 3510 C 329.086 -0.474437 -2.2771 0
M  V30 3511 C 330.08 0.457697 -1.631 0
M  V30 3512 O 331.286 0.333912 -1.76876 0
M  V30 3513 H 327.661 -0.134936 -0.739795 0
M  V30 3514 H 329.632 -1.35251 -2.65988 0
M  V30 3515 C 328.381 0.227884 -3.46952 0
M  V30 3516 H 327.704 -0.480248 -3.96905 0
M  V30 3517 H 329.144 0.531091 -4.20661 0
M  V30 3518 C 327.603 1.452 -3.04004 0
M  V30 3519 O 328.133 2.54949 -3.10426 0
M  V30 3520 N 326.339 1.31502 -2.59144 0
M  V30 3521 H 325.886 0.422065 -2.54119 0
M  V30 3522 H 325.844 2.13521 -2.30773 0
M  V30 3523 N 329.616 1.39756 -0.72842 0
M  V30 3524 C 330.844 2.04948 -0.283528 0
M  V30 3525 C 331.259 1.54908 1.0793 0
M  V30 3526 O 330.616 0.711135 1.68075 0
M  V30 3527 C 330.667 3.60498 -0.268957 0
M  V30 3528 O 330.388 4.08695 -1.57798 0
M  V30 3529 C 331.889 4.4288 0.192912 0
M  V30 3530 H 329.109 0.659243 -0.125056 0
M  V30 3531 H 331.653 1.78927 -0.990226 0
M  V30 3532 H 329.808 3.85444 0.388801 0
M  V30 3533 H 330.222 5.02977 -1.48709 0
M  V30 3534 H 331.696 5.51791 0.151952 0
M  V30 3535 H 332.173 4.21418 1.23708 0
M  V30 3536 H 332.779 4.23069 -0.435039 0
M  V30 3537 N 331.094 0.475555 1.50254 0
M  V30 3538 C 332.322 -0.0754493 2.06762 0
M  V30 3539 C 332.737 -1.33111 1.33891 0
M  V30 3540 O 332.094 -1.77846 0.40952 0
M  V30 3541 C 332.145 -0.359008 3.59713 0
M  V30 3542 O 331.866 0.846851 4.29837 0
M  V30 3543 C 333.367 -0.956484 4.32858 0
M  V30 3544 H 330.587 0.00907525 0.670939 0
M  V30 3545 H 333.131 0.665618 1.93364 0
M  V30 3546 H 331.286 -1.05001 3.72899 0
M  V30 3547 H 331.7 0.594162 5.21124 0
M  V30 3548 H 333.174 -1.10463 5.40834 0
M  V30 3549 H 333.651 -1.94775 3.93649 0
M  V30 3550 H 334.257 -0.303723 4.24214 0
M  V30 3551 N 332.573 -1.56217 0.208337 0
M  V30 3552 C 333.483 -2.23316 -0.718836 0
M  V30 3553 C 334.499 -1.23648 -1.22422 0
M  V30 3554 O 335.675 -1.56423 -1.26861 0
M  V30 3555 C 332.74 -2.88968 -1.91568 0
M  V30 3556 C 331.801 -4.03943 -1.45357 0
M  V30 3557 C 331.034 -4.66455 -2.59337 0
M  V30 3558 O 331.257 -4.27919 -3.77149 0
M  V30 3559 O 330.191 -5.55686 -2.31293 0
M  V30 3560 H 334.017 -3.03182 -0.177315 0
M  V30 3561 H 331.602 -1.49384 -0.0215402 0
M  V30 3562 H 333.484 -3.30455 -2.61491 0
M  V30 3563 H 332.159 -2.12071 -2.44556 0
M  V30 3564 H 331.066 -3.67052 -0.722746 0
M  V30 3565 H 332.399 -4.82543 -0.970219 0
M  V30 3566 N 334.051 0.0651679 -1.57465 0
M  V30 3567 C 335.014 1.06117 -2.03155 0
M  V30 3568 C 336.014 1.31204 -0.929632 0
M  V30 3569 O 337.204 1.26813 -1.19432 0
M  V30 3570 C 334.336 2.4032 -2.41783 0
M  V30 3571 H 335.529 0.667231 -2.92383 0
M  V30 3572 H 333.082 0.311075 -1.53173 0
M  V30 3573 H 333.817 2.84532 -1.55601 0
M  V30 3574 H 333.602 2.23451 -3.22199 0
M  V30 3575 H 335.092 3.11898 -2.77685 0
M  V30 3576 N 335.529 1.53961 0.336706 0
M  V30 3577 C 336.462 1.77255 1.43722 0
M  V30 3578 C 337.44 0.62193 1.50236 0
M  V30 3579 O 338.624 0.857874 1.67847 0
M  V30 3580 C 335.751 1.87733 2.81912 0
M  V30 3581 C 334.797 3.09933 2.92991 0
M  V30 3582 S 335.63 4.68836 2.58753 0
M  V30 3583 C 336.786 4.82202 3.99039 0
M  V30 3584 H 337.019 2.70322 1.23748 0
M  V30 3585 H 334.552 1.44917 0.532777 0
M  V30 3586 H 336.51 1.94455 3.61521 0
M  V30 3587 H 335.171 0.956666 2.99177 0
M  V30 3588 H 334.364 3.1396 3.94265 0
M  V30 3589 H 333.966 3.01472 2.21338 0
M  V30 3590 H 336.258 4.64032 4.9364 0
M  V30 3591 H 337.201 5.84298 4.00002 0
M  V30 3592 H 337.609 4.10604 3.87382 0
M  V30 3593 N 337.007 -0.598083 1.45811 0
M  V30 3594 C 337.917 -1.73632 1.57763 0
M  V30 3595 C 338.933 -1.67763 0.461676 0
M  V30 3596 O 340.109 -1.87949 0.723685 0
M  V30 3597 C 337.174 -3.10114 1.55018 0
M  V30 3598 C 336.235 -3.27364 2.77726 0
M  V30 3599 C 335.468 -4.57334 2.75102 0
M  V30 3600 O 335.691 -5.40258 1.8297 0
M  V30 3601 O 334.625 -4.77502 3.66437 0
M  V30 3602 H 338.451 -1.66498 2.53992 0
M  V30 3603 H 336.036 -0.763308 1.28429 0
M  V30 3604 H 337.918 -3.9141 1.56129 0
M  V30 3605 H 336.593 -3.17718 0.619431 0
M  V30 3606 H 335.5 -2.45619 2.82174 0
M  V30 3607 H 336.833 -3.24641 3.69958 0
M  V30 3608 N 338.485 -1.33259 -0.841409 0
M  V30 3609 C 339.762 -1.15174 -1.58096 0
M  V30 3610 C 340.142 0.282858 -2.09196 0
M  V30 3611 O 339.49 1.28151 -1.89181 0
M  V30 3612 C 339.7 -2.1907 -2.71679 0
M  V30 3613 C 341.048 -2.53093 -3.40924 0
M  V30 3614 O 342.072 -2.17717 -2.81918 0
M  V30 3615 O 340.931 -3.1379 -4.47435 0
M  V30 3616 H 338.025 -0.445303 -0.696875 0
M  V30 3617 H 340.571 -1.44833 -0.884385 0
M  V30 3618 H 339.343 -3.15443 -2.31541 0
M  V30 3619 H 338.966 -1.90481 -3.49002 0
M  V30 3620 N 339.963 1.05934 -1.16686 0
M  V30 3621 C 341.21 1.788 -0.950622 0
M  V30 3622 C 341.538 1.87384 0.521305 0
M  V30 3623 O 340.793 1.36438 1.40297 0
M  V30 3624 C 341.092 3.23105 -1.52767 0
M  V30 3625 C 340.758 3.34594 -3.02254 0
M  V30 3626 C 339.42 3.37437 -3.43059 0
M  V30 3627 C 341.772 3.36219 -3.98254 0
M  V30 3628 C 339.1 3.39525 -4.78477 0
M  V30 3629 C 341.452 3.39845 -5.33562 0
M  V30 3630 C 340.116 3.40971 -5.73842 0
M  V30 3631 H 339.386 0.654275 -0.347857 0
M  V30 3632 H 342.033 1.24555 -1.45459 0
M  V30 3633 H 340.338 3.80227 -0.94524 0
M  V30 3634 H 342.035 3.7809 -1.336 0
M  V30 3635 H 338.625 3.3309 -2.6972 0
M  V30 3636 H 342.809 3.33231 -3.67792 0
M  V30 3637 H 338.065 3.38703 -5.09009 0
M  V30 3638 H 342.239 3.4005 -6.07733 0
M  V30 3639 H 339.866 3.42342 -6.78753 0
M  V30 3640 N 341.441 0.965919 1.2453 0
M  V30 3641 C 342.669 0.644385 1.96609 0
M  V30 3642 C 343.084 -0.785823 1.71669 0
M  V30 3643 O 342.441 -1.52703 0.999399 0
M  V30 3644 C 342.492 0.907375 3.49927 0
M  V30 3645 O 342.213 2.28136 3.74013 0
M  V30 3646 C 343.714 0.599784 4.39224 0
M  V30 3647 H 340.934 0.240588 0.626385 0
M  V30 3648 H 343.478 1.29337 1.58405 0
M  V30 3649 H 341.633 0.304631 3.862 0
M  V30 3650 H 342.047 2.36002 4.68405 0
M  V30 3651 H 343.521 0.834263 5.45659 0
M  V30 3652 H 343.998 -0.465921 4.36722 0
M  V30 3653 H 344.604 1.18235 4.08535 0
M  V30 3654 N 342.919 -1.39368 0.735821 0
M  V30 3655 C 344.167 -2.00101 0.283562 0
M  V30 3656 C 344.488 -1.5868 -1.13338 0
M  V30 3657 O 343.758 -0.835423 -1.77193 0
M  V30 3658 H 342.338 -0.740024 0.101851 0
M  V30 3659 H 345 -1.70404 0.945962 0
M  V30 3660 H 344.096 -3.10323 0.332604 0
M  V30 3661 N 344.397 -0.483516 -1.5 0
M  V30 3662 C 345.645 0.067027 -2.01989 0
M  V30 3663 C 345.966 1.3909 -1.36671 0
M  V30 3664 O 345.236 1.88978 -0.516152 0
M  V30 3665 H 343.816 0.0277606 -0.746484 0
M  V30 3666 H 346.478 -0.636773 -1.84204 0
M  V30 3667 H 345.574 0.209484 -3.11396 0
M  V30 3668 N 345.875 1.56104 -0.216619 0
M  V30 3669 C 347.121 1.98466 0.417033 0
M  V30 3670 C 347.454 1.10403 1.59765 0
M  V30 3671 O 346.729 0.160632 1.93836 0
M  V30 3672 C 347.012 3.49769 0.85637 0
M  V30 3673 C 346.865 4.48606 -0.327546 0
M  V30 3674 C 348.184 4.05339 1.7143 0
M  V30 3675 H 345.303 0.721551 0.150112 0
M  V30 3676 H 347.945 1.87423 -0.311864 0
M  V30 3677 H 346.095 3.5931 1.47745 0
M  V30 3678 H 347.767 4.5108 -0.965618 0
M  V30 3679 H 346.01 4.22682 -0.975805 0
M  V30 3680 H 346.681 5.51995 0.0227149 0
M  V30 3681 H 349.157 3.98712 1.19031 0
M  V30 3682 H 348.033 5.11533 1.99061 0
M  V30 3683 H 348.294 3.51918 2.67593 0
M  V30 3684 N 347.353 -0.0568162 1.57498 0
M  V30 3685 C 348.316 -1.05038 2.03715 0
M  V30 3686 C 349.316 -1.30709 0.936577 0
M  V30 3687 O 350.506 -1.26178 1.20103 0
M  V30 3688 C 347.638 -2.39034 2.43055 0
M  V30 3689 H 348.831 -0.651715 2.92733 0
M  V30 3690 H 346.384 -0.302947 1.53336 0
M  V30 3691 H 347.119 -2.83703 1.57108 0
M  V30 3692 H 346.904 -2.21739 3.2338 0
M  V30 3693 H 348.394 -3.10421 2.79336 0
M  V30 3694 N 348.832 -1.54138 -0.328536 0
M  V30 3695 C 349.742 -1.86192 -1.42723 0
M  V30 3696 C 350.758 -0.753382 -1.56844 0
M  V30 3697 O 351.934 -1.04718 -1.72035 0
M  V30 3698 C 348.999 -2.07824 -2.77507 0
M  V30 3699 C 348.06 -3.31641 -2.72603 0
M  V30 3700 C 347.293 -3.52232 -4.00959 0
M  V30 3701 O 347.516 -2.7636 -4.9898 0
M  V30 3702 O 346.45 -4.45699 -4.0452 0
M  V30 3703 H 350.276 -2.79608 -1.18547 0
M  V30 3704 H 347.861 -1.3998 -0.522104 0
M  V30 3705 H 349.743 -2.23411 -3.57303 0
M  V30 3706 H 348.418 -1.17596 -3.01584 0
M  V30 3707 H 347.325 -3.21444 -1.91376 0
M  V30 3708 H 348.658 -4.2191 -2.53481 0
M  V30 3709 N 350.31 0.590341 -1.46126 0
M  V30 3710 C 351.557 1.34882 -1.5104 0
M  V30 3711 C 351.885 1.93849 -0.159021 0
M  V30 3712 O 351.14 1.76544 0.844436 0
M  V30 3713 C 351.439 2.5032 -2.55097 0
M  V30 3714 C 351.105 2.09394 -3.99331 0
M  V30 3715 C 349.767 1.97947 -4.38601 0
M  V30 3716 C 352.119 1.77712 -4.89967 0
M  V30 3717 C 349.447 1.53065 -5.66381 0
M  V30 3718 C 351.799 1.34312 -6.18177 0
M  V30 3719 C 350.463 1.21436 -6.56361 0
M  V30 3720 H 349.733 0.493568 -0.552695 0
M  V30 3721 H 352.38 0.665539 -1.79563 0
M  V30 3722 H 350.685 3.24062 -2.20207 0
M  V30 3723 H 352.382 3.08541 -2.56132 0
M  V30 3724 H 348.972 2.19235 -3.68285 0
M  V30 3725 H 353.156 1.85445 -4.60352 0
M  V30 3726 H 348.412 1.41733 -5.94745 0
M  V30 3727 H 352.586 1.08849 -6.87841 0
M  V30 3728 H 350.213 0.864345 -7.5527 0
M  V30 3729 N 351.788 1.33704 0.83433 0
M  V30 3730 C 353.035 1.25417 1.58987 0
M  V30 3731 C 353.363 -0.178869 1.93676 0
M  V30 3732 O 352.618 -1.13723 1.59265 0
M  V30 3733 C 352.917 2.07926 2.90692 0
M  V30 3734 C 352.583 3.57066 2.75345 0
M  V30 3735 C 351.245 3.97724 2.70867 0
M  V30 3736 C 353.597 4.51817 2.59828 0
M  V30 3737 C 350.925 5.31344 2.48778 0
M  V30 3738 C 353.277 5.85604 2.39272 0
M  V30 3739 C 351.941 6.25439 2.33199 0
M  V30 3740 H 351.211 0.458934 0.581774 0
M  V30 3741 H 353.858 1.65335 0.966261 0
M  V30 3742 H 352.163 1.608 3.57282 0
M  V30 3743 H 353.86 1.98868 3.48213 0
M  V30 3744 H 350.45 3.24785 2.79665 0
M  V30 3745 H 354.634 4.21311 2.62319 0
M  V30 3746 H 349.89 5.61241 2.42526 0
M  V30 3747 H 354.064 6.58623 2.2625 0
M  V30 3748 H 351.691 7.28914 2.15843 0
M  V30 3749 N 353.266 -1.05314 1.17247 0
M  V30 3750 C 354.176 -2.16538 0.90268 0
M  V30 3751 C 355.192 -1.73523 -0.128707 0
M  V30 3752 O 356.368 -2.01337 0.0502701 0
M  V30 3753 C 353.433 -3.44167 0.418356 0
M  V30 3754 C 352.494 -4.01635 1.51618 0
M  V30 3755 C 351.727 -5.23171 1.05487 0
M  V30 3756 O 351.95 -5.70327 -0.0914715 0
M  V30 3757 O 350.884 -5.72848 1.8474 0
M  V30 3758 H 354.71 -2.42145 1.83302 0
M  V30 3759 H 352.295 -1.15037 0.953246 0
M  V30 3760 H 354.177 -4.21112 0.155726 0
M  V30 3761 H 352.852 -3.20063 -0.48385 0
M  V30 3762 H 351.759 -3.26135 1.83268 0
M  V30 3763 H 353.092 -4.30053 2.39405 0
M  V30 3764 N 354.744 -0.972509 -1.24016 0
M  V30 3765 C 355.993 -0.632603 -1.91523 0
M  V30 3766 C 356.306 0.836641 -1.76804 0
M  V30 3767 O 357.512 1.28728 -2.39043 0
M  V30 3768 C 355.968 -1.08082 -3.43287 0
M  V30 3769 C 355.576 -2.57386 -3.66683 0
M  V30 3770 C 357.32 -0.814288 -4.16617 0
M  V30 3771 C 355.227 -2.95915 -5.12043 0
M  V30 3772 H 354.157 -0.232898 -0.717129 0
M  V30 3773 H 356.808 -1.17936 -1.40582 0
M  V30 3774 H 355.19 -0.462339 -3.93292 0
M  V30 3775 H 356.364 -3.24405 -3.27258 0
M  V30 3776 H 354.679 -2.81701 -3.06649 0
M  V30 3777 H 357.276 -1.0781 -5.23718 0
M  V30 3778 H 357.619 0.24955 -4.15551 0
M  V30 3779 H 358.152 -1.39397 -3.72577 0
M  V30 3780 H 354.891 -4.0139 -5.18234 0
M  V30 3781 H 354.411 -2.33584 -5.52448 0
M  V30 3782 H 356.09 -2.86086 -5.80314 0
M  V30 3783 N 356.222 1.38976 -0.743202 0
M  V30 3784 C 357.638 1.53984 -0.419664 0
M  V30 3785 C 357.838 1.70837 1.0685 0
M  V30 3786 O 356.894 1.7135 1.8546 0
M  V30 3787 C 358.207 2.75287 -1.20985 0
M  V30 3788 C 359.755 2.89129 -1.19889 0
M  V30 3789 C 360.23 4.13381 -1.97181 0
M  V30 3790 N 361.721 4.20437 -1.94389 0
M  V30 3791 C 362.456 5.15547 -2.50996 0
M  V30 3792 N 361.952 6.16395 -3.16274 0
M  V30 3793 N 363.745 5.07822 -2.40984 0
M  V30 3794 H 355.896 1.26285 -1.7078 0
M  V30 3795 H 358.159 0.612689 -0.723406 0
M  V30 3796 H 357.865 2.69204 -2.26323 0
M  V30 3797 H 357.739 3.68184 -0.819759 0
M  V30 3798 H 360.126 2.947 -0.153606 0
M  V30 3799 H 360.207 1.97272 -1.62841 0
M  V30 3800 H 359.851 4.08572 -3.01714 0
M  V30 3801 H 359.781 5.04298 -1.51629 0
M  V30 3802 H 362.272 3.48205 -1.46839 0
M  V30 3803 H 362.585 6.85443 -3.56915 0
M  V30 3804 H 360.93 6.16758 -3.20367 0
M  V30 3805 H 364.121 4.27973 -1.89622 0
M  V30 3806 H 364.294 5.81767 -2.85397 0
M  V30 3807 N 357.7 0.491464 1.49741 0
M  V30 3808 C 358.977 -0.118984 1.95238 0
M  V30 3809 C 359.357 -1.55044 1.43264 0
M  V30 3810 O 358.705 -2.19287 0.642287 0
M  V30 3811 C 358.915 -0.0414187 3.48975 0
M  V30 3812 C 360.263 -0.220133 4.24029 0
M  V30 3813 O 361.287 -0.117055 3.56008 0
M  V30 3814 O 360.146 -0.430567 5.44801 0
M  V30 3815 H 357.24 -0.100536 0.820866 0
M  V30 3816 H 359.786 0.553322 1.60426 0
M  V30 3817 H 358.558 0.957214 3.79412 0
M  V30 3818 H 358.181 -0.754292 3.9038 0
M  V30 3819 N 359.178 -1.55987 0.224894 0
M  V30 3820 C 360.141 -2.19178 -0.670348 0
M  V30 3821 C 361.141 -1.15461 -1.11917 0
M  V30 3822 O 362.331 -1.40675 -1.02743 0
M  V30 3823 C 359.463 -2.81777 -1.9187 0
M  V30 3824 H 360.656 -2.99662 -0.119364 0
M  V30 3825 H 358.209 -1.5628 -0.0247128 0
M  V30 3826 H 358.944 -2.05172 -2.51147 0
M  V30 3827 H 358.729 -3.57732 -1.60531 0
M  V30 3828 H 360.219 -3.30205 -2.55645 0
M  V30 3829 N 360.656 0.0484629 -1.57525 0
M  V30 3830 C 362.067 0.597486 -1.76881 0
M  V30 3831 C 362.418 1.76664 -0.853475 0
M  V30 3832 O 361.543 2.16357 -0.0433656 0
M  V30 3833 C 362.138 1.09066 -3.20765 0
M  V30 3834 C 360.697 1.58535 -3.41385 0
M  V30 3835 C 359.844 0.514868 -2.72478 0
M  V30 3836 H 362.795 -0.177758 -1.57701 0
M  V30 3837 H 362.816 1.95875 -3.2621 0
M  V30 3838 H 362.328 0.239521 -3.8736 0
M  V30 3839 H 360.429 2.45898 -2.79937 0
M  V30 3840 H 360.542 1.64622 -4.49929 0
M  V30 3841 H 358.906 0.965407 -2.35695 0
M  V30 3842 H 359.689 -0.32648 -3.41744 0
M  V30 3843 N 362.134 1.5431 0.320358 0
M  V30 3844 C 363.359 1.76954 1.08175 0
M  V30 3845 C 363.784 0.518193 1.80821 0
M  V30 3846 O 363.142 -0.530411 1.73368 0
M  V30 3847 C 363.19 2.96451 2.05303 0
M  V30 3848 O 362.294 2.68221 3.13259 0
M  V30 3849 H 361.635 0.586275 0.311733 0
M  V30 3850 H 364.165 2.01342 0.363676 0
M  V30 3851 H 364.175 3.23887 2.48116 0
M  V30 3852 H 362.85 3.87196 1.51829 0
M  V30 3853 H 361.427 2.51744 2.75099 0
M  V30 3854 N 363.613 -0.582584 1.46437 0
M  V30 3855 C 364.89 -1.34276 1.4223 0
M  V30 3856 C 365.27 -2.10835 0.10583 0
M  V30 3857 O 364.618 -2.09485 -0.912596 0
M  V30 3858 C 364.828 -2.26865 2.65204 0
M  V30 3859 C 366.176 -2.88691 3.11356 0
M  V30 3860 O 367.2 -2.37178 2.65753 0
M  V30 3861 O 366.059 -3.82255 3.90568 0
M  V30 3862 H 363.153 -0.603326 0.565621 0
M  V30 3863 H 365.699 -0.603591 1.58603 0
M  V30 3864 H 364.471 -1.69724 3.52576 0
M  V30 3865 H 364.094 -3.08122 2.5129 0
M  V30 3866 N 365.091 -1.34144 -0.827227 0
M  V30 3867 C 366.024 -1.19707 -1.94282 0
M  V30 3868 C 367.002 -0.0897256 -1.62352 0
M  V30 3869 O 368.186 -0.254095 -1.8678 0
M  V30 3870 C 365.313 -0.838646 -3.28153 0
M  V30 3871 C 364.359 -1.95514 -3.79047 0
M  V30 3872 S 365.192 -3.56793 -3.99323 0
M  V30 3873 C 366.348 -3.22983 -5.36127 0
M  V30 3874 H 366.581 -2.1414 -2.06231 0
M  V30 3875 H 364.114 -1.19121 -0.982321 0
M  V30 3876 H 366.072 -0.638637 -4.05502 0
M  V30 3877 H 364.733 0.0872776 -3.13979 0
M  V30 3878 H 363.926 -1.658 -4.75948 0
M  V30 3879 H 363.528 -2.11241 -3.08631 0
M  V30 3880 H 365.82 -2.74531 -6.19386 0
M  V30 3881 H 366.763 -4.19008 -5.70822 0
M  V30 3882 H 367.171 -2.59276 -5.01434 0
M  V30 3883 N 366.569 1.04691 -1.17803 0
M  V30 3884 C 367.799 1.81183 -0.992788 0
M  V30 3885 C 368.207 1.8347 0.462098 0
M  V30 3886 O 367.55 1.2643 1.33271 0
M  V30 3887 C 367.612 3.28363 -1.46349 0
M  V30 3888 C 367.276 3.49749 -2.94151 0
M  V30 3889 C 368.273 3.41456 -3.92051 0
M  V30 3890 C 365.958 3.76548 -3.32441 0
M  V30 3891 C 367.952 3.59656 -5.26238 0
M  V30 3892 C 365.639 3.94396 -4.66792 0
M  V30 3893 C 366.637 3.8595 -5.635 0
M  V30 3894 O 366.325 4.03294 -6.9542 0
M  V30 3895 H 366.057 0.577622 -0.351182 0
M  V30 3896 H 368.611 1.32876 -1.5663 0
M  V30 3897 H 366.841 3.77609 -0.833574 0
M  V30 3898 H 368.53 3.86395 -1.24313 0
M  V30 3899 H 369.296 3.20723 -3.63815 0
M  V30 3900 H 365.175 3.82224 -2.57732 0
M  V30 3901 H 368.719 3.52979 -6.01707 0
M  V30 3902 H 364.616 4.14622 -4.94731 0
M  V30 3903 H 365.384 4.2049 -7.02232 0
M  V30 3904 N 368.047 0.979072 1.23499 0
M  V30 3905 C 368.994 0.517904 2.24914 0
M  V30 3906 C 369.964 -0.442525 1.60097 0
M  V30 3907 O 371.149 -0.350365 1.87556 0
M  V30 3908 C 368.289 -0.174813 3.44657 0
M  V30 3909 C 367.402 0.825721 4.24035 0
M  V30 3910 C 366.537 0.107946 5.3109 0
M  V30 3911 C 365.576 1.09778 6.02175 0
M  V30 3912 N 364.713 0.40925 7.00906 0
M  V30 3913 H 369.553 1.38751 2.63727 0
M  V30 3914 H 367.09 0.695303 1.2963 0
M  V30 3915 H 369.048 -0.593233 4.12961 0
M  V30 3916 H 367.678 -1.0083 3.06648 0
M  V30 3917 H 366.73 1.36253 3.55161 0
M  V30 3918 H 368.042 1.58005 4.73113 0
M  V30 3919 H 367.196 -0.367904 6.05583 0
M  V30 3920 H 365.935 -0.678994 4.8295 0
M  V30 3921 H 364.94 1.5844 5.26476 0
M  V30 3922 H 366.165 1.88536 6.52404 0
M  V30 3923 H 364.111 -0.358506 6.5502 0
M  V30 3924 H 364.028 1.10226 7.47921 0
M  V30 3925 H 365.296 -0.0442557 7.79487 0
M  V30 3926 N 369.525 -1.3858 0.750561 0
M  V30 3927 C 370.774 -1.99424 0.302172 0
M  V30 3928 C 371.087 -1.60254 -1.12152 0
M  V30 3929 O 372.293 -2.14046 -1.67023 0
M  V30 3930 C 370.749 -3.56558 0.489307 0
M  V30 3931 C 370.357 -4.04682 1.92189 0
M  V30 3932 C 372.101 -4.24374 0.103478 0
M  V30 3933 C 370.008 -5.54446 2.05775 0
M  V30 3934 H 368.938 -0.746046 0.10923 0
M  V30 3935 H 371.589 -1.58383 0.92667 0
M  V30 3936 H 369.971 -3.95472 -0.204329 0
M  V30 3937 H 371.145 -3.77065 2.64875 0
M  V30 3938 H 369.46 -3.4958 2.26236 0
M  V30 3939 H 372.057 -5.34384 0.183787 0
M  V30 3940 H 372.4 -4.05468 -0.943481 0
M  V30 3941 H 372.933 -3.90688 0.748854 0
M  V30 3942 H 369.672 -5.78252 3.08714 0
M  V30 3943 H 369.192 -5.83816 1.37546 0
M  V30 3944 H 370.871 -6.20099 1.84626 0
M  V30 3945 N 371.003 -0.499398 -1.49478 0
M  V30 3946 C 371.936 0.326491 -2.25852 0
M  V30 3947 C 372.914 0.971776 -1.30366 0
M  V30 3948 O 374.098 1.00219 -1.59651 0
M  V30 3949 C 371.225 1.45969 -3.05632 0
M  V30 3950 C 370.271 0.928938 -4.16261 0
M  V30 3951 S 371.104 -0.179012 -5.35201 0
M  V30 3952 C 372.26 0.957389 -6.18534 0
M  V30 3953 H 372.493 -0.321746 -2.95554 0
M  V30 3954 H 370.026 -0.284674 -1.51753 0
M  V30 3955 H 371.984 2.109 -3.52181 0
M  V30 3956 H 370.645 2.07953 -2.35402 0
M  V30 3957 H 369.838 1.77813 -4.71592 0
M  V30 3958 H 369.44 0.356869 -3.72293 0
M  V30 3959 H 371.732 1.86296 -6.51383 0
M  V30 3960 H 372.675 0.442733 -7.06715 0
M  V30 3961 H 373.083 1.224 -5.5107 0
M  V30 3962 N 372.481 1.55866 -0.233164 0
M  V30 3963 C 373.428 2.20796 0.67215 0
M  V30 3964 C 374.398 1.16731 1.18166 0
M  V30 3965 O 375.583 1.45129 1.23864 0
M  V30 3966 C 372.723 2.90072 1.86955 0
M  V30 3967 C 371.836 4.08759 1.39786 0
M  V30 3968 C 370.971 4.65787 2.55374 0
M  V30 3969 C 370.01 5.76752 2.04998 0
M  V30 3970 N 369.147 6.28021 3.13901 0
M  V30 3971 H 373.987 2.9779 0.111749 0
M  V30 3972 H 371.524 1.47036 0.0434007 0
M  V30 3973 H 373.482 3.28428 2.57276 0
M  V30 3974 H 372.112 2.15575 2.40265 0
M  V30 3975 H 371.164 3.7581 0.589173 0
M  V30 3976 H 372.476 4.88906 0.98856 0
M  V30 3977 H 371.63 5.06646 3.33758 0
M  V30 3978 H 370.369 3.84828 2.99598 0
M  V30 3979 H 369.374 5.35383 1.25079 0
M  V30 3980 H 370.599 6.59553 1.61759 0
M  V30 3981 H 368.545 5.49971 3.57586 0
M  V30 3982 H 368.462 7.03323 2.7726 0
M  V30 3983 H 369.73 6.73538 3.92386 0
M  V30 3984 N 373.959 -0.0401083 1.57549 0
M  V30 3985 C 374.906 -1.04413 2.05831 0
M  V30 3986 C 375.876 -1.36585 0.945184 0
M  V30 3987 O 377.061 -1.47112 1.21502 0
M  V30 3988 C 374.201 -2.34336 2.53339 0
M  V30 3989 C 373.314 -2.08419 3.78398 0
M  V30 3990 C 372.449 -3.32133 4.14561 0
M  V30 3991 C 371.488 -3.01721 5.3257 0
M  V30 3992 N 370.625 -4.17855 5.64218 0
M  V30 3993 H 375.465 -0.625442 2.91363 0
M  V30 3994 H 373.002 -0.297218 1.44066 0
M  V30 3995 H 374.96 -3.10234 2.78946 0
M  V30 3996 H 373.59 -2.73948 1.7074 0
M  V30 3997 H 372.642 -1.23069 3.59942 0
M  V30 3998 H 373.954 -1.81978 4.64419 0
M  V30 3999 H 373.108 -4.16406 4.41238 0
M  V30 4000 H 371.847 -3.61678 3.2717 0
M  V30 4001 H 370.852 -2.15849 5.05657 0
M  V30 4002 H 372.077 -2.73466 6.21605 0
M  V30 4003 H 370.023 -4.47372 4.79786 0
M  V30 4004 H 369.94 -3.94798 6.44725 0
M  V30 4005 H 371.208 -5.03033 5.95465 0
M  V30 4006 N 375.437 -1.54477 -0.31217 0
M  V30 4007 C 376.4 -1.83923 -1.36766 0
M  V30 4008 C 377.4 -0.711563 -1.44199 0
M  V30 4009 O 378.59 -0.979866 -1.44029 0
M  V30 4010 C 375.722 -2.0095 -2.75376 0
M  V30 4011 H 376.915 -2.78239 -1.11906 0
M  V30 4012 H 374.468 -1.46369 -0.548257 0
M  V30 4013 H 375.203 -1.08883 -3.05475 0
M  V30 4014 H 374.988 -2.83018 -2.71373 0
M  V30 4015 H 376.478 -2.2514 -3.51713 0
M  V30 4016 N 376.915 0.57481 -1.46744 0
M  V30 4017 C 378.164 1.32898 -1.51727 0
M  V30 4018 C 378.477 1.948 -0.176692 0
M  V30 4019 O 379.683 2.71299 -0.104385 0
M  V30 4020 C 378.139 2.40901 -2.67385 0
M  V30 4021 C 377.747 1.85266 -4.07898 0
M  V30 4022 C 379.491 3.17609 -2.81646 0
M  V30 4023 C 377.398 2.90945 -5.14883 0
M  V30 4024 H 376.328 0.499631 -0.564699 0
M  V30 4025 H 378.979 0.612536 -1.72975 0
M  V30 4026 H 377.361 3.15379 -2.39483 0
M  V30 4027 H 378.535 1.17278 -4.45626 0
M  V30 4028 H 376.85 1.21199 -3.98371 0
M  V30 4029 H 379.447 3.96493 -3.58744 0
M  V30 4030 H 379.79 3.70696 -1.89448 0
M  V30 4031 H 380.323 2.50239 -3.09233 0
M  V30 4032 H 377.062 2.42736 -6.089 0
M  V30 4033 H 376.582 3.57398 -4.81691 0
M  V30 4034 H 378.261 3.54755 -5.41071 0
M  V30 4035 N 378.394 1.34581 0.820102 0
M  V30 4036 C 379.304 1.28471 1.96297 0
M  V30 4037 C 380.32 0.191902 1.72939 0
M  V30 4038 O 381.496 0.418879 1.96996 0
M  V30 4039 C 378.561 1.04281 3.30645 0
M  V30 4040 C 377.622 2.22745 3.66992 0
M  V30 4041 C 376.855 1.997 4.9493 0
M  V30 4042 O 377.078 0.956656 5.6232 0
M  V30 4043 O 376.012 2.86723 5.2922 0
M  V30 4044 H 379.838 2.24624 2.04396 0
M  V30 4045 H 377.423 1.14816 0.955913 0
M  V30 4046 H 379.305 0.925841 4.11104 0
M  V30 4047 H 377.98 0.111697 3.23507 0
M  V30 4048 H 376.887 2.40003 2.86966 0
M  V30 4049 H 378.22 3.14257 3.78819 0
M  V30 4050 N 379.872 -1.04064 1.18357 0
M  V30 4051 C 381.288 -1.2947 0.933258 0
M  V30 4052 C 381.488 -1.97466 -0.401169 0
M  V30 4053 O 380.544 -2.25528 -1.13549 0
M  V30 4054 C 381.857 -2.15337 2.09882 0
M  V30 4055 C 383.405 -2.28683 2.13712 0
M  V30 4056 C 383.88 -3.17917 3.29686 0
M  V30 4057 N 385.371 -3.25504 3.29547 0
M  V30 4058 C 386.106 -3.94706 4.15926 0
M  V30 4059 N 385.602 -4.66239 5.12439 0
M  V30 4060 N 387.395 -3.90986 4.0384 0
M  V30 4061 H 379.546 -0.583359 2.04232 0
M  V30 4062 H 381.809 -0.319921 0.892387 0
M  V30 4063 H 381.515 -1.72682 3.06389 0
M  V30 4064 H 381.389 -3.16015 2.05947 0
M  V30 4065 H 383.776 -2.70575 1.17784 0
M  V30 4066 H 383.857 -1.27596 2.21705 0
M  V30 4067 H 383.501 -2.76736 4.25887 0
M  V30 4068 H 383.431 -4.19036 3.1893 0
M  V30 4069 H 385.922 -2.74547 2.59677 0
M  V30 4070 H 386.235 -5.16638 5.74722 0
M  V30 4071 H 384.58 -4.65143 5.16398 0
M  V30 4072 H 387.771 -3.34234 3.27727 0
M  V30 4073 H 387.944 -4.44646 4.71375 0
M  V30 4074 N 381.35 -0.985608 -1.22978 0
M  V30 4075 C 382.598 -0.656087 -1.91154 0
M  V30 4076 C 382.919 0.813561 -1.77218 0
M  V30 4077 O 382.189 1.58244 -1.1548 0
M  V30 4078 H 380.769 -0.239674 -0.707506 0
M  V30 4079 H 383.431 -1.25054 -1.49491 0
M  V30 4080 H 382.527 -0.912253 -2.9847 0
M  V30 4081 N 382.828 1.3818 -0.7579 0
M  V30 4082 C 384.053 2.04827 -0.325679 0
M  V30 4083 C 384.478 1.56788 1.03919 0
M  V30 4084 O 383.836 0.721811 1.66312 0
M  V30 4085 C 383.884 3.58774 -0.362447 0
M  V30 4086 O 382.988 4.07372 0.642033 0
M  V30 4087 H 382.329 0.64833 -0.143402 0
M  V30 4088 H 384.859 1.7677 -1.03023 0
M  V30 4089 H 384.869 4.07434 -0.214844 0
M  V30 4090 H 383.544 3.93096 -1.35824 0
M  V30 4091 H 382.121 3.70068 0.458688 0
M  V30 4092 N 384.306 0.507319 1.49211 0
M  V30 4093 C 385.236 -0.256939 2.32082 0
M  V30 4094 C 386.217 -0.956609 1.40652 0
M  V30 4095 O 387.402 -0.946788 1.69557 0
M  V30 4096 C 384.532 -1.31802 3.21318 0
M  V30 4097 C 383.486 -0.737855 4.21592 0
M  V30 4098 C 382.812 -1.89992 4.99807 0
M  V30 4099 C 384.112 0.275325 5.21574 0
M  V30 4100 H 385.806 0.434798 2.96226 0
M  V30 4101 H 383.352 0.210546 1.42452 0
M  V30 4102 H 385.305 -1.86045 3.78107 0
M  V30 4103 H 384.029 -2.03903 2.5513 0
M  V30 4104 H 382.688 -0.217126 3.65956 0
M  V30 4105 H 382.336 -2.60877 4.30061 0
M  V30 4106 H 382.036 -1.51777 5.6766 0
M  V30 4107 H 383.56 -2.44657 5.59442 0
M  V30 4108 H 384.974 -0.179193 5.7302 0
M  V30 4109 H 383.371 0.573649 5.97352 0
M  V30 4110 H 384.441 1.18903 4.70096 0
M  V30 4111 N 385.784 -1.5574 0.241426 0
M  V30 4112 C 386.717 -2.17168 -0.700935 0
M  V30 4113 C 387.695 -1.12206 -1.1768 0
M  V30 4114 O 388.879 -1.40565 -1.25593 0
M  V30 4115 C 386.006 -2.76796 -1.95196 0
M  V30 4116 C 385.052 -3.94764 -1.61442 0
M  V30 4117 S 385.885 -5.30613 -0.72182 0
M  V30 4118 C 387.041 -5.93691 -1.98197 0
M  V30 4119 H 387.274 -2.96761 -0.178882 0
M  V30 4120 H 384.807 -1.54378 0.0259299 0
M  V30 4121 H 386.765 -3.11787 -2.67019 0
M  V30 4122 H 385.426 -1.9716 -2.44514 0
M  V30 4123 H 384.619 -4.35057 -2.54443 0
M  V30 4124 H 384.221 -3.61022 -0.976672 0
M  V30 4125 H 386.513 -6.10874 -2.92983 0
M  V30 4126 H 387.456 -6.89258 -1.62262 0
M  V30 4127 H 387.864 -5.22709 -2.13156 0
M  V30 4128 N 387.262 0.0317525 -1.57568 0
M  V30 4129 C 388.51 0.721676 -1.88776 0
M  V30 4130 C 388.831 1.76039 -0.838772 0
M  V30 4131 O 388.101 1.95482 0.127935 0
M  V30 4132 H 386.681 0.269534 -0.696678 0
M  V30 4133 H 389.343 -0.00165879 -1.949 0
M  V30 4134 H 388.439 1.21293 -2.87566 0
M  V30 4135 N 388.74 1.54641 0.303973 0
M  V30 4136 C 389.98 1.75516 1.04755 0
M  V30 4137 C 390.344 0.528211 1.84591 0
M  V30 4138 O 391.545 0.614645 2.61678 0
M  V30 4139 C 389.816 3.00685 1.93193 0
M  V30 4140 S 391.375 3.42549 2.74237 0
M  V30 4141 H 388.193 0.616987 0.353339 0
M  V30 4142 H 390.795 1.92842 0.321292 0
M  V30 4143 H 389.499 3.8811 1.33411 0
M  V30 4144 H 389.03 2.85937 2.70191 0
M  V30 4145 H 391.045 2.99386 3.95705 0
M  V30 4146 N 390.218 -0.567019 1.47046 0
M  V30 4147 C 391.443 -1.3551 1.57009 0
M  V30 4148 C 391.868 -1.86841 0.217259 0
M  V30 4149 O 391.226 -1.62435 -0.805268 0
M  V30 4150 C 391.274 -2.50777 2.5912 0
M  V30 4151 O 390.378 -3.52706 2.13711 0
M  V30 4152 H 389.719 -0.402919 0.52778 0
M  V30 4153 H 392.249 -0.686241 1.92748 0
M  V30 4154 H 392.259 -2.97481 2.79229 0
M  V30 4155 H 390.934 -2.12771 3.57353 0
M  V30 4156 H 389.511 -3.12374 2.03659 0
M  V30 4157 N 391.696 -1.35014 -0.812953 0
M  V30 4158 C 392.945 -1.27269 -1.56479 0
M  V30 4159 C 393.258 0.152771 -1.95002 0
M  V30 4160 O 394.464 0.352451 -2.69203 0
M  V30 4161 C 392.92 -2.23159 -2.82362 0
M  V30 4162 C 392.528 -3.71016 -2.511 0
M  V30 4163 C 394.272 -2.24342 -3.60376 0
M  V30 4164 C 392.179 -4.58746 -3.73237 0
M  V30 4165 H 391.109 -0.472829 -0.587324 0
M  V30 4166 H 393.76 -1.6024 -0.894171 0
M  V30 4167 H 392.142 -1.83151 -3.51101 0
M  V30 4168 H 393.316 -4.1962 -1.90409 0
M  V30 4169 H 391.631 -3.72378 -1.86343 0
M  V30 4170 H 394.228 -2.87107 -4.51081 0
M  V30 4171 H 394.571 -1.24542 -3.97234 0
M  V30 4172 H 395.104 -2.62846 -2.98591 0
M  V30 4173 H 391.843 -5.59521 -3.41492 0
M  V30 4174 H 391.363 -4.14871 -4.33176 0
M  V30 4175 H 393.042 -4.73852 -4.40537 0
M  V30 4176 N 393.175 1.03435 -1.18907 0
M  V30 4177 C 394.452 1.73778 -0.89781 0
M  V30 4178 C 394.832 2.02458 0.597832 0
M  V30 4179 O 394.18 1.67482 1.55441 0
M  V30 4180 C 394.39 3.01845 -1.75187 0
M  V30 4181 C 395.738 3.7546 -1.9828 0
M  V30 4182 O 396.762 3.11759 -1.72293 0
M  V30 4183 O 395.621 4.89966 -2.42065 0
M  V30 4184 H 392.715 0.75651 -0.334098 0
M  V30 4185 H 395.261 1.09444 -1.29693 0
M  V30 4186 H 394.033 2.76836 -2.76545 0
M  V30 4187 H 393.656 3.73919 -1.35167 0
M  V30 4188 N 394.653 0.992116 1.22453 0
M  V30 4189 C 395.93 0.583508 1.86694 0
M  V30 4190 C 396.31 -0.9392 1.89056 0
M  V30 4191 O 395.658 -1.82081 1.38053 0
M  V30 4192 C 395.868 1.20304 3.2761 0
M  V30 4193 C 397.216 1.30308 4.0411 0
M  V30 4194 O 398.24 1.15737 3.36873 0
M  V30 4195 O 397.099 1.53615 5.24466 0
M  V30 4196 H 394.193 0.198129 0.802916 0
M  V30 4197 H 396.739 1.08794 1.30238 0
M  V30 4198 H 395.511 2.24461 3.2052 0
M  V30 4199 H 395.134 0.684144 3.9167 0
M  V30 4200 N 396.131 -1.37776 0.765217 0
M  V30 4201 C 397.379 -1.99454 0.325943 0
M  V30 4202 C 397.7 -1.61049 -1.09947 0
M  V30 4203 O 396.97 -0.872821 -1.75381 0
M  V30 4204 H 395.55 -0.737697 0.117525 0
M  V30 4205 H 398.212 -1.68359 0.981895 0
M  V30 4206 H 397.308 -3.09547 0.398353 0
M  V30 4207 N 397.609 -0.515225 -1.4894 0
M  V30 4208 C 398.837 0.0206034 -2.0689 0
M  V30 4209 C 399.252 1.29514 -1.37374 0
M  V30 4210 O 398.609 1.76698 -0.456529 0
M  V30 4211 C 398.66 0.26351 -3.60538 0
M  V30 4212 O 398.381 -0.960517 -4.27441 0
M  V30 4213 C 399.882 0.841383 -4.35242 0
M  V30 4214 H 397.102 -0.0268608 -0.670462 0
M  V30 4215 H 399.646 -0.716651 -1.91532 0
M  V30 4216 H 397.801 0.950777 -3.75552 0
M  V30 4217 H 398.215 -0.73212 -5.19365 0
M  V30 4218 H 399.689 0.96085 -5.43573 0
M  V30 4219 H 400.166 1.8427 -3.98674 0
M  V30 4220 H 400.772 0.191143 -4.2487 0
M  V30 4221 N 399.087 1.5561 -0.249682 0
M  V30 4222 C 400.035 2.22894 0.664906 0
M  V30 4223 C 401.029 1.21743 1.17792 0
M  V30 4224 O 402.235 1.39748 1.13449 0
M  V30 4225 H 398.61 0.715022 0.232912 0
M  V30 4226 H 400.581 2.98307 0.0742998 0
M  V30 4227 C 399.33 2.94424 1.84959 0
M  V30 4228 H 398.653 3.72031 1.46399 0
M  V30 4229 H 400.093 3.44862 2.4667 0
M  V30 4230 C 398.552 1.98454 2.72245 0
M  V30 4231 O 399.082 1.51939 3.71857 0
M  V30 4232 N 397.288 1.65496 2.38871 0
M  V30 4233 H 396.835 2.03517 1.57919 0
M  V30 4234 H 396.793 1.0155 2.97548 0
M  V30 4235 N 400.565 -0.0233959 1.57583 0
M  V30 4236 C 401.498 -1.05549 2.02323 0
M  V30 4237 C 402.476 -1.34843 0.908626 0
M  V30 4238 O 403.66 -1.47404 1.17491 0
M  V30 4239 C 400.787 -2.38885 2.40108 0
M  V30 4240 C 399.833 -2.2541 3.62067 0
M  V30 4241 S 400.666 -1.60217 5.1097 0
M  V30 4242 C 401.822 -2.95032 5.52003 0
M  V30 4243 H 402.055 -0.674435 2.89549 0
M  V30 4244 H 399.588 -0.23355 1.52623 0
M  V30 4245 H 401.546 -3.15562 2.62547 0
M  V30 4246 H 400.207 -2.74137 1.53323 0
M  V30 4247 H 399.4 -3.23854 3.86179 0
M  V30 4248 H 399.002 -1.56876 3.39508 0
M  V30 4249 H 401.294 -3.91357 5.53033 0
M  V30 4250 H 402.237 -2.75646 6.52246 0
M  V30 4251 H 402.645 -2.97865 4.79517 0
M  V30 4252 N 402.043 -1.548 -0.295768 0
M  V30 4253 C 403.271 -1.78327 -1.04914 0
M  V30 4254 C 403.686 -0.545316 -1.80753 0
M  V30 4255 O 403.043 0.485013 -1.75937 0
M  V30 4256 C 403.094 -2.99418 -2.02561 0
M  V30 4257 O 402.815 -4.18431 -1.29798 0
M  V30 4258 C 404.316 -3.35375 -2.89895 0
M  V30 4259 H 401.536 -0.594618 -0.310918 0
M  V30 4260 H 404.08 -2.01763 -0.333454 0
M  V30 4261 H 402.235 -2.78175 -2.69624 0
M  V30 4262 H 402.649 -4.86736 -1.95419 0
M  V30 4263 H 404.123 -4.23332 -3.54251 0
M  V30 4264 H 404.6 -2.53761 -3.58472 0
M  V30 4265 H 405.206 -3.58796 -2.28355 0
M  V30 4266 N 403.521 0.559213 -1.47345 0
M  V30 4267 C 404.751 1.33999 -1.57251 0
M  V30 4268 C 405.159 1.87905 -0.220978 0
M  V30 4269 O 404.502 1.65577 0.795617 0
M  V30 4270 C 404.564 2.54798 -2.53611 0
M  V30 4271 C 404.228 2.22192 -3.99349 0
M  V30 4272 C 405.225 1.79607 -4.87891 0
M  V30 4273 C 402.91 2.33613 -4.44669 0
M  V30 4274 C 404.904 1.48868 -6.19772 0
M  V30 4275 C 402.591 2.02487 -5.76578 0
M  V30 4276 C 403.589 1.60183 -6.63951 0
M  V30 4277 O 403.277 1.29451 -7.93409 0
M  V30 4278 H 403.009 0.414858 -0.533731 0
M  V30 4279 H 405.563 0.684465 -1.9366 0
M  V30 4280 H 403.793 3.23235 -2.12265 0
M  V30 4281 H 405.482 3.16873 -2.53666 0
M  V30 4282 H 406.248 1.70278 -4.54126 0
M  V30 4283 H 402.127 2.65501 -3.76869 0
M  V30 4284 H 405.671 1.15775 -6.87926 0
M  V30 4285 H 401.568 2.11448 -6.09885 0
M  V30 4286 H 402.336 1.43098 -8.05894 0
M  V30 4287 N 404.999 1.35443 0.805782 0
M  V30 4288 C 406.247 1.28507 1.55982 0
M  V30 4289 C 406.568 -0.140046 1.94496 0
M  V30 4290 O 405.838 -1.07666 1.63661 0
M  V30 4291 H 404.418 0.472676 0.578434 0
M  V30 4292 H 407.08 1.69555 0.961098 0
M  V30 4293 H 406.176 1.90148 2.47488 0
M  V30 4294 N 406.477 -1.02803 1.19454 0
M  V30 4295 C 407.705 -1.79841 1.02297 0
M  V30 4296 C 408.12 -1.83879 -0.428259 0
M  V30 4297 O 407.477 -1.28345 -1.29745 0
M  V30 4298 C 407.528 -3.24852 1.58598 0
M  V30 4299 O 407.249 -3.21097 2.98041 0
M  V30 4300 C 408.75 -4.18485 1.46236 0
M  V30 4301 H 405.97 -0.565936 0.360496 0
M  V30 4302 H 408.514 -1.2948 1.58288 0
M  V30 4303 H 406.669 -3.72401 1.06753 0
M  V30 4304 H 407.083 -4.12033 3.24545 0
M  V30 4305 H 408.557 -5.18121 1.90407 0
M  V30 4306 H 409.034 -4.37254 0.41301 0
M  V30 4307 H 409.64 -3.76811 1.97215 0
M  V30 4308 N 407.956 -0.998596 -1.21925 0
M  V30 4309 C 409.181 -0.696015 -1.95372 0
M  V30 4310 C 409.606 0.733826 -1.73195 0
M  V30 4311 O 408.964 1.50242 -1.01474 0
M  V30 4312 C 409.012 -1.01466 -3.4603 0
M  V30 4313 O 408.116 -0.116415 -4.12236 0
M  V30 4314 H 407.457 -0.259938 -0.611006 0
M  V30 4315 H 409.987 -1.33711 -1.54863 0
M  V30 4316 H 409.997 -0.958855 -3.96573 0
M  V30 4317 H 408.672 -2.05653 -3.61497 0
M  V30 4318 H 407.249 -0.228193 -3.72201 0
M  V30 4319 N 409.434 1.37368 -0.772513 0
M  V30 4320 C 410.845 1.8231 -0.402493 0
M  V30 4321 C 411.196 1.6436 1.07146 0
M  V30 4322 O 410.321 1.15514 1.82991 0
M  V30 4323 C 410.916 3.30979 -0.723776 0
M  V30 4324 C 409.475 3.74195 -0.406802 0
M  V30 4325 C 408.622 2.59885 -0.967218 0
M  V30 4326 H 411.573 1.25829 -0.967099 0
M  V30 4327 H 411.594 3.80499 -0.00870832 0
M  V30 4328 H 411.106 3.44011 -1.7966 0
M  V30 4329 H 409.207 3.66732 0.658673 0
M  V30 4330 H 409.32 4.7027 -0.915588 0
M  V30 4331 H 407.684 2.51674 -0.391416 0
M  V30 4332 H 408.467 2.7571 -2.04546 0
M  V30 4333 N 410.912 0.523116 1.48665 0
M  V30 4334 C 412.137 -0.0117284 2.07397 0
M  V30 4335 C 412.562 -1.28031 1.37803 0
M  V30 4336 O 411.92 -1.75836 0.441762 0
M  V30 4337 C 411.968 -0.225786 3.59892 0
M  V30 4338 O 411.072 -1.29592 3.91509 0
M  V30 4339 H 410.413 0.0360673 0.66302 0
M  V30 4340 H 412.943 0.729066 1.9117 0
M  V30 4341 H 412.953 -0.450552 4.05505 0
M  V30 4342 H 411.628 0.700944 4.09951 0
M  V30 4343 H 410.205 -1.05436 3.57684 0
M  V30 4344 N 412.39 -1.55475 0.257931 0
M  V30 4345 C 413.638 -1.98813 -0.363009 0
M  V30 4346 C 413.959 -1.14757 -1.57657 0
M  V30 4347 O 413.229 -0.232956 -1.9451 0
M  V30 4348 H 411.809 -0.734308 -0.137113 0
M  V30 4349 H 414.471 -1.9156 0.359281 0
M  V30 4350 H 413.567 -3.04941 -0.664634 0
M  V30 4351 N 413.868 0.0150385 -1.57593 0
M  V30 4352 C 414.798 1.01047 -2.10503 0
M  V30 4353 C 415.779 1.36816 -1.01071 0
M  V30 4354 O 416.964 1.45455 -1.28672 0
M  V30 4355 C 414.094 2.30708 -2.59598 0
M  V30 4356 C 413.048 2.09142 -3.73421 0
M  V30 4357 C 412.374 3.44685 -4.08774 0
M  V30 4358 C 413.674 1.46619 -5.01298 0
M  V30 4359 H 415.368 0.569978 -2.93925 0
M  V30 4360 H 412.914 0.272724 -1.41394 0
M  V30 4361 H 414.867 3.00687 -2.95238 0
M  V30 4362 H 413.591 2.76843 -1.73279 0
M  V30 4363 H 412.25 1.41592 -3.38153 0
M  V30 4364 H 411.898 3.88495 -3.195 0
M  V30 4365 H 411.598 3.31077 -4.8545 0
M  V30 4366 H 413.122 4.16004 -4.4696 0
M  V30 4367 H 414.536 2.06535 -5.34805 0
M  V30 4368 H 412.933 1.43544 -5.82679 0
M  V30 4369 H 414.003 0.433611 -4.82957 0
M  V30 4370 N 415.346 1.54954 0.287554 0
M  V30 4371 C 416.294 1.87606 1.37502 0
M  V30 4372 C 417.288 0.751001 1.51843 0
M  V30 4373 O 418.494 0.935169 1.53801 0
M  V30 4374 H 414.869 0.595231 0.459569 0
M  V30 4375 H 416.84 2.78477 1.07206 0
M  V30 4376 C 415.589 2.15183 2.73115 0
M  V30 4377 H 414.912 3.01234 2.62866 0
M  V30 4378 H 416.352 2.4196 3.48183 0
M  V30 4379 C 414.811 0.954686 3.2309 0
M  V30 4380 O 415.341 0.181949 4.01288 0
M  V30 4381 N 413.547 0.756368 2.80584 0
M  V30 4382 H 413.094 1.38643 2.17108 0
M  V30 4383 H 413.052 -0.0430391 3.14371 0
M  V30 4384 N 416.824 -0.551391 1.4764 0
M  V30 4385 C 417.757 -1.6738 1.5511 0
M  V30 4386 C 418.735 -1.5753 0.402856 0
M  V30 4387 O 419.919 -1.78307 0.611475 0
M  V30 4388 C 417.046 -3.05661 1.45908 0
M  V30 4389 C 416.092 -3.33938 2.65307 0
M  V30 4390 S 416.925 -3.22553 4.27457 0
M  V30 4391 C 418.081 -4.63317 4.20818 0
M  V30 4392 H 418.314 -1.6079 2.50068 0
M  V30 4393 H 415.847 -0.732674 1.35909 0
M  V30 4394 H 417.805 -3.8542 1.41286 0
M  V30 4395 H 416.466 -3.09711 0.523248 0
M  V30 4396 H 415.659 -4.34761 2.54948 0
M  V30 4397 H 415.261 -2.61809 2.67081 0
M  V30 4398 H 417.553 -5.54391 3.89431 0
M  V30 4399 H 418.496 -4.78732 5.21748 0
M  V30 4400 H 418.904 -4.41636 3.51593 0
M  V30 4401 N 418.302 -1.35869 -0.798587 0
M  V30 4402 C 419.55 -1.29332 -1.55298 0
M  V30 4403 C 419.871 0.129729 -1.94568 0
M  V30 4404 O 419.141 1.06796 -1.6423 0
M  V30 4405 H 417.721 -0.475737 -0.57592 0
M  V30 4406 H 420.383 -1.70062 -0.952093 0
M  V30 4407 H 419.479 -1.91458 -2.46476 0
M  V30 4408 N 419.78 1.02168 -1.19998 0
M  V30 4409 C 420.69 2.14069 -0.959774 0
M  V30 4410 C 421.706 1.73804 0.082655 0
M  V30 4411 O 422.882 2.01133 -0.103633 0
M  V30 4412 C 419.947 3.42936 -0.509459 0
M  V30 4413 C 419.008 3.97474 -1.62213 0
M  V30 4414 C 418.241 5.2019 -1.19321 0
M  V30 4415 O 418.464 5.70369 -0.0597726 0
M  V30 4416 O 417.398 5.67749 -1.99863 0
M  V30 4417 H 421.224 2.37199 -1.89658 0
M  V30 4418 H 418.809 1.12469 -0.983411 0
M  V30 4419 H 420.691 4.20551 -0.267322 0
M  V30 4420 H 419.366 3.21234 0.398821 0
M  V30 4421 H 418.273 3.21161 -1.9185 0
M  V30 4422 H 419.606 4.23555 -2.50723 0
M  V30 4423 N 421.258 1.00505 1.21394 0
M  V30 4424 C 422.188 0.585684 2.26035 0
M  V30 4425 C 423.169 -0.393525 1.65485 0
M  V30 4426 O 424.354 -0.281497 1.92149 0
M  V30 4427 C 421.484 -0.0884283 3.47187 0
M  V30 4428 C 420.438 0.810567 4.20254 0
M  V30 4429 C 419.764 0.00286382 5.347 0
M  V30 4430 C 421.064 2.1132 4.77641 0
M  V30 4431 H 422.758 1.46039 2.61368 0
M  V30 4432 H 420.304 0.703648 1.25638 0
M  V30 4433 H 422.257 -0.393286 4.19561 0
M  V30 4434 H 420.981 -0.997766 3.10986 0
M  V30 4435 H 419.64 1.09925 3.49731 0
M  V30 4436 H 419.288 -0.907765 4.94741 0
M  V30 4437 H 418.988 0.601444 5.84514 0
M  V30 4438 H 420.512 -0.295808 6.09883 0
M  V30 4439 H 421.926 1.87148 5.41893 0
M  V30 4440 H 420.323 2.66164 5.37845 0
M  V30 4441 H 421.393 2.78393 3.9702 0
M  V30 4442 N 422.737 -1.36956 0.779787 0
M  V30 4443 C 423.986 -1.98738 0.344405 0
M  V30 4444 C 424.299 -1.62596 -1.08728 0
M  V30 4445 O 425.505 -2.1754 -1.62445 0
M  V30 4446 C 423.961 -3.5544 0.564829 0
M  V30 4447 C 423.569 -4.00514 2.0073 0
M  V30 4448 C 425.313 -4.24059 0.193471 0
M  V30 4449 C 423.22 -5.49957 2.17489 0
M  V30 4450 H 422.15 -0.743561 0.12503 0
M  V30 4451 H 424.801 -1.56381 0.960057 0
M  V30 4452 H 423.183 -3.95817 -0.120397 0
M  V30 4453 H 424.357 -3.71362 2.72814 0
M  V30 4454 H 422.672 -3.44703 2.336 0
M  V30 4455 H 425.269 -5.33874 0.297097 0
M  V30 4456 H 425.612 -4.07378 -0.857263 0
M  V30 4457 H 426.145 -3.89012 0.831556 0
M  V30 4458 H 422.884 -5.71574 3.2091 0
M  V30 4459 H 422.404 -5.80767 1.49899 0
M  V30 4460 H 424.083 -6.16043 1.97738 0
M  V30 4461 N 424.215 -0.530993 -1.48385 0
M  V30 4462 C 425.178 0.220497 -2.28137 0
M  V30 4463 C 426.178 0.866851 -1.35434 0
M  V30 4464 O 427.368 0.726746 -1.58316 0
M  V30 4465 C 424.5 1.31921 -3.1434 0
M  V30 4466 H 425.693 -0.479714 -2.96038 0
M  V30 4467 H 423.246 -0.286968 -1.53643 0
M  V30 4468 H 423.981 2.05264 -2.51072 0
M  V30 4469 H 423.766 0.86085 -3.82533 0
M  V30 4470 H 425.256 1.84776 -3.74497 0
M  V30 4471 N 425.693 1.55336 -0.266172 0
M  V30 4472 C 427.109 1.59356 0.0882065 0
M  V30 4473 C 427.309 1.2834 1.55342 0
M  V30 4474 O 426.365 1.03996 2.30089 0
M  V30 4475 C 427.678 2.99409 -0.278364 0
M  V30 4476 C 429.226 3.12196 -0.224243 0
M  V30 4477 C 429.701 4.545 -0.565123 0
M  V30 4478 N 431.192 4.60313 -0.51634 0
M  V30 4479 C 431.927 5.68434 -0.753013 0
M  V30 4480 N 431.423 6.84738 -1.05383 0
M  V30 4481 N 433.216 5.57942 -0.682414 0
M  V30 4482 H 425.367 1.73764 -1.22147 0
M  V30 4483 H 427.63 0.809822 -0.492841 0
M  V30 4484 H 427.336 3.2691 -1.29703 0
M  V30 4485 H 427.21 3.75228 0.385186 0
M  V30 4486 H 429.597 2.84464 0.78512 0
M  V30 4487 H 429.678 2.38609 -0.921922 0
M  V30 4488 H 429.322 4.82956 -1.57213 0
M  V30 4489 H 429.252 5.26374 0.154248 0
M  V30 4490 H 431.743 3.7676 -0.29335 0
M  V30 4491 H 432.056 7.63088 -1.22133 0
M  V30 4492 H 430.401 6.86375 -1.09151 0
M  V30 4493 H 433.592 4.65958 -0.44731 0
M  V30 4494 H 433.765 6.4213 -0.870248 0
M  V30 4495 N 427.171 -0.0066808 1.57599 0
M  V30 4496 C 428.104 -1.03397 2.03431 0
M  V30 4497 C 429.082 -1.33872 0.922877 0
M  V30 4498 O 430.266 -1.4615 1.19048 0
M  V30 4499 C 427.393 -2.36325 2.42628 0
M  V30 4500 C 426.439 -2.21557 3.64438 0
M  V30 4501 S 427.272 -1.54789 5.12641 0
M  V30 4502 C 428.428 -2.8916 5.55101 0
M  V30 4503 H 428.661 -0.643687 2.90248 0
M  V30 4504 H 426.194 -0.217349 1.52863 0
M  V30 4505 H 428.152 -3.12759 2.65879 0
M  V30 4506 H 426.813 -2.72495 1.56222 0
M  V30 4507 H 426.006 -3.1974 3.89592 0
M  V30 4508 H 425.608 -1.53267 3.41153 0
M  V30 4509 H 427.9 -3.8547 5.57153 0
M  V30 4510 H 428.843 -2.68713 6.55133 0
M  V30 4511 H 429.251 -2.92762 4.82649 0
M  V30 4512 N 428.649 -1.55105 -0.279332 0
M  V30 4513 C 429.895 -1.75672 -1.01327 0
M  V30 4514 C 430.228 -0.552739 -1.86168 0
M  V30 4515 O 429.503 0.449827 -1.89227 0
M  V30 4516 C 429.786 -3.05825 -1.90114 0
M  V30 4517 C 429.639 -4.36565 -1.08309 0
M  V30 4518 C 430.958 -3.31975 -2.8893 0
M  V30 4519 H 428.077 -0.639149 -0.366957 0
M  V30 4520 H 430.719 -1.87833 -0.286154 0
M  V30 4521 H 428.869 -2.95588 -2.52111 0
M  V30 4522 H 430.541 -4.58751 -0.484314 0
M  V30 4523 H 428.784 -4.32076 -0.386362 0
M  V30 4524 H 429.455 -5.23946 -1.73737 0
M  V30 4525 H 431.931 -3.41963 -2.37067 0
M  V30 4526 H 430.807 -4.2432 -3.48201 0
M  V30 4527 H 431.068 -2.51309 -3.63725 0
M  V30 4528 N 430.127 0.543554 -1.4793 0
M  V30 4529 C 431.543 0.870806 -1.3375 0
M  V30 4530 C 431.743 1.9864 -0.338261 0
M  V30 4531 O 430.799 2.51305 0.245371 0
M  V30 4532 C 432.112 1.25114 -2.73435 0
M  V30 4533 C 433.66 1.3618 -2.81823 0
M  V30 4534 C 434.135 1.77563 -4.22179 0
M  V30 4535 N 435.626 1.8469 -4.24787 0
M  V30 4536 C 436.361 2.18067 -5.30315 0
M  V30 4537 N 435.857 2.49963 -6.46135 0
M  V30 4538 N 437.65 2.18958 -5.17701 0
M  V30 4539 H 429.801 -0.19275 -2.11524 0
M  V30 4540 H 432.064 -0.0235777 -0.947707 0
M  V30 4541 H 431.77 0.50514 -3.48053 0
M  V30 4542 H 431.644 2.20431 -3.06088 0
M  V30 4543 H 434.031 2.09859 -2.07468 0
M  V30 4544 H 434.112 0.390169 -2.52807 0
M  V30 4545 H 433.756 1.04449 -4.97044 0
M  V30 4546 H 433.686 2.75753 -4.48629 0
M  V30 4547 H 436.177 1.62372 -3.41239 0
M  V30 4548 H 436.49 2.74497 -7.22406 0
M  V30 4549 H 434.835 2.47513 -6.49432 0
M  V30 4550 H 438.026 1.93488 -4.2624 0
M  V30 4551 H 438.199 2.44639 -6.00047 0
M  V30 4552 N 431.605 1.3629 0.791371 0
M  V30 4553 C 432.553 1.30514 1.92533 0
M  V30 4554 C 433.547 0.197285 1.68247 0
M  V30 4555 O 434.753 0.364176 1.76278 0
M  V30 4556 H 431.128 0.406263 0.632815 0
M  V30 4557 H 433.099 2.26282 1.94523 0
M  V30 4558 C 431.848 1.10933 3.29529 0
M  V30 4559 H 431.171 1.95427 3.48781 0
M  V30 4560 H 432.611 1.10937 4.0923 0
M  V30 4561 C 431.07 -0.186123 3.36385 0
M  V30 4562 O 431.6 -1.17664 3.84081 0
M  V30 4563 N 429.806 -0.230128 2.89687 0
M  V30 4564 H 429.353 0.576545 2.51065 0
M  V30 4565 H 429.311 -1.09658 2.94657 0
M  V30 4566 N 433.083 -1.0153 1.20538 0
M  V30 4567 C 434.016 -2.09759 0.898695 0
M  V30 4568 C 434.994 -1.61909 -0.149733 0
M  V30 4569 O 436.178 -1.88486 -0.0230293 0
M  V30 4570 C 433.305 -3.36913 0.347512 0
M  V30 4571 C 432.351 -4.03655 1.37713 0
M  V30 4572 S 433.184 -4.47402 2.94265 0
M  V30 4573 C 434.34 -5.77756 2.40726 0
M  V30 4574 H 434.573 -2.3545 1.81523 0
M  V30 4575 H 432.106 -1.14665 1.03399 0
M  V30 4576 H 434.064 -4.10484 0.0360518 0
M  V30 4577 H 432.725 -3.09291 -0.547546 0
M  V30 4578 H 431.918 -4.9514 0.940872 0
M  V30 4579 H 431.52 -3.36313 1.63614 0
M  V30 4580 H 433.812 -6.52994 1.80569 0
M  V30 4581 H 434.755 -6.2618 3.30612 0
M  V30 4582 H 435.163 -5.34081 1.82806 0
M  V30 4583 N 434.561 -1.01147 -1.20859 0
M  V30 4584 C 435.838 -0.613136 -1.85742 0
M  V30 4585 C 436.218 0.909004 -1.90526 0
M  V30 4586 O 435.566 1.79862 -1.40932 0
M  V30 4587 C 435.776 -1.255 -3.25654 0
M  V30 4588 C 437.124 -1.3672 -4.01986 0
M  V30 4589 O 438.148 -1.21082 -3.34989 0
M  V30 4590 O 437.007 -1.6194 -5.21956 0
M  V30 4591 H 434.101 -0.210878 -0.799662 0
M  V30 4592 H 436.647 -1.10853 -1.2849 0
M  V30 4593 H 435.419 -2.29532 -3.16908 0
M  V30 4594 H 435.042 -0.746369 -3.90532 0
M  V30 4595 N 436.039 1.36541 -0.78704 0
M  V30 4596 C 436.987 2.31965 -0.171724 0
M  V30 4597 C 437.981 1.55689 0.667631 0
M  V30 4598 O 439.187 1.70969 0.562981 0
M  V30 4599 H 435.562 0.751101 -0.0367545 0
M  V30 4600 H 437.533 2.81428 -0.992017 0
M  V30 4601 C 436.282 3.40968 0.680904 0
M  V30 4602 H 435.605 3.99775 0.0443961 0
M  V30 4603 H 437.045 4.10063 1.07815 0
M  V30 4604 C 435.504 2.82338 1.83813 0
M  V30 4605 O 436.034 2.74311 2.93456 0
M  V30 4606 N 434.24 2.39661 1.6435 0
M  V30 4607 H 433.787 2.46389 0.751668 0
M  V30 4608 H 433.745 2.00779 2.4194 0
M  V30 4609 N 437.518 0.538854 1.48102 0
M  V30 4610 C 438.743 0.0102694 2.07397 0
M  V30 4611 C 439.168 -1.26562 1.39153 0
M  V30 4612 O 438.526 -1.75357 0.460387 0
M  V30 4613 C 438.574 -0.187602 3.60112 0
M  V30 4614 O 437.678 -1.25432 3.92862 0
M  V30 4615 H 437.019 0.0430975 0.6626 0
M  V30 4616 H 439.549 0.749301 1.90385 0
M  V30 4617 H 439.559 -0.407517 4.0596 0
M  V30 4618 H 438.234 0.744386 4.09184 0
M  V30 4619 H 436.811 -1.01636 3.58782 0
M  V30 4620 N 438.996 -1.55193 0.274407 0
M  V30 4621 C 439.926 -2.25471 -0.607032 0
M  V30 4622 C 440.907 -1.24461 -1.15946 0
M  V30 4623 O 442.092 -1.53179 -1.19373 0
M  V30 4624 C 439.222 -2.97526 -1.79153 0
M  V30 4625 C 438.176 -4.05459 -1.37067 0
M  V30 4626 C 437.502 -4.65084 -2.6382 0
M  V30 4627 C 438.802 -5.19691 -0.521389 0
M  V30 4628 H 440.496 -2.99393 -0.0209343 0
M  V30 4629 H 438.042 -1.43997 -0.00862866 0
M  V30 4630 H 439.995 -3.45402 -2.41404 0
M  V30 4631 H 438.719 -2.21138 -2.40344 0
M  V30 4632 H 437.378 -3.58393 -0.771355 0
M  V30 4633 H 437.026 -3.85365 -3.23268 0
M  V30 4634 H 436.726 -5.37961 -2.36372 0
M  V30 4635 H 438.25 -5.15708 -3.26921 0
M  V30 4636 H 439.664 -5.63623 -1.04889 0
M  V30 4637 H 438.061 -5.99126 -0.341825 0
M  V30 4638 H 439.131 -4.82713 0.46 0
M  V30 4639 N 440.474 -0.00167713 -1.576 0
M  V30 4640 C 441.404 0.988091 -2.11563 0
M  V30 4641 C 442.385 1.35736 -1.02517 0
M  V30 4642 O 443.57 1.44082 -1.30208 0
M  V30 4643 C 440.7 2.27941 -2.62031 0
M  V30 4644 C 439.654 2.0517 -3.75619 0
M  V30 4645 C 438.98 3.4033 -4.12407 0
M  V30 4646 C 440.28 1.41294 -5.02825 0
M  V30 4647 H 441.974 0.538771 -2.94513 0
M  V30 4648 H 439.52 0.257712 -1.41675 0
M  V30 4649 H 441.473 2.97539 -2.9841 0
M  V30 4650 H 440.197 2.74989 -1.76205 0
M  V30 4651 H 438.856 1.37998 -3.39635 0
M  V30 4652 H 438.504 3.85085 -3.23603 0
M  V30 4653 H 438.204 3.25909 -4.88935 0
M  V30 4654 H 439.728 4.1124 -4.51347 0
M  V30 4655 H 441.142 2.00851 -5.36965 0
M  V30 4656 H 439.539 1.37356 -5.84169 0
M  V30 4657 H 440.609 0.382362 -4.8339 0
M  V30 4658 N 441.952 1.55251 0.271103 0
M  V30 4659 C 442.884 1.84675 1.35749 0
M  V30 4660 C 443.897 0.731366 1.45447 0
M  V30 4661 O 445.086 1.00924 1.4723 0
M  V30 4662 C 442.186 1.99638 2.73857 0
M  V30 4663 C 441.359 3.30312 2.86727 0
M  V30 4664 C 440.418 3.35318 4.05522 0
M  V30 4665 O 439.444 4.08682 3.96191 0
M  V30 4666 N 440.646 2.62857 5.17577 0
M  V30 4667 H 443.411 2.78445 1.10853 0
M  V30 4668 H 440.972 1.55191 0.461218 0
M  V30 4669 H 442.964 2.00355 3.51625 0
M  V30 4670 H 441.534 1.12725 2.91568 0
M  V30 4671 H 440.754 3.42118 1.95829 0
M  V30 4672 H 442.042 4.16488 2.92258 0
M  V30 4673 H 441.44 2.02939 5.28046 0
M  V30 4674 H 439.997 2.69295 5.93568 0
M  V30 4675 N 443.43 -0.535701 1.48216 0
M  V30 4676 C 444.707 -1.29683 1.46429 0
M  V30 4677 C 445.087 -2.10391 0.172852 0
M  V30 4678 O 444.435 -2.12282 -0.845488 0
M  V30 4679 C 444.645 -2.18313 2.72287 0
M  V30 4680 C 445.993 -2.78639 3.20383 0
M  V30 4681 O 447.017 -2.28604 2.73164 0
M  V30 4682 O 445.876 -3.69636 4.02531 0
M  V30 4683 H 442.97 -0.585026 0.584529 0
M  V30 4684 H 445.516 -0.552827 1.60443 0
M  V30 4685 H 444.288 -1.58421 3.57797 0
M  V30 4686 H 443.911 -2.99971 2.60966 0
M  V30 4687 N 444.908 -1.36708 -0.784132 0
M  V30 4688 C 446.133 -1.34565 -1.5782 0
M  V30 4689 C 446.558 0.0695257 -1.87971 0
M  V30 4690 O 445.916 1.04302 -1.48293 0
M  V30 4691 C 445.964 -2.17952 -2.87279 0
M  V30 4692 O 445.068 -1.57563 -3.81114 0
M  V30 4693 H 444.409 -0.460337 -0.478524 0
M  V30 4694 H 446.939 -1.80064 -0.971495 0
M  V30 4695 H 446.949 -2.30721 -3.365 0
M  V30 4696 H 445.624 -3.20823 -2.64661 0
M  V30 4697 H 444.201 -1.53764 -3.39722 0
M  V30 4698 N 446.386 1.0089 -1.21074 0
M  V30 4699 C 447.663 1.71834 -0.934469 0
M  V30 4700 C 448.043 2.0368 0.554753 0
M  V30 4701 O 447.391 1.70742 1.51854 0
M  V30 4702 C 447.601 2.98061 -1.8155 0
M  V30 4703 C 448.949 3.7117 -2.06199 0
M  V30 4704 O 449.973 3.08034 -1.78867 0
M  V30 4705 O 448.832 4.84721 -2.52404 0
M  V30 4706 H 445.926 0.749253 -0.35007 0
M  V30 4707 H 448.472 1.06668 -1.31985 0
M  V30 4708 H 447.244 2.70908 -2.82355 0
M  V30 4709 H 446.867 3.70968 -1.43068 0
M  V30 4710 N 447.864 1.01787 1.20321 0
M  V30 4711 C 448.794 0.609625 2.25401 0
M  V30 4712 C 449.775 -0.375951 1.65893 0
M  V30 4713 O 450.96 -0.261101 1.92437 0
M  V30 4714 C 448.09 -0.0515995 3.47262 0
M  V30 4715 C 447.044 0.855095 4.19371 0
M  V30 4716 C 446.37 0.0595757 5.34667 0
M  V30 4717 C 447.67 2.16374 4.75373 0
M  V30 4718 H 449.364 1.48803 2.59804 0
M  V30 4719 H 446.91 0.716934 1.24884 0
M  V30 4720 H 448.863 -0.348764 4.19954 0
M  V30 4721 H 447.587 -0.964726 3.12027 0
M  V30 4722 H 446.246 1.13628 3.48546 0
M  V30 4723 H 445.894 -0.85524 4.95676 0
M  V30 4724 H 445.594 0.663406 5.83843 0
M  V30 4725 H 447.118 -0.231105 6.10162 0
M  V30 4726 H 448.532 1.92885 5.39878 0
M  V30 4727 H 446.929 2.71853 5.34991 0
M  V30 4728 H 447.999 2.82589 3.94045 0
M  V30 4729 N 449.342 -1.36122 0.79427 0
M  V30 4730 C 450.619 -1.93398 0.292685 0
M  V30 4731 C 450.999 -1.72567 -1.21589 0
M  V30 4732 O 450.347 -1.08745 -2.00965 0
M  V30 4733 C 450.557 -3.42099 0.690614 0
M  V30 4734 C 451.905 -4.19231 0.673105 0
M  V30 4735 O 452.929 -3.50559 0.631389 0
M  V30 4736 O 451.788 -5.41732 0.720362 0
M  V30 4737 H 448.882 -0.823712 0.0736693 0
M  V30 4738 H 451.428 -1.45273 0.87714 0
M  V30 4739 H 450.2 -3.50938 1.73085 0
M  V30 4740 H 449.823 -3.97519 0.0803036 0
M  V30 4741 N 450.82 -0.546701 -1.47814 0
M  V30 4742 C 452.231 -0.110564 -1.86372 0
M  V30 4743 C 452.582 1.31678 -1.45449 0
M  V30 4744 O 451.707 1.98889 -0.852758 0
M  V30 4745 C 452.302 -0.193873 -3.38245 0
M  V30 4746 C 450.861 0.187164 -3.75934 0
M  V30 4747 C 450.008 -0.546166 -2.71868 0
M  V30 4748 H 452.959 -0.757022 -1.39481 0
M  V30 4749 H 452.98 0.590218 -3.75895 0
M  V30 4750 H 452.492 -1.23282 -3.67999 0
M  V30 4751 H 450.593 1.22762 -3.51796 0
M  V30 4752 H 450.706 -0.164083 -4.78819 0
M  V30 4753 H 449.07 0.00953904 -2.54698 0
M  V30 4754 H 449.853 -1.58606 -3.04465 0
M  V30 4755 N 452.299 1.55045 -0.282633 0
M  V30 4756 C 453.715 1.59441 0.0712997 0
M  V30 4757 C 453.915 1.2998 1.53972 0
M  V30 4758 O 452.971 1.06431 2.28973 0
M  V30 4759 C 454.284 2.99097 -0.310104 0
M  V30 4760 C 455.832 3.1194 -0.257343 0
M  V30 4761 C 456.307 4.53875 -0.613297 0
M  V30 4762 N 457.798 4.5974 -0.565134 0
M  V30 4763 C 458.533 5.67603 -0.81326 0
M  V30 4764 N 458.029 6.83582 -1.1264 0
M  V30 4765 N 459.822 5.57187 -0.741553 0
M  V30 4766 H 451.973 1.72458 -1.23984 0
M  V30 4767 H 454.236 0.804549 -0.501403 0
M  V30 4768 H 453.942 3.25516 -1.33163 0
M  V30 4769 H 453.816 3.75616 0.345366 0
M  V30 4770 H 456.203 2.85281 0.754905 0
M  V30 4771 H 456.284 2.37618 -0.947178 0
M  V30 4772 H 455.928 4.81261 -1.62327 0
M  V30 4773 H 455.858 5.26508 0.09841 0
M  V30 4774 H 458.349 3.76427 -0.333294 0
M  V30 4775 H 458.662 7.6175 -1.30219 0
M  V30 4776 H 457.007 6.85179 -1.16425 0
M  V30 4777 H 460.198 4.65457 -0.496705 0
M  V30 4778 H 460.371 6.41171 -0.938306 0
M  V30 4779 N 453.777 0.010035 1.57597 0
M  V30 4780 C 455.025 -0.671371 1.90623 0
M  V30 4781 C 455.346 -1.73753 0.885151 0
M  V30 4782 O 454.616 -1.95752 -0.0760611 0
M  V30 4783 H 453.196 -0.250968 0.703579 0
M  V30 4784 H 455.858 0.0533325 1.94827 0
M  V30 4785 H 454.954 -1.13626 2.90681 0
M  V30 4786 N 455.255 -1.55392 -0.262866 0
M  V30 4787 C 456.48 -1.80847 -1.01533 0
M  V30 4788 C 456.905 -0.584946 -1.78774 0
M  V30 4789 O 456.263 0.465701 -1.75217 0
M  V30 4790 C 456.311 -3.03866 -1.94159 0
M  V30 4791 O 455.415 -2.79662 -3.03089 0
M  V30 4792 H 454.756 -0.597441 -0.289759 0
M  V30 4793 H 457.286 -2.02553 -0.288698 0
M  V30 4794 H 457.296 -3.32872 -2.35924 0
M  V30 4795 H 455.971 -3.92564 -1.37354 0
M  V30 4796 H 454.548 -2.61781 -2.65566 0
M  V30 4797 N 456.733 0.527833 -1.48498 0
M  V30 4798 C 458.01 1.28905 -1.47115 0
M  V30 4799 C 458.39 2.10297 -0.184007 0
M  V30 4800 O 457.738 2.12728 0.834218 0
M  V30 4801 C 457.948 2.16866 -2.73441 0
M  V30 4802 C 459.296 2.76936 -3.21857 0
M  V30 4803 O 460.32 2.27152 -2.74373 0
M  V30 4804 O 459.179 3.67496 -4.04486 0
M  V30 4805 H 456.273 0.581918 -0.587623 0
M  V30 4806 H 458.819 0.544311 -1.60734 0
M  V30 4807 H 457.591 1.56521 -3.58632 0
M  V30 4808 H 457.214 2.98583 -2.62553 0
M  V30 4809 N 458.211 1.37122 0.776871 0
M  V30 4810 C 459.121 1.34651 1.9211 0
M  V30 4811 C 460.137 0.246824 1.7224 0
M  V30 4812 O 461.313 0.48134 1.95563 0
M  V30 4813 C 458.378 1.14748 3.2716 0
M  V30 4814 C 457.439 2.34308 3.5972 0
M  V30 4815 C 456.672 2.15345 4.88326 0
M  V30 4816 O 456.895 1.13507 5.58992 0
M  V30 4817 O 455.829 3.03414 5.1983 0
M  V30 4818 H 459.655 2.31013 1.97146 0
M  V30 4819 H 457.24 1.17799 0.918901 0
M  V30 4820 H 459.122 1.05616 4.0795 0
M  V30 4821 H 457.797 0.214562 3.22988 0
M  V30 4822 H 456.704 2.49011 2.79185 0
M  V30 4823 H 458.037 3.26149 3.68629 0
M  V30 4824 N 459.689 -1.00246 1.21608 0
M  V30 4825 C 461.105 -1.26435 0.973975 0
M  V30 4826 C 461.305 -1.98642 -0.338143 0
M  V30 4827 O 460.361 -2.29026 -1.06317 0
M  V30 4828 C 461.674 -2.08551 2.16626 0
M  V30 4829 C 463.222 -2.21769 2.20879 0
M  V30 4830 C 463.697 -3.07267 3.39633 0
M  V30 4831 N 465.188 -3.14855 3.39736 0
M  V30 4832 C 465.923 -3.81274 4.28273 0
M  V30 4833 N 465.419 -4.497 5.27012 0
M  V30 4834 N 467.212 -3.7794 4.16074 0
M  V30 4835 H 459.363 -0.518089 2.05984 0
M  V30 4836 H 461.626 -0.291368 0.902113 0
M  V30 4837 H 461.332 -1.62847 3.11727 0
M  V30 4838 H 461.206 -3.09303 2.15897 0
M  V30 4839 H 463.593 -2.66691 1.26332 0
M  V30 4840 H 463.674 -1.20478 2.25652 0
M  V30 4841 H 463.318 -2.63047 4.34475 0
M  V30 4842 H 463.248 -4.08678 3.321 0
M  V30 4843 H 465.739 -2.66147 2.6828 0
M  V30 4844 H 466.052 -4.98092 5.90867 0
M  V30 4845 H 464.397 -4.48479 5.30935 0
M  V30 4846 H 467.588 -3.23638 3.38195 0
M  V30 4847 H 467.761 -4.29424 4.85282 0
M  V30 4848 N 461.167 -1.02423 -1.1978 0
M  V30 4849 C 462.578 -0.748389 -1.71044 0
M  V30 4850 C 462.929 0.732398 -1.82017 0
M  V30 4851 O 462.054 1.57116 -1.48807 0
M  V30 4852 C 462.649 -1.35187 -3.1066 0
M  V30 4853 C 461.208 -1.12472 -3.59203 0
M  V30 4854 C 460.355 -1.45283 -2.36195 0
M  V30 4855 H 463.306 -1.19275 -1.04686 0
M  V30 4856 H 463.327 -0.746408 -3.73107 0
M  V30 4857 H 462.839 -2.4296 -3.02642 0
M  V30 4858 H 460.94 -0.0649983 -3.72543 0
M  V30 4859 H 461.053 -1.81016 -4.43588 0
M  V30 4860 H 459.417 -0.872034 -2.39307 0
M  V30 4861 H 460.2 -2.54129 -2.30811 0
M  V30 4862 N 462.645 1.35699 -0.801477 0
M  V30 4863 C 463.873 2.03157 -0.391768 0
M  V30 4864 C 464.288 1.60412 0.995668 0
M  V30 4865 O 463.645 0.799228 1.64069 0
M  V30 4866 C 463.696 3.58566 -0.459671 0
M  V30 4867 O 463.417 3.99756 -1.7924 0
M  V30 4868 C 464.918 4.4328 -0.0421205 0
M  V30 4869 H 462.138 0.651688 -0.159825 0
M  V30 4870 H 464.682 1.73426 -1.08368 0
M  V30 4871 H 462.837 3.86963 0.183939 0
M  V30 4872 H 463.251 4.94387 -1.75162 0
M  V30 4873 H 464.725 5.51821 -0.140754 0
M  V30 4874 H 465.202 4.27383 1.01196 0
M  V30 4875 H 465.808 4.20168 -0.658687 0
M  V30 4876 N 464.123 0.554532 1.47522 0
M  V30 4877 C 465.539 0.214107 1.58157 0
M  V30 4878 C 465.739 -1.28331 1.55349 0
M  V30 4879 O 464.795 -2.06329 1.45549 0
M  V30 4880 C 466.108 0.838391 2.88776 0
M  V30 4881 C 467.656 0.809374 3.02354 0
M  V30 4882 C 468.131 1.41268 4.35669 0
M  V30 4883 N 469.622 1.37574 4.42298 0
M  V30 4884 C 470.357 1.8122 5.4401 0
M  V30 4885 N 469.853 2.3271 6.52547 0
M  V30 4886 N 471.646 1.72307 5.35039 0
M  V30 4887 H 463.797 1.52744 1.4759 0
M  V30 4888 H 466.06 0.636812 0.702264 0
M  V30 4889 H 465.766 1.89065 2.96559 0
M  V30 4890 H 465.64 0.329847 3.75755 0
M  V30 4891 H 468.027 -0.234187 2.94169 0
M  V30 4892 H 468.108 1.35565 2.16924 0
M  V30 4893 H 467.752 2.45529 4.4461 0
M  V30 4894 H 467.682 0.841871 5.19827 0
M  V30 4895 H 470.173 0.999081 3.64454 0
M  V30 4896 H 470.486 2.63944 7.26329 0
M  V30 4897 H 468.831 2.36719 6.53444 0
M  V30 4898 H 472.022 1.3186 4.49144 0
M  V30 4899 H 472.195 2.06641 6.14169 0
M  V30 4900 N 465.601 -1.54893 0.290851 0
M  V30 4901 C 466.829 -2.04343 -0.324288 0
M  V30 4902 C 467.244 -1.16859 -1.48289 0
M  V30 4903 O 466.601 -0.192018 -1.81487 0
M  V30 4904 C 466.652 -3.52756 -0.79026 0
M  V30 4905 O 466.373 -4.36913 0.322213 0
M  V30 4906 C 467.874 -4.18161 -1.4716 0
M  V30 4907 H 465.094 -0.667135 -0.0719173 0
M  V30 4908 H 467.638 -1.99981 0.427529 0
M  V30 4909 H 465.793 -3.57511 -1.49213 0
M  V30 4910 H 466.207 -5.24486 -0.0387372 0
M  V30 4911 H 467.681 -5.23562 -1.7489 0
M  V30 4912 H 468.158 -3.67282 -2.40834 0
M  V30 4913 H 468.764 -4.17454 -0.813178 0
M  V30 4914 N 467.08 -0.0183926 -1.57589 0
M  V30 4915 C 468.329 0.66185 -1.90532 0
M  V30 4916 C 468.642 1.73904 -0.895366 0
M  V30 4917 O 469.848 2.47518 -1.11566 0
M  V30 4918 C 468.304 1.22844 -3.38286 0
M  V30 4919 C 467.912 0.185103 -4.47617 0
M  V30 4920 C 469.656 1.88581 -3.80312 0
M  V30 4921 C 467.563 0.762723 -5.86461 0
M  V30 4922 H 466.493 0.250972 -0.711006 0
M  V30 4923 H 469.144 -0.0819435 -1.83317 0
M  V30 4924 H 467.526 2.0235 -3.40398 0
M  V30 4925 H 468.7 -0.58671 -4.5705 0
M  V30 4926 H 467.015 -0.372889 -4.14727 0
M  V30 4927 H 469.612 2.32735 -4.81392 0
M  V30 4928 H 469.955 2.72408 -3.14801 0
M  V30 4929 H 470.488 1.15782 -3.80578 0
M  V30 4930 H 467.227 -0.0371713 -6.55489 0
M  V30 4931 H 466.747 1.50327 -5.80656 0
M  V30 4932 H 468.426 1.25576 -6.34697 0
M  V30 4933 N 468.558 1.5553 0.254621 0
M  V30 4934 C 469.807 1.76202 0.981612 0
M  V30 4935 C 470.12 0.580883 1.86776 0
M  V30 4936 O 471.326 0.670448 2.63092 0
M  V30 4937 C 469.782 3.11921 1.79537 0
M  V30 4938 C 469.39 4.37659 0.956991 0
M  V30 4939 C 471.134 3.41936 2.51555 0
M  V30 4940 C 469.041 5.64411 1.76619 0
M  V30 4941 H 467.971 0.656841 0.370237 0
M  V30 4942 H 470.622 1.81969 0.236556 0
M  V30 4943 H 469.004 3.00241 2.58208 0
M  V30 4944 H 470.178 4.60307 0.21315 0
M  V30 4945 H 468.493 4.14922 0.350497 0
M  V30 4946 H 471.09 4.33849 3.12536 0
M  V30 4947 H 471.433 2.62905 3.22779 0
M  V30 4948 H 471.966 3.54797 1.799 0
M  V30 4949 H 468.705 6.46241 1.09783 0
M  V30 4950 H 468.225 5.45877 2.48551 0
M  V30 4951 H 469.904 6.03386 2.33527 0
M  V30 4952 N 470.036 -0.519951 1.48776 0
M  V30 4953 C 471.447 -1.10177 1.50725 0
M  V30 4954 C 471.798 -1.94153 0.282678 0
M  V30 4955 O 470.923 -2.07645 -0.609298 0
M  V30 4956 C 471.518 -2.00482 2.73116 0
M  V30 4957 C 470.077 -2.53862 2.77905 0
M  V30 4958 C 469.224 -1.31047 2.44381 0
M  V30 4959 H 472.175 -0.30473 1.55747 0
M  V30 4960 H 472.196 -2.8491 2.52203 0
M  V30 4961 H 471.708 -1.39335 3.62225 0
M  V30 4962 H 469.809 -3.18702 1.93029 0
M  V30 4963 H 469.922 -2.9231 3.79594 0
M  V30 4964 H 468.286 -1.62953 1.95751 0
M  V30 4965 H 469.069 -0.71637 3.35743 0
M  V30 4966 N 471.514 -1.37532 -0.769588 0
M  V30 4967 C 472.76 -1.33057 -1.53048 0
M  V30 4968 C 473.093 0.0841865 -1.94017 0
M  V30 4969 O 472.368 1.04198 -1.64235 0
M  V30 4970 C 472.651 -2.27166 -2.79406 0
M  V30 4971 C 472.504 -3.77429 -2.44677 0
M  V30 4972 C 473.823 -2.19683 -3.81349 0
M  V30 4973 H 470.942 -0.484655 -0.555228 0
M  V30 4974 H 473.584 -1.68251 -0.882702 0
M  V30 4975 H 471.734 -1.97283 -3.34682 0
M  V30 4976 H 473.406 -4.17918 -1.953 0
M  V30 4977 H 471.649 -3.95892 -1.77346 0
M  V30 4978 H 472.32 -4.38716 -3.35011 0
M  V30 4979 H 474.796 -2.46029 -3.35573 0
M  V30 4980 H 473.672 -2.87668 -4.67481 0
M  V30 4981 H 473.933 -1.19045 -4.25771 0
M  V30 4982 N 472.992 0.995999 -1.22138 0
M  V30 4983 C 473.924 2.08745 -0.946485 0
M  V30 4984 C 474.937 1.62633 0.0737356 0
M  V30 4985 O 476.126 1.77782 -0.159886 0
M  V30 4986 C 473.226 3.36516 -0.401305 0
M  V30 4987 C 472.399 4.11672 -1.47801 0
M  V30 4988 C 471.458 5.17728 -0.940461 0
M  V30 4989 O 470.484 5.45482 -1.62596 0
M  V30 4990 N 471.686 5.80005 0.239723 0
M  V30 4991 H 474.451 2.32908 -1.88611 0
M  V30 4992 H 472.012 1.16152 -1.12785 0
M  V30 4993 H 474.004 4.04691 -0.0270837 0
M  V30 4994 H 472.574 3.0944 0.443354 0
M  V30 4995 H 471.794 3.38171 -2.02568 0
M  V30 4996 H 473.082 4.58657 -2.20253 0
M  V30 4997 H 472.48 5.5982 0.813518 0
M  V30 4998 H 471.037 6.4943 0.555361 0
M  V30 4999 N 474.47 1.03057 1.19235 0
M  V30 5000 C 475.7 0.746613 1.92638 0
M  V30 5001 C 476.108 -0.698708 1.75826 0
M  V30 5002 O 475.451 -1.487 1.07861 0
M  V30 5003 C 475.513 1.02024 3.44719 0
M  V30 5004 C 475.177 2.45745 3.85303 0
M  V30 5005 C 476.174 3.43887 3.8992 0
M  V30 5006 C 473.859 2.8019 4.16892 0
M  V30 5007 C 475.853 4.74529 4.2556 0
M  V30 5008 C 473.54 4.1104 4.52205 0
M  V30 5009 C 474.538 5.0802 4.56513 0
M  V30 5010 O 474.226 6.36527 4.91008 0
M  V30 5011 H 473.958 0.272401 0.618687 0
M  V30 5012 H 476.512 1.37853 1.52269 0
M  V30 5013 H 474.742 0.331184 3.85279 0
M  V30 5014 H 476.431 0.725677 3.9936 0
M  V30 5015 H 477.197 3.18614 3.65664 0
M  V30 5016 H 473.076 2.05382 4.12722 0
M  V30 5017 H 476.62 5.50222 4.28838 0
M  V30 5018 H 472.517 4.36086 4.7592 0
M  V30 5019 H 473.285 6.41025 5.08949 0
M  V30 5020 N 475.948 -1.35272 0.808662 0
M  V30 5021 C 476.858 -2.33546 0.222079 0
M  V30 5022 C 477.874 -1.6196 -0.636011 0
M  V30 5023 O 479.05 -1.93822 -0.547274 0
M  V30 5024 C 476.115 -3.41148 -0.61795 0
M  V30 5025 C 475.176 -4.28507 0.260875 0
M  V30 5026 C 474.409 -5.3097 -0.539156 0
M  V30 5027 O 474.632 -5.42123 -1.77367 0
M  V30 5028 O 473.566 -6.01858 0.0710526 0
M  V30 5029 H 477.392 -2.85515 1.03512 0
M  V30 5030 H 474.977 -1.38079 0.570495 0
M  V30 5031 H 476.859 -4.06889 -1.09634 0
M  V30 5032 H 475.534 -2.91447 -1.40855 0
M  V30 5033 H 474.441 -3.6574 0.786451 0
M  V30 5034 H 475.774 -4.81611 1.01547 0
M  V30 5035 N 477.426 -0.562348 -1.47226 0
M  V30 5036 C 478.654 -0.0452275 -2.06851 0
M  V30 5037 C 479.069 1.25078 -1.41424 0
M  V30 5038 O 478.426 1.75156 -0.512513 0
M  V30 5039 C 478.477 0.148674 -3.61194 0
M  V30 5040 O 478.198 -1.09602 -4.24169 0
M  V30 5041 C 479.699 0.702488 -4.37699 0
M  V30 5042 H 476.919 -0.0481775 -0.669268 0
M  V30 5043 H 479.463 -0.777223 -1.89155 0
M  V30 5044 H 477.618 0.830817 -3.78386 0
M  V30 5045 H 478.032 -0.896982 -5.16773 0
M  V30 5046 H 479.506 0.78743 -5.46355 0
M  V30 5047 H 479.983 1.71493 -4.04335 0
M  V30 5048 H 480.589 0.0558772 -4.25263 0
M  V30 5049 N 478.904 1.54736 -0.299062 0
M  V30 5050 C 480.32 1.59507 0.0543849 0
M  V30 5051 C 480.52 1.31606 1.52585 0
M  V30 5052 O 479.576 1.08853 2.27832 0
M  V30 5053 C 480.889 2.98751 -0.34181 0
M  V30 5054 C 482.437 3.1165 -0.290414 0
M  V30 5055 C 482.912 4.53199 -0.661402 0
M  V30 5056 N 484.403 4.59114 -0.613863 0
M  V30 5057 C 485.138 5.66709 -0.873417 0
M  V30 5058 N 484.634 6.82349 -1.19884 0
M  V30 5059 N 486.427 5.56369 -0.800608 0
M  V30 5060 H 478.578 1.71133 -1.25806 0
M  V30 5061 H 480.841 0.799186 -0.509908 0
M  V30 5062 H 480.547 3.24085 -1.36608 0
M  V30 5063 H 480.421 3.75961 0.305508 0
M  V30 5064 H 482.808 2.86066 0.724605 0
M  V30 5065 H 482.889 2.366 -0.972327 0
M  V30 5066 H 482.533 4.79513 -1.67422 0
M  V30 5067 H 482.463 5.26583 0.0425612 0
M  V30 5068 H 484.954 3.76053 -0.3732 0
M  V30 5069 H 485.267 7.60326 -1.38291 0
M  V30 5070 H 483.612 6.83906 -1.23685 0
M  V30 5071 H 486.803 4.64904 -0.546045 0
M  V30 5072 H 486.976 6.40139 -1.00626 0
M  V30 5073 N 480.382 0.0267497 1.57577 0
M  V30 5074 C 481.315 -0.99059 2.05579 0
M  V30 5075 C 482.293 -1.31884 0.951065 0
M  V30 5076 O 483.477 -1.43592 1.22121 0
M  V30 5077 C 480.604 -2.31125 2.47586 0
M  V30 5078 C 479.65 -2.13777 3.69055 0
M  V30 5079 S 480.483 -1.4388 5.15809 0
M  V30 5080 C 481.639 -2.77321 5.6111 0
M  V30 5081 H 481.872 -0.581976 2.91548 0
M  V30 5082 H 479.405 -0.184876 1.53289 0
M  V30 5083 H 481.363 -3.07049 2.72454 0
M  V30 5084 H 480.024 -2.6912 1.61967 0
M  V30 5085 H 479.217 -3.11405 3.96287 0
M  V30 5086 H 478.819 -1.45996 3.44327 0
M  V30 5087 H 481.111 -3.73565 5.65204 0
M  V30 5088 H 482.054 -2.54756 6.60685 0
M  V30 5089 H 482.462 -2.82459 4.88751 0
M  V30 5090 N 481.861 -1.55662 -0.24637 0
M  V30 5091 C 482.824 -1.89558 -1.28842 0
M  V30 5092 C 483.824 -0.772082 -1.41052 0
M  V30 5093 O 485.014 -1.04007 -1.39743 0
M  V30 5094 C 482.146 -2.12449 -2.66605 0
M  V30 5095 H 483.339 -2.82735 -1.00004 0
M  V30 5096 H 480.892 -1.48562 -0.485684 0
M  V30 5097 H 481.627 -1.21742 -3.00582 0
M  V30 5098 H 481.412 -2.94273 -2.59125 0
M  V30 5099 H 482.902 -2.39854 -3.41847 0
M  V30 5100 N 483.339 0.512053 -1.4905 0
M  V30 5101 C 484.579 1.27715 -1.59588 0
M  V30 5102 C 484.943 1.90071 -0.271502 0
M  V30 5103 O 486.144 2.67616 -0.251987 0
M  V30 5104 C 484.415 2.32399 -2.71524 0
M  V30 5105 S 485.974 3.18396 -3.01943 0
M  V30 5106 H 482.792 0.43419 -0.563027 0
M  V30 5107 H 485.394 0.581315 -1.86657 0
M  V30 5108 H 484.098 1.85101 -3.66287 0
M  V30 5109 H 483.629 3.06667 -2.46412 0
M  V30 5110 H 485.644 4.32842 -2.42616 0
M  V30 5111 N 484.817 1.37938 0.762283 0
M  V30 5112 C 486.065 1.33404 1.51815 0
M  V30 5113 C 486.386 -0.0780975 1.94844 0
M  V30 5114 O 485.656 -1.02405 1.67003 0
M  V30 5115 H 484.236 0.490839 0.563104 0
M  V30 5116 H 486.898 1.72527 0.906669 0
M  V30 5117 H 485.994 1.97926 2.41313 0
M  V30 5118 N 486.295 -0.989507 1.22664 0
M  V30 5119 C 487.225 -2.09847 1.02404 0
M  V30 5120 C 488.206 -1.70007 -0.0561303 0
M  V30 5121 O 489.391 -1.93906 0.106748 0
M  V30 5122 C 486.521 -3.41996 0.604663 0
M  V30 5123 C 485.475 -3.95699 1.63115 0
M  V30 5124 C 484.801 -5.23936 1.0675 0
M  V30 5125 C 486.101 -4.25999 3.02196 0
M  V30 5126 H 487.795 -2.27054 1.95158 0
M  V30 5127 H 485.341 -1.09111 0.939727 0
M  V30 5128 H 487.294 -4.1899 0.45002 0
M  V30 5129 H 486.018 -3.24626 -0.35855 0
M  V30 5130 H 484.677 -3.2084 1.77362 0
M  V30 5131 H 484.325 -5.02909 0.0955422 0
M  V30 5132 H 484.025 -5.60833 1.75328 0
M  V30 5133 H 485.549 -6.0356 0.924516 0
M  V30 5134 H 486.963 -4.93777 2.91303 0
M  V30 5135 H 485.36 -4.74076 3.67929 0
M  V30 5136 H 486.43 -3.33636 3.51873 0
M  V30 5137 N 487.773 -1.03688 -1.18687 0
M  V30 5138 C 489.019 -0.739123 -1.88851 0
M  V30 5139 C 489.352 0.731042 -1.79915 0
M  V30 5140 O 488.627 1.53313 -1.19688 0
M  V30 5141 C 488.91 -1.20106 -3.3948 0
M  V30 5142 C 488.763 -2.73304 -3.57246 0
M  V30 5143 C 490.082 -0.788134 -4.32986 0
M  V30 5144 H 487.201 -0.269978 -0.68577 0
M  V30 5145 H 489.843 -1.28822 -1.3966 0
M  V30 5146 H 487.993 -0.733915 -3.81505 0
M  V30 5147 H 489.665 -3.28027 -3.24339 0
M  V30 5148 H 487.908 -3.13313 -3.00029 0
M  V30 5149 H 488.579 -3.00684 -4.62918 0
M  V30 5150 H 491.055 -1.19005 -3.98719 0
M  V30 5151 H 489.931 -1.13915 -5.36949 0
M  V30 5152 H 490.192 0.308988 -4.41019 0
M  V30 5153 N 489.251 1.34841 -0.815825 0
M  V30 5154 C 490.667 1.51543 -0.500697 0
M  V30 5155 C 490.867 1.76261 0.976444 0
M  V30 5156 O 489.923 1.8094 1.76117 0
M  V30 5157 C 491.236 2.68487 -1.35407 0
M  V30 5158 C 492.784 2.82368 -1.35046 0
M  V30 5159 C 493.259 4.02347 -2.18816 0
M  V30 5160 N 494.75 4.09542 -2.16402 0
M  V30 5161 C 495.485 5.01517 -2.77971 0
M  V30 5162 N 494.981 5.98763 -3.48503 0
M  V30 5163 N 496.774 4.94334 -2.67563 0
M  V30 5164 H 488.925 1.17055 -1.77234 0
M  V30 5165 H 491.188 0.573481 -0.754866 0
M  V30 5166 H 490.894 2.56829 -2.40274 0
M  V30 5167 H 490.768 3.63321 -1.01377 0
M  V30 5168 H 493.155 2.93471 -0.309604 0
M  V30 5169 H 493.236 1.88363 -1.73069 0
M  V30 5170 H 492.88 3.92004 -3.22948 0
M  V30 5171 H 492.81 4.95551 -1.78148 0
M  V30 5172 H 495.301 3.39932 -1.65091 0
M  V30 5173 H 495.614 6.6556 -3.92747 0
M  V30 5174 H 493.959 5.98909 -3.52609 0
M  V30 5175 H 497.15 4.1732 -2.12041 0
M  V30 5176 H 497.323 5.6582 -3.15834 0
M  V30 5177 N 490.729 0.570148 1.46925 0
M  V30 5178 C 491.977 0.0508523 2.02036 0
M  V30 5179 C 492.298 -1.30885 1.44548 0
M  V30 5180 O 491.568 -1.85647 0.625453 0
M  V30 5181 H 490.148 0.0158088 0.746833 0
M  V30 5182 H 492.81 0.743086 1.80178 0
M  V30 5183 H 491.906 -0.027575 3.12088 0
M  V30 5184 N 492.207 -1.54576 0.307264 0
M  V30 5185 C 493.157 -2.20467 -0.581249 0
M  V30 5186 C 494.141 -1.17972 -1.09414 0
M  V30 5187 O 495.333 -1.43667 -1.03387 0
M  V30 5188 C 492.462 -2.95369 -1.74963 0
M  V30 5189 C 491.548 -4.05186 -1.25241 0
M  V30 5190 N 491.939 -5.03577 -0.47364 0
M  V30 5191 C 490.237 -4.18841 -1.53259 0
M  V30 5192 C 490.938 -5.81328 -0.208083 0
M  V30 5193 N 489.914 -5.37834 -0.789651 0
M  V30 5194 H 493.716 -2.93892 0.0212221 0
M  V30 5195 H 491.23 -1.62011 0.112325 0
M  V30 5196 H 493.227 -3.41046 -2.39777 0
M  V30 5197 H 491.887 -2.23461 -2.35574 0
M  V30 5198 H 492.898 -5.17766 -0.117963 0
M  V30 5199 H 489.575 -3.58141 -2.14573 0
M  V30 5200 H 490.965 -6.706 0.417793 0
M  V30 5201 N 493.685 -0.035106 -1.57561 0
M  V30 5202 C 494.648 0.929819 -2.09492 0
M  V30 5203 C 495.648 1.25026 -1.01119 0
M  V30 5204 O 496.838 1.18961 -1.27255 0
M  V30 5205 C 493.97 2.24457 -2.56577 0
M  V30 5206 H 495.163 0.479935 -2.96035 0
M  V30 5207 H 492.716 0.213033 -1.54841 0
M  V30 5208 H 493.451 2.74061 -1.73382 0
M  V30 5209 H 493.236 2.02508 -3.35757 0
M  V30 5210 H 494.726 2.93607 -2.96959 0
M  V30 5211 N 495.163 1.55791 0.238111 0
M  V30 5212 C 496.393 1.81834 0.980809 0
M  V30 5213 C 496.801 0.609741 1.79106 0
M  V30 5214 O 496.144 -0.431073 1.78571 0
M  V30 5215 C 496.206 3.01363 1.96011 0
M  V30 5216 C 495.87 4.37037 1.33597 0
M  V30 5217 C 496.867 5.14692 0.734063 0
M  V30 5218 C 494.552 4.83743 1.3527 0
M  V30 5219 C 496.546 6.37206 0.157208 0
M  V30 5220 C 494.233 6.06204 0.77199 0
M  V30 5221 C 495.231 6.82775 0.175282 0
M  V30 5222 O 494.919 8.02922 -0.396432 0
M  V30 5223 H 494.651 0.6088 0.293834 0
M  V30 5224 H 497.205 2.03702 0.263552 0
M  V30 5225 H 495.435 2.75273 2.71591 0
M  V30 5226 H 497.124 3.14422 2.56697 0
M  V30 5227 H 497.89 4.79722 0.713582 0
M  V30 5228 H 493.769 4.24129 1.80653 0
M  V30 5229 H 497.313 6.96915 -0.30917 0
M  V30 5230 H 493.21 6.4065 0.789828 0
M  V30 5231 H 493.978 8.17989 -0.289145 0
M  V30 5232 N 496.642 -0.504142 1.49319 0
M  V30 5233 C 497.867 -1.28729 1.62615 0
M  V30 5234 C 498.292 -1.85752 0.296309 0
M  V30 5235 O 497.65 -1.65704 -0.735649 0
M  V30 5236 C 497.698 -2.39561 2.69524 0
M  V30 5237 O 496.802 -3.43324 2.28478 0
M  V30 5238 H 496.143 -0.380172 0.544395 0
M  V30 5239 H 498.673 -0.603872 1.95485 0
M  V30 5240 H 498.683 -2.8537 2.91595 0
M  V30 5241 H 497.358 -1.97423 3.66056 0
M  V30 5242 H 495.935 -3.03455 2.16725 0
M  V30 5243 N 498.12 -1.38341 -0.754957 0
M  V30 5244 C 499.366 -1.34672 -1.51628 0
M  V30 5245 C 499.699 0.0636036 -1.94096 0
M  V30 5246 O 498.974 1.0245 -1.6533 0
M  V30 5247 C 499.257 -2.30116 -2.76981 0
M  V30 5248 C 499.11 -3.80003 -2.4066 0
M  V30 5249 C 500.429 -2.23715 -3.78998 0
M  V30 5250 H 497.548 -0.490517 -0.550056 0
M  V30 5251 H 500.19 -1.69178 -0.864807 0
M  V30 5252 H 498.34 -2.00821 -3.3257 0
M  V30 5253 H 500.012 -4.19966 -1.90856 0
M  V30 5254 H 498.255 -3.97751 -1.73137 0
M  V30 5255 H 498.926 -4.42244 -3.30339 0
M  V30 5256 H 501.402 -2.49574 -3.32945 0
M  V30 5257 H 500.278 -2.9261 -4.64403 0
M  V30 5258 H 500.539 -1.23554 -4.24484 0
M  V30 5259 N 499.598 0.982988 -1.23187 0
M  V30 5260 C 500.826 1.75921 -1.08901 0
M  V30 5261 C 501.241 1.85341 0.359719 0
M  V30 5262 O 500.598 1.33072 1.24892 0
M  V30 5263 C 500.649 3.18742 -1.70545 0
M  V30 5264 O 500.37 3.09814 -3.09753 0
M  V30 5265 C 501.871 4.1277 -1.61667 0
M  V30 5266 H 499.091 0.552166 -0.381252 0
M  V30 5267 H 501.635 1.23516 -1.62985 0
M  V30 5268 H 499.79 3.68182 -1.20501 0
M  V30 5269 H 500.204 3.99703 -3.39614 0
M  V30 5270 H 501.678 5.10697 -2.09506 0
M  V30 5271 H 502.155 4.3542 -0.575009 0
M  V30 5272 H 502.761 3.69232 -2.11064 0
M  V30 5273 N 501.076 1.04316 1.18135 0
M  V30 5274 C 502.324 0.746542 1.87806 0
M  V30 5275 C 502.645 -0.728082 1.80898 0
M  V30 5276 O 501.915 -1.52554 1.22899 0
M  V30 5277 H 500.495 0.273157 0.695265 0
M  V30 5278 H 503.157 1.32044 1.43354 0
M  V30 5279 H 502.253 1.05362 2.93778 0
M  V30 5280 N 502.554 -1.34406 0.822964 0
M  V30 5281 C 503.484 -2.32052 0.259608 0
M  V30 5282 C 504.465 -1.58243 -0.623961 0
M  V30 5283 O 505.65 -1.86224 -0.55083 0
M  V30 5284 C 502.78 -3.42434 -0.579314 0
M  V30 5285 C 501.734 -4.27499 0.20712 0
M  V30 5286 C 501.06 -5.29349 -0.754547 0
M  V30 5287 C 502.36 -5.02758 1.41533 0
M  V30 5288 H 504.054 -2.79418 1.07545 0
M  V30 5289 H 501.6 -1.34338 0.518593 0
M  V30 5290 H 503.553 -4.0976 -0.983612 0
M  V30 5291 H 502.277 -2.93717 -1.4282 0
M  V30 5292 H 500.936 -3.61776 0.592787 0
M  V30 5293 H 500.584 -4.76895 -1.59939 0
M  V30 5294 H 500.284 -5.8714 -0.232561 0
M  V30 5295 H 501.808 -5.99544 -1.1567 0
M  V30 5296 H 503.222 -5.62938 1.08504 0
M  V30 5297 H 501.619 -5.70123 1.87296 0
M  V30 5298 H 502.689 -4.32451 2.1935 0
M  V30 5299 N 504.032 -0.577932 -1.46621 0
M  V30 5300 C 505.309 0.00495287 -1.95599 0
M  V30 5301 C 505.689 1.46428 -1.5206 0
M  V30 5302 O 505.037 2.1517 -0.769046 0
M  V30 5303 C 505.247 -0.162114 -3.48623 0
M  V30 5304 C 506.595 -0.0274623 -4.24591 0
M  V30 5305 O 507.619 -0.0907067 -3.56084 0
M  V30 5306 O 506.478 0.1122 -5.46385 0
M  V30 5307 H 503.572 0.0525057 -0.825332 0
M  V30 5308 H 506.118 -0.645914 -1.56927 0
M  V30 5309 H 504.89 -1.17679 -3.73185 0
M  V30 5310 H 504.513 0.525407 -3.94113 0
M  V30 5311 N 505.51 1.54411 -0.315457 0
M  V30 5312 C 506.42 2.27737 0.56329 0
M  V30 5313 C 507.436 1.31787 1.13614 0
M  V30 5314 O 508.612 1.64791 1.15784 0
M  V30 5315 C 505.677 3.01478 1.71207 0
M  V30 5316 C 504.738 4.12997 1.17185 0
M  V30 5317 C 503.971 4.83212 2.26588 0
M  V30 5318 O 504.194 4.52884 3.46775 0
M  V30 5319 O 503.128 5.70299 1.92463 0
M  V30 5320 H 506.954 3.03683 -0.0319614 0
M  V30 5321 H 504.539 1.49178 -0.0814188 0
M  V30 5322 H 506.421 3.47683 2.38106 0
M  V30 5323 H 505.096 2.28414 2.29366 0
M  V30 5324 H 504.003 3.71159 0.468174 0
M  V30 5325 H 505.336 4.8808 0.635501 0
M  V30 5326 N 506.988 0.0434614 1.5754 0
M  V30 5327 C 508.234 -0.632971 1.92669 0
M  V30 5328 C 508.567 -1.70947 0.921446 0
M  V30 5329 O 507.842 -1.94426 -0.0537202 0
M  V30 5330 C 508.125 -1.23619 3.38216 0
M  V30 5331 C 507.978 -0.168274 4.49485 0
M  V30 5332 C 509.297 -2.15008 3.84005 0
M  V30 5333 H 506.416 -0.228629 0.700641 0
M  V30 5334 H 509.058 0.103651 1.89717 0
M  V30 5335 H 507.208 -1.864 3.40863 0
M  V30 5336 H 508.88 0.463196 4.58969 0
M  V30 5337 H 507.123 0.504581 4.30855 0
M  V30 5338 H 507.794 -0.630218 5.48391 0
M  V30 5339 H 510.27 -1.62198 3.83185 0
M  V30 5340 H 509.146 -2.54161 4.86511 0
M  V30 5341 H 509.407 -3.04707 3.20322 0
M  V30 5342 N 508.466 -1.55915 -0.229846 0
M  V30 5343 C 509.877 -1.68809 -0.797531 0
M  V30 5344 C 510.228 -0.643995 -1.8533 0
M  V30 5345 O 509.353 0.206492 -2.15413 0
M  V30 5346 C 509.948 -3.06043 -1.45338 0
M  V30 5347 C 508.507 -3.20819 -1.96856 0
M  V30 5348 C 507.654 -2.6472 -0.825736 0
M  V30 5349 H 510.605 -1.58699 -0.00533733 0
M  V30 5350 H 510.626 -3.01438 -2.32196 0
M  V30 5351 H 510.138 -3.82012 -0.684743 0
M  V30 5352 H 508.239 -2.49704 -2.76548 0
M  V30 5353 H 508.352 -4.27937 -2.15423 0
M  V30 5354 H 506.716 -2.22985 -1.23084 0
M  V30 5355 H 507.499 -3.43229 -0.0699019 0
M  V30 5356 N 509.944 0.496216 -1.49584 0
M  V30 5357 C 511.191 1.25003 -1.59312 0
M  V30 5358 C 511.519 1.92445 -0.28198 0
M  V30 5359 O 510.774 1.81557 0.730452 0
M  V30 5360 C 511.073 2.3359 -2.705 0
M  V30 5361 C 510.739 1.83574 -4.11839 0
M  V30 5362 C 509.401 1.69653 -4.50302 0
M  V30 5363 C 511.753 1.46193 -5.00277 0
M  V30 5364 C 509.081 1.16736 -5.74969 0
M  V30 5365 C 511.433 0.947265 -6.25468 0
M  V30 5366 C 510.097 0.794485 -6.62755 0
M  V30 5367 H 509.367 0.45742 -0.582965 0
M  V30 5368 H 512.014 0.549996 -1.83432 0
M  V30 5369 H 510.319 3.09401 -2.40371 0
M  V30 5370 H 512.016 2.91627 -2.75235 0
M  V30 5371 H 508.606 1.9537 -3.81482 0
M  V30 5372 H 512.79 1.55793 -4.71214 0
M  V30 5373 H 508.046 1.03623 -6.02555 0
M  V30 5374 H 512.22 0.648846 -6.93371 0
M  V30 5375 H 509.847 0.382271 -7.59238 0
M  V30 5376 N 511.423 1.38739 0.74761 0
M  V30 5377 C 512.37 1.36449 1.86146 0
M  V30 5378 C 513.34 0.226098 1.64554 0
M  V30 5379 O 514.525 0.41926 1.86137 0
M  V30 5380 C 511.665 1.2013 3.23516 0
M  V30 5381 C 510.778 2.43407 3.56899 0
M  V30 5382 C 509.913 2.19773 4.83605 0
M  V30 5383 C 508.952 3.3879 5.09792 0
M  V30 5384 N 508.089 3.14553 6.27695 0
M  V30 5385 H 512.929 2.3167 1.87438 0
M  V30 5386 H 510.466 1.15094 0.916063 0
M  V30 5387 H 512.424 1.08683 4.02795 0
M  V30 5388 H 511.054 0.285453 3.21535 0
M  V30 5389 H 510.106 2.65504 2.72418 0
M  V30 5390 H 511.418 3.32094 3.72176 0
M  V30 5391 H 510.572 2.05496 5.70838 0
M  V30 5392 H 509.311 1.28461 4.70478 0
M  V30 5393 H 508.316 3.53579 4.21025 0
M  V30 5394 H 509.541 4.30986 5.24812 0
M  V30 5395 H 507.487 2.25893 6.1588 0
M  V30 5396 H 507.404 3.96791 6.435 0
M  V30 5397 H 508.672 3.03943 7.17801 0
M  V30 5398 N 512.901 -0.976442 1.23707 0
M  V30 5399 C 514.149 -1.71487 1.06942 0
M  V30 5400 C 514.47 -1.9098 -0.393897 0
M  V30 5401 O 513.74 -1.48128 -1.28198 0
M  V30 5402 H 512.32 -0.635425 0.392739 0
M  V30 5403 H 514.982 -1.17515 1.55487 0
M  V30 5404 H 514.078 -2.70286 1.56051 0
M  V30 5405 N 514.379 -1.04941 -1.1758 0
M  V30 5406 C 515.289 -0.658826 -2.25159 0
M  V30 5407 C 516.305 0.318941 -1.71052 0
M  V30 5408 O 517.481 0.171669 -2.00667 0
M  V30 5409 C 514.546 -0.0369522 -3.4668 0
M  V30 5410 C 513.607 -1.06484 -4.15884 0
M  V30 5411 C 512.84 -0.472551 -5.31604 0
M  V30 5412 O 513.063 0.718736 -5.65854 0
M  V30 5413 O 511.997 -1.20557 -5.89703 0
M  V30 5414 H 515.823 -1.55533 -2.60851 0
M  V30 5415 H 513.408 -0.820819 -1.24832 0
M  V30 5416 H 515.29 0.308784 -4.20267 0
M  V30 5417 H 513.965 0.833238 -3.12792 0
M  V30 5418 H 512.872 -1.46253 -3.44327 0
M  V30 5419 H 514.205 -1.9061 -4.53794 0
M  V30 5420 N 515.857 1.33968 -0.830081 0
M  V30 5421 C 516.804 2.29387 -0.255008 0
M  V30 5422 C 517.774 1.53923 0.624243 0
M  V30 5423 O 518.959 1.82262 0.564372 0
M  V30 5424 C 516.099 3.4034 0.571209 0
M  V30 5425 C 515.212 4.30729 -0.331083 0
M  V30 5426 C 514.347 5.2879 0.505389 0
M  V30 5427 C 513.386 6.10819 -0.395843 0
M  V30 5428 N 512.523 7.00948 0.401979 0
M  V30 5429 H 517.363 2.77972 -1.07404 0
M  V30 5430 H 514.9 1.36785 -0.541133 0
M  V30 5431 H 516.858 4.03361 1.06562 0
M  V30 5432 H 515.488 2.9297 1.35529 0
M  V30 5433 H 514.54 3.68507 -0.943759 0
M  V30 5434 H 515.852 4.88181 -1.02377 0
M  V30 5435 H 515.006 5.97297 1.06399 0
M  V30 5436 H 513.745 4.71894 1.23155 0
M  V30 5437 H 512.75 5.41238 -0.966529 0
M  V30 5438 H 513.975 6.69797 -1.12023 0
M  V30 5439 H 511.921 6.46512 1.11168 0
M  V30 5440 H 511.838 7.55643 -0.232167 0
M  V30 5441 H 513.106 7.73774 0.943102 0
M  V30 5442 N 517.335 0.585699 1.46312 0
M  V30 5443 C 518.581 0.0725284 2.0267 0
M  V30 5444 C 518.914 -1.28523 1.45586 0
M  V30 5445 O 518.189 -1.84283 0.622101 0
M  V30 5446 C 518.472 0.0099788 3.60099 0
M  V30 5447 C 518.325 1.39685 4.27561 0
M  V30 5448 C 519.644 -0.689117 4.34671 0
M  V30 5449 H 516.763 0.0278307 0.736474 0
M  V30 5450 H 519.405 0.753472 1.74421 0
M  V30 5451 H 517.555 -0.56992 3.84297 0
M  V30 5452 H 519.227 2.02215 4.14617 0
M  V30 5453 H 517.47 1.96374 3.86807 0
M  V30 5454 H 518.141 1.30553 5.36339 0
M  V30 5455 H 520.617 -0.196446 4.15636 0
M  V30 5456 H 519.493 -0.701921 5.44393 0
M  V30 5457 H 519.754 -1.75101 4.05946 0
M  V30 5458 N 518.813 -1.54241 0.323641 0
M  V30 5459 C 519.76 -2.24339 -0.542277 0
M  V30 5460 C 520.73 -1.23421 -1.11159 0
M  V30 5461 O 521.915 -1.52104 -1.15192 0
M  V30 5462 C 519.055 -3.00479 -1.69725 0
M  V30 5463 C 518.168 -4.16214 -1.15716 0
M  V30 5464 C 517.303 -4.79884 -2.27783 0
M  V30 5465 C 516.342 -5.87722 -1.71023 0
M  V30 5466 N 515.479 -6.45254 -2.76752 0
M  V30 5467 H 520.319 -2.97935 0.0620613 0
M  V30 5468 H 517.856 -1.47039 0.0423993 0
M  V30 5469 H 519.814 -3.42869 -2.3769 0
M  V30 5470 H 518.444 -2.29217 -2.27288 0
M  V30 5471 H 517.496 -3.78605 -0.369063 0
M  V30 5472 H 518.808 -4.93838 -0.701832 0
M  V30 5473 H 517.962 -5.25243 -3.03651 0
M  V30 5474 H 516.701 -4.01641 -2.76652 0
M  V30 5475 H 515.706 -5.41765 -0.936518 0
M  V30 5476 H 516.931 -6.67863 -1.2303 0
M  V30 5477 H 514.877 -5.69884 -3.24912 0
M  V30 5478 H 514.794 -7.18292 -2.35782 0
M  V30 5479 H 516.062 -6.95269 -3.5245 0
M  V30 5480 N 520.291 -0.0518155 -1.57515 0
M  V30 5481 C 521.221 0.920283 -2.146 0
M  V30 5482 C 522.202 1.32406 -1.06783 0
M  V30 5483 O 523.387 1.39866 -1.34726 0
M  V30 5484 C 520.517 2.1949 -2.6915 0
M  V30 5485 C 519.471 1.93116 -3.81956 0
M  V30 5486 C 518.797 3.27037 -4.23026 0
M  V30 5487 C 520.097 1.25225 -5.07066 0
M  V30 5488 H 521.791 0.444801 -2.96077 0
M  V30 5489 H 519.337 0.212508 -1.42423 0
M  V30 5490 H 521.29 2.87894 -3.07725 0
M  V30 5491 H 520.014 2.69244 -1.84865 0
M  V30 5492 H 518.673 1.27123 -3.43854 0
M  V30 5493 H 518.321 3.74595 -3.3569 0
M  V30 5494 H 518.021 3.10189 -4.99056 0
M  V30 5495 H 519.545 3.96673 -4.64202 0
M  V30 5496 H 520.959 1.83666 -5.43083 0
M  V30 5497 H 519.356 1.18702 -5.88243 0
M  V30 5498 H 520.426 0.228382 -4.84362 0
M  V30 5499 N 521.769 1.56035 0.221574 0
M  V30 5500 C 523.015 1.79312 0.947372 0
M  V30 5501 C 523.348 0.621453 1.83988 0
M  V30 5502 O 522.623 -0.379287 1.90766 0
M  V30 5503 C 522.906 3.1267 1.78633 0
M  V30 5504 C 522.759 4.40284 0.920312 0
M  V30 5505 C 524.078 3.4247 2.7641 0
M  V30 5506 H 521.197 0.652328 0.342982 0
M  V30 5507 H 523.839 1.88765 0.216244 0
M  V30 5508 H 521.989 3.04741 2.40967 0
M  V30 5509 H 523.661 4.60232 0.313718 0
M  V30 5510 H 521.904 4.33212 0.225734 0
M  V30 5511 H 522.575 5.30033 1.54171 0
M  V30 5512 H 525.051 3.50526 2.24211 0
M  V30 5513 H 523.927 4.3695 3.32213 0
M  V30 5514 H 524.188 2.64635 3.54148 0
M  V30 5515 N 523.247 -0.488276 1.49845 0
M  V30 5516 C 524.663 -0.820566 1.3689 0
M  V30 5517 C 524.863 -1.97248 0.411752 0
M  V30 5518 O 523.919 -2.52042 -0.151931 0
M  V30 5519 C 525.232 -1.1488 2.77891 0
M  V30 5520 C 526.78 -1.25626 2.86683 0
M  V30 5521 C 527.255 -1.61772 4.28479 0
M  V30 5522 N 528.746 -1.68797 4.31349 0
M  V30 5523 C 529.481 -1.98235 5.38043 0
M  V30 5524 N 528.977 -2.2581 6.54967 0
M  V30 5525 N 530.77 -1.99593 5.2547 0
M  V30 5526 H 522.921 0.271123 2.10662 0
M  V30 5527 H 525.184 0.058735 0.946179 0
M  V30 5528 H 524.89 -0.375614 3.49688 0
M  V30 5529 H 524.764 -2.08919 3.14058 0
M  V30 5530 H 527.151 -2.02014 2.15114 0
M  V30 5531 H 527.232 -0.296072 2.54081 0
M  V30 5532 H 526.876 -0.859295 5.00578 0
M  V30 5533 H 526.806 -2.58912 4.58554 0
M  V30 5534 H 529.297 -1.49595 3.4703 0
M  V30 5535 H 529.61 -2.47497 7.32096 0
M  V30 5536 H 527.955 -2.23239 6.58171 0
M  V30 5537 H 531.146 -1.77535 4.33127 0
M  V30 5538 H 531.319 -2.222 6.08713 0
M  V30 5539 N 524.725 -1.39134 -0.740242 0
M  V30 5540 C 525.655 -1.40165 -1.86751 0
M  V30 5541 C 526.636 -0.265708 -1.68012 0
M  V30 5542 O 527.821 -0.47076 -1.88408 0
M  V30 5543 C 524.951 -1.2392 -3.2444 0
M  V30 5544 C 523.905 -2.34858 -3.57807 0
M  V30 5545 C 523.231 -2.03707 -4.94376 0
M  V30 5546 C 524.531 -3.77159 -3.61315 0
M  V30 5547 H 526.225 -2.345 -1.86145 0
M  V30 5548 H 523.771 -1.12875 -0.89416 0
M  V30 5549 H 525.724 -1.23263 -4.02969 0
M  V30 5550 H 524.448 -0.26051 -3.25559 0
M  V30 5551 H 523.107 -2.34723 -2.81604 0
M  V30 5552 H 522.755 -1.04289 -4.9207 0
M  V30 5553 H 522.455 -2.78016 -5.17669 0
M  V30 5554 H 523.979 -2.04691 -5.75268 0
M  V30 5555 H 525.393 -3.79252 -4.29931 0
M  V30 5556 H 523.79 -4.50784 -3.96124 0
M  V30 5557 H 524.86 -4.08513 -2.61238 0
M  V30 5558 N 526.204 0.969867 -1.24223 0
M  V30 5559 C 527.62 1.23809 -1.00716 0
M  V30 5560 C 527.82 1.99469 0.285358 0
M  V30 5561 O 526.876 2.31764 1.00207 0
M  V30 5562 C 528.189 2.02734 -2.2208 0
M  V30 5563 C 529.737 2.15834 -2.26681 0
M  V30 5564 C 530.212 2.98154 -3.47661 0
M  V30 5565 N 531.703 3.05737 -3.47964 0
M  V30 5566 C 532.438 3.69785 -4.38231 0
M  V30 5567 N 531.934 4.35569 -5.3875 0
M  V30 5568 N 533.727 3.66775 -4.25949 0
M  V30 5569 H 525.878 0.463294 -2.07286 0
M  V30 5570 H 528.141 0.267348 -0.909521 0
M  V30 5571 H 527.847 1.54524 -3.15935 0
M  V30 5572 H 527.721 3.0347 -2.24021 0
M  V30 5573 H 530.108 2.63248 -1.33359 0
M  V30 5574 H 530.189 1.14453 -2.28767 0
M  V30 5575 H 529.833 2.51435 -4.41297 0
M  V30 5576 H 529.763 3.99729 -3.42818 0
M  V30 5577 H 532.254 2.58941 -2.75242 0
M  V30 5578 H 532.567 4.82251 -6.03866 0
M  V30 5579 H 530.912 4.34244 -5.42639 0
M  V30 5580 H 534.103 3.14558 -3.46657 0
M  V30 5581 H 534.276 4.16407 -4.96497 0
M  V30 5582 N 527.682 1.05563 1.17022 0
M  V30 5583 C 528.63 0.653887 2.2322 0
M  V30 5584 C 529.624 -0.326642 1.66221 0
M  V30 5585 O 530.83 -0.192301 1.7897 0
M  V30 5586 H 527.205 0.193297 0.726733 0
M  V30 5587 H 529.176 1.5596 2.54399 0
M  V30 5588 C 527.925 0.0485434 3.47666 0
M  V30 5589 H 527.248 0.79413 3.91834 0
M  V30 5590 H 528.688 -0.195133 4.23551 0
M  V30 5591 C 527.147 -1.20583 3.14581 0
M  V30 5592 O 527.677 -2.29475 3.29703 0
M  V30 5593 N 525.883 -1.10493 2.68774 0
M  V30 5594 H 525.43 -0.218795 2.56669 0
M  V30 5595 H 525.388 -1.94507 2.47011 0
M  V30 5596 N 529.16 -1.33526 0.837174 0
M  V30 5597 C 530.571 -1.80182 0.489017 0
M  V30 5598 C 530.922 -1.69285 -0.991826 0
M  V30 5599 O 530.047 -1.24113 -1.77271 0
M  V30 5600 C 530.642 -3.27149 0.880866 0
M  V30 5601 C 529.201 -3.71828 0.584872 0
M  V30 5602 C 528.348 -2.54974 1.09011 0
M  V30 5603 H 531.299 -1.21071 1.02603 0
M  V30 5604 H 531.32 -3.80024 0.190239 0
M  V30 5605 H 530.832 -3.35048 1.95869 0
M  V30 5606 H 528.933 -3.69457 -0.48295 0
M  V30 5607 H 529.046 -4.65366 1.13892 0
M  V30 5608 H 527.41 -2.4952 0.511047 0
M  V30 5609 H 528.193 -2.65637 2.17467 0
M  V30 5610 N 530.638 -0.59345 -1.46 0
M  V30 5611 C 531.884 -0.0916503 -2.03193 0
M  V30 5612 C 532.239 1.25839 -1.45541 0
M  V30 5613 O 531.532 1.81455 -0.615191 0
M  V30 5614 C 531.726 0.021178 -3.57394 0
M  V30 5615 C 531.555 -1.31638 -4.30002 0
M  V30 5616 C 530.325 -1.89336 -4.68487 0
M  V30 5617 C 532.523 -2.242 -4.62859 0
M  V30 5618 N 530.505 -3.1672 -5.25891 0
M  V30 5619 C 531.876 -3.36175 -5.20948 0
M  V30 5620 C 533.931 -2.23748 -4.44794 0
M  V30 5621 C 532.634 -4.47844 -5.62875 0
M  V30 5622 C 534.66 -3.34454 -4.87744 0
M  V30 5623 C 534.022 -4.4515 -5.45913 0
M  V30 5624 H 530.121 -0.0765713 -0.778242 0
M  V30 5625 H 532.705 -0.788705 -1.7801 0
M  V30 5626 H 530.876 0.687423 -3.82268 0
M  V30 5627 H 532.608 0.528343 -4.01236 0
M  V30 5628 H 529.363 -1.42704 -4.51589 0
M  V30 5629 H 529.787 -3.81746 -5.59106 0
M  V30 5630 H 534.429 -1.39433 -3.99147 0
M  V30 5631 H 532.147 -5.32894 -6.07495 0
M  V30 5632 H 535.733 -3.35234 -4.75509 0
M  V30 5633 H 534.613 -5.29398 -5.78539 0
M  V30 5634 N 532.116 1.54067 -0.331816 0
M  V30 5635 C 533.364 2.00319 0.267739 0
M  V30 5636 C 533.685 1.22148 1.52003 0
M  V30 5637 O 532.955 0.325494 1.93177 0
M  V30 5638 H 531.535 0.740014 0.101922 0
M  V30 5639 H 534.197 1.89628 -0.450267 0
M  V30 5640 H 533.293 3.07765 0.518385 0
M  V30 5641 N 533.594 0.0601682 1.57485 0
M  V30 5642 C 534.526 -0.94047 2.09016 0
M  V30 5643 C 535.539 -1.26897 1.01985 0
M  V30 5644 O 536.728 -1.22819 1.29529 0
M  V30 5645 C 533.828 -2.25955 2.52582 0
M  V30 5646 C 533.001 -2.11163 3.83052 0
M  V30 5647 C 532.06 -3.26273 4.12835 0
M  V30 5648 O 531.086 -3.01779 4.82616 0
M  V30 5649 N 532.288 -4.51022 3.65458 0
M  V30 5650 H 535.053 -0.500578 2.9549 0
M  V30 5651 H 532.614 -0.125852 1.6141 0
M  V30 5652 H 534.606 -3.01846 2.69575 0
M  V30 5653 H 533.176 -2.61481 1.71308 0
M  V30 5654 H 532.396 -1.19808 3.75552 0
M  V30 5655 H 533.684 -1.98517 4.68475 0
M  V30 5656 H 533.082 -4.73811 3.09062 0
M  V30 5657 H 531.639 -5.23978 3.87673 0
M  V30 5658 N 535.072 -1.5615 -0.213296 0
M  V30 5659 C 536.318 -1.79812 -0.937849 0
M  V30 5660 C 536.651 -0.631201 -1.83656 0
M  V30 5661 O 535.926 0.369165 -1.90964 0
M  V30 5662 C 536.209 -3.13613 -1.76972 0
M  V30 5663 C 536.062 -4.40766 -0.89695 0
M  V30 5664 C 537.381 -3.43931 -2.7459 0
M  V30 5665 H 534.5 -0.654138 -0.339518 0
M  V30 5666 H 537.142 -1.88877 -0.20623 0
M  V30 5667 H 535.292 -3.06015 -2.39347 0
M  V30 5668 H 536.964 -4.60392 -0.289306 0
M  V30 5669 H 535.207 -4.33326 -0.202756 0
M  V30 5670 H 535.878 -5.30843 -1.51358 0
M  V30 5671 H 538.354 -3.5171 -2.22349 0
M  V30 5672 H 537.23 -4.38706 -3.29891 0
M  V30 5673 H 537.491 -2.6651 -3.52739 0
M  V30 5674 N 536.55 0.480323 -1.50102 0
M  V30 5675 C 537.46 1.60547 -1.71061 0
M  V30 5676 C 538.476 1.63564 -0.593529 0
M  V30 5677 O 539.652 1.81604 -0.870751 0
M  V30 5678 C 536.717 2.96814 -1.79171 0
M  V30 5679 C 535.778 3.04259 -3.02861 0
M  V30 5680 C 535.011 4.34027 -3.10574 0
M  V30 5681 O 535.234 5.24009 -2.25323 0
M  V30 5682 O 534.168 4.46873 -4.03223 0
M  V30 5683 H 537.994 1.45788 -2.6642 0
M  V30 5684 H 535.579 0.658838 -1.34088 0
M  V30 5685 H 537.461 3.77765 -1.86738 0
M  V30 5686 H 536.136 3.11791 -0.869947 0
M  V30 5687 H 535.043 2.22419 -3.008 0
M  V30 5688 H 536.376 2.94216 -3.94586 0
M  V30 5689 N 538.028 1.39524 0.732853 0
M  V30 5690 C 539.274 1.38072 1.49358 0
M  V30 5691 C 539.629 -0.0227943 1.92386 0
M  V30 5692 O 538.922 -0.98976 1.64056 0
M  V30 5693 C 539.116 2.28916 2.74468 0
M  V30 5694 C 538.945 3.7796 2.43673 0
M  V30 5695 C 537.715 4.46874 2.35863 0
M  V30 5696 C 539.913 4.69886 2.09074 0
M  V30 5697 N 537.895 5.81242 1.97561 0
M  V30 5698 C 539.266 5.9292 1.81234 0
M  V30 5699 C 541.321 4.57887 1.95561 0
M  V30 5700 C 540.024 7.05297 1.41242 0
M  V30 5701 C 542.05 5.70187 1.56972 0
M  V30 5702 C 541.412 6.92297 1.30018 0
M  V30 5703 H 537.511 0.56051 0.5453 0
M  V30 5704 H 540.095 1.75093 0.85151 0
M  V30 5705 H 538.266 1.9405 3.36451 0
M  V30 5706 H 539.998 2.18441 3.40684 0
M  V30 5707 H 536.753 4.00341 2.5303 0
M  V30 5708 H 537.177 6.52356 1.80997 0
M  V30 5709 H 541.819 3.64014 2.15067 0
M  V30 5710 H 539.537 7.99069 1.20476 0
M  V30 5711 H 543.123 5.62892 1.47119 0
M  V30 5712 H 542.003 7.7772 1.00605 0
M  V30 5713 N 539.506 -0.963266 1.24736 0
M  V30 5714 C 540.454 -2.07985 1.04139 0
M  V30 5715 C 541.448 -1.69381 -0.0250556 0
M  V30 5716 O 542.654 -1.79531 0.129863 0
M  V30 5717 H 539.029 -0.680627 0.319768 0
M  V30 5718 H 541 -2.22517 1.98818 0
M  V30 5719 C 539.749 -3.4123 0.667615 0
M  V30 5720 H 539.072 -3.71397 1.48 0
M  V30 5721 H 540.512 -4.20244 0.563136 0
M  V30 5722 C 538.971 -3.3104 -0.625647 0
M  V30 5723 O 539.501 -3.65334 -1.67016 0
M  V30 5724 N 537.707 -2.84168 -0.608033 0
M  V30 5725 H 537.254 -2.56458 0.242323 0
M  V30 5726 H 537.212 -2.77732 -1.47352 0
M  V30 5727 N 540.985 -1.06182 -1.16461 0
M  V30 5728 C 542.233 -0.776326 -1.86595 0
M  V30 5729 C 542.554 0.69921 -1.82033 0
M  V30 5730 O 541.824 1.50579 -1.2531 0
M  V30 5731 H 540.404 -0.284184 -0.690832 0
M  V30 5732 H 543.066 -1.34308 -1.41235 0
M  V30 5733 H 542.162 -1.10022 -2.92064 0
M  V30 5734 N 542.463 1.3308 -0.844243 0
M  V30 5735 C 543.688 2.02341 -0.455282 0
M  V30 5736 C 544.113 1.6308 0.93737 0
M  V30 5737 O 543.471 0.826118 1.61385 0
M  V30 5738 C 543.519 3.55743 -0.58988 0
M  V30 5739 O 542.623 4.1063 0.38166 0
M  V30 5740 H 541.964 0.637898 -0.184343 0
M  V30 5741 H 544.494 1.6986 -1.14056 0
M  V30 5742 H 544.504 4.05243 -0.473522 0
M  V30 5743 H 543.179 3.83662 -1.60549 0
M  V30 5744 H 541.756 3.72236 0.22241 0
M  V30 5745 N 543.941 0.601185 1.45683 0
M  V30 5746 C 545.187 0.102425 2.03142 0
M  V30 5747 C 545.542 -1.25066 1.46207 0
M  V30 5748 O 544.835 -1.81126 0.624806 0
M  V30 5749 C 545.029 -0.00222425 3.574 0
M  V30 5750 C 544.858 1.33917 4.29298 0
M  V30 5751 C 543.628 1.91818 4.67476 0
M  V30 5752 C 545.826 2.26652 4.61664 0
M  V30 5753 N 543.808 3.19504 5.24204 0
M  V30 5754 C 545.179 3.38933 5.19157 0
M  V30 5755 C 547.234 2.26103 4.43601 0
M  V30 5756 C 545.937 4.50823 5.60492 0
M  V30 5757 C 547.963 3.37036 4.85964 0
M  V30 5758 C 547.325 4.48039 5.43545 0
M  V30 5759 H 543.424 0.0806974 0.777825 0
M  V30 5760 H 546.008 0.798134 1.77589 0
M  V30 5761 H 544.179 -0.66714 3.82627 0
M  V30 5762 H 545.911 -0.507058 4.01511 0
M  V30 5763 H 542.666 1.45097 4.50826 0
M  V30 5764 H 543.09 3.84705 5.57073 0
M  V30 5765 H 547.732 1.41547 3.98402 0
M  V30 5766 H 545.45 5.36108 6.0466 0
M  V30 5767 H 549.036 3.37752 4.73725 0
M  V30 5768 H 547.916 5.32459 5.75723 0
M  V30 5769 N 545.419 -1.53889 0.339982 0
M  V30 5770 C 546.644 -2.05741 -0.261798 0
M  V30 5771 C 547.069 -1.21354 -1.43718 0
M  V30 5772 O 546.427 -0.22645 -1.7988 0
M  V30 5773 C 546.475 -3.54542 -0.658228 0
M  V30 5774 O 545.579 -3.7302 -1.75869 0
M  V30 5775 H 544.92 -0.662529 -0.0441672 0
M  V30 5776 H 547.45 -1.98568 0.493161 0
M  V30 5777 H 547.46 -3.9711 -0.936368 0
M  V30 5778 H 546.135 -4.15412 0.201358 0
M  V30 5779 H 544.712 -3.42355 -1.47809 0
M  V30 5780 N 546.897 -0.0685191 -1.57451 0
M  V30 5781 C 548.174 0.642167 -1.84758 0
M  V30 5782 C 548.554 1.87991 -0.960344 0
M  V30 5783 O 547.902 2.28485 -0.0257894 0
M  V30 5784 C 548.112 0.982946 -3.34872 0
M  V30 5785 C 549.46 1.35784 -4.02303 0
M  V30 5786 O 550.484 1.07477 -3.39598 0
M  V30 5787 O 549.343 1.88681 -5.12895 0
M  V30 5788 H 546.437 0.318625 -0.763156 0
M  V30 5789 H 548.983 -0.0992015 -1.6941 0
M  V30 5790 H 547.755 0.10372 -3.91163 0
M  V30 5791 H 547.378 1.78119 -3.55471 0
M  V30 5792 N 548.375 1.56261 0.205012 0
M  V30 5793 C 549.791 1.49623 0.555433 0
M  V30 5794 C 549.991 0.766719 1.86343 0
M  V30 5795 O 549.047 0.313158 2.50551 0
M  V30 5796 C 550.36 2.94253 0.619347 0
M  V30 5797 C 551.908 3.04868 0.708855 0
M  V30 5798 C 552.383 4.50888 0.803969 0
M  V30 5799 N 553.874 4.54999 0.867758 0
M  V30 5800 C 554.609 5.65284 0.96135 0
M  V30 5801 N 554.105 6.85282 1.01786 0
M  V30 5802 N 555.898 5.53174 0.997771 0
M  V30 5803 H 548.049 2.0211 -0.653094 0
M  V30 5804 H 550.312 0.919333 -0.231366 0
M  V30 5805 H 550.018 3.50643 -0.272458 0
M  V30 5806 H 549.892 3.47063 1.47741 0
M  V30 5807 H 552.279 2.48532 1.5911 0
M  V30 5808 H 552.36 2.55199 -0.175205 0
M  V30 5809 H 552.004 5.07846 -0.0738798 0
M  V30 5810 H 551.934 4.98279 1.70369 0
M  V30 5811 H 554.425 3.68588 0.833735 0
M  V30 5812 H 554.738 7.65081 1.08951 0
M  V30 5813 H 553.083 6.8796 0.986706 0
M  V30 5814 H 556.274 4.5835 0.950392 0
M  V30 5815 H 556.447 6.39151 1.06725 0
M  V30 5816 N 549.853 -0.472356 1.50355 0
M  V30 5817 C 551.099 -1.22348 1.62488 0
M  V30 5818 C 551.454 -1.89711 0.320574 0
M  V30 5819 O 550.747 -1.79074 -0.68141 0
M  V30 5820 C 550.941 -2.29257 2.74182 0
M  V30 5821 C 550.77 -1.72383 4.15348 0
M  V30 5822 C 549.54 -1.52411 4.81766 0
M  V30 5823 C 551.738 -1.21949 4.99633 0
M  V30 5824 N 549.72 -0.907669 6.07153 0
M  V30 5825 C 551.091 -0.726191 6.15732 0
M  V30 5826 C 553.146 -1.10792 4.85417 0
M  V30 5827 C 551.849 -0.132322 7.19178 0
M  V30 5828 C 553.875 -0.52799 5.89038 0
M  V30 5829 C 553.237 -0.0450604 7.04386 0
M  V30 5830 H 549.336 -0.436631 0.648751 0
M  V30 5831 H 551.92 -0.525698 1.87469 0
M  V30 5832 H 550.091 -2.96464 2.50926 0
M  V30 5833 H 551.823 -2.9628 2.75681 0
M  V30 5834 H 548.578 -1.776 4.39039 0
M  V30 5835 H 549.002 -0.617897 6.74174 0
M  V30 5836 H 553.644 -1.46722 3.96525 0
M  V30 5837 H 551.362 0.239187 8.07746 0
M  V30 5838 H 554.948 -0.444046 5.80103 0
M  V30 5839 H 553.828 0.396659 7.83196 0
M  V30 5840 N 551.331 -1.39911 -0.725443 0
M  V30 5841 C 552.278 -1.39393 -1.83952 0
M  V30 5842 C 553.248 -0.252249 -1.64173 0
M  V30 5843 O 554.433 -0.44882 -1.85446 0
M  V30 5844 C 551.573 -1.25262 -3.21564 0
M  V30 5845 C 550.686 -2.49054 -3.52982 0
M  V30 5846 C 549.821 -2.27439 -4.80047 0
M  V30 5847 C 548.86 -3.46857 -5.04338 0
M  V30 5848 N 547.997 -3.24499 -6.22611 0
M  V30 5849 H 552.837 -2.34622 -1.83729 0
M  V30 5850 H 550.374 -1.16537 -0.897636 0
M  V30 5851 H 552.332 -1.15077 -4.01015 0
M  V30 5852 H 550.962 -0.33657 -3.21041 0
M  V30 5853 H 550.014 -2.69805 -2.6816 0
M  V30 5854 H 551.326 -3.37973 -3.66846 0
M  V30 5855 H 550.48 -2.14551 -5.67497 0
M  V30 5856 H 549.219 -1.35929 -4.68374 0
M  V30 5857 H 548.224 -3.60232 -4.15346 0
M  V30 5858 H 549.449 -4.3928 -5.17889 0
M  V30 5859 H 547.395 -2.35663 -6.12208 0
M  V30 5860 H 547.312 -4.06978 -6.37106 0
M  V30 5861 H 548.58 -3.15325 -7.12875 0
M  V30 5862 N 552.809 0.956637 -1.25245 0
M  V30 5863 C 554.086 1.67716 -1.00651 0
M  V30 5864 C 554.466 2.0585 0.467866 0
M  V30 5865 O 553.814 1.77029 1.44475 0
M  V30 5866 C 554.024 2.90093 -1.94028 0
M  V30 5867 C 555.372 3.6209 -2.21756 0
M  V30 5868 O 556.396 3.00171 -1.9177 0
M  V30 5869 O 555.255 4.7358 -2.72735 0
M  V30 5870 H 552.349 0.733731 -0.381533 0
M  V30 5871 H 554.895 1.00974 -1.3639 0
M  V30 5872 H 553.667 2.58689 -2.93591 0
M  V30 5873 H 553.29 3.64566 -1.58674 0
M  V30 5874 N 554.287 1.06798 1.15896 0
M  V30 5875 C 555.533 0.798757 1.8706 0
M  V30 5876 C 555.888 -0.667739 1.80441 0
M  V30 5877 O 555.181 -1.48334 1.21274 0
M  V30 5878 C 555.375 1.23414 3.35416 0
M  V30 5879 C 555.204 2.74142 3.56478 0
M  V30 5880 C 553.974 3.41675 3.72272 0
M  V30 5881 C 556.172 3.72348 3.5477 0
M  V30 5882 N 554.154 4.81101 3.81333 0
M  V30 5883 C 555.525 4.97585 3.69877 0
M  V30 5884 C 557.58 3.65585 3.38011 0
M  V30 5885 C 556.283 6.16866 3.69959 0
M  V30 5886 C 558.309 4.84323 3.39389 0
M  V30 5887 C 557.671 6.08391 3.5502 0
M  V30 5888 H 553.77 0.344761 0.7019 0
M  V30 5889 H 556.354 1.36314 1.3902 0
M  V30 5890 H 554.525 0.697522 3.82085 0
M  V30 5891 H 556.257 0.91304 3.94266 0
M  V30 5892 H 553.012 2.92078 3.7281 0
M  V30 5893 H 553.436 5.53647 3.8962 0
M  V30 5894 H 558.078 2.70615 3.2485 0
M  V30 5895 H 555.796 7.12164 3.819 0
M  V30 5896 H 559.382 4.80762 3.27658 0
M  V30 5897 H 558.262 6.98731 3.56012 0
M  V30 5898 N 555.766 -1.3263 0.851289 0
M  V30 5899 C 556.991 -2.02097 0.466006 0
M  V30 5900 C 557.416 -1.63574 -0.928709 0
M  V30 5901 O 556.774 -0.834665 -1.60944 0
M  V30 5902 C 556.822 -3.55425 0.608737 0
M  V30 5903 O 555.926 -4.10827 -0.359878 0
M  V30 5904 H 555.267 -0.636911 0.187724 0
M  V30 5905 H 557.797 -1.69253 1.14955 0
M  V30 5906 H 557.807 -4.04986 0.495006 0
M  V30 5907 H 556.482 -3.82806 1.62581 0
M  V30 5908 H 555.059 -3.72349 -0.202666 0
M  V30 5909 N 557.244 -0.608902 -1.45362 0
M  V30 5910 C 558.491 -0.104607 -2.0223 0
M  V30 5911 C 558.819 1.26534 -1.47714 0
M  V30 5912 O 558.074 1.84855 -0.642435 0
M  V30 5913 C 558.373 -0.0167296 -3.57396 0
M  V30 5914 C 558.039 -1.32251 -4.31069 0
M  V30 5915 C 556.701 -1.68019 -4.50914 0
M  V30 5916 C 559.053 -2.18542 -4.73169 0
M  V30 5917 C 556.381 -2.89828 -5.10114 0
M  V30 5918 C 558.733 -3.39602 -5.33717 0
M  V30 5919 C 557.397 -3.7562 -5.51784 0
M  V30 5920 H 556.667 -0.0382785 -0.740011 0
M  V30 5921 H 559.314 -0.790782 -1.7441 0
M  V30 5922 H 557.619 0.752715 -3.84502 0
M  V30 5923 H 559.316 0.389634 -3.99103 0
M  V30 5924 H 555.906 -1.03411 -4.15938 0
M  V30 5925 H 560.09 -1.92208 -4.5757 0
M  V30 5926 H 555.346 -3.17839 -5.22291 0
M  V30 5927 H 559.52 -4.06716 -5.65292 0
M  V30 5928 H 557.147 -4.70093 -5.97425 0
M  V30 5929 N 558.722 1.53707 -0.348139 0
M  V30 5930 C 559.968 2.01286 0.247332 0
M  V30 5931 C 560.301 1.23546 1.49834 0
M  V30 5932 O 559.576 0.324331 1.91777 0
M  V30 5933 C 559.859 3.55768 0.556858 0
M  V30 5934 C 559.712 4.44216 -0.706564 0
M  V30 5935 C 561.031 4.1841 1.3646 0
M  V30 5936 H 558.15 0.731677 0.0884201 0
M  V30 5937 H 560.792 1.84106 -0.469584 0
M  V30 5938 H 558.942 3.70539 1.16761 0
M  V30 5939 H 560.614 4.41274 -1.34444 0
M  V30 5940 H 558.857 4.12892 -1.33052 0
M  V30 5941 H 559.528 5.50202 -0.445186 0
M  V30 5942 H 562.004 4.07365 0.848113 0
M  V30 5943 H 560.88 5.26563 1.54992 0
M  V30 5944 H 561.141 3.7333 2.36805 0
M  V30 5945 N 560.2 0.0768682 1.57412 0
M  V30 5946 C 561.477 -0.632359 1.85096 0
M  V30 5947 C 561.857 -1.87479 0.9703 0
M  V30 5948 O 561.205 -2.28469 0.0379062 0
M  V30 5949 C 561.415 -0.965174 3.35388 0
M  V30 5950 C 562.763 -1.33648 4.03018 0
M  V30 5951 O 563.787 -1.05675 3.40164 0
M  V30 5952 O 562.646 -1.85959 5.13889 0
M  V30 5953 H 559.74 -0.314574 0.764835 0
M  V30 5954 H 562.286 0.108184 1.69355 0
M  V30 5955 H 561.058 -0.0829745 3.91212 0
M  V30 5956 H 560.681 -1.76231 3.5641 0
M  V30 5957 N 561.678 -1.56367 -0.196722 0
M  V30 5958 C 562.625 -1.94417 -1.24382 0
M  V30 5959 C 563.595 -0.804543 -1.45315 0
M  V30 5960 O 564.78 -1.06256 -1.58475 0
M  V30 5961 C 561.92 -2.28757 -2.58388 0
M  V30 5962 C 561.033 -3.55775 -2.45047 0
M  V30 5963 C 560.168 -3.79445 -3.71746 0
M  V30 5964 C 559.207 -4.99894 -3.53231 0
M  V30 5965 N 558.344 -5.19826 -4.71938 0
M  V30 5966 H 563.184 -2.83691 -0.912338 0
M  V30 5967 H 560.721 -1.40392 -0.439135 0
M  V30 5968 H 562.679 -2.46682 -3.36457 0
M  V30 5969 H 561.309 -1.42625 -2.89582 0
M  V30 5970 H 560.361 -3.45905 -1.58284 0
M  V30 5971 H 561.673 -4.44 -2.27299 0
M  V30 5972 H 560.827 -3.97601 -4.58256 0
M  V30 5973 H 559.566 -2.89546 -3.92446 0
M  V30 5974 H 558.571 -4.81662 -2.65107 0
M  V30 5975 H 559.796 -5.913 -3.33978 0
M  V30 5976 H 557.742 -4.32875 -4.92905 0
M  V30 5977 H 557.659 -6.02228 -4.57009 0
M  V30 5978 H 558.927 -5.42439 -5.59803 0
M  V30 5979 N 563.156 0.464375 -1.50603 0
M  V30 5980 C 564.433 1.22549 -1.5245 0
M  V30 5981 C 564.813 2.09327 -0.273035 0
M  V30 5982 O 564.161 2.16074 0.743242 0
M  V30 5983 C 564.371 2.05074 -2.82393 0
M  V30 5984 C 565.719 2.63036 -3.33313 0
M  V30 5985 O 566.743 2.1531 -2.8376 0
M  V30 5986 O 565.602 3.5001 -4.19709 0
M  V30 5987 H 562.696 0.556471 -0.611775 0
M  V30 5988 H 565.242 0.475648 -1.62898 0
M  V30 5989 H 564.014 1.41169 -3.64948 0
M  V30 5990 H 563.637 2.87179 -2.7498 0
M  V30 5991 N 564.634 1.40294 0.718013 0
M  V30 5992 C 565.544 1.42678 1.86226 0
M  V30 5993 C 566.56 0.319655 1.71039 0
M  V30 5994 O 567.736 0.563852 1.93346 0
M  V30 5995 C 564.801 1.2852 3.21999 0
M  V30 5996 C 563.862 2.49354 3.49458 0
M  V30 5997 C 563.095 2.35863 4.78753 0
M  V30 5998 O 563.318 1.37114 5.53675 0
M  V30 5999 O 562.252 3.25189 5.06494 0
M  V30 6000 H 566.078 2.39167 1.87171 0
M  V30 6001 H 563.663 1.2159 0.868112 0
M  V30 6002 H 565.545 1.22824 4.03103 0
M  V30 6003 H 564.22 0.351359 3.21787 0
M  V30 6004 H 563.127 2.60628 2.68373 0
M  V30 6005 H 564.46 3.41491 3.54464 0
M  V30 6006 N 566.112 -0.949982 1.2575 0
M  V30 6007 C 567.059 -2.04738 1.06541 0
M  V30 6008 C 568.029 -1.66078 -0.0268818 0
M  V30 6009 O 569.214 -1.90348 0.131196 0
M  V30 6010 C 566.354 -3.38027 0.695127 0
M  V30 6011 C 565.467 -3.89776 1.86276 0
M  V30 6012 C 564.602 -5.11411 1.4364 0
M  V30 6013 C 563.641 -5.554 2.57287 0
M  V30 6014 N 562.778 -6.68244 2.15395 0
M  V30 6015 H 567.618 -2.20502 2.00457 0
M  V30 6016 H 565.155 -1.0805 0.998178 0
M  V30 6017 H 567.113 -4.14641 0.461375 0
M  V30 6018 H 565.743 -3.22135 -0.207046 0
M  V30 6019 H 564.795 -3.0964 2.20969 0
M  V30 6020 H 566.107 -4.18368 2.71606 0
M  V30 6021 H 565.261 -5.95457 1.16257 0
M  V30 6022 H 564 -4.84545 0.553879 0
M  V30 6023 H 563.005 -4.69916 2.85409 0
M  V30 6024 H 564.23 -5.84272 3.46125 0
M  V30 6025 H 562.176 -6.43078 1.29565 0
M  V30 6026 H 562.093 -6.96377 2.94272 0
M  V30 6027 H 563.361 -7.55687 1.91201 0
M  V30 6028 N 567.59 -1.07411 -1.15328 0
M  V30 6029 C 568.553 -0.698914 -2.18284 0
M  V30 6030 C 569.553 0.261149 -1.58665 0
M  V30 6031 O 570.743 0.0420277 -1.74149 0
M  V30 6032 C 567.875 -0.0302427 -3.40887 0
M  V30 6033 H 569.068 -1.61045 -2.52991 0
M  V30 6034 H 566.621 -0.870724 -1.298 0
M  V30 6035 H 567.356 0.893505 -3.11748 0
M  V30 6036 H 567.141 -0.720759 -3.85419 0
M  V30 6037 H 568.631 0.21759 -4.17033 0
M  V30 6038 N 569.068 1.32177 -0.85831 0
M  V30 6039 C 570.484 1.49873 -0.548656 0
M  V30 6040 C 570.684 1.79278 0.919874 0
M  V30 6041 O 569.74 1.86451 1.70271 0
M  V30 6042 C 571.053 2.64043 -1.4388 0
M  V30 6043 C 572.601 2.77928 -1.43961 0
M  V30 6044 C 573.076 3.95182 -2.31506 0
M  V30 6045 N 574.567 4.0245 -2.29321 0
M  V30 6046 C 575.302 4.9242 -2.93786 0
M  V30 6047 N 574.798 5.87373 -3.67376 0
M  V30 6048 N 576.591 4.85572 -2.83155 0
M  V30 6049 H 568.742 1.11357 -1.80868 0
M  V30 6050 H 571.005 0.549175 -0.772729 0
M  V30 6051 H 570.711 2.49055 -2.48324 0
M  V30 6052 H 570.585 3.59912 -1.12885 0
M  V30 6053 H 572.972 2.92338 -0.402813 0
M  V30 6054 H 573.053 1.82762 -1.78974 0
M  V30 6055 H 572.697 3.81531 -3.35256 0
M  V30 6056 H 572.627 4.89633 -1.93823 0
M  V30 6057 H 575.118 3.34507 -1.75822 0
M  V30 6058 H 575.431 6.52728 -4.13722 0
M  V30 6059 H 573.776 5.87388 -3.71484 0
M  V30 6060 H 576.967 4.10363 -2.25211 0
M  V30 6061 H 577.14 5.55486 -3.33676 0
M  V30 6062 N 570.547 0.616602 1.45037 0
M  V30 6063 C 571.477 -0.0840787 2.33349 0
M  V30 6064 C 572.458 -0.849641 1.4736 0
M  V30 6065 O 573.643 -0.818407 1.76113 0
M  V30 6066 C 570.773 -1.07604 3.3021 0
M  V30 6067 C 569.727 -0.423096 4.25904 0
M  V30 6068 C 569.053 -1.52394 5.12523 0
M  V30 6069 C 570.353 0.661457 5.18095 0
M  V30 6070 H 572.047 0.653333 2.92185 0
M  V30 6071 H 569.593 0.315634 1.40498 0
M  V30 6072 H 571.546 -1.57485 3.90866 0
M  V30 6073 H 570.27 -1.84416 2.69552 0
M  V30 6074 H 568.929 0.05493 3.66559 0
M  V30 6075 H 568.577 -2.28257 4.48227 0
M  V30 6076 H 568.277 -1.09251 5.77354 0
M  V30 6077 H 569.801 -2.02485 5.76049 0
M  V30 6078 H 571.215 0.246353 5.7277 0
M  V30 6079 H 569.612 1.01517 5.91451 0
M  V30 6080 H 570.682 1.53446 4.59981 0
M  V30 6081 N 572.025 -1.5352 0.356285 0
M  V30 6082 C 572.957 -2.23009 -0.529127 0
M  V30 6083 C 573.97 -1.241 -1.05371 0
M  V30 6084 O 575.159 -1.50379 -0.961679 0
M  V30 6085 C 572.259 -2.90685 -1.74229 0
M  V30 6086 C 571.432 -4.16019 -1.35081 0
M  V30 6087 C 570.491 -4.66989 -2.42502 0
M  V30 6088 O 569.517 -5.30895 -2.05279 0
M  V30 6089 N 570.719 -4.44006 -3.7395 0
M  V30 6090 H 573.484 -2.99627 0.0660501 0
M  V30 6091 H 571.045 -1.60885 0.181014 0
M  V30 6092 H 573.037 -3.21695 -2.4555 0
M  V30 6093 H 571.607 -2.17575 -2.24454 0
M  V30 6094 H 570.827 -3.91414 -0.467833 0
M  V30 6095 H 572.115 -4.9752 -1.06542 0
M  V30 6096 H 571.513 -3.92924 -4.06973 0
M  V30 6097 H 570.07 -4.7959 -4.41403 0
M  V30 6098 N 573.503 -0.0852151 -1.57369 0
M  V30 6099 C 574.453 0.88767 -2.10011 0
M  V30 6100 C 575.437 1.25021 -1.01285 0
M  V30 6101 O 576.629 1.22694 -1.27574 0
M  V30 6102 C 573.758 2.15037 -2.67608 0
M  V30 6103 C 572.844 1.81371 -3.83361 0
M  V30 6104 N 573.235 1.18216 -4.91791 0
M  V30 6105 C 571.533 2.11041 -3.92909 0
M  V30 6106 C 572.234 1.02941 -5.72519 0
M  V30 6107 N 571.21 1.54351 -5.21226 0
M  V30 6108 H 575.012 0.395279 -2.9123 0
M  V30 6109 H 572.526 0.11829 -1.61969 0
M  V30 6110 H 574.523 2.85667 -3.03644 0
M  V30 6111 H 573.183 2.64851 -1.8784 0
M  V30 6112 H 574.194 0.850168 -5.10874 0
M  V30 6113 H 570.871 2.63138 -3.24136 0
M  V30 6114 H 572.261 0.536298 -6.69756 0
M  V30 6115 N 574.981 1.5647 0.188427 0
M  V30 6116 C 575.913 1.91611 1.25769 0
M  V30 6117 C 576.926 0.807436 1.41366 0
M  V30 6118 O 578.115 1.08586 1.41673 0
M  V30 6119 C 575.215 2.13874 2.6289 0
M  V30 6120 C 574.388 3.45047 2.68815 0
M  V30 6121 C 573.447 3.56342 3.87178 0
M  V30 6122 O 572.473 4.29109 3.73971 0
M  V30 6123 N 573.675 2.89924 5.02916 0
M  V30 6124 H 576.44 2.8393 0.959373 0
M  V30 6125 H 574.001 1.57418 0.378306 0
M  V30 6126 H 575.993 2.18713 3.4051 0
M  V30 6127 H 574.563 1.28022 2.85183 0
M  V30 6128 H 573.783 3.52017 1.77419 0
M  V30 6129 H 575.071 4.31395 2.6977 0
M  V30 6130 H 574.469 2.30644 5.16546 0
M  V30 6131 H 573.026 3.0038 5.78459 0
M  V30 6132 N 576.459 -0.456382 1.50847 0
M  V30 6133 C 577.705 -1.20914 1.62811 0
M  V30 6134 C 578.038 -1.91301 0.334304 0
M  V30 6135 O 577.313 -1.82775 -0.665098 0
M  V30 6136 C 577.596 -2.24122 2.81853 0
M  V30 6137 C 577.449 -1.57944 4.21158 0
M  V30 6138 C 578.768 -3.25295 2.96431 0
M  V30 6139 H 575.887 -0.438233 0.592554 0
M  V30 6140 H 578.529 -0.50091 1.83278 0
M  V30 6141 H 576.679 -2.84524 2.64534 0
M  V30 6142 H 578.351 -1.01025 4.50102 0
M  V30 6143 H 576.594 -0.882185 4.24735 0
M  V30 6144 H 577.265 -2.33014 5.00408 0
M  V30 6145 H 579.741 -2.7493 3.12335 0
M  V30 6146 H 578.617 -3.94822 3.81322 0
M  V30 6147 H 578.878 -3.90286 2.07676 0
M  V30 6148 N 577.937 -1.40673 -0.710563 0
M  V30 6149 C 579.165 -1.42547 -1.4996 0
M  V30 6150 C 579.58 -0.0265485 -1.88781 0
M  V30 6151 O 578.937 0.950694 -1.55782 0
M  V30 6152 C 578.988 -2.32071 -2.77173 0
M  V30 6153 O 578.709 -3.66518 -2.39992 0
M  V30 6154 C 580.21 -2.42591 -3.71032 0
M  V30 6155 H 577.43 -0.486025 -0.462623 0
M  V30 6156 H 579.974 -1.84783 -0.876102 0
M  V30 6157 H 578.129 -1.93184 -3.35795 0
M  V30 6158 H 578.543 -4.14115 -3.21884 0
M  V30 6159 H 580.017 -3.09429 -4.57119 0
M  V30 6160 H 580.494 -1.4525 -4.14486 0
M  V30 6161 H 581.1 -2.82051 -3.18319 0
M  V30 6162 N 579.415 0.9433 -1.26252 0
M  V30 6163 C 580.325 2.07532 -1.09397 0
M  V30 6164 C 581.341 1.73977 -0.0280449 0
M  V30 6165 O 582.517 2.00067 -0.231337 0
M  V30 6166 C 579.582 3.39002 -0.726523 0
M  V30 6167 C 578.643 3.86353 -1.87163 0
M  V30 6168 C 577.876 5.11549 -1.52162 0
M  V30 6169 O 578.099 5.68834 -0.422385 0
M  V30 6170 O 577.033 5.53889 -2.35565 0
M  V30 6171 H 580.859 2.24658 -2.04359 0
M  V30 6172 H 578.444 1.05988 -1.05295 0
M  V30 6173 H 580.326 4.18 -0.534236 0
M  V30 6174 H 579.001 3.2312 0.193721 0
M  V30 6175 H 577.908 3.0831 -2.11886 0
M  V30 6176 H 579.241 4.06752 -2.77152 0
M  V30 6177 N 580.893 1.08022 1.14757 0
M  V30 6178 C 582.17 0.720386 1.81851 0
M  V30 6179 C 582.55 -0.796375 1.95502 0
M  V30 6180 O 581.898 -1.71339 1.51179 0
M  V30 6181 C 582.108 1.44273 3.17783 0
M  V30 6182 C 583.456 1.59925 3.93331 0
M  V30 6183 O 584.48 1.40407 3.2736 0
M  V30 6184 O 583.339 1.92096 5.11626 0
M  V30 6185 H 580.433 0.257142 0.786007 0
M  V30 6186 H 582.979 1.18155 1.21809 0
M  V30 6187 H 581.751 2.47618 3.02987 0
M  V30 6188 H 581.374 0.97279 3.85516 0
M  V30 6189 N 582.371 -1.3172 0.865308 0
M  V30 6190 C 583.619 -1.96487 0.472995 0
M  V30 6191 C 583.94 -1.68761 -0.976975 0
M  V30 6192 O 583.21 -1.00051 -1.68424 0
M  V30 6193 H 581.79 -0.726947 0.171922 0
M  V30 6194 H 584.452 -1.60612 1.10407 0
M  V30 6195 H 583.548 -3.0574 0.62687 0
M  V30 6196 N 583.85 -0.624285 -1.44708 0
M  V30 6197 C 584.76 0.0861083 -2.34442 0
M  V30 6198 C 585.776 0.84291 -1.5222 0
M  V30 6199 O 586.952 0.796723 -1.84971 0
M  V30 6200 C 584.017 1.05999 -3.30099 0
M  V30 6201 C 583.077 0.303316 -4.28227 0
M  V30 6202 C 582.311 1.23081 -5.19314 0
M  V30 6203 O 582.534 2.46929 -5.14181 0
M  V30 6204 O 581.468 0.71883 -5.97592 0
M  V30 6205 H 585.293 -0.651756 -2.96624 0
M  V30 6206 H 582.879 -0.384493 -1.44368 0
M  V30 6207 H 584.76 1.62046 -3.88997 0
M  V30 6208 H 583.436 1.77859 -2.70459 0
M  V30 6209 H 582.343 -0.300033 -3.72895 0
M  V30 6210 H 583.676 -0.375123 -4.90768 0
M  V30 6211 N 585.328 1.53329 -0.364422 0
M  V30 6212 C 586.575 2.01239 0.225634 0
M  V30 6213 C 586.903 1.25172 1.48869 0
M  V30 6214 O 586.158 0.333289 1.92841 0
M  V30 6215 C 586.457 3.52911 0.564661 0
M  V30 6216 C 586.123 4.46837 -0.603936 0
M  V30 6217 C 584.785 4.72234 -0.924585 0
M  V30 6218 C 587.137 5.02409 -1.38691 0
M  V30 6219 C 584.465 5.50454 -2.0302 0
M  V30 6220 C 586.817 5.81836 -2.48293 0
M  V30 6221 C 585.481 6.0552 -2.80894 0
M  V30 6222 H 584.751 0.736386 0.0825654 0
M  V30 6223 H 587.398 1.84948 -0.496645 0
M  V30 6224 H 585.703 3.67144 1.36794 0
M  V30 6225 H 587.4 3.87455 1.03344 0
M  V30 6226 H 583.99 4.27217 -0.343983 0
M  V30 6227 H 588.174 4.82735 -1.15243 0
M  V30 6228 H 583.43 5.67024 -2.28678 0
M  V30 6229 H 587.604 6.23905 -3.0938 0
M  V30 6230 H 585.231 6.65916 -3.66688 0
M  V30 6231 N 586.806 0.0935595 1.57322 0
M  V30 6232 C 588.052 -0.565234 1.95388 0
M  V30 6233 C 588.407 -1.65888 0.974632 0
M  V30 6234 O 587.7 -1.916 0.000376385 0
M  V30 6235 C 587.894 -1.16692 3.37813 0
M  V30 6236 C 587.723 -0.133091 4.49503 0
M  V30 6237 C 586.493 0.289884 5.04468 0
M  V30 6238 C 588.691 0.638141 5.10326 0
M  V30 6239 N 586.673 1.31214 5.99713 0
M  V30 6240 C 588.044 1.51227 6.01274 0
M  V30 6241 C 590.099 0.691827 4.9307 0
M  V30 6242 C 588.802 2.43536 6.76818 0
M  V30 6243 C 590.828 1.60251 5.69274 0
M  V30 6244 C 590.19 2.46427 6.59889 0
M  V30 6245 H 586.289 -0.177212 0.761656 0
M  V30 6246 H 588.873 0.175769 1.93905 0
M  V30 6247 H 587.044 -1.87775 3.39993 0
M  V30 6248 H 588.776 -1.78795 3.63063 0
M  V30 6249 H 585.531 -0.0975541 4.735 0
M  V30 6250 H 585.955 1.82143 6.52038 0
M  V30 6251 H 590.597 0.0397431 4.22781 0
M  V30 6252 H 588.315 3.0977 7.4637 0
M  V30 6253 H 591.901 1.64917 5.57937 0
M  V30 6254 H 590.781 3.15751 7.17824 0
M  V30 6255 N 588.284 -1.56567 -0.180126 0
M  V30 6256 C 589.217 -1.90813 -1.25163 0
M  V30 6257 C 590.195 -0.7699 -1.43218 0
M  V30 6258 O 591.379 -1.02236 -1.58367 0
M  V30 6259 C 588.506 -2.15138 -2.61597 0
M  V30 6260 C 587.552 -3.37834 -2.60328 0
M  V30 6261 S 588.385 -4.92486 -2.1028 0
M  V30 6262 C 589.541 -5.19896 -3.48509 0
M  V30 6263 H 589.774 -2.81398 -0.959283 0
M  V30 6264 H 587.307 -1.49541 -0.3843 0
M  V30 6265 H 589.265 -2.29835 -3.40127 0
M  V30 6266 H 587.926 -1.25276 -2.88036 0
M  V30 6267 H 587.119 -3.52027 -3.60684 0
M  V30 6268 H 586.721 -3.22208 -1.8989 0
M  V30 6269 H 589.013 -5.11334 -4.44459 0
M  V30 6270 H 589.956 -6.21571 -3.39198 0
M  V30 6271 H 590.364 -4.47489 -3.44114 0
M  V30 6272 N 589.762 0.448376 -1.51087 0
M  V30 6273 C 590.987 1.22605 -1.6728 0
M  V30 6274 C 591.412 1.84524 -0.365045 0
M  V30 6275 O 590.77 1.6832 0.673642 0
M  V30 6276 C 590.818 2.29393 -2.78229 0
M  V30 6277 O 589.922 3.34608 -2.41063 0
M  V30 6278 H 589.263 0.359705 -0.558129 0
M  V30 6279 H 591.793 0.530903 -1.97592 0
M  V30 6280 H 591.803 2.74352 -3.01986 0
M  V30 6281 H 590.478 1.83701 -3.73131 0
M  V30 6282 H 589.055 2.95202 -2.27838 0
M  V30 6283 N 591.24 1.41047 0.703093 0
M  V30 6284 C 592.47 1.43133 1.48985 0
M  V30 6285 C 592.878 0.0328537 1.89171 0
M  V30 6286 O 592.221 -0.956469 1.56835 0
M  V30 6287 C 592.283 2.26991 2.78775 0
M  V30 6288 C 591.947 3.7525 2.60837 0
M  V30 6289 C 592.944 4.67591 2.27276 0
M  V30 6290 C 590.629 4.19208 2.76712 0
M  V30 6291 C 592.623 6.01877 2.09817 0
M  V30 6292 C 590.31 5.53561 2.5887 0
M  V30 6293 C 591.308 6.4471 2.25472 0
M  V30 6294 O 590.996 7.76584 2.07778 0
M  V30 6295 H 590.728 0.489788 0.465922 0
M  V30 6296 H 593.282 1.85886 0.873822 0
M  V30 6297 H 591.512 1.79038 3.42757 0
M  V30 6298 H 593.201 2.20867 3.40547 0
M  V30 6299 H 593.967 4.34923 2.14633 0
M  V30 6300 H 589.846 3.48572 3.01693 0
M  V30 6301 H 593.39 6.72986 1.83671 0
M  V30 6302 H 589.287 5.85811 2.71102 0
M  V30 6303 H 590.055 7.87649 2.22601 0
M  V30 6304 N 592.718 -0.936591 1.26751 0
M  V30 6305 C 593.628 -2.06949 1.10496 0
M  V30 6306 C 594.644 -1.7396 0.037271 0
M  V30 6307 O 595.82 -1.99941 0.241944 0
M  V30 6308 C 592.885 -3.38612 0.744491 0
M  V30 6309 C 591.946 -3.85355 1.89209 0
M  V30 6310 C 591.179 -5.10735 1.54873 0
M  V30 6311 O 591.402 -5.68602 0.452546 0
M  V30 6312 O 590.336 -5.52632 2.38499 0
M  V30 6313 H 594.162 -2.23571 2.05547 0
M  V30 6314 H 591.747 -1.05428 1.05855 0
M  V30 6315 H 593.629 -4.17711 0.556396 0
M  V30 6316 H 592.304 -3.23218 -0.176582 0
M  V30 6317 H 591.211 -3.07182 2.13518 0
M  V30 6318 H 592.544 -4.05277 2.79305 0
M  V30 6319 N 594.196 -1.08629 -1.14182 0
M  V30 6320 C 595.473 -0.73002 -1.81466 0
M  V30 6321 C 595.853 0.785996 -1.95922 0
M  V30 6322 O 595.201 1.70535 -1.52086 0
M  V30 6323 C 595.411 -1.45957 -3.17014 0
M  V30 6324 C 596.759 -1.62008 -3.92477 0
M  V30 6325 O 597.783 -1.42141 -3.26611 0
M  V30 6326 O 596.642 -1.94806 -5.106 0
M  V30 6327 H 593.736 -0.261307 -0.784632 0
M  V30 6328 H 596.282 -1.188 -1.2118 0
M  V30 6329 H 595.054 -2.49221 -3.01669 0
M  V30 6330 H 594.677 -0.993222 -3.84995 0
M  V30 6331 N 595.674 1.31259 -0.872281 0
M  V30 6332 C 596.921 1.96622 -0.484365 0
M  V30 6333 C 597.249 1.68939 0.963841 0
M  V30 6334 O 596.504 0.97974 1.6941 0
M  V30 6335 C 596.803 3.50659 -0.690889 0
M  V30 6336 C 596.469 3.98366 -2.11224 0
M  V30 6337 C 595.131 4.11104 -2.50094 0
M  V30 6338 C 597.483 4.23425 -3.0391 0
M  V30 6339 C 594.811 4.46254 -3.80887 0
M  V30 6340 C 597.163 4.60039 -4.3422 0
M  V30 6341 C 595.827 4.70984 -4.73001 0
M  V30 6342 H 595.097 0.71949 -0.177242 0
M  V30 6343 H 597.744 1.56353 -1.10571 0
M  V30 6344 H 596.049 3.91798 0.0135782 0
M  V30 6345 H 597.746 3.99284 -0.370534 0
M  V30 6346 H 594.336 3.88949 -1.80047 0
M  V30 6347 H 598.52 4.13075 -2.75104 0
M  V30 6348 H 593.776 4.52926 -4.10692 0
M  V30 6349 H 597.95 4.78381 -5.06088 0
M  V30 6350 H 595.577 4.97977 -5.7439 0
M  V30 6351 N 597.152 0.631951 1.44375 0
M  V30 6352 C 598.401 0.134214 2.01253 0
M  V30 6353 C 598.714 -1.25171 1.50305 0
M  V30 6354 O 599.92 -1.8435 1.99317 0
M  V30 6355 C 598.376 0.189187 3.59402 0
M  V30 6356 C 597.984 1.57647 4.19346 0
M  V30 6357 C 599.728 -0.252044 4.23751 0
M  V30 6358 C 597.635 1.58651 5.69722 0
M  V30 6359 H 596.565 0.0464101 0.75257 0
M  V30 6360 H 599.216 0.790868 1.65582 0
M  V30 6361 H 597.598 -0.534584 3.92375 0
M  V30 6362 H 598.772 2.32389 3.97909 0
M  V30 6363 H 597.087 1.96186 3.67288 0
M  V30 6364 H 599.684 -0.264084 5.34047 0
M  V30 6365 H 600.027 -1.27951 3.96149 0
M  V30 6366 H 600.56 0.41926 3.95584 0
M  V30 6367 H 597.299 2.59237 6.0206 0
M  V30 6368 H 596.819 0.882039 5.93279 0
M  V30 6369 H 598.498 1.32082 6.33375 0
M  V30 6370 N 598.631 -1.53133 0.372548 0
M  V30 6371 C 599.861 -2.05476 -0.215202 0
M  V30 6372 C 600.269 -1.24534 -1.42436 0
M  V30 6373 O 599.612 -0.280771 -1.81542 0
M  V30 6374 C 599.674 -3.53276 -0.666068 0
M  V30 6375 C 599.338 -4.54998 0.427342 0
M  V30 6376 C 600.335 -5.03911 1.27944 0
M  V30 6377 C 598.02 -4.98828 0.589579 0
M  V30 6378 C 600.014 -5.95263 2.27905 0
M  V30 6379 C 597.701 -5.89984 1.59255 0
M  V30 6380 C 598.699 -6.38093 2.43571 0
M  V30 6381 O 598.387 -7.27451 3.42156 0
M  V30 6382 H 598.119 -0.67481 -0.040099 0
M  V30 6383 H 600.673 -1.98409 0.531312 0
M  V30 6384 H 598.903 -3.57904 -1.4643 0
M  V30 6385 H 600.592 -3.88442 -1.1776 0
M  V30 6386 H 601.358 -4.70792 1.16532 0
M  V30 6387 H 597.237 -4.60965 -0.0569456 0
M  V30 6388 H 600.781 -6.32736 2.93753 0
M  V30 6389 H 596.678 -6.22518 1.70711 0
M  V30 6390 H 597.446 -7.45467 3.37967 0
M  V30 6391 N 600.109 -0.101901 -1.5727 0
M  V30 6392 C 601.059 0.865346 -2.1094 0
M  V30 6393 C 602.043 1.2394 -1.02605 0
M  V30 6394 O 603.235 1.21334 -1.28868 0
M  V30 6395 C 600.364 2.12187 -2.69874 0
M  V30 6396 C 599.45 1.77295 -3.85263 0
M  V30 6397 N 599.841 1.12993 -4.93017 0
M  V30 6398 C 598.139 2.06862 -3.95126 0
M  V30 6399 C 598.84 0.968631 -5.73579 0
M  V30 6400 N 597.816 1.48814 -5.22834 0
M  V30 6401 H 601.618 0.364368 -2.91633 0
M  V30 6402 H 599.132 0.101104 -1.62085 0
M  V30 6403 H 601.129 2.82431 -3.06657 0
M  V30 6404 H 599.789 2.62844 -1.90639 0
M  V30 6405 H 600.8 0.795935 -5.11747 0
M  V30 6406 H 597.477 2.59686 -3.26909 0
M  V30 6407 H 598.867 0.465231 -6.70287 0
M  V30 6408 N 601.587 1.56661 0.17182 0
M  V30 6409 C 602.834 1.81965 0.888529 0
M  V30 6410 C 603.162 0.6789 1.82267 0
M  V30 6411 O 602.417 -0.333875 1.92831 0
M  V30 6412 C 602.716 3.13435 1.71736 0
M  V30 6413 C 602.382 4.41159 0.932184 0
M  V30 6414 C 601.044 4.75851 0.715481 0
M  V30 6415 C 603.396 5.19803 0.381387 0
M  V30 6416 C 600.724 5.86666 -0.063126 0
M  V30 6417 C 603.076 6.31433 -0.384129 0
M  V30 6418 C 601.74 6.64692 -0.611637 0
M  V30 6419 H 601.01 0.665859 0.325136 0
M  V30 6420 H 603.657 1.90884 0.153495 0
M  V30 6421 H 601.962 2.99857 2.52177 0
M  V30 6422 H 603.659 3.30224 2.27493 0
M  V30 6423 H 600.249 4.13947 1.11112 0
M  V30 6424 H 604.433 4.93396 0.536148 0
M  V30 6425 H 599.689 6.10892 -0.249136 0
M  V30 6426 H 603.863 6.91577 -0.818185 0
M  V30 6427 H 601.49 7.50398 -1.21684 0
M  V30 6428 N 603.065 -0.440357 1.51323 0
M  V30 6429 C 604.293 -1.21255 1.67645 0
M  V30 6430 C 604.708 -1.85088 0.37252 0
M  V30 6431 O 604.065 -1.70582 -0.648683 0
M  V30 6432 C 604.116 -2.29881 2.78993 0
M  V30 6433 O 603.837 -1.68659 4.04334 0
M  V30 6434 C 605.338 -3.20214 3.06558 0
M  V30 6435 H 602.558 -0.36558 0.562666 0
M  V30 6436 H 605.102 -0.52214 1.97722 0
M  V30 6437 H 603.257 -2.94643 2.51524 0
M  V30 6438 H 603.671 -2.40426 4.6615 0
M  V30 6439 H 605.145 -3.92575 3.88058 0
M  V30 6440 H 605.622 -3.80794 2.18844 0
M  V30 6441 H 606.228 -2.61156 3.35675 0
M  V30 6442 N 604.543 -1.41418 -0.695603 0
M  V30 6443 C 605.49 -1.43264 -1.80954 0
M  V30 6444 C 606.46 -0.287016 -1.63601 0
M  V30 6445 O 607.645 -0.488054 -1.84452 0
M  V30 6446 C 604.785 -1.32054 -3.18835 0
M  V30 6447 C 603.898 -2.56485 -3.4762 0
M  V30 6448 C 603.033 -2.3757 -4.75115 0
M  V30 6449 C 602.072 -3.57477 -4.96867 0
M  V30 6450 N 601.209 -3.37632 -6.15588 0
M  V30 6451 H 606.049 -2.38467 -1.78711 0
M  V30 6452 H 603.586 -1.18415 -0.872715 0
M  V30 6453 H 605.544 -1.23558 -3.98484 0
M  V30 6454 H 604.174 -0.404592 -3.20254 0
M  V30 6455 H 603.226 -2.75432 -2.62376 0
M  V30 6456 H 604.538 -3.45678 -3.59594 0
M  V30 6457 H 603.692 -2.2654 -5.62818 0
M  V30 6458 H 602.431 -1.45834 -4.65386 0
M  V30 6459 H 601.436 -3.68961 -4.07612 0
M  V30 6460 H 602.661 -4.50167 -5.08455 0
M  V30 6461 H 600.607 -2.48596 -6.07072 0
M  V30 6462 H 600.524 -4.20401 -6.2833 0
M  V30 6463 H 601.792 -3.30375 -7.06026 0
M  V30 6464 N 606.021 0.929856 -1.27246 0
M  V30 6465 C 606.951 2.04722 -1.12299 0
M  V30 6466 C 607.932 1.70082 -0.0250464 0
M  V30 6467 O 609.117 1.93176 -0.199141 0
M  V30 6468 C 606.247 3.38721 -0.767145 0
M  V30 6469 C 605.201 3.87466 -1.81808 0
M  V30 6470 C 604.527 5.18246 -1.31626 0
M  V30 6471 C 605.827 4.11095 -3.22177 0
M  V30 6472 H 607.521 2.17485 -2.05769 0
M  V30 6473 H 605.067 1.04503 -0.990715 0
M  V30 6474 H 607.02 4.16366 -0.649413 0
M  V30 6475 H 605.744 3.25967 0.203259 0
M  V30 6476 H 604.403 3.12012 -1.92468 0
M  V30 6477 H 604.051 5.01881 -0.335378 0
M  V30 6478 H 603.751 5.51829 -2.01887 0
M  V30 6479 H 605.275 5.98462 -1.21143 0
M  V30 6480 H 606.689 4.79316 -3.1453 0
M  V30 6481 H 605.086 4.55982 -3.90129 0
M  V30 6482 H 606.156 3.16468 -3.67391 0
M  V30 6483 N 607.499 1.09233 1.13605 0
M  V30 6484 C 608.409 0.741939 2.22559 0
M  V30 6485 C 609.425 -0.255236 1.72118 0
M  V30 6486 O 610.601 -0.0970747 2.01166 0
M  V30 6487 C 607.666 0.165595 3.46304 0
M  V30 6488 C 606.727 1.21846 4.11645 0
M  V30 6489 C 605.96 0.669526 5.29484 0
M  V30 6490 O 606.183 -0.508228 5.68131 0
M  V30 6491 O 605.117 1.42361 5.84822 0
M  V30 6492 H 608.943 1.65107 2.54899 0
M  V30 6493 H 606.528 0.866584 1.21699 0
M  V30 6494 H 608.41 -0.152592 4.21124 0
M  V30 6495 H 607.085 -0.716573 3.15669 0
M  V30 6496 H 605.992 1.58931 3.38662 0
M  V30 6497 H 607.325 2.07321 4.46407 0
M  V30 6498 N 608.977 -1.30795 0.87923 0
M  V30 6499 C 610.226 -1.95636 0.490875 0
M  V30 6500 C 610.539 -1.70214 -0.963674 0
M  V30 6501 O 611.745 -2.28991 -1.45861 0
M  V30 6502 C 610.201 -3.50271 0.826929 0
M  V30 6503 C 609.809 -3.84521 2.29886 0
M  V30 6504 C 611.553 -4.21456 0.507494 0
M  V30 6505 C 609.46 -5.32309 2.57685 0
M  V30 6506 H 608.39 -0.732238 0.179841 0
M  V30 6507 H 611.041 -1.48829 1.07341 0
M  V30 6508 H 609.423 -3.9562 0.173542 0
M  V30 6509 H 610.597 -3.50102 2.99609 0
M  V30 6510 H 608.912 -3.26425 2.58526 0
M  V30 6511 H 611.509 -5.30199 0.692293 0
M  V30 6512 H 611.852 -4.12614 -0.552718 0
M  V30 6513 H 612.385 -3.81772 1.11782 0
M  V30 6514 H 609.124 -5.46195 3.62424 0
M  V30 6515 H 608.644 -5.68048 1.92566 0
M  V30 6516 H 610.323 -5.99678 2.42889 0
M  V30 6517 N 610.455 -0.639598 -1.44038 0
M  V30 6518 C 611.695 -0.150902 -2.03842 0
M  V30 6519 C 612.059 1.20744 -1.49281 0
M  V30 6520 O 613.26 1.78875 -2.00642 0
M  V30 6521 C 611.531 -0.146114 -3.57101 0
M  V30 6522 S 613.09 0.276725 -4.37927 0
M  V30 6523 H 609.908 -0.0652447 -0.708 0
M  V30 6524 H 612.51 -0.844886 -1.76301 0
M  V30 6525 H 611.214 -1.13769 -3.94316 0
M  V30 6526 H 610.745 0.568846 -3.89266 0
M  V30 6527 H 612.76 1.51893 -4.7238 0
M  V30 6528 N 611.933 1.52934 -0.380664 0
M  V30 6529 C 612.881 2.27727 0.47361 0
M  V30 6530 C 613.875 1.31288 1.0705 0
M  V30 6531 O 615.081 1.4886 1.01197 0
M  V30 6532 H 611.456 0.732189 0.171475 0
M  V30 6533 H 613.427 2.97864 -0.178785 0
M  V30 6534 C 612.176 3.0904 1.59341 0
M  V30 6535 H 611.499 3.831 1.14343 0
M  V30 6536 H 612.939 3.64527 2.16555 0
M  V30 6537 C 611.398 2.20813 2.54447 0
M  V30 6538 O 611.928 1.82907 3.57642 0
M  V30 6539 N 610.134 1.85145 2.23986 0
M  V30 6540 H 609.681 2.16169 1.40103 0
M  V30 6541 H 609.639 1.26402 2.87871 0
M  V30 6542 N 613.412 0.11024 1.57214 0
M  V30 6543 C 614.342 -0.840002 2.17867 0
M  V30 6544 C 615.323 -1.28352 1.11624 0
M  V30 6545 O 616.508 -1.3477 1.39824 0
M  V30 6546 C 613.638 -2.09349 2.77111 0
M  V30 6547 C 612.592 -1.78807 3.8886 0
M  V30 6548 C 611.918 -3.11112 4.34872 0
M  V30 6549 C 613.218 -1.0632 5.11364 0
M  V30 6550 H 614.912 -0.334608 2.97524 0
M  V30 6551 H 612.458 -0.159502 1.43114 0
M  V30 6552 H 614.411 -2.76275 3.18198 0
M  V30 6553 H 613.135 -2.62198 1.9473 0
M  V30 6554 H 611.794 -1.14273 3.48335 0
M  V30 6555 H 611.442 -3.61877 3.49362 0
M  V30 6556 H 611.142 -2.91453 5.10224 0
M  V30 6557 H 612.666 -3.79171 4.78604 0
M  V30 6558 H 614.08 -1.63383 5.49526 0
M  V30 6559 H 612.477 -0.967876 5.92243 0
M  V30 6560 H 613.547 -0.0484569 4.84876 0
M  V30 6561 N 614.89 -1.56749 -0.16351 0
M  V30 6562 C 616.118 -1.86577 -0.894233 0
M  V30 6563 C 616.533 -0.696543 -1.75481 0
M  V30 6564 O 615.89 0.334161 -1.79415 0
M  V30 6565 C 615.941 -3.15508 -1.76456 0
M  V30 6566 O 615.662 -4.27926 -0.938685 0
M  V30 6567 C 617.163 -3.58737 -2.60428 0
M  V30 6568 H 614.383 -0.618829 -0.259405 0
M  V30 6569 H 616.927 -2.03863 -0.161259 0
M  V30 6570 H 615.082 -3.00025 -2.45079 0
M  V30 6571 H 615.496 -5.01546 -1.53465 0
M  V30 6572 H 616.97 -4.51832 -3.17099 0
M  V30 6573 H 617.447 -2.83229 -3.35675 0
M  V30 6574 H 618.053 -3.76858 -1.97125 0
M  V30 6575 N 616.368 0.432326 -1.51554 0
M  V30 6576 C 617.331 1.50765 -1.72634 0
M  V30 6577 C 618.331 1.49334 -0.596314 0
M  V30 6578 O 619.521 1.51268 -0.863925 0
M  V30 6579 C 616.653 2.90284 -1.7874 0
M  V30 6580 H 617.846 1.33377 -2.68609 0
M  V30 6581 H 615.399 0.661329 -1.4162 0
M  V30 6582 H 616.134 3.13071 -0.845977 0
M  V30 6583 H 615.919 2.92727 -2.6087 0
M  V30 6584 H 617.409 3.68282 -1.96871 0
M  V30 6585 N 617.846 1.41785 0.688094 0
M  V30 6586 C 619.123 1.32031 1.44316 0
M  V30 6587 C 619.503 -0.0486079 2.11044 0
M  V30 6588 O 618.851 -1.06332 2.02252 0
M  V30 6589 C 619.061 2.47906 2.45649 0
M  V30 6590 C 620.409 2.89415 3.10683 0
M  V30 6591 O 621.433 2.477 2.55975 0
M  V30 6592 O 620.292 3.61573 4.09789 0
M  V30 6593 H 617.386 0.519994 0.643067 0
M  V30 6594 H 619.932 1.53765 0.71794 0
M  V30 6595 H 618.704 3.39222 1.95048 0
M  V30 6596 H 618.327 2.28089 3.25671 0
M  V30 6597 N 619.324 -0.923095 1.27737 0
M  V30 6598 C 620.287 -2.00587 1.10894 0
M  V30 6599 C 621.287 -1.60718 0.0514927 0
M  V30 6600 O 622.477 -1.71658 0.296481 0
M  V30 6601 C 619.609 -3.33829 0.690717 0
M  V30 6602 H 620.802 -2.16959 2.07048 0
M  V30 6603 H 618.355 -1.10451 1.1059 0
M  V30 6604 H 619.09 -3.23157 -0.272 0
M  V30 6605 H 618.875 -3.64125 1.45448 0
M  V30 6606 H 620.365 -4.13336 0.595252 0
M  V30 6607 N 620.802 -1.09834 -1.13024 0
M  V30 6608 C 621.732 -0.763451 -2.20666 0
M  V30 6609 C 622.713 0.260778 -1.68089 0
M  V30 6610 O 623.898 0.127915 -1.93778 0
M  V30 6611 C 621.028 -0.187744 -3.46792 0
M  V30 6612 C 619.982 -1.14196 -4.12484 0
M  V30 6613 C 619.308 -0.427755 -5.32986 0
M  V30 6614 C 620.608 -2.48607 -4.59338 0
M  V30 6615 H 622.302 -1.66347 -2.48936 0
M  V30 6616 H 619.848 -0.801261 -1.19649 0
M  V30 6617 H 621.801 0.0586375 -4.21359 0
M  V30 6618 H 620.525 0.747485 -3.17931 0
M  V30 6619 H 619.184 -1.37369 -3.3989 0
M  V30 6620 H 618.832 0.511747 -5.0039 0
M  V30 6621 H 618.532 -1.06403 -5.77886 0
M  V30 6622 H 620.056 -0.189772 -6.10305 0
M  V30 6623 H 621.47 -2.29618 -5.25308 0
M  V30 6624 H 619.867 -3.08062 -5.14993 0
M  V30 6625 H 620.937 -3.09062 -3.73642 0
M  V30 6626 N 622.28 1.30327 -0.886154 0
M  V30 6627 C 623.212 2.27079 -0.311072 0
M  V30 6628 C 624.225 1.53758 0.53502 0
M  V30 6629 O 625.414 1.74947 0.354378 0
M  V30 6630 C 622.514 3.33965 0.576228 0
M  V30 6631 C 621.687 4.36735 -0.241064 0
M  V30 6632 C 620.746 5.23028 0.576916 0
M  V30 6633 O 619.772 5.692 -0.000802231 0
M  V30 6634 N 620.974 5.49016 1.88579 0
M  V30 6635 H 623.739 2.77065 -1.14259 0
M  V30 6636 H 621.3 1.43519 -0.749258 0
M  V30 6637 H 623.292 3.88618 1.12953 0
M  V30 6638 H 621.862 2.839 1.30842 0
M  V30 6639 H 621.082 3.81932 -0.975805 0
M  V30 6640 H 622.37 5.02451 -0.801272 0
M  V30 6641 H 621.768 5.13288 2.37806 0
M  V30 6642 H 620.325 6.06539 2.38651 0
M  V30 6643 N 623.758 0.647228 1.43697 0
M  V30 6644 C 624.983 0.164083 2.0675 0
M  V30 6645 C 625.408 -1.15892 1.48158 0
M  V30 6646 O 624.766 -1.71459 0.589194 0
M  V30 6647 C 624.814 0.0800368 3.60511 0
M  V30 6648 O 623.918 -0.959453 4.01084 0
M  V30 6649 H 623.259 0.0921288 0.657578 0
M  V30 6650 H 625.789 0.88846 1.84303 0
M  V30 6651 H 625.799 -0.105263 4.07864 0
M  V30 6652 H 624.474 1.04586 4.02535 0
M  V30 6653 H 623.051 -0.747425 3.65333 0
M  V30 6654 N 625.236 -1.5273 0.388769 0
M  V30 6655 C 626.513 -1.93981 -0.251133 0
M  V30 6656 C 626.893 -1.32418 -1.64404 0
M  V30 6657 O 626.241 -0.492074 -2.23139 0
M  V30 6658 C 626.451 -3.47891 -0.27802 0
M  V30 6659 C 627.799 -4.21559 -0.507229 0
M  V30 6660 O 628.823 -3.54394 -0.358252 0
M  V30 6661 O 627.682 -5.40626 -0.799094 0
M  V30 6662 H 624.776 -0.812157 -0.15598 0
M  V30 6663 H 627.322 -1.63809 0.443237 0
M  V30 6664 H 626.094 -3.8503 0.697669 0
M  V30 6665 H 625.717 -3.84364 -1.01733 0
M  V30 6666 N 626.714 -0.118576 -1.57153 0
M  V30 6667 C 627.661 0.831789 -2.1529 0
M  V30 6668 C 628.631 1.26385 -1.07778 0
M  V30 6669 O 629.816 1.34144 -1.35684 0
M  V30 6670 C 626.956 2.07664 -2.75626 0
M  V30 6671 C 626.069 1.69298 -3.97444 0
M  V30 6672 C 625.204 2.88747 -4.45868 0
M  V30 6673 C 624.243 2.46619 -5.60219 0
M  V30 6674 N 623.38 3.5898 -6.03389 0
M  V30 6675 H 628.22 0.329183 -2.96176 0
M  V30 6676 H 625.757 0.150792 -1.46325 0
M  V30 6677 H 627.715 2.80601 -3.08738 0
M  V30 6678 H 626.345 2.55384 -1.97431 0
M  V30 6679 H 625.397 0.862374 -3.70496 0
M  V30 6680 H 626.709 1.34338 -4.80369 0
M  V30 6681 H 625.863 3.69909 -4.80887 0
M  V30 6682 H 624.602 3.26933 -3.61892 0
M  V30 6683 H 623.607 1.63889 -5.24805 0
M  V30 6684 H 624.832 2.0955 -6.45961 0
M  V30 6685 H 622.778 3.9684 -5.22354 0
M  V30 6686 H 622.695 3.27942 -6.81168 0
M  V30 6687 H 623.963 4.40583 -6.43045 0
M  V30 6688 N 628.193 1.56834 0.155195 0
M  V30 6689 C 629.123 2.00678 1.19376 0
M  V30 6690 C 630.104 0.884973 1.45266 0
M  V30 6691 O 631.289 1.1522 1.56326 0
M  V30 6692 C 628.419 2.38042 2.5289 0
M  V30 6693 C 627.373 3.53332 2.41538 0
M  V30 6694 C 626.699 3.76485 3.79688 0
M  V30 6695 C 627.999 4.86265 1.9064 0
M  V30 6696 H 629.693 2.87688 0.829232 0
M  V30 6697 H 627.239 1.38407 0.397445 0
M  V30 6698 H 629.192 2.67314 3.25763 0
M  V30 6699 H 627.916 1.4796 2.91162 0
M  V30 6700 H 626.575 3.24213 1.71117 0
M  V30 6701 H 626.223 2.83667 4.15382 0
M  V30 6702 H 625.923 4.54068 3.72956 0
M  V30 6703 H 627.447 4.08174 4.54122 0
M  V30 6704 H 628.861 5.14308 2.53299 0
M  V30 6705 H 627.258 5.67597 1.94818 0
M  V30 6706 H 628.328 4.77184 0.861596 0
M  V30 6707 N 629.671 -0.424282 1.51781 0
M  V30 6708 C 630.603 -1.53457 1.70246 0
M  V30 6709 C 631.616 -1.52004 0.582967 0
M  V30 6710 O 632.805 -1.56544 0.857683 0
M  V30 6711 C 629.905 -2.92368 1.71389 0
M  V30 6712 C 629.078 -3.1818 3.00133 0
M  V30 6713 C 628.137 -4.36884 2.9329 0
M  V30 6714 O 627.163 -4.34901 3.67219 0
M  V30 6715 N 628.365 -5.4117 2.10036 0
M  V30 6716 H 631.13 -1.38017 2.66029 0
M  V30 6717 H 628.691 -0.613394 1.4983 0
M  V30 6718 H 630.683 -3.6982 1.64362 0
M  V30 6719 H 629.253 -3.0134 0.831449 0
M  V30 6720 H 628.473 -2.28908 3.20928 0
M  V30 6721 H 629.761 -3.32261 3.85331 0
M  V30 6722 H 629.159 -5.45623 1.49373 0
M  V30 6723 H 627.716 -6.17425 2.08878 0
M  V30 6724 N 631.149 -1.42148 -0.680565 0
M  V30 6725 C 632.377 -1.45696 -1.46902 0
M  V30 6726 C 632.792 -0.0665858 -1.88683 0
M  V30 6727 O 632.149 0.917436 -1.57764 0
M  V30 6728 C 632.2 -2.37898 -2.72188 0
M  V30 6729 O 631.921 -3.71526 -2.32163 0
M  V30 6730 C 633.422 -2.50407 -3.65802 0
M  V30 6731 H 630.642 -0.495729 -0.45221 0
M  V30 6732 H 633.186 -1.866 -0.836709 0
M  V30 6733 H 631.341 -2.00263 -3.31622 0
M  V30 6734 H 631.755 -4.20849 -3.13027 0
M  V30 6735 H 633.229 -3.19056 -4.50452 0
M  V30 6736 H 633.706 -1.5401 -4.11312 0
M  V30 6737 H 634.312 -2.8874 -3.12265 0
M  V30 6738 N 632.627 0.916307 -1.28225 0
M  V30 6739 C 633.873 1.66794 -1.1641 0
M  V30 6740 C 634.228 1.90278 0.284986 0
M  V30 6741 O 633.521 1.49023 1.20427 0
M  V30 6742 C 633.715 3.03125 -1.8934 0
M  V30 6743 C 633.544 2.92947 -3.41192 0
M  V30 6744 C 632.314 2.9461 -4.10528 0
M  V30 6745 C 634.512 2.7121 -4.36978 0
M  V30 6746 N 632.494 2.74993 -5.48864 0
M  V30 6747 C 633.865 2.60411 -5.6266 0
M  V30 6748 C 635.92 2.56187 -4.26934 0
M  V30 6749 C 634.623 2.3612 -6.79441 0
M  V30 6750 C 636.649 2.33275 -5.43449 0
M  V30 6751 C 636.011 2.23228 -6.68093 0
M  V30 6752 H 632.11 0.616654 -0.480896 0
M  V30 6753 H 634.694 1.08237 -1.61842 0
M  V30 6754 H 632.865 3.59774 -1.46346 0
M  V30 6755 H 634.597 3.67294 -1.69932 0
M  V30 6756 H 631.352 3.0527 -3.62087 0
M  V30 6757 H 631.776 2.68284 -6.21573 0
M  V30 6758 H 636.418 2.62707 -3.31278 0
M  V30 6759 H 634.136 2.28339 -7.75169 0
M  V30 6760 H 637.722 2.22519 -5.37565 0
M  V30 6761 H 636.602 2.05741 -7.5673 0
M  V30 6762 N 634.105 1.10431 1.1244 0
M  V30 6763 C 635.333 0.868872 1.87772 0
M  V30 6764 C 635.748 -0.580645 1.7965 0
M  V30 6765 O 635.105 -1.40031 1.17036 0
M  V30 6766 C 635.156 1.30855 3.36986 0
M  V30 6767 O 634.877 2.70123 3.44914 0
M  V30 6768 C 636.378 1.107 4.29256 0
M  V30 6769 H 633.598 0.311868 0.59412 0
M  V30 6770 H 636.142 1.46897 1.42273 0
M  V30 6771 H 634.297 0.752126 3.80029 0
M  V30 6772 H 634.711 2.88923 4.37748 0
M  V30 6773 H 636.185 1.46378 5.32238 0
M  V30 6774 H 636.662 0.0456228 4.39176 0
M  V30 6775 H 637.268 1.64988 3.91994 0
M  V30 6776 N 635.583 -1.29855 0.893053 0
M  V30 6777 C 636.829 -1.96116 0.516349 0
M  V30 6778 C 637.162 -1.70281 -0.933695 0
M  V30 6779 O 636.437 -1.01205 -1.66096 0
M  V30 6780 C 636.72 -3.51068 0.801455 0
M  V30 6781 C 636.573 -3.86387 2.30272 0
M  V30 6782 C 637.892 -4.39186 0.283423 0
M  V30 6783 H 635.011 -0.712335 0.189072 0
M  V30 6784 H 637.653 -1.53587 1.11852 0
M  V30 6785 H 635.803 -3.87424 0.288949 0
M  V30 6786 H 637.475 -3.60012 2.88425 0
M  V30 6787 H 635.718 -3.34167 2.76613 0
M  V30 6788 H 636.389 -4.94512 2.45279 0
M  V30 6789 H 638.865 -4.09785 0.722187 0
M  V30 6790 H 637.741 -5.46505 0.512169 0
M  V30 6791 H 638.002 -4.34511 -0.815643 0
M  V30 6792 N 637.061 -0.65484 -1.43351 0
M  V30 6793 C 638.286 -0.175046 -2.0666 0
M  V30 6794 C 638.711 1.15104 -1.4877 0
M  V30 6795 O 638.069 1.71144 -0.598279 0
M  V30 6796 C 638.117 -0.0991544 -3.60464 0
M  V30 6797 O 637.221 0.938169 -4.01587 0
M  V30 6798 H 636.562 -0.0956148 -0.65708 0
M  V30 6799 H 639.092 -0.898222 -1.83829 0
M  V30 6800 H 639.102 0.083632 -4.07914 0
M  V30 6801 H 637.777 -1.06719 -4.01975 0
M  V30 6802 H 636.354 0.72804 -3.65724 0
M  V30 6803 N 638.539 1.52521 -0.396863 0
M  V30 6804 C 639.785 2.01971 0.183169 0
M  V30 6805 C 640.118 1.2825 1.45827 0
M  V30 6806 O 639.393 0.385179 1.90648 0
M  V30 6807 C 639.676 3.5736 0.443391 0
M  V30 6808 C 639.529 4.41743 -0.84753 0
M  V30 6809 C 640.848 4.22539 1.2308 0
M  V30 6810 H 637.967 0.734119 0.0650976 0
M  V30 6811 H 640.609 1.82519 -0.527918 0
M  V30 6812 H 638.759 3.74066 1.04914 0
M  V30 6813 H 640.431 4.36773 -1.48414 0
M  V30 6814 H 638.674 4.0845 -1.4612 0
M  V30 6815 H 639.345 5.48507 -0.620003 0
M  V30 6816 H 641.821 4.09857 0.718084 0
M  V30 6817 H 640.697 5.31227 1.38162 0
M  V30 6818 H 640.958 3.80675 2.24808 0
M  V30 6819 N 640.017 0.126909 1.57088 0
M  V30 6820 C 640.965 -0.837618 2.16995 0
M  V30 6821 C 641.959 -1.26974 1.12133 0
M  V30 6822 O 643.165 -1.24056 1.30423 0
M  V30 6823 H 639.54 -0.288256 0.694559 0
M  V30 6824 H 641.511 -0.307957 2.96807 0
M  V30 6825 C 640.26 -2.07474 2.79016 0
M  V30 6826 H 639.583 -1.75117 3.59408 0
M  V30 6827 H 641.023 -2.72949 3.24461 0
M  V30 6828 C 639.482 -2.86967 1.76498 0
M  V30 6829 O 640.012 -3.82625 1.22316 0
M  V30 6830 N 638.218 -2.51111 1.46258 0
M  V30 6831 H 637.765 -1.73389 1.90509 0
M  V30 6832 H 637.723 -3.04594 0.779085 0
M  V30 6833 N 641.495 -1.56914 -0.146875 0
M  V30 6834 C 642.405 -2.0154 -1.20079 0
M  V30 6835 C 643.421 -0.930838 -1.47008 0
M  V30 6836 O 644.597 -1.24032 -1.58676 0
M  V30 6837 C 641.662 -2.38715 -2.51428 0
M  V30 6838 C 640.723 -3.6112 -2.32145 0
M  V30 6839 C 639.956 -3.96512 -3.57231 0
M  V30 6840 O 640.179 -3.32566 -4.63418 0
M  V30 6841 O 639.113 -4.89758 -3.49887 0
M  V30 6842 H 642.939 -2.91506 -0.851924 0
M  V30 6843 H 640.524 -1.45106 -0.355607 0
M  V30 6844 H 642.406 -2.63485 -3.28867 0
M  V30 6845 H 641.081 -1.51903 -2.85845 0
M  V30 6846 H 639.988 -3.41536 -1.52656 0
M  V30 6847 H 641.321 -4.48549 -2.02644 0
M  V30 6848 N 642.974 0.416227 -1.52004 0
M  V30 6849 C 644.222 1.16153 -1.65387 0
M  V30 6850 C 644.543 1.91208 -0.382669 0
M  V30 6851 O 643.813 1.86413 0.602231 0
M  V30 6852 H 642.393 0.431765 -0.60958 0
M  V30 6853 H 645.055 0.475151 -1.89019 0
M  V30 6854 H 644.151 1.87952 -2.4916 0
M  V30 6855 N 644.452 1.42507 0.673017 0
M  V30 6856 C 645.868 1.25472 0.986355 0
M  V30 6857 C 646.068 0.160181 2.00862 0
M  V30 6858 O 645.124 -0.467993 2.48125 0
M  V30 6859 C 646.437 2.61219 1.48947 0
M  V30 6860 C 647.985 2.68589 1.60715 0
M  V30 6861 C 648.46 4.04707 2.14422 0
M  V30 6862 N 649.951 4.0667 2.21752 0
M  V30 6863 C 650.686 5.0881 2.64386 0
M  V30 6864 N 650.182 6.21332 3.0646 0
M  V30 6865 N 651.975 4.96166 2.64151 0
M  V30 6866 H 644.126 2.124 -0.00378532 0
M  V30 6867 H 646.389 0.946046 0.0608367 0
M  V30 6868 H 646.095 3.42179 0.812812 0
M  V30 6869 H 645.969 2.85261 2.46791 0
M  V30 6870 H 648.356 1.87974 2.27486 0
M  V30 6871 H 648.437 2.48333 0.613552 0
M  V30 6872 H 648.081 4.8578 1.48258 0
M  V30 6873 H 648.011 4.22315 3.14575 0
M  V30 6874 H 650.502 3.25438 1.92089 0
M  V30 6875 H 650.815 6.95118 3.37684 0
M  V30 6876 H 649.16 6.24835 3.04313 0
M  V30 6877 H 652.351 4.07334 2.30644 0
M  V30 6878 H 652.524 5.759 2.97057 0
M  V30 6879 N 645.93 -0.909495 1.28709 0
M  V30 6880 C 647.176 -1.66175 1.17293 0
M  V30 6881 C 647.531 -1.90426 -0.274891 0
M  V30 6882 O 646.824 -1.49659 -1.19635 0
M  V30 6883 C 647.018 -3.02117 1.90945 0
M  V30 6884 C 646.847 -2.91134 3.42741 0
M  V30 6885 C 645.617 -2.92429 4.12085 0
M  V30 6886 C 647.815 -2.68889 4.3841 0
M  V30 6887 N 645.797 -2.72078 5.50315 0
M  V30 6888 C 647.168 -2.57423 5.64033 0
M  V30 6889 C 649.223 -2.53919 4.28287 0
M  V30 6890 C 647.926 -2.32513 6.80683 0
M  V30 6891 C 649.952 -2.3039 5.44678 0
M  V30 6892 C 649.314 -2.19682 6.69268 0
M  V30 6893 H 645.413 -0.614095 0.48416 0
M  V30 6894 H 647.997 -1.07377 1.62414 0
M  V30 6895 H 646.168 -3.58993 1.48252 0
M  V30 6896 H 647.9 -3.66388 1.71878 0
M  V30 6897 H 644.655 -3.03345 3.63701 0
M  V30 6898 H 645.079 -2.64983 6.22987 0
M  V30 6899 H 649.721 -2.60946 3.32666 0
M  V30 6900 H 647.439 -2.24225 7.76369 0
M  V30 6901 H 651.025 -2.19665 5.38738 0
M  V30 6902 H 649.905 -2.01725 7.5781 0
M  V30 6903 N 647.408 -1.11026 -1.11852 0
M  V30 6904 C 648.654 -0.857729 -1.83768 0
M  V30 6905 C 648.987 0.615143 -1.842 0
M  V30 6906 O 648.262 1.45391 -1.29196 0
M  V30 6907 C 648.545 -1.41453 -3.31154 0
M  V30 6908 C 648.398 -2.95471 -3.39142 0
M  V30 6909 C 649.717 -1.0619 -4.27097 0
M  V30 6910 H 646.836 -0.313044 -0.667212 0
M  V30 6911 H 649.478 -1.37443 -1.31185 0
M  V30 6912 H 647.628 -0.975052 -3.76065 0
M  V30 6913 H 649.3 -3.4799 -3.02821 0
M  V30 6914 H 647.543 -3.31759 -2.79497 0
M  V30 6915 H 648.214 -3.29515 -4.42859 0
M  V30 6916 H 650.69 -1.44122 -3.90344 0
M  V30 6917 H 649.566 -1.47832 -5.28618 0
M  V30 6918 H 649.827 0.0278912 -4.42091 0
M  V30 6919 N 648.886 1.2938 -0.899927 0
M  V30 6920 C 650.302 1.48052 -0.596059 0
M  V30 6921 C 650.502 1.82114 0.862372 0
M  V30 6922 O 649.558 1.91774 1.64253 0
M  V30 6923 C 650.871 2.59332 -1.52208 0
M  V30 6924 C 652.419 2.73208 -1.5273 0
M  V30 6925 C 652.894 3.87617 -2.43961 0
M  V30 6926 N 654.385 3.9495 -2.42009 0
M  V30 6927 C 655.12 4.82824 -3.09303 0
M  V30 6928 N 654.616 5.75387 -3.85877 0
M  V30 6929 N 656.409 4.76317 -2.98459 0
M  V30 6930 H 648.56 1.05546 -1.8432 0
M  V30 6931 H 650.823 0.524314 -0.78981 0
M  V30 6932 H 650.529 2.41029 -2.56121 0
M  V30 6933 H 650.403 3.56139 -1.24278 0
M  V30 6934 H 652.79 2.90908 -0.495614 0
M  V30 6935 H 652.871 1.76975 -1.84698 0
M  V30 6936 H 652.515 3.70672 -3.47224 0
M  V30 6937 H 652.445 4.83218 -2.09303 0
M  V30 6938 H 654.936 3.28744 -1.86375 0
M  V30 6939 H 655.249 6.39235 -4.34279 0
M  V30 6940 H 653.594 5.75272 -3.89984 0
M  V30 6941 H 656.785 4.0299 -2.38152 0
M  V30 6942 H 656.958 5.44589 -3.51179 0
M  V30 6943 N 650.364 0.662433 1.43002 0
M  V30 6944 C 651.612 0.179237 2.01304 0
M  V30 6945 C 651.933 -1.21428 1.52579 0
M  V30 6946 O 651.203 -1.81294 0.742252 0
M  V30 6947 H 649.783 0.0632725 0.744316 0
M  V30 6948 H 652.445 0.856169 1.75088 0
M  V30 6949 H 651.541 0.170957 3.11631 0
M  V30 6950 N 651.842 -1.52309 0.404946 0
M  V30 6951 C 653.082 -2.03677 -0.171779 0
M  V30 6952 C 653.446 -1.28419 -1.42733 0
M  V30 6953 O 654.647 -1.69991 -2.08222 0
M  V30 6954 C 652.918 -3.54951 -0.417701 0
M  V30 6955 S 654.477 -4.28114 -0.962472 0
M  V30 6956 H 651.295 -0.709445 -0.0469912 0
M  V30 6957 H 653.897 -1.874 0.556901 0
M  V30 6958 H 652.601 -4.07306 0.50295 0
M  V30 6959 H 652.132 -3.75462 -1.17437 0
M  V30 6960 H 654.147 -4.42589 -2.24342 0
M  V30 6961 N 653.32 -0.135238 -1.57019 0
M  V30 6962 C 654.545 0.529343 -2.00531 0
M  V30 6963 C 654.97 1.58391 -1.01459 0
M  V30 6964 O 654.328 1.81296 0.0113986 0
M  V30 6965 C 654.376 1.11748 -3.42848 0
M  V30 6966 O 653.48 2.23267 -3.46736 0
M  V30 6967 H 652.821 0.130669 -0.651016 0
M  V30 6968 H 655.351 -0.228503 -2.0332 0
M  V30 6969 H 655.361 1.44905 -3.81401 0
M  V30 6970 H 654.036 0.345147 -4.14465 0
M  V30 6971 H 652.613 1.91428 -3.20015 0
M  V30 6972 N 654.798 1.5699 0.138552 0
M  V30 6973 C 655.761 1.97984 1.15478 0
M  V30 6974 C 656.761 0.867416 1.35398 0
M  V30 6975 O 657.951 1.13387 1.32246 0
M  V30 6976 C 655.083 2.3031 2.51337 0
M  V30 6977 H 656.276 2.88953 0.802896 0
M  V30 6978 H 653.829 1.51555 0.382189 0
M  V30 6979 H 654.564 1.42159 2.91481 0
M  V30 6980 H 654.349 3.11425 2.38237 0
M  V30 6981 H 655.839 2.62834 3.24512 0
M  V30 6982 N 656.276 -0.40816 1.52223 0
M  V30 6983 C 657.524 -1.15274 1.66001 0
M  V30 6984 C 657.845 -1.91003 0.392803 0
M  V30 6985 O 657.115 -1.8673 -0.592336 0
M  V30 6986 H 655.695 -0.428526 0.611861 0
M  V30 6987 H 658.357 -0.46512 1.89269 0
M  V30 6988 H 657.453 -1.86628 2.50153 0
M  V30 6989 N 657.755 -1.42862 -0.66545 0
M  V30 6990 C 659.003 -1.43546 -1.42264 0
M  V30 6991 C 659.324 -0.0563116 -1.94919 0
M  V30 6992 O 658.594 0.906568 -1.73661 0
M  V30 6993 H 657.174 -0.528464 -0.527953 0
M  V30 6994 H 659.836 -1.78363 -0.785665 0
M  V30 6995 H 658.932 -2.14079 -2.27105 0
M  V30 6996 N 659.233 0.902656 -1.29189 0
M  V30 6997 C 660.473 1.6672 -1.18254 0
M  V30 6998 C 660.837 1.90199 0.262336 0
M  V30 6999 O 662.038 2.6421 0.494612 0
M  V30 7000 C 660.309 2.98178 -1.9704 0
M  V30 7001 S 661.868 3.89226 -2.02605 0
M  V30 7002 H 658.686 0.572432 -0.421714 0
M  V30 7003 H 661.288 1.07279 -1.63436 0
M  V30 7004 H 659.992 2.788 -3.01163 0
M  V30 7005 H 659.523 3.62661 -1.5245 0
M  V30 7006 H 661.538 4.82913 -1.14059 0
M  V30 7007 N 660.711 1.11618 1.11262 0
M  V30 7008 C 662.127 0.850468 1.35053 0
M  V30 7009 C 662.327 -0.523868 1.94571 0
M  V30 7010 O 661.383 -1.2743 2.17986 0
M  V30 7011 C 662.696 1.96005 2.28041 0
M  V30 7012 C 664.244 1.98993 2.416 0
M  V30 7013 C 664.719 3.0916 3.37911 0
M  V30 7014 N 666.21 3.08547 3.45475 0
M  V30 7015 C 666.945 3.9043 4.19943 0
M  V30 7016 N 666.441 4.8228 4.97371 0
M  V30 7017 N 668.234 3.786 4.15474 0
M  V30 7018 H 660.385 2.00184 0.709932 0
M  V30 7019 H 662.648 0.870635 0.375099 0
M  V30 7020 H 662.354 2.9499 1.91503 0
M  V30 7021 H 662.228 1.85782 3.28275 0
M  V30 7022 H 664.615 1.00633 2.77411 0
M  V30 7023 H 664.696 2.13292 1.4121 0
M  V30 7024 H 664.34 4.07748 3.02827 0
M  V30 7025 H 664.27 2.92102 4.3816 0
M  V30 7026 H 666.761 2.42 2.90249 0
M  V30 7027 H 667.074 5.41289 5.51567 0
M  V30 7028 H 665.419 4.863 4.96525 0
M  V30 7029 H 668.61 3.06185 3.54074 0
M  V30 7030 H 668.783 4.42647 4.73253 0
M  V30 7031 N 662.189 -1.289 0.906776 0
M  V30 7032 C 663.137 -2.29477 0.379873 0
M  V30 7033 C 664.131 -1.61068 -0.524747 0
M  V30 7034 O 665.337 -1.75344 -0.406765 0
M  V30 7035 H 661.712 -0.744742 0.10423 0
M  V30 7036 H 663.683 -2.71353 1.24137 0
M  V30 7037 C 662.432 -3.45713 -0.371154 0
M  V30 7038 H 661.755 -3.98551 0.315716 0
M  V30 7039 H 663.195 -4.18105 -0.704581 0
M  V30 7040 C 661.654 -2.9774 -1.57646 0
M  V30 7041 O 662.184 -2.99618 -2.67567 0
M  V30 7042 N 660.39 -2.53485 -1.42105 0
M  V30 7043 H 659.937 -2.52156 -0.526783 0
M  V30 7044 H 659.895 -2.21747 -2.22881 0
M  V30 7045 N 663.667 -0.670007 -1.42649 0
M  V30 7046 C 664.914 -0.190286 -2.01604 0
M  V30 7047 C 665.242 1.20155 -1.52948 0
M  V30 7048 O 664.497 1.81964 -0.72026 0
M  V30 7049 C 664.796 -0.168298 -3.57004 0
M  V30 7050 C 664.462 -1.50415 -4.25072 0
M  V30 7051 C 663.124 -1.86992 -4.43382 0
M  V30 7052 C 665.476 -2.38414 -4.63474 0
M  V30 7053 C 662.804 -3.11203 -4.97363 0
M  V30 7054 C 665.156 -3.61933 -5.18833 0
M  V30 7055 C 663.82 -3.98685 -5.35356 0
M  V30 7056 H 663.09 -0.0696305 -0.737721 0
M  V30 7057 H 665.737 -0.864044 -1.70899 0
M  V30 7058 H 664.042 0.588958 -3.87348 0
M  V30 7059 H 665.739 0.22001 -4.00396 0
M  V30 7060 H 662.329 -1.20959 -4.11177 0
M  V30 7061 H 666.513 -2.11442 -4.49006 0
M  V30 7062 H 661.769 -3.39705 -5.08341 0
M  V30 7063 H 665.943 -4.30326 -5.47533 0
M  V30 7064 H 663.57 -4.95009 -5.76949 0
M  V30 7065 N 665.145 1.52092 -0.413018 0
M  V30 7066 C 666.556 1.86617 0.0556967 0
M  V30 7067 C 666.907 1.33156 1.44097 0
M  V30 7068 O 666.032 0.672417 2.05688 0
M  V30 7069 C 666.627 3.38628 0.107844 0
M  V30 7070 C 665.186 3.72778 0.520904 0
M  V30 7071 C 664.333 2.75649 -0.302109 0
M  V30 7072 H 667.284 1.45663 -0.629919 0
M  V30 7073 H 667.305 3.69152 0.922324 0
M  V30 7074 H 666.817 3.77508 -0.900506 0
M  V30 7075 H 664.918 3.39478 1.53575 0
M  V30 7076 H 665.031 4.7838 0.262591 0
M  V30 7077 H 663.395 2.53603 0.236115 0
M  V30 7078 H 664.178 3.17369 -1.30888 0
M  V30 7079 N 666.623 0.143563 1.56945 0
M  V30 7080 C 667.9 -0.553285 1.87612 0
M  V30 7081 C 668.28 -1.83195 1.04894 0
M  V30 7082 O 667.628 -2.28102 0.134773 0
M  V30 7083 C 667.838 -0.822055 3.3918 0
M  V30 7084 C 669.186 -1.16435 4.08324 0
M  V30 7085 O 670.21 -0.911522 3.4434 0
M  V30 7086 O 669.069 -1.63996 5.21313 0
M  V30 7087 H 666.163 -0.281851 0.777489 0
M  V30 7088 H 668.709 0.179916 1.68744 0
M  V30 7089 H 667.481 0.0830265 3.91212 0
M  V30 7090 H 667.104 -1.60956 3.63564 0
M  V30 7091 N 668.101 -1.57061 -0.130224 0
M  V30 7092 C 669.329 -1.88432 -0.854456 0
M  V30 7093 C 669.744 -0.733608 -1.73964 0
M  V30 7094 O 669.101 0.296029 -1.80083 0
M  V30 7095 C 669.152 -3.1918 -1.69724 0
M  V30 7096 O 668.873 -4.2982 -0.847705 0
M  V30 7097 C 670.374 -3.6418 -2.5276 0
M  V30 7098 H 667.594 -0.624193 -0.246221 0
M  V30 7099 H 670.138 -2.04159 -0.11798 0
M  V30 7100 H 668.293 -3.05156 -2.3866 0
M  V30 7101 H 668.707 -5.04689 -1.42792 0
M  V30 7102 H 670.181 -4.58457 -3.07443 0
M  V30 7103 H 670.658 -2.90285 -3.29592 0
M  V30 7104 H 671.264 -3.80954 -1.89087 0
M  V30 7105 N 669.579 0.400081 -1.52437 0
M  V30 7106 C 670.826 1.14619 -1.6694 0
M  V30 7107 C 671.154 1.90262 -0.403797 0
M  V30 7108 O 670.409 1.85835 0.61351 0
M  V30 7109 C 670.708 2.15914 -2.84808 0
M  V30 7110 C 670.374 1.57011 -4.2268 0
M  V30 7111 C 669.036 1.40672 -4.60179 0
M  V30 7112 C 671.388 1.14081 -5.08562 0
M  V30 7113 C 668.716 0.799335 -5.81229 0
M  V30 7114 C 671.068 0.547573 -6.30226 0
M  V30 7115 C 669.732 0.371389 -6.66466 0
M  V30 7116 H 669.002 0.419419 -0.610875 0
M  V30 7117 H 671.649 0.432227 -1.86558 0
M  V30 7118 H 669.954 2.93488 -2.59561 0
M  V30 7119 H 671.651 2.73533 -2.93225 0
M  V30 7120 H 668.241 1.70713 -3.93135 0
M  V30 7121 H 672.425 1.2551 -4.80168 0
M  V30 7122 H 667.681 0.65093 -6.07925 0
M  V30 7123 H 671.855 0.206575 -6.96094 0
M  V30 7124 H 669.482 -0.10135 -7.60132 0
M  V30 7125 N 671.057 1.43213 0.657864 0
M  V30 7126 C 672.303 1.45795 1.41829 0
M  V30 7127 C 672.658 0.0792176 1.92237 0
M  V30 7128 O 671.951 -0.901406 1.69072 0
M  V30 7129 C 672.145 2.43143 2.61947 0
M  V30 7130 C 671.974 3.90345 2.23295 0
M  V30 7131 C 670.744 4.58749 2.11843 0
M  V30 7132 C 672.942 4.80308 1.83873 0
M  V30 7133 N 670.924 5.90898 1.66473 0
M  V30 7134 C 672.295 6.01693 1.49549 0
M  V30 7135 C 674.35 4.67609 1.71015 0
M  V30 7136 C 673.053 7.11792 1.03657 0
M  V30 7137 C 675.079 5.77707 1.26527 0
M  V30 7138 C 674.441 6.98215 0.931379 0
M  V30 7139 H 670.54 0.588628 0.514822 0
M  V30 7140 H 673.124 1.7936 0.7575 0
M  V30 7141 H 671.295 2.11612 3.25692 0
M  V30 7142 H 673.027 2.36193 3.28626 0
M  V30 7143 H 669.782 4.1319 2.31453 0
M  V30 7144 H 670.206 6.61034 1.46163 0
M  V30 7145 H 674.848 3.74902 1.95469 0
M  V30 7146 H 672.566 8.04332 0.779502 0
M  V30 7147 H 676.152 5.69899 1.17074 0
M  V30 7148 H 675.032 7.81959 0.592379 0
M  V30 7149 N 672.536 -0.895792 1.29666 0
M  V30 7150 C 673.764 -1.68001 1.20761 0
M  V30 7151 C 674.179 -1.87379 -0.231187 0
M  V30 7152 O 673.536 -1.41359 -1.15429 0
M  V30 7153 C 673.587 -3.06236 1.92098 0
M  V30 7154 O 673.308 -2.8774 3.30359 0
M  V30 7155 C 674.809 -4.00652 1.89717 0
M  V30 7156 H 672.029 -0.524591 0.418384 0
M  V30 7157 H 674.573 -1.11995 1.71106 0
M  V30 7158 H 672.728 -3.59007 1.45578 0
M  V30 7159 H 673.142 -3.75359 3.66342 0
M  V30 7160 H 674.616 -4.95051 2.44189 0
M  V30 7161 H 675.093 -4.30424 0.873595 0
M  V30 7162 H 675.699 -3.53815 2.35998 0
M  V30 7163 N 674.014 -1.12206 -1.10668 0
M  V30 7164 C 674.962 -0.782918 -2.19028 0
M  V30 7165 C 675.956 0.229175 -1.67843 0
M  V30 7166 O 677.162 0.0876295 -1.79787 0
M  V30 7167 H 673.537 -0.235339 -0.714227 0
M  V30 7168 H 675.508 -1.70527 -2.44874 0
M  V30 7169 C 674.257 -0.25116 -3.46792 0
M  V30 7170 H 673.58 -1.02123 -3.86537 0
M  V30 7171 H 675.02 -0.0521409 -4.23968 0
M  V30 7172 C 673.479 1.02037 -3.21076 0
M  V30 7173 O 674.009 2.09862 -3.42522 0
M  V30 7174 N 672.215 0.946348 -2.74759 0
M  V30 7175 H 671.762 0.068777 -2.57508 0
M  V30 7176 H 671.72 1.79775 -2.57931 0
M  V30 7177 N 675.492 1.28418 -0.913599 0
M  V30 7178 C 676.903 1.77024 -0.593237 0
M  V30 7179 C 677.254 1.74779 0.891441 0
M  V30 7180 O 676.379 1.34237 1.69733 0
M  V30 7181 C 676.974 3.21456 -1.07011 0
M  V30 7182 C 675.533 3.67786 -0.800664 0
M  V30 7183 C 674.68 2.48185 -1.23691 0
M  V30 7184 H 677.631 1.14883 -1.09487 0
M  V30 7185 H 677.652 3.78269 -0.411481 0
M  V30 7186 H 677.164 3.23058 -2.1507 0
M  V30 7187 H 675.265 3.71644 0.266725 0
M  V30 7188 H 675.378 4.57934 -1.4083 0
M  V30 7189 H 673.742 2.46116 -0.655655 0
M  V30 7190 H 674.525 2.52506 -2.32585 0
M  V30 7191 N 676.97 0.677563 1.42291 0
M  V30 7192 C 677.902 -0.0380218 2.29168 0
M  V30 7193 C 678.915 -0.762714 1.43828 0
M  V30 7194 O 680.104 -0.616413 1.67519 0
M  V30 7195 C 677.204 -1.07761 3.21311 0
M  V30 7196 C 676.377 -0.42618 4.35319 0
M  V30 7197 C 675.436 -1.36592 5.08162 0
M  V30 7198 O 674.462 -0.865174 5.62586 0
M  V30 7199 N 675.664 -2.69909 5.13935 0
M  V30 7200 H 678.429 0.707766 2.91223 0
M  V30 7201 H 675.99 0.52219 1.53247 0
M  V30 7202 H 677.982 -1.70761 3.6691 0
M  V30 7203 H 676.552 -1.72511 2.60689 0
M  V30 7204 H 675.772 0.383385 3.92331 0
M  V30 7205 H 677.06 0.0275277 5.08793 0
M  V30 7206 H 676.458 -3.13129 4.71134 0
M  V30 7207 H 675.015 -3.2815 5.6317 0
M  V30 7208 N 678.448 -1.51871 0.421078 0
M  V30 7209 C 679.678 -2.06057 -0.149723 0
M  V30 7210 C 680.086 -1.29002 -1.38402 0
M  V30 7211 O 679.429 -0.338385 -1.80556 0
M  V30 7212 C 679.491 -3.55216 -0.553339 0
M  V30 7213 C 679.155 -4.53408 0.571879 0
M  V30 7214 C 680.152 -4.99586 1.4391 0
M  V30 7215 C 677.837 -4.967 0.747979 0
M  V30 7216 C 679.831 -5.87711 2.46727 0
M  V30 7217 C 677.518 -5.84619 1.77944 0
M  V30 7218 C 678.516 -6.30021 2.63748 0
M  V30 7219 O 678.204 -7.16197 3.65126 0
M  V30 7220 H 677.936 -0.675744 -0.0186102 0
M  V30 7221 H 680.49 -1.96618 0.594166 0
M  V30 7222 H 678.72 -3.62381 -1.34969 0
M  V30 7223 H 680.409 -3.91992 -1.05342 0
M  V30 7224 H 681.175 -4.66846 1.31451 0
M  V30 7225 H 677.054 -4.60913 0.0897357 0
M  V30 7226 H 680.598 -6.2307 3.13734 0
M  V30 7227 H 676.495 -6.16771 1.90429 0
M  V30 7228 H 677.263 -7.34337 3.61512 0
M  V30 7229 N 679.926 -0.151884 -1.56866 0
M  V30 7230 C 681.342 0.204486 -1.58285 0
M  V30 7231 C 681.542 1.6431 -1.16639 0
M  V30 7232 O 680.598 2.37077 -0.868946 0
M  V30 7233 C 681.911 -0.0587019 -3.00643 0
M  V30 7234 C 683.459 0.00462303 -3.13 0
M  V30 7235 C 683.934 -0.231297 -4.57416 0
M  V30 7236 N 685.425 -0.178394 -4.62856 0
M  V30 7237 C 686.16 -0.335379 -5.72418 0
M  V30 7238 N 685.656 -0.550355 -6.90611 0
M  V30 7239 N 687.449 -0.272641 -5.61438 0
M  V30 7240 H 679.6 -1.09116 -1.82229 0
M  V30 7241 H 681.863 -0.432311 -0.843689 0
M  V30 7242 H 681.569 -1.05453 -3.35518 0
M  V30 7243 H 681.443 0.658508 -3.71407 0
M  V30 7244 H 683.83 0.991009 -2.77962 0
M  V30 7245 H 683.911 -0.744992 -2.44711 0
M  V30 7246 H 683.555 -1.2148 -4.93158 0
M  V30 7247 H 683.485 0.5387 -5.23837 0
M  V30 7248 H 685.976 -0.0170923 -3.77896 0
M  V30 7249 H 686.289 -0.660116 -7.69976 0
M  V30 7250 H 684.634 -0.586736 -6.92519 0
M  V30 7251 H 687.825 -0.105421 -4.67981 0
M  V30 7252 H 687.998 -0.398418 -6.46774 0
M  V30 7253 N 681.404 1.57128 0.121893 0
M  V30 7254 C 682.334 2.03165 1.15092 0
M  V30 7255 C 683.315 0.915587 1.43356 0
M  V30 7256 O 684.5 1.1851 1.53847 0
M  V30 7257 C 681.63 2.43352 2.47784 0
M  V30 7258 C 680.584 3.58376 2.33989 0
M  V30 7259 C 679.91 3.84454 3.71617 0
M  V30 7260 C 681.21 4.90199 1.80283 0
M  V30 7261 H 682.904 2.89382 0.768023 0
M  V30 7262 H 680.45 1.39218 0.367998 0
M  V30 7263 H 682.403 2.74163 3.20019 0
M  V30 7264 H 681.127 1.54103 2.87958 0
M  V30 7265 H 679.786 3.2777 1.64202 0
M  V30 7266 H 679.434 2.92414 4.09271 0
M  V30 7267 H 679.134 4.61877 3.6324 0
M  V30 7268 H 680.658 4.17714 4.45362 0
M  V30 7269 H 682.072 5.19565 2.42333 0
M  V30 7270 H 680.469 5.71601 1.82735 0
M  V30 7271 H 681.539 4.78904 0.760184 0
M  V30 7272 N 682.882 -0.391992 1.52647 0
M  V30 7273 C 683.829 -1.47866 1.77213 0
M  V30 7274 C 684.799 -1.54286 0.615223 0
M  V30 7275 O 685.984 -1.7059 0.854622 0
M  V30 7276 C 683.124 -2.85129 1.94411 0
M  V30 7277 C 682.237 -2.87883 3.22098 0
M  V30 7278 C 681.372 -4.16553 3.29631 0
M  V30 7279 C 680.411 -4.13348 4.51453 0
M  V30 7280 N 679.548 -5.33619 4.56284 0
M  V30 7281 H 684.388 -1.26219 2.6995 0
M  V30 7282 H 681.925 -0.612367 1.33748 0
M  V30 7283 H 683.883 -3.64833 2.02367 0
M  V30 7284 H 682.513 -3.05232 1.05038 0
M  V30 7285 H 681.565 -2.00567 3.23229 0
M  V30 7286 H 682.877 -2.81382 4.11856 0
M  V30 7287 H 682.031 -5.0466 3.36753 0
M  V30 7288 H 680.77 -4.25773 2.37842 0
M  V30 7289 H 679.775 -3.23629 4.44459 0
M  V30 7290 H 681 -4.05754 5.44555 0
M  V30 7291 H 678.946 -5.43474 3.67385 0
M  V30 7292 H 678.863 -5.29182 5.3991 0
M  V30 7293 H 680.131 -6.23632 4.67657 0
M  V30 7294 N 684.36 -1.4356 -0.65026 0
M  V30 7295 C 685.29 -1.51758 -1.77459 0
M  V30 7296 C 686.271 -0.372019 -1.65982 0
M  V30 7297 O 687.456 -0.589627 -1.85033 0
M  V30 7298 C 684.586 -1.44302 -3.15902 0
M  V30 7299 C 683.54 -2.57138 -3.42146 0
M  V30 7300 C 682.866 -2.34735 -4.8042 0
M  V30 7301 C 684.166 -3.99373 -3.36598 0
M  V30 7302 H 685.86 -2.45863 -1.70855 0
M  V30 7303 H 683.406 -1.18333 -0.820566 0
M  V30 7304 H 685.359 -1.48641 -3.94314 0
M  V30 7305 H 684.083 -0.467026 -3.23244 0
M  V30 7306 H 682.742 -2.52157 -2.66106 0
M  V30 7307 H 682.39 -1.35372 -4.84441 0
M  V30 7308 H 682.09 -3.10375 -4.9894 0
M  V30 7309 H 683.614 -2.40862 -5.61086 0
M  V30 7310 H 685.028 -4.05826 -4.04942 0
M  V30 7311 H 683.425 -4.75063 -3.66654 0
M  V30 7312 H 684.495 -4.243 -2.34729 0
M  V30 7313 N 685.838 0.888903 -1.30139 0
M  V30 7314 C 686.768 2.01046 -1.18755 0
M  V30 7315 C 687.749 1.69916 -0.0791438 0
M  V30 7316 O 688.934 1.92445 -0.260498 0
M  V30 7317 C 686.064 3.36109 -0.874518 0
M  V30 7318 C 685.018 3.81486 -1.94043 0
M  V30 7319 C 684.344 5.13796 -1.48047 0
M  V30 7320 C 685.644 4.00637 -3.35093 0
M  V30 7321 H 687.338 2.10828 -2.12584 0
M  V30 7322 H 684.884 1.01298 -1.02346 0
M  V30 7323 H 686.837 4.14089 -0.781548 0
M  V30 7324 H 685.561 3.26449 0.0994519 0
M  V30 7325 H 684.22 3.05731 -2.02297 0
M  V30 7326 H 683.868 5.0056 -0.494878 0
M  V30 7327 H 683.568 5.45127 -2.19341 0
M  V30 7328 H 685.092 5.94305 -1.40121 0
M  V30 7329 H 686.506 4.69067 -3.2962 0
M  V30 7330 H 684.903 4.43339 -4.04438 0
M  V30 7331 H 685.973 3.0462 -3.77273 0
M  V30 7332 N 687.317 1.12792 1.10072 0
M  V30 7333 C 688.227 0.812369 2.20086 0
M  V30 7334 C 689.243 -0.200349 1.72843 0
M  V30 7335 O 690.419 -0.0330262 2.01373 0
M  V30 7336 C 687.484 0.275685 3.45602 0
M  V30 7337 C 686.545 1.34881 4.07561 0
M  V30 7338 C 685.778 0.837639 5.27086 0
M  V30 7339 O 686.001 -0.327224 5.69461 0
M  V30 7340 O 684.935 1.60894 5.79997 0
M  V30 7341 H 688.761 1.73133 2.49517 0
M  V30 7342 H 686.346 0.904863 1.18881 0
M  V30 7343 H 688.228 -0.0185375 4.21396 0
M  V30 7344 H 686.903 -0.615783 3.17789 0
M  V30 7345 H 685.81 1.69625 3.33434 0
M  V30 7346 H 687.143 2.21418 4.39585 0
M  V30 7347 N 688.795 -1.27931 0.920396 0
M  V30 7348 C 689.705 -2.30824 0.419212 0
M  V30 7349 C 690.721 -1.66767 -0.496461 0
M  V30 7350 O 691.897 -1.97763 -0.38104 0
M  V30 7351 C 688.962 -3.45158 -0.326601 0
M  V30 7352 C 688.023 -4.24754 0.623098 0
M  V30 7353 C 687.256 -5.33629 -0.0872172 0
M  V30 7354 O 687.479 -5.55204 -1.30784 0
M  V30 7355 O 686.413 -5.99091 0.580875 0
M  V30 7356 H 690.239 -2.75716 1.27337 0
M  V30 7357 H 687.824 -1.32747 0.685465 0
M  V30 7358 H 689.706 -4.14716 -0.747559 0
M  V30 7359 H 688.381 -3.02336 -1.15648 0
M  V30 7360 H 687.288 -3.57759 1.09359 0
M  V30 7361 H 688.621 -4.71272 1.41998 0
M  V30 7362 N 690.273 -0.685099 -1.4193 0
M  V30 7363 C 691.55 -0.140152 -1.95097 0
M  V30 7364 C 691.93 1.34745 -1.62502 0
M  V30 7365 O 691.278 2.08872 -0.926534 0
M  V30 7366 C 691.488 -0.420268 -3.4646 0
M  V30 7367 C 692.836 -0.342338 -4.23218 0
M  V30 7368 O 693.86 -0.354592 -3.54431 0
M  V30 7369 O 692.719 -0.293404 -5.45712 0
M  V30 7370 H 689.813 -0.00885998 -0.826953 0
M  V30 7371 H 692.359 -0.760539 -1.51703 0
M  V30 7372 H 691.131 -1.45037 -3.63428 0
M  V30 7373 H 690.754 0.231616 -3.96925 0
M  V30 7374 N 691.751 1.51645 -0.429126 0
M  V30 7375 C 693.028 1.94579 0.199614 0
M  V30 7376 C 693.408 1.3673 1.60836 0
M  V30 7377 O 692.756 0.551062 2.21756 0
M  V30 7378 C 692.966 3.48506 0.185685 0
M  V30 7379 C 694.314 4.22756 0.395282 0
M  V30 7380 O 695.338 3.55219 0.264165 0
M  V30 7381 O 694.197 5.42555 0.655475 0
M  V30 7382 H 691.291 0.816007 0.134393 0
M  V30 7383 H 693.837 1.62577 -0.486513 0
M  V30 7384 H 692.609 3.83045 -0.799508 0
M  V30 7385 H 692.232 3.86927 0.91507 0
M  V30 7386 N 693.229 0.160201 1.56784 0
M  V30 7387 C 694.506 -0.533355 1.88188 0
M  V30 7388 C 694.886 -1.82072 1.06831 0
M  V30 7389 O 694.234 -2.27946 0.158959 0
M  V30 7390 C 694.444 -0.786034 3.40033 0
M  V30 7391 C 695.792 -1.12097 4.09536 0
M  V30 7392 O 696.816 -0.874949 3.45287 0
M  V30 7393 O 695.675 -1.58457 5.23023 0
M  V30 7394 H 692.769 -0.273589 0.780434 0
M  V30 7395 H 695.315 0.197803 1.68543 0
M  V30 7396 H 694.087 0.124515 3.91102 0
M  V30 7397 H 693.71 -1.57091 3.65251 0
M  V30 7398 N 694.707 -1.5719 -0.113559 0
M  V30 7399 C 696.118 -1.74259 -0.670116 0
M  V30 7400 C 696.469 -0.779694 -1.80042 0
M  V30 7401 O 695.594 0.0461353 -2.16351 0
M  V30 7402 C 696.189 -3.15981 -1.22236 0
M  V30 7403 C 694.748 -3.34537 -1.72516 0
M  V30 7404 C 693.895 -2.70116 -0.627098 0
M  V30 7405 H 696.846 -1.58301 0.112396 0
M  V30 7406 H 696.867 -3.17832 -2.09197 0
M  V30 7407 H 696.379 -3.86038 -0.39949 0
M  V30 7408 H 694.48 -2.6953 -2.57263 0
M  V30 7409 H 694.593 -4.42737 -1.83086 0
M  V30 7410 H 692.957 -2.31501 -1.06204 0
M  V30 7411 H 693.74 -3.42802 0.184889 0
M  V30 7412 N 696.185 0.383891 -1.52853 0
M  V30 7413 C 697.462 1.14296 -1.58732 0
M  V30 7414 C 697.842 2.07585 -0.383611 0
M  V30 7415 O 697.19 2.1971 0.627661 0
M  V30 7416 C 697.4 1.89816 -2.92867 0
M  V30 7417 C 698.748 2.44998 -3.46787 0
M  V30 7418 O 699.772 1.99966 -2.94774 0
M  V30 7419 O 698.631 3.2727 -4.37672 0
M  V30 7420 H 695.725 0.52326 -0.640413 0
M  V30 7421 H 698.271 0.388631 -1.6519 0
M  V30 7422 H 697.043 1.21626 -3.71918 0
M  V30 7423 H 696.666 2.72199 -2.89816 0
M  V30 7424 N 697.663 1.43903 0.642637 0
M  V30 7425 C 698.94 1.36556 1.40043 0
M  V30 7426 C 699.32 0.0185588 2.11092 0
M  V30 7427 O 698.668 -0.998438 2.05532 0
M  V30 7428 C 698.878 2.55596 2.37638 0
M  V30 7429 C 700.226 2.99153 3.01318 0
M  V30 7430 O 701.25 2.55719 2.47965 0
M  V30 7431 O 700.109 3.74427 3.98078 0
M  V30 7432 H 697.203 0.540189 0.626198 0
M  V30 7433 H 699.749 1.55971 0.668657 0
M  V30 7434 H 698.521 3.45256 1.84158 0
M  V30 7435 H 698.144 2.38334 3.18249 0
M  V30 7436 N 699.141 -0.881989 1.30609 0
M  V30 7437 C 700.366 -1.67236 1.22665 0
M  V30 7438 C 700.791 -1.8696 -0.206777 0
M  V30 7439 O 700.149 -1.4027 -1.14865 0
M  V30 7440 C 700.197 -3.02446 1.96363 0
M  V30 7441 O 699.301 -3.91614 1.29276 0
M  V30 7442 H 698.642 -0.510902 0.424117 0
M  V30 7443 H 701.172 -1.10055 1.72479 0
M  V30 7444 H 701.182 -3.52468 2.055 0
M  V30 7445 H 699.857 -2.8741 3.00613 0
M  V30 7446 H 698.434 -3.50055 1.28514 0
M  V30 7447 N 700.619 -1.13374 -1.09472 0
M  V30 7448 C 701.529 -0.824029 -2.19652 0
M  V30 7449 C 702.545 0.19118 -1.72947 0
M  V30 7450 O 703.721 0.0223464 -2.01388 0
M  V30 7451 C 700.786 -0.294009 -3.45451 0
M  V30 7452 C 699.847 -1.3704 -4.0684 0
M  V30 7453 C 699.08 -0.86558 -5.26634 0
M  V30 7454 O 699.303 0.29702 -5.69626 0
M  V30 7455 O 698.237 -1.63968 -5.79136 0
M  V30 7456 H 702.063 -1.74454 -2.48595 0
M  V30 7457 H 699.648 -0.911155 -1.18399 0
M  V30 7458 H 701.53 -0.00381039 -4.214 0
M  V30 7459 H 700.205 0.598921 -3.18111 0
M  V30 7460 H 699.112 -1.71391 -3.3253 0
M  V30 7461 H 700.445 -2.23746 -4.38405 0
M  V30 7462 N 702.098 1.27442 -0.927168 0
M  V30 7463 C 703.344 1.94679 -0.568164 0
M  V30 7464 C 703.677 1.72697 0.888219 0
M  V30 7465 O 702.952 1.05573 1.63354 0
M  V30 7466 C 703.235 3.4882 -0.894253 0
M  V30 7467 C 703.088 3.80146 -2.40435 0
M  V30 7468 C 704.407 4.38281 -0.399766 0
M  V30 7469 H 701.526 0.707071 -0.207892 0
M  V30 7470 H 704.168 1.50568 -1.15885 0
M  V30 7471 H 702.318 3.86522 -0.391566 0
M  V30 7472 H 703.99 3.52238 -2.97869 0
M  V30 7473 H 702.233 3.26716 -2.85375 0
M  V30 7474 H 702.904 4.87835 -2.58304 0
M  V30 7475 H 705.38 4.07726 -0.83058 0
M  V30 7476 H 704.256 5.44955 -0.656885 0
M  V30 7477 H 704.517 4.36521 0.700153 0
M  V30 7478 N 703.576 0.692616 1.41565 0
M  V30 7479 C 704.825 0.219452 2.00503 0
M  V30 7480 C 705.138 -1.18683 1.55479 0
M  V30 7481 O 706.344 -1.75731 2.06956 0
M  V30 7482 C 704.8 0.341451 3.58277 0
M  V30 7483 C 704.408 1.75291 4.12283 0
M  V30 7484 C 706.152 -0.0720899 4.24439 0
M  V30 7485 C 704.059 1.82673 5.62481 0
M  V30 7486 H 702.989 0.0782874 0.749925 0
M  V30 7487 H 705.64 0.860386 1.62079 0
M  V30 7488 H 704.022 -0.367683 3.94289 0
M  V30 7489 H 705.196 2.49057 3.87695 0
M  V30 7490 H 703.511 2.11587 3.58636 0
M  V30 7491 H 706.108 -0.0373385 5.34687 0
M  V30 7492 H 706.451 -1.11034 4.0122 0
M  V30 7493 H 706.984 0.586663 3.9345 0
M  V30 7494 H 703.723 2.84539 5.90523 0
M  V30 7495 H 703.243 1.13288 5.89004 0
M  V30 7496 H 704.922 1.58827 6.27203 0
M  V30 7497 N 705.054 -1.51416 0.437162 0
M  V30 7498 C 706.294 -2.03995 -0.128538 0
M  V30 7499 C 706.658 -1.31417 -1.39977 0
M  V30 7500 O 707.859 -1.74369 -2.0457 0
M  V30 7501 C 706.13 -3.55757 -0.342317 0
M  V30 7502 S 707.689 -4.3006 -0.871446 0
M  V30 7503 H 704.507 -0.710283 -0.0319322 0
M  V30 7504 H 707.109 -1.86177 0.596526 0
M  V30 7505 H 705.813 -4.06148 0.589233 0
M  V30 7506 H 705.344 -3.77869 -1.09447 0
M  V30 7507 H 707.359 -4.47248 -2.14903 0
M  V30 7508 N 706.532 -0.168513 -1.56696 0
M  V30 7509 C 707.757 0.486688 -2.01609 0
M  V30 7510 C 708.182 1.56203 -1.04796 0
M  V30 7511 O 707.54 1.8128 -0.0270596 0
M  V30 7512 C 707.588 1.04451 -3.45141 0
M  V30 7513 O 706.692 2.15862 -3.51393 0
M  V30 7514 H 706.033 0.116831 -0.653641 0
M  V30 7515 H 708.563 -0.271579 -2.0279 0
M  V30 7516 H 708.573 1.36782 -3.84389 0
M  V30 7517 H 707.248 0.257155 -4.15104 0
M  V30 7518 H 705.825 1.84597 -3.24004 0
M  V30 7519 N 708.01 1.57248 0.105221 0
M  V30 7520 C 709.257 1.8557 0.810552 0
M  V30 7521 C 709.585 0.755595 1.79223 0
M  V30 7522 O 708.84 -0.251788 1.94073 0
M  V30 7523 C 709.139 3.20437 1.58287 0
M  V30 7524 C 708.805 4.44716 0.744235 0
M  V30 7525 C 707.467 4.78458 0.513013 0
M  V30 7526 C 709.819 5.20953 0.160578 0
M  V30 7527 C 707.147 5.8587 -0.311894 0
M  V30 7528 C 709.499 6.29235 -0.651596 0
M  V30 7529 C 708.163 6.615 -0.893005 0
M  V30 7530 H 707.433 0.67905 0.296602 0
M  V30 7531 H 710.08 1.91363 0.0723968 0
M  V30 7532 H 708.385 3.10283 2.39232 0
M  V30 7533 H 710.082 3.39576 2.13282 0
M  V30 7534 H 706.672 4.18287 0.934555 0
M  V30 7535 H 710.856 4.95226 0.3264 0
M  V30 7536 H 706.112 6.09286 -0.508012 0
M  V30 7537 H 710.286 6.87484 -1.11077 0
M  V30 7538 H 707.913 7.44562 -1.53401 0
M  V30 7539 N 709.488 -0.375779 1.53054 0
M  V30 7540 C 710.418 -1.46598 1.81745 0
M  V30 7541 C 711.399 -1.56337 0.670286 0
M  V30 7542 O 712.584 -1.71071 0.919158 0
M  V30 7543 C 709.714 -2.84058 1.99821 0
M  V30 7544 C 708.668 -2.8915 3.15557 0
M  V30 7545 C 707.994 -4.29187 3.18908 0
M  V30 7546 C 709.294 -2.57595 4.54359 0
M  V30 7547 H 710.988 -1.22837 2.73041 0
M  V30 7548 H 708.534 -0.589485 1.31381 0
M  V30 7549 H 710.487 -3.60342 2.18475 0
M  V30 7550 H 709.211 -3.09184 1.05226 0
M  V30 7551 H 707.87 -2.15316 2.96706 0
M  V30 7552 H 707.518 -4.51374 2.2197 0
M  V30 7553 H 707.218 -4.33512 3.96662 0
M  V30 7554 H 708.742 -5.07359 3.39734 0
M  V30 7555 H 710.156 -3.23595 4.73243 0
M  V30 7556 H 708.553 -2.73252 5.34279 0
M  V30 7557 H 709.623 -1.52882 4.60169 0
M  V30 7558 N 710.966 -1.44241 -0.634997 0
M  V30 7559 C 712.212 -1.47038 -1.39669 0
M  V30 7560 C 712.545 -0.101122 -1.93937 0
M  V30 7561 O 711.82 0.880699 -1.73418 0
M  V30 7562 C 712.103 -2.52763 -2.56482 0
M  V30 7563 C 711.956 -3.99032 -2.07589 0
M  V30 7564 C 713.275 -2.55031 -3.58674 0
M  V30 7565 H 710.394 -0.53537 -0.506506 0
M  V30 7566 H 713.036 -1.75898 -0.718317 0
M  V30 7567 H 711.186 -2.28284 -3.14354 0
M  V30 7568 H 712.858 -4.3463 -1.54577 0
M  V30 7569 H 711.101 -4.10994 -1.38804 0
M  V30 7570 H 711.772 -4.68649 -2.91671 0
M  V30 7571 H 714.248 -2.76893 -3.10595 0
M  V30 7572 H 713.124 -3.30916 -4.37934 0
M  V30 7573 H 713.385 -1.59085 -4.12486 0
M  V30 7574 N 712.444 0.87505 -1.31075 0
M  V30 7575 C 713.407 1.96333 -1.18263 0
M  V30 7576 C 714.407 1.60416 -0.111106 0
M  V30 7577 O 715.597 1.7044 -0.359987 0
M  V30 7578 C 712.729 3.31036 -0.81414 0
M  V30 7579 H 713.922 2.09125 -2.14958 0
M  V30 7580 H 711.475 1.06271 -1.14614 0
M  V30 7581 H 712.21 3.23944 0.151875 0
M  V30 7582 H 711.995 3.58476 -1.58862 0
M  V30 7583 H 713.485 4.10842 -0.748249 0
M  V30 7584 N 713.922 1.13953 1.08869 0
M  V30 7585 C 714.852 0.844824 2.17681 0
M  V30 7586 C 715.833 -0.198213 1.68941 0
M  V30 7587 O 717.018 -0.0559073 1.9412 0
M  V30 7588 C 714.148 0.316325 3.45856 0
M  V30 7589 C 713.102 1.29426 4.07962 0
M  V30 7590 C 712.428 0.625275 5.31031 0
M  V30 7591 C 713.728 2.65484 4.49795 0
M  V30 7592 H 715.422 1.75471 2.42591 0
M  V30 7593 H 712.968 0.845116 1.16592 0
M  V30 7594 H 714.921 0.0977876 4.21287 0
M  V30 7595 H 713.645 -0.628972 3.20486 0
M  V30 7596 H 712.304 1.49889 3.34558 0
M  V30 7597 H 711.952 -0.325678 5.01945 0
M  V30 7598 H 711.652 1.27777 5.73539 0
M  V30 7599 H 713.176 0.416152 6.0918 0
M  V30 7600 H 714.59 2.48957 5.16424 0
M  V30 7601 H 712.987 3.26963 5.03205 0
M  V30 7602 H 714.057 3.22717 3.61914 0
M  V30 7603 N 715.4 -1.26948 0.933913 0
M  V30 7604 C 716.333 -2.24977 0.382169 0
M  V30 7605 C 717.311 -1.53893 -0.524949 0
M  V30 7606 O 718.495 -1.82699 -0.464048 0
M  V30 7607 C 715.622 -3.35676 -0.451615 0
M  V30 7608 C 714.668 -4.24686 0.392947 0
M  V30 7609 S 715.501 -5.03898 1.81237 0
M  V30 7610 C 716.657 -6.18078 0.986443 0
M  V30 7611 H 716.89 -2.71429 1.21299 0
M  V30 7612 H 714.423 -1.35701 0.736523 0
M  V30 7613 H 716.381 -3.99901 -0.926797 0
M  V30 7614 H 715.042 -2.8785 -1.25703 0
M  V30 7615 H 714.235 -5.03402 -0.245533 0
M  V30 7616 H 713.837 -3.65288 0.802537 0
M  V30 7617 H 716.129 -6.77125 0.225321 0
M  V30 7618 H 717.072 -6.86216 1.74682 0
M  V30 7619 H 717.48 -5.62047 0.525711 0
M  V30 7620 N 716.879 -0.700114 -1.41195 0
M  V30 7621 C 717.811 0.00155823 -2.292 0
M  V30 7622 C 718.824 0.739736 -1.45023 0
M  V30 7623 O 720.013 0.589684 -1.68478 0
M  V30 7624 C 717.113 1.02635 -3.22985 0
M  V30 7625 C 716.286 0.356871 -4.35942 0
M  V30 7626 C 715.345 1.28491 -5.10271 0
M  V30 7627 O 714.371 0.775562 -5.63892 0
M  V30 7628 N 715.573 2.61699 -5.18164 0
M  V30 7629 H 718.338 -0.754008 -2.9006 0
M  V30 7630 H 715.899 -0.546504 -1.52397 0
M  V30 7631 H 717.891 1.64902 -3.6958 0
M  V30 7632 H 716.461 1.68341 -2.63401 0
M  V30 7633 H 715.681 -0.445753 -3.91672 0
M  V30 7634 H 716.969 -0.108469 -5.08684 0
M  V30 7635 H 716.367 3.05594 -4.76056 0
M  V30 7636 H 714.924 3.19149 -5.6832 0
M  V30 7637 N 718.357 1.51182 -0.445186 0
M  V30 7638 C 719.304 2.27939 0.362291 0
M  V30 7639 C 720.274 1.31864 1.01 0
M  V30 7640 O 721.459 1.60776 1.02741 0
M  V30 7641 C 718.599 3.13016 1.45311 0
M  V30 7642 C 717.712 4.24093 0.822757 0
M  V30 7643 C 716.847 4.96467 1.88928 0
M  V30 7644 C 715.886 5.99454 1.23778 0
M  V30 7645 N 715.023 6.65206 2.24602 0
M  V30 7646 H 719.863 2.965 -0.29862 0
M  V30 7647 H 717.4 1.46237 -0.15911 0
M  V30 7648 H 719.358 3.60673 2.09692 0
M  V30 7649 H 717.988 2.46553 2.08354 0
M  V30 7650 H 717.04 3.80341 0.0670364 0
M  V30 7651 H 718.352 4.97853 0.307184 0
M  V30 7652 H 717.506 5.47712 2.60953 0
M  V30 7653 H 716.245 4.22355 2.4386 0
M  V30 7654 H 715.25 5.47494 0.503042 0
M  V30 7655 H 716.475 6.75527 0.695694 0
M  V30 7656 H 714.421 5.93901 2.78599 0
M  V30 7657 H 714.338 7.34756 1.77958 0
M  V30 7658 H 715.606 7.21078 2.96085 0
M  V30 7659 N 719.835 0.176821 1.56605 0
M  V30 7660 C 720.783 -0.768159 2.1955 0
M  V30 7661 C 721.777 -1.23343 1.16116 0
M  V30 7662 O 722.983 -1.19844 1.34303 0
M  V30 7663 H 719.358 -0.266013 0.703378 0
M  V30 7664 H 721.329 -0.213374 2.97636 0
M  V30 7665 C 720.078 -1.98492 2.85475 0
M  V30 7666 H 719.401 -1.63595 3.64797 0
M  V30 7667 H 720.841 -2.62489 3.3298 0
M  V30 7668 C 719.3 -2.81207 1.85538 0
M  V30 7669 O 719.83 -3.7854 1.34427 0
M  V30 7670 N 718.036 -2.46331 1.54173 0
M  V30 7671 H 717.583 -1.67241 1.95929 0
M  V30 7672 H 717.541 -3.01961 0.875595 0
M  V30 7673 N 721.313 -1.57302 -0.09688 0
M  V30 7674 C 722.729 -1.53094 -0.451041 0
M  V30 7675 C 722.929 -0.893265 -1.80618 0
M  V30 7676 O 721.985 -0.485013 -2.47798 0
M  V30 7677 C 723.298 -2.9782 -0.415172 0
M  V30 7678 C 724.846 -3.09026 -0.497155 0
M  V30 7679 C 725.321 -4.55356 -0.491452 0
M  V30 7680 N 726.812 -4.59896 -0.552258 0
M  V30 7681 C 727.547 -5.70563 -0.569654 0
M  V30 7682 N 727.043 -6.90666 -0.543365 0
M  V30 7683 N 728.836 -5.58733 -0.614331 0
M  V30 7684 H 720.987 -1.97131 0.790771 0
M  V30 7685 H 723.25 -0.901211 0.294147 0
M  V30 7686 H 722.956 -3.47933 0.513362 0
M  V30 7687 H 722.83 -3.56416 -1.23481 0
M  V30 7688 H 725.217 -2.58902 -1.41611 0
M  V30 7689 H 725.298 -2.53386 0.35059 0
M  V30 7690 H 724.942 -5.06131 0.423549 0
M  V30 7691 H 724.872 -5.08832 -1.35639 0
M  V30 7692 H 727.363 -3.73456 -0.577842 0
M  V30 7693 H 727.676 -7.70769 -0.559873 0
M  V30 7694 H 726.021 -6.93123 -0.510441 0
M  V30 7695 H 729.212 -4.63809 -0.632387 0
M  V30 7696 H 729.385 -6.44984 -0.62442 0
M  V30 7697 N 722.791 0.367657 -1.53252 0
M  V30 7698 C 724.207 0.709191 -1.42978 0
M  V30 7699 C 724.407 1.93352 -0.567193 0
M  V30 7700 O 723.463 2.52453 -0.0488349 0
M  V30 7701 C 724.776 0.924338 -2.86141 0
M  V30 7702 C 726.324 1.02448 -2.95759 0
M  V30 7703 C 726.799 1.27211 -4.39979 0
M  V30 7704 N 728.29 1.33986 -4.43398 0
M  V30 7705 C 729.025 1.54852 -5.52095 0
M  V30 7706 N 728.521 1.73049 -6.7084 0
M  V30 7707 N 730.314 1.57205 -5.39669 0
M  V30 7708 H 722.465 -0.437669 -2.07842 0
M  V30 7709 H 724.728 -0.133737 -0.938519 0
M  V30 7710 H 724.434 0.0965455 -3.51567 0
M  V30 7711 H 724.308 1.83302 -3.29667 0
M  V30 7712 H 726.695 1.84282 -2.30487 0
M  V30 7713 H 726.776 0.0932301 -2.5563 0
M  V30 7714 H 726.42 0.458792 -5.05824 0
M  V30 7715 H 726.35 2.21654 -4.77679 0
M  V30 7716 H 728.841 1.21545 -3.5782 0
M  V30 7717 H 729.154 1.88538 -7.49449 0
M  V30 7718 H 727.499 1.70231 -6.7383 0
M  V30 7719 H 730.69 1.42555 -4.45865 0
M  V30 7720 H 730.863 1.73126 -6.24445 0
M  V30 7721 N 724.269 1.44576 0.627338 0
M  V30 7722 C 725.216 1.51734 1.73912 0
M  V30 7723 C 726.186 0.364745 1.62046 0
M  V30 7724 O 727.371 0.575503 1.81914 0
M  V30 7725 C 724.511 1.47116 3.12171 0
M  V30 7726 C 723.624 2.72778 3.34986 0
M  V30 7727 C 722.759 2.59968 4.63239 0
M  V30 7728 C 721.798 3.80776 4.79245 0
M  V30 7729 N 720.935 3.66618 5.98778 0
M  V30 7730 H 725.775 2.46722 1.6713 0
M  V30 7731 H 723.312 1.22444 0.815224 0
M  V30 7732 H 725.27 1.42429 3.92135 0
M  V30 7733 H 723.9 0.556928 3.17959 0
M  V30 7734 H 722.952 2.87637 2.48936 0
M  V30 7735 H 724.264 3.62441 3.42692 0
M  V30 7736 H 723.418 2.53135 5.51369 0
M  V30 7737 H 722.157 1.67872 4.57898 0
M  V30 7738 H 721.162 3.87989 3.89544 0
M  V30 7739 H 722.387 4.73913 4.86398 0
M  V30 7740 H 720.333 2.77277 5.9452 0
M  V30 7741 H 720.25 4.499 6.07557 0
M  V30 7742 H 721.518 3.63684 6.89459 0
M  V30 7743 N 725.747 -0.868086 1.31537 0
M  V30 7744 C 727.024 -1.60384 1.11965 0
M  V30 7745 C 727.404 -2.08584 -0.324949 0
M  V30 7746 O 726.752 -1.86561 -1.31937 0
M  V30 7747 C 726.962 -2.76038 2.13551 0
M  V30 7748 C 728.31 -3.45954 2.46173 0
M  V30 7749 O 729.334 -2.86247 2.11993 0
M  V30 7750 O 728.193 -4.53666 3.04711 0
M  V30 7751 H 725.287 -0.705705 0.431172 0
M  V30 7752 H 727.833 -0.913385 1.43022 0
M  V30 7753 H 726.605 -2.37849 3.10714 0
M  V30 7754 H 726.228 -3.52769 1.83411 0
M  V30 7755 N 727.225 -1.14528 -1.08264 0
M  V30 7756 C 728.641 -0.885976 -1.3275 0
M  V30 7757 C 728.841 0.472096 -1.95892 0
M  V30 7758 O 727.897 1.21606 -2.21288 0
M  V30 7759 C 729.21 -2.01982 -2.22764 0
M  V30 7760 C 730.758 -2.05329 -2.36239 0
M  V30 7761 C 731.233 -3.1801 -3.29596 0
M  V30 7762 N 732.724 -3.17598 -3.37173 0
M  V30 7763 C 733.459 -4.01426 -4.09444 0
M  V30 7764 N 732.955 -4.95297 -4.8441 0
M  V30 7765 N 734.748 -3.89482 -4.0529 0
M  V30 7766 H 726.899 -2.01996 -0.656607 0
M  V30 7767 H 729.162 -0.880274 -0.351884 0
M  V30 7768 H 728.868 -2.99964 -1.83615 0
M  V30 7769 H 728.742 -1.94421 -3.23234 0
M  V30 7770 H 731.129 -1.07953 -2.74646 0
M  V30 7771 H 731.21 -2.1696 -1.35506 0
M  V30 7772 H 730.854 -4.15633 -2.9191 0
M  V30 7773 H 730.784 -3.03616 -4.30261 0
M  V30 7774 H 733.275 -2.4961 -2.83731 0
M  V30 7775 H 733.588 -5.55723 -5.37021 0
M  V30 7776 H 731.933 -4.99293 -4.83457 0
M  V30 7777 H 735.124 -3.15465 -3.45832 0
M  V30 7778 H 735.297 -4.55039 -4.6135 0
M  V30 7779 N 728.703 1.26451 -0.940633 0
M  V30 7780 C 729.65 2.264 -0.448497 0
M  V30 7781 C 730.62 1.5866 0.491546 0
M  V30 7782 O 731.805 1.86389 0.407874 0
M  V30 7783 C 728.945 3.43956 0.280715 0
M  V30 7784 C 728.058 4.26374 -0.694937 0
M  V30 7785 C 727.193 5.31171 0.0554186 0
M  V30 7786 C 726.232 6.05266 -0.912091 0
M  V30 7787 N 725.369 7.01833 -0.193524 0
M  V30 7788 H 730.209 2.67869 -1.30576 0
M  V30 7789 H 727.746 1.31707 -0.655112 0
M  V30 7790 H 729.704 4.10941 0.71994 0
M  V30 7791 H 728.334 3.03403 1.10212 0
M  V30 7792 H 727.386 3.59183 -1.25267 0
M  V30 7793 H 728.698 4.77748 -1.43382 0
M  V30 7794 H 727.852 6.04166 0.553951 0
M  V30 7795 H 726.591 4.80634 0.827183 0
M  V30 7796 H 725.596 5.31099 -1.42175 0
M  V30 7797 H 726.821 6.57893 -1.68385 0
M  V30 7798 H 724.767 6.53607 0.559758 0
M  V30 7799 H 724.684 7.50957 -0.871744 0
M  V30 7800 H 725.952 7.78983 0.283932 0
M  V30 7801 N 730.181 0.707592 1.40822 0
M  V30 7802 C 731.111 0.0644925 2.33411 0
M  V30 7803 C 732.092 -0.754205 1.52466 0
M  V30 7804 O 733.277 -0.704749 1.80961 0
M  V30 7805 C 730.407 -0.863865 3.36385 0
M  V30 7806 C 729.361 -0.15138 4.27732 0
M  V30 7807 C 728.687 -1.19491 5.21177 0
M  V30 7808 C 729.987 0.989607 5.12839 0
M  V30 7809 H 731.681 0.837829 2.87438 0
M  V30 7810 H 729.227 0.404346 1.38207 0
M  V30 7811 H 731.18 -1.32309 4.0009 0
M  V30 7812 H 729.904 -1.66901 2.80734 0
M  V30 7813 H 728.563 0.287937 3.65467 0
M  V30 7814 H 728.211 -1.9929 4.61836 0
M  V30 7815 H 727.911 -0.723123 5.83134 0
M  V30 7816 H 729.435 -1.6544 5.8776 0
M  V30 7817 H 730.849 0.610114 5.70044 0
M  V30 7818 H 729.246 1.38926 5.83798 0
M  V30 7819 H 730.316 1.82389 4.49291 0
M  V30 7820 N 731.66 -1.50943 0.453197 0
M  V30 7821 C 732.908 -2.01813 -0.107709 0
M  V30 7822 C 733.229 -1.33841 -1.41816 0
M  V30 7823 O 732.499 -0.477973 -1.8998 0
M  V30 7824 H 731.079 -0.745773 -0.0427948 0
M  V30 7825 H 733.741 -1.8545 0.599531 0
M  V30 7826 H 732.837 -3.10911 -0.27218 0
M  V30 7827 N 733.138 -0.185124 -1.56509 0
M  V30 7828 C 734.101 0.72591 -2.17401 0
M  V30 7829 C 735.101 1.14819 -1.12575 0
M  V30 7830 O 736.291 1.0629 -1.38015 0
M  V30 7831 C 733.423 1.98979 -2.76803 0
M  V30 7832 H 734.616 0.195588 -2.99262 0
M  V30 7833 H 732.169 0.0644772 -1.56167 0
M  V30 7834 H 732.904 2.56287 -1.98714 0
M  V30 7835 H 732.689 1.69583 -3.53531 0
M  V30 7836 H 734.179 2.63966 -3.23592 0
M  V30 7837 N 734.616 1.57351 0.0885366 0
M  V30 7838 C 735.841 1.91011 0.80805 0
M  V30 7839 C 736.266 0.780009 1.71165 0
M  V30 7840 O 735.624 -0.268083 1.79307 0
M  V30 7841 C 735.672 3.23562 1.59185 0
M  V30 7842 O 734.776 3.11615 2.7013 0
M  V30 7843 H 734.117 0.625943 0.221565 0
M  V30 7844 H 736.647 2.04507 0.0617954 0
M  V30 7845 H 736.657 3.5703 1.97468 0
M  V30 7846 H 735.332 4.05398 0.928741 0
M  V30 7847 H 733.909 2.89673 2.34827 0
M  V30 7848 N 736.094 -0.359525 1.53444 0
M  V30 7849 C 737.024 -1.44662 1.8329 0
M  V30 7850 C 738.005 -1.55617 0.68683 0
M  V30 7851 O 739.19 -1.70086 0.93725 0
M  V30 7852 C 736.32 -2.81923 2.02822 0
M  V30 7853 C 735.274 -2.85787 3.18606 0
M  V30 7854 C 734.6 -4.25781 3.23442 0
M  V30 7855 C 735.9 -2.52762 4.57065 0
M  V30 7856 H 737.594 -1.19934 2.74329 0
M  V30 7857 H 735.14 -0.575517 1.31999 0
M  V30 7858 H 737.093 -3.58005 2.22285 0
M  V30 7859 H 735.817 -3.08051 1.085 0
M  V30 7860 H 734.476 -2.12157 2.98973 0
M  V30 7861 H 734.124 -4.48994 2.26745 0
M  V30 7862 H 733.824 -4.29281 4.01238 0
M  V30 7863 H 735.348 -5.03727 3.45096 0
M  V30 7864 H 736.762 -3.18557 4.76649 0
M  V30 7865 H 735.159 -2.67569 5.37147 0
M  V30 7866 H 736.229 -1.47993 4.61764 0
M  V30 7867 N 737.572 -1.44907 -0.619662 0
M  V30 7868 C 738.819 -1.48292 -1.37898 0
M  V30 7869 C 739.147 -0.119933 -1.9413 0
M  V30 7870 O 738.402 0.879834 -1.74807 0
M  V30 7871 C 738.701 -2.50002 -2.55409 0
M  V30 7872 C 738.367 -3.95031 -2.17397 0
M  V30 7873 C 737.029 -4.34524 -2.06743 0
M  V30 7874 C 739.381 -4.86287 -1.87548 0
M  V30 7875 C 736.709 -5.63183 -1.64445 0
M  V30 7876 C 739.061 -6.15346 -1.4674 0
M  V30 7877 C 737.725 -6.53781 -1.34636 0
M  V30 7878 H 736.995 -0.542638 -0.504603 0
M  V30 7879 H 739.642 -1.78186 -0.701581 0
M  V30 7880 H 737.947 -2.13634 -3.28433 0
M  V30 7881 H 739.644 -2.49864 -3.13639 0
M  V30 7882 H 736.234 -3.63793 -2.26611 0
M  V30 7883 H 740.418 -4.56522 -1.94682 0
M  V30 7884 H 735.674 -5.91769 -1.53687 0
M  V30 7885 H 739.848 -6.85508 -1.22685 0
M  V30 7886 H 737.475 -7.53375 -1.01634 0
M  V30 7887 N 739.05 0.861098 -1.31996 0
M  V30 7888 C 740.278 1.6474 -1.25173 0
M  V30 7889 C 740.693 1.87926 0.181425 0
M  V30 7890 O 740.05 1.4437 1.1164 0
M  V30 7891 C 740.101 3.01036 -2.0015 0
M  V30 7892 O 739.822 2.7888 -3.37872 0
M  V30 7893 C 741.323 3.95481 -2.00273 0
M  V30 7894 H 738.543 0.513314 -0.432146 0
M  V30 7895 H 741.087 1.07419 -1.74016 0
M  V30 7896 H 739.242 3.55021 -1.55046 0
M  V30 7897 H 739.656 3.65514 -3.76165 0
M  V30 7898 H 741.13 4.88403 -2.57229 0
M  V30 7899 H 741.607 4.27957 -0.987407 0
M  V30 7900 H 742.213 3.47433 -2.45296 0
M  V30 7901 N 740.528 1.15101 1.07655 0
M  V30 7902 C 741.777 0.918528 1.79572 0
M  V30 7903 C 742.09 -0.555922 1.87534 0
M  V30 7904 O 743.296 -0.905893 2.55941 0
M  V30 7905 C 741.752 1.59394 3.22679 0
M  V30 7906 C 741.36 3.1052 3.22927 0
M  V30 7907 C 743.104 1.44289 3.99225 0
M  V30 7908 C 741.011 3.70862 4.60668 0
M  V30 7909 H 739.941 0.340006 0.672987 0
M  V30 7910 H 742.592 1.38079 1.20857 0
M  V30 7911 H 740.974 1.05936 3.81567 0
M  V30 7912 H 742.148 3.70708 2.737 0
M  V30 7913 H 740.463 3.25351 2.59876 0
M  V30 7914 H 743.06 1.86766 5.01022 0
M  V30 7915 H 743.403 0.389975 4.14469 0
M  V30 7916 H 743.936 1.94826 3.46825 0
M  V30 7917 H 740.675 4.7604 4.50628 0
M  V30 7918 H 740.195 3.15456 5.10145 0
M  V30 7919 H 741.874 3.71607 5.29639 0
M  V30 7920 N 742.006 -1.2595 0.947325 0
M  V30 7921 C 743.254 -1.93081 0.596996 0
M  V30 7922 C 743.575 -1.74632 -0.867672 0
M  V30 7923 O 742.845 -1.1056 -1.6172 0
M  V30 7924 H 741.425 -0.714542 0.217805 0
M  V30 7925 H 744.087 -1.53265 1.20398 0
M  V30 7926 H 743.183 -3.01134 0.82004 0
M  V30 7927 N 743.484 -0.715051 -1.40445 0
M  V30 7928 C 744.731 -0.254328 -2.00897 0
M  V30 7929 C 745.059 1.15228 -1.56693 0
M  V30 7930 O 744.314 1.7958 -0.777786 0
M  V30 7931 C 744.613 -0.281791 -3.56287 0
M  V30 7932 C 744.279 -1.63862 -4.20071 0
M  V30 7933 C 742.941 -2.01003 -4.37208 0
M  V30 7934 C 745.293 -2.53039 -4.55654 0
M  V30 7935 C 742.621 -3.26869 -4.8721 0
M  V30 7936 C 744.973 -3.78256 -5.07055 0
M  V30 7937 C 743.637 -4.15515 -5.22401 0
M  V30 7938 H 742.907 -0.0930652 -0.735133 0
M  V30 7939 H 745.554 -0.917977 -1.68064 0
M  V30 7940 H 743.859 0.465428 -3.89026 0
M  V30 7941 H 745.556 0.0925158 -4.00893 0
M  V30 7942 H 742.146 -1.33979 -4.07121 0
M  V30 7943 H 746.33 -2.2562 -4.42051 0
M  V30 7944 H 741.586 -3.55706 -4.97276 0
M  V30 7945 H 745.76 -4.47528 -5.33565 0
M  V30 7946 H 743.387 -5.13114 -5.60909 0
M  V30 7947 N 744.962 1.50701 -0.461195 0
M  V30 7948 C 745.925 2.2686 0.326679 0
M  V30 7949 C 746.925 1.31243 0.929085 0
M  V30 7950 O 748.115 1.54754 0.799807 0
M  V30 7951 C 745.247 3.07844 1.46441 0
M  V30 7952 H 746.44 2.97954 -0.341095 0
M  V30 7953 H 743.993 1.54814 -0.214984 0
M  V30 7954 H 744.728 2.41223 2.16753 0
M  V30 7955 H 744.513 3.78101 1.03836 0
M  V30 7956 H 746.003 3.65469 2.02044 0
M  V30 7957 N 746.441 0.193421 1.56409 0
M  V30 7958 C 747.69 -0.445995 1.96707 0
M  V30 7959 C 748.003 -1.62876 1.08309 0
M  V30 7960 O 749.209 -2.33586 1.38383 0
M  V30 7961 C 747.665 -0.844863 3.49843 0
M  V30 7962 C 747.273 0.31352 4.46902 0
M  V30 7963 C 749.017 -1.45146 3.98915 0
M  V30 7964 C 746.924 -0.106214 5.91305 0
M  V30 7965 H 745.854 -0.170398 0.734493 0
M  V30 7966 H 748.505 0.285172 1.81271 0
M  V30 7967 H 746.887 -1.63265 3.60778 0
M  V30 7968 H 748.061 1.09103 4.47698 0
M  V30 7969 H 746.376 0.8315 4.08014 0
M  V30 7970 H 748.973 -1.77792 5.04276 0
M  V30 7971 H 749.316 -2.35734 3.43126 0
M  V30 7972 H 749.849 -0.727675 3.91088 0
M  V30 7973 H 746.588 0.765442 6.51016 0
M  V30 7974 H 746.108 -0.848623 5.93766 0
M  V30 7975 H 747.787 -0.542588 6.44721 0
M  V30 7976 N 747.919 -1.57396 -0.0801906 0
M  V30 7977 C 749.149 -1.90778 -0.792924 0
M  V30 7978 C 749.557 -0.786814 -1.72064 0
M  V30 7979 O 748.9 0.249259 -1.82001 0
M  V30 7980 C 748.962 -3.19552 -1.64702 0
M  V30 7981 C 748.626 -4.48259 -0.889567 0
M  V30 7982 C 749.623 -5.19465 -0.212602 0
M  V30 7983 C 747.308 -4.94896 -0.859229 0
M  V30 7984 C 749.302 -6.35555 0.484566 0
M  V30 7985 C 746.989 -6.10895 -0.158284 0
M  V30 7986 C 747.987 -6.81075 0.512421 0
M  V30 7987 O 747.675 -7.94862 1.20209 0
M  V30 7988 H 747.407 -0.63527 -0.231103 0
M  V30 7989 H 749.961 -2.0532 -0.0573081 0
M  V30 7990 H 748.191 -3.01196 -2.42524 0
M  V30 7991 H 749.88 -3.38649 -2.23767 0
M  V30 7992 H 750.646 -4.84467 -0.227403 0
M  V30 7993 H 746.525 -4.4015 -1.37073 0
M  V30 7994 H 750.069 -6.9027 1.00864 0
M  V30 7995 H 745.966 -6.45345 -0.141381 0
M  V30 7996 H 746.734 -8.10932 1.11051 0
M  V30 7997 N 749.397 0.351382 -1.53633 0
M  V30 7998 C 750.307 1.45471 -1.84052 0
M  V30 7999 C 751.323 1.57945 -0.730015 0
M  V30 8000 O 752.499 1.73571 -1.02153 0
M  V30 8001 C 749.564 2.80562 -2.03681 0
M  V30 8002 C 748.625 2.77497 -3.27558 0
M  V30 8003 C 747.858 4.06144 -3.46241 0
M  V30 8004 O 748.081 5.03028 -2.68922 0
M  V30 8005 O 747.015 4.11092 -4.39645 0
M  V30 8006 H 750.841 1.22684 -2.77817 0
M  V30 8007 H 748.426 0.542827 -1.3919 0
M  V30 8008 H 750.308 3.6058 -2.18082 0
M  V30 8009 H 748.983 3.03296 -1.13106 0
M  V30 8010 H 747.89 1.96126 -3.18568 0
M  V30 8011 H 749.223 2.59716 -4.18101 0
M  V30 8012 N 750.875 1.45233 0.611969 0
M  V30 8013 C 752.121 1.49242 1.37312 0
M  V30 8014 C 752.454 0.131963 1.93751 0
M  V30 8015 O 751.729 -0.852999 1.74798 0
M  V30 8016 C 752.012 2.56811 2.52428 0
M  V30 8017 C 751.865 4.02284 2.01215 0
M  V30 8018 C 753.184 2.60705 3.54572 0
M  V30 8019 H 750.303 0.54336 0.497925 0
M  V30 8020 H 752.945 1.77019 0.690242 0
M  V30 8021 H 751.095 2.33256 3.10683 0
M  V30 8022 H 752.767 4.37035 1.47643 0
M  V30 8023 H 751.01 4.1315 1.32248 0
M  V30 8024 H 751.681 4.7323 2.84178 0
M  V30 8025 H 754.157 2.81799 3.06151 0
M  V30 8026 H 753.033 3.37841 4.32614 0
M  V30 8027 H 753.294 1.65627 4.09903 0
M  V30 8028 N 752.353 -0.854086 1.3245 0
M  V30 8029 C 753.764 -1.42427 1.20712 0
M  V30 8030 C 754.115 -1.95371 -0.18013 0
M  V30 8031 O 753.24 -1.87587 -1.07889 0
M  V30 8032 C 753.835 -2.58897 2.18536 0
M  V30 8033 C 752.394 -3.11913 2.10683 0
M  V30 8034 C 751.541 -1.84661 2.06871 0
M  V30 8035 H 754.492 -0.661192 1.4427 0
M  V30 8036 H 754.513 -3.36074 1.78422 0
M  V30 8037 H 754.025 -2.20333 3.19492 0
M  V30 8038 H 752.126 -3.55059 1.12977 0
M  V30 8039 H 752.239 -3.73119 3.00532 0
M  V30 8040 H 750.603 -2.04285 1.52118 0
M  V30 8041 H 751.386 -1.48314 3.09609 0
M  V30 8042 N 753.831 -1.1567 -1.07043 0
M  V30 8043 C 754.778 -0.856336 -2.14326 0
M  V30 8044 C 755.748 0.192051 -1.64986 0
M  V30 8045 O 756.933 0.0589148 -1.90709 0
M  V30 8046 C 754.073 -0.355227 -3.43267 0
M  V30 8047 C 753.186 -1.46555 -4.06381 0
M  V30 8048 C 752.321 -0.920245 -5.23168 0
M  V30 8049 C 751.36 -2.00729 -5.78251 0
M  V30 8050 N 750.497 -1.47813 -6.86364 0
M  V30 8051 H 755.337 -1.77514 -2.39359 0
M  V30 8052 H 752.874 -0.885676 -1.17449 0
M  V30 8053 H 754.832 -0.0463804 -4.17174 0
M  V30 8054 H 753.462 0.526649 -3.18475 0
M  V30 8055 H 752.514 -1.89052 -3.30096 0
M  V30 8056 H 753.826 -2.28616 -4.43324 0
M  V30 8057 H 752.98 -0.564127 -6.04072 0
M  V30 8058 H 751.719 -0.0688477 -4.87651 0
M  V30 8059 H 750.724 -2.3722 -4.95991 0
M  V30 8060 H 751.949 -2.86252 -6.15822 0
M  V30 8061 H 749.895 -0.649145 -6.5278 0
M  V30 8062 H 749.812 -2.23498 -7.22208 0
M  V30 8063 H 751.08 -1.15036 -7.70965 0
M  V30 8064 N 755.309 1.25446 -0.953992 0
M  V30 8065 C 756.219 2.29632 -0.480264 0
M  V30 8066 C 757.235 1.68025 0.452071 0
M  V30 8067 O 758.411 1.98703 0.328472 0
M  V30 8068 C 755.476 3.45903 0.234974 0
M  V30 8069 C 754.537 4.22953 -0.735495 0
M  V30 8070 C 753.77 5.33672 -0.0542957 0
M  V30 8071 O 753.993 5.58477 1.16018 0
M  V30 8072 O 752.927 5.9734 -0.739509 0
M  V30 8073 H 756.753 2.72242 -1.34602 0
M  V30 8074 H 754.338 1.30883 -0.720419 0
M  V30 8075 H 756.22 4.16552 0.637341 0
M  V30 8076 H 754.895 3.05296 1.07592 0
M  V30 8077 H 753.802 3.54734 -1.18806 0
M  V30 8078 H 755.135 4.67341 -1.54444 0
M  V30 8079 N 756.787 0.722489 1.40064 0
M  V30 8080 C 757.72 0.0233443 2.28188 0
M  V30 8081 C 758.698 -0.7606 1.43714 0
M  V30 8082 O 759.882 -0.745791 1.73119 0
M  V30 8083 C 757.009 -0.974264 3.24385 0
M  V30 8084 C 756.055 -0.280307 4.25578 0
M  V30 8085 S 756.888 0.996769 5.26141 0
M  V30 8086 C 758.044 0.00143923 6.259 0
M  V30 8087 H 758.277 0.770705 2.87137 0
M  V30 8088 H 755.81 0.513783 1.45601 0
M  V30 8089 H 757.768 -1.5446 3.80332 0
M  V30 8090 H 756.429 -1.69438 2.6448 0
M  V30 8091 H 755.622 -1.03471 4.93264 0
M  V30 8092 H 755.224 0.217657 3.73366 0
M  V30 8093 H 757.516 -0.843126 6.72233 0
M  V30 8094 H 758.459 0.645104 7.05155 0
M  V30 8095 H 758.867 -0.365371 5.63316 0
M  V30 8096 N 758.265 -1.50454 0.469181 0
M  V30 8097 C 759.215 -2.25381 -0.344582 0
M  V30 8098 C 760.199 -1.28892 -0.963098 0
M  V30 8099 O 761.391 -1.53805 -0.875964 0
M  V30 8100 C 758.52 -3.12232 -1.4271 0
M  V30 8101 C 757.606 -4.16168 -0.816411 0
M  V30 8102 N 757.997 -5.05762 0.0621424 0
M  V30 8103 C 756.295 -4.32712 -1.08056 0
M  V30 8104 C 756.996 -5.80264 0.408519 0
M  V30 8105 N 755.972 -5.43171 -0.215827 0
M  V30 8106 H 759.774 -2.92016 0.332237 0
M  V30 8107 H 757.288 -1.59911 0.283209 0
M  V30 8108 H 759.285 -3.64514 -2.02324 0
M  V30 8109 H 757.945 -2.47145 -2.10593 0
M  V30 8110 H 758.956 -5.16105 0.430841 0
M  V30 8111 H 755.633 -3.78844 -1.75452 0
M  V30 8112 H 757.023 -6.62408 1.12539 0
M  V30 8113 N 759.743 -0.201713 -1.56304 0
M  V30 8114 C 760.991 0.434447 -1.97375 0
M  V30 8115 C 761.312 1.61692 -1.08998 0
M  V30 8116 O 760.582 1.95223 -0.162682 0
M  V30 8117 H 759.162 0.163497 -0.728888 0
M  V30 8118 H 761.824 -0.289988 -1.92731 0
M  V30 8119 H 760.92 0.774136 -3.02347 0
M  V30 8120 N 761.222 1.57436 0.0718424 0
M  V30 8121 C 762.17 2.04725 1.10411 0
M  V30 8122 C 763.164 0.952579 1.4008 0
M  V30 8123 O 764.37 1.13769 1.39487 0
M  V30 8124 H 760.745 0.652749 0.373393 0
M  V30 8125 H 762.716 2.90569 0.679126 0
M  V30 8126 C 761.465 2.5068 2.40946 0
M  V30 8127 H 760.788 3.34505 2.18967 0
M  V30 8128 H 762.228 2.87521 3.11621 0
M  V30 8129 C 760.687 1.38971 3.06902 0
M  V30 8130 O 761.217 0.731786 3.94978 0
M  V30 8131 N 759.423 1.13485 2.67525 0
M  V30 8132 H 758.97 1.67168 1.95991 0
M  V30 8133 H 758.928 0.389467 3.11978 0
M  V30 8134 N 762.7 -0.34323 1.53817 0
M  V30 8135 C 763.647 -1.42153 1.81827 0
M  V30 8136 C 764.617 -1.52251 0.663996 0
M  V30 8137 O 765.802 -1.67784 0.908461 0
M  V30 8138 C 762.942 -2.78799 2.03384 0
M  V30 8139 C 762.055 -2.7749 3.31094 0
M  V30 8140 C 761.19 -4.05856 3.42717 0
M  V30 8141 C 760.229 -3.98776 4.64375 0
M  V30 8142 N 759.366 -5.18833 4.73029 0
M  V30 8143 H 764.206 -1.17567 2.73829 0
M  V30 8144 H 761.743 -0.569506 1.35628 0
M  V30 8145 H 763.701 -3.58211 2.13872 0
M  V30 8146 H 762.331 -3.01736 1.14696 0
M  V30 8147 H 761.383 -1.90182 3.29446 0
M  V30 8148 H 762.695 -2.68137 4.206 0
M  V30 8149 H 761.849 -4.93691 3.52638 0
M  V30 8150 H 760.588 -4.1799 2.51267 0
M  V30 8151 H 759.593 -3.09325 4.5453 0
M  V30 8152 H 760.818 -3.88224 5.57189 0
M  V30 8153 H 758.764 -5.31511 3.84489 0
M  V30 8154 H 758.681 -5.11737 5.56472 0
M  V30 8155 H 759.949 -6.08439 4.87261 0
M  V30 8156 N 764.178 -1.45556 -0.604258 0
M  V30 8157 C 765.11 -1.50494 -1.72871 0
M  V30 8158 C 766.123 -0.395368 -1.57926 0
M  V30 8159 O 767.312 -0.662603 -1.65746 0
M  V30 8160 C 764.412 -1.34874 -3.10906 0
M  V30 8161 C 763.585 -2.59564 -3.52058 0
M  V30 8162 C 762.644 -2.38453 -4.6907 0
M  V30 8163 O 761.67 -3.12082 -4.76018 0
M  V30 8164 N 762.872 -1.43229 -5.62553 0
M  V30 8165 H 765.637 -2.4744 -1.69097 0
M  V30 8166 H 763.198 -1.41338 -0.789636 0
M  V30 8167 H 765.19 -1.18556 -3.86945 0
M  V30 8168 H 763.76 -0.461913 -3.09168 0
M  V30 8169 H 762.98 -2.90974 -2.65946 0
M  V30 8170 H 764.268 -3.42441 -3.76313 0
M  V30 8171 H 763.666 -0.824714 -5.59656 0
M  V30 8172 H 762.223 -1.32882 -6.38111 0
M  V30 8173 N 765.656 0.84705 -1.32902 0
M  V30 8174 C 766.606 1.94451 -1.19049 0
M  V30 8175 C 767.59 1.60617 -0.095461 0
M  V30 8176 O 768.782 1.74033 -0.322739 0
M  V30 8177 C 765.911 3.30645 -0.923509 0
M  V30 8178 C 764.997 3.70675 -2.0606 0
M  V30 8179 N 765.388 3.82468 -3.30986 0
M  V30 8180 C 763.686 4.00357 -1.96547 0
M  V30 8181 C 764.387 4.17056 -4.05511 0
M  V30 8182 N 763.363 4.28985 -3.33876 0
M  V30 8183 H 767.165 2.01713 -2.1375 0
M  V30 8184 H 764.679 1.03928 -1.24791 0
M  V30 8185 H 766.676 4.0905 -0.805212 0
M  V30 8186 H 765.336 3.24697 0.0150523 0
M  V30 8187 H 766.347 3.66589 -3.65832 0
M  V30 8188 H 763.024 4.02666 -1.10299 0
M  V30 8189 H 764.414 4.33585 -5.13277 0
M  V30 8190 N 767.134 1.16236 1.06428 0
M  V30 8191 C 768.064 0.890807 2.1584 0
M  V30 8192 C 769.045 -0.162333 1.69324 0
M  V30 8193 O 770.23 -0.0147191 1.94194 0
M  V30 8194 C 767.36 0.389615 3.45108 0
M  V30 8195 C 766.314 1.38051 4.05125 0
M  V30 8196 C 765.64 0.737773 5.29586 0
M  V30 8197 C 766.94 2.74965 4.44062 0
M  V30 8198 H 768.634 1.80577 2.38814 0
M  V30 8199 H 766.18 0.869657 1.14774 0
M  V30 8200 H 768.133 0.187127 4.20984 0
M  V30 8201 H 766.857 -0.560851 3.21748 0
M  V30 8202 H 765.516 1.56952 3.31303 0
M  V30 8203 H 765.164 -0.219135 5.02522 0
M  V30 8204 H 764.864 1.39914 5.70699 0
M  V30 8205 H 766.388 0.545275 6.0816 0
M  V30 8206 H 767.802 2.59855 5.11027 0
M  V30 8207 H 766.199 3.37563 4.96156 0
M  V30 8208 H 767.269 3.30321 3.54987 0
M  V30 8209 N 768.612 -1.24939 0.960631 0
M  V30 8210 C 769.544 -2.24879 0.442937 0
M  V30 8211 C 770.557 -1.56615 -0.444464 0
M  V30 8212 O 771.746 -1.76715 -0.251776 0
M  V30 8213 C 768.846 -3.36757 -0.380537 0
M  V30 8214 C 768.019 -4.34587 0.495283 0
M  V30 8215 C 767.078 -5.25502 -0.270995 0
M  V30 8216 O 766.104 -5.68227 0.332661 0
M  V30 8217 N 767.306 -5.59077 -1.56249 0
M  V30 8218 H 770.071 -2.69932 1.30218 0
M  V30 8219 H 767.632 -1.38907 0.83166 0
M  V30 8220 H 769.624 -3.94542 -0.90103 0
M  V30 8221 H 768.194 -2.91045 -1.14067 0
M  V30 8222 H 767.414 -3.75593 1.19682 0
M  V30 8223 H 768.702 -4.96925 1.09285 0
M  V30 8224 H 768.1 -5.2628 -2.07476 0
M  V30 8225 H 766.657 -6.19421 -2.02882 0
M  V30 8226 N 770.09 -0.729906 -1.39679 0
M  V30 8227 C 771.037 -0.0866063 -2.30637 0
M  V30 8228 C 772.007 0.735115 -1.48947 0
M  V30 8229 O 773.192 0.696125 -1.77648 0
M  V30 8230 C 770.332 0.818524 -3.35252 0
M  V30 8231 C 769.445 -0.0152635 -4.31997 0
M  V30 8232 C 768.58 0.890669 -5.2368 0
M  V30 8233 C 767.619 0.0518246 -6.12078 0
M  V30 8234 N 766.756 0.913411 -6.96133 0
M  V30 8235 H 771.596 -0.867925 -2.85081 0
M  V30 8236 H 769.133 -0.439673 -1.40376 0
M  V30 8237 H 771.091 1.3577 -3.9449 0
M  V30 8238 H 769.721 1.56587 -2.82277 0
M  V30 8239 H 768.773 -0.671794 -3.74421 0
M  V30 8240 H 770.085 -0.664086 -4.9436 0
M  V30 8241 H 769.239 1.49787 -5.87919 0
M  V30 8242 H 767.978 1.57328 -4.61627 0
M  V30 8243 H 766.983 -0.568209 -5.46856 0
M  V30 8244 H 768.208 -0.627497 -6.76195 0
M  V30 8245 H 766.154 1.58141 -6.36653 0
M  V30 8246 H 766.071 0.320952 -7.55318 0
M  V30 8247 H 767.339 1.50633 -7.64807 0
M  V30 8248 N 771.568 1.50203 -0.477153 0
M  V30 8249 C 772.845 1.95115 0.137609 0
M  V30 8250 C 773.225 1.41778 1.56404 0
M  V30 8251 O 772.573 0.621333 2.1989 0
M  V30 8252 C 772.783 3.4892 0.0747168 0
M  V30 8253 C 774.131 4.238 0.260585 0
M  V30 8254 O 775.155 3.5588 0.151021 0
M  V30 8255 O 774.014 5.44366 0.482534 0
M  V30 8256 H 771.108 0.81987 0.108364 0
M  V30 8257 H 773.654 1.60946 -0.537989 0
M  V30 8258 H 772.426 3.80308 -0.920966 0
M  V30 8259 H 772.049 3.89642 0.791509 0
M  V30 8260 N 773.046 0.209999 1.56195 0
M  V30 8261 C 774.293 -0.424813 1.97994 0
M  V30 8262 C 774.621 -1.60589 1.09733 0
M  V30 8263 O 773.876 -1.95201 0.139693 0
M  V30 8264 C 774.175 -0.91312 3.45539 0
M  V30 8265 C 773.841 0.156187 4.50629 0
M  V30 8266 C 772.503 0.449966 4.79092 0
M  V30 8267 C 774.855 0.879959 5.13718 0
M  V30 8268 C 772.183 1.47223 5.67928 0
M  V30 8269 C 774.535 1.89148 6.0366 0
M  V30 8270 C 773.199 2.1923 6.30472 0
M  V30 8271 H 772.469 -0.15545 0.724511 0
M  V30 8272 H 775.116 0.310095 1.88973 0
M  V30 8273 H 773.421 -1.72658 3.51705 0
M  V30 8274 H 775.118 -1.41395 3.75245 0
M  V30 8275 H 771.708 -0.0829466 4.2852 0
M  V30 8276 H 775.892 0.66623 4.91808 0
M  V30 8277 H 771.148 1.71105 5.86969 0
M  V30 8278 H 775.322 2.45745 6.516 0
M  V30 8279 H 772.949 2.98587 6.99107 0
M  V30 8280 N 774.524 -1.57472 -0.0634922 0
M  V30 8281 C 775.771 -1.87654 -0.761066 0
M  V30 8282 C 776.099 -0.802847 -1.77157 0
M  V30 8283 O 775.354 0.200244 -1.94673 0
M  V30 8284 C 775.653 -3.24521 -1.49736 0
M  V30 8285 C 775.319 -4.46532 -0.626065 0
M  V30 8286 C 773.981 -4.7965 -0.385978 0
M  V30 8287 C 776.333 -5.21195 -0.0224001 0
M  V30 8288 C 773.661 -5.84837 0.467118 0
M  V30 8289 C 776.013 -6.27286 0.818198 0
M  V30 8290 C 774.677 -6.58899 1.06808 0
M  V30 8291 H 773.947 -0.686675 -0.278494 0
M  V30 8292 H 776.594 -1.91488 -0.0216348 0
M  V30 8293 H 774.899 -3.16516 -2.30921 0
M  V30 8294 H 776.596 -3.45111 -2.04204 0
M  V30 8295 H 773.186 -4.20618 -0.823325 0
M  V30 8296 H 777.37 -4.95917 -0.194985 0
M  V30 8297 H 772.626 -6.07725 0.669375 0
M  V30 8298 H 776.8 -6.84298 1.29265 0
M  V30 8299 H 774.427 -7.40233 1.73088 0
M  V30 8300 N 776.003 0.335068 -1.53997 0
M  V30 8301 C 776.933 1.41727 -1.85568 0
M  V30 8302 C 777.914 1.54505 -0.7115 0
M  V30 8303 O 779.099 1.68573 -0.964191 0
M  V30 8304 C 776.229 2.7866 -2.07282 0
M  V30 8305 C 775.183 2.80682 -3.23112 0
M  V30 8306 C 774.509 4.20581 -3.30175 0
M  V30 8307 C 775.809 2.45458 -4.61029 0
M  V30 8308 H 777.503 1.15555 -2.76202 0
M  V30 8309 H 775.049 0.554445 -1.32898 0
M  V30 8310 H 777.002 3.54423 -2.27952 0
M  V30 8311 H 775.726 3.06286 -1.13387 0
M  V30 8312 H 774.385 2.07373 -3.02311 0
M  V30 8313 H 774.033 4.4533 -2.33859 0
M  V30 8314 H 773.733 4.22843 -4.08016 0
M  V30 8315 H 775.257 4.98174 -3.53066 0
M  V30 8316 H 776.671 3.10934 -4.81656 0
M  V30 8317 H 775.068 2.5899 -5.41336 0
M  V30 8318 H 776.138 1.40628 -4.6406 0
M  V30 8319 N 777.481 1.45874 0.596531 0
M  V30 8320 C 778.711 1.5379 1.37958 0
M  V30 8321 C 779.119 0.173086 1.88407 0
M  V30 8322 O 778.462 -0.837498 1.63498 0
M  V30 8323 C 778.524 2.47044 2.61169 0
M  V30 8324 C 778.188 3.93565 2.32283 0
M  V30 8325 C 779.185 4.83162 1.91965 0
M  V30 8326 C 776.87 4.38579 2.44854 0
M  V30 8327 C 778.864 6.15782 1.64593 0
M  V30 8328 C 776.551 5.71238 2.17095 0
M  V30 8329 C 777.549 6.59659 1.77028 0
M  V30 8330 O 777.237 7.89857 1.49601 0
M  V30 8331 H 776.969 0.523 0.428307 0
M  V30 8332 H 779.523 1.91855 0.733529 0
M  V30 8333 H 777.753 2.0397 3.28532 0
M  V30 8334 H 779.442 2.4552 3.23226 0
M  V30 8335 H 780.208 4.49646 1.8178 0
M  V30 8336 H 776.087 3.6999 2.75006 0
M  V30 8337 H 779.631 6.84757 1.33245 0
M  V30 8338 H 775.528 6.04306 2.26901 0
M  V30 8339 H 776.296 8.01991 1.63561 0
M  V30 8340 N 778.959 -0.83999 1.33349 0
M  V30 8341 C 779.907 -1.97113 1.23488 0
M  V30 8342 C 780.901 -1.68849 0.136503 0
M  V30 8343 O 782.107 -1.77476 0.300389 0
M  V30 8344 H 778.482 -0.647049 0.383185 0
M  V30 8345 H 780.453 -2.02554 2.19122 0
M  V30 8346 C 779.202 -3.33314 0.989815 0
M  V30 8347 H 778.525 -3.556 1.82726 0
M  V30 8348 H 779.965 -4.12963 0.961123 0
M  V30 8349 C 778.424 -3.35496 -0.307272 0
M  V30 8350 O 778.954 -3.79589 -1.31434 0
M  V30 8351 N 777.16 -2.88669 -0.334414 0
M  V30 8352 H 776.707 -2.5298 0.485659 0
M  V30 8353 H 776.665 -2.90512 -1.20209 0
M  V30 8354 N 780.437 -1.16799 -1.0581 0
M  V30 8355 C 781.4 -0.881396 -2.11575 0
M  V30 8356 C 782.4 0.12574 -1.60308 0
M  V30 8357 O 783.59 -0.105716 -1.73879 0
M  V30 8358 C 780.722 -0.319037 -3.39404 0
M  V30 8359 H 781.915 -1.81907 -2.38432 0
M  V30 8360 H 779.468 -0.977597 -1.21954 0
M  V30 8361 H 780.203 0.626082 -3.18199 0
M  V30 8362 H 779.988 -1.04481 -3.77923 0
M  V30 8363 H 781.478 -0.13663 -4.17376 0
M  V30 8364 N 781.915 1.24427 -0.967243 0
M  V30 8365 C 783.14 1.9708 -0.646069 0
M  V30 8366 C 783.565 1.71272 0.777665 0
M  V30 8367 O 782.923 0.976179 1.52776 0
M  V30 8368 C 782.971 3.48501 -0.926266 0
M  V30 8369 O 782.075 4.12398 -0.0114653 0
M  V30 8370 H 781.416 0.617423 -0.244304 0
M  V30 8371 H 783.946 1.58215 -1.29727 0
M  V30 8372 H 783.956 3.98885 -0.857619 0
M  V30 8373 H 782.631 3.66613 -1.96386 0
M  V30 8374 H 781.208 3.72661 -0.133396 0
M  V30 8375 N 783.393 0.737304 1.3929 0
M  V30 8376 C 784.34 0.0988364 2.30588 0
M  V30 8377 C 785.31 -0.727206 1.49335 0
M  V30 8378 O 786.495 -0.686694 1.78014 0
M  V30 8379 C 783.635 -0.800734 3.35682 0
M  V30 8380 C 782.748 0.0381731 4.31983 0
M  V30 8381 C 781.883 -0.862884 5.24145 0
M  V30 8382 C 780.922 -0.0193639 6.12097 0
M  V30 8383 N 780.059 -0.87648 6.96608 0
M  V30 8384 H 784.899 0.883031 2.84617 0
M  V30 8385 H 782.436 0.447111 1.4014 0
M  V30 8386 H 784.394 -1.33676 3.95205 0
M  V30 8387 H 783.024 -1.55088 2.83103 0
M  V30 8388 H 782.076 0.691641 3.74059 0
M  V30 8389 H 783.388 0.690294 4.94 0
M  V30 8390 H 782.542 -1.46667 5.88705 0
M  V30 8391 H 781.281 -1.54878 4.62454 0
M  V30 8392 H 780.286 0.597202 5.46547 0
M  V30 8393 H 781.511 0.663348 6.75852 0
M  V30 8394 H 779.457 -1.54762 6.37483 0
M  V30 8395 H 779.374 -0.280892 7.55478 0
M  V30 8396 H 780.642 -1.46575 7.65595 0
M  V30 8397 N 784.871 -1.49948 0.485112 0
M  V30 8398 C 785.834 -2.27351 -0.290546 0
M  V30 8399 C 786.834 -1.32704 -0.908087 0
M  V30 8400 O 788.024 -1.56007 -0.775085 0
M  V30 8401 C 785.156 -3.10135 -1.41524 0
M  V30 8402 H 786.349 -2.97374 0.388454 0
M  V30 8403 H 783.902 -1.54453 0.239586 0
M  V30 8404 H 784.637 -2.44641 -2.12888 0
M  V30 8405 H 784.422 -3.79705 -0.978074 0
M  V30 8406 H 785.912 -3.68638 -1.96204 0
M  V30 8407 N 786.349 -0.21828 -1.56081 0
M  V30 8408 C 787.765 0.137168 -1.59009 0
M  V30 8409 C 787.965 1.59215 -1.23503 0
M  V30 8410 O 787.021 2.33178 -0.968716 0
M  V30 8411 C 788.334 -0.186162 -3.00123 0
M  V30 8412 C 789.882 -0.128135 -3.12738 0
M  V30 8413 C 790.357 -0.425094 -4.56023 0
M  V30 8414 N 791.848 -0.374547 -4.61683 0
M  V30 8415 C 792.583 -0.57786 -5.70481 0
M  V30 8416 N 792.079 -0.842771 -6.87655 0
M  V30 8417 N 793.872 -0.510521 -5.59777 0
M  V30 8418 H 786.023 -1.16746 -1.77437 0
M  V30 8419 H 788.286 -0.467706 -0.824594 0
M  V30 8420 H 787.992 -1.19589 -3.30744 0
M  V30 8421 H 787.866 0.500388 -3.73866 0
M  V30 8422 H 790.253 0.872224 -2.81915 0
M  V30 8423 H 790.334 -0.848112 -2.41331 0
M  V30 8424 H 789.978 -1.42288 -4.87562 0
M  V30 8425 H 789.908 0.316038 -5.25651 0
M  V30 8426 H 792.399 -0.177356 -3.77484 0
M  V30 8427 H 792.712 -0.986095 -7.66483 0
M  V30 8428 H 791.057 -0.879929 -6.89407 0
M  V30 8429 H 794.248 -0.303813 -4.67113 0
M  V30 8430 H 794.421 -0.672378 -6.44502 0
M  V30 8431 N 787.827 1.57504 0.0551401 0
M  V30 8432 C 789.052 1.92682 0.767352 0
M  V30 8433 C 789.477 0.81614 1.69472 0
M  V30 8434 O 788.835 -0.229989 1.79835 0
M  V30 8435 C 788.883 3.26866 1.52286 0
M  V30 8436 O 787.987 3.17274 2.63459 0
M  V30 8437 H 787.328 0.630502 0.208238 0
M  V30 8438 H 789.858 2.04592 0.0184026 0
M  V30 8439 H 789.868 3.61138 1.8985 0
M  V30 8440 H 788.543 4.07276 0.842541 0
M  V30 8441 H 787.12 2.94589 2.2863 0
M  V30 8442 N 789.305 -0.326896 1.54172 0
M  V30 8443 C 790.252 -1.40216 1.83325 0
M  V30 8444 C 791.222 -1.51538 0.680107 0
M  V30 8445 O 792.407 -1.66811 0.926206 0
M  V30 8446 C 789.547 -2.76626 2.0633 0
M  V30 8447 C 788.66 -2.73963 3.34019 0
M  V30 8448 C 787.795 -4.02198 3.47002 0
M  V30 8449 C 786.834 -3.93828 4.68578 0
M  V30 8450 N 785.971 -5.13787 4.78506 0
M  V30 8451 H 790.811 -1.14656 2.7506 0
M  V30 8452 H 788.348 -0.555089 1.36225 0
M  V30 8453 H 790.306 -3.55922 2.17659 0
M  V30 8454 H 788.936 -3.00503 1.1789 0
M  V30 8455 H 787.988 -1.86677 3.31445 0
M  V30 8456 H 789.3 -2.6366 4.2342 0
M  V30 8457 H 788.454 -4.89923 3.57855 0
M  V30 8458 H 787.193 -4.15302 2.55687 0
M  V30 8459 H 786.198 -3.04487 4.57786 0
M  V30 8460 H 787.423 -3.82292 5.61275 0
M  V30 8461 H 785.369 -5.27403 3.90105 0
M  V30 8462 H 785.286 -5.05807 5.61868 0
M  V30 8463 H 786.554 -6.03236 4.93686 0
M  V30 8464 N 790.784 -1.46188 -0.588786 0
M  V30 8465 C 792.012 -1.54743 -1.37339 0
M  V30 8466 C 792.427 -0.186446 -1.87877 0
M  V30 8467 O 791.784 0.815247 -1.63279 0
M  V30 8468 C 791.835 -2.54727 -2.56508 0
M  V30 8469 O 791.556 -3.85539 -2.08066 0
M  V30 8470 C 793.057 -2.73163 -3.49137 0
M  V30 8471 H 790.277 -0.523484 -0.419768 0
M  V30 8472 H 792.821 -1.91543 -0.716345 0
M  V30 8473 H 790.976 -2.20948 -3.18215 0
M  V30 8474 H 791.39 -4.39905 -2.85629 0
M  V30 8475 H 792.864 -3.47057 -4.2925 0
M  V30 8476 H 793.341 -1.79856 -4.00685 0
M  V30 8477 H 793.947 -3.08014 -2.9327 0
M  V30 8478 N 792.262 0.832906 -1.33792 0
M  V30 8479 C 793.492 1.61813 -1.28453 0
M  V30 8480 C 793.9 1.88639 0.145595 0
M  V30 8481 O 793.243 1.47122 1.10004 0
M  V30 8482 C 793.305 2.98929 -1.99704 0
M  V30 8483 C 792.969 2.95045 -3.48995 0
M  V30 8484 C 793.966 2.70337 -4.44088 0
M  V30 8485 C 791.651 3.14993 -3.91261 0
M  V30 8486 C 793.645 2.65612 -5.79421 0
M  V30 8487 C 791.332 3.09893 -5.26697 0
M  V30 8488 C 792.33 2.85235 -6.20588 0
M  V30 8489 O 792.018 2.8005 -7.53543 0
M  V30 8490 H 791.75 0.510013 -0.443693 0
M  V30 8491 H 794.304 1.04514 -1.76822 0
M  V30 8492 H 792.534 3.58106 -1.45935 0
M  V30 8493 H 794.223 3.59849 -1.87786 0
M  V30 8494 H 794.989 2.54671 -4.12756 0
M  V30 8495 H 790.868 3.33204 -3.18584 0
M  V30 8496 H 794.412 2.46285 -6.52679 0
M  V30 8497 H 790.309 3.2511 -5.5765 0
M  V30 8498 H 791.077 2.95849 -7.63162 0
M  V30 8499 N 793.74 1.17359 1.05189 0
M  V30 8500 C 794.989 0.956412 1.77583 0
M  V30 8501 C 795.302 -0.516018 1.88671 0
M  V30 8502 O 796.508 -0.851401 2.57805 0
M  V30 8503 C 794.964 1.66203 3.19225 0
M  V30 8504 C 794.572 3.17299 3.16267 0
M  V30 8505 C 796.316 1.52725 3.96075 0
M  V30 8506 C 794.223 3.8055 4.52698 0
M  V30 8507 H 793.153 0.354204 0.665624 0
M  V30 8508 H 795.804 1.40612 1.17901 0
M  V30 8509 H 794.186 1.14006 3.79234 0
M  V30 8510 H 795.36 3.76431 2.65776 0
M  V30 8511 H 793.675 3.3079 2.52917 0
M  V30 8512 H 796.272 1.97351 4.96947 0
M  V30 8513 H 796.615 0.477803 4.13549 0
M  V30 8514 H 797.148 2.02139 3.42614 0
M  V30 8515 H 793.887 4.85492 4.4043 0
M  V30 8516 H 793.407 3.26206 5.03339 0
M  V30 8517 H 795.086 3.82757 5.21638 0
M  V30 8518 N 795.218 -1.23913 0.973828 0
M  V30 8519 C 796.166 -2.27141 0.50098 0
M  V30 8520 C 797.16 -1.63623 -0.438631 0
M  V30 8521 O 798.366 -1.77253 -0.313247 0
M  V30 8522 H 794.741 -0.73817 0.14356 0
M  V30 8523 H 796.712 -2.64392 1.38346 0
M  V30 8524 C 795.461 -3.47195 -0.187377 0
M  V30 8525 H 794.784 -3.96318 0.526535 0
M  V30 8526 H 796.224 -4.21252 -0.481962 0
M  V30 8527 C 794.683 -3.05678 -1.41642 0
M  V30 8528 O 795.213 -3.1338 -2.51309 0
M  V30 8529 N 793.419 -2.60661 -1.28469 0
M  V30 8530 H 792.966 -2.54594 -0.39238 0
M  V30 8531 H 792.924 -2.33249 -2.10813 0
M  V30 8532 N 796.696 -0.74468 -1.38897 0
M  V30 8533 C 797.629 -0.0596441 -2.28122 0
M  V30 8534 C 798.607 0.73764 -1.44906 0
M  V30 8535 O 799.791 0.718155 -1.74284 0
M  V30 8536 C 796.918 0.922533 -3.25894 0
M  V30 8537 C 795.964 0.212566 -4.2597 0
M  V30 8538 S 796.797 -1.08035 -5.24489 0
M  V30 8539 C 797.953 -0.101014 -6.25818 0
M  V30 8540 H 798.186 -0.816289 -2.85874 0
M  V30 8541 H 795.719 -0.536882 -1.44765 0
M  V30 8542 H 797.677 1.4839 -3.82741 0
M  V30 8543 H 796.338 1.65209 -2.67142 0
M  V30 8544 H 795.531 0.956106 -4.94848 0
M  V30 8545 H 795.133 -0.277029 -3.72973 0
M  V30 8546 H 797.425 0.736072 -6.7349 0
M  V30 8547 H 798.368 -0.757206 -7.0404 0
M  V30 8548 H 798.776 0.275706 -5.63826 0
M  V30 8549 N 798.174 1.49689 -0.493057 0
M  V30 8550 C 799.59 1.58907 -0.148526 0
M  V30 8551 C 799.79 1.4991 1.34645 0
M  V30 8552 O 798.846 1.36893 2.12171 0
M  V30 8553 C 800.159 2.91996 -0.718265 0
M  V30 8554 C 801.707 3.05443 -0.683658 0
M  V30 8555 C 802.182 4.41138 -1.23132 0
M  V30 8556 N 803.673 4.47608 -1.19167 0
M  V30 8557 C 804.408 5.51038 -1.5857 0
M  V30 8558 N 803.904 6.61612 -2.05528 0
M  V30 8559 N 805.697 5.41706 -1.50036 0
M  V30 8560 H 797.848 1.5378 -1.46511 0
M  V30 8561 H 800.111 0.727996 -0.607228 0
M  V30 8562 H 799.817 3.04123 -1.7664 0
M  V30 8563 H 799.691 3.76798 -0.17419 0
M  V30 8564 H 802.078 2.92949 0.355626 0
M  V30 8565 H 802.159 2.22344 -1.26479 0
M  V30 8566 H 801.803 4.54382 -2.26935 0
M  V30 8567 H 801.733 5.22864 -0.626201 0
M  V30 8568 H 804.224 3.68274 -0.847524 0
M  V30 8569 H 804.537 7.36622 -2.33685 0
M  V30 8570 H 802.882 6.62674 -2.09497 0
M  V30 8571 H 806.073 4.54212 -1.13176 0
M  V30 8572 H 806.246 6.22188 -1.81068 0
M  V30 8573 N 799.652 0.226554 1.55963 0
M  V30 8574 C 800.562 -0.692725 2.24139 0
M  V30 8575 C 801.578 -1.20971 1.25068 0
M  V30 8576 O 802.754 -1.25027 1.57893 0
M  V30 8577 C 799.819 -1.88183 2.91184 0
M  V30 8578 C 798.88 -1.40633 4.05612 0
M  V30 8579 C 798.113 -2.53875 4.6945 0
M  V30 8580 O 798.336 -3.72129 4.32292 0
M  V30 8581 O 797.27 -2.24792 5.58348 0
M  V30 8582 H 801.096 -0.141921 3.03368 0
M  V30 8583 H 798.681 -0.0041049 1.49399 0
M  V30 8584 H 800.563 -2.57617 3.33484 0
M  V30 8585 H 799.238 -2.42064 2.14911 0
M  V30 8586 H 798.145 -0.67986 3.67871 0
M  V30 8587 H 799.478 -0.913838 4.83642 0
M  V30 8588 N 801.13 -1.57531 -0.0467866 0
M  V30 8589 C 802.376 -1.8873 -0.742218 0
M  V30 8590 C 802.709 -0.822084 -1.75941 0
M  V30 8591 O 801.984 0.164922 -1.938 0
M  V30 8592 C 802.267 -3.30586 -1.42776 0
M  V30 8593 C 802.12 -4.47785 -0.425285 0
M  V30 8594 C 803.439 -3.71068 -2.36636 0
M  V30 8595 H 800.558 -0.686406 -0.268359 0
M  V30 8596 H 803.2 -1.89999 -0.00511341 0
M  V30 8597 H 801.35 -3.29634 -2.05605 0
M  V30 8598 H 803.022 -4.60867 0.199721 0
M  V30 8599 H 801.265 -4.33037 0.25713 0
M  V30 8600 H 801.936 -5.43884 -0.943086 0
M  V30 8601 H 804.412 -3.73273 -1.83866 0
M  V30 8602 H 803.288 -4.71165 -2.81593 0
M  V30 8603 H 803.549 -3.02355 -3.22542 0
M  V30 8604 N 802.608 0.318715 -1.54344 0
M  V30 8605 C 803.833 1.07987 -1.77069 0
M  V30 8606 C 804.258 1.80766 -0.520117 0
M  V30 8607 O 803.616 1.73424 0.528566 0
M  V30 8608 C 803.664 2.04987 -2.96669 0
M  V30 8609 O 802.768 3.12974 -2.68554 0
M  V30 8610 H 802.109 0.311109 -0.586606 0
M  V30 8611 H 804.639 0.361533 -2.0138 0
M  V30 8612 H 804.649 2.47771 -3.2415 0
M  V30 8613 H 803.324 1.51417 -3.87357 0
M  V30 8614 H 801.901 2.74831 -2.52037 0
M  V30 8615 N 804.086 1.46499 0.581025 0
M  V30 8616 C 805.018 1.53225 1.70455 0
M  V30 8617 C 806.031 0.420443 1.57277 0
M  V30 8618 O 807.22 0.688888 1.64671 0
M  V30 8619 C 804.32 1.39803 3.08721 0
M  V30 8620 C 803.493 2.65132 3.47884 0
M  V30 8621 C 802.552 2.45886 4.65217 0
M  V30 8622 O 801.578 3.19615 4.70993 0
M  V30 8623 N 802.78 1.5216 5.60203 0
M  V30 8624 H 805.545 2.50098 1.65139 0
M  V30 8625 H 803.106 1.42576 0.76705 0
M  V30 8626 H 805.098 1.24697 3.8501 0
M  V30 8627 H 803.668 0.51104 3.08394 0
M  V30 8628 H 802.888 2.95169 2.61284 0
M  V30 8629 H 804.176 3.48385 3.70817 0
M  V30 8630 H 803.574 0.913646 5.58273 0
M  V30 8631 H 802.131 1.43017 6.35916 0
M  V30 8632 N 805.565 -0.825799 1.34232 0
M  V30 8633 C 806.981 -1.11848 1.13851 0
M  V30 8634 C 807.181 -2.01405 -0.0619031 0
M  V30 8635 O 806.237 -2.41465 -0.738287 0
M  V30 8636 C 807.55 -1.76797 2.43235 0
M  V30 8637 C 809.098 -1.89304 2.49265 0
M  V30 8638 C 809.573 -2.57669 3.78643 0
M  V30 8639 N 811.064 -2.65171 3.79788 0
M  V30 8640 C 811.799 -3.1879 4.76614 0
M  V30 8641 N 811.295 -3.72995 5.83821 0
M  V30 8642 N 813.088 -3.17164 4.64073 0
M  V30 8643 H 805.239 -0.230049 2.11151 0
M  V30 8644 H 807.502 -0.164609 0.9336 0
M  V30 8645 H 807.208 -1.18455 3.31152 0
M  V30 8646 H 807.082 -2.76693 2.56361 0
M  V30 8647 H 809.469 -2.46796 1.6179 0
M  V30 8648 H 809.55 -0.883191 2.4007 0
M  V30 8649 H 809.194 -2.00833 4.66507 0
M  V30 8650 H 809.124 -3.59152 3.8512 0
M  V30 8651 H 811.615 -2.26746 3.02315 0
M  V30 8652 H 811.928 -4.12151 6.53721 0
M  V30 8653 H 810.273 -3.71246 5.87538 0
M  V30 8654 H 813.464 -2.74082 3.79469 0
M  V30 8655 H 813.637 -3.58647 5.397 0
M  V30 8656 N 807.043 -1.17915 -1.04565 0
M  V30 8657 C 808.29 -0.971424 -1.77678 0
M  V30 8658 C 808.618 0.499401 -1.87979 0
M  V30 8659 O 807.873 1.38695 -1.38066 0
M  V30 8660 C 808.172 -1.56528 -3.213 0
M  V30 8661 C 807.838 -3.06138 -3.31044 0
M  V30 8662 C 806.5 -3.46974 -3.33411 0
M  V30 8663 C 808.852 -4.02151 -3.31548 0
M  V30 8664 C 806.18 -4.82406 -3.33918 0
M  V30 8665 C 808.532 -5.37492 -3.33595 0
M  V30 8666 C 807.196 -5.77782 -3.34251 0
M  V30 8667 H 806.466 -0.355469 -0.650171 0
M  V30 8668 H 809.113 -1.46902 -1.22849 0
M  V30 8669 H 807.418 -0.98955 -3.79098 0
M  V30 8670 H 809.115 -1.38003 -3.76505 0
M  V30 8671 H 805.705 -2.73589 -3.29919 0
M  V30 8672 H 809.889 -3.71656 -3.28916 0
M  V30 8673 H 805.145 -5.12927 -3.3274 0
M  V30 8674 H 809.319 -6.1166 -3.32934 0
M  V30 8675 H 806.946 -6.82702 -3.34397 0
M  V30 8676 N 808.521 1.23394 -0.980386 0
M  V30 8677 C 809.937 1.43961 -0.689008 0
M  V30 8678 C 810.137 1.87229 0.744809 0
M  V30 8679 O 809.193 2.01831 1.51725 0
M  V30 8680 C 810.506 2.49128 -1.68392 0
M  V30 8681 C 812.054 2.62941 -1.69796 0
M  V30 8682 C 812.529 3.71317 -2.68118 0
M  V30 8683 N 814.02 3.7876 -2.66636 0
M  V30 8684 C 814.755 4.62176 -3.39383 0
M  V30 8685 N 814.251 5.49682 -4.21688 0
M  V30 8686 N 816.044 4.56372 -3.28147 0
M  V30 8687 H 808.195 0.936106 -1.90659 0
M  V30 8688 H 810.458 0.473023 -0.821555 0
M  V30 8689 H 810.164 2.24252 -2.70931 0
M  V30 8690 H 810.038 3.47514 -1.46675 0
M  V30 8691 H 812.425 2.87168 -0.679617 0
M  V30 8692 H 812.506 1.64871 -1.95579 0
M  V30 8693 H 812.15 3.4784 -3.70095 0
M  V30 8694 H 812.08 4.68929 -2.3961 0
M  V30 8695 H 814.571 3.16226 -2.06904 0
M  V30 8696 H 814.884 6.10323 -4.74053 0
M  V30 8697 H 813.229 5.49306 -4.25779 0
M  V30 8698 H 816.42 3.87029 -2.63299 0
M  V30 8699 H 816.593 5.21153 -3.85102 0
M  V30 8700 N 809.999 0.752036 1.385 0
M  V30 8701 C 810.929 0.138718 2.33088 0
M  V30 8702 C 811.91 -0.705318 1.54788 0
M  V30 8703 O 813.095 -0.646821 1.83112 0
M  V30 8704 C 810.225 -0.75641 3.38963 0
M  V30 8705 C 809.179 -0.0152239 4.27997 0
M  V30 8706 C 808.505 -1.0285 5.24715 0
M  V30 8707 C 809.805 1.15226 5.09431 0
M  V30 8708 H 811.499 0.928852 2.84627 0
M  V30 8709 H 809.045 0.448111 1.3685 0
M  V30 8710 H 810.998 -1.19513 4.04097 0
M  V30 8711 H 809.722 -1.57885 2.85902 0
M  V30 8712 H 808.381 0.404061 3.64366 0
M  V30 8713 H 808.029 -1.84496 4.67943 0
M  V30 8714 H 807.729 -0.537238 5.85139 0
M  V30 8715 H 809.253 -1.46657 5.92726 0
M  V30 8716 H 810.667 0.791161 5.67815 0
M  V30 8717 H 809.064 1.57428 5.79082 0
M  V30 8718 H 810.134 1.9659 4.43261 0
M  V30 8719 N 811.477 -1.49425 0.500989 0
M  V30 8720 C 812.888 -1.86624 0.0532011 0
M  V30 8721 C 813.239 -1.41331 -1.36088 0
M  V30 8722 O 812.364 -0.791195 -2.01418 0
M  V30 8723 C 812.959 -3.38681 0.0897693 0
M  V30 8724 C 811.518 -3.75181 -0.302677 0
M  V30 8725 C 810.665 -2.73419 0.462307 0
M  V30 8726 H 813.616 -1.41743 0.713773 0
M  V30 8727 H 813.637 -3.73902 -0.705528 0
M  V30 8728 H 813.149 -3.71616 1.11907 0
M  V30 8729 H 811.25 -3.47855 -1.33521 0
M  V30 8730 H 811.363 -4.79097 0.0167653 0
M  V30 8731 H 809.727 -2.54548 -0.0878557 0
M  V30 8732 H 810.51 -3.09198 1.49169 0
M  V30 8733 N 812.955 -0.234822 -1.55841 0
M  V30 8734 C 814.366 0.270588 -1.84729 0
M  V30 8735 C 814.717 1.58494 -1.15646 0
M  V30 8736 O 813.842 2.12071 -0.430667 0
M  V30 8737 C 814.437 0.497733 -3.35124 0
M  V30 8738 C 812.996 0.947428 -3.64281 0
M  V30 8739 C 812.143 0.01787 -2.77294 0
M  V30 8740 H 815.094 -0.457691 -1.51957 0
M  V30 8741 H 815.115 1.34199 -3.56049 0
M  V30 8742 H 814.627 -0.459037 -3.85376 0
M  V30 8743 H 812.728 1.91709 -3.19497 0
M  V30 8744 H 812.841 0.812651 -4.72158 0
M  V30 8745 H 811.205 0.527071 -2.49187 0
M  V30 8746 H 811.988 -0.934056 -3.30349 0
M  V30 8747 N 814.433 1.57553 0.0384317 0
M  V30 8748 C 815.658 1.93485 0.746872 0
M  V30 8749 C 816.083 0.834069 1.68597 0
M  V30 8750 O 815.441 -0.210902 1.80069 0
M  V30 8751 C 815.489 3.28463 1.4881 0
M  V30 8752 O 814.593 3.20051 2.60079 0
M  V30 8753 H 813.934 0.632675 0.201539 0
M  V30 8754 H 816.464 2.046 -0.00329815 0
M  V30 8755 H 816.474 3.63132 1.86009 0
M  V30 8756 H 815.149 4.08147 0.799297 0
M  V30 8757 H 813.726 2.96998 2.25492 0
M  V30 8758 N 815.911 -0.310526 1.54511 0
M  V30 8759 C 816.821 -1.4054 1.87844 0
M  V30 8760 C 817.837 -1.55954 0.771635 0
M  V30 8761 O 819.013 -1.70801 1.06719 0
M  V30 8762 C 816.078 -2.75063 2.11048 0
M  V30 8763 C 815.139 -2.68715 3.348 0
M  V30 8764 C 814.372 -3.96821 3.56887 0
M  V30 8765 O 814.595 -4.95721 2.82165 0
M  V30 8766 O 813.529 -3.99291 4.50389 0
M  V30 8767 H 817.355 -1.15275 2.80972 0
M  V30 8768 H 814.94 -0.505732 1.4058 0
M  V30 8769 H 816.822 -3.54671 2.27566 0
M  V30 8770 H 815.497 -3.00191 1.21108 0
M  V30 8771 H 814.404 -1.87611 3.23655 0
M  V30 8772 H 815.737 -2.4854 4.2484 0
M  V30 8773 N 817.389 -1.46805 -0.573248 0
M  V30 8774 C 818.619 -1.55965 -1.35494 0
M  V30 8775 C 819.027 -0.203038 -1.88107 0
M  V30 8776 O 818.37 0.81138 -1.6481 0
M  V30 8777 C 818.432 -2.51168 -2.57206 0
M  V30 8778 C 818.096 -3.97211 -2.25993 0
M  V30 8779 C 819.093 -4.86155 -1.84254 0
M  V30 8780 C 816.778 -4.42419 -2.37846 0
M  V30 8781 C 818.772 -6.18323 -1.54776 0
M  V30 8782 C 816.459 -5.74619 -2.0798 0
M  V30 8783 C 817.457 -6.62392 -1.66511 0
M  V30 8784 O 817.145 -7.92137 -1.37016 0
M  V30 8785 H 816.877 -0.529748 -0.419932 0
M  V30 8786 H 819.431 -1.92998 -0.702914 0
M  V30 8787 H 817.661 -2.09171 -3.25245 0
M  V30 8788 H 819.35 -2.50631 -3.19279 0
M  V30 8789 H 820.116 -4.52481 -1.74603 0
M  V30 8790 H 815.995 -3.74319 -2.69085 0
M  V30 8791 H 819.539 -6.8679 -1.22334 0
M  V30 8792 H 815.436 -6.0784 -2.17258 0
M  V30 8793 H 816.204 -8.04492 -1.50782 0
M  V30 8794 N 818.867 0.818669 -1.34668 0
M  V30 8795 C 820.113 1.57746 -1.27453 0
M  V30 8796 C 820.446 1.93588 0.154077 0
M  V30 8797 O 819.721 1.60371 1.10051 0
M  V30 8798 C 820.004 2.87414 -2.16945 0
M  V30 8799 C 819.857 2.58125 -3.68363 0
M  V30 8800 C 821.176 3.89021 -2.05792 0
M  V30 8801 H 818.295 0.572339 -0.464324 0
M  V30 8802 H 820.937 0.942784 -1.64959 0
M  V30 8803 H 819.087 3.41576 -1.85089 0
M  V30 8804 H 820.759 2.10239 -4.10606 0
M  V30 8805 H 819.002 1.91503 -3.89242 0
M  V30 8806 H 819.673 3.5061 -4.26353 0
M  V30 8807 H 822.149 3.44224 -2.33771 0
M  V30 8808 H 821.025 4.77548 -2.70628 0
M  V30 8809 H 821.286 4.29786 -1.03618 0
M  V30 8810 N 820.346 1.18468 1.03938 0
M  V30 8811 C 821.595 0.975193 1.76558 0
M  V30 8812 C 821.908 -0.495978 1.89207 0
M  V30 8813 O 823.114 -0.824009 2.58694 0
M  V30 8814 C 821.57 1.69579 3.17444 0
M  V30 8815 C 821.178 3.20636 3.12884 0
M  V30 8816 C 822.922 1.56917 3.94433 0
M  V30 8817 C 820.829 3.8533 4.48636 0
M  V30 8818 H 819.759 0.361244 0.66183 0
M  V30 8819 H 822.41 1.41854 1.16403 0
M  V30 8820 H 820.792 1.18022 3.78004 0
M  V30 8821 H 821.966 3.79228 2.61768 0
M  V30 8822 H 820.281 3.33454 2.49394 0
M  V30 8823 H 822.878 2.02611 4.94826 0
M  V30 8824 H 823.221 0.521638 4.13019 0
M  V30 8825 H 823.754 2.05762 3.40451 0
M  V30 8826 H 820.493 4.90136 4.35255 0
M  V30 8827 H 820.013 3.31526 4.99851 0
M  V30 8828 H 821.692 3.88269 5.17549 0
M  V30 8829 N 821.824 -1.22873 0.986916 0
M  V30 8830 C 823.07 -1.91746 0.660401 0
M  V30 8831 C 823.403 -1.76738 -0.804812 0
M  V30 8832 O 822.678 -1.13246 -1.58131 0
M  V30 8833 C 822.961 -3.44156 1.05966 0
M  V30 8834 C 822.814 -3.68242 2.58298 0
M  V30 8835 C 824.133 -4.35874 0.60842 0
M  V30 8836 H 821.252 -0.696347 0.241391 0
M  V30 8837 H 823.894 -1.44867 1.22937 0
M  V30 8838 H 822.044 -3.84213 0.575534 0
M  V30 8839 H 823.716 -3.37626 3.14335 0
M  V30 8840 H 821.959 -3.12728 3.00638 0
M  V30 8841 H 822.63 -4.74956 2.81285 0
M  V30 8842 H 825.106 -4.03299 1.02417 0
M  V30 8843 H 823.982 -5.41201 0.916142 0
M  V30 8844 H 824.243 -4.39364 -0.491086 0
M  V30 8845 N 823.302 -0.75937 -1.38099 0
M  V30 8846 C 824.713 -0.385078 -1.82686 0
M  V30 8847 C 825.064 1.0871 -1.6333 0
M  V30 8848 O 824.189 1.84084 -1.13762 0
M  V30 8849 C 824.784 -0.692161 -3.31654 0
M  V30 8850 C 823.343 -0.371077 -3.74566 0
M  V30 8851 C 822.49 -0.942375 -2.60796 0
M  V30 8852 H 825.441 -0.955048 -1.26746 0
M  V30 8853 H 825.462 0.0276001 -3.8049 0
M  V30 8854 H 824.974 -1.76369 -3.4571 0
M  V30 8855 H 823.075 0.693637 -3.66087 0
M  V30 8856 H 823.188 -0.870672 -4.71122 0
M  V30 8857 H 821.552 -0.367383 -2.52036 0
M  V30 8858 H 822.335 -2.01905 -2.77649 0
M  V30 8859 N 824.78 1.49157 -0.508906 0
M  V30 8860 C 826.005 2.07376 0.0315182 0
M  V30 8861 C 826.43 1.36575 1.2934 0
M  V30 8862 O 825.788 0.424963 1.76249 0
M  V30 8863 C 825.836 3.59661 0.260118 0
M  V30 8864 O 824.94 3.90255 1.33322 0
M  V30 8865 H 824.281 0.663334 -0.029739 0
M  V30 8866 H 826.811 1.91857 -0.710791 0
M  V30 8867 H 826.821 4.05056 0.489225 0
M  V30 8868 H 825.496 4.10601 -0.661794 0
M  V30 8869 H 824.073 3.56661 1.08844 0
M  V30 8870 N 826.258 0.243083 1.55714 0
M  V30 8871 C 827.486 -0.386971 2.03249 0
M  V30 8872 C 827.901 -1.51812 1.12243 0
M  V30 8873 O 827.258 -1.81992 0.136119 0
M  V30 8874 C 827.309 -0.898361 3.5016 0
M  V30 8875 O 827.03 0.187708 4.37698 0
M  V30 8876 C 828.531 -1.59949 4.13438 0
M  V30 8877 H 825.751 -0.0923981 0.664608 0
M  V30 8878 H 828.295 0.365832 2.01201 0
M  V30 8879 H 826.45 -1.60136 3.52754 0
M  V30 8880 H 826.864 -0.200001 5.24119 0
M  V30 8881 H 828.338 -1.90907 5.17937 0
M  V30 8882 H 828.815 -2.52014 3.59702 0
M  V30 8883 H 829.421 -0.941163 4.14756 0
M  V30 8884 N 827.736 -1.57571 -0.0300757 0
M  V30 8885 C 828.966 -1.93204 -0.731828 0
M  V30 8886 C 829.374 -0.841156 -1.69473 0
M  V30 8887 O 828.717 0.191231 -1.82702 0
M  V30 8888 C 828.779 -3.2463 -1.54453 0
M  V30 8889 C 828.443 -4.50862 -0.746507 0
M  V30 8890 C 829.44 -5.19879 -0.0472309 0
M  V30 8891 C 827.125 -4.9738 -0.701347 0
M  V30 8892 C 829.119 -6.33692 0.686518 0
M  V30 8893 C 826.806 -6.11089 0.036148 0
M  V30 8894 C 827.804 -6.791 0.728841 0
M  V30 8895 O 827.492 -7.90635 1.45436 0
M  V30 8896 H 827.224 -0.6423 -0.210775 0
M  V30 8897 H 829.778 -2.05398 0.00804194 0
M  V30 8898 H 828.008 -3.0876 -2.32818 0
M  V30 8899 H 829.697 -3.45597 -2.1288 0
M  V30 8900 H 830.463 -4.84945 -0.0731582 0
M  V30 8901 H 826.342 -4.44288 -1.23001 0
M  V30 8902 H 829.886 -6.86711 1.22773 0
M  V30 8903 H 825.783 -6.45468 0.064002 0
M  V30 8904 H 826.551 -8.06988 1.36794 0
M  V30 8905 N 829.214 0.302327 -1.54673 0
M  V30 8906 C 830.124 1.39542 -1.88587 0
M  V30 8907 C 831.14 1.55543 -0.779895 0
M  V30 8908 O 832.316 1.70233 -1.07623 0
M  V30 8909 C 829.381 2.7394 -2.12504 0
M  V30 8910 C 828.442 2.66935 -3.3622 0
M  V30 8911 C 827.675 3.94923 -3.58987 0
M  V30 8912 O 827.898 4.94218 -2.84789 0
M  V30 8913 O 826.832 3.96896 -4.52501 0
M  V30 8914 H 830.658 1.13784 -2.81579 0
M  V30 8915 H 828.243 0.49827 -1.40846 0
M  V30 8916 H 830.125 3.5346 -2.29443 0
M  V30 8917 H 828.8 2.99544 -1.22698 0
M  V30 8918 H 827.707 1.85892 -3.24646 0
M  V30 8919 H 829.04 2.46283 -4.26152 0
M  V30 8920 N 830.692 1.47107 0.565454 0
M  V30 8921 C 832.103 1.47266 1.1476 0
M  V30 8922 C 832.454 0.222841 1.9493 0
M  V30 8923 O 831.579 -0.672862 2.05673 0
M  V30 8924 C 832.174 2.66822 2.08785 0
M  V30 8925 C 830.733 2.69967 2.62288 0
M  V30 8926 C 829.88 2.40236 1.38499 0
M  V30 8927 H 832.831 1.54736 0.352479 0
M  V30 8928 H 832.852 2.43323 2.92531 0
M  V30 8929 H 832.364 3.5777 1.50408 0
M  V30 8930 H 830.465 1.83137 3.24487 0
M  V30 8931 H 830.578 3.70426 3.03845 0
M  V30 8932 H 828.942 1.90648 1.68895 0
M  V30 8933 H 829.725 3.33381 0.819274 0
M  V30 8934 N 832.17 -0.811516 1.35101 0
M  V30 8935 C 833.12 -1.91227 1.24163 0
M  V30 8936 C 834.104 -1.60307 0.138012 0
M  V30 8937 O 835.296 -1.73116 0.368767 0
M  V30 8938 C 832.425 -3.2808 1.01085 0
M  V30 8939 C 831.511 -3.65082 2.15815 0
M  V30 8940 N 831.902 -3.73558 3.4101 0
M  V30 8941 C 830.2 -3.95005 2.07092 0
M  V30 8942 C 830.901 -4.06158 4.16426 0
M  V30 8943 N 829.877 -4.19982 3.45132 0
M  V30 8944 H 833.679 -1.95975 2.19023 0
M  V30 8945 H 831.193 -1.00583 1.27503 0
M  V30 8946 H 833.19 -4.06771 0.913382 0
M  V30 8947 H 831.85 -3.24622 0.0710406 0
M  V30 8948 H 832.861 -3.56761 3.75423 0
M  V30 8949 H 829.538 -3.99601 1.20937 0
M  V30 8950 H 830.928 -4.19824 5.24592 0
M  V30 8951 N 833.648 -1.19017 -1.03309 0
M  V30 8952 C 834.58 -0.881847 -2.11556 0
M  V30 8953 C 835.593 0.123711 -1.62329 0
M  V30 8954 O 836.782 -0.105141 -1.7819 0
M  V30 8955 C 833.882 -0.297634 -3.37591 0
M  V30 8956 C 833.055 -1.35072 -4.16022 0
M  V30 8957 C 832.114 -0.780812 -5.20375 0
M  V30 8958 O 831.14 -1.45745 -5.50224 0
M  V30 8959 N 832.342 0.417964 -5.78993 0
M  V30 8960 H 835.107 -1.81359 -2.38598 0
M  V30 8961 H 832.668 -1.0916 -1.19565 0
M  V30 8962 H 834.66 0.097374 -4.04583 0
M  V30 8963 H 833.23 0.538299 -3.0793 0
M  V30 8964 H 832.45 -1.92074 -3.4424 0
M  V30 8965 H 833.738 -2.06044 -4.65213 0
M  V30 8966 H 833.136 0.985281 -5.57054 0
M  V30 8967 H 831.693 0.754802 -6.47415 0
M  V30 8968 N 835.127 1.22348 -0.993418 0
M  V30 8969 C 836.037 2.27987 -0.553076 0
M  V30 8970 C 837.053 1.69378 0.398386 0
M  V30 8971 O 838.229 1.99648 0.26509 0
M  V30 8972 C 835.294 3.46475 0.124809 0
M  V30 8973 C 834.355 4.20399 -0.869682 0
M  V30 8974 C 833.588 5.33229 -0.224052 0
M  V30 8975 O 833.811 5.61885 0.981915 0
M  V30 8976 O 832.745 5.94685 -0.929174 0
M  V30 8977 H 836.571 2.67822 -1.43195 0
M  V30 8978 H 834.156 1.28525 -0.761694 0
M  V30 8979 H 836.038 4.18369 0.504496 0
M  V30 8980 H 834.713 3.08565 0.978243 0
M  V30 8981 H 833.62 3.50774 -1.30031 0
M  V30 8982 H 834.953 4.62191 -1.69233 0
M  V30 8983 N 836.605 0.766683 1.37694 0
M  V30 8984 C 837.853 0.328065 1.9942 0
M  V30 8985 C 838.174 -1.09775 1.61166 0
M  V30 8986 O 837.444 -1.75288 0.874686 0
M  V30 8987 H 836.024 0.11831 0.737572 0
M  V30 8988 H 838.686 0.983686 1.68255 0
M  V30 8989 H 837.782 0.401647 3.09505 0
M  V30 8990 N 838.083 -1.48885 0.516809 0
M  V30 8991 C 838.993 -2.33185 -0.257293 0
M  V30 8992 C 840.009 -1.4565 -0.951952 0
M  V30 8993 O 841.185 -1.78651 -0.929834 0
M  V30 8994 C 838.25 -3.21465 -1.29851 0
M  V30 8995 C 837.311 -4.24863 -0.615608 0
M  V30 8996 C 836.544 -5.08925 -1.60722 0
M  V30 8997 O 836.767 -4.9475 -2.83863 0
M  V30 8998 O 835.701 -5.90737 -1.15384 0
M  V30 8999 H 839.527 -3.00596 0.433131 0
M  V30 9000 H 837.112 -1.46792 0.277908 0
M  V30 9001 H 838.994 -3.76108 -1.90055 0
M  V30 9002 H 837.669 -2.5673 -1.97158 0
M  V30 9003 H 836.576 -3.74091 0.0265829 0
M  V30 9004 H 837.909 -4.92198 0.0152871 0
M  V30 9005 N 839.561 -0.251338 -1.55583 0
M  V30 9006 C 840.808 0.372169 -1.99051 0
M  V30 9007 C 841.136 1.57623 -1.13953 0
M  V30 9008 O 840.391 1.94762 -0.191398 0
M  V30 9009 C 840.69 0.821186 -3.47838 0
M  V30 9010 C 840.356 -0.275608 -4.50057 0
M  V30 9011 C 839.018 -0.57683 -4.7773 0
M  V30 9012 C 841.37 -1.01585 -5.11204 0
M  V30 9013 C 838.698 -1.62229 -5.63825 0
M  V30 9014 C 841.05 -2.05087 -5.98433 0
M  V30 9015 C 839.714 -2.35869 -6.24437 0
M  V30 9016 H 838.984 0.136186 -0.728378 0
M  V30 9017 H 841.631 -0.360089 -1.88084 0
M  V30 9018 H 839.936 1.63272 -3.56159 0
M  V30 9019 H 841.633 1.31396 -3.78861 0
M  V30 9020 H 838.223 -0.030697 -4.28589 0
M  V30 9021 H 842.407 -0.79639 -4.89869 0
M  V30 9022 H 837.663 -1.86607 -5.82226 0
M  V30 9023 H 841.837 -2.62934 -6.44855 0
M  V30 9024 H 839.464 -3.17017 -6.90944 0
M  V30 9025 N 841.039 1.57585 0.0217189 0
M  V30 9026 C 842.288 1.88786 0.710125 0
M  V30 9027 C 842.601 0.850819 1.76126 0
M  V30 9028 O 843.807 1.0523 2.50277 0
M  V30 9029 C 842.263 3.3505 1.31413 0
M  V30 9030 C 841.871 4.47001 0.298959 0
M  V30 9031 C 843.615 3.7539 1.98199 0
M  V30 9032 C 841.522 5.8433 0.911727 0
M  V30 9033 H 840.452 0.704388 0.268986 0
M  V30 9034 H 843.103 1.83466 -0.0352638 0
M  V30 9035 H 841.485 3.35138 2.10947 0
M  V30 9036 H 842.659 4.58395 -0.470203 0
M  V30 9037 H 840.974 4.15542 -0.267222 0
M  V30 9038 H 843.571 4.75314 2.4491 0
M  V30 9039 H 843.914 3.07766 2.80331 0
M  V30 9040 H 844.447 3.77508 1.2543 0
M  V30 9041 H 841.186 6.55372 0.129659 0
M  V30 9042 H 840.706 5.76643 1.65056 0
M  V30 9043 H 842.385 6.31295 1.41688 0
M  V30 9044 N 842.517 -0.29412 1.54831 0
M  V30 9045 C 843.447 -1.36757 1.89261 0
M  V30 9046 C 844.428 -1.52564 0.752214 0
M  V30 9047 O 845.613 -1.65958 1.00855 0
M  V30 9048 C 842.743 -2.73066 2.14597 0
M  V30 9049 C 841.697 -2.72017 3.3044 0
M  V30 9050 C 841.023 -4.11679 3.4121 0
M  V30 9051 C 842.323 -2.33149 4.67375 0
M  V30 9052 H 844.017 -1.08191 2.79169 0
M  V30 9053 H 841.563 -0.519014 1.34321 0
M  V30 9054 H 843.516 -3.48255 2.37269 0
M  V30 9055 H 842.24 -3.03172 1.21467 0
M  V30 9056 H 840.899 -1.99285 3.07703 0
M  V30 9057 H 840.547 -4.38973 2.45584 0
M  V30 9058 H 840.247 -4.11877 4.19084 0
M  V30 9059 H 841.771 -4.88637 3.6615 0
M  V30 9060 H 843.185 -2.98054 4.89731 0
M  V30 9061 H 841.582 -2.44546 5.48012 0
M  V30 9062 H 842.652 -1.28275 4.67626 0
M  V30 9063 N 843.995 -1.47404 -0.557645 0
M  V30 9064 C 845.411 -1.32913 -0.88353 0
M  V30 9065 C 845.611 -0.31929 -1.98954 0
M  V30 9066 O 844.667 0.26934 -2.51059 0
M  V30 9067 C 845.98 -2.72229 -1.27718 0
M  V30 9068 C 847.528 -2.8051 -1.38863 0
M  V30 9069 C 848.003 -4.20466 -1.81583 0
M  V30 9070 N 849.494 -4.23005 -1.88735 0
M  V30 9071 C 850.229 -5.2821 -2.23118 0
M  V30 9072 N 849.725 -6.4372 -2.56117 0
M  V30 9073 N 851.518 -5.15588 -2.23888 0
M  V30 9074 H 843.669 -2.11698 0.172557 0
M  V30 9075 H 845.932 -0.947889 0.0145334 0
M  V30 9076 H 845.638 -3.47556 -0.538329 0
M  V30 9077 H 845.512 -3.03971 -2.23342 0
M  V30 9078 H 847.899 -2.05457 -2.11829 0
M  V30 9079 H 847.98 -2.52423 -0.414274 0
M  V30 9080 H 847.624 -4.96025 -1.09187 0
M  V30 9081 H 847.554 -4.45977 -2.80021 0
M  V30 9082 H 850.045 -3.39674 -1.65621 0
M  V30 9083 H 850.358 -7.19754 -2.81378 0
M  V30 9084 H 848.703 -6.47041 -2.53698 0
M  V30 9085 H 851.894 -4.24374 -1.97546 0
M  V30 9086 H 852.067 -5.97685 -2.50353 0
M  V30 9087 N 845.473 0.80434 -1.35529 0
M  V30 9088 C 846.719 1.56385 -1.29118 0
M  V30 9089 C 847.052 1.9374 0.133536 0
M  V30 9090 O 846.327 1.6153 1.08344 0
M  V30 9091 C 846.61 2.85097 -2.19981 0
M  V30 9092 C 846.463 2.54204 -3.7108 0
M  V30 9093 C 847.782 3.86817 -2.09907 0
M  V30 9094 H 844.901 0.567382 -0.470368 0
M  V30 9095 H 847.543 0.925235 -1.6595 0
M  V30 9096 H 845.693 3.39594 -1.88701 0
M  V30 9097 H 847.365 2.05872 -4.12813 0
M  V30 9098 H 845.608 1.87364 -3.91251 0
M  V30 9099 H 846.279 3.46068 -4.30048 0
M  V30 9100 H 848.755 3.41725 -2.37409 0
M  V30 9101 H 847.631 4.7465 -2.75678 0
M  V30 9102 H 847.892 4.28663 -1.08171 0
M  V30 9103 N 846.951 1.19563 1.02676 0
M  V30 9104 C 848.198 0.999568 1.7611 0
M  V30 9105 C 848.526 -0.469432 1.8875 0
M  V30 9106 O 847.781 -1.36481 1.40255 0
M  V30 9107 C 848.08 1.61619 3.18769 0
M  V30 9108 C 847.746 3.11366 3.26132 0
M  V30 9109 C 846.408 3.52234 3.27848 0
M  V30 9110 C 848.76 4.07374 3.25109 0
M  V30 9111 C 846.088 4.87658 3.26201 0
M  V30 9112 C 848.44 5.42731 3.25002 0
M  V30 9113 C 847.104 5.83027 3.25017 0
M  V30 9114 H 846.374 0.365768 0.644434 0
M  V30 9115 H 849.021 1.48838 1.20497 0
M  V30 9116 H 847.326 1.04974 3.77476 0
M  V30 9117 H 849.023 1.43975 3.74262 0
M  V30 9118 H 845.613 2.78804 3.25525 0
M  V30 9119 H 849.797 3.76842 3.22961 0
M  V30 9120 H 845.053 5.18156 3.24537 0
M  V30 9121 H 849.227 6.16879 3.23161 0
M  V30 9122 H 846.854 6.87936 3.23494 0
M  V30 9123 N 848.429 -1.21819 0.999893 0
M  V30 9124 C 849.654 -1.95298 0.698094 0
M  V30 9125 C 850.079 -1.73273 -0.731982 0
M  V30 9126 O 849.437 -1.01634 -1.50134 0
M  V30 9127 C 849.485 -3.45922 1.01834 0
M  V30 9128 O 848.589 -4.12223 0.120801 0
M  V30 9129 H 847.93 -0.610729 0.260588 0
M  V30 9130 H 850.46 -1.5472 1.33876 0
M  V30 9131 H 850.47 -3.96471 0.963074 0
M  V30 9132 H 849.145 -3.61278 2.06037 0
M  V30 9133 H 847.722 -3.72177 0.232153 0
M  V30 9134 N 849.908 -0.773975 -1.37286 0
M  V30 9135 C 850.818 -0.162571 -2.34036 0
M  V30 9136 C 851.834 0.677022 -1.60289 0
M  V30 9137 O 853.01 0.596423 -1.92366 0
M  V30 9138 C 850.075 0.70457 -3.39465 0
M  V30 9139 C 849.136 -0.151738 -4.29032 0
M  V30 9140 C 848.369 0.674111 -5.29426 0
M  V30 9141 O 848.592 1.91107 -5.37433 0
M  V30 9142 O 847.526 0.0821398 -6.01844 0
M  V30 9143 H 851.352 -0.962119 -2.88057 0
M  V30 9144 H 848.937 -0.53517 -1.39486 0
M  V30 9145 H 850.819 1.19954 -4.03967 0
M  V30 9146 H 849.494 1.48227 -2.87768 0
M  V30 9147 H 848.401 -0.693118 -3.67623 0
M  V30 9148 H 849.734 -0.892575 -4.84039 0
M  V30 9149 N 851.386 1.48609 -0.524698 0
M  V30 9150 C 852.333 2.29539 0.240956 0
M  V30 9151 C 853.303 1.37033 0.938681 0
M  V30 9152 O 854.488 1.65996 0.940737 0
M  V30 9153 C 851.628 3.20278 1.28514 0
M  V30 9154 C 850.741 4.27858 0.596798 0
M  V30 9155 C 849.876 5.05784 1.62346 0
M  V30 9156 C 848.915 6.05173 0.918287 0
M  V30 9157 N 848.052 6.76176 1.89025 0
M  V30 9158 H 852.892 2.945 -0.455368 0
M  V30 9159 H 850.429 1.45188 -0.236403 0
M  V30 9160 H 852.387 3.71281 1.90279 0
M  V30 9161 H 851.017 2.57251 1.94992 0
M  V30 9162 H 850.069 3.80162 -0.134668 0
M  V30 9163 H 851.381 4.98782 0.0428506 0
M  V30 9164 H 850.535 5.60775 2.31553 0
M  V30 9165 H 849.274 4.34687 2.2113 0
M  V30 9166 H 848.279 5.49391 0.21212 0
M  V30 9167 H 849.504 6.78265 0.336633 0
M  V30 9168 H 847.45 6.07834 2.46726 0
M  V30 9169 H 847.367 7.43157 1.3876 0
M  V30 9170 H 848.635 7.35759 2.57446 0
M  V30 9171 N 852.864 0.259585 1.55447 0
M  V30 9172 C 854.28 -0.094961 1.59317 0
M  V30 9173 C 854.48 -1.55884 1.2768 0
M  V30 9174 O 853.536 -2.30528 1.0302 0
M  V30 9175 C 854.849 0.265669 2.99524 0
M  V30 9176 C 856.397 0.211007 3.12288 0
M  V30 9177 C 856.872 0.545851 4.54736 0
M  V30 9178 N 858.363 0.496823 4.60528 0
M  V30 9179 C 859.098 0.728909 5.68748 0
M  V30 9180 N 858.594 1.02479 6.85179 0
M  V30 9181 N 860.387 0.658756 5.58226 0
M  V30 9182 H 852.538 1.2141 1.7428 0
M  V30 9183 H 854.801 0.489404 0.811904 0
M  V30 9184 H 854.507 1.28316 3.27457 0
M  V30 9185 H 854.381 -0.401089 3.75061 0
M  V30 9186 H 856.768 -0.797172 2.84129 0
M  V30 9187 H 856.849 0.911799 2.38998 0
M  V30 9188 H 856.493 1.55164 4.83618 0
M  V30 9189 H 856.423 -0.17656 5.26304 0
M  V30 9190 H 858.914 0.277376 3.76881 0
M  V30 9191 H 859.227 1.18897 7.63599 0
M  V30 9192 H 857.572 1.0624 6.86832 0
M  V30 9193 H 860.763 0.427553 4.66143 0
M  V30 9194 H 860.936 0.84302 6.42493 0
M  V30 9195 N 854.342 -1.57594 -0.0133615 0
M  V30 9196 C 855.29 -2.08682 -1.02736 0
M  V30 9197 C 856.284 -1.00391 -1.36448 0
M  V30 9198 O 857.49 -1.18868 -1.35168 0
M  V30 9199 H 853.865 -0.666158 -0.34891 0
M  V30 9200 H 855.836 -2.9289 -0.570815 0
M  V30 9201 C 854.585 -2.5945 -2.31476 0
M  V30 9202 H 853.908 -3.42401 -2.06401 0
M  V30 9203 H 855.348 -2.98888 -3.00735 0
M  V30 9204 C 853.807 -1.50266 -3.01533 0
M  V30 9205 O 854.337 -0.877875 -3.9199 0
M  V30 9206 N 852.543 -1.23336 -2.63129 0
M  V30 9207 H 852.09 -1.74327 -1.89652 0
M  V30 9208 H 852.048 -0.504987 -3.10318 0
M  V30 9209 N 855.82 0.285905 -1.54985 0
M  V30 9210 C 856.75 1.35752 -1.89983 0
M  V30 9211 C 857.731 1.52163 -0.760295 0
M  V30 9212 O 858.916 1.65421 -1.01733 0
M  V30 9213 C 856.046 2.71925 -2.16042 0
M  V30 9214 C 855 2.70261 -3.31878 0
M  V30 9215 C 854.326 4.09864 -3.43388 0
M  V30 9216 C 855.626 2.30667 -4.68604 0
M  V30 9217 H 857.32 1.06709 -2.79738 0
M  V30 9218 H 854.866 0.511884 -1.34595 0
M  V30 9219 H 856.819 3.46992 -2.39113 0
M  V30 9220 H 855.543 3.02523 -1.23074 0
M  V30 9221 H 854.202 1.97651 -3.08755 0
M  V30 9222 H 853.85 4.37664 -2.47909 0
M  V30 9223 H 853.55 4.09648 -4.21262 0
M  V30 9224 H 855.074 4.86689 -3.68736 0
M  V30 9225 H 856.488 2.95453 -4.91305 0
M  V30 9226 H 854.885 2.41637 -5.49301 0
M  V30 9227 H 855.955 1.25793 -4.68299 0
M  V30 9228 N 857.298 1.47698 0.54982 0
M  V30 9229 C 858.523 1.58579 1.33669 0
M  V30 9230 C 858.948 0.239049 1.86575 0
M  V30 9231 O 858.306 -0.786256 1.63364 0
M  V30 9232 C 858.354 2.62029 2.47736 0
M  V30 9233 O 857.458 2.17813 3.50188 0
M  V30 9234 H 856.799 0.532447 0.396732 0
M  V30 9235 H 859.329 1.93536 0.6637 0
M  V30 9236 H 859.339 2.82682 2.94202 0
M  V30 9237 H 858.014 3.59812 2.08586 0
M  V30 9238 H 856.591 2.07291 3.09976 0
M  V30 9239 N 858.776 -0.797141 1.35954 0
M  V30 9240 C 859.686 -1.94088 1.31784 0
M  V30 9241 C 860.702 -1.72588 0.221227 0
M  V30 9242 O 861.878 -1.96256 0.452255 0
M  V30 9243 C 858.943 -3.28828 1.09878 0
M  V30 9244 C 858.004 -3.63158 2.28942 0
M  V30 9245 C 857.237 -4.91469 2.08072 0
M  V30 9246 O 857.46 -5.60616 1.05196 0
M  V30 9247 O 856.394 -5.24277 2.95664 0
M  V30 9248 H 860.22 -2.00554 2.28061 0
M  V30 9249 H 857.805 -0.936288 1.16422 0
M  V30 9250 H 859.687 -4.09473 0.995485 0
M  V30 9251 H 858.362 -3.23271 0.16659 0
M  V30 9252 H 857.269 -2.82851 2.44839 0
M  V30 9253 H 858.602 -3.7343 3.20641 0
M  V30 9254 N 860.254 -1.20106 -1.0204 0
M  V30 9255 C 861.164 -0.962051 -2.13967 0
M  V30 9256 C 862.18 0.0808053 -1.73812 0
M  V30 9257 O 863.356 -0.105774 -2.01122 0
M  V30 9258 C 860.421 -0.513108 -3.42882 0
M  V30 9259 C 859.482 -1.62636 -3.97301 0
M  V30 9260 C 858.715 -1.19875 -5.20063 0
M  V30 9261 O 858.938 -0.0658423 -5.70362 0
M  V30 9262 O 857.872 -2.00467 -5.67536 0
M  V30 9263 H 861.698 -1.8991 -2.36998 0
M  V30 9264 H 859.283 -0.984608 -1.12365 0
M  V30 9265 H 861.165 -0.271797 -4.20523 0
M  V30 9266 H 859.84 0.395402 -3.21276 0
M  V30 9267 H 858.747 -1.92192 -3.20957 0
M  V30 9268 H 860.08 -2.51174 -4.23288 0
M  V30 9269 N 861.732 1.21287 -1.00634 0
M  V30 9270 C 862.978 1.90671 -0.690822 0
M  V30 9271 C 863.311 1.77996 0.776592 0
M  V30 9272 O 862.586 1.15748 1.5631 0
M  V30 9273 C 862.869 3.42426 -1.11428 0
M  V30 9274 C 862.722 3.64086 -2.64124 0
M  V30 9275 C 864.041 4.34851 -0.677686 0
M  V30 9276 H 861.16 0.692419 -0.252439 0
M  V30 9277 H 863.802 1.42893 -1.25226 0
M  V30 9278 H 861.952 3.83249 -0.636586 0
M  V30 9279 H 863.624 3.32582 -3.19667 0
M  V30 9280 H 861.867 3.07906 -3.05576 0
M  V30 9281 H 862.538 4.7042 -2.88806 0
M  V30 9282 H 865.014 4.01619 -1.0882 0
M  V30 9283 H 863.89 5.39675 -1.00213 0
M  V30 9284 H 864.151 4.4009 0.421125 0
M  V30 9285 N 863.21 0.781244 1.36873 0
M  V30 9286 C 864.12 0.174981 2.33947 0
M  V30 9287 C 865.136 -0.668512 1.60645 0
M  V30 9288 O 866.312 -0.586213 1.9268 0
M  V30 9289 C 863.377 -0.686557 3.39834 0
M  V30 9290 C 862.438 0.174489 4.28945 0
M  V30 9291 C 861.671 -0.646024 5.29776 0
M  V30 9292 O 861.894 -1.88254 5.38439 0
M  V30 9293 O 860.828 -0.0502214 6.01879 0
M  V30 9294 H 864.654 0.977382 2.87543 0
M  V30 9295 H 862.239 0.542559 1.392 0
M  V30 9296 H 864.121 -1.1781 4.04597 0
M  V30 9297 H 862.796 -1.46699 2.8855 0
M  V30 9298 H 861.703 0.712604 3.6725 0
M  V30 9299 H 863.036 0.918232 4.83559 0
M  V30 9300 N 864.689 -1.48329 0.532571 0
M  V30 9301 C 865.637 -2.31336 -0.242133 0
M  V30 9302 C 866.631 -1.41391 -0.933006 0
M  V30 9303 O 867.837 -1.58284 -0.857096 0
M  V30 9304 H 864.212 -0.745724 -0.0969536 0
M  V30 9305 H 866.183 -2.94555 0.477504 0
M  V30 9306 C 864.932 -3.23501 -1.27446 0
M  V30 9307 H 864.255 -3.92659 -0.752261 0
M  V30 9308 H 865.695 -3.84461 -1.78789 0
M  V30 9309 C 864.154 -2.45288 -2.30944 0
M  V30 9310 O 864.684 -2.17955 -3.37429 0
M  V30 9311 N 862.89 -2.06737 -2.04226 0
M  V30 9312 H 862.437 -2.29166 -1.17647 0
M  V30 9313 H 862.395 -1.54719 -2.73696 0
M  V30 9314 N 866.167 -0.267825 -1.55308 0
M  V30 9315 C 867.395 0.354587 -2.03839 0
M  V30 9316 C 867.81 1.50007 -1.14644 0
M  V30 9317 O 867.167 1.81752 -0.165055 0
M  V30 9318 C 867.218 0.84254 -3.51544 0
M  V30 9319 O 866.939 -0.257318 -4.37344 0
M  V30 9320 C 868.44 1.53351 -4.15931 0
M  V30 9321 H 865.66 0.0818131 -0.665994 0
M  V30 9322 H 868.204 -0.397795 -2.00594 0
M  V30 9323 H 866.359 1.54503 -3.55257 0
M  V30 9324 H 866.773 0.116593 -5.2437 0
M  V30 9325 H 868.247 1.82643 -5.20908 0
M  V30 9326 H 868.724 2.4626 -3.63666 0
M  V30 9327 H 869.33 0.87506 -4.162 0
M  V30 9328 N 867.645 1.57599 0.00500368 0
M  V30 9329 C 868.894 1.89528 0.690061 0
M  V30 9330 C 869.207 0.869451 1.75214 0
M  V30 9331 O 870.413 1.07879 2.49147 0
M  V30 9332 C 868.869 3.36425 1.27852 0
M  V30 9333 C 868.477 4.47293 0.251531 0
M  V30 9334 C 870.221 3.77471 1.94206 0
M  V30 9335 C 868.128 5.85264 0.8497 0
M  V30 9336 H 867.058 0.707201 0.2615 0
M  V30 9337 H 869.709 1.83418 -0.0547209 0
M  V30 9338 H 868.091 3.37356 2.07381 0
M  V30 9339 H 869.265 4.5787 -0.518796 0
M  V30 9340 H 867.58 4.15235 -0.311281 0
M  V30 9341 H 870.177 4.77884 2.39855 0
M  V30 9342 H 870.52 3.10722 2.77051 0
M  V30 9343 H 871.053 3.78817 1.21419 0
M  V30 9344 H 867.792 6.55472 0.0601408 0
M  V30 9345 H 867.312 5.78361 1.5893 0
M  V30 9346 H 868.991 6.32762 1.34984 0
M  V30 9347 N 869.123 -0.277682 1.55134 0
M  V30 9348 C 870.348 -1.03254 1.7987 0
M  V30 9349 C 870.773 -1.79324 0.567861 0
M  V30 9350 O 870.131 -1.74764 -0.4824 0
M  V30 9351 C 870.179 -1.9705 3.02 0
M  V30 9352 O 869.283 -3.05744 2.76757 0
M  V30 9353 H 868.624 -0.295447 0.594649 0
M  V30 9354 H 871.154 -0.308013 2.02268 0
M  V30 9355 H 871.164 -2.3909 3.30606 0
M  V30 9356 H 869.839 -1.41094 3.91236 0
M  V30 9357 H 868.416 -2.68052 2.59235 0
M  V30 9358 N 870.601 -1.47988 -0.541979 0
M  V30 9359 C 871.847 -1.55623 -1.30036 0
M  V30 9360 C 872.18 -0.224254 -1.92901 0
M  V30 9361 O 871.455 0.768629 -1.78668 0
M  V30 9362 C 871.738 -2.68562 -2.39888 0
M  V30 9363 C 871.591 -4.11426 -1.81792 0
M  V30 9364 C 872.91 -2.77325 -3.41729 0
M  V30 9365 H 870.029 -0.566498 -0.471433 0
M  V30 9366 H 872.671 -1.8011 -0.604998 0
M  V30 9367 H 870.821 -2.47814 -2.992 0
M  V30 9368 H 872.493 -4.43581 -1.26624 0
M  V30 9369 H 870.736 -4.18989 -1.12386 0
M  V30 9370 H 871.407 -4.8625 -2.61276 0
M  V30 9371 H 873.883 -2.96085 -2.92357 0
M  V30 9372 H 872.759 -3.58097 -4.16002 0
M  V30 9373 H 873.02 -1.84995 -4.01534 0
M  V30 9374 N 872.079 0.78992 -1.36375 0
M  V30 9375 C 873.356 1.53584 -1.21126 0
M  V30 9376 C 873.736 2.10124 0.202785 0
M  V30 9377 O 873.084 1.93936 1.20835 0
M  V30 9378 C 873.294 2.63117 -2.29282 0
M  V30 9379 C 874.642 3.31013 -2.65924 0
M  V30 9380 O 875.666 2.734 -2.28321 0
M  V30 9381 O 874.525 4.35129 -3.30643 0
M  V30 9382 H 871.619 0.679366 -0.471583 0
M  V30 9383 H 874.165 0.828446 -1.48104 0
M  V30 9384 H 872.937 2.19329 -3.24053 0
M  V30 9385 H 872.56 3.41476 -2.03666 0
M  V30 9386 N 873.557 1.20646 1.01402 0
M  V30 9387 C 874.973 0.961866 1.27359 0
M  V30 9388 C 875.173 -0.357083 1.98311 0
M  V30 9389 O 874.229 -1.08498 2.28001 0
M  V30 9390 C 875.542 2.14627 2.10609 0
M  V30 9391 C 877.09 2.18753 2.23866 0
M  V30 9392 C 877.565 3.36686 3.10494 0
M  V30 9393 N 879.056 3.36716 3.18083 0
M  V30 9394 C 879.791 4.24615 3.85343 0
M  V30 9395 N 879.287 5.22697 4.54708 0
M  V30 9396 N 881.08 4.12449 3.81893 0
M  V30 9397 H 873.231 2.05481 0.537721 0
M  V30 9398 H 875.494 0.899292 0.299963 0
M  V30 9399 H 875.2 3.10159 1.65814 0
M  V30 9400 H 875.074 2.12935 3.11349 0
M  V30 9401 H 877.461 1.23782 2.67885 0
M  V30 9402 H 877.542 2.24492 1.22626 0
M  V30 9403 H 877.186 4.31945 2.67181 0
M  V30 9404 H 877.116 3.28185 4.11828 0
M  V30 9405 H 879.607 2.65728 2.68695 0
M  V30 9406 H 879.92 5.86087 5.03708 0
M  V30 9407 H 878.265 5.26631 4.53525 0
M  V30 9408 H 881.456 3.35091 3.26851 0
M  V30 9409 H 881.629 4.81162 4.34035 0
M  V30 9410 N 875.035 -1.20752 1.01276 0
M  V30 9411 C 876.446 -1.7175 0.732033 0
M  V30 9412 C 876.797 -1.8131 -0.749733 0
M  V30 9413 O 875.922 -1.47301 -1.58529 0
M  V30 9414 C 876.517 -3.11936 1.32217 0
M  V30 9415 C 875.076 -3.6026 1.09039 0
M  V30 9416 C 874.223 -2.37571 1.43022 0
M  V30 9417 H 877.174 -1.0582 1.1827 0
M  V30 9418 H 877.195 -3.73802 0.710771 0
M  V30 9419 H 876.707 -3.04946 2.40061 0
M  V30 9420 H 874.808 -3.72588 0.0294464 0
M  V30 9421 H 874.921 -4.45295 1.76775 0
M  V30 9422 H 873.285 -2.40128 0.849159 0
M  V30 9423 H 874.068 -2.33225 2.51915 0
M  V30 9424 N 876.513 -0.788492 -1.36457 0
M  V30 9425 C 877.759 -0.360995 -1.99561 0
M  V30 9426 C 878.092 1.06433 -1.62437 0
M  V30 9427 O 877.367 1.7352 -0.878705 0
M  V30 9428 C 877.65 -0.523735 -3.56271 0
M  V30 9429 C 877.503 -1.99268 -4.03252 0
M  V30 9430 C 878.822 0.0617908 -4.40057 0
M  V30 9431 H 875.941 -0.13264 -0.724966 0
M  V30 9432 H 878.583 -0.994659 -1.61884 0
M  V30 9433 H 876.733 0.0156979 -3.88497 0
M  V30 9434 H 878.405 -2.59311 -3.81518 0
M  V30 9435 H 876.648 -2.49561 -3.54826 0
M  V30 9436 H 877.319 -2.05752 -5.12221 0
M  V30 9437 H 879.795 -0.398674 -4.14186 0
M  V30 9438 H 878.671 -0.0821089 -5.48839 0
M  V30 9439 H 878.932 1.15381 -4.26778 0
M  V30 9440 N 877.991 1.48044 -0.54043 0
M  V30 9441 C 878.938 2.29781 0.216597 0
M  V30 9442 C 879.908 1.38021 0.924094 0
M  V30 9443 O 881.093 1.66985 0.923078 0
M  V30 9444 C 878.233 3.21623 1.2511 0
M  V30 9445 C 877.346 4.28467 0.551384 0
M  V30 9446 C 876.481 5.07477 1.56972 0
M  V30 9447 C 875.52 6.06113 0.854048 0
M  V30 9448 N 874.657 6.78143 1.81842 0
M  V30 9449 H 879.497 2.94001 -0.486578 0
M  V30 9450 H 877.034 1.44929 -0.251789 0
M  V30 9451 H 878.992 3.73279 1.8633 0
M  V30 9452 H 877.622 2.59305 1.92252 0
M  V30 9453 H 876.674 3.79997 -0.174982 0
M  V30 9454 H 877.986 4.98799 -0.0100542 0
M  V30 9455 H 877.14 5.63199 2.25592 0
M  V30 9456 H 875.879 4.37008 2.16507 0
M  V30 9457 H 874.884 5.49585 0.153838 0
M  V30 9458 H 876.109 6.78584 0.264675 0
M  V30 9459 H 874.055 6.10417 2.40265 0
M  V30 9460 H 873.972 7.44587 1.3087 0
M  V30 9461 H 875.24 7.38448 2.49628 0
M  V30 9462 N 879.47 0.276058 1.55163 0
M  V30 9463 C 880.417 -0.611006 2.22565 0
M  V30 9464 C 881.387 -1.14902 1.19945 0
M  V30 9465 O 882.572 -1.19815 1.48489 0
M  V30 9466 C 879.712 -1.78885 2.95117 0
M  V30 9467 C 878.825 -1.2846 4.12458 0
M  V30 9468 C 877.96 -2.42432 4.72652 0
M  V30 9469 C 876.999 -1.89015 5.82185 0
M  V30 9470 N 876.136 -2.96463 6.36439 0
M  V30 9471 H 880.976 -0.0295849 2.97985 0
M  V30 9472 H 878.513 -0.00283607 1.471 0
M  V30 9473 H 880.471 -2.48121 3.35398 0
M  V30 9474 H 879.101 -2.34229 2.22119 0
M  V30 9475 H 878.153 -0.485312 3.77292 0
M  V30 9476 H 879.465 -0.853358 4.91446 0
M  V30 9477 H 878.619 -3.19659 5.15658 0
M  V30 9478 H 877.358 -2.88872 3.92943 0
M  V30 9479 H 876.363 -1.10267 5.38629 0
M  V30 9480 H 877.588 -1.43509 6.63763 0
M  V30 9481 H 875.534 -3.42283 5.59623 0
M  V30 9482 H 875.451 -2.57759 7.10701 0
M  V30 9483 H 876.719 -3.73663 6.84103 0
M  V30 9484 N 880.948 -1.576 0.00335426 0
M  V30 9485 C 881.895 -2.08632 -0.986975 0
M  V30 9486 C 882.865 -0.982491 -1.33927 0
M  V30 9487 O 884.05 -1.25513 -1.43705 0
M  V30 9488 C 881.19 -2.59705 -2.27261 0
M  V30 9489 C 880.303 -3.84002 -1.97905 0
M  V30 9490 C 879.438 -4.23563 -3.20574 0
M  V30 9491 C 878.477 -5.40688 -2.8692 0
M  V30 9492 N 877.614 -5.75526 -4.02136 0
M  V30 9493 H 882.454 -2.92977 -0.544855 0
M  V30 9494 H 879.991 -1.44831 -0.257376 0
M  V30 9495 H 881.949 -2.87395 -3.02423 0
M  V30 9496 H 880.579 -1.7823 -2.69136 0
M  V30 9497 H 879.631 -3.63199 -1.13096 0
M  V30 9498 H 880.943 -4.69261 -1.69102 0
M  V30 9499 H 880.097 -4.52554 -4.04079 0
M  V30 9500 H 878.836 -3.37019 -3.52518 0
M  V30 9501 H 877.841 -5.11417 -2.01822 0
M  V30 9502 H 879.066 -6.2891 -2.5622 0
M  V30 9503 H 877.012 -4.9194 -4.33971 0
M  V30 9504 H 876.929 -6.55367 -3.76869 0
M  V30 9505 H 878.197 -6.0911 -4.8642 0
M  V30 9506 N 882.426 0.269451 -1.5528 0
M  V30 9507 C 883.373 1.33316 -1.88403 0
M  V30 9508 C 884.343 1.48909 -0.735881 0
M  V30 9509 O 885.528 1.63259 -0.987479 0
M  V30 9510 C 882.668 2.68778 -2.16454 0
M  V30 9511 C 881.781 2.61377 -3.43956 0
M  V30 9512 C 880.916 3.89042 -3.6169 0
M  V30 9513 C 879.955 3.76166 -4.82872 0
M  V30 9514 N 879.092 4.95673 -4.97245 0
M  V30 9515 H 883.932 1.04368 -2.79126 0
M  V30 9516 H 881.469 0.504147 -1.38191 0
M  V30 9517 H 883.427 3.47599 -2.30719 0
M  V30 9518 H 882.057 2.9592 -1.28961 0
M  V30 9519 H 881.109 1.74247 -3.38145 0
M  V30 9520 H 882.421 2.47764 -4.32914 0
M  V30 9521 H 881.575 4.76304 -3.75791 0
M  V30 9522 H 880.314 4.05526 -2.70924 0
M  V30 9523 H 879.319 2.87287 -4.68771 0
M  V30 9524 H 880.544 3.61198 -5.75077 0
M  V30 9525 H 878.49 5.12561 -4.09411 0
M  V30 9526 H 878.407 4.84605 -5.80254 0
M  V30 9527 H 879.675 5.84498 -5.15735 0
M  V30 9528 N 883.904 1.48273 0.534124 0
M  V30 9529 C 885.132 1.59734 1.31501 0
M  V30 9530 C 885.547 0.256047 1.87056 0
M  V30 9531 O 884.904 -0.754086 1.66192 0
M  V30 9532 C 884.955 2.64072 2.46877 0
M  V30 9533 O 884.676 3.92995 1.93613 0
M  V30 9534 C 886.177 2.85933 3.38758 0
M  V30 9535 H 883.397 0.538703 0.40005 0
M  V30 9536 H 885.941 1.9407 0.644762 0
M  V30 9537 H 884.096 2.32606 3.09795 0
M  V30 9538 H 884.51 4.50203 2.69106 0
M  V30 9539 H 885.984 3.62749 4.16073 0
M  V30 9540 H 886.461 1.94603 3.93734 0
M  V30 9541 H 887.067 3.18687 2.81636 0
M  V30 9542 N 885.382 -0.782676 1.36792 0
M  V30 9543 C 886.329 -1.89558 1.31667 0
M  V30 9544 C 887.299 -1.65076 0.184147 0
M  V30 9545 O 888.484 -1.87143 0.371753 0
M  V30 9546 C 885.624 -3.26469 1.11858 0
M  V30 9547 C 884.737 -3.62978 2.34245 0
M  V30 9548 C 883.872 -4.89041 2.07394 0
M  V30 9549 C 882.911 -5.18249 3.25706 0
M  V30 9550 N 882.048 -6.35497 2.98476 0
M  V30 9551 H 886.888 -1.93274 2.26824 0
M  V30 9552 H 884.425 -0.945057 1.12726 0
M  V30 9553 H 886.383 -4.05431 0.983968 0
M  V30 9554 H 885.013 -3.22158 0.203531 0
M  V30 9555 H 884.065 -2.79087 2.58485 0
M  V30 9556 H 885.377 -3.80507 3.22514 0
M  V30 9557 H 884.531 -5.75883 1.90901 0
M  V30 9558 H 883.27 -4.73594 1.16446 0
M  V30 9559 H 882.275 -4.29887 3.4275 0
M  V30 9560 H 883.5 -5.35611 4.1749 0
M  V30 9561 H 881.446 -6.21429 2.10146 0
M  V30 9562 H 881.363 -6.5339 3.80286 0
M  V30 9563 H 882.631 -7.25304 2.85577 0
M  V30 9564 N 886.86 -1.21182 -1.00761 0
M  V30 9565 C 888.271 -1.02652 -1.55947 0
M  V30 9566 C 888.622 0.414466 -1.91772 0
M  V30 9567 O 887.747 1.29727 -1.73204 0
M  V30 9568 C 888.342 -1.85713 -2.83366 0
M  V30 9569 C 886.901 -1.71523 -3.35048 0
M  V30 9570 C 886.048 -1.83087 -2.08265 0
M  V30 9571 H 888.999 -1.35242 -0.830379 0
M  V30 9572 H 889.02 -1.36583 -3.55141 0
M  V30 9573 H 888.532 -2.90584 -2.5726 0
M  V30 9574 H 886.633 -0.693257 -3.66094 0
M  V30 9575 H 886.746 -2.53333 -4.06644 0
M  V30 9576 H 885.11 -1.26367 -2.21141 0
M  V30 9577 H 885.893 -2.8946 -1.84575 0
M  V30 9578 N 888.338 1.20213 -1.01915 0
M  V30 9579 C 889.587 1.88968 -0.705261 0
M  V30 9580 C 889.9 1.79869 0.768531 0
M  V30 9581 O 891.106 2.43783 1.19508 0
M  V30 9582 C 889.562 3.38911 -1.21109 0
M  V30 9583 C 889.17 3.5659 -2.71197 0
M  V30 9584 C 890.914 4.13204 -0.97275 0
M  V30 9585 C 888.821 5.00372 -3.15248 0
M  V30 9586 H 887.751 0.707715 -0.260107 0
M  V30 9587 H 890.402 1.35977 -1.23217 0
M  V30 9588 H 888.784 3.9124 -0.612152 0
M  V30 9589 H 889.958 3.14635 -3.36662 0
M  V30 9590 H 888.273 2.95671 -2.93202 0
M  V30 9591 H 890.87 5.19221 -1.27726 0
M  V30 9592 H 891.213 4.16201 0.09072 0
M  V30 9593 H 891.746 3.66983 -1.5352 0
M  V30 9594 H 888.485 5.02532 -4.20882 0
M  V30 9595 H 888.005 5.43127 -2.54505 0
M  V30 9596 H 889.684 5.68969 -3.08032 0
M  V30 9597 N 889.816 0.795718 1.36037 0
M  V30 9598 C 891.065 0.367575 1.98322 0
M  V30 9599 C 891.378 -1.06823 1.63854 0
M  V30 9600 O 892.584 -1.59895 2.19421 0
M  V30 9601 C 891.04 0.606272 3.54757 0
M  V30 9602 C 890.648 2.0539 3.98144 0
M  V30 9603 C 892.392 0.242947 4.23804 0
M  V30 9604 C 890.299 2.23893 5.47381 0
M  V30 9605 H 889.229 0.133699 0.742052 0
M  V30 9606 H 891.88 0.978242 1.5525 0
M  V30 9607 H 890.262 -0.0741957 3.9593 0
M  V30 9608 H 891.436 2.77129 3.68152 0
M  V30 9609 H 889.751 2.37607 3.41953 0
M  V30 9610 H 892.348 0.359382 5.33491 0
M  V30 9611 H 892.691 -0.809661 4.08351 0
M  V30 9612 H 893.224 0.876899 3.88015 0
M  V30 9613 H 889.963 3.27559 5.6779 0
M  V30 9614 H 889.483 1.56666 5.78978 0
M  V30 9615 H 891.162 2.04914 6.13693 0
M  V30 9616 N 891.294 -1.47756 0.548274 0
M  V30 9617 C 892.541 -2.02489 0.0208955 0
M  V30 9618 C 892.869 -1.42356 -1.32533 0
M  V30 9619 O 892.124 -0.565448 -1.87353 0
M  V30 9620 C 892.423 -3.5716 -0.131069 0
M  V30 9621 C 892.089 -4.36169 1.14313 0
M  V30 9622 C 890.751 -4.57476 1.4923 0
M  V30 9623 C 893.103 -4.81801 1.9879 0
M  V30 9624 C 890.431 -5.21662 2.68487 0
M  V30 9625 C 892.783 -5.47303 3.17242 0
M  V30 9626 C 891.447 -5.66844 3.52483 0
M  V30 9627 H 890.717 -0.740961 0.00764621 0
M  V30 9628 H 893.364 -1.77531 0.717987 0
M  V30 9629 H 891.669 -3.8106 -0.911063 0
M  V30 9630 H 893.366 -3.9715 -0.55433 0
M  V30 9631 H 889.956 -4.19858 0.861235 0
M  V30 9632 H 894.14 -4.65126 1.73123 0
M  V30 9633 H 889.396 -5.34987 2.95971 0
M  V30 9634 H 893.57 -5.81626 3.82994 0
M  V30 9635 H 891.197 -6.16352 4.44988 0
M  V30 9636 N 892.772 -0.284283 -1.55015 0
M  V30 9637 C 894.018 0.330352 -2.00091 0
M  V30 9638 C 894.351 1.54814 -1.17244 0
M  V30 9639 O 893.626 1.92954 -0.244753 0
M  V30 9640 C 893.909 0.703492 -3.53161 0
M  V30 9641 C 893.762 -0.522275 -4.46758 0
M  V30 9642 C 895.081 1.53645 -4.12409 0
M  V30 9643 H 892.2 0.118599 -0.727395 0
M  V30 9644 H 894.842 -0.393054 -1.8589 0
M  V30 9645 H 892.992 1.31983 -3.65394 0
M  V30 9646 H 894.664 -1.16082 -4.46456 0
M  V30 9647 H 892.907 -1.15865 -4.1804 0
M  V30 9648 H 893.578 -0.217295 -5.51572 0
M  V30 9649 H 896.054 1.01583 -4.0351 0
M  V30 9650 H 894.93 1.76633 -5.19704 0
M  V30 9651 H 895.191 2.5204 -3.63219 0
M  V30 9652 N 894.251 1.57596 -0.0117121 0
M  V30 9653 C 895.476 1.95764 0.684938 0
M  V30 9654 C 895.901 0.887285 1.65858 0
M  V30 9655 O 895.259 -0.153508 1.80649 0
M  V30 9656 C 895.307 3.33031 1.38285 0
M  V30 9657 O 894.411 3.28163 2.49765 0
M  V30 9658 H 893.752 0.638767 0.181309 0
M  V30 9659 H 896.282 2.04486 -0.0683883 0
M  V30 9660 H 896.292 3.68866 1.74362 0
M  V30 9661 H 894.967 4.10483 0.669043 0
M  V30 9662 H 893.544 3.04021 2.15929 0
M  V30 9663 N 895.729 -0.261212 1.5542 0
M  V30 9664 C 897.006 -1.01321 1.67312 0
M  V30 9665 C 897.386 -2.0388 0.547356 0
M  V30 9666 O 896.734 -2.24003 -0.451083 0
M  V30 9667 C 896.944 -1.65943 3.07024 0
M  V30 9668 C 898.292 -2.16666 3.65159 0
M  V30 9669 O 899.316 -1.75909 3.09733 0
M  V30 9670 O 898.175 -2.91455 4.62294 0
M  V30 9671 H 895.269 -0.470714 0.679968 0
M  V30 9672 H 897.815 -0.256133 1.67756 0
M  V30 9673 H 896.587 -0.916868 3.80407 0
M  V30 9674 H 896.21 -2.48308 3.1053 0
M  V30 9675 N 897.207 -1.48554 -0.526253 0
M  V30 9676 C 898.623 -1.34757 -0.855138 0
M  V30 9677 C 898.823 -0.36142 -1.98232 0
M  V30 9678 O 897.879 0.216026 -2.51574 0
M  V30 9679 C 899.192 -2.74877 -1.21915 0
M  V30 9680 C 900.74 -2.83393 -1.32882 0
M  V30 9681 C 901.215 -4.24223 -1.72624 0
M  V30 9682 N 902.706 -4.26913 -1.7972 0
M  V30 9683 C 903.441 -5.32824 -2.11863 0
M  V30 9684 N 902.937 -6.49008 -2.42405 0
M  V30 9685 N 904.73 -5.20221 -2.12901 0
M  V30 9686 H 896.881 -2.11284 0.217422 0
M  V30 9687 H 899.144 -0.947367 0.0346362 0
M  V30 9688 H 898.85 -3.48619 -0.464486 0
M  V30 9689 H 898.724 -3.0864 -2.16844 0
M  V30 9690 H 901.111 -2.09904 -2.07424 0
M  V30 9691 H 901.192 -2.53245 -0.360638 0
M  V30 9692 H 900.836 -4.98229 -0.986411 0
M  V30 9693 H 900.766 -4.51817 -2.70498 0
M  V30 9694 H 903.257 -3.4311 -1.58379 0
M  V30 9695 H 903.57 -7.25561 -2.66048 0
M  V30 9696 H 901.915 -6.52277 -2.39917 0
M  V30 9697 H 905.106 -4.28469 -1.885 0
M  V30 9698 H 905.279 -6.02861 -2.37619 0
M  V30 9699 N 898.685 0.775411 -1.37205 0
M  V30 9700 C 899.648 1.8702 -1.325 0
M  V30 9701 C 900.648 1.5915 -0.229793 0
M  V30 9702 O 901.838 1.673 -0.485423 0
M  V30 9703 C 898.97 3.24085 -1.05745 0
M  V30 9704 H 900.163 1.92604 -2.29878 0
M  V30 9705 H 897.716 0.97476 -1.22181 0
M  V30 9706 H 898.451 3.24178 -0.0888371 0
M  V30 9707 H 898.236 3.45705 -1.85016 0
M  V30 9708 H 899.726 4.0416 -1.05094 0
M  V30 9709 N 900.163 1.21714 1.00117 0
M  V30 9710 C 901.111 0.976937 2.11089 0
M  V30 9711 C 902.105 -0.0771295 1.69224 0
M  V30 9712 O 903.311 0.0745945 1.79845 0
M  V30 9713 H 899.686 0.298687 0.690138 0
M  V30 9714 H 901.657 1.91881 2.28526 0
M  V30 9715 C 900.406 0.562369 3.43122 0
M  V30 9716 H 899.729 1.36509 3.75773 0
M  V30 9717 H 901.169 0.433642 4.21777 0
M  V30 9718 C 899.628 -0.727148 3.28959 0
M  V30 9719 O 900.158 -1.78171 3.60025 0
M  V30 9720 N 898.364 -0.695129 2.82164 0
M  V30 9721 H 897.911 0.163346 2.57082 0
M  V30 9722 H 897.869 -1.55822 2.73069 0
M  V30 9723 N 901.641 -1.19671 1.02551 0
M  V30 9724 C 902.866 -1.93774 0.739363 0
M  V30 9725 C 903.291 -1.74787 -0.695064 0
M  V30 9726 O 902.649 -1.04796 -1.47944 0
M  V30 9727 C 902.697 -3.43684 1.09149 0
M  V30 9728 O 901.801 -4.11874 0.208213 0
M  V30 9729 H 901.142 -0.605064 0.273484 0
M  V30 9730 H 903.672 -1.51846 1.37128 0
M  V30 9731 H 903.682 -3.94339 1.04695 0
M  V30 9732 H 902.357 -3.56826 2.13654 0
M  V30 9733 H 900.934 -3.716 0.311045 0
M  V30 9734 N 903.119 -0.802921 -1.35613 0
M  V30 9735 C 904.067 -0.198783 -2.31749 0
M  V30 9736 C 905.061 0.649416 -1.56458 0
M  V30 9737 O 906.267 0.542989 -1.71615 0
M  V30 9738 H 902.642 -0.0455177 -0.750621 0
M  V30 9739 H 904.613 -1.02479 -2.80251 0
M  V30 9740 C 903.362 0.641066 -3.41739 0
M  V30 9741 H 902.685 -0.00226244 -3.998 0
M  V30 9742 H 904.125 1.03022 -4.11294 0
M  V30 9743 C 902.584 1.80505 -2.84464 0
M  V30 9744 O 903.114 2.90235 -2.77717 0
M  V30 9745 N 901.32 1.61542 -2.41563 0
M  V30 9746 H 900.867 0.722863 -2.4725 0
M  V30 9747 H 900.825 2.39581 -2.03589 0
M  V30 9748 N 904.597 1.47463 -0.556102 0
M  V30 9749 C 905.544 2.29998 0.192213 0
M  V30 9750 C 906.514 1.38993 0.909403 0
M  V30 9751 O 907.699 1.67954 0.905316 0
M  V30 9752 C 904.839 3.22932 1.21692 0
M  V30 9753 C 903.952 4.29027 0.505908 0
M  V30 9754 C 903.087 5.09114 1.51581 0
M  V30 9755 C 902.126 6.06984 0.789714 0
M  V30 9756 N 901.263 6.80033 1.74639 0
M  V30 9757 H 906.103 2.93468 -0.517734 0
M  V30 9758 H 903.64 1.44654 -0.267147 0
M  V30 9759 H 905.598 3.75234 1.8236 0
M  V30 9760 H 904.228 2.61329 1.89491 0
M  V30 9761 H 903.28 3.7979 -0.215276 0
M  V30 9762 H 904.592 4.9876 -0.062958 0
M  V30 9763 H 903.746 5.6556 2.19606 0
M  V30 9764 H 902.485 4.3928 2.11859 0
M  V30 9765 H 901.49 5.49717 0.0955382 0
M  V30 9766 H 902.715 6.78827 0.192688 0
M  V30 9767 H 900.661 6.12931 2.33777 0
M  V30 9768 H 900.578 7.45933 1.22965 0
M  V30 9769 H 901.846 7.41054 2.41782 0
M  V30 9770 N 906.075 0.2925 1.54862 0
M  V30 9771 C 906.985 -0.597036 2.26876 0
M  V30 9772 C 908.001 -1.15558 1.30086 0
M  V30 9773 O 909.177 -1.18217 1.63054 0
M  V30 9774 C 906.242 -1.75664 2.98903 0
M  V30 9775 C 905.303 -1.23303 4.11212 0
M  V30 9776 C 904.536 -2.33736 4.79795 0
M  V30 9777 O 904.759 -3.53459 4.47686 0
M  V30 9778 O 903.693 -2.00908 5.67379 0
M  V30 9779 H 907.519 -0.0131242 3.03697 0
M  V30 9780 H 905.104 0.0592642 1.49282 0
M  V30 9781 H 906.986 -2.43241 3.4411 0
M  V30 9782 H 905.661 -2.32731 2.24984 0
M  V30 9783 H 904.568 -0.523222 3.70423 0
M  V30 9784 H 905.901 -0.707887 4.87083 0
M  V30 9785 N 907.553 -1.57587 0.0200696 0
M  V30 9786 C 908.483 -2.12702 -0.963333 0
M  V30 9787 C 909.464 -1.04094 -1.34531 0
M  V30 9788 O 910.649 -1.31881 -1.42552 0
M  V30 9789 C 907.779 -2.64673 -2.24868 0
M  V30 9790 C 906.733 -3.77987 -2.00772 0
M  V30 9791 C 906.059 -4.16351 -3.35494 0
M  V30 9792 C 907.359 -5.0444 -1.35416 0
M  V30 9793 H 909.053 -2.95121 -0.504363 0
M  V30 9794 H 906.599 -1.41966 -0.24116 0
M  V30 9795 H 908.552 -3.01862 -2.94036 0
M  V30 9796 H 907.276 -1.79403 -2.72914 0
M  V30 9797 H 905.935 -3.41223 -1.34025 0
M  V30 9798 H 905.583 -3.28075 -3.81282 0
M  V30 9799 H 905.283 -4.92705 -3.20181 0
M  V30 9800 H 906.807 -4.56115 -4.05945 0
M  V30 9801 H 908.221 -5.39273 -1.94571 0
M  V30 9802 H 906.618 -5.85732 -1.30529 0
M  V30 9803 H 907.688 -4.83803 -0.325923 0
M  V30 9804 N 909.032 0.252966 -1.55557 0
M  V30 9805 C 910.28 0.979912 -1.76754 0
M  V30 9806 C 910.601 1.86083 -0.582944 0
M  V30 9807 O 909.871 1.91742 0.401497 0
M  V30 9808 H 908.451 0.364805 -0.651864 0
M  V30 9809 H 911.113 0.272372 -1.92987 0
M  V30 9810 H 910.209 1.60518 -2.67657 0
M  V30 9811 N 910.51 1.48831 0.518367 0
M  V30 9812 C 911.756 1.57672 1.27543 0
M  V30 9813 C 912.089 0.254915 1.9252 0
M  V30 9814 O 911.364 -0.740107 1.79868 0
M  V30 9815 C 911.647 2.72345 2.35585 0
M  V30 9816 C 911.5 4.14267 1.75224 0
M  V30 9817 C 912.819 2.82726 3.37274 0
M  V30 9818 H 909.938 0.573926 0.462361 0
M  V30 9819 H 912.58 1.8105 0.576267 0
M  V30 9820 H 910.73 2.52543 2.95219 0
M  V30 9821 H 912.402 4.45539 1.19551 0
M  V30 9822 H 910.645 4.20724 1.05706 0
M  V30 9823 H 911.316 4.90345 2.53507 0
M  V30 9824 H 913.792 3.00699 2.8761 0
M  V30 9825 H 912.668 3.6467 4.10252 0
M  V30 9826 H 912.929 1.9136 3.9854 0
M  V30 9827 N 911.988 -0.768124 1.37614 0
M  V30 9828 C 913.265 -1.51637 1.23554 0
M  V30 9829 C 913.645 -2.1042 -0.169331 0
M  V30 9830 O 912.993 -1.95834 -1.17735 0
M  V30 9831 C 913.203 -2.59436 2.33439 0
M  V30 9832 C 914.551 -3.2674 2.71157 0
M  V30 9833 O 915.575 -2.69733 2.32642 0
M  V30 9834 O 914.434 -4.29814 3.37524 0
M  V30 9835 H 911.528 -0.671778 0.482332 0
M  V30 9836 H 914.074 -0.804779 1.49403 0
M  V30 9837 H 912.846 -2.14146 3.27502 0
M  V30 9838 H 912.469 -3.38192 2.09073 0
M  V30 9839 N 913.466 -1.22244 -0.994698 0
M  V30 9840 C 914.398 -0.948706 -2.08644 0
M  V30 9841 C 915.411 0.0720049 -1.62641 0
M  V30 9842 O 916.6 -0.161778 -1.77765 0
M  V30 9843 C 913.7 -0.404885 -3.36473 0
M  V30 9844 C 912.873 -1.48239 -4.11514 0
M  V30 9845 C 911.932 -0.94597 -5.17627 0
M  V30 9846 O 910.958 -1.63177 -5.45309 0
M  V30 9847 N 912.16 0.23355 -5.8003 0
M  V30 9848 H 914.925 -1.88858 -2.32707 0
M  V30 9849 H 912.486 -1.12908 -1.16032 0
M  V30 9850 H 914.478 -0.0313903 -4.04688 0
M  V30 9851 H 913.048 0.440061 -3.09487 0
M  V30 9852 H 912.268 -2.02928 -3.37955 0
M  V30 9853 H 913.556 -2.20741 -4.58422 0
M  V30 9854 H 912.954 0.80756 -5.59906 0
M  V30 9855 H 911.511 0.54845 -6.49488 0
M  V30 9856 N 914.944 1.19125 -1.03184 0
M  V30 9857 C 915.854 2.26112 -0.625329 0
M  V30 9858 C 916.87 1.7056 0.344298 0
M  V30 9859 O 918.046 2.0039 0.20144 0
M  V30 9860 C 915.111 3.46697 0.0145169 0
M  V30 9861 C 914.172 4.17419 -1.00299 0
M  V30 9862 C 913.405 5.32247 -0.393581 0
M  V30 9863 O 913.628 5.64724 0.802659 0
M  V30 9864 O 912.562 5.91428 -1.1179 0
M  V30 9865 H 916.388 2.63131 -1.51643 0
M  V30 9866 H 913.973 1.26036 -0.802197 0
M  V30 9867 H 915.855 4.19762 0.371139 0
M  V30 9868 H 914.53 3.11521 0.879581 0
M  V30 9869 H 913.437 3.4646 -1.41125 0
M  V30 9870 H 914.77 4.56573 -1.83852 0
M  V30 9871 N 916.422 0.810101 1.35185 0
M  V30 9872 C 917.647 0.40364 2.03434 0
M  V30 9873 C 918.072 -0.97857 1.60641 0
M  V30 9874 O 917.43 -1.63435 0.784779 0
M  V30 9875 C 917.478 0.499154 3.57129 0
M  V30 9876 O 916.582 -0.486039 4.09526 0
M  V30 9877 H 915.923 0.168049 0.642383 0
M  V30 9878 H 918.453 1.09696 1.72708 0
M  V30 9879 H 918.463 0.370236 4.06317 0
M  V30 9880 H 917.138 1.50733 3.87624 0
M  V30 9881 H 915.715 -0.31707 3.7155 0
M  V30 9882 N 917.9 -1.47166 0.563914 0
M  V30 9883 C 918.81 -2.33885 -0.182977 0
M  V30 9884 C 919.826 -1.48605 -0.905132 0
M  V30 9885 O 921.002 -1.81518 -0.872527 0
M  V30 9886 C 918.067 -3.25433 -1.19558 0
M  V30 9887 C 917.128 -4.26607 -0.480129 0
M  V30 9888 C 916.361 -5.1378 -1.44449 0
M  V30 9889 O 916.584 -5.03531 -2.67979 0
M  V30 9890 O 915.518 -5.94109 -0.965321 0
M  V30 9891 H 919.344 -2.99065 0.528544 0
M  V30 9892 H 916.929 -1.45834 0.324468 0
M  V30 9893 H 918.811 -3.81964 -1.77993 0
M  V30 9894 H 917.486 -2.62873 -1.8889 0
M  V30 9895 H 916.393 -3.73817 0.145583 0
M  V30 9896 H 917.726 -4.919 0.171868 0
M  V30 9897 N 919.378 -0.300708 -1.54705 0
M  V30 9898 C 920.288 0.584996 -2.27189 0
M  V30 9899 C 921.304 1.14866 -1.30697 0
M  V30 9900 O 922.48 1.17351 -1.63679 0
M  V30 9901 C 919.545 1.74076 -2.99831 0
M  V30 9902 C 918.606 1.2112 -4.1186 0
M  V30 9903 C 917.839 2.31188 -4.81028 0
M  V30 9904 O 918.062 3.5108 -4.49554 0
M  V30 9905 O 916.996 1.97897 -5.68437 0
M  V30 9906 H 920.822 -0.00298177 -3.037 0
M  V30 9907 H 918.407 -0.0671802 -1.49249 0
M  V30 9908 H 920.289 2.41413 -3.45395 0
M  V30 9909 H 918.964 2.31535 -2.26215 0
M  V30 9910 H 917.871 0.50357 -3.70695 0
M  V30 9911 H 919.204 0.682046 -4.87452 0
M  V30 9912 N 920.856 1.57574 -0.0284266 0
M  V30 9913 C 922.104 1.91393 0.649079 0
M  V30 9914 C 922.425 0.905368 1.72708 0
M  V30 9915 O 921.695 -0.0532107 1.95828 0
M  V30 9916 H 920.275 0.70646 0.24274 0
M  V30 9917 H 922.937 1.94752 -0.076066 0
M  V30 9918 H 922.033 2.91988 1.10226 0
M  V30 9919 N 922.334 -0.244713 1.55689 0
M  V30 9920 C 923.281 -1.30301 1.905 0
M  V30 9921 C 924.251 -1.4772 0.759478 0
M  V30 9922 O 925.436 -1.61667 1.01333 0
M  V30 9923 C 922.576 -2.653 2.20703 0
M  V30 9924 C 921.689 -2.55872 3.48071 0
M  V30 9925 C 920.824 -3.83238 3.67834 0
M  V30 9926 C 919.863 -3.68436 4.88796 0
M  V30 9927 N 919 -4.877 5.05068 0
M  V30 9928 H 923.84 -0.999143 2.80751 0
M  V30 9929 H 921.377 -0.482099 1.38976 0
M  V30 9930 H 923.335 -3.43884 2.36219 0
M  V30 9931 H 921.965 -2.93831 1.33653 0
M  V30 9932 H 921.017 -1.68846 3.40874 0
M  V30 9933 H 922.329 -2.40845 4.36801 0
M  V30 9934 H 921.483 -4.70266 3.83321 0
M  V30 9935 H 920.222 -4.01165 2.77341 0
M  V30 9936 H 919.227 -2.79793 4.73282 0
M  V30 9937 H 920.452 -3.52003 5.8075 0
M  V30 9938 H 918.398 -5.05983 4.17513 0
M  V30 9939 H 918.315 -4.75312 5.8789 0
M  V30 9940 H 919.583 -5.76219 5.24969 0
M  V30 9941 N 923.813 -1.49104 -0.510467 0
M  V30 9942 C 925.061 -1.578 -1.26268 0
M  V30 9943 C 925.382 -0.262349 -1.93227 0
M  V30 9944 O 924.652 0.717624 -1.82283 0
M  V30 9945 H 923.232 -0.581387 -0.46904 0
M  V30 9946 H 925.894 -1.85678 -0.592423 0
M  V30 9947 H 924.99 -2.36919 -2.03165 0
M  V30 9948 N 925.291 0.760815 -1.38019 0
M  V30 9949 C 926.238 1.8744 -1.34666 0
M  V30 9950 C 927.208 1.64762 -0.210386 0
M  V30 9951 O 928.393 1.86528 -0.401479 0
M  V30 9952 C 925.533 3.24648 -1.17037 0
M  V30 9953 C 924.646 3.59206 -2.3999 0
M  V30 9954 C 923.781 4.8568 -2.15148 0
M  V30 9955 C 922.82 5.13002 -3.3391 0
M  V30 9956 N 921.957 6.30668 -3.08549 0
M  V30 9957 H 926.797 1.8964 -2.29871 0
M  V30 9958 H 924.334 0.927004 -1.14215 0
M  V30 9959 H 926.292 4.03814 -1.04834 0
M  V30 9960 H 924.922 3.21793 -0.254758 0
M  V30 9961 H 923.974 2.74939 -2.62893 0
M  V30 9962 H 925.286 3.75328 -3.28527 0
M  V30 9963 H 924.44 5.72773 -2.00039 0
M  V30 9964 H 923.179 4.71682 -1.23965 0
M  V30 9965 H 922.184 4.2438 -3.49545 0
M  V30 9966 H 923.409 5.28901 -4.25958 0
M  V30 9967 H 921.355 6.18008 -2.20006 0
M  V30 9968 H 921.272 6.47257 -3.90633 0
M  V30 9969 H 922.54 7.20669 -2.9708 0
M  V30 9970 N 926.769 1.22769 0.988202 0
M  V30 9971 C 927.997 1.08155 1.76381 0
M  V30 9972 C 928.412 -0.367573 1.85187 0
M  V30 9973 O 927.769 -1.25455 1.32541 0
M  V30 9974 C 927.82 1.69193 3.19462 0
M  V30 9975 O 927.541 3.08437 3.11125 0
M  V30 9976 C 929.042 1.59915 4.13451 0
M  V30 9977 H 926.262 0.378908 0.553778 0
M  V30 9978 H 928.806 1.6246 1.24206 0
M  V30 9979 H 926.961 1.18939 3.6869 0
M  V30 9980 H 927.375 3.37916 4.0114 0
M  V30 9981 H 928.849 2.07339 5.1158 0
M  V30 9982 H 929.326 0.556546 4.3566 0
M  V30 9983 H 929.932 2.09497 3.70123 0
M  V30 9984 N 928.247 -1.18576 1.03814 0
M  V30 9985 C 929.472 -1.92978 0.759873 0
M  V30 9986 C 929.897 -1.75514 -0.676486 0
M  V30 9987 O 929.255 -1.06359 -1.46824 0
M  V30 9988 C 929.303 -3.42507 1.12788 0
M  V30 9989 O 928.407 -4.1163 0.251886 0
M  V30 9990 H 927.748 -0.602129 0.279886 0
M  V30 9991 H 930.278 -1.50383 1.3873 0
M  V30 9992 H 930.288 -3.93206 1.08872 0
M  V30 9993 H 928.963 -3.5454 2.17427 0
M  V30 9994 H 927.54 -3.7125 0.350441 0
M  V30 9995 N 929.725 -0.817259 -1.34754 0
M  V30 9996 C 931.136 -0.462215 -1.80888 0
M  V30 9997 C 931.487 1.01685 -1.67794 0
M  V30 9998 O 930.612 1.79094 -1.21468 0
M  V30 9999 C 931.207 -0.832204 -3.2842 0
M  V30 10000 C 929.766 -0.52961 -3.72655 0
M  V30 10001 C 928.913 -1.05214 -2.56564 0
M  V30 10002 H 931.864 -1.00795 -1.22581 0
M  V30 10003 H 931.885 -0.133804 -3.80265 0
M  V30 10004 H 931.397 -1.90873 -3.37919 0
M  V30 10005 H 929.498 0.537743 -3.68699 0
M  V30 10006 H 929.611 -1.06971 -4.67005 0
M  V30 10007 H 927.975 -0.473949 -2.50251 0
M  V30 10008 H 928.758 -2.135 -2.68836 0
M  V30 10009 N 931.203 1.46865 -0.571711 0
M  V30 10010 C 932.48 1.95596 0.0132445 0
M  V30 10011 C 932.86 1.51438 1.47071 0
M  V30 10012 O 932.208 0.759917 2.15494 0
M  V30 10013 C 932.418 3.48689 -0.147335 0
M  V30 10014 C 933.766 4.24599 -0.00946329 0
M  V30 10015 O 934.79 3.5612 -0.0756112 0
M  V30 10016 O 933.649 5.46332 0.135361 0
M  V30 10017 H 930.743 0.825102 0.0560039 0
M  V30 10018 H 933.289 1.57199 -0.639256 0
M  V30 10019 H 932.061 3.73681 -1.16096 0
M  V30 10020 H 931.684 3.93887 0.542109 0
M  V30 10021 N 932.681 0.308908 1.54543 0
M  V30 10022 C 933.628 -0.563659 2.23811 0
M  V30 10023 C 934.598 -1.12332 1.22355 0
M  V30 10024 O 935.783 -1.16638 1.50997 0
M  V30 10025 C 932.923 -1.72585 2.98845 0
M  V30 10026 C 932.036 -1.19682 4.1509 0
M  V30 10027 C 931.171 -2.32351 4.77688 0
M  V30 10028 C 930.21 -1.76623 5.86064 0
M  V30 10029 N 929.347 -2.82896 6.42584 0
M  V30 10030 H 934.187 0.0336288 2.97981 0
M  V30 10031 H 931.724 0.0283666 1.47073 0
M  V30 10032 H 933.682 -2.40951 3.40586 0
M  V30 10033 H 932.312 -2.29464 2.27037 0
M  V30 10034 H 931.364 -0.405173 3.78236 0
M  V30 10035 H 932.676 -0.748923 4.93146 0
M  V30 10036 H 931.83 -3.0865 5.22322 0
M  V30 10037 H 930.569 -2.80472 3.98982 0
M  V30 10038 H 929.574 -0.988171 5.40847 0
M  V30 10039 H 930.799 -1.29398 6.66658 0
M  V30 10040 H 928.745 -3.30336 5.66758 0
M  V30 10041 H 928.662 -2.42626 7.16009 0
M  V30 10042 H 929.93 -3.59068 6.91875 0
M  V30 10043 N 934.159 -1.57557 0.0367827 0
M  V30 10044 C 935.091 -2.07597 -0.971395 0
M  V30 10045 C 936.104 -1.0009 -1.28397 0
M  V30 10046 O 937.293 -1.27692 -1.24728 0
M  V30 10047 C 934.393 -2.492 -2.2968 0
M  V30 10048 C 933.566 -3.79875 -2.16826 0
M  V30 10049 C 932.625 -4.07946 -3.32366 0
M  V30 10050 O 931.651 -4.78083 -3.0891 0
M  V30 10051 N 932.853 -3.58722 -4.56397 0
M  V30 10052 H 935.618 -2.94714 -0.544389 0
M  V30 10053 H 933.179 -1.61205 -0.1498 0
M  V30 10054 H 935.171 -2.65065 -3.05815 0
M  V30 10055 H 933.741 -1.67407 -2.63995 0
M  V30 10056 H 932.961 -3.73732 -1.2537 0
M  V30 10057 H 934.249 -4.65476 -2.0545 0
M  V30 10058 H 933.647 -3.01994 -4.78347 0
M  V30 10059 H 932.204 -3.79852 -5.29675 0
M  V30 10060 N 935.637 0.236453 -1.55816 0
M  V30 10061 C 936.584 1.29289 -1.91188 0
M  V30 10062 C 937.554 1.47315 -0.767301 0
M  V30 10063 O 938.739 1.61128 -1.02189 0
M  V30 10064 C 935.879 2.64126 -2.22107 0
M  V30 10065 C 934.992 2.54022 -3.49423 0
M  V30 10066 C 934.127 3.81282 -3.69861 0
M  V30 10067 C 933.166 3.65839 -4.90743 0
M  V30 10068 N 932.303 4.85014 -5.07647 0
M  V30 10069 H 937.143 0.98424 -2.81277 0
M  V30 10070 H 934.68 0.474722 -1.39229 0
M  V30 10071 H 936.638 3.42626 -2.3804 0
M  V30 10072 H 935.268 2.93118 -1.35209 0
M  V30 10073 H 934.32 1.67036 -3.41765 0
M  V30 10074 H 935.632 2.38525 -4.38072 0
M  V30 10075 H 934.786 4.68226 -3.8581 0
M  V30 10076 H 933.525 3.99688 -2.79465 0
M  V30 10077 H 932.53 2.77279 -4.74759 0
M  V30 10078 H 933.755 3.48918 -5.82609 0
M  V30 10079 H 931.701 5.03762 -4.20191 0
M  V30 10080 H 931.618 4.72188 -5.90402 0
M  V30 10081 H 932.886 5.73427 -5.28017 0
M  V30 10082 N 937.115 1.49373 0.502552 0
M  V30 10083 C 938.047 1.62045 1.62093 0
M  V30 10084 C 939.06 0.503221 1.54827 0
M  V30 10085 O 940.249 0.775208 1.60788 0
M  V30 10086 C 937.349 1.55971 3.00876 0
M  V30 10087 C 936.522 2.832 3.33341 0
M  V30 10088 C 935.581 2.702 4.51529 0
M  V30 10089 O 934.607 3.44132 4.53389 0
M  V30 10090 N 935.809 1.81642 5.5135 0
M  V30 10091 H 938.574 2.58501 1.51649 0
M  V30 10092 H 936.135 1.46442 0.690396 0
M  V30 10093 H 938.127 1.4493 3.77859 0
M  V30 10094 H 936.697 0.673795 3.05252 0
M  V30 10095 H 935.917 3.08604 2.4527 0
M  V30 10096 H 937.205 3.67551 3.51829 0
M  V30 10097 H 936.603 1.20829 5.52645 0
M  V30 10098 H 935.16 1.76524 6.27441 0
M  V30 10099 N 938.594 -0.753485 1.38421 0
M  V30 10100 C 939.819 -1.54783 1.38047 0
M  V30 10101 C 940.244 -1.8808 -0.0276371 0
M  V30 10102 O 939.602 -1.5058 -1.00973 0
M  V30 10103 C 939.65 -2.82353 2.24297 0
M  V30 10104 O 938.754 -3.77509 1.66014 0
M  V30 10105 H 938.095 -0.468151 0.470883 0
M  V30 10106 H 940.625 -0.931144 1.82184 0
M  V30 10107 H 940.635 -3.31277 2.38159 0
M  V30 10108 H 939.31 -2.57449 3.26639 0
M  V30 10109 H 937.887 -3.36212 1.61294 0
M  V30 10110 N 940.072 -1.23292 -0.981677 0
M  V30 10111 C 941.483 -1.05936 -1.53735 0
M  V30 10112 C 941.834 0.373695 -1.92608 0
M  V30 10113 O 940.959 1.26024 -1.75917 0
M  V30 10114 C 941.554 -1.91682 -2.79363 0
M  V30 10115 C 940.113 -1.78591 -3.31334 0
M  V30 10116 C 939.26 -1.87463 -2.04335 0
M  V30 10117 H 942.211 -1.36973 -0.801505 0
M  V30 10118 H 942.232 -1.44085 -3.52164 0
M  V30 10119 H 941.744 -2.95975 -2.51039 0
M  V30 10120 H 939.845 -0.770755 -3.64541 0
M  V30 10121 H 939.958 -2.61902 -4.01179 0
M  V30 10122 H 938.322 -1.3103 -2.18411 0
M  V30 10123 H 939.105 -2.9331 -1.78394 0
M  V30 10124 N 941.55 1.18024 -1.04442 0
M  V30 10125 C 942.482 2.21294 -0.596799 0
M  V30 10126 C 943.495 1.59305 0.33552 0
M  V30 10127 O 944.684 1.7803 0.129443 0
M  V30 10128 C 941.784 3.38578 0.147648 0
M  V30 10129 C 940.957 4.30143 -0.793484 0
M  V30 10130 C 940.016 5.2612 -0.0916561 0
M  V30 10131 O 939.042 5.64586 -0.72331 0
M  V30 10132 N 940.244 5.68512 1.17364 0
M  V30 10133 H 943.009 2.6032 -1.48504 0
M  V30 10134 H 940.57 1.32847 -0.925374 0
M  V30 10135 H 942.562 3.99812 0.627098 0
M  V30 10136 H 941.132 2.98212 0.937466 0
M  V30 10137 H 940.352 3.66456 -1.45272 0
M  V30 10138 H 941.64 4.88216 -1.43258 0
M  V30 10139 H 941.038 5.39322 1.70729 0
M  V30 10140 H 939.595 6.31925 1.5973 0
M  V30 10141 N 943.028 0.824394 1.34319 0
M  V30 10142 C 944.439 0.471802 1.8064 0
M  V30 10143 C 944.79 -1.00793 1.6833 0
M  V30 10144 O 943.915 -1.78447 1.22416 0
M  V30 10145 C 944.51 0.849609 3.27974 0
M  V30 10146 C 943.069 0.549365 3.72369 0
M  V30 10147 C 942.216 1.06573 2.56003 0
M  V30 10148 H 945.167 1.01443 1.22045 0
M  V30 10149 H 945.188 0.153968 3.80188 0
M  V30 10150 H 944.7 1.92663 3.36902 0
M  V30 10151 H 942.801 -0.518182 3.68979 0
M  V30 10152 H 942.914 1.09446 4.66432 0
M  V30 10153 H 941.278 0.487214 2.49997 0
M  V30 10154 H 942.061 2.14923 2.677 0
M  V30 10155 N 944.506 -1.46559 0.579492 0
M  V30 10156 C 945.438 -2.28383 -0.19337 0
M  V30 10157 C 946.451 -1.38324 -0.858511 0
M  V30 10158 O 947.64 -1.62952 -0.728615 0
M  V30 10159 C 944.74 -3.13262 -1.29306 0
M  V30 10160 C 943.913 -4.31426 -0.720459 0
M  V30 10161 C 942.972 -4.97728 -1.70744 0
M  V30 10162 O 941.998 -5.55423 -1.24476 0
M  V30 10163 N 943.2 -4.94445 -3.04146 0
M  V30 10164 H 945.965 -2.95353 0.508611 0
M  V30 10165 H 943.526 -1.56436 0.417046 0
M  V30 10166 H 945.518 -3.54483 -1.95254 0
M  V30 10167 H 944.088 -2.48388 -1.89795 0
M  V30 10168 H 943.308 -3.94028 0.116398 0
M  V30 10169 H 944.596 -5.07808 -0.31763 0
M  V30 10170 H 943.994 -4.4881 -3.44363 0
M  V30 10171 H 942.551 -5.39616 -3.65592 0
M  V30 10172 N 945.984 -0.3171 -1.54377 0
M  V30 10173 C 947.395 0.172287 -1.85903 0
M  V30 10174 C 947.746 1.52141 -1.23885 0
M  V30 10175 O 946.871 2.0949 -0.542476 0
M  V30 10176 C 947.466 0.319392 -3.37291 0
M  V30 10177 C 946.025 0.752998 -3.68791 0
M  V30 10178 C 945.172 -0.129143 -2.76999 0
M  V30 10179 H 948.123 -0.537597 -1.49317 0
M  V30 10180 H 948.144 1.15137 -3.62662 0
M  V30 10181 H 947.656 -0.662671 -3.82401 0
M  V30 10182 H 945.757 1.74504 -3.2921 0
M  V30 10183 H 945.87 0.561228 -4.75801 0
M  V30 10184 H 944.234 0.394242 -2.5163 0
M  V30 10185 H 945.017 -1.10785 -3.24933 0
M  V30 10186 N 947.462 1.57535 -0.0451378 0
M  V30 10187 C 948.71 1.92071 0.628743 0
M  V30 10188 C 949.031 0.923635 1.71738 0
M  V30 10189 O 948.301 -0.0324376 1.95873 0
M  V30 10190 H 946.881 0.708995 0.235233 0
M  V30 10191 H 949.543 1.9466 -0.0967177 0
M  V30 10192 H 948.639 2.9314 1.07123 0
M  V30 10193 N 948.94 -0.228186 1.55939 0
M  V30 10194 C 950.165 -0.974795 1.83064 0
M  V30 10195 C 950.59 -1.77426 0.624624 0
M  V30 10196 O 949.948 -1.76211 -0.426556 0
M  V30 10197 C 949.996 -1.87342 3.08116 0
M  V30 10198 O 949.1 -2.96784 2.86344 0
M  V30 10199 H 948.441 -0.276379 0.603747 0
M  V30 10200 H 950.971 -0.243507 2.03146 0
M  V30 10201 H 950.981 -2.28451 3.38045 0
M  V30 10202 H 949.656 -1.28575 3.95526 0
M  V30 10203 H 948.233 -2.59669 2.67631 0
M  V30 10204 N 950.418 -1.49637 -0.494624 0
M  V30 10205 C 951.643 -1.63431 -1.27691 0
M  V30 10206 C 952.068 -0.30813 -1.85559 0
M  V30 10207 O 951.426 0.725083 -1.66169 0
M  V30 10208 C 951.474 -2.71043 -2.3784 0
M  V30 10209 O 950.578 -2.3066 -3.41862 0
M  V30 10210 H 949.919 -0.546804 -0.376698 0
M  V30 10211 H 952.449 -1.95866 -0.591413 0
M  V30 10212 H 952.459 -2.93406 -2.83508 0
M  V30 10213 H 951.134 -3.67306 -1.95088 0
M  V30 10214 H 949.711 -2.18652 -3.02069 0
M  V30 10215 N 951.896 0.746133 -1.38819 0
M  V30 10216 C 953.173 1.49652 -1.25951 0
M  V30 10217 C 953.553 2.10663 0.135833 0
M  V30 10218 O 952.901 1.97682 1.14604 0
M  V30 10219 C 953.111 2.5569 -2.37537 0
M  V30 10220 C 954.459 3.22385 -2.76321 0
M  V30 10221 O 955.483 2.65998 -2.36904 0
M  V30 10222 O 954.342 4.2439 -3.44319 0
M  V30 10223 H 951.436 0.664019 -0.492958 0
M  V30 10224 H 953.982 0.780908 -1.50665 0
M  V30 10225 H 952.754 2.08908 -3.30867 0
M  V30 10226 H 952.377 3.34823 -2.14427 0
M  V30 10227 N 953.375 1.23811 0.975125 0
M  V30 10228 C 954.307 0.981779 2.07108 0
M  V30 10229 C 955.32 -0.0461211 1.62735 0
M  V30 10230 O 956.509 0.190039 1.77486 0
M  V30 10231 C 953.609 0.458364 3.35786 0
M  V30 10232 C 952.782 1.54767 4.09104 0
M  V30 10233 C 951.841 1.0282 5.16057 0
M  V30 10234 O 950.867 1.71831 5.42644 0
M  V30 10235 N 952.069 -0.141243 5.80328 0
M  V30 10236 H 954.834 1.92537 2.29673 0
M  V30 10237 H 952.395 1.1474 1.14221 0
M  V30 10238 H 954.387 0.0957686 4.04587 0
M  V30 10239 H 952.957 -0.390768 3.10148 0
M  V30 10240 H 952.177 2.08279 3.34684 0
M  V30 10241 H 953.465 2.28006 4.54853 0
M  V30 10242 H 952.863 -0.718382 5.6112 0
M  V30 10243 H 951.42 -0.445052 6.50279 0
M  V30 10244 N 954.853 -1.17469 1.05066 0
M  V30 10245 C 955.763 -2.25089 0.661222 0
M  V30 10246 C 956.779 -1.71086 -0.31712 0
M  V30 10247 O 957.955 -2.00685 -0.169534 0
M  V30 10248 C 955.02 -3.46676 0.0406415 0
M  V30 10249 C 954.081 -4.15771 1.06927 0
M  V30 10250 C 953.314 -5.31553 0.478208 0
M  V30 10251 O 953.537 -5.6593 -0.712714 0
M  V30 10252 O 952.471 -5.89574 1.21185 0
M  V30 10253 H 956.297 -2.60685 1.5581 0
M  V30 10254 H 953.882 -1.24744 0.822147 0
M  V30 10255 H 955.764 -4.203 -0.304312 0
M  V30 10256 H 954.439 -3.1288 -0.829909 0
M  V30 10257 H 953.346 -3.44171 1.46619 0
M  V30 10258 H 954.679 -4.53591 1.91092 0
M  V30 10259 N 956.331 -0.831506 -1.3388 0
M  V30 10260 C 957.556 -0.435954 -2.02766 0
M  V30 10261 C 957.981 0.952889 -1.62178 0
M  V30 10262 O 957.339 1.62166 -0.810681 0
M  V30 10263 C 957.387 -0.555907 -3.56289 0
M  V30 10264 O 956.491 0.420826 -4.10247 0
M  V30 10265 H 955.832 -0.178248 -0.639628 0
M  V30 10266 H 958.362 -1.1243 -1.70941 0
M  V30 10267 H 958.372 -0.434831 -4.05676 0
M  V30 10268 H 957.047 -1.56881 -3.85177 0
M  V30 10269 H 955.624 0.257919 -3.72007 0
M  V30 10270 N 957.809 1.4625 -0.587256 0
M  V30 10271 C 958.719 2.34147 0.145744 0
M  V30 10272 C 959.735 1.50026 0.881376 0
M  V30 10273 O 960.911 1.82884 0.843539 0
M  V30 10274 C 957.976 3.27294 1.14366 0
M  V30 10275 C 957.037 4.27317 0.412199 0
M  V30 10276 C 956.27 5.16013 1.36257 0
M  V30 10277 O 956.493 5.0773 2.59934 0
M  V30 10278 O 955.427 5.95569 0.870681 0
M  V30 10279 H 959.253 2.98187 -0.576055 0
M  V30 10280 H 956.838 1.45299 -0.347628 0
M  V30 10281 H 958.72 3.84747 1.71894 0
M  V30 10282 H 957.395 2.65845 1.84684 0
M  V30 10283 H 956.302 3.73538 -0.205036 0
M  V30 10284 H 957.635 4.91564 -0.250104 0
M  V30 10285 N 959.287 0.325282 1.54207 0
M  V30 10286 C 960.197 -0.548778 2.28091 0
M  V30 10287 C 961.213 -1.12772 1.32508 0
M  V30 10288 O 962.389 -1.14732 1.65525 0
M  V30 10289 C 959.454 -1.69284 3.02562 0
M  V30 10290 C 958.515 -1.14553 4.13734 0
M  V30 10291 C 957.748 -2.23506 4.84645 0
M  V30 10292 O 957.971 -3.43884 4.55082 0
M  V30 10293 O 956.905 -1.88828 5.71513 0
M  V30 10294 H 960.731 0.0512974 3.03657 0
M  V30 10295 H 958.316 0.0909159 1.49123 0
M  V30 10296 H 960.198 -2.35887 3.49192 0
M  V30 10297 H 958.873 -2.27906 2.2987 0
M  V30 10298 H 957.78 -0.444532 3.71449 0
M  V30 10299 H 959.113 -0.60441 4.88475 0
M  V30 10300 N 960.765 -1.57509 0.0534917 0
M  V30 10301 C 961.697 -2.08616 -0.949322 0
M  V30 10302 C 962.71 -1.01446 -1.27328 0
M  V30 10303 O 963.899 -1.29007 -1.23367 0
M  V30 10304 C 960.999 -2.51622 -2.27024 0
M  V30 10305 C 960.172 -3.82154 -2.12785 0
M  V30 10306 C 959.231 -4.11448 -3.2802 0
M  V30 10307 O 958.257 -4.81333 -3.03822 0
M  V30 10308 N 959.459 -3.63543 -4.52567 0
M  V30 10309 H 962.224 -2.95275 -0.5131 0
M  V30 10310 H 959.785 -1.61355 -0.132693 0
M  V30 10311 H 961.777 -2.68293 -3.02986 0
M  V30 10312 H 960.347 -1.70198 -2.62205 0
M  V30 10313 H 959.567 -3.75041 -1.21399 0
M  V30 10314 H 960.855 -4.67629 -2.00501 0
M  V30 10315 H 960.253 -3.07051 -4.75117 0
M  V30 10316 H 958.81 -3.85448 -5.25617 0
M  V30 10317 N 962.243 0.219913 -1.56058 0
M  V30 10318 C 963.175 1.29604 -1.89038 0
M  V30 10319 C 964.188 1.42964 -0.778791 0
M  V30 10320 O 965.377 1.43832 -1.0571 0
M  V30 10321 C 962.477 2.67145 -2.08534 0
M  V30 10322 C 961.65 2.75712 -3.39561 0
M  V30 10323 C 960.709 3.94279 -3.48469 0
M  V30 10324 O 959.735 3.8254 -4.21487 0
M  V30 10325 N 960.937 5.08655 -2.79732 0
M  V30 10326 H 963.702 1.01638 -2.81939 0
M  V30 10327 H 961.263 0.409945 -1.56624 0
M  V30 10328 H 963.255 3.44847 -2.11808 0
M  V30 10329 H 961.825 2.87704 -1.2225 0
M  V30 10330 H 961.045 1.84475 -3.48371 0
M  V30 10331 H 962.333 2.78407 -4.25872 0
M  V30 10332 H 961.731 5.21088 -2.2019 0
M  V30 10333 H 960.288 5.84394 -2.88665 0
M  V30 10334 N 963.721 1.49897 0.486681 0
M  V30 10335 C 964.653 1.63755 1.60365 0
M  V30 10336 C 965.666 0.519614 1.54285 0
M  V30 10337 O 966.855 0.792219 1.59957 0
M  V30 10338 C 963.955 1.59153 2.99205 0
M  V30 10339 C 963.128 2.8672 3.30319 0
M  V30 10340 C 962.187 2.74974 4.48638 0
M  V30 10341 O 961.213 3.48922 4.49714 0
M  V30 10342 N 962.415 1.87479 5.49392 0
M  V30 10343 H 965.18 2.60094 1.48899 0
M  V30 10344 H 962.741 1.47166 0.674825 0
M  V30 10345 H 964.733 1.4893 3.76301 0
M  V30 10346 H 963.303 0.706133 3.0452 0
M  V30 10347 H 962.523 3.11188 2.41983 0
M  V30 10348 H 963.811 3.71262 3.47911 0
M  V30 10349 H 963.209 1.26684 5.51333 0
M  V30 10350 H 961.766 1.83169 6.25534 0
M  V30 10351 N 965.199 -0.738761 1.39212 0
M  V30 10352 C 966.446 -1.49824 1.36231 0
M  V30 10353 C 966.774 -1.94453 -0.0429552 0
M  V30 10354 O 966.029 -1.6683 -1.02304 0
M  V30 10355 C 966.328 -2.75435 2.2775 0
M  V30 10356 C 965.994 -2.49694 3.75451 0
M  V30 10357 C 964.656 -2.42383 4.15697 0
M  V30 10358 C 967.008 -2.27587 4.68885 0
M  V30 10359 C 964.336 -2.11001 5.47444 0
M  V30 10360 C 966.688 -1.97723 6.00906 0
M  V30 10361 C 965.352 -1.88879 6.4022 0
M  V30 10362 H 964.622 -0.548247 0.498504 0
M  V30 10363 H 967.269 -0.848244 1.71689 0
M  V30 10364 H 965.574 -3.45159 1.85398 0
M  V30 10365 H 967.271 -3.33449 2.22739 0
M  V30 10366 H 963.861 -2.56261 3.43552 0
M  V30 10367 H 968.045 -2.32206 4.38628 0
M  V30 10368 H 963.301 -2.02673 5.76831 0
M  V30 10369 H 967.475 -1.79625 6.72836 0
M  V30 10370 H 965.102 -1.64327 7.42227 0
M  V30 10371 N 966.677 -1.24326 -0.968545 0
M  V30 10372 C 968.093 -1.00847 -1.23701 0
M  V30 10373 C 968.293 0.283235 -1.99499 0
M  V30 10374 O 967.349 0.999607 -2.31871 0
M  V30 10375 C 968.662 -2.22295 -2.02498 0
M  V30 10376 C 970.21 -2.26911 -2.15593 0
M  V30 10377 C 970.685 -3.47978 -2.97784 0
M  V30 10378 N 972.176 -3.48289 -3.05367 0
M  V30 10379 C 972.911 -4.38625 -3.69318 0
M  V30 10380 N 972.407 -5.39213 -4.34995 0
M  V30 10381 N 974.2 -4.26339 -3.66322 0
M  V30 10382 H 966.351 -2.07335 -0.461087 0
M  V30 10383 H 968.614 -0.909805 -0.26638 0
M  V30 10384 H 968.32 -3.161 -1.54188 0
M  V30 10385 H 968.194 -2.24344 -3.03232 0
M  V30 10386 H 970.581 -1.33639 -2.63106 0
M  V30 10387 H 970.662 -2.28888 -1.14209 0
M  V30 10388 H 970.306 -4.41564 -2.50965 0
M  V30 10389 H 970.236 -3.43244 -3.99364 0
M  V30 10390 H 972.727 -2.75517 -2.58648 0
M  V30 10391 H 973.04 -6.04378 -4.81608 0
M  V30 10392 H 971.385 -5.43101 -4.33667 0
M  V30 10393 H 974.576 -3.46991 -3.14189 0
M  V30 10394 H 974.749 -4.9694 -4.15878 0
M  V30 10395 N 968.156 1.1691 -1.05688 0
M  V30 10396 C 969.104 2.2315 -0.656262 0
M  V30 10397 C 970.098 1.66256 0.324873 0
M  V30 10398 O 971.304 1.7899 0.190397 0
M  V30 10399 H 967.679 0.726527 -0.19407 0
M  V30 10400 H 969.65 2.54233 -1.56231 0
M  V30 10401 C 968.399 3.47661 -0.0522431 0
M  V30 10402 H 967.722 3.91749 -0.798299 0
M  V30 10403 H 969.162 4.23571 0.190626 0
M  V30 10404 C 967.621 3.14709 1.20248 0
M  V30 10405 O 968.151 3.29947 2.29124 0
M  V30 10406 N 966.357 2.68892 1.10207 0
M  V30 10407 H 965.904 2.56692 0.216063 0
M  V30 10408 H 965.862 2.47218 1.94244 0
M  V30 10409 N 969.634 0.838594 1.33437 0
M  V30 10410 C 970.883 0.430484 1.97053 0
M  V30 10411 C 971.196 -1.01556 1.6717 0
M  V30 10412 O 972.402 -1.52834 2.24397 0
M  V30 10413 C 970.858 0.718828 3.52648 0
M  V30 10414 C 970.466 2.17953 3.91408 0
M  V30 10415 C 972.21 0.377654 4.22817 0
M  V30 10416 C 970.117 2.41194 5.39981 0
M  V30 10417 H 969.047 0.157239 0.737422 0
M  V30 10418 H 971.698 1.02714 1.5206 0
M  V30 10419 H 970.08 0.0518042 3.95966 0
M  V30 10420 H 971.254 2.88701 3.59149 0
M  V30 10421 H 969.569 2.48366 3.34221 0
M  V30 10422 H 972.166 0.528926 5.32077 0
M  V30 10423 H 972.509 -0.679338 4.1072 0
M  V30 10424 H 973.042 0.999899 3.85028 0
M  V30 10425 H 969.781 3.45457 5.57081 0
M  V30 10426 H 969.301 1.75007 5.73701 0
M  V30 10427 H 970.98 2.24334 6.06863 0
M  V30 10428 N 971.112 -1.45937 0.595003 0
M  V30 10429 C 972.359 -2.0232 0.0853053 0
M  V30 10430 C 972.687 -1.465 -1.27937 0
M  V30 10431 O 971.942 -0.624767 -1.85459 0
M  V30 10432 C 972.241 -3.57396 -0.0173747 0
M  V30 10433 C 971.907 -4.32311 1.28131 0
M  V30 10434 C 970.569 -4.52496 1.63708 0
M  V30 10435 C 972.921 -4.75233 2.14017 0
M  V30 10436 C 970.249 -5.12857 2.84947 0
M  V30 10437 C 972.601 -5.36933 3.34493 0
M  V30 10438 C 971.265 -5.55343 3.70338 0
M  V30 10439 H 970.535 -0.740342 0.0312154 0
M  V30 10440 H 973.182 -1.75157 0.774103 0
M  V30 10441 H 971.487 -3.83766 -0.789371 0
M  V30 10442 H 973.184 -3.98713 -0.427699 0
M  V30 10443 H 969.774 -4.16905 0.994374 0
M  V30 10444 H 973.958 -4.59383 1.87833 0
M  V30 10445 H 969.214 -5.253 3.12841 0
M  V30 10446 H 973.388 -5.69147 4.01304 0
M  V30 10447 H 971.015 -6.01883 4.64371 0
M  V30 10448 N 972.59 -0.333456 -1.54032 0
M  V30 10449 C 973.537 0.527981 -2.2468 0
M  V30 10450 C 974.507 1.10371 -1.24127 0
M  V30 10451 O 975.692 1.14221 -1.52834 0
M  V30 10452 C 972.832 1.67808 -3.01553 0
M  V30 10453 C 971.945 1.13064 -4.16942 0
M  V30 10454 C 971.08 2.24722 -4.81325 0
M  V30 10455 C 970.119 1.67277 -5.88799 0
M  V30 10456 N 969.256 2.72638 -6.47003 0
M  V30 10457 H 974.096 -0.0810308 -2.9789 0
M  V30 10458 H 971.633 -0.051761 -1.47009 0
M  V30 10459 H 973.591 2.35502 -3.44376 0
M  V30 10460 H 972.221 2.25823 -2.30659 0
M  V30 10461 H 971.273 0.344948 -3.78833 0
M  V30 10462 H 972.585 0.670373 -4.94275 0
M  V30 10463 H 971.739 3.00301 -5.27166 0
M  V30 10464 H 970.478 2.74089 -4.03394 0
M  V30 10465 H 969.483 0.902002 -5.4235 0
M  V30 10466 H 970.708 1.18775 -6.68632 0
M  V30 10467 H 968.654 3.21277 -5.71941 0
M  V30 10468 H 968.571 2.31204 -7.19778 0
M  V30 10469 H 969.839 3.48015 -6.97499 0
M  V30 10470 N 974.068 1.57479 -0.061844 0
M  V30 10471 C 975 2.09116 0.938245 0
M  V30 10472 C 976.013 1.0212 1.26788 0
M  V30 10473 O 977.202 1.2966 1.22681 0
M  V30 10474 C 974.302 2.52822 2.25686 0
M  V30 10475 C 973.475 3.83277 2.10755 0
M  V30 10476 C 972.534 4.13182 3.25833 0
M  V30 10477 O 971.56 4.82937 3.01265 0
M  V30 10478 N 972.762 3.65938 4.50633 0
M  V30 10479 H 975.527 2.95543 0.497433 0
M  V30 10480 H 973.088 1.61423 0.124134 0
M  V30 10481 H 975.08 2.69896 3.01559 0
M  V30 10482 H 973.65 1.71586 2.61299 0
M  V30 10483 H 972.87 3.7568 1.19409 0
M  V30 10484 H 974.158 4.68686 1.98018 0
M  V30 10485 H 973.556 3.09566 4.73482 0
M  V30 10486 H 972.113 3.8823 5.23565 0
M  V30 10487 N 975.546 -0.211634 1.56173 0
M  V30 10488 C 976.795 -0.932647 1.78842 0
M  V30 10489 C 977.108 -1.85103 0.63217 0
M  V30 10490 O 978.314 -2.61143 0.742746 0
M  V30 10491 C 976.77 -1.70866 3.16753 0
M  V30 10492 C 976.378 -0.835934 4.40132 0
M  V30 10493 C 978.122 -2.4203 3.48743 0
M  V30 10494 C 976.029 -1.60987 5.69067 0
M  V30 10495 H 974.959 -0.351983 0.666801 0
M  V30 10496 H 977.61 -0.186284 1.82552 0
M  V30 10497 H 975.992 -2.4983 3.07247 0
M  V30 10498 H 977.166 -0.0861298 4.60719 0
M  V30 10499 H 975.481 -0.235941 4.15731 0
M  V30 10500 H 978.078 -3.00453 4.42303 0
M  V30 10501 H 978.421 -3.15406 2.71707 0
M  V30 10502 H 978.954 -1.70048 3.59623 0
M  V30 10503 H 975.693 -0.9192 6.49023 0
M  V30 10504 H 975.213 -2.33403 5.52524 0
M  V30 10505 H 976.892 -2.16798 6.09596 0
M  V30 10506 N 977.024 -1.50153 -0.478725 0
M  V30 10507 C 977.987 -1.67916 -1.56003 0
M  V30 10508 C 978.987 -0.550111 -1.51097 0
M  V30 10509 O 980.177 -0.817001 -1.53853 0
M  V30 10510 C 977.309 -1.6973 -2.95643 0
M  V30 10511 H 978.502 -2.6438 -1.41573 0
M  V30 10512 H 976.055 -1.39519 -0.704565 0
M  V30 10513 H 976.79 -0.749306 -3.15525 0
M  V30 10514 H 976.575 -2.51745 -3.00611 0
M  V30 10515 H 978.065 -1.85453 -3.74162 0
M  V30 10516 N 978.502 0.731368 -1.39602 0
M  V30 10517 C 979.75 1.48805 -1.36753 0
M  V30 10518 C 980.071 1.94969 0.034676 0
M  V30 10519 O 979.341 1.69243 0.986591 0
M  V30 10520 H 977.921 0.55203 -0.503261 0
M  V30 10521 H 980.583 0.868013 -1.74504 0
M  V30 10522 H 979.679 2.36844 -2.03252 0
M  V30 10523 N 979.98 1.24838 0.961938 0
M  V30 10524 C 981.257 0.99939 1.68141 0
M  V30 10525 C 981.637 -0.476588 2.0565 0
M  V30 10526 O 980.985 -1.45224 1.76415 0
M  V30 10527 C 981.195 1.92797 2.90913 0
M  V30 10528 C 982.543 2.20219 3.63027 0
M  V30 10529 O 983.567 1.90496 3.00981 0
M  V30 10530 O 982.426 2.70725 4.74731 0
M  V30 10531 H 979.52 0.37842 0.735342 0
M  V30 10532 H 982.066 1.35961 1.01551 0
M  V30 10533 H 980.838 2.92492 2.59931 0
M  V30 10534 H 980.461 1.57127 3.65235 0
M  V30 10535 N 981.458 -1.16348 1.06306 0
M  V30 10536 C 982.735 -1.829 0.69331 0
M  V30 10537 C 983.115 -1.94298 -0.82531 0
M  V30 10538 O 982.463 -1.48619 -1.73565 0
M  V30 10539 C 982.673 -3.1989 1.3954 0
M  V30 10540 C 984.021 -3.95662 1.54068 0
M  V30 10541 O 985.045 -3.29408 1.35532 0
M  V30 10542 O 983.904 -5.14422 1.84479 0
M  V30 10543 H 980.998 -0.789738 0.245445 0
M  V30 10544 H 983.544 -1.23549 1.16334 0
M  V30 10545 H 982.316 -3.06629 2.43093 0
M  V30 10546 H 981.939 -3.86918 0.915453 0
M  V30 10547 N 982.937 -0.845659 -1.3299 0
M  V30 10548 C 983.87 -0.228695 -2.27051 0
M  V30 10549 C 984.848 0.62812 -1.49978 0
M  V30 10550 O 986.032 0.586897 -1.79131 0
M  V30 10551 C 983.159 0.678251 -3.31839 0
M  V30 10552 C 982.205 -0.103994 -4.26373 0
M  V30 10553 S 983.038 -1.46642 -5.1503 0
M  V30 10554 C 984.194 -0.564953 -6.23345 0
M  V30 10555 H 984.427 -1.02609 -2.79032 0
M  V30 10556 H 981.96 -0.642786 -1.40384 0
M  V30 10557 H 983.918 1.1959 -3.92694 0
M  V30 10558 H 982.579 1.44937 -2.78661 0
M  V30 10559 H 981.772 0.586406 -5.00577 0
M  V30 10560 H 981.374 -0.552927 -3.6989 0
M  V30 10561 H 983.666 0.234466 -6.77094 0
M  V30 10562 H 984.609 -1.27736 -6.96483 0
M  V30 10563 H 985.017 -0.143286 -5.64318 0
M  V30 10564 N 984.415 1.45619 -0.602734 0
M  V30 10565 C 985.325 2.34288 0.120902 0
M  V30 10566 C 986.341 1.50952 0.865414 0
M  V30 10567 O 987.517 1.83768 0.824094 0
M  V30 10568 C 984.582 3.28489 1.10888 0
M  V30 10569 C 983.643 4.2773 0.366853 0
M  V30 10570 C 982.876 5.17429 1.30776 0
M  V30 10571 O 983.099 5.10459 2.54535 0
M  V30 10572 O 982.033 5.96459 0.807464 0
M  V30 10573 H 985.859 2.97559 -0.60765 0
M  V30 10574 H 983.444 1.44922 -0.363019 0
M  V30 10575 H 985.326 3.86549 1.67803 0
M  V30 10576 H 984.001 2.67789 1.81854 0
M  V30 10577 H 982.908 3.73299 -0.244643 0
M  V30 10578 H 984.241 4.91271 -0.302226 0
M  V30 10579 N 985.893 0.34162 1.53853 0
M  V30 10580 C 987.142 -0.256475 2.00063 0
M  V30 10581 C 987.455 -1.51811 1.23341 0
M  V30 10582 O 988.661 -2.19332 1.60017 0
M  V30 10583 C 987.117 -0.507567 3.56303 0
M  V30 10584 C 986.725 0.738052 4.41879 0
M  V30 10585 C 988.469 -1.06463 4.10933 0
M  V30 10586 C 986.376 0.457865 5.89625 0
M  V30 10587 H 985.306 -0.0996143 0.747391 0
M  V30 10588 H 987.957 0.456649 1.77727 0
M  V30 10589 H 986.339 -1.28134 3.74697 0
M  V30 10590 H 987.513 1.51278 4.3526 0
M  V30 10591 H 985.828 1.21661 3.98231 0
M  V30 10592 H 988.425 -1.28918 5.18926 0
M  V30 10593 H 988.768 -2.01956 3.64032 0
M  V30 10594 H 989.301 -0.351601 3.96243 0
M  V30 10595 H 986.04 1.38247 6.40756 0
M  V30 10596 H 985.56 -0.278818 5.99152 0
M  V30 10597 H 987.239 0.0743914 6.46957 0
M  V30 10598 N 987.371 -1.57444 0.0701946 0
M  V30 10599 C 988.611 -1.95304 -0.60296 0
M  V30 10600 C 988.975 -0.949592 -1.66873 0
M  V30 10601 O 990.176 -1.2158 -2.39733 0
M  V30 10602 C 988.447 -3.37831 -1.16639 0
M  V30 10603 S 990.006 -3.97667 -1.8549 0
M  V30 10604 H 986.824 -0.683026 -0.197476 0
M  V30 10605 H 989.426 -1.94971 0.143669 0
M  V30 10606 H 988.13 -4.08648 -0.378856 0
M  V30 10607 H 987.661 -3.41704 -1.94942 0
M  V30 10608 H 989.676 -3.84441 -3.13719 0
M  V30 10609 N 988.849 0.203349 -1.56283 0
M  V30 10610 C 989.812 1.23566 -1.93039 0
M  V30 10611 C 990.812 1.38869 -0.810687 0
M  V30 10612 O 992.002 1.36822 -1.07821 0
M  V30 10613 C 989.134 2.60645 -2.1972 0
M  V30 10614 H 990.327 0.921692 -2.85385 0
M  V30 10615 H 987.88 0.44453 -1.49845 0
M  V30 10616 H 988.615 2.9711 -1.29985 0
M  V30 10617 H 988.4 2.50911 -3.01307 0
M  V30 10618 H 989.89 3.35103 -2.4919 0
M  V30 10619 N 990.327 1.50405 0.470755 0
M  V30 10620 C 991.604 1.51929 1.23195 0
M  V30 10621 C 991.984 0.264159 2.09441 0
M  V30 10622 O 991.332 -0.752395 2.15757 0
M  V30 10623 C 991.542 2.81521 2.06269 0
M  V30 10624 C 992.89 3.32195 2.64446 0
M  V30 10625 O 993.914 2.82845 2.16511 0
M  V30 10626 O 992.773 4.18221 3.51786 0
M  V30 10627 H 989.867 0.609411 0.559059 0
M  V30 10628 H 992.413 1.62695 0.482549 0
M  V30 10629 H 991.185 3.64346 1.42715 0
M  V30 10630 H 990.808 2.7376 2.88342 0
M  V30 10631 N 991.805 -0.723954 1.39988 0
M  V30 10632 C 992.715 -1.86829 1.41887 0
M  V30 10633 C 993.731 -1.71173 0.312401 0
M  V30 10634 O 994.907 -1.93583 0.555651 0
M  V30 10635 C 991.972 -3.22541 1.27154 0
M  V30 10636 C 991.033 -3.50512 2.47871 0
M  V30 10637 C 990.266 -4.79749 2.33831 0
M  V30 10638 O 990.489 -5.54251 1.34765 0
M  V30 10639 O 989.423 -5.07868 3.23039 0
M  V30 10640 H 993.249 -1.88183 2.38371 0
M  V30 10641 H 990.834 -0.873259 1.21221 0
M  V30 10642 H 992.716 -4.0362 1.21114 0
M  V30 10643 H 991.391 -3.21933 0.337715 0
M  V30 10644 H 990.298 -2.69475 2.59488 0
M  V30 10645 H 991.631 -3.55909 3.39985 0
M  V30 10646 N 993.283 -1.25346 -0.955304 0
M  V30 10647 C 994.213 -1.08152 -2.06943 0
M  V30 10648 C 995.194 0.00922598 -1.70097 0
M  V30 10649 O 996.379 -0.160181 -1.93538 0
M  V30 10650 C 993.509 -0.698745 -3.40198 0
M  V30 10651 C 992.463 -1.73965 -3.9105 0
M  V30 10652 C 991.789 -1.21158 -5.20792 0
M  V30 10653 C 993.089 -3.13829 -4.17503 0
M  V30 10654 H 994.783 -2.01345 -2.21586 0
M  V30 10655 H 992.329 -0.969459 -1.06478 0
M  V30 10656 H 994.282 -0.565394 -4.1759 0
M  V30 10657 H 993.006 0.268892 -3.25491 0
M  V30 10658 H 991.665 -1.86143 -3.15827 0
M  V30 10659 H 991.313 -0.234193 -5.02455 0
M  V30 10660 H 991.013 -1.90728 -5.55785 0
M  V30 10661 H 992.537 -1.09061 -6.00781 0
M  V30 10662 H 993.951 -3.04809 -4.85556 0
M  V30 10663 H 992.348 -3.80863 -4.63749 0
M  V30 10664 H 993.418 -3.6094 -3.23806 0
M  V30 10665 N 994.761 1.15782 -1.06922 0
M  V30 10666 C 995.708 2.2038 -0.685659 0
M  V30 10667 C 996.678 1.62972 0.320816 0
M  V30 10668 O 997.863 1.8966 0.208258 0
M  V30 10669 C 995.003 3.44995 -0.084998 0
M  V30 10670 C 994.116 4.16621 -1.14242 0
M  V30 10671 C 993.251 5.28773 -0.507226 0
M  V30 10672 C 992.29 5.92209 -1.54774 0
M  V30 10673 N 991.427 6.9584 -0.935443 0
M  V30 10674 H 996.267 2.5254 -1.58201 0
M  V30 10675 H 993.804 1.24031 -0.790864 0
M  V30 10676 H 995.762 4.16254 0.280845 0
M  V30 10677 H 994.392 3.13365 0.774725 0
M  V30 10678 H 993.444 3.43903 -1.62589 0
M  V30 10679 H 994.756 4.59884 -1.93154 0
M  V30 10680 H 993.91 6.06635 -0.0887719 0
M  V30 10681 H 992.649 4.8669 0.313704 0
M  V30 10682 H 991.654 5.13063 -1.97602 0
M  V30 10683 H 992.879 6.3637 -2.37088 0
M  V30 10684 H 990.825 6.5586 -0.135339 0
M  V30 10685 H 990.742 7.37508 -1.66186 0
M  V30 10686 H 992.01 7.77611 -0.542346 0
M  V30 10687 N 996.239 0.8527 1.3254 0
M  V30 10688 C 997.186 0.293905 2.28921 0
M  V30 10689 C 998.156 -0.598027 1.54961 0
M  V30 10690 O 999.341 -0.533355 1.83194 0
M  V30 10691 C 996.481 -0.513361 3.4126 0
M  V30 10692 C 995.594 0.404144 4.30105 0
M  V30 10693 C 994.729 -0.415564 5.29572 0
M  V30 10694 C 993.768 0.499461 6.10059 0
M  V30 10695 N 992.905 -0.282949 7.0153 0
M  V30 10696 H 997.745 1.12107 2.76109 0
M  V30 10697 H 995.282 0.564272 1.35847 0
M  V30 10698 H 997.24 -0.997008 4.05112 0
M  V30 10699 H 995.87 -1.30537 2.95229 0
M  V30 10700 H 994.922 1.00617 3.66852 0
M  V30 10701 H 996.234 1.10648 4.86373 0
M  V30 10702 H 995.388 -0.962458 5.99017 0
M  V30 10703 H 994.127 -1.15127 4.73917 0
M  V30 10704 H 993.132 1.05825 5.39519 0
M  V30 10705 H 994.357 1.23375 6.67799 0
M  V30 10706 H 992.303 -1.00179 6.48306 0
M  V30 10707 H 992.22 0.36039 7.55141 0
M  V30 10708 H 993.488 -0.811632 7.75263 0
M  V30 10709 N 997.718 -1.45297 0.610449 0
M  V30 10710 C 998.964 -2.02518 0.106917 0
M  V30 10711 C 999.297 -1.47747 -1.26034 0
M  V30 10712 O 998.572 -0.65329 -1.832 0
M  V30 10713 C 998.855 -3.6003 0.0710975 0
M  V30 10714 C 998.708 -4.25128 1.46922 0
M  V30 10715 C 1000.03 -4.35778 -0.61524 0
M  V30 10716 H 997.146 -0.735896 0.040327 0
M  V30 10717 H 999.788 -1.73117 0.782968 0
M  V30 10718 H 997.938 -3.85209 -0.504611 0
M  V30 10719 H 999.61 -4.11125 2.09223 0
M  V30 10720 H 997.853 -3.83418 2.02911 0
M  V30 10721 H 998.524 -5.34046 1.39637 0
M  V30 10722 H 1001 -4.1591 -0.125871 0
M  V30 10723 H 999.876 -5.45506 -0.609419 0
M  V30 10724 H 1000.14 -4.08859 -1.68186 0
M  V30 10725 N 999.196 -0.349774 -1.5367 0
M  V30 10726 C 1000.13 0.496338 -2.28164 0
M  V30 10727 C 1001.11 1.09737 -1.29968 0
M  V30 10728 O 1002.29 1.11759 -1.58819 0
M  V30 10729 C 999.422 1.64428 -3.0591 0
M  V30 10730 C 998.376 1.17127 -4.11661 0
M  V30 10731 C 997.702 2.40822 -4.77398 0
M  V30 10732 C 999.002 0.267293 -5.21616 0
M  V30 10733 H 1000.7 -0.125117 -2.99138 0
M  V30 10734 H 998.242 -0.0616152 -1.43868 0
M  V30 10735 H 1000.19 2.2427 -3.56765 0
M  V30 10736 H 998.919 2.29272 -2.32598 0
M  V30 10737 H 997.578 0.595634 -3.61729 0
M  V30 10738 H 997.226 3.04088 -4.00674 0
M  V30 10739 H 996.926 2.09852 -5.48849 0
M  V30 10740 H 998.45 3.01378 -5.3104 0
M  V30 10741 H 999.864 0.772734 -5.68068 0
M  V30 10742 H 998.261 0.0491991 -6.0008 0
M  V30 10743 H 999.331 -0.694892 -4.79895 0
M  V30 10744 N 1000.67 1.57404 -0.0785433 0
M  V30 10745 C 1001.62 2.14316 0.903949 0
M  V30 10746 C 1002.62 1.08176 1.30362 0
M  V30 10747 O 1003.82 1.26546 1.28008 0
M  V30 10748 H 1000.2 0.685367 0.309477 0
M  V30 10749 H 1002.17 2.95719 0.399081 0
M  V30 10750 C 1000.92 2.72504 2.15956 0
M  V30 10751 H 1000.24 3.53853 1.86087 0
M  V30 10752 H 1001.68 3.15914 2.82798 0
M  V30 10753 C 1000.14 1.6759 2.92259 0
M  V30 10754 O 1000.67 1.10492 3.86205 0
M  V30 10755 N 998.875 1.38467 2.5549 0
M  V30 10756 H 998.422 1.85088 1.79166 0
M  V30 10757 H 998.38 0.685053 3.06846 0
M  V30 10758 N 1002.15 -0.195058 1.56388 0
M  V30 10759 C 1003.38 -0.931642 1.84738 0
M  V30 10760 C 1003.79 -1.76849 0.661046 0
M  V30 10761 O 1003.15 -1.78705 -0.370241 0
M  V30 10762 C 1003.2 -1.82777 3.11889 0
M  V30 10763 O 1002.92 -1.02471 4.25948 0
M  V30 10764 C 1004.42 -2.67603 3.53417 0
M  V30 10765 H 1001.64 -0.271821 0.613477 0
M  V30 10766 H 1004.19 -0.202299 2.03497 0
M  V30 10767 H 1002.34 -2.51074 2.95027 0
M  V30 10768 H 1002.76 -1.63539 4.98353 0
M  V30 10769 H 1004.23 -3.26138 4.45352 0
M  V30 10770 H 1004.71 -3.41314 2.76408 0
M  V30 10771 H 1005.31 -2.04678 3.7281 0
M  V30 10772 N 1003.63 -1.50653 -0.462772 0
M  V30 10773 C 1004.88 -1.62297 -1.21603 0
M  V30 10774 C 1005.21 -0.326191 -1.91441 0
M  V30 10775 O 1004.48 0.67284 -1.82491 0
M  V30 10776 C 1004.77 -2.80901 -2.25315 0
M  V30 10777 C 1004.62 -4.20484 -1.59728 0
M  V30 10778 C 1005.94 -2.95049 -3.26549 0
M  V30 10779 H 1003.06 -0.590691 -0.440741 0
M  V30 10780 H 1005.7 -1.83064 -0.508675 0
M  V30 10781 H 1003.85 -2.63325 -2.85643 0
M  V30 10782 H 1005.52 -4.49669 -1.02932 0
M  V30 10783 H 1003.76 -4.24357 -0.900181 0
M  V30 10784 H 1004.44 -4.99416 -2.35133 0
M  V30 10785 H 1006.91 -3.11166 -2.76251 0
M  V30 10786 H 1005.79 -3.79645 -3.96435 0
M  V30 10787 H 1006.05 -2.06019 -3.91163 0
M  V30 10788 N 1005.11 0.71652 -1.4037 0
M  V30 10789 C 1006.35 1.47857 -1.38803 0
M  V30 10790 C 1006.69 1.94197 0.0100536 0
M  V30 10791 O 1005.96 1.68093 0.978521 0
M  V30 10792 C 1006.25 2.7053 -2.37667 0
M  V30 10793 C 1006.1 2.3009 -3.86496 0
M  V30 10794 C 1007.42 3.72684 -2.34082 0
M  V30 10795 H 1004.54 0.53632 -0.505499 0
M  V30 10796 H 1007.18 0.817824 -1.71498 0
M  V30 10797 H 1005.33 3.26906 -2.09916 0
M  V30 10798 H 1007 1.79202 -4.2507 0
M  V30 10799 H 1005.24 1.62102 -4.02375 0
M  V30 10800 H 1005.91 3.18018 -4.51186 0
M  V30 10801 H 1008.39 3.25935 -2.58661 0
M  V30 10802 H 1007.27 4.56157 -3.05306 0
M  V30 10803 H 1007.53 4.20916 -1.35213 0
M  V30 10804 N 1006.59 1.25851 0.948643 0
M  V30 10805 C 1007.53 1.06559 2.06756 0
M  V30 10806 C 1008.53 -0.00528632 1.69399 0
M  V30 10807 O 1009.73 0.150806 1.79367 0
M  V30 10808 H 1006.11 0.327689 0.676848 0
M  V30 10809 H 1008.08 2.01401 2.20182 0
M  V30 10810 C 1006.83 0.707392 3.40428 0
M  V30 10811 H 1006.15 1.52324 3.69645 0
M  V30 10812 H 1007.59 0.612142 4.19558 0
M  V30 10813 C 1006.05 -0.58697 3.31747 0
M  V30 10814 O 1006.58 -1.62741 3.67258 0
M  V30 10815 N 1004.79 -0.574828 2.84858 0
M  V30 10816 H 1004.33 0.272236 2.56157 0
M  V30 10817 H 1004.29 -1.441 2.79432 0
M  V30 10818 N 1008.06 -1.15214 1.07534 0
M  V30 10819 C 1009.01 -2.20013 0.697337 0
M  V30 10820 C 1009.98 -1.6314 -0.312168 0
M  V30 10821 O 1011.17 -1.89768 -0.198196 0
M  V30 10822 C 1008.31 -3.44945 0.103293 0
M  V30 10823 C 1007.42 -4.16009 1.1645 0
M  V30 10824 C 1006.55 -5.28496 0.535261 0
M  V30 10825 C 1005.59 -5.9138 1.57912 0
M  V30 10826 N 1004.73 -6.95335 0.972332 0
M  V30 10827 H 1009.57 -2.51698 1.59538 0
M  V30 10828 H 1007.11 -1.2361 0.797431 0
M  V30 10829 H 1009.07 -4.16397 -0.258766 0
M  V30 10830 H 1007.7 -3.13772 -0.758096 0
M  V30 10831 H 1006.75 -3.43035 1.64411 0
M  V30 10832 H 1008.06 -4.58853 1.9559 0
M  V30 10833 H 1007.21 -6.06579 0.120942 0
M  V30 10834 H 1005.95 -4.8685 -0.287889 0
M  V30 10835 H 1004.96 -5.12008 2.0032 0
M  V30 10836 H 1006.18 -6.35103 2.40459 0
M  V30 10837 H 1004.13 -6.55779 0.170119 0
M  V30 10838 H 1004.05 -7.36616 1.70095 0
M  V30 10839 H 1005.31 -7.77312 0.583577 0
M  V30 10840 N 1009.54 -0.859717 -1.32086 0
M  V30 10841 C 1010.49 -0.279715 -2.26278 0
M  V30 10842 C 1011.48 0.577348 -1.50185 0
M  V30 10843 O 1012.67 0.425903 -1.71799 0
M  V30 10844 C 1009.8 0.526622 -3.39237 0
M  V30 10845 C 1008.88 -0.343112 -4.2271 0
M  V30 10846 N 1009.27 -1.43176 -4.85113 0
M  V30 10847 C 1007.57 -0.133744 -4.45799 0
M  V30 10848 C 1008.27 -1.96725 -5.47425 0
M  V30 10849 N 1007.25 -1.26569 -5.2866 0
M  V30 10850 H 1011.05 -1.11191 -2.72055 0
M  V30 10851 H 1008.57 -0.706372 -1.46233 0
M  V30 10852 H 1010.56 0.958587 -4.0573 0
M  V30 10853 H 1009.22 1.35655 -2.95005 0
M  V30 10854 H 1010.23 -1.81469 -4.85066 0
M  V30 10855 H 1006.91 0.661064 -4.12233 0
M  V30 10856 H 1008.3 -2.88006 -6.07044 0
M  V30 10857 N 1011.02 1.44971 -0.618145 0
M  V30 10858 C 1011.97 2.30606 0.09449 0
M  V30 10859 C 1012.94 1.42725 0.849633 0
M  V30 10860 O 1014.12 1.71643 0.833266 0
M  V30 10861 C 1011.26 3.27803 1.07886 0
M  V30 10862 C 1010.38 4.30787 0.323488 0
M  V30 10863 C 1009.51 5.15085 1.29851 0
M  V30 10864 C 1008.55 6.09788 0.531561 0
M  V30 10865 N 1007.69 6.86829 1.4564 0
M  V30 10866 H 1012.53 2.91008 -0.641738 0
M  V30 10867 H 1010.06 1.43391 -0.328259 0
M  V30 10868 H 1012.02 3.82631 1.66281 0
M  V30 10869 H 1010.65 2.69131 1.78237 0
M  V30 10870 H 1009.7 3.78536 -0.376164 0
M  V30 10871 H 1011.02 4.98044 -0.274443 0
M  V30 10872 H 1010.17 5.74365 1.95421 0
M  V30 10873 H 1008.91 4.4787 1.93037 0
M  V30 10874 H 1007.91 5.49628 -0.137702 0
M  V30 10875 H 1009.14 6.79033 -0.0953993 0
M  V30 10876 H 1007.08 6.22295 2.07571 0
M  V30 10877 H 1007 7.50477 0.912167 0
M  V30 10878 H 1008.27 7.50642 2.10134 0
M  V30 10879 N 1012.5 0.357919 1.53482 0
M  V30 10880 C 1013.78 -0.290164 1.93436 0
M  V30 10881 C 1014.16 -1.67039 1.29079 0
M  V30 10882 O 1013.5 -2.24085 0.447017 0
M  V30 10883 C 1013.71 -0.348055 3.4726 0
M  V30 10884 C 1015.06 -0.59206 4.20452 0
M  V30 10885 O 1016.09 -0.429581 3.536 0
M  V30 10886 O 1014.94 -0.907855 5.38907 0
M  V30 10887 H 1012.04 -0.172312 0.80885 0
M  V30 10888 H 1014.58 0.410144 1.64669 0
M  V30 10889 H 1013.36 0.619953 3.86358 0
M  V30 10890 H 1012.98 -1.09457 3.82237 0
M  V30 10891 N 1013.98 -1.5736 0.0868897 0
M  V30 10892 C 1014.91 -2.16596 -0.872252 0
M  V30 10893 C 1015.89 -1.09706 -1.29995 0
M  V30 10894 O 1017.07 -1.37808 -1.36831 0
M  V30 10895 C 1014.2 -2.73972 -2.1344 0
M  V30 10896 C 1013.16 -3.86163 -1.8456 0
M  V30 10897 C 1012.48 -4.30206 -3.17533 0
M  V30 10898 C 1013.78 -5.0973 -1.13899 0
M  V30 10899 H 1015.48 -2.96995 -0.378738 0
M  V30 10900 H 1013.02 -1.42861 -0.18073 0
M  V30 10901 H 1014.98 -3.14062 -2.80968 0
M  V30 10902 H 1013.7 -1.90817 -2.6506 0
M  V30 10903 H 1012.36 -3.466 -1.19432 0
M  V30 10904 H 1012.01 -3.43951 -3.67024 0
M  V30 10905 H 1011.71 -5.05841 -2.98996 0
M  V30 10906 H 1013.23 -4.72922 -3.86234 0
M  V30 10907 H 1014.64 -5.4704 -1.71523 0
M  V30 10908 H 1013.04 -5.90741 -1.05569 0
M  V30 10909 H 1014.11 -4.8475 -0.120432 0
M  V30 10910 N 1015.45 0.186762 -1.56489 0
M  V30 10911 C 1016.4 1.23141 -1.95205 0
M  V30 10912 C 1017.37 1.44799 -0.81378 0
M  V30 10913 O 1018.56 1.57795 -1.07263 0
M  V30 10914 C 1015.7 2.56926 -2.30397 0
M  V30 10915 C 1014.81 2.42777 -3.57328 0
M  V30 10916 C 1013.94 3.69323 -3.81804 0
M  V30 10917 C 1012.98 3.50041 -5.02133 0
M  V30 10918 N 1012.12 4.68619 -5.2282 0
M  V30 10919 H 1016.96 0.894256 -2.84266 0
M  V30 10920 H 1014.5 0.430187 -1.40669 0
M  V30 10921 H 1016.46 3.3488 -2.4882 0
M  V30 10922 H 1015.09 2.88668 -1.44466 0
M  V30 10923 H 1014.14 1.56078 -3.46906 0
M  V30 10924 H 1015.45 2.24468 -4.45439 0
M  V30 10925 H 1014.6 4.55715 -4.00511 0
M  V30 10926 H 1013.34 3.90595 -2.92039 0
M  V30 10927 H 1012.35 2.62034 -4.8334 0
M  V30 10928 H 1013.57 3.30206 -5.93414 0
M  V30 10929 H 1011.52 4.90139 -4.36005 0
M  V30 10930 H 1011.44 4.53165 -6.05126 0
M  V30 10931 H 1012.7 5.56338 -5.45993 0
M  V30 10932 N 1016.93 1.50896 0.454776 0
M  V30 10933 C 1018.16 1.6648 1.22849 0
M  V30 10934 C 1018.58 0.354841 1.85435 0
M  V30 10935 O 1017.93 -0.664931 1.69956 0
M  V30 10936 C 1017.98 2.76787 2.32532 0
M  V30 10937 O 1017.7 4.02706 1.72509 0
M  V30 10938 C 1019.21 3.03488 3.23125 0
M  V30 10939 H 1016.43 0.559152 0.370932 0
M  V30 10940 H 1018.97 1.97215 0.540983 0
M  V30 10941 H 1017.12 2.48701 2.9703 0
M  V30 10942 H 1017.54 4.63834 2.44863 0
M  V30 10943 H 1019.01 3.84294 3.9626 0
M  V30 10944 H 1019.49 2.152 3.82865 0
M  V30 10945 H 1020.1 3.33167 2.64347 0
M  V30 10946 N 1018.41 -0.709066 1.40748 0
M  V30 10947 C 1019.36 -1.8149 1.38005 0
M  V30 10948 C 1020.34 -1.58842 0.256544 0
M  V30 10949 O 1021.54 -1.69904 0.496164 0
M  V30 10950 C 1018.67 -3.19678 1.25143 0
M  V30 10951 C 1017.75 -3.48067 2.42301 0
M  V30 10952 N 1018.14 -3.47234 3.6778 0
M  V30 10953 C 1016.44 -3.78555 2.35822 0
M  V30 10954 C 1017.14 -3.74149 4.45407 0
M  V30 10955 N 1016.12 -3.93224 3.75335 0
M  V30 10956 H 1019.92 -1.79188 2.32957 0
M  V30 10957 H 1017.43 -0.908477 1.34612 0
M  V30 10958 H 1019.43 -3.98875 1.2126 0
M  V30 10959 H 1018.09 -3.23201 0.311642 0
M  V30 10960 H 1019.1 -3.2793 4.00852 0
M  V30 10961 H 1015.78 -3.89529 1.50245 0
M  V30 10962 H 1017.17 -3.79755 5.54289 0
M  V30 10963 N 1019.89 -1.26353 -0.941956 0
M  V30 10964 C 1021.14 -1.1163 -1.68473 0
M  V30 10965 C 1021.46 0.34108 -1.91994 0
M  V30 10966 O 1020.73 1.24065 -1.51607 0
M  V30 10967 H 1019.31 -0.410113 -0.624353 0
M  V30 10968 H 1021.97 -1.58669 -1.13182 0
M  V30 10969 H 1021.07 -1.63445 -2.6588 0
M  V30 10970 N 1021.37 1.14642 -1.08144 0
M  V30 10971 C 1022.61 1.85617 -0.809484 0
M  V30 10972 C 1022.94 1.8279 0.664672 0
M  V30 10973 O 1022.2 1.25178 1.50429 0
M  V30 10974 C 1022.5 3.33953 -1.2732 0
M  V30 10975 C 1022.16 3.56969 -2.7547 0
M  V30 10976 C 1020.82 3.6296 -3.15933 0
M  V30 10977 C 1023.18 3.66014 -3.71057 0
M  V30 10978 C 1020.5 3.75515 -4.50783 0
M  V30 10979 C 1022.86 3.80094 -5.05679 0
M  V30 10980 C 1021.52 3.84333 -5.45751 0
M  V30 10981 H 1020.79 0.67922 -0.296211 0
M  V30 10982 H 1023.44 1.35433 -1.35389 0
M  V30 10983 H 1021.74 3.86399 -0.648329 0
M  V30 10984 H 1023.44 3.87291 -1.03957 0
M  V30 10985 H 1020.03 3.52953 -2.4315 0
M  V30 10986 H 1024.21 3.60679 -3.40917 0
M  V30 10987 H 1019.47 3.77057 -4.81288 0
M  V30 10988 H 1023.64 3.86035 -5.79612 0
M  V30 10989 H 1021.27 3.93814 -6.50242 0
M  V30 10990 N 1022.85 0.866709 1.31628 0
M  V30 10991 C 1024.07 0.49039 2.01004 0
M  V30 10992 C 1024.49 -0.916244 1.65077 0
M  V30 10993 O 1023.85 -1.59975 0.8783 0
M  V30 10994 C 1023.9 0.634011 3.55897 0
M  V30 10995 O 1023.62 1.98525 3.90537 0
M  V30 10996 C 1025.12 0.258277 4.42547 0
M  V30 10997 H 1022.34 0.191421 0.643117 0
M  V30 10998 H 1024.88 1.16698 1.67934 0
M  V30 10999 H 1023.04 0.00501801 3.874 0
M  V30 11000 H 1023.45 1.99067 4.85255 0
M  V30 11001 H 1024.93 0.409733 5.50477 0
M  V30 11002 H 1025.4 -0.802301 4.3181 0
M  V30 11003 H 1026.01 0.862837 4.16456 0
M  V30 11004 N 1024.32 -1.44642 0.625825 0
M  V30 11005 C 1025.25 -2.33397 -0.0692188 0
M  V30 11006 C 1026.23 -1.47898 -0.840241 0
M  V30 11007 O 1027.42 -1.7663 -0.807176 0
M  V30 11008 C 1024.55 -3.30888 -1.055 0
M  V30 11009 C 1023.5 -4.26164 -0.395968 0
M  V30 11010 C 1022.83 -5.13483 -1.49128 0
M  V30 11011 C 1024.13 -5.17663 0.694433 0
M  V30 11012 H 1025.82 -2.91763 0.671925 0
M  V30 11013 H 1023.37 -1.40294 0.324573 0
M  V30 11014 H 1025.32 -3.91861 -1.54993 0
M  V30 11015 H 1024.05 -2.7072 -1.82696 0
M  V30 11016 H 1022.71 -3.66516 0.0782691 0
M  V30 11017 H 1022.35 -4.49672 -2.25399 0
M  V30 11018 H 1022.05 -5.78038 -1.05573 0
M  V30 11019 H 1023.58 -5.77327 -1.98813 0
M  V30 11020 H 1024.99 -5.72602 0.282818 0
M  V30 11021 H 1023.39 -5.90793 1.05281 0
M  V30 11022 H 1024.46 -4.58994 1.56372 0
M  V30 11023 N 1025.8 -0.366053 -1.5329 0
M  V30 11024 C 1026.71 0.488111 -2.29466 0
M  V30 11025 C 1027.73 1.09219 -1.35452 0
M  V30 11026 O 1028.9 1.10303 -1.68509 0
M  V30 11027 C 1025.97 1.61202 -3.06944 0
M  V30 11028 C 1025.03 1.03543 -4.16626 0
M  V30 11029 C 1024.26 2.10578 -4.904 0
M  V30 11030 O 1024.49 3.31697 -4.6404 0
M  V30 11031 O 1023.42 1.73609 -5.76319 0
M  V30 11032 H 1027.25 -0.131789 -3.03414 0
M  V30 11033 H 1024.83 -0.130421 -1.4883 0
M  V30 11034 H 1026.71 2.26546 -3.55324 0
M  V30 11035 H 1025.39 2.21732 -2.35832 0
M  V30 11036 H 1024.29 0.345892 -3.72498 0
M  V30 11037 H 1025.63 0.474687 -4.89906 0
M  V30 11038 N 1027.28 1.57312 -0.0952337 0
M  V30 11039 C 1028.5 1.99119 0.580206 0
M  V30 11040 C 1028.93 0.973955 1.60922 0
M  V30 11041 O 1028.29 -0.0575338 1.81209 0
M  V30 11042 C 1028.34 3.39893 1.20438 0
M  V30 11043 O 1027.44 3.40941 2.32019 0
M  V30 11044 H 1026.78 0.64748 0.147195 0
M  V30 11045 H 1029.31 2.03836 -0.176686 0
M  V30 11046 H 1029.32 3.7759 1.54564 0
M  V30 11047 H 1028 4.13453 0.450514 0
M  V30 11048 H 1026.57 3.1504 1.9951 0
M  V30 11049 N 1028.76 -0.17846 1.56586 0
M  V30 11050 C 1030 -0.90281 1.83381 0
M  V30 11051 C 1030.36 -1.79738 0.675139 0
M  V30 11052 O 1031.56 -2.55879 0.823368 0
M  V30 11053 C 1029.83 -1.68353 3.15265 0
M  V30 11054 S 1031.39 -2.45762 3.6352 0
M  V30 11055 H 1028.21 -0.302508 0.643436 0
M  V30 11056 H 1030.81 -0.164961 1.94803 0
M  V30 11057 H 1029.52 -1.01725 3.97593 0
M  V30 11058 H 1029.05 -2.46289 3.06766 0
M  V30 11059 H 1031.06 -3.70312 3.30278 0
M  V30 11060 N 1030.24 -1.51135 -0.446768 0
M  V30 11061 C 1031.65 -1.39101 -0.782504 0
M  V30 11062 C 1031.85 -0.46599 -1.96038 0
M  V30 11063 O 1030.91 0.0823679 -2.52366 0
M  V30 11064 C 1032.22 -2.80953 -1.07173 0
M  V30 11065 C 1033.77 -2.90038 -1.17673 0
M  V30 11066 C 1034.24 -4.32777 -1.49894 0
M  V30 11067 N 1035.73 -4.3584 -1.56837 0
M  V30 11068 C 1036.47 -5.43305 -1.83322 0
M  V30 11069 N 1035.97 -6.60945 -2.07662 0
M  V30 11070 N 1037.76 -5.30775 -1.85026 0
M  V30 11071 H 1029.91 -2.09835 0.329114 0
M  V30 11072 H 1032.17 -0.944199 0.0848054 0
M  V30 11073 H 1031.88 -3.50591 -0.279037 0
M  V30 11074 H 1031.75 -3.197 -2.00179 0
M  V30 11075 H 1034.14 -2.20603 -1.96005 0
M  V30 11076 H 1034.22 -2.54801 -0.225892 0
M  V30 11077 H 1033.86 -5.02757 -0.720924 0
M  V30 11078 H 1033.79 -4.6552 -2.46168 0
M  V30 11079 H 1036.29 -3.51023 -1.39968 0
M  V30 11080 H 1036.6 -7.38643 -2.27214 0
M  V30 11081 H 1034.94 -6.64077 -2.05003 0
M  V30 11082 H 1038.13 -4.37858 -1.65523 0
M  V30 11083 H 1038.31 -6.14609 -2.05329 0
M  V30 11084 N 1031.71 0.701592 -1.41122 0
M  V30 11085 C 1032.94 1.49553 -1.43696 0
M  V30 11086 C 1033.36 1.88053 -0.0421865 0
M  V30 11087 O 1032.72 1.54223 0.953144 0
M  V30 11088 C 1032.77 2.73834 -2.34622 0
M  V30 11089 O 1031.87 3.71088 -1.7991 0
M  V30 11090 H 1031.21 0.450352 -0.487933 0
M  V30 11091 H 1033.74 0.862886 -1.85514 0
M  V30 11092 H 1033.75 3.22209 -2.5029 0
M  V30 11093 H 1032.43 2.45149 -3.35969 0
M  V30 11094 H 1031.01 3.29994 -1.73661 0
M  V30 11095 N 1033.19 1.2685 0.935242 0
M  V30 11096 C 1034.12 1.03244 2.03509 0
M  V30 11097 C 1035.1 -0.0447323 1.62538 0
M  V30 11098 O 1036.29 0.0988905 1.8824 0
M  V30 11099 C 1033.41 0.564626 3.33961 0
M  V30 11100 C 1032.46 1.63524 3.93906 0
M  V30 11101 S 1033.29 3.22577 4.27439 0
M  V30 11102 C 1034.45 2.77579 5.60982 0
M  V30 11103 H 1034.68 1.96367 2.2322 0
M  V30 11104 H 1032.21 1.10597 1.07739 0
M  V30 11105 H 1034.17 0.301388 4.09392 0
M  V30 11106 H 1032.83 -0.346419 3.12184 0
M  V30 11107 H 1032.03 1.25905 4.8802 0
M  V30 11108 H 1031.63 1.85017 3.25031 0
M  V30 11109 H 1033.92 2.22412 6.39952 0
M  V30 11110 H 1034.86 3.70408 6.03493 0
M  V30 11111 H 1035.27 2.16956 5.21143 0
M  V30 11112 N 1034.67 -1.14067 1.0875 0
M  V30 11113 C 1035.92 -1.84535 0.814235 0
M  V30 11114 C 1036.23 -1.84044 -0.662355 0
M  V30 11115 O 1037.44 -2.50336 -1.05091 0
M  V30 11116 C 1035.89 -3.31273 1.40663 0
M  V30 11117 C 1035.5 -3.40171 2.91526 0
M  V30 11118 C 1037.25 -4.0683 1.21201 0
M  V30 11119 C 1035.15 -4.81141 3.43885 0
M  V30 11120 H 1034.08 -0.691346 0.300926 0
M  V30 11121 H 1036.73 -1.28562 1.30935 0
M  V30 11122 H 1035.12 -3.87005 0.839215 0
M  V30 11123 H 1036.29 -2.94471 3.54434 0
M  V30 11124 H 1034.61 -2.78073 3.09942 0
M  V30 11125 H 1037.2 -5.10891 1.57781 0
M  V30 11126 H 1037.55 -4.16022 0.152092 0
M  V30 11127 H 1038.08 -3.57408 1.74655 0
M  V30 11128 H 1034.82 -4.77138 4.49466 0
M  V30 11129 H 1034.34 -5.27365 2.85738 0
M  V30 11130 H 1036.02 -5.50042 3.40681 0
M  V30 11131 N 1036.15 -0.873678 -1.31166 0
M  V30 11132 C 1037.11 -0.337069 -2.26708 0
M  V30 11133 C 1038.11 0.51406 -1.52362 0
M  V30 11134 O 1039.3 0.322834 -1.71182 0
M  V30 11135 C 1036.43 0.520897 -3.36897 0
M  V30 11136 H 1037.63 -1.18056 -2.75686 0
M  V30 11137 H 1035.18 -0.649577 -1.42163 0
M  V30 11138 H 1035.91 1.38543 -2.93217 0
M  V30 11139 H 1035.7 -0.0886015 -3.92 0
M  V30 11140 H 1037.19 0.888497 -4.08039 0
M  V30 11141 N 1037.63 1.44308 -0.633487 0
M  V30 11142 C 1038.56 2.33431 0.0568402 0
M  V30 11143 C 1039.54 1.48342 0.832386 0
M  V30 11144 O 1040.72 1.77056 0.797798 0
M  V30 11145 C 1037.85 3.31443 1.03743 0
M  V30 11146 C 1036.81 4.26368 0.373362 0
M  V30 11147 C 1036.13 5.14267 1.46403 0
M  V30 11148 C 1037.43 5.17287 -0.721876 0
M  V30 11149 H 1039.13 2.91402 -0.687388 0
M  V30 11150 H 1036.67 1.4012 -0.332009 0
M  V30 11151 H 1038.63 3.92677 1.52913 0
M  V30 11152 H 1037.35 2.71686 1.81258 0
M  V30 11153 H 1036.01 3.6647 -0.0977053 0
M  V30 11154 H 1035.66 4.50861 2.23011 0
M  V30 11155 H 1035.36 5.7859 1.02506 0
M  V30 11156 H 1036.88 5.78373 1.95748 0
M  V30 11157 H 1038.29 5.72444 -0.313181 0
M  V30 11158 H 1036.69 5.90226 -1.08413 0
M  V30 11159 H 1037.76 4.58159 -1.58804 0
M  V30 11160 N 1039.1 0.374177 1.53094 0
M  V30 11161 C 1040.04 -0.511995 2.22382 0
M  V30 11162 C 1041.02 -1.07617 1.2189 0
M  V30 11163 O 1042.2 -1.13068 1.50824 0
M  V30 11164 C 1039.33 -1.70724 2.92525 0
M  V30 11165 C 1038.37 -1.26972 4.07161 0
M  V30 11166 S 1039.21 -0.263835 5.3485 0
M  V30 11167 C 1040.36 -1.46521 6.08508 0
M  V30 11168 H 1040.59 0.0764311 2.97202 0
M  V30 11169 H 1038.13 0.158307 1.53586 0
M  V30 11170 H 1040.09 -2.39279 3.3355 0
M  V30 11171 H 1038.75 -2.26693 2.17414 0
M  V30 11172 H 1037.94 -2.16172 4.55286 0
M  V30 11173 H 1037.54 -0.663273 3.68072 0
M  V30 11174 H 1039.83 -2.39483 6.33762 0
M  V30 11175 H 1040.78 -1.02517 7.0064 0
M  V30 11176 H 1041.18 -1.67516 5.39072 0
M  V30 11177 N 1040.58 -1.57259 0.103575 0
M  V30 11178 C 1041.86 -1.86143 -0.600852 0
M  V30 11179 C 1042.24 -1.00198 -1.85805 0
M  V30 11180 O 1041.59 -0.0766791 -2.28371 0
M  V30 11181 C 1041.8 -3.36978 -0.908108 0
M  V30 11182 C 1043.15 -4.05228 -1.26788 0
M  V30 11183 O 1044.17 -3.41908 -0.998859 0
M  V30 11184 O 1043.03 -5.16971 -1.7721 0
M  V30 11185 H 1040.12 -0.770064 -0.301547 0
M  V30 11186 H 1042.67 -1.69147 0.136914 0
M  V30 11187 H 1041.44 -3.91296 -0.0165615 0
M  V30 11188 H 1041.06 -3.5935 -1.70156 0
M  V30 11189 N 1042.06 0.170153 -1.56679 0
M  V30 11190 C 1043.29 0.902134 -1.86197 0
M  V30 11191 C 1043.7 1.75775 -0.689098 0
M  V30 11192 O 1043.06 1.79271 0.341763 0
M  V30 11193 C 1043.11 1.77792 -3.14757 0
M  V30 11194 O 1042.83 0.956817 -4.27524 0
M  V30 11195 C 1044.33 2.61947 -3.57629 0
M  V30 11196 H 1041.55 0.262026 -0.617724 0
M  V30 11197 H 1044.1 0.169899 -2.03793 0
M  V30 11198 H 1042.25 2.46348 -2.98984 0
M  V30 11199 H 1042.67 1.5559 -5.00891 0
M  V30 11200 H 1044.14 3.19011 -4.50484 0
M  V30 11201 H 1044.62 3.36873 -2.81803 0
M  V30 11202 H 1045.22 1.98721 -3.76019 0
M  V30 11203 N 1043.54 1.5137 0.438746 0
M  V30 11204 C 1044.82 1.54508 1.19944 0
M  V30 11205 C 1045.2 0.308525 2.08833 0
M  V30 11206 O 1044.54 -0.706461 2.17305 0
M  V30 11207 C 1044.75 2.85833 2.00251 0
M  V30 11208 C 1046.1 3.37729 2.5734 0
M  V30 11209 O 1047.13 2.87374 2.10463 0
M  V30 11210 O 1045.98 4.25589 3.42836 0
M  V30 11211 H 1043.08 0.621132 0.546007 0
M  V30 11212 H 1045.62 1.63682 0.447931 0
M  V30 11213 H 1044.4 3.67291 1.34955 0
M  V30 11214 H 1044.02 2.79815 2.8247 0
M  V30 11215 N 1045.02 -0.694098 1.41492 0
M  V30 11216 C 1046.26 -1.45127 1.4065 0
M  V30 11217 C 1046.59 -1.94993 0.0170289 0
M  V30 11218 O 1045.86 -1.71799 -0.941372 0
M  V30 11219 H 1044.44 -0.538493 0.51772 0
M  V30 11220 H 1047.1 -0.821441 1.76744 0
M  V30 11221 H 1046.19 -2.31372 2.0946 0
M  V30 11222 N 1046.49 -1.27344 -0.928501 0
M  V30 11223 C 1047.72 -1.16557 -1.7155 0
M  V30 11224 C 1048.14 0.274044 -1.86093 0
M  V30 11225 O 1047.5 1.19847 -1.36038 0
M  V30 11226 C 1047.55 -1.85332 -3.09329 0
M  V30 11227 O 1046.65 -1.15074 -3.9602 0
M  V30 11228 H 1046 -0.405423 -0.525859 0
M  V30 11229 H 1048.53 -1.68399 -1.16202 0
M  V30 11230 H 1048.54 -1.92659 -3.59648 0
M  V30 11231 H 1047.21 -2.90056 -2.98061 0
M  V30 11232 H 1045.79 -1.1581 -3.54461 0
M  V30 11233 N 1047.97 1.13488 -1.09353 0
M  V30 11234 C 1049.22 1.84383 -0.827488 0
M  V30 11235 C 1049.54 1.83892 0.648745 0
M  V30 11236 O 1048.81 1.29415 1.47066 0
M  V30 11237 H 1047.39 0.682732 -0.303127 0
M  V30 11238 H 1050.05 1.37477 -1.38152 0
M  V30 11239 H 1049.15 2.88919 -1.18035 0
M  V30 11240 N 1049.45 0.880621 1.30701 0
M  V30 11241 C 1050.4 0.342397 2.28246 0
M  V30 11242 C 1051.37 -0.565023 1.56194 0
M  V30 11243 O 1052.55 -0.494377 1.84284 0
M  V30 11244 C 1049.69 -0.440859 3.42272 0
M  V30 11245 C 1048.81 0.495284 4.29151 0
M  V30 11246 C 1047.94 -0.303141 5.30334 0
M  V30 11247 C 1046.98 0.628751 6.08862 0
M  V30 11248 N 1046.12 -0.13408 7.01972 0
M  V30 11249 H 1050.96 1.17938 2.73669 0
M  V30 11250 H 1048.49 0.59296 1.34619 0
M  V30 11251 H 1050.45 -0.910854 4.07135 0
M  V30 11252 H 1049.08 -1.24245 2.97931 0
M  V30 11253 H 1048.13 1.08376 3.64635 0
M  V30 11254 H 1049.45 1.2094 4.83916 0
M  V30 11255 H 1048.6 -0.835181 6.00924 0
M  V30 11256 H 1047.34 -1.05049 4.76252 0
M  V30 11257 H 1046.34 1.17246 5.37153 0
M  V30 11258 H 1047.57 1.37512 6.65032 0
M  V30 11259 H 1045.52 -0.864046 6.50285 0
M  V30 11260 H 1045.43 0.520486 7.54206 0
M  V30 11261 H 1046.7 -0.647005 7.7681 0
M  V30 11262 N 1050.93 -1.4397 0.641131 0
M  V30 11263 C 1051.86 -2.33458 -0.04446 0
M  V30 11264 C 1052.84 -1.48781 -0.824507 0
M  V30 11265 O 1054.03 -1.77477 -0.788397 0
M  V30 11266 C 1051.16 -3.31989 -1.01984 0
M  V30 11267 C 1050.11 -4.2656 -0.350745 0
M  V30 11268 C 1049.44 -5.15036 -1.43673 0
M  V30 11269 C 1050.74 -5.16897 0.749299 0
M  V30 11270 H 1052.43 -2.91034 0.702832 0
M  V30 11271 H 1049.98 -1.39942 0.339435 0
M  V30 11272 H 1051.93 -3.93483 -1.50828 0
M  V30 11273 H 1050.65 -2.72643 -1.79815 0
M  V30 11274 H 1049.31 -3.66413 0.117139 0
M  V30 11275 H 1048.96 -4.52037 -2.20617 0
M  V30 11276 H 1048.66 -5.79125 -0.994358 0
M  V30 11277 H 1050.18 -5.79403 -1.92678 0
M  V30 11278 H 1051.6 -5.7227 0.343534 0
M  V30 11279 H 1049.99 -5.89643 1.11541 0
M  V30 11280 H 1051.06 -4.5731 1.61232 0
M  V30 11281 N 1052.41 -0.382291 -1.52893 0
M  V30 11282 C 1053.36 0.471187 -2.27778 0
M  V30 11283 C 1054.35 1.0691 -1.31402 0
M  V30 11284 O 1055.56 1.01038 -1.48967 0
M  V30 11285 H 1051.93 0.170696 -0.732371 0
M  V30 11286 H 1053.9 -0.181954 -2.97845 0
M  V30 11287 C 1052.65 1.59012 -3.09209 0
M  V30 11288 H 1051.97 1.13935 -3.83222 0
M  V30 11289 H 1053.41 2.16167 -3.64757 0
M  V30 11290 C 1051.87 2.54212 -2.21084 0
M  V30 11291 O 1052.4 3.57447 -1.83288 0
M  V30 11292 N 1050.61 2.23789 -1.85383 0
M  V30 11293 H 1050.16 1.39872 -2.16318 0
M  V30 11294 H 1050.11 2.87737 -1.26708 0
M  V30 11295 N 1053.89 1.57202 -0.111913 0
M  V30 11296 C 1054.82 2.17957 0.837683 0
M  V30 11297 C 1055.8 1.1176 1.28233 0
M  V30 11298 O 1056.98 1.39967 1.34621 0
M  V30 11299 C 1054.11 2.77333 2.09054 0
M  V30 11300 C 1053.07 3.8905 1.78393 0
M  V30 11301 C 1052.39 4.35203 3.10649 0
M  V30 11302 C 1053.69 5.11477 1.05775 0
M  V30 11303 H 1055.39 2.9756 0.331441 0
M  V30 11304 H 1052.93 1.43131 0.157979 0
M  V30 11305 H 1054.88 3.18492 2.75936 0
M  V30 11306 H 1053.61 1.95009 2.6199 0
M  V30 11307 H 1052.27 3.48456 1.13903 0
M  V30 11308 H 1051.92 3.49747 3.61506 0
M  V30 11309 H 1051.62 5.10534 2.9091 0
M  V30 11310 H 1053.14 4.79007 3.78661 0
M  V30 11311 H 1054.55 5.497 1.62798 0
M  V30 11312 H 1052.95 5.92346 0.961573 0
M  V30 11313 H 1054.02 4.84881 0.043297 0
M  V30 11314 N 1055.36 -0.161842 1.56767 0
M  V30 11315 C 1056.3 -1.22499 1.93718 0
M  V30 11316 C 1057.31 -1.39975 0.831314 0
M  V30 11317 O 1058.5 -1.3981 1.10975 0
M  V30 11318 C 1055.6 -2.59222 2.18306 0
M  V30 11319 C 1054.77 -2.6292 3.4956 0
M  V30 11320 C 1053.83 -3.81074 3.62863 0
M  V30 11321 O 1052.86 -3.66633 4.35395 0
M  V30 11322 N 1054.06 -4.97923 2.98418 0
M  V30 11323 H 1056.82 -0.911043 2.85517 0
M  V30 11324 H 1054.38 -0.351533 1.58038 0
M  V30 11325 H 1056.38 -3.36749 2.24461 0
M  V30 11326 H 1054.95 -2.82969 1.32844 0
M  V30 11327 H 1054.17 -1.71418 3.54978 0
M  V30 11328 H 1055.45 -2.62409 4.35911 0
M  V30 11329 H 1054.85 -5.12557 2.39378 0
M  V30 11330 H 1053.41 -5.73277 3.10155 0
M  V30 11331 N 1056.84 -1.516 -0.430713 0
M  V30 11332 C 1057.75 -1.76247 -1.54836 0
M  V30 11333 C 1058.77 -0.646985 -1.61524 0
M  V30 11334 O 1059.94 -0.929987 -1.78643 0
M  V30 11335 C 1057.01 -1.88833 -2.90763 0
M  V30 11336 C 1056.07 -3.12701 -2.94137 0
M  V30 11337 C 1055.3 -3.24676 -4.23581 0
M  V30 11338 O 1055.53 -2.42429 -5.16318 0
M  V30 11339 O 1054.46 -4.17697 -4.33374 0
M  V30 11340 H 1058.29 -2.71069 -1.3695 0
M  V30 11341 H 1055.87 -1.36182 -0.614396 0
M  V30 11342 H 1057.75 -1.99057 -3.71422 0
M  V30 11343 H 1056.43 -0.971987 -3.08762 0
M  V30 11344 H 1055.33 -3.0795 -2.1241 0
M  V30 11345 H 1056.67 -4.04045 -2.81084 0
M  V30 11346 N 1058.32 0.686584 -1.41858 0
M  V30 11347 C 1059.57 1.44665 -1.41698 0
M  V30 11348 C 1059.89 1.94478 -0.0292442 0
M  V30 11349 O 1059.15 1.70512 0.960421 0
M  V30 11350 C 1059.45 2.66793 -2.37816 0
M  V30 11351 C 1059.11 2.35587 -3.8446 0
M  V30 11352 C 1057.78 2.26788 -4.24406 0
M  V30 11353 C 1060.13 2.10028 -4.77009 0
M  V30 11354 C 1057.46 1.90538 -5.54898 0
M  V30 11355 C 1059.81 1.75285 -6.07831 0
M  V30 11356 C 1058.47 1.64987 -6.46789 0
M  V30 11357 H 1057.74 0.529367 -0.518509 0
M  V30 11358 H 1060.39 0.783938 -1.74719 0
M  V30 11359 H 1058.69 3.38041 -1.9808 0
M  V30 11360 H 1060.39 3.24953 -2.34961 0
M  V30 11361 H 1056.98 2.43334 -3.52826 0
M  V30 11362 H 1061.17 2.15766 -4.46944 0
M  V30 11363 H 1056.42 1.81125 -5.83955 0
M  V30 11364 H 1060.6 1.5453 -6.79039 0
M  V30 11365 H 1058.22 1.36667 -7.47814 0
M  V30 11366 N 1059.8 1.27835 0.921735 0
M  V30 11367 C 1060.75 1.07723 2.00947 0
M  V30 11368 C 1061.73 0.00336676 1.609 0
M  V30 11369 O 1062.92 0.222593 1.75595 0
M  V30 11370 C 1060.05 0.732732 3.35389 0
M  V30 11371 C 1059.14 1.84504 3.81863 0
M  V30 11372 N 1059.53 3.08551 4.00787 0
M  V30 11373 C 1057.83 1.73308 4.10951 0
M  V30 11374 C 1058.53 3.80974 4.39584 0
M  V30 11375 N 1057.5 3.08773 4.47393 0
M  V30 11376 H 1061.31 2.01854 2.13617 0
M  V30 11377 H 1058.82 1.18637 1.109 0
M  V30 11378 H 1060.82 0.56975 4.12988 0
M  V30 11379 H 1059.48 -0.200885 3.24078 0
M  V30 11380 H 1060.49 3.44248 3.86928 0
M  V30 11381 H 1057.17 0.870698 4.0832 0
M  V30 11382 H 1058.56 4.87617 4.62255 0
M  V30 11383 N 1061.28 -1.12907 1.09954 0
M  V30 11384 C 1062.23 -2.16558 0.713204 0
M  V30 11385 C 1063.21 -1.5853 -0.27515 0
M  V30 11386 O 1064.4 -1.76797 -0.0846643 0
M  V30 11387 C 1061.53 -3.43009 0.141224 0
M  V30 11388 C 1060.62 -4.08032 1.15632 0
M  V30 11389 N 1061.01 -4.48139 2.34531 0
M  V30 11390 C 1059.31 -4.34743 0.995701 0
M  V30 11391 C 1060.01 -4.98885 2.99147 0
M  V30 11392 N 1058.98 -4.9408 2.26684 0
M  V30 11393 H 1062.78 -2.45328 1.61838 0
M  V30 11394 H 1060.3 -1.29759 0.976539 0
M  V30 11395 H 1062.3 -4.16617 -0.153598 0
M  V30 11396 H 1060.96 -3.15711 -0.758729 0
M  V30 11397 H 1061.97 -4.40668 2.72089 0
M  V30 11398 H 1058.64 -4.17227 0.150888 0
M  V30 11399 H 1060.03 -5.3967 4.00257 0
M  V30 11400 N 1062.75 -0.88754 -1.30232 0
M  V30 11401 C 1063.68 -0.372481 -2.3051 0
M  V30 11402 C 1064.66 0.546037 -1.61098 0
M  V30 11403 O 1065.85 0.459345 -1.88689 0
M  V30 11404 C 1062.98 0.411605 -3.44852 0
M  V30 11405 C 1061.93 -0.415383 -4.2598 0
M  V30 11406 C 1061.26 0.495463 -5.324 0
M  V30 11407 C 1062.56 -1.65886 -4.95257 0
M  V30 11408 H 1064.25 -1.21045 -2.7384 0
M  V30 11409 H 1061.8 -0.583498 -1.31648 0
M  V30 11410 H 1063.75 0.782584 -4.1407 0
M  V30 11411 H 1062.48 1.28325 -3.00334 0
M  V30 11412 H 1061.14 -0.768534 -3.58454 0
M  V30 11413 H 1060.78 1.36489 -4.84128 0
M  V30 11414 H 1060.48 -0.0540885 -5.87575 0
M  V30 11415 H 1062.01 0.862901 -6.04472 0
M  V30 11416 H 1063.42 -1.35832 -5.56976 0
M  V30 11417 H 1061.82 -2.14881 -5.60309 0
M  V30 11418 H 1062.89 -2.40181 -4.21237 0
M  V30 11419 N 1064.23 1.43628 -0.648757 0
M  V30 11420 C 1065.48 2.02695 -0.169158 0
M  V30 11421 C 1065.83 1.50239 1.20191 0
M  V30 11422 O 1065.13 0.684018 1.78974 0
M  V30 11423 C 1065.32 3.57214 -0.115282 0
M  V30 11424 C 1065.15 4.24663 -1.47959 0
M  V30 11425 C 1063.92 4.60917 -2.07084 0
M  V30 11426 C 1066.12 4.53962 -2.41708 0
M  V30 11427 N 1064.1 5.13416 -3.36566 0
M  V30 11428 C 1065.47 5.07733 -3.55819 0
M  V30 11429 C 1067.53 4.35927 -2.40566 0
M  V30 11430 C 1066.23 5.45367 -4.69007 0
M  V30 11431 C 1068.25 4.7462 -3.52831 0
M  V30 11432 C 1067.62 5.2852 -4.65667 0
M  V30 11433 H 1063.72 0.774751 -0.106227 0
M  V30 11434 H 1066.3 1.74869 -0.85609 0
M  V30 11435 H 1064.47 3.84614 0.54098 0
M  V30 11436 H 1066.2 4.02961 0.374775 0
M  V30 11437 H 1062.96 4.45812 -1.59841 0
M  V30 11438 H 1063.38 5.44124 -4.02813 0
M  V30 11439 H 1068.02 3.93533 -1.54569 0
M  V30 11440 H 1065.74 5.86707 -5.55698 0
M  V30 11441 H 1069.33 4.62364 -3.53144 0
M  V30 11442 H 1068.21 5.57906 -5.511 0
M  V30 11443 N 1065.71 0.390394 1.52688 0
M  V30 11444 C 1066.66 -0.4591 2.28024 0
M  V30 11445 C 1067.65 -1.06212 1.31967 0
M  V30 11446 O 1068.86 -1.00247 1.49501 0
M  V30 11447 H 1065.23 -0.16681 0.733266 0
M  V30 11448 H 1067.2 0.197747 2.97744 0
M  V30 11449 C 1065.95 -1.5737 3.10048 0
M  V30 11450 H 1065.28 -1.11901 3.83821 0
M  V30 11451 H 1066.72 -2.1423 3.65898 0
M  V30 11452 C 1065.18 -2.53036 2.22429 0
M  V30 11453 O 1065.71 -3.5647 1.85181 0
M  V30 11454 N 1063.91 -2.22802 1.86567 0
M  V30 11455 H 1063.46 -1.38723 2.17057 0
M  V30 11456 H 1063.42 -2.87061 1.28233 0
M  V30 11457 N 1067.19 -1.57141 0.120249 0
M  V30 11458 C 1068.14 -2.15379 -0.829497 0
M  V30 11459 C 1069.11 -1.07913 -1.2627 0
M  V30 11460 O 1070.29 -1.35827 -1.33999 0
M  V30 11461 C 1067.43 -2.75847 -2.0737 0
M  V30 11462 C 1066.54 -3.97624 -1.68875 0
M  V30 11463 C 1065.68 -4.46175 -2.88272 0
M  V30 11464 C 1064.72 -5.60481 -2.46023 0
M  V30 11465 N 1063.85 -6.0377 -3.58337 0
M  V30 11466 H 1068.69 -2.96211 -0.326031 0
M  V30 11467 H 1066.23 -1.46341 -0.149235 0
M  V30 11468 H 1068.19 -3.09037 -2.80272 0
M  V30 11469 H 1066.82 -1.97703 -2.55174 0
M  V30 11470 H 1065.87 -3.70588 -0.858431 0
M  V30 11471 H 1067.18 -4.80512 -1.33827 0
M  V30 11472 H 1066.34 -4.8128 -3.69397 0
M  V30 11473 H 1065.08 -3.6224 -3.26548 0
M  V30 11474 H 1064.08 -5.24979 -1.63331 0
M  V30 11475 H 1065.31 -6.46184 -2.08863 0
M  V30 11476 H 1063.25 -5.22776 -3.96284 0
M  V30 11477 H 1063.17 -6.81517 -3.27217 0
M  V30 11478 H 1064.44 -6.43514 -4.39898 0
M  V30 11479 N 1068.67 0.153526 -1.5685 0
M  V30 11480 C 1069.92 0.865628 -1.82181 0
M  V30 11481 C 1070.23 1.82629 -0.700434 0
M  V30 11482 O 1071.43 2.58206 -0.839155 0
M  V30 11483 C 1069.89 1.58993 -3.22877 0
M  V30 11484 C 1069.5 0.672006 -4.42931 0
M  V30 11485 C 1071.24 2.2892 -3.57486 0
M  V30 11486 C 1069.15 1.39755 -5.7465 0
M  V30 11487 H 1068.08 0.326993 -0.679406 0
M  V30 11488 H 1070.73 0.118403 -1.83118 0
M  V30 11489 H 1069.11 2.38255 -3.16308 0
M  V30 11490 H 1070.29 -0.0849226 -4.60722 0
M  V30 11491 H 1068.6 0.0814825 -4.1632 0
M  V30 11492 H 1071.2 2.8383 -4.5315 0
M  V30 11493 H 1071.54 3.05105 -2.83226 0
M  V30 11494 H 1072.07 1.56583 -3.65686 0
M  V30 11495 H 1068.81 0.677686 -6.51987 0
M  V30 11496 H 1068.33 2.12736 -5.60806 0
M  V30 11497 H 1070.01 1.94024 -6.17223 0
M  V30 11498 N 1070.14 1.51827 0.422667 0
M  V30 11499 C 1071.09 1.74198 1.51406 0
M  V30 11500 C 1072.06 0.584013 1.55494 0
M  V30 11501 O 1073.25 0.820079 1.72277 0
M  V30 11502 C 1070.39 1.88627 2.88988 0
M  V30 11503 C 1069.5 3.16233 2.94314 0
M  V30 11504 C 1068.63 3.21172 4.2311 0
M  V30 11505 C 1067.67 4.43033 4.2236 0
M  V30 11506 N 1066.81 4.4544 5.42704 0
M  V30 11507 H 1071.65 2.67352 1.31632 0
M  V30 11508 H 1069.19 1.32487 0.63919 0
M  V30 11509 H 1071.15 1.94976 3.68837 0
M  V30 11510 H 1069.78 0.988673 3.07287 0
M  V30 11511 H 1068.83 3.19123 2.07039 0
M  V30 11512 H 1070.14 4.06104 2.89623 0
M  V30 11513 H 1069.29 3.26517 5.11343 0
M  V30 11514 H 1068.03 2.29216 4.30478 0
M  V30 11515 H 1067.04 4.37849 3.32518 0
M  V30 11516 H 1068.26 5.3627 4.16643 0
M  V30 11517 H 1066.21 3.56361 5.50766 0
M  V30 11518 H 1066.13 5.29138 5.39953 0
M  V30 11519 H 1067.39 4.54997 6.32928 0
M  V30 11520 N 1071.62 -0.679052 1.4222 0
M  V30 11521 C 1072.59 -1.77448 1.45069 0
M  V30 11522 C 1073.59 -1.57189 0.338882 0
M  V30 11523 O 1074.78 -1.63559 0.599519 0
M  V30 11524 C 1071.91 -3.1603 1.27819 0
M  V30 11525 H 1073.1 -1.7631 2.426 0
M  V30 11526 H 1070.65 -0.888277 1.28605 0
M  V30 11527 H 1071.39 -3.22796 0.311946 0
M  V30 11528 H 1071.17 -3.32138 2.08391 0
M  V30 11529 H 1072.66 -3.9596 1.32686 0
M  V30 11530 N 1073.1 -1.28322 -0.914942 0
M  V30 11531 C 1074.35 -1.16587 -1.6667 0
M  V30 11532 C 1074.7 0.282961 -1.90308 0
M  V30 11533 O 1073.99 1.20269 -1.49151 0
M  V30 11534 C 1074.19 -1.89663 -3.02924 0
M  V30 11535 C 1074.02 -3.41504 -2.92584 0
M  V30 11536 C 1072.79 -4.10841 -2.94173 0
M  V30 11537 C 1074.99 -4.37266 -2.70745 0
M  V30 11538 N 1072.97 -5.49157 -2.74409 0
M  V30 11539 C 1074.34 -5.62937 -2.59812 0
M  V30 11540 C 1076.39 -4.27207 -2.55732 0
M  V30 11541 C 1075.1 -6.79692 -2.35397 0
M  V30 11542 C 1077.12 -5.43697 -2.32697 0
M  V30 11543 C 1076.48 -6.6833 -2.22517 0
M  V30 11544 H 1072.58 -0.481552 -0.616142 0
M  V30 11545 H 1075.17 -1.61957 -1.08065 0
M  V30 11546 H 1073.34 -1.46729 -3.59618 0
M  V30 11547 H 1075.07 -1.70323 -3.67113 0
M  V30 11548 H 1071.83 -3.62412 -3.04884 0
M  V30 11549 H 1072.25 -6.21858 -2.67622 0
M  V30 11550 H 1076.89 -3.31557 -2.62354 0
M  V30 11551 H 1074.61 -7.75412 -2.27514 0
M  V30 11552 H 1078.2 -5.37802 -2.21947 0
M  V30 11553 H 1077.08 -7.56949 -2.04936 0
M  V30 11554 N 1074.58 1.12322 -1.10551 0
M  V30 11555 C 1075.51 2.17819 -0.713263 0
M  V30 11556 C 1076.52 1.6086 0.250604 0
M  V30 11557 O 1077.71 1.78466 0.0348909 0
M  V30 11558 C 1074.81 3.38885 -0.0320325 0
M  V30 11559 C 1073.99 4.25332 -1.02038 0
M  V30 11560 C 1073.04 5.24895 -0.370412 0
M  V30 11561 O 1072.07 5.59958 -1.02157 0
M  V30 11562 N 1073.27 5.73934 0.870633 0
M  V30 11563 H 1076.04 2.52083 -1.62094 0
M  V30 11564 H 1073.6 1.27755 -0.994492 0
M  V30 11565 H 1075.59 4.02574 0.414285 0
M  V30 11566 H 1074.16 3.02762 0.778072 0
M  V30 11567 H 1073.38 3.5824 -1.64492 0
M  V30 11568 H 1074.67 4.79936 -1.68936 0
M  V30 11569 H 1074.07 5.47614 1.419 0
M  V30 11570 H 1072.62 6.39504 1.26008 0
M  V30 11571 N 1076.06 0.894434 1.2976 0
M  V30 11572 C 1077 0.366586 2.2787 0
M  V30 11573 C 1077.97 -0.548425 1.56785 0
M  V30 11574 O 1079.16 -0.474804 1.84798 0
M  V30 11575 C 1076.3 -0.404531 3.42721 0
M  V30 11576 C 1075.41 0.540774 4.28602 0
M  V30 11577 C 1074.55 -0.246875 5.30626 0
M  V30 11578 C 1073.59 0.693294 6.08161 0
M  V30 11579 N 1072.72 -0.059619 7.02075 0
M  V30 11580 H 1077.56 1.20834 2.72402 0
M  V30 11581 H 1075.1 0.607205 1.33983 0
M  V30 11582 H 1077.06 -0.86762 4.08079 0
M  V30 11583 H 1075.69 -1.21078 2.99232 0
M  V30 11584 H 1074.74 1.12237 3.63465 0
M  V30 11585 H 1076.05 1.26065 4.82606 0
M  V30 11586 H 1075.21 -0.771398 6.01776 0
M  V30 11587 H 1073.94 -0.999918 4.77339 0
M  V30 11588 H 1072.95 1.22936 5.35879 0
M  V30 11589 H 1074.17 1.44558 6.63536 0
M  V30 11590 H 1072.12 -0.795026 6.51165 0
M  V30 11591 H 1072.04 0.60045 7.53612 0
M  V30 11592 H 1073.31 -0.564577 7.77453 0
M  V30 11593 N 1077.53 -1.43282 0.656365 0
M  V30 11594 C 1078.78 -2.00996 0.168354 0
M  V30 11595 C 1079.1 -1.52408 -1.22601 0
M  V30 11596 O 1080.3 -2.02417 -1.80941 0
M  V30 11597 C 1078.76 -3.5903 0.250161 0
M  V30 11598 C 1078.37 -4.1661 1.64742 0
M  V30 11599 C 1080.11 -4.24118 -0.180084 0
M  V30 11600 C 1078.02 -5.66948 1.68299 0
M  V30 11601 H 1076.95 -0.751674 0.0591769 0
M  V30 11602 H 1079.6 -1.64216 0.818859 0
M  V30 11603 H 1077.98 -3.93226 -0.467908 0
M  V30 11604 H 1079.15 -3.93908 2.3911 0
M  V30 11605 H 1077.47 -3.63905 2.02391 0
M  V30 11606 H 1080.07 -5.34419 -0.173401 0
M  V30 11607 H 1080.41 -3.98264 -1.21208 0
M  V30 11608 H 1080.94 -3.94816 0.486343 0
M  V30 11609 H 1077.68 -5.97573 2.69419 0
M  V30 11610 H 1077.2 -5.91697 0.98261 0
M  V30 11611 H 1078.88 -6.31041 1.42813 0
M  V30 11612 N 1079.01 -0.398486 -1.52479 0
M  V30 11613 C 1080.26 0.180752 -2.01692 0
M  V30 11614 C 1080.59 1.46044 -1.28457 0
M  V30 11615 O 1079.84 1.92051 -0.376162 0
M  V30 11616 C 1080.14 0.485909 -3.54081 0
M  V30 11617 C 1079.81 -0.703321 -4.45381 0
M  V30 11618 C 1078.47 -1.02955 -4.70057 0
M  V30 11619 C 1080.82 -1.49848 -4.99194 0
M  V30 11620 C 1078.15 -2.15231 -5.45795 0
M  V30 11621 C 1080.5 -2.61192 -5.76161 0
M  V30 11622 C 1079.17 -2.94313 -5.99113 0
M  V30 11623 H 1078.44 0.0661417 -0.738042 0
M  V30 11624 H 1081.08 -0.53772 -1.83796 0
M  V30 11625 H 1079.39 1.28582 -3.701 0
M  V30 11626 H 1081.09 0.946872 -3.89661 0
M  V30 11627 H 1077.68 -0.439062 -4.26345 0
M  V30 11628 H 1081.86 -1.25968 -4.80048 0
M  V30 11629 H 1077.12 -2.41252 -5.61789 0
M  V30 11630 H 1081.29 -3.23201 -6.16858 0
M  V30 11631 H 1078.92 -3.81431 -6.57583 0
M  V30 11632 N 1080.49 1.57075 -0.12858 0
M  V30 11633 C 1081.44 2.15816 0.818064 0
M  V30 11634 C 1082.41 1.08581 1.25696 0
M  V30 11635 O 1083.59 1.36535 1.33277 0
M  V30 11636 C 1080.73 2.76943 2.05905 0
M  V30 11637 C 1079.85 3.98514 1.66764 0
M  V30 11638 C 1078.98 4.47698 2.85902 0
M  V30 11639 C 1078.02 5.61778 2.43047 0
M  V30 11640 N 1077.16 6.05662 3.5513 0
M  V30 11641 H 1082 2.9638 0.310318 0
M  V30 11642 H 1079.53 1.46418 0.141472 0
M  V30 11643 H 1081.49 3.10519 2.78629 0
M  V30 11644 H 1080.12 1.99053 2.54122 0
M  V30 11645 H 1079.17 3.71038 0.838766 0
M  V30 11646 H 1080.49 4.81215 1.31277 0
M  V30 11647 H 1079.64 4.83233 3.66839 0
M  V30 11648 H 1078.38 3.63967 3.24622 0
M  V30 11649 H 1077.38 5.25838 1.60544 0
M  V30 11650 H 1078.61 6.47282 2.05433 0
M  V30 11651 H 1076.56 5.2487 3.93506 0
M  V30 11652 H 1076.47 6.83242 3.23598 0
M  V30 11653 H 1077.74 6.45838 4.36479 0
M  V30 11654 N 1081.97 -0.145205 1.5693 0
M  V30 11655 C 1082.92 -1.18446 1.94819 0
M  V30 11656 C 1083.9 -1.38456 0.819684 0
M  V30 11657 O 1085.1 -1.39988 1.08316 0
M  V30 11658 C 1082.22 -2.51766 2.33385 0
M  V30 11659 C 1081.31 -2.35341 3.5281 0
M  V30 11660 N 1081.7 -1.88676 4.69292 0
M  V30 11661 C 1080 -2.66087 3.5793 0
M  V30 11662 C 1080.7 -1.85337 5.51385 0
M  V30 11663 N 1079.68 -2.28717 4.93142 0
M  V30 11664 H 1083.48 -0.815785 2.82351 0
M  V30 11665 H 1080.99 -0.353242 1.58512 0
M  V30 11666 H 1082.99 -3.26897 2.58735 0
M  V30 11667 H 1081.65 -2.89414 1.47206 0
M  V30 11668 H 1082.66 -1.58614 4.93013 0
M  V30 11669 H 1079.34 -3.07597 2.82294 0
M  V30 11670 H 1080.73 -1.50734 6.54774 0
M  V30 11671 N 1083.45 -1.52049 -0.414609 0
M  V30 11672 C 1084.68 -1.69433 -1.18221 0
M  V30 11673 C 1085.09 -0.40104 -1.84901 0
M  V30 11674 O 1084.43 0.632342 -1.72474 0
M  V30 11675 C 1084.49 -2.76986 -2.2917 0
M  V30 11676 C 1084.15 -4.18903 -1.82671 0
M  V30 11677 C 1085.15 -5.02929 -1.31751 0
M  V30 11678 C 1082.84 -4.65113 -1.89672 0
M  V30 11679 C 1084.83 -6.31234 -0.884461 0
M  V30 11680 C 1082.52 -5.93408 -1.45978 0
M  V30 11681 C 1083.52 -6.76297 -0.9545 0
M  V30 11682 O 1083.2 -8.02191 -0.523852 0
M  V30 11683 H 1082.94 -0.571228 -0.36149 0
M  V30 11684 H 1085.49 -1.99355 -0.494643 0
M  V30 11685 H 1083.72 -2.42428 -3.01273 0
M  V30 11686 H 1085.41 -2.83023 -2.90951 0
M  V30 11687 H 1086.17 -4.68422 -1.2572 0
M  V30 11688 H 1082.05 -4.00702 -2.27945 0
M  V30 11689 H 1085.6 -6.95881 -0.489383 0
M  V30 11690 H 1081.49 -6.27424 -1.51687 0
M  V30 11691 H 1082.26 -8.15934 -0.647656 0
M  V30 11692 N 1084.93 0.6715 -1.42579 0
M  V30 11693 C 1086.2 1.42766 -1.33706 0
M  V30 11694 C 1086.58 2.11086 0.0239748 0
M  V30 11695 O 1085.93 2.03479 1.03964 0
M  V30 11696 C 1086.14 2.42739 -2.50756 0
M  V30 11697 C 1087.49 3.07284 -2.93021 0
M  V30 11698 O 1088.51 2.53066 -2.50671 0
M  V30 11699 O 1087.37 4.05541 -3.66331 0
M  V30 11700 H 1084.47 0.636955 -0.527463 0
M  V30 11701 H 1087.01 0.699946 -1.54593 0
M  V30 11702 H 1085.78 1.91076 -3.41476 0
M  V30 11703 H 1085.41 3.22986 -2.31874 0
M  V30 11704 N 1086.4 1.28806 0.908124 0
M  V30 11705 C 1087.63 1.19153 1.69146 0
M  V30 11706 C 1088.05 -0.249056 1.8715 0
M  V30 11707 O 1087.4 -1.16772 1.40251 0
M  V30 11708 C 1087.45 1.89167 3.08055 0
M  V30 11709 O 1087.18 3.27599 2.90879 0
M  V30 11710 C 1088.68 1.85886 4.02444 0
M  V30 11711 H 1085.9 0.413359 0.528559 0
M  V30 11712 H 1088.44 1.7003 1.13622 0
M  V30 11713 H 1086.6 1.42146 3.60379 0
M  V30 11714 H 1087.01 3.62743 3.78837 0
M  V30 11715 H 1088.48 2.39454 4.97359 0
M  V30 11716 H 1088.96 0.832483 4.31238 0
M  V30 11717 H 1089.57 2.32612 3.5605 0
M  V30 11718 N 1087.88 -1.11734 1.11145 0
M  V30 11719 C 1089.16 -1.79795 0.770261 0
M  V30 11720 C 1089.54 -1.97624 -0.742158 0
M  V30 11721 O 1088.89 -1.55847 -1.67105 0
M  V30 11722 C 1089.1 -3.13684 1.52982 0
M  V30 11723 C 1090.44 -3.88771 1.70711 0
M  V30 11724 O 1091.47 -3.23363 1.49381 0
M  V30 11725 O 1090.33 -5.06134 2.06132 0
M  V30 11726 H 1087.42 -0.778617 0.27872 0
M  V30 11727 H 1089.97 -1.18504 1.2147 0
M  V30 11728 H 1088.74 -2.96043 2.55879 0
M  V30 11729 H 1088.36 -3.82687 1.07873 0
M  V30 11730 N 1089.36 -0.901303 -1.29284 0
M  V30 11731 C 1090.29 -0.337552 -2.26701 0
M  V30 11732 C 1091.3 0.517039 -1.54371 0
M  V30 11733 O 1092.49 0.333937 -1.75349 0
M  V30 11734 C 1089.59 0.537214 -3.34615 0
M  V30 11735 C 1088.77 -0.292017 -4.36424 0
M  V30 11736 C 1087.83 0.515837 -5.23666 0
M  V30 11737 O 1086.85 -0.0672303 -5.6916 0
M  V30 11738 N 1088.05 1.82159 -5.51179 0
M  V30 11739 H 1090.82 -1.17484 -2.75713 0
M  V30 11740 H 1088.38 -0.765957 -1.42635 0
M  V30 11741 H 1090.37 1.0841 -3.8991 0
M  V30 11742 H 1088.94 1.2752 -2.85408 0
M  V30 11743 H 1088.16 -1.02031 -3.80767 0
M  V30 11744 H 1089.45 -0.859855 -5.01482 0
M  V30 11745 H 1088.85 2.318 -5.16028 0
M  V30 11746 H 1087.4 2.31556 -6.09282 0
M  V30 11747 N 1090.84 1.42931 -0.663954 0
M  V30 11748 C 1092.06 2.06544 -0.188201 0
M  V30 11749 C 1092.49 1.495 1.14155 0
M  V30 11750 O 1091.85 0.609164 1.7076 0
M  V30 11751 C 1091.89 3.60393 -0.122105 0
M  V30 11752 O 1091 4.02176 0.91258 0
M  V30 11753 H 1090.34 0.656458 -0.0997967 0
M  V30 11754 H 1092.87 1.83253 -0.909909 0
M  V30 11755 H 1092.88 4.07959 0.0576568 0
M  V30 11756 H 1091.55 4.01287 -1.09276 0
M  V30 11757 H 1090.13 3.6618 0.704738 0
M  V30 11758 N 1092.32 0.406567 1.52266 0
M  V30 11759 C 1093.56 -0.169717 2.01386 0
M  V30 11760 C 1093.88 -1.45864 1.29417 0
M  V30 11761 O 1093.15 -1.9136 0.419327 0
M  V30 11762 H 1091.73 -0.0657075 0.744105 0
M  V30 11763 H 1094.4 0.542221 1.87206 0
M  V30 11764 H 1093.49 -0.367659 3.09927 0
M  V30 11765 N 1093.79 -1.57004 0.136909 0
M  V30 11766 C 1095.02 -2.00156 -0.523936 0
M  V30 11767 C 1095.44 -1.01688 -1.59075 0
M  V30 11768 O 1094.79 -0.0123678 -1.82496 0
M  V30 11769 C 1094.85 -3.4326 -1.13379 0
M  V30 11770 O 1094.57 -4.37963 -0.109598 0
M  V30 11771 C 1096.07 -4.01637 -1.87623 0
M  V30 11772 H 1093.29 -0.65681 -0.137263 0
M  V30 11773 H 1095.83 -2.03219 0.228522 0
M  V30 11774 H 1093.99 -3.4108 -1.83693 0
M  V30 11775 H 1094.4 -5.21555 -0.55503 0
M  V30 11776 H 1095.87 -5.03795 -2.25597 0
M  V30 11777 H 1096.35 -3.41781 -2.75831 0
M  V30 11778 H 1096.96 -4.07417 -1.22031 0
M  V30 11779 N 1095.27 0.136881 -1.57004 0
M  V30 11780 C 1096.52 0.846257 -1.83088 0
M  V30 11781 C 1096.83 1.81876 -0.719765 0
M  V30 11782 O 1098.04 2.57302 -0.866494 0
M  V30 11783 C 1096.5 1.55559 -3.24545 0
M  V30 11784 C 1096.1 0.624989 -4.43619 0
M  V30 11785 C 1097.85 2.25115 -3.59893 0
M  V30 11786 C 1095.76 1.33653 -5.761 0
M  V30 11787 H 1094.69 0.319768 -0.682836 0
M  V30 11788 H 1097.34 0.0989741 -1.83233 0
M  V30 11789 H 1095.72 2.34887 -3.18817 0
M  V30 11790 H 1096.89 -0.133783 -4.60606 0
M  V30 11791 H 1095.21 0.0373216 -4.16383 0
M  V30 11792 H 1097.8 2.79008 -4.56134 0
M  V30 11793 H 1098.15 3.02084 -2.86446 0
M  V30 11794 H 1098.68 1.52696 -3.67327 0
M  V30 11795 H 1095.42 0.608495 -6.5267 0
M  V30 11796 H 1094.94 2.06776 -5.63031 0
M  V30 11797 H 1096.62 1.87467 -6.19246 0
M  V30 11798 N 1096.75 1.52266 0.40654 0
M  V30 11799 C 1097.7 1.76409 1.516 0
M  V30 11800 C 1098.69 0.631311 1.57197 0
M  V30 11801 O 1099.9 0.813413 1.60573 0
M  V30 11802 H 1096.27 0.557904 0.50423 0
M  V30 11803 H 1098.24 2.69351 1.28424 0
M  V30 11804 C 1096.99 1.93415 2.88939 0
M  V30 11805 H 1096.32 2.8 2.85377 0
M  V30 11806 H 1097.76 2.14306 3.65854 0
M  V30 11807 C 1096.22 0.701938 3.29506 0
M  V30 11808 O 1096.75 -0.128965 4.01493 0
M  V30 11809 N 1094.95 0.537089 2.85594 0
M  V30 11810 H 1094.5 1.21435 2.27181 0
M  V30 11811 H 1094.46 -0.286055 3.13096 0
M  V30 11812 N 1098.23 -0.663929 1.42933 0
M  V30 11813 C 1099.45 -1.45691 1.47611 0
M  V30 11814 C 1099.88 -1.87875 0.0920305 0
M  V30 11815 O 1099.24 -1.56696 -0.91192 0
M  V30 11816 C 1099.28 -2.67517 2.41799 0
M  V30 11817 O 1098.39 -3.66187 1.89686 0
M  V30 11818 H 1097.73 -0.437257 0.499702 0
M  V30 11819 H 1100.26 -0.813397 1.87737 0
M  V30 11820 H 1100.27 -3.1546 2.58745 0
M  V30 11821 H 1098.94 -2.36155 3.4235 0
M  V30 11822 H 1097.52 -3.25274 1.82349 0
M  V30 11823 N 1099.71 -1.29285 -0.901281 0
M  V30 11824 C 1100.94 -1.19874 -1.68267 0
M  V30 11825 C 1101.34 0.243387 -1.87628 0
M  V30 11826 O 1100.69 1.17497 -1.41209 0
M  V30 11827 C 1100.75 -1.83907 -3.08899 0
M  V30 11828 C 1100.41 -3.33198 -3.12775 0
M  V30 11829 C 1101.41 -4.29446 -2.9304 0
M  V30 11830 C 1099.1 -3.7437 -3.34892 0
M  V30 11831 C 1101.09 -5.64842 -2.95352 0
M  V30 11832 C 1098.78 -5.09888 -3.36834 0
M  V30 11833 C 1099.77 -6.04934 -3.17087 0
M  V30 11834 O 1099.46 -7.37979 -3.18815 0
M  V30 11835 H 1099.19 -0.416601 -0.532372 0
M  V30 11836 H 1101.75 -1.71154 -1.13558 0
M  V30 11837 H 1099.98 -1.27136 -3.65203 0
M  V30 11838 H 1101.67 -1.6884 -3.69118 0
M  V30 11839 H 1102.43 -3.9897 -2.75767 0
M  V30 11840 H 1098.31 -3.00846 -3.49303 0
M  V30 11841 H 1101.86 -6.39004 -2.79856 0
M  V30 11842 H 1097.75 -5.40009 -3.53638 0
M  V30 11843 H 1098.52 -7.46763 -3.35092 0
M  V30 11844 N 1101.18 1.11143 -1.11736 0
M  V30 11845 C 1102.09 2.20851 -0.791331 0
M  V30 11846 C 1103.11 1.72644 0.216833 0
M  V30 11847 O 1104.29 2.01332 0.0522401 0
M  V30 11848 C 1101.35 3.4585 -0.242694 0
M  V30 11849 C 1100.41 4.08829 -1.30986 0
M  V30 11850 C 1099.65 5.27861 -0.787305 0
M  V30 11851 O 1099.87 5.69122 0.381549 0
M  V30 11852 O 1098.8 5.81506 -1.55352 0
M  V30 11853 H 1102.63 2.51158 -1.70744 0
M  V30 11854 H 1100.21 1.19739 -0.893478 0
M  V30 11855 H 1102.1 4.21359 0.0587472 0
M  V30 11856 H 1100.77 3.17187 0.646079 0
M  V30 11857 H 1099.68 3.35037 -1.66436 0
M  V30 11858 H 1101.01 4.41678 -2.17213 0
M  V30 11859 N 1102.66 0.908147 1.28804 0
M  V30 11860 C 1103.6 0.336764 2.25701 0
M  V30 11861 C 1104.57 -0.555849 1.52804 0
M  V30 11862 O 1105.76 -0.500763 1.81727 0
M  V30 11863 C 1102.88 -0.519154 3.34698 0
M  V30 11864 C 1101.93 0.307304 4.25391 0
M  V30 11865 S 1102.76 1.71048 5.07447 0
M  V30 11866 C 1103.92 0.861715 6.1994 0
M  V30 11867 H 1104.15 1.15806 2.73818 0
M  V30 11868 H 1101.69 0.709033 1.37157 0
M  V30 11869 H 1103.64 -1.00718 3.97952 0
M  V30 11870 H 1102.3 -1.31477 2.85259 0
M  V30 11871 H 1101.5 -0.346906 5.02805 0
M  V30 11872 H 1101.1 0.728777 3.66831 0
M  V30 11873 H 1103.39 0.088851 6.77442 0
M  V30 11874 H 1104.33 1.60821 6.89596 0
M  V30 11875 H 1104.74 0.412366 5.62992 0
M  V30 11876 N 1104.14 -1.42577 0.671525 0
M  V30 11877 C 1105.56 -1.5592 0.340769 0
M  V30 11878 C 1105.76 -1.65179 -1.15405 0
M  V30 11879 O 1104.81 -1.61691 -1.93939 0
M  V30 11880 C 1106.13 -2.81087 1.06821 0
M  V30 11881 C 1107.67 -2.94855 1.05022 0
M  V30 11882 C 1108.15 -4.22878 1.75892 0
M  V30 11883 N 1109.64 -4.29783 1.72744 0
M  V30 11884 C 1110.37 -5.2765 2.24439 0
M  V30 11885 N 1109.87 -6.31689 2.84501 0
M  V30 11886 N 1111.66 -5.19426 2.14832 0
M  V30 11887 H 1103.81 -1.34811 1.64133 0
M  V30 11888 H 1106.08 -0.648704 0.691294 0
M  V30 11889 H 1105.78 -2.80371 2.12332 0
M  V30 11890 H 1105.66 -3.71879 0.631356 0
M  V30 11891 H 1108.04 -2.951 0.00345633 0
M  V30 11892 H 1108.13 -2.05303 1.52592 0
M  V30 11893 H 1107.77 -4.23394 2.80535 0
M  V30 11894 H 1107.7 -5.1136 1.25773 0
M  V30 11895 H 1110.19 -3.55225 1.28932 0
M  V30 11896 H 1110.5 -7.02715 3.21575 0
M  V30 11897 H 1108.85 -6.3226 2.88569 0
M  V30 11898 H 1112.04 -4.37067 1.676 0
M  V30 11899 H 1112.21 -5.95535 2.55426 0
M  V30 11900 N 1105.62 -0.414636 -1.52048 0
M  V30 11901 C 1106.57 0.422766 -2.28726 0
M  V30 11902 C 1107.56 1.04099 -1.3364 0
M  V30 11903 O 1108.77 0.978559 -1.51077 0
M  V30 11904 H 1105.14 0.155123 -0.735827 0
M  V30 11905 H 1107.11 -0.245091 -2.97392 0
M  V30 11906 C 1105.86 1.52418 -3.12513 0
M  V30 11907 H 1105.18 1.05781 -3.85552 0
M  V30 11908 H 1106.62 2.08382 -3.6926 0
M  V30 11909 C 1105.08 2.49465 -2.26426 0
M  V30 11910 O 1105.61 3.53479 -1.90829 0
M  V30 11911 N 1103.82 2.19806 -1.90088 0
M  V30 11912 H 1103.37 1.35253 -2.19236 0
M  V30 11913 H 1103.32 2.84984 -1.32783 0
M  V30 11914 N 1107.1 1.56929 -0.145233 0
M  V30 11915 C 1108.06 2.15483 0.781002 0
M  V30 11916 C 1109.06 1.09617 1.17647 0
M  V30 11917 O 1110.25 1.35265 1.09768 0
M  V30 11918 C 1107.38 2.7165 2.05959 0
M  V30 11919 H 1108.57 2.98667 0.271685 0
M  V30 11920 H 1106.13 1.55952 0.1042 0
M  V30 11921 H 1106.86 1.92127 2.61262 0
M  V30 11922 H 1106.65 3.491 1.78526 0
M  V30 11923 H 1108.14 3.16769 2.72116 0
M  V30 11924 N 1108.58 -0.128553 1.57075 0
M  V30 11925 C 1109.82 -0.839252 1.8462 0
M  V30 11926 C 1110.15 -1.79974 0.729582 0
M  V30 11927 O 1109.43 -1.92681 -0.265369 0
M  V30 11928 C 1109.71 -1.59756 3.22723 0
M  V30 11929 C 1109.57 -0.657313 4.44971 0
M  V30 11930 C 1110.88 -2.55592 3.58275 0
M  V30 11931 H 1108 -0.303652 0.671539 0
M  V30 11932 H 1110.65 -0.103802 1.89716 0
M  V30 11933 H 1108.8 -2.22451 3.18509 0
M  V30 11934 H 1110.47 -0.0399471 4.61283 0
M  V30 11935 H 1108.71 0.0318416 4.33788 0
M  V30 11936 H 1109.38 -1.22433 5.38251 0
M  V30 11937 H 1111.86 -2.03007 3.63218 0
M  V30 11938 H 1110.73 -3.05687 4.55902 0
M  V30 11939 H 1110.99 -3.37813 2.85193 0
M  V30 11940 N 1110.05 -1.5248 -0.398459 0
M  V30 11941 C 1111 -1.77211 -1.50662 0
M  V30 11942 C 1112 -0.639638 -1.5686 0
M  V30 11943 O 1113.2 -0.821917 -1.60139 0
M  V30 11944 H 1109.58 -0.56057 -0.501264 0
M  V30 11945 H 1111.55 -2.70028 -1.26993 0
M  V30 11946 C 1110.3 -1.94944 -2.8791 0
M  V30 11947 H 1109.62 -2.8151 -2.83888 0
M  V30 11948 H 1111.06 -2.16243 -3.64712 0
M  V30 11949 C 1109.52 -0.719402 -3.29129 0
M  V30 11950 O 1110.05 0.107671 -4.01556 0
M  V30 11951 N 1108.25 -0.552228 -2.85305 0
M  V30 11952 H 1107.8 -1.22638 -2.26534 0
M  V30 11953 H 1107.76 0.269447 -3.13243 0
M  V30 11954 N 1111.53 0.65634 -1.43283 0
M  V30 11955 C 1112.81 1.41339 -1.35213 0
M  V30 11956 C 1113.19 2.111 0.00158494 0
M  V30 11957 O 1112.54 2.0457 1.018 0
M  V30 11958 C 1112.75 2.40066 -2.53317 0
M  V30 11959 C 1114.09 3.04159 -2.96264 0
M  V30 11960 O 1115.12 2.50393 -2.53341 0
M  V30 11961 O 1113.98 4.01633 -3.70612 0
M  V30 11962 H 1111.07 0.631325 -0.534189 0
M  V30 11963 H 1113.62 0.68351 -1.55326 0
M  V30 11964 H 1112.39 1.87444 -3.43483 0
M  V30 11965 H 1112.01 3.20509 -2.35287 0
M  V30 11966 N 1113.01 1.29761 0.894412 0
M  V30 11967 C 1113.97 1.15335 1.98067 0
M  V30 11968 C 1114.97 0.0872804 1.60563 0
M  V30 11969 O 1116.16 0.334645 1.70955 0
M  V30 11970 C 1113.29 0.764907 3.32208 0
M  V30 11971 H 1114.49 2.11829 2.12293 0
M  V30 11972 H 1112.04 1.13023 1.0796 0
M  V30 11973 H 1112.78 -0.199948 3.23683 0
M  V30 11974 H 1112.56 1.53523 3.60795 0
M  V30 11975 H 1114.05 0.687176 4.11907 0
M  V30 11976 N 1114.49 -1.10549 1.12324 0
M  V30 11977 C 1115.74 -1.82124 0.876083 0
M  V30 11978 C 1116.06 -1.85547 -0.599761 0
M  V30 11979 O 1115.33 -1.33269 -1.43584 0
M  V30 11980 H 1113.91 -0.674455 0.321122 0
M  V30 11981 H 1116.57 -1.33766 1.41748 0
M  V30 11982 H 1115.66 -2.85688 1.25653 0
M  V30 11983 N 1115.97 -0.914965 -1.28321 0
M  V30 11984 C 1117.21 -0.548749 -1.94923 0
M  V30 11985 C 1117.54 0.907776 -1.72016 0
M  V30 11986 O 1116.8 1.66097 -1.03491 0
M  V30 11987 C 1117.09 -0.805805 -3.48198 0
M  V30 11988 C 1116.76 -2.24207 -3.91206 0
M  V30 11989 C 1115.42 -2.63475 -4.02659 0
M  V30 11990 C 1117.77 -3.17667 -4.13204 0
M  V30 11991 C 1115.1 -3.95353 -4.3349 0
M  V30 11992 C 1117.45 -4.4911 -4.45514 0
M  V30 11993 C 1116.12 -4.8823 -4.55179 0
M  V30 11994 H 1115.39 -0.200801 -0.713274 0
M  V30 11995 H 1118.04 -1.15652 -1.52633 0
M  V30 11996 H 1116.34 -0.115244 -3.9163 0
M  V30 11997 H 1118.04 -0.501609 -3.9785 0
M  V30 11998 H 1114.63 -1.92737 -3.82819 0
M  V30 11999 H 1118.81 -2.88537 -4.03807 0
M  V30 12000 H 1114.07 -4.25362 -4.39178 0
M  V30 12001 H 1118.24 -5.21542 -4.61483 0
M  V30 12002 H 1115.87 -5.90451 -4.78823 0
M  V30 12003 N 1117.44 1.42219 -0.679077 0
M  V30 12004 C 1118.39 2.27992 0.0194379 0
M  V30 12005 C 1119.38 1.41317 0.769313 0
M  V30 12006 O 1120.57 1.64731 0.647521 0
M  V30 12007 C 1117.7 3.29401 0.966945 0
M  V30 12008 C 1116.78 4.23559 0.214187 0
M  V30 12009 N 1117.18 4.99699 -0.783226 0
M  V30 12010 C 1115.47 4.43703 0.452026 0
M  V30 12011 C 1116.17 5.68496 -1.23237 0
M  V30 12012 N 1115.15 5.40692 -0.561484 0
M  V30 12013 H 1118.95 2.84287 -0.745542 0
M  V30 12014 H 1116.47 1.54234 -0.508504 0
M  V30 12015 H 1118.46 3.89655 1.48238 0
M  V30 12016 H 1117.12 2.74667 1.7317 0
M  V30 12017 H 1118.13 5.04675 -1.16291 0
M  V30 12018 H 1114.81 4.00004 1.19595 0
M  V30 12019 H 1116.2 6.3957 -2.05912 0
M  V30 12020 N 1118.92 0.422693 1.51826 0
M  V30 12021 C 1119.85 -0.386913 2.30272 0
M  V30 12022 C 1120.83 -1.03411 1.35056 0
M  V30 12023 O 1122.02 -1.04055 1.6397 0
M  V30 12024 C 1119.15 -1.49645 3.13407 0
M  V30 12025 C 1118.1 -0.973532 4.16781 0
M  V30 12026 C 1117.43 -2.1777 4.88344 0
M  V30 12027 C 1118.73 -0.0181194 5.22297 0
M  V30 12028 H 1120.42 0.267697 2.98201 0
M  V30 12029 H 1117.97 0.130186 1.4341 0
M  V30 12030 H 1119.92 -2.06993 3.67059 0
M  V30 12031 H 1118.64 -2.17914 2.43272 0
M  V30 12032 H 1117.3 -0.42237 3.64159 0
M  V30 12033 H 1116.95 -2.84625 4.14726 0
M  V30 12034 H 1116.65 -1.83427 5.58237 0
M  V30 12035 H 1118.18 -2.75699 5.44814 0
M  V30 12036 H 1119.59 -0.500822 5.71108 0
M  V30 12037 H 1117.99 0.237163 5.99631 0
M  V30 12038 H 1119.06 0.923065 4.76033 0
M  V30 12039 N 1120.4 -1.5685 0.153553 0
M  V30 12040 C 1121.35 -2.18385 -0.800667 0
M  V30 12041 C 1122.34 -1.14272 -1.25053 0
M  V30 12042 O 1123.55 -1.32509 -1.21825 0
M  V30 12043 H 1119.92 -0.699352 -0.276425 0
M  V30 12044 H 1121.89 -2.97287 -0.257535 0
M  V30 12045 C 1120.64 -2.82497 -2.02708 0
M  V30 12046 H 1119.97 -3.62328 -1.68992 0
M  V30 12047 H 1121.41 -3.29047 -2.67403 0
M  V30 12048 C 1119.86 -1.81343 -2.8393 0
M  V30 12049 O 1120.39 -1.28793 -3.80493 0
M  V30 12050 N 1118.6 -1.50499 -2.48593 0
M  V30 12051 H 1118.15 -1.93425 -1.70131 0
M  V30 12052 H 1118.11 -0.830672 -3.03228 0
M  V30 12053 N 1121.88 0.120221 -1.57141 0
M  V30 12054 C 1122.83 1.16654 -2.01233 0
M  V30 12055 C 1123.82 1.42943 -0.909053 0
M  V30 12056 O 1125.03 1.4292 -1.09426 0
M  V30 12057 H 1121.4 0.393289 -0.640958 0
M  V30 12058 H 1123.37 0.768156 -2.88343 0
M  V30 12059 C 1122.12 2.4854 -2.43152 0
M  V30 12060 H 1121.44 2.29149 -3.27614 0
M  V30 12061 H 1122.88 3.20315 -2.77802 0
M  V30 12062 C 1121.34 3.1103 -1.29468 0
M  V30 12063 O 1121.87 3.97042 -0.609982 0
M  V30 12064 N 1120.08 2.70888 -1.05205 0
M  V30 12065 H 1119.63 2.01039 -1.61062 0
M  V30 12066 H 1119.58 3.13028 -0.293347 0
M  V30 12067 N 1123.36 1.52689 0.390367 0
M  V30 12068 C 1124.29 1.73622 1.49626 0
M  V30 12069 C 1125.3 0.616682 1.50668 0
M  V30 12070 O 1126.49 0.892341 1.54595 0
M  V30 12071 C 1123.59 1.77859 2.88477 0
M  V30 12072 C 1122.76 3.07146 3.11416 0
M  V30 12073 C 1121.82 3.02949 4.30242 0
M  V30 12074 O 1120.85 3.76816 4.26613 0
M  V30 12075 N 1122.05 2.22039 5.36357 0
M  V30 12076 H 1124.82 2.69037 1.32057 0
M  V30 12077 H 1122.38 1.51159 0.579867 0
M  V30 12078 H 1124.37 1.72559 3.66067 0
M  V30 12079 H 1122.94 0.898367 2.99413 0
M  V30 12080 H 1122.16 3.25947 2.21703 0
M  V30 12081 H 1123.45 3.92637 3.23595 0
M  V30 12082 H 1122.84 1.6149 5.4216 0
M  V30 12083 H 1121.4 2.2258 6.12619 0
M  V30 12084 N 1124.83 -0.648732 1.43629 0
M  V30 12085 C 1125.76 -1.77298 1.51947 0
M  V30 12086 C 1126.75 -1.65942 0.373785 0
M  V30 12087 O 1127.93 -1.8497 0.591596 0
M  V30 12088 C 1125.06 -3.15749 1.44638 0
M  V30 12089 C 1124.01 -3.41872 2.57502 0
M  V30 12090 C 1123.34 -4.8017 2.35246 0
M  V30 12091 C 1124.64 -3.36173 3.99731 0
M  V30 12092 H 1126.33 -1.70594 2.46045 0
M  V30 12093 H 1123.88 -0.819306 1.1842 0
M  V30 12094 H 1125.83 -3.94156 1.4906 0
M  V30 12095 H 1124.56 -3.23194 0.470466 0
M  V30 12096 H 1123.22 -2.65838 2.5244 0
M  V30 12097 H 1122.86 -4.84297 1.35887 0
M  V30 12098 H 1122.56 -4.9861 3.10906 0
M  V30 12099 H 1124.09 -5.6083 2.41459 0
M  V30 12100 H 1125.5 -4.0451 4.06257 0
M  V30 12101 H 1123.9 -3.66148 4.75453 0
M  V30 12102 H 1124.97 -2.34277 4.24549 0
M  V30 12103 N 1126.31 -1.30234 -0.887518 0
M  V30 12104 C 1127.54 -1.21652 -1.66986 0
M  V30 12105 C 1127.95 0.223473 -1.87876 0
M  V30 12106 O 1127.29 1.15993 -1.42448 0
M  V30 12107 C 1127.36 -1.87173 -3.06931 0
M  V30 12108 C 1127.02 -3.36496 -3.09224 0
M  V30 12109 C 1128.02 -4.3253 -2.88469 0
M  V30 12110 C 1125.7 -3.77901 -3.30902 0
M  V30 12111 C 1127.7 -5.67942 -2.89344 0
M  V30 12112 C 1125.38 -5.13432 -3.31407 0
M  V30 12113 C 1126.38 -6.08263 -3.10653 0
M  V30 12114 O 1126.07 -7.41318 -3.1097 0
M  V30 12115 H 1125.8 -0.422224 -0.527923 0
M  V30 12116 H 1128.35 -1.72349 -1.11736 0
M  V30 12117 H 1126.58 -1.31002 -3.63834 0
M  V30 12118 H 1128.27 -1.72745 -3.67306 0
M  V30 12119 H 1129.04 -4.01873 -2.7152 0
M  V30 12120 H 1124.92 -3.04534 -3.46093 0
M  V30 12121 H 1128.46 -6.41936 -2.73063 0
M  V30 12122 H 1124.36 -5.4373 -3.47891 0
M  V30 12123 H 1125.13 -7.50275 -3.27153 0
M  V30 12124 N 1127.79 1.09952 -1.12909 0
M  V30 12125 C 1129.07 1.78547 -0.798767 0
M  V30 12126 C 1129.45 1.9878 0.710624 0
M  V30 12127 O 1128.8 1.58485 1.64604 0
M  V30 12128 C 1129.01 3.1121 -1.57953 0
M  V30 12129 C 1130.35 3.86006 -1.76874 0
M  V30 12130 O 1131.38 3.20946 -1.54506 0
M  V30 12131 O 1130.24 5.02791 -2.14158 0
M  V30 12132 H 1127.33 0.774084 -0.291072 0
M  V30 12133 H 1129.88 1.16557 -1.2334 0
M  V30 12134 H 1128.65 2.91935 -2.60557 0
M  V30 12135 H 1128.27 3.80922 -1.13948 0
M  V30 12136 N 1129.27 0.921757 1.27833 0
M  V30 12137 C 1130.52 0.55493 1.93916 0
M  V30 12138 C 1130.83 -0.907191 1.7329 0
M  V30 12139 O 1132.04 -1.38253 2.33663 0
M  V30 12140 C 1130.49 0.941644 3.47363 0
M  V30 12141 C 1130.1 2.42404 3.76755 0
M  V30 12142 C 1131.84 0.645785 4.19559 0
M  V30 12143 C 1129.75 2.75046 5.23549 0
M  V30 12144 H 1128.68 0.203818 0.72593 0
M  V30 12145 H 1131.33 1.12176 1.4522 0
M  V30 12146 H 1129.71 0.303519 3.94835 0
M  V30 12147 H 1130.89 3.10957 3.40062 0
M  V30 12148 H 1129.2 2.69118 3.17749 0
M  V30 12149 H 1131.8 0.866237 5.27637 0
M  V30 12150 H 1132.14 -0.41676 4.14209 0
M  V30 12151 H 1132.68 1.24274 3.7789 0
M  V30 12152 H 1129.42 3.80186 5.33984 0
M  V30 12153 H 1128.94 2.11138 5.6141 0
M  V30 12154 H 1130.61 2.62474 5.91368 0
M  V30 12155 N 1130.75 -1.41857 0.686609 0
M  V30 12156 C 1132 -2.00594 0.21095 0
M  V30 12157 C 1132.31 -1.54974 -1.19341 0
M  V30 12158 O 1133.51 -2.0621 -1.76607 0
M  V30 12159 C 1131.97 -3.58418 0.326261 0
M  V30 12160 C 1131.58 -4.13022 1.73542 0
M  V30 12161 C 1133.32 -4.24404 -0.0900816 0
M  V30 12162 C 1131.23 -5.6325 1.80287 0
M  V30 12163 H 1130.16 -0.75025 0.0751077 0
M  V30 12164 H 1132.81 -1.62442 0.853508 0
M  V30 12165 H 1131.19 -3.9413 -0.384394 0
M  V30 12166 H 1132.37 -3.88747 2.47411 0
M  V30 12167 H 1130.68 -3.5953 2.10065 0
M  V30 12168 H 1133.28 -5.34666 -0.060004 0
M  V30 12169 H 1133.62 -4.00745 -1.12733 0
M  V30 12170 H 1134.15 -3.93695 0.569979 0
M  V30 12171 H 1130.89 -5.91724 2.82034 0
M  V30 12172 H 1130.41 -5.89479 1.1079 0
M  V30 12173 H 1132.09 -6.2787 1.56167 0
M  V30 12174 N 1132.22 -0.430739 -1.51599 0
M  V30 12175 C 1133.45 0.136797 -2.06447 0
M  V30 12176 C 1133.87 1.37027 -1.29881 0
M  V30 12177 O 1133.22 1.78983 -0.356543 0
M  V30 12178 C 1133.28 0.465637 -3.58489 0
M  V30 12179 O 1133 -0.718873 -4.32162 0
M  V30 12180 C 1134.5 1.08456 -4.29828 0
M  V30 12181 H 1131.72 0.0108468 -0.670912 0
M  V30 12182 H 1134.26 -0.607921 -1.95255 0
M  V30 12183 H 1132.42 1.16025 -3.69617 0
M  V30 12184 H 1132.83 -0.439195 -5.22658 0
M  V30 12185 H 1134.3 1.2647 -5.37317 0
M  V30 12186 H 1134.78 2.06376 -3.87693 0
M  V30 12187 H 1135.39 0.429525 -4.23125 0
M  V30 12188 N 1133.7 1.56767 -0.161869 0
M  V30 12189 C 1134.64 2.13321 0.810527 0
M  V30 12190 C 1135.61 1.06073 1.23237 0
M  V30 12191 O 1136.8 1.33993 1.32583 0
M  V30 12192 C 1133.92 2.66506 2.09027 0
M  V30 12193 C 1132.97 3.86038 1.8132 0
M  V30 12194 S 1133.8 5.26253 0.990873 0
M  V30 12195 C 1134.96 5.82837 2.28149 0
M  V30 12196 H 1135.19 2.95467 0.32965 0
M  V30 12197 H 1132.73 1.5431 0.052655 0
M  V30 12198 H 1134.68 2.97797 2.82537 0
M  V30 12199 H 1133.34 1.84463 2.54229 0
M  V30 12200 H 1132.54 4.21547 2.7625 0
M  V30 12201 H 1132.14 3.55585 1.1591 0
M  V30 12202 H 1134.43 5.95175 3.23686 0
M  V30 12203 H 1135.37 6.80109 1.97123 0
M  V30 12204 H 1135.78 5.11186 2.39477 0
M  V30 12205 N 1135.18 -0.111886 1.57202 0
M  V30 12206 C 1136.6 -0.465629 1.52657 0
M  V30 12207 C 1136.8 -1.81463 0.875989 0
M  V30 12208 O 1135.85 -2.4825 0.461345 0
M  V30 12209 C 1137.17 -0.443571 2.9741 0
M  V30 12210 C 1138.71 -0.52662 3.08538 0
M  V30 12211 C 1139.19 -0.53488 4.54866 0
M  V30 12212 N 1140.68 -0.596117 4.59348 0
M  V30 12213 C 1141.41 -0.624073 5.69994 0
M  V30 12214 N 1140.91 -0.609245 6.90116 0
M  V30 12215 N 1142.7 -0.667619 5.58121 0
M  V30 12216 H 1134.85 0.771925 1.97876 0
M  V30 12217 H 1137.12 0.285534 0.903977 0
M  V30 12218 H 1136.82 0.480138 3.48407 0
M  V30 12219 H 1136.7 -1.26876 3.55221 0
M  V30 12220 H 1139.08 -1.44075 2.57539 0
M  V30 12221 H 1139.17 0.326396 2.53709 0
M  V30 12222 H 1138.81 0.375233 5.06512 0
M  V30 12223 H 1138.74 -1.40488 5.07514 0
M  V30 12224 H 1141.23 -0.613452 3.72888 0
M  V30 12225 H 1141.54 -0.633396 7.702 0
M  V30 12226 H 1139.89 -0.576557 6.92604 0
M  V30 12227 H 1143.08 -0.676616 4.63184 0
M  V30 12228 H 1143.25 -0.685938 6.44359 0
M  V30 12229 N 1136.66 -1.52894 -0.382264 0
M  V30 12230 C 1137.89 -1.71902 -1.146 0
M  V30 12231 C 1138.3 -0.44017 -1.84009 0
M  V30 12232 O 1137.64 0.595616 -1.73776 0
M  V30 12233 C 1137.7 -2.81785 -2.23244 0
M  V30 12234 C 1137.37 -4.22684 -1.73745 0
M  V30 12235 C 1138.36 -5.05611 -1.21054 0
M  V30 12236 C 1136.05 -4.69031 -1.79763 0
M  V30 12237 C 1138.04 -6.32968 -0.750368 0
M  V30 12238 C 1135.73 -5.96371 -1.33358 0
M  V30 12239 C 1136.73 -6.7817 -0.810832 0
M  V30 12240 O 1136.41 -8.03122 -0.353577 0
M  V30 12241 H 1136.15 -0.578767 -0.349292 0
M  V30 12242 H 1138.7 -2.00359 -0.452246 0
M  V30 12243 H 1136.93 -2.48764 -2.96063 0
M  V30 12244 H 1138.62 -2.89131 -2.84883 0
M  V30 12245 H 1139.39 -4.70984 -1.15755 0
M  V30 12246 H 1135.26 -4.05447 -2.19394 0
M  V30 12247 H 1138.81 -6.96763 -0.341666 0
M  V30 12248 H 1134.71 -6.30501 -1.38344 0
M  V30 12249 H 1135.47 -8.17124 -0.474439 0
M  V30 12250 N 1138.14 0.641106 -1.43971 0
M  V30 12251 C 1139.1 1.73539 -1.49723 0
M  V30 12252 C 1140.1 1.56235 -0.380438 0
M  V30 12253 O 1141.29 1.61912 -0.642673 0
M  V30 12254 C 1138.42 3.1253 -1.36153 0
M  V30 12255 H 1139.62 1.69816 -2.47189 0
M  V30 12256 H 1137.17 0.853867 -1.30915 0
M  V30 12257 H 1137.9 3.21856 -0.39742 0
M  V30 12258 H 1137.69 3.26496 -2.17124 0
M  V30 12259 H 1139.18 3.92303 -1.43138 0
M  V30 12260 N 1139.62 1.30703 0.880598 0
M  V30 12261 C 1140.89 1.1043 1.61445 0
M  V30 12262 C 1141.27 -0.344837 2.08264 0
M  V30 12263 O 1140.62 -1.33711 1.85293 0
M  V30 12264 C 1140.83 2.10908 2.78063 0
M  V30 12265 C 1142.18 2.42861 3.48287 0
M  V30 12266 O 1143.2 2.09252 2.88257 0
M  V30 12267 O 1142.06 3.00369 4.56553 0
M  V30 12268 H 1139.16 0.424419 0.709787 0
M  V30 12269 H 1141.7 1.42144 0.926991 0
M  V30 12270 H 1140.47 3.08431 2.40803 0
M  V30 12271 H 1140.1 1.80036 3.54503 0
M  V30 12272 N 1141.09 -1.09351 1.1349 0
M  V30 12273 C 1142.04 -2.16008 0.812981 0
M  V30 12274 C 1143.01 -1.64566 -0.225252 0
M  V30 12275 O 1144.2 -1.90552 -0.0973261 0
M  V30 12276 C 1141.34 -3.43913 0.285996 0
M  V30 12277 C 1140.45 -4.09251 1.38338 0
M  V30 12278 C 1139.58 -5.24916 0.814652 0
M  V30 12279 C 1138.62 -5.82178 1.89038 0
M  V30 12280 N 1137.76 -6.89203 1.33955 0
M  V30 12281 H 1142.6 -2.42887 1.72655 0
M  V30 12282 H 1140.14 -1.19209 0.861833 0
M  V30 12283 H 1142.09 -4.17183 -0.0376794 0
M  V30 12284 H 1140.72 -3.17349 -0.590707 0
M  V30 12285 H 1139.78 -3.33838 1.82363 0
M  V30 12286 H 1141.09 -4.4784 2.19638 0
M  V30 12287 H 1140.24 -6.05086 0.442306 0
M  V30 12288 H 1138.98 -4.87691 -0.029416 0
M  V30 12289 H 1137.99 -5.00669 2.27179 0
M  V30 12290 H 1139.21 -6.21464 2.73787 0
M  V30 12291 H 1137.16 -6.53956 0.517494 0
M  V30 12292 H 1137.07 -7.26565 2.08902 0
M  V30 12293 H 1138.34 -7.73126 0.994793 0
M  V30 12294 N 1142.57 -0.928524 -1.27343 0
M  V30 12295 C 1143.52 -0.399267 -2.24477 0
M  V30 12296 C 1144.51 0.496927 -1.53034 0
M  V30 12297 O 1145.7 0.334237 -1.73816 0
M  V30 12298 C 1142.83 0.346059 -3.41551 0
M  V30 12299 C 1141.91 -0.566699 -4.20297 0
M  V30 12300 N 1142.3 -1.6869 -4.76841 0
M  V30 12301 C 1140.6 -0.369865 -4.44464 0
M  V30 12302 C 1141.3 -2.25466 -5.36228 0
M  V30 12303 N 1140.28 -1.54414 -5.21207 0
M  V30 12304 H 1144.08 -1.25456 -2.65778 0
M  V30 12305 H 1141.59 -0.782894 -1.42283 0
M  V30 12306 H 1143.59 0.742171 -4.10241 0
M  V30 12307 H 1142.25 1.19827 -3.01781 0
M  V30 12308 H 1143.26 -2.06926 -4.74765 0
M  V30 12309 H 1139.94 0.441619 -4.15158 0
M  V30 12310 H 1141.33 -3.19779 -5.90924 0
M  V30 12311 N 1144.05 1.41491 -0.694123 0
M  V30 12312 C 1144.98 2.28189 0.0226347 0
M  V30 12313 C 1145.96 1.42152 0.7894 0
M  V30 12314 O 1147.14 1.71581 0.780519 0
M  V30 12315 C 1144.27 3.22357 1.03942 0
M  V30 12316 C 1143.32 4.24927 0.365994 0
M  V30 12317 S 1144.15 5.28043 -0.890562 0
M  V30 12318 C 1145.31 6.25776 0.124665 0
M  V30 12319 H 1145.54 2.88631 -0.712698 0
M  V30 12320 H 1143.07 1.46607 -0.484344 0
M  V30 12321 H 1145.03 3.77143 1.62091 0
M  V30 12322 H 1143.69 2.61013 1.74732 0
M  V30 12323 H 1142.88 4.9108 1.13388 0
M  V30 12324 H 1142.49 3.73729 -0.142389 0
M  V30 12325 H 1144.78 6.70398 0.978393 0
M  V30 12326 H 1145.72 7.06312 -0.502901 0
M  V30 12327 H 1146.13 5.62466 0.478792 0
M  V30 12328 N 1145.53 0.438773 1.51369 0
M  V30 12329 C 1146.48 -0.386324 2.29369 0
M  V30 12330 C 1147.47 -1.0196 1.3528 0
M  V30 12331 O 1148.68 -0.9544 1.52615 0
M  V30 12332 H 1145.05 -0.143397 0.738201 0
M  V30 12333 H 1147.02 0.292372 2.96964 0
M  V30 12334 C 1145.77 -1.47426 3.14898 0
M  V30 12335 H 1145.09 -0.996335 3.87186 0
M  V30 12336 H 1146.53 -2.02481 3.72529 0
M  V30 12337 C 1144.99 -2.45831 2.30366 0
M  V30 12338 O 1145.52 -3.50398 1.96428 0
M  V30 12339 N 1143.73 -2.16754 1.93561 0
M  V30 12340 H 1143.28 -1.31748 2.2136 0
M  V30 12341 H 1143.23 -2.82836 1.373 0
M  V30 12342 N 1147.01 -1.56678 0.170181 0
M  V30 12343 C 1148.25 -1.96024 -0.475147 0
M  V30 12344 C 1148.57 -1.0588 -1.64465 0
M  V30 12345 O 1149.77 -1.34901 -2.35614 0
M  V30 12346 C 1148.23 -3.4855 -0.896704 0
M  V30 12347 C 1147.84 -4.47318 0.247142 0
M  V30 12348 C 1149.58 -3.96716 -1.51052 0
M  V30 12349 C 1147.49 -5.91082 -0.193982 0
M  V30 12350 H 1146.42 -0.731883 -0.181282 0
M  V30 12351 H 1149.07 -1.81674 0.25823 0
M  V30 12352 H 1147.45 -3.58314 -1.68603 0
M  V30 12353 H 1148.63 -4.49268 1.02445 0
M  V30 12354 H 1146.94 -4.09203 0.770839 0
M  V30 12355 H 1149.54 -5.01581 -1.85258 0
M  V30 12356 H 1149.88 -3.39588 -2.40802 0
M  V30 12357 H 1150.41 -3.89965 -0.785652 0
M  V30 12358 H 1147.15 -6.5208 0.668714 0
M  V30 12359 H 1146.67 -5.92441 -0.936675 0
M  V30 12360 H 1148.35 -6.43844 -0.638237 0
M  V30 12361 N 1148.48 0.103547 -1.57259 0
M  V30 12362 C 1149.76 0.839768 -1.76656 0
M  V30 12363 C 1150.14 1.9734 -0.749666 0
M  V30 12364 O 1149.49 2.27405 0.223466 0
M  V30 12365 C 1149.7 1.34218 -3.22159 0
M  V30 12366 C 1151.05 1.78835 -3.85102 0
M  V30 12367 O 1152.07 1.43861 -3.25857 0
M  V30 12368 O 1150.93 2.43474 -4.89267 0
M  V30 12369 H 1148.02 0.399928 -0.723869 0
M  V30 12370 H 1150.57 0.0860857 -1.69482 0
M  V30 12371 H 1149.34 0.52956 -3.877 0
M  V30 12372 H 1148.96 2.15811 -3.33933 0
M  V30 12373 N 1149.96 1.53094 0.37415 0
M  V30 12374 C 1151.21 1.68861 1.11769 0
M  V30 12375 C 1151.54 0.436032 1.89549 0
M  V30 12376 O 1150.79 -0.581879 1.86849 0
M  V30 12377 C 1151.09 2.88432 2.11049 0
M  V30 12378 C 1150.76 4.25284 1.49814 0
M  V30 12379 C 1149.42 4.62501 1.32841 0
M  V30 12380 C 1151.77 5.10425 1.05433 0
M  V30 12381 C 1149.1 5.82502 0.700567 0
M  V30 12382 C 1151.45 6.31064 0.440525 0
M  V30 12383 C 1150.11 6.67 0.258216 0
M  V30 12384 H 1149.38 0.617906 0.40899 0
M  V30 12385 H 1152.03 1.87265 0.4005 0
M  V30 12386 H 1150.34 2.64505 2.8904 0
M  V30 12387 H 1152.03 2.97825 2.68517 0
M  V30 12388 H 1148.62 3.95976 1.64016 0
M  V30 12389 H 1152.81 4.82229 1.17342 0
M  V30 12390 H 1148.06 6.08942 0.547652 0
M  V30 12391 H 1152.24 6.96344 0.0883962 0
M  V30 12392 H 1149.86 7.59851 -0.230354 0
M  V30 12393 N 1151.44 -0.633461 1.44309 0
M  V30 12394 C 1152.72 -1.3917 1.37444 0
M  V30 12395 C 1153.1 -2.11076 0.0319994 0
M  V30 12396 O 1152.44 -2.06164 -0.98533 0
M  V30 12397 C 1152.65 -2.36005 2.57104 0
M  V30 12398 C 1154 -2.99407 3.01065 0
M  V30 12399 O 1155.03 -2.46331 2.57292 0
M  V30 12400 O 1153.89 -3.95686 3.76954 0
M  V30 12401 H 1150.98 -0.622746 0.544166 0
M  V30 12402 H 1153.53 -0.658712 1.56394 0
M  V30 12403 H 1152.3 -1.81955 3.46422 0
M  V30 12404 H 1151.92 -3.16725 2.40356 0
M  V30 12405 N 1152.92 -1.31168 -0.873655 0
M  V30 12406 C 1154.14 -1.23728 -1.66452 0
M  V30 12407 C 1154.57 0.194869 -1.87088 0
M  V30 12408 O 1153.93 1.1397 -1.40998 0
M  V30 12409 C 1153.97 -1.98285 -3.0119 0
M  V30 12410 O 1153.08 -1.31767 -3.90783 0
M  V30 12411 H 1152.42 -0.427362 -0.508191 0
M  V30 12412 H 1154.95 -1.73176 -1.08955 0
M  V30 12413 H 1154.96 -2.0774 -3.51153 0
M  V30 12414 H 1153.63 -3.02437 -2.8549 0
M  V30 12415 H 1152.21 -1.3074 -3.4923 0
M  V30 12416 N 1154.4 1.08748 -1.14068 0
M  V30 12417 C 1155.64 1.81065 -0.906738 0
M  V30 12418 C 1155.97 1.86057 0.566844 0
M  V30 12419 O 1155.23 1.32976 1.43582 0
M  V30 12420 C 1155.53 3.26734 -1.44843 0
M  V30 12421 C 1155.19 3.41866 -2.94005 0
M  V30 12422 C 1153.85 3.45703 -3.34729 0
M  V30 12423 C 1156.21 3.45831 -3.89937 0
M  V30 12424 C 1153.53 3.51092 -4.70055 0
M  V30 12425 C 1155.89 3.52755 -5.25116 0
M  V30 12426 C 1154.55 3.54863 -5.65357 0
M  V30 12427 H 1153.82 0.662564 -0.331799 0
M  V30 12428 H 1156.47 1.28065 -1.42378 0
M  V30 12429 H 1154.77 3.82419 -0.852239 0
M  V30 12430 H 1156.47 3.81236 -1.2434 0
M  V30 12431 H 1153.06 3.39568 -2.61518 0
M  V30 12432 H 1157.24 3.421 -3.59557 0
M  V30 12433 H 1152.5 3.51015 -5.00598 0
M  V30 12434 H 1156.67 3.54768 -5.9926 0
M  V30 12435 H 1154.3 3.58792 -6.70203 0
M  V30 12436 N 1155.87 0.935264 1.26849 0
M  V30 12437 C 1157.12 0.575467 1.93317 0
M  V30 12438 C 1157.44 -0.88876 1.74242 0
M  V30 12439 O 1158.64 -1.35767 2.35116 0
M  V30 12440 C 1157.1 0.978433 3.46345 0
M  V30 12441 C 1156.71 2.46386 3.74163 0
M  V30 12442 C 1158.45 0.690249 4.18851 0
M  V30 12443 C 1156.36 2.80584 5.20602 0
M  V30 12444 H 1155.29 0.211506 0.723727 0
M  V30 12445 H 1157.94 1.1371 1.44022 0
M  V30 12446 H 1156.32 0.345379 3.94491 0
M  V30 12447 H 1157.49 3.14547 3.36745 0
M  V30 12448 H 1155.81 2.72473 3.14877 0
M  V30 12449 H 1158.41 0.922151 5.26688 0
M  V30 12450 H 1158.75 -0.372805 4.14627 0
M  V30 12451 H 1159.28 1.28275 3.76551 0
M  V30 12452 H 1156.02 3.85828 5.29921 0
M  V30 12453 H 1155.54 2.1708 5.59139 0
M  V30 12454 H 1157.22 2.68732 5.88551 0
M  V30 12455 N 1157.35 -1.41121 0.701616 0
M  V30 12456 C 1158.59 -2.02993 0.239383 0
M  V30 12457 C 1158.96 -1.5439 -1.1414 0
M  V30 12458 O 1160.16 -2.08229 -1.69982 0
M  V30 12459 C 1158.43 -3.56128 0.301232 0
M  V30 12460 S 1159.99 -4.38716 -0.0860681 0
M  V30 12461 H 1156.81 -0.704494 0.0959645 0
M  V30 12462 H 1159.41 -1.72461 0.920736 0
M  V30 12463 H 1158.11 -3.88996 1.30805 0
M  V30 12464 H 1157.64 -3.91371 -0.399069 0
M  V30 12465 H 1159.66 -4.78537 -1.31212 0
M  V30 12466 N 1158.83 -0.446794 -1.51134 0
M  V30 12467 C 1160.07 0.115546 -2.04073 0
M  V30 12468 C 1160.43 1.39137 -1.32306 0
M  V30 12469 O 1161.64 2.03455 -1.75668 0
M  V30 12470 C 1159.91 0.319657 -3.55968 0
M  V30 12471 S 1161.47 0.844045 -4.30606 0
M  V30 12472 H 1158.28 0.0274089 -0.710471 0
M  V30 12473 H 1160.89 -0.608368 -1.85793 0
M  V30 12474 H 1159.59 -0.615082 -4.05765 0
M  V30 12475 H 1159.12 1.07038 -3.78558 0
M  V30 12476 H 1161.14 2.12051 -4.48608 0
M  V30 12477 N 1160.31 1.56586 -0.178487 0
M  V30 12478 C 1161.56 1.97098 0.464617 0
M  V30 12479 C 1161.88 1.06476 1.62767 0
M  V30 12480 O 1161.14 0.100337 1.95443 0
M  V30 12481 C 1161.44 3.43629 0.982552 0
M  V30 12482 C 1161.1 4.50853 -0.0653645 0
M  V30 12483 C 1159.77 4.79901 -0.353349 0
M  V30 12484 C 1162.12 5.15387 -0.776279 0
M  V30 12485 C 1159.45 5.70779 -1.35751 0
M  V30 12486 C 1161.8 6.07349 -1.76948 0
M  V30 12487 C 1160.46 6.34761 -2.06483 0
M  V30 12488 H 1159.73 0.721232 0.170016 0
M  V30 12489 H 1162.38 1.89559 -0.271959 0
M  V30 12490 H 1160.68 3.48155 1.79709 0
M  V30 12491 H 1162.38 3.7232 1.48926 0
M  V30 12492 H 1158.97 4.28266 0.169266 0
M  V30 12493 H 1163.15 4.9305 -0.567008 0
M  V30 12494 H 1158.41 5.90298 -1.59244 0
M  V30 12495 H 1162.58 6.56419 -2.32567 0
M  V30 12496 H 1160.21 7.0498 -2.84441 0
M  V30 12497 N 1161.79 -0.095206 1.57312 0
M  V30 12498 C 1163.03 -0.799903 1.86358 0
M  V30 12499 C 1163.37 -1.78386 0.767593 0
M  V30 12500 O 1162.64 -1.93201 -0.224439 0
M  V30 12501 C 1162.92 -1.52875 3.26039 0
M  V30 12502 C 1162.78 -0.562781 4.46265 0
M  V30 12503 C 1164.1 -2.47935 3.63616 0
M  V30 12504 H 1161.21 -0.289339 0.677829 0
M  V30 12505 H 1163.86 -0.0635369 1.89894 0
M  V30 12506 H 1162.01 -2.15645 3.23156 0
M  V30 12507 H 1163.68 0.0579068 4.61264 0
M  V30 12508 H 1161.92 0.123847 4.33623 0
M  V30 12509 H 1162.59 -1.10989 5.40727 0
M  V30 12510 H 1165.07 -1.95257 3.67442 0
M  V30 12511 H 1163.94 -2.95948 4.62283 0
M  V30 12512 H 1164.21 -3.31687 2.92294 0
M  V30 12513 N 1163.26 -1.53291 -0.366026 0
M  V30 12514 C 1164.68 -1.43053 -0.707669 0
M  V30 12515 C 1164.88 -0.56925 -1.93292 0
M  V30 12516 O 1163.94 -0.0515214 -2.52447 0
M  V30 12517 C 1165.25 -2.86239 -0.921292 0
M  V30 12518 C 1166.8 -2.95868 -1.02133 0
M  V30 12519 C 1167.27 -4.40114 -1.26743 0
M  V30 12520 N 1168.76 -4.43541 -1.33514 0
M  V30 12521 C 1169.5 -5.52259 -1.54264 0
M  V30 12522 N 1168.99 -6.71024 -1.72335 0
M  V30 12523 N 1170.79 -5.39836 -1.5663 0
M  V30 12524 H 1162.94 -2.07795 0.43988 0
M  V30 12525 H 1165.2 -0.938376 0.134736 0
M  V30 12526 H 1164.91 -3.51578 -0.0928042 0
M  V30 12527 H 1164.78 -3.29862 -1.82951 0
M  V30 12528 H 1167.17 -2.30683 -1.84036 0
M  V30 12529 H 1167.25 -2.5564 -0.0905097 0
M  V30 12530 H 1166.89 -5.05872 -0.453409 0
M  V30 12531 H 1166.82 -4.77914 -2.21146 0
M  V30 12532 H 1169.31 -3.57949 -1.21165 0
M  V30 12533 H 1169.63 -7.49649 -1.8774 0
M  V30 12534 H 1167.97 -6.7401 -1.69514 0
M  V30 12535 H 1171.16 -4.46017 -1.4208 0
M  V30 12536 H 1171.34 -6.24629 -1.72461 0
M  V30 12537 N 1164.74 0.6258 -1.44643 0
M  V30 12538 C 1165.67 1.74858 -1.54748 0
M  V30 12539 C 1166.65 1.65327 -0.400138 0
M  V30 12540 O 1167.84 1.84005 -0.620948 0
M  V30 12541 C 1164.97 3.13408 -1.49643 0
M  V30 12542 C 1163.92 3.37733 -2.62908 0
M  V30 12543 C 1163.25 4.76367 -2.42855 0
M  V30 12544 C 1164.55 3.29771 -4.05029 0
M  V30 12545 H 1166.24 1.66658 -2.48728 0
M  V30 12546 H 1163.79 0.800363 -1.19709 0
M  V30 12547 H 1165.74 3.91735 -1.55312 0
M  V30 12548 H 1164.47 3.22404 -0.521824 0
M  V30 12549 H 1163.12 2.61788 -2.56637 0
M  V30 12550 H 1162.77 4.82074 -1.43575 0
M  V30 12551 H 1162.47 4.936 -3.18799 0
M  V30 12552 H 1164 5.56917 -2.50351 0
M  V30 12553 H 1165.41 3.97996 -4.12641 0
M  V30 12554 H 1163.81 3.58538 -4.81218 0
M  V30 12555 H 1164.88 2.27493 -4.28223 0
M  V30 12556 N 1166.22 1.31629 0.866686 0
M  V30 12557 C 1167.13 1.21524 2.00671 0
M  V30 12558 C 1168.15 0.131277 1.73504 0
M  V30 12559 O 1169.32 0.349699 1.98341 0
M  V30 12560 C 1166.39 0.926491 3.34091 0
M  V30 12561 C 1165.45 2.09769 3.7456 0
M  V30 12562 C 1164.68 1.82262 5.01614 0
M  V30 12563 O 1164.9 0.759329 5.65323 0
M  V30 12564 O 1163.84 2.68031 5.38928 0
M  V30 12565 H 1167.66 2.17335 2.1213 0
M  V30 12566 H 1165.25 1.11401 0.995499 0
M  V30 12567 H 1167.13 0.78144 4.14091 0
M  V30 12568 H 1165.81 -0.00155829 3.237 0
M  V30 12569 H 1164.71 2.29816 2.95187 0
M  V30 12570 H 1166.05 3.0081 3.89582 0
M  V30 12571 N 1167.7 -1.08142 1.14644 0
M  V30 12572 C 1168.95 -1.80225 0.914517 0
M  V30 12573 C 1169.27 -1.86778 -0.560269 0
M  V30 12574 O 1168.54 -1.36284 -1.40724 0
M  V30 12575 H 1167.12 -0.667492 0.335356 0
M  V30 12576 H 1169.78 -1.30729 1.44554 0
M  V30 12577 H 1168.88 -2.82958 1.31685 0
M  V30 12578 N 1169.18 -0.941978 -1.26351 0
M  V30 12579 C 1170.11 -0.396486 -2.24729 0
M  V30 12580 C 1171.09 0.51514 -1.54224 0
M  V30 12581 O 1172.27 0.452405 -1.82991 0
M  V30 12582 C 1169.4 0.430232 -3.35956 0
M  V30 12583 C 1168.45 -0.419981 -4.24427 0
M  V30 12584 S 1169.28 -1.84442 -5.02734 0
M  V30 12585 C 1170.43 -1.02578 -6.17437 0
M  V30 12586 H 1170.67 -1.23025 -2.70651 0
M  V30 12587 H 1168.2 -0.745148 -1.35229 0
M  V30 12588 H 1170.16 0.901315 -4.00483 0
M  V30 12589 H 1168.82 1.23868 -2.88644 0
M  V30 12590 H 1168.01 0.213475 -5.03548 0
M  V30 12591 H 1167.61 -0.82578 -3.6477 0
M  V30 12592 H 1169.91 -0.268431 -6.76968 0
M  V30 12593 H 1170.85 -1.79047 -6.85089 0
M  V30 12594 H 1171.26 -0.561488 -5.61701 0
M  V30 12595 N 1170.66 1.40747 -0.709091 0
M  V30 12596 C 1171.9 2.01003 -0.24581 0
M  V30 12597 C 1172.23 1.56203 1.15891 0
M  V30 12598 O 1171.49 0.770166 1.79908 0
M  V30 12599 C 1171.78 3.56404 -0.266685 0
M  V30 12600 C 1171.45 4.20762 -1.6208 0
M  V30 12601 C 1170.11 4.38056 -1.99148 0
M  V30 12602 C 1172.46 4.56723 -2.51105 0
M  V30 12603 C 1169.79 4.88591 -3.248 0
M  V30 12604 C 1172.14 5.08654 -3.76103 0
M  V30 12605 C 1170.81 5.24158 -4.13297 0
M  V30 12606 H 1170.08 0.73552 -0.0899481 0
M  V30 12607 H 1172.73 1.68451 -0.910844 0
M  V30 12608 H 1171.03 3.88825 0.481915 0
M  V30 12609 H 1172.73 4.0085 0.109509 0
M  V30 12610 H 1169.32 4.07685 -1.32252 0
M  V30 12611 H 1173.5 4.43004 -2.23744 0
M  V30 12612 H 1168.76 4.98779 -3.53595 0
M  V30 12613 H 1172.93 5.35457 -4.45262 0
M  V30 12614 H 1170.56 5.63079 -5.10731 0
M  V30 12615 N 1172.13 0.454803 1.50895 0
M  V30 12616 C 1173.55 0.108037 1.59234 0
M  V30 12617 C 1173.75 -1.38416 1.46435 0
M  V30 12618 O 1172.81 -2.15586 1.31449 0
M  V30 12619 C 1174.12 0.643721 2.93729 0
M  V30 12620 C 1175.67 0.605703 3.07083 0
M  V30 12621 C 1176.14 1.11865 4.44128 0
M  V30 12622 N 1177.63 1.07738 4.50496 0
M  V30 12623 C 1178.37 1.44495 5.54895 0
M  V30 12624 N 1177.86 1.88624 6.66628 0
M  V30 12625 N 1179.66 1.36201 5.45349 0
M  V30 12626 H 1171.81 1.4255 1.57459 0
M  V30 12627 H 1174.07 0.588504 0.743214 0
M  V30 12628 H 1173.78 1.68844 3.0852 0
M  V30 12629 H 1173.65 0.0782404 3.77119 0
M  V30 12630 H 1176.04 -0.430065 2.91949 0
M  V30 12631 H 1176.12 1.2078 2.2549 0
M  V30 12632 H 1175.76 2.15297 4.6001 0
M  V30 12633 H 1175.69 0.492933 5.24288 0
M  V30 12634 H 1178.18 0.753526 3.70311 0
M  V30 12635 H 1178.5 2.14863 7.4233 0
M  V30 12636 H 1176.84 1.92564 6.6779 0
M  V30 12637 H 1180.03 1.01579 4.56946 0
M  V30 12638 H 1180.21 1.65175 6.26595 0
M  V30 12639 N 1173.61 -1.56489 0.186789 0
M  V30 12640 C 1174.57 -2.17478 -0.723596 0
M  V30 12641 C 1175.57 -1.12698 -1.14699 0
M  V30 12642 O 1176.76 -1.38128 -1.06143 0
M  V30 12643 C 1173.9 -2.77015 -1.98685 0
M  V30 12644 H 1175.09 -2.99282 -0.192403 0
M  V30 12645 H 1172.64 -1.56174 -0.0628153 0
M  V30 12646 H 1173.38 -1.98987 -2.56076 0
M  V30 12647 H 1173.16 -3.53711 -1.69207 0
M  V30 12648 H 1174.65 -3.23872 -2.63622 0
M  V30 12649 N 1175.09 0.086862 -1.5736 0
M  V30 12650 C 1176.34 0.78884 -1.86504 0
M  V30 12651 C 1176.66 1.78329 -0.77646 0
M  V30 12652 O 1175.92 1.94354 0.229122 0
M  V30 12653 C 1176.22 1.54537 -3.22263 0
M  V30 12654 C 1175.88 0.692284 -4.45554 0
M  V30 12655 C 1174.55 0.45714 -4.79024 0
M  V30 12656 C 1176.9 0.0997695 -5.21105 0
M  V30 12657 C 1174.23 -0.380247 -5.85466 0
M  V30 12658 C 1176.58 -0.724986 -6.28432 0
M  V30 12659 C 1175.24 -0.970144 -6.60412 0
M  V30 12660 H 1174.51 0.288657 -0.682465 0
M  V30 12661 H 1177.16 0.050059 -1.91435 0
M  V30 12662 H 1175.46 2.35594 -3.13053 0
M  V30 12663 H 1177.16 2.09305 -3.42042 0
M  V30 12664 H 1173.75 0.885675 -4.19349 0
M  V30 12665 H 1177.94 0.268583 -4.95573 0
M  V30 12666 H 1173.19 -0.579084 -6.08651 0
M  V30 12667 H 1177.37 -1.19093 -6.86141 0
M  V30 12668 H 1174.99 -1.6208 -7.42721 0
M  V30 12669 N 1176.57 1.53483 0.357892 0
M  V30 12670 C 1177.52 1.76843 1.43911 0
M  V30 12671 C 1178.5 0.623178 1.48342 0
M  V30 12672 O 1179.69 0.882102 1.53453 0
M  V30 12673 C 1176.82 1.96865 2.81246 0
M  V30 12674 C 1175.91 3.17414 2.81263 0
M  V30 12675 N 1176.3 4.39172 2.50921 0
M  V30 12676 C 1174.6 3.18292 3.1242 0
M  V30 12677 C 1175.3 5.20953 2.58811 0
M  V30 12678 N 1174.27 4.57338 2.93841 0
M  V30 12679 H 1178.08 2.68586 1.19327 0
M  V30 12680 H 1175.59 1.52212 0.566142 0
M  V30 12681 H 1177.59 2.11731 3.59132 0
M  V30 12682 H 1176.25 1.06355 3.06788 0
M  V30 12683 H 1177.26 4.66772 2.24376 0
M  V30 12684 H 1173.94 2.37702 3.43226 0
M  V30 12685 H 1175.33 6.28095 2.38633 0
M  V30 12686 N 1178.05 -0.61812 1.44973 0
M  V30 12687 C 1179.01 -1.71135 1.52465 0
M  V30 12688 C 1180.01 -1.5561 0.405246 0
M  V30 12689 O 1181.2 -1.60869 0.668351 0
M  V30 12690 C 1178.33 -3.10324 1.41108 0
M  V30 12691 H 1179.52 -1.65862 2.49859 0
M  V30 12692 H 1177.08 -0.832932 1.32257 0
M  V30 12693 H 1177.81 -3.21183 0.448574 0
M  V30 12694 H 1177.6 -3.23001 2.2229 0
M  V30 12695 H 1179.09 -3.89976 1.49361 0
M  V30 12696 N 1179.52 -1.32087 -0.859693 0
M  V30 12697 C 1180.77 -1.2236 -1.61351 0
M  V30 12698 C 1181.1 0.215796 -1.93299 0
M  V30 12699 O 1180.35 1.16742 -1.57066 0
M  V30 12700 C 1180.65 -2.0234 -2.94607 0
M  V30 12701 C 1180.32 -3.51746 -2.82109 0
M  V30 12702 C 1178.98 -3.92482 -2.78408 0
M  V30 12703 C 1181.33 -4.46776 -2.68403 0
M  V30 12704 C 1178.66 -5.265 -2.58873 0
M  V30 12705 C 1181.01 -5.80931 -2.50404 0
M  V30 12706 C 1179.68 -6.20875 -2.45092 0
M  V30 12707 H 1178.95 -0.447748 -0.590426 0
M  V30 12708 H 1181.59 -1.63461 -0.997637 0
M  V30 12709 H 1179.9 -1.53952 -3.60286 0
M  V30 12710 H 1181.6 -1.92187 -3.51945 0
M  V30 12711 H 1178.19 -3.19389 -2.85812 0
M  V30 12712 H 1182.37 -4.16228 -2.70311 0
M  V30 12713 H 1177.63 -5.5651 -2.53192 0
M  V30 12714 H 1181.8 -6.54185 -2.38777 0
M  V30 12715 H 1179.43 -7.24662 -2.29714 0
M  V30 12716 N 1181 1.07532 -1.15215 0
M  V30 12717 C 1182.28 1.76813 -0.83646 0
M  V30 12718 C 1182.66 2.00242 0.6683 0
M  V30 12719 O 1182.01 1.61941 1.61206 0
M  V30 12720 C 1182.22 3.0779 -1.64519 0
M  V30 12721 C 1183.56 3.82168 -1.85022 0
M  V30 12722 O 1184.59 3.17596 -1.61279 0
M  V30 12723 O 1183.45 4.98135 -2.24775 0
M  V30 12724 H 1180.54 0.767736 -0.307426 0
M  V30 12725 H 1183.09 1.13914 -1.25784 0
M  V30 12726 H 1181.86 2.86342 -2.6669 0
M  V30 12727 H 1181.48 3.78419 -1.22002 0
M  V30 12728 N 1182.48 0.948665 1.2585 0
M  V30 12729 C 1183.43 0.462904 2.2611 0
M  V30 12730 C 1184.4 -0.481433 1.5897 0
M  V30 12731 O 1185.58 -0.395997 1.86645 0
M  V30 12732 C 1182.72 -0.258808 3.44128 0
M  V30 12733 C 1181.84 0.722072 4.25923 0
M  V30 12734 C 1180.97 -0.0215958 5.31196 0
M  V30 12735 C 1180.01 0.950612 6.04673 0
M  V30 12736 N 1179.15 0.238209 7.01696 0
M  V30 12737 H 1183.99 1.32279 2.67032 0
M  V30 12738 H 1181.52 0.663485 1.31287 0
M  V30 12739 H 1183.48 -0.693759 4.11391 0
M  V30 12740 H 1182.11 -1.08278 3.04098 0
M  V30 12741 H 1181.16 1.27552 3.58378 0
M  V30 12742 H 1182.48 1.46421 4.76825 0
M  V30 12743 H 1181.63 -0.51547 6.04506 0
M  V30 12744 H 1180.37 -0.796563 4.81151 0
M  V30 12745 H 1179.37 1.45554 5.30183 0
M  V30 12746 H 1180.6 1.72571 6.56808 0
M  V30 12747 H 1178.54 -0.518129 6.53951 0
M  V30 12748 H 1178.46 0.919542 7.50387 0
M  V30 12749 H 1179.73 -0.234325 7.79148 0
M  V30 12750 N 1183.96 -1.40369 0.716545 0
M  V30 12751 C 1185.24 -1.94737 0.183576 0
M  V30 12752 C 1185.62 -1.65464 -1.31092 0
M  V30 12753 O 1184.96 -0.972832 -2.06756 0
M  V30 12754 C 1185.17 -3.45438 0.497339 0
M  V30 12755 C 1186.52 -4.2235 0.436526 0
M  V30 12756 O 1187.55 -3.53553 0.433454 0
M  V30 12757 O 1186.4 -5.44923 0.41489 0
M  V30 12758 H 1183.5 -0.82655 0.0272785 0
M  V30 12759 H 1186.04 -1.49972 0.794143 0
M  V30 12760 H 1184.82 -3.60107 1.53097 0
M  V30 12761 H 1184.44 -3.97342 -0.143141 0
M  V30 12762 N 1185.44 -0.462799 -1.50652 0
M  V30 12763 C 1186.68 0.0948568 -2.01877 0
M  V30 12764 C 1187.01 1.4096 -1.34741 0
M  V30 12765 O 1186.28 1.89671 -0.49006 0
M  V30 12766 H 1184.86 0.0380453 -0.746031 0
M  V30 12767 H 1187.52 -0.611327 -1.85064 0
M  V30 12768 H 1186.61 0.252378 -3.11078 0
M  V30 12769 N 1186.91 1.56388 -0.195085 0
M  V30 12770 C 1188.19 1.89329 0.491303 0
M  V30 12771 C 1188.57 1.10861 1.79647 0
M  V30 12772 O 1187.92 0.209696 2.27536 0
M  V30 12773 C 1188.13 3.417 0.710096 0
M  V30 12774 C 1189.48 4.11931 1.02947 0
M  V30 12775 O 1190.5 3.4715 0.797817 0
M  V30 12776 O 1189.36 5.26423 1.46767 0
M  V30 12777 H 1186.45 0.786335 0.256137 0
M  V30 12778 H 1189 1.68061 -0.235298 0
M  V30 12779 H 1187.77 3.90727 -0.211604 0
M  V30 12780 H 1187.4 3.6866 1.48916 0
M  V30 12781 N 1188.39 -0.0785156 1.57404 0
M  V30 12782 C 1189.64 -0.777399 1.8655 0
M  V30 12783 C 1189.96 -1.78451 0.786142 0
M  V30 12784 O 1189.23 -1.95016 -0.185911 0
M  V30 12785 H 1187.81 -0.290097 0.688369 0
M  V30 12786 H 1190.47 -0.0562017 1.94819 0
M  V30 12787 H 1189.57 -1.29776 2.83839 0
M  V30 12788 N 1189.87 -1.5367 -0.349747 0
M  V30 12789 C 1191.12 -1.69835 -1.08807 0
M  V30 12790 C 1191.43 -0.46497 -1.89993 0
M  V30 12791 O 1192.64 -0.507452 -2.66716 0
M  V30 12792 C 1191.09 -3.00294 -1.98372 0
M  V30 12793 C 1190.7 -4.30949 -1.22422 0
M  V30 12794 C 1192.45 -3.25826 -2.72099 0
M  V30 12795 C 1190.35 -5.52486 -2.1098 0
M  V30 12796 H 1189.28 -0.63284 -0.409915 0
M  V30 12797 H 1191.93 -1.80171 -0.347968 0
M  V30 12798 H 1190.32 -2.838 -2.76176 0
M  V30 12799 H 1191.49 -4.58126 -0.495707 0
M  V30 12800 H 1189.81 -4.11983 -0.604896 0
M  V30 12801 H 1192.4 -4.13817 -3.38615 0
M  V30 12802 H 1192.75 -2.42566 -3.3833 0
M  V30 12803 H 1193.28 -3.43067 -2.0137 0
M  V30 12804 H 1190.02 -6.38271 -1.49301 0
M  V30 12805 H 1189.54 -5.29566 -2.81638 0
M  V30 12806 H 1191.22 -5.87889 -2.70176 0
M  V30 12807 N 1191.35 0.610423 -1.45298 0
M  V30 12808 C 1192.6 1.36558 -1.48441 0
M  V30 12809 C 1192.91 1.95173 -0.129137 0
M  V30 12810 O 1194.12 2.71473 -0.0381956 0
M  V30 12811 C 1192.57 2.47349 -2.61431 0
M  V30 12812 C 1192.18 1.95158 -4.03258 0
M  V30 12813 C 1193.92 3.24383 -2.73817 0
M  V30 12814 C 1191.83 3.03414 -5.07635 0
M  V30 12815 H 1190.76 0.513253 -0.552347 0
M  V30 12816 H 1193.41 0.654535 -1.7143 0
M  V30 12817 H 1191.79 3.21125 -2.31721 0
M  V30 12818 H 1192.97 1.2811 -4.42634 0
M  V30 12819 H 1191.28 1.30878 -3.95297 0
M  V30 12820 H 1193.88 4.05123 -3.48969 0
M  V30 12821 H 1194.22 3.75205 -1.80352 0
M  V30 12822 H 1194.76 2.57705 -3.03039 0
M  V30 12823 H 1191.5 2.57512 -6.028 0
M  V30 12824 H 1191.02 3.69039 -4.72833 0
M  V30 12825 H 1192.69 3.67844 -5.32259 0
M  V30 12826 N 1192.83 1.32541 0.852676 0
M  V30 12827 C 1193.77 1.21643 1.96142 0
M  V30 12828 C 1194.74 0.0981496 1.6581 0
M  V30 12829 O 1195.93 0.27404 1.88822 0
M  V30 12830 C 1193.07 0.947483 3.31838 0
M  V30 12831 C 1192.18 2.15074 3.74656 0
M  V30 12832 C 1191.32 1.81711 4.99154 0
M  V30 12833 C 1190.36 2.98346 5.34468 0
M  V30 12834 N 1189.49 2.65062 6.50143 0
M  V30 12835 H 1194.33 2.16479 2.04795 0
M  V30 12836 H 1191.87 1.07664 1.00234 0
M  V30 12837 H 1193.83 0.772038 4.09994 0
M  V30 12838 H 1192.46 0.0359112 3.2278 0
M  V30 12839 H 1191.51 2.43639 2.92137 0
M  V30 12840 H 1192.82 3.02314 3.96747 0
M  V30 12841 H 1191.98 1.60729 5.85022 0
M  V30 12842 H 1190.71 0.916875 4.79004 0
M  V30 12843 H 1189.72 3.19956 4.47111 0
M  V30 12844 H 1190.94 3.89104 5.56574 0
M  V30 12845 H 1188.89 1.77582 6.31507 0
M  V30 12846 H 1188.81 3.45832 6.72262 0
M  V30 12847 H 1190.08 2.47516 7.39159 0
M  V30 12848 N 1194.3 -1.0692 1.15784 0
M  V30 12849 C 1195.23 -2.16216 0.881649 0
M  V30 12850 C 1196.22 -1.69253 -0.16951 0
M  V30 12851 O 1197.4 -1.94186 -0.0229511 0
M  V30 12852 C 1194.53 -3.4527 0.374982 0
M  V30 12853 C 1193.48 -4.05706 1.36332 0
M  V30 12854 C 1192.81 -5.29894 0.715317 0
M  V30 12855 C 1194.11 -4.45224 2.7308 0
M  V30 12856 H 1195.8 -2.39577 1.79563 0
M  V30 12857 H 1193.35 -1.15141 0.864784 0
M  V30 12858 H 1195.3 -4.2106 0.169279 0
M  V30 12859 H 1194.03 -3.21508 -0.574485 0
M  V30 12860 H 1192.69 -3.31965 1.55546 0
M  V30 12861 H 1192.33 -5.02425 -0.240436 0
M  V30 12862 H 1192.03 -5.71287 1.37494 0
M  V30 12863 H 1193.56 -6.08386 0.519489 0
M  V30 12864 H 1194.97 -5.12124 2.57686 0
M  V30 12865 H 1193.37 -4.97583 3.35457 0
M  V30 12866 H 1194.44 -3.56384 3.28813 0
M  V30 12867 N 1195.78 -0.955326 -1.25345 0
M  V30 12868 C 1196.73 -0.467205 -2.2786 0
M  V30 12869 C 1197.72 0.462873 -1.62954 0
M  V30 12870 O 1198.93 0.339526 -1.76769 0
M  V30 12871 H 1195.31 -0.132586 -0.74022 0
M  V30 12872 H 1197.28 -1.34406 -2.66416 0
M  V30 12873 C 1196.03 0.238898 -3.46878 0
M  V30 12874 H 1195.35 -0.467644 -3.97056 0
M  V30 12875 H 1196.79 0.544444 -4.2049 0
M  V30 12876 C 1195.25 1.46164 -3.03542 0
M  V30 12877 O 1195.78 2.55933 -3.09615 0
M  V30 12878 N 1193.98 1.32324 -2.58725 0
M  V30 12879 H 1193.53 0.430131 -2.53984 0
M  V30 12880 H 1193.49 2.14253 -2.30094 0
M  V30 12881 N 1197.26 1.39987 -0.723979 0
M  V30 12882 C 1198.51 2.01028 -0.267511 0
M  V30 12883 C 1198.84 1.57295 1.13894 0
M  V30 12884 O 1198.12 0.796805 1.7743 0
M  V30 12885 C 1198.4 3.58326 -0.356971 0
M  V30 12886 C 1198.25 4.12109 -1.8024 0
M  V30 12887 C 1199.57 4.39289 0.267003 0
M  V30 12888 H 1196.69 0.730364 -0.0986775 0
M  V30 12889 H 1199.33 1.66348 -0.91806 0
M  V30 12890 H 1197.48 3.88001 0.196908 0
M  V30 12891 H 1199.15 3.93199 -2.41231 0
M  V30 12892 H 1197.4 3.66082 -2.32737 0
M  V30 12893 H 1198.07 5.21261 -1.81634 0
M  V30 12894 H 1200.54 4.15595 -0.20503 0
M  V30 12895 H 1199.42 5.48624 0.174004 0
M  V30 12896 H 1199.68 4.20931 1.35164 0
M  V30 12897 N 1198.74 0.470782 1.50404 0
M  V30 12898 C 1199.67 -0.313458 2.31386 0
M  V30 12899 C 1200.65 -0.990623 1.38278 0
M  V30 12900 O 1201.84 -0.987854 1.67198 0
M  V30 12901 C 1198.97 -1.39599 3.18009 0
M  V30 12902 C 1197.92 -0.840443 4.19667 0
M  V30 12903 C 1197.25 -2.02124 4.95025 0
M  V30 12904 C 1198.55 0.148055 5.2209 0
M  V30 12905 H 1200.24 0.362432 2.97198 0
M  V30 12906 H 1197.79 0.175745 1.42924 0
M  V30 12907 H 1199.74 -1.9521 3.73458 0
M  V30 12908 H 1198.46 -2.10064 2.50081 0
M  V30 12909 H 1197.12 -0.306302 3.65318 0
M  V30 12910 H 1196.77 -2.71286 4.23571 0
M  V30 12911 H 1196.47 -1.65574 5.6379 0
M  V30 12912 H 1197.99 -2.58226 5.5331 0
M  V30 12913 H 1199.41 -0.318874 5.72413 0
M  V30 12914 H 1197.8 0.427811 5.98573 0
M  V30 12915 H 1198.87 1.07404 4.72855 0
M  V30 12916 N 1200.22 -1.56282 0.203376 0
M  V30 12917 C 1201.13 -2.23086 -0.725922 0
M  V30 12918 C 1202.14 -1.23258 -1.22814 0
M  V30 12919 O 1203.32 -1.5602 -1.27357 0
M  V30 12920 C 1200.38 -2.88358 -1.92485 0
M  V30 12921 C 1199.45 -4.03479 -1.46639 0
M  V30 12922 C 1198.68 -4.65629 -2.60816 0
M  V30 12923 O 1198.9 -4.2672 -3.78506 0
M  V30 12924 O 1197.84 -5.54949 -2.33056 0
M  V30 12925 H 1201.66 -3.03124 -0.18694 0
M  V30 12926 H 1199.25 -1.49377 -0.0262829 0
M  V30 12927 H 1201.13 -3.29623 -2.62539 0
M  V30 12928 H 1199.8 -2.11294 -2.45228 0
M  V30 12929 H 1198.71 -3.66821 -0.734396 0
M  V30 12930 H 1200.04 -4.82232 -0.985535 0
M  V30 12931 N 1201.7 0.070167 -1.57444 0
M  V30 12932 C 1202.94 0.764899 -1.8847 0
M  V30 12933 C 1203.3 1.75104 -0.797264 0
M  V30 12934 O 1202.59 1.9057 0.198411 0
M  V30 12935 C 1202.78 1.5111 -3.23883 0
M  V30 12936 C 1202.61 0.598732 -4.45696 0
M  V30 12937 C 1201.38 0.235066 -5.04753 0
M  V30 12938 C 1203.58 -0.105234 -5.14192 0
M  V30 12939 N 1201.56 -0.682856 -6.1009 0
M  V30 12940 C 1202.93 -0.880286 -6.13719 0
M  V30 12941 C 1204.99 -0.176534 -4.97587 0
M  V30 12942 C 1203.69 -1.72002 -6.98432 0
M  V30 12943 C 1205.72 -1.00324 -5.82828 0
M  V30 12944 C 1205.08 -1.76634 -6.81894 0
M  V30 12945 H 1201.18 0.255278 -0.73916 0
M  V30 12946 H 1203.76 0.0263555 -1.94682 0
M  V30 12947 H 1201.93 2.22036 -3.18676 0
M  V30 12948 H 1203.67 2.15498 -3.42553 0
M  V30 12949 H 1200.42 0.588283 -4.69932 0
M  V30 12950 H 1200.84 -1.13511 -6.67416 0
M  V30 12951 H 1205.49 0.399107 -4.20912 0
M  V30 12952 H 1203.2 -2.30662 -7.74481 0
M  V30 12953 H 1206.79 -1.06141 -5.72036 0
M  V30 12954 H 1205.67 -2.39573 -7.46709 0
M  V30 12955 N 1203.17 1.53854 0.341593 0
M  V30 12956 C 1204.1 1.84966 1.42513 0
M  V30 12957 C 1205.08 0.704944 1.54805 0
M  V30 12958 O 1206.27 0.957036 1.68981 0
M  V30 12959 C 1203.4 2.06099 2.79536 0
M  V30 12960 C 1202.35 3.21919 2.82049 0
M  V30 12961 C 1201.68 3.28389 4.21977 0
M  V30 12962 C 1202.98 4.59984 2.4741 0
M  V30 12963 H 1204.67 2.7571 1.16724 0
M  V30 12964 H 1202.22 1.32662 0.560073 0
M  V30 12965 H 1204.17 2.26448 3.55386 0
M  V30 12966 H 1202.9 1.12087 3.06764 0
M  V30 12967 H 1201.56 3.01429 2.08653 0
M  V30 12968 H 1201.2 2.3197 4.46317 0
M  V30 12969 H 1200.9 4.0622 4.24569 0
M  V30 12970 H 1202.43 3.50951 4.99666 0
M  V30 12971 H 1203.84 4.80334 3.12973 0
M  V30 12972 H 1202.24 5.40233 2.61282 0
M  V30 12973 H 1203.31 4.6346 1.42594 0
M  V30 12974 N 1204.65 -0.602709 1.4562 0
M  V30 12975 C 1205.58 -1.7271 1.50678 0
M  V30 12976 C 1206.6 -1.57884 0.397048 0
M  V30 12977 O 1207.79 -1.65676 0.664367 0
M  V30 12978 C 1204.89 -3.10762 1.35204 0
M  V30 12979 C 1204.06 -3.51782 2.59939 0
M  V30 12980 C 1203.12 -4.68816 2.38952 0
M  V30 12981 O 1202.14 -4.75686 3.12588 0
M  V30 12982 N 1203.35 -5.624 1.43827 0
M  V30 12983 H 1206.11 -1.68833 2.47619 0
M  V30 12984 H 1203.67 -0.788131 1.41422 0
M  V30 12985 H 1205.66 -3.86819 1.18967 0
M  V30 12986 H 1204.23 -3.09119 0.465203 0
M  V30 12987 H 1203.45 -2.65637 2.91257 0
M  V30 12988 H 1204.74 -3.75948 3.42842 0
M  V30 12989 H 1204.14 -5.59568 0.830669 0
M  V30 12990 H 1202.7 -6.37969 1.33561 0
M  V30 12991 N 1206.13 -1.32992 -0.845635 0
M  V30 12992 C 1207.06 -1.25301 -1.97033 0
M  V30 12993 C 1208.04 -0.134966 -1.69564 0
M  V30 12994 O 1209.23 -0.323629 -1.91484 0
M  V30 12995 C 1206.36 -0.984551 -3.33052 0
M  V30 12996 C 1205.31 -2.06481 -3.749 0
M  V30 12997 C 1204.64 -1.6486 -5.08651 0
M  V30 12998 C 1205.94 -3.48083 -3.89404 0
M  V30 12999 H 1207.63 -2.194 -2.03725 0
M  V30 13000 H 1205.18 -1.05621 -0.978783 0
M  V30 13001 H 1207.13 -0.917269 -4.11296 0
M  V30 13002 H 1205.85 -0.00793116 -3.26599 0
M  V30 13003 H 1204.51 -2.1224 -2.98915 0
M  V30 13004 H 1204.16 -0.659183 -4.98662 0
M  V30 13005 H 1203.86 -2.37145 -5.37621 0
M  V30 13006 H 1205.38 -1.59585 -5.89377 0
M  V30 13007 H 1206.8 -3.44863 -4.57976 0
M  V30 13008 H 1205.19 -4.18796 -4.29802 0
M  V30 13009 H 1206.26 -3.87084 -2.92051 0
M  V30 13010 N 1207.61 1.06304 -1.1635 0
M  V30 13011 C 1208.84 1.82799 -0.96913 0
M  V30 13012 C 1209.25 1.82526 0.482659 0
M  V30 13013 O 1208.61 1.24437 1.33498 0
M  V30 13014 C 1208.66 3.29417 -1.48884 0
M  V30 13015 O 1208.38 3.29803 -2.88377 0
M  V30 13016 C 1209.88 4.22642 -1.33748 0
M  V30 13017 H 1207.1 0.576388 -0.343537 0
M  V30 13018 H 1209.64 1.34122 -1.54375 0
M  V30 13019 H 1207.8 3.75406 -0.956509 0
M  V30 13020 H 1208.21 4.21486 -3.1217 0
M  V30 13021 H 1209.69 5.23545 -1.74942 0
M  V30 13022 H 1210.16 4.38287 -0.283021 0
M  V30 13023 H 1210.77 3.82499 -1.85942 0
M  V30 13024 N 1209.09 0.96196 1.24836 0
M  V30 13025 C 1210.02 0.432188 2.2407 0
M  V30 13026 C 1211 -0.490539 1.55024 0
M  V30 13027 O 1212.18 -0.423236 1.83687 0
M  V30 13028 C 1209.31 -0.37673 3.36598 0
M  V30 13029 C 1208.35 0.48745 4.23705 0
M  V30 13030 S 1209.19 1.92417 4.99736 0
M  V30 13031 C 1210.34 1.12388 6.15727 0
M  V30 13032 H 1210.58 1.27315 2.6866 0
M  V30 13033 H 1208.11 0.766568 1.34026 0
M  V30 13034 H 1210.07 -0.837488 4.01866 0
M  V30 13035 H 1208.73 -1.1926 2.90579 0
M  V30 13036 H 1207.92 -0.133338 5.03824 0
M  V30 13037 H 1207.52 0.883707 3.6341 0
M  V30 13038 H 1209.81 0.376097 6.76455 0
M  V30 13039 H 1210.76 1.89924 6.82154 0
M  V30 13040 H 1211.17 0.650779 5.60736 0
M  V30 13041 N 1210.56 -1.39601 0.731392 0
M  V30 13042 C 1211.79 -2.0459 0.287472 0
M  V30 13043 C 1212.2 -1.5525 -1.08139 0
M  V30 13044 O 1211.54 -0.710949 -1.69385 0
M  V30 13045 C 1211.61 -3.58904 0.206948 0
M  V30 13046 C 1211.27 -4.31204 1.51368 0
M  V30 13047 C 1212.27 -4.58088 2.45869 0
M  V30 13048 C 1209.95 -4.69818 1.77698 0
M  V30 13049 C 1211.95 -5.22591 3.64935 0
M  V30 13050 C 1209.63 -5.34049 2.97043 0
M  V30 13051 C 1210.63 -5.60368 3.90483 0
M  V30 13052 O 1210.32 -6.23268 5.07732 0
M  V30 13053 H 1210.05 -0.664515 0.12408 0
M  V30 13054 H 1212.61 -1.79701 0.994814 0
M  V30 13055 H 1210.84 -3.82675 -0.556466 0
M  V30 13056 H 1212.52 -4.05385 -0.204498 0
M  V30 13057 H 1213.29 -4.28706 2.26796 0
M  V30 13058 H 1209.17 -4.48692 1.05815 0
M  V30 13059 H 1212.71 -5.43049 4.37885 0
M  V30 13060 H 1208.61 -5.62852 3.16018 0
M  V30 13061 H 1209.38 -6.41763 5.08019 0
M  V30 13062 N 1212.04 -0.478751 -1.50152 0
M  V30 13063 C 1213.01 0.300181 -2.27226 0
M  V30 13064 C 1214.01 0.913705 -1.32318 0
M  V30 13065 O 1215.2 0.781692 -1.55677 0
M  V30 13066 C 1212.33 1.42838 -3.09532 0
M  V30 13067 H 1213.52 -0.375845 -2.97536 0
M  V30 13068 H 1211.07 -0.233037 -1.54553 0
M  V30 13069 H 1211.81 2.13923 -2.43737 0
M  V30 13070 H 1211.59 0.994161 -3.79287 0
M  V30 13071 H 1213.08 1.97765 -3.67802 0
M  V30 13072 O 1213.56 1.57592 -0.35315 0
M  V30 13073 H 1214.25 1.92662 0.200218 0
M  V30 END ATOM
M  V30 BEGIN BOND
M  V30 END BOND
M  V30 END CTAB
M  END
$$$$
