drugbank_target|P20963 T-cell surface glycoprotein CD3 zeta chain (DB00075)
 OpenBabel12092120323D

  0  0  0     0  0            999 V3000
M  V30 BEGIN CTAB
M  V30 COUNTS 2642 2667 0 0 0
M  V30 BEGIN ATOM
M  V30 1 H -0.908 1.98254 -0.117106 0
M  V30 2 N 0 1.576 0 0
M  V30 3 C 0.933 2.03868 1.02534 0
M  V30 4 C 1.911 0.928543 1.3348 0
M  V30 5 O 3.095 1.19667 1.45644 0
M  V30 6 C 0.222 2.43627 2.35294 0
M  V30 7 C -0.732 3.65373 2.2001 0
M  V30 8 S 0.101 5.13292 1.52614 0
M  V30 9 C 1.257 5.56322 2.86805 0
M  V30 10 H 1.49 2.90518 0.631377 0
M  V30 11 H -0.977 1.52953 0.210867 0
M  V30 12 H 0.981 2.67203 3.11629 0
M  V30 13 H -0.358 1.57376 2.7183 0
M  V30 14 H -1.165 3.90944 3.18086 0
M  V30 15 H -1.563 3.418 1.51819 0
M  V30 16 H 0.729 5.58782 3.83104 0
M  V30 17 H 1.672 6.56266 2.65933 0
M  V30 18 H 2.08 4.83886 2.90714 0
M  V30 19 N 1.4781 -0.272755 1.55222 0
M  V30 20 C 2.4251 -1.33716 1.88119 0
M  V30 21 C 3.3951 -1.49066 0.73271 0
M  V30 22 O 4.5801 -1.63469 0.984002 0
M  V30 23 C 1.7201 -2.69238 2.15882 0
M  V30 24 C 0.8331 -2.62108 3.43399 0
M  V30 25 C -0.0319 -3.89811 3.60861 0
M  V30 26 C -0.9929 -3.77193 4.8207 0
M  V30 27 N -1.8559 -4.9673 4.96189 0
M  V30 28 H 2.9841 -1.04962 2.78903 0
M  V30 29 H 0.5211 -0.507088 1.38083 0
M  V30 30 H 2.4791 -3.48089 2.29978 0
M  V30 31 H 1.1091 -2.96194 1.28331 0
M  V30 32 H 0.1611 -1.74967 3.37773 0
M  V30 33 H 1.4731 -2.48685 4.32386 0
M  V30 34 H 0.6271 -4.77103 3.74777 0
M  V30 35 H -0.6339 -4.06102 2.7006 0
M  V30 36 H -1.6289 -2.88284 4.68159 0
M  V30 37 H -0.4039 -3.62421 5.74307 0
M  V30 38 H -2.4579 -5.13431 4.08319 0
M  V30 39 H -2.5409 -4.85839 5.79221 0
M  V30 40 H -1.2729 -5.85594 5.1449 0
M  V30 41 N 2.9562 -1.48159 -0.537278 0
M  V30 42 C 4.2022 -1.57015 -1.29297 0
M  V30 43 C 4.5572 -0.237791 -1.90925 0
M  V30 44 O 3.8502 0.758621 -1.75942 0
M  V30 45 C 4.0442 -2.63956 -2.40961 0
M  V30 46 C 3.8732 -4.07461 -1.90278 0
M  V30 47 C 2.6432 -4.74685 -1.73213 0
M  V30 48 C 4.8412 -4.93858 -1.43556 0
M  V30 49 N 2.8232 -6.02633 -1.17078 0
M  V30 50 C 4.1942 -6.11993 -0.993204 0
M  V30 51 C 6.2492 -4.80141 -1.31792 0
M  V30 52 C 4.9522 -7.17923 -0.444872 0
M  V30 53 C 6.9782 -5.86186 -0.783585 0
M  V30 54 C 6.3402 -7.03524 -0.351261 0
M  V30 55 H 2.4392 -0.629154 -0.464423 0
M  V30 56 H 5.0232 -1.85006 -0.606705 0
M  V30 57 H 3.1942 -2.378 -3.07093 0
M  V30 58 H 4.9262 -2.62539 -3.07986 0
M  V30 59 H 1.6812 -4.30902 -1.9652 0
M  V30 60 H 2.1052 -6.7085 -0.910421 0
M  V30 61 H 6.7472 -3.89772 -1.63823 0
M  V30 62 H 4.4652 -8.08022 -0.11222 0
M  V30 63 H 8.0512 -5.77624 -0.695835 0
M  V30 64 H 6.9312 -7.8418 0.055777 0
M  V30 65 N 4.4343 0.785586 -1.36625 0
M  V30 66 C 5.3813 1.89838 -1.31264 0
M  V30 67 C 6.3513 1.65115 -0.180633 0
M  V30 68 O 7.5363 1.87222 -0.36777 0
M  V30 69 C 4.6763 3.26706 -1.11163 0
M  V30 70 C 3.7893 3.63476 -2.33472 0
M  V30 71 C 2.9243 4.89481 -2.06353 0
M  V30 72 C 1.9633 5.18941 -3.24602 0
M  V30 73 N 1.1003 6.36131 -2.97123 0
M  V30 74 H 5.9403 1.93756 -2.26413 0
M  V30 75 H 3.4773 0.947454 -1.12524 0
M  V30 76 H 5.4353 4.05639 -0.975337 0
M  V30 77 H 4.0653 3.222 -0.196674 0
M  V30 78 H 3.1173 2.79636 -2.57891 0
M  V30 79 H 4.4293 3.81193 -3.21704 0
M  V30 80 H 3.5833 5.76288 -1.89675 0
M  V30 81 H 2.3223 4.73841 -1.15437 0
M  V30 82 H 1.3273 4.30615 -3.41834 0
M  V30 83 H 2.5523 5.36498 -4.16349 0
M  V30 84 H 0.4983 6.21875 -2.08823 0
M  V30 85 H 0.4153 6.54198 -3.78894 0
M  V30 86 H 1.6833 7.2591 -2.84033 0
M  V30 87 N 5.9124 1.20967 1.01018 0
M  V30 88 C 6.8754 0.965918 2.07853 0
M  V30 89 C 7.8754 -0.0610545 1.60684 0
M  V30 90 O 9.0654 0.175681 1.73312 0
M  V30 91 C 6.1974 0.455513 3.37843 0
M  V30 92 H 7.3904 1.91365 2.3091 0
M  V30 93 H 4.9434 1.02594 1.17916 0
M  V30 94 H 5.6784 -0.497381 3.20463 0
M  V30 95 H 5.4634 1.19622 3.73407 0
M  V30 96 H 6.9534 0.304667 4.16487 0
M  V30 97 N 7.3905 -1.2043 1.01659 0
M  V30 98 C 8.3205 -2.25466 0.607226 0
M  V30 99 C 9.3015 -1.65853 -0.377716 0
M  V30 100 O 10.4865 -1.92409 -0.263149 0
M  V30 101 C 7.6165 -3.47256 -0.0552949 0
M  V30 102 C 6.5705 -4.19462 0.850632 0
M  V30 103 C 5.8965 -5.34673 0.0538859 0
M  V30 104 C 7.1965 -4.75603 2.15868 0
M  V30 105 H 8.8905 -2.59962 1.48526 0
M  V30 106 H 6.4365 -1.2496 0.715605 0
M  V30 107 H 8.3895 -4.19917 -0.353233 0
M  V30 108 H 7.1135 -3.11924 -0.968045 0
M  V30 109 H 5.7725 -3.48667 1.13257 0
M  V30 110 H 5.4205 -4.95585 -0.860514 0
M  V30 111 H 5.1205 -5.83913 0.657192 0
M  V30 112 H 6.6445 -6.10138 -0.237598 0
M  V30 113 H 8.0585 -5.40083 1.92311 0
M  V30 114 H 6.4555 -5.3528 2.71284 0
M  V30 115 H 7.5255 -3.94346 2.82169 0
M  V30 116 N 8.8686 -0.792821 -1.36206 0
M  V30 117 C 10.1156 -0.366786 -1.99151 0
M  V30 118 C 10.4436 1.06243 -1.62919 0
M  V30 119 O 9.6986 1.74927 -0.877442 0
M  V30 120 C 9.9976 -0.481501 -3.54142 0
M  V30 121 C 9.6636 -1.87202 -4.10203 0
M  V30 122 C 8.3256 -2.25248 -4.25226 0
M  V30 123 C 10.6776 -2.78237 -4.40719 0
M  V30 124 C 8.0056 -3.53723 -4.68078 0
M  V30 125 C 10.3576 -4.06144 -4.85005 0
M  V30 126 C 9.0216 -4.44207 -4.98234 0
M  V30 127 H 8.2916 -0.134217 -0.728743 0
M  V30 128 H 10.9386 -1.01094 -1.62641 0
M  V30 129 H 9.2436 0.246146 -3.91026 0
M  V30 130 H 10.9406 -0.132844 -4.0078 0
M  V30 131 H 7.5306 -1.56639 -3.98951 0
M  V30 132 H 11.7146 -2.50097 -4.28679 0
M  V30 133 H 6.9706 -3.8308 -4.76508 0
M  V30 134 H 11.1446 -4.76796 -5.07581 0
M  V30 135 H 8.7716 -5.43814 -5.31197 0
M  V30 136 N 10.3467 1.47872 -0.545128 0
M  V30 137 C 11.5747 2.06889 -0.021084 0
M  V30 138 C 11.9897 1.39955 1.2672 0
M  V30 139 O 11.3467 0.492036 1.75742 0
M  V30 140 C 11.3977 3.60996 0.190817 0
M  V30 141 O 11.1187 4.25419 -1.04644 0
M  V30 142 C 12.6197 4.36849 0.753521 0
M  V30 143 H 9.8397 0.669785 -0.0403635 0
M  V30 144 H 12.3837 1.90049 -0.755095 0
M  V30 145 H 10.5387 3.77391 0.87492 0
M  V30 146 H 10.9527 5.17785 -0.836611 0
M  V30 147 H 12.4267 5.45399 0.851139 0
M  V30 148 H 12.9037 4.02306 1.762 0
M  V30 149 H 13.5097 4.25169 0.105503 0
M  V30 150 N 11.8248 0.280983 1.55075 0
M  V30 151 C 12.7878 -0.590896 2.21452 0
M  V30 152 C 13.7878 -1.07682 1.19421 0
M  V30 153 O 14.9778 -0.97605 1.44288 0
M  V30 154 C 12.1098 -1.81587 2.88511 0
M  V30 155 H 13.3028 -0.0112554 2.99898 0
M  V30 156 H 10.8558 0.0316438 1.56268 0
M  V30 157 H 11.5908 -2.43587 2.14093 0
M  V30 158 H 11.3758 -1.4753 3.63287 0
M  V30 159 H 12.8658 -2.43575 3.39206 0
M  V30 160 N 13.3029 -1.57598 0.00835791 0
M  V30 161 C 14.2659 -2.07884 -0.965242 0
M  V30 162 C 15.2659 -0.989825 -1.26725 0
M  V30 163 O 16.4559 -1.25218 -1.21104 0
M  V30 164 C 13.5879 -2.52731 -2.28779 0
M  V30 165 H 14.7809 -2.95178 -0.530112 0
M  V30 166 H 12.3339 -1.54458 -0.239283 0
M  V30 167 H 13.0689 -1.68705 -2.76964 0
M  V30 168 H 12.8539 -3.32272 -2.08177 0
M  V30 169 H 14.3439 -2.91933 -2.98605 0
M  V30 170 N 14.781 0.264519 -1.55364 0
M  V30 171 C 16.03 0.992812 -1.75574 0
M  V30 172 C 16.343 1.87142 -0.568979 0
M  V30 173 O 17.549 2.63513 -0.653682 0
M  V30 174 C 16.005 1.81519 -3.10771 0
M  V30 175 C 15.613 0.984839 -4.37041 0
M  V30 176 C 17.357 2.53727 -3.40327 0
M  V30 177 C 15.264 1.80209 -5.63275 0
M  V30 178 H 14.194 0.374412 -0.65447 0
M  V30 179 H 16.845 0.248138 -1.81815 0
M  V30 180 H 15.227 2.60115 -2.98591 0
M  V30 181 H 16.401 0.242455 -4.60162 0
M  V30 182 H 14.716 0.37691 -4.14691 0
M  V30 183 H 17.313 3.15292 -4.3185 0
M  V30 184 H 17.656 3.24447 -2.60845 0
M  V30 185 H 18.189 1.82156 -3.53644 0
M  V30 186 H 14.928 1.13896 -6.45529 0
M  V30 187 H 14.448 2.52022 -5.44284 0
M  V30 188 H 16.127 2.37364 -6.01887 0
M  V30 189 N 16.2591 1.48442 0.529413 0
M  V30 190 C 17.1891 1.65902 1.64313 0
M  V30 191 C 18.1701 0.507897 1.6234 0
M  V30 192 O 19.3551 0.740503 1.79528 0
M  V30 193 C 16.4851 1.69911 3.02898 0
M  V30 194 C 15.4391 2.8453 3.19729 0
M  V30 195 C 14.7651 2.73629 4.59381 0
M  V30 196 C 16.0651 4.25821 3.02447 0
M  V30 197 H 17.7591 2.5914 1.49955 0
M  V30 198 H 15.3051 1.24709 0.719982 0
M  V30 199 H 17.2581 1.80715 3.80684 0
M  V30 200 H 15.9821 0.732524 3.18279 0
M  V30 201 H 14.6411 2.73283 2.44361 0
M  V30 202 H 14.2891 1.74938 4.71599 0
M  V30 203 H 13.9891 3.50541 4.71588 0
M  V30 204 H 15.5131 2.86401 5.39265 0
M  V30 205 H 16.9271 4.37898 3.70024 0
M  V30 206 H 15.3241 5.03735 3.26146 0
M  V30 207 H 16.3941 4.42244 1.98867 0
M  V30 208 N 17.7372 -0.778329 1.37039 0
M  V30 209 C 18.6692 -1.90034 1.2814 0
M  V30 210 C 19.6822 -1.61585 0.198558 0
M  V30 211 O 20.8712 -1.72625 0.454175 0
M  V30 212 C 17.9712 -3.25108 0.956968 0
M  V30 213 C 17.1442 -3.81253 2.14394 0
M  V30 214 C 16.2032 -4.94789 1.79082 0
M  V30 215 O 15.2292 -5.10721 2.51301 0
M  V30 216 N 16.4312 -5.75878 0.731043 0
M  V30 217 H 19.1962 -1.98186 2.24816 0
M  V30 218 H 16.7572 -0.957129 1.30578 0
M  V30 219 H 18.7492 -3.9857 0.701701 0
M  V30 220 H 17.3192 -3.125 0.0789812 0
M  V30 221 H 16.5392 -2.99647 2.56135 0
M  V30 222 H 17.8272 -4.15495 2.93668 0
M  V30 223 H 17.2252 -5.65547 0.131618 0
M  V30 224 H 15.7822 -6.49596 0.535622 0
M  V30 225 N 19.2153 -1.21501 -1.00376 0
M  V30 226 C 20.1783 -0.976927 -2.07337 0
M  V30 227 C 21.1783 0.0525322 -1.60714 0
M  V30 228 O 22.3683 -0.184869 -1.73216 0
M  V30 229 C 19.5003 -0.473423 -3.37597 0
M  V30 230 H 20.6933 -1.92587 -2.29892 0
M  V30 231 H 18.2463 -1.03217 -1.17371 0
M  V30 232 H 18.9813 0.480379 -3.20722 0
M  V30 233 H 18.7663 -1.216 -3.72768 0
M  V30 234 H 20.2563 -0.32675 -4.1632 0
M  V30 235 N 20.6934 1.19889 -1.02296 0
M  V30 236 C 21.6254 2.22334 -0.556787 0
M  V30 237 C 22.6384 1.58674 0.364199 0
M  V30 238 O 23.8274 1.77768 0.161533 0
M  V30 239 C 20.9274 3.38257 0.208694 0
M  V30 240 C 20.1004 4.31504 -0.71577 0
M  V30 241 C 19.1594 5.262 0.00325597 0
M  V30 242 O 18.1854 5.65798 -0.621357 0
M  V30 243 N 19.3874 5.66303 1.27599 0
M  V30 244 H 22.1524 2.62957 -1.43784 0
M  V30 245 H 19.7134 1.34495 -0.901261 0
M  V30 246 H 21.7054 3.98616 0.699111 0
M  V30 247 H 20.2754 2.96472 0.991102 0
M  V30 248 H 19.4954 3.69016 -1.38638 0
M  V30 249 H 20.7834 4.9072 -1.34428 0
M  V30 250 H 20.1814 5.36155 1.80429 0
M  V30 251 H 18.7384 6.28942 1.71102 0
M  V30 252 N 22.1715 0.800033 1.35784 0
M  V30 253 C 23.1015 0.220184 2.3246 0
M  V30 254 C 24.0825 -0.65073 1.57161 0
M  V30 255 O 25.2675 -0.582359 1.85263 0
M  V30 256 C 22.3975 -0.637353 3.41402 0
M  V30 257 C 21.3515 0.134531 4.27789 0
M  V30 258 C 20.6775 -0.844285 5.27992 0
M  V30 259 C 21.9775 1.32979 5.05088 0
M  V30 260 H 23.6715 1.02787 2.81203 0
M  V30 261 H 21.2175 0.495717 1.35199 0
M  V30 262 H 23.1705 -1.05302 4.08031 0
M  V30 263 H 21.8945 -1.47785 2.91251 0
M  V30 264 H 20.5535 0.531296 3.6273 0
M  V30 265 H 20.2015 -1.68011 4.74111 0
M  V30 266 H 19.9015 -0.332184 5.8666 0
M  V30 267 H 21.4255 -1.2583 5.97494 0
M  V30 268 H 22.8395 0.98934 5.64699 0
M  V30 269 H 21.2365 1.77593 5.7322 0
M  V30 270 H 22.3065 2.11978 4.36111 0
M  V30 271 N 23.6496 -1.47581 0.552962 0
M  V30 272 C 25.0606 -1.86324 0.118463 0
M  V30 273 C 25.4116 -1.46006 -1.3106 0
M  V30 274 O 24.5366 -0.861182 -1.98526 0
M  V30 275 C 25.1316 -3.3816 0.20821 0
M  V30 276 C 23.6906 -3.7601 -0.171226 0
M  V30 277 C 22.8376 -2.71634 0.557686 0
M  V30 278 H 25.7886 -1.39159 0.762928 0
M  V30 279 H 25.8096 -3.76141 -0.574278 0
M  V30 280 H 25.3216 -3.67473 1.24841 0
M  V30 281 H 23.4226 -3.52313 -1.21269 0
M  V30 282 H 23.5356 -4.78745 0.184379 0
M  V30 283 H 21.8996 -2.547 0.00125792 0
M  V30 284 H 22.6826 -3.0379 1.59896 0
M  V30 285 N 25.1277 -0.289203 -1.54924 0
M  V30 286 C 26.3767 0.324231 -1.99077 0
M  V30 287 C 26.6897 1.5591 -1.18117 0
M  V30 288 O 27.8957 2.24637 -1.52481 0
M  V30 289 C 26.3517 0.628209 -3.54375 0
M  V30 290 C 25.9597 -0.587647 -4.44129 0
M  V30 291 C 27.7037 1.20349 -4.07083 0
M  V30 292 C 25.6107 -0.257475 -5.90839 0
M  V30 293 H 24.5407 0.124924 -0.743579 0
M  V30 294 H 27.1917 -0.396063 -1.79175 0
M  V30 295 H 25.5737 1.40778 -3.70132 0
M  V30 296 H 26.7477 -1.36418 -4.40144 0
M  V30 297 H 25.0627 -1.08074 -4.0213 0
M  V30 298 H 27.6597 1.46456 -5.14252 0
M  V30 299 H 28.0027 2.14195 -3.56968 0
M  V30 300 H 28.5357 0.485889 -3.94821 0
M  V30 301 H 25.2747 -1.16419 -6.45079 0
M  V30 302 H 24.7947 0.482018 -5.9786 0
M  V30 303 H 26.4737 0.145238 -6.46837 0
M  V30 304 N 26.6058 1.57591 -0.0167156 0
M  V30 305 C 27.8338 1.95575 0.675128 0
M  V30 306 C 28.2488 0.892542 1.6637 0
M  V30 307 O 27.6058 -0.126912 1.82058 0
M  V30 308 C 27.6568 3.33608 1.39239 0
M  V30 309 O 27.3778 4.3585 0.443444 0
M  V30 310 C 28.8788 3.86151 2.17721 0
M  V30 311 H 26.0988 0.644423 0.186978 0
M  V30 312 H 28.6428 2.0437 -0.0728 0
M  V30 313 H 26.7978 3.2607 2.09182 0
M  V30 314 H 27.2118 5.158 0.951358 0
M  V30 315 H 28.6858 4.85114 2.63379 0
M  V30 316 H 29.1628 3.19738 3.01105 0
M  V30 317 H 29.7688 3.96918 1.52761 0
M  V30 318 N 28.0839 -0.256276 1.55502 0
M  V30 319 C 28.9939 -1.33882 1.92647 0
M  V30 320 C 30.0099 -1.53159 0.825727 0
M  V30 321 O 31.1859 -1.66963 1.12629 0
M  V30 322 C 28.2509 -2.6751 2.20543 0
M  V30 323 C 27.3119 -2.56836 3.43997 0
M  V30 324 C 26.5449 -3.84092 3.70553 0
M  V30 325 O 26.7679 -4.85545 2.99336 0
M  V30 326 O 25.7019 -3.83288 4.64084 0
M  V30 327 H 29.5279 -1.05374 2.84833 0
M  V30 328 H 27.1129 -0.456237 1.42263 0
M  V30 329 H 28.9949 -3.46492 2.39835 0
M  V30 330 H 27.6699 -2.9577 1.31536 0
M  V30 331 H 26.5769 -1.76172 3.30021 0
M  V30 332 H 27.9099 -2.33523 4.33275 0
M  V30 333 N 29.562 -1.4872 -0.521534 0
M  V30 334 C 30.525 -1.63379 -1.60748 0
M  V30 335 C 31.525 -0.50661 -1.52611 0
M  V30 336 O 32.715 -0.772601 -1.5613 0
M  V30 337 C 29.847 -1.61192 -3.00383 0
M  V30 338 H 31.04 -2.60217 -1.49087 0
M  V30 339 H 28.593 -1.37444 -0.744235 0
M  V30 340 H 29.328 -0.65863 -3.17541 0
M  V30 341 H 29.113 -2.43032 -3.07698 0
M  V30 342 H 30.603 -1.7466 -3.7932 0
M  V30 343 N 31.0401 0.771051 -1.3745 0
M  V30 344 C 31.9721 1.89352 -1.29146 0
M  V30 345 C 32.9851 1.61477 -0.207124 0
M  V30 346 O 34.1741 1.72382 -0.463324 0
M  V30 347 C 31.2741 3.24596 -0.974195 0
M  V30 348 C 30.4471 3.80111 -2.16413 0
M  V30 349 C 29.5061 4.93832 -1.81703 0
M  V30 350 O 28.5321 5.09382 -2.54006 0
M  V30 351 N 29.7341 5.75483 -0.761573 0
M  V30 352 H 32.4991 1.96991 -2.25864 0
M  V30 353 H 30.0601 0.950191 -1.31084 0
M  V30 354 H 32.0521 3.98193 -0.722828 0
M  V30 355 H 30.6221 3.12454 -0.0955527 0
M  V30 356 H 29.8421 2.98284 -2.57721 0
M  V30 357 H 31.1301 4.13932 -2.95867 0
M  V30 358 H 30.5281 5.65469 -0.161609 0
M  V30 359 H 29.0851 6.49302 -0.570064 0
M  V30 360 N 32.5182 1.22032 0.997298 0
M  V30 361 C 33.7432 1.06921 1.77715 0
M  V30 362 C 34.1682 -0.376226 1.84299 0
M  V30 363 O 33.5262 -1.27165 1.29223 0
M  V30 364 C 33.5742 1.67996 3.19076 0
M  V30 365 O 32.6782 0.930653 4.01762 0
M  V30 366 H 32.0192 0.375814 0.547412 0
M  V30 367 H 34.5492 1.61737 1.25309 0
M  V30 368 H 34.5592 1.72538 3.69723 0
M  V30 369 H 33.2342 2.73182 3.13599 0
M  V30 370 H 31.8112 0.960917 3.60307 0
M  V30 371 N 33.9963 -1.19345 1.0293 0
M  V30 372 C 35.2433 -1.89038 0.726008 0
M  V30 373 C 35.5713 -1.79649 -0.745427 0
M  V30 374 O 34.8263 -1.18354 -1.55855 0
M  V30 375 C 35.1253 -3.39292 1.12319 0
M  V30 376 C 34.7913 -3.68885 2.59297 0
M  V30 377 C 33.4533 -3.76671 2.99453 0
M  V30 378 C 35.8053 -3.82178 3.54386 0
M  V30 379 C 33.1333 -3.9522 4.33611 0
M  V30 380 C 35.4853 -4.0224 4.88248 0
M  V30 381 C 34.1493 -4.08259 5.28092 0
M  V30 382 H 33.4193 -0.691739 0.265665 0
M  V30 383 H 36.0663 -1.41328 1.29223 0
M  V30 384 H 34.3713 -3.88903 0.475584 0
M  V30 385 H 36.0683 -3.91536 0.866037 0
M  V30 386 H 32.6583 -3.63433 2.27189 0
M  V30 387 H 36.8423 -3.75505 3.24514 0
M  V30 388 H 32.0983 -3.98119 4.64016 0
M  V30 389 H 36.2723 -4.11468 5.61843 0
M  V30 390 H 33.8993 -4.22384 6.32057 0
M  V30 391 N 35.4744 -0.807222 -1.35358 0
M  V30 392 C 36.7224 -0.387122 -1.98358 0
M  V30 393 C 37.0434 1.04942 -1.64354 0
M  V30 394 O 36.3134 1.72615 -0.926339 0
M  V30 395 H 34.8934 -0.140154 -0.733734 0
M  V30 396 H 37.5554 -1.0332 -1.6526 0
M  V30 397 H 36.6514 -0.493352 -3.08176 0
M  V30 398 N 36.9525 1.47285 -0.560781 0
M  V30 399 C 37.8825 2.32857 0.173105 0
M  V30 400 C 38.8635 1.44009 0.905281 0
M  V30 401 O 40.0485 1.7286 0.885046 0
M  V30 402 C 37.1785 3.25861 1.20133 0
M  V30 403 C 36.1325 4.23978 0.585388 0
M  V30 404 C 35.4585 5.06332 1.7185 0
M  V30 405 C 36.7585 5.20242 -0.463178 0
M  V30 406 H 38.4525 2.94466 -0.541307 0
M  V30 407 H 35.9985 1.41601 -0.261764 0
M  V30 408 H 37.9515 3.84569 1.72293 0
M  V30 409 H 36.6755 2.62315 1.94573 0
M  V30 410 H 35.3345 3.66501 0.085054 0
M  V30 411 H 34.9825 4.39186 2.45203 0
M  V30 412 H 34.6825 5.72762 1.31213 0
M  V30 413 H 36.2065 5.67899 2.24329 0
M  V30 414 H 37.6205 5.73293 -0.027502 0
M  V30 415 H 36.0175 5.94896 -0.788627 0
M  V30 416 H 37.0875 4.65504 -1.35773 0
M  V30 417 N 38.4306 0.297415 1.54768 0
M  V30 418 C 39.3606 -0.573494 2.26348 0
M  V30 419 C 40.3416 -1.14085 1.26169 0
M  V30 420 O 41.5266 -1.17086 1.54934 0
M  V30 421 C 38.6566 -1.74716 3.00153 0
M  V30 422 C 37.6106 -1.31032 4.07449 0
M  V30 423 C 36.9366 -2.56887 4.68949 0
M  V30 424 C 38.2366 -0.444183 5.20408 0
M  V30 425 H 39.9306 0.0235131 2.99391 0
M  V30 426 H 37.4766 0.0127488 1.43994 0
M  V30 427 H 39.4296 -2.3625 3.48947 0
M  V30 428 H 38.1536 -2.37035 2.24682 0
M  V30 429 H 36.8126 -0.718066 3.59499 0
M  V30 430 H 36.4606 -3.17512 3.90122 0
M  V30 431 H 36.1606 -2.2836 5.41411 0
M  V30 432 H 37.6846 -3.19229 5.20505 0
M  V30 433 H 39.0986 -0.9651 5.65118 0
M  V30 434 H 37.4956 -0.252846 5.99567 0
M  V30 435 H 38.5656 0.531609 4.81977 0
M  V30 436 N 39.9087 -1.5758 0.0250728 0
M  V30 437 C 41.1857 -1.82917 -0.692873 0
M  V30 438 C 41.5657 -0.908137 -1.90568 0
M  V30 439 O 40.9137 0.0372298 -2.2847 0
M  V30 440 C 41.1237 -3.32034 -1.07492 0
M  V30 441 C 42.4717 -3.98406 -1.46826 0
M  V30 442 O 43.4957 -3.36505 -1.16801 0
M  V30 443 O 42.3547 -5.07497 -2.02754 0
M  V30 444 H 39.4487 -0.754079 -0.33955 0
M  V30 445 H 41.9947 -1.69619 0.0524456 0
M  V30 446 H 40.7667 -3.90728 -0.211552 0
M  V30 447 H 40.3897 -3.50424 -1.87854 0
M  V30 448 N 41.3868 0.248026 -1.55636 0
M  V30 449 C 42.7978 0.817177 -1.67866 0
M  V30 450 C 43.1488 1.86069 -0.622322 0
M  V30 451 O 42.2738 2.15157 0.231618 0
M  V30 452 C 42.8688 1.489 -3.04326 0
M  V30 453 C 41.4278 2.00587 -3.185 0
M  V30 454 C 40.5748 0.856573 -2.63739 0
M  V30 455 H 43.5258 0.0238579 -1.58682 0
M  V30 456 H 43.5468 2.35698 -2.98708 0
M  V30 457 H 43.0588 0.729279 -3.81186 0
M  V30 458 H 41.1598 2.79443 -2.4646 0
M  V30 459 H 41.2728 2.20402 -4.25393 0
M  V30 460 H 39.6368 1.25678 -2.21534 0
M  V30 461 H 40.4198 0.109953 -3.43124 0
M  V30 462 N 42.8649 1.48995 0.513639 0
M  V30 463 C 43.8119 1.6473 1.61656 0
M  V30 464 C 44.7819 0.488984 1.58739 0
M  V30 465 O 45.9669 0.714478 1.76918 0
M  V30 466 C 43.1069 1.7082 2.99858 0
M  V30 467 C 42.2199 2.9787 3.12885 0
M  V30 468 C 41.3549 2.95017 4.41744 0
M  V30 469 C 40.3939 4.16702 4.48359 0
M  V30 470 N 39.5309 4.11832 5.68629 0
M  V30 471 H 44.3709 2.58909 1.47547 0
M  V30 472 H 41.9079 1.28382 0.71808 0
M  V30 473 H 43.8659 1.72331 3.79944 0
M  V30 474 H 42.4959 0.801181 3.12699 0
M  V30 475 H 41.5479 3.06029 2.25944 0
M  V30 476 H 42.8599 3.8786 3.13633 0
M  V30 477 H 42.0139 2.95021 5.30139 0
M  V30 478 H 40.7529 2.02784 4.43542 0
M  V30 479 H 39.7579 4.16955 3.58369 0
M  V30 480 H 40.9829 5.10113 4.48287 0
M  V30 481 H 38.9289 3.22428 5.71293 0
M  V30 482 H 38.8459 4.95543 5.7094 0
M  V30 483 H 40.1139 4.1592 6.59266 0
M  V30 484 N 44.343 -0.763751 1.37857 0
M  V30 485 C 45.273 -1.89103 1.36975 0
M  V30 486 C 46.254 -1.68439 0.237152 0
M  V30 487 O 47.439 -1.8918 0.438713 0
M  V30 488 C 44.569 -3.26496 1.18395 0
M  V30 489 C 43.523 -3.61741 2.28751 0
M  V30 490 C 42.849 -4.97762 1.95286 0
M  V30 491 C 44.149 -3.67665 3.70972 0
M  V30 492 H 45.843 -1.90099 2.31307 0
M  V30 493 H 43.389 -0.91319 1.11341 0
M  V30 494 H 45.342 -4.05003 1.16406 0
M  V30 495 H 44.066 -3.25955 0.205215 0
M  V30 496 H 42.725 -2.85547 2.29909 0
M  V30 497 H 42.373 -4.93769 0.959221 0
M  V30 498 H 42.073 -5.22313 2.69189 0
M  V30 499 H 43.597 -5.7866 1.94898 0
M  V30 500 H 45.011 -4.36307 3.719 0
M  V30 501 H 43.408 -4.03718 4.43995 0
M  V30 502 H 44.478 -2.68134 4.0402 0
M  V30 503 N 45.8211 -1.22559 -0.990812 0
M  V30 504 C 47.0611 -1.06302 -1.74583 0
M  V30 505 C 47.4251 0.394737 -1.87898 0
M  V30 506 O 48.6261 0.678214 -2.60103 0
M  V30 507 C 46.8971 -1.75699 -3.11231 0
M  V30 508 S 48.4561 -1.74882 -4.02445 0
M  V30 509 H 45.2741 -0.380639 -0.600529 0
M  V30 510 H 47.8761 -1.55532 -1.18449 0
M  V30 511 H 46.5801 -2.80923 -2.99183 0
M  V30 512 H 46.1111 -1.26708 -3.72436 0
M  V30 513 H 48.1261 -0.799997 -4.89709 0
M  V30 514 N 47.2992 1.18797 -1.03562 0
M  V30 515 C 48.5292 1.92319 -0.754773 0
M  V30 516 C 48.9372 1.7612 0.691248 0
M  V30 517 O 48.2802 1.08491 1.48241 0
M  V30 518 C 48.3422 3.44284 -1.03484 0
M  V30 519 C 48.0062 3.84258 -2.47376 0
M  V30 520 C 49.0032 3.88459 -3.45537 0
M  V30 521 C 46.6882 4.15701 -2.81954 0
M  V30 522 C 48.6822 4.23545 -4.76328 0
M  V30 523 C 46.3692 4.50458 -4.12954 0
M  V30 524 C 47.3672 4.54356 -5.09951 0
M  V30 525 O 47.0552 4.88305 -6.38603 0
M  V30 526 H 46.7872 0.617527 -0.275021 0
M  V30 527 H 49.3412 1.51683 -1.38497 0
M  V30 528 H 47.5712 3.85135 -0.347513 0
M  V30 529 H 49.2602 3.99049 -0.7426 0
M  V30 530 H 50.0262 3.6431 -3.20162 0
M  V30 531 H 45.9052 4.11847 -2.0713 0
M  V30 532 H 49.4492 4.26502 -5.52035 0
M  V30 533 H 45.3462 4.74067 -4.38099 0
M  V30 534 H 46.1142 5.06227 -6.43177 0
M  V30 535 N 48.7773 0.814389 1.34928 0
M  V30 536 C 49.7073 0.244827 2.32213 0
M  V30 537 C 50.6883 -0.634024 1.57842 0
M  V30 538 O 51.8733 -0.562676 1.8587 0
M  V30 539 C 49.0033 -0.601106 3.42058 0
M  V30 540 C 47.9573 0.179896 4.27622 0
M  V30 541 C 47.2833 -0.788237 5.28858 0
M  V30 542 C 48.5833 1.38329 5.03649 0
M  V30 543 H 50.2773 1.05763 2.80097 0
M  V30 544 H 47.8233 0.510029 1.34665 0
M  V30 545 H 49.7763 -1.00968 4.09125 0
M  V30 546 H 48.5003 -1.44688 2.92802 0
M  V30 547 H 47.1593 0.569739 3.62146 0
M  V30 548 H 46.8073 -1.62973 4.75866 0
M  V30 549 H 46.5073 -0.269942 5.8698 0
M  V30 550 H 48.0313 -1.19485 5.98795 0
M  V30 551 H 49.4453 1.04918 5.63618 0
M  V30 552 H 47.8423 1.83662 5.71304 0
M  V30 553 H 48.9123 2.16592 4.33839 0
M  V30 554 N 50.2554 -1.46986 0.568584 0
M  V30 555 C 51.1854 -2.32946 -0.160753 0
M  V30 556 C 52.1664 -1.44487 -0.897631 0
M  V30 557 O 53.3514 -1.73327 -0.875867 0
M  V30 558 C 50.4814 -3.26494 -1.18403 0
M  V30 559 C 49.4354 -4.24282 -0.562895 0
M  V30 560 C 48.7614 -5.07236 -1.69163 0
M  V30 561 C 50.0614 -5.19989 0.490761 0
M  V30 562 H 51.7554 -2.94175 0.556916 0
M  V30 563 H 49.3014 -1.4146 0.26927 0
M  V30 564 H 51.2544 -3.85477 -1.70251 0
M  V30 565 H 49.9784 -2.63343 -1.93179 0
M  V30 566 H 48.6374 -3.66541 -0.0656164 0
M  V30 567 H 48.2854 -4.4048 -2.42871 0
M  V30 568 H 47.9854 -5.7345 -1.28174 0
M  V30 569 H 49.5094 -5.6908 -2.21314 0
M  V30 570 H 50.9234 -5.73271 0.0579047 0
M  V30 571 H 49.3204 -5.94469 0.820165 0
M  V30 572 H 50.3904 -4.64777 1.3824 0
M  V30 573 N 51.7335 -0.305618 -1.54608 0
M  V30 574 C 53.0105 0.355652 -1.92339 0
M  V30 575 C 53.3905 1.71324 -1.23335 0
M  V30 576 O 52.7385 2.25473 -0.370702 0
M  V30 577 C 52.9485 0.46572 -3.45879 0
M  V30 578 C 54.2965 0.734426 -4.182 0
M  V30 579 O 55.3205 0.54935 -3.51938 0
M  V30 580 O 54.1795 1.09024 -5.35515 0
M  V30 581 H 51.2735 0.199666 -0.802535 0
M  V30 582 H 53.8195 -0.354017 -1.65966 0
M  V30 583 H 52.5915 -0.488461 -3.88239 0
M  V30 584 H 52.2145 1.22367 -3.78301 0
M  V30 585 N 53.2116 1.57565 -0.0334293 0
M  V30 586 C 54.4596 1.91598 0.642999 0
M  V30 587 C 54.7806 0.910847 1.7242 0
M  V30 588 O 54.0506 -0.0469931 1.95844 0
M  V30 589 H 52.6306 0.707228 0.240496 0
M  V30 590 H 55.2926 1.94726 -0.0822488 0
M  V30 591 H 54.3886 2.92336 1.09298 0
M  V30 592 N 54.6897 -0.239769 1.55765 0
M  V30 593 C 55.9387 -0.964754 1.77131 0
M  V30 594 C 56.2517 -1.86213 0.59868 0
M  V30 595 O 57.4577 -2.6244 0.695522 0
M  V30 596 C 55.9137 -1.76552 3.1362 0
M  V30 597 C 55.5217 -0.915185 4.38553 0
M  V30 598 C 57.2657 -2.48281 3.44321 0
M  V30 599 C 55.1727 -1.71225 5.66071 0
M  V30 600 H 54.1027 -0.363953 0.660344 0
M  V30 601 H 56.7537 -0.219181 1.82186 0
M  V30 602 H 55.1357 -2.55331 3.02691 0
M  V30 603 H 56.3097 -0.169217 4.60489 0
M  V30 604 H 54.6247 -0.310889 4.15238 0
M  V30 605 H 57.2217 -3.08382 4.36812 0
M  V30 606 H 57.5647 -3.20256 2.65973 0
M  V30 607 H 58.0977 -1.76507 3.56497 0
M  V30 608 H 54.8367 -1.03612 6.4726 0
M  V30 609 H 54.3567 -2.43331 5.48224 0
M  V30 610 H 56.0357 -2.27758 6.05587 0
M  V30 611 N 56.1678 -1.49265 -0.50573 0
M  V30 612 C 57.0978 -1.68495 -1.61653 0
M  V30 613 C 58.0788 -0.53366 -1.61512 0
M  V30 614 O 59.2638 -0.76897 -1.78327 0
M  V30 615 C 56.3938 -1.74709 -3.00157 0
M  V30 616 C 55.3478 -2.89581 -3.15162 0
M  V30 617 C 54.6738 -2.80903 -4.5497 0
M  V30 618 C 55.9738 -4.30578 -2.95634 0
M  V30 619 H 57.6678 -2.61493 -1.45814 0
M  V30 620 H 55.2138 -1.25838 -0.70005 0
M  V30 621 H 57.1668 -1.86748 -3.77761 0
M  V30 622 H 55.8908 -0.783067 -3.17074 0
M  V30 623 H 54.5498 -2.77136 -2.39982 0
M  V30 624 H 54.1978 -1.82419 -4.68756 0
M  V30 625 H 53.8978 -3.57999 -4.65951 0
M  V30 626 H 55.4218 -2.94944 -5.34641 0
M  V30 627 H 56.8358 -4.4373 -3.63011 0
M  V30 628 H 55.2328 -5.0886 -3.18091 0
M  V30 629 H 56.3028 -4.45352 -1.91806 0
M  V30 630 N 57.6459 0.756429 -1.3826 0
M  V30 631 C 58.8929 1.51547 -1.34312 0
M  V30 632 C 59.2209 1.94382 0.0677144 0
M  V30 633 O 58.4759 1.65514 1.04421 0
M  V30 634 C 58.7749 2.78313 -2.24224 0
M  V30 635 C 58.4409 2.54455 -3.72241 0
M  V30 636 C 57.1029 2.47657 -4.12576 0
M  V30 637 C 59.4549 2.3354 -4.65949 0
M  V30 638 C 56.7829 2.17956 -5.44713 0
M  V30 639 C 59.1349 2.05359 -5.9834 0
M  V30 640 C 57.7989 1.97016 -6.37762 0
M  V30 641 H 57.0689 0.55455 -0.491482 0
M  V30 642 H 59.7159 0.870039 -1.70595 0
M  V30 643 H 58.0209 3.47492 -1.80987 0
M  V30 644 H 59.7179 3.36259 -2.18474 0
M  V30 645 H 56.3079 2.60616 -3.40261 0
M  V30 646 H 60.4919 2.37772 -4.35635 0
M  V30 647 H 55.7479 2.10003 -5.74203 0
M  V30 648 H 59.9219 1.88179 -6.70494 0
M  V30 649 H 57.5489 1.73766 -7.40074 0
M  V30 650 N 59.124 1.23083 0.984299 0
M  V30 651 C 60.373 1.05466 1.71929 0
M  V30 652 C 60.686 -0.409211 1.91272 0
M  V30 653 O 61.892 -0.705226 2.62181 0
M  V30 654 C 60.348 1.83874 3.09384 0
M  V30 655 C 59.956 3.34566 2.97943 0
M  V30 656 C 61.7 1.74734 3.8687 0
M  V30 657 C 59.607 4.05381 4.30605 0
M  V30 658 H 58.537 0.391039 0.644674 0
M  V30 659 H 61.188 1.47013 1.09815 0
M  V30 660 H 59.57 1.35131 3.72231 0
M  V30 661 H 60.744 3.90767 2.44209 0
M  V30 662 H 59.059 3.44476 2.33934 0
M  V30 663 H 61.656 2.24957 4.85076 0
M  V30 664 H 61.999 0.709372 4.10212 0
M  V30 665 H 62.532 2.21067 3.30717 0
M  V30 666 H 59.271 5.09467 4.1246 0
M  V30 667 H 58.791 3.53967 4.84218 0
M  V30 668 H 60.47 4.11458 4.99311 0
M  V30 669 N 60.6021 -1.18246 1.0419 0
M  V30 670 C 61.8321 -1.91916 0.764961 0
M  V30 671 C 62.2401 -1.76485 -0.681898 0
M  V30 672 O 61.5831 -1.09275 -1.47664 0
M  V30 673 C 61.6451 -3.4373 1.05309 0
M  V30 674 C 61.3091 -3.8294 2.4941 0
M  V30 675 C 62.3061 -3.86621 3.47592 0
M  V30 676 C 59.9911 -4.142 2.84155 0
M  V30 677 C 61.9851 -4.21013 4.78568 0
M  V30 678 C 59.6721 -4.48262 4.15337 0
M  V30 679 C 60.6701 -4.51645 5.12353 0
M  V30 680 O 60.3581 -4.84911 6.41183 0
M  V30 681 H 60.0901 -0.61606 0.278292 0
M  V30 682 H 62.6441 -1.50947 1.39299 0
M  V30 683 H 60.8741 -3.84946 0.367933 0
M  V30 684 H 62.5631 -3.9865 0.763752 0
M  V30 685 H 63.3291 -3.62607 3.22089 0
M  V30 686 H 59.2081 -4.10743 2.09311 0
M  V30 687 H 62.7521 -4.23568 5.54289 0
M  V30 688 H 58.6491 -4.71737 4.40607 0
M  V30 689 H 59.4171 -5.02809 6.45852 0
M  V30 690 N 62.0802 -0.821533 -1.34494 0
M  V30 691 C 63.3282 -0.408139 -1.97936 0
M  V30 692 C 63.6492 1.03193 -1.65457 0
M  V30 693 O 62.9192 1.71622 -0.944595 0
M  V30 694 H 61.4992 -0.147928 -0.732206 0
M  V30 695 H 64.1612 -1.05067 -1.64155 0
M  V30 696 H 63.2572 -0.52601 -3.07635 0
M  V30 697 N 63.5583 1.46682 -0.576371 0
M  V30 698 C 64.8043 2.02712 -0.0596221 0
M  V30 699 C 65.1373 1.44765 1.29448 0
M  V30 700 O 64.4123 0.610355 1.84675 0
M  V30 701 C 64.6953 3.60098 0.0129503 0
M  V30 702 C 64.5483 4.28441 -1.3696 0
M  V30 703 C 65.8673 4.34224 0.71678 0
M  V30 704 H 62.9863 0.736637 -0.0231407 0
M  V30 705 H 65.6283 1.74898 -0.742351 0
M  V30 706 H 63.7783 3.83926 0.594378 0
M  V30 707 H 65.4503 4.15896 -1.9957 0
M  V30 708 H 63.6933 3.8805 -1.93907 0
M  V30 709 H 64.3643 5.3716 -1.27135 0
M  V30 710 H 66.8403 4.15503 0.222908 0
M  V30 711 H 65.7163 5.43936 0.73657 0
M  V30 712 H 65.9773 4.04823 1.77682 0
M  V30 713 N 65.0364 0.313813 1.54444 0
M  V30 714 C 66.2854 -0.292519 1.99568 0
M  V30 715 C 66.5984 -1.54011 1.20582 0
M  V30 716 O 67.8044 -2.22183 1.56035 0
M  V30 717 C 66.2604 -0.571752 3.55329 0
M  V30 718 C 65.8684 0.658229 4.43138 0
M  V30 719 C 67.6124 -1.13857 4.08946 0
M  V30 720 C 65.5194 0.351439 5.90355 0
M  V30 721 H 64.4494 -0.113079 0.745472 0
M  V30 722 H 67.1004 0.424518 1.78522 0
M  V30 723 H 65.4824 -1.34872 3.72325 0
M  V30 724 H 66.6564 1.43403 4.37918 0
M  V30 725 H 64.9714 1.14458 4.0036 0
M  V30 726 H 67.5684 -1.38257 5.16516 0
M  V30 727 H 67.9114 -2.08489 3.6033 0
M  V30 728 H 68.4444 -0.423015 3.95544 0
M  V30 729 H 65.1834 1.26667 6.43145 0
M  V30 730 H 64.7034 -0.386842 5.98551 0
M  V30 731 H 66.3824 -0.0423134 6.46986 0
M  V30 732 N 66.5145 -1.57545 0.0417849 0
M  V30 733 C 67.4445 -2.14009 -0.933929 0
M  V30 734 C 68.4255 -1.05938 -1.33083 0
M  V30 735 O 69.6105 -1.33833 -1.40721 0
M  V30 736 C 66.7405 -2.67747 -2.21199 0
M  V30 737 C 65.6945 -3.80718 -1.95544 0
M  V30 738 C 65.0205 -4.20935 -3.29724 0
M  V30 739 C 66.3205 -5.06258 -1.28452 0
M  V30 740 H 68.0145 -2.95788 -0.463645 0
M  V30 741 H 65.5605 -1.42285 -0.221573 0
M  V30 742 H 67.5135 -3.05886 -2.89848 0
M  V30 743 H 66.2375 -1.83147 -2.70416 0
M  V30 744 H 64.8965 -3.43037 -1.2931 0
M  V30 745 H 64.5445 -3.33298 -3.76724 0
M  V30 746 H 64.2445 -4.9707 -3.13361 0
M  V30 747 H 65.7685 -4.61666 -3.9962 0
M  V30 748 H 67.1825 -5.41903 -1.8712 0
M  V30 749 H 65.5795 -5.87475 -1.22445 0
M  V30 750 H 66.6495 -4.84207 -0.259219 0
M  V30 751 N 67.9926 0.231505 -1.5589 0
M  V30 752 C 69.2206 0.974505 -1.82513 0
M  V30 753 C 69.6356 1.78344 -0.619591 0
M  V30 754 O 68.9926 1.77792 0.411848 0
M  V30 755 C 69.0436 1.90007 -3.07538 0
M  V30 756 O 68.7646 1.12385 -4.2344 0
M  V30 757 C 70.2656 2.75779 -3.47075 0
M  V30 758 H 67.4856 0.286065 -0.606966 0
M  V30 759 H 70.0296 0.249739 -2.02969 0
M  V30 760 H 68.1846 2.57891 -2.89086 0
M  V30 761 H 68.5986 1.75125 -4.944 0
M  V30 762 H 70.0726 3.36443 -4.37619 0
M  V30 763 H 70.5496 3.47672 -2.68367 0
M  V30 764 H 71.1556 2.13323 -3.67931 0
M  V30 765 N 69.4707 1.49531 0.497807 0
M  V30 766 C 70.4337 1.65916 1.58128 0
M  V30 767 C 71.4337 0.530825 1.51786 0
M  V30 768 O 72.6237 0.797342 1.54881 0
M  V30 769 C 69.7557 1.65951 2.9778 0
M  V30 770 H 70.9487 2.62556 1.44929 0
M  V30 771 H 68.5017 1.38611 0.722275 0
M  V30 772 H 69.2367 0.709065 3.16453 0
M  V30 773 H 69.0217 2.47897 3.03792 0
M  V30 774 H 70.5117 1.80673 3.76493 0
M  V30 775 N 70.9488 -0.749086 1.3866 0
M  V30 776 C 71.8788 -1.8764 1.38973 0
M  V30 777 C 72.8598 -1.68178 0.255004 0
M  V30 778 O 74.0448 -1.88704 0.458754 0
M  V30 779 C 71.1748 -3.25222 1.21851 0
M  V30 780 C 70.1288 -3.59295 2.32575 0
M  V30 781 C 69.4548 -4.95663 2.00555 0
M  V30 782 C 70.7548 -3.63709 3.7485 0
M  V30 783 H 72.4488 -1.87635 2.3331 0
M  V30 784 H 69.9948 -0.901329 1.12303 0
M  V30 785 H 71.9478 -4.03746 1.20695 0
M  V30 786 H 70.6718 -3.25719 0.239775 0
M  V30 787 H 69.3308 -2.83093 2.32925 0
M  V30 788 H 68.9788 -4.92724 1.01154 0
M  V30 789 H 68.6788 -5.19429 2.74714 0
M  V30 790 H 70.2028 -5.7656 2.01024 0
M  V30 791 H 71.6168 -4.32338 3.76506 0
M  V30 792 H 70.0138 -3.98986 4.48252 0
M  V30 793 H 71.0838 -2.63834 4.06841 0
M  V30 794 N 72.4269 -1.23603 -0.977757 0
M  V30 795 C 73.6739 -1.06971 -1.71941 0
M  V30 796 C 74.0019 0.393009 -1.90488 0
M  V30 797 O 73.2569 1.30719 -1.4564 0
M  V30 798 C 73.5559 -1.7433 -3.11999 0
M  V30 799 C 73.2219 -3.24252 -3.13323 0
M  V30 800 C 71.8839 -3.65156 -3.13392 0
M  V30 801 C 74.2359 -4.20141 -3.08433 0
M  V30 802 C 71.5639 -5.00403 -3.0629 0
M  V30 803 C 73.9159 -5.55384 -3.02873 0
M  V30 804 C 72.5799 -5.95647 -3.01265 0
M  V30 805 H 71.8499 -0.391433 -0.629175 0
M  V30 806 H 74.4969 -1.53572 -1.14403 0
M  V30 807 H 72.8019 -1.20096 -3.7294 0
M  V30 808 H 74.4989 -1.58936 -3.68158 0
M  V30 809 H 71.0889 -2.91692 -3.14029 0
M  V30 810 H 75.2729 -3.89547 -3.07517 0
M  V30 811 H 70.5289 -5.3081 -3.03399 0
M  V30 812 H 74.7029 -6.29398 -2.98046 0
M  V30 813 H 72.3299 -7.0041 -2.95516 0
M  V30 814 N 73.905 1.17692 -1.04816 0
M  V30 815 C 74.835 2.23777 -0.666791 0
M  V30 816 C 75.816 1.66796 0.33361 0
M  V30 817 O 77.001 1.93039 0.212042 0
M  V30 818 C 74.131 3.47281 -0.0367933 0
M  V30 819 C 73.085 4.17059 -0.961546 0
M  V30 820 C 72.411 5.34342 -0.195626 0
M  V30 821 C 73.711 4.69713 -2.28402 0
M  V30 822 H 75.405 2.55933 -1.55367 0
M  V30 823 H 72.951 1.23019 -0.748484 0
M  V30 824 H 74.904 4.20706 0.241775 0
M  V30 825 H 73.628 3.14381 0.885004 0
M  V30 826 H 72.287 3.45541 -1.22462 0
M  V30 827 H 71.935 4.97692 0.728816 0
M  V30 828 H 71.635 5.81966 -0.811775 0
M  V30 829 H 73.159 6.10553 0.0757473 0
M  V30 830 H 74.573 5.34794 -2.06563 0
M  V30 831 H 72.97 5.279 -2.8538 0
M  V30 832 H 74.04 3.86726 -2.92525 0
M  V30 833 N 75.3831 0.828654 1.34056 0
M  V30 834 C 76.7991 0.515135 1.51058 0
M  V30 835 C 76.9991 -0.959581 1.77184 0
M  V30 836 O 76.0551 -1.74382 1.82612 0
M  V30 837 C 77.3681 1.37963 2.67183 0
M  V30 838 C 78.9161 1.37735 2.81066 0
M  V30 839 C 79.3911 2.22645 4.00241 0
M  V30 840 N 80.8821 2.203 4.07458 0
M  V30 841 C 81.6171 2.82744 4.98842 0
M  V30 842 N 81.1131 3.54201 5.9541 0
M  V30 843 N 82.9061 2.72268 4.91759 0
M  V30 844 H 75.0571 1.78343 1.15358 0
M  V30 845 H 77.3201 0.760304 0.566252 0
M  V30 846 H 77.0261 2.42714 2.54525 0
M  V30 847 H 76.9001 1.0484 3.62338 0
M  V30 848 H 79.2871 0.337593 2.93163 0
M  V30 849 H 79.3681 1.74859 1.86703 0
M  V30 850 H 79.0121 3.26674 3.88905 0
M  V30 851 H 78.9421 1.82869 4.93829 0
M  V30 852 H 81.4331 1.68327 3.38341 0
M  V30 853 H 81.7461 3.9908 6.61782 0
M  V30 854 H 80.0911 3.58308 5.95517 0
M  V30 855 H 83.2821 2.16014 4.15278 0
M  V30 856 H 83.4551 3.21219 5.62781 0
M  V30 857 N 76.8612 -1.46375 0.584142 0
M  V30 858 C 78.1072 -2.02678 0.0703716 0
M  V30 859 C 78.4402 -1.4545 -1.28678 0
M  V30 860 O 77.7152 -0.62014 -1.84349 0
M  V30 861 C 77.9982 -3.60099 0.00614674 0
M  V30 862 C 77.8512 -4.27709 1.3923 0
M  V30 863 C 79.1702 -4.34598 -0.693742 0
M  V30 864 H 76.2892 -0.736504 0.027047 0
M  V30 865 H 78.9312 -1.74501 0.751615 0
M  V30 866 H 77.0812 -3.84236 -0.574009 0
M  V30 867 H 78.7532 -4.14832 2.01773 0
M  V30 868 H 76.9962 -3.87016 1.95962 0
M  V30 869 H 77.6672 -5.36478 1.29982 0
M  V30 870 H 80.1432 -4.15615 -0.200869 0
M  V30 871 H 79.0192 -5.44318 -0.707714 0
M  V30 872 H 79.2802 -4.05759 -1.75533 0
M  V30 873 N 78.3393 -0.321999 -1.54275 0
M  V30 874 C 79.2863 0.544664 -2.24281 0
M  V30 875 C 80.2563 1.1129 -1.23303 0
M  V30 876 O 81.4413 1.15354 -1.51981 0
M  V30 877 C 78.5813 1.70045 -3.00298 0
M  V30 878 C 77.6943 1.16159 -4.1609 0
M  V30 879 C 76.8293 2.28293 -4.79641 0
M  V30 880 C 75.8683 1.71648 -5.8754 0
M  V30 881 N 75.0053 2.77438 -6.44959 0
M  V30 882 H 79.8453 -0.0588907 -2.97942 0
M  V30 883 H 77.3823 -0.0408345 -1.47043 0
M  V30 884 H 79.3403 2.38054 -3.42616 0
M  V30 885 H 77.9703 2.27531 -2.28975 0
M  V30 886 H 77.0223 0.373092 -3.78566 0
M  V30 887 H 78.3343 0.707087 -4.93763 0
M  V30 888 H 77.4883 3.0421 -5.2492 0
M  V30 889 H 76.2273 2.77079 -4.01346 0
M  V30 890 H 75.2323 0.942282 -5.41665 0
M  V30 891 H 76.4573 1.23741 -6.67731 0
M  V30 892 H 74.4033 3.25519 -5.69538 0
M  V30 893 H 74.3203 2.36547 -7.1804 0
M  V30 894 H 75.5883 3.53189 -6.94894 0
M  V30 895 N 79.8174 1.5752 -0.0501392 0
M  V30 896 C 81.0644 1.9265 0.623874 0
M  V30 897 C 81.3924 0.928411 1.70912 0
M  V30 898 O 80.6474 -0.0594525 1.9561 0
M  V30 899 C 80.9464 3.34467 1.25963 0
M  V30 900 C 80.6124 4.49883 0.302689 0
M  V30 901 C 79.2744 4.81184 0.0393636 0
M  V30 902 C 81.6264 5.20002 -0.353205 0
M  V30 903 C 78.9544 5.79951 -0.887308 0
M  V30 904 C 81.3064 6.1976 -1.26806 0
M  V30 905 C 79.9704 6.49491 -1.54007 0
M  V30 906 H 79.2404 0.704957 0.228292 0
M  V30 907 H 81.8874 1.91146 -0.116398 0
M  V30 908 H 80.1924 3.32333 2.07514 0
M  V30 909 H 81.8894 3.58928 1.78806 0
M  V30 910 H 78.4794 4.25457 0.518109 0
M  V30 911 H 82.6634 4.96033 -0.162854 0
M  V30 912 H 77.9194 6.01322 -1.10553 0
M  V30 913 H 82.0934 6.73205 -1.78236 0
M  V30 914 H 79.7204 7.25837 -2.25976 0
M  V30 915 N 81.2955 -0.223234 1.56011 0
M  V30 916 C 82.5205 -0.968978 1.83373 0
M  V30 917 C 82.9455 -1.77227 0.630254 0
M  V30 918 O 82.3035 -1.76345 -0.420959 0
M  V30 919 C 82.3515 -1.86363 3.08709 0
M  V30 920 O 81.4555 -2.95873 2.87285 0
M  V30 921 H 80.7965 -0.274461 0.604622 0
M  V30 922 H 83.3265 -0.237056 2.03222 0
M  V30 923 H 83.3365 -2.27376 3.38768 0
M  V30 924 H 82.0115 -1.27319 3.95933 0
M  V30 925 H 80.5885 -2.58818 2.68454 0
M  V30 926 N 82.7736 -1.49793 -0.48987 0
M  V30 927 C 84.1896 -1.36803 -0.822022 0
M  V30 928 C 84.3896 -0.409652 -1.97292 0
M  V30 929 O 83.4456 0.154614 -2.52026 0
M  V30 930 C 84.7586 -2.77768 -1.15175 0
M  V30 931 C 86.3066 -2.86549 -1.25931 0
M  V30 932 C 86.7816 -4.28306 -1.62228 0
M  V30 933 N 88.2726 -4.31169 -1.69256 0
M  V30 934 C 89.0076 -5.37832 -1.98807 0
M  V30 935 N 88.5036 -6.54726 -2.26507 0
M  V30 936 N 90.2966 -5.25258 -2.00152 0
M  V30 937 H 82.4476 -2.10691 0.268881 0
M  V30 938 H 84.7106 -0.946241 0.057728 0
M  V30 939 H 84.4166 -3.49648 -0.379335 0
M  V30 940 H 84.2906 -3.13836 -2.09253 0
M  V30 941 H 86.6776 -2.14899 -2.02243 0
M  V30 942 H 86.7586 -2.54049 -0.298776 0
M  V30 943 H 86.4026 -5.00486 -0.864622 0
M  V30 944 H 86.3326 -4.58279 -2.594 0
M  V30 945 H 88.8236 -3.4687 -1.49965 0
M  V30 946 H 89.1366 -7.31833 -2.48276 0
M  V30 947 H 87.4816 -6.57933 -2.23939 0
M  V30 948 H 90.6726 -4.32938 -1.77996 0
M  V30 949 H 90.8456 -6.08476 -2.22848 0
M  V30 950 N 84.2517 0.741722 -1.39055 0
M  V30 951 C 85.4767 1.53607 -1.39354 0
M  V30 952 C 85.9017 1.88096 0.0116905 0
M  V30 953 O 85.2597 1.5143 0.996924 0
M  V30 954 C 85.3077 2.80441 -2.26682 0
M  V30 955 O 84.4117 3.76088 -1.69208 0
M  V30 956 H 83.7527 0.464142 -0.474835 0
M  V30 957 H 86.2827 0.915665 -1.82967 0
M  V30 958 H 86.2927 3.29246 -2.40959 0
M  V30 959 H 84.9677 2.5467 -3.2881 0
M  V30 960 H 83.5447 3.34833 -1.64138 0
M  V30 961 N 85.7298 1.2412 0.971189 0
M  V30 962 C 86.6928 1.03156 2.04674 0
M  V30 963 C 87.6928 -0.00990322 1.60797 0
M  V30 964 O 88.8828 0.230729 1.72665 0
M  V30 965 C 86.0148 0.562765 3.36223 0
M  V30 966 H 87.2078 1.98614 2.24705 0
M  V30 967 H 84.7608 1.06293 1.14593 0
M  V30 968 H 85.4958 -0.395176 3.21883 0
M  V30 969 H 85.2808 1.31441 3.69413 0
M  V30 970 H 86.7708 0.437015 4.15307 0
M  V30 971 N 87.2079 -1.17134 1.05439 0
M  V30 972 C 88.4849 -1.83411 0.679699 0
M  V30 973 C 88.8649 -1.9368 -0.839726 0
M  V30 974 O 88.2129 -1.47325 -1.74664 0
M  V30 975 C 88.4229 -3.20918 1.37159 0
M  V30 976 C 89.7709 -3.96796 1.51123 0
M  V30 977 O 90.7949 -3.30406 1.3308 0
M  V30 978 O 89.6539 -5.15778 1.80651 0
M  V30 979 H 86.7479 -0.79154 0.239569 0
M  V30 980 H 89.2939 -1.24411 1.15413 0
M  V30 981 H 88.0659 -3.08428 2.40807 0
M  V30 982 H 87.6889 -3.87587 0.886674 0
M  V30 983 N 88.686 -0.835752 -1.33615 0
M  V30 984 C 89.649 -0.272 -2.2758 0
M  V30 985 C 90.649 0.557487 -1.50827 0
M  V30 986 O 91.839 0.37173 -1.70188 0
M  V30 987 C 88.971 0.617173 -3.35267 0
M  V30 988 H 90.164 -1.10111 -2.78954 0
M  V30 989 H 87.717 -0.608594 -1.43965 0
M  V30 990 H 88.452 1.46884 -2.89129 0
M  V30 991 H 88.237 0.0237066 -3.92093 0
M  V30 992 H 89.727 1.005 -4.05326 0
M  V30 993 N 90.1641 1.46063 -0.591896 0
M  V30 994 C 91.5751 1.85944 -0.167822 0
M  V30 995 C 91.9261 1.49429 1.27143 0
M  V30 996 O 91.0511 0.913515 1.96173 0
M  V30 997 C 91.6461 3.37489 -0.297794 0
M  V30 998 C 90.2051 3.76332 0.0714732 0
M  V30 999 C 89.3521 2.7006 -0.629509 0
M  V30 1000 H 92.3031 1.37087 -0.799555 0
M  V30 1001 H 92.3241 3.77532 0.474349 0
M  V30 1002 H 91.8361 3.64034 -1.3454 0
M  V30 1003 H 89.9371 3.55405 1.11886 0
M  V30 1004 H 90.0501 4.78088 -0.311245 0
M  V30 1005 H 88.4141 2.54607 -0.0687867 0
M  V30 1006 H 89.1971 2.99444 -1.67894 0
M  V30 1007 N 91.6422 0.330177 1.54103 0
M  V30 1008 C 92.6052 -0.520144 2.2322 0
M  V30 1009 C 93.6052 -1.03828 1.22786 0
M  V30 1010 O 94.7952 -0.929652 1.4732 0
M  V30 1011 C 91.9272 -1.72317 2.94142 0
M  V30 1012 H 93.1202 0.0841605 2.99782 0
M  V30 1013 H 90.6732 0.0813433 1.56088 0
M  V30 1014 H 91.4082 -2.36653 2.21734 0
M  V30 1015 H 91.1932 -1.35898 3.67796 0
M  V30 1016 H 92.6832 -2.3266 3.46784 0
M  V30 1017 N 93.1203 -1.57491 0.0584922 0
M  V30 1018 C 94.3503 -1.9701 -0.622134 0
M  V30 1019 C 94.7583 -0.935034 -1.6448 0
M  V30 1020 O 94.1013 0.0882904 -1.83488 0
M  V30 1021 C 94.1633 -3.32794 -1.35972 0
M  V30 1022 C 93.8273 -4.54343 -0.492043 0
M  V30 1023 C 94.8243 -5.19323 0.244901 0
M  V30 1024 C 92.5093 -5.00534 -0.420821 0
M  V30 1025 C 94.5033 -6.28835 1.04143 0
M  V30 1026 C 92.1903 -6.09921 0.379389 0
M  V30 1027 C 93.1883 -6.73933 1.10919 0
M  V30 1028 O 92.8763 -7.81216 1.89623 0
M  V30 1029 H 92.6083 -0.653127 -0.174359 0
M  V30 1030 H 95.1623 -2.05029 0.123418 0
M  V30 1031 H 93.3923 -3.21351 -2.15105 0
M  V30 1032 H 95.0813 -3.5701 -1.93129 0
M  V30 1033 H 95.8473 -4.8459 0.19939 0
M  V30 1034 H 91.7263 -4.50496 -0.978474 0
M  V30 1035 H 95.2703 -6.7873 1.61157 0
M  V30 1036 H 91.1673 -6.44089 0.426512 0
M  V30 1037 H 91.9353 -7.98029 1.81913 0
M  V30 1038 N 94.5984 0.214957 -1.56127 0
M  V30 1039 C 95.5304 1.29004 -1.89448 0
M  V30 1040 C 96.5434 1.42716 -0.783326 0
M  V30 1041 O 97.7324 1.43496 -1.06166 0
M  V30 1042 C 94.8324 2.66482 -2.09381 0
M  V30 1043 C 94.0054 2.74633 -3.40434 0
M  V30 1044 C 93.0644 3.9317 -3.49719 0
M  V30 1045 O 92.0904 3.812 -4.227 0
M  V30 1046 N 93.2924 5.07765 -2.81346 0
M  V30 1047 H 96.0574 1.00743 -2.82261 0
M  V30 1048 H 93.6184 0.40497 -1.56753 0
M  V30 1049 H 95.6104 3.44173 -2.12901 0
M  V30 1050 H 94.1804 2.87314 -1.23163 0
M  V30 1051 H 93.4004 1.83368 -3.48955 0
M  V30 1052 H 94.6884 2.77054 -4.26754 0
M  V30 1053 H 94.0864 5.20386 -2.21843 0
M  V30 1054 H 92.6434 5.83474 -2.90519 0
M  V30 1055 N 96.0765 1.50051 0.48192 0
M  V30 1056 C 97.0085 1.64263 1.59844 0
M  V30 1057 C 98.0215 0.52451 1.54119 0
M  V30 1058 O 99.2105 0.797293 1.59704 0
M  V30 1059 C 96.3105 1.60102 2.98698 0
M  V30 1060 C 95.4835 2.87767 3.29407 0
M  V30 1061 C 94.5425 2.76397 4.47762 0
M  V30 1062 O 93.5685 3.50348 4.48603 0
M  V30 1063 N 94.7705 1.89222 5.48794 0
M  V30 1064 H 97.5355 2.60566 1.48073 0
M  V30 1065 H 95.0965 1.47379 0.670149 0
M  V30 1066 H 97.0885 1.50123 3.75826 0
M  V30 1067 H 95.6585 0.715798 3.04294 0
M  V30 1068 H 94.8785 3.11954 2.40994 0
M  V30 1069 H 96.1665 3.72365 3.4673 0
M  V30 1070 H 95.5645 1.28434 5.50928 0
M  V30 1071 H 94.1215 1.85154 6.24949 0
M  V30 1072 N 97.5546 -0.734337 1.39446 0
M  V30 1073 C 98.8026 -1.49096 1.36436 0
M  V30 1074 C 99.1236 -1.94961 -0.0388255 0
M  V30 1075 O 98.3936 -1.69033 -0.990191 0
M  V30 1076 H 96.9736 -0.5531 0.502085 0
M  V30 1077 H 99.6356 -0.871725 1.74319 0
M  V30 1078 H 98.7316 -2.37276 2.02747 0
M  V30 1079 N 99.0327 -1.24633 -0.964593 0
M  V30 1080 C 99.9647 -0.999302 -2.06268 0
M  V30 1081 C 100.978 0.0323226 -1.62768 0
M  V30 1082 O 102.167 -0.205079 -1.77318 0
M  V30 1083 C 99.2667 -0.486816 -3.35385 0
M  V30 1084 C 98.4397 -1.5823 -4.07777 0
M  V30 1085 C 97.4987 -1.07191 -5.15166 0
M  V30 1086 O 96.5247 -1.76426 -5.41168 0
M  V30 1087 N 97.7267 0.0920373 -5.80427 0
M  V30 1088 H 100.492 -1.94477 -2.28033 0
M  V30 1089 H 98.0527 -1.15704 -1.13244 0
M  V30 1090 H 100.045 -0.130066 -4.04491 0
M  V30 1091 H 98.6147 0.364459 -3.10468 0
M  V30 1092 H 97.8347 -2.11109 -3.32906 0
M  V30 1093 H 99.1227 -2.31854 -4.52903 0
M  V30 1094 H 98.5207 0.670784 -5.61709 0
M  V30 1095 H 97.0777 0.389905 -6.50633 0
M  V30 1096 N 100.511 1.16574 -1.06058 0
M  V30 1097 C 101.459 2.22941 -0.663343 0
M  V30 1098 C 102.453 1.66358 0.319593 0
M  V30 1099 O 103.659 1.7905 0.184713 0
M  V30 1100 H 100.034 0.725907 -0.196376 0
M  V30 1101 H 102.005 2.53736 -1.57037 0
M  V30 1102 C 100.754 3.47642 -0.0632808 0
M  V30 1103 H 100.077 3.91493 -0.810733 0
M  V30 1104 H 101.517 4.2363 0.177177 0
M  V30 1105 C 99.9758 3.1509 1.19248 0
M  V30 1106 O 100.506 3.30673 2.28075 0
M  V30 1107 N 98.7118 2.6924 1.09353 0
M  V30 1108 H 98.2588 2.5676 0.207912 0
M  V30 1109 H 98.2168 2.47833 1.93458 0
M  V30 1110 N 101.989 0.842826 1.3317 0
M  V30 1111 C 102.921 0.236245 2.27979 0
M  V30 1112 C 103.934 -0.585282 1.51915 0
M  V30 1113 O 105.123 -0.411705 1.73687 0
M  V30 1114 C 102.223 -0.685717 3.3189 0
M  V30 1115 C 101.396 0.0973448 4.37292 0
M  V30 1116 C 100.455 -0.748565 5.20848 0
M  V30 1117 O 99.4809 -0.186339 5.68895 0
M  V30 1118 N 100.683 -2.06527 5.42519 0
M  V30 1119 H 103.448 1.05088 2.80672 0
M  V30 1120 H 101.009 0.701667 1.45905 0
M  V30 1121 H 103.001 -1.25669 3.84694 0
M  V30 1122 H 101.571 -1.40105 2.79445 0
M  V30 1123 H 100.791 0.849706 3.84933 0
M  V30 1124 H 102.079 0.635643 5.04814 0
M  V30 1125 H 101.477 -2.54554 5.05192 0
M  V30 1126 H 100.034 -2.58464 5.98364 0
M  V30 1127 N 103.467 -1.45747 0.599634 0
M  V30 1128 C 104.397 -2.33235 -0.111306 0
M  V30 1129 C 105.378 -1.46359 -0.866781 0
M  V30 1130 O 106.563 -1.75146 -0.838904 0
M  V30 1131 C 103.693 -3.28932 -1.11451 0
M  V30 1132 C 102.647 -4.25381 -0.472772 0
M  V30 1133 C 101.973 -5.1071 -1.58365 0
M  V30 1134 C 103.273 -5.18831 0.600948 0
M  V30 1135 H 104.967 -2.92927 0.61919 0
M  V30 1136 H 102.513 -1.40857 0.299215 0
M  V30 1137 H 104.466 -3.89002 -1.62036 0
M  V30 1138 H 103.19 -2.67381 -1.8755 0
M  V30 1139 H 101.849 -3.66598 0.0121472 0
M  V30 1140 H 101.497 -4.45533 -2.33473 0
M  V30 1141 H 101.197 -5.7604 -1.15982 0
M  V30 1142 H 102.721 -5.73647 -2.09194 0
M  V30 1143 H 104.135 -5.73019 0.179491 0
M  V30 1144 H 102.532 -5.92595 0.946076 0
M  V30 1145 H 103.602 -4.6174 1.48068 0
M  V30 1146 N 104.945 -0.338344 -1.53925 0
M  V30 1147 C 106.175 0.260919 -2.04946 0
M  V30 1148 C 106.583 1.45174 -1.2133 0
M  V30 1149 O 105.926 1.82122 -0.240262 0
M  V30 1150 C 105.988 0.744596 -3.51704 0
M  V30 1151 C 105.652 -0.325883 -4.55837 0
M  V30 1152 C 106.649 -1.16687 -5.06636 0
M  V30 1153 C 104.334 -0.478317 -5.00017 0
M  V30 1154 C 106.328 -2.14588 -6.00192 0
M  V30 1155 C 104.015 -1.46073 -5.93385 0
M  V30 1156 C 105.013 -2.29297 -6.4336 0
M  V30 1157 O 104.701 -3.25867 -7.34892 0
M  V30 1158 H 104.433 0.0551207 -0.673749 0
M  V30 1159 H 106.987 -0.486984 -1.99544 0
M  V30 1160 H 105.217 1.54366 -3.54553 0
M  V30 1161 H 106.906 1.26383 -3.85723 0
M  V30 1162 H 107.672 -1.06016 -4.73271 0
M  V30 1163 H 103.551 0.159613 -4.60724 0
M  V30 1164 H 107.095 -2.79585 -6.39123 0
M  V30 1165 H 102.992 -1.56802 -6.26166 0
M  V30 1166 H 103.76 -3.21278 -7.5281 0
M  V30 1167 N 106.423 1.57458 -0.0668435 0
M  V30 1168 C 107.371 2.13639 0.919851 0
M  V30 1169 C 108.365 1.07204 1.31163 0
M  V30 1170 O 109.571 1.25591 1.28945 0
M  V30 1171 H 105.946 0.683048 0.314562 0
M  V30 1172 H 107.917 2.95415 0.421047 0
M  V30 1173 C 106.666 2.70892 2.17975 0
M  V30 1174 H 105.989 3.5246 1.88711 0
M  V30 1175 H 107.429 3.13803 2.85138 0
M  V30 1176 C 105.888 1.65414 2.93496 0
M  V30 1177 O 106.418 1.07619 3.87015 0
M  V30 1178 N 104.624 1.36564 2.56512 0
M  V30 1179 H 104.171 1.83751 1.80536 0
M  V30 1180 H 104.129 0.66223 3.07347 0
M  V30 1181 N 107.901 -0.206675 1.56239 0
M  V30 1182 C 108.811 -1.27686 1.96808 0
M  V30 1183 C 109.827 -1.50455 0.874035 0
M  V30 1184 O 111.003 -1.63295 1.17884 0
M  V30 1185 C 108.068 -2.60358 2.28942 0
M  V30 1186 C 107.129 -2.45762 3.51994 0
M  V30 1187 C 106.362 -3.72108 3.82585 0
M  V30 1188 O 106.585 -4.75776 3.14631 0
M  V30 1189 O 105.519 -3.6833 4.76043 0
M  V30 1190 H 109.345 -0.962593 2.88041 0
M  V30 1191 H 106.93 -0.410746 1.43643 0
M  V30 1192 H 108.812 -3.38687 2.50737 0
M  V30 1193 H 107.487 -2.91435 1.4088 0
M  V30 1194 H 106.394 -1.65584 3.35459 0
M  V30 1195 H 107.727 -2.19621 4.40486 0
M  V30 1196 N 109.379 -1.50304 -0.473955 0
M  V30 1197 C 110.309 -1.71886 -1.58042 0
M  V30 1198 C 111.29 -0.567799 -1.60344 0
M  V30 1199 O 112.475 -0.806623 -1.76656 0
M  V30 1200 C 109.605 -1.81036 -2.96384 0
M  V30 1201 C 108.559 -2.962 -3.08949 0
M  V30 1202 C 107.885 -2.9049 -4.48909 0
M  V30 1203 C 109.185 -4.36752 -2.86434 0
M  V30 1204 H 110.879 -2.64527 -1.40234 0
M  V30 1205 H 108.425 -1.27295 -0.673201 0
M  V30 1206 H 110.378 -1.94719 -3.73714 0
M  V30 1207 H 109.102 -0.850147 -3.15341 0
M  V30 1208 H 107.761 -2.82164 -2.3405 0
M  V30 1209 H 107.409 -1.92321 -4.64781 0
M  V30 1210 H 107.109 -3.67802 -4.58253 0
M  V30 1211 H 108.633 -3.06218 -5.28264 0
M  V30 1212 H 110.047 -4.5133 -3.53517 0
M  V30 1213 H 108.444 -5.15493 -3.07225 0
M  V30 1214 H 109.514 -4.49321 -1.82316 0
M  V30 1215 N 110.857 0.726932 -1.39834 0
M  V30 1216 C 111.805 1.86235 -1.39353 0
M  V30 1217 C 112.799 1.67144 -0.275555 0
M  V30 1218 O 114.005 1.74387 -0.44601 0
M  V30 1219 H 110.38 0.613174 -0.43534 0
M  V30 1220 H 112.351 1.83756 -2.35109 0
M  V30 1221 C 111.1 3.23995 -1.26185 0
M  V30 1222 H 110.423 3.39285 -2.11484 0
M  V30 1223 H 111.863 4.03609 -1.29907 0
M  V30 1224 C 110.322 3.36888 0.0290018 0
M  V30 1225 O 110.852 3.89152 0.99619 0
M  V30 1226 N 109.058 2.90446 0.0947437 0
M  V30 1227 H 108.605 2.48102 -0.693035 0
M  V30 1228 H 108.563 2.99451 0.957932 0
M  V30 1229 N 112.336 1.25143 0.95797 0
M  V30 1230 C 113.266 1.07711 2.07173 0
M  V30 1231 C 114.247 -0.0128462 1.70095 0
M  V30 1232 O 115.432 0.156061 1.93572 0
M  V30 1233 C 112.562 0.691503 3.40346 0
M  V30 1234 C 111.516 1.73132 3.9142 0
M  V30 1235 C 110.842 1.20049 5.21049 0
M  V30 1236 C 112.142 3.1294 4.1817 0
M  V30 1237 H 113.836 2.00873 2.22014 0
M  V30 1238 H 111.382 0.967191 1.06684 0
M  V30 1239 H 113.335 0.556505 4.17709 0
M  V30 1240 H 112.059 -0.275819 3.25433 0
M  V30 1241 H 110.718 1.8547 3.16222 0
M  V30 1242 H 110.366 0.223499 5.02503 0
M  V30 1243 H 110.066 1.89545 5.56189 0
M  V30 1244 H 111.59 1.07782 6.01012 0
M  V30 1245 H 113.004 3.03775 4.86203 0
M  V30 1246 H 111.401 3.79875 4.64559 0
M  V30 1247 H 112.471 3.6025 3.24573 0
M  V30 1248 N 113.814 -1.1601 1.06675 0
M  V30 1249 C 115.062 -1.86264 0.784229 0
M  V30 1250 C 115.383 -1.82328 -0.691488 0
M  V30 1251 O 114.653 -1.25947 -1.50047 0
M  V30 1252 H 113.233 -0.689621 0.28711 0
M  V30 1253 H 115.895 -1.40664 1.34906 0
M  V30 1254 H 114.991 -2.91595 1.11259 0
M  V30 1255 N 115.292 -0.849877 -1.32721 0
M  V30 1256 C 116.708 -0.539102 -1.50219 0
M  V30 1257 C 116.908 0.931271 -1.78689 0
M  V30 1258 O 115.964 1.71455 -1.85363 0
M  V30 1259 C 117.277 -1.42196 -2.64954 0
M  V30 1260 C 118.825 -1.42189 -2.78839 0
M  V30 1261 C 119.3 -2.28985 -3.96648 0
M  V30 1262 N 120.791 -2.26754 -4.03902 0
M  V30 1263 C 121.526 -2.90644 -4.94281 0
M  V30 1264 N 121.022 -3.63629 -5.897 0
M  V30 1265 N 122.815 -2.80057 -4.87365 0
M  V30 1266 H 114.966 -1.80156 -1.12506 0
M  V30 1267 H 117.229 -0.769217 -0.554085 0
M  V30 1268 H 116.935 -2.46733 -2.50631 0
M  V30 1269 H 116.809 -1.10591 -3.60624 0
M  V30 1270 H 119.196 -0.38419 -2.92588 0
M  V30 1271 H 119.277 -1.77807 -1.83898 0
M  V30 1272 H 118.921 -3.32819 -3.83658 0
M  V30 1273 H 118.851 -1.90702 -4.90857 0
M  V30 1274 H 121.342 -1.73688 -3.3562 0
M  V30 1275 H 121.655 -4.09558 -6.55349 0
M  V30 1276 H 120 -3.67737 -5.89741 0
M  V30 1277 H 123.191 -2.22593 -4.11789 0
M  V30 1278 H 123.364 -3.30132 -5.57599 0
M  V30 1279 N 116.77 1.45427 -0.607355 0
M  V30 1280 C 118.186 1.57283 -0.270985 0
M  V30 1281 C 118.386 1.59875 1.22647 0
M  V30 1282 O 117.442 1.52893 2.00948 0
M  V30 1283 C 118.755 2.85566 -0.941952 0
M  V30 1284 C 120.303 2.9924 -0.917849 0
M  V30 1285 C 120.778 4.30293 -1.56882 0
M  V30 1286 N 122.269 4.37051 -1.5343 0
M  V30 1287 C 123.004 5.37123 -2.00715 0
M  V30 1288 N 122.5 6.43734 -2.56084 0
M  V30 1289 N 124.293 5.28479 -1.91484 0
M  V30 1290 H 116.444 1.41988 -1.57966 0
M  V30 1291 H 118.707 0.67885 -0.661715 0
M  V30 1292 H 118.413 2.8955 -1.99633 0
M  V30 1293 H 118.287 3.74322 -0.465096 0
M  V30 1294 H 120.674 2.94822 0.127984 0
M  V30 1295 H 120.755 2.11895 -1.43297 0
M  V30 1296 H 120.399 4.35469 -2.61398 0
M  V30 1297 H 120.329 5.16454 -1.02873 0
M  V30 1298 H 122.82 3.60615 -1.12982 0
M  V30 1299 H 123.133 7.16341 -2.89958 0
M  V30 1300 H 121.478 6.44485 -2.60122 0
M  V30 1301 H 124.669 4.44098 -1.47967 0
M  V30 1302 H 124.842 6.0632 -2.28648 0
M  V30 1303 N 118.248 0.346503 1.53744 0
M  V30 1304 C 119.158 -0.517293 2.28826 0
M  V30 1305 C 120.174 -1.10935 1.3405 0
M  V30 1306 O 121.35 -1.1244 1.6709 0
M  V30 1307 C 118.415 -1.65098 3.04866 0
M  V30 1308 C 117.476 -1.0884 4.15274 0
M  V30 1309 C 116.709 -2.16806 4.87679 0
M  V30 1310 O 116.932 -3.3758 4.59778 0
M  V30 1311 O 115.866 -1.80934 5.74061 0
M  V30 1312 H 119.692 0.0931396 3.03557 0
M  V30 1313 H 117.277 0.111458 1.48984 0
M  V30 1314 H 119.159 -2.31053 3.5241 0
M  V30 1315 H 117.834 -2.24717 2.32989 0
M  V30 1316 H 116.741 -0.3933 3.72027 0
M  V30 1317 H 118.074 -0.537036 4.89261 0
M  V30 1318 N 119.726 -1.57421 0.075193 0
M  V30 1319 C 120.636 -2.1642 -0.905511 0
M  V30 1320 C 121.652 -1.12828 -1.32461 0
M  V30 1321 O 122.828 -1.45109 -1.39661 0
M  V30 1322 C 119.893 -2.71693 -2.15369 0
M  V30 1323 C 118.954 -3.90171 -1.79068 0
M  V30 1324 C 118.187 -4.42798 -2.97936 0
M  V30 1325 O 118.41 -3.94416 -4.12058 0
M  V30 1326 O 117.344 -5.34085 -2.77555 0
M  V30 1327 H 121.17 -3.00588 -0.433626 0
M  V30 1328 H 118.755 -1.48664 -0.148067 0
M  V30 1329 H 120.637 -3.07104 -2.88557 0
M  V30 1330 H 119.312 -1.90582 -2.61649 0
M  V30 1331 H 118.219 -3.59606 -1.03122 0
M  V30 1332 H 119.552 -4.72584 -1.37569 0
M  V30 1333 N 121.204 0.198386 -1.56346 0
M  V30 1334 C 122.434 0.934215 -1.84271 0
M  V30 1335 C 122.842 1.77496 -0.655125 0
M  V30 1336 O 122.185 1.7961 0.385488 0
M  V30 1337 C 122.247 1.88278 -3.06254 0
M  V30 1338 C 121.911 1.22431 -4.40295 0
M  V30 1339 C 122.908 0.602839 -5.16393 0
M  V30 1340 C 120.593 1.22915 -4.87029 0
M  V30 1341 C 122.587 -0.0050083 -6.374 0
M  V30 1342 C 120.274 0.617465 -6.07973 0
M  V30 1343 C 121.272 0.00146341 -6.83 0
M  V30 1344 O 120.96 -0.600642 -8.01653 0
M  V30 1345 H 120.692 0.278245 -0.616081 0
M  V30 1346 H 123.246 0.211626 -2.04307 0
M  V30 1347 H 121.476 2.64498 -2.82095 0
M  V30 1348 H 123.165 2.48612 -3.20853 0
M  V30 1349 H 123.931 0.591265 -4.81382 0
M  V30 1350 H 119.81 1.69801 -4.28589 0
M  V30 1351 H 123.354 -0.48643 -6.95902 0
M  V30 1352 H 119.251 0.62653 -6.42452 0
M  V30 1353 H 120.019 -0.497225 -8.16988 0
M  V30 1354 N 122.682 1.50554 0.465978 0
M  V30 1355 C 123.959 1.5232 1.22712 0
M  V30 1356 C 124.339 0.270807 2.09356 0
M  V30 1357 O 123.687 -0.745541 2.15995 0
M  V30 1358 C 123.897 2.82175 2.05374 0
M  V30 1359 C 125.245 3.33033 2.6339 0
M  V30 1360 O 126.269 2.83531 2.15612 0
M  V30 1361 O 125.128 4.19336 3.50456 0
M  V30 1362 H 122.222 0.611183 0.557122 0
M  V30 1363 H 124.768 1.62847 0.477381 0
M  V30 1364 H 123.54 3.64797 1.41558 0
M  V30 1365 H 123.163 2.74675 2.87471 0
M  V30 1366 N 124.16 -0.719506 1.40217 0
M  V30 1367 C 125.406 -1.48152 1.38488 0
M  V30 1368 C 125.739 -1.94195 -0.0141867 0
M  V30 1369 O 125.014 -1.67884 -0.982096 0
M  V30 1370 C 125.297 -2.71035 2.37091 0
M  V30 1371 C 125.15 -2.30912 3.86005 0
M  V30 1372 C 126.469 -3.73182 2.33288 0
M  V30 1373 H 123.588 -0.537395 0.504357 0
M  V30 1374 H 126.23 -0.821472 1.71324 0
M  V30 1375 H 124.38 -3.27352 2.0922 0
M  V30 1376 H 126.052 -1.80107 4.24687 0
M  V30 1377 H 124.295 -1.62958 4.02029 0
M  V30 1378 H 124.966 -3.18978 4.50508 0
M  V30 1379 H 127.442 -3.26485 2.57966 0
M  V30 1380 H 126.318 -4.56806 3.04334 0
M  V30 1381 H 126.579 -4.21202 1.34317 0
M  V30 1382 N 125.638 -1.25649 -0.95132 0
M  V30 1383 C 126.568 -1.08808 -2.06599 0
M  V30 1384 C 127.549 0.00382547 -1.701 0
M  V30 1385 O 128.734 -0.166325 -1.93486 0
M  V30 1386 C 125.864 -0.709542 -3.39975 0
M  V30 1387 C 124.818 -1.75206 -3.90496 0
M  V30 1388 C 124.144 -1.22811 -5.20405 0
M  V30 1389 C 125.444 -3.15153 -4.16504 0
M  V30 1390 H 127.138 -2.02048 -2.20946 0
M  V30 1391 H 124.684 -0.972835 -1.06169 0
M  V30 1392 H 126.637 -0.578649 -4.17408 0
M  V30 1393 H 125.361 0.258556 -3.25575 0
M  V30 1394 H 124.02 -1.87145 -3.15234 0
M  V30 1395 H 123.668 -0.250145 -5.02378 0
M  V30 1396 H 123.368 -1.92492 -5.55176 0
M  V30 1397 H 124.892 -1.10968 -6.00432 0
M  V30 1398 H 126.306 -3.06349 -4.84586 0
M  V30 1399 H 124.703 -3.82333 -4.62538 0
M  V30 1400 H 125.773 -3.61966 -3.22658 0
M  V30 1401 N 127.117 1.15442 -1.07289 0
M  V30 1402 C 128.394 1.82306 -0.708792 0
M  V30 1403 C 128.774 1.94991 0.808807 0
M  V30 1404 O 128.122 1.50085 1.72298 0
M  V30 1405 C 128.332 3.18695 -1.42247 0
M  V30 1406 C 129.68 3.94341 -1.57417 0
M  V30 1407 O 130.704 3.28247 -1.38319 0
M  V30 1408 O 129.563 5.12839 -1.88834 0
M  V30 1409 H 126.657 0.787628 -0.252132 0
M  V30 1410 H 129.203 1.22559 -1.17377 0
M  V30 1411 H 127.975 3.04557 -2.45684 0
M  V30 1412 H 127.598 3.86128 -0.948223 0
M  V30 1413 N 128.595 0.856903 1.32268 0
M  V30 1414 C 129.542 0.301172 2.28827 0
M  V30 1415 C 130.512 -0.593104 1.5515 0
M  V30 1416 O 131.697 -0.527537 1.83362 0
M  V30 1417 C 128.837 -0.502523 3.41422 0
M  V30 1418 C 127.95 0.417797 4.29975 0
M  V30 1419 C 127.085 -0.398749 5.29701 0
M  V30 1420 C 126.124 0.518827 6.09897 0
M  V30 1421 N 125.261 -0.260674 7.01616 0
M  V30 1422 H 130.101 1.12983 2.75751 0
M  V30 1423 H 127.638 0.568582 1.35667 0
M  V30 1424 H 129.596 -0.984141 4.05426 0
M  V30 1425 H 128.226 -1.29599 2.95642 0
M  V30 1426 H 127.278 1.01781 3.66531 0
M  V30 1427 H 128.59 1.12191 4.86019 0
M  V30 1428 H 127.744 -0.943435 5.9932 0
M  V30 1429 H 126.483 -1.13622 4.7428 0
M  V30 1430 H 125.488 1.07538 5.39181 0
M  V30 1431 H 126.713 1.25495 6.67404 0
M  V30 1432 H 124.659 -0.981198 6.4862 0
M  V30 1433 H 124.576 0.384364 7.55022 0
M  V30 1434 H 125.844 -0.787014 7.75517 0
M  V30 1435 N 130.073 -1.45103 0.615059 0
M  V30 1436 C 131.489 -1.57137 0.279322 0
M  V30 1437 C 131.689 -1.60523 -1.21797 0
M  V30 1438 O 130.745 -1.53956 -2.00134 0
M  V30 1439 C 132.058 -2.85062 0.957083 0
M  V30 1440 C 133.606 -2.98749 0.933706 0
M  V30 1441 C 134.081 -4.29455 1.59162 0
M  V30 1442 N 135.572 -4.36231 1.55746 0
M  V30 1443 C 136.307 -5.36051 2.0356 0
M  V30 1444 N 135.803 -6.42367 2.59494 0
M  V30 1445 N 137.596 -5.27456 1.94284 0
M  V30 1446 H 129.747 -1.41148 1.58717 0
M  V30 1447 H 132.01 -0.675331 0.665306 0
M  V30 1448 H 131.716 -2.88488 2.01166 0
M  V30 1449 H 131.59 -3.7407 0.48494 0
M  V30 1450 H 133.977 -2.94886 -0.112347 0
M  V30 1451 H 134.058 -2.11132 1.44419 0
M  V30 1452 H 133.702 -4.34077 2.63704 0
M  V30 1453 H 133.632 -5.15901 1.0561 0
M  V30 1454 H 136.123 -3.60011 1.14893 0
M  V30 1455 H 136.436 -7.14793 2.93752 0
M  V30 1456 H 134.781 -6.43097 2.63537 0
M  V30 1457 H 137.972 -4.43308 1.5032 0
M  V30 1458 H 138.145 -6.05099 2.3186 0
M  V30 1459 N 131.551 -0.354651 -1.53558 0
M  V30 1460 C 132.967 -0.00315426 -1.596 0
M  V30 1461 C 133.167 1.47741 -1.37021 0
M  V30 1462 O 132.223 2.23759 -1.16996 0
M  V30 1463 C 133.536 -0.44929 -2.97325 0
M  V30 1464 C 135.084 -0.402578 -3.104 0
M  V30 1465 C 135.559 -0.824355 -4.5052 0
M  V30 1466 N 137.05 -0.778979 -4.56603 0
M  V30 1467 C 137.785 -1.07715 -5.63192 0
M  V30 1468 N 137.281 -1.44405 -6.77583 0
M  V30 1469 N 139.074 -1.00066 -5.53121 0
M  V30 1470 H 131.225 -1.31893 -1.66487 0
M  V30 1471 H 133.488 -0.538388 -0.780284 0
M  V30 1472 H 133.194 -1.48202 -3.1895 0
M  V30 1473 H 133.068 0.169772 -3.76818 0
M  V30 1474 H 135.455 0.621004 -2.88492 0
M  V30 1475 H 135.536 -1.05699 -2.32941 0
M  V30 1476 H 135.18 -1.846 -4.73165 0
M  V30 1477 H 135.11 -0.147304 -5.26394 0
M  V30 1478 H 137.601 -0.508528 -3.74463 0
M  V30 1479 H 137.914 -1.65612 -7.54846 0
M  V30 1480 H 136.259 -1.4826 -6.79002 0
M  V30 1481 H 139.45 -0.713293 -4.62633 0
M  V30 1482 H 139.623 -1.23638 -6.36096 0
M  V30 1483 N 133.029 1.57378 -0.0835403 0
M  V30 1484 C 134.277 1.93547 0.581718 0
M  V30 1485 C 134.598 0.96524 1.69435 0
M  V30 1486 O 133.868 0.0153369 1.95894 0
M  V30 1487 H 132.448 0.714521 0.217874 0
M  V30 1488 H 135.11 1.94366 -0.144158 0
M  V30 1489 H 134.206 2.95665 0.999423 0
M  V30 1490 N 134.507 -0.190092 1.56449 0
M  V30 1491 C 135.923 -0.54113 1.50146 0
M  V30 1492 C 136.123 -1.85603 0.784465 0
M  V30 1493 O 135.179 -2.5024 0.337051 0
M  V30 1494 C 136.492 -0.591241 2.9483 0
M  V30 1495 C 138.04 -0.679732 3.0553 0
M  V30 1496 C 138.515 -0.760908 4.51635 0
M  V30 1497 N 140.006 -0.824302 4.55806 0
M  V30 1498 C 140.741 -0.907365 5.66175 0
M  V30 1499 N 140.237 -0.952422 6.86222 0
M  V30 1500 N 142.03 -0.94494 5.541 0
M  V30 1501 H 134.181 0.67235 2.01478 0
M  V30 1502 H 136.444 0.240127 0.917084 0
M  V30 1503 H 136.15 0.305905 3.50367 0
M  V30 1504 H 136.024 -1.44422 3.48457 0
M  V30 1505 H 138.411 -1.56731 2.50039 0
M  V30 1506 H 138.492 0.199549 2.5502 0
M  V30 1507 H 138.136 0.122336 5.07753 0
M  V30 1508 H 138.066 -1.65606 4.99882 0
M  V30 1509 H 140.557 -0.798526 3.69367 0
M  V30 1510 H 140.87 -1.01645 7.66086 0
M  V30 1511 H 139.215 -0.921014 6.8887 0
M  V30 1512 H 142.406 -0.906612 4.59236 0
M  V30 1513 H 142.579 -1.00622 6.4014 0
M  V30 1514 N 135.985 -1.50799 -0.457987 0
M  V30 1515 C 137.262 -1.52968 -1.21902 0
M  V30 1516 C 137.642 -0.281906 -2.09209 0
M  V30 1517 O 136.99 0.734076 -2.16388 0
M  V30 1518 C 137.2 -2.8326 -2.03875 0
M  V30 1519 C 138.548 -3.34425 -2.6162 0
M  V30 1520 O 139.572 -2.8467 -2.14106 0
M  V30 1521 O 138.431 -4.21188 -3.48228 0
M  V30 1522 H 135.525 -0.614129 -0.553873 0
M  V30 1523 H 138.071 -1.63098 -0.468739 0
M  V30 1524 H 136.843 -3.65543 -1.39621 0
M  V30 1525 H 136.466 -2.76195 -2.8601 0
M  V30 1526 N 137.463 0.71206 -1.40597 0
M  V30 1527 C 138.874 1.29135 -1.34837 0
M  V30 1528 C 139.225 1.96186 -0.0235395 0
M  V30 1529 O 138.35 1.97768 0.878444 0
M  V30 1530 C 138.945 2.34827 -2.44217 0
M  V30 1531 C 137.504 2.88371 -2.41907 0
M  V30 1532 C 136.651 1.62202 -2.24913 0
M  V30 1533 H 139.602 0.507944 -1.50352 0
M  V30 1534 H 139.623 3.15749 -2.12327 0
M  V30 1535 H 139.135 1.85996 -3.40627 0
M  V30 1536 H 137.236 3.41422 -1.49204 0
M  V30 1537 H 137.349 3.39925 -3.37621 0
M  V30 1538 H 135.713 1.874 -1.72492 0
M  V30 1539 H 136.496 1.15391 -3.23326 0
M  V30 1540 N 138.941 1.26152 0.944643 0
M  V30 1541 C 139.851 1.09176 2.07648 0
M  V30 1542 C 140.867 0.0261935 1.7398 0
M  V30 1543 O 142.043 0.229208 2.00091 0
M  V30 1544 C 139.108 0.722915 3.39079 0
M  V30 1545 C 138.169 1.86752 3.86552 0
M  V30 1546 C 137.402 1.51617 5.11711 0
M  V30 1547 O 137.625 0.416331 5.68879 0
M  V30 1548 O 136.559 2.34975 5.54139 0
M  V30 1549 H 140.385 2.0412 2.24875 0
M  V30 1550 H 137.97 1.05182 1.061 0
M  V30 1551 H 139.852 0.529787 4.18056 0
M  V30 1552 H 138.527 -0.197159 3.23099 0
M  V30 1553 H 137.434 2.11558 3.08535 0
M  V30 1554 H 138.767 2.76719 4.07047 0
M  V30 1555 N 140.419 -1.14872 1.07899 0
M  V30 1556 C 141.352 -2.18794 0.64841 0
M  V30 1557 C 142.33 -1.59065 -0.337189 0
M  V30 1558 O 143.514 -1.86936 -0.242284 0
M  V30 1559 C 140.641 -3.38667 -0.0470417 0
M  V30 1560 C 139.687 -4.16942 0.897884 0
M  V30 1561 S 140.52 -4.78615 2.40183 0
M  V30 1562 C 141.676 -6.0185 1.71834 0
M  V30 1563 H 141.909 -2.5498 1.52881 0
M  V30 1564 H 139.442 -1.25922 0.893484 0
M  V30 1565 H 141.4 -4.08113 -0.442027 0
M  V30 1566 H 140.061 -3.00814 -0.903861 0
M  V30 1567 H 139.254 -5.02726 0.358096 0
M  V30 1568 H 138.856 -3.53073 1.23352 0
M  V30 1569 H 141.148 -6.69574 1.03328 0
M  V30 1570 H 142.091 -6.60408 2.55473 0
M  V30 1571 H 142.499 -5.5173 1.19392 0
M  V30 1572 N 141.898 -0.863906 -1.31812 0
M  V30 1573 C 143.146 -0.470904 -1.96537 0
M  V30 1574 C 143.467 0.978771 -1.68657 0
M  V30 1575 O 142.737 1.6853 -0.998717 0
M  V30 1576 H 141.317 -0.171148 -0.72713 0
M  V30 1577 H 143.979 -1.10236 -1.60729 0
M  V30 1578 H 143.075 -0.623616 -3.05806 0
M  V30 1579 N 143.376 1.44774 -0.622745 0
M  V30 1580 C 144.624 2.01721 -0.123655 0
M  V30 1581 C 144.945 1.49172 1.25589 0
M  V30 1582 O 144.215 0.691974 1.83272 0
M  V30 1583 H 142.795 0.745777 -0.0427225 0
M  V30 1584 H 145.457 1.77382 -0.807559 0
M  V30 1585 H 144.553 3.11984 -0.0849534 0
M  V30 1586 N 144.854 0.36279 1.53368 0
M  V30 1587 C 145.801 -0.485008 2.25646 0
M  V30 1588 C 146.771 -1.07982 1.2621 0
M  V30 1589 O 147.956 -1.11284 1.54986 0
M  V30 1590 C 145.096 -1.62023 3.04701 0
M  V30 1591 C 144.209 -1.05086 4.19024 0
M  V30 1592 C 143.344 -2.15496 4.85525 0
M  V30 1593 C 142.383 -1.5601 5.91884 0
M  V30 1594 N 141.52 -2.60241 6.52088 0
M  V30 1595 H 146.36 0.137864 2.97681 0
M  V30 1596 H 143.897 0.0798061 1.46883 0
M  V30 1597 H 145.855 -2.28887 3.48807 0
M  V30 1598 H 144.485 -2.2138 2.34927 0
M  V30 1599 H 143.537 -0.27259 3.79422 0
M  V30 1600 H 144.849 -0.575926 4.95464 0
M  V30 1601 H 144.003 -2.90186 5.32801 0
M  V30 1602 H 142.742 -2.66341 4.08551 0
M  V30 1603 H 141.747 -0.798338 5.43973 0
M  V30 1604 H 142.972 -1.05994 6.70777 0
M  V30 1605 H 140.918 -3.10304 5.77968 0
M  V30 1606 H 140.835 -2.17426 7.24059 0
M  V30 1607 H 142.103 -3.34641 7.04014 0
M  V30 1608 N 146.332 -1.57332 0.0918853 0
M  V30 1609 C 147.743 -1.81496 -0.437739 0
M  V30 1610 C 148.094 -1.00727 -1.6837 0
M  V30 1611 O 147.219 -0.235694 -2.15113 0
M  V30 1612 C 147.814 -3.29197 -0.800939 0
M  V30 1613 C 146.373 -3.54136 -1.27532 0
M  V30 1614 C 145.52 -2.75979 -0.270392 0
M  V30 1615 H 148.471 -1.55494 0.317366 0
M  V30 1616 H 148.492 -3.42344 -1.66074 0
M  V30 1617 H 148.004 -3.87955 0.106078 0
M  V30 1618 H 146.105 -3.00705 -2.20016 0
M  V30 1619 H 146.218 -4.62792 -1.23938 0
M  V30 1620 H 144.582 -2.43349 -0.751872 0
M  V30 1621 H 145.365 -3.37484 0.629248 0
M  V30 1622 N 147.81 0.181792 -1.56548 0
M  V30 1623 C 148.742 1.24956 -1.92142 0
M  V30 1624 C 149.755 1.41022 -0.813422 0
M  V30 1625 O 150.944 1.41212 -1.09186 0
M  V30 1626 C 148.044 2.61981 -2.14987 0
M  V30 1627 C 147.217 2.6735 -3.46183 0
M  V30 1628 C 146.276 3.85664 -3.5798 0
M  V30 1629 O 145.302 3.72148 -4.30691 0
M  V30 1630 N 146.504 5.01683 -2.92053 0
M  V30 1631 H 149.269 0.947329 -2.84334 0
M  V30 1632 H 146.83 0.371629 -1.57577 0
M  V30 1633 H 148.822 3.3958 -2.20154 0
M  V30 1634 H 147.392 2.84637 -1.2923 0
M  V30 1635 H 146.612 1.75925 -3.52766 0
M  V30 1636 H 147.9 2.67939 -4.32534 0
M  V30 1637 H 147.298 5.15564 -2.32832 0
M  V30 1638 H 145.855 5.77181 -3.0283 0
M  V30 1639 N 149.288 1.51039 0.449983 0
M  V30 1640 C 150.704 1.38934 0.785462 0
M  V30 1641 C 150.904 0.461817 1.96136 0
M  V30 1642 O 149.96 -0.0877389 2.52348 0
M  V30 1643 C 151.273 2.80724 1.0777 0
M  V30 1644 C 152.821 2.89787 1.1829 0
M  V30 1645 C 153.296 4.32457 1.50815 0
M  V30 1646 N 154.787 4.35505 1.57764 0
M  V30 1647 C 155.522 5.42914 1.84477 0
M  V30 1648 N 155.018 6.60502 2.09068 0
M  V30 1649 N 156.811 5.3038 1.86155 0
M  V30 1650 H 148.962 2.09904 -0.324647 0
M  V30 1651 H 151.225 0.944378 -0.0827957 0
M  V30 1652 H 150.931 3.50531 0.286498 0
M  V30 1653 H 150.805 3.19273 2.00859 0
M  V30 1654 H 153.192 2.20186 1.96474 0
M  V30 1655 H 153.273 2.54752 0.231314 0
M  V30 1656 H 152.917 5.02603 0.731622 0
M  V30 1657 H 152.847 4.64995 2.47158 0
M  V30 1658 H 155.338 3.50724 1.40715 0
M  V30 1659 H 155.651 7.38158 2.28785 0
M  V30 1660 H 153.996 6.63639 2.06416 0
M  V30 1661 H 157.187 4.37505 1.66454 0
M  V30 1662 H 157.36 6.1417 2.06637 0
M  V30 1663 N 150.766 -0.704594 1.40972 0
M  V30 1664 C 152.182 -1.01406 1.23244 0
M  V30 1665 C 152.382 -2.01169 0.115399 0
M  V30 1666 O 151.438 -2.47021 -0.523147 0
M  V30 1667 C 152.751 -1.54728 2.57836 0
M  V30 1668 C 154.299 -1.66658 2.64942 0
M  V30 1669 C 154.774 -2.23383 3.9983 0
M  V30 1670 N 156.265 -2.30756 4.01629 0
M  V30 1671 C 157 -2.75655 5.02794 0
M  V30 1672 N 156.496 -3.20225 6.14352 0
M  V30 1673 N 158.289 -2.75138 4.90159 0
M  V30 1674 H 150.44 -0.0435285 2.12355 0
M  V30 1675 H 152.703 -0.0818951 0.944456 0
M  V30 1676 H 152.409 -0.888832 3.40283 0
M  V30 1677 H 152.283 -2.53084 2.79693 0
M  V30 1678 H 154.67 -2.31617 1.8286 0
M  V30 1679 H 154.751 -0.668717 2.46904 0
M  V30 1680 H 154.395 -1.59043 4.82357 0
M  V30 1681 H 154.325 -3.23904 4.15203 0
M  V30 1682 H 156.816 -1.99291 3.21079 0
M  V30 1683 H 157.129 -3.53084 6.87424 0
M  V30 1684 H 155.474 -3.18156 6.17901 0
M  V30 1685 H 158.665 -2.39661 4.02095 0
M  V30 1686 H 158.838 -3.09812 5.6914 0
M  V30 1687 N 152.244 -1.26651 -0.937939 0
M  V30 1688 C 153.191 -1.0849 -2.03712 0
M  V30 1689 C 154.161 0.011033 -1.66096 0
M  V30 1690 O 155.346 -0.149353 -1.90215 0
M  V30 1691 C 152.486 -0.72735 -3.37348 0
M  V30 1692 C 151.599 -1.89986 -3.87981 0
M  V30 1693 C 150.734 -1.48513 -5.10017 0
M  V30 1694 C 149.773 -2.62575 -5.5292 0
M  V30 1695 N 148.91 -2.21762 -6.66158 0
M  V30 1696 H 153.75 -2.02551 -2.18579 0
M  V30 1697 H 151.287 -1.00844 -1.07093 0
M  V30 1698 H 153.245 -0.50092 -4.14182 0
M  V30 1699 H 151.875 0.176298 -3.22318 0
M  V30 1700 H 150.927 -2.23913 -3.07518 0
M  V30 1701 H 152.239 -2.75586 -4.15757 0
M  V30 1702 H 151.393 -1.21934 -5.94321 0
M  V30 1703 H 150.132 -0.60009 -4.83994 0
M  V30 1704 H 149.137 -2.8988 -4.67172 0
M  V30 1705 H 150.362 -3.51685 -5.80943 0
M  V30 1706 H 148.308 -1.35696 -6.41812 0
M  V30 1707 H 148.225 -3.00903 -6.93537 0
M  V30 1708 H 149.493 -1.98403 -7.53828 0
M  V30 1709 N 153.722 1.14298 -1.08507 0
M  V30 1710 C 154.67 2.21483 -0.710483 0
M  V30 1711 C 155.664 1.66998 0.284234 0
M  V30 1712 O 156.87 1.79401 0.146692 0
M  V30 1713 H 153.245 0.721578 -0.211729 0
M  V30 1714 H 155.216 2.50348 -1.62384 0
M  V30 1715 C 153.965 3.4743 -0.137007 0
M  V30 1716 H 153.288 3.89686 -0.893592 0
M  V30 1717 H 154.728 4.2391 0.0872789 0
M  V30 1718 C 153.187 3.17548 1.12538 0
M  V30 1719 O 153.717 3.35437 2.21009 0
M  V30 1720 N 151.923 2.71499 1.03617 0
M  V30 1721 H 151.47 2.57143 0.153403 0
M  V30 1722 H 151.428 2.51881 1.88158 0
M  V30 1723 N 155.201 0.870884 1.31352 0
M  V30 1724 C 156.612 0.534714 1.78879 0
M  V30 1725 C 156.963 -0.948423 1.71754 0
M  V30 1726 O 156.088 -1.74055 1.28584 0
M  V30 1727 C 156.683 0.963839 3.24801 0
M  V30 1728 C 155.242 0.679311 3.70219 0
M  V30 1729 C 154.389 1.15465 2.52117 0
M  V30 1730 H 157.34 1.05651 1.18421 0
M  V30 1731 H 157.361 0.286892 3.79417 0
M  V30 1732 H 156.873 2.04332 3.29955 0
M  V30 1733 H 154.974 -0.388769 3.70566 0
M  V30 1734 H 155.087 1.25698 4.62317 0
M  V30 1735 H 153.451 0.574383 2.48139 0
M  V30 1736 H 154.234 2.24157 2.60016 0
M  V30 1737 N 156.679 -1.44442 0.630414 0
M  V30 1738 C 157.611 -2.2892 -0.113347 0
M  V30 1739 C 158.624 -1.41243 -0.80959 0
M  V30 1740 O 159.813 -1.65402 -0.671156 0
M  V30 1741 C 156.913 -3.17594 -1.18266 0
M  V30 1742 C 156.086 -4.33682 -0.569073 0
M  V30 1743 C 155.145 -5.03397 -1.53226 0
M  V30 1744 O 154.171 -5.59438 -1.04967 0
M  V30 1745 N 155.373 -5.04783 -2.86661 0
M  V30 1746 H 158.138 -2.93392 0.611636 0
M  V30 1747 H 155.699 -1.54881 0.471523 0
M  V30 1748 H 157.691 -3.61097 -1.82732 0
M  V30 1749 H 156.261 -2.54876 -1.80988 0
M  V30 1750 H 155.481 -3.9338 0.254187 0
M  V30 1751 H 156.769 -5.08608 -0.139767 0
M  V30 1752 H 156.167 -4.60584 -3.28449 0
M  V30 1753 H 154.724 -5.52077 -3.46489 0
M  V30 1754 N 158.157 -0.370918 -1.53173 0
M  V30 1755 C 159.067 0.480823 -2.2962 0
M  V30 1756 C 160.083 1.08789 -1.35798 0
M  V30 1757 O 161.259 1.09768 -1.68858 0
M  V30 1758 C 158.324 1.60227 -3.07454 0
M  V30 1759 C 157.385 1.0222 -4.16953 0
M  V30 1760 C 156.618 2.0902 -4.91066 0
M  V30 1761 O 156.841 3.30222 -4.65091 0
M  V30 1762 O 155.775 1.71778 -5.76867 0
M  V30 1763 H 159.601 -0.141421 -3.03371 0
M  V30 1764 H 157.186 -0.135146 -1.48787 0
M  V30 1765 H 159.068 2.25417 -3.56041 0
M  V30 1766 H 157.743 2.20982 -2.36535 0
M  V30 1767 H 156.65 0.334064 -3.72605 0
M  V30 1768 H 157.983 0.459131 -4.90054 0
M  V30 1769 N 159.635 1.57281 -0.100228 0
M  V30 1770 C 160.883 1.94153 0.561157 0
M  V30 1771 C 161.204 0.983157 1.68401 0
M  V30 1772 O 160.474 0.0361132 1.95867 0
M  V30 1773 H 159.054 0.716791 0.210283 0
M  V30 1774 H 161.716 1.94202 -0.164765 0
M  V30 1775 H 160.812 2.96709 0.968008 0
M  V30 1776 N 161.113 -0.173488 1.56642 0
M  V30 1777 C 162.043 -1.2171 1.99271 0
M  V30 1778 C 163.024 -1.46289 0.867959 0
M  V30 1779 O 164.209 -1.5766 1.13388 0
M  V30 1780 C 161.339 -2.55651 2.35074 0
M  V30 1781 C 160.293 -2.45645 3.50489 0
M  V30 1782 C 159.619 -3.84056 3.72028 0
M  V30 1783 C 160.919 -1.96302 4.84007 0
M  V30 1784 H 162.613 -0.86275 2.867 0
M  V30 1785 H 160.159 -0.413571 1.37933 0
M  V30 1786 H 162.112 -3.2886 2.63494 0
M  V30 1787 H 160.836 -2.92869 1.44552 0
M  V30 1788 H 159.495 -1.7489 3.22194 0
M  V30 1789 H 159.143 -4.18664 2.788 0
M  V30 1790 H 158.843 -3.7823 4.49684 0
M  V30 1791 H 160.367 -4.58854 4.02846 0
M  V30 1792 H 161.781 -2.59284 5.11317 0
M  V30 1793 H 160.178 -2.01429 5.65284 0
M  V30 1794 H 161.248 -0.917226 4.76146 0
M  V30 1795 N 162.591 -1.51276 -0.441967 0
M  V30 1796 C 163.821 -1.67273 -1.21257 0
M  V30 1797 C 164.229 -0.367624 -1.85594 0
M  V30 1798 O 163.572 0.663349 -1.71305 0
M  V30 1799 C 163.634 -2.72807 -2.34129 0
M  V30 1800 C 163.298 -4.1554 -1.90198 0
M  V30 1801 C 164.295 -5.00471 -1.40801 0
M  V30 1802 C 161.98 -4.61616 -1.9803 0
M  V30 1803 C 163.974 -6.29536 -0.998174 0
M  V30 1804 C 161.661 -5.90679 -1.56658 0
M  V30 1805 C 162.659 -6.74466 -1.07633 0
M  V30 1806 O 162.347 -8.01116 -0.668459 0
M  V30 1807 H 162.079 -0.564614 -0.371734 0
M  V30 1808 H 164.633 -1.9843 -0.530521 0
M  V30 1809 H 162.863 -2.36954 -3.05597 0
M  V30 1810 H 164.552 -2.77729 -2.96009 0
M  V30 1811 H 165.318 -4.66079 -1.34148 0
M  V30 1812 H 161.197 -3.96526 -2.35135 0
M  V30 1813 H 164.741 -6.94885 -0.61482 0
M  V30 1814 H 160.638 -6.24586 -1.62979 0
M  V30 1815 H 161.406 -8.14633 -0.794722 0
M  V30 1816 N 164.069 0.697108 -1.41344 0
M  V30 1817 C 165.017 1.83237 -1.43272 0
M  V30 1818 C 166.011 1.66522 -0.310947 0
M  V30 1819 O 167.217 1.73402 -0.482899 0
M  V30 1820 H 163.592 0.603802 -0.448249 0
M  V30 1821 H 165.563 1.78727 -2.38954 0
M  V30 1822 C 164.312 3.21245 -1.33029 0
M  V30 1823 H 163.635 3.34723 -2.18633 0
M  V30 1824 H 165.075 4.00763 -1.38439 0
M  V30 1825 C 163.534 3.36873 -0.0424635 0
M  V30 1826 O 164.064 3.91177 0.913421 0
M  V30 1827 N 162.27 2.90581 0.0331145 0
M  V30 1828 H 161.817 2.46577 -0.745506 0
M  V30 1829 H 161.775 3.01416 0.894199 0
M  V30 1830 N 165.547 1.27147 0.931209 0
M  V30 1831 C 166.457 1.11372 2.06478 0
M  V30 1832 C 167.473 0.044645 1.73943 0
M  V30 1833 O 168.649 0.250417 1.99837 0
M  V30 1834 C 165.714 0.758838 3.38294 0
M  V30 1835 C 164.775 1.90841 3.84549 0
M  V30 1836 C 164.008 1.57036 5.10074 0
M  V30 1837 O 164.231 0.476645 5.68405 0
M  V30 1838 O 163.165 2.40839 5.51616 0
M  V30 1839 H 166.991 2.06493 2.22698 0
M  V30 1840 H 164.576 1.06301 1.04978 0
M  V30 1841 H 166.458 0.574098 4.17471 0
M  V30 1842 H 165.133 -0.162879 3.2329 0
M  V30 1843 H 164.04 2.14819 3.06274 0
M  V30 1844 H 165.373 2.81021 4.04089 0
M  V30 1845 N 167.025 -1.13721 1.09112 0
M  V30 1846 C 167.955 -2.21148 0.749385 0
M  V30 1847 C 168.936 -1.6792 -0.271475 0
M  V30 1848 O 170.121 -1.93693 -0.140251 0
M  V30 1849 C 167.251 -3.46905 0.165659 0
M  V30 1850 C 166.205 -4.13203 1.11567 0
M  V30 1851 C 165.531 -5.33248 0.393809 0
M  V30 1852 C 166.831 -4.60912 2.45678 0
M  V30 1853 H 168.525 -2.4999 1.64758 0
M  V30 1854 H 166.071 -1.20156 0.793626 0
M  V30 1855 H 168.024 -4.21313 -0.085466 0
M  V30 1856 H 166.748 -3.17449 -0.767714 0
M  V30 1857 H 165.407 -3.40758 1.35202 0
M  V30 1858 H 165.055 -5.00054 -0.543599 0
M  V30 1859 H 164.755 -5.78552 1.02721 0
M  V30 1860 H 166.279 -6.10413 0.150908 0
M  V30 1861 H 167.693 -5.26759 2.26269 0
M  V30 1862 H 166.09 -5.16944 3.04776 0
M  V30 1863 H 167.16 -3.75603 3.06677 0
M  V30 1864 N 168.503 -0.877838 -1.30888 0
M  V30 1865 C 169.435 -0.296607 -2.27273 0
M  V30 1866 C 170.448 0.544799 -1.53414 0
M  V30 1867 O 171.637 0.365511 -1.74718 0
M  V30 1868 C 168.737 0.597481 -3.33592 0
M  V30 1869 C 167.91 -0.213251 -4.3688 0
M  V30 1870 C 166.969 0.610208 -5.2265 0
M  V30 1871 O 165.995 0.035441 -5.69189 0
M  V30 1872 N 167.197 1.92071 -5.47804 0
M  V30 1873 H 169.962 -1.12492 -2.77787 0
M  V30 1874 H 167.523 -0.740105 -1.43993 0
M  V30 1875 H 169.515 1.15425 -3.87891 0
M  V30 1876 H 168.085 1.32647 -2.83061 0
M  V30 1877 H 167.305 -0.951466 -3.82545 0
M  V30 1878 H 168.593 -0.769262 -5.02951 0
M  V30 1879 H 167.991 2.4107 -5.11763 0
M  V30 1880 H 166.548 2.42508 -6.05007 0
M  V30 1881 N 169.982 1.44106 -0.638065 0
M  V30 1882 C 170.929 2.30715 0.062701 0
M  V30 1883 C 171.899 1.43882 0.829883 0
M  V30 1884 O 173.084 1.72775 0.809532 0
M  V30 1885 C 170.224 3.29258 1.03358 0
M  V30 1886 C 169.337 4.31192 0.26409 0
M  V30 1887 C 168.472 5.16825 1.22741 0
M  V30 1888 C 167.511 6.10462 0.447475 0
M  V30 1889 N 166.648 6.8877 1.36161 0
M  V30 1890 H 171.488 2.90096 -0.681781 0
M  V30 1891 H 169.025 1.42925 -0.347988 0
M  V30 1892 H 170.983 3.84886 1.60992 0
M  V30 1893 H 169.613 2.71562 1.74511 0
M  V30 1894 H 168.665 3.77981 -0.428295 0
M  V30 1895 H 169.977 4.97619 -0.343052 0
M  V30 1896 H 169.131 5.77004 1.87487 0
M  V30 1897 H 167.87 4.50488 1.86847 0
M  V30 1898 H 166.875 5.49386 -0.213433 0
M  V30 1899 H 168.1 6.78837 -0.188968 0
M  V30 1900 H 166.046 6.25096 1.98975 0
M  V30 1901 H 165.963 7.51663 0.808656 0
M  V30 1902 H 167.231 7.53467 1.99769 0
M  V30 1903 N 171.46 0.379036 1.52974 0
M  V30 1904 C 172.737 -0.263479 1.93817 0
M  V30 1905 C 173.117 -1.65244 1.31368 0
M  V30 1906 O 172.465 -2.23448 0.477856 0
M  V30 1907 C 172.675 -0.300166 3.47707 0
M  V30 1908 C 174.023 -0.534061 4.21228 0
M  V30 1909 O 175.047 -0.38081 3.54159 0
M  V30 1910 O 173.906 -0.833501 5.40106 0
M  V30 1911 H 171 -0.161149 0.811147 0
M  V30 1912 H 173.546 0.432798 1.64088 0
M  V30 1913 H 172.318 0.673138 3.85467 0
M  V30 1914 H 171.941 -1.04179 3.83709 0
M  V30 1915 N 172.938 -1.57226 0.108567 0
M  V30 1916 C 173.885 -2.14756 -0.845481 0
M  V30 1917 C 174.855 -1.06971 -1.27068 0
M  V30 1918 O 176.04 -1.34827 -1.35005 0
M  V30 1919 C 173.18 -2.74298 -2.09415 0
M  V30 1920 C 172.293 -3.96358 -1.71826 0
M  V30 1921 C 171.428 -4.44021 -2.9158 0
M  V30 1922 C 170.467 -5.58637 -2.50181 0
M  V30 1923 N 169.604 -6.01091 -3.62814 0
M  V30 1924 H 174.444 -2.95961 -0.348035 0
M  V30 1925 H 171.981 -1.46226 -0.160106 0
M  V30 1926 H 173.939 -3.06945 -2.82561 0
M  V30 1927 H 172.569 -1.95801 -2.56636 0
M  V30 1928 H 171.621 -3.69939 -0.885947 0
M  V30 1929 H 172.933 -4.79504 -1.37394 0
M  V30 1930 H 172.087 -4.78522 -3.72963 0
M  V30 1931 H 170.826 -3.59803 -3.29231 0
M  V30 1932 H 169.831 -5.23751 -1.67228 0
M  V30 1933 H 171.056 -6.44613 -2.13659 0
M  V30 1934 H 169.002 -5.19817 -4.00158 0
M  V30 1935 H 168.919 -6.79066 -3.32273 0
M  V30 1936 H 170.187 -6.40227 -4.44668 0
M  V30 1937 N 174.416 0.165178 -1.56732 0
M  V30 1938 C 175.349 1.23336 -1.91998 0
M  V30 1939 C 176.327 1.42476 -0.783531 0
M  V30 1940 O 177.511 1.57384 -1.03743 0
M  V30 1941 C 174.638 2.59533 -2.17625 0
M  V30 1942 C 173.684 2.57093 -3.40302 0
M  V30 1943 S 174.517 2.05571 -4.9447 0
M  V30 1944 C 175.673 3.43532 -5.23198 0
M  V30 1945 H 175.906 0.932387 -2.82301 0
M  V30 1946 H 173.439 0.370013 -1.49901 0
M  V30 1947 H 175.397 3.37918 -2.3307 0
M  V30 1948 H 174.058 2.86827 -1.28019 0
M  V30 1949 H 173.251 3.57308 -3.55453 0
M  V30 1950 H 172.853 1.86806 -3.24005 0
M  V30 1951 H 175.145 4.39559 -5.15552 0
M  V30 1952 H 176.088 3.33251 -6.2478 0
M  V30 1953 H 176.496 3.39828 -4.50752 0
M  V30 1954 N 175.894 1.51508 0.433938 0
M  V30 1955 C 176.857 1.72473 1.50949 0
M  V30 1956 C 177.857 0.594725 1.49398 0
M  V30 1957 O 179.047 0.862315 1.5136 0
M  V30 1958 C 176.179 1.78431 2.90474 0
M  V30 1959 H 177.372 2.68467 1.33662 0
M  V30 1960 H 174.925 1.41549 0.662836 0
M  V30 1961 H 175.66 0.842645 3.13161 0
M  V30 1962 H 175.445 2.60558 2.93005 0
M  V30 1963 H 176.935 1.96479 3.68491 0
M  V30 1964 N 177.372 -0.689602 1.41712 0
M  V30 1965 C 178.282 -1.83314 1.46401 0
M  V30 1966 C 179.298 -1.7036 0.35405 0
M  V30 1967 O 180.474 -1.92171 0.602692 0
M  V30 1968 C 177.539 -3.19344 1.34982 0
M  V30 1969 C 176.6 -3.44363 2.56344 0
M  V30 1970 C 175.833 -4.73904 2.45461 0
M  V30 1971 O 176.056 -5.508 1.48241 0
M  V30 1972 O 174.99 -4.99839 3.35328 0
M  V30 1973 H 178.816 -1.82314 2.42889 0
M  V30 1974 H 176.401 -0.843438 1.23315 0
M  V30 1975 H 178.283 -4.00547 1.3092 0
M  V30 1976 H 176.958 -3.21014 0.41612 0
M  V30 1977 H 175.865 -2.63067 2.65982 0
M  V30 1978 H 177.198 -3.47512 3.48563 0
M  V30 1979 N 178.85 -1.27639 -0.924453 0
M  V30 1980 C 179.813 -1.10681 -2.00705 0
M  V30 1981 C 180.813 -0.0497823 -1.60723 0
M  V30 1982 O 182.003 -0.294654 -1.7169 0
M  V30 1983 C 179.135 -0.687164 -3.33902 0
M  V30 1984 H 180.328 -2.06817 -2.17179 0
M  V30 1985 H 177.881 -1.10473 -1.10569 0
M  V30 1986 H 178.616 0.275439 -3.23128 0
M  V30 1987 H 178.401 -1.45061 -3.6428 0
M  V30 1988 H 179.891 -0.590853 -4.13399 0
M  V30 1989 N 180.328 1.1314 -1.09713 0
M  V30 1990 C 181.558 1.88048 -0.855656 0
M  V30 1991 C 181.966 1.79537 0.596919 0
M  V30 1992 O 181.309 1.16196 1.42282 0
M  V30 1993 C 181.371 3.38314 -1.21589 0
M  V30 1994 C 181.035 3.70605 -2.67397 0
M  V30 1995 C 182.032 3.69596 -3.65643 0
M  V30 1996 C 179.717 4.0017 -3.03593 0
M  V30 1997 C 181.711 3.977 -4.9811 0
M  V30 1998 C 179.398 4.27935 -4.36251 0
M  V30 1999 C 180.396 4.26685 -5.33318 0
M  V30 2000 O 180.084 4.53767 -6.63589 0
M  V30 2001 H 179.816 0.60208 -0.307368 0
M  V30 2002 H 182.37 1.44128 -1.46343 0
M  V30 2003 H 180.6 3.82752 -0.551177 0
M  V30 2004 H 182.289 3.94552 -0.953083 0
M  V30 2005 H 183.055 3.46826 -3.39023 0
M  V30 2006 H 178.934 4.00289 -2.2867 0
M  V30 2007 H 182.478 3.9664 -5.73866 0
M  V30 2008 H 178.375 4.50178 -4.62613 0
M  V30 2009 H 179.143 4.71422 -6.69107 0
M  V30 2010 N 181.806 0.884767 1.30421 0
M  V30 2011 C 183.031 0.517288 2.00845 0
M  V30 2012 C 183.456 -0.886779 1.65885 0
M  V30 2013 O 182.814 -1.58768 0.875354 0
M  V30 2014 C 182.862 0.698994 3.5376 0
M  V30 2015 O 181.966 -0.255208 4.1161 0
M  V30 2016 H 181.307 0.203872 0.631927 0
M  V30 2017 H 183.837 1.19225 1.66272 0
M  V30 2018 H 183.847 0.597912 4.03595 0
M  V30 2019 H 182.522 1.72271 3.78544 0
M  V30 2020 H 181.099 -0.10784 3.72744 0
M  V30 2021 N 183.284 -1.43765 0.645699 0
M  V30 2022 C 184.194 -2.34544 -0.0512957 0
M  V30 2023 C 185.21 -1.53455 -0.82022 0
M  V30 2024 O 186.386 -1.86133 -0.769176 0
M  V30 2025 C 183.451 -3.31636 -1.01087 0
M  V30 2026 C 182.512 -4.2863 -0.239712 0
M  V30 2027 C 181.745 -5.21084 -1.15358 0
M  V30 2028 O 181.968 -5.1779 -2.39269 0
M  V30 2029 O 180.902 -5.98593 -0.630038 0
M  V30 2030 H 184.728 -2.95624 0.695718 0
M  V30 2031 H 182.313 -1.43781 0.405882 0
M  V30 2032 H 184.195 -3.9136 -1.56254 0
M  V30 2033 H 182.87 -2.73069 -1.73824 0
M  V30 2034 H 181.777 -3.72408 0.355356 0
M  V30 2035 H 183.11 -4.90157 0.447936 0
M  V30 2036 N 184.763 -0.387143 -1.52771 0
M  V30 2037 C 186.012 0.19697 -2.00736 0
M  V30 2038 C 186.325 1.48082 -1.27793 0
M  V30 2039 O 187.531 2.14485 -1.66458 0
M  V30 2040 C 185.987 0.401568 -3.57653 0
M  V30 2041 C 185.595 -0.868907 -4.39493 0
M  V30 2042 C 187.339 0.942164 -4.13912 0
M  V30 2043 C 185.246 -0.632705 -5.88006 0
M  V30 2044 H 184.176 0.0773827 -0.750019 0
M  V30 2045 H 186.827 -0.50921 -1.76293 0
M  V30 2046 H 185.209 1.16954 -3.78335 0
M  V30 2047 H 186.383 -1.64133 -4.30577 0
M  V30 2048 H 184.698 -1.33429 -3.94443 0
M  V30 2049 H 187.295 1.13455 -5.22525 0
M  V30 2050 H 187.638 1.9106 -3.69867 0
M  V30 2051 H 188.171 0.233814 -3.97112 0
M  V30 2052 H 184.91 -1.57208 -6.36369 0
M  V30 2053 H 184.43 0.100825 -5.99715 0
M  V30 2054 H 186.109 -0.26642 -6.46451 0
M  V30 2055 N 186.241 1.57166 -0.116904 0
M  V30 2056 C 187.489 1.94737 0.540533 0
M  V30 2057 C 187.81 1.00096 1.67349 0
M  V30 2058 O 187.08 0.0568854 1.95817 0
M  V30 2059 H 185.66 0.718981 0.202669 0
M  V30 2060 H 188.322 1.94017 -0.185353 0
M  V30 2061 H 187.418 2.97719 0.936483 0
M  V30 2062 N 187.719 -0.156864 1.56817 0
M  V30 2063 C 188.652 -1.22316 1.9265 0
M  V30 2064 C 189.63 -1.42059 0.791076 0
M  V30 2065 O 190.814 -1.56831 1.04576 0
M  V30 2066 C 187.941 -2.58375 2.18998 0
M  V30 2067 C 186.987 -2.55284 3.41661 0
M  V30 2068 S 187.82 -2.02946 4.95553 0
M  V30 2069 C 188.976 -3.40753 5.25013 0
M  V30 2070 H 189.209 -0.917403 2.82791 0
M  V30 2071 H 186.742 -0.362059 1.50095 0
M  V30 2072 H 188.7 -3.36677 2.34859 0
M  V30 2073 H 187.361 -2.86145 1.29538 0
M  V30 2074 H 186.554 -3.55418 3.57343 0
M  V30 2075 H 186.156 -1.85086 3.24991 0
M  V30 2076 H 188.448 -4.36819 5.17876 0
M  V30 2077 H 189.391 -3.29933 6.26538 0
M  V30 2078 H 189.799 -3.37433 4.52548 0
M  V30 2079 N 189.197 -1.51736 -0.425897 0
M  V30 2080 C 190.144 -1.73875 -1.51776 0
M  V30 2081 C 191.114 -0.580702 -1.55618 0
M  V30 2082 O 192.299 -0.81641 -1.72451 0
M  V30 2083 C 189.439 -1.88012 -2.89388 0
M  V30 2084 C 188.552 -3.15606 -2.94986 0
M  V30 2085 C 187.687 -3.20271 -4.23793 0
M  V30 2086 C 186.726 -4.42134 -4.23302 0
M  V30 2087 N 185.863 -4.44284 -5.43651 0
M  V30 2088 H 190.703 -2.67071 -1.32201 0
M  V30 2089 H 188.24 -1.32351 -0.642008 0
M  V30 2090 H 190.198 -1.9419 -3.69251 0
M  V30 2091 H 188.828 -0.98213 -3.07496 0
M  V30 2092 H 187.88 -3.18681 -2.07717 0
M  V30 2093 H 189.192 -4.05486 -2.90486 0
M  V30 2094 H 188.346 -3.25428 -5.12036 0
M  V30 2095 H 187.085 -2.28299 -4.30965 0
M  V30 2096 H 186.09 -4.3714 -3.3345 0
M  V30 2097 H 187.315 -5.35382 -4.17783 0
M  V30 2098 H 185.261 -3.55188 -5.51523 0
M  V30 2099 H 185.178 -5.27988 -5.41078 0
M  V30 2100 H 186.446 -4.53649 -6.33895 0
M  V30 2101 N 190.675 0.682077 -1.42076 0
M  V30 2102 C 191.923 1.4393 -1.41876 0
M  V30 2103 C 192.244 1.94971 -0.0335599 0
M  V30 2104 O 191.514 1.72591 0.926773 0
M  V30 2105 H 190.094 0.534085 -0.522267 0
M  V30 2106 H 192.756 0.806427 -1.77434 0
M  V30 2107 H 191.852 2.29588 -2.11414 0
M  V30 2108 N 192.153 1.28127 0.917671 0
M  V30 2109 C 193.063 1.13556 2.05286 0
M  V30 2110 C 194.079 0.0630914 1.73886 0
M  V30 2111 O 195.255 0.271598 1.9956 0
M  V30 2112 C 192.32 0.794676 3.3747 0
M  V30 2113 C 191.381 1.94909 3.82504 0
M  V30 2114 C 190.614 1.62437 5.0838 0
M  V30 2115 O 190.837 0.536905 5.67867 0
M  V30 2116 O 189.771 2.46677 5.4903 0
M  V30 2117 H 193.597 2.08844 2.20495 0
M  V30 2118 H 191.182 1.07409 1.03845 0
M  V30 2119 H 193.064 0.618344 4.16839 0
M  V30 2120 H 191.739 -0.128581 3.23445 0
M  V30 2121 H 190.646 2.18055 3.03978 0
M  V30 2122 H 191.979 2.85291 4.01086 0
M  V30 2123 N 193.631 -1.12557 1.10312 0
M  V30 2124 C 195.047 -1.36036 0.834649 0
M  V30 2125 C 195.247 -1.93946 -0.546539 0
M  V30 2126 O 194.303 -2.16484 -1.29966 0
M  V30 2127 C 195.616 -2.30312 1.9333 0
M  V30 2128 C 197.164 -2.43906 1.9616 0
M  V30 2129 C 197.639 -3.41496 3.05195 0
M  V30 2130 N 199.13 -3.49053 3.04494 0
M  V30 2131 C 199.865 -4.24471 3.85502 0
M  V30 2132 N 199.361 -5.02966 4.76442 0
M  V30 2133 N 201.154 -4.19864 3.73725 0
M  V30 2134 H 193.305 -0.733246 1.99342 0
M  V30 2135 H 195.568 -0.385234 0.866198 0
M  V30 2136 H 195.274 -1.94933 2.92735 0
M  V30 2137 H 195.148 -3.30421 1.81939 0
M  V30 2138 H 197.535 -2.78567 0.973886 0
M  V30 2139 H 197.616 -1.4369 2.11629 0
M  V30 2140 H 197.26 -3.07565 4.04186 0
M  V30 2141 H 197.19 -4.41539 2.86968 0
M  V30 2142 H 199.681 -2.93053 2.38596 0
M  V30 2143 H 199.994 -5.57846 5.34815 0
M  V30 2144 H 198.339 -5.02167 4.80472 0
M  V30 2145 H 201.53 -3.57623 3.02032 0
M  V30 2146 H 201.703 -4.78386 4.37093 0
M  V30 2147 N 195.109 -0.891671 -1.2995 0
M  V30 2148 C 196.525 -0.58662 -1.48428 0
M  V30 2149 C 196.725 0.873951 -1.81561 0
M  V30 2150 O 195.781 1.65471 -1.90724 0
M  V30 2151 C 197.094 -1.50553 -2.60296 0
M  V30 2152 C 198.642 -1.50988 -2.74175 0
M  V30 2153 C 199.117 -2.41488 -3.89163 0
M  V30 2154 N 200.608 -2.39489 -3.96483 0
M  V30 2155 C 201.343 -3.06223 -4.84784 0
M  V30 2156 N 200.839 -3.82206 -5.77833 0
M  V30 2157 N 202.632 -2.95421 -4.78208 0
M  V30 2158 H 194.783 -1.83644 -1.06718 0
M  V30 2159 H 197.046 -0.786455 -0.529332 0
M  V30 2160 H 196.752 -2.54581 -2.42654 0
M  V30 2161 H 196.626 -1.22008 -3.56923 0
M  V30 2162 H 199.013 -0.47708 -2.91218 0
M  V30 2163 H 199.094 -1.83567 -1.78148 0
M  V30 2164 H 198.738 -3.44857 -3.72876 0
M  V30 2165 H 198.668 -2.06222 -4.84541 0
M  V30 2166 H 201.159 -1.84278 -3.29924 0
M  V30 2167 H 201.472 -4.302 -6.41988 0
M  V30 2168 H 199.817 -3.86313 -5.77743 0
M  V30 2169 H 203.008 -2.35581 -4.04499 0
M  V30 2170 H 203.181 -3.47704 -5.46814 0
M  V30 2171 N 196.587 1.43421 -0.653314 0
M  V30 2172 C 198.003 1.56341 -0.320886 0
M  V30 2173 C 198.203 1.63696 1.17499 0
M  V30 2174 O 197.259 1.59208 1.95982 0
M  V30 2175 C 198.572 2.82424 -1.03233 0
M  V30 2176 C 200.12 2.96168 -1.01259 0
M  V30 2177 C 200.595 4.25084 -1.70492 0
M  V30 2178 N 202.086 4.31948 -1.67257 0
M  V30 2179 C 202.821 5.30466 -2.17701 0
M  V30 2180 N 202.317 6.35261 -2.76434 0
M  V30 2181 N 204.11 5.2212 -2.082 0
M  V30 2182 H 196.261 1.3689 -1.62403 0
M  V30 2183 H 198.524 0.657455 -0.682977 0
M  V30 2184 H 198.23 2.83053 -2.08744 0
M  V30 2185 H 198.104 3.72653 -0.583948 0
M  V30 2186 H 200.491 2.9508 0.0341235 0
M  V30 2187 H 200.572 2.07229 -1.49966 0
M  V30 2188 H 200.216 4.26932 -2.7512 0
M  V30 2189 H 200.146 5.1292 -1.19251 0
M  V30 2190 H 202.637 3.56838 -1.24398 0
M  V30 2191 H 202.95 7.06754 -3.12601 0
M  V30 2192 H 201.295 6.35884 -2.80495 0
M  V30 2193 H 204.486 4.39166 -1.62021 0
M  V30 2194 H 204.659 5.98739 -2.47822 0
M  V30 2195 N 198.065 0.39524 1.52563 0
M  V30 2196 C 199.313 -0.184678 2.01254 0
M  V30 2197 C 199.634 -1.46822 1.28329 0
M  V30 2198 O 198.904 -1.91666 0.405094 0
M  V30 2199 H 197.484 -0.0712355 0.743596 0
M  V30 2200 H 200.146 0.528293 1.87603 0
M  V30 2201 H 199.242 -0.390681 3.09645 0
M  V30 2202 N 199.544 -1.57102 0.125237 0
M  V30 2203 C 200.491 -2.15641 -0.822655 0
M  V30 2204 C 201.461 -1.08313 -1.25927 0
M  V30 2205 O 202.646 -1.36251 -1.33567 0
M  V30 2206 C 199.786 -2.76504 -2.06494 0
M  V30 2207 C 198.899 -3.98158 -1.67612 0
M  V30 2208 C 198.034 -4.47088 -2.86854 0
M  V30 2209 C 197.073 -5.6126 -2.44242 0
M  V30 2210 N 196.21 -6.04905 -3.56419 0
M  V30 2211 H 201.05 -2.96313 -0.316625 0
M  V30 2212 H 198.587 -1.46388 -0.144588 0
M  V30 2213 H 200.545 -3.09925 -2.79289 0
M  V30 2214 H 199.175 -1.98512 -2.54545 0
M  V30 2215 H 198.227 -3.70858 -0.846661 0
M  V30 2216 H 199.539 -4.80934 -1.32301 0
M  V30 2217 H 198.693 -4.82451 -3.67867 0
M  V30 2218 H 197.432 -3.63275 -3.25396 0
M  V30 2219 H 196.437 -5.25495 -1.61663 0
M  V30 2220 H 197.662 -6.46843 -2.0681 0
M  V30 2221 H 195.608 -5.24032 -3.94623 0
M  V30 2222 H 195.525 -6.82552 -3.25051 0
M  V30 2223 H 196.793 -6.44907 -4.37853 0
M  V30 2224 N 201.022 0.148545 -1.56898 0
M  V30 2225 C 202.27 0.859717 -1.82902 0
M  V30 2226 C 202.591 1.81775 -0.70588 0
M  V30 2227 O 201.861 1.93994 0.272586 0
M  V30 2228 H 200.441 0.320469 -0.674766 0
M  V30 2229 H 203.103 0.142918 -1.94375 0
M  V30 2230 H 202.199 1.4229 -2.77777 0
M  V30 2231 N 202.5 1.5196 0.417844 0
M  V30 2232 C 203.45 1.7106 1.5074 0
M  V30 2233 C 204.434 0.564487 1.50673 0
M  V30 2234 O 205.626 0.821206 1.56797 0
M  V30 2235 C 202.755 1.85677 2.88754 0
M  V30 2236 C 201.841 3.06133 2.93502 0
M  V30 2237 N 202.232 4.28987 2.67962 0
M  V30 2238 C 200.53 3.05787 3.24669 0
M  V30 2239 C 201.231 5.10395 2.79055 0
M  V30 2240 N 200.207 4.45455 3.11561 0
M  V30 2241 H 204.009 2.63696 1.29775 0
M  V30 2242 H 201.523 1.49873 0.625436 0
M  V30 2243 H 203.52 1.97475 3.67164 0
M  V30 2244 H 202.18 0.942348 3.10725 0
M  V30 2245 H 203.191 4.57607 2.4252 0
M  V30 2246 H 199.868 2.2405 3.52289 0
M  V30 2247 H 201.258 6.18247 2.63097 0
M  V30 2248 N 203.978 -0.674533 1.42435 0
M  V30 2249 C 205.255 -1.4305 1.33402 0
M  V30 2250 C 205.635 -2.11081 -0.0284674 0
M  V30 2251 O 204.983 -2.03257 -1.04397 0
M  V30 2252 C 205.193 -2.43272 2.50239 0
M  V30 2253 C 206.541 -3.07907 2.92367 0
M  V30 2254 O 207.565 -2.53599 2.50132 0
M  V30 2255 O 206.424 -4.0632 3.65467 0
M  V30 2256 H 203.518 -0.638076 0.526106 0
M  V30 2257 H 206.064 -0.703235 1.54443 0
M  V30 2258 H 204.836 -1.91803 3.41068 0
M  V30 2259 H 204.459 -3.23479 2.31186 0
M  V30 2260 N 205.456 -1.28612 -0.910864 0
M  V30 2261 C 206.704 -1.15705 -1.65701 0
M  V30 2262 C 207.025 0.29416 -1.92769 0
M  V30 2263 O 206.295 1.20331 -1.54588 0
M  V30 2264 H 204.875 -0.425216 -0.614167 0
M  V30 2265 H 207.537 -1.61381 -1.0928 0
M  V30 2266 H 206.633 -1.6988 -2.61815 0
M  V30 2267 N 206.934 1.1197 -1.10907 0
M  V30 2268 C 207.864 2.19928 -0.784473 0
M  V30 2269 C 208.845 1.6833 0.244726 0
M  V30 2270 O 210.03 1.93892 0.109418 0
M  V30 2271 C 207.16 3.46597 -0.220827 0
M  V30 2272 C 206.114 4.11376 -1.18127 0
M  V30 2273 C 205.44 5.32554 -0.478594 0
M  V30 2274 C 206.74 4.56945 -2.52979 0
M  V30 2275 H 208.434 2.47337 -1.68715 0
M  V30 2276 H 205.98 1.18879 -0.812642 0
M  V30 2277 H 207.933 4.21396 0.0184278 0
M  V30 2278 H 206.657 3.1863 0.717113 0
M  V30 2279 H 205.316 3.38564 -1.40606 0
M  V30 2280 H 204.964 5.00856 0.463976 0
M  V30 2281 H 204.664 5.76844 -1.11912 0
M  V30 2282 H 206.188 6.10096 -0.248 0
M  V30 2283 H 207.602 5.23093 -2.3462 0
M  V30 2284 H 205.999 5.1203 -3.12962 0
M  V30 2285 H 207.069 3.70676 -3.12614 0
M  V30 2286 N 208.412 0.89855 1.29475 0
M  V30 2287 C 209.642 0.538479 1.99459 0
M  V30 2288 C 210.05 -0.880922 1.67441 0
M  V30 2289 O 209.393 -1.59283 0.915127 0
M  V30 2290 C 209.455 0.649564 3.53583 0
M  V30 2291 C 209.119 2.03573 4.09154 0
M  V30 2292 C 210.116 3.00675 4.24135 0
M  V30 2293 C 207.801 2.3448 4.44212 0
M  V30 2294 C 209.795 4.26809 4.73405 0
M  V30 2295 C 207.482 3.60857 4.93179 0
M  V30 2296 C 208.48 4.56836 5.0773 0
M  V30 2297 O 208.168 5.80969 5.55635 0
M  V30 2298 H 207.9 0.205372 0.644048 0
M  V30 2299 H 210.454 1.20958 1.66007 0
M  V30 2300 H 208.684 -0.0785592 3.8662 0
M  V30 2301 H 210.373 0.29881 4.04799 0
M  V30 2302 H 211.139 2.78112 3.97339 0
M  V30 2303 H 207.018 1.60534 4.32145 0
M  V30 2304 H 210.562 5.0173 4.84678 0
M  V30 2305 H 206.459 3.83251 5.19412 0
M  V30 2306 H 207.227 5.83542 5.73952 0
M  V30 2307 N 209.89 -1.43072 0.660911 0
M  V30 2308 C 210.822 -2.29108 -0.0647641 0
M  V30 2309 C 211.835 -1.42928 -0.779448 0
M  V30 2310 O 213.024 -1.66788 -0.635921 0
M  V30 2311 C 210.124 -3.20032 -1.11503 0
M  V30 2312 C 209.297 -4.34792 -0.476955 0
M  V30 2313 C 208.356 -5.06534 -1.42513 0
M  V30 2314 O 207.382 -5.61538 -0.930771 0
M  V30 2315 N 208.584 -5.1075 -2.75889 0
M  V30 2316 H 211.349 -2.92029 0.673731 0
M  V30 2317 H 208.91 -1.53846 0.50427 0
M  V30 2318 H 210.902 -3.64892 -1.75032 0
M  V30 2319 H 209.472 -2.58658 -1.75541 0
M  V30 2320 H 208.692 -3.92752 0.337572 0
M  V30 2321 H 209.98 -5.0879 -0.0318525 0
M  V30 2322 H 209.378 -4.67447 -3.18606 0
M  V30 2323 H 207.935 -5.59302 -3.347 0
M  V30 2324 N 211.368 -0.403325 -1.52352 0
M  V30 2325 C 212.616 0.174003 -2.0135 0
M  V30 2326 C 212.937 1.46139 -1.29106 0
M  V30 2327 O 212.207 1.91448 -0.415253 0
M  V30 2328 H 210.787 0.0672911 -0.743963 0
M  V30 2329 H 213.449 -0.538235 -1.87321 0
M  V30 2330 H 212.545 0.374254 -3.09848 0
M  V30 2331 N 212.846 1.57033 -0.133567 0
M  V30 2332 C 213.776 2.1909 0.807567 0
M  V30 2333 C 214.757 1.13517 1.26681 0
M  V30 2334 O 215.942 1.41809 1.32679 0
M  V30 2335 C 213.072 2.80188 2.05212 0
M  V30 2336 C 212.026 3.91471 1.73015 0
M  V30 2337 C 211.352 4.39443 3.04622 0
M  V30 2338 C 212.652 5.12886 0.987168 0
M  V30 2339 H 214.346 2.97988 0.290403 0
M  V30 2340 H 211.892 1.43335 0.138239 0
M  V30 2341 H 213.845 3.22264 2.71521 0
M  V30 2342 H 212.569 1.98601 2.59278 0
M  V30 2343 H 211.228 3.49993 1.0909 0
M  V30 2344 H 210.876 3.54695 3.56651 0
M  V30 2345 H 210.576 5.14495 2.83847 0
M  V30 2346 H 212.1 4.8418 3.72024 0
M  V30 2347 H 213.514 5.51891 1.55208 0
M  V30 2348 H 211.911 5.93615 0.87985 0
M  V30 2349 H 212.981 4.84894 -0.0235286 0
M  V30 2350 N 214.325 -0.140222 1.56975 0
M  V30 2351 C 215.55 -0.870414 1.88251 0
M  V30 2352 C 215.975 -1.73637 0.723312 0
M  V30 2353 O 215.333 -1.78329 -0.32689 0
M  V30 2354 C 215.381 -1.69737 3.18154 0
M  V30 2355 O 214.485 -2.80229 3.02565 0
M  V30 2356 H 213.826 -0.242025 0.61832 0
M  V30 2357 H 216.356 -0.128999 2.04193 0
M  V30 2358 H 216.366 -2.09099 3.50345 0
M  V30 2359 H 215.041 -1.06152 4.02125 0
M  V30 2360 H 213.618 -2.44224 2.81796 0
M  V30 2361 N 215.803 -1.52179 -0.40978 0
M  V30 2362 C 217.031 -1.70054 -1.17853 0
M  V30 2363 C 217.446 -0.409735 -1.843 0
M  V30 2364 O 216.803 0.614183 -1.71855 0
M  V30 2365 C 216.854 -2.83568 -2.24213 0
M  V30 2366 O 216.575 -4.0765 -1.60478 0
M  V30 2367 C 218.076 -3.12947 -3.13973 0
M  V30 2368 H 215.296 -0.569917 -0.354169 0
M  V30 2369 H 217.84 -1.98734 -0.482198 0
M  V30 2370 H 215.995 -2.57409 -2.89516 0
M  V30 2371 H 216.409 -4.70899 -2.30986 0
M  V30 2372 H 217.883 -3.95889 -3.84677 0
M  V30 2373 H 218.36 -2.26472 -3.76307 0
M  V30 2374 H 218.966 -3.40868 -2.5434 0
M  V30 2375 N 217.281 0.66697 -1.42791 0
M  V30 2376 C 218.244 1.76211 -1.46568 0
M  V30 2377 C 219.244 1.56896 -0.352196 0
M  V30 2378 O 220.434 1.63044 -0.613364 0
M  V30 2379 C 217.566 3.14935 -1.30494 0
M  V30 2380 H 218.759 1.74247 -2.44086 0
M  V30 2381 H 216.312 0.877342 -1.29354 0
M  V30 2382 H 217.047 3.2252 -0.339301 0
M  V30 2383 H 216.832 3.30359 -2.11199 0
M  V30 2384 H 218.322 3.94821 -1.36038 0
M  V30 2385 N 218.759 1.29093 0.90403 0
M  V30 2386 C 219.987 1.19689 1.68766 0
M  V30 2387 C 220.402 -0.243113 1.87228 0
M  V30 2388 O 219.759 -1.16326 1.40621 0
M  V30 2389 C 219.81 1.90144 3.07453 0
M  V30 2390 O 219.531 3.2852 2.89838 0
M  V30 2391 C 221.032 1.87162 4.01852 0
M  V30 2392 H 218.252 0.415035 0.527244 0
M  V30 2393 H 220.796 1.7039 1.13082 0
M  V30 2394 H 218.951 1.43289 3.59926 0
M  V30 2395 H 219.365 3.63944 3.77684 0
M  V30 2396 H 220.839 2.41032 4.96596 0
M  V30 2397 H 221.316 0.84617 4.30972 0
M  V30 2398 H 221.922 2.33741 3.5531 0
M  V30 2399 N 220.237 -1.11381 1.11499 0
M  V30 2400 C 221.184 -2.17439 0.773887 0
M  V30 2401 C 222.154 -1.64132 -0.254899 0
M  V30 2402 O 223.339 -1.90345 -0.13168 0
M  V30 2403 C 220.479 -3.44373 0.223917 0
M  V30 2404 C 219.592 -4.1168 1.30934 0
M  V30 2405 C 218.727 -5.263 0.71984 0
M  V30 2406 C 217.766 -5.85493 1.78507 0
M  V30 2407 N 216.903 -6.91507 1.21502 0
M  V30 2408 H 221.743 -2.45962 1.68246 0
M  V30 2409 H 219.28 -1.20744 0.840191 0
M  V30 2410 H 221.238 -4.17047 -0.112921 0
M  V30 2411 H 219.868 -3.16232 -0.647851 0
M  V30 2412 H 218.92 -3.37073 1.76312 0
M  V30 2413 H 220.232 -4.51729 2.11524 0
M  V30 2414 H 219.386 -6.05785 0.333094 0
M  V30 2415 H 218.125 -4.87559 -0.117377 0
M  V30 2416 H 217.13 -5.04686 2.18111 0
M  V30 2417 H 218.355 -6.26301 2.62533 0
M  V30 2418 H 216.301 -6.54783 0.399455 0
M  V30 2419 H 216.218 -7.30214 1.95763 0
M  V30 2420 H 217.486 -7.74795 0.855181 0
M  V30 2421 N 221.715 -0.905404 -1.28997 0
M  V30 2422 C 222.992 -0.453513 -1.9027 0
M  V30 2423 C 223.372 1.06721 -1.82137 0
M  V30 2424 O 222.72 1.91159 -1.25182 0
M  V30 2425 C 222.93 -0.974494 -3.35119 0
M  V30 2426 C 224.278 -1.0216 -4.12127 0
M  V30 2427 O 225.302 -0.922557 -3.44046 0
M  V30 2428 O 224.161 -1.17121 -5.33802 0
M  V30 2429 H 221.255 -0.142347 -0.814657 0
M  V30 2430 H 223.801 -0.995642 -1.37423 0
M  V30 2431 H 222.573 -2.01848 -3.35221 0
M  V30 2432 H 222.196 -0.412706 -3.95452 0
M  V30 2433 N 223.193 1.4272 -0.668489 0
M  V30 2434 C 224.421 2.05966 -0.196348 0
M  V30 2435 C 224.836 1.50191 1.14403 0
M  V30 2436 O 224.193 0.639208 1.7094 0
M  V30 2437 C 224.244 3.61314 -0.115815 0
M  V30 2438 O 223.965 4.1502 -1.40322 0
M  V30 2439 C 225.466 4.41663 0.380579 0
M  V30 2440 H 222.686 0.663954 -0.0969829 0
M  V30 2441 H 225.23 1.82966 -0.913446 0
M  V30 2442 H 223.385 3.83448 0.551931 0
M  V30 2443 H 223.799 5.08832 -1.27243 0
M  V30 2444 H 225.273 5.5065 0.385848 0
M  V30 2445 H 225.75 4.15792 1.41471 0
M  V30 2446 H 226.356 4.24534 -0.255209 0
M  V30 2447 N 224.671 0.411399 1.52136 0
M  V30 2448 C 225.901 -0.16284 2.05957 0
M  V30 2449 C 226.309 -1.3922 1.28119 0
M  V30 2450 O 225.652 -1.80768 0.326881 0
M  V30 2451 C 225.714 -0.575946 3.54856 0
M  V30 2452 C 225.378 0.542998 4.53763 0
M  V30 2453 C 226.375 1.40726 5.00492 0
M  V30 2454 C 224.06 0.716337 4.97166 0
M  V30 2455 C 226.054 2.4298 5.8927 0
M  V30 2456 C 223.741 1.74218 5.8574 0
M  V30 2457 C 224.739 2.59731 6.31687 0
M  V30 2458 O 224.427 3.60558 7.18507 0
M  V30 2459 H 224.159 -0.0229125 0.675612 0
M  V30 2460 H 226.713 0.581634 1.96993 0
M  V30 2461 H 224.943 -1.37274 3.61515 0
M  V30 2462 H 226.632 -1.07836 3.91313 0
M  V30 2463 H 227.398 1.28476 4.67674 0
M  V30 2464 H 223.277 0.0603857 4.6096 0
M  V30 2465 H 226.821 3.0976 6.25055 0
M  V30 2466 H 222.718 1.86498 6.17971 0
M  V30 2467 H 223.486 3.56829 7.36624 0
M  V30 2468 N 226.149 -1.5696 0.141893 0
M  V30 2469 C 227.426 -1.87553 -0.555281 0
M  V30 2470 C 227.806 -1.04699 -1.83306 0
M  V30 2471 O 227.154 -0.132346 -2.28116 0
M  V30 2472 C 227.364 -3.39093 -0.825664 0
M  V30 2473 C 228.712 -4.08199 -1.16869 0
M  V30 2474 O 229.736 -3.44242 -0.915185 0
M  V30 2475 O 228.595 -5.21139 -1.6455 0
M  V30 2476 H 225.689 -0.777188 -0.282679 0
M  V30 2477 H 228.235 -1.68763 0.17812 0
M  V30 2478 H 227.007 -3.91221 0.0788633 0
M  V30 2479 H 226.63 -3.63393 -1.61343 0
M  V30 2480 N 227.627 0.131896 -1.57047 0
M  V30 2481 C 228.59 1.14638 -1.98471 0
M  V30 2482 C 229.59 1.35029 -0.873148 0
M  V30 2483 O 230.78 1.31764 -1.13946 0
M  V30 2484 C 227.912 2.50358 -2.31373 0
M  V30 2485 H 229.105 0.79064 -2.8929 0
M  V30 2486 H 226.658 0.375761 -1.51716 0
M  V30 2487 H 227.393 2.90876 -1.43393 0
M  V30 2488 H 227.178 2.36915 -3.12432 0
M  V30 2489 H 228.668 3.23395 -2.64207 0
M  V30 2490 N 229.106 1.52395 0.401703 0
M  V30 2491 C 230.036 1.79231 1.49661 0
M  V30 2492 C 231.017 0.643654 1.57452 0
M  V30 2493 O 232.202 0.889989 1.72606 0
M  V30 2494 C 229.332 1.94971 2.87409 0
M  V30 2495 C 228.286 3.10604 2.94465 0
M  V30 2496 C 227.612 3.11577 4.34538 0
M  V30 2497 C 228.912 4.49921 2.6527 0
M  V30 2498 H 230.606 2.70917 1.27454 0
M  V30 2499 H 228.152 1.30362 0.6117 0
M  V30 2500 H 230.105 2.12328 3.63999 0
M  V30 2501 H 228.829 0.999632 3.10926 0
M  V30 2502 H 227.488 2.93009 2.20321 0
M  V30 2503 H 227.136 2.14277 4.55076 0
M  V30 2504 H 226.836 3.89247 4.40183 0
M  V30 2505 H 228.36 3.31073 5.13053 0
M  V30 2506 H 229.774 4.67683 3.31581 0
M  V30 2507 H 228.171 5.29564 2.82281 0
M  V30 2508 H 229.241 4.57507 1.60671 0
M  V30 2509 N 230.584 -0.659388 1.43143 0
M  V30 2510 C 231.534 -1.7655 1.44271 0
M  V30 2511 C 232.518 -1.57847 0.311961 0
M  V30 2512 O 233.71 -1.68064 0.555306 0
M  V30 2513 C 230.839 -3.15104 1.36251 0
M  V30 2514 C 229.925 -3.39377 2.54331 0
M  V30 2515 N 230.316 -3.34153 3.79704 0
M  V30 2516 C 228.614 -3.70072 2.48922 0
M  V30 2517 C 229.315 -3.58337 4.58225 0
M  V30 2518 N 228.291 -3.79851 3.88863 0
M  V30 2519 H 232.093 -1.70928 2.39083 0
M  V30 2520 H 229.607 -0.860823 1.37708 0
M  V30 2521 H 231.604 -3.94389 1.35141 0
M  V30 2522 H 230.264 -3.21913 0.424531 0
M  V30 2523 H 231.275 -3.13704 4.1208 0
M  V30 2524 H 227.952 -3.84034 1.63781 0
M  V30 2525 H 229.342 -3.60129 5.67236 0
M  V30 2526 N 232.062 -1.29571 -0.897171 0
M  V30 2527 C 232.995 -1.0924 -2.00354 0
M  V30 2528 C 233.973 -0.00354011 -1.626 0
M  V30 2529 O 235.157 -0.15473 -1.87864 0
M  V30 2530 C 232.284 -0.66352 -3.32137 0
M  V30 2531 C 231.33 -1.75146 -3.88878 0
M  V30 2532 S 232.163 -3.35124 -4.17674 0
M  V30 2533 C 233.319 -2.9411 -5.52494 0
M  V30 2534 H 233.552 -2.02907 -2.17292 0
M  V30 2535 H 231.085 -1.13746 -1.04408 0
M  V30 2536 H 233.043 -0.422791 -4.08317 0
M  V30 2537 H 231.704 0.253588 -3.13075 0
M  V30 2538 H 230.897 -1.40337 -4.84068 0
M  V30 2539 H 230.499 -1.94584 -3.19395 0
M  V30 2540 H 232.791 -2.41312 -6.33068 0
M  V30 2541 H 233.734 -3.88161 -5.9223 0
M  V30 2542 H 234.142 -2.32332 -5.14473 0
M  V30 2543 N 233.54 1.10788 -1.12088 0
M  V30 2544 C 234.472 2.16816 -0.743213 0
M  V30 2545 C 235.485 1.6119 0.228412 0
M  V30 2546 O 236.674 1.78497 0.0102931 0
M  V30 2547 C 233.774 3.38809 -0.0787313 0
M  V30 2548 C 232.947 4.23885 -1.0789 0
M  V30 2549 C 232.006 5.24334 -0.442713 0
M  V30 2550 O 231.032 5.58497 -1.09864 0
M  V30 2551 N 232.234 5.75079 0.791457 0
M  V30 2552 H 234.999 2.49825 -1.65552 0
M  V30 2553 H 232.56 1.26373 -1.012 0
M  V30 2554 H 234.552 4.03107 0.358766 0
M  V30 2555 H 233.122 3.03805 0.736275 0
M  V30 2556 H 232.342 3.55939 -1.69414 0
M  V30 2557 H 233.63 4.77562 -1.75533 0
M  V30 2558 H 233.028 5.49517 1.3434 0
M  V30 2559 H 231.585 6.4118 1.17183 0
M  V30 2560 N 235.018 0.912232 1.28515 0
M  V30 2561 C 235.981 0.404223 2.25607 0
M  V30 2562 C 236.981 -0.468602 1.53821 0
M  V30 2563 O 238.171 -0.271873 1.72065 0
M  V30 2564 C 235.303 -0.420653 3.38295 0
M  V30 2565 H 236.496 1.26188 2.7206 0
M  V30 2566 H 234.049 0.691495 1.40171 0
M  V30 2567 H 234.784 -1.29777 2.97201 0
M  V30 2568 H 234.569 0.204935 3.91564 0
M  V30 2569 H 236.059 -0.766971 4.10496 0
M  V30 2570 N 236.496 -1.42363 0.676048 0
M  V30 2571 C 237.426 -2.33497 0.0124832 0
M  V30 2572 C 238.407 -1.50748 -0.787981 0
M  V30 2573 O 239.592 -1.79346 -0.744884 0
M  V30 2574 C 236.722 -3.34377 -0.938582 0
M  V30 2575 C 235.676 -4.27289 -0.246622 0
M  V30 2576 C 235.002 -5.18386 -1.31071 0
M  V30 2577 C 236.302 -5.14916 0.875125 0
M  V30 2578 H 237.996 -2.89233 0.773593 0
M  V30 2579 H 235.542 -1.39073 0.37346 0
M  V30 2580 H 237.495 -3.97044 -1.41188 0
M  V30 2581 H 236.219 -2.76947 -1.73113 0
M  V30 2582 H 234.878 -3.66018 0.206456 0
M  V30 2583 H 234.526 -4.57282 -2.09528 0
M  V30 2584 H 234.226 -5.81378 -0.852839 0
M  V30 2585 H 235.75 -5.83929 -1.78492 0
M  V30 2586 H 237.164 -5.71262 0.482983 0
M  V30 2587 H 235.561 -5.86747 1.25887 0
M  V30 2588 H 236.631 -4.53242 1.72335 0
M  V30 2589 N 237.974 -0.419461 -1.51915 0
M  V30 2590 C 239.385 0.0477853 -1.86639 0
M  V30 2591 C 239.736 1.43531 -1.33766 0
M  V30 2592 O 238.861 2.05401 -0.68113 0
M  V30 2593 C 239.456 0.0934885 -3.38671 0
M  V30 2594 C 238.015 0.505097 -3.72996 0
M  V30 2595 C 237.162 -0.313792 -2.75519 0
M  V30 2596 H 240.113 -0.636088 -1.45395 0
M  V30 2597 H 240.134 0.906667 -3.6954 0
M  V30 2598 H 239.646 -0.916501 -3.77123 0
M  V30 2599 H 237.747 1.52135 -3.40126 0
M  V30 2600 H 237.86 0.242309 -4.78487 0
M  V30 2601 H 236.224 0.225363 -2.53701 0
M  V30 2602 H 237.007 -1.32232 -3.16812 0
M  V30 2603 N 239.452 1.56882 -0.150215 0
M  V30 2604 C 240.863 1.82995 0.370076 0
M  V30 2605 C 241.214 1.06907 1.64515 0
M  V30 2606 O 240.339 0.315369 2.1409 0
M  V30 2607 C 240.934 3.31942 0.678208 0
M  V30 2608 C 239.493 3.58625 1.14301 0
M  V30 2609 C 238.64 2.76792 0.167778 0
M  V30 2610 H 241.591 1.54209 -0.374858 0
M  V30 2611 H 241.612 3.48272 1.53254 0
M  V30 2612 H 241.124 3.87294 -0.249991 0
M  V30 2613 H 239.225 3.08664 2.08704 0
M  V30 2614 H 239.338 4.67073 1.06676 0
M  V30 2615 H 237.702 2.45972 0.661037 0
M  V30 2616 H 238.485 3.34916 -0.754069 0
M  V30 2617 N 240.93 -0.123565 1.57115 0
M  V30 2618 C 242.346 -0.476961 1.52306 0
M  V30 2619 C 242.546 -1.82109 0.86248 0
M  V30 2620 O 241.602 -2.48586 0.442884 0
M  V30 2621 C 242.915 -0.465661 2.97073 0
M  V30 2622 C 244.463 -0.549534 3.08138 0
M  V30 2623 C 244.938 -0.568669 4.54456 0
M  V30 2624 N 246.429 -0.630237 4.58892 0
M  V30 2625 C 247.164 -0.666415 5.69514 0
M  V30 2626 N 246.66 -0.660514 6.89644 0
M  V30 2627 N 248.453 -0.709077 5.5761 0
M  V30 2628 H 240.604 0.757198 1.98445 0
M  V30 2629 H 242.867 0.278808 0.906074 0
M  V30 2630 H 242.573 0.454232 3.48754 0
M  V30 2631 H 242.447 -1.29513 3.54269 0
M  V30 2632 H 244.834 -1.45985 2.56461 0
M  V30 2633 H 244.915 0.307532 2.53945 0
M  V30 2634 H 244.559 0.337581 5.06777 0
M  V30 2635 H 244.489 -1.44256 5.06456 0
M  V30 2636 H 246.98 -0.641146 3.72421 0
M  V30 2637 H 247.293 -0.690616 7.69708 0
M  V30 2638 H 245.638 -0.628012 6.92157 0
M  V30 2639 H 248.829 -0.711019 4.62668 0
M  V30 2640 H 249.002 -0.733804 6.43832 0
M  V30 2641 O 242.447 -1.59262 -0.267957 0
M  V30 2642 H 243.138 -1.70845 -0.912779 0
M  V30 END ATOM
M  V30 BEGIN BOND
M  V30 END BOND
M  V30 END CTAB
M  END
$$$$
