drugbank_target|P21266 Glutathione S-transferase Mu 3 (DB00143)
 OpenBabel12092119403D

  0  0  0     0  0            999 V3000
M  V30 BEGIN CTAB
M  V30 COUNTS 3699 3743 0 0 0
M  V30 BEGIN ATOM
M  V30 1 H -0.908 1.98254 -0.117106 0
M  V30 2 N 0 1.576 0 0
M  V30 3 C 0.933 2.03868 1.02534 0
M  V30 4 C 1.911 0.928543 1.3348 0
M  V30 5 O 3.095 1.19667 1.45644 0
M  V30 6 C 0.222 2.43627 2.35294 0
M  V30 7 C -0.732 3.65373 2.2001 0
M  V30 8 S 0.101 5.13292 1.52614 0
M  V30 9 C 1.257 5.56322 2.86805 0
M  V30 10 H 1.49 2.90518 0.631377 0
M  V30 11 H -0.977 1.52953 0.210867 0
M  V30 12 H 0.981 2.67203 3.11629 0
M  V30 13 H -0.358 1.57376 2.7183 0
M  V30 14 H -1.165 3.90944 3.18086 0
M  V30 15 H -1.563 3.418 1.51819 0
M  V30 16 H 0.729 5.58782 3.83104 0
M  V30 17 H 1.672 6.56266 2.65933 0
M  V30 18 H 2.08 4.83886 2.90714 0
M  V30 19 N 1.4781 -0.272755 1.55222 0
M  V30 20 C 2.7031 -1.02683 1.80197 0
M  V30 21 C 3.1281 -1.79142 0.573551 0
M  V30 22 O 2.4861 -1.74917 -0.476849 0
M  V30 23 C 2.5341 -1.9609 3.02624 0
M  V30 24 O 1.6381 -3.04863 2.77727 0
M  V30 25 H 0.9791 -0.293557 0.595584 0
M  V30 26 H 3.5091 -0.30159 2.02365 0
M  V30 27 H 3.5191 -2.38039 3.31363 0
M  V30 28 H 2.1941 -1.39851 3.91682 0
M  V30 29 H 0.7711 -2.67228 2.60084 0
M  V30 30 N 2.9562 -1.48159 -0.537278 0
M  V30 31 C 4.1962 -1.57397 -1.30405 0
M  V30 32 C 4.5602 -0.239202 -1.90504 0
M  V30 33 O 5.7612 -0.206528 -2.68005 0
M  V30 34 C 4.0322 -2.6754 -2.36974 0
M  V30 35 S 5.5912 -2.96496 -3.23475 0
M  V30 36 H 2.4092 -0.555577 -0.443684 0
M  V30 37 H 5.0112 -1.85644 -0.612912 0
M  V30 38 H 3.7152 -3.63092 -1.91291 0
M  V30 39 H 3.2462 -2.41172 -3.10805 0
M  V30 40 H 5.2612 -2.35234 -4.36897 0
M  V30 41 N 4.4343 0.785586 -1.36625 0
M  V30 42 C 5.3443 1.92964 -1.33425 0
M  V30 43 C 6.3603 1.72394 -0.235851 0
M  V30 44 O 7.5363 1.95866 -0.468878 0
M  V30 45 C 4.6013 3.27884 -1.12662 0
M  V30 46 C 3.6623 3.61204 -2.32013 0
M  V30 47 C 2.8953 4.89687 -2.12231 0
M  V30 48 O 3.1183 5.59704 -1.09945 0
M  V30 49 O 2.0523 5.21752 -3.00098 0
M  V30 50 H 5.8783 1.98613 -2.29753 0
M  V30 51 H 3.4633 0.926384 -1.17211 0
M  V30 52 H 5.3453 4.08614 -1.03016 0
M  V30 53 H 4.0203 3.23118 -0.193991 0
M  V30 54 H 2.9273 2.80765 -2.47228 0
M  V30 55 H 4.2603 3.70698 -3.23796 0
M  V30 56 N 5.9124 1.20967 1.01018 0
M  V30 57 C 7.1374 1.0503 1.78839 0
M  V30 58 C 7.5624 -0.395752 1.8389 0
M  V30 59 O 6.9204 -1.28529 1.27867 0
M  V30 60 C 6.9684 1.64602 3.2084 0
M  V30 61 O 6.0724 0.887988 4.02726 0
M  V30 62 H 5.4134 0.369987 0.551367 0
M  V30 63 H 7.9434 1.60399 1.27018 0
M  V30 64 H 7.9534 1.68607 3.71532 0
M  V30 65 H 6.6284 2.69841 3.16479 0
M  V30 66 H 5.2054 0.922648 3.61305 0
M  V30 67 N 7.3905 -1.2043 1.01659 0
M  V30 68 C 8.6155 -1.94318 0.724942 0
M  V30 69 C 9.0405 -1.74266 -0.708034 0
M  V30 70 O 8.3985 -1.03694 -1.48719 0
M  V30 71 C 8.4465 -3.44486 1.06591 0
M  V30 72 O 7.5505 -4.12017 0.177599 0
M  V30 73 H 6.8915 -0.60708 0.26898 0
M  V30 74 H 9.4215 -1.52861 1.35995 0
M  V30 75 H 9.4315 -3.95106 1.01762 0
M  V30 76 H 8.1065 -3.58404 2.10997 0
M  V30 77 H 6.6835 -3.71821 0.283421 0
M  V30 78 N 8.8686 -0.792821 -1.36206 0
M  V30 79 C 9.8016 -0.139422 -2.27774 0
M  V30 80 C 10.7796 0.68649 -1.47398 0
M  V30 81 O 11.9636 0.656738 -1.7669 0
M  V30 82 C 9.0906 0.807947 -3.28922 0
M  V30 83 C 8.1366 0.0633999 -4.26453 0
M  V30 84 S 8.9696 -1.26319 -5.20388 0
M  V30 85 C 10.1256 -0.31991 -6.25082 0
M  V30 86 H 10.3586 -0.915809 -2.82843 0
M  V30 87 H 7.8916 -0.587203 -1.42798 0
M  V30 88 H 9.8496 1.34908 -3.87699 0
M  V30 89 H 8.5106 1.55761 -2.72759 0
M  V30 90 H 7.7036 0.782386 -4.9789 0
M  V30 91 H 7.3056 -0.407352 -3.71775 0
M  V30 92 H 9.5976 0.499985 -6.75653 0
M  V30 93 H 10.5406 -1.00307 -7.00959 0
M  V30 94 H 10.9486 0.0782694 -5.64446 0
M  V30 95 N 10.3467 1.47872 -0.545128 0
M  V30 96 C 11.5927 2.02793 -0.0166104 0
M  V30 97 C 11.9257 1.41987 1.32489 0
M  V30 98 O 11.2007 0.571045 1.85928 0
M  V30 99 C 11.4837 3.59989 0.0893294 0
M  V30 100 C 11.3367 4.3125 -1.27841 0
M  V30 101 C 12.6557 4.32606 0.808724 0
M  V30 102 H 9.7747 0.736962 -0.00751035 0
M  V30 103 H 12.4167 1.76433 -0.705085 0
M  V30 104 H 10.5667 3.82579 0.675681 0
M  V30 105 H 12.2387 4.20035 -1.90704 0
M  V30 106 H 10.4817 3.92076 -1.85632 0
M  V30 107 H 11.1527 5.39736 -1.15713 0
M  V30 108 H 13.6287 4.14936 0.310992 0
M  V30 109 H 12.5047 5.42251 0.851782 0
M  V30 110 H 12.7657 4.00963 1.86229 0
M  V30 111 N 11.8248 0.280983 1.55075 0
M  V30 112 C 12.7548 -0.597469 2.25727 0
M  V30 113 C 13.7358 -1.15417 1.24952 0
M  V30 114 O 14.9208 -1.18722 1.53684 0
M  V30 115 C 12.0508 -1.7789 2.98283 0
M  V30 116 C 11.0048 -1.35347 4.06036 0
M  V30 117 C 10.3308 -2.61846 4.66198 0
M  V30 118 C 11.6308 -0.499354 5.19907 0
M  V30 119 H 13.3248 -0.00824265 2.99399 0
M  V30 120 H 10.8708 -0.0025244 1.44 0
M  V30 121 H 12.8238 -2.39937 3.46422 0
M  V30 122 H 11.5478 -2.39405 2.22155 0
M  V30 123 H 10.2068 -0.756156 3.58717 0
M  V30 124 H 9.8548 -3.21632 3.86732 0
M  V30 125 H 9.5548 -2.3409 5.38958 0
M  V30 126 H 11.0788 -3.24732 5.1709 0
M  V30 127 H 12.4928 -1.02498 5.64063 0
M  V30 128 H 10.8898 -0.316424 5.99265 0
M  V30 129 H 11.9598 0.480459 4.82514 0
M  V30 130 N 13.3029 -1.57598 0.00835791 0
M  V30 131 C 14.5509 -1.90551 -0.6734 0
M  V30 132 C 14.8719 -0.883301 -1.73847 0
M  V30 133 O 14.1419 0.0781442 -1.95744 0
M  V30 134 H 12.7219 -0.703312 -0.251717 0
M  V30 135 H 15.3839 -1.94833 0.0512592 0
M  V30 136 H 14.4799 -2.9056 -1.13935 0
M  V30 137 N 14.781 0.264519 -1.55364 0
M  V30 138 C 16.011 1.01153 -1.80143 0
M  V30 139 C 16.419 1.80115 -0.579253 0
M  V30 140 O 15.762 1.77813 0.46132 0
M  V30 141 C 15.824 2.01098 -2.97993 0
M  V30 142 C 15.488 1.40995 -4.34706 0
M  V30 143 C 16.485 0.821316 -5.13372 0
M  V30 144 C 14.17 1.43461 -4.81378 0
M  V30 145 C 16.164 0.265339 -6.36847 0
M  V30 146 C 13.851 0.874771 -6.04807 0
M  V30 147 C 14.849 0.291146 -6.82379 0
M  V30 148 O 14.537 -0.260093 -8.03479 0
M  V30 149 H 14.269 0.304125 -0.603725 0
M  V30 150 H 16.823 0.298089 -2.03225 0
M  V30 151 H 15.053 2.76224 -2.70623 0
M  V30 152 H 16.742 2.61997 -3.1002 0
M  V30 153 H 17.508 0.794903 -4.78442 0
M  V30 154 H 13.387 1.87826 -4.21002 0
M  V30 155 H 16.931 -0.190837 -6.97339 0
M  V30 156 H 12.828 0.898452 -6.39217 0
M  V30 157 H 13.596 -0.150265 -8.18362 0
M  V30 158 N 16.2591 1.48442 0.529413 0
M  V30 159 C 17.5051 1.57699 1.28463 0
M  V30 160 C 17.8601 0.247913 1.90796 0
M  V30 161 O 17.1531 -0.749279 1.76342 0
M  V30 162 C 17.3471 2.6523 2.39558 0
M  V30 163 C 17.1761 4.08464 1.88114 0
M  V30 164 C 15.9461 4.75596 1.70693 0
M  V30 165 C 18.1441 4.94613 1.40935 0
M  V30 166 N 16.1261 6.03245 1.13881 0
M  V30 167 C 17.4971 6.12511 0.960734 0
M  V30 168 C 19.5521 4.80833 1.29243 0
M  V30 169 C 18.2551 7.18149 0.406792 0
M  V30 170 C 20.2811 5.86593 0.752487 0
M  V30 171 C 19.6431 7.037 0.313946 0
M  V30 172 H 15.7421 0.631608 0.46108 0
M  V30 173 H 18.3261 1.85325 0.596886 0
M  V30 174 H 16.4971 2.39425 3.05827 0
M  V30 175 H 18.2291 2.64169 3.06589 0
M  V30 176 H 14.9841 4.31938 1.94232 0
M  V30 177 H 15.4081 6.71324 0.874831 0
M  V30 178 H 20.0501 3.90635 1.61754 0
M  V30 179 H 17.7681 8.0807 0.0693671 0
M  V30 180 H 21.3541 5.77985 0.665192 0
M  V30 181 H 20.2341 7.8414 -0.0973632 0
M  V30 182 N 17.7372 -0.778329 1.37039 0
M  V30 183 C 19.0142 -1.52551 1.22424 0
M  V30 184 C 19.3942 -2.10288 -0.184964 0
M  V30 185 O 18.7422 -1.94953 -1.19187 0
M  V30 186 C 18.9522 -2.61164 2.31504 0
M  V30 187 C 20.3002 -3.28746 2.68721 0
M  V30 188 O 21.3242 -2.71455 2.30631 0
M  V30 189 O 20.1832 -4.3231 3.3432 0
M  V30 190 H 17.2772 -0.675343 0.477326 0
M  V30 191 H 19.8232 -0.815859 1.48801 0
M  V30 192 H 18.5952 -2.16574 3.25901 0
M  V30 193 H 18.2182 -3.39737 2.06554 0
M  V30 194 N 19.2153 -1.21501 -1.00376 0
M  V30 195 C 20.4643 -1.02718 -1.73586 0
M  V30 196 C 20.7773 0.439589 -1.90596 0
M  V30 197 O 21.9833 0.746848 -2.61026 0
M  V30 198 C 20.4393 -1.78929 -3.1227 0
M  V30 199 C 20.0473 -3.29783 -3.03228 0
M  V30 200 C 21.7913 -1.68557 -3.89601 0
M  V30 201 C 19.6983 -3.98479 -4.36999 0
M  V30 202 H 18.6283 -0.380733 -0.650814 0
M  V30 203 H 21.2793 -1.45248 -1.1214 0
M  V30 204 H 19.6613 -1.29192 -3.74333 0
M  V30 205 H 20.8353 -3.86832 -2.50395 0
M  V30 206 H 19.1503 -3.40711 -2.39385 0
M  V30 207 H 21.7473 -2.17211 -4.88593 0
M  V30 208 H 22.0903 -0.644021 -4.11288 0
M  V30 209 H 22.6233 -2.15778 -3.34193 0
M  V30 210 H 19.3623 -5.02841 -4.20513 0
M  V30 211 H 18.8823 -3.46219 -4.89788 0
M  V30 212 H 20.5613 -4.03462 -5.05794 0
M  V30 213 N 20.6934 1.19889 -1.02296 0
M  V30 214 C 22.1094 1.41462 -0.738954 0
M  V30 215 C 22.3094 1.89721 0.678846 0
M  V30 216 O 21.3654 2.07016 1.4457 0
M  V30 217 C 22.6784 2.43083 -1.77005 0
M  V30 218 C 24.2264 2.5684 -1.78892 0
M  V30 219 C 24.7014 3.61709 -2.80945 0
M  V30 220 N 26.1924 3.69199 -2.79725 0
M  V30 221 C 26.9274 4.50019 -3.55345 0
M  V30 222 N 26.4234 5.34592 -4.40662 0
M  V30 223 N 28.2164 4.44612 -3.43914 0
M  V30 224 H 20.3674 0.868827 -1.93817 0
M  V30 225 H 22.6304 0.44399 -0.837602 0
M  V30 226 H 22.3364 2.14636 -2.78612 0
M  V30 227 H 22.2104 3.4217 -1.58744 0
M  V30 228 H 24.5974 2.84614 -0.779674 0
M  V30 229 H 24.6784 1.57927 -2.01228 0
M  V30 230 H 24.3224 3.34678 -3.82038 0
M  V30 231 H 24.2524 4.60259 -2.5587 0
M  V30 232 H 26.7434 3.08794 -2.17842 0
M  V30 233 H 27.0564 5.93363 -4.95116 0
M  V30 234 H 25.4014 5.34073 -4.44737 0
M  V30 235 H 28.5924 3.7758 -2.76679 0
M  V30 236 H 28.7654 5.0736 -4.031 0
M  V30 237 N 22.1715 0.800033 1.35784 0
M  V30 238 C 23.4195 0.376597 1.9856 0
M  V30 239 C 23.7405 -1.05812 1.63795 0
M  V30 240 O 23.0105 -1.73103 0.917171 0
M  V30 241 H 21.5905 0.136261 0.734467 0
M  V30 242 H 24.2525 1.02442 1.65806 0
M  V30 243 H 23.3485 0.477002 3.08433 0
M  V30 244 N 23.6496 -1.47581 0.552962 0
M  V30 245 C 24.5796 -2.32762 -0.185451 0
M  V30 246 C 25.5606 -1.43527 -0.912905 0
M  V30 247 O 26.7456 -1.72388 -0.894201 0
M  V30 248 C 23.8756 -3.25219 -1.21859 0
M  V30 249 C 22.8296 -4.23661 -0.607864 0
M  V30 250 C 22.1556 -5.05413 -1.74533 0
M  V30 251 C 23.4556 -5.20481 0.435582 0
M  V30 252 H 25.1496 -2.94749 0.525684 0
M  V30 253 H 22.6956 -1.41738 0.254251 0
M  V30 254 H 24.6486 -3.8365 -1.7433 0
M  V30 255 H 23.3726 -2.61279 -1.95961 0
M  V30 256 H 22.0316 -3.66451 -0.104489 0
M  V30 257 H 21.6796 -4.3788 -2.47529 0
M  V30 258 H 21.3796 -5.72059 -1.34249 0
M  V30 259 H 22.9036 -5.66701 -2.27338 0
M  V30 260 H 24.3176 -5.733 -0.00290157 0
M  V30 261 H 22.7146 -5.95305 0.757067 0
M  V30 262 H 23.7846 -4.66217 1.33303 0
M  V30 263 N 25.1277 -0.289203 -1.54924 0
M  V30 264 C 26.0907 0.579144 -2.21762 0
M  V30 265 C 27.0907 1.07047 -1.1999 0
M  V30 266 O 28.2807 0.968384 -1.44803 0
M  V30 267 C 25.4127 1.80055 -2.8947 0
M  V30 268 H 26.6057 -0.00464908 -2.999 0
M  V30 269 H 24.1587 -0.0399306 -1.56249 0
M  V30 270 H 24.8937 2.42449 -2.15381 0
M  V30 271 H 24.6787 1.45602 -3.64064 0
M  V30 272 H 26.1687 2.41773 -3.40493 0
M  V30 273 N 26.6058 1.57591 -0.0167156 0
M  V30 274 C 27.5558 2.05953 0.978137 0
M  V30 275 C 28.5398 0.957532 1.29306 0
M  V30 276 O 29.7318 1.22119 1.28125 0
M  V30 277 C 26.8608 2.58006 2.26468 0
M  V30 278 C 25.9468 3.75113 1.97867 0
M  V30 279 N 26.3378 4.86187 1.39486 0
M  V30 280 C 24.6358 3.83363 2.27924 0
M  V30 281 C 25.3368 5.67502 1.27735 0
M  V30 282 N 24.3128 5.14023 1.76866 0
M  V30 283 H 28.1148 2.89236 0.521522 0
M  V30 284 H 25.6288 1.61301 0.188596 0
M  V30 285 H 27.6258 2.90937 2.98599 0
M  V30 286 H 26.2858 1.76148 2.72767 0
M  V30 287 H 27.2968 5.06695 1.07147 0
M  V30 288 H 23.9738 3.1239 2.76982 0
M  V30 289 H 25.3638 6.66791 0.826978 0
M  V30 290 N 28.0839 -0.256276 1.55502 0
M  V30 291 C 29.0469 -1.30047 1.88734 0
M  V30 292 C 30.0469 -1.4154 0.763086 0
M  V30 293 O 31.2369 -1.40403 1.03115 0
M  V30 294 C 28.3689 -2.67953 2.10747 0
M  V30 295 H 29.5619 -1.01802 2.82093 0
M  V30 296 H 27.1149 -0.495134 1.4825 0
M  V30 297 H 27.8499 -3.01351 1.19825 0
M  V30 298 H 27.6349 -2.60993 2.92617 0
M  V30 299 H 29.1249 -3.43368 2.37673 0
M  V30 300 N 29.562 -1.4872 -0.521534 0
M  V30 301 C 30.811 -1.56419 -1.27341 0
M  V30 302 C 31.124 -0.246805 -1.94037 0
M  V30 303 O 32.33 -0.202122 -2.70747 0
M  V30 304 C 30.786 -2.75896 -2.31105 0
M  V30 305 C 30.394 -4.14311 -1.70441 0
M  V30 306 C 32.138 -2.92913 -3.07249 0
M  V30 307 C 30.045 -5.25038 -2.72194 0
M  V30 308 H 28.975 -0.582344 -0.478949 0
M  V30 309 H 31.626 -1.75071 -0.549779 0
M  V30 310 H 30.008 -2.50697 -3.06541 0
M  V30 311 H 31.182 -4.49564 -1.01136 0
M  V30 312 H 29.497 -4.02482 -1.06759 0
M  V30 313 H 32.094 -3.72805 -3.83302 0
M  V30 314 H 32.437 -2.02689 -3.63625 0
M  V30 315 H 32.97 -3.18054 -2.38928 0
M  V30 316 H 29.709 -6.17255 -2.20627 0
M  V30 317 H 29.229 -4.94263 -3.39801 0
M  V30 318 H 30.908 -5.53508 -3.35019 0
M  V30 319 N 31.0401 0.771051 -1.3745 0
M  V30 320 C 32.4561 1.07171 -1.18265 0
M  V30 321 C 32.6561 2.01491 -0.019287 0
M  V30 322 O 31.7121 2.44244 0.640408 0
M  V30 323 C 33.0251 1.66854 -2.50161 0
M  V30 324 C 34.5731 1.79109 -2.56689 0
M  V30 325 C 35.0481 2.42205 -3.88717 0
M  V30 326 N 36.5391 2.49655 -3.90162 0
M  V30 327 C 37.2741 2.9933 -4.8907 0
M  V30 328 N 36.7701 3.49172 -5.98374 0
M  V30 329 N 38.5631 2.9821 -4.76474 0
M  V30 330 H 30.7141 0.144796 -2.11906 0
M  V30 331 H 32.9771 0.126863 -0.939473 0
M  V30 332 H 32.6831 1.05017 -3.35655 0
M  V30 333 H 32.5571 2.6614 -2.673 0
M  V30 334 H 34.9441 2.40077 -1.71601 0
M  V30 335 H 35.0251 0.785757 -2.43433 0
M  V30 336 H 34.6691 1.81875 -4.74219 0
M  V30 337 H 34.5991 3.43345 -3.99276 0
M  V30 338 H 37.0901 2.14383 -3.11205 0
M  V30 339 H 37.4031 3.8548 -6.69795 0
M  V30 340 H 35.7481 3.47275 -6.02018 0
M  V30 341 H 38.9391 2.58572 -3.90203 0
M  V30 342 H 39.1121 3.36613 -5.53711 0
M  V30 343 N 32.5182 1.22032 0.997298 0
M  V30 344 C 33.4482 1.01065 2.10495 0
M  V30 345 C 34.4292 -0.0669542 1.69968 0
M  V30 346 O 35.6142 0.0943987 1.9397 0
M  V30 347 C 32.7442 0.582874 3.42374 0
M  V30 348 C 31.6982 1.60592 3.96729 0
M  V30 349 C 31.0242 1.03412 5.24605 0
M  V30 350 C 32.3242 2.99478 4.27914 0
M  V30 351 H 34.0182 1.93708 2.28292 0
M  V30 352 H 31.5642 0.932761 1.09707 0
M  V30 353 H 33.5172 0.423332 4.19268 0
M  V30 354 H 32.2412 -0.379213 3.24391 0
M  V30 355 H 30.9002 1.75316 3.21963 0
M  V30 356 H 30.5482 0.063518 5.0296 0
M  V30 357 H 30.2482 1.71754 5.61938 0
M  V30 358 H 31.7722 0.886066 6.04137 0
M  V30 359 H 33.1862 2.88153 4.95622 0
M  V30 360 H 31.5832 3.64903 4.76409 0
M  V30 361 H 32.6532 3.49742 3.3587 0
M  V30 362 N 33.9963 -1.19345 1.0293 0
M  V30 363 C 34.9263 -2.2481 0.631105 0
M  V30 364 C 35.9073 -1.66245 -0.360104 0
M  V30 365 O 37.0923 -1.92677 -0.242726 0
M  V30 366 C 34.2223 -3.47295 -0.0184607 0
M  V30 367 C 33.1763 -4.18536 0.895073 0
M  V30 368 C 32.5023 -5.34586 0.110592 0
M  V30 369 C 33.8023 -4.73287 2.209 0
M  V30 370 H 35.4963 -2.58372 1.51275 0
M  V30 371 H 33.0423 -1.24194 0.728818 0
M  V30 372 H 34.9953 -4.20268 -0.308675 0
M  V30 373 H 33.7193 -3.12933 -0.934907 0
M  V30 374 H 32.3783 -3.47446 1.16949 0
M  V30 375 H 32.0263 -4.96469 -0.807902 0
M  V30 376 H 31.7263 -5.83183 0.719087 0
M  V30 377 H 33.2503 -6.10355 -0.172871 0
M  V30 378 H 34.6643 -5.38013 1.98028 0
M  V30 379 H 33.0613 -5.32373 2.76946 0
M  V30 380 H 34.1313 -3.91331 2.86336 0
M  V30 381 N 35.4744 -0.807222 -1.35358 0
M  V30 382 C 36.4044 -0.232509 -2.3234 0
M  V30 383 C 37.3854 0.642386 -1.57504 0
M  V30 384 O 38.5704 0.572526 -1.85569 0
M  V30 385 C 35.7004 0.619238 -3.41735 0
M  V30 386 C 34.6544 -0.157215 -4.27711 0
M  V30 387 C 33.9804 0.816273 -5.28433 0
M  V30 388 C 35.2804 -1.35656 -5.04376 0
M  V30 389 H 36.9744 -1.04276 -2.80654 0
M  V30 390 H 34.5204 -0.50288 -1.34934 0
M  V30 391 H 36.4734 1.03137 -4.08584 0
M  V30 392 H 35.1974 1.46239 -2.92031 0
M  V30 393 H 33.8564 -0.550525 -3.62443 0
M  V30 394 H 33.5044 1.65494 -4.74996 0
M  V30 395 H 33.2044 0.301067 -5.86828 0
M  V30 396 H 34.7284 1.22659 -5.98153 0
M  V30 397 H 36.1424 -1.01927 -5.64166 0
M  V30 398 H 34.5394 -1.8063 -5.7227 0
M  V30 399 H 35.6094 -2.14288 -4.34981 0
M  V30 400 N 36.9525 1.47285 -0.560781 0
M  V30 401 C 37.8625 2.33846 0.187954 0
M  V30 402 C 38.8785 1.48412 0.908293 0
M  V30 403 O 40.0545 1.81332 0.876388 0
M  V30 404 C 37.1195 3.25178 1.2025 0
M  V30 405 C 36.1805 4.26504 0.489208 0
M  V30 406 C 35.4135 5.13472 1.45542 0
M  V30 407 O 35.6365 5.02959 2.6905 0
M  V30 408 O 34.5705 5.93902 0.977963 0
M  V30 409 H 38.3965 2.99177 -0.522177 0
M  V30 410 H 35.9815 1.45903 -0.321364 0
M  V30 411 H 37.8635 3.81584 1.78805 0
M  V30 412 H 36.5385 2.6247 1.89449 0
M  V30 413 H 35.4455 3.73847 -0.137627 0
M  V30 414 H 36.7785 4.91935 -0.161399 0
M  V30 415 N 38.4306 0.297415 1.54768 0
M  V30 416 C 39.6776 -0.312913 2.00068 0
M  V30 417 C 40.0056 -1.54171 1.18582 0
M  V30 418 O 39.2606 -1.94108 0.249133 0
M  V30 419 C 39.5596 -0.717561 3.50123 0
M  V30 420 C 39.2256 0.409095 4.4904 0
M  V30 421 C 37.8876 0.718399 4.75807 0
M  V30 422 C 40.2396 1.16717 5.07963 0
M  V30 423 C 37.5676 1.78896 5.5876 0
M  V30 424 C 39.9196 2.22762 5.92081 0
M  V30 425 C 38.5836 2.54303 6.1716 0
M  V30 426 H 37.8536 -0.114503 0.7321 0
M  V30 427 H 40.5006 0.415767 1.86932 0
M  V30 428 H 38.8056 -1.52627 3.60849 0
M  V30 429 H 40.5026 -1.20091 3.82595 0
M  V30 430 H 37.0926 0.157918 4.28309 0
M  V30 431 H 41.2766 0.941466 4.87289 0
M  V30 432 H 36.5326 2.0381 5.7643 0
M  V30 433 H 40.7066 2.81962 6.36765 0
M  V30 434 H 38.3336 3.3739 6.81229 0
M  V30 435 N 39.9087 -1.5758 0.0250728 0
M  V30 436 C 41.1367 -1.9593 -0.664747 0
M  V30 437 C 41.5517 -0.901352 -1.65895 0
M  V30 438 O 40.9087 0.117255 -1.82123 0
M  V30 439 C 40.9597 -3.34342 -1.37468 0
M  V30 440 O 40.6807 -4.36079 -0.420324 0
M  V30 441 C 42.1817 -3.873 -2.1567 0
M  V30 442 H 39.4017 -0.645405 -0.183557 0
M  V30 443 H 41.9457 -2.04329 0.0836372 0
M  V30 444 H 40.1007 -3.27175 -2.0745 0
M  V30 445 H 40.5147 -5.16297 -0.923991 0
M  V30 446 H 41.9887 -4.86504 -2.60803 0
M  V30 447 H 42.4657 -3.21331 -2.99405 0
M  V30 448 H 43.0717 -3.97723 -1.50654 0
M  V30 449 N 41.3868 0.248026 -1.55636 0
M  V30 450 C 42.6638 0.998988 -1.68165 0
M  V30 451 C 43.0438 2.03409 -0.564621 0
M  V30 452 O 42.3918 2.24378 0.432076 0
M  V30 453 C 42.6018 1.63334 -3.0842 0
M  V30 454 C 43.9498 2.13562 -3.66983 0
M  V30 455 O 44.9738 1.73277 -3.11213 0
M  V30 456 O 43.8328 2.87526 -4.64749 0
M  V30 457 H 40.9268 0.464933 -0.683935 0
M  V30 458 H 43.4728 0.241902 -1.67967 0
M  V30 459 H 42.2448 0.884583 -3.8117 0
M  V30 460 H 41.8678 2.45666 -3.12624 0
M  V30 461 N 42.8649 1.48995 0.513639 0
M  V30 462 C 44.0929 1.61531 1.29288 0
M  V30 463 C 44.5079 0.281801 1.86685 0
M  V30 464 O 43.8649 -0.731111 1.67215 0
M  V30 465 C 43.9159 2.67449 2.43215 0
M  V30 466 O 43.6369 3.95626 1.88179 0
M  V30 467 C 45.1379 2.90575 3.34785 0
M  V30 468 H 42.3579 0.544165 0.392588 0
M  V30 469 H 44.9019 1.9494 0.617956 0
M  V30 470 H 43.0569 2.36853 3.0656 0
M  V30 471 H 43.4709 4.53868 2.62876 0
M  V30 472 H 44.9449 3.68449 4.11035 0
M  V30 473 H 45.4219 2.00011 3.91015 0
M  V30 474 H 46.0279 3.22538 2.77218 0
M  V30 475 N 44.343 -0.763751 1.37857 0
M  V30 476 C 45.568 -1.55805 1.36893 0
M  V30 477 C 45.993 -1.88054 -0.0416135 0
M  V30 478 O 45.351 -1.49825 -1.02089 0
M  V30 479 C 45.399 -2.84012 2.22192 0
M  V30 480 O 44.503 -3.78732 1.63204 0
M  V30 481 H 43.844 -0.471638 0.46739 0
M  V30 482 H 46.374 -0.944657 1.81487 0
M  V30 483 H 46.384 -3.33037 2.35691 0
M  V30 484 H 45.059 -2.59869 3.24716 0
M  V30 485 H 43.636 -3.37402 1.58791 0
M  V30 486 N 45.8211 -1.22559 -0.990812 0
M  V30 487 C 47.0511 -1.07623 -1.76355 0
M  V30 488 C 47.4591 0.37601 -1.85426 0
M  V30 489 O 46.8021 1.27228 -1.32509 0
M  V30 490 C 46.8641 -1.61507 -3.21179 0
M  V30 491 C 46.5281 -3.10146 -3.35646 0
M  V30 492 C 47.5251 -4.07553 -3.22796 0
M  V30 493 C 45.2101 -3.49644 -3.60631 0
M  V30 494 C 47.2041 -5.42442 -3.34716 0
M  V30 495 C 44.8911 -4.84682 -3.72192 0
M  V30 496 C 45.8891 -5.8089 -3.59243 0
M  V30 497 O 45.5771 -7.13476 -3.70415 0
M  V30 498 H 45.3091 -0.377745 -0.560611 0
M  V30 499 H 47.8631 -1.62658 -1.25425 0
M  V30 500 H 46.0931 -1.00881 -3.73309 0
M  V30 501 H 47.7821 -1.42202 -3.80175 0
M  V30 502 H 48.5481 -3.78381 -3.03403 0
M  V30 503 H 44.4271 -2.75282 -3.69785 0
M  V30 504 H 47.9711 -6.17518 -3.24526 0
M  V30 505 H 43.8681 -5.13534 -3.91092 0
M  V30 506 H 44.6361 -7.21083 -3.87275 0
M  V30 507 N 47.2992 1.18797 -1.03562 0
M  V30 508 C 48.2092 2.25913 -0.632505 0
M  V30 509 C 49.2252 1.70668 0.338882 0
M  V30 510 O 50.4012 2.00453 0.195076 0
M  V30 511 C 47.4662 3.467 0.00350942 0
M  V30 512 C 46.5272 4.17098 -1.01624 0
M  V30 513 C 45.7602 5.32119 -0.410478 0
M  V30 514 O 45.9832 5.64976 0.784725 0
M  V30 515 O 44.9172 5.9107 -1.13667 0
M  V30 516 H 48.7432 2.62648 -1.52478 0
M  V30 517 H 46.3282 1.25781 -0.806195 0
M  V30 518 H 48.2102 4.19878 0.35781 0
M  V30 519 H 46.8852 3.11798 0.869686 0
M  V30 520 H 45.7922 3.4601 -1.42224 0
M  V30 521 H 47.1252 4.55987 -1.85301 0
M  V30 522 N 48.7773 0.814389 1.34928 0
M  V30 523 C 49.6873 0.231978 2.3345 0
M  V30 524 C 50.7033 -0.629139 1.62228 0
M  V30 525 O 51.8793 -0.539052 1.94052 0
M  V30 526 C 48.9443 -0.603482 3.41407 0
M  V30 527 C 48.0053 0.279037 4.28392 0
M  V30 528 C 47.2383 -0.516643 5.31193 0
M  V30 529 O 47.4613 -1.75068 5.4287 0
M  V30 530 O 46.3953 0.0965652 6.01823 0
M  V30 531 H 50.2213 1.04721 2.85074 0
M  V30 532 H 47.8063 0.576343 1.37836 0
M  V30 533 H 49.6883 -1.07908 4.0735 0
M  V30 534 H 48.3633 -1.39618 2.92042 0
M  V30 535 H 47.2703 0.801948 3.65403 0
M  V30 536 H 48.6033 1.03588 4.81176 0
M  V30 537 N 50.2554 -1.46986 0.568584 0
M  V30 538 C 51.2024 -2.30153 -0.172707 0
M  V30 539 C 52.1724 -1.39759 -0.897586 0
M  V30 540 O 53.3574 -1.68716 -0.891044 0
M  V30 541 C 50.4974 -3.23952 -1.1895 0
M  V30 542 C 49.6104 -4.29441 -0.469517 0
M  V30 543 C 48.7454 -5.1038 -1.47259 0
M  V30 544 C 47.7844 -6.07632 -0.738225 0
M  V30 545 N 46.9214 -6.8149 -1.68868 0
M  V30 546 H 51.7614 -2.93019 0.542596 0
M  V30 547 H 49.2984 -1.44422 0.279401 0
M  V30 548 H 51.2564 -3.76767 -1.79173 0
M  V30 549 H 49.8864 -2.62926 -1.87269 0
M  V30 550 H 48.9384 -3.79594 0.247467 0
M  V30 551 H 50.2504 -4.98689 0.105241 0
M  V30 552 H 49.4044 -5.67402 -2.14803 0
M  V30 553 H 48.1434 -4.4106 -2.08128 0
M  V30 554 H 47.1484 -5.49778 -0.0489293 0
M  V30 555 H 48.3734 -6.78966 -0.135129 0
M  V30 556 H 46.3194 -6.14891 -2.28573 0
M  V30 557 H 46.2364 -7.46948 -1.16636 0
M  V30 558 H 47.5044 -7.43078 -2.3549 0
M  V30 559 N 51.7335 -0.305618 -1.54608 0
M  V30 560 C 53.1495 0.0476228 -1.59529 0
M  V30 561 C 53.3495 1.52025 -1.32252 0
M  V30 562 O 52.4055 2.27368 -1.09818 0
M  V30 563 C 53.7185 -0.354471 -2.98603 0
M  V30 564 C 55.2665 -0.303622 -3.11524 0
M  V30 565 C 55.7415 -0.680608 -4.52915 0
M  V30 566 N 57.2325 -0.63332 -4.5885 0
M  V30 567 C 57.9675 -0.897432 -5.66334 0
M  V30 568 N 57.4635 -1.22775 -6.81834 0
M  V30 569 N 59.2565 -0.824186 -5.56025 0
M  V30 570 H 51.4075 -1.2653 -1.70599 0
M  V30 571 H 53.6705 -0.513291 -0.797017 0
M  V30 572 H 53.3765 -1.3798 -3.23503 0
M  V30 573 H 53.2505 0.289568 -3.76087 0
M  V30 574 H 55.6375 0.712472 -2.8637 0
M  V30 575 H 55.7185 -0.982348 -2.36185 0
M  V30 576 H 55.3625 -1.69453 -4.78799 0
M  V30 577 H 55.2925 0.0202385 -5.26596 0
M  V30 578 H 57.7835 -0.389138 -3.75891 0
M  V30 579 H 58.0965 -1.41513 -7.59733 0
M  V30 580 H 56.4415 -1.26583 -6.83375 0
M  V30 581 H 59.6325 -0.565748 -4.64669 0
M  V30 582 H 59.8055 -1.03338 -6.39707 0
M  V30 583 N 53.2116 1.57565 -0.0334293 0
M  V30 584 C 54.4416 1.95996 0.653398 0
M  V30 585 C 54.8496 0.908749 1.65947 0
M  V30 586 O 54.1926 -0.117471 1.83324 0
M  V30 587 C 54.2546 3.30589 1.41249 0
M  V30 588 C 53.9186 4.53503 0.564263 0
M  V30 589 C 54.9156 5.19647 -0.16225 0
M  V30 590 C 52.6006 4.99801 0.500398 0
M  V30 591 C 54.5946 6.30412 -0.941255 0
M  V30 592 C 52.2816 6.10448 -0.282308 0
M  V30 593 C 53.2796 6.75612 -1.00184 0
M  V30 594 O 52.9676 7.84134 -1.77171 0
M  V30 595 H 52.6996 0.65027 0.184728 0
M  V30 596 H 55.2536 2.05199 -0.0907841 0
M  V30 597 H 53.4836 3.17888 2.20191 0
M  V30 598 H 55.1726 3.53892 1.98784 0
M  V30 599 H 55.9386 4.84846 -0.12227 0
M  V30 600 H 51.8176 4.48883 1.05002 0
M  V30 601 H 55.3616 6.81208 -1.50339 0
M  V30 602 H 51.2586 6.44686 -0.323989 0
M  V30 603 H 52.0266 8.00822 -1.69194 0
M  V30 604 N 54.6897 -0.239769 1.55765 0
M  V30 605 C 55.9177 -0.98417 1.81994 0
M  V30 606 C 56.3327 -1.7867 0.610124 0
M  V30 607 O 55.6897 -1.77571 -0.421271 0
M  V30 608 C 55.7407 -1.91635 3.06526 0
M  V30 609 O 55.4617 -1.14629 4.22838 0
M  V30 610 C 56.9627 -2.77616 3.45607 0
M  V30 611 H 54.1827 -0.28928 0.605441 0
M  V30 612 H 56.7267 -0.260499 2.02834 0
M  V30 613 H 54.8817 -2.5942 2.87715 0
M  V30 614 H 55.2957 -1.77745 4.93464 0
M  V30 615 H 56.7697 -3.38759 4.35828 0
M  V30 616 H 57.2467 -3.4909 2.6652 0
M  V30 617 H 57.8527 -2.15271 3.66795 0
M  V30 618 N 56.1678 -1.49265 -0.50573 0
M  V30 619 C 57.4078 -1.60128 -1.27038 0
M  V30 620 C 57.7718 -0.279557 -1.89954 0
M  V30 621 O 58.9728 -0.263329 -2.67507 0
M  V30 622 C 57.2438 -2.72507 -2.31246 0
M  V30 623 S 58.8028 -3.0329 -3.17113 0
M  V30 624 H 55.6208 -0.564863 -0.4318 0
M  V30 625 H 58.2228 -1.86902 -0.573397 0
M  V30 626 H 56.9268 -3.67068 -1.83546 0
M  V30 627 H 56.4578 -2.4771 -3.05619 0
M  V30 628 H 58.4728 -2.44448 -4.31809 0
M  V30 629 N 57.6459 0.756429 -1.3826 0
M  V30 630 C 58.8939 1.51248 -1.34047 0
M  V30 631 C 59.2149 1.94875 0.0698372 0
M  V30 632 O 58.4849 1.67436 1.01696 0
M  V30 633 H 57.0649 0.561018 -0.493222 0
M  V30 634 H 59.7269 0.899347 -1.7291 0
M  V30 635 H 58.8229 2.40472 -1.98947 0
M  V30 636 N 59.124 1.23083 0.984299 0
M  V30 637 C 60.034 1.02515 2.11016 0
M  V30 638 C 61.05 -0.0291702 1.73976 0
M  V30 639 O 62.226 0.165434 2.00719 0
M  V30 640 C 59.291 0.614673 3.41208 0
M  V30 641 C 58.352 1.74359 3.92297 0
M  V30 642 C 57.585 1.35261 5.16275 0
M  V30 643 O 57.808 0.235136 5.69915 0
M  V30 644 O 56.742 2.17227 5.61334 0
M  V30 645 H 60.568 1.96862 2.31255 0
M  V30 646 H 58.153 1.01753 1.09392 0
M  V30 647 H 60.035 0.396518 4.1953 0
M  V30 648 H 58.71 -0.299851 3.22308 0
M  V30 649 H 57.617 2.01635 3.1511 0
M  V30 650 H 58.95 2.63629 4.15645 0
M  V30 651 N 60.6021 -1.18246 1.0419 0
M  V30 652 C 61.5651 -2.20128 0.638452 0
M  V30 653 C 62.5651 -1.57885 -0.304805 0
M  V30 654 O 63.7551 -1.73967 -0.0900369 0
M  V30 655 C 60.8871 -3.4084 -0.0637751 0
M  V30 656 H 62.0801 -2.57336 1.54007 0
M  V30 657 H 59.6331 -1.32152 0.834598 0
M  V30 658 H 60.3681 -3.09166 -0.979136 0
M  V30 659 H 60.1531 -3.8726 0.614198 0
M  V30 660 H 61.6431 -4.16274 -0.332512 0
M  V30 661 N 62.0802 -0.821533 -1.34494 0
M  V30 662 C 63.4912 -0.467956 -1.8074 0
M  V30 663 C 63.8422 1.01151 -1.68116 0
M  V30 664 O 62.9672 1.78707 -1.22036 0
M  V30 665 C 63.5622 -0.842627 -3.28154 0
M  V30 666 C 62.1212 -0.541439 -3.72485 0
M  V30 667 C 61.2682 -1.06028 -2.56229 0
M  V30 668 H 64.2192 -1.01183 -1.22261 0
M  V30 669 H 64.2402 -0.145876 -3.8022 0
M  V30 670 H 63.7522 -1.91945 -3.37311 0
M  V30 671 H 61.8532 0.526034 -3.68868 0
M  V30 672 H 61.9662 -1.08453 -4.66663 0
M  V30 673 H 60.3302 -0.481892 -2.501 0
M  V30 674 H 61.1132 -2.14352 -2.68157 0
M  V30 675 N 63.5583 1.46682 -0.576371 0
M  V30 676 C 64.8353 1.95599 0.00703437 0
M  V30 677 C 65.2153 1.51904 1.46589 0
M  V30 678 O 64.5633 0.766755 2.15251 0
M  V30 679 C 64.7733 3.4864 -0.158404 0
M  V30 680 C 66.1213 4.24594 -0.0229439 0
M  V30 681 O 67.1453 3.56094 -0.0869173 0
M  V30 682 O 66.0043 5.46373 0.118015 0
M  V30 683 H 63.0983 0.825275 0.053384 0
M  V30 684 H 65.6443 1.56996 -0.644244 0
M  V30 685 H 64.4163 3.7331 -1.17282 0
M  V30 686 H 64.0393 3.94057 0.5296 0
M  V30 687 N 65.0364 0.313813 1.54444 0
M  V30 688 C 66.2664 -0.293491 2.04505 0
M  V30 689 C 66.6744 -1.47086 1.19005 0
M  V30 690 O 66.0174 -1.82481 0.211257 0
M  V30 691 C 66.0794 -0.800455 3.50475 0
M  V30 692 C 65.7434 0.253322 4.56297 0
M  V30 693 C 66.7404 1.08612 5.08428 0
M  V30 694 C 64.4254 0.398708 5.00715 0
M  V30 695 C 66.4194 2.05013 6.0353 0
M  V30 696 C 64.1064 1.36614 5.95634 0
M  V30 697 C 65.1044 2.19033 6.46926 0
M  V30 698 O 64.7924 3.14134 7.39983 0
M  V30 699 H 64.5244 -0.0658325 0.672787 0
M  V30 700 H 67.0784 0.455177 2.00293 0
M  V30 701 H 65.3084 -1.59987 3.52053 0
M  V30 702 H 66.9974 -1.32504 3.83663 0
M  V30 703 H 67.7634 0.984736 4.74898 0
M  V30 704 H 63.6424 -0.23289 4.60411 0
M  V30 705 H 67.1864 2.69382 6.4349 0
M  V30 706 H 63.0834 1.4682 6.28581 0
M  V30 707 H 63.8514 3.0926 7.57826 0
M  V30 708 N 66.5145 -1.57545 0.0417849 0
M  V30 709 C 67.7915 -1.83642 -0.673433 0
M  V30 710 C 68.1715 -0.928298 -1.89594 0
M  V30 711 O 67.5195 0.0129955 -2.28496 0
M  V30 712 C 67.7295 -3.33155 -1.03964 0
M  V30 713 C 69.0775 -3.99941 -1.42592 0
M  V30 714 O 70.1015 -3.37725 -1.13226 0
M  V30 715 O 68.9605 -5.09619 -1.9736 0
M  V30 716 H 66.0545 -0.757638 -0.331533 0
M  V30 717 H 68.6005 -1.69554 0.070433 0
M  V30 718 H 67.3725 -3.9093 -0.170098 0
M  V30 719 H 66.9955 -3.52396 -1.84126 0
M  V30 720 N 67.9926 0.231505 -1.5589 0
M  V30 721 C 69.4086 0.580748 -1.48659 0
M  V30 722 C 69.6086 1.87617 -0.73498 0
M  V30 723 O 68.6646 2.51046 -0.270586 0
M  V30 724 C 69.9776 0.669202 -2.93159 0
M  V30 725 C 71.5256 0.760499 -3.03621 0
M  V30 726 C 72.0006 0.880383 -4.49459 0
M  V30 727 N 73.4916 0.944861 -4.53461 0
M  V30 728 C 74.2266 1.05716 -5.63571 0
M  V30 729 N 73.7226 1.13403 -6.83456 0
M  V30 730 N 75.5156 1.09152 -5.514 0
M  V30 731 H 67.6666 -0.618695 -2.03189 0
M  V30 732 H 69.9296 -0.215728 -0.923128 0
M  V30 733 H 69.6356 -0.212904 -3.51055 0
M  V30 734 H 69.5096 1.5361 -3.44505 0
M  V30 735 H 71.8966 1.63305 -2.45796 0
M  V30 736 H 71.9776 -0.131864 -2.5546 0
M  V30 737 H 71.6216 0.0123284 -5.07899 0
M  V30 738 H 71.5516 1.78802 -4.95316 0
M  V30 739 H 74.0426 0.896176 -3.6712 0
M  V30 740 H 74.3556 1.21921 -7.63122 0
M  V30 741 H 72.7006 1.10333 -6.86186 0
M  V30 742 H 75.8916 1.02805 -4.56671 0
M  V30 743 H 76.0646 1.17558 -6.37247 0
M  V30 744 N 69.4707 1.49531 0.497807 0
M  V30 745 C 70.6957 1.63159 1.28039 0
M  V30 746 C 71.1207 0.30418 1.85624 0
M  V30 747 O 70.4787 -0.728618 1.66015 0
M  V30 748 C 70.5267 2.70537 2.38416 0
M  V30 749 O 69.6307 2.29931 3.42353 0
M  V30 750 H 68.9717 0.546001 0.377861 0
M  V30 751 H 71.5017 1.9574 0.59558 0
M  V30 752 H 71.5117 2.92802 2.84132 0
M  V30 753 H 70.1867 3.6689 1.95869 0
M  V30 754 H 68.7637 2.18009 3.02533 0
M  V30 755 N 70.9488 -0.749086 1.3866 0
M  V30 756 C 71.8808 -1.87273 1.32142 0
M  V30 757 C 72.8938 -1.61127 0.232787 0
M  V30 758 O 74.0828 -1.71623 0.49069 0
M  V30 759 C 71.1828 -3.23005 1.02571 0
M  V30 760 C 70.3558 -3.7662 2.22433 0
M  V30 761 C 69.4148 -4.90879 1.89537 0
M  V30 762 O 68.4408 -5.05276 2.62078 0
M  V30 763 N 69.6428 -5.74198 0.853031 0
M  V30 764 H 72.4078 -1.93373 2.28969 0
M  V30 765 H 69.9688 -0.929216 1.32579 0
M  V30 766 H 71.9608 -3.96992 0.786085 0
M  V30 767 H 70.5308 -3.12262 0.145249 0
M  V30 768 H 69.7508 -2.94147 2.62434 0
M  V30 769 H 71.0388 -4.09173 3.02415 0
M  V30 770 H 70.4368 -5.6514 0.25155 0
M  V30 771 H 68.9938 -6.48313 0.67329 0
M  V30 772 N 72.4269 -1.23603 -0.977757 0
M  V30 773 C 73.6729 -1.08136 -1.72274 0
M  V30 774 C 74.0279 0.377453 -1.88661 0
M  V30 775 O 73.3209 1.27552 -1.42972 0
M  V30 776 C 73.5149 -1.7433 -3.11999 0
M  V30 777 C 73.3439 -3.26498 -3.0924 0
M  V30 778 C 72.1139 -3.9567 -3.14282 0
M  V30 779 C 74.3119 -4.2323 -2.92201 0
M  V30 780 N 72.2939 -5.34799 -3.01436 0
M  V30 781 C 73.6649 -5.49289 -2.87544 0
M  V30 782 C 75.7199 -4.13931 -2.76705 0
M  V30 783 C 74.4229 -6.67116 -2.68978 0
M  V30 784 C 76.4489 -5.31424 -2.59504 0
M  V30 785 C 75.8109 -6.5641 -2.55548 0
M  V30 786 H 71.9099 -0.450247 -0.639376 0
M  V30 787 H 74.4939 -1.5637 -1.16002 0
M  V30 788 H 72.6649 -1.28624 -3.66484 0
M  V30 789 H 74.3969 -1.51815 -3.75146 0
M  V30 790 H 71.1519 -3.46767 -3.22567 0
M  V30 791 H 71.5759 -6.07748 -2.98281 0
M  V30 792 H 76.2179 -3.1807 -2.78552 0
M  V30 793 H 73.9359 -7.63109 -2.65876 0
M  V30 794 H 77.5219 -5.26072 -2.48474 0
M  V30 795 H 76.4019 -7.45795 -2.42405 0
M  V30 796 N 73.905 1.17692 -1.04816 0
M  V30 797 C 74.835 2.23777 -0.666791 0
M  V30 798 C 75.816 1.66796 0.33361 0
M  V30 799 O 77.001 1.93039 0.212042 0
M  V30 800 C 74.131 3.47281 -0.0367933 0
M  V30 801 C 73.085 4.17059 -0.961546 0
M  V30 802 C 72.411 5.34342 -0.195626 0
M  V30 803 C 73.711 4.69713 -2.28402 0
M  V30 804 H 75.405 2.55933 -1.55367 0
M  V30 805 H 72.951 1.23019 -0.748484 0
M  V30 806 H 74.904 4.20706 0.241775 0
M  V30 807 H 73.628 3.14381 0.885004 0
M  V30 808 H 72.287 3.45541 -1.22462 0
M  V30 809 H 71.935 4.97692 0.728816 0
M  V30 810 H 71.635 5.81966 -0.811775 0
M  V30 811 H 73.159 6.10553 0.0757473 0
M  V30 812 H 74.573 5.34794 -2.06563 0
M  V30 813 H 72.97 5.279 -2.8538 0
M  V30 814 H 74.04 3.86726 -2.92525 0
M  V30 815 N 75.3831 0.828654 1.34056 0
M  V30 816 C 76.6601 0.341809 1.9259 0
M  V30 817 C 77.0401 -1.17158 1.75605 0
M  V30 818 O 76.3881 -1.98132 1.13824 0
M  V30 819 C 76.5981 0.777453 3.4023 0
M  V30 820 C 77.9461 0.779579 4.17382 0
M  V30 821 O 78.9701 0.7204 3.48839 0
M  V30 822 O 77.8291 0.857996 5.39723 0
M  V30 823 H 74.9231 0.0946085 0.821571 0
M  V30 824 H 77.4691 0.913827 1.42994 0
M  V30 825 H 76.2411 1.8196 3.46419 0
M  V30 826 H 75.8641 0.181444 3.97186 0
M  V30 827 N 76.8612 -1.46375 0.584142 0
M  V30 828 C 78.1072 -2.02678 0.0703716 0
M  V30 829 C 78.4402 -1.4545 -1.28678 0
M  V30 830 O 77.7152 -0.62014 -1.84349 0
M  V30 831 C 77.9982 -3.60099 0.00614674 0
M  V30 832 C 77.8512 -4.27709 1.3923 0
M  V30 833 C 79.1702 -4.34598 -0.693742 0
M  V30 834 H 76.2892 -0.736504 0.027047 0
M  V30 835 H 78.9312 -1.74501 0.751615 0
M  V30 836 H 77.0812 -3.84236 -0.574009 0
M  V30 837 H 78.7532 -4.14832 2.01773 0
M  V30 838 H 76.9962 -3.87016 1.95962 0
M  V30 839 H 77.6672 -5.36478 1.29982 0
M  V30 840 H 80.1432 -4.15615 -0.200869 0
M  V30 841 H 79.0192 -5.44318 -0.707714 0
M  V30 842 H 79.2802 -4.05759 -1.75533 0
M  V30 843 N 78.3393 -0.321999 -1.54275 0
M  V30 844 C 79.2863 0.544664 -2.24281 0
M  V30 845 C 80.2563 1.1129 -1.23303 0
M  V30 846 O 81.4413 1.15354 -1.51981 0
M  V30 847 C 78.5813 1.70045 -3.00298 0
M  V30 848 C 77.6943 1.16159 -4.1609 0
M  V30 849 C 76.8293 2.28293 -4.79641 0
M  V30 850 C 75.8683 1.71648 -5.8754 0
M  V30 851 N 75.0053 2.77438 -6.44959 0
M  V30 852 H 79.8453 -0.0588907 -2.97942 0
M  V30 853 H 77.3823 -0.0408345 -1.47043 0
M  V30 854 H 79.3403 2.38054 -3.42616 0
M  V30 855 H 77.9703 2.27531 -2.28975 0
M  V30 856 H 77.0223 0.373092 -3.78566 0
M  V30 857 H 78.3343 0.707087 -4.93763 0
M  V30 858 H 77.4883 3.0421 -5.2492 0
M  V30 859 H 76.2273 2.77079 -4.01346 0
M  V30 860 H 75.2323 0.942282 -5.41665 0
M  V30 861 H 76.4573 1.23741 -6.67731 0
M  V30 862 H 74.4033 3.25519 -5.69538 0
M  V30 863 H 74.3203 2.36547 -7.1804 0
M  V30 864 H 75.5883 3.53189 -6.94894 0
M  V30 865 N 79.8174 1.5752 -0.0501392 0
M  V30 866 C 81.0644 1.9265 0.623874 0
M  V30 867 C 81.3924 0.928411 1.70912 0
M  V30 868 O 80.6474 -0.0594525 1.9561 0
M  V30 869 C 80.9464 3.34467 1.25963 0
M  V30 870 C 80.6124 4.49883 0.302689 0
M  V30 871 C 79.2744 4.81184 0.0393636 0
M  V30 872 C 81.6264 5.20002 -0.353205 0
M  V30 873 C 78.9544 5.79951 -0.887308 0
M  V30 874 C 81.3064 6.1976 -1.26806 0
M  V30 875 C 79.9704 6.49491 -1.54007 0
M  V30 876 H 79.2404 0.704957 0.228292 0
M  V30 877 H 81.8874 1.91146 -0.116398 0
M  V30 878 H 80.1924 3.32333 2.07514 0
M  V30 879 H 81.8894 3.58928 1.78806 0
M  V30 880 H 78.4794 4.25457 0.518109 0
M  V30 881 H 82.6634 4.96033 -0.162854 0
M  V30 882 H 77.9194 6.01322 -1.10553 0
M  V30 883 H 82.0934 6.73205 -1.78236 0
M  V30 884 H 79.7204 7.25837 -2.25976 0
M  V30 885 N 81.2955 -0.223234 1.56011 0
M  V30 886 C 82.2425 -1.27664 1.92277 0
M  V30 887 C 83.2125 -1.46659 0.779763 0
M  V30 888 O 84.3975 -1.60256 1.03551 0
M  V30 889 C 81.5375 -2.62234 2.24338 0
M  V30 890 C 80.6505 -2.51051 3.51564 0
M  V30 891 C 79.7855 -3.78133 3.7308 0
M  V30 892 C 78.8245 -3.61665 4.93827 0
M  V30 893 N 77.9615 -4.80693 5.11741 0
M  V30 894 H 82.8015 -0.960358 2.82101 0
M  V30 895 H 80.3385 -0.462901 1.39627 0
M  V30 896 H 82.2965 -3.40596 2.40936 0
M  V30 897 H 80.9265 -2.91961 1.3769 0
M  V30 898 H 79.9785 -1.64132 3.43169 0
M  V30 899 H 81.2905 -2.34803 4.40079 0
M  V30 900 H 80.4445 -4.64938 3.89766 0
M  V30 901 H 79.1835 -3.97304 2.82844 0
M  V30 902 H 78.1885 -2.73244 4.77093 0
M  V30 903 H 79.4135 -3.43966 5.85546 0
M  V30 904 H 77.3595 -5.00181 4.24446 0
M  V30 905 H 77.2765 -4.67165 5.94384 0
M  V30 906 H 78.5445 -5.6893 5.3286 0
M  V30 907 N 82.7736 -1.49793 -0.48987 0
M  V30 908 C 83.7036 -1.70201 -1.59856 0
M  V30 909 C 84.6846 -0.55076 -1.60937 0
M  V30 910 O 85.8696 -0.787841 -1.77501 0
M  V30 911 C 82.9996 -1.77882 -2.98287 0
M  V30 912 C 81.9536 -2.92907 -3.12073 0
M  V30 913 C 81.2796 -2.85712 -4.51965 0
M  V30 914 C 82.5796 -4.3369 -2.91051 0
M  V30 915 H 84.2736 -2.63025 -1.43032 0
M  V30 916 H 81.8196 -1.26574 -0.686664 0
M  V30 917 H 83.7726 -1.90744 -3.75759 0
M  V30 918 H 82.4966 -0.816653 -3.16225 0
M  V30 919 H 81.1556 -2.79665 -2.37029 0
M  V30 920 H 80.8036 -1.8738 -4.66795 0
M  V30 921 H 80.5036 -3.62921 -4.62128 0
M  V30 922 H 82.0276 -3.00598 -5.31482 0
M  V30 923 H 83.4416 -4.47555 -3.58284 0
M  V30 924 H 81.8386 -5.12205 -3.12675 0
M  V30 925 H 82.9086 -4.47362 -1.87071 0
M  V30 926 N 84.2517 0.741722 -1.39055 0
M  V30 927 C 85.5287 1.49252 -1.26425 0
M  V30 928 C 85.9087 2.10705 0.129144 0
M  V30 929 O 85.2567 1.98045 1.13976 0
M  V30 930 C 85.4667 2.54934 -2.38347 0
M  V30 931 C 86.8147 3.21506 -2.77343 0
M  V30 932 O 87.8387 2.65245 -2.37747 0
M  V30 933 O 86.6977 4.23294 -3.45665 0
M  V30 934 H 83.7917 0.662451 -0.495064 0
M  V30 935 H 86.3377 0.776121 -1.50912 0
M  V30 936 H 85.1097 2.07857 -3.31529 0
M  V30 937 H 84.7327 3.34141 -2.15489 0
M  V30 938 N 85.7298 1.2412 0.971189 0
M  V30 939 C 86.6598 1.05508 2.08304 0
M  V30 940 C 87.6408 -0.0308864 1.70072 0
M  V30 941 O 88.8258 0.135521 1.93727 0
M  V30 942 C 85.9558 0.655365 3.4106 0
M  V30 943 C 84.9098 1.68971 3.93234 0
M  V30 944 C 84.2358 1.14516 5.22293 0
M  V30 945 C 85.5358 3.08487 4.21465 0
M  V30 946 H 87.2298 1.98507 2.24132 0
M  V30 947 H 84.7758 0.955821 1.07704 0
M  V30 948 H 86.7288 0.51217 4.18276 0
M  V30 949 H 85.4528 -0.31032 3.25122 0
M  V30 950 H 84.1118 1.82106 3.18171 0
M  V30 951 H 83.7598 0.170189 5.02712 0
M  V30 952 H 83.4598 1.83635 5.58168 0
M  V30 953 H 84.9838 1.01401 6.02121 0
M  V30 954 H 86.3978 2.98601 4.89398 0
M  V30 955 H 84.7948 3.74926 4.68562 0
M  V30 956 H 85.8648 3.56787 3.28376 0
M  V30 957 N 87.2079 -1.17134 1.05439 0
M  V30 958 C 88.4849 -1.83411 0.679699 0
M  V30 959 C 88.8649 -1.9368 -0.839726 0
M  V30 960 O 88.2129 -1.47325 -1.74664 0
M  V30 961 C 88.4229 -3.20918 1.37159 0
M  V30 962 C 89.7709 -3.96796 1.51123 0
M  V30 963 O 90.7949 -3.30406 1.3308 0
M  V30 964 O 89.6539 -5.15778 1.80651 0
M  V30 965 H 86.7479 -0.79154 0.239569 0
M  V30 966 H 89.2939 -1.24411 1.15413 0
M  V30 967 H 88.0659 -3.08428 2.40807 0
M  V30 968 H 87.6889 -3.87587 0.886674 0
M  V30 969 N 88.686 -0.835752 -1.33615 0
M  V30 970 C 89.933 -0.429959 -1.97883 0
M  V30 971 C 90.261 1.01006 -1.66217 0
M  V30 972 O 89.516 1.72047 -0.93265 0
M  V30 973 C 89.815 -0.593925 -3.52431 0
M  V30 974 C 89.481 -2.00158 -4.04039 0
M  V30 975 C 88.143 -2.38662 -4.17844 0
M  V30 976 C 90.495 -2.92117 -4.31644 0
M  V30 977 C 87.823 -3.68435 -4.56588 0
M  V30 978 C 90.175 -4.21368 -4.71838 0
M  V30 979 C 88.839 -4.59833 -4.83849 0
M  V30 980 H 88.109 -0.157333 -0.724104 0
M  V30 981 H 90.756 -1.06217 -1.59343 0
M  V30 982 H 89.061 0.121619 -3.91611 0
M  V30 983 H 90.758 -0.260282 -4.00154 0
M  V30 984 H 87.348 -1.69252 -3.93766 0
M  V30 985 H 91.532 -2.63608 -4.20505 0
M  V30 986 H 86.788 -3.98046 -4.64079 0
M  V30 987 H 90.962 -4.92703 -4.92155 0
M  V30 988 H 88.589 -5.60438 -5.13627 0
M  V30 989 N 90.1641 1.46063 -0.591896 0
M  V30 990 C 91.5751 1.85944 -0.167822 0
M  V30 991 C 91.9261 1.49429 1.27143 0
M  V30 992 O 91.0511 0.913515 1.96173 0
M  V30 993 C 91.6461 3.37489 -0.297794 0
M  V30 994 C 90.2051 3.76332 0.0714732 0
M  V30 995 C 89.3521 2.7006 -0.629509 0
M  V30 996 H 92.3031 1.37087 -0.799555 0
M  V30 997 H 92.3241 3.77532 0.474349 0
M  V30 998 H 91.8361 3.64034 -1.3454 0
M  V30 999 H 89.9371 3.55405 1.11886 0
M  V30 1000 H 90.0501 4.78088 -0.311245 0
M  V30 1001 H 88.4141 2.54607 -0.0687867 0
M  V30 1002 H 89.1971 2.99444 -1.67894 0
M  V30 1003 N 91.6422 0.330177 1.54103 0
M  V30 1004 C 92.5902 -0.548226 2.26047 0
M  V30 1005 C 93.5842 -1.11309 1.27698 0
M  V30 1006 O 94.7902 -1.06036 1.45452 0
M  V30 1007 H 91.1652 -0.195456 0.726155 0
M  V30 1008 H 93.1362 0.0807567 2.98291 0
M  V30 1009 C 91.8852 -1.69415 3.03634 0
M  V30 1010 H 91.2082 -1.26876 3.79134 0
M  V30 1011 H 92.6482 -2.28423 3.5721 0
M  V30 1012 C 91.1072 -2.61569 2.12328 0
M  V30 1013 O 91.6372 -3.63462 1.7105 0
M  V30 1014 N 89.8432 -2.29952 1.77681 0
M  V30 1015 H 89.3902 -1.47134 2.11446 0
M  V30 1016 H 89.3482 -2.91871 1.16869 0
M  V30 1017 N 93.1203 -1.57491 0.0584922 0
M  V30 1018 C 94.0503 -2.14988 -0.911178 0
M  V30 1019 C 95.0313 -1.07343 -1.31952 0
M  V30 1020 O 96.2163 -1.35318 -1.39294 0
M  V30 1021 C 93.3463 -2.70078 -2.18347 0
M  V30 1022 C 92.3003 -3.82771 -1.91495 0
M  V30 1023 C 91.6263 -4.24408 -3.25241 0
M  V30 1024 C 92.9263 -5.07592 -1.23075 0
M  V30 1025 H 94.6203 -2.96263 -0.432246 0
M  V30 1026 H 92.1663 -1.42512 -0.206469 0
M  V30 1027 H 94.1193 -3.08943 -2.86587 0
M  V30 1028 H 92.8433 -1.86005 -2.68458 0
M  V30 1029 H 91.5023 -3.44389 -1.25664 0
M  V30 1030 H 91.1503 -3.37275 -3.73168 0
M  V30 1031 H 90.8503 -5.00366 -3.08071 0
M  V30 1032 H 92.3743 -4.65879 -3.94701 0
M  V30 1033 H 93.7883 -5.43857 -1.81362 0
M  V30 1034 H 92.1853 -5.88741 -1.16207 0
M  V30 1035 H 93.2553 -4.84454 -0.207847 0
M  V30 1036 N 94.5984 0.214957 -1.56127 0
M  V30 1037 C 96.0094 0.781386 -1.69562 0
M  V30 1038 C 96.3604 1.84707 -0.66165 0
M  V30 1039 O 95.4854 2.156 0.185927 0
M  V30 1040 C 96.0804 1.42411 -3.07416 0
M  V30 1041 C 94.6394 1.93786 -3.22683 0
M  V30 1042 C 93.7864 0.800438 -2.65496 0
M  V30 1043 H 96.7374 -0.00980633 -1.58697 0
M  V30 1044 H 96.7584 2.29309 -3.0364 0
M  V30 1045 H 96.2704 0.64826 -3.82648 0
M  V30 1046 H 94.3714 2.74152 -2.52332 0
M  V30 1047 H 94.4844 2.1133 -4.29973 0
M  V30 1048 H 92.8484 1.2095 -2.2415 0
M  V30 1049 H 93.6314 0.0371471 -3.4328 0
M  V30 1050 N 96.0765 1.50051 0.48192 0
M  V30 1051 C 97.3065 1.63999 1.2565 0
M  V30 1052 C 97.7145 0.318288 1.86504 0
M  V30 1053 O 97.0575 -0.708534 1.69486 0
M  V30 1054 C 97.1195 2.66504 2.4128 0
M  V30 1055 C 96.7835 4.10352 2.01148 0
M  V30 1056 C 97.7805 4.96562 1.54021 0
M  V30 1057 C 95.4655 4.56203 2.10199 0
M  V30 1058 C 97.4595 6.26668 1.16473 0
M  V30 1059 C 95.1465 5.86318 1.72264 0
M  V30 1060 C 96.1445 6.71375 1.25477 0
M  V30 1061 O 95.8325 7.99062 0.880626 0
M  V30 1062 H 95.5645 0.55456 0.386574 0
M  V30 1063 H 98.1185 1.96954 0.582944 0
M  V30 1064 H 96.3485 2.28769 3.11772 0
M  V30 1065 H 98.0375 2.69783 3.03268 0
M  V30 1066 H 98.8035 4.62358 1.46458 0
M  V30 1067 H 94.6825 3.90152 2.45566 0
M  V30 1068 H 98.2265 6.93011 0.798841 0
M  V30 1069 H 94.1235 6.20046 1.79482 0
M  V30 1070 H 94.8915 8.12239 1.01043 0
M  V30 1071 N 97.5546 -0.734337 1.39446 0
M  V30 1072 C 98.4846 -1.86155 1.40955 0
M  V30 1073 C 99.4656 -1.67898 0.272827 0
M  V30 1074 O 100.651 -1.88207 0.478743 0
M  V30 1075 C 97.7806 -3.23912 1.25294 0
M  V30 1076 C 96.7346 -3.56808 2.36373 0
M  V30 1077 C 96.0606 -4.93508 2.058 0
M  V30 1078 C 97.3606 -3.59713 3.78687 0
M  V30 1079 H 99.0546 -1.8515 2.35287 0
M  V30 1080 H 96.6006 -0.889367 1.13253 0
M  V30 1081 H 98.5536 -4.02443 1.2497 0
M  V30 1082 H 97.2776 -3.25446 0.274308 0
M  V30 1083 H 95.9366 -2.80606 2.35914 0
M  V30 1084 H 95.5846 -4.91623 1.06374 0
M  V30 1085 H 95.2846 -5.16486 2.80208 0
M  V30 1086 H 96.8086 -5.74396 2.07128 0
M  V30 1087 H 98.2226 -4.2832 3.81071 0
M  V30 1088 H 96.6196 -3.94209 4.52459 0
M  V30 1089 H 97.6896 -2.59504 4.09617 0
M  V30 1090 N 99.0327 -1.24633 -0.964593 0
M  V30 1091 C 99.9627 -1.06611 -2.07741 0
M  V30 1092 C 100.944 0.0218666 -1.70086 0
M  V30 1093 O 102.129 -0.145793 -1.93652 0
M  V30 1094 C 99.2587 -0.673444 -3.40708 0
M  V30 1095 C 98.2127 -1.71054 -3.92332 0
M  V30 1096 C 97.5387 -1.17285 -5.21678 0
M  V30 1097 C 98.8387 -3.10718 -4.19824 0
M  V30 1098 H 100.533 -1.99693 -2.23076 0
M  V30 1099 H 98.0787 -0.96152 -1.07195 0
M  V30 1100 H 100.032 -0.534345 -4.17998 0
M  V30 1101 H 98.7557 0.293073 -3.25282 0
M  V30 1102 H 97.4147 -1.83791 -3.17201 0
M  V30 1103 H 97.0627 -0.196847 -5.02615 0
M  V30 1104 H 96.7627 -1.86592 -5.57187 0
M  V30 1105 H 98.2867 -1.04593 -6.01575 0
M  V30 1106 H 99.7007 -3.01192 -4.87808 0
M  V30 1107 H 98.0977 -3.77406 -4.66567 0
M  V30 1108 H 99.1677 -3.58524 -3.26479 0
M  V30 1109 N 100.511 1.16574 -1.06058 0
M  V30 1110 C 101.788 1.83048 -0.689416 0
M  V30 1111 C 102.168 1.94122 0.829443 0
M  V30 1112 O 101.516 1.48249 1.7388 0
M  V30 1113 C 101.726 3.20186 -1.38859 0
M  V30 1114 C 103.074 3.95989 -1.53226 0
M  V30 1115 O 104.098 3.29696 -1.3483 0
M  V30 1116 O 102.957 5.14813 -1.83384 0
M  V30 1117 H 100.051 0.790258 -0.243764 0
M  V30 1118 H 102.597 1.23797 -1.16071 0
M  V30 1119 H 101.369 3.07146 -2.4244 0
M  V30 1120 H 100.992 3.87112 -0.907216 0
M  V30 1121 N 101.989 0.842826 1.3317 0
M  V30 1122 C 103.237 0.439577 1.97262 0
M  V30 1123 C 103.558 -1.00548 1.67078 0
M  V30 1124 O 102.828 -1.70098 0.971779 0
M  V30 1125 H 101.408 0.159558 0.72976 0
M  V30 1126 H 104.07 1.07665 1.62463 0
M  V30 1127 H 103.166 0.574886 3.0676 0
M  V30 1128 N 103.467 -1.45747 0.599634 0
M  V30 1129 C 104.414 -2.30467 -0.123849 0
M  V30 1130 C 105.384 -1.41632 -0.86774 0
M  V30 1131 O 106.569 -1.70568 -0.855056 0
M  V30 1132 C 103.709 -3.26402 -1.12051 0
M  V30 1133 C 102.822 -4.3034 -0.37832 0
M  V30 1134 C 101.957 -5.13389 -1.364 0
M  V30 1135 C 100.996 -6.09061 -0.609171 0
M  V30 1136 N 100.133 -6.84918 -1.54374 0
M  V30 1137 H 104.973 -2.91802 0.604627 0
M  V30 1138 H 102.51 -1.43797 0.309972 0
M  V30 1139 H 104.468 -3.80482 -1.7114 0
M  V30 1140 H 103.098 -2.66839 -1.8165 0
M  V30 1141 H 102.15 -3.78984 0.327929 0
M  V30 1142 H 103.462 -4.98354 0.210997 0
M  V30 1143 H 102.616 -5.7183 -2.02719 0
M  V30 1144 H 101.355 -4.45376 -1.98725 0
M  V30 1145 H 100.36 -5.49758 0.0676979 0
M  V30 1146 H 101.585 -6.79099 0.00891991 0
M  V30 1147 H 99.531 -6.19601 -2.15478 0
M  V30 1148 H 99.448 -7.49254 -1.00766 0
M  V30 1149 H 100.716 -7.47906 -2.19676 0
M  V30 1150 N 104.945 -0.338344 -1.53925 0
M  V30 1151 C 105.893 0.536231 -2.26335 0
M  V30 1152 C 106.887 1.1063 -1.28286 0
M  V30 1153 O 108.093 1.05264 -1.46012 0
M  V30 1154 H 104.468 0.191602 -0.727181 0
M  V30 1155 H 106.439 -0.0965747 -2.98244 0
M  V30 1156 C 105.188 1.67803 -3.04528 0
M  V30 1157 H 104.511 1.24864 -3.79801 0
M  V30 1158 H 105.951 2.26526 -3.58416 0
M  V30 1159 C 104.41 2.60439 -2.13712 0
M  V30 1160 O 104.94 3.6255 -1.72975 0
M  V30 1161 N 103.146 2.29006 -1.78898 0
M  V30 1162 H 102.693 1.46011 -2.12223 0
M  V30 1163 H 102.651 2.91248 -1.18416 0
M  V30 1164 N 106.423 1.57458 -0.0668435 0
M  V30 1165 C 107.37 2.12439 0.902122 0
M  V30 1166 C 108.34 1.03565 1.2986 0
M  V30 1167 O 109.525 1.312 1.38532 0
M  V30 1168 C 106.665 2.6865 2.16614 0
M  V30 1169 C 105.778 3.91663 1.82274 0
M  V30 1170 C 104.913 4.36134 3.0325 0
M  V30 1171 C 103.952 5.51808 2.64904 0
M  V30 1172 N 103.089 5.9126 3.78624 0
M  V30 1173 H 107.929 2.94934 0.426382 0
M  V30 1174 H 105.466 1.4575 0.198819 0
M  V30 1175 H 107.424 2.99346 2.90599 0
M  V30 1176 H 106.054 1.88928 2.61737 0
M  V30 1177 H 105.106 3.6746 0.983719 0
M  V30 1178 H 106.418 4.75693 1.50059 0
M  V30 1179 H 105.572 4.68465 3.85519 0
M  V30 1180 H 104.311 3.50948 3.38655 0
M  V30 1181 H 103.316 5.19133 1.81055 0
M  V30 1182 H 104.541 6.38722 2.30675 0
M  V30 1183 H 102.487 5.09024 4.138 0
M  V30 1184 H 102.404 6.70018 3.5016 0
M  V30 1185 H 103.672 6.28212 4.61486 0
M  V30 1186 N 107.901 -0.206675 1.56239 0
M  V30 1187 C 109.15 -0.926964 1.79138 0
M  V30 1188 C 109.463 -1.84901 0.638043 0
M  V30 1189 O 110.669 -2.60906 0.751033 0
M  V30 1190 C 109.125 -1.6986 3.17294 0
M  V30 1191 C 108.733 -0.821956 4.40395 0
M  V30 1192 C 110.477 -2.40922 3.4951 0
M  V30 1193 C 108.384 -1.59179 5.69575 0
M  V30 1194 H 107.314 -0.349864 0.667915 0
M  V30 1195 H 109.965 -0.180487 1.8261 0
M  V30 1196 H 108.347 -2.48853 3.08039 0
M  V30 1197 H 109.521 -0.0715019 4.60745 0
M  V30 1198 H 107.836 -0.222741 4.15804 0
M  V30 1199 H 110.433 -2.99047 4.43255 0
M  V30 1200 H 110.776 -3.14542 2.72707 0
M  V30 1201 H 111.309 -1.68905 3.60161 0
M  V30 1202 H 108.048 -0.898589 6.49312 0
M  V30 1203 H 107.568 -2.31648 5.53262 0
M  V30 1204 H 109.247 -2.14862 6.10281 0
M  V30 1205 N 109.379 -1.50304 -0.473955 0
M  V30 1206 C 110.607 -1.64902 -1.24959 0
M  V30 1207 C 111.022 -0.331198 -1.85872 0
M  V30 1208 O 110.379 0.68652 -1.69095 0
M  V30 1209 C 110.43 -2.73803 -2.36038 0
M  V30 1210 O 110.151 -4.00477 -1.77624 0
M  V30 1211 C 111.652 -2.99349 -3.26964 0
M  V30 1212 H 108.872 -0.554383 -0.378022 0
M  V30 1213 H 111.416 -1.9651 -0.566054 0
M  V30 1214 H 109.571 -2.44898 -3.00173 0
M  V30 1215 H 109.985 -4.60678 -2.5075 0
M  V30 1216 H 111.459 -3.79217 -4.01121 0
M  V30 1217 H 111.936 -2.10307 -3.85574 0
M  V30 1218 H 112.542 -3.29774 -2.68569 0
M  V30 1219 N 110.857 0.726932 -1.39834 0
M  V30 1220 C 111.789 1.85147 -1.35104 0
M  V30 1221 C 112.802 1.60736 -0.258392 0
M  V30 1222 O 113.991 1.70821 -0.517931 0
M  V30 1223 C 111.091 3.21332 -1.07697 0
M  V30 1224 C 110.264 3.73033 -2.28396 0
M  V30 1225 C 109.323 4.87802 -1.97322 0
M  V30 1226 O 108.349 5.01043 -2.70083 0
M  V30 1227 N 109.551 5.72768 -0.944273 0
M  V30 1228 H 112.316 1.89706 -2.32017 0
M  V30 1229 H 109.877 0.908006 -1.3404 0
M  V30 1230 H 111.869 3.95691 -0.849144 0
M  V30 1231 H 110.439 3.11992 -0.194909 0
M  V30 1232 H 109.659 2.89934 -2.6708 0
M  V30 1233 H 110.947 4.0431 -3.08887 0
M  V30 1234 H 110.345 5.64669 -0.341427 0
M  V30 1235 H 108.902 6.4716 -0.776346 0
M  V30 1236 N 112.336 1.25143 0.95797 0
M  V30 1237 C 113.561 1.12521 1.74223 0
M  V30 1238 C 113.986 -0.317402 1.85403 0
M  V30 1239 O 113.344 -1.2299 1.33204 0
M  V30 1240 C 113.392 1.78062 3.1357 0
M  V30 1241 O 112.496 1.058 3.98598 0
M  V30 1242 H 111.837 0.39304 0.535178 0
M  V30 1243 H 114.367 1.65641 1.201 0
M  V30 1244 H 114.377 1.84213 3.64046 0
M  V30 1245 H 113.052 2.83021 3.04749 0
M  V30 1246 H 111.629 1.07506 3.57067 0
M  V30 1247 N 113.814 -1.1601 1.06675 0
M  V30 1248 C 114.762 -2.22586 0.675157 0
M  V30 1249 C 115.756 -1.66525 -0.310766 0
M  V30 1250 O 116.962 -1.79145 -0.175215 0
M  V30 1251 H 113.337 -0.724855 0.200223 0
M  V30 1252 H 115.308 -2.52899 1.58381 0
M  V30 1253 C 114.057 -3.47604 0.0817162 0
M  V30 1254 H 113.38 -3.91058 0.831484 0
M  V30 1255 H 114.82 -4.23718 -0.154708 0
M  V30 1256 C 113.279 -3.15718 -1.17576 0
M  V30 1257 O 113.809 -3.31878 -2.26318 0
M  V30 1258 N 112.015 -2.69816 -1.07923 0
M  V30 1259 H 111.562 -2.56866 -0.194293 0
M  V30 1260 H 111.52 -2.48855 -1.92141 0
M  V30 1261 N 115.292 -0.849877 -1.32721 0
M  V30 1262 C 116.255 -0.296122 -2.27279 0
M  V30 1263 C 117.255 0.541458 -1.5141 0
M  V30 1264 O 118.445 0.353658 -1.70572 0
M  V30 1265 C 115.577 0.581579 -3.35902 0
M  V30 1266 H 116.77 -1.13064 -2.77771 0
M  V30 1267 H 114.323 -0.62383 -1.43311 0
M  V30 1268 H 115.058 1.43809 -2.9067 0
M  V30 1269 H 114.843 -0.0178814 -3.92096 0
M  V30 1270 H 116.333 0.961951 -4.0637 0
M  V30 1271 N 116.77 1.45427 -0.607355 0
M  V30 1272 C 118.019 2.01452 -0.100036 0
M  V30 1273 C 118.332 1.48159 1.27704 0
M  V30 1274 O 119.538 1.96159 1.87707 0
M  V30 1275 C 117.994 3.59672 -0.128158 0
M  V30 1276 C 117.602 4.21962 -1.50507 0
M  V30 1277 C 119.346 4.23262 0.323932 0
M  V30 1278 C 117.253 5.72333 -1.48959 0
M  V30 1279 H 116.183 0.75325 -0.0336299 0
M  V30 1280 H 118.834 1.66901 -0.76265 0
M  V30 1281 H 117.216 3.91411 0.601105 0
M  V30 1282 H 118.39 4.01796 -2.25602 0
M  V30 1283 H 116.705 3.70565 -1.89923 0
M  V30 1284 H 119.302 5.33522 0.354691 0
M  V30 1285 H 119.645 3.93921 1.34656 0
M  V30 1286 H 120.178 3.96239 -0.352056 0
M  V30 1287 H 116.917 6.06373 -2.48981 0
M  V30 1288 H 116.437 5.94691 -0.781214 0
M  V30 1289 H 118.116 6.35525 -1.21313 0
M  V30 1290 N 118.248 0.346503 1.53744 0
M  V30 1291 C 119.178 -0.501193 2.28058 0
M  V30 1292 C 120.159 -1.10014 1.29734 0
M  V30 1293 O 121.344 -1.12097 1.58581 0
M  V30 1294 C 118.474 -1.65078 3.05559 0
M  V30 1295 C 117.428 -1.18003 4.11411 0
M  V30 1296 C 116.754 -2.41837 4.76884 0
M  V30 1297 C 118.054 -0.278394 5.21558 0
M  V30 1298 H 119.748 0.11875 2.99164 0
M  V30 1299 H 117.294 0.0585531 1.43881 0
M  V30 1300 H 119.247 -2.25028 3.56287 0
M  V30 1301 H 117.971 -2.29767 2.32109 0
M  V30 1302 H 116.63 -0.603331 3.61601 0
M  V30 1303 H 116.278 -3.0494 4.00026 0
M  V30 1304 H 115.978 -2.1102 5.48402 0
M  V30 1305 H 117.502 -3.02508 5.30397 0
M  V30 1306 H 118.916 -0.784823 5.67903 0
M  V30 1307 H 117.313 -0.0619707 6.00068 0
M  V30 1308 H 118.383 0.684677 4.80042 0
M  V30 1309 N 119.726 -1.57421 0.075193 0
M  V30 1310 C 121.142 -1.57099 -0.281444 0
M  V30 1311 C 121.342 -1.08486 -1.69803 0
M  V30 1312 O 120.398 -0.752279 -2.41033 0
M  V30 1313 C 121.711 -3.00571 -0.0880041 0
M  V30 1314 C 123.259 -3.12605 -0.157281 0
M  V30 1315 C 123.734 -4.57999 0.0079207 0
M  V30 1316 N 125.225 -4.63176 -0.0475725 0
M  V30 1317 C 125.96 -5.73373 0.0557876 0
M  V30 1318 N 125.456 -6.92473 0.21286 0
M  V30 1319 N 127.249 -5.621 -0.00152098 0
M  V30 1320 H 119.4 -1.87335 1.00098 0
M  V30 1321 H 121.663 -0.86377 0.390646 0
M  V30 1322 H 121.369 -3.40262 0.889629 0
M  V30 1323 H 121.243 -3.67754 -0.838875 0
M  V30 1324 H 123.63 -2.72798 -1.1254 0
M  V30 1325 H 123.711 -2.48053 0.62475 0
M  V30 1326 H 123.355 -4.98496 0.972824 0
M  V30 1327 H 123.285 -5.20586 -0.793556 0
M  V30 1328 H 125.776 -3.7753 -0.167244 0
M  V30 1329 H 126.089 -7.72279 0.283781 0
M  V30 1330 H 124.434 -6.94556 0.248267 0
M  V30 1331 H 127.625 -4.67938 -0.122958 0
M  V30 1332 H 127.798 -6.47948 0.0824844 0
M  V30 1333 N 121.204 0.198386 -1.56346 0
M  V30 1334 C 122.434 0.934215 -1.84271 0
M  V30 1335 C 122.842 1.77496 -0.655125 0
M  V30 1336 O 122.185 1.7961 0.385488 0
M  V30 1337 C 122.247 1.88278 -3.06254 0
M  V30 1338 C 121.911 1.22431 -4.40295 0
M  V30 1339 C 122.908 0.602839 -5.16393 0
M  V30 1340 C 120.593 1.22915 -4.87029 0
M  V30 1341 C 122.587 -0.0050083 -6.374 0
M  V30 1342 C 120.274 0.617465 -6.07973 0
M  V30 1343 C 121.272 0.00146341 -6.83 0
M  V30 1344 O 120.96 -0.600642 -8.01653 0
M  V30 1345 H 120.692 0.278245 -0.616081 0
M  V30 1346 H 123.246 0.211626 -2.04307 0
M  V30 1347 H 121.476 2.64498 -2.82095 0
M  V30 1348 H 123.165 2.48612 -3.20853 0
M  V30 1349 H 123.931 0.591265 -4.81382 0
M  V30 1350 H 119.81 1.69801 -4.28589 0
M  V30 1351 H 123.354 -0.48643 -6.95902 0
M  V30 1352 H 119.251 0.62653 -6.42452 0
M  V30 1353 H 120.019 -0.497225 -8.16988 0
M  V30 1354 N 122.682 1.50554 0.465978 0
M  V30 1355 C 123.931 1.61038 1.21448 0
M  V30 1356 C 124.244 0.31865 1.92987 0
M  V30 1357 O 125.45 0.302469 2.6981 0
M  V30 1358 C 123.906 2.84283 2.20706 0
M  V30 1359 C 123.514 4.20352 1.54946 0
M  V30 1360 C 125.258 3.04115 2.96166 0
M  V30 1361 C 123.165 5.34778 2.5252 0
M  V30 1362 H 122.095 0.599718 0.457005 0
M  V30 1363 H 124.746 1.7699 0.484424 0
M  V30 1364 H 123.128 2.61901 2.97025 0
M  V30 1365 H 124.302 4.53008 0.843811 0
M  V30 1366 H 122.617 4.06167 0.917475 0
M  V30 1367 H 125.214 3.86774 3.69202 0
M  V30 1368 H 125.557 2.16045 3.55852 0
M  V30 1369 H 126.09 3.26702 2.26959 0
M  V30 1370 H 122.829 6.25018 1.97566 0
M  V30 1371 H 122.349 5.06534 3.21222 0
M  V30 1372 H 124.028 5.65561 3.14245 0
M  V30 1373 N 124.16 -0.719506 1.40217 0
M  V30 1374 C 125.123 -1.8153 1.39927 0
M  V30 1375 C 126.123 -1.58095 0.293723 0
M  V30 1376 O 127.313 -1.65209 0.552429 0
M  V30 1377 C 124.445 -3.19561 1.18716 0
M  V30 1378 H 125.638 -1.83186 2.37451 0
M  V30 1379 H 123.191 -0.924746 1.26008 0
M  V30 1380 H 123.926 -3.23557 0.219366 0
M  V30 1381 H 123.711 -3.3797 1.98793 0
M  V30 1382 H 125.201 -3.99598 1.21291 0
M  V30 1383 N 125.638 -1.25649 -0.95132 0
M  V30 1384 C 127.054 -1.02542 -1.223 0
M  V30 1385 C 127.254 0.255715 -1.99871 0
M  V30 1386 O 126.31 0.967558 -2.33226 0
M  V30 1387 C 127.623 -2.25065 -1.99415 0
M  V30 1388 C 129.171 -2.29861 -2.12446 0
M  V30 1389 C 129.646 -3.52048 -2.92961 0
M  V30 1390 N 131.137 -3.52465 -3.00538 0
M  V30 1391 C 131.872 -4.43672 -3.63239 0
M  V30 1392 N 131.368 -5.45157 -4.27523 0
M  V30 1393 N 133.161 -4.31346 -3.60412 0
M  V30 1394 H 125.312 -2.07951 -0.432471 0
M  V30 1395 H 127.575 -0.91339 -0.253816 0
M  V30 1396 H 127.281 -3.18194 -1.49817 0
M  V30 1397 H 127.155 -2.28502 -3.00111 0
M  V30 1398 H 129.542 -1.37252 -2.61239 0
M  V30 1399 H 129.623 -2.3044 -1.11044 0
M  V30 1400 H 129.267 -4.44981 -2.44856 0
M  V30 1401 H 129.197 -3.48715 -3.94596 0
M  V30 1402 H 131.688 -2.79056 -2.54826 0
M  V30 1403 H 132.001 -6.10958 -4.73234 0
M  V30 1404 H 130.346 -5.49025 -4.26141 0
M  V30 1405 H 133.537 -3.51288 -3.09377 0
M  V30 1406 H 133.71 -5.02624 -4.0899 0
M  V30 1407 N 127.117 1.15442 -1.07289 0
M  V30 1408 C 128.064 2.20161 -0.692653 0
M  V30 1409 C 129.034 1.63073 0.31564 0
M  V30 1410 O 130.219 1.89725 0.202235 0
M  V30 1411 C 127.359 3.44967 -0.0959509 0
M  V30 1412 C 126.472 4.16256 -1.15564 0
M  V30 1413 C 125.607 5.28609 -0.524011 0
M  V30 1414 C 124.646 5.91715 -1.56653 0
M  V30 1415 N 123.783 6.9554 -0.957531 0
M  V30 1416 H 128.623 2.52037 -1.59002 0
M  V30 1417 H 126.16 1.2378 -0.794798 0
M  V30 1418 H 128.118 4.16341 0.267628 0
M  V30 1419 H 126.748 3.1361 0.764772 0
M  V30 1420 H 125.8 3.43385 -1.6368 0
M  V30 1421 H 127.112 4.59268 -1.94613 0
M  V30 1422 H 126.266 6.06604 -0.108032 0
M  V30 1423 H 125.005 4.86787 0.29825 0
M  V30 1424 H 124.01 5.12433 -1.9923 0
M  V30 1425 H 125.235 6.35614 -2.39107 0
M  V30 1426 H 123.181 6.55814 -0.156162 0
M  V30 1427 H 123.098 7.36977 -1.68526 0
M  V30 1428 H 124.366 7.77435 -0.567032 0
M  V30 1429 N 128.595 0.856903 1.32268 0
M  V30 1430 C 129.545 0.274899 2.26337 0
M  V30 1431 C 130.529 -0.580543 1.50062 0
M  V30 1432 O 131.721 -0.429559 1.71708 0
M  V30 1433 C 128.85 -0.533841 3.39124 0
M  V30 1434 C 127.936 0.334114 4.22782 0
M  V30 1435 N 128.327 1.42143 4.85416 0
M  V30 1436 C 126.625 0.124256 4.45827 0
M  V30 1437 C 127.326 1.95559 5.47843 0
M  V30 1438 N 126.302 1.25444 5.28928 0
M  V30 1439 H 130.104 1.10612 2.72291 0
M  V30 1440 H 127.618 0.703258 1.46383 0
M  V30 1441 H 129.615 -0.96722 4.05525 0
M  V30 1442 H 128.275 -1.36283 2.94715 0
M  V30 1443 H 129.286 1.80436 4.85451 0
M  V30 1444 H 125.963 -0.669837 4.12092 0
M  V30 1445 H 127.353 2.86714 6.07655 0
M  V30 1446 N 130.073 -1.45103 0.615059 0
M  V30 1447 C 131.021 -2.32331 -0.111791 0
M  V30 1448 C 132.015 -1.46409 -0.852102 0
M  V30 1449 O 133.221 -1.62849 -0.766821 0
M  V30 1450 H 129.596 -0.749993 -0.0549072 0
M  V30 1451 H 131.567 -2.91407 0.642225 0
M  V30 1452 C 130.316 -3.3015 -1.09071 0
M  V30 1453 H 129.639 -3.96265 -0.530485 0
M  V30 1454 H 131.079 -3.93898 -1.56908 0
M  V30 1455 C 129.538 -2.57875 -2.168 0
M  V30 1456 O 130.068 -2.36567 -3.24652 0
M  V30 1457 N 128.274 -2.17884 -1.92289 0
M  V30 1458 H 127.821 -2.35413 -1.04587 0
M  V30 1459 H 127.779 -1.6985 -2.64572 0
M  V30 1460 N 131.551 -0.354651 -1.53558 0
M  V30 1461 C 132.484 0.540273 -2.21712 0
M  V30 1462 C 133.462 1.09161 -1.2051 0
M  V30 1463 O 134.646 1.14979 -1.49372 0
M  V30 1464 C 131.773 1.74435 -2.90328 0
M  V30 1465 C 130.819 1.32146 -4.05512 0
M  V30 1466 S 131.652 0.331924 -5.3447 0
M  V30 1467 C 132.808 1.54258 -6.06593 0
M  V30 1468 H 133.041 -0.0385776 -2.97275 0
M  V30 1469 H 130.574 -0.138736 -1.53775 0
M  V30 1470 H 132.532 2.43507 -3.30476 0
M  V30 1471 H 131.193 2.29444 -2.1451 0
M  V30 1472 H 130.386 2.21952 -4.52497 0
M  V30 1473 H 129.988 0.710091 -3.67197 0
M  V30 1474 H 132.28 2.47534 -6.30661 0
M  V30 1475 H 133.223 1.11431 -6.99277 0
M  V30 1476 H 133.631 1.74367 -5.36895 0
M  V30 1477 N 133.029 1.57378 -0.0835403 0
M  V30 1478 C 134.269 1.95808 0.586381 0
M  V30 1479 C 134.633 0.963706 1.66062 0
M  V30 1480 O 135.834 1.23608 2.38693 0
M  V30 1481 C 134.105 3.38808 1.13771 0
M  V30 1482 S 135.664 3.99225 1.82112 0
M  V30 1483 H 132.482 0.684675 0.191679 0
M  V30 1484 H 135.084 1.94843 -0.160194 0
M  V30 1485 H 133.788 4.08954 0.344197 0
M  V30 1486 H 133.319 3.43344 1.92038 0
M  V30 1487 H 135.334 3.87087 3.10449 0
M  V30 1488 N 134.507 -0.190092 1.56449 0
M  V30 1489 C 135.755 -0.907908 1.80559 0
M  V30 1490 C 136.076 -1.83583 0.657438 0
M  V30 1491 O 135.346 -1.93203 -0.323924 0
M  V30 1492 H 133.926 -0.338247 0.666032 0
M  V30 1493 H 136.588 -0.194403 1.93928 0
M  V30 1494 H 135.684 -1.49604 2.73907 0
M  V30 1495 N 135.985 -1.50799 -0.457987 0
M  V30 1496 C 136.895 -1.73426 -1.57989 0
M  V30 1497 C 137.911 -0.617745 -1.62665 0
M  V30 1498 O 139.087 -0.897614 -1.80291 0
M  V30 1499 C 136.152 -1.83557 -2.94122 0
M  V30 1500 C 135.213 -3.07345 -2.99729 0
M  V30 1501 C 134.446 -3.16983 -4.29368 0
M  V30 1502 O 134.669 -2.33077 -5.20607 0
M  V30 1503 O 133.603 -4.09812 -4.40837 0
M  V30 1504 H 137.429 -2.68555 -1.41817 0
M  V30 1505 H 135.014 -1.35052 -0.638859 0
M  V30 1506 H 136.896 -1.92326 -3.74952 0
M  V30 1507 H 135.571 -0.916137 -3.10465 0
M  V30 1508 H 134.478 -3.04068 -2.1793 0
M  V30 1509 H 135.811 -3.9891 -2.88326 0
M  V30 1510 N 137.463 0.71206 -1.40597 0
M  V30 1511 C 138.691 1.50111 -1.42388 0
M  V30 1512 C 139.106 1.88784 -0.0245395 0
M  V30 1513 O 138.463 1.55681 0.952351 0
M  V30 1514 C 138.514 2.7742 -2.31776 0
M  V30 1515 O 138.235 2.40382 -3.66262 0
M  V30 1516 C 139.736 3.7129 -2.42196 0
M  V30 1517 H 136.956 0.46314 -0.485533 0
M  V30 1518 H 139.5 0.878068 -1.8469 0
M  V30 1519 H 137.655 3.36001 -1.92827 0
M  V30 1520 H 138.069 3.22324 -4.13772 0
M  V30 1521 H 139.543 4.57448 -3.08943 0
M  V30 1522 H 140.02 4.14641 -1.44809 0
M  V30 1523 H 140.626 3.18619 -2.81712 0
M  V30 1524 N 138.941 1.26152 0.944643 0
M  V30 1525 C 139.851 1.09176 2.07648 0
M  V30 1526 C 140.867 0.0261935 1.7398 0
M  V30 1527 O 142.043 0.229208 2.00091 0
M  V30 1528 C 139.108 0.722915 3.39079 0
M  V30 1529 C 138.169 1.86752 3.86552 0
M  V30 1530 C 137.402 1.51617 5.11711 0
M  V30 1531 O 137.625 0.416331 5.68879 0
M  V30 1532 O 136.559 2.34975 5.54139 0
M  V30 1533 H 140.385 2.0412 2.24875 0
M  V30 1534 H 137.97 1.05182 1.061 0
M  V30 1535 H 139.852 0.529787 4.18056 0
M  V30 1536 H 138.527 -0.197159 3.23099 0
M  V30 1537 H 137.434 2.11558 3.08535 0
M  V30 1538 H 138.767 2.76719 4.07047 0
M  V30 1539 N 140.419 -1.14872 1.07899 0
M  V30 1540 C 141.329 -2.2341 0.715915 0
M  V30 1541 C 142.345 -1.71808 -0.275306 0
M  V30 1542 O 143.521 -2.01039 -0.120545 0
M  V30 1543 C 140.586 -3.46474 0.125168 0
M  V30 1544 C 139.647 -4.13039 1.17034 0
M  V30 1545 C 138.88 -5.30229 0.607688 0
M  V30 1546 O 139.103 -5.675 -0.574497 0
M  V30 1547 O 138.037 -5.86444 1.35526 0
M  V30 1548 H 141.863 -2.56808 1.62121 0
M  V30 1549 H 139.448 -1.22702 0.852322 0
M  V30 1550 H 141.33 -4.20917 -0.201729 0
M  V30 1551 H 140.005 -3.14811 -0.753364 0
M  V30 1552 H 138.912 -3.40493 1.54968 0
M  V30 1553 H 140.245 -4.48796 2.02097 0
M  V30 1554 N 141.898 -0.863906 -1.31812 0
M  V30 1555 C 142.808 -0.318461 -2.32428 0
M  V30 1556 C 143.824 0.568496 -1.64451 0
M  V30 1557 O 145 0.46666 -1.95919 0
M  V30 1558 C 142.065 0.476355 -3.43412 0
M  V30 1559 C 141.126 -0.43784 -4.27061 0
M  V30 1560 C 140.359 0.319138 -5.32745 0
M  V30 1561 O 140.582 1.54799 -5.48993 0
M  V30 1562 O 139.516 -0.319861 -6.01049 0
M  V30 1563 H 143.342 -1.15229 -2.80991 0
M  V30 1564 H 140.927 -0.627103 -1.35602 0
M  V30 1565 H 142.809 0.927156 -4.11074 0
M  V30 1566 H 141.484 1.28683 -2.97022 0
M  V30 1567 H 140.391 -0.937013 -3.62175 0
M  V30 1568 H 141.724 -1.21375 -4.77 0
M  V30 1569 N 143.376 1.44774 -0.622745 0
M  V30 1570 C 144.323 2.30635 0.0871679 0
M  V30 1571 C 145.293 1.42994 0.845097 0
M  V30 1572 O 146.478 1.71907 0.827812 0
M  V30 1573 C 143.618 3.28144 1.06844 0
M  V30 1574 C 142.731 4.30888 0.309809 0
M  V30 1575 C 141.866 5.15494 1.28215 0
M  V30 1576 C 140.905 6.09953 0.512198 0
M  V30 1577 N 140.042 6.87287 1.43458 0
M  V30 1578 H 144.882 2.90803 -0.650974 0
M  V30 1579 H 142.419 1.43286 -0.33281 0
M  V30 1580 H 144.377 3.83157 1.65066 0
M  V30 1581 H 143.007 2.69695 1.77382 0
M  V30 1582 H 142.059 3.78414 -0.388181 0
M  V30 1583 H 143.371 4.97955 -0.290254 0
M  V30 1584 H 142.525 5.74983 1.93596 0
M  V30 1585 H 141.264 4.48481 1.91614 0
M  V30 1586 H 140.269 5.49581 -0.155151 0
M  V30 1587 H 141.494 6.78999 -0.116958 0
M  V30 1588 H 139.44 6.2295 2.05594 0
M  V30 1589 H 139.357 7.50763 0.888335 0
M  V30 1590 H 140.625 7.51306 2.07749 0
M  V30 1591 N 144.854 0.36279 1.53368 0
M  V30 1592 C 146.103 -0.22888 2.00397 0
M  V30 1593 C 146.416 -1.50096 1.25421 0
M  V30 1594 O 147.622 -2.17106 1.63025 0
M  V30 1595 C 146.078 -0.458417 3.56969 0
M  V30 1596 C 145.686 0.798877 4.4082 0
M  V30 1597 C 147.43 -1.00789 4.12361 0
M  V30 1598 C 145.337 0.539078 5.88938 0
M  V30 1599 H 144.267 -0.089305 0.748693 0
M  V30 1600 H 146.918 0.481099 1.77081 0
M  V30 1601 H 145.3 -1.22959 3.76427 0
M  V30 1602 H 146.474 1.57262 4.33134 0
M  V30 1603 H 144.789 1.27137 3.96516 0
M  V30 1604 H 147.386 -1.21754 5.20653 0
M  V30 1605 H 147.729 -1.9692 3.66781 0
M  V30 1606 H 148.262 -0.296961 3.9669 0
M  V30 1607 H 145.001 1.47064 6.3879 0
M  V30 1608 H 144.521 -0.196222 5.99479 0
M  V30 1609 H 146.2 0.163542 6.46793 0
M  V30 1610 N 146.332 -1.57332 0.0918853 0
M  V30 1611 C 147.748 -1.57389 -0.264766 0
M  V30 1612 C 147.948 -1.10281 -1.68643 0
M  V30 1613 O 147.004 -0.777801 -2.40222 0
M  V30 1614 C 148.317 -3.00648 -0.0561195 0
M  V30 1615 C 149.865 -3.12754 -0.124116 0
M  V30 1616 C 150.34 -4.57965 0.0564972 0
M  V30 1617 N 151.831 -4.632 0.00155611 0
M  V30 1618 C 152.566 -5.73281 0.116598 0
M  V30 1619 N 152.062 -6.92208 0.286294 0
M  V30 1620 N 153.855 -5.6207 0.0580973 0
M  V30 1621 H 146.006 -1.86262 1.02079 0
M  V30 1622 H 148.269 -0.859579 0.399786 0
M  V30 1623 H 147.975 -3.393 0.925669 0
M  V30 1624 H 147.849 -3.68623 -0.799823 0
M  V30 1625 H 150.236 -2.73976 -1.09641 0
M  V30 1626 H 150.317 -2.47377 0.651024 0
M  V30 1627 H 149.961 -4.97436 1.02564 0
M  V30 1628 H 149.891 -5.21399 -0.738297 0
M  V30 1629 H 152.382 -3.77686 -0.127192 0
M  V30 1630 H 152.695 -7.71934 0.365676 0
M  V30 1631 H 151.04 -6.94254 0.32192 0
M  V30 1632 H 154.231 -4.68043 -0.0733204 0
M  V30 1633 H 154.404 -6.47824 0.151203 0
M  V30 1634 N 147.81 0.181792 -1.56548 0
M  V30 1635 C 149.056 0.901431 -1.81665 0
M  V30 1636 C 149.389 1.82347 -0.668075 0
M  V30 1637 O 148.664 1.91669 0.330615 0
M  V30 1638 C 148.947 1.70618 -3.17115 0
M  V30 1639 C 148.8 0.807964 -4.42484 0
M  V30 1640 C 150.119 2.67605 -3.49393 0
M  V30 1641 H 147.238 0.32627 -0.660846 0
M  V30 1642 H 149.88 0.168134 -1.89255 0
M  V30 1643 H 148.03 2.33133 -3.10775 0
M  V30 1644 H 149.702 0.19649 -4.60881 0
M  V30 1645 H 147.945 0.115411 -4.33646 0
M  V30 1646 H 148.616 1.40632 -5.33785 0
M  V30 1647 H 151.092 2.15218 -3.56118 0
M  V30 1648 H 149.968 3.20985 -4.45264 0
M  V30 1649 H 150.229 3.47298 -2.73563 0
M  V30 1650 N 149.288 1.51039 0.449983 0
M  V30 1651 C 150.565 1.53612 1.21089 0
M  V30 1652 C 150.945 0.292997 2.09057 0
M  V30 1653 O 150.293 -0.72259 2.16774 0
M  V30 1654 C 150.503 2.84337 2.0237 0
M  V30 1655 C 151.851 3.35807 2.59843 0
M  V30 1656 O 152.875 2.85802 2.12593 0
M  V30 1657 O 151.734 4.23029 3.45989 0
M  V30 1658 H 148.828 0.617057 0.550608 0
M  V30 1659 H 151.374 1.63344 0.460082 0
M  V30 1660 H 150.146 3.66278 1.37681 0
M  V30 1661 H 149.769 2.77708 2.84542 0
M  V30 1662 N 150.766 -0.704594 1.40972 0
M  V30 1663 C 152.015 -1.46018 1.39146 0
M  V30 1664 C 152.328 -1.956 0.000589254 0
M  V30 1665 O 153.534 -2.71137 -0.1403 0
M  V30 1666 C 151.99 -2.63996 2.4461 0
M  V30 1667 C 151.598 -2.21238 3.89561 0
M  V30 1668 C 153.342 -3.41677 2.51907 0
M  V30 1669 C 151.249 -3.3612 4.86598 0
M  V30 1670 H 150.179 -0.548444 0.517422 0
M  V30 1671 H 152.83 -0.765784 1.66757 0
M  V30 1672 H 151.212 -3.3566 2.10115 0
M  V30 1673 H 152.386 -1.56923 4.33257 0
M  V30 1674 H 150.701 -1.56574 3.85841 0
M  V30 1675 H 153.298 -4.27182 3.2159 0
M  V30 1676 H 153.641 -3.86247 1.55303 0
M  V30 1677 H 154.174 -2.77064 2.85448 0
M  V30 1678 H 150.913 -2.96572 5.84573 0
M  V30 1679 H 150.433 -3.99315 4.47557 0
M  V30 1680 H 152.112 -4.02029 5.06934 0
M  V30 1681 N 152.244 -1.26651 -0.937939 0
M  V30 1682 C 153.493 -1.11775 -1.67897 0
M  V30 1683 C 153.806 0.33794 -1.92659 0
M  V30 1684 O 155.012 0.607434 -2.64618 0
M  V30 1685 C 153.468 -1.9523 -3.02346 0
M  V30 1686 C 153.076 -3.45393 -2.8532 0
M  V30 1687 C 154.82 -1.88972 -3.80118 0
M  V30 1688 C 152.727 -4.21083 -4.15263 0
M  V30 1689 H 151.657 -0.414696 -0.629717 0
M  V30 1690 H 154.308 -1.50988 -1.04283 0
M  V30 1691 H 152.69 -1.48853 -3.66959 0
M  V30 1692 H 153.864 -3.99561 -2.29537 0
M  V30 1693 H 152.179 -3.52921 -2.20988 0
M  V30 1694 H 154.776 -2.42805 -4.76392 0
M  V30 1695 H 155.119 -0.86113 -4.07296 0
M  V30 1696 H 155.652 -2.33189 -3.22285 0
M  V30 1697 H 152.391 -5.24425 -3.93267 0
M  V30 1698 H 151.911 -3.71695 -4.70747 0
M  V30 1699 H 153.59 -4.29706 -4.83696 0
M  V30 1700 N 153.722 1.14298 -1.08507 0
M  V30 1701 C 154.632 2.23027 -0.727753 0
M  V30 1702 C 155.648 1.71952 0.26619 0
M  V30 1703 O 156.824 2.011 0.109882 0
M  V30 1704 C 153.889 3.46403 -0.143541 0
M  V30 1705 C 152.95 4.12413 -1.19223 0
M  V30 1706 C 152.183 5.29899 -0.635798 0
M  V30 1707 O 152.406 5.67796 0.544393 0
M  V30 1708 O 151.34 5.85717 -1.38634 0
M  V30 1709 H 155.166 2.55945 -1.63481 0
M  V30 1710 H 152.751 1.22248 -0.858817 0
M  V30 1711 H 154.633 4.21018 0.179404 0
M  V30 1712 H 153.308 3.15206 0.736659 0
M  V30 1713 H 152.215 3.39667 -1.56772 0
M  V30 1714 H 153.548 4.47718 -2.04474 0
M  V30 1715 N 155.201 0.870884 1.31352 0
M  V30 1716 C 156.149 0.316445 2.30437 0
M  V30 1717 C 157.143 -0.568965 1.59559 0
M  V30 1718 O 158.349 -0.454964 1.74155 0
M  V30 1719 H 154.724 0.0836521 0.747333 0
M  V30 1720 H 156.695 1.16606 2.74673 0
M  V30 1721 C 155.444 -0.46635 3.44558 0
M  V30 1722 H 154.767 0.205687 3.99271 0
M  V30 1723 H 156.207 -0.819614 4.16003 0
M  V30 1724 C 154.666 -1.65797 2.9328 0
M  V30 1725 O 155.196 -2.75728 2.92125 0
M  V30 1726 N 153.402 -1.49041 2.4947 0
M  V30 1727 H 152.949 -0.59612 2.50608 0
M  V30 1728 H 152.907 -2.28911 2.15516 0
M  V30 1729 N 156.679 -1.44442 0.630414 0
M  V30 1730 C 157.611 -2.2892 -0.113347 0
M  V30 1731 C 158.624 -1.41243 -0.80959 0
M  V30 1732 O 159.813 -1.65402 -0.671156 0
M  V30 1733 C 156.913 -3.17594 -1.18266 0
M  V30 1734 C 156.086 -4.33682 -0.569073 0
M  V30 1735 C 155.145 -5.03397 -1.53226 0
M  V30 1736 O 154.171 -5.59438 -1.04967 0
M  V30 1737 N 155.373 -5.04783 -2.86661 0
M  V30 1738 H 158.138 -2.93392 0.611636 0
M  V30 1739 H 155.699 -1.54881 0.471523 0
M  V30 1740 H 157.691 -3.61097 -1.82732 0
M  V30 1741 H 156.261 -2.54876 -1.80988 0
M  V30 1742 H 155.481 -3.9338 0.254187 0
M  V30 1743 H 156.769 -5.08608 -0.139767 0
M  V30 1744 H 156.167 -4.60584 -3.28449 0
M  V30 1745 H 154.724 -5.52077 -3.46489 0
M  V30 1746 N 158.157 -0.370918 -1.53173 0
M  V30 1747 C 159.403 0.217423 -2.01631 0
M  V30 1748 C 159.736 1.47983 -1.25756 0
M  V30 1749 O 159.011 1.91274 -0.352764 0
M  V30 1750 C 159.294 0.503982 -3.56556 0
M  V30 1751 C 159.147 -0.77243 -4.43118 0
M  V30 1752 C 160.466 1.30234 -4.20389 0
M  V30 1753 H 157.585 0.0775486 -0.732909 0
M  V30 1754 H 160.227 -0.496863 -1.83388 0
M  V30 1755 H 158.377 1.11248 -3.72231 0
M  V30 1756 H 160.049 -1.4098 -4.39229 0
M  V30 1757 H 158.292 -1.39167 -4.10871 0
M  V30 1758 H 158.963 -0.526815 -5.4948 0
M  V30 1759 H 161.439 0.787546 -4.08579 0
M  V30 1760 H 160.315 1.47158 -5.28806 0
M  V30 1761 H 160.576 2.31237 -3.76805 0
M  V30 1762 N 159.635 1.57281 -0.100228 0
M  V30 1763 C 160.568 2.09976 0.893612 0
M  V30 1764 C 161.546 1.01155 1.27304 0
M  V30 1765 O 162.73 1.28687 1.37739 0
M  V30 1766 C 159.857 2.58098 2.19324 0
M  V30 1767 C 158.903 3.78626 1.96328 0
M  V30 1768 S 159.736 5.21959 1.19662 0
M  V30 1769 C 160.892 5.73435 2.50844 0
M  V30 1770 H 161.125 2.93946 0.44534 0
M  V30 1771 H 158.658 1.53985 0.113167 0
M  V30 1772 H 160.616 2.8648 2.94005 0
M  V30 1773 H 159.277 1.74344 2.61272 0
M  V30 1774 H 158.47 4.10382 2.92579 0
M  V30 1775 H 158.072 3.50763 1.29775 0
M  V30 1776 H 160.364 5.82015 3.46792 0
M  V30 1777 H 161.307 6.7185 2.23659 0
M  V30 1778 H 161.715 5.01395 2.59352 0
M  V30 1779 N 161.113 -0.173488 1.56642 0
M  V30 1780 C 162.39 -0.917617 1.7274 0
M  V30 1781 C 162.77 -2.00484 0.661027 0
M  V30 1782 O 162.118 -2.26184 -0.32453 0
M  V30 1783 C 162.328 -1.48433 3.15862 0
M  V30 1784 C 163.676 -1.95809 3.76754 0
M  V30 1785 O 164.7 -1.58231 3.19126 0
M  V30 1786 O 163.559 -2.65024 4.77938 0
M  V30 1787 H 160.653 -0.431772 0.705338 0
M  V30 1788 H 163.199 -0.161487 1.6893 0
M  V30 1789 H 161.971 -0.701715 3.84957 0
M  V30 1790 H 161.594 -2.30471 3.23989 0
M  V30 1791 N 162.591 -1.51276 -0.441967 0
M  V30 1792 C 163.838 -1.63715 -1.19179 0
M  V30 1793 C 164.166 -0.351175 -1.91303 0
M  V30 1794 O 163.421 0.664524 -1.84072 0
M  V30 1795 C 163.72 -2.78746 -2.23686 0
M  V30 1796 C 163.386 -4.18189 -1.68607 0
M  V30 1797 C 162.048 -4.56125 -1.53308 0
M  V30 1798 C 164.4 -5.05222 -1.28062 0
M  V30 1799 C 161.728 -5.78804 -0.959317 0
M  V30 1800 C 164.08 -6.28476 -0.721162 0
M  V30 1801 C 162.744 -6.65188 -0.55504 0
M  V30 1802 H 162.014 -0.599076 -0.436106 0
M  V30 1803 H 164.661 -1.85296 -0.48351 0
M  V30 1804 H 162.966 -2.51369 -3.00535 0
M  V30 1805 H 164.663 -2.8557 -2.81515 0
M  V30 1806 H 161.253 -3.88277 -1.8149 0
M  V30 1807 H 165.437 -4.76524 -1.38704 0
M  V30 1808 H 160.693 -6.05899 -0.81833 0
M  V30 1809 H 164.867 -6.95259 -0.398458 0
M  V30 1810 H 162.494 -7.60123 -0.108311 0
M  V30 1811 N 164.069 0.697108 -1.41344 0
M  V30 1812 C 165.485 1.00751 -1.2378 0
M  V30 1813 C 165.685 2.01105 -0.126066 0
M  V30 1814 O 164.741 2.47295 0.51004 0
M  V30 1815 C 166.054 1.53359 -2.58653 0
M  V30 1816 C 167.602 1.6525 -2.65822 0
M  V30 1817 C 168.077 2.2126 -4.01009 0
M  V30 1818 N 169.568 2.28622 -4.02847 0
M  V30 1819 C 170.303 2.72984 -5.04249 0
M  V30 1820 N 169.799 3.16962 -6.16041 0
M  V30 1821 N 171.592 2.72534 -4.91611 0
M  V30 1822 H 163.743 0.0322662 -2.12375 0
M  V30 1823 H 166.006 0.0768853 -0.944877 0
M  V30 1824 H 165.712 0.870773 -3.4075 0
M  V30 1825 H 165.586 2.51597 -2.81032 0
M  V30 1826 H 167.973 2.30644 -1.84086 0
M  V30 1827 H 168.054 0.655614 -2.47256 0
M  V30 1828 H 167.698 1.56482 -4.83193 0
M  V30 1829 H 167.628 3.21698 -4.16915 0
M  V30 1830 H 170.119 1.97585 -3.22131 0
M  V30 1831 H 170.432 3.49434 -6.89287 0
M  V30 1832 H 168.777 3.14875 -6.1958 0
M  V30 1833 H 171.968 2.37525 -4.0336 0
M  V30 1834 H 172.141 3.06789 -5.70775 0
M  V30 1835 N 165.547 1.27147 0.931209 0
M  V30 1836 C 166.775 1.16082 1.71267 0
M  V30 1837 C 167.19 -0.282772 1.8667 0
M  V30 1838 O 166.547 -1.19283 1.38122 0
M  V30 1839 C 166.598 1.8358 3.11417 0
M  V30 1840 O 166.319 3.22299 2.96741 0
M  V30 1841 C 167.82 1.78597 4.05732 0
M  V30 1842 H 165.04 0.403758 0.535929 0
M  V30 1843 H 167.584 1.67953 1.16671 0
M  V30 1844 H 165.739 1.35623 3.62885 0
M  V30 1845 H 166.153 3.55851 3.85319 0
M  V30 1846 H 167.627 2.30444 5.01597 0
M  V30 1847 H 168.104 0.754564 4.3267 0
M  V30 1848 H 168.71 2.26152 3.60188 0
M  V30 1849 N 167.025 -1.13721 1.09112 0
M  V30 1850 C 167.957 -2.1871 0.685467 0
M  V30 1851 C 168.97 -1.60527 -0.271068 0
M  V30 1852 O 170.159 -1.78407 -0.0576148 0
M  V30 1853 C 167.259 -3.38898 -0.0111255 0
M  V30 1854 C 166.432 -4.26597 0.966131 0
M  V30 1855 C 165.491 -5.25324 0.303539 0
M  V30 1856 O 164.517 -5.61213 0.950177 0
M  V30 1857 N 165.719 -5.72779 -0.943651 0
M  V30 1858 H 168.484 -2.54126 1.58871 0
M  V30 1859 H 166.045 -1.29012 0.978143 0
M  V30 1860 H 168.037 -4.02014 -0.465517 0
M  V30 1861 H 166.607 -3.01747 -0.816565 0
M  V30 1862 H 165.827 -3.60306 1.59917 0
M  V30 1863 H 167.115 -4.82048 1.6281 0
M  V30 1864 H 166.513 -5.45762 -1.48862 0
M  V30 1865 H 165.07 -6.37847 -1.34142 0
M  V30 1866 N 168.503 -0.877838 -1.30888 0
M  V30 1867 C 169.433 -0.35534 -2.3078 0
M  V30 1868 C 170.414 0.557994 -1.60687 0
M  V30 1869 O 171.599 0.473355 -1.88343 0
M  V30 1870 C 168.729 0.437221 -3.44537 0
M  V30 1871 C 167.683 -0.383715 -4.26276 0
M  V30 1872 C 167.009 0.535014 -5.32017 0
M  V30 1873 C 168.309 -1.62201 -4.96476 0
M  V30 1874 H 170.003 -1.19007 -2.74732 0
M  V30 1875 H 167.549 -0.573698 -1.32078 0
M  V30 1876 H 169.502 0.813334 -4.13477 0
M  V30 1877 H 168.226 1.30553 -2.99372 0
M  V30 1878 H 166.885 -0.741874 -3.59015 0
M  V30 1879 H 166.533 1.40083 -4.831 0
M  V30 1880 H 166.233 -0.0104211 -5.87599 0
M  V30 1881 H 167.757 0.907799 -6.03814 0
M  V30 1882 H 169.171 -1.31689 -5.5797 0
M  V30 1883 H 167.568 -2.10711 -5.61891 0
M  V30 1884 H 168.638 -2.37044 -4.23011 0
M  V30 1885 N 169.982 1.44106 -0.638065 0
M  V30 1886 C 171.231 2.01194 -0.142744 0
M  V30 1887 C 171.544 1.50835 1.24532 0
M  V30 1888 O 172.75 2.00096 1.83504 0
M  V30 1889 C 171.206 3.59319 -0.20442 0
M  V30 1890 C 170.814 4.18674 -1.59423 0
M  V30 1891 C 172.558 4.23854 0.234079 0
M  V30 1892 C 170.465 5.69045 -1.61065 0
M  V30 1893 H 169.395 0.752367 -0.0495998 0
M  V30 1894 H 172.046 1.65246 -0.797881 0
M  V30 1895 H 170.428 3.92598 0.517946 0
M  V30 1896 H 171.602 3.96921 -2.34074 0
M  V30 1897 H 169.917 3.66453 -1.97741 0
M  V30 1898 H 172.514 5.34155 0.241443 0
M  V30 1899 H 172.857 3.96688 1.2627 0
M  V30 1900 H 173.39 3.95403 -0.436025 0
M  V30 1901 H 170.129 6.00956 -2.61787 0
M  V30 1902 H 169.649 5.929 -0.90718 0
M  V30 1903 H 171.328 6.32809 -1.34766 0
M  V30 1904 N 171.46 0.379036 1.52974 0
M  V30 1905 C 172.876 0.0285448 1.59574 0
M  V30 1906 C 173.076 -1.45542 1.39355 0
M  V30 1907 O 172.132 -2.2187 1.20541 0
M  V30 1908 C 173.445 0.496535 2.96572 0
M  V30 1909 C 174.993 0.451909 3.0972 0
M  V30 1910 C 175.468 0.895924 4.49152 0
M  V30 1911 N 176.959 0.851522 4.55306 0
M  V30 1912 C 177.694 1.16661 5.61407 0
M  V30 1913 N 177.19 1.55166 6.752 0
M  V30 1914 N 178.983 1.08853 5.51459 0
M  V30 1915 H 171.134 1.34525 1.64367 0
M  V30 1916 H 173.397 0.550733 0.771619 0
M  V30 1917 H 173.103 1.53258 3.16552 0
M  V30 1918 H 172.977 -0.109802 3.7704 0
M  V30 1919 H 175.364 -0.575029 2.89443 0
M  V30 1920 H 175.445 1.09392 2.3123 0
M  V30 1921 H 175.089 1.92104 4.70168 0
M  V30 1922 H 175.019 0.23103 5.26093 0
M  V30 1923 H 177.51 0.568038 3.73606 0
M  V30 1924 H 177.823 1.776 7.52116 0
M  V30 1925 H 176.168 1.59044 6.76557 0
M  V30 1926 H 179.359 0.786803 4.6144 0
M  V30 1927 H 179.532 1.33742 6.34048 0
M  V30 1928 N 172.938 -1.57226 0.108567 0
M  V30 1929 C 173.868 -2.17778 -0.84232 0
M  V30 1930 C 174.849 -1.11487 -1.2847 0
M  V30 1931 O 176.034 -1.39681 -1.34918 0
M  V30 1932 C 173.164 -2.76888 -2.09644 0
M  V30 1933 C 172.118 -3.88669 -1.79221 0
M  V30 1934 C 171.444 -4.34541 -3.11574 0
M  V30 1935 C 172.744 -5.11251 -1.06864 0
M  V30 1936 H 174.438 -2.97489 -0.337774 0
M  V30 1937 H 171.984 -1.43097 -0.161025 0
M  V30 1938 H 173.937 -3.17904 -2.76614 0
M  V30 1939 H 172.661 -1.94451 -2.62405 0
M  V30 1940 H 171.32 -3.48213 -1.14644 0
M  V30 1941 H 170.968 -3.48977 -3.62249 0
M  V30 1942 H 170.668 -5.09914 -2.91996 0
M  V30 1943 H 172.192 -4.782 -3.7968 0
M  V30 1944 H 173.606 -5.49352 -1.63968 0
M  V30 1945 H 172.003 -5.9214 -0.974178 0
M  V30 1946 H 173.073 -4.8487 -0.0536168 0
M  V30 1947 N 174.416 0.165178 -1.56732 0
M  V30 1948 C 175.656 0.887231 -1.8414 0
M  V30 1949 C 176.02 1.79159 -0.690353 0
M  V30 1950 O 177.221 2.55172 -0.845032 0
M  V30 1951 C 175.492 1.65674 -3.16681 0
M  V30 1952 S 177.051 2.42671 -3.6559 0
M  V30 1953 H 173.869 0.297042 -0.645978 0
M  V30 1954 H 176.471 0.148439 -1.94936 0
M  V30 1955 H 175.175 0.983507 -3.98441 0
M  V30 1956 H 174.706 2.43679 -3.08843 0
M  V30 1957 H 176.721 3.67499 -3.33406 0
M  V30 1958 N 175.894 1.51508 0.433938 0
M  V30 1959 C 177.124 1.67914 1.20369 0
M  V30 1960 C 177.532 0.377461 1.85397 0
M  V30 1961 O 176.875 -0.654255 1.71654 0
M  V30 1962 C 176.937 2.74045 2.32679 0
M  V30 1963 C 176.601 4.16543 1.87991 0
M  V30 1964 C 177.598 5.01211 1.38145 0
M  V30 1965 C 175.283 4.6266 1.95579 0
M  V30 1966 C 177.277 6.30056 0.964774 0
M  V30 1967 C 174.964 5.91501 1.53523 0
M  V30 1968 C 175.962 6.75027 1.04055 0
M  V30 1969 O 175.65 8.01459 0.625964 0
M  V30 1970 H 175.382 0.566578 0.368735 0
M  V30 1971 H 177.936 1.98709 0.51999 0
M  V30 1972 H 176.166 2.38572 3.04336 0
M  V30 1973 H 177.855 2.79295 2.94532 0
M  V30 1974 H 178.621 4.66783 1.31675 0
M  V30 1975 H 174.5 3.97767 2.33029 0
M  V30 1976 H 178.044 6.95202 0.57796 0
M  V30 1977 H 173.941 6.25442 1.59665 0
M  V30 1978 H 174.709 8.15043 0.751509 0
M  V30 1979 N 177.372 -0.689602 1.41712 0
M  V30 1980 C 178.597 -1.48329 1.44959 0
M  V30 1981 C 179.022 -1.8801 0.0581283 0
M  V30 1982 O 178.38 -1.55026 -0.940035 0
M  V30 1983 C 178.428 -2.71835 2.36935 0
M  V30 1984 O 177.532 -3.69549 1.8305 0
M  V30 1985 H 176.873 -0.446199 0.491734 0
M  V30 1986 H 179.403 -0.847127 1.86239 0
M  V30 1987 H 179.413 -3.20076 2.53013 0
M  V30 1988 H 178.088 -2.42291 3.38035 0
M  V30 1989 H 176.665 -3.2851 1.76452 0
M  V30 1990 N 178.85 -1.27639 -0.924453 0
M  V30 1991 C 180.075 -1.17101 -1.71179 0
M  V30 1992 C 180.5 0.268134 -1.86179 0
M  V30 1993 O 179.858 1.19415 -1.36418 0
M  V30 1994 C 179.906 -1.86313 -3.08739 0
M  V30 1995 O 179.01 -1.16331 -3.95652 0
M  V30 1996 H 178.351 -0.407091 -0.524569 0
M  V30 1997 H 180.881 -1.68767 -1.15666 0
M  V30 1998 H 180.891 -1.938 -3.59034 0
M  V30 1999 H 179.566 -2.91001 -2.97138 0
M  V30 2000 H 178.143 -1.16935 -3.54091 0
M  V30 2001 N 180.328 1.1314 -1.09713 0
M  V30 2002 C 181.605 1.80762 -0.747302 0
M  V30 2003 C 181.985 1.96663 0.767265 0
M  V30 2004 O 181.333 1.53706 1.69076 0
M  V30 2005 C 181.543 3.15606 -1.48975 0
M  V30 2006 C 182.891 3.90914 -1.65746 0
M  V30 2007 O 183.915 3.25239 -1.45251 0
M  V30 2008 O 182.774 5.08718 -1.9967 0
M  V30 2009 H 179.868 0.782103 -0.268782 0
M  V30 2010 H 182.414 1.20041 -1.19951 0
M  V30 2011 H 181.186 2.99278 -2.52088 0
M  V30 2012 H 180.809 3.84029 -1.02991 0
M  V30 2013 N 181.806 0.884767 1.30421 0
M  V30 2014 C 182.756 0.322846 2.25703 0
M  V30 2015 C 183.74 -0.548582 1.51259 0
M  V30 2016 O 184.932 -0.39304 1.72581 0
M  V30 2017 C 182.061 -0.461787 3.4018 0
M  V30 2018 C 181.147 0.423717 4.21978 0
M  V30 2019 N 181.538 1.52408 4.82292 0
M  V30 2020 C 179.836 0.218795 4.45463 0
M  V30 2021 C 180.537 2.07136 5.43571 0
M  V30 2022 N 179.513 1.36635 5.26148 0
M  V30 2023 H 183.315 1.16363 2.69883 0
M  V30 2024 H 180.829 0.73415 1.44859 0
M  V30 2025 H 182.826 -0.880985 4.07485 0
M  V30 2026 H 181.486 -1.30001 2.9754 0
M  V30 2027 H 182.497 1.90693 4.81515 0
M  V30 2028 H 179.174 -0.582275 4.1342 0
M  V30 2029 H 180.564 2.99538 6.01437 0
M  V30 2030 N 183.284 -1.43765 0.645699 0
M  V30 2031 C 184.194 -2.34544 -0.0512957 0
M  V30 2032 C 185.21 -1.53455 -0.82022 0
M  V30 2033 O 186.386 -1.86133 -0.769176 0
M  V30 2034 C 183.451 -3.31636 -1.01087 0
M  V30 2035 C 182.512 -4.2863 -0.239712 0
M  V30 2036 C 181.745 -5.21084 -1.15358 0
M  V30 2037 O 181.968 -5.1779 -2.39269 0
M  V30 2038 O 180.902 -5.98593 -0.630038 0
M  V30 2039 H 184.728 -2.95624 0.695718 0
M  V30 2040 H 182.313 -1.43781 0.405882 0
M  V30 2041 H 184.195 -3.9136 -1.56254 0
M  V30 2042 H 182.87 -2.73069 -1.73824 0
M  V30 2043 H 181.777 -3.72408 0.355356 0
M  V30 2044 H 183.11 -4.90157 0.447936 0
M  V30 2045 N 184.763 -0.387143 -1.52771 0
M  V30 2046 C 185.71 0.449048 -2.26389 0
M  V30 2047 C 186.68 1.05961 -1.27912 0
M  V30 2048 O 187.865 1.08804 -1.56737 0
M  V30 2049 C 185.005 1.57155 -3.0724 0
M  V30 2050 C 184.118 0.984066 -4.20643 0
M  V30 2051 C 183.253 2.07745 -4.88892 0
M  V30 2052 C 182.292 1.46574 -5.94292 0
M  V30 2053 N 181.429 2.49834 -6.56146 0
M  V30 2054 H 186.269 -0.185205 -2.97424 0
M  V30 2055 H 183.806 -0.103164 -1.46738 0
M  V30 2056 H 185.764 2.23309 -3.52405 0
M  V30 2057 H 184.394 2.17615 -2.38419 0
M  V30 2058 H 183.446 0.212193 -3.79808 0
M  V30 2059 H 184.758 0.497029 -4.96318 0
M  V30 2060 H 183.912 2.81673 -5.3735 0
M  V30 2061 H 182.651 2.59807 -4.12737 0
M  V30 2062 H 181.656 0.711696 -5.45174 0
M  V30 2063 H 182.881 0.953088 -6.72379 0
M  V30 2064 H 180.827 3.0107 -5.82832 0
M  V30 2065 H 180.744 2.05879 -7.27427 0
M  V30 2066 H 182.012 3.23399 -7.09249 0
M  V30 2067 N 186.241 1.57166 -0.116904 0
M  V30 2068 C 187.171 2.18222 0.830759 0
M  V30 2069 C 188.152 1.12167 1.27877 0
M  V30 2070 O 189.337 1.40394 1.34176 0
M  V30 2071 C 186.467 2.77996 2.08172 0
M  V30 2072 C 185.421 3.89614 1.77157 0
M  V30 2073 C 184.747 4.36187 3.09265 0
M  V30 2074 C 186.047 5.1181 1.04151 0
M  V30 2075 H 187.741 2.97664 0.321992 0
M  V30 2076 H 185.287 1.4318 0.153434 0
M  V30 2077 H 187.24 3.19366 2.74924 0
M  V30 2078 H 185.964 1.9584 2.6137 0
M  V30 2079 H 184.623 3.48816 1.12796 0
M  V30 2080 H 184.271 3.50893 3.60393 0
M  V30 2081 H 183.971 5.11455 2.89288 0
M  V30 2082 H 185.495 4.80207 3.77139 0
M  V30 2083 H 186.909 5.50214 1.61052 0
M  V30 2084 H 185.306 5.92648 0.942762 0
M  V30 2085 H 186.376 4.84892 0.0279022 0
M  V30 2086 N 187.719 -0.156864 1.56817 0
M  V30 2087 C 188.666 -1.19394 1.97519 0
M  V30 2088 C 189.636 -1.4322 0.841265 0
M  V30 2089 O 190.821 -1.55719 1.10255 0
M  V30 2090 C 187.961 -2.52483 2.35258 0
M  V30 2091 C 187.074 -2.35914 3.61896 0
M  V30 2092 C 186.209 -3.61969 3.88782 0
M  V30 2093 C 185.248 -3.40395 5.08722 0
M  V30 2094 N 184.385 -4.58556 5.31668 0
M  V30 2095 H 189.225 -0.839845 2.85921 0
M  V30 2096 H 186.762 -0.403264 1.41464 0
M  V30 2097 H 188.72 -3.30071 2.55165 0
M  V30 2098 H 187.35 -2.85859 1.49949 0
M  V30 2099 H 186.402 -1.49429 3.49821 0
M  V30 2100 H 187.714 -2.15926 4.49641 0
M  V30 2101 H 186.868 -4.47989 4.09135 0
M  V30 2102 H 185.607 -3.84951 2.9944 0
M  V30 2103 H 184.612 -2.52763 4.88253 0
M  V30 2104 H 185.837 -3.18822 5.99608 0
M  V30 2105 H 183.783 -4.81729 4.45279 0
M  V30 2106 H 183.7 -4.41535 6.13664 0
M  V30 2107 H 184.968 -5.45817 5.5651 0
M  V30 2108 N 189.197 -1.51736 -0.425897 0
M  V30 2109 C 190.608 -1.5732 -1.00536 0
M  V30 2110 C 190.959 -0.403537 -1.92005 0
M  V30 2111 O 190.084 0.478256 -2.11049 0
M  V30 2112 C 190.679 -2.85119 -1.8301 0
M  V30 2113 C 189.238 -2.93236 -2.35987 0
M  V30 2114 C 188.385 -2.52098 -1.15508 0
M  V30 2115 H 191.336 -1.57348 -0.206739 0
M  V30 2116 H 191.357 -2.69526 -2.68581 0
M  V30 2117 H 190.869 -3.7023 -1.16411 0
M  V30 2118 H 188.97 -2.12581 -3.06007 0
M  V30 2119 H 189.083 -3.9713 -2.68001 0
M  V30 2120 H 187.447 -2.05558 -1.50393 0
M  V30 2121 H 188.23 -3.39565 -0.505014 0
M  V30 2122 N 190.675 0.682077 -1.42076 0
M  V30 2123 C 191.607 1.80755 -1.40926 0
M  V30 2124 C 192.62 1.59833 -0.309398 0
M  V30 2125 O 193.809 1.69087 -0.572014 0
M  V30 2126 C 190.909 3.17744 -1.17865 0
M  V30 2127 C 190.082 3.65578 -2.40149 0
M  V30 2128 C 189.141 4.81277 -2.12742 0
M  V30 2129 O 188.167 4.92197 -2.85887 0
M  V30 2130 N 189.369 5.69474 -1.12602 0
M  V30 2131 H 192.134 1.82229 -2.37935 0
M  V30 2132 H 189.695 0.864903 -1.36861 0
M  V30 2133 H 191.687 3.9279 -0.9746 0
M  V30 2134 H 190.257 3.11214 -0.294068 0
M  V30 2135 H 189.477 2.81291 -2.76169 0
M  V30 2136 H 190.765 3.94278 -3.21593 0
M  V30 2137 H 190.163 5.63297 -0.520899 0
M  V30 2138 H 188.72 6.44363 -0.981842 0
M  V30 2139 N 192.153 1.28127 0.917671 0
M  V30 2140 C 193.383 1.17722 1.6978 0
M  V30 2141 C 193.791 -0.267261 1.87303 0
M  V30 2142 O 193.134 -1.19286 1.39702 0
M  V30 2143 C 193.196 1.79958 3.11216 0
M  V30 2144 C 192.86 3.29187 3.16993 0
M  V30 2145 C 193.857 4.25679 2.98485 0
M  V30 2146 C 191.542 3.70075 3.39632 0
M  V30 2147 C 193.536 5.61035 3.02521 0
M  V30 2148 C 191.223 5.05557 3.433 0
M  V30 2149 C 192.221 6.00847 3.24764 0
M  V30 2150 O 191.909 7.33859 3.28187 0
M  V30 2151 H 191.641 0.409788 0.537634 0
M  V30 2152 H 194.195 1.69694 1.15728 0
M  V30 2153 H 192.425 1.22475 3.66793 0
M  V30 2154 H 194.114 1.64125 3.71238 0
M  V30 2155 H 194.88 3.95426 2.80826 0
M  V30 2156 H 190.759 2.96373 3.53106 0
M  V30 2157 H 194.303 6.35388 2.87971 0
M  V30 2158 H 190.2 5.35462 3.60486 0
M  V30 2159 H 190.968 7.42436 3.44575 0
M  V30 2160 N 193.631 -1.12557 1.10312 0
M  V30 2161 C 194.561 -2.20341 0.772798 0
M  V30 2162 C 195.542 -1.68198 -0.25365 0
M  V30 2163 O 196.727 -1.93831 -0.119699 0
M  V30 2164 C 193.857 -3.46709 0.202443 0
M  V30 2165 C 192.811 -4.11996 1.15943 0
M  V30 2166 C 192.137 -5.328 0.450345 0
M  V30 2167 C 193.437 -4.5828 2.50552 0
M  V30 2168 H 195.131 -2.48229 1.674 0
M  V30 2169 H 192.677 -1.19308 0.806326 0
M  V30 2170 H 194.63 -4.2138 -0.0407752 0
M  V30 2171 H 193.354 -3.18245 -0.734001 0
M  V30 2172 H 192.013 -3.39305 1.38808 0
M  V30 2173 H 191.661 -5.00602 -0.490531 0
M  V30 2174 H 191.361 -5.7743 1.08851 0
M  V30 2175 H 192.885 -6.10219 0.215642 0
M  V30 2176 H 194.299 -5.2433 2.31843 0
M  V30 2177 H 192.696 -5.13683 3.10242 0
M  V30 2178 H 193.766 -3.72329 3.10643 0
M  V30 2179 N 195.109 -0.891671 -1.2995 0
M  V30 2180 C 196.019 -0.367691 -2.31701 0
M  V30 2181 C 197.035 0.533486 -1.6562 0
M  V30 2182 O 198.211 0.424997 -1.96865 0
M  V30 2183 C 195.276 0.403406 -3.44345 0
M  V30 2184 C 194.337 -0.528328 -4.26037 0
M  V30 2185 C 193.57 0.206063 -5.33302 0
M  V30 2186 O 193.793 1.43119 -5.52153 0
M  V30 2187 O 192.727 -0.447281 -6.00236 0
M  V30 2188 H 196.553 -1.21163 -2.78484 0
M  V30 2189 H 194.138 -0.655725 -1.34241 0
M  V30 2190 H 196.02 0.839753 -4.12948 0
M  V30 2191 H 194.695 1.22354 -2.99685 0
M  V30 2192 H 193.602 -1.01362 -3.60106 0
M  V30 2193 H 194.935 -1.31465 -4.74318 0
M  V30 2194 N 196.587 1.43421 -0.653314 0
M  V30 2195 C 197.497 2.34568 0.0388565 0
M  V30 2196 C 198.513 1.53888 0.81207 0
M  V30 2197 O 199.689 1.86539 0.759294 0
M  V30 2198 C 196.754 3.32167 0.993269 0
M  V30 2199 C 195.815 4.28751 0.216977 0
M  V30 2200 C 195.048 5.21688 1.12593 0
M  V30 2201 O 195.271 5.19052 2.36519 0
M  V30 2202 O 194.205 5.98919 0.598284 0
M  V30 2203 H 198.031 2.95251 -0.711386 0
M  V30 2204 H 195.616 1.43564 -0.413502 0
M  V30 2205 H 197.498 3.92183 1.54176 0
M  V30 2206 H 196.173 2.73987 1.72374 0
M  V30 2207 H 195.08 3.72215 -0.375101 0
M  V30 2208 H 196.413 4.89913 -0.473924 0
M  V30 2209 N 198.065 0.39524 1.52563 0
M  V30 2210 C 198.995 -0.428384 2.29537 0
M  V30 2211 C 199.976 -1.05831 1.33169 0
M  V30 2212 O 201.161 -1.06995 1.62067 0
M  V30 2213 C 198.291 -1.55274 3.10656 0
M  V30 2214 C 197.245 -1.04855 4.14957 0
M  V30 2215 C 196.571 -2.26543 4.84337 0
M  V30 2216 C 197.871 -0.112324 5.22179 0
M  V30 2217 H 199.565 0.213867 2.98635 0
M  V30 2218 H 197.111 0.104298 1.43622 0
M  V30 2219 H 199.064 -2.1358 3.63265 0
M  V30 2220 H 197.788 -2.22266 2.39302 0
M  V30 2221 H 196.447 -0.487985 3.63338 0
M  V30 2222 H 196.095 -2.92059 4.09525 0
M  V30 2223 H 195.795 -1.93466 5.54837 0
M  V30 2224 H 197.319 -2.85481 5.39753 0
M  V30 2225 H 198.733 -0.603752 5.70112 0
M  V30 2226 H 197.13 0.128968 5.99961 0
M  V30 2227 H 198.2 0.837052 4.77621 0
M  V30 2228 N 199.544 -1.57102 0.125237 0
M  V30 2229 C 200.955 -1.82384 -0.399142 0
M  V30 2230 C 201.306 -1.04276 -1.66195 0
M  V30 2231 O 200.431 -0.281269 -2.14564 0
M  V30 2232 C 201.026 -3.30821 -0.730932 0
M  V30 2233 C 199.585 -3.56762 -1.19992 0
M  V30 2234 C 198.732 -2.7649 -0.211792 0
M  V30 2235 H 201.683 -1.54786 0.350277 0
M  V30 2236 H 201.704 -3.4579 -1.58775 0
M  V30 2237 H 201.216 -3.87643 0.188345 0
M  V30 2238 H 199.317 -3.05305 -2.13588 0
M  V30 2239 H 199.43 -4.65317 -1.14093 0
M  V30 2240 H 197.794 -2.4489 -0.700085 0
M  V30 2241 H 198.577 -3.36073 0.700691 0
M  V30 2242 N 201.022 0.148545 -1.56898 0
M  V30 2243 C 202.27 0.859717 -1.82902 0
M  V30 2244 C 202.591 1.81775 -0.70588 0
M  V30 2245 O 201.861 1.93994 0.272586 0
M  V30 2246 H 200.441 0.320469 -0.674766 0
M  V30 2247 H 203.103 0.142918 -1.94375 0
M  V30 2248 H 202.199 1.4229 -2.77777 0
M  V30 2249 N 202.5 1.5196 0.417844 0
M  V30 2250 C 203.432 1.70895 1.52733 0
M  V30 2251 C 204.445 0.589405 1.51756 0
M  V30 2252 O 205.634 0.864312 1.56179 0
M  V30 2253 C 202.734 1.72627 2.91639 0
M  V30 2254 C 201.907 3.01479 3.16905 0
M  V30 2255 C 200.966 2.95139 4.35637 0
M  V30 2256 O 199.992 3.69059 4.3334 0
M  V30 2257 N 201.194 2.12328 5.40275 0
M  V30 2258 H 203.959 2.66612 1.36888 0
M  V30 2259 H 201.52 1.50089 0.607037 0
M  V30 2260 H 203.512 1.65928 3.6912 0
M  V30 2261 H 202.082 0.844216 3.00985 0
M  V30 2262 H 201.302 3.21895 2.27546 0
M  V30 2263 H 202.59 3.86736 3.30625 0
M  V30 2264 H 201.988 1.51685 5.44985 0
M  V30 2265 H 200.545 2.11494 6.16534 0
M  V30 2266 N 203.978 -0.674533 1.42435 0
M  V30 2267 C 204.908 -1.80009 1.48724 0
M  V30 2268 C 205.889 -1.6659 0.343793 0
M  V30 2269 O 207.074 -1.86007 0.558137 0
M  V30 2270 C 204.204 -3.18306 1.38919 0
M  V30 2271 C 203.158 -3.46461 2.51294 0
M  V30 2272 C 202.484 -4.84335 2.26547 0
M  V30 2273 C 203.784 -3.43328 3.93603 0
M  V30 2274 H 205.478 -1.75004 2.42928 0
M  V30 2275 H 203.024 -0.840533 1.16923 0
M  V30 2276 H 204.977 -3.9678 1.41927 0
M  V30 2277 H 203.701 -3.2399 0.412094 0
M  V30 2278 H 202.36 -2.70348 2.47604 0
M  V30 2279 H 202.008 -4.86669 1.2713 0
M  V30 2280 H 201.708 -5.04136 3.01861 0
M  V30 2281 H 203.232 -5.65094 2.31304 0
M  V30 2282 H 204.646 -4.11772 3.98894 0
M  V30 2283 H 203.043 -3.74664 4.68771 0
M  V30 2284 H 204.113 -2.41897 4.20255 0
M  V30 2285 N 205.456 -1.28612 -0.910864 0
M  V30 2286 C 206.403 -1.12786 -2.01365 0
M  V30 2287 C 207.373 -0.024201 -1.66082 0
M  V30 2288 O 208.558 -0.189667 -1.89855 0
M  V30 2289 C 205.698 -0.798743 -3.35729 0
M  V30 2290 C 204.811 -1.98173 -3.83864 0
M  V30 2291 C 203.946 -1.59298 -5.06752 0
M  V30 2292 C 202.985 -2.74245 -5.47226 0
M  V30 2293 N 202.122 -2.35842 -6.61304 0
M  V30 2294 H 206.962 -2.07142 -2.14234 0
M  V30 2295 H 204.499 -1.03093 -1.0493 0
M  V30 2296 H 206.457 -0.588662 -4.13026 0
M  V30 2297 H 205.087 0.10789 -3.2262 0
M  V30 2298 H 204.139 -2.30386 -3.02699 0
M  V30 2299 H 205.451 -2.84343 -4.09818 0
M  V30 2300 H 204.605 -1.34513 -5.916 0
M  V30 2301 H 203.344 -0.702618 -4.82612 0
M  V30 2302 H 202.349 -2.99725 -4.60918 0
M  V30 2303 H 203.574 -3.63928 -5.73353 0
M  V30 2304 H 201.52 -1.49279 -6.38789 0
M  V30 2305 H 201.437 -3.15546 -6.86998 0
M  V30 2306 H 202.705 -2.14348 -7.4945 0
M  V30 2307 N 206.934 1.1197 -1.10907 0
M  V30 2308 C 207.866 2.17592 -0.720175 0
M  V30 2309 C 208.879 1.60938 0.245495 0
M  V30 2310 O 210.068 1.78476 0.0292245 0
M  V30 2311 C 207.168 3.38873 -0.0427917 0
M  V30 2312 C 206.341 4.25006 -1.03388 0
M  V30 2313 C 205.4 5.24774 -0.387075 0
M  V30 2314 O 204.426 5.59631 -1.03934 0
M  V30 2315 N 205.628 5.74208 0.852407 0
M  V30 2316 H 208.393 2.51567 -1.62893 0
M  V30 2317 H 205.954 1.27439 -0.998543 0
M  V30 2318 H 207.946 4.02703 0.401501 0
M  V30 2319 H 206.516 3.03007 0.768456 0
M  V30 2320 H 205.736 3.57716 -1.65629 0
M  V30 2321 H 207.024 4.79397 -1.70458 0
M  V30 2322 H 206.422 5.48062 1.40161 0
M  V30 2323 H 204.979 6.39901 1.23977 0
M  V30 2324 N 208.412 0.89855 1.29475 0
M  V30 2325 C 209.659 0.523882 1.95606 0
M  V30 2326 C 209.987 -0.929608 1.70847 0
M  V30 2327 O 209.242 -1.67401 1.01367 0
M  V30 2328 C 209.541 0.761398 3.49195 0
M  V30 2329 C 209.207 2.19207 3.94029 0
M  V30 2330 C 207.869 2.58326 4.05982 0
M  V30 2331 C 210.221 3.12379 4.17216 0
M  V30 2332 C 207.549 3.898 4.38489 0
M  V30 2333 C 209.901 4.43401 4.51197 0
M  V30 2334 C 208.565 4.82394 4.61359 0
M  V30 2335 H 207.835 0.191702 0.715773 0
M  V30 2336 H 210.482 1.13699 1.54094 0
M  V30 2337 H 208.787 0.0653622 3.91745 0
M  V30 2338 H 210.484 0.450904 3.98457 0
M  V30 2339 H 207.074 1.87846 3.85242 0
M  V30 2340 H 211.258 2.83371 4.07449 0
M  V30 2341 H 206.514 4.19734 4.44559 0
M  V30 2342 H 210.688 5.15623 4.68087 0
M  V30 2343 H 208.315 5.84306 4.86303 0
M  V30 2344 N 209.89 -1.43072 0.660911 0
M  V30 2345 C 211.115 -2.06584 0.183805 0
M  V30 2346 C 211.54 -1.49257 -1.14472 0
M  V30 2347 O 210.898 -0.605528 -1.70889 0
M  V30 2348 C 210.946 -3.60418 0.114434 0
M  V30 2349 O 210.05 -4.01981 -0.921137 0
M  V30 2350 H 209.391 -0.656669 0.0983994 0
M  V30 2351 H 211.921 -1.83447 0.906006 0
M  V30 2352 H 211.931 -4.07946 -0.0663394 0
M  V30 2353 H 210.606 -4.01519 1.08422 0
M  V30 2354 H 209.183 -3.66029 -0.71253 0
M  V30 2355 N 211.368 -0.403325 -1.52352 0
M  V30 2356 C 212.301 0.469463 -2.23319 0
M  V30 2357 C 213.279 1.05272 -1.23922 0
M  V30 2358 O 214.463 1.10169 -1.52954 0
M  V30 2359 C 211.59 1.6511 -2.9573 0
M  V30 2360 C 210.636 1.19178 -4.0951 0
M  V30 2361 S 211.469 0.161718 -5.35256 0
M  V30 2362 C 212.625 1.34882 -6.11194 0
M  V30 2363 H 212.858 -0.133134 -2.97002 0
M  V30 2364 H 210.391 -0.187588 -1.53256 0
M  V30 2365 H 212.349 2.3287 -3.38056 0
M  V30 2366 H 211.01 2.22503 -2.21701 0
M  V30 2367 H 210.203 2.07444 -4.59329 0
M  V30 2368 H 209.805 0.592911 -3.6927 0
M  V30 2369 H 212.097 2.27345 -6.38217 0
M  V30 2370 H 213.04 0.89128 -7.02468 0
M  V30 2371 H 213.448 1.57198 -5.42171 0
M  V30 2372 N 212.846 1.57033 -0.133567 0
M  V30 2373 C 214.093 1.95686 0.520877 0
M  V30 2374 C 214.421 1.0177 1.6575 0
M  V30 2375 O 213.676 0.0443195 1.9565 0
M  V30 2376 C 213.975 3.40674 1.08057 0
M  V30 2377 C 213.641 4.50855 0.0637899 0
M  V30 2378 C 212.303 4.80716 -0.215757 0
M  V30 2379 C 214.655 5.17398 -0.62835 0
M  V30 2380 C 211.983 5.74433 -1.19348 0
M  V30 2381 C 214.335 6.12167 -1.5948 0
M  V30 2382 C 212.999 6.40414 -1.88218 0
M  V30 2383 H 212.269 0.716067 0.190602 0
M  V30 2384 H 214.916 1.9026 -0.217556 0
M  V30 2385 H 213.221 3.42865 1.89606 0
M  V30 2386 H 214.918 3.67902 1.59529 0
M  V30 2387 H 211.508 4.27605 0.291855 0
M  V30 2388 H 215.692 4.94472 -0.425562 0
M  V30 2389 H 210.948 5.94616 -1.42272 0
M  V30 2390 H 215.122 6.6281 -2.13671 0
M  V30 2391 H 212.749 7.12838 -2.64133 0
M  V30 2392 N 214.325 -0.140222 1.56975 0
M  V30 2393 C 215.255 -1.17456 2.01808 0
M  V30 2394 C 216.236 -1.44415 0.898794 0
M  V30 2395 O 217.421 -1.5522 1.16707 0
M  V30 2396 C 214.551 -2.50607 2.40444 0
M  V30 2397 C 213.505 -2.38155 3.55621 0
M  V30 2398 C 212.831 -3.76078 3.80091 0
M  V30 2399 C 214.131 -1.85991 4.88062 0
M  V30 2400 H 215.825 -0.801743 2.88466 0
M  V30 2401 H 213.371 -0.38422 1.38779 0
M  V30 2402 H 215.324 -3.23197 2.7041 0
M  V30 2403 H 214.048 -2.89737 1.50732 0
M  V30 2404 H 212.707 -1.68016 3.25832 0
M  V30 2405 H 212.355 -4.12656 2.87618 0
M  V30 2406 H 212.055 -3.68606 4.57606 0
M  V30 2407 H 213.579 -4.50206 4.12488 0
M  V30 2408 H 214.993 -2.4838 5.16701 0
M  V30 2409 H 213.39 -1.89393 5.6943 0
M  V30 2410 H 214.46 -0.816023 4.77984 0
M  V30 2411 N 215.803 -1.52179 -0.40978 0
M  V30 2412 C 217.051 -1.65878 -1.15451 0
M  V30 2413 C 217.372 -0.390771 -1.91044 0
M  V30 2414 O 216.642 0.594323 -1.86667 0
M  V30 2415 H 215.222 -0.611405 -0.429177 0
M  V30 2416 H 217.884 -1.89219 -0.467134 0
M  V30 2417 H 216.98 -2.49954 -1.86894 0
M  V30 2418 N 217.281 0.66697 -1.42791 0
M  V30 2419 C 218.228 1.7803 -1.4688 0
M  V30 2420 C 219.198 1.6299 -0.319919 0
M  V30 2421 O 220.383 1.83432 -0.525118 0
M  V30 2422 C 217.523 3.1611 -1.38451 0
M  V30 2423 C 216.636 3.42381 -2.63437 0
M  V30 2424 C 215.771 4.70232 -2.47094 0
M  V30 2425 C 214.81 4.89564 -3.67415 0
M  V30 2426 N 213.947 6.08661 -3.49966 0
M  V30 2427 H 218.787 1.7387 -2.42019 0
M  V30 2428 H 216.324 0.84868 -1.20149 0
M  V30 2429 H 218.282 3.95914 -1.31561 0
M  V30 2430 H 216.912 3.19374 -0.469033 0
M  V30 2431 H 215.964 2.56774 -2.80662 0
M  V30 2432 H 217.276 3.52557 -3.52853 0
M  V30 2433 H 216.43 5.5814 -2.37834 0
M  V30 2434 H 215.169 4.62353 -1.5518 0
M  V30 2435 H 214.174 4.00096 -3.77099 0
M  V30 2436 H 215.399 4.99282 -4.6032 0
M  V30 2437 H 213.345 6.0194 -2.60776 0
M  V30 2438 H 213.262 6.19733 -4.32975 0
M  V30 2439 H 214.53 6.99226 -3.44532 0
M  V30 2440 N 218.759 1.29093 0.90403 0
M  V30 2441 C 220.006 1.16813 1.65411 0
M  V30 2442 C 220.334 -0.28128 1.92455 0
M  V30 2443 O 219.589 -1.22006 1.53013 0
M  V30 2444 C 219.888 1.92224 3.01305 0
M  V30 2445 C 219.554 3.41968 2.93885 0
M  V30 2446 C 218.216 3.82807 2.91569 0
M  V30 2447 C 220.568 4.37409 2.83413 0
M  V30 2448 C 217.896 5.1741 2.76594 0
M  V30 2449 C 220.248 5.72097 2.69977 0
M  V30 2450 C 218.912 6.12199 2.66024 0
M  V30 2451 H 218.182 0.42745 0.605283 0
M  V30 2452 H 220.829 1.59981 1.05254 0
M  V30 2453 H 219.134 1.41635 3.65304 0
M  V30 2454 H 220.831 1.80131 3.58265 0
M  V30 2455 H 217.421 3.09504 2.96488 0
M  V30 2456 H 221.605 4.06813 2.84283 0
M  V30 2457 H 216.861 5.47596 2.71935 0
M  V30 2458 H 221.035 6.45704 2.60844 0
M  V30 2459 H 218.662 7.16448 2.54178 0
M  V30 2460 N 220.237 -1.11381 1.11499 0
M  V30 2461 C 221.462 -1.87475 0.887019 0
M  V30 2462 C 221.887 -1.79639 -0.557796 0
M  V30 2463 O 221.245 -1.15924 -1.39396 0
M  V30 2464 C 221.293 -3.34213 1.35403 0
M  V30 2465 O 220.397 -4.0903 0.526146 0
M  V30 2466 H 219.738 -0.582099 0.319463 0
M  V30 2467 H 222.268 -1.40785 1.48461 0
M  V30 2468 H 222.278 -3.8506 1.34881 0
M  V30 2469 H 220.953 -3.39232 2.40612 0
M  V30 2470 H 219.53 -3.68082 0.597522 0
M  V30 2471 N 221.715 -0.905404 -1.28997 0
M  V30 2472 C 222.961 -0.544465 -1.95977 0
M  V30 2473 C 223.316 0.90041 -1.70031 0
M  V30 2474 O 222.609 1.63064 -1.00601 0
M  V30 2475 C 222.803 -0.779906 -3.48787 0
M  V30 2476 C 222.632 -2.24612 -3.89589 0
M  V30 2477 C 221.402 -2.89464 -4.14172 0
M  V30 2478 C 223.6 -3.22182 -4.00878 0
M  V30 2479 N 221.582 -4.26469 -4.41585 0
M  V30 2480 C 222.953 -4.44323 -4.32409 0
M  V30 2481 C 225.008 -3.17694 -3.83373 0
M  V30 2482 C 223.711 -5.62546 -4.48258 0
M  V30 2483 C 225.737 -4.35208 -4.00435 0
M  V30 2484 C 225.099 -5.56121 -4.3233 0
M  V30 2485 H 221.198 -0.248948 -0.741316 0
M  V30 2486 H 223.782 -1.1674 -1.5582 0
M  V30 2487 H 221.953 -0.186308 -3.87953 0
M  V30 2488 H 223.685 -0.383833 -4.02876 0
M  V30 2489 H 220.44 -2.40232 -4.08149 0
M  V30 2490 H 220.864 -4.97283 -4.5939 0
M  V30 2491 H 225.506 -2.25297 -3.57773 0
M  V30 2492 H 223.224 -6.55429 -4.72692 0
M  V30 2493 H 226.81 -4.33228 -3.88336 0
M  V30 2494 H 225.69 -6.45537 -4.45255 0
M  V30 2495 N 223.193 1.4272 -0.668489 0
M  V30 2496 C 224.44 2.01624 -0.18814 0
M  V30 2497 C 224.768 1.5282 1.20317 0
M  V30 2498 O 224.023 0.718323 1.8204 0
M  V30 2499 C 224.322 3.57021 -0.164499 0
M  V30 2500 C 223.988 4.25232 -1.49962 0
M  V30 2501 C 222.65 4.4358 -1.8652 0
M  V30 2502 C 225.002 4.63727 -2.37921 0
M  V30 2503 C 222.33 4.97694 -3.10674 0
M  V30 2504 C 224.682 5.19218 -3.6138 0
M  V30 2505 C 223.346 5.3578 -3.98115 0
M  V30 2506 H 222.616 0.737795 -0.0688454 0
M  V30 2507 H 225.263 1.70991 -0.862225 0
M  V30 2508 H 223.568 3.87285 0.593079 0
M  V30 2509 H 225.265 4.00372 0.224271 0
M  V30 2510 H 221.855 4.11306 -1.20522 0
M  V30 2511 H 226.039 4.4923 -2.10964 0
M  V30 2512 H 221.295 5.08702 -3.39164 0
M  V30 2513 H 225.469 5.4799 -4.29743 0
M  V30 2514 H 223.096 5.77475 -4.94395 0
M  V30 2515 N 224.671 0.411399 1.52136 0
M  V30 2516 C 225.634 -0.401089 2.25663 0
M  V30 2517 C 226.634 -0.971732 1.28117 0
M  V30 2518 O 227.824 -0.850254 1.52041 0
M  V30 2519 C 224.956 -1.56483 3.02863 0
M  V30 2520 H 226.149 0.24295 2.98914 0
M  V30 2521 H 223.702 0.163968 1.55438 0
M  V30 2522 H 224.437 -2.24567 2.33967 0
M  V30 2523 H 224.222 -1.16211 3.74483 0
M  V30 2524 H 225.712 -2.13951 3.58629 0
M  V30 2525 N 226.149 -1.5696 0.141893 0
M  V30 2526 C 227.397 -1.95573 -0.509484 0
M  V30 2527 C 227.718 -1.02746 -1.65736 0
M  V30 2528 O 226.988 -0.0880311 -1.95702 0
M  V30 2529 H 225.568 -0.722115 -0.191205 0
M  V30 2530 H 228.23 -1.93697 0.216196 0
M  V30 2531 H 227.326 -2.99171 -0.889 0
M  V30 2532 N 227.627 0.131896 -1.57047 0
M  V30 2533 C 228.537 1.1815 -2.02676 0
M  V30 2534 C 229.553 1.46113 -0.944824 0
M  V30 2535 O 230.729 1.57485 -1.25541 0
M  V30 2536 C 227.794 2.49139 -2.41103 0
M  V30 2537 C 226.855 2.28688 -3.63318 0
M  V30 2538 C 226.088 3.53431 -3.99903 0
M  V30 2539 O 226.311 4.60223 -3.36973 0
M  V30 2540 O 225.245 3.45198 -4.93074 0
M  V30 2541 H 229.071 0.824069 -2.92306 0
M  V30 2542 H 226.656 0.341745 -1.45439 0
M  V30 2543 H 228.538 3.26338 -2.66611 0
M  V30 2544 H 227.213 2.84382 -1.54624 0
M  V30 2545 H 226.12 1.4939 -3.42977 0
M  V30 2546 H 227.453 1.98355 -4.50462 0
M  V30 2547 N 229.106 1.52395 0.401703 0
M  V30 2548 C 230.053 1.76268 1.48991 0
M  V30 2549 C 231.023 0.605386 1.54675 0
M  V30 2550 O 232.208 0.843742 1.7113 0
M  V30 2551 C 229.348 1.92592 2.86361 0
M  V30 2552 C 228.461 3.20259 2.89928 0
M  V30 2553 C 227.596 3.26972 4.18644 0
M  V30 2554 C 226.635 4.48812 4.16214 0
M  V30 2555 N 225.772 4.52877 5.36514 0
M  V30 2556 H 230.612 2.6914 1.27935 0
M  V30 2557 H 228.149 1.33355 0.620871 0
M  V30 2558 H 230.107 2.0004 3.66115 0
M  V30 2559 H 228.737 1.03093 3.05895 0
M  V30 2560 H 227.789 3.21945 2.02621 0
M  V30 2561 H 229.101 4.10056 2.83999 0
M  V30 2562 H 228.255 3.33533 5.06794 0
M  V30 2563 H 226.994 2.35126 4.27278 0
M  V30 2564 H 225.999 4.4239 3.26453 0
M  V30 2565 H 227.224 5.41961 4.09213 0
M  V30 2566 H 225.17 3.63917 5.45802 0
M  V30 2567 H 225.087 5.36529 5.32609 0
M  V30 2568 H 226.355 4.63676 6.26597 0
M  V30 2569 N 230.584 -0.659388 1.43143 0
M  V30 2570 C 231.514 -1.78422 1.50625 0
M  V30 2571 C 232.495 -1.66216 0.361443 0
M  V30 2572 O 233.68 -1.85404 0.577834 0
M  V30 2573 C 230.81 -3.16815 1.42287 0
M  V30 2574 C 229.764 -3.43777 2.54954 0
M  V30 2575 C 229.09 -4.81905 2.31671 0
M  V30 2576 C 230.39 -3.39134 3.97222 0
M  V30 2577 H 232.084 -1.72417 2.44771 0
M  V30 2578 H 229.63 -0.828084 1.17808 0
M  V30 2579 H 231.583 -3.95253 1.46127 0
M  V30 2580 H 230.307 -3.23534 0.446435 0
M  V30 2581 H 228.966 -2.67707 2.50457 0
M  V30 2582 H 228.614 -4.85294 1.32284 0
M  V30 2583 H 228.314 -5.00906 3.07192 0
M  V30 2584 H 229.838 -5.62609 2.37284 0
M  V30 2585 H 231.252 -4.07518 4.03239 0
M  V30 2586 H 229.649 -3.69671 4.72719 0
M  V30 2587 H 230.719 -2.37426 4.22797 0
M  V30 2588 N 232.062 -1.29571 -0.897171 0
M  V30 2589 C 233.29 -1.20583 -1.68129 0
M  V30 2590 C 233.705 0.233181 -1.87354 0
M  V30 2591 O 233.062 1.15579 -1.41236 0
M  V30 2592 C 233.113 -1.91772 -3.06441 0
M  V30 2593 O 232.834 -3.30053 -2.88091 0
M  V30 2594 C 234.335 -1.89291 -4.00854 0
M  V30 2595 H 231.555 -0.417826 -0.525036 0
M  V30 2596 H 234.099 -1.70987 -1.12177 0
M  V30 2597 H 232.254 -1.45196 -3.59161 0
M  V30 2598 H 232.668 -3.65942 -3.75748 0
M  V30 2599 H 234.142 -2.43662 -4.95311 0
M  V30 2600 H 234.619 -0.869014 -4.30517 0
M  V30 2601 H 235.225 -2.35622 -3.54066 0
M  V30 2602 N 233.54 1.10788 -1.12088 0
M  V30 2603 C 234.787 1.82671 -0.873931 0
M  V30 2604 C 235.115 1.85004 0.600311 0
M  V30 2605 O 234.37 1.30365 1.45957 0
M  V30 2606 C 234.669 3.29294 -1.38926 0
M  V30 2607 C 234.335 3.47113 -2.87791 0
M  V30 2608 C 232.997 3.51684 -3.28439 0
M  V30 2609 C 235.349 3.52808 -3.83635 0
M  V30 2610 C 232.677 3.59513 -4.63646 0
M  V30 2611 C 235.029 3.62169 -5.18668 0
M  V30 2612 C 233.693 3.65003 -5.58864 0
M  V30 2613 H 232.963 0.668441 -0.319794 0
M  V30 2614 H 235.61 1.30613 -1.40045 0
M  V30 2615 H 233.915 3.83894 -0.783122 0
M  V30 2616 H 235.612 3.83416 -1.17443 0
M  V30 2617 H 232.202 3.4423 -2.5535 0
M  V30 2618 H 236.386 3.4853 -3.53328 0
M  V30 2619 H 231.642 3.59987 -4.94185 0
M  V30 2620 H 235.816 3.6552 -5.92763 0
M  V30 2621 H 233.443 3.70822 -6.63623 0
M  V30 2622 N 235.018 0.912232 1.28515 0
M  V30 2623 C 236.264 0.545405 1.95328 0
M  V30 2624 C 236.597 -0.908313 1.71649 0
M  V30 2625 O 235.872 -1.64575 1.03659 0
M  V30 2626 C 236.155 0.853483 3.4984 0
M  V30 2627 C 236.008 2.35982 3.82926 0
M  V30 2628 C 237.327 0.348589 4.38717 0
M  V30 2629 H 234.446 0.199626 0.709449 0
M  V30 2630 H 237.088 1.1412 1.5191 0
M  V30 2631 H 235.238 0.34643 3.86952 0
M  V30 2632 H 236.91 2.93738 3.55691 0
M  V30 2633 H 235.153 2.81543 3.30024 0
M  V30 2634 H 235.824 2.52593 4.90816 0
M  V30 2635 H 238.3 0.78294 4.08668 0
M  V30 2636 H 237.176 0.593242 5.45685 0
M  V30 2637 H 237.437 -0.751049 4.35674 0
M  V30 2638 N 236.496 -1.42363 0.676048 0
M  V30 2639 C 237.773 -1.95183 0.127726 0
M  V30 2640 C 238.153 -1.61641 -1.35777 0
M  V30 2641 O 237.501 -0.913216 -2.09458 0
M  V30 2642 C 237.711 -3.46721 0.398199 0
M  V30 2643 C 239.059 -4.23427 0.315383 0
M  V30 2644 O 240.083 -3.54649 0.332016 0
M  V30 2645 O 238.942 -5.45888 0.25865 0
M  V30 2646 H 236.036 -0.826992 0.00359427 0
M  V30 2647 H 238.582 -1.52184 0.750864 0
M  V30 2648 H 237.354 -3.64344 1.4272 0
M  V30 2649 H 236.977 -3.96769 -0.256885 0
M  V30 2650 N 237.974 -0.419461 -1.51915 0
M  V30 2651 C 239.221 0.152939 -2.01922 0
M  V30 2652 C 239.549 1.4426 -1.30458 0
M  V30 2653 O 238.804 1.91514 -0.402593 0
M  V30 2654 C 239.103 0.437067 -3.54717 0
M  V30 2655 C 238.769 -0.764632 -4.44369 0
M  V30 2656 C 237.431 -1.09423 -4.68594 0
M  V30 2657 C 239.783 -1.56713 -4.97082 0
M  V30 2658 C 237.111 -2.22732 -5.42777 0
M  V30 2659 C 239.463 -2.69107 -5.72507 0
M  V30 2660 C 238.127 -3.02541 -5.95 0
M  V30 2661 H 237.397 0.0559644 -0.738884 0
M  V30 2662 H 240.044 -0.562998 -1.83037 0
M  V30 2663 H 238.349 1.23469 -3.71837 0
M  V30 2664 H 240.046 0.893083 -3.90928 0
M  V30 2665 H 236.636 -0.497775 -4.257 0
M  V30 2666 H 240.82 -1.32571 -4.78266 0
M  V30 2667 H 236.076 -2.48971 -5.58411 0
M  V30 2668 H 240.25 -3.31671 -6.12346 0
M  V30 2669 H 237.877 -3.90457 -6.52264 0
M  V30 2670 N 239.452 1.56882 -0.150215 0
M  V30 2671 C 240.382 2.19935 0.784284 0
M  V30 2672 C 241.363 1.14854 1.25469 0
M  V30 2673 O 242.548 1.43209 1.31168 0
M  V30 2674 C 239.678 2.82349 2.02229 0
M  V30 2675 C 238.632 3.93285 1.68853 0
M  V30 2676 C 237.958 4.42649 2.99944 0
M  V30 2677 C 239.258 5.13904 0.932714 0
M  V30 2678 H 240.952 2.9828 0.258781 0
M  V30 2679 H 238.498 1.43473 0.123029 0
M  V30 2680 H 240.451 3.25126 2.68088 0
M  V30 2681 H 239.175 2.0134 2.57157 0
M  V30 2682 H 237.834 3.5113 1.05371 0
M  V30 2683 H 237.482 3.58458 3.52869 0
M  V30 2684 H 237.182 5.17476 2.78374 0
M  V30 2685 H 238.706 4.88099 3.66868 0
M  V30 2686 H 240.12 5.53506 1.49345 0
M  V30 2687 H 238.517 5.94515 0.81684 0
M  V30 2688 H 239.587 4.84842 -0.0749568 0
M  V30 2689 N 240.93 -0.123565 1.57115 0
M  V30 2690 C 242.158 -0.846461 1.88793 0
M  V30 2691 C 242.573 -1.73652 0.740976 0
M  V30 2692 O 241.93 -1.80207 -0.288393 0
M  V30 2693 C 241.981 -1.6837 3.19897 0
M  V30 2694 O 241.702 -0.829477 4.30176 0
M  V30 2695 C 243.203 -2.51214 3.65248 0
M  V30 2696 H 240.423 -0.243573 0.625231 0
M  V30 2697 H 242.967 -0.109324 2.04208 0
M  V30 2698 H 241.122 -2.37364 3.06165 0
M  V30 2699 H 241.536 -1.40651 5.0529 0
M  V30 2700 H 243.01 -3.05497 4.59756 0
M  V30 2701 H 243.487 -3.28359 2.9168 0
M  V30 2702 H 244.093 -1.8747 3.81752 0
M  V30 2703 N 242.408 -1.52605 -0.393616 0
M  V30 2704 C 243.638 -1.71046 -1.15874 0
M  V30 2705 C 244.046 -0.426483 -1.84331 0
M  V30 2706 O 243.389 0.608513 -1.73329 0
M  V30 2707 C 243.451 -2.80118 -2.25332 0
M  V30 2708 C 243.115 -4.21381 -1.76881 0
M  V30 2709 C 244.112 -5.04697 -1.24808 0
M  V30 2710 C 241.797 -4.67683 -1.83244 0
M  V30 2711 C 243.791 -6.32393 -0.797387 0
M  V30 2712 C 241.478 -5.95364 -1.37787 0
M  V30 2713 C 242.476 -6.77549 -0.861208 0
M  V30 2714 O 242.164 -8.02837 -0.413252 0
M  V30 2715 H 241.896 -0.576155 -0.353583 0
M  V30 2716 H 244.45 -2.00018 -0.467123 0
M  V30 2717 H 242.68 -2.46557 -2.97904 0
M  V30 2718 H 244.369 -2.87006 -2.87023 0
M  V30 2719 H 245.135 -4.70111 -1.19252 0
M  V30 2720 H 241.014 -4.03805 -2.22401 0
M  V30 2721 H 244.558 -6.9649 -0.393437 0
M  V30 2722 H 240.455 -6.29455 -1.43026 0
M  V30 2723 H 241.223 -8.16749 -0.53515 0
M  V30 2724 N 243.887 0.651787 -1.4349 0
M  V30 2725 C 245.164 1.40909 -1.35661 0
M  V30 2726 C 245.544 2.11099 -0.00511733 0
M  V30 2727 O 244.892 2.04892 1.0115 0
M  V30 2728 C 245.102 2.3926 -2.54078 0
M  V30 2729 C 246.45 3.03217 -2.97228 0
M  V30 2730 O 247.474 2.49588 -2.54135 0
M  V30 2731 O 246.333 4.00455 -3.71885 0
M  V30 2732 H 243.427 0.629625 -0.536191 0
M  V30 2733 H 245.973 0.678575 -1.55542 0
M  V30 2734 H 244.745 1.86352 -3.44076 0
M  V30 2735 H 244.368 3.1976 -2.36303 0
M  V30 2736 N 245.365 1.30045 0.890287 0
M  V30 2737 C 246.614 1.17929 1.63633 0
M  V30 2738 C 246.927 -0.266204 1.9378 0
M  V30 2739 O 248.133 -0.508804 2.6669 0
M  V30 2740 C 246.589 2.06317 2.94892 0
M  V30 2741 C 246.197 3.55745 2.72305 0
M  V30 2742 C 247.941 2.0295 3.72843 0
M  V30 2743 C 245.848 4.36205 3.99348 0
M  V30 2744 H 244.778 0.437782 0.613892 0
M  V30 2745 H 247.429 1.54754 0.986075 0
M  V30 2746 H 245.811 1.6237 3.61182 0
M  V30 2747 H 246.985 4.07805 2.1455 0
M  V30 2748 H 245.3 3.6088 2.07737 0
M  V30 2749 H 247.897 2.60319 4.67053 0
M  V30 2750 H 248.24 1.0117 4.0382 0
M  V30 2751 H 248.773 2.4499 3.13408 0
M  V30 2752 H 245.512 5.38659 3.73533 0
M  V30 2753 H 245.032 3.8891 4.56628 0
M  V30 2754 H 246.711 4.47362 4.67415 0
M  V30 2755 N 246.843 -1.10192 1.12674 0
M  V30 2756 C 247.773 -2.18652 0.819362 0
M  V30 2757 C 248.754 -1.68698 -0.217915 0
M  V30 2758 O 249.939 -1.94041 -0.0785581 0
M  V30 2759 C 247.069 -3.46202 0.27594 0
M  V30 2760 C 246.023 -4.09444 1.24656 0
M  V30 2761 C 245.349 -5.31725 0.563258 0
M  V30 2762 C 246.649 -4.52863 2.60217 0
M  V30 2763 H 248.343 -2.44622 1.72628 0
M  V30 2764 H 245.889 -1.17571 0.831451 0
M  V30 2765 H 247.842 -4.21372 0.0486149 0
M  V30 2766 H 246.566 -3.1973 -0.666331 0
M  V30 2767 H 245.225 -3.36284 1.45974 0
M  V30 2768 H 244.873 -5.0153 -0.384235 0
M  V30 2769 H 244.573 -5.74991 1.21075 0
M  V30 2770 H 246.097 -6.09624 0.34503 0
M  V30 2771 H 247.511 -5.19294 2.42913 0
M  V30 2772 H 245.908 -5.06986 3.21068 0
M  V30 2773 H 246.978 -3.65656 3.18471 0
M  V30 2774 N 248.321 -0.919034 -1.28029 0
M  V30 2775 C 249.598 -0.473668 -1.89778 0
M  V30 2776 C 249.978 1.04783 -1.83259 0
M  V30 2777 O 249.326 1.8982 -1.27202 0
M  V30 2778 C 249.536 -1.00998 -3.34066 0
M  V30 2779 C 250.884 -1.06525 -4.1102 0
M  V30 2780 O 251.908 -0.958996 -3.43048 0
M  V30 2781 O 250.767 -1.22776 -5.3253 0
M  V30 2782 H 247.861 -0.15098 -0.813101 0
M  V30 2783 H 250.407 -1.01016 -1.36359 0
M  V30 2784 H 249.179 -2.05392 -3.33061 0
M  V30 2785 H 248.802 -0.454626 -3.94992 0
M  V30 2786 N 249.799 1.42003 -0.683588 0
M  V30 2787 C 250.731 2.29183 0.0283068 0
M  V30 2788 C 251.744 1.4415 0.756611 0
M  V30 2789 O 252.933 1.67779 0.609306 0
M  V30 2790 C 250.033 3.21765 1.06398 0
M  V30 2791 C 249.206 4.35496 0.407723 0
M  V30 2792 C 248.265 5.08737 1.34437 0
M  V30 2793 O 247.291 5.62948 0.841318 0
M  V30 2794 N 248.493 5.15075 2.67728 0
M  V30 2795 H 251.258 2.9092 -0.720105 0
M  V30 2796 H 248.819 1.53025 -0.528682 0
M  V30 2797 H 250.811 3.6763 1.69204 0
M  V30 2798 H 249.381 2.61418 1.71404 0
M  V30 2799 H 248.601 3.92165 -0.400012 0
M  V30 2800 H 249.889 5.08776 -0.0490956 0
M  V30 2801 H 249.287 4.72457 3.11129 0
M  V30 2802 H 247.844 5.64556 3.2576 0
M  V30 2803 N 251.277 0.427512 1.51691 0
M  V30 2804 C 252.225 -0.403359 2.29076 0
M  V30 2805 C 253.219 -1.02962 1.34518 0
M  V30 2806 O 254.425 -0.965715 1.51901 0
M  V30 2807 H 250.8 -0.148879 0.737115 0
M  V30 2808 H 252.771 0.270295 2.97173 0
M  V30 2809 C 251.52 -1.49763 3.13794 0
M  V30 2810 H 250.843 -1.02508 3.86435 0
M  V30 2811 H 252.283 -2.05244 3.71014 0
M  V30 2812 C 250.742 -2.47536 2.28533 0
M  V30 2813 O 251.272 -3.51848 1.93819 0
M  V30 2814 N 249.478 -2.18187 1.91945 0
M  V30 2815 H 249.025 -1.33389 2.20375 0
M  V30 2816 H 248.983 -2.83848 1.35195 0
M  V30 2817 N 252.755 -1.56801 0.158532 0
M  V30 2818 C 254.171 -1.5837 -0.197774 0
M  V30 2819 C 254.371 -1.17334 -1.63814 0
M  V30 2820 O 253.427 -0.878988 -2.36707 0
M  V30 2821 C 254.74 -3.00615 0.0714459 0
M  V30 2822 C 256.288 -3.12999 0.00864533 0
M  V30 2823 C 256.763 -4.57313 0.250685 0
M  V30 2824 N 258.254 -4.62777 0.198014 0
M  V30 2825 C 258.989 -5.72271 0.359642 0
M  V30 2826 N 258.485 -6.90371 0.579625 0
M  V30 2827 N 260.278 -5.61318 0.296438 0
M  V30 2828 H 252.429 -1.81765 1.09887 0
M  V30 2829 H 254.692 -0.841849 0.435884 0
M  V30 2830 H 254.398 -3.35068 1.06874 0
M  V30 2831 H 254.272 -3.71683 -0.642757 0
M  V30 2832 H 256.659 -2.7838 -0.979217 0
M  V30 2833 H 256.74 -2.44393 0.755359 0
M  V30 2834 H 256.384 -4.92639 1.2357 0
M  V30 2835 H 256.314 -5.24061 -0.516489 0
M  V30 2836 H 258.805 -3.77885 0.0331115 0
M  V30 2837 H 259.118 -7.69689 0.69275 0
M  V30 2838 H 257.463 -6.92264 0.616087 0
M  V30 2839 H 260.654 -4.67932 0.125258 0
M  V30 2840 H 260.827 -6.46599 0.425831 0
M  V30 2841 N 254.233 0.115231 -1.57178 0
M  V30 2842 C 255.482 0.820945 -1.84237 0
M  V30 2843 C 255.795 1.80866 -0.744761 0
M  V30 2844 O 257.001 2.56083 -0.901871 0
M  V30 2845 C 255.457 1.51072 -3.26658 0
M  V30 2846 C 255.065 0.563795 -4.44438 0
M  V30 2847 C 256.809 2.20134 -3.62962 0
M  V30 2848 C 254.716 1.25701 -5.77887 0
M  V30 2849 H 253.646 0.310328 -0.687177 0
M  V30 2850 H 256.297 0.0737134 -1.83352 0
M  V30 2851 H 254.679 2.30471 -3.22024 0
M  V30 2852 H 255.853 -0.197247 -4.60378 0
M  V30 2853 H 254.168 -0.0200638 -4.16395 0
M  V30 2854 H 256.765 2.72696 -4.59936 0
M  V30 2855 H 257.108 2.98107 -2.90582 0
M  V30 2856 H 257.641 1.47619 -3.69396 0
M  V30 2857 H 254.38 0.518493 -6.53446 0
M  V30 2858 H 253.9 1.98997 -5.65827 0
M  V30 2859 H 255.579 1.78915 -6.2177 0
M  V30 2860 N 255.711 1.52812 0.385517 0
M  V30 2861 C 256.958 1.68026 1.1302 0
M  V30 2862 C 257.286 0.421934 1.89868 0
M  V30 2863 O 256.541 -0.595749 1.86412 0
M  V30 2864 C 256.84 2.86856 2.13187 0
M  V30 2865 C 256.506 4.24159 1.5297 0
M  V30 2866 C 255.168 4.61501 1.36274 0
M  V30 2867 C 257.52 5.09627 1.09223 0
M  V30 2868 C 254.848 5.81966 0.743837 0
M  V30 2869 C 257.2 6.30719 0.487411 0
M  V30 2870 C 255.864 6.6679 0.307777 0
M  V30 2871 H 255.134 0.614849 0.413571 0
M  V30 2872 H 257.781 1.86962 0.414405 0
M  V30 2873 H 256.086 2.6235 2.90998 0
M  V30 2874 H 257.783 2.95821 2.70722 0
M  V30 2875 H 254.373 3.94746 1.66954 0
M  V30 2876 H 258.557 4.81343 1.20922 0
M  V30 2877 H 253.813 6.08519 0.592891 0
M  V30 2878 H 257.987 6.96259 0.140143 0
M  V30 2879 H 255.614 7.60001 -0.173879 0
M  V30 2880 N 257.189 -0.644168 1.43834 0
M  V30 2881 C 258.466 -1.40188 1.36406 0
M  V30 2882 C 258.846 -2.11094 0.0163124 0
M  V30 2883 O 258.194 -2.05426 -1.00062 0
M  V30 2884 C 258.404 -2.3791 2.55343 0
M  V30 2885 C 259.752 -3.01637 2.98832 0
M  V30 2886 O 260.776 -2.48237 2.55455 0
M  V30 2887 O 259.635 -3.98477 3.74003 0
M  V30 2888 H 256.729 -0.626773 0.539523 0
M  V30 2889 H 259.275 -0.670317 1.559 0
M  V30 2890 H 258.047 -1.84525 3.4506 0
M  V30 2891 H 257.67 -3.18503 2.37995 0
M  V30 2892 N 258.668 -1.30515 -0.883378 0
M  V30 2893 C 260.079 -1.17509 -1.45081 0
M  V30 2894 C 260.43 0.223605 -1.94922 0
M  V30 2895 O 259.555 1.12041 -1.85137 0
M  V30 2896 C 260.15 -2.12715 -2.63701 0
M  V30 2897 C 258.709 -2.03682 -3.16529 0
M  V30 2898 C 257.856 -2.02706 -1.89224 0
M  V30 2899 H 260.807 -1.42762 -0.693165 0
M  V30 2900 H 260.828 -1.70891 -3.39965 0
M  V30 2901 H 260.34 -3.14505 -2.27395 0
M  V30 2902 H 258.441 -1.05039 -3.57488 0
M  V30 2903 H 258.554 -2.92146 -3.7972 0
M  V30 2904 H 256.918 -1.4753 -2.07622 0
M  V30 2905 H 257.701 -3.06229 -1.55174 0
M  V30 2906 N 260.146 1.09593 -1.13257 0
M  V30 2907 C 261.093 2.1618 -0.808381 0
M  V30 2908 C 262.063 1.64517 0.228754 0
M  V30 2909 O 263.248 1.9053 0.101381 0
M  V30 2910 C 260.388 3.43973 -0.278675 0
M  V30 2911 C 259.501 4.09545 -1.37466 0
M  V30 2912 C 258.636 5.25088 -0.803479 0
M  V30 2913 C 257.675 5.82579 -1.87799 0
M  V30 2914 N 256.812 6.89486 -1.32488 0
M  V30 2915 H 261.652 2.43254 -1.72138 0
M  V30 2916 H 259.189 1.19392 -0.859294 0
M  V30 2917 H 261.147 4.17174 0.0465583 0
M  V30 2918 H 259.777 3.17223 0.597459 0
M  V30 2919 H 258.829 3.34226 -1.81652 0
M  V30 2920 H 260.141 4.48307 -2.18684 0
M  V30 2921 H 259.295 6.05178 -0.429427 0
M  V30 2922 H 258.034 4.87684 0.0397956 0
M  V30 2923 H 257.039 5.01152 -2.26113 0
M  V30 2924 H 258.264 6.22045 -2.72463 0
M  V30 2925 H 256.21 6.54064 -0.503575 0
M  V30 2926 H 256.127 7.27007 -2.07355 0
M  V30 2927 H 257.395 7.73336 -0.978336 0
M  V30 2928 N 261.624 0.925811 1.2754 0
M  V30 2929 C 262.864 0.572521 1.96218 0
M  V30 2930 C 263.228 -0.869719 1.71172 0
M  V30 2931 O 264.429 -1.33119 2.33523 0
M  V30 2932 C 262.7 0.887325 3.4621 0
M  V30 2933 S 264.259 0.642266 4.34074 0
M  V30 2934 H 261.077 0.211403 0.678845 0
M  V30 2935 H 263.679 1.19384 1.54815 0
M  V30 2936 H 262.383 1.93469 3.61936 0
M  V30 2937 H 261.914 0.255123 3.92572 0
M  V30 2938 H 263.929 -0.500822 4.93666 0
M  V30 2939 N 263.102 -1.41638 0.69111 0
M  V30 2940 C 264.032 -2.3347 0.037248 0
M  V30 2941 C 265.013 -1.51575 -0.771947 0
M  V30 2942 O 266.198 -1.80126 -0.72582 0
M  V30 2943 C 263.328 -3.35354 -0.903064 0
M  V30 2944 C 262.282 -4.27526 -0.201288 0
M  V30 2945 C 261.608 -5.19747 -1.25565 0
M  V30 2946 C 262.908 -5.13959 0.929689 0
M  V30 2947 H 264.602 -2.88397 0.804227 0
M  V30 2948 H 262.148 -1.38669 0.388189 0
M  V30 2949 H 264.101 -3.98519 -1.36969 0
M  V30 2950 H 262.825 -2.78767 -1.70166 0
M  V30 2951 H 261.484 -3.65779 0.245265 0
M  V30 2952 H 261.132 -4.59479 -2.04666 0
M  V30 2953 H 260.832 -5.8225 -0.791128 0
M  V30 2954 H 262.356 -5.85789 -1.72288 0
M  V30 2955 H 263.77 -5.70718 0.543546 0
M  V30 2956 H 262.167 -5.85379 1.32103 0
M  V30 2957 H 263.237 -4.51389 1.77133 0
M  V30 2958 N 264.58 -0.43555 -1.51462 0
M  V30 2959 C 265.857 0.191364 -1.94662 0
M  V30 2960 C 266.237 1.60254 -1.37411 0
M  V30 2961 O 265.585 2.2152 -0.560458 0
M  V30 2962 C 265.795 0.17091 -3.48581 0
M  V30 2963 C 267.143 0.377357 -4.2292 0
M  V30 2964 O 268.167 0.249104 -3.55328 0
M  V30 2965 O 267.026 0.63247 -5.42828 0
M  V30 2966 H 264.12 0.130932 -0.816569 0
M  V30 2967 H 266.666 -0.4934 -1.62369 0
M  V30 2968 H 265.438 -0.815738 -3.82703 0
M  V30 2969 H 265.061 0.898659 -3.87311 0
M  V30 2970 N 266.058 1.56714 -0.166846 0
M  V30 2971 C 266.968 2.21331 0.777791 0
M  V30 2972 C 267.984 1.20358 1.25658 0
M  V30 2973 O 269.16 1.53005 1.30964 0
M  V30 2974 C 266.225 2.83787 1.99163 0
M  V30 2975 C 265.286 3.99947 1.56016 0
M  V30 2976 C 264.519 4.59415 2.71613 0
M  V30 2977 O 264.742 4.17769 3.88362 0
M  V30 2978 O 263.676 5.49359 2.45945 0
M  V30 2979 H 267.502 3.02605 0.257636 0
M  V30 2980 H 265.087 1.49275 0.0611393 0
M  V30 2981 H 266.969 3.23405 2.70161 0
M  V30 2982 H 265.644 2.05513 2.50092 0
M  V30 2983 H 264.551 3.65007 0.819809 0
M  V30 2984 H 265.884 4.79801 1.09782 0
M  V30 2985 N 267.536 -0.106894 1.57237 0
M  V30 2986 C 268.783 -0.812526 1.85484 0
M  V30 2987 C 269.111 -1.79304 0.753687 0
M  V30 2988 O 268.366 -1.94047 -0.253853 0
M  V30 2989 C 268.665 -1.58628 3.20268 0
M  V30 2990 C 268.331 -0.748967 4.44636 0
M  V30 2991 C 266.993 -0.518104 4.78403 0
M  V30 2992 C 269.345 -0.166122 5.20935 0
M  V30 2993 C 266.673 0.305659 5.85903 0
M  V30 2994 C 269.025 0.644899 6.29304 0
M  V30 2995 C 267.689 0.885965 6.61594 0
M  V30 2996 H 266.959 -0.297324 0.678734 0
M  V30 2997 H 269.606 -0.0744332 1.91355 0
M  V30 2998 H 267.911 -2.39562 3.10028 0
M  V30 2999 H 269.608 -2.13643 3.39349 0
M  V30 3000 H 266.198 -0.939006 4.18187 0
M  V30 3001 H 270.382 -0.33167 4.95191 0
M  V30 3002 H 265.638 0.501528 6.0934 0
M  V30 3003 H 269.812 1.10345 6.87602 0
M  V30 3004 H 267.439 1.52609 7.44725 0
M  V30 3005 N 269.014 -1.53014 -0.377408 0
M  V30 3006 C 270.425 -1.60438 -0.954798 0
M  V30 3007 C 270.776 -0.464418 -1.90624 0
M  V30 3008 O 269.901 0.41087 -2.12464 0
M  V30 3009 C 270.496 -2.90797 -1.73847 0
M  V30 3010 C 269.055 -3.00595 -2.26538 0
M  V30 3011 C 268.202 -2.55645 -1.07429 0
M  V30 3012 H 271.153 -1.57926 -0.156575 0
M  V30 3013 H 271.174 -2.77935 -2.5987 0
M  V30 3014 H 270.686 -3.73746 -1.04574 0
M  V30 3015 H 268.787 -2.22208 -2.99089 0
M  V30 3016 H 268.9 -4.05456 -2.5523 0
M  V30 3017 H 267.264 -2.10239 -1.43777 0
M  V30 3018 H 268.047 -3.41 -0.396728 0
M  V30 3019 N 270.492 0.636531 -1.44174 0
M  V30 3020 C 271.44 1.76995 -1.50915 0
M  V30 3021 C 272.434 1.65053 -0.381295 0
M  V30 3022 O 273.64 1.71197 -0.55601 0
M  V30 3023 H 270.015 0.584247 -0.473455 0
M  V30 3024 H 271.986 1.68432 -2.4632 0
M  V30 3025 C 270.735 3.15314 -1.46534 0
M  V30 3026 H 270.058 3.25149 -2.32633 0
M  V30 3027 H 271.498 3.9453 -1.55312 0
M  V30 3028 C 269.957 3.3639 -0.185305 0
M  V30 3029 O 270.487 3.94699 0.746688 0
M  V30 3030 N 268.693 2.9046 -0.0901606 0
M  V30 3031 H 268.24 2.43193 -0.849416 0
M  V30 3032 H 268.198 3.04937 0.765553 0
M  V30 3033 N 271.97 1.30982 0.876444 0
M  V30 3034 C 272.9 1.20668 1.99903 0
M  V30 3035 C 273.881 0.095354 1.69833 0
M  V30 3036 O 275.066 0.27885 1.92188 0
M  V30 3037 C 272.196 0.90655 3.3526 0
M  V30 3038 C 271.15 1.97675 3.79617 0
M  V30 3039 C 270.476 1.52943 5.1236 0
M  V30 3040 C 271.776 3.389 3.97422 0
M  V30 3041 H 273.47 2.14586 2.0879 0
M  V30 3042 H 271.016 1.03308 1.00317 0
M  V30 3043 H 272.969 0.821025 4.13324 0
M  V30 3044 H 271.693 -0.0682969 3.26529 0
M  V30 3045 H 270.352 2.05205 3.03787 0
M  V30 3046 H 270 0.54262 5.00065 0
M  V30 3047 H 269.7 2.24532 5.43009 0
M  V30 3048 H 271.224 1.45786 5.92941 0
M  V30 3049 H 272.638 3.34081 4.659 0
M  V30 3050 H 271.035 4.0865 4.3946 0
M  V30 3051 H 272.105 3.80163 3.01006 0
M  V30 3052 N 273.449 -1.08991 1.13837 0
M  V30 3053 C 274.396 -2.15748 0.819835 0
M  V30 3054 C 275.366 -1.64636 -0.220026 0
M  V30 3055 O 276.551 -1.90582 -0.0912757 0
M  V30 3056 C 273.691 -3.4382 0.296913 0
M  V30 3057 C 272.804 -4.0881 1.39636 0
M  V30 3058 C 271.939 -5.24655 0.831314 0
M  V30 3059 C 270.978 -5.81575 1.90886 0
M  V30 3060 N 270.115 -6.88774 1.36142 0
M  V30 3061 H 274.955 -2.42338 1.73426 0
M  V30 3062 H 272.492 -1.18935 0.865613 0
M  V30 3063 H 274.45 -4.17193 -0.0244339 0
M  V30 3064 H 273.08 -3.17535 -0.580628 0
M  V30 3065 H 272.132 -3.33258 1.83422 0
M  V30 3066 H 273.444 -4.47141 2.21058 0
M  V30 3067 H 272.598 -6.04942 0.461515 0
M  V30 3068 H 271.337 -4.87698 -0.013932 0
M  V30 3069 H 270.342 -4.99946 2.28767 0
M  V30 3070 H 271.567 -6.20592 2.75758 0
M  V30 3071 H 269.513 -6.53788 0.538254 0
M  V30 3072 H 269.43 -7.25898 2.11208 0
M  V30 3073 H 270.698 -7.72806 1.01933 0
M  V30 3074 N 274.927 -0.932562 -1.27047 0
M  V30 3075 C 275.89 -0.440064 -2.24936 0
M  V30 3076 C 276.89 0.444071 -1.54547 0
M  V30 3077 O 278.08 0.244465 -1.72476 0
M  V30 3078 C 275.212 0.36678 -3.38921 0
M  V30 3079 H 276.405 -1.305 -2.70018 0
M  V30 3080 H 273.958 -0.713707 -1.39054 0
M  V30 3081 H 274.693 1.25033 -2.99228 0
M  V30 3082 H 274.478 -0.267204 -3.91188 0
M  V30 3083 H 275.968 0.701567 -4.11665 0
M  V30 3084 N 276.405 1.4127 -0.698611 0
M  V30 3085 C 277.652 2.0118 -0.230865 0
M  V30 3086 C 277.98 1.55338 1.17049 0
M  V30 3087 O 277.235 0.756775 1.80475 0
M  V30 3088 C 277.534 3.56592 -0.240192 0
M  V30 3089 C 277.2 4.21955 -1.58948 0
M  V30 3090 C 275.862 4.39524 -1.95887 0
M  V30 3091 C 278.214 4.58576 -2.47704 0
M  V30 3092 C 275.542 4.90992 -3.2116 0
M  V30 3093 C 277.894 5.11435 -3.72313 0
M  V30 3094 C 276.558 5.27215 -4.0939 0
M  V30 3095 H 275.828 0.736169 -0.0844796 0
M  V30 3096 H 278.475 1.69124 -0.8983 0
M  V30 3097 H 276.78 3.88456 0.510797 0
M  V30 3098 H 278.477 4.00758 0.139296 0
M  V30 3099 H 275.067 4.08657 -1.29219 0
M  V30 3100 H 279.251 4.44654 -2.20445 0
M  V30 3101 H 274.507 5.01393 -3.49878 0
M  V30 3102 H 278.681 5.38752 -4.4127 0
M  V30 3103 H 276.308 5.66859 -5.06533 0
M  V30 3104 N 277.883 0.443576 1.51229 0
M  V30 3105 C 278.816 -0.410089 2.24485 0
M  V30 3106 C 279.794 -1.01949 1.26669 0
M  V30 3107 O 280.978 -1.06075 1.55821 0
M  V30 3108 C 278.105 -1.57211 3.00004 0
M  V30 3109 C 277.151 -1.08279 4.12526 0
M  V30 3110 S 277.984 -0.0197476 5.35496 0
M  V30 3111 C 279.14 -1.18629 6.14555 0
M  V30 3112 H 279.373 0.211832 2.96544 0
M  V30 3113 H 276.906 0.228156 1.52705 0
M  V30 3114 H 278.864 -2.23825 3.44111 0
M  V30 3115 H 277.525 -2.16547 2.27522 0
M  V30 3116 H 276.718 -1.95193 4.64667 0
M  V30 3117 H 276.32 -0.494797 3.70713 0
M  V30 3118 H 278.612 -2.10344 6.4402 0
M  V30 3119 H 279.555 -0.70472 7.04584 0
M  V30 3120 H 279.963 -1.42768 5.46148 0
M  V30 3121 N 279.361 -1.56624 0.175154 0
M  V30 3122 C 280.601 -1.98894 -0.471221 0
M  V30 3123 C 280.965 -1.05889 -1.60161 0
M  V30 3124 O 282.166 -1.37315 -2.3108 0
M  V30 3125 C 280.437 -3.44865 -0.938241 0
M  V30 3126 S 281.996 -4.09164 -1.58526 0
M  V30 3127 H 278.814 -0.694686 -0.151434 0
M  V30 3128 H 281.416 -1.93577 0.27352 0
M  V30 3129 H 280.12 -4.10265 -0.10518 0
M  V30 3130 H 279.651 -3.53956 -1.71693 0
M  V30 3131 H 281.666 -4.04528 -2.87352 0
M  V30 3132 N 280.839 0.0985539 -1.57292 0
M  V30 3133 C 282.255 0.45267 -1.53046 0
M  V30 3134 C 282.455 1.80713 -0.891342 0
M  V30 3135 O 281.511 2.4785 -0.482375 0
M  V30 3136 C 282.824 0.418341 -2.97776 0
M  V30 3137 C 284.372 0.500443 -3.08973 0
M  V30 3138 C 284.847 0.496297 -4.55303 0
M  V30 3139 N 286.338 0.557151 -4.59837 0
M  V30 3140 C 287.073 0.575726 -5.70502 0
M  V30 3141 N 286.569 0.550714 -6.90608 0
M  V30 3142 N 288.362 0.620277 -5.58667 0
M  V30 3143 H 280.513 -0.788673 -1.97215 0
M  V30 3144 H 282.776 -0.293188 -0.901524 0
M  V30 3145 H 282.482 -0.509659 -3.47988 0
M  V30 3146 H 282.356 1.2386 -3.56284 0
M  V30 3147 H 284.743 1.41886 -2.58751 0
M  V30 3148 H 284.824 -0.347894 -2.53423 0
M  V30 3149 H 284.468 -0.418162 -5.06176 0
M  V30 3150 H 284.398 1.3618 -5.08687 0
M  V30 3151 H 286.889 0.581816 -3.73394 0
M  V30 3152 H 287.202 0.568075 -7.70709 0
M  V30 3153 H 285.547 0.517816 -6.93068 0
M  V30 3154 H 288.738 0.637322 -4.63741 0
M  V30 3155 H 288.911 0.631283 -6.44918 0
M  V30 3156 N 282.317 1.53212 0.369288 0
M  V30 3157 C 283.564 1.69215 1.11232 0
M  V30 3158 C 283.892 0.442048 1.8941 0
M  V30 3159 O 283.147 -0.575944 1.87033 0
M  V30 3160 C 283.446 2.89101 2.10132 0
M  V30 3161 C 283.112 4.25758 1.48463 0
M  V30 3162 C 281.774 4.6292 1.31372 0
M  V30 3163 C 284.126 5.10757 1.03811 0
M  V30 3164 C 281.454 5.82722 0.68207 0
M  V30 3165 C 283.806 6.31201 0.420487 0
M  V30 3166 C 282.47 6.67079 0.237038 0
M  V30 3167 H 281.74 0.619201 0.407027 0
M  V30 3168 H 284.387 1.87391 0.394552 0
M  V30 3169 H 282.692 2.65421 2.88199 0
M  V30 3170 H 284.389 2.98676 2.6757 0
M  V30 3171 H 280.979 3.96494 1.62758 0
M  V30 3172 H 285.163 4.82599 1.1581 0
M  V30 3173 H 280.419 6.09113 0.528316 0
M  V30 3174 H 284.593 6.96368 0.0662874 0
M  V30 3175 H 282.22 7.59774 -0.254477 0
M  V30 3176 N 283.795 -0.628877 1.44509 0
M  V30 3177 C 284.705 -1.7694 1.54044 0
M  V30 3178 C 285.721 -1.68705 0.425987 0
M  V30 3179 O 286.897 -1.89442 0.683656 0
M  V30 3180 C 283.962 -3.13332 1.48405 0
M  V30 3181 C 283.023 -3.33181 2.70719 0
M  V30 3182 C 282.256 -4.63067 2.6534 0
M  V30 3183 O 282.479 -5.44017 1.71469 0
M  V30 3184 O 281.413 -4.85167 3.56226 0
M  V30 3185 H 285.239 -1.71848 2.50403 0
M  V30 3186 H 282.824 -0.790378 1.26781 0
M  V30 3187 H 284.706 -3.94634 1.47791 0
M  V30 3188 H 283.381 -3.1896 0.551898 0
M  V30 3189 H 282.288 -2.51549 2.769 0
M  V30 3190 H 283.621 -3.32416 3.62988 0
M  V30 3191 N 285.273 -1.31445 -0.869486 0
M  V30 3192 C 286.236 -1.19094 -1.9583 0
M  V30 3193 C 287.236 -0.117906 -1.60367 0
M  V30 3194 O 288.426 -0.367208 -1.70286 0
M  V30 3195 C 285.558 -0.828165 -3.30688 0
M  V30 3196 H 286.751 -2.15842 -2.08212 0
M  V30 3197 H 284.304 -1.15063 -1.05784 0
M  V30 3198 H 285.039 0.138142 -3.24006 0
M  V30 3199 H 284.824 -1.6038 -3.578 0
M  V30 3200 H 286.314 -0.765658 -4.10521 0
M  V30 3201 N 286.751 1.08385 -1.14413 0
M  V30 3202 C 287.681 2.17321 -0.854044 0
M  V30 3203 C 288.662 1.69024 0.191049 0
M  V30 3204 O 289.847 1.94141 0.0476779 0
M  V30 3205 C 286.977 3.45719 -0.330983 0
M  V30 3206 C 285.931 4.07409 -1.31155 0
M  V30 3207 C 285.257 5.30762 -0.64778 0
M  V30 3208 C 286.557 4.48665 -2.67388 0
M  V30 3209 H 288.251 2.41845 -1.76498 0
M  V30 3210 H 285.797 1.16233 -0.850051 0
M  V30 3211 H 287.75 4.21241 -0.115645 0
M  V30 3212 H 286.474 3.2075 0.615381 0
M  V30 3213 H 285.133 3.33919 -1.51306 0
M  V30 3214 H 284.781 5.02078 0.304398 0
M  V30 3215 H 284.481 5.72992 -1.30207 0
M  V30 3216 H 286.005 6.08998 -0.441972 0
M  V30 3217 H 287.419 5.15364 -2.51143 0
M  V30 3218 H 285.816 5.01814 -3.29093 0
M  V30 3219 H 286.886 3.60543 -3.24248 0
M  V30 3220 N 288.23 0.939286 1.26551 0
M  V30 3221 C 289.14 0.453432 2.30176 0
M  V30 3222 C 290.156 -0.471649 1.67486 0
M  V30 3223 O 291.332 -0.35164 1.98306 0
M  V30 3224 C 288.397 -0.275326 3.45605 0
M  V30 3225 C 287.458 0.686084 4.23782 0
M  V30 3226 C 286.691 -0.00798994 5.33699 0
M  V30 3227 O 286.914 -1.22528 5.57085 0
M  V30 3228 O 285.848 0.669746 5.98162 0
M  V30 3229 H 289.674 1.31416 2.73795 0
M  V30 3230 H 287.259 0.705095 1.31715 0
M  V30 3231 H 289.141 -0.685911 4.1578 0
M  V30 3232 H 287.816 -1.11147 3.0402 0
M  V30 3233 H 286.723 1.14658 3.56096 0
M  V30 3234 H 288.056 1.48979 4.69112 0
M  V30 3235 N 289.708 -1.40897 0.706093 0
M  V30 3236 C 290.655 -2.30751 0.0474474 0
M  V30 3237 C 291.625 -1.47678 -0.76029 0
M  V30 3238 O 292.81 -1.76441 -0.726177 0
M  V30 3239 C 289.95 -3.33815 -0.875309 0
M  V30 3240 C 289.063 -4.31961 -0.0580623 0
M  V30 3241 C 288.198 -5.22093 -0.979425 0
M  V30 3242 C 287.237 -6.11902 -0.155706 0
M  V30 3243 N 286.374 -6.94482 -1.03144 0
M  V30 3244 H 291.214 -2.86513 0.819413 0
M  V30 3245 H 288.751 -1.41102 0.415783 0
M  V30 3246 H 290.709 -3.92129 -1.42446 0
M  V30 3247 H 289.339 -2.79579 -1.61356 0
M  V30 3248 H 288.391 -3.75507 0.608147 0
M  V30 3249 H 289.703 -4.95415 0.580082 0
M  V30 3250 H 288.857 -5.85292 -1.59744 0
M  V30 3251 H 287.596 -4.5889 -1.65141 0
M  V30 3252 H 286.601 -5.47742 0.475309 0
M  V30 3253 H 287.826 -6.77162 0.512635 0
M  V30 3254 H 285.772 -6.33877 -1.68924 0
M  V30 3255 H 285.689 -7.54665 -0.449108 0
M  V30 3256 H 286.957 -7.6214 -1.63593 0
M  V30 3257 N 291.186 -0.45159 -1.50991 0
M  V30 3258 C 292.435 0.111653 -2.01391 0
M  V30 3259 C 292.748 1.42529 -1.33959 0
M  V30 3260 O 293.954 2.07232 -1.75405 0
M  V30 3261 C 292.41 0.249514 -3.59034 0
M  V30 3262 C 292.018 -1.05453 -4.35412 0
M  V30 3263 C 293.762 0.765762 -4.17536 0
M  V30 3264 C 291.669 -0.881529 -5.84793 0
M  V30 3265 H 290.599 0.0455022 -0.752626 0
M  V30 3266 H 293.25 -0.583524 -1.73975 0
M  V30 3267 H 291.632 1.00803 -3.82955 0
M  V30 3268 H 292.806 -1.82248 -4.23229 0
M  V30 3269 H 291.121 -1.50039 -3.88429 0
M  V30 3270 H 293.718 0.911913 -5.26866 0
M  V30 3271 H 294.061 1.75201 -3.77638 0
M  V30 3272 H 294.594 0.0651744 -3.97747 0
M  V30 3273 H 291.333 -1.84057 -6.29129 0
M  V30 3274 H 290.853 -0.153625 -5.99603 0
M  V30 3275 H 292.532 -0.540363 -6.4474 0
M  V30 3276 N 292.664 1.56529 -0.183458 0
M  V30 3277 C 293.627 2.17324 0.728223 0
M  V30 3278 C 294.627 1.12453 1.14939 0
M  V30 3279 O 295.817 1.37902 1.06437 0
M  V30 3280 C 292.949 2.76591 1.99274 0
M  V30 3281 H 294.142 2.99241 0.198772 0
M  V30 3282 H 291.695 1.5616 0.0661391 0
M  V30 3283 H 292.43 1.98441 2.56499 0
M  V30 3284 H 292.215 3.5335 1.69959 0
M  V30 3285 H 293.705 3.23311 2.6431 0
M  V30 3286 N 294.142 -0.090211 1.57342 0
M  V30 3287 C 295.105 -1.09335 2.01441 0
M  V30 3288 C 296.105 -1.32666 0.908641 0
M  V30 3289 O 297.295 -1.28697 1.174 0
M  V30 3290 C 294.427 -2.44136 2.3793 0
M  V30 3291 H 295.62 -0.713662 2.91285 0
M  V30 3292 H 293.173 -0.335404 1.52659 0
M  V30 3293 H 293.908 -2.86972 1.51055 0
M  V30 3294 H 293.693 -2.28548 3.18603 0
M  V30 3295 H 295.183 -3.16277 2.72688 0
M  V30 3296 N 295.62 -1.53406 -0.361157 0
M  V30 3297 C 296.85 -1.73465 -1.1222 0
M  V30 3298 C 297.258 -0.465486 -1.83384 0
M  V30 3299 O 296.601 0.571611 -1.7458 0
M  V30 3300 C 296.663 -2.84834 -2.19339 0
M  V30 3301 C 296.327 -4.25038 -1.67903 0
M  V30 3302 C 297.324 -5.07231 -1.14074 0
M  V30 3303 C 295.009 -4.71464 -1.73282 0
M  V30 3304 C 297.003 -6.33942 -0.663068 0
M  V30 3305 C 294.69 -5.98153 -1.25127 0
M  V30 3306 C 295.688 -6.79223 -0.717296 0
M  V30 3307 O 295.376 -8.03533 -0.242865 0
M  V30 3308 H 295.108 -0.583526 -0.341283 0
M  V30 3309 H 297.662 -2.00964 -0.424591 0
M  V30 3310 H 295.892 -2.5282 -2.92607 0
M  V30 3311 H 297.581 -2.9303 -2.80871 0
M  V30 3312 H 298.347 -4.72534 -1.09254 0
M  V30 3313 H 294.226 -4.08432 -2.13786 0
M  V30 3314 H 297.77 -6.97167 -0.245612 0
M  V30 3315 H 293.667 -6.32347 -1.29642 0
M  V30 3316 H 294.435 -8.177 -0.361786 0
M  V30 3317 N 297.098 0.621204 -1.44841 0
M  V30 3318 C 298.028 1.74366 -1.55303 0
M  V30 3319 C 299.009 1.65199 -0.405385 0
M  V30 3320 O 300.194 1.83807 -0.626787 0
M  V30 3321 C 297.324 3.12931 -1.50637 0
M  V30 3322 C 296.278 3.36896 -2.63979 0
M  V30 3323 C 295.604 4.75594 -2.44366 0
M  V30 3324 C 296.904 3.28483 -4.06074 0
M  V30 3325 H 298.598 1.65867 -2.49256 0
M  V30 3326 H 296.144 0.796558 -1.19962 0
M  V30 3327 H 298.097 3.9124 -1.56555 0
M  V30 3328 H 296.821 3.22237 -0.532057 0
M  V30 3329 H 295.48 2.60972 -2.57467 0
M  V30 3330 H 295.128 4.81616 -1.45105 0
M  V30 3331 H 294.828 4.92586 -3.20364 0
M  V30 3332 H 296.352 5.5612 -2.52117 0
M  V30 3333 H 297.766 3.96684 -4.13902 0
M  V30 3334 H 296.163 3.57008 -4.82354 0
M  V30 3335 H 297.233 2.26133 -4.28943 0
M  V30 3336 N 298.576 1.31904 0.862503 0
M  V30 3337 C 299.508 1.16005 1.97675 0
M  V30 3338 C 300.521 0.0971234 1.6251 0
M  V30 3339 O 301.71 0.345337 1.75128 0
M  V30 3340 C 298.81 0.751791 3.30456 0
M  V30 3341 C 297.983 1.90133 3.93914 0
M  V30 3342 C 297.042 1.4779 5.05019 0
M  V30 3343 O 296.068 2.18872 5.25437 0
M  V30 3344 N 297.27 0.369491 5.79323 0
M  V30 3345 H 300.035 2.11982 2.11857 0
M  V30 3346 H 297.596 1.24337 1.03691 0
M  V30 3347 H 299.588 0.451084 4.02178 0
M  V30 3348 H 298.158 -0.116593 3.12382 0
M  V30 3349 H 297.378 2.36896 3.15078 0
M  V30 3350 H 298.666 2.67111 4.33047 0
M  V30 3351 H 298.064 -0.222299 5.65263 0
M  V30 3352 H 296.621 0.128354 6.51674 0
M  V30 3353 N 300.054 -1.07777 1.14986 0
M  V30 3354 C 301.279 -1.84558 0.946213 0
M  V30 3355 C 301.704 -1.81323 -0.500362 0
M  V30 3356 O 301.062 -1.20301 -1.35637 0
M  V30 3357 C 301.11 -3.29736 1.45968 0
M  V30 3358 O 300.214 -4.07149 0.65601 0
M  V30 3359 H 299.555 -0.571641 0.33782 0
M  V30 3360 H 302.085 -1.35991 1.52865 0
M  V30 3361 H 302.095 -3.80574 1.47063 0
M  V30 3362 H 300.77 -3.31406 2.51283 0
M  V30 3363 H 299.347 -3.65994 0.714322 0
M  V30 3364 N 301.532 -0.945985 -1.26051 0
M  V30 3365 C 302.809 -0.513816 -1.88731 0
M  V30 3366 C 303.189 1.00872 -1.8544 0
M  V30 3367 O 302.537 1.8708 -1.312 0
M  V30 3368 C 302.747 -1.08062 -3.31849 0
M  V30 3369 C 304.095 -1.1522 -4.08668 0
M  V30 3370 O 305.119 -1.03155 -3.40936 0
M  V30 3371 O 303.978 -1.34044 -5.29806 0
M  V30 3372 H 301.072 -0.168193 -0.809716 0
M  V30 3373 H 303.618 -1.03886 -1.34186 0
M  V30 3374 H 302.39 -2.1241 -3.2863 0
M  V30 3375 H 302.013 -0.538307 -3.93939 0
M  V30 3376 N 303.011 1.40521 -0.713556 0
M  V30 3377 C 303.943 2.29191 -0.0203126 0
M  V30 3378 C 304.956 1.45723 0.725864 0
M  V30 3379 O 306.145 1.69033 0.573581 0
M  V30 3380 C 303.245 3.2395 0.995486 0
M  V30 3381 C 302.418 4.36262 0.315256 0
M  V30 3382 C 301.477 5.11474 1.23616 0
M  V30 3383 O 300.503 5.64606 0.721719 0
M  V30 3384 N 301.705 5.20638 2.56743 0
M  V30 3385 H 304.47 2.89327 -0.781652 0
M  V30 3386 H 302.031 1.51869 -0.561022 0
M  V30 3387 H 304.023 3.71137 1.61368 0
M  V30 3388 H 302.593 2.64995 1.6582 0
M  V30 3389 H 301.813 3.91228 -0.483106 0
M  V30 3390 H 303.101 5.08558 -0.157004 0
M  V30 3391 H 302.499 4.7895 3.01037 0
M  V30 3392 H 301.056 5.71339 3.13712 0
M  V30 3393 N 304.489 0.459591 1.5075 0
M  V30 3394 C 305.736 -0.0993495 2.02256 0
M  V30 3395 C 306.064 -1.40751 1.34237 0
M  V30 3396 O 305.319 -1.90379 0.453228 0
M  V30 3397 C 305.618 -0.342866 3.55752 0
M  V30 3398 C 305.284 0.88218 4.42186 0
M  V30 3399 C 303.946 1.21808 4.65528 0
M  V30 3400 C 306.298 1.69837 4.92752 0
M  V30 3401 C 303.626 2.37045 5.36681 0
M  V30 3402 C 305.978 2.84192 5.65171 0
M  V30 3403 C 304.642 3.1821 5.8677 0
M  V30 3404 H 303.912 -0.0363545 0.740108 0
M  V30 3405 H 306.559 0.611329 1.8148 0
M  V30 3406 H 304.864 -1.13567 3.7498 0
M  V30 3407 H 306.561 -0.789121 3.93159 0
M  V30 3408 H 303.151 0.610467 4.2423 0
M  V30 3409 H 307.335 1.45205 4.74583 0
M  V30 3410 H 302.591 2.63689 5.51614 0
M  V30 3411 H 306.765 3.4779 6.03337 0
M  V30 3412 H 304.392 4.07613 6.41682 0
M  V30 3413 N 305.967 -1.56429 0.191757 0
M  V30 3414 C 307.207 -1.99383 -0.450099 0
M  V30 3415 C 307.571 -1.07581 -1.59029 0
M  V30 3416 O 308.772 -1.39758 -2.29611 0
M  V30 3417 C 307.043 -3.45841 -0.901611 0
M  V30 3418 S 308.602 -4.10822 -1.54177 0
M  V30 3419 H 305.42 -0.696253 -0.144057 0
M  V30 3420 H 308.022 -1.93276 0.294036 0
M  V30 3421 H 306.726 -4.10354 -0.0616596 0
M  V30 3422 H 306.257 -3.55757 -1.67929 0
M  V30 3423 H 308.272 -4.07553 -2.83046 0
M  V30 3424 N 307.445 0.0818655 -1.57387 0
M  V30 3425 C 308.392 1.09834 -2.0299 0
M  V30 3426 C 309.362 1.39043 -0.908639 0
M  V30 3427 O 310.547 1.50282 -1.17559 0
M  V30 3428 C 307.687 2.40971 -2.47037 0
M  V30 3429 C 306.8 2.18379 -3.7274 0
M  V30 3430 C 305.935 3.43008 -4.0561 0
M  V30 3431 C 304.974 3.15736 -5.24383 0
M  V30 3432 N 304.111 4.32667 -5.52941 0
M  V30 3433 H 308.951 0.702472 -2.89602 0
M  V30 3434 H 306.488 0.33531 -1.43227 0
M  V30 3435 H 308.446 3.1752 -2.70623 0
M  V30 3436 H 307.076 2.78379 -1.63417 0
M  V30 3437 H 306.128 1.32569 -3.56552 0
M  V30 3438 H 307.44 1.94227 -4.59431 0
M  V30 3439 H 306.594 4.27958 -4.30043 0
M  V30 3440 H 305.333 3.70225 -3.17466 0
M  V30 3441 H 304.338 2.2918 -4.99757 0
M  V30 3442 H 305.563 2.8985 -6.14136 0
M  V30 3443 H 303.509 4.59935 -4.67756 0
M  V30 3444 H 303.426 4.11753 -6.34031 0
M  V30 3445 H 304.694 5.18644 -5.81918 0
M  V30 3446 N 308.923 1.53595 0.353017 0
M  V30 3447 C 309.856 1.7572 1.45594 0
M  V30 3448 C 310.834 0.605961 1.50887 0
M  V30 3449 O 312.018 0.840023 1.68748 0
M  V30 3450 C 309.145 1.84732 2.83887 0
M  V30 3451 C 308.191 3.06808 2.96262 0
M  V30 3452 S 309.024 4.66065 2.63711 0
M  V30 3453 C 310.18 4.77943 4.04131 0
M  V30 3454 H 310.413 2.68994 1.26608 0
M  V30 3455 H 307.946 1.44343 0.548117 0
M  V30 3456 H 309.904 1.9061 3.63563 0
M  V30 3457 H 308.565 0.92488 3.00175 0
M  V30 3458 H 307.758 3.09761 3.97573 0
M  V30 3459 H 307.36 2.99108 2.24523 0
M  V30 3460 H 309.652 4.5877 4.98534 0
M  V30 3461 H 310.595 5.80022 4.06177 0
M  V30 3462 H 311.003 4.06472 3.91715 0
M  V30 3463 N 310.401 -0.613514 1.45168 0
M  V30 3464 C 311.812 -1.19539 1.43413 0
M  V30 3465 C 312.163 -1.95558 0.158632 0
M  V30 3466 O 311.288 -2.0335 -0.740119 0
M  V30 3467 C 311.883 -2.17445 2.59813 0
M  V30 3468 C 310.442 -2.71022 2.61197 0
M  V30 3469 C 309.589 -1.46323 2.35552 0
M  V30 3470 H 312.54 -0.403163 1.53494 0
M  V30 3471 H 312.561 -3.00373 2.33574 0
M  V30 3472 H 312.073 -1.62089 3.52631 0
M  V30 3473 H 310.174 -3.30332 1.7237 0
M  V30 3474 H 310.287 -3.15859 3.60236 0
M  V30 3475 H 308.651 -1.75072 1.84992 0
M  V30 3476 H 309.434 -0.92844 3.30507 0
M  V30 3477 N 311.879 -1.3236 -0.855495 0
M  V30 3478 C 313.128 -1.22226 -1.60448 0
M  V30 3479 C 313.441 0.214733 -1.94418 0
M  V30 3480 O 314.647 0.437917 -2.67945 0
M  V30 3481 C 313.103 -2.14063 -2.89318 0
M  V30 3482 C 312.711 -3.62839 -2.62777 0
M  V30 3483 C 314.455 -2.12764 -3.67331 0
M  V30 3484 C 312.362 -4.4664 -3.87643 0
M  V30 3485 H 311.292 -0.453904 -0.602069 0
M  V30 3486 H 313.943 -1.57314 -0.944698 0
M  V30 3487 H 312.325 -1.71889 -3.5675 0
M  V30 3488 H 313.499 -4.1335 -2.03662 0
M  V30 3489 H 311.814 -3.66261 -1.98096 0
M  V30 3490 H 314.411 -2.72611 -4.59987 0
M  V30 3491 H 314.754 -1.11841 -4.00995 0
M  V30 3492 H 315.287 -2.53214 -3.06802 0
M  V30 3493 H 312.026 -5.48373 -3.5912 0
M  V30 3494 H 311.546 -4.0088 -4.46156 0
M  V30 3495 H 313.225 -4.59597 -4.55389 0
M  V30 3496 N 313.357 1.07166 -1.15556 0
M  V30 3497 C 314.305 2.16517 -0.8499 0
M  V30 3498 C 315.299 1.68468 0.177454 0
M  V30 3499 O 316.505 1.79971 0.0323026 0
M  V30 3500 H 312.88 0.706652 -0.25719 0
M  V30 3501 H 314.851 2.39514 -1.77976 0
M  V30 3502 C 313.6 3.45855 -0.357682 0
M  V30 3503 H 312.923 3.83214 -1.13961 0
M  V30 3504 H 314.363 4.23607 -0.182489 0
M  V30 3505 C 312.822 3.24062 0.921152 0
M  V30 3506 O 313.352 3.48813 1.9923 0
M  V30 3507 N 311.558 2.77539 0.86141 0
M  V30 3508 H 311.105 2.57598 -0.0104408 0
M  V30 3509 H 311.063 2.63337 1.71758 0
M  V30 3510 N 314.835 0.952656 1.25548 0
M  V30 3511 C 315.783 0.462354 2.27958 0
M  V30 3512 C 316.777 -0.46634 1.62855 0
M  V30 3513 O 317.983 -0.343287 1.76696 0
M  V30 3514 H 314.358 0.13101 0.7405 0
M  V30 3515 H 316.329 1.33839 2.66702 0
M  V30 3516 C 315.078 -0.24628 3.46827 0
M  V30 3517 H 314.401 0.459192 3.97154 0
M  V30 3518 H 315.841 -0.553393 4.20373 0
M  V30 3519 C 314.3 -1.4681 3.0323 0
M  V30 3520 O 314.83 -2.56591 3.09069 0
M  V30 3521 N 313.036 -1.32874 2.58443 0
M  V30 3522 H 312.583 -0.435536 2.53891 0
M  V30 3523 H 312.541 -2.14742 2.29637 0
M  V30 3524 N 316.313 -1.40141 0.720998 0
M  V30 3525 C 317.26 -2.30688 0.071919 0
M  V30 3526 C 318.23 -1.48476 -0.744584 0
M  V30 3527 O 319.415 -1.77201 -0.707423 0
M  V30 3528 C 316.555 -3.34724 -0.839855 0
M  V30 3529 C 315.668 -4.31998 -0.0122438 0
M  V30 3530 C 314.803 -5.23102 -0.923995 0
M  V30 3531 C 313.842 -6.12033 -0.0907969 0
M  V30 3532 N 312.979 -6.95537 -0.957718 0
M  V30 3533 H 317.819 -2.85628 0.849755 0
M  V30 3534 H 315.356 -1.40653 0.430726 0
M  V30 3535 H 317.314 -3.93618 -1.38279 0
M  V30 3536 H 315.944 -2.81274 -1.58381 0
M  V30 3537 H 314.996 -3.74841 0.64794 0
M  V30 3538 H 316.308 -4.94772 0.632595 0
M  V30 3539 H 315.462 -5.86953 -1.53527 0
M  V30 3540 H 314.201 -4.60615 -1.60264 0
M  V30 3541 H 313.206 -5.47207 0.533377 0
M  V30 3542 H 314.431 -6.76581 0.584428 0
M  V30 3543 H 312.377 -6.35633 -1.62192 0
M  V30 3544 H 312.294 -7.55099 -0.36904 0
M  V30 3545 H 313.562 -7.63832 -1.555 0
M  V30 3546 N 317.792 -0.46758 -1.50504 0
M  V30 3547 C 318.725 0.374324 -2.25109 0
M  V30 3548 C 319.703 0.99921 -1.28275 0
M  V30 3549 O 320.887 1.03583 -1.57489 0
M  V30 3550 C 318.014 1.52419 -3.02467 0
M  V30 3551 C 317.06 1.01702 -4.14197 0
M  V30 3552 S 317.893 -0.0654477 -5.3546 0
M  V30 3553 C 319.049 1.08837 -6.16365 0
M  V30 3554 H 319.282 -0.258983 -2.9617 0
M  V30 3555 H 316.815 -0.252421 -1.52323 0
M  V30 3556 H 318.773 2.18322 -3.47628 0
M  V30 3557 H 317.434 2.129 -2.30938 0
M  V30 3558 H 316.627 1.87776 -4.67714 0
M  V30 3559 H 316.229 0.435757 -3.71453 0
M  V30 3560 H 318.521 2.00071 -6.47285 0
M  V30 3561 H 319.464 0.592538 -7.05616 0
M  V30 3562 H 319.872 1.34061 -5.4835 0
M  V30 3563 N 319.27 1.56325 -0.20005 0
M  V30 3564 C 320.233 2.18084 0.705132 0
M  V30 3565 C 321.233 1.13666 1.1374 0
M  V30 3566 O 322.423 1.39023 1.04968 0
M  V30 3567 C 319.555 2.78689 1.96329 0
M  V30 3568 H 320.748 2.99435 0.167023 0
M  V30 3569 H 318.301 1.56221 0.0495725 0
M  V30 3570 H 319.036 2.0115 2.5438 0
M  V30 3571 H 318.821 3.55133 1.66202 0
M  V30 3572 H 320.311 3.26096 2.60866 0
M  V30 3573 N 320.748 -0.0735177 1.57428 0
M  V30 3574 C 321.68 -1.11423 2.00294 0
M  V30 3575 C 322.693 -1.35084 0.908637 0
M  V30 3576 O 323.882 -1.33355 1.18654 0
M  V30 3577 C 320.982 -2.46548 2.32523 0
M  V30 3578 C 320.155 -2.42867 3.63778 0
M  V30 3579 C 319.214 -3.60087 3.83697 0
M  V30 3580 O 318.24 -3.41595 4.55304 0
M  V30 3581 N 319.442 -4.80372 3.25919 0
M  V30 3582 H 322.207 -0.749206 2.90184 0
M  V30 3583 H 319.768 -0.262195 1.59763 0
M  V30 3584 H 321.76 -3.23607 2.43024 0
M  V30 3585 H 320.33 -2.75059 1.48531 0
M  V30 3586 H 319.55 -1.51206 3.64047 0
M  V30 3587 H 320.838 -2.37506 4.49965 0
M  V30 3588 H 320.236 -4.983 2.67795 0
M  V30 3589 H 318.793 -5.54948 3.41871 0
M  V30 3590 N 322.226 -1.5378 -0.344866 0
M  V30 3591 C 323.472 -1.72158 -1.0832 0
M  V30 3592 C 323.827 -0.478218 -1.86362 0
M  V30 3593 O 323.12 0.529152 -1.84148 0
M  V30 3594 C 323.314 -2.92407 -2.05506 0
M  V30 3595 C 323.143 -4.28318 -1.37017 0
M  V30 3596 C 321.913 -4.92832 -1.11558 0
M  V30 3597 C 324.111 -5.08086 -0.797071 0
M  V30 3598 N 322.093 -6.12619 -0.396358 0
M  V30 3599 C 323.464 -6.1965 -0.208336 0
M  V30 3600 C 325.519 -4.92986 -0.697787 0
M  V30 3601 C 324.222 -7.17763 0.470023 0
M  V30 3602 C 326.248 -5.91391 -0.033171 0
M  V30 3603 C 325.61 -7.02292 0.544599 0
M  V30 3604 H 321.709 -0.683017 -0.380805 0
M  V30 3605 H 324.293 -1.91211 -0.366961 0
M  V30 3606 H 322.464 -2.74857 -2.74423 0
M  V30 3607 H 324.196 -2.9951 -2.72169 0
M  V30 3608 H 320.951 -4.52362 -1.40234 0
M  V30 3609 H 321.375 -6.7698 -0.0515119 0
M  V30 3610 H 326.017 -4.07414 -1.13022 0
M  V30 3611 H 323.735 -8.0291 0.914351 0
M  V30 3612 H 327.321 -5.81784 0.0430009 0
M  V30 3613 H 326.201 -7.77129 1.05073 0
M  V30 3614 N 323.704 0.605807 -1.45491 0
M  V30 3615 C 324.952 1.36207 -1.49305 0
M  V30 3616 C 325.273 1.94519 -0.136863 0
M  V30 3617 O 324.543 1.77261 0.833983 0
M  V30 3618 H 323.123 0.50565 -0.549843 0
M  V30 3619 H 325.785 0.711239 -1.81459 0
M  V30 3620 H 324.881 2.18058 -2.23287 0
M  V30 3621 N 325.182 1.32811 0.848464 0
M  V30 3622 C 326.13 1.22231 1.97895 0
M  V30 3623 C 327.124 0.125749 1.68933 0
M  V30 3624 O 328.33 0.289083 1.77663 0
M  V30 3625 H 324.705 0.379058 0.649476 0
M  V30 3626 H 326.676 2.17828 2.03945 0
M  V30 3627 C 325.425 0.968572 3.33937 0
M  V30 3628 H 324.748 1.80458 3.56756 0
M  V30 3629 H 326.188 0.934808 4.13567 0
M  V30 3630 C 324.647 -0.328628 3.35293 0
M  V30 3631 O 325.177 -1.33848 3.78745 0
M  V30 3632 N 323.383 -0.352788 2.88451 0
M  V30 3633 H 322.93 0.469541 2.53285 0
M  V30 3634 H 322.888 -1.22057 2.89741 0
M  V30 3635 N 326.66 -1.06551 1.16123 0
M  V30 3636 C 327.607 -2.13961 0.865414 0
M  V30 3637 C 328.577 -1.65066 -0.185055 0
M  V30 3638 O 329.762 -1.90732 -0.05083 0
M  V30 3639 C 326.902 -3.43113 0.369776 0
M  V30 3640 C 326.015 -4.05756 1.48276 0
M  V30 3641 C 325.15 -5.22773 0.942414 0
M  V30 3642 C 324.189 -5.77395 2.03179 0
M  V30 3643 N 323.326 -6.85731 1.50721 0
M  V30 3644 H 328.166 -2.38605 1.78527 0
M  V30 3645 H 325.703 -1.17072 0.890646 0
M  V30 3646 H 327.661 -4.17151 0.0640643 0
M  V30 3647 H 326.291 -3.18695 -0.513143 0
M  V30 3648 H 325.343 -3.29292 1.9045 0
M  V30 3649 H 326.655 -4.42351 2.30493 0
M  V30 3650 H 325.809 -6.03827 0.589729 0
M  V30 3651 H 324.548 -4.87618 0.0895191 0
M  V30 3652 H 323.553 -4.94981 2.3932 0
M  V30 3653 H 324.778 -6.14603 2.8886 0
M  V30 3654 H 322.724 -6.52499 0.676811 0
M  V30 3655 H 322.641 -7.21254 2.26557 0
M  V30 3656 H 323.909 -7.7047 1.18303 0
M  V30 3657 N 328.138 -0.959301 -1.25041 0
M  V30 3658 C 329.549 -0.65667 -1.74771 0
M  V30 3659 C 329.9 0.827852 -1.77879 0
M  V30 3660 O 329.025 1.64783 -1.40269 0
M  V30 3661 C 329.62 -1.1853 -3.1739 0
M  V30 3662 C 328.179 -0.932734 -3.6466 0
M  V30 3663 C 327.326 -1.32558 -2.43564 0
M  V30 3664 H 330.277 -1.13558 -1.10862 0
M  V30 3665 H 330.298 -0.547582 -3.76539 0
M  V30 3666 H 329.81 -2.26576 -3.15095 0
M  V30 3667 H 327.911 0.13257 -3.72364 0
M  V30 3668 H 328.024 -1.57248 -4.52559 0
M  V30 3669 H 326.388 -0.743956 -2.43593 0
M  V30 3670 H 327.171 -2.41537 -2.43957 0
M  V30 3671 N 329.616 1.39756 -0.72842 0
M  V30 3672 C 330.862 2.00942 -0.273892 0
M  V30 3673 C 331.195 1.57656 1.13394 0
M  V30 3674 O 330.47 0.802434 1.77176 0
M  V30 3675 C 330.753 3.58211 -0.368346 0
M  V30 3676 C 330.606 4.11534 -1.81548 0
M  V30 3677 C 331.925 4.39372 0.253054 0
M  V30 3678 H 329.044 0.730047 -0.100996 0
M  V30 3679 H 331.686 1.66056 -0.923337 0
M  V30 3680 H 329.836 3.88061 0.184588 0
M  V30 3681 H 331.508 3.92431 -2.42478 0
M  V30 3682 H 329.751 3.65341 -2.33898 0
M  V30 3683 H 330.422 5.20682 -1.83288 0
M  V30 3684 H 332.898 4.15527 -0.218224 0
M  V30 3685 H 331.774 5.48677 0.156585 0
M  V30 3686 H 332.035 4.21358 1.33826 0
M  V30 3687 N 331.094 0.475555 1.50254 0
M  V30 3688 C 332.334 -0.0765802 2.04256 0
M  V30 3689 C 332.698 -1.36587 1.34937 0
M  V30 3690 O 333.899 -2.00066 1.79519 0
M  V30 3691 C 332.17 -0.251668 3.56513 0
M  V30 3692 S 333.729 -0.761716 4.32138 0
M  V30 3693 H 330.547 -0.0138456 0.710865 0
M  V30 3694 H 333.149 0.643714 1.84598 0
M  V30 3695 H 331.853 0.692404 4.04517 0
M  V30 3696 H 331.384 -0.997946 3.80532 0
M  V30 3697 H 333.399 -2.03451 4.52573 0
M  V30 3698 O 332.611 -1.57666 0.349795 0
M  V30 3699 H 333.302 -1.92619 -0.204318 0
M  V30 END ATOM
M  V30 BEGIN BOND
M  V30 END BOND
M  V30 END CTAB
M  END
$$$$
