drugbank_target|P21333 Filamin-A (DB11638)
 OpenBabel12092121083D

  0  0  0     0  0            999 V3000
M  V30 BEGIN CTAB
M  V30 COUNTS 39165 39634 0 0 0
M  V30 BEGIN ATOM
M  V30 1 H -0.908 1.98254 -0.117106 0
M  V30 2 N 0 1.576 0 0
M  V30 3 C 0.933 2.03868 1.02534 0
M  V30 4 C 1.911 0.928543 1.3348 0
M  V30 5 O 3.095 1.19667 1.45644 0
M  V30 6 C 0.222 2.43627 2.35294 0
M  V30 7 C -0.732 3.65373 2.2001 0
M  V30 8 S 0.101 5.13292 1.52614 0
M  V30 9 C 1.257 5.56322 2.86805 0
M  V30 10 H 1.49 2.90518 0.631377 0
M  V30 11 H -0.977 1.52953 0.210867 0
M  V30 12 H 0.981 2.67203 3.11629 0
M  V30 13 H -0.358 1.57376 2.7183 0
M  V30 14 H -1.165 3.90944 3.18086 0
M  V30 15 H -1.563 3.418 1.51819 0
M  V30 16 H 0.729 5.58782 3.83104 0
M  V30 17 H 1.672 6.56266 2.65933 0
M  V30 18 H 2.08 4.83886 2.90714 0
M  V30 19 N 1.4781 -0.272755 1.55222 0
M  V30 20 C 2.7031 -1.02683 1.80197 0
M  V30 21 C 3.1281 -1.79142 0.573551 0
M  V30 22 O 2.4861 -1.74917 -0.476849 0
M  V30 23 C 2.5341 -1.9609 3.02624 0
M  V30 24 O 1.6381 -3.04863 2.77727 0
M  V30 25 H 0.9791 -0.293557 0.595584 0
M  V30 26 H 3.5091 -0.30159 2.02365 0
M  V30 27 H 3.5191 -2.38039 3.31363 0
M  V30 28 H 2.1941 -1.39851 3.91682 0
M  V30 29 H 0.7711 -2.67228 2.60084 0
M  V30 30 N 2.9562 -1.48159 -0.537278 0
M  V30 31 C 4.1812 -1.59707 -1.32319 0
M  V30 32 C 4.6062 -0.254859 -1.86365 0
M  V30 33 O 3.9642 0.772378 -1.64024 0
M  V30 34 C 4.0122 -2.6412 -2.45505 0
M  V30 35 O 3.1162 -2.20774 -3.48328 0
M  V30 36 H 2.4572 -0.535791 -0.392204 0
M  V30 37 H 4.9872 -1.94092 -0.647268 0
M  V30 38 H 4.9972 -2.85166 -2.91795 0
M  V30 39 H 3.6722 -3.61567 -2.05528 0
M  V30 40 H 2.2492 -2.09911 -3.08207 0
M  V30 41 N 4.4343 0.785586 -1.36625 0
M  V30 42 C 5.6593 1.57963 -1.34397 0
M  V30 43 C 6.0843 1.87964 0.071526 0
M  V30 44 O 5.4423 1.48182 1.0446 0
M  V30 45 C 5.4903 2.87511 -2.17646 0
M  V30 46 O 4.5943 3.81281 -1.57158 0
M  V30 47 H 3.9353 0.479014 -0.459828 0
M  V30 48 H 6.4653 0.973411 -1.79961 0
M  V30 49 H 6.4753 3.36745 -2.30362 0
M  V30 50 H 5.1503 2.65002 -3.20541 0
M  V30 51 H 3.7273 3.39885 -1.53403 0
M  V30 52 N 5.9124 1.20967 1.01018 0
M  V30 53 C 6.8624 0.93182 2.08089 0
M  V30 54 C 7.8464 -0.110898 1.60517 0
M  V30 55 O 9.0384 0.0973392 1.76732 0
M  V30 56 C 6.1674 0.492719 3.39746 0
M  V30 57 C 5.2534 1.56922 3.94 0
M  V30 58 N 5.6444 2.79312 4.21686 0
M  V30 59 C 3.9424 1.43688 4.2222 0
M  V30 60 C 4.6434 3.48797 4.65527 0
M  V30 61 N 3.6194 2.76224 4.68189 0
M  V30 62 H 7.4214 1.86175 2.27412 0
M  V30 63 H 4.9354 1.10463 1.19045 0
M  V30 64 H 6.9324 0.275044 4.15992 0
M  V30 65 H 5.5924 -0.430509 3.21833 0
M  V30 66 H 6.6034 3.15903 4.10397 0
M  V30 67 H 3.2804 0.578548 4.13472 0
M  V30 68 H 4.6704 4.53561 4.95714 0
M  V30 69 N 7.3905 -1.2043 1.01659 0
M  V30 70 C 8.6155 -1.94318 0.724942 0
M  V30 71 C 9.0405 -1.74266 -0.708034 0
M  V30 72 O 8.3985 -1.03694 -1.48719 0
M  V30 73 C 8.4465 -3.44486 1.06591 0
M  V30 74 O 7.5505 -4.12017 0.177599 0
M  V30 75 H 6.8915 -0.60708 0.26898 0
M  V30 76 H 9.4215 -1.52861 1.35995 0
M  V30 77 H 9.4315 -3.95106 1.01762 0
M  V30 78 H 8.1065 -3.58404 2.10997 0
M  V30 79 H 6.6835 -3.71821 0.283421 0
M  V30 80 N 8.8686 -0.792821 -1.36206 0
M  V30 81 C 10.2846 -0.474903 -1.52371 0
M  V30 82 C 10.4846 1.00622 -1.74578 0
M  V30 83 O 9.5406 1.79162 -1.77924 0
M  V30 84 C 10.8536 -1.3083 -2.70747 0
M  V30 85 C 12.4016 -1.30234 -2.84619 0
M  V30 86 C 12.8766 -2.11956 -4.06004 0
M  V30 87 N 14.3676 -2.09419 -4.13156 0
M  V30 88 C 15.1026 -2.69419 -5.06163 0
M  V30 89 N 14.5986 -3.3829 -6.04592 0
M  V30 90 N 16.3916 -2.59134 -4.98804 0
M  V30 91 H 8.5426 -1.75222 -1.20046 0
M  V30 92 H 10.8056 -0.745024 -0.586211 0
M  V30 93 H 10.5116 -2.35881 -2.6087 0
M  V30 94 H 10.3856 -0.95196 -3.6499 0
M  V30 95 H 12.7726 -0.259748 -2.93955 0
M  V30 96 H 12.8536 -1.69847 -1.91274 0
M  V30 97 H 12.4976 -3.16248 -3.97429 0
M  V30 98 H 12.4276 -1.69711 -4.98503 0
M  V30 99 H 14.9186 -1.59297 -3.42685 0
M  V30 100 H 15.2316 -3.81394 -6.7213 0
M  V30 101 H 13.5766 -3.42393 -6.04807 0
M  V30 102 H 16.7676 -2.04927 -4.20859 0
M  V30 103 H 16.9406 -3.06185 -5.711 0
M  V30 104 N 10.3467 1.47872 -0.545128 0
M  V30 105 C 11.3097 2.28337 0.198717 0
M  V30 106 C 12.3097 1.36255 0.853888 0
M  V30 107 O 13.4997 1.59003 0.711606 0
M  V30 108 C 10.6317 3.15585 1.28915 0
M  V30 109 H 11.8247 2.95567 -0.507941 0
M  V30 110 H 9.3777 1.53362 -0.301616 0
M  V30 111 H 10.1127 2.53019 2.02859 0
M  V30 112 H 9.8977 3.83337 0.824309 0
M  V30 113 H 11.3877 3.76243 1.81194 0
M  V30 114 N 11.8248 0.280983 1.55075 0
M  V30 115 C 13.0728 -0.333455 1.9933 0
M  V30 116 C 13.3938 -1.55937 1.17085 0
M  V30 117 O 12.6638 -1.94143 0.261805 0
M  V30 118 H 11.2438 -0.126197 0.736263 0
M  V30 119 H 13.9058 0.387678 1.91005 0
M  V30 120 H 13.0018 -0.619292 3.05894 0
M  V30 121 N 13.3029 -1.57598 0.00835791 0
M  V30 122 C 14.2349 -2.05811 -1.00868 0
M  V30 123 C 15.2479 -0.977579 -1.30182 0
M  V30 124 O 16.4369 -1.25421 -1.27011 0
M  V30 125 C 13.5369 -2.45016 -2.34137 0
M  V30 126 C 12.7099 -3.75903 -2.23643 0
M  V30 127 C 11.7689 -4.01884 -3.3967 0
M  V30 128 O 10.7949 -4.72433 -3.17483 0
M  V30 129 N 11.9969 -3.50432 -4.62793 0
M  V30 130 H 14.7619 -2.93684 -0.597458 0
M  V30 131 H 12.3229 -1.60909 -0.178852 0
M  V30 132 H 14.3149 -2.59506 -3.10546 0
M  V30 133 H 12.8849 -1.62618 -2.66972 0
M  V30 134 H 12.1049 -3.7141 -1.32091 0
M  V30 135 H 13.3929 -4.61695 -2.13812 0
M  V30 136 H 12.7909 -2.93317 -4.83716 0
M  V30 137 H 11.3479 -3.70236 -5.3644 0
M  V30 138 N 14.781 0.264519 -1.55364 0
M  V30 139 C 16.006 1.01726 -1.80739 0
M  V30 140 C 16.431 1.78836 -0.583044 0
M  V30 141 O 15.789 1.75167 0.467566 0
M  V30 142 C 15.837 1.94482 -3.03659 0
M  V30 143 O 14.941 3.03386 -2.7934 0
M  V30 144 H 14.282 0.290395 -0.597132 0
M  V30 145 H 16.812 0.290854 -2.02522 0
M  V30 146 H 16.822 2.36278 -3.32621 0
M  V30 147 H 15.497 1.37772 -3.92418 0
M  V30 148 H 14.074 2.65844 -2.61498 0
M  V30 149 N 16.2591 1.48442 0.529413 0
M  V30 150 C 17.2221 1.62524 1.61612 0
M  V30 151 C 18.2221 0.498509 1.52877 0
M  V30 152 O 19.4121 0.76431 1.56537 0
M  V30 153 C 16.5441 1.59597 3.01233 0
M  V30 154 H 17.7371 2.59423 1.50465 0
M  V30 155 H 15.2901 1.37047 0.751514 0
M  V30 156 H 16.0251 0.641781 3.17886 0
M  V30 157 H 15.8101 2.41397 3.08982 0
M  V30 158 H 17.3001 1.72646 3.80241 0
M  V30 159 N 17.7372 -0.778329 1.37039 0
M  V30 160 C 18.7002 -1.87301 1.32102 0
M  V30 161 C 19.7002 -1.59198 0.226405 0
M  V30 162 O 20.8902 -1.67403 0.481861 0
M  V30 163 C 18.0222 -3.24309 1.05055 0
M  V30 164 H 19.2152 -1.93093 2.29467 0
M  V30 165 H 16.7682 -0.977358 1.21973 0
M  V30 166 H 17.5032 -3.24196 0.0819373 0
M  V30 167 H 17.2882 -3.46098 1.84279 0
M  V30 168 H 18.7782 -4.04382 1.04234 0
M  V30 169 N 19.2153 -1.21501 -1.00376 0
M  V30 170 C 20.4633 -1.03095 -1.73827 0
M  V30 171 C 20.7843 0.436341 -1.90055 0
M  V30 172 O 20.0543 1.31466 -1.45236 0
M  V30 173 H 18.6343 -0.378487 -0.644016 0
M  V30 174 H 21.2963 -1.52831 -1.20949 0
M  V30 175 H 20.3923 -1.49991 -2.73695 0
M  V30 176 N 20.6934 1.19889 -1.02296 0
M  V30 177 C 21.6564 2.21116 -0.603351 0
M  V30 178 C 22.6564 1.5738 0.329884 0
M  V30 179 O 23.8464 1.73802 0.117702 0
M  V30 180 C 20.9784 3.40696 0.117992 0
M  V30 181 H 22.1714 2.59754 -1.49893 0
M  V30 182 H 19.7244 1.33463 -0.813468 0
M  V30 183 H 20.4594 3.07569 1.0282 0
M  V30 184 H 20.2444 3.88188 -0.552511 0
M  V30 185 H 21.7344 4.15692 0.398696 0
M  V30 186 N 22.1715 0.800033 1.35784 0
M  V30 187 C 23.1345 0.211565 2.28221 0
M  V30 188 C 24.1345 -0.59728 1.49296 0
M  V30 189 O 25.3245 -0.416721 1.69142 0
M  V30 190 C 22.4565 -0.705846 3.33513 0
M  V30 191 H 23.6495 1.02677 2.81776 0
M  V30 192 H 21.2025 0.570211 1.45528 0
M  V30 193 H 21.9375 -1.54498 2.85133 0
M  V30 194 H 21.7225 -0.127655 3.91892 0
M  V30 195 H 23.2125 -1.11211 4.02519 0
M  V30 196 N 23.6496 -1.47581 0.552962 0
M  V30 197 C 25.0606 -1.86324 0.118463 0
M  V30 198 C 25.4116 -1.46006 -1.3106 0
M  V30 199 O 24.5366 -0.861182 -1.98526 0
M  V30 200 C 25.1316 -3.3816 0.20821 0
M  V30 201 C 23.6906 -3.7601 -0.171226 0
M  V30 202 C 22.8376 -2.71634 0.557686 0
M  V30 203 H 25.7886 -1.39159 0.762928 0
M  V30 204 H 25.8096 -3.76141 -0.574278 0
M  V30 205 H 25.3216 -3.67473 1.24841 0
M  V30 206 H 23.4226 -3.52313 -1.21269 0
M  V30 207 H 23.5356 -4.78745 0.184379 0
M  V30 208 H 21.8996 -2.547 0.00125792 0
M  V30 209 H 22.6826 -3.0379 1.59896 0
M  V30 210 N 25.1277 -0.289203 -1.54924 0
M  V30 211 C 26.3757 0.322879 -1.99504 0
M  V30 212 C 26.6967 1.55313 -1.1791 0
M  V30 213 O 25.9667 1.94001 -0.272097 0
M  V30 214 H 24.5467 0.122291 -0.736922 0
M  V30 215 H 27.2087 -0.397802 -1.90797 0
M  V30 216 H 26.3047 0.603061 -3.06218 0
M  V30 217 N 26.6058 1.57591 -0.0167156 0
M  V30 218 C 27.8538 1.90906 0.663285 0
M  V30 219 C 28.1748 0.892509 1.73376 0
M  V30 220 O 27.4448 -0.0677623 1.95783 0
M  V30 221 H 26.0248 0.704637 0.247983 0
M  V30 222 H 28.6868 1.94803 -0.0615909 0
M  V30 223 H 27.7828 2.9116 1.12393 0
M  V30 224 N 28.0839 -0.256276 1.55502 0
M  V30 225 C 29.3319 -0.983672 1.76545 0
M  V30 226 C 29.6529 -1.86206 0.578982 0
M  V30 227 O 28.9229 -1.91656 -0.405577 0
M  V30 228 H 27.5029 -0.366191 0.651086 0
M  V30 229 H 30.1649 -0.276479 1.92929 0
M  V30 230 H 29.2609 -1.61087 2.67315 0
M  V30 231 N 29.562 -1.4872 -0.521534 0
M  V30 232 C 30.808 -1.574 -1.27879 0
M  V30 233 C 31.141 -0.250817 -1.92573 0
M  V30 234 O 30.416 0.743934 -1.79711 0
M  V30 235 C 30.699 -2.71843 -2.36164 0
M  V30 236 C 30.552 -4.13893 -1.76105 0
M  V30 237 C 31.871 -2.82008 -3.37875 0
M  V30 238 H 28.99 -0.572941 -0.463581 0
M  V30 239 H 31.632 -1.80927 -0.580119 0
M  V30 240 H 29.782 -2.51914 -2.95756 0
M  V30 241 H 31.454 -4.45284 -1.20499 0
M  V30 242 H 29.697 -4.20498 -1.06601 0
M  V30 243 H 30.368 -4.89804 -2.5455 0
M  V30 244 H 32.844 -3.00086 -2.88249 0
M  V30 245 H 31.72 -3.63796 -4.11028 0
M  V30 246 H 31.981 -1.90511 -3.98946 0
M  V30 247 N 31.0401 0.771051 -1.3745 0
M  V30 248 C 32.3171 1.519 -1.23231 0
M  V30 249 C 32.6971 2.10383 0.173809 0
M  V30 250 O 32.0451 1.95583 1.18151 0
M  V30 251 C 32.2551 2.59933 -2.32886 0
M  V30 252 C 33.6031 3.27316 -2.70461 0
M  V30 253 O 34.6271 2.70228 -2.32068 0
M  V30 254 O 33.4861 4.30531 -3.36608 0
M  V30 255 H 30.5801 0.672803 -0.480901 0
M  V30 256 H 33.1261 0.807957 -1.49232 0
M  V30 257 H 31.8981 2.14842 -3.27045 0
M  V30 258 H 31.5211 3.38637 -2.08353 0
M  V30 259 N 32.5182 1.22032 0.997298 0
M  V30 260 C 33.7462 1.06841 1.7718 0
M  V30 261 C 34.1612 -0.381325 1.84909 0
M  V30 262 O 33.5182 -1.26437 1.31605 0
M  V30 263 C 33.5692 1.66814 3.20711 0
M  V30 264 O 33.2902 3.06116 3.13408 0
M  V30 265 C 34.7912 1.56838 4.14628 0
M  V30 266 H 32.0112 0.374782 0.556578 0
M  V30 267 H 34.5552 1.61532 1.2541 0
M  V30 268 H 32.7102 1.16196 3.69564 0
M  V30 269 H 33.1242 3.34926 4.0364 0
M  V30 270 H 34.5982 2.03532 5.13107 0
M  V30 271 H 35.0752 0.524155 4.36061 0
M  V30 272 H 35.6812 2.06741 3.7167 0
M  V30 273 N 33.9963 -1.19345 1.0293 0
M  V30 274 C 35.4123 -1.41069 0.746446 0
M  V30 275 C 35.6123 -1.90078 -0.668776 0
M  V30 276 O 34.6683 -2.0778 -1.4347 0
M  V30 277 C 35.9813 -2.42141 1.78292 0
M  V30 278 C 37.5293 -2.55887 1.80252 0
M  V30 279 C 38.0043 -3.60214 2.8286 0
M  V30 280 N 39.4953 -3.67711 2.81679 0
M  V30 281 C 40.2303 -4.48128 3.57727 0
M  V30 282 N 39.7263 -5.32248 4.43491 0
M  V30 283 N 41.5193 -4.42782 3.46267 0
M  V30 284 H 33.6703 -0.858536 1.94275 0
M  V30 285 H 35.9333 -0.439541 0.839945 0
M  V30 286 H 35.6393 -2.13155 2.79746 0
M  V30 287 H 35.5133 -3.41323 1.60557 0
M  V30 288 H 37.9003 -2.84196 0.794757 0
M  V30 289 H 37.9813 -1.56858 2.02062 0
M  V30 290 H 37.6253 -3.32647 3.83807 0
M  V30 291 H 37.5553 -4.58895 2.58307 0
M  V30 292 H 40.0463 -3.07634 2.19476 0
M  V30 293 H 40.3593 -5.90729 4.98256 0
M  V30 294 H 38.7043 -5.31707 4.47564 0
M  V30 295 H 41.8953 -3.76107 2.78677 0
M  V30 296 H 42.0683 -5.05215 4.05785 0
M  V30 297 N 35.4744 -0.807222 -1.35358 0
M  V30 298 C 36.7514 -0.311126 -1.9311 0
M  V30 299 C 37.1314 1.19937 -1.73719 0
M  V30 300 O 36.4794 1.99918 -1.10657 0
M  V30 301 C 36.6894 -0.723226 -3.41424 0
M  V30 302 C 38.0374 -0.713078 -4.18569 0
M  V30 303 O 39.0614 -0.664811 -3.49941 0
M  V30 304 O 37.9204 -0.772022 -5.41019 0
M  V30 305 H 35.0144 -0.081526 -0.822972 0
M  V30 306 H 37.5604 -0.890962 -1.4443 0
M  V30 307 H 36.3324 -1.76426 -3.4927 0
M  V30 308 H 35.9554 -0.118232 -3.97424 0
M  V30 309 N 36.9525 1.47285 -0.560781 0
M  V30 310 C 37.9155 2.28535 0.174488 0
M  V30 311 C 38.9155 1.37153 0.839388 0
M  V30 312 O 40.1055 1.59748 0.694702 0
M  V30 313 C 37.2375 3.16934 1.25561 0
M  V30 314 H 38.4305 2.95012 -0.539262 0
M  V30 315 H 35.9835 1.53034 -0.317865 0
M  V30 316 H 36.7185 2.55157 2.00164 0
M  V30 317 H 36.5035 3.8419 0.783604 0
M  V30 318 H 37.9935 3.78143 1.77193 0
M  V30 319 N 38.4306 0.297415 1.54768 0
M  V30 320 C 39.3406 -0.58983 2.27064 0
M  V30 321 C 40.3566 -1.15144 1.30453 0
M  V30 322 O 41.5326 -1.17699 1.63428 0
M  V30 323 C 38.5976 -1.74714 2.9946 0
M  V30 324 C 37.6586 -1.21997 4.11601 0
M  V30 325 C 36.8916 -2.32212 4.80535 0
M  V30 326 O 37.1146 -3.52036 4.48806 0
M  V30 327 O 36.0486 -1.99106 5.68014 0
M  V30 328 H 39.8746 -0.00348199 3.037 0
M  V30 329 H 37.4596 0.0640035 1.49263 0
M  V30 330 H 39.3416 -2.42147 3.44881 0
M  V30 331 H 38.0166 -2.32016 2.25722 0
M  V30 332 H 36.9236 -0.511458 3.70587 0
M  V30 333 H 38.2566 -0.692419 4.87305 0
M  V30 334 N 39.9087 -1.5758 0.0250728 0
M  V30 335 C 40.8417 -2.05473 -0.992777 0
M  V30 336 C 41.8197 -0.949661 -1.31986 0
M  V30 337 O 43.0037 -1.21969 -1.43722 0
M  V30 338 C 40.1307 -2.4734 -2.31389 0
M  V30 339 C 39.1767 -3.68827 -2.1417 0
M  V30 340 S 40.0097 -5.15655 -1.44429 0
M  V30 341 C 41.1657 -5.60814 -2.77918 0
M  V30 342 H 41.3987 -2.91486 -0.585078 0
M  V30 343 H 38.9317 -1.53269 -0.186507 0
M  V30 344 H 40.8897 -2.72127 -3.07339 0
M  V30 345 H 39.5507 -1.6168 -2.69292 0
M  V30 346 H 38.7437 -3.95955 -3.11826 0
M  V30 347 H 38.3457 -3.44172 -1.46362 0
M  V30 348 H 40.6377 -5.64806 -3.74166 0
M  V30 349 H 41.5807 -6.60414 -2.55459 0
M  V30 350 H 41.9887 -4.8845 -2.82979 0
M  V30 351 N 41.3868 0.248026 -1.55636 0
M  V30 352 C 42.7978 0.817177 -1.67866 0
M  V30 353 C 43.1488 1.86069 -0.622322 0
M  V30 354 O 42.2738 2.15157 0.231618 0
M  V30 355 C 42.8688 1.489 -3.04326 0
M  V30 356 C 41.4278 2.00587 -3.185 0
M  V30 357 C 40.5748 0.856573 -2.63739 0
M  V30 358 H 43.5258 0.0238579 -1.58682 0
M  V30 359 H 43.5468 2.35698 -2.98708 0
M  V30 360 H 43.0588 0.729279 -3.81186 0
M  V30 361 H 41.1598 2.79443 -2.4646 0
M  V30 362 H 41.2728 2.20402 -4.25393 0
M  V30 363 H 39.6368 1.25678 -2.21534 0
M  V30 364 H 40.4198 0.109953 -3.43124 0
M  V30 365 N 42.8649 1.48995 0.513639 0
M  V30 366 C 43.8279 1.64229 1.59879 0
M  V30 367 C 44.8279 0.514696 1.5234 0
M  V30 368 O 46.0179 0.78087 1.55718 0
M  V30 369 C 43.1499 1.62783 2.99524 0
M  V30 370 H 44.3429 2.61004 1.47705 0
M  V30 371 H 41.8959 1.37837 0.736936 0
M  V30 372 H 42.6309 0.675461 3.17188 0
M  V30 373 H 42.4159 2.4466 3.06404 0
M  V30 374 H 43.9059 1.76669 3.78388 0
M  V30 375 N 44.343 -0.763751 1.37857 0
M  V30 376 C 45.571 -1.55293 1.36718 0
M  V30 377 C 45.986 -1.88745 -0.0455434 0
M  V30 378 O 45.343 -1.52039 -1.00947 0
M  V30 379 C 45.394 -2.85831 2.2132 0
M  V30 380 O 45.115 -2.5381 3.57089 0
M  V30 381 C 46.616 -3.80023 2.28249 0
M  V30 382 H 43.836 -0.480841 0.468009 0
M  V30 383 H 46.38 -0.946009 1.81303 0
M  V30 384 H 44.535 -3.42926 1.80223 0
M  V30 385 H 44.949 -3.37459 4.01524 0
M  V30 386 H 46.423 -4.68599 2.91752 0
M  V30 387 H 46.9 -4.1973 1.2932 0
M  V30 388 H 47.506 -3.28855 2.69693 0
M  V30 389 N 45.8211 -1.22559 -0.990812 0
M  V30 390 C 46.7311 -1.01394 -2.11557 0
M  V30 391 C 47.7471 0.0383962 -1.73958 0
M  V30 392 O 48.9231 -0.154787 -2.00804 0
M  V30 393 C 45.9881 -0.596569 -3.41529 0
M  V30 394 C 45.0491 -1.72276 -3.93217 0
M  V30 395 C 44.2821 -1.32521 -5.16985 0
M  V30 396 O 44.5051 -0.204909 -5.70032 0
M  V30 397 O 43.4391 -2.14247 -5.62478 0
M  V30 398 H 47.2651 -1.95633 -2.32296 0
M  V30 399 H 44.8501 -1.01172 -1.0993 0
M  V30 400 H 46.7321 -0.374263 -4.19735 0
M  V30 401 H 45.4071 0.316939 -3.22145 0
M  V30 402 H 44.3141 -1.99961 -3.16174 0
M  V30 403 H 45.6471 -2.61421 -4.17037 0
M  V30 404 N 47.2992 1.18797 -1.03562 0
M  V30 405 C 48.2462 2.22253 -0.622259 0
M  V30 406 C 49.2162 1.61987 0.36736 0
M  V30 407 O 50.4012 1.88986 0.262492 0
M  V30 408 C 47.5412 3.45097 0.0138462 0
M  V30 409 C 46.6542 4.19722 -1.02263 0
M  V30 410 C 45.7892 5.30009 -0.355573 0
M  V30 411 C 44.8282 5.96399 -1.37749 0
M  V30 412 N 43.9652 6.98234 -0.735766 0
M  V30 413 H 48.8052 2.56968 -1.50903 0
M  V30 414 H 46.3422 1.26245 -0.755017 0
M  V30 415 H 48.3002 4.15279 0.399948 0
M  V30 416 H 46.9302 3.11018 0.864158 0
M  V30 417 H 45.9822 3.48418 -1.52673 0
M  V30 418 H 47.2942 4.65227 -1.79903 0
M  V30 419 H 46.4482 6.0664 0.0850095 0
M  V30 420 H 45.1872 4.85592 0.452967 0
M  V30 421 H 44.1922 5.18512 -1.82826 0
M  V30 422 H 45.4172 6.42899 -2.18764 0
M  V30 423 H 43.3632 6.55979 0.0525597 0
M  V30 424 H 43.2802 7.41965 -1.44995 0
M  V30 425 H 44.5482 7.78845 -0.31941 0
M  V30 426 N 48.7773 0.814389 1.34928 0
M  V30 427 C 50.0543 0.321363 1.92942 0
M  V30 428 C 50.4343 -1.19014 1.74353 0
M  V30 429 O 49.7823 -1.99328 1.11716 0
M  V30 430 C 49.9923 0.741323 3.41036 0
M  V30 431 C 51.3403 0.735266 4.18185 0
M  V30 432 O 52.3643 0.68336 3.49584 0
M  V30 433 O 51.2233 0.800703 5.40602 0
M  V30 434 H 48.3173 0.0858893 0.822528 0
M  V30 435 H 50.8633 0.898609 1.43955 0
M  V30 436 H 49.6353 1.78276 3.4833 0
M  V30 437 H 49.2583 0.139307 3.97356 0
M  V30 438 N 50.2554 -1.46986 0.568584 0
M  V30 439 C 51.1854 -2.32946 -0.160753 0
M  V30 440 C 52.1664 -1.44487 -0.897631 0
M  V30 441 O 53.3514 -1.73327 -0.875867 0
M  V30 442 C 50.4814 -3.26494 -1.18403 0
M  V30 443 C 49.4354 -4.24282 -0.562895 0
M  V30 444 C 48.7614 -5.07236 -1.69163 0
M  V30 445 C 50.0614 -5.19989 0.490761 0
M  V30 446 H 51.7554 -2.94175 0.556916 0
M  V30 447 H 49.3014 -1.4146 0.26927 0
M  V30 448 H 51.2544 -3.85477 -1.70251 0
M  V30 449 H 49.9784 -2.63343 -1.93179 0
M  V30 450 H 48.6374 -3.66541 -0.0656164 0
M  V30 451 H 48.2854 -4.4048 -2.42871 0
M  V30 452 H 47.9854 -5.7345 -1.28174 0
M  V30 453 H 49.5094 -5.6908 -2.21314 0
M  V30 454 H 50.9234 -5.73271 0.0579047 0
M  V30 455 H 49.3204 -5.94469 0.820165 0
M  V30 456 H 50.3904 -4.64777 1.3824 0
M  V30 457 N 51.7335 -0.305618 -1.54608 0
M  V30 458 C 52.6965 0.555591 -2.22364 0
M  V30 459 C 53.6965 1.05768 -1.21119 0
M  V30 460 O 54.8865 0.952972 -1.45822 0
M  V30 461 C 52.0185 1.76974 -2.91364 0
M  V30 462 H 53.2115 -0.0364572 -2.99878 0
M  V30 463 H 50.7645 -0.0565007 -1.56198 0
M  V30 464 H 51.4995 2.40151 -2.17941 0
M  V30 465 H 51.2845 1.41732 -3.65588 0
M  V30 466 H 52.7745 2.38148 -3.43038 0
M  V30 467 N 53.2116 1.57565 -0.0334293 0
M  V30 468 C 54.1216 2.13943 0.962572 0
M  V30 469 C 55.1376 1.09276 1.35406 0
M  V30 470 O 56.3136 1.41355 1.4346 0
M  V30 471 C 53.3786 2.65887 2.22497 0
M  V30 472 C 52.4396 3.85286 1.8935 0
M  V30 473 C 51.6726 4.34743 3.09571 0
M  V30 474 O 51.8956 3.83352 4.22371 0
M  V30 475 O 50.8296 5.26538 2.91618 0
M  V30 476 H 54.6556 2.99333 0.513169 0
M  V30 477 H 52.2406 1.4822 0.18743 0
M  V30 478 H 54.1226 2.99346 2.96598 0
M  V30 479 H 52.7976 1.83578 2.6661 0
M  V30 480 H 51.7046 3.56746 1.1262 0
M  V30 481 H 53.0376 4.68771 1.5005 0
M  V30 482 N 54.6897 -0.239769 1.55765 0
M  V30 483 C 55.9667 -0.990056 1.68693 0
M  V30 484 C 56.3467 -2.03107 0.5754 0
M  V30 485 O 55.6947 -2.24604 -0.42017 0
M  V30 486 C 55.9047 -1.61696 3.09282 0
M  V30 487 C 57.2527 -2.11613 3.6811 0
M  V30 488 O 58.2767 -1.71624 3.12127 0
M  V30 489 O 57.1357 -2.85057 4.66267 0
M  V30 490 H 54.2297 -0.461299 0.686391 0
M  V30 491 H 56.7757 -0.232991 1.68093 0
M  V30 492 H 55.5477 -0.864357 3.81634 0
M  V30 493 H 55.1707 -2.44005 3.13923 0
M  V30 494 N 56.1678 -1.49265 -0.50573 0
M  V30 495 C 57.1308 -1.65075 -1.59006 0
M  V30 496 C 58.1308 -0.522768 -1.52065 0
M  V30 497 O 59.3208 -0.789117 -1.55302 0
M  V30 498 C 56.4528 -1.64369 -2.98656 0
M  V30 499 H 57.6458 -2.61784 -1.46319 0
M  V30 500 H 55.1988 -1.38226 -0.729616 0
M  V30 501 H 55.9338 -0.692272 -3.16825 0
M  V30 502 H 55.7188 -2.46282 -3.05103 0
M  V30 503 H 57.2088 -1.78674 -3.77446 0
M  V30 504 N 57.6459 0.756429 -1.3826 0
M  V30 505 C 59.0569 1.33359 -1.30661 0
M  V30 506 C 59.4079 1.96161 0.0388875 0
M  V30 507 O 58.5329 1.94874 0.940918 0
M  V30 508 C 59.1279 2.42477 -2.36622 0
M  V30 509 C 57.6869 2.95922 -2.3261 0
M  V30 510 C 56.8339 1.69275 -2.19639 0
M  V30 511 H 59.7849 0.55552 -1.4866 0
M  V30 512 H 59.8059 3.22345 -2.02174 0
M  V30 513 H 59.3179 1.96739 -3.34538 0
M  V30 514 H 57.4189 3.45996 -1.38267 0
M  V30 515 H 57.5319 3.50494 -3.26636 0
M  V30 516 H 55.8959 1.92793 -1.66442 0
M  V30 517 H 56.6789 1.25619 -3.19491 0
M  V30 518 N 59.124 1.23083 0.984299 0
M  V30 519 C 60.37 1.07221 1.72845 0
M  V30 520 C 60.725 -0.387453 1.88458 0
M  V30 521 O 60.018 -1.28309 1.42293 0
M  V30 522 C 60.212 1.72673 3.1292 0
M  V30 523 C 60.041 3.24853 3.10967 0
M  V30 524 C 58.811 3.93998 3.16376 0
M  V30 525 C 61.009 4.21674 2.94441 0
M  V30 526 N 58.991 5.33192 3.04268 0
M  V30 527 C 60.362 5.47756 2.90453 0
M  V30 528 C 62.417 4.12457 2.78897 0
M  V30 529 C 61.12 6.6568 2.72512 0
M  V30 530 C 63.146 5.3004 2.62319 0
M  V30 531 C 62.508 6.55046 2.59026 0
M  V30 532 H 58.607 0.44685 0.641755 0
M  V30 533 H 61.191 1.55753 1.16829 0
M  V30 534 H 59.362 1.26679 3.67161 0
M  V30 535 H 61.094 1.49824 3.75945 0
M  V30 536 H 57.849 3.45052 3.24401 0
M  V30 537 H 58.273 6.06157 3.015 0
M  V30 538 H 62.915 3.16588 2.80235 0
M  V30 539 H 60.633 7.61689 2.69919 0
M  V30 540 H 64.219 5.24747 2.5126 0
M  V30 541 H 63.099 7.44498 2.46357 0
M  V30 542 N 60.6021 -1.18246 1.0419 0
M  V30 543 C 61.5491 -2.2192 0.634037 0
M  V30 544 C 62.5191 -1.62179 -0.358765 0
M  V30 545 O 63.7041 -1.89122 -0.252466 0
M  V30 546 C 60.8441 -3.451 0.00445535 0
M  V30 547 C 59.9571 -4.19174 1.04487 0
M  V30 548 C 59.0921 -5.29813 0.383676 0
M  V30 549 C 58.1311 -5.9566 1.4091 0
M  V30 550 N 57.2681 -6.97834 0.772784 0
M  V30 551 H 62.1081 -2.56164 1.52263 0
M  V30 552 H 59.6451 -1.25843 0.761701 0
M  V30 553 H 61.6031 -4.15485 -0.377919 0
M  V30 554 H 60.2331 -3.11472 -0.847652 0
M  V30 555 H 59.2851 -3.47604 1.54518 0
M  V30 556 H 60.5971 -4.64267 1.82368 0
M  V30 557 H 59.7511 -6.06677 -0.0528366 0
M  V30 558 H 58.4901 -4.85825 -0.427208 0
M  V30 559 H 57.4951 -5.17535 1.85574 0
M  V30 560 H 58.7201 -6.4173 2.22171 0
M  V30 561 H 56.6661 -6.55998 -0.0177708 0
M  V30 562 H 56.5831 -7.41186 1.48928 0
M  V30 563 H 57.8511 -7.78665 0.36071 0
M  V30 564 N 62.0802 -0.821533 -1.34494 0
M  V30 565 C 63.0272 -0.240397 -2.29545 0
M  V30 566 C 63.9972 0.634031 -1.53523 0
M  V30 567 O 65.1822 0.575966 -1.81899 0
M  V30 568 C 62.3222 0.592869 -3.39969 0
M  V30 569 C 61.4352 -0.30365 -4.30932 0
M  V30 570 C 60.5702 0.539049 -5.28458 0
M  V30 571 C 59.6092 -0.356942 -6.11058 0
M  V30 572 N 58.7462 0.446603 -7.00678 0
M  V30 573 H 63.5862 -1.05632 -2.7865 0
M  V30 574 H 61.1232 -0.532413 -1.37127 0
M  V30 575 H 63.0812 1.09129 -4.02675 0
M  V30 576 H 61.7112 1.37392 -2.92102 0
M  V30 577 H 60.7632 -0.920276 -3.691 0
M  V30 578 H 62.0752 -0.992661 -4.88823 0
M  V30 579 H 61.2292 1.102 -5.96608 0
M  V30 580 H 59.9682 1.26157 -4.71101 0
M  V30 581 H 58.9732 -0.932047 -5.41842 0
M  V30 582 H 60.1982 -1.07755 -6.70497 0
M  V30 583 H 58.1442 1.15282 -6.45791 0
M  V30 584 H 58.0612 -0.184048 -7.55776 0
M  V30 585 H 59.3292 0.992352 -7.73158 0
M  V30 586 N 63.5583 1.46682 -0.576371 0
M  V30 587 C 64.8073 2.01619 -0.0572825 0
M  V30 588 C 65.1203 1.45417 1.30818 0
M  V30 589 O 66.3263 1.92133 1.91825 0
M  V30 590 C 64.7823 3.59863 -0.0518371 0
M  V30 591 C 64.3903 4.25059 -1.41523 0
M  V30 592 C 66.1343 4.2248 0.413639 0
M  V30 593 C 64.0413 5.75364 -1.36785 0
M  V30 594 H 62.9713 0.753794 -0.0176448 0
M  V30 595 H 65.6223 1.68481 -0.727076 0
M  V30 596 H 64.0043 3.90048 0.683994 0
M  V30 597 H 65.1783 4.06491 -2.17029 0
M  V30 598 H 63.4933 3.7451 -1.8202 0
M  V30 599 H 66.0903 5.3265 0.467779 0
M  V30 600 H 66.4333 3.90976 1.42982 0
M  V30 601 H 66.9663 3.96897 -0.267929 0
M  V30 602 H 63.7053 6.11518 -2.36063 0
M  V30 603 H 63.2253 5.96214 -0.654895 0
M  V30 604 H 64.9043 6.37955 -1.07805 0
M  V30 605 N 65.0364 0.313813 1.54444 0
M  V30 606 C 65.9684 -0.590425 2.21465 0
M  V30 607 C 66.9814 -1.08753 1.21147 0
M  V30 608 O 68.1704 -1.00278 1.4767 0
M  V30 609 C 65.2704 -1.82179 2.85769 0
M  V30 610 C 64.4434 -1.46502 4.12136 0
M  V30 611 C 63.5024 -2.55288 4.60124 0
M  V30 612 O 62.5284 -2.19842 5.25032 0
M  V30 613 N 63.7304 -3.86053 4.33525 0
M  V30 614 H 66.4954 -0.0166033 2.99695 0
M  V30 615 H 64.0564 0.136578 1.61323 0
M  V30 616 H 66.0484 -2.54328 3.14801 0
M  V30 617 H 64.6184 -2.30369 2.11303 0
M  V30 618 H 63.8384 -0.575595 3.89975 0
M  V30 619 H 65.1264 -1.20221 4.94393 0
M  V30 620 H 64.5244 -4.17654 3.81552 0
M  V30 621 H 63.0814 -4.54461 4.67235 0
M  V30 622 N 66.5145 -1.57545 0.0417849 0
M  V30 623 C 67.4465 -2.07904 -0.964799 0
M  V30 624 C 68.4595 -1.00497 -1.28079 0
M  V30 625 O 69.6485 -1.28087 -1.24322 0
M  V30 626 C 66.7485 -2.49928 -2.28887 0
M  V30 627 C 65.9215 -3.80562 -2.15619 0
M  V30 628 C 64.9805 -4.08999 -3.31069 0
M  V30 629 O 64.0065 -4.79061 -3.0739 0
M  V30 630 N 65.2085 -3.6017 -4.55256 0
M  V30 631 H 67.9735 -2.94886 -0.535029 0
M  V30 632 H 65.5345 -1.61252 -0.144681 0
M  V30 633 H 67.5265 -2.66034 -3.04972 0
M  V30 634 H 66.0965 -1.68245 -2.63463 0
M  V30 635 H 65.3165 -3.74129 -1.24183 0
M  V30 636 H 66.6045 -4.66126 -2.03971 0
M  V30 637 H 66.0025 -3.03512 -4.77386 0
M  V30 638 H 64.5595 -3.81532 -5.28466 0
M  V30 639 N 67.9926 0.231505 -1.5589 0
M  V30 640 C 68.9406 1.30649 -1.92441 0
M  V30 641 C 69.9346 1.49037 -0.805254 0
M  V30 642 O 71.1406 1.50329 -0.990007 0
M  V30 643 H 67.5156 0.437812 -0.611412 0
M  V30 644 H 69.4866 0.970973 -2.82161 0
M  V30 645 C 68.2356 2.65179 -2.24889 0
M  V30 646 H 67.5586 2.51835 -3.10514 0
M  V30 647 H 68.9986 3.39234 -2.54355 0
M  V30 648 C 67.4576 3.19439 -1.07054 0
M  V30 649 O 67.9876 4.00371 -0.326499 0
M  V30 650 N 66.1936 2.77675 -0.85703 0
M  V30 651 H 65.7406 2.11969 -1.46379 0
M  V30 652 H 65.6986 3.14321 -0.0703223 0
M  V30 653 N 69.4707 1.49531 0.497807 0
M  V30 654 C 70.6987 1.62893 1.27567 0
M  V30 655 C 71.1137 0.301585 1.86376 0
M  V30 656 O 70.4707 -0.713335 1.67982 0
M  V30 657 C 70.5217 2.70013 2.40364 0
M  V30 658 O 70.2427 3.976 1.83972 0
M  V30 659 C 71.7437 2.94109 3.31685 0
M  V30 660 H 68.9637 0.548298 0.386794 0
M  V30 661 H 71.5077 1.95584 0.597245 0
M  V30 662 H 69.6627 2.40092 3.04031 0
M  V30 663 H 70.0767 4.56631 2.58047 0
M  V30 664 H 71.5507 3.72788 4.07104 0
M  V30 665 H 72.0277 2.04147 3.88871 0
M  V30 666 H 72.6337 3.2546 2.73781 0
M  V30 667 N 70.9488 -0.749086 1.3866 0
M  V30 668 C 72.1958 -1.50833 1.35114 0
M  V30 669 C 72.5238 -1.94415 -0.0574049 0
M  V30 670 O 71.7788 -1.66065 -1.03541 0
M  V30 671 C 72.0778 -2.7712 2.25697 0
M  V30 672 C 71.7438 -2.52477 3.73585 0
M  V30 673 C 70.4058 -2.45466 4.13884 0
M  V30 674 C 72.7578 -2.31066 4.67181 0
M  V30 675 C 70.0858 -2.15064 5.45861 0
M  V30 676 C 72.4378 -2.02183 5.9942 0
M  V30 677 C 71.1018 -1.93631 6.38798 0
M  V30 678 H 70.3718 -0.551936 0.494416 0
M  V30 679 H 73.0188 -0.860979 1.71054 0
M  V30 680 H 71.3238 -3.46528 1.82827 0
M  V30 681 H 73.0208 -3.35096 2.20254 0
M  V30 682 H 69.6108 -2.58807 3.41638 0
M  V30 683 H 73.7948 -2.35459 4.3689 0
M  V30 684 H 69.0508 -2.06954 5.75308 0
M  V30 685 H 73.2248 -1.8462 6.71482 0
M  V30 686 H 70.8518 -1.69839 7.40985 0
M  V30 687 N 72.4269 -1.23603 -0.977757 0
M  V30 688 C 73.6549 -1.09646 -1.75458 0
M  V30 689 C 74.0699 0.351859 -1.85492 0
M  V30 690 O 73.4269 1.24327 -1.336 0
M  V30 691 C 73.4779 -1.71895 -3.18016 0
M  V30 692 O 73.1989 -3.11063 -3.08498 0
M  V30 693 C 74.6999 -1.63415 -4.12081 0
M  V30 694 H 71.9199 -0.38359 -0.550545 0
M  V30 695 H 74.4639 -1.63507 -1.22824 0
M  V30 696 H 72.6189 -1.22061 -3.67668 0
M  V30 697 H 73.0329 -3.41305 -3.9826 0
M  V30 698 H 74.5069 -2.11669 -5.09804 0
M  V30 699 H 74.9839 -0.593462 -4.35172 0
M  V30 700 H 75.5899 -2.12628 -3.68334 0
M  V30 701 N 73.905 1.17692 -1.04816 0
M  V30 702 C 75.321 1.39863 -0.768794 0
M  V30 703 C 75.521 1.91118 0.638451 0
M  V30 704 O 74.577 2.10036 1.40146 0
M  V30 705 C 75.89 2.39274 -1.82122 0
M  V30 706 C 77.438 2.52987 -1.843 0
M  V30 707 C 77.913 3.55669 -2.88555 0
M  V30 708 N 79.404 3.63183 -2.87493 0
M  V30 709 C 80.139 4.42381 -3.64811 0
M  V30 710 N 79.635 5.25125 -4.51903 0
M  V30 711 N 81.428 4.37217 -3.53267 0
M  V30 712 H 73.579 0.82752 -1.95617 0
M  V30 713 H 75.842 0.426123 -0.846831 0
M  V30 714 H 75.548 2.08678 -2.83102 0
M  V30 715 H 75.422 3.38725 -1.65967 0
M  V30 716 H 77.809 2.82896 -0.839869 0
M  V30 717 H 77.89 1.53623 -2.04532 0
M  V30 718 H 77.534 3.26499 -3.89051 0
M  V30 719 H 77.464 4.54728 -2.65575 0
M  V30 720 H 79.955 3.04103 -2.24343 0
M  V30 721 H 80.268 5.82728 -5.07591 0
M  V30 722 H 78.613 5.24519 -4.55966 0
M  V30 723 H 81.804 3.71626 -2.84625 0
M  V30 724 H 81.977 4.98696 -4.13771 0
M  V30 725 N 75.3831 0.828654 1.34056 0
M  V30 726 C 76.6291 0.429279 1.98818 0
M  V30 727 C 76.9841 -0.998011 1.64492 0
M  V30 728 O 76.2771 -1.68652 0.909228 0
M  V30 729 C 76.4711 0.575226 3.52741 0
M  V30 730 C 76.3001 2.01515 4.02022 0
M  V30 731 C 75.0701 2.64825 4.30344 0
M  V30 732 C 77.2681 2.98261 4.18981 0
M  V30 733 N 75.2501 3.99998 4.65698 0
M  V30 734 C 76.6211 4.18356 4.57578 0
M  V30 735 C 78.6761 2.94802 4.01243 0
M  V30 736 C 77.3791 5.35454 4.80293 0
M  V30 737 C 79.4051 4.11121 4.25128 0
M  V30 738 C 78.7671 5.29969 4.64018 0
M  V30 739 H 74.8661 0.205304 0.754569 0
M  V30 740 H 77.4501 1.07457 1.62361 0
M  V30 741 H 75.6211 -0.0401962 3.88379 0
M  V30 742 H 77.3531 0.148292 4.04428 0
M  V30 743 H 74.1081 2.16027 4.21461 0
M  V30 744 H 74.5321 4.69653 4.87601 0
M  V30 745 H 79.1741 2.04054 3.70299 0
M  V30 746 H 76.8921 6.26755 5.10102 0
M  V30 747 H 80.4781 4.0985 4.12934 0
M  V30 748 H 79.3581 6.18479 4.82134 0
M  V30 749 N 76.8612 -1.46375 0.584142 0
M  V30 750 C 78.1012 -2.0427 0.0729695 0
M  V30 751 C 78.4652 -1.44563 -1.26355 0
M  V30 752 O 79.6662 -1.93667 -1.86405 0
M  V30 753 C 77.9372 -3.57399 0.00967464 0
M  V30 754 S 79.4962 -4.36551 -0.443714 0
M  V30 755 H 76.3142 -0.709975 0.0381673 0
M  V30 756 H 78.9162 -1.79398 0.776962 0
M  V30 757 H 77.6202 -3.98372 0.986319 0
M  V30 758 H 77.1512 -3.8681 -0.717044 0
M  V30 759 H 79.1662 -4.66237 -1.69816 0
M  V30 760 N 78.3393 -0.321999 -1.54275 0
M  V30 761 C 79.2873 0.560206 -2.25753 0
M  V30 762 C 80.2813 1.11984 -1.27106 0
M  V30 763 O 81.4873 1.06806 -1.44888 0
M  V30 764 H 77.8623 0.199304 -0.725108 0
M  V30 765 H 79.8333 -0.0649365 -2.98329 0
M  V30 766 C 78.5823 1.71023 -3.02731 0
M  V30 767 H 77.9053 1.28885 -3.78456 0
M  V30 768 H 79.3453 2.30314 -3.55993 0
M  V30 769 C 77.8043 2.62692 -2.10938 0
M  V30 770 O 78.3343 3.64364 -1.6912 0
M  V30 771 N 76.5403 2.30891 -1.76459 0
M  V30 772 H 76.0873 1.48253 -2.10663 0
M  V30 773 H 76.0453 2.92487 -1.1532 0
M  V30 774 N 79.8174 1.5752 -0.0501392 0
M  V30 775 C 80.7274 2.14952 0.939827 0
M  V30 776 C 81.7434 1.10706 1.34239 0
M  V30 777 O 82.9194 1.42869 1.41952 0
M  V30 778 C 79.9844 2.68232 2.19665 0
M  V30 779 C 79.0454 3.87272 1.85253 0
M  V30 780 C 78.2784 4.38002 3.04943 0
M  V30 781 O 78.5014 3.87811 4.18281 0
M  V30 782 O 77.4354 5.29602 2.86017 0
M  V30 783 H 81.2614 2.9986 0.481392 0
M  V30 784 H 78.8464 1.4841 0.171699 0
M  V30 785 H 80.7284 3.02475 2.93406 0
M  V30 786 H 79.4034 1.86395 2.64648 0
M  V30 787 H 78.3104 3.5792 1.0883 0
M  V30 788 H 79.6434 4.70336 1.4507 0
M  V30 789 N 81.2955 -0.223234 1.56011 0
M  V30 790 C 82.2455 -1.28008 1.88674 0
M  V30 791 C 83.2295 -1.42369 0.749663 0
M  V30 792 O 84.4215 -1.45212 1.01205 0
M  V30 793 C 81.5505 -2.63084 2.20548 0
M  V30 794 C 80.6365 -2.52632 3.40643 0
M  V30 795 N 81.0275 -2.11829 4.59306 0
M  V30 796 C 79.3255 -2.83594 3.44224 0
M  V30 797 C 80.0265 -2.12587 5.41463 0
M  V30 798 N 79.0025 -2.5301 4.81131 0
M  V30 799 H 82.8045 -0.955487 2.77935 0
M  V30 800 H 80.3185 -0.431801 1.56554 0
M  V30 801 H 82.3155 -3.39385 2.42122 0
M  V30 802 H 80.9755 -2.96391 1.32599 0
M  V30 803 H 81.9865 -1.82988 4.84496 0
M  V30 804 H 78.6635 -3.21284 2.66614 0
M  V30 805 H 80.0535 -1.83179 6.46448 0
M  V30 806 N 82.7736 -1.49793 -0.48987 0
M  V30 807 C 83.7036 -1.70201 -1.59856 0
M  V30 808 C 84.6846 -0.55076 -1.60937 0
M  V30 809 O 85.8696 -0.787841 -1.77501 0
M  V30 810 C 82.9996 -1.77882 -2.98287 0
M  V30 811 C 81.9536 -2.92907 -3.12073 0
M  V30 812 C 81.2796 -2.85712 -4.51965 0
M  V30 813 C 82.5796 -4.3369 -2.91051 0
M  V30 814 H 84.2736 -2.63025 -1.43032 0
M  V30 815 H 81.8196 -1.26574 -0.686664 0
M  V30 816 H 83.7726 -1.90744 -3.75759 0
M  V30 817 H 82.4966 -0.816653 -3.16225 0
M  V30 818 H 81.1556 -2.79665 -2.37029 0
M  V30 819 H 80.8036 -1.8738 -4.66795 0
M  V30 820 H 80.5036 -3.62921 -4.62128 0
M  V30 821 H 82.0276 -3.00598 -5.31482 0
M  V30 822 H 83.4416 -4.47555 -3.58284 0
M  V30 823 H 81.8386 -5.12205 -3.12675 0
M  V30 824 H 82.9086 -4.47362 -1.87071 0
M  V30 825 N 84.2517 0.741722 -1.39055 0
M  V30 826 C 85.1987 1.85566 -1.37237 0
M  V30 827 C 86.1687 1.64457 -0.233072 0
M  V30 828 O 87.3537 1.85957 -0.427147 0
M  V30 829 C 84.4937 3.23004 -1.215 0
M  V30 830 C 83.6067 3.55864 -2.44918 0
M  V30 831 C 82.7417 4.82669 -2.21821 0
M  V30 832 C 81.7807 5.08351 -3.40948 0
M  V30 833 N 80.9177 6.26356 -3.17211 0
M  V30 834 H 85.7577 1.86455 -2.32462 0
M  V30 835 H 83.2947 0.911176 -1.15482 0
M  V30 836 H 85.2527 4.02331 -1.10389 0
M  V30 837 H 83.8827 3.21411 -0.29908 0
M  V30 838 H 82.9347 2.7129 -2.66657 0
M  V30 839 H 84.2467 3.70765 -3.33668 0
M  V30 840 H 83.4007 5.69962 -2.07914 0
M  V30 841 H 82.1397 4.69929 -1.30454 0
M  V30 842 H 81.1447 4.19522 -3.55361 0
M  V30 843 H 82.3697 5.22981 -4.33207 0
M  V30 844 H 80.3157 6.14917 -2.28502 0
M  V30 845 H 80.2327 6.41813 -3.99515 0
M  V30 846 H 81.5007 7.16506 -3.06984 0
M  V30 847 N 85.7298 1.2412 0.971189 0
M  V30 848 C 86.9698 1.09066 1.7287 0
M  V30 849 C 87.3338 -0.364794 1.88503 0
M  V30 850 O 88.5348 -0.636748 2.61149 0
M  V30 851 C 86.8058 1.80629 3.08396 0
M  V30 852 S 88.3648 1.81263 3.99611 0
M  V30 853 H 85.1828 0.390145 0.594397 0
M  V30 854 H 87.7848 1.57397 1.15959 0
M  V30 855 H 86.4888 2.85647 2.94676 0
M  V30 856 H 86.0198 1.32617 3.70373 0
M  V30 857 H 88.0348 0.877804 4.88374 0
M  V30 858 N 87.2079 -1.17134 1.05439 0
M  V30 859 C 88.4539 -1.87733 0.767077 0
M  V30 860 C 88.7869 -1.8098 -0.704253 0
M  V30 861 O 88.0619 -1.21951 -1.5152 0
M  V30 862 C 88.3449 -3.37659 1.25133 0
M  V30 863 C 88.1979 -3.53149 2.78578 0
M  V30 864 C 89.5169 -4.31768 0.852324 0
M  V30 865 H 86.6359 -0.681687 0.280129 0
M  V30 866 H 89.2779 -1.37732 1.30881 0
M  V30 867 H 87.4279 -3.80373 0.790469 0
M  V30 868 H 89.0999 -3.19434 3.32806 0
M  V30 869 H 87.3429 -2.95345 3.17732 0
M  V30 870 H 88.0139 -4.58403 3.07523 0
M  V30 871 H 90.4899 -3.96909 1.24911 0
M  V30 872 H 89.3659 -5.35199 1.21873 0
M  V30 873 H 89.6269 -4.41429 -0.243485 0
M  V30 874 N 88.686 -0.835752 -1.33615 0
M  V30 875 C 89.911 -0.442389 -2.02627 0
M  V30 876 C 90.336 0.947735 -1.62479 0
M  V30 877 O 89.694 1.61907 -0.815826 0
M  V30 878 C 89.742 -0.567216 -3.56111 0
M  V30 879 O 88.846 0.407799 -4.10379 0
M  V30 880 H 88.187 -0.180278 -0.639059 0
M  V30 881 H 90.717 -1.12972 -1.70583 0
M  V30 882 H 90.727 -0.447708 -4.05536 0
M  V30 883 H 89.402 -1.58103 -3.84677 0
M  V30 884 H 87.979 0.246107 -3.72087 0
M  V30 885 N 90.1641 1.46063 -0.591896 0
M  V30 886 C 91.1111 2.30399 0.136069 0
M  V30 887 C 92.0811 1.41169 0.875238 0
M  V30 888 O 93.2661 1.70112 0.86409 0
M  V30 889 C 90.4061 3.25804 1.13781 0
M  V30 890 C 89.5191 4.30134 0.401137 0
M  V30 891 C 88.6541 5.12659 1.39121 0
M  V30 892 C 87.6931 6.0873 0.641462 0
M  V30 893 N 86.8301 6.8409 1.58004 0
M  V30 894 H 91.6701 2.92118 -0.589144 0
M  V30 895 H 89.2071 1.43959 -0.302342 0
M  V30 896 H 91.1651 3.79569 1.73156 0
M  V30 897 H 89.7951 2.65872 1.83062 0
M  V30 898 H 88.8471 3.79152 -0.307826 0
M  V30 899 H 90.1591 4.98458 -0.184565 0
M  V30 900 H 89.3131 5.70747 2.05749 0
M  V30 901 H 88.0521 4.44316 2.01084 0
M  V30 902 H 87.0571 5.49786 -0.0385419 0
M  V30 903 H 88.2821 6.79095 0.0270945 0
M  V30 904 H 86.2281 6.18449 2.18761 0
M  V30 905 H 86.1451 7.48709 1.04738 0
M  V30 906 H 87.4131 7.4673 2.23639 0
M  V30 907 N 91.6422 0.330177 1.54103 0
M  V30 908 C 93.0582 -0.0222371 1.59585 0
M  V30 909 C 93.2582 -1.49902 1.34654 0
M  V30 910 O 92.3142 -2.25592 1.13421 0
M  V30 911 C 93.6272 0.401932 2.98002 0
M  V30 912 C 95.1752 0.353145 3.11001 0
M  V30 913 C 95.6502 0.752576 4.51775 0
M  V30 914 N 97.1412 0.706239 4.57784 0
M  V30 915 C 97.8762 0.987417 5.64834 0
M  V30 916 N 97.3722 1.33607 6.79795 0
M  V30 917 N 99.1652 0.91254 5.54643 0
M  V30 918 H 91.3162 1.29228 1.68564 0
M  V30 919 H 93.5792 0.525906 0.78875 0
M  V30 920 H 93.2852 1.4311 3.21267 0
M  V30 921 H 93.1592 -0.229699 3.765 0
M  V30 922 H 95.5462 -0.666822 2.87467 0
M  V30 923 H 95.6272 1.0198 2.34593 0
M  V30 924 H 95.2712 1.77049 4.76042 0
M  V30 925 H 95.2012 0.0635409 5.26562 0
M  V30 926 H 97.6922 0.44889 3.75224 0
M  V30 927 H 98.0052 1.53582 7.57385 0
M  V30 928 H 96.3502 1.37439 6.81275 0
M  V30 929 H 99.5412 0.639601 4.6371 0
M  V30 930 H 99.7142 1.13503 6.37982 0
M  V30 931 N 93.1203 -1.57491 0.0584922 0
M  V30 932 C 94.3693 -1.92155 -0.613146 0
M  V30 933 C 94.6823 -0.939334 -1.71569 0
M  V30 934 O 95.8883 -1.17829 -2.44599 0
M  V30 935 C 94.3443 -3.41303 -1.14195 0
M  V30 936 C 93.9523 -4.47944 -0.0711265 0
M  V30 937 C 95.6963 -3.84988 -1.78841 0
M  V30 938 C 93.6033 -5.88212 -0.613225 0
M  V30 939 H 92.5333 -0.717162 -0.232796 0
M  V30 940 H 95.1843 -1.83049 0.12857 0
M  V30 941 H 93.5663 -3.45437 -1.93621 0
M  V30 942 H 94.7403 -4.55408 0.702836 0
M  V30 943 H 93.0553 -4.13644 0.478313 0
M  V30 944 H 95.6523 -4.87159 -2.20408 0
M  V30 945 H 95.9953 -3.21632 -2.64308 0
M  V30 946 H 96.5283 -3.83401 -1.06059 0
M  V30 947 H 93.2673 -6.55183 0.203978 0
M  V30 948 H 92.7873 -5.84294 -1.35501 0
M  V30 949 H 94.4663 -6.37687 -1.09383 0
M  V30 950 N 94.5984 0.214957 -1.56127 0
M  V30 951 C 95.5614 1.24997 -1.92116 0
M  V30 952 C 96.5614 1.39467 -0.800344 0
M  V30 953 O 97.7514 1.37619 -1.06802 0
M  V30 954 C 94.8834 2.62271 -2.17777 0
M  V30 955 H 96.0764 0.942875 -2.84693 0
M  V30 956 H 93.6294 0.455654 -1.49511 0
M  V30 957 H 94.3644 2.98068 -1.27773 0
M  V30 958 H 94.1494 2.53143 -2.99434 0
M  V30 959 H 95.6394 3.36946 -2.46693 0
M  V30 960 N 96.0765 1.50051 0.48192 0
M  V30 961 C 97.0245 1.68635 1.60203 0
M  V30 962 C 98.0185 0.552184 1.60148 0
M  V30 963 O 99.2245 0.732377 1.64427 0
M  V30 964 H 95.5995 0.532081 0.531407 0
M  V30 965 H 97.5705 2.62616 1.41688 0
M  V30 966 C 96.3195 1.78775 2.9822 0
M  V30 967 H 95.6425 2.6543 2.98976 0
M  V30 968 H 97.0825 1.95806 3.7608 0
M  V30 969 C 95.5415 0.536849 3.32595 0
M  V30 970 O 96.0715 -0.328897 4.00351 0
M  V30 971 N 94.2775 0.394091 2.87915 0
M  V30 972 H 93.8245 1.09962 2.32951 0
M  V30 973 H 93.7825 -0.441737 3.11281 0
M  V30 974 N 97.5546 -0.734337 1.39446 0
M  V30 975 C 98.4846 -1.86155 1.40955 0
M  V30 976 C 99.4656 -1.67898 0.272827 0
M  V30 977 O 100.651 -1.88207 0.478743 0
M  V30 978 C 97.7806 -3.23912 1.25294 0
M  V30 979 C 96.7346 -3.56808 2.36373 0
M  V30 980 C 96.0606 -4.93508 2.058 0
M  V30 981 C 97.3606 -3.59713 3.78687 0
M  V30 982 H 99.0546 -1.8515 2.35287 0
M  V30 983 H 96.6006 -0.889367 1.13253 0
M  V30 984 H 98.5536 -4.02443 1.2497 0
M  V30 985 H 97.2776 -3.25446 0.274308 0
M  V30 986 H 95.9366 -2.80606 2.35914 0
M  V30 987 H 95.5846 -4.91623 1.06374 0
M  V30 988 H 95.2846 -5.16486 2.80208 0
M  V30 989 H 96.8086 -5.74396 2.07128 0
M  V30 990 H 98.2226 -4.2832 3.81071 0
M  V30 991 H 96.6196 -3.94209 4.52459 0
M  V30 992 H 97.6896 -2.59504 4.09617 0
M  V30 993 N 99.0327 -1.24633 -0.964593 0
M  V30 994 C 99.9647 -0.999302 -2.06268 0
M  V30 995 C 100.978 0.0323226 -1.62768 0
M  V30 996 O 102.167 -0.205079 -1.77318 0
M  V30 997 C 99.2667 -0.486816 -3.35385 0
M  V30 998 C 98.4397 -1.5823 -4.07777 0
M  V30 999 C 97.4987 -1.07191 -5.15166 0
M  V30 1000 O 96.5247 -1.76426 -5.41168 0
M  V30 1001 N 97.7267 0.0920373 -5.80427 0
M  V30 1002 H 100.492 -1.94477 -2.28033 0
M  V30 1003 H 98.0527 -1.15704 -1.13244 0
M  V30 1004 H 100.045 -0.130066 -4.04491 0
M  V30 1005 H 98.6147 0.364459 -3.10468 0
M  V30 1006 H 97.8347 -2.11109 -3.32906 0
M  V30 1007 H 99.1227 -2.31854 -4.52903 0
M  V30 1008 H 98.5207 0.670784 -5.61709 0
M  V30 1009 H 97.0777 0.389905 -6.50633 0
M  V30 1010 N 100.511 1.16574 -1.06058 0
M  V30 1011 C 101.739 1.90952 -0.796552 0
M  V30 1012 C 102.154 1.77302 0.648808 0
M  V30 1013 O 101.511 1.11605 1.44397 0
M  V30 1014 C 101.562 3.41736 -1.17894 0
M  V30 1015 O 101.283 3.54975 -2.56758 0
M  V30 1016 C 102.784 4.33169 -0.942308 0
M  V30 1017 H 100.004 0.605594 -0.288959 0
M  V30 1018 H 102.548 1.47777 -1.41358 0
M  V30 1019 H 100.703 3.82623 -0.606491 0
M  V30 1020 H 101.117 4.4846 -2.72 0
M  V30 1021 H 102.591 5.37439 -1.25952 0
M  V30 1022 H 103.068 4.3903 0.122078 0
M  V30 1023 H 103.674 3.98007 -1.49902 0
M  V30 1024 N 101.989 0.842826 1.3317 0
M  V30 1025 C 103.266 0.362216 1.92217 0
M  V30 1026 C 103.646 -1.15289 1.76838 0
M  V30 1027 O 102.994 -1.96914 1.15919 0
M  V30 1028 C 103.204 0.813495 3.39387 0
M  V30 1029 C 104.552 0.823804 4.16532 0
M  V30 1030 O 105.576 0.757358 3.48055 0
M  V30 1031 O 104.435 0.915193 5.38782 0
M  V30 1032 H 101.529 0.103317 0.820521 0
M  V30 1033 H 104.075 0.928942 1.42017 0
M  V30 1034 H 102.847 1.85624 3.4447 0
M  V30 1035 H 102.47 0.223561 3.96971 0
M  V30 1036 N 103.467 -1.45747 0.599634 0
M  V30 1037 C 104.397 -2.33235 -0.111306 0
M  V30 1038 C 105.378 -1.46359 -0.866781 0
M  V30 1039 O 106.563 -1.75146 -0.838904 0
M  V30 1040 C 103.693 -3.28932 -1.11451 0
M  V30 1041 C 102.647 -4.25381 -0.472772 0
M  V30 1042 C 101.973 -5.1071 -1.58365 0
M  V30 1043 C 103.273 -5.18831 0.600948 0
M  V30 1044 H 104.967 -2.92927 0.61919 0
M  V30 1045 H 102.513 -1.40857 0.299215 0
M  V30 1046 H 104.466 -3.89002 -1.62036 0
M  V30 1047 H 103.19 -2.67381 -1.8755 0
M  V30 1048 H 101.849 -3.66598 0.0121472 0
M  V30 1049 H 101.497 -4.45533 -2.33473 0
M  V30 1050 H 101.197 -5.7604 -1.15982 0
M  V30 1051 H 102.721 -5.73647 -2.09194 0
M  V30 1052 H 104.135 -5.73019 0.179491 0
M  V30 1053 H 102.532 -5.92595 0.946076 0
M  V30 1054 H 103.602 -4.6174 1.48068 0
M  V30 1055 N 104.945 -0.338344 -1.53925 0
M  V30 1056 C 106.17 0.263987 -2.05713 0
M  V30 1057 C 106.595 1.43847 -1.21201 0
M  V30 1058 O 105.953 1.79904 -0.224535 0
M  V30 1059 C 106.001 0.662 -3.54471 0
M  V30 1060 O 105.105 1.76265 -3.72833 0
M  V30 1061 H 104.446 0.0448722 -0.662482 0
M  V30 1062 H 106.976 -0.491048 -1.9862 0
M  V30 1063 H 106.986 0.940594 -3.9701 0
M  V30 1064 H 105.661 -0.196937 -4.15433 0
M  V30 1065 H 104.238 1.48173 -3.42198 0
M  V30 1066 N 106.423 1.57458 -0.0668435 0
M  V30 1067 C 107.7 1.8469 0.644132 0
M  V30 1068 C 108.08 0.958343 1.88093 0
M  V30 1069 O 107.428 0.0233579 2.28488 0
M  V30 1070 C 107.638 3.34767 0.986509 0
M  V30 1071 C 108.986 4.02159 1.36212 0
M  V30 1072 O 110.01 3.39484 1.07839 0
M  V30 1073 O 108.869 5.12694 1.89227 0
M  V30 1074 H 105.963 0.762816 0.319437 0
M  V30 1075 H 108.509 1.6942 -0.0973986 0
M  V30 1076 H 107.281 3.91151 0.107883 0
M  V30 1077 H 106.904 3.55281 1.78497 0
M  V30 1078 N 107.901 -0.206675 1.56239 0
M  V30 1079 C 109.149 -0.927007 1.79586 0
M  V30 1080 C 109.47 -1.8427 0.637929 0
M  V30 1081 O 108.74 -1.92849 -0.344398 0
M  V30 1082 H 107.32 -0.345292 0.662407 0
M  V30 1083 H 109.982 -0.21496 1.93711 0
M  V30 1084 H 109.078 -1.52501 2.72305 0
M  V30 1085 N 109.379 -1.50304 -0.473955 0
M  V30 1086 C 110.309 -1.71886 -1.58042 0
M  V30 1087 C 111.29 -0.567799 -1.60344 0
M  V30 1088 O 112.475 -0.806623 -1.76656 0
M  V30 1089 C 109.605 -1.81036 -2.96384 0
M  V30 1090 C 108.559 -2.962 -3.08949 0
M  V30 1091 C 107.885 -2.9049 -4.48909 0
M  V30 1092 C 109.185 -4.36752 -2.86434 0
M  V30 1093 H 110.879 -2.64527 -1.40234 0
M  V30 1094 H 108.425 -1.27295 -0.673201 0
M  V30 1095 H 110.378 -1.94719 -3.73714 0
M  V30 1096 H 109.102 -0.850147 -3.15341 0
M  V30 1097 H 107.761 -2.82164 -2.3405 0
M  V30 1098 H 107.409 -1.92321 -4.64781 0
M  V30 1099 H 107.109 -3.67802 -4.58253 0
M  V30 1100 H 108.633 -3.06218 -5.28264 0
M  V30 1101 H 110.047 -4.5133 -3.53517 0
M  V30 1102 H 108.444 -5.15493 -3.07225 0
M  V30 1103 H 109.514 -4.49321 -1.82316 0
M  V30 1104 N 110.857 0.726932 -1.39834 0
M  V30 1105 C 112.273 1.03354 -1.21615 0
M  V30 1106 C 112.473 2.01327 -0.08338 0
M  V30 1107 O 111.529 2.46158 0.56238 0
M  V30 1108 C 112.842 1.58811 -2.55342 0
M  V30 1109 C 114.39 1.70851 -2.62257 0
M  V30 1110 C 114.865 2.29716 -3.96225 0
M  V30 1111 N 116.356 2.37116 -3.97907 0
M  V30 1112 C 117.091 2.83619 -4.98345 0
M  V30 1113 N 116.587 3.29958 -6.09179 0
M  V30 1114 N 118.38 2.82901 -4.8572 0
M  V30 1115 H 110.531 0.0773069 -2.12259 0
M  V30 1116 H 112.794 0.0969102 -0.943034 0
M  V30 1117 H 112.5 0.942855 -3.38826 0
M  V30 1118 H 112.374 2.57502 -2.75632 0
M  V30 1119 H 114.761 2.34497 -1.79152 0
M  V30 1120 H 114.842 0.707913 -2.45809 0
M  V30 1121 H 114.486 1.66696 -4.79765 0
M  V30 1122 H 114.416 3.30469 -4.09997 0
M  V30 1123 H 116.907 2.04374 -3.17868 0
M  V30 1124 H 117.22 3.63976 -6.8172 0
M  V30 1125 H 115.565 3.27946 -6.12761 0
M  V30 1126 H 118.756 2.46027 -3.98231 0
M  V30 1127 H 118.929 3.18827 -5.6414 0
M  V30 1128 N 112.336 1.25143 0.95797 0
M  V30 1129 C 113.266 1.07711 2.07173 0
M  V30 1130 C 114.247 -0.0128462 1.70095 0
M  V30 1131 O 115.432 0.156061 1.93572 0
M  V30 1132 C 112.562 0.691503 3.40346 0
M  V30 1133 C 111.516 1.73132 3.9142 0
M  V30 1134 C 110.842 1.20049 5.21049 0
M  V30 1135 C 112.142 3.1294 4.1817 0
M  V30 1136 H 113.836 2.00873 2.22014 0
M  V30 1137 H 111.382 0.967191 1.06684 0
M  V30 1138 H 113.335 0.556505 4.17709 0
M  V30 1139 H 112.059 -0.275819 3.25433 0
M  V30 1140 H 110.718 1.8547 3.16222 0
M  V30 1141 H 110.366 0.223499 5.02503 0
M  V30 1142 H 110.066 1.89545 5.56189 0
M  V30 1143 H 111.59 1.07782 6.01012 0
M  V30 1144 H 113.004 3.03775 4.86203 0
M  V30 1145 H 111.401 3.79875 4.64559 0
M  V30 1146 H 112.471 3.6025 3.24573 0
M  V30 1147 N 113.814 -1.1601 1.06675 0
M  V30 1148 C 115.063 -1.85973 0.780818 0
M  V30 1149 C 115.376 -1.82819 -0.695444 0
M  V30 1150 O 116.582 -2.484 -1.09589 0
M  V30 1151 C 115.038 -3.33757 1.34665 0
M  V30 1152 C 114.646 -3.45374 2.85343 0
M  V30 1153 C 116.39 -4.0895 1.13843 0
M  V30 1154 C 114.297 -4.87266 3.35151 0
M  V30 1155 H 113.227 -0.696661 0.288407 0
M  V30 1156 H 115.878 -1.30903 1.28595 0
M  V30 1157 H 114.26 -3.88456 0.769274 0
M  V30 1158 H 115.434 -3.00816 3.49065 0
M  V30 1159 H 113.749 -2.83619 3.04876 0
M  V30 1160 H 116.346 -5.13654 1.4854 0
M  V30 1161 H 116.689 -4.16229 0.0770282 0
M  V30 1162 H 117.222 -3.605 1.68179 0
M  V30 1163 H 113.961 -4.85168 4.40786 0
M  V30 1164 H 113.481 -5.32433 2.76179 0
M  V30 1165 H 115.16 -5.56097 3.30704 0
M  V30 1166 N 115.292 -0.849877 -1.32721 0
M  V30 1167 C 116.255 -0.296122 -2.27279 0
M  V30 1168 C 117.255 0.541458 -1.5141 0
M  V30 1169 O 118.445 0.353658 -1.70572 0
M  V30 1170 C 115.577 0.581579 -3.35902 0
M  V30 1171 H 116.77 -1.13064 -2.77771 0
M  V30 1172 H 114.323 -0.62383 -1.43311 0
M  V30 1173 H 115.058 1.43809 -2.9067 0
M  V30 1174 H 114.843 -0.0178814 -3.92096 0
M  V30 1175 H 116.333 0.961951 -4.0637 0
M  V30 1176 N 116.77 1.45427 -0.607355 0
M  V30 1177 C 117.7 2.3329 0.0989352 0
M  V30 1178 C 118.681 1.46816 0.859007 0
M  V30 1179 O 119.866 1.75588 0.829604 0
M  V30 1180 C 116.996 3.29518 1.09705 0
M  V30 1181 C 115.95 4.25626 0.450206 0
M  V30 1182 C 115.276 5.11542 1.55655 0
M  V30 1183 C 116.576 5.18505 -0.628455 0
M  V30 1184 H 118.27 2.92595 -0.634716 0
M  V30 1185 H 115.816 1.40696 -0.306681 0
M  V30 1186 H 117.769 3.89855 1.59971 0
M  V30 1187 H 116.493 2.68372 1.86129 0
M  V30 1188 H 115.152 3.66586 -0.0315886 0
M  V30 1189 H 114.8 4.46765 2.31107 0
M  V30 1190 H 114.5 5.76647 1.12925 0
M  V30 1191 H 116.024 5.74748 2.06148 0
M  V30 1192 H 117.438 5.72916 -0.209877 0
M  V30 1193 H 115.835 5.92085 -0.977489 0
M  V30 1194 H 116.905 4.60948 -1.50514 0
M  V30 1195 N 118.248 0.346503 1.53744 0
M  V30 1196 C 119.178 -0.501193 2.28058 0
M  V30 1197 C 120.159 -1.10014 1.29734 0
M  V30 1198 O 121.344 -1.12097 1.58581 0
M  V30 1199 C 118.474 -1.65078 3.05559 0
M  V30 1200 C 117.428 -1.18003 4.11411 0
M  V30 1201 C 116.754 -2.41837 4.76884 0
M  V30 1202 C 118.054 -0.278394 5.21558 0
M  V30 1203 H 119.748 0.11875 2.99164 0
M  V30 1204 H 117.294 0.0585531 1.43881 0
M  V30 1205 H 119.247 -2.25028 3.56287 0
M  V30 1206 H 117.971 -2.29767 2.32109 0
M  V30 1207 H 116.63 -0.603331 3.61601 0
M  V30 1208 H 116.278 -3.0494 4.00026 0
M  V30 1209 H 115.978 -2.1102 5.48402 0
M  V30 1210 H 117.502 -3.02508 5.30397 0
M  V30 1211 H 118.916 -0.784823 5.67903 0
M  V30 1212 H 117.313 -0.0619707 6.00068 0
M  V30 1213 H 118.383 0.684677 4.80042 0
M  V30 1214 N 119.726 -1.57421 0.075193 0
M  V30 1215 C 120.636 -2.1642 -0.905511 0
M  V30 1216 C 121.652 -1.12828 -1.32461 0
M  V30 1217 O 122.828 -1.45109 -1.39661 0
M  V30 1218 C 119.893 -2.71693 -2.15369 0
M  V30 1219 C 118.954 -3.90171 -1.79068 0
M  V30 1220 C 118.187 -4.42798 -2.97936 0
M  V30 1221 O 118.41 -3.94416 -4.12058 0
M  V30 1222 O 117.344 -5.34085 -2.77555 0
M  V30 1223 H 121.17 -3.00588 -0.433626 0
M  V30 1224 H 118.755 -1.48664 -0.148067 0
M  V30 1225 H 120.637 -3.07104 -2.88557 0
M  V30 1226 H 119.312 -1.90582 -2.61649 0
M  V30 1227 H 118.219 -3.59606 -1.03122 0
M  V30 1228 H 119.552 -4.72584 -1.37569 0
M  V30 1229 N 121.204 0.198386 -1.56346 0
M  V30 1230 C 122.45 0.920648 -1.80698 0
M  V30 1231 C 122.783 1.83045 -0.648697 0
M  V30 1232 O 122.058 1.91308 0.350925 0
M  V30 1233 C 122.341 1.73971 -3.15287 0
M  V30 1234 C 122.194 0.85485 -4.41602 0
M  V30 1235 C 123.513 2.71296 -3.46535 0
M  V30 1236 H 120.632 0.333261 -0.657348 0
M  V30 1237 H 123.274 0.188198 -1.89066 0
M  V30 1238 H 121.424 2.36416 -3.08285 0
M  V30 1239 H 123.096 0.245362 -4.60647 0
M  V30 1240 H 121.339 0.161398 -4.335 0
M  V30 1241 H 122.01 1.46286 -5.32264 0
M  V30 1242 H 124.486 2.18983 -3.53816 0
M  V30 1243 H 123.362 3.2569 -4.41834 0
M  V30 1244 H 123.623 3.5018 -2.69864 0
M  V30 1245 N 122.682 1.50554 0.465978 0
M  V30 1246 C 123.612 1.72722 1.57128 0
M  V30 1247 C 124.593 0.576294 1.6004 0
M  V30 1248 O 125.778 0.81598 1.76225 0
M  V30 1249 C 122.908 1.82605 2.95419 0
M  V30 1250 C 121.862 2.97835 3.07373 0
M  V30 1251 C 121.188 2.92867 4.47363 0
M  V30 1252 C 122.488 4.38265 2.84114 0
M  V30 1253 H 124.182 2.65267 1.38829 0
M  V30 1254 H 121.728 1.2765 0.666441 0
M  V30 1255 H 123.681 1.96698 3.72677 0
M  V30 1256 H 122.405 0.866858 3.14886 0
M  V30 1257 H 121.064 2.83401 2.3255 0
M  V30 1258 H 120.712 1.94783 4.63755 0
M  V30 1259 H 120.412 3.70227 4.56296 0
M  V30 1260 H 121.936 3.09015 5.26633 0
M  V30 1261 H 123.35 4.53198 3.51118 0
M  V30 1262 H 121.747 5.17115 3.04487 0
M  V30 1263 H 122.817 4.50281 1.7993 0
M  V30 1264 N 124.16 -0.719506 1.40217 0
M  V30 1265 C 125.385 -1.51371 1.4178 0
M  V30 1266 C 125.81 -1.88091 0.0182355 0
M  V30 1267 O 125.168 -1.52997 -0.972707 0
M  V30 1268 C 125.216 -2.768 2.31115 0
M  V30 1269 O 124.32 -3.73349 1.7517 0
M  V30 1270 H 123.661 -0.456529 0.482159 0
M  V30 1271 H 126.191 -0.88644 1.844 0
M  V30 1272 H 126.201 -3.25371 2.46167 0
M  V30 1273 H 124.876 -2.49407 3.3282 0
M  V30 1274 H 123.453 -3.32179 1.69444 0
M  V30 1275 N 125.638 -1.25649 -0.95132 0
M  V30 1276 C 126.57 -1.02112 -2.05197 0
M  V30 1277 C 127.583 0.0150571 -1.62793 0
M  V30 1278 O 128.772 -0.223874 -1.77091 0
M  V30 1279 C 125.872 -0.522361 -3.3485 0
M  V30 1280 C 125.045 -1.62546 -4.06076 0
M  V30 1281 C 124.104 -1.12649 -5.14001 0
M  V30 1282 O 123.13 -1.82156 -5.39266 0
M  V30 1283 N 124.332 0.03047 -5.80492 0
M  V30 1284 H 127.097 -1.96885 -2.25957 0
M  V30 1285 H 124.658 -1.16899 -1.1201 0
M  V30 1286 H 126.65 -0.172961 -4.0433 0
M  V30 1287 H 125.22 0.33151 -3.10837 0
M  V30 1288 H 124.44 -2.14628 -3.30649 0
M  V30 1289 H 125.728 -2.36644 -4.50419 0
M  V30 1290 H 125.126 0.611169 -5.62389 0
M  V30 1291 H 123.683 0.320875 -6.5101 0
M  V30 1292 N 127.117 1.15442 -1.07289 0
M  V30 1293 C 128.064 2.20161 -0.692653 0
M  V30 1294 C 129.034 1.63073 0.31564 0
M  V30 1295 O 130.219 1.89725 0.202235 0
M  V30 1296 C 127.359 3.44967 -0.0959509 0
M  V30 1297 C 126.472 4.16256 -1.15564 0
M  V30 1298 C 125.607 5.28609 -0.524011 0
M  V30 1299 C 124.646 5.91715 -1.56653 0
M  V30 1300 N 123.783 6.9554 -0.957531 0
M  V30 1301 H 128.623 2.52037 -1.59002 0
M  V30 1302 H 126.16 1.2378 -0.794798 0
M  V30 1303 H 128.118 4.16341 0.267628 0
M  V30 1304 H 126.748 3.1361 0.764772 0
M  V30 1305 H 125.8 3.43385 -1.6368 0
M  V30 1306 H 127.112 4.59268 -1.94613 0
M  V30 1307 H 126.266 6.06604 -0.108032 0
M  V30 1308 H 125.005 4.86787 0.29825 0
M  V30 1309 H 124.01 5.12433 -1.9923 0
M  V30 1310 H 125.235 6.35614 -2.39107 0
M  V30 1311 H 123.181 6.55814 -0.156162 0
M  V30 1312 H 123.098 7.36977 -1.68526 0
M  V30 1313 H 124.366 7.77435 -0.567032 0
M  V30 1314 N 128.595 0.856903 1.32268 0
M  V30 1315 C 129.542 0.301172 2.28827 0
M  V30 1316 C 130.512 -0.593104 1.5515 0
M  V30 1317 O 131.697 -0.527537 1.83362 0
M  V30 1318 C 128.837 -0.502523 3.41422 0
M  V30 1319 C 127.95 0.417797 4.29975 0
M  V30 1320 C 127.085 -0.398749 5.29701 0
M  V30 1321 C 126.124 0.518827 6.09897 0
M  V30 1322 N 125.261 -0.260674 7.01616 0
M  V30 1323 H 130.101 1.12983 2.75751 0
M  V30 1324 H 127.638 0.568582 1.35667 0
M  V30 1325 H 129.596 -0.984141 4.05426 0
M  V30 1326 H 128.226 -1.29599 2.95642 0
M  V30 1327 H 127.278 1.01781 3.66531 0
M  V30 1328 H 128.59 1.12191 4.86019 0
M  V30 1329 H 127.744 -0.943435 5.9932 0
M  V30 1330 H 126.483 -1.13622 4.7428 0
M  V30 1331 H 125.488 1.07538 5.39181 0
M  V30 1332 H 126.713 1.25495 6.67404 0
M  V30 1333 H 124.659 -0.981198 6.4862 0
M  V30 1334 H 124.576 0.384364 7.55022 0
M  V30 1335 H 125.844 -0.787014 7.75517 0
M  V30 1336 N 130.073 -1.45103 0.615059 0
M  V30 1337 C 131.006 -2.27717 -0.148408 0
M  V30 1338 C 131.984 -1.37584 -0.866572 0
M  V30 1339 O 133.168 -1.67017 -0.87393 0
M  V30 1340 C 130.295 -3.16136 -1.21557 0
M  V30 1341 C 129.341 -4.22263 -0.599712 0
M  V30 1342 S 130.174 -5.3215 0.598081 0
M  V30 1343 C 131.33 -6.24137 -0.469484 0
M  V30 1344 H 131.563 -2.92121 0.552483 0
M  V30 1345 H 129.096 -1.49054 0.402778 0
M  V30 1346 H 131.054 -3.67633 -1.82638 0
M  V30 1347 H 129.715 -2.50982 -1.88857 0
M  V30 1348 H 128.908 -4.84081 -1.4029 0
M  V30 1349 H 128.51 -3.73945 -0.063876 0
M  V30 1350 H 130.802 -6.63984 -1.34652 0
M  V30 1351 H 131.745 -7.0801 0.112725 0
M  V30 1352 H 132.153 -5.58971 -0.788168 0
M  V30 1353 N 131.551 -0.354651 -1.53558 0
M  V30 1354 C 132.501 0.513179 -2.2215 0
M  V30 1355 C 133.485 1.05734 -1.21281 0
M  V30 1356 O 134.677 0.989202 -1.46778 0
M  V30 1357 C 131.806 1.65798 -3.00609 0
M  V30 1358 C 130.892 1.12722 -4.08845 0
M  V30 1359 N 131.283 0.318563 -5.04796 0
M  V30 1360 C 129.581 1.40307 -4.23356 0
M  V30 1361 C 130.282 0.0292224 -5.81693 0
M  V30 1362 N 129.258 0.623891 -5.40008 0
M  V30 1363 H 133.06 -0.111586 -2.93688 0
M  V30 1364 H 130.574 -0.162091 -1.61589 0
M  V30 1365 H 132.571 2.29176 -3.48258 0
M  V30 1366 H 131.231 2.28591 -2.306 0
M  V30 1367 H 132.242 -0.0413091 -5.17884 0
M  V30 1368 H 128.919 2.03458 -3.6457 0
M  V30 1369 H 130.309 -0.623808 -6.68998 0
M  V30 1370 N 133.029 1.57378 -0.0835403 0
M  V30 1371 C 134.445 1.57246 0.273109 0
M  V30 1372 C 134.645 1.09385 1.69225 0
M  V30 1373 O 133.701 0.765051 2.40631 0
M  V30 1374 C 135.014 3.00614 0.0720628 0
M  V30 1375 C 136.562 3.12684 0.1407 0
M  V30 1376 C 137.037 4.57989 -0.0322094 0
M  V30 1377 N 138.528 4.63194 0.0230085 0
M  V30 1378 C 139.263 5.73335 -0.0861941 0
M  V30 1379 N 138.759 6.9235 -0.24958 0
M  V30 1380 N 140.552 5.62093 -0.0282886 0
M  V30 1381 H 132.703 1.86801 -1.0109 0
M  V30 1382 H 134.966 0.861687 -0.395222 0
M  V30 1383 H 134.672 3.39786 -0.907662 0
M  V30 1384 H 134.546 3.68193 0.81936 0
M  V30 1385 H 136.933 2.73391 1.11092 0
M  V30 1386 H 137.014 2.47719 -0.637896 0
M  V30 1387 H 136.658 4.97973 -0.999247 0
M  V30 1388 H 136.588 5.21 0.765937 0
M  V30 1389 H 139.079 3.77613 0.14722 0
M  V30 1390 H 139.392 7.72117 -0.324733 0
M  V30 1391 H 137.737 6.94415 -0.285097 0
M  V30 1392 H 140.928 4.67997 0.0981408 0
M  V30 1393 H 141.101 6.47895 -0.116845 0
M  V30 1394 N 134.507 -0.190092 1.56449 0
M  V30 1395 C 135.454 -1.23557 1.94942 0
M  V30 1396 C 136.424 -1.44972 0.810696 0
M  V30 1397 O 137.609 -1.58023 1.06927 0
M  V30 1398 C 134.749 -2.57416 2.2985 0
M  V30 1399 C 133.862 -2.43537 3.5681 0
M  V30 1400 C 132.997 -3.70134 3.81017 0
M  V30 1401 C 132.036 -3.51109 5.01387 0
M  V30 1402 N 131.173 -4.6973 5.21822 0
M  V30 1403 H 136.013 -0.900304 2.84075 0
M  V30 1404 H 133.55 -0.43318 1.40577 0
M  V30 1405 H 135.508 -3.35409 2.48106 0
M  V30 1406 H 134.138 -2.88975 1.43852 0
M  V30 1407 H 133.19 -1.56816 3.46573 0
M  V30 1408 H 134.502 -2.25415 4.4496 0
M  V30 1409 H 133.656 -4.56566 3.9954 0
M  V30 1410 H 132.395 -3.91215 2.91207 0
M  V30 1411 H 131.4 -2.63063 4.82782 0
M  V30 1412 H 132.625 -3.31468 5.9271 0
M  V30 1413 H 130.571 -4.91065 4.34961 0
M  V30 1414 H 130.488 -4.54452 6.0416 0
M  V30 1415 H 131.756 -5.57499 5.44808 0
M  V30 1416 N 135.985 -1.50799 -0.457987 0
M  V30 1417 C 136.935 -1.67003 -1.55222 0
M  V30 1418 C 137.919 -0.52434 -1.52117 0
M  V30 1419 O 139.111 -0.779345 -1.58919 0
M  V30 1420 C 136.24 -1.77956 -2.93576 0
M  V30 1421 C 135.326 -2.98243 -3.01516 0
M  V30 1422 N 135.717 -4.21732 -2.79241 0
M  V30 1423 C 134.015 -2.97072 -3.32662 0
M  V30 1424 C 134.716 -5.02817 -2.92489 0
M  V30 1425 N 133.692 -4.37038 -3.23262 0
M  V30 1426 H 137.494 -2.60163 -1.36721 0
M  V30 1427 H 135.008 -1.48163 -0.664952 0
M  V30 1428 H 137.005 -1.87671 -3.72271 0
M  V30 1429 H 135.665 -0.859634 -3.13114 0
M  V30 1430 H 136.676 -4.51016 -2.54567 0
M  V30 1431 H 133.353 -2.14631 -3.58106 0
M  V30 1432 H 134.743 -6.11054 -2.79396 0
M  V30 1433 N 137.463 0.71206 -1.40597 0
M  V30 1434 C 138.411 1.84746 -1.41321 0
M  V30 1435 C 139.405 1.66842 -0.293268 0
M  V30 1436 O 140.611 1.73904 -0.464481 0
M  V30 1437 H 136.986 0.608522 -0.441819 0
M  V30 1438 H 138.957 1.81252 -2.37045 0
M  V30 1439 C 137.706 3.22638 -1.29614 0
M  V30 1440 H 137.029 3.37023 -2.15071 0
M  V30 1441 H 138.469 4.02209 -1.3418 0
M  V30 1442 C 136.928 3.36899 -0.00673121 0
M  V30 1443 O 137.458 3.90186 0.954859 0
M  V30 1444 N 135.664 2.9053 0.0639327 0
M  V30 1445 H 135.211 2.47353 -0.719311 0
M  V30 1446 H 135.169 3.0045 0.926118 0
M  V30 1447 N 138.941 1.26152 0.944643 0
M  V30 1448 C 139.873 1.03199 2.04652 0
M  V30 1449 C 140.886 -0.00642356 1.62799 0
M  V30 1450 O 142.075 0.233263 1.76969 0
M  V30 1451 C 139.175 0.540111 3.34568 0
M  V30 1452 C 138.348 1.64697 4.05208 0
M  V30 1453 C 137.407 1.15374 5.13396 0
M  V30 1454 O 136.433 1.85013 5.38293 0
M  V30 1455 N 137.635 0.00031529 5.805 0
M  V30 1456 H 140.4 1.9808 2.2491 0
M  V30 1457 H 137.961 1.17491 1.11389 0
M  V30 1458 H 139.953 0.194401 4.04233 0
M  V30 1459 H 138.523 -0.315021 3.11009 0
M  V30 1460 H 137.743 2.16379 3.29506 0
M  V30 1461 H 139.031 2.3903 4.49157 0
M  V30 1462 H 138.429 -0.581336 5.62705 0
M  V30 1463 H 136.986 -0.286346 6.51171 0
M  V30 1464 N 140.419 -1.14872 1.07899 0
M  V30 1465 C 141.835 -1.37776 0.805606 0
M  V30 1466 C 142.035 -1.92743 -0.587555 0
M  V30 1467 O 141.091 -2.13678 -1.34528 0
M  V30 1468 C 142.404 -2.34361 1.88402 0
M  V30 1469 C 143.952 -2.48012 1.90942 0
M  V30 1470 C 144.427 -3.47893 2.97883 0
M  V30 1471 N 145.918 -3.55433 2.97021 0
M  V30 1472 C 146.653 -4.32553 3.76412 0
M  V30 1473 N 146.149 -5.12959 4.65666 0
M  V30 1474 N 147.942 -4.27697 3.64735 0
M  V30 1475 H 140.093 -0.775365 1.97742 0
M  V30 1476 H 142.356 -0.403521 0.857831 0
M  V30 1477 H 142.062 -2.01098 2.88535 0
M  V30 1478 H 141.936 -3.34206 1.74889 0
M  V30 1479 H 144.323 -2.8057 0.914579 0
M  V30 1480 H 144.404 -1.48147 2.08534 0
M  V30 1481 H 144.048 -3.16069 3.97571 0
M  V30 1482 H 143.978 -4.47527 2.77538 0
M  V30 1483 H 146.469 -2.98048 2.32326 0
M  V30 1484 H 146.782 -5.69065 5.22862 0
M  V30 1485 H 145.127 -5.12245 4.69712 0
M  V30 1486 H 148.318 -3.63949 2.94378 0
M  V30 1487 H 148.491 -4.8755 4.26848 0
M  V30 1488 N 141.898 -0.863906 -1.31812 0
M  V30 1489 C 143.309 -0.52522 -1.7916 0
M  V30 1490 C 143.66 0.957518 -1.71248 0
M  V30 1491 O 142.785 1.74734 -1.27659 0
M  V30 1492 C 143.38 -0.9466 -3.25307 0
M  V30 1493 C 141.939 -0.659668 -3.70574 0
M  V30 1494 C 141.086 -1.14126 -2.52726 0
M  V30 1495 H 144.037 -1.05022 -1.1898 0
M  V30 1496 H 144.058 -0.266766 -3.79564 0
M  V30 1497 H 143.57 -2.02579 -3.31034 0
M  V30 1498 H 141.671 0.408416 -3.70355 0
M  V30 1499 H 141.784 -1.23245 -4.62977 0
M  V30 1500 H 140.148 -0.561216 -2.4844 0
M  V30 1501 H 140.931 -2.22775 -2.61201 0
M  V30 1502 N 143.376 1.44774 -0.622745 0
M  V30 1503 C 144.604 2.06487 -0.130722 0
M  V30 1504 C 145.019 1.46476 1.19123 0
M  V30 1505 O 144.376 0.584502 1.72887 0
M  V30 1506 C 144.427 3.615 -0.000807207 0
M  V30 1507 O 144.148 4.19274 -1.27048 0
M  V30 1508 C 145.649 4.40229 0.520898 0
M  V30 1509 H 142.869 0.666704 -0.0758106 0
M  V30 1510 H 145.413 1.85779 -0.854774 0
M  V30 1511 H 143.568 3.81498 0.673643 0
M  V30 1512 H 143.982 5.12622 -1.1099 0
M  V30 1513 H 145.456 5.49144 0.560838 0
M  V30 1514 H 145.933 4.1108 1.54627 0
M  V30 1515 H 146.539 4.25131 -0.120018 0
M  V30 1516 N 144.854 0.36279 1.53368 0
M  V30 1517 C 146.101 -0.227776 2.01215 0
M  V30 1518 C 146.429 -1.49003 1.25014 0
M  V30 1519 O 145.684 -1.92876 0.331236 0
M  V30 1520 C 145.983 -0.568417 3.52851 0
M  V30 1521 C 145.649 0.59918 4.46901 0
M  V30 1522 C 144.311 0.919559 4.72332 0
M  V30 1523 C 146.663 1.38156 5.02556 0
M  V30 1524 C 143.991 2.02434 5.5067 0
M  V30 1525 C 146.343 2.47674 5.821 0
M  V30 1526 C 145.007 2.8025 6.05819 0
M  V30 1527 H 144.277 -0.083349 0.736297 0
M  V30 1528 H 146.924 0.494677 1.85001 0
M  V30 1529 H 145.229 -1.37185 3.66998 0
M  V30 1530 H 146.926 -1.03756 3.87344 0
M  V30 1531 H 143.516 0.339437 4.27254 0
M  V30 1532 H 147.7 1.14729 4.82857 0
M  V30 1533 H 142.956 2.28075 5.67267 0
M  V30 1534 H 147.13 3.08716 6.24234 0
M  V30 1535 H 144.757 3.65979 6.66306 0
M  V30 1536 N 146.332 -1.57332 0.0918853 0
M  V30 1537 C 147.748 -1.57389 -0.264766 0
M  V30 1538 C 147.948 -1.10281 -1.68643 0
M  V30 1539 O 147.004 -0.777801 -2.40222 0
M  V30 1540 C 148.317 -3.00648 -0.0561195 0
M  V30 1541 C 149.865 -3.12754 -0.124116 0
M  V30 1542 C 150.34 -4.57965 0.0564972 0
M  V30 1543 N 151.831 -4.632 0.00155611 0
M  V30 1544 C 152.566 -5.73281 0.116598 0
M  V30 1545 N 152.062 -6.92208 0.286294 0
M  V30 1546 N 153.855 -5.6207 0.0580973 0
M  V30 1547 H 146.006 -1.86262 1.02079 0
M  V30 1548 H 148.269 -0.859579 0.399786 0
M  V30 1549 H 147.975 -3.393 0.925669 0
M  V30 1550 H 147.849 -3.68623 -0.799823 0
M  V30 1551 H 150.236 -2.73976 -1.09641 0
M  V30 1552 H 150.317 -2.47377 0.651024 0
M  V30 1553 H 149.961 -4.97436 1.02564 0
M  V30 1554 H 149.891 -5.21399 -0.738297 0
M  V30 1555 H 152.382 -3.77686 -0.127192 0
M  V30 1556 H 152.695 -7.71934 0.365676 0
M  V30 1557 H 151.04 -6.94254 0.32192 0
M  V30 1558 H 154.231 -4.68043 -0.0733204 0
M  V30 1559 H 154.404 -6.47824 0.151203 0
M  V30 1560 N 147.81 0.181792 -1.56548 0
M  V30 1561 C 148.742 1.24956 -1.92142 0
M  V30 1562 C 149.755 1.41022 -0.813422 0
M  V30 1563 O 150.944 1.41212 -1.09186 0
M  V30 1564 C 148.044 2.61981 -2.14987 0
M  V30 1565 C 147.217 2.6735 -3.46183 0
M  V30 1566 C 146.276 3.85664 -3.5798 0
M  V30 1567 O 145.302 3.72148 -4.30691 0
M  V30 1568 N 146.504 5.01683 -2.92053 0
M  V30 1569 H 149.269 0.947329 -2.84334 0
M  V30 1570 H 146.83 0.371629 -1.57577 0
M  V30 1571 H 148.822 3.3958 -2.20154 0
M  V30 1572 H 147.392 2.84637 -1.2923 0
M  V30 1573 H 146.612 1.75925 -3.52766 0
M  V30 1574 H 147.9 2.67939 -4.32534 0
M  V30 1575 H 147.298 5.15564 -2.32832 0
M  V30 1576 H 145.855 5.77181 -3.0283 0
M  V30 1577 N 149.288 1.51039 0.449983 0
M  V30 1578 C 150.221 1.66105 1.56474 0
M  V30 1579 C 151.199 0.508776 1.54435 0
M  V30 1580 O 152.383 0.731005 1.73749 0
M  V30 1581 C 149.51 1.66304 2.9506 0
M  V30 1582 C 148.556 2.87346 3.15174 0
M  V30 1583 S 149.389 4.4835 2.92818 0
M  V30 1584 C 150.545 4.51274 4.33708 0
M  V30 1585 H 150.778 2.60397 1.43459 0
M  V30 1586 H 148.311 1.40565 0.638805 0
M  V30 1587 H 150.269 1.67103 3.74949 0
M  V30 1588 H 148.93 0.732108 3.05449 0
M  V30 1589 H 148.123 2.83849 4.16468 0
M  V30 1590 H 147.725 2.84223 2.43091 0
M  V30 1591 H 150.017 4.26136 5.26701 0
M  V30 1592 H 150.96 5.53017 4.42242 0
M  V30 1593 H 151.368 3.80738 4.16772 0
M  V30 1594 N 150.766 -0.704594 1.40972 0
M  V30 1595 C 151.698 -1.82974 1.38033 0
M  V30 1596 C 152.711 -1.60305 0.283931 0
M  V30 1597 O 153.9 -1.69975 0.545042 0
M  V30 1598 C 151 -3.19578 1.12795 0
M  V30 1599 C 150.173 -3.69352 2.34302 0
M  V30 1600 C 149.232 -4.84601 2.05058 0
M  V30 1601 O 148.258 -4.96682 2.7802 0
M  V30 1602 N 149.46 -5.71194 1.03528 0
M  V30 1603 H 152.225 -1.85991 2.35005 0
M  V30 1604 H 149.786 -0.886567 1.35468 0
M  V30 1605 H 151.778 -3.9429 0.911987 0
M  V30 1606 H 150.348 -3.11642 0.24452 0
M  V30 1607 H 149.568 -2.85649 2.71659 0
M  V30 1608 H 150.856 -3.99345 3.1528 0
M  V30 1609 H 150.254 -5.64054 0.431217 0
M  V30 1610 H 148.811 -6.45843 0.879205 0
M  V30 1611 N 152.244 -1.26651 -0.937939 0
M  V30 1612 C 153.174 -1.10993 -2.05433 0
M  V30 1613 C 154.155 -0.0142161 -1.70094 0
M  V30 1614 O 155.34 -0.186837 -1.93299 0
M  V30 1615 C 152.47 -0.745561 -3.39203 0
M  V30 1616 C 151.424 -1.79337 -3.88616 0
M  V30 1617 C 150.75 -1.28324 -5.19073 0
M  V30 1618 C 152.05 -3.19553 -4.13138 0
M  V30 1619 H 153.744 -2.0438 -2.1879 0
M  V30 1620 H 151.29 -0.984041 -1.05131 0
M  V30 1621 H 153.243 -0.622888 -4.16771 0
M  V30 1622 H 151.967 0.22401 -3.25831 0
M  V30 1623 H 150.626 -1.90477 -3.13231 0
M  V30 1624 H 150.274 -0.303414 -5.02084 0
M  V30 1625 H 149.974 -1.98369 -5.53103 0
M  V30 1626 H 151.498 -1.1733 -5.99221 0
M  V30 1627 H 152.912 -3.11471 -4.81309 0
M  V30 1628 H 151.309 -3.87218 -4.58457 0
M  V30 1629 H 152.379 -3.65368 -3.18801 0
M  V30 1630 N 153.722 1.14298 -1.08507 0
M  V30 1631 C 154.632 2.23027 -0.727753 0
M  V30 1632 C 155.648 1.71952 0.26619 0
M  V30 1633 O 156.824 2.011 0.109882 0
M  V30 1634 C 153.889 3.46403 -0.143541 0
M  V30 1635 C 152.95 4.12413 -1.19223 0
M  V30 1636 C 152.183 5.29899 -0.635798 0
M  V30 1637 O 152.406 5.67796 0.544393 0
M  V30 1638 O 151.34 5.85717 -1.38634 0
M  V30 1639 H 155.166 2.55945 -1.63481 0
M  V30 1640 H 152.751 1.22248 -0.858817 0
M  V30 1641 H 154.633 4.21018 0.179404 0
M  V30 1642 H 153.308 3.15206 0.736659 0
M  V30 1643 H 152.215 3.39667 -1.56772 0
M  V30 1644 H 153.548 4.47718 -2.04474 0
M  V30 1645 N 155.201 0.870884 1.31352 0
M  V30 1646 C 156.149 0.316445 2.30437 0
M  V30 1647 C 157.143 -0.568965 1.59559 0
M  V30 1648 O 158.349 -0.454964 1.74155 0
M  V30 1649 H 154.724 0.0836521 0.747333 0
M  V30 1650 H 156.695 1.16606 2.74673 0
M  V30 1651 C 155.444 -0.46635 3.44558 0
M  V30 1652 H 154.767 0.205687 3.99271 0
M  V30 1653 H 156.207 -0.819614 4.16003 0
M  V30 1654 C 154.666 -1.65797 2.9328 0
M  V30 1655 O 155.196 -2.75728 2.92125 0
M  V30 1656 N 153.402 -1.49041 2.4947 0
M  V30 1657 H 152.949 -0.59612 2.50608 0
M  V30 1658 H 152.907 -2.28911 2.15516 0
M  V30 1659 N 156.679 -1.44442 0.630414 0
M  V30 1660 C 157.925 -2.02351 0.134816 0
M  V30 1661 C 158.258 -1.4947 -1.23986 0
M  V30 1662 O 157.533 -0.678475 -1.82283 0
M  V30 1663 C 157.816 -3.59898 0.120707 0
M  V30 1664 C 157.669 -4.23063 1.52767 0
M  V30 1665 C 158.988 -4.36585 -0.555127 0
M  V30 1666 H 156.107 -0.73527 0.0504646 0
M  V30 1667 H 158.749 -1.72022 0.806751 0
M  V30 1668 H 156.899 -3.85868 -0.451477 0
M  V30 1669 H 158.571 -4.08202 2.14869 0
M  V30 1670 H 156.814 -3.80586 2.08175 0
M  V30 1671 H 157.485 -5.32071 1.46984 0
M  V30 1672 H 159.961 -4.16044 -0.0685429 0
M  V30 1673 H 158.837 -5.46294 -0.534185 0
M  V30 1674 H 159.098 -4.11138 -1.62535 0
M  V30 1675 N 158.157 -0.370918 -1.53173 0
M  V30 1676 C 159.382 0.220293 -2.06227 0
M  V30 1677 C 159.807 1.41243 -1.24225 0
M  V30 1678 O 159.165 1.79387 -0.262645 0
M  V30 1679 C 159.213 0.586663 -3.55796 0
M  V30 1680 O 158.317 1.68317 -3.76488 0
M  V30 1681 H 157.658 0.0308099 -0.663285 0
M  V30 1682 H 160.188 -0.533068 -1.97534 0
M  V30 1683 H 160.198 0.85617 -3.98916 0
M  V30 1684 H 158.873 -0.285013 -4.14922 0
M  V30 1685 H 157.45 1.40881 -3.45264 0
M  V30 1686 N 159.635 1.57281 -0.100228 0
M  V30 1687 C 160.881 1.94826 0.563101 0
M  V30 1688 C 161.214 0.982475 1.67514 0
M  V30 1689 O 160.489 0.0164069 1.94493 0
M  V30 1690 C 160.772 3.42453 1.11346 0
M  V30 1691 C 160.625 4.498 0.00612081 0
M  V30 1692 C 161.944 3.91506 2.01024 0
M  V30 1693 H 159.063 0.708428 0.203221 0
M  V30 1694 H 161.705 1.8922 -0.171979 0
M  V30 1695 H 159.855 3.47361 1.7399 0
M  V30 1696 H 161.527 4.57 -0.628357 0
M  V30 1697 H 159.77 4.28756 -0.659581 0
M  V30 1698 H 160.441 5.50306 0.432109 0
M  V30 1699 H 162.917 3.88784 1.48278 0
M  V30 1700 H 161.793 4.95358 2.36457 0
M  V30 1701 H 162.054 3.31099 2.92961 0
M  V30 1702 N 161.113 -0.173488 1.56642 0
M  V30 1703 C 162.076 -1.19859 1.95362 0
M  V30 1704 C 163.076 -1.37296 0.83704 0
M  V30 1705 O 164.266 -1.34739 1.10413 0
M  V30 1706 C 161.398 -2.56405 2.24654 0
M  V30 1707 H 162.591 -0.867062 2.87092 0
M  V30 1708 H 160.144 -0.415853 1.50666 0
M  V30 1709 H 160.879 -2.94576 1.35631 0
M  V30 1710 H 160.664 -2.45115 3.06041 0
M  V30 1711 H 162.154 -3.30287 2.5554 0
M  V30 1712 N 162.591 -1.51276 -0.441967 0
M  V30 1713 C 163.521 -1.752 -1.54361 0
M  V30 1714 C 164.502 -0.601682 -1.59103 0
M  V30 1715 O 165.687 -0.843913 -1.74905 0
M  V30 1716 C 162.817 -1.87282 -2.92477 0
M  V30 1717 C 161.771 -3.02687 -3.02596 0
M  V30 1718 C 161.097 -2.99947 -4.42647 0
M  V30 1719 C 162.397 -4.4273 -2.77106 0
M  V30 1720 H 164.091 -2.67442 -1.34592 0
M  V30 1721 H 161.637 -1.28694 -0.646048 0
M  V30 1722 H 163.59 -2.02602 -3.695 0
M  V30 1723 H 162.314 -0.916844 -3.13467 0
M  V30 1724 H 160.973 -2.87065 -2.28012 0
M  V30 1725 H 160.621 -2.02136 -4.60597 0
M  V30 1726 H 160.321 -3.77439 -4.50348 0
M  V30 1727 H 161.845 -3.17354 -5.2165 0
M  V30 1728 H 163.259 -4.58727 -3.43864 0
M  V30 1729 H 161.656 -5.21893 -2.96222 0
M  V30 1730 H 162.726 -4.53087 -1.72744 0
M  V30 1731 N 164.069 0.697108 -1.41344 0
M  V30 1732 C 164.979 1.84088 -1.45427 0
M  V30 1733 C 165.995 1.70545 -0.34501 0
M  V30 1734 O 167.171 1.92488 -0.592492 0
M  V30 1735 C 164.236 3.20056 -1.33286 0
M  V30 1736 C 163.297 3.45718 -2.54514 0
M  V30 1737 C 162.53 4.75199 -2.42944 0
M  V30 1738 O 162.753 5.51579 -1.45318 0
M  V30 1739 O 161.687 5.0161 -3.32672 0
M  V30 1740 H 165.513 1.836 -2.41919 0
M  V30 1741 H 163.098 0.849966 -1.22866 0
M  V30 1742 H 164.98 4.01236 -1.28794 0
M  V30 1743 H 163.655 3.2123 -0.39909 0
M  V30 1744 H 162.562 2.64474 -2.64583 0
M  V30 1745 H 163.895 3.49356 -3.46715 0
M  V30 1746 N 165.547 1.27147 0.931209 0
M  V30 1747 C 166.794 1.13278 1.67852 0
M  V30 1748 C 167.122 -0.32204 1.91815 0
M  V30 1749 O 166.377 -1.25224 1.50391 0
M  V30 1750 C 166.676 1.8579 3.05314 0
M  V30 1751 C 166.342 3.35657 3.01073 0
M  V30 1752 C 165.004 3.76536 2.99623 0
M  V30 1753 C 167.356 4.31299 2.92627 0
M  V30 1754 C 164.684 5.11426 2.87506 0
M  V30 1755 C 167.036 5.66242 2.82051 0
M  V30 1756 C 165.7 6.06418 2.7895 0
M  V30 1757 H 164.97 0.414515 0.614214 0
M  V30 1758 H 167.617 1.57712 1.08624 0
M  V30 1759 H 165.922 1.33854 3.68226 0
M  V30 1760 H 167.619 1.72491 3.62005 0
M  V30 1761 H 164.209 3.03146 3.02986 0
M  V30 1762 H 168.393 4.00692 2.92848 0
M  V30 1763 H 163.649 5.41705 2.83489 0
M  V30 1764 H 167.823 6.40026 2.74481 0
M  V30 1765 H 165.45 7.10895 2.69318 0
M  V30 1766 N 167.025 -1.13721 1.09112 0
M  V30 1767 C 167.955 -2.21148 0.749385 0
M  V30 1768 C 168.936 -1.6792 -0.271475 0
M  V30 1769 O 170.121 -1.93693 -0.140251 0
M  V30 1770 C 167.251 -3.46905 0.165659 0
M  V30 1771 C 166.205 -4.13203 1.11567 0
M  V30 1772 C 165.531 -5.33248 0.393809 0
M  V30 1773 C 166.831 -4.60912 2.45678 0
M  V30 1774 H 168.525 -2.4999 1.64758 0
M  V30 1775 H 166.071 -1.20156 0.793626 0
M  V30 1776 H 168.024 -4.21313 -0.085466 0
M  V30 1777 H 166.748 -3.17449 -0.767714 0
M  V30 1778 H 165.407 -3.40758 1.35202 0
M  V30 1779 H 165.055 -5.00054 -0.543599 0
M  V30 1780 H 164.755 -5.78552 1.02721 0
M  V30 1781 H 166.279 -6.10413 0.150908 0
M  V30 1782 H 167.693 -5.26759 2.26269 0
M  V30 1783 H 166.09 -5.16944 3.04776 0
M  V30 1784 H 167.16 -3.75603 3.06677 0
M  V30 1785 N 168.503 -0.877838 -1.30888 0
M  V30 1786 C 169.78 -0.413052 -1.91189 0
M  V30 1787 C 170.16 1.1056 -1.79832 0
M  V30 1788 O 169.508 1.93771 -1.21099 0
M  V30 1789 C 169.718 -0.903191 -3.3711 0
M  V30 1790 C 171.066 -0.93395 -4.14201 0
M  V30 1791 O 172.09 -0.849373 -3.45925 0
M  V30 1792 O 170.949 -1.05772 -5.36167 0
M  V30 1793 H 168.043 -0.125035 -0.817493 0
M  V30 1794 H 170.589 -0.966269 -1.39504 0
M  V30 1795 H 169.361 -1.94692 -3.39427 0
M  V30 1796 H 168.984 -0.328732 -3.96239 0
M  V30 1797 N 169.982 1.44106 -0.638065 0
M  V30 1798 C 171.398 1.56672 -0.304286 0
M  V30 1799 C 171.598 1.6244 1.19228 0
M  V30 1800 O 170.654 1.57121 1.9766 0
M  V30 1801 C 171.967 2.83503 -1.00231 0
M  V30 1802 C 173.515 2.97226 -0.981116 0
M  V30 1803 C 173.99 4.26868 -1.65974 0
M  V30 1804 N 175.481 4.33698 -1.62666 0
M  V30 1805 C 176.216 5.32745 -2.12063 0
M  V30 1806 N 175.712 6.38157 -2.6968 0
M  V30 1807 N 177.505 5.24299 -2.02651 0
M  V30 1808 H 169.656 1.38605 -1.60942 0
M  V30 1809 H 171.919 0.664661 -0.675965 0
M  V30 1810 H 171.625 2.85251 -2.0573 0
M  V30 1811 H 171.499 3.73251 -0.54439 0
M  V30 1812 H 173.886 2.95027 0.0654188 0
M  V30 1813 H 173.967 2.08808 -1.47759 0
M  V30 1814 H 173.611 4.29826 -2.70576 0
M  V30 1815 H 173.541 5.14156 -1.13804 0
M  V30 1816 H 176.032 3.58138 -1.20606 0
M  V30 1817 H 176.345 7.10029 -3.05087 0
M  V30 1818 H 174.69 6.38823 -2.73734 0
M  V30 1819 H 177.881 4.4086 -1.57353 0
M  V30 1820 H 178.054 6.01334 -2.41457 0
M  V30 1821 N 171.46 0.379036 1.52974 0
M  V30 1822 C 172.37 -0.468639 2.29872 0
M  V30 1823 C 173.386 -1.08067 1.36373 0
M  V30 1824 O 174.562 -1.08871 1.69438 0
M  V30 1825 C 171.627 -1.58594 3.083 0
M  V30 1826 C 170.688 -1.00007 4.17489 0
M  V30 1827 C 169.921 -2.06413 4.92168 0
M  V30 1828 O 170.144 -3.27751 4.66835 0
M  V30 1829 O 169.078 -1.68717 5.7777 0
M  V30 1830 H 172.904 0.157508 3.03291 0
M  V30 1831 H 170.489 0.143035 1.48714 0
M  V30 1832 H 172.371 -2.23525 3.57232 0
M  V30 1833 H 171.046 -2.19724 2.37703 0
M  V30 1834 H 169.953 -0.314299 3.72777 0
M  V30 1835 H 171.286 -0.433135 4.90291 0
M  V30 1836 N 172.938 -1.57226 0.108567 0
M  V30 1837 C 174.163 -1.99604 -0.563303 0
M  V30 1838 C 174.588 -0.987563 -1.6009 0
M  V30 1839 O 173.946 0.0421687 -1.81251 0
M  V30 1840 C 173.994 -3.40902 -1.17552 0
M  V30 1841 O 173.098 -3.42896 -2.2912 0
M  V30 1842 H 172.439 -0.648704 -0.1417 0
M  V30 1843 H 174.969 -2.03679 0.193961 0
M  V30 1844 H 174.979 -3.78886 -1.51357 0
M  V30 1845 H 173.654 -4.1382 -0.415445 0
M  V30 1846 H 172.231 -3.1672 -1.96832 0
M  V30 1847 N 174.416 0.165178 -1.56732 0
M  V30 1848 C 175.665 0.879143 -1.81532 0
M  V30 1849 C 175.978 1.83144 -0.686842 0
M  V30 1850 O 177.184 2.58823 -0.819944 0
M  V30 1851 C 175.64 1.61388 -3.21686 0
M  V30 1852 C 175.248 0.704904 -4.4242 0
M  V30 1853 C 176.992 2.3157 -3.55774 0
M  V30 1854 C 174.899 1.44022 -5.73595 0
M  V30 1855 H 173.829 0.332033 -0.676957 0
M  V30 1856 H 176.48 0.132008 -1.83025 0
M  V30 1857 H 174.862 2.40599 -3.14529 0
M  V30 1858 H 176.036 -0.0506815 -4.60772 0
M  V30 1859 H 174.351 0.112419 -4.16248 0
M  V30 1860 H 176.948 2.8719 -4.51028 0
M  V30 1861 H 177.291 3.07201 -2.8095 0
M  V30 1862 H 177.824 1.59297 -3.64513 0
M  V30 1863 H 174.563 0.72612 -6.51466 0
M  V30 1864 H 174.083 2.16898 -5.5921 0
M  V30 1865 H 175.762 1.98606 -6.15764 0
M  V30 1866 N 175.894 1.51508 0.433938 0
M  V30 1867 C 176.841 1.73068 1.52696 0
M  V30 1868 C 177.811 0.572441 1.55924 0
M  V30 1869 O 178.996 0.807253 1.72882 0
M  V30 1870 C 176.136 1.86474 2.90381 0
M  V30 1871 C 175.249 3.14037 2.96656 0
M  V30 1872 C 174.384 3.18019 4.25485 0
M  V30 1873 C 173.423 4.39882 4.2564 0
M  V30 1874 N 172.56 4.41394 5.45999 0
M  V30 1875 H 177.4 2.66366 1.33615 0
M  V30 1876 H 174.937 1.32008 0.649018 0
M  V30 1877 H 176.895 1.92229 3.70275 0
M  V30 1878 H 175.525 0.965809 3.08013 0
M  V30 1879 H 174.577 3.17575 2.09404 0
M  V30 1880 H 175.889 4.0394 2.92633 0
M  V30 1881 H 175.043 3.22708 5.13755 0
M  V30 1882 H 173.782 2.2601 4.3217 0
M  V30 1883 H 172.787 4.35366 3.35763 0
M  V30 1884 H 174.012 5.33159 4.20617 0
M  V30 1885 H 171.958 3.52258 5.53399 0
M  V30 1886 H 171.875 5.25111 5.4387 0
M  V30 1887 H 173.143 4.50281 6.36292 0
M  V30 1888 N 177.372 -0.689602 1.41712 0
M  V30 1889 C 178.302 -1.81577 1.46806 0
M  V30 1890 C 179.283 -1.66945 0.326105 0
M  V30 1891 O 180.468 -1.86588 0.538377 0
M  V30 1892 C 177.598 -3.19762 1.35535 0
M  V30 1893 C 176.552 -3.49107 2.47605 0
M  V30 1894 C 175.878 -4.86711 2.21397 0
M  V30 1895 C 177.178 -3.47483 3.89939 0
M  V30 1896 H 178.872 -1.7757 2.41058 0
M  V30 1897 H 176.418 -0.852887 1.16025 0
M  V30 1898 H 178.371 -3.98263 1.3771 0
M  V30 1899 H 177.095 -3.24409 0.377708 0
M  V30 1900 H 175.754 -2.72959 2.44722 0
M  V30 1901 H 175.402 -4.8799 1.21961 0
M  V30 1902 H 175.102 -5.0731 2.96497 0
M  V30 1903 H 176.626 -5.67515 2.25297 0
M  V30 1904 H 178.04 -4.1598 3.94505 0
M  V30 1905 H 176.437 -3.79615 4.64771 0
M  V30 1906 H 177.507 -2.46341 4.17665 0
M  V30 1907 N 178.85 -1.27639 -0.924453 0
M  V30 1908 C 180.096 -1.14336 -1.67497 0
M  V30 1909 C 180.429 0.309465 -1.91718 0
M  V30 1910 O 179.704 1.22608 -1.50989 0
M  V30 1911 C 179.987 -1.93096 -3.0395 0
M  V30 1912 C 179.84 -3.46381 -2.8695 0
M  V30 1913 C 181.159 -1.73798 -4.0433 0
M  V30 1914 H 178.278 -0.416728 -0.607871 0
M  V30 1915 H 180.92 -1.56832 -1.07256 0
M  V30 1916 H 179.07 -1.56982 -3.55372 0
M  V30 1917 H 180.742 -3.92343 -2.42621 0
M  V30 1918 H 178.985 -3.72557 -2.22225 0
M  V30 1919 H 179.656 -3.96735 -3.83804 0
M  V30 1920 H 182.132 -2.05293 -3.61931 0
M  V30 1921 H 181.008 -2.31294 -4.97789 0
M  V30 1922 H 181.269 -0.686725 -4.36734 0
M  V30 1923 N 180.328 1.1314 -1.09713 0
M  V30 1924 C 181.553 1.88862 -0.857081 0
M  V30 1925 C 181.978 1.78729 0.586304 0
M  V30 1926 O 181.336 1.13692 1.41222 0
M  V30 1927 C 181.384 3.36325 -1.30069 0
M  V30 1928 O 180.488 4.09815 -0.461007 0
M  V30 1929 H 179.829 0.587108 -0.310162 0
M  V30 1930 H 182.359 1.43129 -1.46203 0
M  V30 1931 H 182.369 3.87157 -1.28738 0
M  V30 1932 H 181.044 3.43017 -2.35185 0
M  V30 1933 H 179.621 3.68986 -0.538888 0
M  V30 1934 N 181.806 0.884767 1.30421 0
M  V30 1935 C 183.055 0.499164 1.95426 0
M  V30 1936 C 183.368 -0.95645 1.70621 0
M  V30 1937 O 184.574 -1.44889 2.29607 0
M  V30 1938 C 183.03 0.84177 3.49917 0
M  V30 1939 C 182.638 2.31514 3.83543 0
M  V30 1940 C 184.382 0.525355 4.21237 0
M  V30 1941 C 182.289 2.59939 5.31212 0
M  V30 1942 H 181.219 0.182944 0.73147 0
M  V30 1943 H 183.87 1.07971 1.48373 0
M  V30 1944 H 182.252 0.190311 3.95542 0
M  V30 1945 H 183.426 3.0109 3.48829 0
M  V30 1946 H 181.741 2.59907 3.25326 0
M  V30 1947 H 184.338 0.714762 5.29901 0
M  V30 1948 H 184.681 -0.535222 4.12845 0
M  V30 1949 H 185.214 1.134 3.81294 0
M  V30 1950 H 181.953 3.64736 5.44654 0
M  V30 1951 H 181.473 1.94972 5.67227 0
M  V30 1952 H 183.152 2.45429 5.98643 0
M  V30 1953 N 183.284 -1.43765 0.645699 0
M  V30 1954 C 184.561 -1.9541 0.0862963 0
M  V30 1955 C 184.941 -1.58725 -1.39175 0
M  V30 1956 O 184.289 -0.868581 -2.11348 0
M  V30 1957 C 184.499 -3.47488 0.324565 0
M  V30 1958 C 185.847 -4.24001 0.225497 0
M  V30 1959 O 186.871 -3.55274 0.256715 0
M  V30 1960 O 185.73 -5.46313 0.142801 0
M  V30 1961 H 182.824 -0.826882 -0.0139483 0
M  V30 1962 H 185.37 -1.53743 0.718415 0
M  V30 1963 H 184.142 -3.67289 1.3496 0
M  V30 1964 H 183.765 -3.96135 -0.340987 0
M  V30 1965 N 184.763 -0.387143 -1.52771 0
M  V30 1966 C 185.988 0.198407 -2.06449 0
M  V30 1967 C 186.413 1.39918 -1.25716 0
M  V30 1968 O 185.771 1.79099 -0.281657 0
M  V30 1969 C 185.819 0.548893 -3.56398 0
M  V30 1970 O 184.923 1.64315 -3.78252 0
M  V30 1971 H 184.264 0.0237731 -0.663574 0
M  V30 1972 H 186.794 -0.553989 -1.96957 0
M  V30 1973 H 186.804 0.813812 -3.99801 0
M  V30 1974 H 185.479 -0.329005 -4.14597 0
M  V30 1975 H 184.056 1.37211 -3.46738 0
M  V30 1976 N 186.241 1.57166 -0.116904 0
M  V30 1977 C 187.188 2.15202 0.83408 0
M  V30 1978 C 188.158 1.07644 1.26499 0
M  V30 1979 O 189.343 1.35541 1.34288 0
M  V30 1980 C 186.483 2.75405 2.07957 0
M  V30 1981 C 185.596 3.97264 1.69721 0
M  V30 1982 C 184.731 4.45561 2.89221 0
M  V30 1983 C 183.77 5.59956 2.47215 0
M  V30 1984 N 182.907 6.03006 3.59622 0
M  V30 1985 H 187.747 2.96141 0.332335 0
M  V30 1986 H 185.284 1.46309 0.152349 0
M  V30 1987 H 187.242 3.08439 2.80929 0
M  V30 1988 H 185.872 1.97159 2.55594 0
M  V30 1989 H 184.924 3.70404 0.866316 0
M  V30 1990 H 186.236 4.80226 1.34849 0
M  V30 1991 H 185.39 4.80493 3.7042 0
M  V30 1992 H 184.129 3.61544 3.27318 0
M  V30 1993 H 183.134 5.2463 1.64448 0
M  V30 1994 H 184.359 6.45738 2.10238 0
M  V30 1995 H 182.305 5.21931 3.97396 0
M  V30 1996 H 182.222 6.80819 3.28667 0
M  V30 1997 H 183.49 6.42576 4.41267 0
M  V30 1998 N 187.719 -0.156864 1.56817 0
M  V30 1999 C 188.682 -1.17781 1.96622 0
M  V30 2000 C 189.682 -1.36401 0.851555 0
M  V30 2001 O 190.872 -1.33561 1.11836 0
M  V30 2002 C 188.004 -2.54008 2.27361 0
M  V30 2003 H 189.197 -0.836564 2.87996 0
M  V30 2004 H 186.75 -0.39985 1.51099 0
M  V30 2005 H 187.485 -2.9312 1.38748 0
M  V30 2006 H 187.27 -2.41856 3.08623 0
M  V30 2007 H 188.76 -3.27558 2.59029 0
M  V30 2008 N 189.197 -1.51736 -0.425897 0
M  V30 2009 C 190.446 -1.64201 -1.17136 0
M  V30 2010 C 190.759 -0.369705 -1.92074 0
M  V30 2011 O 191.965 -0.373898 -2.68913 0
M  V30 2012 C 190.421 -2.90035 -2.13091 0
M  V30 2013 C 190.029 -4.24312 -1.43747 0
M  V30 2014 C 191.773 -3.1186 -2.87999 0
M  V30 2015 C 189.68 -5.41285 -2.38253 0
M  V30 2016 H 188.61 -0.611624 -0.440944 0
M  V30 2017 H 191.261 -1.78212 -0.437328 0
M  V30 2018 H 189.643 -2.69684 -2.89977 0
M  V30 2019 H 190.817 -4.55086 -0.723408 0
M  V30 2020 H 189.132 -4.08456 -0.809465 0
M  V30 2021 H 191.729 -3.96427 -3.58817 0
M  V30 2022 H 192.072 -2.25403 -3.49999 0
M  V30 2023 H 192.605 -3.32605 -2.18217 0
M  V30 2024 H 189.344 -6.30037 -1.80925 0
M  V30 2025 H 188.864 -5.14872 -3.0768 0
M  V30 2026 H 190.543 -5.73694 -2.99139 0
M  V30 2027 N 190.675 0.682077 -1.42076 0
M  V30 2028 C 191.921 1.44428 -1.42367 0
M  V30 2029 C 192.254 1.94164 -0.0373056 0
M  V30 2030 O 191.529 1.70429 0.937239 0
M  V30 2031 C 191.812 2.64654 -2.44194 0
M  V30 2032 C 191.665 2.20596 -3.91991 0
M  V30 2033 C 192.984 3.66865 -2.431 0
M  V30 2034 H 190.103 0.523834 -0.518428 0
M  V30 2035 H 192.745 0.77576 -1.73442 0
M  V30 2036 H 190.895 3.2169 -2.17826 0
M  V30 2037 H 192.567 1.68783 -4.29313 0
M  V30 2038 H 190.81 1.52242 -4.06208 0
M  V30 2039 H 191.481 3.06921 -4.58807 0
M  V30 2040 H 193.957 3.19531 -2.66532 0
M  V30 2041 H 192.833 4.48577 -3.16339 0
M  V30 2042 H 193.094 4.17493 -1.45437 0
M  V30 2043 N 192.153 1.28127 0.917671 0
M  V30 2044 C 193.43 1.05761 1.64542 0
M  V30 2045 C 193.81 -0.404344 2.07191 0
M  V30 2046 O 193.158 -1.38963 1.81388 0
M  V30 2047 C 193.368 2.02857 2.83989 0
M  V30 2048 C 194.716 2.32786 3.551 0
M  V30 2049 O 195.74 2.0091 2.94132 0
M  V30 2050 O 194.599 2.87169 4.64969 0
M  V30 2051 H 191.693 0.403916 0.721652 0
M  V30 2052 H 194.239 1.39431 0.967322 0
M  V30 2053 H 193.011 3.01407 2.49538 0
M  V30 2054 H 192.634 1.69809 3.59514 0
M  V30 2055 N 193.631 -1.12557 1.10312 0
M  V30 2056 C 194.879 -1.83675 0.843091 0
M  V30 2057 C 195.2 -1.84435 -0.633131 0
M  V30 2058 O 194.47 -1.30657 -1.45964 0
M  V30 2059 H 193.05 -0.680138 0.308904 0
M  V30 2060 H 195.712 -1.36301 1.39313 0
M  V30 2061 H 194.808 -2.87908 1.2048 0
M  V30 2062 N 195.109 -0.891671 -1.2995 0
M  V30 2063 C 196.057 -0.353066 -2.29905 0
M  V30 2064 C 197.051 0.543509 -1.60444 0
M  V30 2065 O 198.257 0.4272 -1.74857 0
M  V30 2066 H 194.632 -0.095531 -0.745907 0
M  V30 2067 H 196.603 -1.20961 -2.72784 0
M  V30 2068 C 195.352 0.411475 -3.45257 0
M  V30 2069 H 194.675 -0.269182 -3.98893 0
M  V30 2070 H 196.115 0.753328 -4.17254 0
M  V30 2071 C 194.574 1.6111 -2.9588 0
M  V30 2072 O 195.104 2.71045 -2.96475 0
M  V30 2073 N 193.31 1.45054 -2.51809 0
M  V30 2074 H 192.857 0.556175 -2.51524 0
M  V30 2075 H 192.815 2.25453 -2.1913 0
M  V30 2076 N 196.587 1.43421 -0.653314 0
M  V30 2077 C 197.517 2.33487 0.0246656 0
M  V30 2078 C 198.498 1.49475 0.811863 0
M  V30 2079 O 199.683 1.78139 0.773322 0
M  V30 2080 C 196.813 3.32841 0.99166 0
M  V30 2081 C 195.767 4.26842 0.314568 0
M  V30 2082 C 195.093 5.16236 1.39302 0
M  V30 2083 C 196.393 5.16243 -0.793095 0
M  V30 2084 H 198.087 2.90427 -0.727481 0
M  V30 2085 H 195.633 1.39649 -0.351287 0
M  V30 2086 H 197.586 3.94747 1.47487 0
M  V30 2087 H 196.31 2.74158 1.77497 0
M  V30 2088 H 194.969 3.663 -0.148199 0
M  V30 2089 H 194.617 4.53891 2.16776 0
M  V30 2090 H 194.317 5.79948 0.945223 0
M  V30 2091 H 195.841 5.81015 1.87759 0
M  V30 2092 H 197.255 5.71958 -0.392039 0
M  V30 2093 H 195.652 5.88676 -1.16536 0
M  V30 2094 H 196.722 4.55927 -1.65103 0
M  V30 2095 N 198.065 0.39524 1.52563 0
M  V30 2096 C 199.012 -0.437036 2.26624 0
M  V30 2097 C 199.982 -1.05281 1.28472 0
M  V30 2098 O 201.167 -1.07971 1.57311 0
M  V30 2099 C 198.307 -1.55524 3.08069 0
M  V30 2100 C 197.42 -0.961745 4.21158 0
M  V30 2101 C 196.555 -2.05149 4.89987 0
M  V30 2102 C 195.594 -1.4342 5.95061 0
M  V30 2103 N 194.731 -2.46351 6.57462 0
M  V30 2104 H 199.571 0.200976 2.97322 0
M  V30 2105 H 197.108 0.110944 1.46681 0
M  V30 2106 H 199.066 -2.21437 3.53584 0
M  V30 2107 H 197.696 -2.16348 2.3957 0
M  V30 2108 H 196.748 -0.192048 3.79915 0
M  V30 2109 H 198.06 -0.470701 4.96574 0
M  V30 2110 H 197.214 -2.78819 5.38837 0
M  V30 2111 H 195.953 -2.57615 4.14109 0
M  V30 2112 H 194.958 -0.682774 5.45544 0
M  V30 2113 H 196.183 -0.917416 6.72875 0
M  V30 2114 H 194.129 -2.97975 5.8442 0
M  V30 2115 H 194.046 -2.02019 7.28508 0
M  V30 2116 H 195.314 -3.19633 7.10954 0
M  V30 2117 N 199.544 -1.57102 0.125237 0
M  V30 2118 C 200.474 -2.18659 -0.819174 0
M  V30 2119 C 201.455 -1.12843 -1.27281 0
M  V30 2120 O 202.64 -1.41104 -1.33429 0
M  V30 2121 C 199.77 -2.79096 -2.06695 0
M  V30 2122 C 198.724 -3.90548 -1.75088 0
M  V30 2123 C 198.05 -4.37821 -3.06948 0
M  V30 2124 C 199.35 -5.12356 -1.01435 0
M  V30 2125 H 201.044 -2.9783 -0.306202 0
M  V30 2126 H 198.59 -1.4326 -0.145839 0
M  V30 2127 H 200.543 -3.2082 -2.73226 0
M  V30 2128 H 199.267 -1.97223 -2.60328 0
M  V30 2129 H 197.926 -3.49409 -1.10944 0
M  V30 2130 H 197.574 -3.52799 -3.58527 0
M  V30 2131 H 197.274 -5.12982 -2.86571 0
M  V30 2132 H 198.798 -4.822 -3.74587 0
M  V30 2133 H 200.212 -5.5106 -1.58132 0
M  V30 2134 H 198.609 -5.9314 -0.911319 0
M  V30 2135 H 199.679 -4.849 -0.00218681 0
M  V30 2136 N 201.022 0.148545 -1.56898 0
M  V30 2137 C 202.271 0.85984 -1.82454 0
M  V30 2138 C 202.584 1.82406 -0.706229 0
M  V30 2139 O 203.79 2.57938 -0.847349 0
M  V30 2140 C 202.246 1.57967 -3.2338 0
M  V30 2141 C 201.854 0.65794 -4.43142 0
M  V30 2142 C 203.598 2.27784 -3.58211 0
M  V30 2143 C 201.505 1.3793 -5.75091 0
M  V30 2144 H 200.435 0.324834 -0.68044 0
M  V30 2145 H 203.086 0.112588 -1.83154 0
M  V30 2146 H 201.468 2.37249 -3.17063 0
M  V30 2147 H 202.642 -0.0995497 -4.60692 0
M  V30 2148 H 200.957 0.0682643 -4.16344 0
M  V30 2149 H 203.554 2.8239 -4.54048 0
M  V30 2150 H 203.897 3.04204 -2.84193 0
M  V30 2151 H 204.43 1.55421 -3.66182 0
M  V30 2152 H 201.169 0.656982 -6.52199 0
M  V30 2153 H 200.689 2.10954 -5.61479 0
M  V30 2154 H 202.368 1.92063 -6.17835 0
M  V30 2155 N 202.5 1.5196 0.417844 0
M  V30 2156 C 203.43 1.77634 1.51554 0
M  V30 2157 C 204.411 0.626918 1.58126 0
M  V30 2158 O 205.596 0.871632 1.7354 0
M  V30 2159 C 202.726 1.91911 2.8946 0
M  V30 2160 C 201.68 3.07463 2.97743 0
M  V30 2161 C 201.006 3.06951 4.37819 0
M  V30 2162 C 202.306 4.47082 2.70027 0
M  V30 2163 H 204 2.6955 1.3032 0
M  V30 2164 H 201.546 1.29706 0.625492 0
M  V30 2165 H 203.499 2.08455 3.6623 0
M  V30 2166 H 202.223 0.966598 3.11969 0
M  V30 2167 H 200.882 2.90656 2.23416 0
M  V30 2168 H 200.53 2.09438 4.57323 0
M  V30 2169 H 200.23 3.84556 4.44286 0
M  V30 2170 H 201.754 3.25613 5.16535 0
M  V30 2171 H 203.168 4.6414 3.36522 0
M  V30 2172 H 201.565 5.2654 2.87881 0
M  V30 2173 H 202.635 4.55777 1.65514 0
M  V30 2174 N 203.978 -0.674533 1.42435 0
M  V30 2175 C 205.226 -1.43175 1.42637 0
M  V30 2176 C 205.547 -1.94951 0.0438992 0
M  V30 2177 O 204.817 -1.7308 -0.917607 0
M  V30 2178 H 203.397 -0.531307 0.525092 0
M  V30 2179 H 206.059 -0.797006 1.77859 0
M  V30 2180 H 205.155 -2.28463 2.12629 0
M  V30 2181 N 205.456 -1.28612 -0.910864 0
M  V30 2182 C 206.386 -1.15326 -2.03032 0
M  V30 2183 C 207.367 -0.0502924 -1.70026 0
M  V30 2184 O 208.552 -0.227797 -1.92859 0
M  V30 2185 C 205.682 -0.817343 -3.37545 0
M  V30 2186 C 204.636 -1.8754 -3.84724 0
M  V30 2187 C 203.962 -1.39305 -5.16235 0
M  V30 2188 C 205.262 -3.28244 -4.06267 0
M  V30 2189 H 206.956 -2.08975 -2.14406 0
M  V30 2190 H 204.502 -1.00612 -1.03021 0
M  V30 2191 H 206.455 -0.711151 -4.15356 0
M  V30 2192 H 205.179 0.154846 -3.26233 0
M  V30 2193 H 203.838 -1.97079 -3.09121 0
M  V30 2194 H 203.486 -0.409846 -5.01328 0
M  V30 2195 H 203.186 -2.10057 -5.48771 0
M  V30 2196 H 204.71 -1.30014 -5.96598 0
M  V30 2197 H 206.124 -3.21611 -4.74594 0
M  V30 2198 H 204.521 -3.96855 -4.5014 0
M  V30 2199 H 205.591 -3.72048 -3.10979 0
M  V30 2200 N 206.934 1.1197 -1.10907 0
M  V30 2201 C 208.183 1.82947 -0.849302 0
M  V30 2202 C 208.496 1.85275 0.627112 0
M  V30 2203 O 209.702 2.52296 1.00295 0
M  V30 2204 C 208.158 3.28529 -1.46959 0
M  V30 2205 C 207.766 3.34546 -2.97965 0
M  V30 2206 C 209.51 4.04443 -1.28942 0
M  V30 2207 C 207.417 4.74491 -3.53004 0
M  V30 2208 H 206.347 0.685477 -0.314065 0
M  V30 2209 H 208.998 1.2604 -1.33365 0
M  V30 2210 H 207.38 3.85333 -0.912917 0
M  V30 2211 H 208.554 2.87654 -3.59989 0
M  V30 2212 H 206.869 2.72108 -3.15192 0
M  V30 2213 H 209.466 5.07787 -1.67502 0
M  V30 2214 H 209.809 4.15656 -0.231456 0
M  V30 2215 H 210.342 3.5401 -1.81443 0
M  V30 2216 H 207.081 4.68474 -4.58489 0
M  V30 2217 H 206.601 5.21816 -2.9575 0
M  V30 2218 H 208.28 5.4344 -3.51115 0
M  V30 2219 N 208.412 0.89855 1.29475 0
M  V30 2220 C 209.658 0.534065 1.96263 0
M  V30 2221 C 210.013 -0.909415 1.69551 0
M  V30 2222 O 209.306 -1.63596 0.997349 0
M  V30 2223 C 209.5 0.761398 3.49195 0
M  V30 2224 C 209.329 2.22542 3.90775 0
M  V30 2225 C 208.099 2.87264 4.15701 0
M  V30 2226 C 210.297 3.20051 4.02581 0
M  V30 2227 N 208.279 4.24121 4.4384 0
M  V30 2228 C 209.65 4.42023 4.34759 0
M  V30 2229 C 211.705 3.15657 3.85052 0
M  V30 2230 C 210.408 5.60161 4.51235 0
M  V30 2231 C 212.434 4.33078 4.02737 0
M  V30 2232 C 211.796 5.5382 4.35273 0
M  V30 2233 H 207.895 0.245013 0.742625 0
M  V30 2234 H 210.479 1.15912 1.56437 0
M  V30 2235 H 208.65 0.165732 3.88046 0
M  V30 2236 H 210.382 0.362462 4.03074 0
M  V30 2237 H 207.137 2.38064 4.09417 0
M  V30 2238 H 207.561 4.94839 4.6202 0
M  V30 2239 H 212.203 2.23396 3.58962 0
M  V30 2240 H 209.921 6.52913 4.76162 0
M  V30 2241 H 213.507 4.31163 3.90628 0
M  V30 2242 H 212.387 6.43166 4.48672 0
M  V30 2243 N 209.89 -1.43072 0.660911 0
M  V30 2244 C 211.118 -2.06067 0.185422 0
M  V30 2245 C 211.533 -1.49582 -1.15198 0
M  V30 2246 O 210.89 -0.630134 -1.71276 0
M  V30 2247 C 210.941 -3.61371 0.0966523 0
M  V30 2248 O 210.662 -4.15758 1.38119 0
M  V30 2249 C 212.163 -4.41455 -0.403996 0
M  V30 2250 H 209.383 -0.664459 0.0934604 0
M  V30 2251 H 211.927 -1.83447 0.90373 0
M  V30 2252 H 210.082 -3.8315 -0.572259 0
M  V30 2253 H 210.496 -5.09499 1.24542 0
M  V30 2254 H 211.97 -5.50437 -0.415045 0
M  V30 2255 H 212.447 -4.15036 -1.43674 0
M  V30 2256 H 213.053 -4.24663 0.232691 0
M  V30 2257 N 211.368 -0.403325 -1.52352 0
M  V30 2258 C 212.298 0.416205 -2.29761 0
M  V30 2259 C 213.279 1.05123 -1.33728 0
M  V30 2260 O 214.464 1.06134 -1.62632 0
M  V30 2261 C 211.594 1.53624 -3.11475 0
M  V30 2262 C 210.548 1.02653 -4.15507 0
M  V30 2263 C 209.874 2.23971 -4.85532 0
M  V30 2264 C 211.174 0.08463 -5.22231 0
M  V30 2265 H 212.868 -0.229701 -2.98518 0
M  V30 2266 H 210.414 -0.111913 -1.43564 0
M  V30 2267 H 212.367 2.1165 -3.64393 0
M  V30 2268 H 211.091 2.20994 -2.40477 0
M  V30 2269 H 209.75 0.46871 -3.63591 0
M  V30 2270 H 209.398 2.89883 -4.11068 0
M  V30 2271 H 209.098 1.90521 -5.55856 0
M  V30 2272 H 210.622 2.82614 -5.41259 0
M  V30 2273 H 212.036 0.573509 -5.70424 0
M  V30 2274 H 210.433 -0.160783 -5.99885 0
M  V30 2275 H 211.503 -0.86237 -4.7717 0
M  V30 2276 N 212.846 1.57033 -0.133567 0
M  V30 2277 C 214.095 1.94861 0.520768 0
M  V30 2278 C 214.408 1.02012 1.66892 0
M  V30 2279 O 215.614 1.29365 2.38699 0
M  V30 2280 C 214.07 3.46362 0.977809 0
M  V30 2281 C 213.678 4.47773 -0.142674 0
M  V30 2282 C 215.422 3.93083 1.60269 0
M  V30 2283 C 213.329 5.90468 0.331883 0
M  V30 2284 H 212.259 0.727453 0.198315 0
M  V30 2285 H 214.91 1.82227 -0.215759 0
M  V30 2286 H 213.292 3.54282 1.7692 0
M  V30 2287 H 214.466 4.51536 -0.919317 0
M  V30 2288 H 212.781 4.10891 -0.675124 0
M  V30 2289 H 215.378 4.97121 1.96914 0
M  V30 2290 H 215.721 3.33876 2.48662 0
M  V30 2291 H 216.254 3.88025 0.876453 0
M  V30 2292 H 212.993 6.53463 -0.516341 0
M  V30 2293 H 212.513 5.90094 1.07469 0
M  V30 2294 H 214.192 6.42179 0.788332 0
M  V30 2295 N 214.325 -0.140222 1.56975 0
M  V30 2296 C 215.255 -1.17456 2.01808 0
M  V30 2297 C 216.236 -1.44415 0.898794 0
M  V30 2298 O 217.421 -1.5522 1.16707 0
M  V30 2299 C 214.551 -2.50607 2.40444 0
M  V30 2300 C 213.505 -2.38155 3.55621 0
M  V30 2301 C 212.831 -3.76078 3.80091 0
M  V30 2302 C 214.131 -1.85991 4.88062 0
M  V30 2303 H 215.825 -0.801743 2.88466 0
M  V30 2304 H 213.371 -0.38422 1.38779 0
M  V30 2305 H 215.324 -3.23197 2.7041 0
M  V30 2306 H 214.048 -2.89737 1.50732 0
M  V30 2307 H 212.707 -1.68016 3.25832 0
M  V30 2308 H 212.355 -4.12656 2.87618 0
M  V30 2309 H 212.055 -3.68606 4.57606 0
M  V30 2310 H 213.579 -4.50206 4.12488 0
M  V30 2311 H 214.993 -2.4838 5.16701 0
M  V30 2312 H 213.39 -1.89393 5.6943 0
M  V30 2313 H 214.46 -0.816023 4.77984 0
M  V30 2314 N 215.803 -1.52179 -0.40978 0
M  V30 2315 C 216.753 -1.71857 -1.49831 0
M  V30 2316 C 217.737 -0.572469 -1.50372 0
M  V30 2317 O 218.929 -0.829509 -1.56359 0
M  V30 2318 C 216.058 -1.87206 -2.87765 0
M  V30 2319 C 215.144 -3.07685 -2.91875 0
M  V30 2320 N 215.535 -4.30403 -2.65683 0
M  V30 2321 C 213.833 -3.07505 -3.23043 0
M  V30 2322 C 214.534 -5.11868 -2.76344 0
M  V30 2323 N 213.51 -4.47101 -3.09195 0
M  V30 2324 H 217.312 -2.64381 -1.28375 0
M  V30 2325 H 214.826 -1.50203 -0.617479 0
M  V30 2326 H 216.823 -1.99419 -3.66111 0
M  V30 2327 H 215.483 -0.958814 -3.10221 0
M  V30 2328 H 216.494 -4.58887 -2.4009 0
M  V30 2329 H 213.171 -2.25915 -3.51096 0
M  V30 2330 H 214.561 -6.19634 -2.59814 0
M  V30 2331 N 217.281 0.66697 -1.42791 0
M  V30 2332 C 218.511 1.45294 -1.46878 0
M  V30 2333 C 218.919 1.89027 -0.0809861 0
M  V30 2334 O 218.262 1.59219 0.916246 0
M  V30 2335 C 218.324 2.72908 -2.34012 0
M  V30 2336 C 217.988 2.51203 -3.81767 0
M  V30 2337 C 218.985 2.15302 -4.73224 0
M  V30 2338 C 216.67 2.65954 -4.26115 0
M  V30 2339 C 218.664 1.94431 -6.07022 0
M  V30 2340 C 216.351 2.44699 -5.59969 0
M  V30 2341 C 217.349 2.08992 -6.5024 0
M  V30 2342 O 217.037 1.87948 -7.81621 0
M  V30 2343 H 216.769 0.453306 -0.501487 0
M  V30 2344 H 219.323 0.826232 -1.88049 0
M  V30 2345 H 217.553 3.38089 -1.87703 0
M  V30 2346 H 219.242 3.34816 -2.29462 0
M  V30 2347 H 220.008 2.03495 -4.40244 0
M  V30 2348 H 215.887 2.92724 -3.56137 0
M  V30 2349 H 219.431 1.66484 -6.77443 0
M  V30 2350 H 215.328 2.56105 -5.9252 0
M  V30 2351 H 216.096 2.02483 -7.93059 0
M  V30 2352 N 218.759 1.29093 0.90403 0
M  V30 2353 C 219.984 1.19809 1.69294 0
M  V30 2354 C 220.409 -0.238481 1.86582 0
M  V30 2355 O 219.767 -1.1723 1.383 0
M  V30 2356 C 219.815 1.91202 3.05736 0
M  V30 2357 O 218.919 1.22611 3.93752 0
M  V30 2358 H 218.26 0.415385 0.518027 0
M  V30 2359 H 220.79 1.70586 1.12967 0
M  V30 2360 H 220.8 1.99487 3.55906 0
M  V30 2361 H 219.475 2.95692 2.92471 0
M  V30 2362 H 218.052 1.22554 3.52186 0
M  V30 2363 N 220.237 -1.11381 1.11499 0
M  V30 2364 C 221.486 -1.82494 0.858993 0
M  V30 2365 C 221.799 -1.85605 -0.617278 0
M  V30 2366 O 223.005 -2.52824 -0.989552 0
M  V30 2367 C 221.461 -3.27745 1.48699 0
M  V30 2368 C 221.069 -3.32961 2.99735 0
M  V30 2369 C 222.813 -4.03754 1.31085 0
M  V30 2370 C 220.72 -4.72612 3.55516 0
M  V30 2371 H 219.65 -0.683802 0.317696 0
M  V30 2372 H 222.301 -1.25331 1.34031 0
M  V30 2373 H 220.683 -3.84844 0.933339 0
M  V30 2374 H 221.857 -2.85741 3.61509 0
M  V30 2375 H 220.172 -2.70433 3.16631 0
M  V30 2376 H 222.769 -5.06891 1.70192 0
M  V30 2377 H 223.112 -4.15527 0.253496 0
M  V30 2378 H 223.645 -3.53043 1.83318 0
M  V30 2379 H 220.384 -4.66036 4.60967 0
M  V30 2380 H 219.904 -5.2024 2.98513 0
M  V30 2381 H 221.583 -5.4157 3.53992 0
M  V30 2382 N 221.715 -0.905404 -1.28997 0
M  V30 2383 C 222.94 -0.549175 -1.99997 0
M  V30 2384 C 223.365 0.860276 -1.67275 0
M  V30 2385 O 222.723 1.57355 -0.900502 0
M  V30 2386 C 222.771 -0.755185 -3.52604 0
M  V30 2387 O 221.875 0.189692 -4.11964 0
M  V30 2388 H 221.216 -0.213899 -0.628604 0
M  V30 2389 H 223.746 -1.21856 -1.64354 0
M  V30 2390 H 223.756 -0.662045 -4.02593 0
M  V30 2391 H 222.431 -1.78271 -3.75755 0
M  V30 2392 H 221.008 0.0485257 -3.72868 0
M  V30 2393 N 223.193 1.4272 -0.668489 0
M  V30 2394 C 224.126 2.28111 0.0637898 0
M  V30 2395 C 225.104 1.40705 0.814912 0
M  V30 2396 O 226.288 1.70146 0.81134 0
M  V30 2397 C 223.415 3.20429 1.0974 0
M  V30 2398 C 222.461 4.24197 0.442579 0
M  V30 2399 S 223.294 5.29563 -0.795173 0
M  V30 2400 C 224.45 6.25449 0.237516 0
M  V30 2401 H 224.683 2.8987 -0.660521 0
M  V30 2402 H 222.216 1.47456 -0.457821 0
M  V30 2403 H 224.174 3.74158 1.68868 0
M  V30 2404 H 222.835 2.57818 1.79411 0
M  V30 2405 H 222.028 4.88954 1.22227 0
M  V30 2406 H 221.63 3.73925 -0.0749554 0
M  V30 2407 H 223.922 6.68524 1.09915 0
M  V30 2408 H 224.865 7.07104 -0.375421 0
M  V30 2409 H 225.273 5.61511 0.580167 0
M  V30 2410 N 224.671 0.411399 1.52136 0
M  V30 2411 C 226.082 -0.0576826 1.86611 0
M  V30 2412 C 226.433 -1.44238 1.33003 0
M  V30 2413 O 225.558 -2.05759 0.670228 0
M  V30 2414 C 226.153 -0.111448 3.38617 0
M  V30 2415 C 224.712 -0.52487 3.72723 0
M  V30 2416 C 223.859 0.299176 2.75681 0
M  V30 2417 H 226.81 0.628368 1.4573 0
M  V30 2418 H 226.831 -0.926252 3.69054 0
M  V30 2419 H 226.343 0.896488 3.77604 0
M  V30 2420 H 224.444 -1.53936 3.39315 0
M  V30 2421 H 224.557 -0.267681 4.78352 0
M  V30 2422 H 222.921 -0.238814 2.53578 0
M  V30 2423 H 223.704 1.3055 3.17508 0
M  V30 2424 N 226.149 -1.5696 0.141893 0
M  V30 2425 C 227.082 -2.12271 -0.837627 0
M  V30 2426 C 228.06 -1.04495 -1.24578 0
M  V30 2427 O 229.244 -1.32293 -1.34278 0
M  V30 2428 C 226.371 -2.63822 -2.12404 0
M  V30 2429 C 225.417 -3.83698 -1.86221 0
M  V30 2430 S 226.25 -5.24948 -1.05781 0
M  V30 2431 C 227.406 -5.79884 -2.35552 0
M  V30 2432 H 227.639 -2.95023 -0.367249 0
M  V30 2433 H 225.172 -1.54231 -0.0723014 0
M  V30 2434 H 227.13 -2.94175 -2.86307 0
M  V30 2435 H 225.791 -1.8121 -2.56557 0
M  V30 2436 H 224.984 -4.17995 -2.81596 0
M  V30 2437 H 224.586 -3.5408 -1.20429 0
M  V30 2438 H 226.878 -5.91005 -3.31239 0
M  V30 2439 H 227.821 -6.77544 -2.05767 0
M  V30 2440 H 228.229 -5.08095 -2.45967 0
M  V30 2441 N 227.627 0.131896 -1.57047 0
M  V30 2442 C 228.873 0.838268 -1.85323 0
M  V30 2443 C 229.228 1.78098 -0.727937 0
M  V30 2444 O 228.521 1.89645 0.27304 0
M  V30 2445 C 228.715 1.63703 -3.17704 0
M  V30 2446 C 228.544 0.773167 -4.43004 0
M  V30 2447 C 227.314 0.432956 -5.03442 0
M  V30 2448 C 229.512 0.0966216 -5.14209 0
M  V30 2449 N 227.494 -0.442924 -6.123 0
M  V30 2450 C 228.865 -0.638778 -6.16701 0
M  V30 2451 C 230.92 0.018861 -4.97896 0
M  V30 2452 C 229.623 -1.44462 -7.04644 0
M  V30 2453 C 231.649 -0.773762 -5.86316 0
M  V30 2454 C 231.011 -1.4974 -6.883 0
M  V30 2455 H 227.11 0.284086 -0.728573 0
M  V30 2456 H 229.694 0.102731 -1.94429 0
M  V30 2457 H 227.865 2.3437 -3.09718 0
M  V30 2458 H 229.597 2.28774 -3.33833 0
M  V30 2459 H 226.352 0.772237 -4.67262 0
M  V30 2460 H 226.776 -0.872332 -6.71356 0
M  V30 2461 H 231.418 0.56397 -4.19022 0
M  V30 2462 H 229.136 -2.00093 -7.82936 0
M  V30 2463 H 232.722 -0.83612 -5.75761 0
M  V30 2464 H 231.602 -2.10087 -7.55535 0
M  V30 2465 N 229.106 1.52395 0.401703 0
M  V30 2466 C 230.383 1.57387 1.16141 0
M  V30 2467 C 230.763 0.359359 2.08019 0
M  V30 2468 O 230.111 -0.65326 2.18963 0
M  V30 2469 C 230.321 2.90631 1.93221 0
M  V30 2470 C 231.669 3.43904 2.49028 0
M  V30 2471 O 232.693 2.92421 2.03393 0
M  V30 2472 O 231.552 4.33823 3.32356 0
M  V30 2473 H 228.646 0.634262 0.530698 0
M  V30 2474 H 231.192 1.64725 0.407883 0
M  V30 2475 H 229.964 3.70473 1.25958 0
M  V30 2476 H 229.587 2.8662 2.75563 0
M  V30 2477 N 230.584 -0.659388 1.43143 0
M  V30 2478 C 231.494 -1.80167 1.50256 0
M  V30 2479 C 232.51 -1.69571 0.390106 0
M  V30 2480 O 233.686 -1.90849 0.643319 0
M  V30 2481 C 230.751 -3.16409 1.41725 0
M  V30 2482 C 229.812 -3.38848 2.63591 0
M  V30 2483 C 229.045 -4.68591 2.55458 0
M  V30 2484 O 229.268 -5.47532 1.59891 0
M  V30 2485 O 228.202 -4.92614 3.45854 0
M  V30 2486 H 232.028 -1.77121 2.46702 0
M  V30 2487 H 229.613 -0.817092 1.25076 0
M  V30 2488 H 231.495 -3.9768 1.39387 0
M  V30 2489 H 230.17 -3.20059 0.484118 0
M  V30 2490 H 229.077 -2.57366 2.71502 0
M  V30 2491 H 230.41 -3.4004 3.55856 0
M  V30 2492 N 232.062 -1.29571 -0.897171 0
M  V30 2493 C 232.972 -1.16808 -2.03453 0
M  V30 2494 C 233.988 -0.0907471 -1.73763 0
M  V30 2495 O 235.164 -0.303312 -1.99103 0
M  V30 2496 C 232.229 -0.848264 -3.36163 0
M  V30 2497 C 231.29 -2.0097 -3.79354 0
M  V30 2498 C 230.523 -1.70505 -5.05731 0
M  V30 2499 O 230.746 -0.62718 -5.66941 0
M  V30 2500 O 229.68 -2.5538 -5.45036 0
M  V30 2501 H 233.506 -2.12325 -2.17144 0
M  V30 2502 H 231.091 -1.09047 -1.02123 0
M  V30 2503 H 232.973 -0.684581 -4.15802 0
M  V30 2504 H 231.648 0.0771071 -3.23608 0
M  V30 2505 H 230.555 -2.22863 -3.00471 0
M  V30 2506 H 231.888 -2.91636 -3.96496 0
M  V30 2507 N 233.54 1.10788 -1.12088 0
M  V30 2508 C 234.45 2.20599 -0.798338 0
M  V30 2509 C 235.466 1.72712 0.21135 0
M  V30 2510 O 236.642 2.01348 0.0458477 0
M  V30 2511 C 233.707 3.45771 -0.253674 0
M  V30 2512 C 232.768 4.08411 -1.32283 0
M  V30 2513 C 232.001 5.27608 -0.80406 0
M  V30 2514 O 232.224 5.69241 0.363478 0
M  V30 2515 O 231.158 5.8101 -1.57198 0
M  V30 2516 H 234.984 2.50614 -1.7154 0
M  V30 2517 H 232.569 1.19454 -0.897275 0
M  V30 2518 H 234.451 4.21376 0.0453691 0
M  V30 2519 H 233.126 3.1739 0.636005 0
M  V30 2520 H 232.033 3.34507 -1.67499 0
M  V30 2521 H 233.366 4.40986 -2.18614 0
M  V30 2522 N 235.018 0.912232 1.28515 0
M  V30 2523 C 236.295 0.463597 1.90027 0
M  V30 2524 C 236.675 -1.05753 1.82701 0
M  V30 2525 O 236.023 -1.90492 1.26194 0
M  V30 2526 C 236.233 0.992253 3.34597 0
M  V30 2527 C 237.581 1.04344 4.11579 0
M  V30 2528 O 238.605 0.94079 3.43551 0
M  V30 2529 O 237.464 1.1995 5.33174 0
M  V30 2530 H 234.558 0.146666 0.813891 0
M  V30 2531 H 237.104 1.00292 1.36893 0
M  V30 2532 H 235.876 2.03623 3.34146 0
M  V30 2533 H 235.499 0.433672 3.95228 0
M  V30 2534 N 236.496 -1.42363 0.676048 0
M  V30 2535 C 237.406 -2.346 -0.00153389 0
M  V30 2536 C 238.422 -1.5516 -0.787485 0
M  V30 2537 O 239.598 -1.87723 -0.729521 0
M  V30 2538 C 236.663 -3.33705 -0.940298 0
M  V30 2539 C 235.724 -4.29042 -0.148739 0
M  V30 2540 C 234.957 -5.23413 -1.04279 0
M  V30 2541 O 235.18 -5.22749 -2.28232 0
M  V30 2542 O 234.114 -5.99795 -0.502925 0
M  V30 2543 H 237.94 -2.94082 0.758268 0
M  V30 2544 H 235.525 -1.42888 0.436289 0
M  V30 2545 H 237.407 -3.94586 -1.47917 0
M  V30 2546 H 236.082 -2.76695 -1.67993 0
M  V30 2547 H 234.989 -3.71571 0.43427 0
M  V30 2548 H 236.322 -4.89097 0.551805 0
M  V30 2549 N 237.974 -0.419461 -1.51915 0
M  V30 2550 C 238.884 0.407528 -2.31033 0
M  V30 2551 C 239.9 1.04413 -1.3919 0
M  V30 2552 O 241.076 1.0434 -1.72265 0
M  V30 2553 C 238.141 1.50365 -3.12396 0
M  V30 2554 C 237.202 0.889029 -4.19994 0
M  V30 2555 C 236.435 1.93291 -4.97468 0
M  V30 2556 O 236.658 3.15259 -4.75361 0
M  V30 2557 O 235.592 1.53339 -5.8204 0
M  V30 2558 H 239.418 -0.237865 -3.02767 0
M  V30 2559 H 237.003 -0.182413 -1.48282 0
M  V30 2560 H 238.885 2.13975 -3.63032 0
M  V30 2561 H 237.56 2.13345 -2.43445 0
M  V30 2562 H 236.467 0.215353 -3.7348 0
M  V30 2563 H 237.8 0.302991 -4.91267 0
M  V30 2564 N 239.452 1.56882 -0.150215 0
M  V30 2565 C 240.415 2.1573 0.774157 0
M  V30 2566 C 241.415 1.0999 1.17298 0
M  V30 2567 O 242.605 1.35613 1.09338 0
M  V30 2568 C 239.737 2.72302 2.05096 0
M  V30 2569 H 240.93 2.98752 0.262201 0
M  V30 2570 H 238.483 1.55985 0.099248 0
M  V30 2571 H 239.218 1.92956 2.6065 0
M  V30 2572 H 239.003 3.49665 1.77416 0
M  V30 2573 H 240.493 3.17632 2.71109 0
M  V30 2574 N 240.93 -0.123565 1.57115 0
M  V30 2575 C 241.877 -1.15177 2.00007 0
M  V30 2576 C 242.847 -1.41403 0.871454 0
M  V30 2577 O 244.032 -1.53346 1.13533 0
M  V30 2578 C 241.172 -2.47436 2.40561 0
M  V30 2579 C 240.285 -2.28184 3.66819 0
M  V30 2580 C 239.42 -3.53641 3.96373 0
M  V30 2581 C 238.459 -3.29528 5.15827 0
M  V30 2582 N 237.596 -4.47175 5.41275 0
M  V30 2583 H 242.436 -0.779008 2.87638 0
M  V30 2584 H 239.973 -0.373166 1.42288 0
M  V30 2585 H 241.931 -3.24584 2.62109 0
M  V30 2586 H 240.561 -2.82614 1.55978 0
M  V30 2587 H 239.613 -1.41976 3.52912 0
M  V30 2588 H 240.925 -2.0634 4.5412 0
M  V30 2589 H 240.079 -4.39209 4.18545 0
M  V30 2590 H 238.818 -3.78512 3.07538 0
M  V30 2591 H 237.823 -2.42349 4.93505 0
M  V30 2592 H 239.048 -3.06031 6.06236 0
M  V30 2593 H 236.994 -4.72175 4.55397 0
M  V30 2594 H 236.911 -4.28419 6.22891 0
M  V30 2595 H 238.179 -5.3389 5.67963 0
M  V30 2596 N 242.408 -1.52605 -0.393616 0
M  V30 2597 C 243.355 -1.77055 -1.48054 0
M  V30 2598 C 244.325 -0.61358 -1.54352 0
M  V30 2599 O 245.51 -0.852806 -1.70681 0
M  V30 2600 C 242.65 -1.94108 -2.85335 0
M  V30 2601 C 241.763 -3.21792 -2.88226 0
M  V30 2602 C 240.898 -3.29188 -4.16904 0
M  V30 2603 C 239.937 -4.51013 -4.13828 0
M  V30 2604 N 239.074 -4.55716 -5.34105 0
M  V30 2605 H 243.914 -2.69815 -1.26506 0
M  V30 2606 H 241.451 -1.33683 -0.61379 0
M  V30 2607 H 243.409 -2.01979 -3.65049 0
M  V30 2608 H 242.039 -1.04713 -3.05344 0
M  V30 2609 H 241.091 -3.23015 -2.00911 0
M  V30 2610 H 242.403 -4.11557 -2.8182 0
M  V30 2611 H 241.557 -3.36216 -5.05018 0
M  V30 2612 H 240.296 -2.37389 -4.26026 0
M  V30 2613 H 239.301 -4.44115 -3.24102 0
M  V30 2614 H 240.526 -5.44123 -4.06333 0
M  V30 2615 H 238.472 -3.66807 -5.43865 0
M  V30 2616 H 238.389 -5.39346 -5.29756 0
M  V30 2617 H 239.657 -4.66993 -6.2413 0
M  V30 2618 N 243.887 0.651787 -1.4349 0
M  V30 2619 C 244.819 1.77725 -1.44729 0
M  V30 2620 C 245.832 1.59141 -0.343231 0
M  V30 2621 O 247.021 1.67835 -0.607751 0
M  V30 2622 C 244.121 3.15172 -1.24579 0
M  V30 2623 C 243.294 3.60402 -2.47849 0
M  V30 2624 C 242.353 4.76656 -2.22902 0
M  V30 2625 O 241.379 4.86022 -2.96263 0
M  V30 2626 N 242.581 5.66958 -1.24656 0
M  V30 2627 H 245.346 1.77141 -2.41746 0
M  V30 2628 H 242.907 0.835678 -1.38665 0
M  V30 2629 H 244.899 3.90634 -1.0577 0
M  V30 2630 H 243.469 3.1052 -0.360015 0
M  V30 2631 H 242.689 2.75369 -2.82073 0
M  V30 2632 H 243.977 3.87368 -3.29884 0
M  V30 2633 H 243.375 5.62065 -0.640265 0
M  V30 2634 H 241.932 6.42135 -1.1183 0
M  V30 2635 N 245.365 1.30045 0.890287 0
M  V30 2636 C 246.593 1.21472 1.67487 0
M  V30 2637 C 247.008 -0.223241 1.87476 0
M  V30 2638 O 246.365 -1.14828 1.41847 0
M  V30 2639 C 246.416 1.93394 3.05419 0
M  V30 2640 O 246.137 3.31576 2.86337 0
M  V30 2641 C 247.638 1.91414 3.99844 0
M  V30 2642 H 244.858 0.420604 0.522813 0
M  V30 2643 H 247.402 1.7158 1.11268 0
M  V30 2644 H 245.557 1.47099 3.58386 0
M  V30 2645 H 245.971 3.67929 3.73802 0
M  V30 2646 H 247.445 2.46285 4.94012 0
M  V30 2647 H 247.922 0.891833 4.3005 0
M  V30 2648 H 248.528 2.37496 3.52811 0
M  V30 2649 N 246.843 -1.10192 1.12674 0
M  V30 2650 C 248.254 -1.63707 0.897604 0
M  V30 2651 C 248.605 -1.87812 -0.567546 0
M  V30 2652 O 247.73 -1.62196 -1.43253 0
M  V30 2653 C 248.325 -2.974 1.62292 0
M  V30 2654 C 246.884 -3.47772 1.43986 0
M  V30 2655 C 246.031 -2.22332 1.65722 0
M  V30 2656 H 248.982 -0.936587 1.28116 0
M  V30 2657 H 249.003 -3.64986 1.07541 0
M  V30 2658 H 248.515 -2.79824 2.68924 0
M  V30 2659 H 246.616 -3.70487 0.396206 0
M  V30 2660 H 246.729 -4.25723 2.19765 0
M  V30 2661 H 245.093 -2.30599 1.08149 0
M  V30 2662 H 245.876 -2.07285 2.73657 0
M  V30 2663 N 248.321 -0.919034 -1.28029 0
M  V30 2664 C 249.268 -0.410005 -2.27129 0
M  V30 2665 C 250.238 0.518405 -1.57803 0
M  V30 2666 O 251.423 0.439451 -1.8567 0
M  V30 2667 C 248.563 0.339054 -3.4343 0
M  V30 2668 C 247.676 -0.622468 -4.27492 0
M  V30 2669 C 246.811 0.145567 -5.31001 0
M  V30 2670 C 245.85 -0.809226 -6.06727 0
M  V30 2671 N 244.987 -0.0743728 -7.02061 0
M  V30 2672 H 249.827 -1.26011 -2.70047 0
M  V30 2673 H 247.364 -0.632663 -1.328 0
M  V30 2674 H 249.322 0.789586 -4.0966 0
M  V30 2675 H 247.952 1.15346 -3.01488 0
M  V30 2676 H 247.004 -1.19153 -3.61257 0
M  V30 2677 H 248.316 -1.35252 -4.80113 0
M  V30 2678 H 247.47 0.656417 -6.03139 0
M  V30 2679 H 246.209 0.908643 -4.79161 0
M  V30 2680 H 245.214 -1.3314 -5.33436 0
M  V30 2681 H 246.439 -1.57194 -6.60656 0
M  V30 2682 H 244.385 0.670616 -6.52563 0
M  V30 2683 H 244.302 -0.744157 -7.52329 0
M  V30 2684 H 245.57 0.416109 -7.78389 0
M  V30 2685 N 249.799 1.42003 -0.683588 0
M  V30 2686 C 250.731 2.29183 0.0283068 0
M  V30 2687 C 251.744 1.4415 0.756611 0
M  V30 2688 O 252.933 1.67779 0.609306 0
M  V30 2689 C 250.033 3.21765 1.06398 0
M  V30 2690 C 249.206 4.35496 0.407723 0
M  V30 2691 C 248.265 5.08737 1.34437 0
M  V30 2692 O 247.291 5.62948 0.841318 0
M  V30 2693 N 248.493 5.15075 2.67728 0
M  V30 2694 H 251.258 2.9092 -0.720105 0
M  V30 2695 H 248.819 1.53025 -0.528682 0
M  V30 2696 H 250.811 3.6763 1.69204 0
M  V30 2697 H 249.381 2.61418 1.71404 0
M  V30 2698 H 248.601 3.92165 -0.400012 0
M  V30 2699 H 249.889 5.08776 -0.0490956 0
M  V30 2700 H 249.287 4.72457 3.11129 0
M  V30 2701 H 247.844 5.64556 3.2576 0
M  V30 2702 N 251.277 0.427512 1.51691 0
M  V30 2703 C 252.693 0.0792977 1.59403 0
M  V30 2704 C 252.893 -1.41035 1.43914 0
M  V30 2705 O 251.949 -2.17922 1.27539 0
M  V30 2706 C 253.262 0.590636 2.94842 0
M  V30 2707 C 254.81 0.550215 3.08126 0
M  V30 2708 C 255.285 1.03836 4.46074 0
M  V30 2709 N 256.776 0.995943 4.52366 0
M  V30 2710 C 257.511 1.34463 5.57411 0
M  V30 2711 N 257.007 1.76569 6.69922 0
M  V30 2712 N 258.8 1.26343 5.47717 0
M  V30 2713 H 250.951 1.39687 1.60004 0
M  V30 2714 H 253.214 0.575003 0.753708 0
M  V30 2715 H 252.92 1.63251 3.11516 0
M  V30 2716 H 252.794 0.0102061 3.77199 0
M  V30 2717 H 255.181 -0.482654 2.91126 0
M  V30 2718 H 255.262 1.16693 2.27632 0
M  V30 2719 H 254.906 2.06965 4.63819 0
M  V30 2720 H 254.836 0.398286 5.25092 0
M  V30 2721 H 257.327 0.68661 3.7161 0
M  V30 2722 H 257.64 2.01438 7.46085 0
M  V30 2723 H 255.985 1.80488 6.71155 0
M  V30 2724 H 259.176 0.933209 4.58703 0
M  V30 2725 H 259.349 1.53846 6.29472 0
M  V30 2726 N 252.755 -1.56801 0.158532 0
M  V30 2727 C 253.685 -2.20347 -0.772609 0
M  V30 2728 C 254.666 -1.15518 -1.24859 0
M  V30 2729 O 255.851 -1.43902 -1.30406 0
M  V30 2730 C 252.981 -2.83417 -2.00729 0
M  V30 2731 C 251.935 -3.94174 -1.66765 0
M  V30 2732 C 251.261 -4.44233 -2.97592 0
M  V30 2733 C 252.561 -5.14392 -0.905447 0
M  V30 2734 H 254.255 -2.98413 -0.242959 0
M  V30 2735 H 251.801 -1.43537 -0.115419 0
M  V30 2736 H 253.754 -3.26543 -2.6636 0
M  V30 2737 H 252.478 -2.02701 -2.56086 0
M  V30 2738 H 251.137 -3.51684 -1.03508 0
M  V30 2739 H 250.785 -3.60325 -3.50963 0
M  V30 2740 H 250.485 -5.18945 -2.75626 0
M  V30 2741 H 252.009 -4.90037 -3.64274 0
M  V30 2742 H 253.423 -5.5429 -1.46408 0
M  V30 2743 H 251.82 -5.9494 -0.7853 0
M  V30 2744 H 252.89 -4.84795 0.100668 0
M  V30 2745 N 254.233 0.115231 -1.57178 0
M  V30 2746 C 255.163 1.1423 -2.03651 0
M  V30 2747 C 256.144 1.42967 -0.921655 0
M  V30 2748 O 257.329 1.53343 -1.19162 0
M  V30 2749 C 254.459 2.4675 -2.44401 0
M  V30 2750 C 253.413 2.32467 -3.59365 0
M  V30 2751 C 252.739 3.69984 -3.86026 0
M  V30 2752 C 254.039 1.78203 -4.90959 0
M  V30 2753 H 255.733 0.755749 -2.89705 0
M  V30 2754 H 253.279 0.362093 -1.39373 0
M  V30 2755 H 255.232 3.18854 -2.75517 0
M  V30 2756 H 253.956 2.87302 -1.55322 0
M  V30 2757 H 252.615 1.62811 -3.28463 0
M  V30 2758 H 252.263 4.08028 -2.94147 0
M  V30 2759 H 251.963 3.61279 -4.63412 0
M  V30 2760 H 253.487 4.43587 -4.19599 0
M  V30 2761 H 254.901 2.40128 -5.20587 0
M  V30 2762 H 253.298 1.8031 -5.72371 0
M  V30 2763 H 254.368 0.739876 -4.79222 0
M  V30 2764 N 255.711 1.52812 0.385517 0
M  V30 2765 C 256.959 1.67694 1.12797 0
M  V30 2766 C 257.28 0.421115 1.90399 0
M  V30 2767 O 256.55 -0.564551 1.87589 0
M  V30 2768 H 255.13 0.618155 0.419396 0
M  V30 2769 H 257.792 1.89938 0.436972 0
M  V30 2770 H 256.888 2.52896 1.82894 0
M  V30 2771 N 257.189 -0.644168 1.43834 0
M  V30 2772 C 258.435 -1.40431 1.47141 0
M  V30 2773 C 258.79 -1.92153 0.0975577 0
M  V30 2774 O 258.083 -1.69924 -0.885232 0
M  V30 2775 C 258.277 -2.59615 2.45631 0
M  V30 2776 C 258.106 -2.1956 3.92458 0
M  V30 2777 C 256.876 -2.07456 4.60749 0
M  V30 2778 C 259.074 -1.79281 4.8204 0
M  V30 2779 N 257.056 -1.60827 5.92459 0
M  V30 2780 C 258.427 -1.43801 6.03093 0
M  V30 2781 C 260.482 -1.66545 4.6922 0
M  V30 2782 C 259.185 -0.968599 7.12749 0
M  V30 2783 C 261.211 -1.21008 5.78888 0
M  V30 2784 C 260.573 -0.864711 6.99072 0
M  V30 2785 H 256.672 -0.509182 0.593513 0
M  V30 2786 H 259.256 -0.740351 1.80075 0
M  V30 2787 H 257.427 -3.23658 2.1471 0
M  V30 2788 H 259.159 -3.26357 2.39318 0
M  V30 2789 H 255.914 -2.275 4.1538 0
M  V30 2790 H 256.338 -1.39848 6.62398 0
M  V30 2791 H 260.98 -1.91883 3.7675 0
M  V30 2792 H 258.698 -0.702715 8.05039 0
M  V30 2793 H 262.284 -1.11631 5.7099 0
M  V30 2794 H 261.164 -0.517736 7.82489 0
M  V30 2795 N 258.668 -1.30515 -0.883378 0
M  V30 2796 C 259.917 -1.18795 -1.63005 0
M  V30 2797 C 260.23 0.255923 -1.93919 0
M  V30 2798 O 261.436 0.494654 -2.66956 0
M  V30 2799 C 259.892 -2.07878 -2.93794 0
M  V30 2800 C 259.5 -3.57184 -2.70414 0
M  V30 2801 C 261.244 -2.04924 -3.71761 0
M  V30 2802 C 259.151 -4.38317 -3.97029 0
M  V30 2803 H 258.081 -0.441031 -0.611562 0
M  V30 2804 H 260.732 -1.55275 -0.977854 0
M  V30 2805 H 259.114 -1.64283 -3.60315 0
M  V30 2806 H 260.288 -4.08937 -2.12384 0
M  V30 2807 H 258.603 -3.61976 -2.0582 0
M  V30 2808 H 261.2 -2.62792 -4.65665 0
M  V30 2809 H 261.543 -1.0331 -4.03277 0
M  V30 2810 H 262.076 -2.46649 -3.12104 0
M  V30 2811 H 258.815 -5.40632 -3.70671 0
M  V30 2812 H 258.335 -3.91326 -4.54559 0
M  V30 2813 H 260.014 -4.49834 -4.65036 0
M  V30 2814 N 260.146 1.09593 -1.13257 0
M  V30 2815 C 261.078 2.16015 -0.766167 0
M  V30 2816 C 262.091 1.61423 0.211303 0
M  V30 2817 O 263.28 1.78498 -0.00863946 0
M  V30 2818 C 260.38 3.38706 -0.114662 0
M  V30 2819 C 259.553 4.22717 -1.12379 0
M  V30 2820 C 258.612 5.23835 -0.498301 0
M  V30 2821 O 257.638 5.573 -1.15781 0
M  V30 2822 N 258.84 5.75886 0.730417 0
M  V30 2823 H 261.605 2.48055 -1.68193 0
M  V30 2824 H 259.166 1.25292 -1.02535 0
M  V30 2825 H 261.158 4.03464 0.315991 0
M  V30 2826 H 259.728 3.04569 0.704011 0
M  V30 2827 H 258.948 3.54122 -1.73179 0
M  V30 2828 H 260.236 4.75673 -1.80589 0
M  V30 2829 H 259.634 5.50911 1.28504 0
M  V30 2830 H 258.191 6.42387 1.10376 0
M  V30 2831 N 261.624 0.925811 1.2754 0
M  V30 2832 C 262.572 0.413897 2.28888 0
M  V30 2833 C 263.566 -0.500779 1.61829 0
M  V30 2834 O 264.772 -0.38069 1.75928 0
M  V30 2835 H 261.147 0.115274 0.743112 0
M  V30 2836 H 263.118 1.28151 2.69481 0
M  V30 2837 C 261.867 -0.319792 3.46226 0
M  V30 2838 H 261.19 0.374846 3.98039 0
M  V30 2839 H 262.63 -0.642435 4.19105 0
M  V30 2840 C 261.089 -1.53209 3.00048 0
M  V30 2841 O 261.619 -2.6309 3.03557 0
M  V30 2842 N 259.825 -1.38326 2.55566 0
M  V30 2843 H 259.372 -0.489292 2.5291 0
M  V30 2844 H 259.33 -2.19564 2.25031 0
M  V30 2845 N 263.102 -1.41638 0.69111 0
M  V30 2846 C 264.049 -2.30789 0.0229705 0
M  V30 2847 C 265.019 -1.46863 -0.775911 0
M  V30 2848 O 266.204 -1.75661 -0.74485 0
M  V30 2849 C 263.344 -3.32868 -0.910666 0
M  V30 2850 C 262.457 -4.31875 -0.103874 0
M  V30 2851 C 261.592 -5.21024 -1.03475 0
M  V30 2852 C 260.631 -6.11702 -0.220598 0
M  V30 2853 N 259.768 -6.93349 -1.10504 0
M  V30 2854 H 264.608 -2.87366 0.788978 0
M  V30 2855 H 262.145 -1.41535 0.400794 0
M  V30 2856 H 264.103 -3.90596 -1.46597 0
M  V30 2857 H 262.733 -2.77851 -1.64312 0
M  V30 2858 H 261.785 -3.76131 0.568285 0
M  V30 2859 H 263.097 -4.96003 0.527504 0
M  V30 2860 H 262.251 -5.83565 -1.65943 0
M  V30 2861 H 260.99 -4.57112 -1.69999 0
M  V30 2862 H 259.995 -5.48215 0.417187 0
M  V30 2863 H 261.22 -6.77668 0.440784 0
M  V30 2864 H 259.166 -6.3205 -1.75638 0
M  V30 2865 H 259.083 -7.54146 -0.529125 0
M  V30 2866 H 260.351 -7.60362 -1.71667 0
M  V30 2867 N 264.58 -0.43555 -1.51462 0
M  V30 2868 C 265.51 0.367376 -2.30592 0
M  V30 2869 C 266.491 1.02263 -1.35928 0
M  V30 2870 O 267.676 1.02661 -1.64847 0
M  V30 2871 C 264.806 1.46983 -3.14664 0
M  V30 2872 C 263.76 0.938161 -4.17591 0
M  V30 2873 C 263.086 2.13622 -4.90173 0
M  V30 2874 C 264.386 -0.0261621 -5.22293 0
M  V30 2875 H 266.08 -0.292969 -2.97963 0
M  V30 2876 H 263.626 -0.14234 -1.43295 0
M  V30 2877 H 265.579 2.03873 -3.688 0
M  V30 2878 H 264.303 2.15843 -2.4511 0
M  V30 2879 H 262.962 0.391481 -3.64504 0
M  V30 2880 H 262.61 2.81098 -4.17124 0
M  V30 2881 H 262.31 1.78688 -5.59772 0
M  V30 2882 H 263.834 2.7107 -5.47132 0
M  V30 2883 H 265.248 0.452384 -5.71512 0
M  V30 2884 H 263.645 -0.287992 -5.99409 0
M  V30 2885 H 264.715 -0.963391 -4.75233 0
M  V30 2886 N 266.058 1.56714 -0.166846 0
M  V30 2887 C 267.469 1.83378 0.350646 0
M  V30 2888 C 267.82 1.08646 1.63372 0
M  V30 2889 O 266.945 0.338058 2.13743 0
M  V30 2890 C 267.54 3.32643 0.642963 0
M  V30 2891 C 266.099 3.59818 1.10491 0
M  V30 2892 C 265.246 2.76954 0.138411 0
M  V30 2893 H 268.197 1.53803 -0.391193 0
M  V30 2894 H 268.218 3.49878 1.49551 0
M  V30 2895 H 267.73 3.87007 -0.291055 0
M  V30 2896 H 265.831 3.1086 2.05418 0
M  V30 2897 H 265.944 4.68178 1.01716 0
M  V30 2898 H 264.308 2.4666 0.634911 0
M  V30 2899 H 265.091 3.34097 -0.789549 0
M  V30 2900 N 267.536 -0.106894 1.57237 0
M  V30 2901 C 268.468 -1.15646 1.97885 0
M  V30 2902 C 269.481 -1.36981 0.879779 0
M  V30 2903 O 270.67 -1.35841 1.15799 0
M  V30 2904 C 267.77 -2.51425 2.27241 0
M  V30 2905 C 266.943 -2.50529 3.58545 0
M  V30 2906 C 266.002 -3.68145 3.75973 0
M  V30 2907 O 265.028 -3.51176 4.47956 0
M  V30 2908 N 266.23 -4.87177 3.15656 0
M  V30 2909 H 268.995 -0.81059 2.8853 0
M  V30 2910 H 266.556 -0.296024 1.59171 0
M  V30 2911 H 268.548 -3.28689 2.36105 0
M  V30 2912 H 267.118 -2.78147 1.42663 0
M  V30 2913 H 266.338 -1.58894 3.60758 0
M  V30 2914 H 267.626 -2.46997 4.44826 0
M  V30 2915 H 267.024 -5.03868 2.57165 0
M  V30 2916 H 265.581 -5.62075 3.30023 0
M  V30 2917 N 269.014 -1.53014 -0.377408 0
M  V30 2918 C 269.944 -1.81589 -1.46791 0
M  V30 2919 C 270.925 -0.668622 -1.56408 0
M  V30 2920 O 272.11 -0.917337 -1.71168 0
M  V30 2921 C 269.24 -1.99519 -2.8427 0
M  V30 2922 C 268.194 -3.15249 -2.89486 0
M  V30 2923 C 267.52 -3.18451 -4.29527 0
M  V30 2924 C 268.82 -4.54084 -2.58079 0
M  V30 2925 H 270.514 -2.7291 -1.23127 0
M  V30 2926 H 268.06 -1.31319 -0.590883 0
M  V30 2927 H 270.013 -2.18092 -3.60575 0
M  V30 2928 H 268.737 -1.04897 -3.09296 0
M  V30 2929 H 267.396 -2.96477 -2.15631 0
M  V30 2930 H 267.044 -2.2149 -4.5161 0
M  V30 2931 H 266.744 -3.962 -4.33934 0
M  V30 2932 H 268.268 -3.39193 -5.07721 0
M  V30 2933 H 269.682 -4.72899 -3.24098 0
M  V30 2934 H 268.079 -5.33987 -2.7382 0
M  V30 2935 H 269.149 -4.60006 -1.53372 0
M  V30 2936 N 270.492 0.636531 -1.44174 0
M  V30 2937 C 271.903 1.21806 -1.41493 0
M  V30 2938 C 272.254 1.95785 -0.1275 0
M  V30 2939 O 271.379 2.02147 0.772376 0
M  V30 2940 C 271.974 2.21551 -2.56321 0
M  V30 2941 C 270.533 2.75143 -2.56853 0
M  V30 2942 C 269.68 1.50052 -2.33195 0
M  V30 2943 H 272.631 0.427531 -1.52833 0
M  V30 2944 H 272.652 3.0405 -2.28765 0
M  V30 2945 H 272.164 1.67679 -3.50008 0
M  V30 2946 H 270.265 3.33033 -1.67093 0
M  V30 2947 H 270.378 3.2155 -3.55165 0
M  V30 2948 H 268.742 1.77993 -1.82183 0
M  V30 2949 H 269.525 0.980903 -3.28988 0
M  V30 2950 N 271.97 1.30982 0.876444 0
M  V30 2951 C 273.219 1.19658 1.62373 0
M  V30 2952 C 273.532 -0.245636 1.94052 0
M  V30 2953 O 274.738 -0.48049 2.67214 0
M  V30 2954 C 273.194 2.09433 2.92687 0
M  V30 2955 C 272.802 3.58613 2.68516 0
M  V30 2956 C 274.546 2.06893 3.70669 0
M  V30 2957 C 272.453 4.40416 3.94699 0
M  V30 2958 H 271.383 0.444268 0.609214 0
M  V30 2959 H 274.034 1.55791 0.969605 0
M  V30 2960 H 272.416 1.66191 3.59439 0
M  V30 2961 H 273.59 4.10058 2.10212 0
M  V30 2962 H 271.905 3.63063 2.03898 0
M  V30 2963 H 274.502 2.65258 4.64265 0
M  V30 2964 H 274.845 1.05448 4.02724 0
M  V30 2965 H 275.378 2.48301 3.10792 0
M  V30 2966 H 272.117 5.42591 3.67798 0
M  V30 2967 H 271.637 3.93731 4.52477 0
M  V30 2968 H 273.316 4.52294 4.62644 0
M  V30 2969 N 273.449 -1.08991 1.13837 0
M  V30 2970 C 274.677 -1.85011 0.926202 0
M  V30 2971 C 275.092 -1.8135 -0.525127 0
M  V30 2972 O 274.449 -1.21287 -1.36366 0
M  V30 2973 C 274.5 -3.32802 1.41155 0
M  V30 2974 O 274.221 -3.36444 2.80601 0
M  V30 2975 C 275.722 -4.25649 1.23847 0
M  V30 2976 H 272.942 -0.584249 0.32999 0
M  V30 2977 H 275.486 -1.37688 1.51202 0
M  V30 2978 H 273.641 -3.77536 0.868631 0
M  V30 2979 H 274.055 -4.28657 3.02248 0
M  V30 2980 H 275.529 -5.27485 1.62675 0
M  V30 2981 H 276.006 -4.38828 0.18065 0
M  V30 2982 H 276.612 -3.86735 1.76964 0
M  V30 2983 N 274.927 -0.932562 -1.27047 0
M  V30 2984 C 275.875 -0.42603 -2.28665 0
M  V30 2985 C 276.869 0.49219 -1.62092 0
M  V30 2986 O 278.075 0.371355 -1.76128 0
M  V30 2987 H 274.45 -0.119213 -0.742491 0
M  V30 2988 H 276.421 -1.29579 -2.68797 0
M  V30 2989 C 275.17 0.301426 -3.46391 0
M  V30 2990 H 274.493 -0.39595 -3.97834 0
M  V30 2991 H 275.933 0.6202 -4.1944 0
M  V30 2992 C 274.392 1.51616 -3.00856 0
M  V30 2993 O 274.922 2.61476 -3.04948 0
M  V30 2994 N 273.128 1.36969 -2.56296 0
M  V30 2995 H 272.675 0.475873 -2.53166 0
M  V30 2996 H 272.633 2.18368 -2.26192 0
M  V30 2997 N 276.405 1.4127 -0.698611 0
M  V30 2998 C 277.652 2.0118 -0.230865 0
M  V30 2999 C 277.98 1.55338 1.17049 0
M  V30 3000 O 277.235 0.756775 1.80475 0
M  V30 3001 C 277.534 3.56592 -0.240192 0
M  V30 3002 C 277.2 4.21955 -1.58948 0
M  V30 3003 C 275.862 4.39524 -1.95887 0
M  V30 3004 C 278.214 4.58576 -2.47704 0
M  V30 3005 C 275.542 4.90992 -3.2116 0
M  V30 3006 C 277.894 5.11435 -3.72313 0
M  V30 3007 C 276.558 5.27215 -4.0939 0
M  V30 3008 H 275.828 0.736169 -0.0844796 0
M  V30 3009 H 278.475 1.69124 -0.8983 0
M  V30 3010 H 276.78 3.88456 0.510797 0
M  V30 3011 H 278.477 4.00758 0.139296 0
M  V30 3012 H 275.067 4.08657 -1.29219 0
M  V30 3013 H 279.251 4.44654 -2.20445 0
M  V30 3014 H 274.507 5.01393 -3.49878 0
M  V30 3015 H 278.681 5.38752 -4.4127 0
M  V30 3016 H 276.308 5.66859 -5.06533 0
M  V30 3017 N 277.883 0.443576 1.51229 0
M  V30 3018 C 279.108 -0.121648 2.07043 0
M  V30 3019 C 279.533 -1.35156 1.30823 0
M  V30 3020 O 278.891 -1.7793 0.347934 0
M  V30 3021 C 278.939 -0.41624 3.5819 0
M  V30 3022 O 278.043 -1.50163 3.8409 0
M  V30 3023 H 277.384 0.000871367 0.663999 0
M  V30 3024 H 279.914 0.626706 1.94765 0
M  V30 3025 H 279.924 -0.664867 4.02546 0
M  V30 3026 H 278.599 0.482653 4.1309 0
M  V30 3027 H 277.176 -1.24248 3.51592 0
M  V30 3028 N 279.361 -1.56624 0.175154 0
M  V30 3029 C 280.777 -1.58571 -0.180966 0
M  V30 3030 C 280.977 -1.19065 -1.6256 0
M  V30 3031 O 280.033 -0.904044 -2.35761 0
M  V30 3032 C 281.346 -3.00522 0.103326 0
M  V30 3033 C 282.894 -3.12972 0.0418426 0
M  V30 3034 C 283.369 -4.57022 0.299175 0
M  V30 3035 N 284.86 -4.62541 0.247086 0
M  V30 3036 C 285.595 -5.71857 0.420318 0
M  V30 3037 N 285.091 -6.89717 0.652816 0
M  V30 3038 N 286.884 -5.60972 0.355957 0
M  V30 3039 H 279.035 -1.80589 1.11809 0
M  V30 3040 H 281.298 -0.837178 0.444788 0
M  V30 3041 H 281.004 -3.33916 1.10422 0
M  V30 3042 H 280.878 -3.72344 -0.603299 0
M  V30 3043 H 283.265 -2.79403 -0.949636 0
M  V30 3044 H 283.346 -2.43578 0.781238 0
M  V30 3045 H 282.99 -4.913 1.28788 0
M  V30 3046 H 282.92 -5.24579 -0.460876 0
M  V30 3047 H 285.411 -3.77829 0.0731895 0
M  V30 3048 H 285.724 -7.68911 0.774347 0
M  V30 3049 H 284.069 -6.91572 0.689476 0
M  V30 3050 H 287.26 -4.67773 0.174882 0
M  V30 3051 H 287.433 -6.46111 0.494388 0
M  V30 3052 N 280.839 0.0985539 -1.57292 0
M  V30 3053 C 282.116 0.834155 -1.76921 0
M  V30 3054 C 282.496 1.97101 -0.755928 0
M  V30 3055 O 281.844 2.27474 0.216245 0
M  V30 3056 C 282.054 1.33194 -3.22584 0
M  V30 3057 C 283.402 1.77611 -3.85668 0
M  V30 3058 O 284.426 1.42825 -3.26312 0
M  V30 3059 O 283.285 2.4192 -4.90038 0
M  V30 3060 H 280.379 0.397628 -0.725135 0
M  V30 3061 H 282.925 0.0807044 -1.69508 0
M  V30 3062 H 281.697 0.517248 -3.87866 0
M  V30 3063 H 281.32 2.1475 -3.34616 0
M  V30 3064 N 282.317 1.53212 0.369288 0
M  V30 3065 C 283.563 1.70413 1.11046 0
M  V30 3066 C 283.918 0.448509 1.87099 0
M  V30 3067 O 283.211 -0.558382 1.83283 0
M  V30 3068 C 283.405 2.89101 2.10132 0
M  V30 3069 C 283.234 4.26084 1.43814 0
M  V30 3070 C 282.004 4.90994 1.19384 0
M  V30 3071 C 284.202 5.06754 0.877802 0
M  V30 3072 N 282.184 6.11911 0.49377 0
M  V30 3073 C 283.555 6.1924 0.306891 0
M  V30 3074 C 285.61 4.91814 0.776129 0
M  V30 3075 C 284.313 7.1842 -0.355774 0
M  V30 3076 C 286.339 5.91263 0.127252 0
M  V30 3077 C 285.701 7.03069 -0.432801 0
M  V30 3078 H 281.8 0.676872 0.391623 0
M  V30 3079 H 284.384 1.90603 0.397334 0
M  V30 3080 H 282.555 2.70456 2.78761 0
M  V30 3081 H 284.287 2.95142 2.76899 0
M  V30 3082 H 281.042 4.50074 1.47413 0
M  V30 3083 H 281.466 6.76813 0.159207 0
M  V30 3084 H 286.108 4.05564 1.19489 0
M  V30 3085 H 283.826 8.04264 -0.786499 0
M  V30 3086 H 287.412 5.81779 0.0495613 0
M  V30 3087 H 286.292 7.78702 -0.926958 0
M  V30 3088 N 283.795 -0.628877 1.44509 0
M  V30 3089 C 284.727 -1.754 1.47538 0
M  V30 3090 C 285.74 -1.58575 0.368506 0
M  V30 3091 O 286.929 -1.66847 0.634376 0
M  V30 3092 C 284.029 -3.1315 1.29577 0
M  V30 3093 C 283.202 -3.56413 2.53551 0
M  V30 3094 C 282.261 -4.7305 2.30457 0
M  V30 3095 O 281.287 -4.81247 3.03957 0
M  V30 3096 N 282.489 -5.64903 1.3366 0
M  V30 3097 H 285.254 -1.73272 2.44534 0
M  V30 3098 H 282.815 -0.813512 1.39977 0
M  V30 3099 H 284.807 -3.88902 1.11971 0
M  V30 3100 H 283.377 -3.09908 0.409371 0
M  V30 3101 H 282.597 -2.70847 2.86419 0
M  V30 3102 H 283.885 -3.82071 3.36005 0
M  V30 3103 H 283.283 -5.60975 0.729604 0
M  V30 3104 H 281.84 -6.40275 1.22032 0
M  V30 3105 N 285.273 -1.31445 -0.869486 0
M  V30 3106 C 286.498 -1.24256 -1.66058 0
M  V30 3107 C 286.923 0.188928 -1.87149 0
M  V30 3108 O 286.281 1.13522 -1.4136 0
M  V30 3109 C 286.329 -1.9924 -3.00559 0
M  V30 3110 O 285.433 -1.33007 -3.90362 0
M  V30 3111 H 284.774 -0.428973 -0.506831 0
M  V30 3112 H 287.304 -1.73521 -1.08404 0
M  V30 3113 H 287.314 -2.08854 -3.50491 0
M  V30 3114 H 285.989 -3.03342 -2.84528 0
M  V30 3115 H 284.566 -1.31848 -3.48813 0
M  V30 3116 N 286.751 1.08385 -1.14413 0
M  V30 3117 C 287.999 1.80419 -0.910679 0
M  V30 3118 C 288.32 1.86658 0.564243 0
M  V30 3119 O 287.59 1.35985 1.41014 0
M  V30 3120 H 286.17 0.668204 -0.333934 0
M  V30 3121 H 288.832 1.31037 -1.44275 0
M  V30 3122 H 287.928 2.83238 -1.31082 0
M  V30 3123 N 288.23 0.939286 1.26551 0
M  V30 3124 C 289.646 0.641304 1.46149 0
M  V30 3125 C 289.846 -0.805964 1.84679 0
M  V30 3126 O 288.902 -1.58278 1.96734 0
M  V30 3127 C 290.215 1.6011 2.54529 0
M  V30 3128 C 291.763 1.6106 2.68382 0
M  V30 3129 C 292.238 2.55765 3.79932 0
M  V30 3130 N 293.729 2.5404 3.87322 0
M  V30 3131 C 294.464 3.24004 4.73085 0
M  V30 3132 N 293.96 4.03388 5.63249 0
M  V30 3133 N 295.753 3.12965 4.66914 0
M  V30 3134 H 287.904 1.87478 0.998285 0
M  V30 3135 H 290.167 0.805559 0.499779 0
M  V30 3136 H 289.873 2.63412 2.33039 0
M  V30 3137 H 289.747 1.35171 3.52149 0
M  V30 3138 H 292.134 0.584835 2.89247 0
M  V30 3139 H 292.215 1.90053 1.71212 0
M  V30 3140 H 291.859 3.58458 3.5982 0
M  V30 3141 H 291.789 2.24063 4.76554 0
M  V30 3142 H 294.28 1.96396 3.22858 0
M  V30 3143 H 294.593 4.5373 6.25579 0
M  V30 3144 H 292.938 4.07489 5.63008 0
M  V30 3145 H 296.129 2.50432 3.95476 0
M  V30 3146 H 296.302 3.67759 5.33533 0
M  V30 3147 N 289.708 -1.40897 0.706093 0
M  V30 3148 C 290.671 -2.29131 0.0562841 0
M  V30 3149 C 291.671 -1.44901 -0.697166 0
M  V30 3150 O 292.861 -1.65926 -0.530484 0
M  V30 3151 C 289.993 -3.27957 -0.93043 0
M  V30 3152 H 291.186 -2.88091 0.833284 0
M  V30 3153 H 288.739 -1.4906 0.470192 0
M  V30 3154 H 289.474 -2.73997 -1.73482 0
M  V30 3155 H 289.259 -3.90124 -0.393166 0
M  V30 3156 H 290.749 -3.94049 -1.38256 0
M  V30 3157 N 291.186 -0.45159 -1.50991 0
M  V30 3158 C 292.116 0.342898 -2.30969 0
M  V30 3159 C 293.097 1.00815 -1.37005 0
M  V30 3160 O 294.282 1.00907 -1.65926 0
M  V30 3161 C 291.412 1.43637 -3.16205 0
M  V30 3162 C 290.366 0.893818 -4.18563 0
M  V30 3163 C 289.692 2.08411 -4.92411 0
M  V30 3164 C 290.992 -0.0815568 -5.22236 0
M  V30 3165 H 292.686 -0.324556 -2.97636 0
M  V30 3166 H 290.232 -0.157531 -1.43136 0
M  V30 3167 H 292.185 1.9995 -3.70942 0
M  V30 3168 H 290.909 2.13232 -2.47386 0
M  V30 3169 H 289.568 0.352798 -3.64898 0
M  V30 3170 H 289.216 2.76658 -4.20082 0
M  V30 3171 H 288.916 1.72741 -5.61636 0
M  V30 3172 H 290.44 2.65251 -5.49976 0
M  V30 3173 H 291.854 0.391742 -5.7196 0
M  V30 3174 H 290.251 -0.351551 -5.99069 0
M  V30 3175 H 291.321 -1.01374 -4.74185 0
M  V30 3176 N 292.664 1.56529 -0.183458 0
M  V30 3177 C 293.912 1.96855 0.457452 0
M  V30 3178 C 294.233 1.07104 1.62953 0
M  V30 3179 O 293.503 0.139887 1.954 0
M  V30 3180 H 292.083 0.72693 0.171992 0
M  V30 3181 H 294.745 1.93056 -0.267476 0
M  V30 3182 H 293.841 3.01423 0.809368 0
M  V30 3183 N 294.142 -0.090211 1.57342 0
M  V30 3184 C 295.105 -1.09335 2.01441 0
M  V30 3185 C 296.105 -1.32666 0.908641 0
M  V30 3186 O 297.295 -1.28697 1.174 0
M  V30 3187 C 294.427 -2.44136 2.3793 0
M  V30 3188 H 295.62 -0.713662 2.91285 0
M  V30 3189 H 293.173 -0.335404 1.52659 0
M  V30 3190 H 293.908 -2.86972 1.51055 0
M  V30 3191 H 293.693 -2.28548 3.18603 0
M  V30 3192 H 295.183 -3.16277 2.72688 0
M  V30 3193 N 295.62 -1.53406 -0.361157 0
M  V30 3194 C 296.55 -1.83136 -1.44857 0
M  V30 3195 C 297.531 -0.685174 -1.5569 0
M  V30 3196 O 298.716 -0.93544 -1.70186 0
M  V30 3197 C 295.846 -2.02522 -2.82138 0
M  V30 3198 C 294.8 -3.18302 -2.86126 0
M  V30 3199 C 294.126 -3.22989 -4.26125 0
M  V30 3200 C 295.426 -4.56796 -2.53248 0
M  V30 3201 H 297.12 -2.74201 -1.20226 0
M  V30 3202 H 294.666 -1.31938 -0.576922 0
M  V30 3203 H 296.619 -2.21904 -3.58241 0
M  V30 3204 H 295.343 -1.08172 -3.08166 0
M  V30 3205 H 294.002 -2.98747 -2.12475 0
M  V30 3206 H 293.65 -2.26267 -4.49235 0
M  V30 3207 H 293.35 -4.00781 -4.29708 0
M  V30 3208 H 294.874 -3.44559 -5.04094 0
M  V30 3209 H 296.288 -4.7631 -3.19064 0
M  V30 3210 H 294.685 -5.36862 -2.68141 0
M  V30 3211 H 295.755 -4.61606 -1.48484 0
M  V30 3212 N 297.098 0.621204 -1.44841 0
M  V30 3213 C 298.344 1.3826 -1.48365 0
M  V30 3214 C 298.677 1.93831 -0.119624 0
M  V30 3215 O 297.952 1.74251 0.864111 0
M  V30 3216 C 298.235 2.54058 -2.55199 0
M  V30 3217 C 298.088 2.03772 -4.00995 0
M  V30 3218 C 299.407 3.56225 -2.58442 0
M  V30 3219 H 296.526 0.501374 -0.540179 0
M  V30 3220 H 299.168 0.7015 -1.76576 0
M  V30 3221 H 297.318 3.12162 -2.31274 0
M  V30 3222 H 298.99 1.50423 -4.36086 0
M  V30 3223 H 297.233 1.34876 -4.12299 0
M  V30 3224 H 297.904 2.87185 -4.71411 0
M  V30 3225 H 300.38 3.07939 -2.79844 0
M  V30 3226 H 299.256 4.34756 -3.3508 0
M  V30 3227 H 299.517 4.10949 -1.63013 0
M  V30 3228 N 298.576 1.31904 0.862503 0
M  V30 3229 C 299.853 1.12644 1.59908 0
M  V30 3230 C 300.233 -0.316104 2.0872 0
M  V30 3231 O 299.581 -1.31145 1.87118 0
M  V30 3232 C 299.791 2.1472 2.7513 0
M  V30 3233 C 301.139 2.47637 3.44907 0
M  V30 3234 O 302.163 2.13205 2.85346 0
M  V30 3235 O 301.022 3.06632 4.52371 0
M  V30 3236 H 298.116 0.43416 0.703871 0
M  V30 3237 H 300.662 1.43408 0.907314 0
M  V30 3238 H 299.434 3.1172 2.3653 0
M  V30 3239 H 299.057 1.84905 3.51989 0
M  V30 3240 N 300.054 -1.07777 1.14986 0
M  V30 3241 C 301.279 -1.84558 0.946213 0
M  V30 3242 C 301.704 -1.81323 -0.500362 0
M  V30 3243 O 301.062 -1.20301 -1.35637 0
M  V30 3244 C 301.11 -3.29736 1.45968 0
M  V30 3245 O 300.214 -4.07149 0.65601 0
M  V30 3246 H 299.555 -0.571641 0.33782 0
M  V30 3247 H 302.085 -1.35991 1.52865 0
M  V30 3248 H 302.095 -3.80574 1.47063 0
M  V30 3249 H 300.77 -3.31406 2.51283 0
M  V30 3250 H 299.347 -3.65994 0.714322 0
M  V30 3251 N 301.532 -0.945985 -1.26051 0
M  V30 3252 C 302.772 -0.603665 -1.95282 0
M  V30 3253 C 303.136 0.842377 -1.72534 0
M  V30 3254 O 304.337 1.29387 -2.35611 0
M  V30 3255 C 302.608 -0.942292 -3.44754 0
M  V30 3256 S 304.167 -0.711242 -4.32997 0
M  V30 3257 H 300.985 -0.222176 -0.675395 0
M  V30 3258 H 303.587 -1.21832 -1.52896 0
M  V30 3259 H 302.291 -1.99203 -3.58812 0
M  V30 3260 H 301.822 -0.317546 -3.92116 0
M  V30 3261 H 303.837 0.422221 -4.944 0
M  V30 3262 N 303.011 1.40521 -0.713556 0
M  V30 3263 C 303.974 2.29098 -0.0684347 0
M  V30 3264 C 304.974 1.45268 0.689472 0
M  V30 3265 O 306.164 1.66205 0.521677 0
M  V30 3266 C 303.296 3.28446 0.913024 0
M  V30 3267 H 304.489 2.87645 -0.84855 0
M  V30 3268 H 302.042 1.48809 -0.47809 0
M  V30 3269 H 302.777 2.74913 1.72027 0
M  V30 3270 H 302.562 3.90327 0.372472 0
M  V30 3271 H 304.052 3.94777 1.36165 0
M  V30 3272 N 304.489 0.459591 1.5075 0
M  V30 3273 C 305.9 0.00171547 1.867 0
M  V30 3274 C 306.251 -1.39934 1.37525 0
M  V30 3275 O 305.376 -2.03523 0.735349 0
M  V30 3276 C 305.971 -0.00366298 3.388 0
M  V30 3277 C 304.53 -0.406026 3.74204 0
M  V30 3278 C 303.677 0.38673 2.7459 0
M  V30 3279 H 306.628 0.674413 1.43657 0
M  V30 3280 H 306.649 -0.808371 3.71814 0
M  V30 3281 H 306.161 1.01617 3.74561 0
M  V30 3282 H 304.262 -1.43063 3.4404 0
M  V30 3283 H 304.375 -0.115362 4.78961 0
M  V30 3284 H 302.739 -0.158019 2.54209 0
M  V30 3285 H 303.522 1.40585 3.13194 0
M  V30 3286 N 305.967 -1.56429 0.191757 0
M  V30 3287 C 307.215 -1.97095 -0.447006 0
M  V30 3288 C 307.536 -1.07967 -1.62383 0
M  V30 3289 O 306.806 -0.150248 -1.95323 0
M  V30 3290 H 305.386 -0.727832 -0.168135 0
M  V30 3291 H 308.048 -1.92911 0.27771 0
M  V30 3292 H 307.144 -3.01848 -0.793371 0
M  V30 3293 N 307.445 0.0818655 -1.57387 0
M  V30 3294 C 308.375 1.09885 -2.06028 0
M  V30 3295 C 309.356 1.4098 -0.951774 0
M  V30 3296 O 310.541 1.50781 -1.22387 0
M  V30 3297 C 307.671 2.4151 -2.4958 0
M  V30 3298 C 306.625 2.24792 -3.64215 0
M  V30 3299 C 305.951 3.61712 -3.93787 0
M  V30 3300 C 307.251 1.67749 -4.94629 0
M  V30 3301 H 308.945 0.694128 -2.91243 0
M  V30 3302 H 306.491 0.332448 -1.4011 0
M  V30 3303 H 308.444 3.12939 -2.82219 0
M  V30 3304 H 307.168 2.83943 -1.61381 0
M  V30 3305 H 305.827 1.55807 -3.31843 0
M  V30 3306 H 305.475 4.01697 -3.02735 0
M  V30 3307 H 305.175 3.51368 -4.70971 0
M  V30 3308 H 306.699 4.34587 -4.28913 0
M  V30 3309 H 308.113 2.29032 -5.25564 0
M  V30 3310 H 306.51 1.68128 -5.76067 0
M  V30 3311 H 307.58 0.638059 -4.80684 0
M  V30 3312 N 308.923 1.53595 0.353017 0
M  V30 3313 C 310.163 1.72094 1.10286 0
M  V30 3314 C 310.527 0.469217 1.86178 0
M  V30 3315 O 311.728 0.531083 2.63501 0
M  V30 3316 C 309.999 2.94386 2.02661 0
M  V30 3317 S 311.558 3.33651 2.84996 0
M  V30 3318 H 308.376 0.605433 0.372789 0
M  V30 3319 H 310.978 1.91722 0.38248 0
M  V30 3320 H 309.682 3.83669 1.45691 0
M  V30 3321 H 309.213 2.77197 2.79152 0
M  V30 3322 H 311.228 2.86645 4.0503 0
M  V30 3323 N 310.401 -0.613514 1.45168 0
M  V30 3324 C 311.812 -1.19539 1.43413 0
M  V30 3325 C 312.163 -1.95558 0.158632 0
M  V30 3326 O 311.288 -2.0335 -0.740119 0
M  V30 3327 C 311.883 -2.17445 2.59813 0
M  V30 3328 C 310.442 -2.71022 2.61197 0
M  V30 3329 C 309.589 -1.46323 2.35552 0
M  V30 3330 H 312.54 -0.403163 1.53494 0
M  V30 3331 H 312.561 -3.00373 2.33574 0
M  V30 3332 H 312.073 -1.62089 3.52631 0
M  V30 3333 H 310.174 -3.30332 1.7237 0
M  V30 3334 H 310.287 -3.15859 3.60236 0
M  V30 3335 H 308.651 -1.75072 1.84992 0
M  V30 3336 H 309.434 -0.92844 3.30507 0
M  V30 3337 N 311.879 -1.3236 -0.855495 0
M  V30 3338 C 313.156 -1.13491 -1.59309 0
M  V30 3339 C 313.536 0.30503 -2.08885 0
M  V30 3340 O 312.884 1.30151 -1.87811 0
M  V30 3341 C 313.094 -2.16176 -2.73987 0
M  V30 3342 C 314.442 -2.49463 -3.43589 0
M  V30 3343 O 315.466 -2.14715 -2.84211 0
M  V30 3344 O 314.325 -3.09027 -4.50738 0
M  V30 3345 H 311.419 -0.437887 -0.701559 0
M  V30 3346 H 313.965 -1.43887 -0.899696 0
M  V30 3347 H 312.737 -3.1297 -2.34873 0
M  V30 3348 H 312.36 -1.86769 -3.51003 0
M  V30 3349 N 313.357 1.07166 -1.15556 0
M  V30 3350 C 314.603 1.80222 -0.942961 0
M  V30 3351 C 314.958 1.85121 0.524209 0
M  V30 3352 O 314.251 1.32531 1.38369 0
M  V30 3353 C 314.445 3.24707 -1.49332 0
M  V30 3354 C 314.274 3.33887 -3.01247 0
M  V30 3355 C 313.044 3.44337 -3.69811 0
M  V30 3356 C 315.242 3.24484 -3.99017 0
M  V30 3357 N 313.224 3.42439 -5.09518 0
M  V30 3358 C 314.595 3.29726 -5.25053 0
M  V30 3359 C 316.65 3.08307 -3.90962 0
M  V30 3360 C 315.353 3.20455 -6.43973 0
M  V30 3361 C 317.379 3.00371 -5.09442 0
M  V30 3362 C 316.741 3.06227 -6.34354 0
M  V30 3363 H 312.84 0.672709 -0.398731 0
M  V30 3364 H 315.424 1.27905 -1.46794 0
M  V30 3365 H 313.595 3.7544 -0.994946 0
M  V30 3366 H 315.327 3.85894 -1.21935 0
M  V30 3367 H 312.082 3.48762 -3.20409 0
M  V30 3368 H 312.506 3.45013 -5.8249 0
M  V30 3369 H 317.148 3.02633 -2.95251 0
M  V30 3370 H 314.866 3.24888 -7.39914 0
M  V30 3371 H 318.452 2.88955 -5.04971 0
M  V30 3372 H 317.332 3.00132 -7.24493 0
M  V30 3373 N 314.835 0.952656 1.25548 0
M  V30 3374 C 316.112 0.523818 1.88456 0
M  V30 3375 C 316.492 -0.998871 1.85973 0
M  V30 3376 O 315.84 -1.86381 1.3219 0
M  V30 3377 C 316.05 1.0982 3.31271 0
M  V30 3378 C 317.398 1.17385 4.08051 0
M  V30 3379 O 318.422 1.04961 3.40384 0
M  V30 3380 O 317.281 1.36852 5.29088 0
M  V30 3381 H 314.375 0.172485 0.808813 0
M  V30 3382 H 316.921 1.04596 1.33633 0
M  V30 3383 H 315.693 2.1415 3.27499 0
M  V30 3384 H 315.316 0.559191 3.93648 0
M  V30 3385 N 316.313 -1.40141 0.720998 0
M  V30 3386 C 317.538 -2.05618 0.271258 0
M  V30 3387 C 317.963 -1.53978 -1.08039 0
M  V30 3388 O 317.321 -0.677463 -1.68167 0
M  V30 3389 C 317.369 -3.59609 0.267197 0
M  V30 3390 O 316.473 -4.05526 -0.749814 0
M  V30 3391 H 315.814 -0.651904 0.126162 0
M  V30 3392 H 318.344 -1.79439 0.982997 0
M  V30 3393 H 318.354 -4.0786 0.106744 0
M  V30 3394 H 317.029 -3.96559 1.25354 0
M  V30 3395 H 315.606 -3.68722 -0.556644 0
M  V30 3396 N 317.792 -0.46758 -1.50504 0
M  V30 3397 C 319.038 0.0808869 -2.03239 0
M  V30 3398 C 319.393 1.37721 -1.34353 0
M  V30 3399 O 318.686 1.86016 -0.459194 0
M  V30 3400 C 318.88 0.323995 -3.55928 0
M  V30 3401 C 318.709 -0.947215 -4.39611 0
M  V30 3402 C 317.479 -1.48951 -4.82848 0
M  V30 3403 C 319.677 -1.84166 -4.80195 0
M  V30 3404 N 317.659 -2.71011 -5.50842 0
M  V30 3405 C 319.03 -2.90815 -5.47564 0
M  V30 3406 C 321.085 -1.85246 -4.62156 0
M  V30 3407 C 319.788 -3.98529 -5.98805 0
M  V30 3408 C 321.814 -2.91914 -5.14335 0
M  V30 3409 C 321.176 -3.97282 -5.81676 0
M  V30 3410 H 317.275 -0.0103394 -0.781932 0
M  V30 3411 H 319.859 -0.635003 -1.84054 0
M  V30 3412 H 318.03 1.00892 -3.75067 0
M  V30 3413 H 319.762 0.866492 -3.95315 0
M  V30 3414 H 316.517 -1.03918 -4.62058 0
M  V30 3415 H 316.941 -3.32988 -5.89447 0
M  V30 3416 H 321.583 -1.05103 -4.09528 0
M  V30 3417 H 319.301 -4.79491 -6.50472 0
M  V30 3418 H 322.887 -2.93729 -5.0221 0
M  V30 3419 H 321.767 -4.78462 -6.21324 0
M  V30 3420 N 319.27 1.56325 -0.20005 0
M  V30 3421 C 320.547 1.89484 0.48529 0
M  V30 3422 C 320.927 1.1143 1.79294 0
M  V30 3423 O 320.275 0.216919 2.27468 0
M  V30 3424 C 320.485 3.41923 0.699243 0
M  V30 3425 C 321.833 4.12256 1.01638 0
M  V30 3426 O 322.857 3.47402 0.786792 0
M  V30 3427 O 321.716 5.26887 1.45095 0
M  V30 3428 H 318.81 0.787144 0.253639 0
M  V30 3429 H 321.356 1.67985 -0.240633 0
M  V30 3430 H 320.128 3.90658 -0.224008 0
M  V30 3431 H 319.751 3.69131 1.47744 0
M  V30 3432 N 320.748 -0.0735177 1.57428 0
M  V30 3433 C 321.711 -1.07192 2.02589 0
M  V30 3434 C 322.711 -1.31695 0.922661 0
M  V30 3435 O 323.901 -1.27445 1.18758 0
M  V30 3436 C 321.033 -2.41599 2.40506 0
M  V30 3437 H 322.226 -0.682727 2.92025 0
M  V30 3438 H 319.779 -0.319193 1.53006 0
M  V30 3439 H 320.514 -2.85354 1.5409 0
M  V30 3440 H 320.299 -2.25156 3.21009 0
M  V30 3441 H 321.789 -3.13367 2.76027 0
M  V30 3442 N 322.226 -1.5378 -0.344866 0
M  V30 3443 C 323.451 -1.75211 -1.10977 0
M  V30 3444 C 323.876 -0.48936 -1.81623 0
M  V30 3445 O 323.234 0.557925 -1.72502 0
M  V30 3446 C 323.282 -2.93147 -2.09993 0
M  V30 3447 O 322.386 -2.63203 -3.17487 0
M  V30 3448 H 321.727 -0.581241 -0.321021 0
M  V30 3449 H 324.257 -2.00738 -0.395661 0
M  V30 3450 H 324.267 -3.19898 -2.53237 0
M  V30 3451 H 322.942 -3.84731 -1.5797 0
M  V30 3452 H 321.519 -2.47336 -2.79069 0
M  V30 3453 N 323.704 0.605807 -1.45491 0
M  V30 3454 C 324.651 1.7164 -1.54299 0
M  V30 3455 C 325.621 1.61486 -0.388761 0
M  V30 3456 O 326.806 1.81039 -0.602445 0
M  V30 3457 C 323.946 3.09953 -1.51734 0
M  V30 3458 C 323.059 3.309 -2.77721 0
M  V30 3459 C 322.194 4.59329 -2.66816 0
M  V30 3460 C 321.233 4.7354 -3.87848 0
M  V30 3461 N 320.37 5.9327 -3.75467 0
M  V30 3462 H 325.21 1.63449 -2.49176 0
M  V30 3463 H 322.747 0.796957 -1.23641 0
M  V30 3464 H 324.705 3.89977 -1.48235 0
M  V30 3465 H 323.335 3.17098 -0.604068 0
M  V30 3466 H 322.387 2.44639 -2.913 0
M  V30 3467 H 323.699 3.37274 -3.67488 0
M  V30 3468 H 322.853 5.4755 -2.61292 0
M  V30 3469 H 321.592 4.55355 -1.74651 0
M  V30 3470 H 320.597 3.83741 -3.93729 0
M  V30 3471 H 321.822 4.79309 -4.81082 0
M  V30 3472 H 319.768 5.90338 -2.86072 0
M  V30 3473 H 319.685 6.00811 -4.5887 0
M  V30 3474 H 320.953 6.83984 -3.73879 0
M  V30 3475 N 325.182 1.32811 0.848464 0
M  V30 3476 C 326.593 1.21315 1.41914 0
M  V30 3477 C 326.944 -0.171847 1.95446 0
M  V30 3478 O 326.069 -1.07093 1.88043 0
M  V30 3479 C 326.664 2.19631 2.57968 0
M  V30 3480 C 325.223 2.12003 3.11017 0
M  V30 3481 C 324.37 2.07651 1.83783 0
M  V30 3482 H 327.321 1.44549 0.655071 0
M  V30 3483 H 327.342 1.79845 3.35315 0
M  V30 3484 H 326.854 3.20423 2.18976 0
M  V30 3485 H 324.955 1.14481 3.54577 0
M  V30 3486 H 325.068 3.02111 3.71841 0
M  V30 3487 H 323.432 1.52983 2.03638 0
M  V30 3488 H 324.215 3.10235 1.47 0
M  V30 3489 N 326.66 -1.06551 1.16123 0
M  V30 3490 C 327.906 -1.79567 0.94252 0
M  V30 3491 C 328.239 -1.86869 -0.528547 0
M  V30 3492 O 327.514 -1.35838 -1.39206 0
M  V30 3493 C 327.797 -3.24195 1.56747 0
M  V30 3494 C 327.65 -3.24989 3.10969 0
M  V30 3495 C 328.969 -4.21678 1.25998 0
M  V30 3496 H 326.088 -0.651883 0.343828 0
M  V30 3497 H 328.73 -1.2463 1.43413 0
M  V30 3498 H 326.88 -3.71107 1.14942 0
M  V30 3499 H 328.552 -2.86258 3.61737 0
M  V30 3500 H 326.795 -2.63716 3.44436 0
M  V30 3501 H 327.466 -4.27005 3.49815 0
M  V30 3502 H 329.942 -3.83196 1.62174 0
M  V30 3503 H 328.818 -5.21146 1.7233 0
M  V30 3504 H 329.079 -4.4174 0.178367 0
M  V30 3505 N 328.138 -0.959301 -1.25041 0
M  V30 3506 C 329.366 -0.633949 -1.96948 0
M  V30 3507 C 329.781 0.794916 -1.7125 0
M  V30 3508 O 329.138 1.53231 -0.991287 0
M  V30 3509 C 329.189 -0.888805 -3.50403 0
M  V30 3510 O 328.91 -2.26149 -3.75218 0
M  V30 3511 C 330.411 -0.576482 -4.39536 0
M  V30 3512 H 327.631 -0.237263 -0.627652 0
M  V30 3513 H 330.175 -1.28495 -1.59089 0
M  V30 3514 H 328.33 -0.284145 -3.86357 0
M  V30 3515 H 328.744 -2.33514 -4.6965 0
M  V30 3516 H 330.218 -0.805314 -5.46094 0
M  V30 3517 H 330.695 0.489075 -4.36468 0
M  V30 3518 H 331.301 -1.16067 -4.09156 0
M  V30 3519 N 329.616 1.39756 -0.72842 0
M  V30 3520 C 330.564 2.32485 -0.0731849 0
M  V30 3521 C 331.558 1.52717 0.733063 0
M  V30 3522 O 332.764 1.68428 0.634988 0
M  V30 3523 H 329.139 0.751984 -0.00486469 0
M  V30 3524 H 331.11 2.85382 -0.871761 0
M  V30 3525 C 329.859 3.37773 0.824908 0
M  V30 3526 H 329.182 3.99227 0.213915 0
M  V30 3527 H 330.622 4.05121 1.25111 0
M  V30 3528 C 329.081 2.74287 1.95622 0
M  V30 3529 O 329.611 2.61618 3.04826 0
M  V30 3530 N 327.817 2.32475 1.74367 0
M  V30 3531 H 327.364 2.4298 0.855494 0
M  V30 3532 H 327.322 1.90337 2.50238 0
M  V30 3533 N 331.094 0.475555 1.50254 0
M  V30 3534 C 332.057 -0.305016 2.27161 0
M  V30 3535 C 333.057 -0.916519 1.32123 0
M  V30 3536 O 334.247 -0.785003 1.5551 0
M  V30 3537 C 331.379 -1.43496 3.09227 0
M  V30 3538 H 332.572 0.369511 2.97615 0
M  V30 3539 H 330.125 0.229747 1.54602 0
M  V30 3540 H 330.86 -2.14441 2.43281 0
M  V30 3541 H 330.645 -1.00223 3.79075 0
M  V30 3542 H 332.135 -1.98548 3.67381 0
M  V30 3543 N 332.573 -1.56217 0.208337 0
M  V30 3544 C 333.989 -1.58919 -0.14729 0
M  V30 3545 C 334.189 -1.22486 -1.59998 0
M  V30 3546 O 333.245 -0.953849 -2.3379 0
M  V30 3547 C 334.558 -3.00236 0.167048 0
M  V30 3548 C 336.106 -3.12813 0.108219 0
M  V30 3549 C 336.581 -4.56284 0.396049 0
M  V30 3550 N 338.072 -4.61912 0.345142 0
M  V30 3551 C 338.807 -5.70837 0.541523 0
M  V30 3552 N 338.303 -6.88178 0.798968 0
M  V30 3553 N 340.096 -5.60091 0.474867 0
M  V30 3554 H 332.247 -1.78177 1.15614 0
M  V30 3555 H 334.51 -0.827555 0.462446 0
M  V30 3556 H 334.216 -3.31499 1.1748 0
M  V30 3557 H 334.09 -3.7354 -0.524184 0
M  V30 3558 H 336.477 -2.81354 -0.890157 0
M  V30 3559 H 336.558 -2.41866 0.832729 0
M  V30 3560 H 336.202 -4.88458 1.3918 0
M  V30 3561 H 336.132 -5.25439 -0.349502 0
M  V30 3562 H 338.623 -3.77589 0.153316 0
M  V30 3563 H 338.936 -7.67095 0.93727 0
M  V30 3564 H 337.281 -6.89953 0.836013 0
M  V30 3565 H 340.472 -4.67297 0.274064 0
M  V30 3566 H 340.645 -6.44917 0.631326 0
M  V30 3567 N 334.051 0.0651679 -1.57465 0
M  V30 3568 C 334.961 1.09448 -2.07505 0
M  V30 3569 C 335.977 1.41974 -1.00595 0
M  V30 3570 O 337.153 1.52018 -1.32107 0
M  V30 3571 C 334.218 2.38689 -2.51453 0
M  V30 3572 C 333.279 2.13073 -3.72691 0
M  V30 3573 C 332.512 3.36152 -4.14533 0
M  V30 3574 O 332.735 4.45517 -3.56189 0
M  V30 3575 O 331.669 3.23974 -5.07272 0
M  V30 3576 H 335.495 0.69935 -2.95538 0
M  V30 3577 H 333.08 0.279752 -1.46757 0
M  V30 3578 H 334.962 3.14736 -2.80212 0
M  V30 3579 H 333.637 2.77568 -1.66546 0
M  V30 3580 H 332.544 1.34709 -3.49005 0
M  V30 3581 H 333.877 1.79071 -4.5847 0
M  V30 3582 N 335.529 1.53961 0.336706 0
M  V30 3583 C 336.492 1.81724 1.39675 0
M  V30 3584 C 337.492 0.688532 1.45313 0
M  V30 3585 O 338.682 0.956829 1.45569 0
M  V30 3586 C 335.814 1.96543 2.78538 0
M  V30 3587 H 337.007 2.76424 1.16318 0
M  V30 3588 H 334.56 1.45478 0.571474 0
M  V30 3589 H 335.295 1.0401 3.07168 0
M  V30 3590 H 335.08 2.78665 2.75841 0
M  V30 3591 H 336.57 2.19516 3.5525 0
M  V30 3592 N 337.007 -0.598083 1.45811 0
M  V30 3593 C 337.94 -1.7223 1.49706 0
M  V30 3594 C 338.918 -1.58732 0.352535 0
M  V30 3595 O 340.102 -1.80162 0.554438 0
M  V30 3596 C 337.229 -3.10148 1.3611 0
M  V30 3597 C 336.275 -3.42209 2.54549 0
M  V30 3598 S 337.108 -3.35989 4.16979 0
M  V30 3599 C 338.264 -4.76471 4.05865 0
M  V30 3600 H 338.497 -1.68665 2.44826 0
M  V30 3601 H 336.03 -0.775541 1.33509 0
M  V30 3602 H 337.988 -3.8972 1.28953 0
M  V30 3603 H 336.649 -3.11219 0.424451 0
M  V30 3604 H 335.842 -4.42652 2.40988 0
M  V30 3605 H 335.444 -2.70173 2.58617 0
M  V30 3606 H 337.736 -5.665 3.71596 0
M  V30 3607 H 338.679 -4.95089 5.06253 0
M  V30 3608 H 339.087 -4.52599 3.37364 0
M  V30 3609 N 338.485 -1.33259 -0.841409 0
M  V30 3610 C 339.417 -1.19136 -1.95804 0
M  V30 3611 C 340.43 -0.122965 -1.62335 0
M  V30 3612 O 341.619 -0.373154 -1.74556 0
M  V30 3613 C 338.719 -0.804268 -3.29218 0
M  V30 3614 C 337.892 -1.96376 -3.90839 0
M  V30 3615 C 336.951 -1.55806 -5.02604 0
M  V30 3616 O 335.977 -2.27203 -5.21888 0
M  V30 3617 N 337.179 -0.461609 -5.78662 0
M  V30 3618 H 339.944 -2.15326 -2.08458 0
M  V30 3619 H 337.505 -1.25971 -1.017 0
M  V30 3620 H 339.497 -0.51501 -4.0141 0
M  V30 3621 H 338.067 0.0668809 -3.12528 0
M  V30 3622 H 337.287 -2.41879 -3.11269 0
M  V30 3623 H 338.575 -2.73966 -4.28742 0
M  V30 3624 H 337.973 0.132343 -5.65545 0
M  V30 3625 H 336.53 -0.232013 -6.51387 0
M  V30 3626 N 339.963 1.05934 -1.16686 0
M  V30 3627 C 340.895 2.13468 -0.834503 0
M  V30 3628 C 341.908 1.62013 0.15984 0
M  V30 3629 O 343.097 1.7838 -0.0654228 0
M  V30 3630 C 340.197 3.3817 -0.222361 0
M  V30 3631 C 339.37 4.18928 -1.25771 0
M  V30 3632 C 338.429 5.21985 -0.664703 0
M  V30 3633 O 337.455 5.53334 -1.33453 0
M  V30 3634 N 338.657 5.77919 0.546834 0
M  V30 3635 H 341.422 2.42578 -1.75999 0
M  V30 3636 H 338.983 1.21967 -1.06469 0
M  V30 3637 H 340.975 4.04266 0.187472 0
M  V30 3638 H 339.545 3.06655 0.606758 0
M  V30 3639 H 338.765 3.48433 -1.84358 0
M  V30 3640 H 340.053 4.69687 -1.95631 0
M  V30 3641 H 339.451 5.54721 1.10912 0
M  V30 3642 H 338.008 6.45573 0.898829 0
M  V30 3643 N 341.441 0.965919 1.2453 0
M  V30 3644 C 342.404 0.499547 2.2369 0
M  V30 3645 C 343.404 -0.40294 1.5567 0
M  V30 3646 O 344.594 -0.19865 1.73064 0
M  V30 3647 C 341.726 -0.276792 3.39774 0
M  V30 3648 H 342.919 1.37613 2.66463 0
M  V30 3649 H 340.472 0.750324 1.37112 0
M  V30 3650 H 341.207 -1.17055 3.02438 0
M  V30 3651 H 340.992 0.370826 3.90343 0
M  V30 3652 H 342.482 -0.592175 4.1338 0
M  V30 3653 N 342.919 -1.39368 0.735821 0
M  V30 3654 C 344.196 -1.94465 0.210395 0
M  V30 3655 C 344.576 -1.67254 -1.28799 0
M  V30 3656 O 343.924 -1.00123 -2.05396 0
M  V30 3657 C 344.134 -3.4472 0.544897 0
M  V30 3658 C 345.482 -4.21708 0.494689 0
M  V30 3659 O 346.506 -3.52922 0.482136 0
M  V30 3660 O 345.365 -5.44299 0.489947 0
M  V30 3661 H 342.459 -0.826096 0.0386666 0
M  V30 3662 H 345.005 -1.48863 0.814735 0
M  V30 3663 H 343.777 -3.57963 1.58045 0
M  V30 3664 H 343.4 -3.97502 -0.08837 0
M  V30 3665 N 344.397 -0.483516 -1.5 0
M  V30 3666 C 345.674 0.129337 -1.95172 0
M  V30 3667 C 346.054 1.55802 -1.4244 0
M  V30 3668 O 345.402 2.19625 -0.630649 0
M  V30 3669 C 345.612 0.0599251 -3.48949 0
M  V30 3670 C 346.96 0.242617 -4.23906 0
M  V30 3671 O 347.984 0.135933 -3.55941 0
M  V30 3672 O 346.843 0.459454 -5.44565 0
M  V30 3673 H 343.937 0.104887 -0.820322 0
M  V30 3674 H 346.483 -0.544807 -1.60717 0
M  V30 3675 H 345.255 -0.937079 -3.79914 0
M  V30 3676 H 344.878 0.774984 -3.89974 0
M  V30 3677 N 345.875 1.56104 -0.216619 0
M  V30 3678 C 347.121 1.99219 0.410301 0
M  V30 3679 C 347.476 1.10169 1.57735 0
M  V30 3680 O 346.769 0.150598 1.91007 0
M  V30 3681 C 346.963 3.45923 0.898464 0
M  V30 3682 C 346.792 4.49163 -0.219748 0
M  V30 3683 C 345.562 5.00642 -0.684516 0
M  V30 3684 C 347.76 5.03751 -1.03629 0
M  V30 3685 N 345.742 5.87579 -1.7783 0
M  V30 3686 C 347.113 5.87566 -1.97904 0
M  V30 3687 C 349.168 4.86128 -1.07629 0
M  V30 3688 C 347.871 6.5564 -2.95851 0
M  V30 3689 C 349.897 5.54958 -2.04392 0
M  V30 3690 C 349.259 6.38536 -2.97407 0
M  V30 3691 H 345.358 0.773206 0.11695 0
M  V30 3692 H 347.942 1.9193 -0.327258 0
M  V30 3693 H 346.113 3.53669 1.6054 0
M  V30 3694 H 347.845 3.75963 1.49779 0
M  V30 3695 H 344.6 4.72807 -0.27399 0
M  V30 3696 H 345.024 6.3575 -2.32705 0
M  V30 3697 H 349.666 4.21168 -0.371099 0
M  V30 3698 H 347.384 7.19785 -3.67335 0
M  V30 3699 H 350.97 5.43289 -2.08154 0
M  V30 3700 H 349.85 6.90858 -3.71059 0
M  V30 3701 N 347.353 -0.0568162 1.57498 0
M  V30 3702 C 348.283 -1.06593 2.0775 0
M  V30 3703 C 349.264 -1.39448 0.974082 0
M  V30 3704 O 350.449 -1.48815 1.24771 0
M  V30 3705 C 347.579 -2.37509 2.5339 0
M  V30 3706 C 346.533 -2.1897 3.67745 0
M  V30 3707 C 345.859 -3.55402 3.99492 0
M  V30 3708 C 347.159 -1.59859 4.97235 0
M  V30 3709 H 348.853 -0.647706 2.9231 0
M  V30 3710 H 346.399 -0.310116 1.40621 0
M  V30 3711 H 348.352 -3.08409 2.87162 0
M  V30 3712 H 347.076 -2.8134 1.65878 0
M  V30 3713 H 345.735 -1.50508 3.3428 0
M  V30 3714 H 345.383 -3.9683 3.09088 0
M  V30 3715 H 345.083 -3.43831 4.76502 0
M  V30 3716 H 346.607 -4.27708 4.35773 0
M  V30 3717 H 348.021 -2.20642 5.29141 0
M  V30 3718 H 346.418 -1.58942 5.78669 0
M  V30 3719 H 347.488 -0.561506 4.81638 0
M  V30 3720 N 348.832 -1.54138 -0.328536 0
M  V30 3721 C 350.08 -1.71765 -1.06496 0
M  V30 3722 C 350.401 -0.49149 -1.88704 0
M  V30 3723 O 349.671 0.494539 -1.89555 0
M  V30 3724 H 348.251 -0.633295 -0.396164 0
M  V30 3725 H 350.913 -1.91429 -0.366176 0
M  V30 3726 H 350.009 -2.5951 -1.73381 0
M  V30 3727 N 350.31 0.590341 -1.46126 0
M  V30 3728 C 351.559 1.34499 -1.50309 0
M  V30 3729 C 351.872 1.94977 -0.156021 0
M  V30 3730 O 353.078 2.71395 -0.0756037 0
M  V30 3731 C 351.534 2.43723 -2.64815 0
M  V30 3732 C 351.142 1.89582 -4.0591 0
M  V30 3733 C 352.886 3.20579 -2.78262 0
M  V30 3734 C 350.793 2.9639 -5.11769 0
M  V30 3735 H 349.723 0.505593 -0.559368 0
M  V30 3736 H 352.374 0.630848 -1.72315 0
M  V30 3737 H 350.756 3.17902 -2.36124 0
M  V30 3738 H 351.93 1.21997 -4.44357 0
M  V30 3739 H 350.245 1.25418 -3.97063 0
M  V30 3740 H 352.842 4.00276 -3.54519 0
M  V30 3741 H 353.185 3.72684 -1.85505 0
M  V30 3742 H 353.718 2.53505 -3.06562 0
M  V30 3743 H 350.457 2.49181 -6.06291 0
M  V30 3744 H 349.977 3.62487 -4.77873 0
M  V30 3745 H 351.656 3.60474 -5.37278 0
M  V30 3746 N 351.788 1.33704 0.83433 0
M  V30 3747 C 353.199 1.22813 1.4062 0
M  V30 3748 C 353.55 -0.151107 1.95617 0
M  V30 3749 O 352.675 -1.05092 1.89168 0
M  V30 3750 C 353.27 2.22355 2.55624 0
M  V30 3751 C 351.829 2.1529 3.08751 0
M  V30 3752 C 350.976 2.09589 1.8157 0
M  V30 3753 H 353.927 1.45236 0.639702 0
M  V30 3754 H 353.948 1.83391 3.33389 0
M  V30 3755 H 353.46 3.22728 2.15566 0
M  V30 3756 H 351.561 1.18235 3.53343 0
M  V30 3757 H 351.674 3.06038 3.68616 0
M  V30 3758 H 350.038 1.55134 2.02004 0
M  V30 3759 H 350.821 3.11777 1.43701 0
M  V30 3760 N 353.266 -1.05314 1.17247 0
M  V30 3761 C 354.198 -2.13023 0.845812 0
M  V30 3762 C 355.211 -1.62096 -0.151246 0
M  V30 3763 O 356.4 -1.78343 0.0748818 0
M  V30 3764 C 353.5 -3.38047 0.240292 0
M  V30 3765 C 352.673 -4.18255 1.27991 0
M  V30 3766 C 351.732 -5.21625 0.692375 0
M  V30 3767 O 350.758 -5.52619 1.36385 0
M  V30 3768 N 351.96 -5.78201 -0.516178 0
M  V30 3769 H 354.725 -2.41642 1.77283 0
M  V30 3770 H 352.286 -1.21401 1.07115 0
M  V30 3771 H 354.278 -4.04359 -0.16603 0
M  V30 3772 H 352.848 -3.06972 -0.590487 0
M  V30 3773 H 352.068 -3.47451 1.86203 0
M  V30 3774 H 353.356 -4.68643 1.98119 0
M  V30 3775 H 352.754 -5.55301 -1.07969 0
M  V30 3776 H 351.311 -6.4604 -0.86458 0
M  V30 3777 N 354.744 -0.972509 -1.24016 0
M  V30 3778 C 355.99 -0.637978 -1.92504 0
M  V30 3779 C 356.323 0.825383 -1.75787 0
M  V30 3780 O 355.598 1.59442 -1.11393 0
M  V30 3781 C 355.881 -1.01942 -3.45369 0
M  V30 3782 C 355.734 -2.53983 -3.71231 0
M  V30 3783 C 357.053 -0.55751 -4.36555 0
M  V30 3784 H 354.172 -0.233248 -0.699117 0
M  V30 3785 H 356.814 -1.21238 -1.46292 0
M  V30 3786 H 354.964 -0.530656 -3.84859 0
M  V30 3787 H 356.636 -3.10374 -3.41271 0
M  V30 3788 H 354.879 -2.96968 -3.16216 0
M  V30 3789 H 355.55 -2.75723 -4.78206 0
M  V30 3790 H 358.026 -0.977029 -4.04467 0
M  V30 3791 H 356.902 -0.85292 -5.42233 0
M  V30 3792 H 357.163 0.542328 -4.38761 0
M  V30 3793 N 356.222 1.38976 -0.743202 0
M  V30 3794 C 357.471 1.99581 -0.291592 0
M  V30 3795 C 357.784 1.59656 1.13001 0
M  V30 3796 O 358.99 2.13157 1.68156 0
M  V30 3797 C 357.446 3.56813 -0.470391 0
M  V30 3798 C 357.054 4.05695 -1.90041 0
M  V30 3799 C 358.798 4.24423 -0.0809709 0
M  V30 3800 C 356.705 5.5553 -2.02832 0
M  V30 3801 H 355.635 0.746615 -0.105272 0
M  V30 3802 H 358.286 1.58872 -0.918258 0
M  V30 3803 H 356.668 3.95359 0.225299 0
M  V30 3804 H 357.842 3.78464 -2.62872 0
M  V30 3805 H 356.157 3.50775 -2.24379 0
M  V30 3806 H 358.754 5.34474 -0.155445 0
M  V30 3807 H 359.097 4.04962 0.96497 0
M  V30 3808 H 359.63 3.9108 -0.728124 0
M  V30 3809 H 356.369 5.79881 -3.05643 0
M  V30 3810 H 355.889 5.84537 -1.34448 0
M  V30 3811 H 357.568 6.21069 -1.81335 0
M  V30 3812 N 357.7 0.491464 1.49741 0
M  V30 3813 C 358.928 -0.0535151 2.06831 0
M  V30 3814 C 359.343 -1.31683 1.35296 0
M  V30 3815 O 358.7 -1.77402 0.42836 0
M  V30 3816 C 358.751 -0.320835 3.60073 0
M  V30 3817 O 358.472 0.892394 4.28915 0
M  V30 3818 C 359.973 -0.910519 4.33848 0
M  V30 3819 H 357.193 0.0161909 0.670805 0
M  V30 3820 H 359.737 0.68609 1.92647 0
M  V30 3821 H 357.892 -1.0104 3.73991 0
M  V30 3822 H 358.306 0.649401 5.20464 0
M  V30 3823 H 359.78 -1.04721 5.41976 0
M  V30 3824 H 360.257 -1.90589 3.95692 0
M  V30 3825 H 360.863 -0.258712 4.24512 0
M  V30 3826 N 359.178 -1.55987 0.224894 0
M  V30 3827 C 360.589 -1.84553 -0.282345 0
M  V30 3828 C 360.94 -1.14634 -1.59227 0
M  V30 3829 O 360.065 -0.417155 -2.12341 0
M  V30 3830 C 360.66 -3.348 -0.519062 0
M  V30 3831 C 359.219 -3.63671 -0.970604 0
M  V30 3832 C 358.366 -2.77277 -0.0355261 0
M  V30 3833 H 361.317 -1.52245 0.448006 0
M  V30 3834 H 361.338 -3.55187 -1.36463 0
M  V30 3835 H 360.85 -3.8566 0.43449 0
M  V30 3836 H 358.951 -3.1827 -1.9374 0
M  V30 3837 H 359.064 -4.71631 -0.842698 0
M  V30 3838 H 357.428 -2.48846 -0.542927 0
M  V30 3839 H 358.211 -3.30937 0.913003 0
M  V30 3840 N 360.656 0.0484629 -1.57525 0
M  V30 3841 C 361.566 1.07241 -2.08654 0
M  V30 3842 C 362.582 1.409 -1.02095 0
M  V30 3843 O 363.758 1.50609 -1.33712 0
M  V30 3844 C 360.823 2.36008 -2.5397 0
M  V30 3845 C 359.884 2.09108 -3.7493 0
M  V30 3846 C 359.117 3.31736 -4.18075 0
M  V30 3847 O 359.34 4.41714 -3.60895 0
M  V30 3848 O 358.274 3.18576 -5.10679 0
M  V30 3849 H 362.1 0.667965 -2.96263 0
M  V30 3850 H 359.685 0.26417 -1.47046 0
M  V30 3851 H 361.567 3.11747 -2.83535 0
M  V30 3852 H 360.242 2.75786 -1.69481 0
M  V30 3853 H 359.149 1.31 -3.50414 0
M  V30 3854 H 360.482 1.74198 -4.60343 0
M  V30 3855 N 362.134 1.5431 0.320358 0
M  V30 3856 C 363.044 1.86946 1.41734 0
M  V30 3857 C 364.06 0.761689 1.56443 0
M  V30 3858 O 365.236 1.05629 1.71477 0
M  V30 3859 C 362.301 2.09293 2.76401 0
M  V30 3860 C 361.362 3.33082 2.70841 0
M  V30 3861 C 360.595 3.54353 3.99086 0
M  V30 3862 O 360.818 2.79002 4.97508 0
M  V30 3863 O 359.752 4.47838 4.0215 0
M  V30 3864 H 363.578 2.80232 1.17062 0
M  V30 3865 H 361.163 1.40255 0.514673 0
M  V30 3866 H 363.045 2.25303 3.56113 0
M  V30 3867 H 361.72 1.19194 3.00956 0
M  V30 3868 H 360.627 3.22454 1.89668 0
M  V30 3869 H 361.96 4.23249 2.5124 0
M  V30 3870 N 363.613 -0.582584 1.46437 0
M  V30 3871 C 364.862 -1.337 1.5102 0
M  V30 3872 C 365.175 -1.94891 0.166359 0
M  V30 3873 O 366.381 -2.71351 0.0899954 0
M  V30 3874 C 364.837 -2.42315 2.66104 0
M  V30 3875 C 364.445 -1.87427 4.06909 0
M  V30 3876 C 366.189 -3.19099 2.79958 0
M  V30 3877 C 364.096 -2.93672 5.13333 0
M  V30 3878 H 363.026 -0.502619 0.562041 0
M  V30 3879 H 365.677 -0.621701 1.72647 0
M  V30 3880 H 364.059 -3.16645 2.37807 0
M  V30 3881 H 365.233 -1.19639 4.44998 0
M  V30 3882 H 363.548 -1.2331 3.97723 0
M  V30 3883 H 366.145 -3.9839 3.56636 0
M  V30 3884 H 366.488 -3.71695 1.87479 0
M  V30 3885 H 367.021 -2.51875 3.07902 0
M  V30 3886 H 363.76 -2.45962 6.07604 0
M  V30 3887 H 363.28 -3.59948 4.79789 0
M  V30 3888 H 364.959 -3.5762 5.39182 0
M  V30 3889 N 365.091 -1.34144 -0.827227 0
M  V30 3890 C 366.337 -1.26446 -1.58554 0
M  V30 3891 C 366.67 0.1664 -1.93486 0
M  V30 3892 O 365.945 1.1107 -1.59667 0
M  V30 3893 C 366.228 -2.15111 -2.8879 0
M  V30 3894 C 366.081 -3.66712 -2.60465 0
M  V30 3895 C 367.4 -2.03311 -3.90324 0
M  V30 3896 H 364.519 -0.46067 -0.575284 0
M  V30 3897 H 367.161 -1.64356 -0.953269 0
M  V30 3898 H 365.311 -1.8291 -3.42748 0
M  V30 3899 H 366.983 -4.09259 -2.1285 0
M  V30 3900 H 365.226 -3.88014 -1.93978 0
M  V30 3901 H 365.897 -4.24112 -3.53317 0
M  V30 3902 H 368.373 -2.31574 -3.45706 0
M  V30 3903 H 367.249 -2.67582 -4.79261 0
M  V30 3904 H 367.51 -1.00879 -4.30437 0
M  V30 3905 N 366.569 1.04691 -1.17803 0
M  V30 3906 C 367.846 1.7472 -0.879328 0
M  V30 3907 C 368.226 2.01812 0.619271 0
M  V30 3908 O 367.574 1.65824 1.57209 0
M  V30 3909 C 367.784 3.03686 -1.71976 0
M  V30 3910 C 369.132 3.77542 -1.94286 0
M  V30 3911 O 370.156 3.13569 -1.68976 0
M  V30 3912 O 369.015 4.92506 -2.36855 0
M  V30 3913 H 366.109 0.760011 -0.326056 0
M  V30 3914 H 368.655 1.10813 -1.28525 0
M  V30 3915 H 367.427 2.79754 -2.73594 0
M  V30 3916 H 367.05 3.75332 -1.31194 0
M  V30 3917 N 368.047 0.979072 1.23499 0
M  V30 3918 C 369.458 0.684391 1.73704 0
M  V30 3919 C 369.809 -0.799448 1.79174 0
M  V30 3920 O 368.934 -1.62531 1.42873 0
M  V30 3921 C 369.529 1.23564 3.15464 0
M  V30 3922 C 368.088 0.99063 3.6313 0
M  V30 3923 C 367.235 1.36416 2.41425 0
M  V30 3924 H 370.186 1.15307 1.09041 0
M  V30 3925 H 370.207 0.607417 3.7562 0
M  V30 3926 H 369.719 2.31561 3.1145 0
M  V30 3927 H 367.82 -0.0733136 3.72528 0
M  V30 3928 H 367.933 1.64427 4.5 0
M  V30 3929 H 366.297 0.782616 2.42378 0
M  V30 3930 H 367.08 2.45387 2.40083 0
M  V30 3931 N 369.525 -1.3858 0.750561 0
M  V30 3932 C 370.473 -2.32339 0.110162 0
M  V30 3933 C 371.467 -1.53864 -0.708674 0
M  V30 3934 O 372.673 -1.69417 -0.608112 0
M  V30 3935 H 369.048 -0.751812 0.0168275 0
M  V30 3936 H 371.019 -2.83959 0.917053 0
M  V30 3937 C 369.768 -3.39043 -0.771067 0
M  V30 3938 H 369.091 -3.99517 -0.150374 0
M  V30 3939 H 370.531 -4.07061 -1.1865 0
M  V30 3940 C 368.99 -2.77365 -1.91234 0
M  V30 3941 O 369.52 -2.66434 -3.00626 0
M  V30 3942 N 367.726 -2.35219 -1.70646 0
M  V30 3943 H 367.273 -2.4431 -0.81673 0
M  V30 3944 H 367.231 -1.94294 -2.47178 0
M  V30 3945 N 371.003 -0.499398 -1.49478 0
M  V30 3946 C 372.249 0.0457576 -2.02748 0
M  V30 3947 C 372.582 1.36793 -1.37846 0
M  V30 3948 O 371.857 1.87596 -0.513601 0
M  V30 3949 C 372.14 0.199986 -3.59544 0
M  V30 3950 C 371.993 -1.1452 -4.34977 0
M  V30 3951 C 373.312 0.94137 -4.29914 0
M  V30 3952 H 370.431 0.0151552 -0.736844 0
M  V30 3953 H 373.073 -0.650498 -1.78518 0
M  V30 3954 H 371.223 0.793007 -3.8032 0
M  V30 3955 H 372.895 -1.77697 -4.25701 0
M  V30 3956 H 371.138 -1.73488 -3.97598 0
M  V30 3957 H 371.809 -0.990607 -5.43039 0
M  V30 3958 H 374.285 0.43844 -4.13784 0
M  V30 3959 H 373.161 1.01812 -5.39375 0
M  V30 3960 H 373.422 1.98471 -3.95046 0
M  V30 3961 N 372.481 1.55866 -0.233164 0
M  V30 3962 C 373.758 1.90471 0.444988 0
M  V30 3963 C 374.138 1.15209 1.7689 0
M  V30 3964 O 373.486 0.265119 2.26957 0
M  V30 3965 C 373.696 3.4333 0.626559 0
M  V30 3966 C 375.044 4.14319 0.92871 0
M  V30 3967 O 376.068 3.48993 0.712926 0
M  V30 3968 O 374.927 5.29846 1.33887 0
M  V30 3969 H 372.021 0.792347 0.236885 0
M  V30 3970 H 374.567 1.67437 -0.276211 0
M  V30 3971 H 373.339 3.90095 -0.306822 0
M  V30 3972 H 372.962 3.72181 1.39881 0
M  V30 3973 N 373.959 -0.0401083 1.57549 0
M  V30 3974 C 374.869 -1.06133 2.0922 0
M  V30 3975 C 375.885 -1.40356 1.0284 0
M  V30 3976 O 377.061 -1.49897 1.34509 0
M  V30 3977 C 374.126 -2.34658 2.55218 0
M  V30 3978 C 373.187 -2.07117 3.76033 0
M  V30 3979 C 372.42 -3.29514 4.19829 0
M  V30 3980 O 372.643 -4.39794 3.63232 0
M  V30 3981 O 371.577 -3.15863 5.12362 0
M  V30 3982 H 375.403 -0.652244 2.96613 0
M  V30 3983 H 372.988 -0.256368 1.47184 0
M  V30 3984 H 374.87 -3.10239 2.85184 0
M  V30 3985 H 373.545 -2.74883 1.70941 0
M  V30 3986 H 372.452 -1.29139 3.51104 0
M  V30 3987 H 373.785 -1.71754 4.61261 0
M  V30 3988 N 375.437 -1.54477 -0.31217 0
M  V30 3989 C 376.387 -1.81037 -1.38598 0
M  V30 3990 C 377.371 -0.666941 -1.46426 0
M  V30 3991 O 378.563 -0.927269 -1.50767 0
M  V30 3992 C 375.692 -2.05127 -2.75277 0
M  V30 3993 C 374.778 -3.25624 -2.71716 0
M  V30 3994 N 375.169 -4.46428 -2.37773 0
M  V30 3995 C 373.467 -3.27427 -3.02833 0
M  V30 3996 C 374.168 -5.28406 -2.43232 0
M  V30 3997 N 373.144 -4.6586 -2.80135 0
M  V30 3998 H 376.946 -2.7201 -1.11301 0
M  V30 3999 H 374.46 -1.53826 -0.520705 0
M  V30 4000 H 376.457 -2.22299 -3.52688 0
M  V30 4001 H 375.117 -1.15416 -3.03495 0
M  V30 4002 H 376.128 -4.73227 -2.1042 0
M  V30 4003 H 372.805 -2.47786 -3.36018 0
M  V30 4004 H 374.195 -6.34903 -2.19882 0
M  V30 4005 N 376.915 0.57481 -1.46744 0
M  V30 4006 C 378.14 1.36341 -1.56288 0
M  V30 4007 C 378.565 1.86954 -0.207347 0
M  V30 4008 O 377.923 1.62006 0.813871 0
M  V30 4009 C 377.971 2.52147 -2.57787 0
M  V30 4010 O 377.075 3.53834 -2.11838 0
M  V30 4011 H 376.416 0.405713 -0.525636 0
M  V30 4012 H 378.946 0.696453 -1.92382 0
M  V30 4013 H 378.956 2.98958 -2.77648 0
M  V30 4014 H 377.631 2.14663 -3.5622 0
M  V30 4015 H 376.208 3.1345 -2.01999 0
M  V30 4016 N 378.394 1.34581 0.820102 0
M  V30 4017 C 379.64 1.27285 1.57881 0
M  V30 4018 C 379.973 -0.156137 1.93571 0
M  V30 4019 O 379.248 -1.10222 1.60254 0
M  V30 4020 C 379.531 2.16639 2.87645 0
M  V30 4021 C 379.384 3.68088 2.58517 0
M  V30 4022 C 380.703 2.05378 3.8924 0
M  V30 4023 H 377.822 0.463714 0.572833 0
M  V30 4024 H 380.464 1.64859 0.944539 0
M  V30 4025 H 378.614 1.84725 3.41773 0
M  V30 4026 H 380.286 4.10382 2.10676 0
M  V30 4027 H 378.529 3.89038 1.91917 0
M  V30 4028 H 379.2 4.2598 3.51063 0
M  V30 4029 H 381.676 2.33404 3.44473 0
M  V30 4030 H 380.552 2.7012 4.77835 0
M  V30 4031 H 380.813 1.0316 4.29896 0
M  V30 4032 N 379.872 -1.04064 1.18357 0
M  V30 4033 C 380.805 -2.11618 0.854 0
M  V30 4034 C 381.783 -1.61555 -0.184043 0
M  V30 4035 O 382.967 -1.88395 -0.0630048 0
M  V30 4036 C 380.094 -3.37574 0.27597 0
M  V30 4037 C 379.14 -4.06485 1.2912 0
M  V30 4038 S 379.973 -4.53543 2.84709 0
M  V30 4039 C 381.129 -5.82732 2.28417 0
M  V30 4040 H 381.362 -2.39247 1.76488 0
M  V30 4041 H 378.895 -1.16832 1.00944 0
M  V30 4042 H 380.853 -4.10468 -0.051026 0
M  V30 4043 H 379.514 -3.0806 -0.613028 0
M  V30 4044 H 378.707 -4.97024 0.835633 0
M  V30 4045 H 378.309 -3.39708 1.56443 0
M  V30 4046 H 380.601 -6.56677 1.66677 0
M  V30 4047 H 381.544 -6.33052 3.17256 0
M  V30 4048 H 381.952 -5.37838 1.71436 0
M  V30 4049 N 381.35 -0.985608 -1.22978 0
M  V30 4050 C 382.578 -0.675582 -1.95559 0
M  V30 4051 C 382.993 0.758413 -1.72897 0
M  V30 4052 O 382.35 1.51094 -1.02357 0
M  V30 4053 C 382.401 -0.96293 -3.48439 0
M  V30 4054 O 382.122 -2.34057 -3.70336 0
M  V30 4055 C 383.623 -0.669585 -4.38214 0
M  V30 4056 H 380.843 -0.250523 -0.622478 0
M  V30 4057 H 383.387 -1.3184 -1.56328 0
M  V30 4058 H 381.542 -0.366033 -3.85667 0
M  V30 4059 H 381.956 -2.43424 -4.64591 0
M  V30 4060 H 383.43 -0.920967 -5.44263 0
M  V30 4061 H 383.907 0.396383 -4.37408 0
M  V30 4062 H 384.513 -1.2472 -4.06602 0
M  V30 4063 N 382.828 1.3818 -0.7579 0
M  V30 4064 C 384.058 2.04004 -0.326463 0
M  V30 4065 C 384.466 1.57286 1.05156 0
M  V30 4066 O 383.809 0.743144 1.67997 0
M  V30 4067 C 383.871 3.58444 -0.275402 0
M  V30 4068 C 383.535 4.28237 -1.59569 0
M  V30 4069 C 384.532 4.53312 -2.54566 0
M  V30 4070 C 382.217 4.66341 -1.86631 0
M  V30 4071 C 384.211 5.15531 -3.74842 0
M  V30 4072 C 381.898 5.28283 -3.0718 0
M  V30 4073 C 382.896 5.52814 -4.01106 0
M  V30 4074 O 382.584 6.13465 -5.19534 0
M  V30 4075 H 382.316 0.662026 -0.136739 0
M  V30 4076 H 384.87 1.7777 -1.02893 0
M  V30 4077 H 383.1 3.83667 0.483337 0
M  V30 4078 H 384.789 4.05701 0.127099 0
M  V30 4079 H 385.555 4.24299 -2.34936 0
M  V30 4080 H 381.434 4.46591 -1.14358 0
M  V30 4081 H 384.978 5.34594 -4.48168 0
M  V30 4082 H 380.875 5.56719 -3.26702 0
M  V30 4083 H 381.643 6.31951 -5.20173 0
M  V30 4084 N 384.306 0.507319 1.49211 0
M  V30 4085 C 385.236 -0.256939 2.32082 0
M  V30 4086 C 386.217 -0.956609 1.40652 0
M  V30 4087 O 387.402 -0.946788 1.69557 0
M  V30 4088 C 384.532 -1.31802 3.21318 0
M  V30 4089 C 383.486 -0.737855 4.21592 0
M  V30 4090 C 382.812 -1.89992 4.99807 0
M  V30 4091 C 384.112 0.275325 5.21574 0
M  V30 4092 H 385.806 0.434798 2.96226 0
M  V30 4093 H 383.352 0.210546 1.42452 0
M  V30 4094 H 385.305 -1.86045 3.78107 0
M  V30 4095 H 384.029 -2.03903 2.5513 0
M  V30 4096 H 382.688 -0.217126 3.65956 0
M  V30 4097 H 382.336 -2.60877 4.30061 0
M  V30 4098 H 382.036 -1.51777 5.6766 0
M  V30 4099 H 383.56 -2.44657 5.59442 0
M  V30 4100 H 384.974 -0.179193 5.7302 0
M  V30 4101 H 383.371 0.573649 5.97352 0
M  V30 4102 H 384.441 1.18903 4.70096 0
M  V30 4103 N 385.784 -1.5574 0.241426 0
M  V30 4104 C 387.009 -2.0366 -0.392111 0
M  V30 4105 C 387.434 -1.11969 -1.51144 0
M  V30 4106 O 386.792 -0.111594 -1.80956 0
M  V30 4107 C 386.84 -3.49638 -0.882371 0
M  V30 4108 O 385.944 -3.6108 -1.99235 0
M  V30 4109 H 385.285 -0.658379 -0.0862122 0
M  V30 4110 H 387.815 -2.01302 0.365881 0
M  V30 4111 H 387.825 -3.90351 -1.18702 0
M  V30 4112 H 386.5 -4.15852 -0.0632361 0
M  V30 4113 H 385.077 -3.32262 -1.69282 0
M  V30 4114 N 387.262 0.0317525 -1.57568 0
M  V30 4115 C 388.194 1.06073 -2.03178 0
M  V30 4116 C 389.207 1.32627 -0.944132 0
M  V30 4117 O 390.396 1.30162 -1.22148 0
M  V30 4118 C 387.496 2.40297 -2.38978 0
M  V30 4119 C 386.669 2.33137 -3.70089 0
M  V30 4120 C 385.728 3.49787 -3.9311 0
M  V30 4121 O 384.754 3.29403 -4.64201 0
M  V30 4122 N 385.956 4.71562 -3.38541 0
M  V30 4123 H 388.721 0.672006 -2.92069 0
M  V30 4124 H 386.282 0.219745 -1.60402 0
M  V30 4125 H 388.274 3.1705 -2.51518 0
M  V30 4126 H 386.844 2.71024 -1.55771 0
M  V30 4127 H 386.064 1.415 -3.67928 0
M  V30 4128 H 387.352 2.25493 -4.56104 0
M  V30 4129 H 386.75 4.91024 -2.80912 0
M  V30 4130 H 385.307 5.45689 -3.56464 0
M  V30 4131 N 388.74 1.54641 0.303973 0
M  V30 4132 C 389.987 1.7378 1.03955 0
M  V30 4133 C 390.315 0.521986 1.87365 0
M  V30 4134 O 389.57 -0.496099 1.89308 0
M  V30 4135 C 389.869 2.97753 1.97681 0
M  V30 4136 C 389.535 4.31671 1.30271 0
M  V30 4137 C 388.197 4.68075 1.11619 0
M  V30 4138 C 390.549 5.147 0.82055 0
M  V30 4139 C 387.877 5.8509 0.434304 0
M  V30 4140 C 390.229 6.32416 0.152395 0
M  V30 4141 C 388.893 6.67484 -0.0461067 0
M  V30 4142 H 388.163 0.635908 0.380398 0
M  V30 4143 H 390.81 1.88896 0.314718 0
M  V30 4144 H 389.115 2.77406 2.76682 0
M  V30 4145 H 390.812 3.09756 2.54661 0
M  V30 4146 H 387.402 4.03041 1.45795 0
M  V30 4147 H 391.586 4.87077 0.952374 0
M  V30 4148 H 386.842 6.10806 0.269495 0
M  V30 4149 H 391.016 6.96023 -0.229126 0
M  V30 4150 H 388.643 7.58011 -0.576494 0
M  V30 4151 N 390.218 -0.567019 1.47046 0
M  V30 4152 C 391.629 -1.14916 1.47143 0
M  V30 4153 C 391.98 -1.94954 0.220767 0
M  V30 4154 O 391.105 -2.05602 -0.67505 0
M  V30 4155 C 391.7 -2.09069 2.666 0
M  V30 4156 C 390.259 -2.62575 2.69687 0
M  V30 4157 C 389.406 -1.38755 2.40088 0
M  V30 4158 H 392.357 -0.354126 1.54699 0
M  V30 4159 H 392.378 -2.92789 2.43011 0
M  V30 4160 H 391.89 -1.50789 3.57609 0
M  V30 4161 H 389.991 -3.24681 1.82792 0
M  V30 4162 H 390.104 -3.04239 3.70102 0
M  V30 4163 H 388.468 -1.69098 1.90468 0
M  V30 4164 H 389.251 -0.822822 3.33293 0
M  V30 4165 N 391.696 -1.35014 -0.812953 0
M  V30 4166 C 392.643 -1.27412 -1.92444 0
M  V30 4167 C 393.613 -0.14733 -1.65445 0
M  V30 4168 O 394.798 -0.329974 -1.87925 0
M  V30 4169 C 391.938 -1.04558 -3.28879 0
M  V30 4170 C 391.051 -2.26101 -3.68106 0
M  V30 4171 C 390.186 -1.96449 -4.9354 0
M  V30 4172 C 389.225 -3.14081 -5.25376 0
M  V30 4173 N 388.362 -2.84246 -6.41988 0
M  V30 4174 H 393.202 -2.22463 -1.98278 0
M  V30 4175 H 390.739 -1.10593 -0.969933 0
M  V30 4176 H 392.697 -0.893413 -4.07522 0
M  V30 4177 H 391.327 -0.131719 -3.22531 0
M  V30 4178 H 390.379 -2.52204 -2.84775 0
M  V30 4179 H 391.691 -3.13959 -3.87597 0
M  V30 4180 H 390.845 -1.78026 -5.79993 0
M  V30 4181 H 389.584 -1.05867 -4.76071 0
M  V30 4182 H 388.589 -3.33089 -4.37415 0
M  V30 4183 H 389.814 -4.05455 -5.44778 0
M  V30 4184 H 387.76 -1.96252 -6.25956 0
M  V30 4185 H 387.677 -3.65637 -6.61699 0
M  V30 4186 H 388.945 -2.6935 -7.31485 0
M  V30 4187 N 393.175 1.03435 -1.18907 0
M  V30 4188 C 394.138 2.09756 -0.923844 0
M  V30 4189 C 395.138 1.60528 0.093416 0
M  V30 4190 O 396.328 1.73631 -0.140727 0
M  V30 4191 C 393.46 3.38692 -0.387354 0
M  V30 4192 H 394.653 2.34719 -1.86674 0
M  V30 4193 H 392.206 1.19959 -1.00197 0
M  V30 4194 H 392.941 3.19396 0.561845 0
M  V30 4195 H 392.726 3.75742 -1.12074 0
M  V30 4196 H 394.216 4.17016 -0.220694 0
M  V30 4197 N 394.653 0.992116 1.22453 0
M  V30 4198 C 395.6 0.541731 2.24352 0
M  V30 4199 C 396.57 -0.425519 1.60557 0
M  V30 4200 O 397.755 -0.330453 1.87917 0
M  V30 4201 C 394.895 -0.138248 3.44823 0
M  V30 4202 C 394.008 0.870649 4.23136 0
M  V30 4203 C 393.143 0.164269 5.30946 0
M  V30 4204 C 392.182 1.16159 6.00977 0
M  V30 4205 N 391.319 0.483568 7.00433 0
M  V30 4206 H 396.159 1.41541 2.62241 0
M  V30 4207 H 393.696 0.709013 1.28885 0
M  V30 4208 H 395.654 -0.5494 4.13567 0
M  V30 4209 H 394.284 -0.975721 3.077 0
M  V30 4210 H 393.336 1.40013 3.53696 0
M  V30 4211 H 394.648 1.63014 4.7141 0
M  V30 4212 H 393.802 -0.303653 6.0594 0
M  V30 4213 H 392.541 -0.627733 4.83643 0
M  V30 4214 H 391.546 1.64015 5.24766 0
M  V30 4215 H 392.771 1.95445 6.50368 0
M  V30 4216 H 390.717 -0.289012 6.55363 0
M  V30 4217 H 390.634 1.18152 7.4671 0
M  V30 4218 H 391.902 0.0384219 7.79491 0
M  V30 4219 N 396.131 -1.37776 0.765217 0
M  V30 4220 C 397.061 -2.32945 0.160953 0
M  V30 4221 C 398.042 -1.55454 -0.690516 0
M  V30 4222 O 399.227 -1.83721 -0.629318 0
M  V30 4223 C 396.357 -3.39669 -0.724031 0
M  V30 4224 C 395.311 -4.27992 0.0256173 0
M  V30 4225 C 394.637 -5.25673 -0.978383 0
M  V30 4226 C 395.937 -5.08309 1.20082 0
M  V30 4227 H 397.631 -2.83728 0.955969 0
M  V30 4228 H 395.177 -1.36416 0.461149 0
M  V30 4229 H 397.13 -4.05219 -1.15652 0
M  V30 4230 H 395.854 -2.87396 -1.5515 0
M  V30 4231 H 394.513 -3.63964 0.438812 0
M  V30 4232 H 394.161 -4.69682 -1.80022 0
M  V30 4233 H 393.861 -5.85625 -0.481378 0
M  V30 4234 H 395.385 -5.94098 -1.40995 0
M  V30 4235 H 396.799 -5.67034 0.845307 0
M  V30 4236 H 395.196 -5.77554 1.62947 0
M  V30 4237 H 396.266 -4.41365 2.00811 0
M  V30 4238 N 397.609 -0.515225 -1.4894 0
M  V30 4239 C 398.556 0.255567 -2.29381 0
M  V30 4240 C 399.526 0.947387 -1.36432 0
M  V30 4241 O 400.711 0.951288 -1.65394 0
M  V30 4242 C 397.851 1.30551 -3.19453 0
M  V30 4243 C 396.964 0.624029 -4.27469 0
M  V30 4244 C 396.099 1.65563 -5.0474 0
M  V30 4245 C 395.138 0.956802 -6.04576 0
M  V30 4246 N 394.275 1.93326 -6.74959 0
M  V30 4247 H 399.115 -0.436607 -2.94784 0
M  V30 4248 H 396.652 -0.227154 -1.45336 0
M  V30 4249 H 398.61 1.92639 -3.70062 0
M  V30 4250 H 397.24 1.96626 -2.56004 0
M  V30 4251 H 396.292 -0.110459 -3.8024 0
M  V30 4252 H 397.604 0.0746092 -4.98744 0
M  V30 4253 H 396.758 2.35119 -5.59289 0
M  V30 4254 H 395.497 2.23893 -4.3327 0
M  V30 4255 H 394.502 0.247097 -5.49244 0
M  V30 4256 H 395.727 0.379814 -6.78037 0
M  V30 4257 H 393.673 2.50591 -6.06251 0
M  V30 4258 H 393.59 1.43489 -7.42258 0
M  V30 4259 H 394.858 2.62126 -7.34105 0
M  V30 4260 N 399.087 1.5561 -0.249682 0
M  V30 4261 C 400.498 1.84979 0.252949 0
M  V30 4262 C 400.849 1.17153 1.57384 0
M  V30 4263 O 399.974 0.450884 2.11651 0
M  V30 4264 C 400.569 3.35584 0.465732 0
M  V30 4265 C 399.128 3.65169 0.912624 0
M  V30 4266 C 398.275 2.77299 -0.00859085 0
M  V30 4267 H 401.226 1.51513 -0.47217 0
M  V30 4268 H 401.247 3.57313 1.30795 0
M  V30 4269 H 400.759 3.8492 -0.49579 0
M  V30 4270 H 398.86 3.21312 1.88652 0
M  V30 4271 H 398.973 4.72912 0.767559 0
M  V30 4272 H 397.337 2.49678 0.50327 0
M  V30 4273 H 398.12 3.29442 -0.965537 0
M  V30 4274 N 400.565 -0.0233959 1.57583 0
M  V30 4275 C 401.813 -0.711654 1.89156 0
M  V30 4276 C 402.134 -1.75591 0.848096 0
M  V30 4277 O 401.404 -1.95547 -0.117566 0
M  V30 4278 H 399.984 -0.265835 0.698098 0
M  V30 4279 H 402.646 0.0119948 1.94896 0
M  V30 4280 H 401.742 -1.19766 2.88206 0
M  V30 4281 N 402.043 -1.548 -0.295768 0
M  V30 4282 C 403.006 -1.85363 -1.34808 0
M  V30 4283 C 404.006 -0.726817 -1.43436 0
M  V30 4284 O 405.196 -0.995088 -1.42981 0
M  V30 4285 C 402.328 -2.03859 -2.73229 0
M  V30 4286 H 403.521 -2.7941 -1.08949 0
M  V30 4287 H 401.074 -1.46942 -0.532702 0
M  V30 4288 H 401.809 -1.12117 -3.04303 0
M  V30 4289 H 401.594 -2.8588 -2.68356 0
M  V30 4290 H 403.084 -2.28857 -3.49305 0
M  V30 4291 N 403.521 0.559213 -1.47345 0
M  V30 4292 C 404.932 1.14134 -1.47751 0
M  V30 4293 C 405.283 1.94834 -0.231103 0
M  V30 4294 O 404.408 2.05957 0.664137 0
M  V30 4295 C 405.003 2.07653 -2.67705 0
M  V30 4296 C 403.562 2.61141 -2.71076 0
M  V30 4297 C 402.709 1.3748 -2.40821 0
M  V30 4298 H 405.66 0.345917 -1.54884 0
M  V30 4299 H 405.681 2.91497 -2.44561 0
M  V30 4300 H 405.193 1.4889 -3.58404 0
M  V30 4301 H 403.294 3.23707 -1.84511 0
M  V30 4302 H 403.407 3.02272 -3.7171 0
M  V30 4303 H 401.771 1.68086 -1.91362 0
M  V30 4304 H 402.554 0.805135 -3.33725 0
M  V30 4305 N 404.999 1.35443 0.805782 0
M  V30 4306 C 405.929 1.31095 1.93226 0
M  V30 4307 C 406.91 0.185244 1.69088 0
M  V30 4308 O 408.095 0.380332 1.90439 0
M  V30 4309 C 405.225 1.08299 3.29983 0
M  V30 4310 C 404.179 2.17519 3.68605 0
M  V30 4311 C 403.505 1.79887 5.03532 0
M  V30 4312 C 404.805 3.5949 3.78898 0
M  V30 4313 H 406.499 2.25352 1.97122 0
M  V30 4314 H 404.045 1.0848 0.946996 0
M  V30 4315 H 405.998 1.03897 4.08391 0
M  V30 4316 H 404.722 0.104885 3.26432 0
M  V30 4317 H 403.381 2.2102 2.92482 0
M  V30 4318 H 403.029 0.80693 4.96485 0
M  V30 4319 H 402.729 2.53001 5.30344 0
M  V30 4320 H 404.253 1.77011 5.84379 0
M  V30 4321 H 405.667 3.58307 4.47536 0
M  V30 4322 H 404.064 4.31371 4.1718 0
M  V30 4323 H 405.134 3.95584 2.80431 0
M  V30 4324 N 406.477 -1.02803 1.19454 0
M  V30 4325 C 407.893 -1.28473 0.946937 0
M  V30 4326 C 408.093 -1.97881 -0.380202 0
M  V30 4327 O 407.149 -2.26719 -1.11151 0
M  V30 4328 C 408.462 -2.13099 2.12154 0
M  V30 4329 C 410.01 -2.26404 2.16126 0
M  V30 4330 C 410.485 -3.14402 3.33039 0
M  V30 4331 N 411.976 -3.21991 3.32981 0
M  V30 4332 C 412.711 -3.90272 4.20089 0
M  V30 4333 N 412.207 -4.60777 5.17355 0
M  V30 4334 N 414 -3.8668 4.07964 0
M  V30 4335 H 406.151 -0.561665 2.04839 0
M  V30 4336 H 408.414 -0.310438 0.89573 0
M  V30 4337 H 408.12 -1.69422 3.08203 0
M  V30 4338 H 407.994 -3.13813 2.09287 0
M  V30 4339 H 410.381 -2.69311 1.20647 0
M  V30 4340 H 410.462 -1.25237 2.23045 0
M  V30 4341 H 410.106 -2.72204 4.28798 0
M  V30 4342 H 410.036 -4.1563 3.23356 0
M  V30 4343 H 412.527 -2.71778 2.62574 0
M  V30 4344 H 412.84 -5.10513 5.80169 0
M  V30 4345 H 411.185 -4.5964 5.21302 0
M  V30 4346 H 414.376 -3.30739 3.31254 0
M  V30 4347 H 414.549 -4.39621 4.76064 0
M  V30 4348 N 407.956 -0.998596 -1.21925 0
M  V30 4349 C 409.367 -0.711939 -1.72593 0
M  V30 4350 C 409.718 0.770842 -1.80423 0
M  V30 4351 O 408.843 1.60237 -1.4544 0
M  V30 4352 C 409.438 -1.28567 -3.13458 0
M  V30 4353 C 407.997 -1.04828 -3.61508 0
M  V30 4354 C 407.144 -1.4024 -2.39224 0
M  V30 4355 H 410.095 -1.17027 -1.07193 0
M  V30 4356 H 410.116 -0.667098 -3.74607 0
M  V30 4357 H 409.628 -2.36486 -3.07727 0
M  V30 4358 H 407.729 0.0140383 -3.72597 0
M  V30 4359 H 407.842 -1.71566 -4.47328 0
M  V30 4360 H 406.206 -0.821077 -2.41103 0
M  V30 4361 H 406.989 -2.49176 -2.36149 0
M  V30 4362 N 409.434 1.37368 -0.772513 0
M  V30 4363 C 410.381 2.30262 -0.157488 0
M  V30 4364 C 411.351 1.51137 0.688965 0
M  V30 4365 O 412.536 1.79704 0.641168 0
M  V30 4366 C 409.676 3.37611 0.715045 0
M  V30 4367 C 408.789 4.31746 -0.148098 0
M  V30 4368 C 407.924 5.26171 0.729213 0
M  V30 4369 C 406.963 6.11948 -0.136418 0
M  V30 4370 N 406.1 6.98613 0.698914 0
M  V30 4371 H 410.94 2.82277 -0.955179 0
M  V30 4372 H 408.477 1.38957 -0.482631 0
M  V30 4373 H 410.435 3.98479 1.23575 0
M  V30 4374 H 409.065 2.86959 1.47833 0
M  V30 4375 H 408.117 3.72178 -0.786613 0
M  V30 4376 H 409.429 4.92084 -0.81579 0
M  V30 4377 H 408.583 5.92247 1.31637 0
M  V30 4378 H 407.322 4.66246 1.43059 0
M  V30 4379 H 406.327 5.4485 -0.736102 0
M  V30 4380 H 407.552 6.73945 -0.835134 0
M  V30 4381 H 405.498 6.41215 1.38489 0
M  V30 4382 H 405.415 7.55948 0.0885358 0
M  V30 4383 H 406.683 7.69077 1.27044 0
M  V30 4384 N 410.912 0.523116 1.48665 0
M  V30 4385 C 411.842 -0.23231 2.32342 0
M  V30 4386 C 412.823 -0.941637 1.41659 0
M  V30 4387 O 414.008 -0.928751 1.70552 0
M  V30 4388 C 411.138 -1.28387 3.22698 0
M  V30 4389 C 410.092 -0.693098 4.22351 0
M  V30 4390 C 409.418 -1.8468 5.01794 0
M  V30 4391 C 410.718 0.33063 5.21252 0
M  V30 4392 H 412.412 0.466192 2.95748 0
M  V30 4393 H 409.958 0.225643 1.42221 0
M  V30 4394 H 411.911 -1.82024 3.80059 0
M  V30 4395 H 410.635 -2.01186 2.57278 0
M  V30 4396 H 409.294 -0.178299 3.66166 0
M  V30 4397 H 408.942 -2.56301 4.32804 0
M  V30 4398 H 408.642 -1.45747 5.69238 0
M  V30 4399 H 410.166 -2.38709 5.62006 0
M  V30 4400 H 411.58 -0.118407 5.73178 0
M  V30 4401 H 409.977 0.636974 5.9671 0
M  V30 4402 H 411.047 1.23883 4.68808 0
M  V30 4403 N 412.39 -1.55475 0.257931 0
M  V30 4404 C 413.338 -2.23244 -0.653076 0
M  V30 4405 C 414.332 -1.22366 -1.17144 0
M  V30 4406 O 415.538 -1.40347 -1.12706 0
M  V30 4407 H 411.913 -0.716247 -0.229117 0
M  V30 4408 H 413.884 -2.98343 -0.0584788 0
M  V30 4409 C 412.633 -2.95401 -1.83395 0
M  V30 4410 H 411.956 -3.72802 -1.44424 0
M  V30 4411 H 413.396 -3.46165 -2.44838 0
M  V30 4412 C 411.855 -1.99895 -2.71189 0
M  V30 4413 O 412.385 -1.53909 -3.71046 0
M  V30 4414 N 410.591 -1.6676 -2.3799 0
M  V30 4415 H 410.138 -2.04352 -1.56837 0
M  V30 4416 H 410.096 -1.03127 -2.97005 0
M  V30 4417 N 413.868 0.0150385 -1.57593 0
M  V30 4418 C 415.279 0.559832 -1.78109 0
M  V30 4419 C 415.63 1.74814 -0.890756 0
M  V30 4420 O 414.755 2.16216 -0.0892482 0
M  V30 4421 C 415.35 1.02238 -3.23006 0
M  V30 4422 C 413.909 1.51258 -3.44671 0
M  V30 4423 C 413.056 0.456955 -2.73509 0
M  V30 4424 H 416.007 -0.211169 -1.57289 0
M  V30 4425 H 416.028 1.88912 -3.30292 0
M  V30 4426 H 415.54 0.157302 -3.87781 0
M  V30 4427 H 413.641 2.39905 -2.8509 0
M  V30 4428 H 413.754 1.55042 -4.5332 0
M  V30 4429 H 412.118 0.915196 -2.37689 0
M  V30 4430 H 412.901 -0.398896 -3.40975 0
M  V30 4431 N 415.346 1.54954 0.287554 0
M  V30 4432 C 416.293 1.86834 1.35505 0
M  V30 4433 C 417.263 0.718452 1.49758 0
M  V30 4434 O 418.448 0.968358 1.644 0
M  V30 4435 C 415.588 2.13303 2.71286 0
M  V30 4436 C 414.701 3.40883 2.65373 0
M  V30 4437 C 413.836 3.57125 3.93236 0
M  V30 4438 C 412.875 4.78449 3.81776 0
M  V30 4439 N 412.012 4.91426 5.01443 0
M  V30 4440 H 416.852 2.77889 1.07619 0
M  V30 4441 H 414.389 1.37593 0.520241 0
M  V30 4442 H 416.347 2.26646 3.50267 0
M  V30 4443 H 414.977 1.25499 2.97405 0
M  V30 4444 H 414.029 3.36088 1.78182 0
M  V30 4445 H 415.341 4.29993 2.52799 0
M  V30 4446 H 414.495 3.70207 4.80658 0
M  V30 4447 H 413.234 2.66173 4.0866 0
M  V30 4448 H 412.239 4.65386 2.92738 0
M  V30 4449 H 413.464 5.70822 3.67884 0
M  V30 4450 H 411.41 4.03401 5.17304 0
M  V30 4451 H 411.327 5.74559 4.91343 0
M  V30 4452 H 412.595 5.08879 5.90477 0
M  V30 4453 N 416.824 -0.551391 1.4764 0
M  V30 4454 C 417.771 -1.65796 1.60563 0
M  V30 4455 C 418.741 -1.59932 0.448428 0
M  V30 4456 O 419.926 -1.78679 0.669222 0
M  V30 4457 C 417.066 -3.04108 1.63133 0
M  V30 4458 C 416.179 -3.20365 2.89811 0
M  V30 4459 C 415.314 -4.49109 2.8368 0
M  V30 4460 C 414.353 -4.58819 4.05156 0
M  V30 4461 N 413.49 -5.78926 3.97227 0
M  V30 4462 H 418.33 -1.54088 2.5507 0
M  V30 4463 H 415.867 -0.75052 1.26513 0
M  V30 4464 H 417.825 -3.84207 1.62606 0
M  V30 4465 H 416.455 -3.14637 0.721341 0
M  V30 4466 H 415.507 -2.33659 3.00179 0
M  V30 4467 H 416.819 -3.23402 3.79753 0
M  V30 4468 H 415.973 -5.37475 2.81434 0
M  V30 4469 H 414.712 -4.4856 1.91431 0
M  V30 4470 H 413.717 -3.68864 4.077 0
M  V30 4471 H 414.942 -4.61124 4.98539 0
M  V30 4472 H 412.888 -5.79314 3.07785 0
M  V30 4473 H 412.805 -5.83367 4.80853 0
M  V30 4474 H 414.073 -6.69637 3.99007 0
M  V30 4475 N 418.302 -1.35869 -0.798587 0
M  V30 4476 C 419.265 -1.29307 -1.89242 0
M  V30 4477 C 420.265 -0.202747 -1.59517 0
M  V30 4478 O 421.455 -0.456957 -1.681 0
M  V30 4479 C 418.587 -1.00229 -3.25833 0
M  V30 4480 H 419.78 -2.26576 -1.96478 0
M  V30 4481 H 417.333 -1.20509 -0.995358 0
M  V30 4482 H 418.068 -0.033801 -3.24282 0
M  V30 4483 H 417.853 -1.79121 -3.48795 0
M  V30 4484 H 419.343 -0.98219 -4.05885 0
M  V30 4485 N 419.78 1.02168 -1.19998 0
M  V30 4486 C 421.196 1.27969 -0.953737 0
M  V30 4487 C 421.396 1.98079 0.369703 0
M  V30 4488 O 420.452 2.27306 1.09947 0
M  V30 4489 C 421.765 2.11971 -2.13281 0
M  V30 4490 C 423.313 2.25255 -2.17323 0
M  V30 4491 C 423.788 3.12632 -3.34702 0
M  V30 4492 N 425.279 3.2022 -3.34684 0
M  V30 4493 C 426.014 3.88039 -4.22153 0
M  V30 4494 N 425.51 4.58027 -5.19791 0
M  V30 4495 N 427.303 3.84511 -4.10009 0
M  V30 4496 H 419.454 0.550794 -2.05134 0
M  V30 4497 H 421.717 0.305683 -0.897364 0
M  V30 4498 H 421.423 1.67785 -3.09097 0
M  V30 4499 H 421.297 3.12699 -2.10949 0
M  V30 4500 H 423.684 2.68667 -1.22073 0
M  V30 4501 H 423.765 1.24053 -2.23706 0
M  V30 4502 H 423.409 2.69926 -4.30235 0
M  V30 4503 H 423.339 4.13909 -3.25556 0
M  V30 4504 H 425.83 2.70382 -2.64012 0
M  V30 4505 H 426.143 5.07429 -5.82868 0
M  V30 4506 H 424.488 4.56869 -5.23733 0
M  V30 4507 H 427.679 3.28978 -3.33003 0
M  V30 4508 H 427.852 4.3709 -4.78389 0
M  V30 4509 N 421.258 1.00505 1.21394 0
M  V30 4510 C 422.221 0.570459 2.21987 0
M  V30 4511 C 423.221 -0.353211 1.56873 0
M  V30 4512 O 424.411 -0.14349 1.73608 0
M  V30 4513 C 421.543 -0.168555 3.40483 0
M  V30 4514 H 422.736 1.46021 2.6195 0
M  V30 4515 H 420.289 0.793565 1.34656 0
M  V30 4516 H 421.024 -1.07374 3.06009 0
M  V30 4517 H 420.809 0.494823 3.88965 0
M  V30 4518 H 422.299 -0.460362 4.15055 0
M  V30 4519 N 422.737 -1.36956 0.779787 0
M  V30 4520 C 423.967 -2.03459 0.358877 0
M  V30 4521 C 424.375 -1.58939 -1.02641 0
M  V30 4522 O 423.718 -0.769777 -1.66794 0
M  V30 4523 C 423.78 -3.5796 0.332393 0
M  V30 4524 C 423.444 -4.25644 1.66362 0
M  V30 4525 C 424.441 -4.49205 2.61746 0
M  V30 4526 C 422.126 -4.63313 1.94027 0
M  V30 4527 C 424.12 -5.09503 3.82996 0
M  V30 4528 C 421.807 -5.2333 3.15546 0
M  V30 4529 C 422.805 -5.46363 4.0985 0
M  V30 4530 O 422.493 -6.05122 5.29228 0
M  V30 4531 H 422.225 -0.659767 0.147254 0
M  V30 4532 H 424.779 -1.76111 1.05708 0
M  V30 4533 H 423.009 -3.84388 -0.422237 0
M  V30 4534 H 424.698 -4.05852 -0.0625389 0
M  V30 4535 H 425.464 -4.20508 2.41657 0
M  V30 4536 H 421.343 -4.44715 1.21448 0
M  V30 4537 H 424.887 -5.27397 4.56617 0
M  V30 4538 H 420.784 -5.51451 3.35517 0
M  V30 4539 H 421.552 -6.23595 5.30161 0
M  V30 4540 N 424.215 -0.530993 -1.48385 0
M  V30 4541 C 425.463 0.00273189 -2.021 0
M  V30 4542 C 425.784 1.34672 -1.41027 0
M  V30 4543 O 425.054 1.8724 -0.576012 0
M  V30 4544 H 423.634 0.00399774 -0.746989 0
M  V30 4545 H 426.296 -0.695054 -1.82085 0
M  V30 4546 H 425.392 0.11031 -3.11905 0
M  V30 4547 N 425.693 1.55336 -0.266172 0
M  V30 4548 C 427.104 1.85236 0.233315 0
M  V30 4549 C 427.455 1.18816 1.56132 0
M  V30 4550 O 426.58 0.473307 2.11161 0
M  V30 4551 C 427.175 3.36059 0.430113 0
M  V30 4552 C 425.734 3.66116 0.873842 0
M  V30 4553 C 424.881 2.77274 -0.0380016 0
M  V30 4554 H 427.832 1.51004 -0.488214 0
M  V30 4555 H 427.853 3.58681 1.26998 0
M  V30 4556 H 427.365 3.84373 -0.536588 0
M  V30 4557 H 425.466 3.23295 1.85233 0
M  V30 4558 H 425.579 4.73699 0.717358 0
M  V30 4559 H 423.943 2.50198 0.476759 0
M  V30 4560 H 424.726 3.284 -1.00042 0
M  V30 4561 N 427.171 -0.0066808 1.57599 0
M  V30 4562 C 428.419 -0.691552 1.899 0
M  V30 4563 C 428.74 -1.74682 0.866672 0
M  V30 4564 O 428.01 -1.95661 -0.0968189 0
M  V30 4565 H 426.59 -0.258416 0.700878 0
M  V30 4566 H 429.252 0.0326655 1.94873 0
M  V30 4567 H 428.348 -1.16702 2.8946 0
M  V30 4568 N 428.649 -1.55105 -0.279332 0
M  V30 4569 C 429.898 -1.74618 -1.00952 0
M  V30 4570 C 430.211 -0.551096 -1.87676 0
M  V30 4571 O 431.417 -0.628507 -2.64125 0
M  V30 4572 C 429.873 -3.09025 -1.84476 0
M  V30 4573 C 429.481 -4.36081 -1.0265 0
M  V30 4574 C 431.225 -3.37891 -2.56963 0
M  V30 4575 C 429.132 -5.6153 -1.85576 0
M  V30 4576 H 428.062 -0.650868 -0.38064 0
M  V30 4577 H 430.713 -1.81569 -0.265475 0
M  V30 4578 H 429.095 -2.96095 -2.62952 0
M  V30 4579 H 430.269 -4.59909 -0.286354 0
M  V30 4580 H 428.584 -4.14312 -0.416464 0
M  V30 4581 H 431.181 -4.28822 -3.19399 0
M  V30 4582 H 431.524 -2.57737 -3.26921 0
M  V30 4583 H 432.057 -3.5189 -1.85522 0
M  V30 4584 H 428.796 -6.44413 -1.2005 0
M  V30 4585 H 428.316 -5.41854 -2.57204 0
M  V30 4586 H 429.995 -5.99594 -2.43096 0
M  V30 4587 N 430.127 0.543554 -1.4793 0
M  V30 4588 C 431.037 1.67657 -1.64098 0
M  V30 4589 C 432.053 1.65934 -0.523622 0
M  V30 4590 O 433.229 1.85133 -0.792943 0
M  V30 4591 C 430.294 3.04146 -1.66421 0
M  V30 4592 C 429.355 3.16831 -2.89684 0
M  V30 4593 C 428.588 4.46809 -2.91886 0
M  V30 4594 O 428.811 5.33095 -2.02895 0
M  V30 4595 O 427.745 4.63573 -3.83906 0
M  V30 4596 H 431.571 1.56957 -2.59997 0
M  V30 4597 H 429.156 0.715116 -1.31173 0
M  V30 4598 H 431.038 3.85346 -1.70548 0
M  V30 4599 H 429.713 3.152 -0.736923 0
M  V30 4600 H 428.62 2.34977 -2.91095 0
M  V30 4601 H 429.953 3.10687 -3.81752 0
M  V30 4602 N 431.605 1.3629 0.791371 0
M  V30 4603 C 433.016 1.27225 1.36641 0
M  V30 4604 C 433.367 -0.0887968 1.95999 0
M  V30 4605 O 432.492 -0.990207 1.92416 0
M  V30 4606 C 433.087 2.30375 2.48421 0
M  V30 4607 C 431.646 2.25004 3.01746 0
M  V30 4608 C 430.793 2.15259 1.7481 0
M  V30 4609 H 433.744 1.47198 0.593173 0
M  V30 4610 H 433.765 1.93905 3.27385 0
M  V30 4611 H 433.277 3.29422 2.05189 0
M  V30 4612 H 431.378 1.29417 3.49403 0
M  V30 4613 H 431.491 3.1761 3.58693 0
M  V30 4614 H 429.855 1.61482 1.96966 0
M  V30 4615 H 430.638 3.16191 1.33709 0
M  V30 4616 N 433.083 -1.0153 1.20538 0
M  V30 4617 C 434.311 -1.78746 1.04199 0
M  V30 4618 C 434.726 -1.84323 -0.408733 0
M  V30 4619 O 434.083 -1.29714 -1.28377 0
M  V30 4620 C 434.134 -3.23152 1.62035 0
M  V30 4621 O 433.855 -3.17918 3.0143 0
M  V30 4622 C 435.356 -4.16911 1.50666 0
M  V30 4623 H 432.576 -0.56208 0.366479 0
M  V30 4624 H 435.12 -1.27794 1.59653 0
M  V30 4625 H 433.275 -3.71248 1.10697 0
M  V30 4626 H 433.689 -4.08567 3.28897 0
M  V30 4627 H 435.163 -5.16072 1.95892 0
M  V30 4628 H 435.64 -4.36791 0.459363 0
M  V30 4629 H 436.246 -3.74698 2.01201 0
M  V30 4630 N 434.561 -1.01147 -1.20859 0
M  V30 4631 C 435.809 -0.696486 -1.89719 0
M  V30 4632 C 436.13 0.775788 -1.78904 0
M  V30 4633 O 435.4 1.55759 -1.18811 0
M  V30 4634 H 433.98 -0.254628 -0.702263 0
M  V30 4635 H 436.642 -1.28197 -1.46804 0
M  V30 4636 H 435.738 -0.975357 -2.96468 0
M  V30 4637 N 436.039 1.36541 -0.78704 0
M  V30 4638 C 436.987 2.31965 -0.171724 0
M  V30 4639 C 437.981 1.55689 0.667631 0
M  V30 4640 O 439.187 1.70969 0.562981 0
M  V30 4641 H 435.562 0.751101 -0.0367545 0
M  V30 4642 H 437.533 2.81428 -0.992017 0
M  V30 4643 C 436.282 3.40968 0.680904 0
M  V30 4644 H 435.605 3.99775 0.0443961 0
M  V30 4645 H 437.045 4.10063 1.07815 0
M  V30 4646 C 435.504 2.82338 1.83813 0
M  V30 4647 O 436.034 2.74311 2.93456 0
M  V30 4648 N 434.24 2.39661 1.6435 0
M  V30 4649 H 433.787 2.46389 0.751668 0
M  V30 4650 H 433.745 2.00779 2.4194 0
M  V30 4651 N 437.518 0.538854 1.48102 0
M  V30 4652 C 438.451 -0.266495 2.26639 0
M  V30 4653 C 439.429 -0.93687 1.32897 0
M  V30 4654 O 440.613 -0.959507 1.62252 0
M  V30 4655 C 437.74 -1.37814 3.09394 0
M  V30 4656 C 436.786 -0.818247 4.18577 0
M  V30 4657 S 437.619 0.320848 5.34538 0
M  V30 4658 C 438.775 -0.793059 6.20855 0
M  V30 4659 H 439.008 0.399994 2.94597 0
M  V30 4660 H 436.541 0.324808 1.50945 0
M  V30 4661 H 438.499 -2.01488 3.57649 0
M  V30 4662 H 437.16 -2.01639 2.40833 0
M  V30 4663 H 436.353 -1.65247 4.7614 0
M  V30 4664 H 435.955 -0.258036 3.73109 0
M  V30 4665 H 438.247 -1.68961 6.56093 0
M  V30 4666 H 439.19 -0.255204 7.0764 0
M  V30 4667 H 439.598 -1.07746 5.54122 0
M  V30 4668 N 438.996 -1.55193 0.274407 0
M  V30 4669 C 440.242 -1.99877 -0.343086 0
M  V30 4670 C 440.575 -1.16256 -1.55558 0
M  V30 4671 O 439.85 -0.232462 -1.93106 0
M  V30 4672 C 440.133 -3.52706 -0.725965 0
M  V30 4673 C 439.986 -4.47081 0.493818 0
M  V30 4674 C 441.305 -4.11422 -1.56268 0
M  V30 4675 H 438.424 -0.726625 -0.123229 0
M  V30 4676 H 441.066 -1.86136 0.38121 0
M  V30 4677 H 439.216 -3.64546 -1.34307 0
M  V30 4678 H 440.888 -4.47186 1.13237 0
M  V30 4679 H 439.131 -4.1877 1.13201 0
M  V30 4680 H 439.802 -5.51699 0.18217 0
M  V30 4681 H 442.278 -4.02855 -1.04151 0
M  V30 4682 H 441.154 -5.18568 -1.79939 0
M  V30 4683 H 441.415 -3.61607 -2.54348 0
M  V30 4684 N 440.474 -0.00167713 -1.576 0
M  V30 4685 C 441.421 0.989195 -2.08527 0
M  V30 4686 C 442.391 1.34031 -0.981065 0
M  V30 4687 O 443.576 1.43839 -1.2536 0
M  V30 4688 C 440.716 2.27537 -2.59463 0
M  V30 4689 C 439.829 1.98314 -3.83791 0
M  V30 4690 C 438.964 3.21025 -4.23222 0
M  V30 4691 C 438.003 2.87495 -5.40382 0
M  V30 4692 N 437.14 4.02749 -5.75098 0
M  V30 4693 H 441.98 0.547973 -2.92919 0
M  V30 4694 H 439.517 0.258917 -1.44803 0
M  V30 4695 H 441.475 3.02729 -2.87073 0
M  V30 4696 H 440.105 2.69325 -1.77943 0
M  V30 4697 H 439.157 1.13482 -3.63078 0
M  V30 4698 H 440.469 1.69601 -4.69081 0
M  V30 4699 H 439.623 4.04561 -4.52123 0
M  V30 4700 H 438.362 3.52877 -3.36644 0
M  V30 4701 H 437.367 2.02367 -5.11202 0
M  V30 4702 H 438.592 2.56889 -6.28637 0
M  V30 4703 H 436.538 4.34494 -4.91478 0
M  V30 4704 H 436.455 3.77566 -6.54966 0
M  V30 4705 H 437.723 4.87068 -6.08592 0
M  V30 4706 N 441.952 1.55251 0.271103 0
M  V30 4707 C 442.899 1.88261 1.33516 0
M  V30 4708 C 443.869 0.734296 1.48988 0
M  V30 4709 O 445.054 0.985741 1.63364 0
M  V30 4710 C 442.194 2.16168 2.69008 0
M  V30 4711 C 441.307 3.43678 2.61743 0
M  V30 4712 C 440.442 3.61276 3.89427 0
M  V30 4713 C 439.481 4.82472 3.7668 0
M  V30 4714 N 438.618 4.96717 4.96202 0
M  V30 4715 H 443.458 2.79015 1.04665 0
M  V30 4716 H 440.995 1.38137 0.505618 0
M  V30 4717 H 442.953 2.30349 3.47844 0
M  V30 4718 H 441.583 1.28646 2.96057 0
M  V30 4719 H 440.635 3.37959 1.74607 0
M  V30 4720 H 441.947 4.3265 2.48224 0
M  V30 4721 H 441.101 3.75284 4.76704 0
M  V30 4722 H 439.84 2.70492 4.05814 0
M  V30 4723 H 438.845 4.68465 2.87786 0
M  V30 4724 H 440.07 5.74692 3.61809 0
M  V30 4725 H 438.016 4.08865 5.12997 0
M  V30 4726 H 437.933 5.79738 4.85222 0
M  V30 4727 H 439.201 5.15113 5.85046 0
M  V30 4728 N 443.43 -0.535701 1.48216 0
M  V30 4729 C 444.846 -0.863701 1.3421 0
M  V30 4730 C 445.046 -1.98458 0.34879 0
M  V30 4731 O 444.102 -2.51432 -0.23204 0
M  V30 4732 C 445.415 -1.23662 2.74095 0
M  V30 4733 C 446.963 -1.34683 2.82541 0
M  V30 4734 C 447.438 -1.75322 4.23115 0
M  V30 4735 N 448.929 -1.82434 4.2576 0
M  V30 4736 C 449.664 -2.15252 5.31464 0
M  V30 4737 N 449.16 -2.46533 6.47452 0
M  V30 4738 N 450.953 -2.16209 5.18855 0
M  V30 4739 H 443.104 0.203965 2.11418 0
M  V30 4740 H 445.367 0.0286033 0.947568 0
M  V30 4741 H 445.073 -0.486674 3.48316 0
M  V30 4742 H 444.947 -2.18805 3.07253 0
M  V30 4743 H 447.334 -2.08756 2.08579 0
M  V30 4744 H 447.415 -0.376756 2.5301 0
M  V30 4745 H 447.059 -1.01812 4.97591 0
M  V30 4746 H 446.989 -2.7337 4.50085 0
M  V30 4747 H 449.48 -1.6056 3.42095 0
M  V30 4748 H 449.793 -2.70662 7.23852 0
M  V30 4749 H 448.138 -2.44065 6.50736 0
M  V30 4750 H 451.329 -1.91224 4.2726 0
M  V30 4751 H 451.502 -2.41453 6.01335 0
M  V30 4752 N 444.908 -1.36708 -0.784132 0
M  V30 4753 C 445.871 -1.31307 -1.87859 0
M  V30 4754 C 446.871 -0.219654 -1.59293 0
M  V30 4755 O 448.061 -0.47476 -1.67606 0
M  V30 4756 C 445.193 -1.03679 -3.24751 0
M  V30 4757 H 446.386 -2.28647 -1.94064 0
M  V30 4758 H 443.939 -1.21558 -0.98252 0
M  V30 4759 H 444.674 -0.0681936 -3.24228 0
M  V30 4760 H 444.459 -1.82811 -3.46876 0
M  V30 4761 H 445.949 -1.02518 -4.04821 0
M  V30 4762 N 446.386 1.0089 -1.21074 0
M  V30 4763 C 447.296 2.13039 -0.982425 0
M  V30 4764 C 448.312 1.73881 0.0642161 0
M  V30 4765 O 449.488 2.01012 -0.12496 0
M  V30 4766 C 446.553 3.42377 -0.545803 0
M  V30 4767 C 445.614 3.95731 -1.6642 0
M  V30 4768 C 444.847 5.18896 -1.24832 0
M  V30 4769 O 445.07 5.70273 -0.120265 0
M  V30 4770 O 444.004 5.65597 -2.05873 0
M  V30 4771 H 447.83 2.35175 -1.92163 0
M  V30 4772 H 445.415 1.1142 -0.995285 0
M  V30 4773 H 447.297 4.20244 -0.311912 0
M  V30 4774 H 445.972 3.21639 0.364727 0
M  V30 4775 H 444.879 3.19108 -1.95246 0
M  V30 4776 H 446.212 4.20872 -2.55201 0
M  V30 4777 N 447.864 1.01787 1.20321 0
M  V30 4778 C 449.111 0.707936 1.89722 0
M  V30 4779 C 449.439 -0.762535 1.78929 0
M  V30 4780 O 448.694 -1.56977 1.16861 0
M  V30 4781 C 448.993 1.09076 3.40349 0
M  V30 4782 C 448.659 2.55765 3.71342 0
M  V30 4783 C 447.321 2.95845 3.79511 0
M  V30 4784 C 449.673 3.50723 3.85542 0
M  V30 4785 C 447.001 4.2982 3.99339 0
M  V30 4786 C 449.353 4.84387 4.06881 0
M  V30 4787 C 448.017 5.24172 4.1328 0
M  V30 4788 H 447.287 0.259052 0.694243 0
M  V30 4789 H 449.934 1.27868 1.42555 0
M  V30 4790 H 448.239 0.438453 3.89339 0
M  V30 4791 H 449.936 0.828636 3.92345 0
M  V30 4792 H 446.526 2.2371 3.65584 0
M  V30 4793 H 450.71 3.20916 3.78585 0
M  V30 4794 H 445.966 4.60196 4.02529 0
M  V30 4795 H 450.14 5.57891 4.1681 0
M  V30 4796 H 447.767 6.27997 4.28396 0
M  V30 4797 N 449.342 -1.36122 0.79427 0
M  V30 4798 C 450.57 -2.03362 0.380989 0
M  V30 4799 C 450.985 -1.59881 -1.00416 0
M  V30 4800 O 450.342 -0.790515 -1.6449 0
M  V30 4801 C 450.393 -3.58804 0.440649 0
M  V30 4802 O 450.114 -4.007 1.77118 0
M  V30 4803 C 451.615 -4.43296 0.0186117 0
M  V30 4804 H 448.835 -0.652526 0.156367 0
M  V30 4805 H 451.379 -1.73998 1.07447 0
M  V30 4806 H 449.534 -3.8686 -0.204458 0
M  V30 4807 H 449.948 -4.95309 1.72538 0
M  V30 4808 H 451.422 -5.51887 0.111488 0
M  V30 4809 H 451.899 -4.2684 -1.03461 0
M  V30 4810 H 452.505 -4.20512 0.636395 0
M  V30 4811 N 450.82 -0.546701 -1.47814 0
M  V30 4812 C 452.066 -0.0187684 -2.02791 0
M  V30 4813 C 452.399 1.32338 -1.42128 0
M  V30 4814 O 451.674 1.85867 -0.573023 0
M  V30 4815 C 451.957 0.0854985 -3.59998 0
M  V30 4816 C 451.81 -1.283 -4.31114 0
M  V30 4817 C 453.129 0.80412 -4.32691 0
M  V30 4818 H 450.248 -0.0082946 -0.736953 0
M  V30 4819 H 452.89 -0.706962 -1.76358 0
M  V30 4820 H 451.04 0.671609 -3.82651 0
M  V30 4821 H 452.712 -1.91151 -4.19832 0
M  V30 4822 H 450.955 -1.86049 -3.91878 0
M  V30 4823 H 451.626 -1.16287 -5.39612 0
M  V30 4824 H 454.102 0.306576 -4.14969 0
M  V30 4825 H 452.978 0.846011 -5.42341 0
M  V30 4826 H 453.239 1.85802 -4.01161 0
M  V30 4827 N 452.299 1.55045 -0.282633 0
M  V30 4828 C 453.209 2.26491 0.61147 0
M  V30 4829 C 454.225 1.29348 1.16384 0
M  V30 4830 O 455.401 1.62298 1.19253 0
M  V30 4831 C 452.466 2.97779 1.77563 0
M  V30 4832 C 451.527 4.10418 1.25919 0
M  V30 4833 C 450.76 4.78297 2.36786 0
M  V30 4834 O 450.983 4.45426 3.56303 0
M  V30 4835 O 449.917 5.66089 2.04517 0
M  V30 4836 H 453.743 3.03683 0.0324615 0
M  V30 4837 H 451.328 1.49317 -0.0497576 0
M  V30 4838 H 453.21 3.42554 2.45427 0
M  V30 4839 H 451.885 2.23498 2.34159 0
M  V30 4840 H 450.792 3.70082 0.546797 0
M  V30 4841 H 452.125 4.86622 0.738887 0
M  V30 4842 N 453.777 0.010035 1.57597 0
M  V30 4843 C 455.005 -0.683413 1.95287 0
M  V30 4844 C 455.42 -1.66747 0.885481 0
M  V30 4845 O 454.777 -1.82003 -0.134629 0
M  V30 4846 C 454.828 -1.40652 3.33015 0
M  V30 4847 O 454.549 -0.461916 4.35658 0
M  V30 4848 C 456.05 -2.19356 3.85225 0
M  V30 4849 H 453.27 -0.189708 0.643624 0
M  V30 4850 H 455.814 0.0641359 2.04399 0
M  V30 4851 H 453.969 -2.10562 3.2518 0
M  V30 4852 H 454.383 -0.973215 5.15392 0
M  V30 4853 H 455.857 -2.65433 4.83993 0
M  V30 4854 H 456.334 -3.02457 3.18459 0
M  V30 4855 H 456.94 -1.54442 3.96267 0
M  V30 4856 N 455.255 -1.55392 -0.262866 0
M  V30 4857 C 456.671 -1.47459 -0.610582 0
M  V30 4858 C 456.871 -0.697031 -1.8906 0
M  V30 4859 O 455.927 -0.219952 -2.5154 0
M  V30 4860 C 457.24 -2.91751 -0.728131 0
M  V30 4861 C 458.788 -3.02027 -0.821517 0
M  V30 4862 C 459.263 -4.47594 -0.97076 0
M  V30 4863 N 460.754 -4.51465 -1.03603 0
M  V30 4864 C 461.489 -5.61326 -1.17049 0
M  V30 4865 N 460.985 -6.81032 -1.2715 0
M  V30 4866 N 462.778 -5.49089 -1.20239 0
M  V30 4867 H 454.929 -2.04395 0.577632 0
M  V30 4868 H 457.192 -0.927287 0.197086 0
M  V30 4869 H 456.898 -3.51413 0.142132 0
M  V30 4870 H 456.772 -3.4134 -1.6052 0
M  V30 4871 H 459.159 -2.42456 -1.68224 0
M  V30 4872 H 459.24 -2.55674 0.0803688 0
M  V30 4873 H 458.884 -5.07771 -0.114655 0
M  V30 4874 H 458.814 -4.91613 -1.88745 0
M  V30 4875 H 461.305 -3.6524 -0.96996 0
M  V30 4876 H 461.618 -7.60511 -1.37271 0
M  V30 4877 H 459.963 -6.83824 -1.24136 0
M  V30 4878 H 463.154 -4.54507 -1.11985 0
M  V30 4879 H 463.327 -6.34749 -1.30373 0
M  V30 4880 N 456.733 0.527833 -1.48498 0
M  V30 4881 C 457.958 1.313 -1.60546 0
M  V30 4882 C 458.383 1.86199 -0.26672 0
M  V30 4883 O 457.741 1.64513 0.761918 0
M  V30 4884 C 457.789 2.43818 -2.65678 0
M  V30 4885 O 456.893 3.46916 -2.22987 0
M  V30 4886 H 456.234 0.388784 -0.538277 0
M  V30 4887 H 458.764 0.634896 -1.945 0
M  V30 4888 H 458.774 2.89973 -2.87018 0
M  V30 4889 H 457.449 2.03222 -3.62869 0
M  V30 4890 H 456.026 3.06864 -2.11869 0
M  V30 4891 N 458.211 1.37122 0.776871 0
M  V30 4892 C 459.174 1.32301 1.8716 0
M  V30 4893 C 460.174 0.228099 1.59174 0
M  V30 4894 O 461.364 0.483642 1.67352 0
M  V30 4895 C 458.496 1.054 3.24197 0
M  V30 4896 H 459.689 2.29673 1.92848 0
M  V30 4897 H 457.242 1.22077 0.97606 0
M  V30 4898 H 457.977 0.0853872 3.24188 0
M  V30 4899 H 457.762 1.84648 3.45901 0
M  V30 4900 H 459.252 1.04664 4.04271 0
M  V30 4901 N 459.689 -1.00246 1.21608 0
M  V30 4902 C 460.937 -1.73717 1.0328 0
M  V30 4903 C 461.258 -1.90102 -0.434318 0
M  V30 4904 O 460.528 -1.45376 -1.31311 0
M  V30 4905 H 459.108 -0.643613 0.379172 0
M  V30 4906 H 461.77 -1.20787 1.52959 0
M  V30 4907 H 460.866 -2.73535 1.50283 0
M  V30 4908 N 461.167 -1.02423 -1.1978 0
M  V30 4909 C 462.099 -0.559152 -2.22275 0
M  V30 4910 C 463.112 0.36251 -1.58713 0
M  V30 4911 O 464.301 0.159641 -1.77785 0
M  V30 4912 C 461.401 0.205094 -3.38279 0
M  V30 4913 C 460.574 -0.720361 -4.31427 0
M  V30 4914 C 459.633 -0.00234368 -5.262 0
M  V30 4915 O 458.659 -0.627378 -5.65732 0
M  V30 4916 N 459.861 1.26996 -5.66438 0
M  V30 4917 H 462.626 -1.44064 -2.62804 0
M  V30 4918 H 460.187 -0.902692 -1.34399 0
M  V30 4919 H 462.179 0.694868 -3.9869 0
M  V30 4920 H 460.749 0.987947 -2.96578 0
M  V30 4921 H 459.969 -1.39031 -3.68869 0
M  V30 4922 H 461.257 -1.3495 -4.90577 0
M  V30 4923 H 460.655 1.79858 -5.36347 0
M  V30 4924 H 459.212 1.70432 -6.29123 0
M  V30 4925 N 462.645 1.35699 -0.801477 0
M  V30 4926 C 463.893 1.9852 -0.37871 0
M  V30 4927 C 464.214 1.63907 1.05638 0
M  V30 4928 O 463.484 0.919013 1.73006 0
M  V30 4929 H 462.064 0.734322 -0.137042 0
M  V30 4930 H 464.726 1.65697 -1.02619 0
M  V30 4931 H 463.822 3.08382 -0.480284 0
M  V30 4932 N 464.123 0.554532 1.47522 0
M  V30 4933 C 465.033 -0.197865 2.33764 0
M  V30 4934 C 466.049 -0.914576 1.48025 0
M  V30 4935 O 467.225 -0.884067 1.80959 0
M  V30 4936 C 464.29 -1.21628 3.24665 0
M  V30 4937 C 463.351 -0.507283 4.26292 0
M  V30 4938 C 462.584 -1.47718 5.1285 0
M  V30 4939 O 462.807 -2.7118 5.01814 0
M  V30 4940 O 461.741 -1.00313 5.93482 0
M  V30 4941 H 465.567 0.50949 2.99396 0
M  V30 4942 H 463.152 0.315176 1.46038 0
M  V30 4943 H 465.034 -1.80421 3.80823 0
M  V30 4944 H 463.709 -1.9056 2.61665 0
M  V30 4945 H 462.616 0.121778 3.73902 0
M  V30 4946 H 463.949 0.140544 4.91999 0
M  V30 4947 N 465.601 -1.54893 0.290851 0
M  V30 4948 C 466.847 -2.0023 -0.321867 0
M  V30 4949 C 467.18 -1.179 -1.54316 0
M  V30 4950 O 466.455 -0.25293 -1.92848 0
M  V30 4951 C 466.738 -3.53456 -0.688515 0
M  V30 4952 C 466.591 -4.46532 0.541209 0
M  V30 4953 C 467.91 -4.13057 -1.51895 0
M  V30 4954 H 465.029 -0.727891 -0.115515 0
M  V30 4955 H 467.671 -1.85722 0.400931 0
M  V30 4956 H 465.821 -3.6595 -1.30433 0
M  V30 4957 H 467.493 -4.4596 1.17973 0
M  V30 4958 H 465.736 -4.17545 1.17636 0
M  V30 4959 H 466.407 -5.51475 0.240675 0
M  V30 4960 H 468.883 -4.03937 -0.99872 0
M  V30 4961 H 467.759 -5.20448 -1.74429 0
M  V30 4962 H 468.02 -3.64284 -2.50498 0
M  V30 4963 N 467.08 -0.0183926 -1.57589 0
M  V30 4964 C 468.01 0.965596 -2.12599 0
M  V30 4965 C 468.991 1.34641 -1.0395 0
M  V30 4966 O 470.176 1.42693 -1.31729 0
M  V30 4967 C 467.306 2.25149 -2.64434 0
M  V30 4968 C 466.26 2.01175 -3.77773 0
M  V30 4969 C 465.586 3.35937 -4.15994 0
M  V30 4970 C 466.886 1.35953 -5.04296 0
M  V30 4971 H 468.58 0.507504 -2.95067 0
M  V30 4972 H 466.126 0.242671 -1.41941 0
M  V30 4973 H 468.079 2.94357 -3.01549 0
M  V30 4974 H 466.803 2.73105 -1.79112 0
M  V30 4975 H 465.462 1.34388 -3.4108 0
M  V30 4976 H 465.11 3.81631 -3.27669 0
M  V30 4977 H 464.81 3.20705 -4.92364 0
M  V30 4978 H 466.334 4.0643 -4.55683 0
M  V30 4979 H 467.748 1.95144 -5.39065 0
M  V30 4980 H 466.145 1.31152 -5.85593 0
M  V30 4981 H 467.215 0.331071 -4.83768 0
M  V30 4982 N 468.558 1.5553 0.254621 0
M  V30 4983 C 469.804 1.77262 0.985193 0
M  V30 4984 C 470.137 0.582286 1.85265 0
M  V30 4985 O 469.412 -0.419666 1.89919 0
M  V30 4986 C 469.695 3.0881 1.85225 0
M  V30 4987 C 469.548 4.38233 1.0135 0
M  V30 4988 C 470.867 3.3653 2.83612 0
M  V30 4989 H 467.986 0.644906 0.356742 0
M  V30 4990 H 470.628 1.88264 0.256236 0
M  V30 4991 H 468.778 2.99562 2.47376 0
M  V30 4992 H 470.45 4.59463 0.411269 0
M  V30 4993 H 468.693 4.32636 0.317574 0
M  V30 4994 H 469.364 5.26644 1.65379 0
M  V30 4995 H 471.84 3.45691 2.31596 0
M  V30 4996 H 470.716 4.29805 3.41407 0
M  V30 4997 H 470.977 2.57064 3.59681 0
M  V30 4998 N 470.036 -0.519951 1.48776 0
M  V30 4999 C 471.266 -1.29783 1.60748 0
M  V30 5000 C 471.674 -1.87253 0.27072 0
M  V30 5001 O 471.017 -1.67628 -0.751438 0
M  V30 5002 C 471.079 -2.47984 2.60277 0
M  V30 5003 C 470.743 -2.11526 4.051 0
M  V30 5004 C 471.74 -1.66608 4.92481 0
M  V30 5005 C 469.425 -2.21742 4.50706 0
M  V30 5006 C 471.419 -1.32384 6.23501 0
M  V30 5007 C 469.106 -1.87129 5.81744 0
M  V30 5008 C 470.104 -1.42523 6.67964 0
M  V30 5009 O 469.792 -1.0837 7.96562 0
M  V30 5010 H 469.524 -0.400562 0.544542 0
M  V30 5011 H 472.078 -0.632879 1.95407 0
M  V30 5012 H 470.308 -3.17493 2.2076 0
M  V30 5013 H 471.997 -3.10036 2.61978 0
M  V30 5014 H 472.763 -1.58178 4.58481 0
M  V30 5015 H 468.642 -2.55415 3.83776 0
M  V30 5016 H 472.186 -0.974949 6.90754 0
M  V30 5017 H 468.083 -1.95204 6.15277 0
M  V30 5018 H 468.851 -1.21681 8.09405 0
M  V30 5019 N 471.514 -1.37532 -0.769588 0
M  V30 5020 C 472.76 -1.33057 -1.53048 0
M  V30 5021 C 473.093 0.0841865 -1.94017 0
M  V30 5022 O 472.368 1.04198 -1.64235 0
M  V30 5023 C 472.651 -2.27166 -2.79406 0
M  V30 5024 C 472.504 -3.77429 -2.44677 0
M  V30 5025 C 473.823 -2.19683 -3.81349 0
M  V30 5026 H 470.942 -0.484655 -0.555228 0
M  V30 5027 H 473.584 -1.68251 -0.882702 0
M  V30 5028 H 471.734 -1.97283 -3.34682 0
M  V30 5029 H 473.406 -4.17918 -1.953 0
M  V30 5030 H 471.649 -3.95892 -1.77346 0
M  V30 5031 H 472.32 -4.38716 -3.35011 0
M  V30 5032 H 474.796 -2.46029 -3.35573 0
M  V30 5033 H 473.672 -2.87668 -4.67481 0
M  V30 5034 H 473.933 -1.19045 -4.25771 0
M  V30 5035 N 472.992 0.995999 -1.22138 0
M  V30 5036 C 473.902 2.11985 -1.00496 0
M  V30 5037 C 474.918 1.7394 0.0457701 0
M  V30 5038 O 476.094 2.00868 -0.146273 0
M  V30 5039 C 473.159 3.41779 -0.582086 0
M  V30 5040 C 472.22 3.93943 -1.70608 0
M  V30 5041 C 471.453 5.17542 -1.30328 0
M  V30 5042 O 471.676 5.70114 -0.180743 0
M  V30 5043 O 470.61 5.63382 -2.11861 0
M  V30 5044 H 474.436 2.33123 -1.94647 0
M  V30 5045 H 472.021 1.10358 -1.00705 0
M  V30 5046 H 473.903 4.1989 -0.356467 0
M  V30 5047 H 472.578 3.22007 0.330592 0
M  V30 5048 H 471.485 3.17019 -1.98619 0
M  V30 5049 H 472.818 4.18141 -2.59651 0
M  V30 5050 N 474.47 1.03057 1.19235 0
M  V30 5051 C 475.747 0.642608 1.84743 0
M  V30 5052 C 476.127 -0.878577 1.91948 0
M  V30 5053 O 475.475 -1.77597 1.43776 0
M  V30 5054 C 475.685 1.30665 3.23616 0
M  V30 5055 C 477.033 1.43098 3.9976 0
M  V30 5056 O 478.057 1.26396 3.3302 0
M  V30 5057 O 476.916 1.70223 5.19313 0
M  V30 5058 H 474.01 0.223573 0.796206 0
M  V30 5059 H 476.556 1.12883 1.26711 0
M  V30 5060 H 475.328 2.34544 3.13217 0
M  V30 5061 H 474.951 0.808405 3.89295 0
M  V30 5062 N 475.948 -1.35272 0.808662 0
M  V30 5063 C 477.359 -1.81179 0.450688 0
M  V30 5064 C 477.71 -1.67143 -1.02751 0
M  V30 5065 O 476.835 -1.20325 -1.79864 0
M  V30 5066 C 477.43 -3.28943 0.811275 0
M  V30 5067 C 475.989 -3.72985 0.505871 0
M  V30 5068 C 475.136 -2.57229 1.03578 0
M  V30 5069 H 478.087 -1.2322 1.00012 0
M  V30 5070 H 478.108 -3.80342 0.109588 0
M  V30 5071 H 477.62 -3.39127 1.88718 0
M  V30 5072 H 475.721 -3.68349 -0.561209 0
M  V30 5073 H 475.834 -4.67677 1.03995 0
M  V30 5074 H 474.198 -2.50548 0.458005 0
M  V30 5075 H 474.981 -2.7019 2.11784 0
M  V30 5076 N 477.426 -0.562348 -1.47226 0
M  V30 5077 C 478.389 0.172056 -2.28553 0
M  V30 5078 C 479.389 0.837928 -1.37242 0
M  V30 5079 O 480.579 0.693001 -1.59822 0
M  V30 5080 C 477.711 1.25223 -3.17068 0
M  V30 5081 H 478.904 -0.542401 -2.94954 0
M  V30 5082 H 476.457 -0.319493 -1.53 0
M  V30 5083 H 477.192 1.99892 -2.55369 0
M  V30 5084 H 476.977 0.779515 -3.84273 0
M  V30 5085 H 478.467 1.76791 -3.78332 0
M  V30 5086 N 478.904 1.54736 -0.299062 0
M  V30 5087 C 480.152 1.99706 0.31017 0
M  V30 5088 C 480.473 1.18896 1.54559 0
M  V30 5089 O 479.743 0.284445 1.93824 0
M  V30 5090 H 478.323 0.737686 0.117596 0
M  V30 5091 H 480.985 1.9054 -0.409943 0
M  V30 5092 H 480.081 3.06596 0.58355 0
M  V30 5093 N 480.382 0.0267497 1.57577 0
M  V30 5094 C 481.332 -0.965003 2.06571 0
M  V30 5095 C 482.316 -1.28694 0.965746 0
M  V30 5096 O 483.508 -1.27345 1.22932 0
M  V30 5097 C 480.637 -2.24821 2.59443 0
M  V30 5098 C 479.723 -1.95474 3.76365 0
M  V30 5099 N 480.114 -1.36387 4.87065 0
M  V30 5100 C 478.412 -2.25478 3.84806 0
M  V30 5101 C 479.113 -1.24119 5.68304 0
M  V30 5102 N 478.089 -1.7359 5.15138 0
M  V30 5103 H 481.891 -0.503095 2.89562 0
M  V30 5104 H 479.405 -0.178322 1.61418 0
M  V30 5105 H 481.402 -2.9674 2.92833 0
M  V30 5106 H 480.062 -2.7164 1.77881 0
M  V30 5107 H 481.073 -1.03919 5.07367 0
M  V30 5108 H 477.75 -2.74987 3.14147 0
M  V30 5109 H 479.14 -0.784504 6.67304 0
M  V30 5110 N 481.861 -1.55662 -0.24637 0
M  V30 5111 C 482.793 -1.86811 -1.32794 0
M  V30 5112 C 483.806 -0.754413 -1.44265 0
M  V30 5113 O 484.995 -1.03253 -1.45606 0
M  V30 5114 C 482.095 -2.0397 -2.70646 0
M  V30 5115 C 481.268 -3.34832 -2.81436 0
M  V30 5116 C 480.327 -3.41727 -4.00136 0
M  V30 5117 O 479.353 -4.14934 -3.89639 0
M  V30 5118 N 480.555 -2.71058 -5.1333 0
M  V30 5119 H 483.32 -2.80174 -1.06409 0
M  V30 5120 H 480.881 -1.55906 -0.43647 0
M  V30 5121 H 482.873 -2.05924 -3.48393 0
M  V30 5122 H 481.443 -1.1735 -2.89738 0
M  V30 5123 H 480.663 -3.4519 -1.90361 0
M  V30 5124 H 481.951 -4.21085 -2.85595 0
M  V30 5125 H 481.349 -2.11314 -5.2475 0
M  V30 5126 H 479.906 -2.78704 -5.89209 0
M  V30 5127 N 483.339 0.512053 -1.4905 0
M  V30 5128 C 484.249 1.64139 -1.67617 0
M  V30 5129 C 485.265 1.64786 -0.558701 0
M  V30 5130 O 486.441 1.8341 -0.832034 0
M  V30 5131 C 483.506 3.00548 -1.72835 0
M  V30 5132 C 482.567 3.10615 -2.96339 0
M  V30 5133 C 481.8 4.40517 -3.01298 0
M  V30 5134 O 482.023 5.28671 -2.14157 0
M  V30 5135 O 480.957 4.55325 -3.93653 0
M  V30 5136 H 484.783 1.51407 -2.63267 0
M  V30 5137 H 482.368 0.687131 -1.32661 0
M  V30 5138 H 484.25 3.81641 -1.78683 0
M  V30 5139 H 482.925 3.13566 -0.803616 0
M  V30 5140 H 481.832 2.2875 -2.96014 0
M  V30 5141 H 483.165 3.0252 -3.88256 0
M  V30 5142 N 484.817 1.37938 0.762283 0
M  V30 5143 C 485.727 1.36681 1.90671 0
M  V30 5144 C 486.743 0.265078 1.71969 0
M  V30 5145 O 487.919 0.502055 1.95042 0
M  V30 5146 C 484.984 1.18211 3.25925 0
M  V30 5147 C 484.045 2.3811 3.57214 0
M  V30 5148 C 483.278 2.20512 4.86014 0
M  V30 5149 O 483.501 1.19429 5.57757 0
M  V30 5150 O 482.435 3.08911 5.16583 0
M  V30 5151 H 486.261 2.33091 1.94685 0
M  V30 5152 H 483.846 1.18767 0.906356 0
M  V30 5153 H 485.728 1.09937 4.06807 0
M  V30 5154 H 484.403 0.248807 3.22742 0
M  V30 5155 H 483.31 2.51958 2.76529 0
M  V30 5156 H 484.643 3.30041 3.65149 0
M  V30 5157 N 486.295 -0.989507 1.22664 0
M  V30 5158 C 487.258 -2.06183 1.00106 0
M  V30 5159 C 488.258 -1.60765 -0.0337726 0
M  V30 5160 O 489.448 -1.72989 0.205072 0
M  V30 5161 C 486.58 -3.37021 0.51279 0
M  V30 5162 H 487.773 -2.27629 1.95256 0
M  V30 5163 H 485.326 -1.16158 1.0458 0
M  V30 5164 H 486.061 -3.21261 -0.442917 0
M  V30 5165 H 485.846 -3.71323 1.25942 0
M  V30 5166 H 487.336 -4.1591 0.375315 0
M  V30 5167 N 487.773 -1.03688 -1.18687 0
M  V30 5168 C 488.72 -0.624624 -2.22187 0
M  V30 5169 C 489.69 0.365636 -1.62026 0
M  V30 5170 O 490.875 0.260481 -1.89014 0
M  V30 5171 C 488.015 0.0101738 -3.45099 0
M  V30 5172 C 487.128 -1.02709 -4.19613 0
M  V30 5173 C 486.263 -0.361213 -5.2997 0
M  V30 5174 C 485.302 -1.38384 -5.96252 0
M  V30 5175 N 484.439 -0.743196 -6.98155 0
M  V30 5176 H 489.279 -1.51176 -2.56807 0
M  V30 5177 H 486.816 -0.75636 -1.26165 0
M  V30 5178 H 488.774 0.395528 -4.15321 0
M  V30 5179 H 487.404 0.860848 -3.1111 0
M  V30 5180 H 486.456 -1.53043 -3.48256 0
M  V30 5181 H 487.768 -1.80398 -4.65036 0
M  V30 5182 H 486.922 0.0785537 -6.06649 0
M  V30 5183 H 485.661 0.447799 -4.8564 0
M  V30 5184 H 484.666 -1.83378 -5.18317 0
M  V30 5185 H 485.891 -2.19448 -6.42666 0
M  V30 5186 H 483.837 0.0455789 -6.55984 0
M  V30 5187 H 483.754 -1.45784 -7.41811 0
M  V30 5188 H 485.022 -0.327698 -7.78811 0
M  V30 5189 N 489.251 1.34841 -0.815825 0
M  V30 5190 C 490.497 1.98793 -0.401129 0
M  V30 5191 C 490.83 1.64548 1.03139 0
M  V30 5192 O 490.105 0.913487 1.71714 0
M  V30 5193 C 490.388 3.55143 -0.595409 0
M  V30 5194 C 490.241 3.99155 -2.07352 0
M  V30 5195 C 491.56 4.40092 -0.0268823 0
M  V30 5196 H 488.679 0.722146 -0.14722 0
M  V30 5197 H 491.321 1.59847 -1.02707 0
M  V30 5198 H 489.471 3.8845 -0.0625779 0
M  V30 5199 H 491.143 3.76216 -2.66945 0
M  V30 5200 H 489.386 3.49726 -2.56659 0
M  V30 5201 H 490.057 5.07971 -2.1603 0
M  V30 5202 H 492.533 4.13298 -0.482042 0
M  V30 5203 H 491.409 5.48562 -0.19267 0
M  V30 5204 H 491.67 4.29016 1.06759 0
M  V30 5205 N 490.729 0.570148 1.46925 0
M  V30 5206 C 491.957 0.0561966 2.06824 0
M  V30 5207 C 492.372 -1.24326 1.42086 0
M  V30 5208 O 491.729 -1.74882 0.521794 0
M  V30 5209 C 491.78 -0.129517 3.61268 0
M  V30 5210 O 491.501 1.1185 4.23581 0
M  V30 5211 C 493.002 -0.679266 4.38065 0
M  V30 5212 H 490.222 0.0517261 0.669003 0
M  V30 5213 H 492.766 0.787243 1.8874 0
M  V30 5214 H 490.921 -0.810739 3.78822 0
M  V30 5215 H 491.335 0.924375 5.1629 0
M  V30 5216 H 492.809 -0.758445 5.46765 0
M  V30 5217 H 493.286 -1.69346 4.05239 0
M  V30 5218 H 493.892 -0.0333237 4.25287 0
M  V30 5219 N 492.207 -1.54576 0.307264 0
M  V30 5220 C 493.17 -2.22423 -0.553224 0
M  V30 5221 C 494.17 -1.21231 -1.05639 0
M  V30 5222 O 495.36 -1.45923 -0.951419 0
M  V30 5223 C 492.492 -2.91552 -1.76664 0
M  V30 5224 H 493.685 -2.99874 0.0396484 0
M  V30 5225 H 491.238 -1.56192 0.0581629 0
M  V30 5226 H 491.973 -2.18196 -2.39918 0
M  V30 5227 H 491.758 -3.65738 -1.41343 0
M  V30 5228 H 493.248 -3.43292 -2.37783 0
M  V30 5229 N 493.685 -0.035106 -1.57561 0
M  V30 5230 C 494.633 0.962707 -2.11742 0
M  V30 5231 C 495.627 1.33296 -1.0454 0
M  V30 5232 O 496.833 1.31449 -1.22968 0
M  V30 5233 H 493.208 0.32826 -0.676572 0
M  V30 5234 H 495.179 0.48048 -2.94506 0
M  V30 5235 C 493.928 2.23388 -2.66445 0
M  V30 5236 H 493.251 1.95774 -3.48587 0
M  V30 5237 H 494.691 2.91402 -3.07995 0
M  V30 5238 C 493.15 2.96769 -1.59467 0
M  V30 5239 O 493.68 3.89105 -0.998 0
M  V30 5240 N 491.886 2.59212 -1.31369 0
M  V30 5241 H 491.433 1.84202 -1.80076 0
M  V30 5242 H 491.391 3.08618 -0.600173 0
M  V30 5243 N 495.163 1.55791 0.238111 0
M  V30 5244 C 496.111 1.91885 1.31464 0
M  V30 5245 C 497.105 0.798929 1.49377 0
M  V30 5246 O 498.311 0.983626 1.50747 0
M  V30 5247 H 494.686 0.609551 0.440399 0
M  V30 5248 H 496.657 2.81747 0.982925 0
M  V30 5249 C 495.406 2.23763 2.6613 0
M  V30 5250 H 494.729 3.09444 2.53149 0
M  V30 5251 H 496.169 2.52915 3.40309 0
M  V30 5252 C 494.628 1.05699 3.1989 0
M  V30 5253 O 495.158 0.309524 4.00506 0
M  V30 5254 N 493.364 0.845251 2.78036 0
M  V30 5255 H 492.911 1.4548 2.12588 0
M  V30 5256 H 492.869 0.0569973 3.14348 0
M  V30 5257 N 496.642 -0.504142 1.49319 0
M  V30 5258 C 497.919 -1.26548 1.49147 0
M  V30 5259 C 498.299 -2.09977 0.21744 0
M  V30 5260 O 497.647 -2.14028 -0.800269 0
M  V30 5261 C 497.857 -2.12489 2.76857 0
M  V30 5262 C 499.205 -2.7178 3.26222 0
M  V30 5263 O 500.229 -2.22758 2.77952 0
M  V30 5264 O 499.088 -3.61015 4.10281 0
M  V30 5265 H 496.182 -0.572495 0.596806 0
M  V30 5266 H 498.728 -0.51867 1.61579 0
M  V30 5267 H 497.5 -1.50796 3.61077 0
M  V30 5268 H 497.123 -2.94368 2.6727 0
M  V30 5269 N 498.12 -1.38341 -0.754957 0
M  V30 5270 C 499.067 -1.3546 -1.86867 0
M  V30 5271 C 500.037 -0.217369 -1.64672 0
M  V30 5272 O 501.222 -0.409383 -1.86356 0
M  V30 5273 C 498.362 -1.18413 -3.24149 0
M  V30 5274 C 497.475 -2.41511 -3.58185 0
M  V30 5275 C 496.61 -2.17205 -4.84763 0
M  V30 5276 C 495.649 -3.36081 -5.11582 0
M  V30 5277 N 494.786 -3.11219 -6.29354 0
M  V30 5278 H 499.626 -2.30672 -1.88664 0
M  V30 5279 H 497.163 -1.14607 -0.922154 0
M  V30 5280 H 499.121 -1.06545 -4.03366 0
M  V30 5281 H 497.751 -0.268397 -3.21682 0
M  V30 5282 H 496.803 -2.64056 -2.73822 0
M  V30 5283 H 498.115 -3.30115 -3.73932 0
M  V30 5284 H 497.269 -2.02465 -5.7192 0
M  V30 5285 H 496.008 -1.25964 -4.71152 0
M  V30 5286 H 495.013 -3.51341 -4.22894 0
M  V30 5287 H 496.238 -4.28196 -5.27091 0
M  V30 5288 H 494.184 -2.22624 -6.17069 0
M  V30 5289 H 494.101 -3.93373 -6.45596 0
M  V30 5290 H 495.369 -3.00132 -7.19403 0
M  V30 5291 N 499.598 0.982988 -1.23187 0
M  V30 5292 C 500.546 2.09616 -1.00817 0
M  V30 5293 C 501.54 1.6932 0.0519995 0
M  V30 5294 O 502.746 1.79715 -0.101284 0
M  V30 5295 H 499.121 0.685628 -0.308899 0
M  V30 5296 H 501.092 2.25652 -1.95253 0
M  V30 5297 C 499.841 3.42249 -0.613243 0
M  V30 5298 H 499.164 3.73705 -1.42073 0
M  V30 5299 H 500.604 4.21086 -0.496208 0
M  V30 5300 C 499.063 3.30002 0.678233 0
M  V30 5301 O 499.593 3.6263 1.72807 0
M  V30 5302 N 497.799 2.83164 0.653165 0
M  V30 5303 H 497.346 2.56811 -0.201492 0
M  V30 5304 H 497.304 2.75352 1.51752 0
M  V30 5305 N 501.076 1.04316 1.18135 0
M  V30 5306 C 502.492 0.762858 1.40188 0
M  V30 5307 C 502.692 -0.646547 1.90846 0
M  V30 5308 O 501.748 -1.41036 2.0944 0
M  V30 5309 C 503.061 1.81106 2.40044 0
M  V30 5310 C 504.609 1.83226 2.53766 0
M  V30 5311 C 505.084 2.87044 3.56889 0
M  V30 5312 N 506.575 2.85951 3.64398 0
M  V30 5313 C 507.31 3.62932 4.43923 0
M  V30 5314 N 506.806 4.49672 5.27036 0
M  V30 5315 N 508.599 3.51411 4.38711 0
M  V30 5316 H 500.75 1.95264 0.835805 0
M  V30 5317 H 503.013 0.845017 0.429709 0
M  V30 5318 H 502.719 2.82214 2.09876 0
M  V30 5319 H 502.593 1.64529 3.39426 0
M  V30 5320 H 504.98 0.827869 2.8325 0
M  V30 5321 H 505.061 2.03879 1.54489 0
M  V30 5322 H 504.705 3.87663 3.28145 0
M  V30 5323 H 504.635 2.63645 4.5585 0
M  V30 5324 H 507.126 2.23051 3.05052 0
M  V30 5325 H 507.439 5.05116 5.84874 0
M  V30 5326 H 505.784 4.53738 5.26447 0
M  V30 5327 H 508.975 2.83047 3.72829 0
M  V30 5328 H 509.148 4.11654 5.00445 0
M  V30 5329 N 502.554 -1.34406 0.822964 0
M  V30 5330 C 503.782 -2.02508 0.424039 0
M  V30 5331 C 504.197 -1.61975 -0.970022 0
M  V30 5332 O 503.554 -0.825228 -1.62777 0
M  V30 5333 C 503.605 -3.57789 0.516657 0
M  V30 5334 O 503.326 -3.96853 1.85577 0
M  V30 5335 C 504.827 -4.43157 0.112637 0
M  V30 5336 H 502.047 -0.649063 0.170173 0
M  V30 5337 H 504.591 -1.7168 1.11113 0
M  V30 5338 H 502.746 -3.87207 -0.122353 0
M  V30 5339 H 503.16 -4.91538 1.83005 0
M  V30 5340 H 504.634 -5.51527 0.228526 0
M  V30 5341 H 505.111 -4.28939 -0.943837 0
M  V30 5342 H 505.717 -4.19067 0.725449 0
M  V30 5343 N 504.032 -0.577932 -1.46621 0
M  V30 5344 C 505.279 -0.0616879 -2.02406 0
M  V30 5345 C 505.607 1.29638 -1.44997 0
M  V30 5346 O 504.862 1.86176 -0.60308 0
M  V30 5347 C 505.161 0.0590832 -3.57351 0
M  V30 5348 C 504.827 -1.23077 -4.33777 0
M  V30 5349 C 503.489 -1.58416 -4.54376 0
M  V30 5350 C 505.841 -2.08457 -4.77698 0
M  V30 5351 C 503.169 -2.78943 -5.16147 0
M  V30 5352 C 505.521 -3.28204 -5.408 0
M  V30 5353 C 504.185 -3.63832 -5.59627 0
M  V30 5354 H 503.455 -0.0225732 -0.740656 0
M  V30 5355 H 506.102 -0.753609 -1.76048 0
M  V30 5356 H 504.407 0.834104 -3.82818 0
M  V30 5357 H 506.104 0.474202 -3.98186 0
M  V30 5358 H 502.694 -0.945652 -4.18038 0
M  V30 5359 H 506.878 -1.82459 -4.61544 0
M  V30 5360 H 502.134 -3.06689 -5.28916 0
M  V30 5361 H 506.308 -3.94634 -5.73792 0
M  V30 5362 H 503.935 -4.57315 -6.07262 0
M  V30 5363 N 505.51 1.54411 -0.315457 0
M  V30 5364 C 506.735 2.05299 0.294496 0
M  V30 5365 C 507.16 1.19052 1.4563 0
M  V30 5366 O 506.518 0.197804 1.80218 0
M  V30 5367 C 506.566 3.5345 0.714549 0
M  V30 5368 O 505.67 3.70175 1.81781 0
M  V30 5369 H 505.011 0.661743 0.0547019 0
M  V30 5370 H 507.541 1.99327 -0.461508 0
M  V30 5371 H 507.551 3.9557 0.999426 0
M  V30 5372 H 506.226 4.1568 -0.135244 0
M  V30 5373 H 504.803 3.3996 1.53236 0
M  V30 5374 N 506.988 0.0434614 1.5754 0
M  V30 5375 C 508.234 -0.632971 1.92669 0
M  V30 5376 C 508.567 -1.70947 0.921446 0
M  V30 5377 O 507.842 -1.94426 -0.0537202 0
M  V30 5378 C 508.125 -1.23619 3.38216 0
M  V30 5379 C 507.978 -0.168274 4.49485 0
M  V30 5380 C 509.297 -2.15008 3.84005 0
M  V30 5381 H 506.416 -0.228629 0.700641 0
M  V30 5382 H 509.058 0.103651 1.89717 0
M  V30 5383 H 507.208 -1.864 3.40863 0
M  V30 5384 H 508.88 0.463196 4.58969 0
M  V30 5385 H 507.123 0.504581 4.30855 0
M  V30 5386 H 507.794 -0.630218 5.48391 0
M  V30 5387 H 510.27 -1.62198 3.83185 0
M  V30 5388 H 509.146 -2.54161 4.86511 0
M  V30 5389 H 509.407 -3.04707 3.20322 0
M  V30 5390 N 508.466 -1.55915 -0.229846 0
M  V30 5391 C 509.712 -1.79718 -0.952517 0
M  V30 5392 C 510.067 -0.61514 -1.82301 0
M  V30 5393 O 509.36 0.391098 -1.87566 0
M  V30 5394 C 509.554 -3.06845 -1.8325 0
M  V30 5395 C 509.383 -4.37302 -1.04868 0
M  V30 5396 C 508.153 -4.99749 -0.746932 0
M  V30 5397 C 510.351 -5.12599 -0.417989 0
M  V30 5398 N 508.333 -6.13871 0.0591596 0
M  V30 5399 C 509.704 -6.19488 0.251879 0
M  V30 5400 C 511.759 -4.96804 -0.33018 0
M  V30 5401 C 510.462 -7.12299 1.00115 0
M  V30 5402 C 512.488 -5.90007 0.4056 0
M  V30 5403 C 511.85 -6.96317 1.06404 0
M  V30 5404 H 507.949 -0.709382 -0.329091 0
M  V30 5405 H 510.533 -1.93406 -0.224114 0
M  V30 5406 H 508.704 -2.94456 -2.53279 0
M  V30 5407 H 510.436 -3.18874 -2.49202 0
M  V30 5408 H 507.191 -4.61518 -1.06292 0
M  V30 5409 H 507.615 -6.75497 0.450798 0
M  V30 5410 H 512.257 -4.14675 -0.824898 0
M  V30 5411 H 509.975 -7.93916 1.50741 0
M  V30 5412 H 513.561 -5.79862 0.474436 0
M  V30 5413 H 512.441 -7.67194 1.62429 0
M  V30 5414 N 509.944 0.496216 -1.49584 0
M  V30 5415 C 511.174 1.27209 -1.62793 0
M  V30 5416 C 511.582 1.86799 -0.300476 0
M  V30 5417 O 510.925 1.68802 0.724674 0
M  V30 5418 C 510.987 2.43812 -2.64189 0
M  V30 5419 C 510.651 2.05055 -4.08414 0
M  V30 5420 C 511.648 1.58752 -4.9507 0
M  V30 5421 C 509.333 2.14543 -4.54177 0
M  V30 5422 C 511.327 1.22448 -6.25528 0
M  V30 5423 C 509.014 1.77851 -5.84647 0
M  V30 5424 C 510.012 1.31878 -6.70147 0
M  V30 5425 O 509.7 0.956834 -7.98185 0
M  V30 5426 H 509.432 0.391848 -0.550846 0
M  V30 5427 H 511.986 0.601712 -1.96389 0
M  V30 5428 H 510.216 3.13941 -2.25783 0
M  V30 5429 H 511.905 3.05829 -2.66877 0
M  V30 5430 H 512.671 1.50863 -4.60939 0
M  V30 5431 H 508.55 2.49277 -3.87791 0
M  V30 5432 H 512.094 0.864933 -6.92217 0
M  V30 5433 H 507.991 1.8539 -6.18305 0
M  V30 5434 H 508.759 1.08789 -8.11238 0
M  V30 5435 N 511.423 1.38739 0.74761 0
M  V30 5436 C 512.669 1.35475 1.50912 0
M  V30 5437 C 513.002 -0.0533093 1.94127 0
M  V30 5438 O 512.277 -1.01572 1.65871 0
M  V30 5439 C 512.56 2.31582 2.75757 0
M  V30 5440 C 512.413 3.81274 2.38642 0
M  V30 5441 C 513.732 2.25722 3.77806 0
M  V30 5442 H 510.851 0.493427 0.547447 0
M  V30 5443 H 513.493 1.69634 0.855823 0
M  V30 5444 H 511.643 2.02582 3.31501 0
M  V30 5445 H 513.315 4.20972 1.88626 0
M  V30 5446 H 511.558 3.98664 1.71025 0
M  V30 5447 H 512.229 4.4399 3.27989 0
M  V30 5448 H 514.705 2.51336 3.31616 0
M  V30 5449 H 513.581 2.95069 4.62845 0
M  V30 5450 H 513.842 1.25803 4.23823 0
M  V30 5451 N 512.901 -0.976442 1.23707 0
M  V30 5452 C 514.312 -1.53284 1.06587 0
M  V30 5453 C 514.663 -1.92765 -0.365526 0
M  V30 5454 O 513.788 -1.7645 -1.25277 0
M  V30 5455 C 514.383 -2.78548 1.92864 0
M  V30 5456 C 512.942 -3.30574 1.79994 0
M  V30 5457 C 512.089 -2.03538 1.88328 0
M  V30 5458 H 515.04 -0.795692 1.37311 0
M  V30 5459 H 515.061 -3.5155 1.45577 0
M  V30 5460 H 514.573 -2.49782 2.97037 0
M  V30 5461 H 512.674 -3.64211 0.786202 0
M  V30 5462 H 512.787 -4.00065 2.636 0
M  V30 5463 H 511.151 -2.17853 1.31954 0
M  V30 5464 H 511.934 -1.77149 2.94063 0
M  V30 5465 N 514.379 -1.04941 -1.1758 0
M  V30 5466 C 515.289 -0.658826 -2.25159 0
M  V30 5467 C 516.305 0.318941 -1.71052 0
M  V30 5468 O 517.481 0.171669 -2.00667 0
M  V30 5469 C 514.546 -0.0369522 -3.4668 0
M  V30 5470 C 513.607 -1.06484 -4.15884 0
M  V30 5471 C 512.84 -0.472551 -5.31604 0
M  V30 5472 O 513.063 0.718736 -5.65854 0
M  V30 5473 O 511.997 -1.20557 -5.89703 0
M  V30 5474 H 515.823 -1.55533 -2.60851 0
M  V30 5475 H 513.408 -0.820819 -1.24832 0
M  V30 5476 H 515.29 0.308784 -4.20267 0
M  V30 5477 H 513.965 0.833238 -3.12792 0
M  V30 5478 H 512.872 -1.46253 -3.44327 0
M  V30 5479 H 514.205 -1.9061 -4.53794 0
M  V30 5480 N 515.857 1.33968 -0.830081 0
M  V30 5481 C 517.103 1.98357 -0.422191 0
M  V30 5482 C 517.436 1.65633 1.01387 0
M  V30 5483 O 516.711 0.931648 1.70735 0
M  V30 5484 C 516.994 3.54492 -0.633043 0
M  V30 5485 C 516.847 3.96934 -2.11574 0
M  V30 5486 C 518.166 4.40039 -0.0735584 0
M  V30 5487 H 515.285 0.720544 -0.154871 0
M  V30 5488 H 517.927 1.58749 -1.04397 0
M  V30 5489 H 516.077 3.88361 -0.103775 0
M  V30 5490 H 517.749 3.73363 -2.7092 0
M  V30 5491 H 515.992 3.46984 -2.60354 0
M  V30 5492 H 516.663 5.05651 -2.21406 0
M  V30 5493 H 519.139 4.12764 -0.52585 0
M  V30 5494 H 518.015 5.48327 -0.250841 0
M  V30 5495 H 518.276 4.30124 1.02202 0
M  V30 5496 N 517.335 0.585699 1.46312 0
M  V30 5497 C 518.563 0.0781299 2.06752 0
M  V30 5498 C 518.978 -1.22812 1.43396 0
M  V30 5499 O 518.335 -1.74318 0.540314 0
M  V30 5500 C 518.386 -0.0911927 3.61385 0
M  V30 5501 O 518.107 1.16336 4.22371 0
M  V30 5502 C 519.608 -0.632765 4.38761 0
M  V30 5503 H 516.828 0.0588188 0.668417 0
M  V30 5504 H 519.372 0.807218 1.87894 0
M  V30 5505 H 517.527 -0.770514 3.7966 0
M  V30 5506 H 517.941 0.979082 5.15281 0
M  V30 5507 H 519.415 -0.70041 5.47538 0
M  V30 5508 H 519.892 -1.65039 4.07012 0
M  V30 5509 H 520.498 0.0117856 4.25298 0
M  V30 5510 N 518.813 -1.54241 0.323641 0
M  V30 5511 C 520.061 -2.00174 -0.278359 0
M  V30 5512 C 520.382 -1.2134 -1.52648 0
M  V30 5513 O 519.652 -0.315244 -1.93347 0
M  V30 5514 H 518.232 -0.739463 -0.105845 0
M  V30 5515 H 520.894 -1.89864 0.440204 0
M  V30 5516 H 519.99 -3.07486 -0.5347 0
M  V30 5517 N 520.291 -0.0518155 -1.57515 0
M  V30 5518 C 521.519 0.631395 -1.9703 0
M  V30 5519 C 521.934 1.64341 -0.92938 0
M  V30 5520 O 521.291 1.82296 0.0863266 0
M  V30 5521 C 521.342 1.31774 -3.36627 0
M  V30 5522 O 521.063 0.346247 -4.3673 0
M  V30 5523 C 522.564 2.09065 -3.90905 0
M  V30 5524 H 519.784 0.172576 -0.648428 0
M  V30 5525 H 522.328 -0.118306 -2.04158 0
M  V30 5526 H 520.483 2.01867 -3.30649 0
M  V30 5527 H 520.897 0.836226 -5.17791 0
M  V30 5528 H 522.371 2.52508 -4.9086 0
M  V30 5529 H 522.848 2.93908 -3.26366 0
M  V30 5530 H 523.454 1.43882 -4.00223 0
M  V30 5531 N 521.769 1.56035 0.221574 0
M  V30 5532 C 522.719 1.8881 1.27807 0
M  V30 5533 C 523.703 0.751177 1.42289 0
M  V30 5534 O 524.895 1.01359 1.45104 0
M  V30 5535 C 522.024 2.20828 2.6285 0
M  V30 5536 C 521.11 3.40912 2.52269 0
M  V30 5537 N 521.501 4.59531 2.1134 0
M  V30 5538 C 519.799 3.44526 2.83228 0
M  V30 5539 C 520.5 5.41689 2.1201 0
M  V30 5540 N 519.476 4.814 2.52497 0
M  V30 5541 H 523.278 2.78036 0.952529 0
M  V30 5542 H 520.792 1.566 0.430134 0
M  V30 5543 H 522.789 2.42483 3.39127 0
M  V30 5544 H 521.449 1.32914 2.9625 0
M  V30 5545 H 522.46 4.8469 1.82472 0
M  V30 5546 H 519.137 2.66956 3.21 0
M  V30 5547 H 520.527 6.46643 1.82491 0
M  V30 5548 N 523.247 -0.488276 1.49845 0
M  V30 5549 C 524.194 -1.58836 1.67451 0
M  V30 5550 C 525.164 -1.57886 0.515857 0
M  V30 5551 O 526.349 -1.75679 0.744403 0
M  V30 5552 C 523.489 -2.96915 1.75885 0
M  V30 5553 C 522.602 -3.07784 3.03138 0
M  V30 5554 C 521.737 -4.36673 3.02473 0
M  V30 5555 C 520.776 -4.41222 4.24252 0
M  V30 5556 N 519.913 -5.61557 4.21424 0
M  V30 5557 H 524.753 -1.43131 2.61376 0
M  V30 5558 H 522.29 -0.696186 1.29583 0
M  V30 5559 H 524.248 -3.76965 1.78755 0
M  V30 5560 H 522.878 -3.11295 0.85414 0
M  V30 5561 H 521.93 -2.20717 3.09819 0
M  V30 5562 H 523.242 -3.07005 3.93128 0
M  V30 5563 H 522.396 -5.25055 3.03977 0
M  V30 5564 H 521.135 -4.40037 2.10283 0
M  V30 5565 H 520.14 -3.5124 4.22978 0
M  V30 5566 H 521.365 -4.39564 5.17649 0
M  V30 5567 H 519.311 -5.65738 3.32078 0
M  V30 5568 H 519.228 -5.62447 5.05163 0
M  V30 5569 H 520.496 -6.52111 4.2705 0
M  V30 5570 N 524.725 -1.39134 -0.740242 0
M  V30 5571 C 525.971 -1.36273 -1.50192 0
M  V30 5572 C 526.304 0.0430136 -1.94152 0
M  V30 5573 O 525.579 1.00691 -1.66408 0
M  V30 5574 C 525.862 -2.33041 -2.74525 0
M  V30 5575 C 525.715 -3.82535 -2.36617 0
M  V30 5576 C 527.034 -2.27723 -3.76604 0
M  V30 5577 H 524.153 -0.496323 -0.544823 0
M  V30 5578 H 526.795 -1.70085 -0.846815 0
M  V30 5579 H 524.945 -2.04337 -3.30422 0
M  V30 5580 H 526.617 -4.21967 -1.86391 0
M  V30 5581 H 524.86 -3.99565 -1.68909 0
M  V30 5582 H 525.531 -4.45723 -3.2563 0
M  V30 5583 H 528.007 -2.53091 -3.30279 0
M  V30 5584 H 526.883 -2.97519 -4.61274 0
M  V30 5585 H 527.144 -1.28049 -4.2315 0
M  V30 5586 N 526.204 0.969867 -1.24223 0
M  V30 5587 C 527.432 1.74756 -1.10761 0
M  V30 5588 C 527.847 1.85713 0.340041 0
M  V30 5589 O 527.204 1.34389 1.23474 0
M  V30 5590 C 527.255 3.16915 -1.73917 0
M  V30 5591 O 526.976 3.06511 -3.13021 0
M  V30 5592 C 528.477 4.11032 -1.66036 0
M  V30 5593 H 525.697 0.548092 -0.387087 0
M  V30 5594 H 528.241 1.2178 -1.64286 0
M  V30 5595 H 526.396 3.66884 -1.244 0
M  V30 5596 H 526.81 3.96079 -3.43834 0
M  V30 5597 H 528.284 5.08446 -2.14911 0
M  V30 5598 H 528.761 4.34785 -0.621159 0
M  V30 5599 H 529.367 3.66972 -2.14969 0
M  V30 5600 N 527.682 1.05563 1.17022 0
M  V30 5601 C 528.928 0.769074 1.87652 0
M  V30 5602 C 529.261 -0.702326 1.81055 0
M  V30 5603 O 528.536 -1.5139 1.22112 0
M  V30 5604 C 528.819 1.25492 3.37526 0
M  V30 5605 C 528.672 2.78953 3.52853 0
M  V30 5606 C 529.991 0.856919 4.31677 0
M  V30 5607 H 527.11 0.280854 0.681388 0
M  V30 5608 H 529.752 1.31027 1.37593 0
M  V30 5609 H 527.902 0.794516 3.80289 0
M  V30 5610 H 529.574 3.33146 3.19079 0
M  V30 5611 H 527.817 3.18046 2.95007 0
M  V30 5612 H 528.488 3.08011 4.58076 0
M  V30 5613 H 530.964 1.25334 3.96775 0
M  V30 5614 H 529.84 1.22443 5.35069 0
M  V30 5615 H 530.101 -0.238787 4.41455 0
M  V30 5616 N 529.16 -1.33526 0.837174 0
M  V30 5617 C 530.09 -2.31764 0.284206 0
M  V30 5618 C 531.071 -1.58896 -0.607142 0
M  V30 5619 O 532.256 -1.86798 -0.531047 0
M  V30 5620 C 529.386 -3.43029 -0.542962 0
M  V30 5621 C 528.34 -4.27255 0.252451 0
M  V30 5622 C 527.666 -5.3012 -0.69836 0
M  V30 5623 C 528.966 -5.01229 1.46858 0
M  V30 5624 H 530.66 -2.78262 1.10502 0
M  V30 5625 H 528.206 -1.3378 0.532812 0
M  V30 5626 H 530.159 -4.1078 -0.940096 0
M  V30 5627 H 528.883 -2.95216 -1.39697 0
M  V30 5628 H 527.542 -3.61127 0.631124 0
M  V30 5629 H 527.19 -4.78564 -1.54872 0
M  V30 5630 H 526.89 -5.87353 -0.170274 0
M  V30 5631 H 528.414 -6.00737 -1.09305 0
M  V30 5632 H 529.828 -5.61756 1.14469 0
M  V30 5633 H 528.225 -5.68104 1.93333 0
M  V30 5634 H 529.295 -4.301 2.23924 0
M  V30 5635 N 530.638 -0.59345 -1.46 0
M  V30 5636 C 531.885 -0.0831523 -2.02329 0
M  V30 5637 C 532.213 1.28093 -1.46364 0
M  V30 5638 O 531.468 1.85526 -0.622793 0
M  V30 5639 C 531.767 0.021178 -3.57394 0
M  V30 5640 C 531.433 -1.27671 -4.32448 0
M  V30 5641 C 530.095 -1.63227 -4.5267 0
M  V30 5642 C 532.447 -2.13511 -4.7546 0
M  V30 5643 C 529.775 -2.84401 -5.1316 0
M  V30 5644 C 532.127 -3.33922 -5.37289 0
M  V30 5645 C 530.791 -3.69747 -5.55737 0
M  V30 5646 H 530.061 -0.0304276 -0.740375 0
M  V30 5647 H 532.708 -0.772239 -1.75239 0
M  V30 5648 H 531.013 0.793454 -3.83682 0
M  V30 5649 H 532.71 0.431942 -3.98667 0
M  V30 5650 H 529.3 -0.989937 -4.17011 0
M  V30 5651 H 533.484 -1.87344 -4.59582 0
M  V30 5652 H 528.74 -3.12282 -5.25633 0
M  V30 5653 H 532.914 -4.00698 -5.69574 0
M  V30 5654 H 530.541 -4.6373 -6.02377 0
M  V30 5655 N 532.116 1.54067 -0.331816 0
M  V30 5656 C 533.079 2.23275 0.517768 0
M  V30 5657 C 534.079 1.22897 1.03697 0
M  V30 5658 O 535.269 1.47419 0.928084 0
M  V30 5659 C 532.401 2.94326 1.72004 0
M  V30 5660 H 533.594 2.99773 -0.0873507 0
M  V30 5661 H 531.147 1.56079 -0.0830042 0
M  V30 5662 H 531.882 2.21986 2.36417 0
M  V30 5663 H 531.667 3.67941 1.35507 0
M  V30 5664 H 533.157 3.47031 2.32291 0
M  V30 5665 N 533.594 0.0601682 1.57485 0
M  V30 5666 C 534.842 -0.610386 1.92662 0
M  V30 5667 C 535.163 -1.70849 0.939981 0
M  V30 5668 O 534.433 -1.95895 -0.0137455 0
M  V30 5669 H 533.013 -0.228457 0.711208 0
M  V30 5670 H 535.675 0.115288 1.94559 0
M  V30 5671 H 534.771 -1.0432 2.94149 0
M  V30 5672 N 535.072 -1.5615 -0.213296 0
M  V30 5673 C 536.004 -1.89586 -1.28802 0
M  V30 5674 C 537.017 -0.784844 -1.42633 0
M  V30 5675 O 538.206 -1.06319 -1.43383 0
M  V30 5676 C 535.306 -2.09665 -2.66259 0
M  V30 5677 C 534.479 -3.40726 -2.7427 0
M  V30 5678 C 533.538 -3.50137 -3.92798 0
M  V30 5679 O 532.564 -4.23105 -3.8075 0
M  V30 5680 N 533.766 -2.81886 -5.07465 0
M  V30 5681 H 536.531 -2.82368 -1.00442 0
M  V30 5682 H 534.092 -1.56796 -0.403302 0
M  V30 5683 H 536.084 -2.13268 -3.43946 0
M  V30 5684 H 534.654 -1.23469 -2.87183 0
M  V30 5685 H 533.874 -3.4915 -1.82997 0
M  V30 5686 H 535.162 -4.27048 -2.76599 0
M  V30 5687 H 534.56 -2.22397 -5.2015 0
M  V30 5688 H 533.117 -2.91139 -5.83165 0
M  V30 5689 N 536.55 0.480323 -1.50102 0
M  V30 5690 C 537.5 1.57685 -1.6468 0
M  V30 5691 C 538.484 1.52878 -0.5017 0
M  V30 5692 O 539.676 1.60058 -0.755668 0
M  V30 5693 C 536.805 2.96185 -1.73578 0
M  V30 5694 C 535.891 3.0591 -2.93734 0
M  V30 5695 N 536.282 2.85471 -4.1754 0
M  V30 5696 C 534.58 3.37036 -2.92101 0
M  V30 5697 C 535.281 2.99921 -4.9842 0
M  V30 5698 N 534.257 3.29715 -4.32191 0
M  V30 5699 H 538.059 1.40568 -2.58104 0
M  V30 5700 H 535.573 0.686874 -1.47159 0
M  V30 5701 H 537.57 3.75015 -1.82124 0
M  V30 5702 H 536.23 3.14356 -0.813057 0
M  V30 5703 H 537.241 2.61235 -4.47188 0
M  V30 5704 H 533.918 3.61253 -2.09291 0
M  V30 5705 H 535.308 2.88436 -6.06839 0
M  V30 5706 N 538.028 1.39524 0.732853 0
M  V30 5707 C 539.277 1.36175 1.48792 0
M  V30 5708 C 539.59 -0.0388195 1.95561 0
M  V30 5709 O 540.796 -0.194899 2.708 0
M  V30 5710 C 539.252 2.39242 2.68871 0
M  V30 5711 C 538.86 3.85024 2.29042 0
M  V30 5712 C 540.604 2.44972 3.46683 0
M  V30 5713 C 538.511 4.79727 3.45856 0
M  V30 5714 H 537.441 0.506267 0.558757 0
M  V30 5715 H 540.092 1.65181 0.799226 0
M  V30 5716 H 538.474 2.0331 3.39825 0
M  V30 5717 H 539.648 4.30008 1.6562 0
M  V30 5718 H 537.963 3.82609 1.64316 0
M  V30 5719 H 540.56 3.12918 4.33574 0
M  V30 5720 H 540.903 1.4749 3.89297 0
M  V30 5721 H 541.436 2.79808 2.82759 0
M  V30 5722 H 538.175 5.78479 3.08289 0
M  V30 5723 H 537.695 4.39421 4.08251 0
M  V30 5724 H 539.374 4.98731 4.12161 0
M  V30 5725 N 539.506 -0.963266 1.24736 0
M  V30 5726 C 540.469 -2.04013 1.04457 0
M  V30 5727 C 541.469 -1.608 0.000335555 0
M  V30 5728 O 542.659 -1.72515 0.241719 0
M  V30 5729 C 539.791 -3.35858 0.584162 0
M  V30 5730 H 540.984 -2.23436 2.00041 0
M  V30 5731 H 538.537 -1.13914 1.07021 0
M  V30 5732 H 539.272 -3.22128 -0.374673 0
M  V30 5733 H 539.057 -3.68568 1.3379 0
M  V30 5734 H 540.547 -4.1502 0.463451 0
M  V30 5735 N 540.985 -1.06182 -1.16461 0
M  V30 5736 C 541.932 -0.671613 -2.20812 0
M  V30 5737 C 542.902 0.331186 -1.62765 0
M  V30 5738 O 544.087 0.22033 -1.89524 0
M  V30 5739 C 541.227 -0.063029 -3.45042 0
M  V30 5740 C 540.34 -1.11587 -4.1734 0
M  V30 5741 C 539.475 -0.473546 -5.29085 0
M  V30 5742 C 538.514 -1.51 -5.93182 0
M  V30 5743 N 537.651 -0.891118 -6.96422 0
M  V30 5744 H 542.491 -1.56589 -2.53542 0
M  V30 5745 H 540.028 -0.782951 -1.24532 0
M  V30 5746 H 541.986 0.307344 -4.16066 0
M  V30 5747 H 540.616 0.794663 -3.12866 0
M  V30 5748 H 539.668 -1.60396 -3.44931 0
M  V30 5749 H 540.98 -1.90221 -4.61104 0
M  V30 5750 H 540.134 -0.0501432 -6.06679 0
M  V30 5751 H 538.873 0.344687 -4.8648 0
M  V30 5752 H 537.878 -1.94331 -5.14311 0
M  V30 5753 H 539.103 -2.33031 -6.37866 0
M  V30 5754 H 537.049 -0.0935753 -6.55933 0
M  V30 5755 H 536.966 -1.61486 -7.38551 0
M  V30 5756 H 538.234 -0.492822 -7.77941 0
M  V30 5757 N 542.463 1.3308 -0.844243 0
M  V30 5758 C 543.688 2.02341 -0.455282 0
M  V30 5759 C 544.113 1.6308 0.93737 0
M  V30 5760 O 543.471 0.826118 1.61385 0
M  V30 5761 C 543.519 3.55743 -0.58988 0
M  V30 5762 O 542.623 4.1063 0.38166 0
M  V30 5763 H 541.964 0.637898 -0.184343 0
M  V30 5764 H 544.494 1.6986 -1.14056 0
M  V30 5765 H 544.504 4.05243 -0.473522 0
M  V30 5766 H 543.179 3.83662 -1.60549 0
M  V30 5767 H 541.756 3.72236 0.22241 0
M  V30 5768 N 543.941 0.601185 1.45683 0
M  V30 5769 C 545.352 0.179659 1.85834 0
M  V30 5770 C 545.703 -1.26189 1.50236 0
M  V30 5771 O 544.828 -1.95587 0.925987 0
M  V30 5772 C 545.423 0.319277 3.37292 0
M  V30 5773 C 543.982 -0.0475092 3.7637 0
M  V30 5774 C 543.129 0.646692 2.69654 0
M  V30 5775 H 546.08 0.808268 1.36575 0
M  V30 5776 H 546.101 -0.4503 3.77826 0
M  V30 5777 H 545.613 1.36855 3.6317 0
M  V30 5778 H 543.714 -1.0962 3.5611 0
M  V30 5779 H 543.827 0.34168 4.7788 0
M  V30 5780 H 542.191 0.0849971 2.54558 0
M  V30 5781 H 542.974 1.69797 2.98369 0
M  V30 5782 N 545.419 -1.53889 0.339982 0
M  V30 5783 C 546.666 -2.00855 -0.257621 0
M  V30 5784 C 546.994 -1.22788 -1.50842 0
M  V30 5785 O 546.249 -0.302567 -1.93347 0
M  V30 5786 C 546.548 -3.51968 -0.620735 0
M  V30 5787 C 546.214 -4.47741 0.532771 0
M  V30 5788 C 544.876 -4.73645 0.849339 0
M  V30 5789 C 547.228 -5.04551 1.3068 0
M  V30 5790 C 544.556 -5.53614 1.94237 0
M  V30 5791 C 546.908 -5.85713 2.39005 0
M  V30 5792 C 545.572 -6.09912 2.71225 0
M  V30 5793 H 544.842 -0.734979 -0.0942703 0
M  V30 5794 H 547.489 -1.85714 0.467159 0
M  V30 5795 H 545.794 -3.64921 -1.42618 0
M  V30 5796 H 547.491 -3.85762 -1.09495 0
M  V30 5797 H 544.081 -4.27711 0.275973 0
M  V30 5798 H 548.265 -4.84507 1.07549 0
M  V30 5799 H 543.521 -5.7059 2.19628 0
M  V30 5800 H 547.695 -6.28748 2.99415 0
M  V30 5801 H 545.322 -6.71665 3.56047 0
M  V30 5802 N 546.897 -0.0685191 -1.57451 0
M  V30 5803 C 547.807 0.914677 -2.16034 0
M  V30 5804 C 548.823 1.32938 -1.12265 0
M  V30 5805 O 549.999 1.40275 -1.44516 0
M  V30 5806 C 547.064 2.16519 -2.70777 0
M  V30 5807 C 546.125 1.80721 -3.89408 0
M  V30 5808 C 545.358 2.9981 -4.41531 0
M  V30 5809 O 545.581 4.13727 -3.92666 0
M  V30 5810 O 544.515 2.79817 -5.32903 0
M  V30 5811 H 548.341 0.446364 -3.00402 0
M  V30 5812 H 545.926 0.154367 -1.486 0
M  V30 5813 H 547.808 2.89856 -3.05878 0
M  V30 5814 H 546.483 2.62454 -1.89471 0
M  V30 5815 H 545.39 1.04646 -3.59166 0
M  V30 5816 H 546.723 1.39571 -4.71997 0
M  V30 5817 N 548.375 1.56261 0.205012 0
M  V30 5818 C 549.621 1.80306 0.9283 0
M  V30 5819 C 549.954 0.640932 1.83319 0
M  V30 5820 O 549.229 -0.359032 1.91158 0
M  V30 5821 C 549.512 3.14547 1.75306 0
M  V30 5822 C 549.365 4.41236 0.873562 0
M  V30 5823 C 550.684 3.45382 2.72762 0
M  V30 5824 H 547.803 0.655929 0.336044 0
M  V30 5825 H 550.445 1.88984 0.196211 0
M  V30 5826 H 548.595 3.0728 2.37721 0
M  V30 5827 H 550.267 4.60539 0.264887 0
M  V30 5828 H 548.51 4.33427 0.179773 0
M  V30 5829 H 549.181 5.31639 1.48541 0
M  V30 5830 H 551.657 3.52884 2.20481 0
M  V30 5831 H 550.533 4.40449 3.2756 0
M  V30 5832 H 550.794 2.68377 3.51321 0
M  V30 5833 N 549.853 -0.472356 1.50355 0
M  V30 5834 C 551.083 -1.24603 1.64796 0
M  V30 5835 C 551.491 -1.86297 0.330156 0
M  V30 5836 O 550.834 -1.69934 -0.697728 0
M  V30 5837 C 550.896 -2.39578 2.68035 0
M  V30 5838 C 550.56 -1.98531 4.11624 0
M  V30 5839 C 551.557 -1.50856 4.97532 0
M  V30 5840 C 549.242 -2.0729 4.57532 0
M  V30 5841 C 551.236 -1.12481 6.27397 0
M  V30 5842 C 548.923 -1.68527 5.87403 0
M  V30 5843 C 549.921 -1.212 6.7216 0
M  V30 5844 O 549.609 -0.829728 7.99607 0
M  V30 5845 H 549.341 -0.383035 0.55701 0
M  V30 5846 H 551.895 -0.570392 1.97321 0
M  V30 5847 H 550.125 -3.10309 2.30749 0
M  V30 5848 H 551.814 -3.01544 2.71709 0
M  V30 5849 H 552.58 -1.43511 4.63281 0
M  V30 5850 H 548.459 -2.43076 3.91708 0
M  V30 5851 H 552.003 -0.754698 6.93506 0
M  V30 5852 H 547.9 -1.7553 6.21176 0
M  V30 5853 H 548.668 -0.958689 8.12866 0
M  V30 5854 N 551.331 -1.39911 -0.725443 0
M  V30 5855 C 552.577 -1.37858 -1.48738 0
M  V30 5856 C 552.91 0.0224187 -1.94187 0
M  V30 5857 O 552.185 0.989204 -1.67466 0
M  V30 5858 C 552.468 -2.3594 -2.72038 0
M  V30 5859 C 552.321 -3.85023 -2.32546 0
M  V30 5860 C 553.64 -2.31704 -3.74167 0
M  V30 5861 H 550.759 -0.502074 -0.539528 0
M  V30 5862 H 553.401 -1.70974 -0.828728 0
M  V30 5863 H 551.551 -2.0783 -3.28236 0
M  V30 5864 H 553.223 -4.2392 -1.81905 0
M  V30 5865 H 551.466 -4.01334 -1.64661 0
M  V30 5866 H 552.137 -4.49152 -3.20884 0
M  V30 5867 H 554.613 -2.5658 -3.27576 0
M  V30 5868 H 553.489 -3.02395 -4.58092 0
M  V30 5869 H 553.75 -1.3253 -4.21768 0
M  V30 5870 N 552.809 0.956637 -1.25245 0
M  V30 5871 C 554.086 1.67716 -1.00651 0
M  V30 5872 C 554.466 2.0585 0.467866 0
M  V30 5873 O 553.814 1.77029 1.44475 0
M  V30 5874 C 554.024 2.90093 -1.94028 0
M  V30 5875 C 555.372 3.6209 -2.21756 0
M  V30 5876 O 556.396 3.00171 -1.9177 0
M  V30 5877 O 555.255 4.7358 -2.72735 0
M  V30 5878 H 552.349 0.733731 -0.381533 0
M  V30 5879 H 554.895 1.00974 -1.3639 0
M  V30 5880 H 553.667 2.58689 -2.93591 0
M  V30 5881 H 553.29 3.64566 -1.58674 0
M  V30 5882 N 554.287 1.06798 1.15896 0
M  V30 5883 C 555.234 0.683314 2.20453 0
M  V30 5884 C 556.204 -0.32255 1.62938 0
M  V30 5885 O 557.389 -0.210276 1.89638 0
M  V30 5886 C 554.529 0.0813266 3.45004 0
M  V30 5887 C 553.642 1.13799 4.16742 0
M  V30 5888 C 552.777 0.501598 5.28826 0
M  V30 5889 C 551.816 1.54144 5.92373 0
M  V30 5890 N 550.953 0.928038 6.9594 0
M  V30 5891 H 555.793 1.57932 2.52708 0
M  V30 5892 H 553.33 0.789544 1.24115 0
M  V30 5893 H 555.288 -0.285274 4.16224 0
M  V30 5894 H 553.918 -0.77806 3.13283 0
M  V30 5895 H 552.97 1.62223 3.44075 0
M  V30 5896 H 554.282 1.92664 4.60089 0
M  V30 5897 H 553.436 0.0823162 6.06644 0
M  V30 5898 H 552.175 -0.318883 4.86656 0
M  V30 5899 H 551.18 1.97056 5.13273 0
M  V30 5900 H 552.405 2.3641 6.36621 0
M  V30 5901 H 550.351 0.12836 6.55874 0
M  V30 5902 H 550.268 1.65401 7.37685 0
M  V30 5903 H 551.536 0.534071 7.77668 0
M  V30 5904 N 555.766 -1.3263 0.851289 0
M  V30 5905 C 556.991 -2.02097 0.466006 0
M  V30 5906 C 557.416 -1.63574 -0.928709 0
M  V30 5907 O 556.774 -0.834665 -1.60944 0
M  V30 5908 C 556.822 -3.55425 0.608737 0
M  V30 5909 O 555.926 -4.10827 -0.359878 0
M  V30 5910 H 555.267 -0.636911 0.187724 0
M  V30 5911 H 557.797 -1.69253 1.14955 0
M  V30 5912 H 557.807 -4.04986 0.495006 0
M  V30 5913 H 556.482 -3.82806 1.62581 0
M  V30 5914 H 555.059 -3.72349 -0.202666 0
M  V30 5915 N 557.244 -0.608902 -1.45362 0
M  V30 5916 C 558.176 0.147318 -2.28726 0
M  V30 5917 C 559.189 0.830468 -1.40025 0
M  V30 5918 O 560.378 0.695636 -1.64387 0
M  V30 5919 C 557.478 1.22968 -3.15804 0
M  V30 5920 C 556.651 0.633391 -4.3279 0
M  V30 5921 C 555.71 1.60682 -5.01067 0
M  V30 5922 O 554.736 1.13261 -5.57818 0
M  V30 5923 N 555.938 2.94123 -5.00472 0
M  V30 5924 H 558.703 -0.568014 -2.94268 0
M  V30 5925 H 556.264 -0.448479 -1.55564 0
M  V30 5926 H 558.256 1.88072 -3.58345 0
M  V30 5927 H 556.826 1.84752 -2.52162 0
M  V30 5928 H 556.046 -0.195762 -3.93714 0
M  V30 5929 H 557.334 0.215255 -5.08344 0
M  V30 5930 H 556.732 3.3525 -4.55657 0
M  V30 5931 H 555.289 3.54646 -5.46872 0
M  V30 5932 N 558.722 1.53707 -0.348139 0
M  V30 5933 C 559.97 2.00591 0.246478 0
M  V30 5934 C 560.291 1.23753 1.50699 0
M  V30 5935 O 559.561 0.345964 1.92821 0
M  V30 5936 H 558.141 0.741053 0.0940679 0
M  V30 5937 H 560.803 1.89139 -0.470354 0
M  V30 5938 H 559.899 3.08297 0.485714 0
M  V30 5939 N 560.2 0.0768682 1.57412 0
M  V30 5940 C 561.477 -0.632359 1.85096 0
M  V30 5941 C 561.857 -1.87479 0.9703 0
M  V30 5942 O 561.205 -2.28469 0.0379062 0
M  V30 5943 C 561.415 -0.965174 3.35388 0
M  V30 5944 C 562.763 -1.33648 4.03018 0
M  V30 5945 O 563.787 -1.05675 3.40164 0
M  V30 5946 O 562.646 -1.85959 5.13889 0
M  V30 5947 H 559.74 -0.314574 0.764835 0
M  V30 5948 H 562.286 0.108184 1.69355 0
M  V30 5949 H 561.058 -0.0829745 3.91212 0
M  V30 5950 H 560.681 -1.76231 3.5641 0
M  V30 5951 N 561.678 -1.56367 -0.196722 0
M  V30 5952 C 562.641 -1.93561 -1.22746 0
M  V30 5953 C 563.641 -0.816566 -1.38524 0
M  V30 5954 O 564.831 -1.084 -1.36363 0
M  V30 5955 C 561.963 -2.20823 -2.59712 0
M  V30 5956 H 563.156 -2.85774 -0.909586 0
M  V30 5957 H 560.709 -1.50032 -0.438174 0
M  V30 5958 H 561.444 -1.31243 -2.96557 0
M  V30 5959 H 561.229 -3.02368 -2.49632 0
M  V30 5960 H 562.719 -2.50608 -3.34044 0
M  V30 5961 N 563.156 0.464375 -1.50603 0
M  V30 5962 C 564.381 1.24372 -1.65971 0
M  V30 5963 C 564.806 1.84901 -0.345453 0
M  V30 5964 O 564.164 1.67596 0.691457 0
M  V30 5965 C 564.212 2.32331 -2.7578 0
M  V30 5966 O 563.316 3.37146 -2.375 0
M  V30 5967 H 562.657 0.365604 -0.554283 0
M  V30 5968 H 565.187 0.55183 -1.97018 0
M  V30 5969 H 565.197 2.77539 -2.99059 0
M  V30 5970 H 563.872 1.87648 -3.71162 0
M  V30 5971 H 562.449 2.97602 -2.24694 0
M  V30 5972 N 564.634 1.40294 0.718013 0
M  V30 5973 C 565.581 1.40367 1.8321 0
M  V30 5974 C 566.551 0.260952 1.64037 0
M  V30 5975 O 567.736 0.458648 1.85205 0
M  V30 5976 C 564.876 1.26965 3.20895 0
M  V30 5977 C 563.989 2.50922 3.51656 0
M  V30 5978 C 563.124 2.29981 4.78834 0
M  V30 5979 C 562.163 3.49527 5.02491 0
M  V30 5980 N 561.3 3.27796 6.20882 0
M  V30 5981 H 566.14 2.35593 1.82482 0
M  V30 5982 H 563.677 1.17012 0.891444 0
M  V30 5983 H 565.635 1.17202 4.00399 0
M  V30 5984 H 564.265 0.353591 3.20858 0
M  V30 5985 H 563.317 2.71223 2.66725 0
M  V30 5986 H 564.629 3.39913 3.65048 0
M  V30 5987 H 563.783 2.17558 5.66351 0
M  V30 5988 H 562.522 1.38411 4.67647 0
M  V30 5989 H 561.527 3.6243 4.1343 0
M  V30 5990 H 562.752 4.42021 5.15553 0
M  V30 5991 H 560.698 2.38906 6.1095 0
M  V30 5992 H 560.615 4.10351 6.34939 0
M  V30 5993 H 561.883 3.19101 7.11193 0
M  V30 5994 N 566.112 -0.949982 1.2575 0
M  V30 5995 C 567.358 -1.69766 1.10938 0
M  V30 5996 C 567.691 -1.91056 -0.348028 0
M  V30 5997 O 566.966 -1.48488 -1.25625 0
M  V30 5998 C 567.249 -3.07779 1.86933 0
M  V30 5999 C 567.102 -2.9387 3.4053 0
M  V30 6000 C 568.421 -4.07749 1.65616 0
M  V30 6001 H 565.54 -0.616144 0.404396 0
M  V30 6002 H 568.182 -1.10394 1.54639 0
M  V30 6003 H 566.332 -3.58462 1.4979 0
M  V30 6004 H 568.004 -2.50476 3.87375 0
M  V30 6005 H 566.247 -2.29686 3.68004 0
M  V30 6006 H 566.918 -3.91719 3.88922 0
M  V30 6007 H 569.394 -3.65994 1.97959 0
M  V30 6008 H 568.27 -5.02348 2.21218 0
M  V30 6009 H 568.531 -4.38029 0.598595 0
M  V30 6010 N 567.59 -1.07411 -1.15328 0
M  V30 6011 C 568.818 -0.818782 -1.90009 0
M  V30 6012 C 569.233 0.628072 -1.78047 0
M  V30 6013 O 568.59 1.43085 -1.13282 0
M  V30 6014 C 568.641 -1.21874 -3.40337 0
M  V30 6015 O 568.362 -2.60883 -3.51954 0
M  V30 6016 C 569.863 -0.992796 -4.3204 0
M  V30 6017 H 567.083 -0.296007 -0.60218 0
M  V30 6018 H 569.627 -1.43073 -1.46117 0
M  V30 6019 H 567.782 -0.651103 -3.81889 0
M  V30 6020 H 568.196 -2.77216 -4.45255 0
M  V30 6021 H 569.67 -1.32215 -5.35932 0
M  V30 6022 H 570.147 0.0708331 -4.39143 0
M  V30 6023 H 570.753 -1.54537 -3.9623 0
M  V30 6024 N 569.068 1.32177 -0.85831 0
M  V30 6025 C 570.031 2.27086 -0.310588 0
M  V30 6026 C 571.031 1.51751 0.531806 0
M  V30 6027 O 572.221 1.70794 0.34279 0
M  V30 6028 C 569.353 3.36266 0.560179 0
M  V30 6029 H 570.546 2.77045 -1.1483 0
M  V30 6030 H 568.099 1.42911 -0.632942 0
M  V30 6031 H 568.834 2.9158 1.41956 0
M  V30 6032 H 568.619 3.92077 -0.0428473 0
M  V30 6033 H 570.109 4.06974 0.936056 0
M  V30 6034 N 570.547 0.616602 1.45037 0
M  V30 6035 C 571.479 -0.135186 2.28801 0
M  V30 6036 C 572.492 -0.82303 1.40464 0
M  V30 6037 O 573.681 -0.686909 1.64754 0
M  V30 6038 C 570.781 -1.21292 3.16451 0
M  V30 6039 C 569.954 -0.61043 4.3312 0
M  V30 6040 C 569.013 -1.58022 5.01912 0
M  V30 6041 O 568.039 -1.10301 5.58411 0
M  V30 6042 N 569.241 -2.91464 5.02025 0
M  V30 6043 H 572.006 0.583612 2.93963 0
M  V30 6044 H 569.567 0.456723 1.55324 0
M  V30 6045 H 571.559 -1.86169 3.59337 0
M  V30 6046 H 570.129 -1.83412 2.53138 0
M  V30 6047 H 569.349 0.216638 3.93604 0
M  V30 6048 H 570.637 -0.188293 5.08451 0
M  V30 6049 H 570.035 -3.32829 4.57429 0
M  V30 6050 H 568.592 -3.51741 5.48745 0
M  V30 6051 N 572.025 -1.5352 0.356285 0
M  V30 6052 C 573.273 -2.00719 -0.235837 0
M  V30 6053 C 573.594 -1.24551 -1.5004 0
M  V30 6054 O 572.864 -0.356185 -1.92635 0
M  V30 6055 H 571.444 -0.741542 -0.0901366 0
M  V30 6056 H 574.106 -1.88887 0.480378 0
M  V30 6057 H 573.202 -3.08551 -0.469357 0
M  V30 6058 N 573.503 -0.0852151 -1.57369 0
M  V30 6059 C 574.914 0.445428 -1.81309 0
M  V30 6060 C 575.265 1.68795 -1.00013 0
M  V30 6061 O 574.39 2.15211 -0.226573 0
M  V30 6062 C 574.985 0.814887 -3.28854 0
M  V30 6063 C 573.544 1.29032 -3.53592 0
M  V30 6064 C 572.691 0.282089 -2.75861 0
M  V30 6065 H 575.642 -0.310771 -1.55627 0
M  V30 6066 H 575.663 1.67524 -3.41637 0
M  V30 6067 H 575.175 -0.0896309 -3.87996 0
M  V30 6068 H 573.276 2.21289 -2.9977 0
M  V30 6069 H 573.389 1.25898 -4.62262 0
M  V30 6070 H 571.753 0.762182 -2.43029 0
M  V30 6071 H 572.536 -0.614936 -3.37748 0
M  V30 6072 N 574.981 1.5647 0.188427 0
M  V30 6073 C 576.229 1.80655 0.905986 0
M  V30 6074 C 576.55 0.659391 1.83513 0
M  V30 6075 O 575.82 -0.321868 1.93238 0
M  V30 6076 H 574.4 0.666391 0.337538 0
M  V30 6077 H 577.062 1.93949 0.192339 0
M  V30 6078 H 576.158 2.74066 1.49313 0
M  V30 6079 N 576.459 -0.456382 1.50847 0
M  V30 6080 C 577.389 -1.56025 1.73719 0
M  V30 6081 C 578.37 -1.5967 0.586473 0
M  V30 6082 O 579.555 -1.75702 0.827185 0
M  V30 6083 C 576.685 -2.94251 1.84483 0
M  V30 6084 C 575.639 -3.05471 2.99786 0
M  V30 6085 C 574.965 -4.45489 2.95709 0
M  V30 6086 C 576.265 -2.81318 4.40065 0
M  V30 6087 H 577.959 -1.37138 2.66146 0
M  V30 6088 H 575.505 -0.658299 1.28072 0
M  V30 6089 H 577.458 -3.71417 1.99067 0
M  V30 6090 H 576.182 -3.14328 0.886891 0
M  V30 6091 H 574.841 -2.30741 2.84876 0
M  V30 6092 H 574.489 -4.62505 1.97732 0
M  V30 6093 H 574.189 -4.53929 3.73125 0
M  V30 6094 H 575.713 -5.24655 3.12362 0
M  V30 6095 H 577.127 -3.48226 4.55425 0
M  V30 6096 H 575.524 -3.01188 5.19043 0
M  V30 6097 H 576.594 -1.7706 4.51418 0
M  V30 6098 N 577.937 -1.40673 -0.710563 0
M  V30 6099 C 578.847 -1.43663 -1.85467 0
M  V30 6100 C 579.863 -0.328721 -1.70867 0
M  V30 6101 O 581.039 -0.574098 -1.93044 0
M  V30 6102 C 578.104 -1.30226 -3.21313 0
M  V30 6103 C 577.165 -2.51204 -3.48131 0
M  V30 6104 C 576.398 -2.38398 -4.77495 0
M  V30 6105 O 576.621 -1.40048 -5.5294 0
M  V30 6106 O 575.555 -3.2787 -5.04762 0
M  V30 6107 H 579.381 -2.40156 -1.859 0
M  V30 6108 H 576.966 -1.22049 -0.861652 0
M  V30 6109 H 578.848 -1.2496 -4.02446 0
M  V30 6110 H 577.523 -0.368419 -3.21597 0
M  V30 6111 H 576.43 -2.62048 -2.66987 0
M  V30 6112 H 577.763 -3.43366 -3.52648 0
M  V30 6113 N 579.415 0.9433 -1.26252 0
M  V30 6114 C 580.826 1.50404 -1.10614 0
M  V30 6115 C 581.177 1.93666 0.31429 0
M  V30 6116 O 580.302 1.79709 1.20555 0
M  V30 6117 C 580.897 2.73336 -2.00182 0
M  V30 6118 C 579.456 3.25686 -1.88695 0
M  V30 6119 C 578.603 1.98474 -1.93658 0
M  V30 6120 H 581.554 0.759006 -1.39373 0
M  V30 6121 H 581.575 3.47567 -1.54847 0
M  V30 6122 H 581.087 2.41818 -3.03555 0
M  V30 6123 H 579.188 3.61998 -0.882489 0
M  V30 6124 H 579.301 3.92935 -2.74115 0
M  V30 6125 H 577.665 2.14278 -1.37684 0
M  V30 6126 H 578.448 1.6929 -2.98657 0
M  V30 6127 N 580.893 1.08022 1.14757 0
M  V30 6128 C 582.118 0.82895 1.90114 0
M  V30 6129 C 582.543 -0.612772 1.77839 0
M  V30 6130 O 581.901 -1.42895 1.11583 0
M  V30 6131 C 581.949 1.25062 3.38219 0
M  V30 6132 O 581.053 0.400119 4.10454 0
M  V30 6133 H 580.394 0.301412 0.591648 0
M  V30 6134 H 582.924 1.44062 1.45284 0
M  V30 6135 H 582.934 1.22977 3.89025 0
M  V30 6136 H 581.609 2.30067 3.46471 0
M  V30 6137 H 580.186 0.484052 3.69745 0
M  V30 6138 N 582.371 -1.3172 0.865308 0
M  V30 6139 C 583.619 -1.96487 0.472995 0
M  V30 6140 C 583.94 -1.68761 -0.976975 0
M  V30 6141 O 583.21 -1.00051 -1.68424 0
M  V30 6142 H 581.79 -0.726947 0.171922 0
M  V30 6143 H 584.452 -1.60612 1.10407 0
M  V30 6144 H 583.548 -3.0574 0.62687 0
M  V30 6145 N 583.85 -0.624285 -1.44708 0
M  V30 6146 C 584.798 0.0969952 -2.32398 0
M  V30 6147 C 585.792 0.842762 -1.46949 0
M  V30 6148 O 586.998 0.756436 -1.63334 0
M  V30 6149 H 583.373 0.0501306 -0.750327 0
M  V30 6150 H 585.344 -0.660767 -2.90992 0
M  V30 6151 C 584.093 1.06967 -3.30837 0
M  V30 6152 H 583.416 0.505242 -3.96595 0
M  V30 6153 H 584.856 1.54397 -3.94889 0
M  V30 6154 C 583.315 2.15153 -2.5925 0
M  V30 6155 O 583.845 3.23139 -2.3863 0
M  V30 6156 N 582.051 1.90898 -2.19103 0
M  V30 6157 H 581.598 1.03086 -2.36074 0
M  V30 6158 H 581.556 2.63485 -1.71531 0
M  V30 6159 N 585.328 1.53329 -0.364422 0
M  V30 6160 C 586.577 2.00421 0.226747 0
M  V30 6161 C 586.89 1.25581 1.49963 0
M  V30 6162 O 588.096 1.63256 2.16933 0
M  V30 6163 C 586.552 3.57017 0.454618 0
M  V30 6164 C 586.16 4.40734 -0.803568 0
M  V30 6165 C 587.904 4.12468 1.00351 0
M  V30 6166 C 585.811 5.8888 -0.545345 0
M  V30 6167 H 584.741 0.748787 0.0885082 0
M  V30 6168 H 587.392 1.7703 -0.482983 0
M  V30 6169 H 585.774 3.76558 1.22558 0
M  V30 6170 H 586.948 4.32967 -1.57723 0
M  V30 6171 H 585.263 3.96381 -1.27559 0
M  V30 6172 H 587.86 5.20783 1.212 0
M  V30 6173 H 588.203 3.6699 1.9653 0
M  V30 6174 H 588.736 3.96721 0.29274 0
M  V30 6175 H 585.475 6.38633 -1.47743 0
M  V30 6176 H 584.995 5.99499 0.189842 0
M  V30 6177 H 586.674 6.46776 -0.170425 0
M  V30 6178 N 586.806 0.0935595 1.57322 0
M  V30 6179 C 587.769 -0.851426 2.12799 0
M  V30 6180 C 588.769 -1.21187 1.0569 0
M  V30 6181 O 589.959 -1.14156 1.31583 0
M  V30 6182 C 587.091 -2.14779 2.64731 0
M  V30 6183 H 588.284 -0.369733 2.97612 0
M  V30 6184 H 585.837 -0.155417 1.55525 0
M  V30 6185 H 586.572 -2.67437 1.83434 0
M  V30 6186 H 586.357 -1.89907 3.43042 0
M  V30 6187 H 587.847 -2.82383 3.07651 0
M  V30 6188 N 588.284 -1.56567 -0.180126 0
M  V30 6189 C 589.232 -1.96632 -1.24251 0
M  V30 6190 C 590.226 -0.853818 -1.46309 0
M  V30 6191 O 591.432 -1.0389 -1.46993 0
M  V30 6192 H 587.807 -0.625476 -0.417473 0
M  V30 6193 H 589.778 -2.85201 -0.877679 0
M  V30 6194 C 588.527 -2.33486 -2.57642 0
M  V30 6195 H 587.85 -3.18626 -2.4149 0
M  V30 6196 H 589.29 -2.65371 -3.30688 0
M  V30 6197 C 587.749 -1.17499 -3.15746 0
M  V30 6198 O 588.279 -0.457956 -3.99081 0
M  V30 6199 N 586.485 -0.94786 -2.74707 0
M  V30 6200 H 586.032 -1.53269 -2.07042 0
M  V30 6201 H 585.99 -0.173626 -3.1392 0
M  V30 6202 N 589.762 0.448376 -1.51087 0
M  V30 6203 C 590.709 1.54341 -1.71603 0
M  V30 6204 C 591.679 1.56463 -0.557536 0
M  V30 6205 O 592.864 1.73644 -0.79072 0
M  V30 6206 C 590.004 2.92148 -1.83695 0
M  V30 6207 C 589.117 2.99639 -3.11192 0
M  V30 6208 C 588.252 4.285 -3.13944 0
M  V30 6209 C 587.291 4.29819 -4.35801 0
M  V30 6210 N 586.428 5.50186 -4.36164 0
M  V30 6211 H 591.268 1.36151 -2.65079 0
M  V30 6212 H 588.805 0.661585 -1.31383 0
M  V30 6213 H 590.763 3.72093 -1.88687 0
M  V30 6214 H 589.393 3.0892 -0.936374 0
M  V30 6215 H 588.445 2.12425 -3.15562 0
M  V30 6216 H 589.757 2.96474 -4.01129 0
M  V30 6217 H 588.911 5.16811 -3.17791 0
M  V30 6218 H 587.65 4.34307 -2.21876 0
M  V30 6219 H 586.655 3.39902 -4.32142 0
M  V30 6220 H 587.88 4.25685 -5.29121 0
M  V30 6221 H 585.826 5.56735 -3.46961 0
M  V30 6222 H 585.743 5.48856 -5.19897 0
M  V30 6223 H 587.011 6.40559 -4.44189 0
M  V30 6224 N 591.24 1.41047 0.703093 0
M  V30 6225 C 592.468 1.4334 1.49202 0
M  V30 6226 C 592.883 0.0365596 1.88765 0
M  V30 6227 O 592.24 -0.942419 1.56284 0
M  V30 6228 C 592.291 2.33538 2.75939 0
M  V30 6229 O 592.012 3.67786 2.38045 0
M  V30 6230 C 593.513 2.44555 3.6974 0
M  V30 6231 H 590.733 0.488472 0.460039 0
M  V30 6232 H 593.277 1.85245 0.86629 0
M  V30 6233 H 591.432 1.94962 3.34766 0
M  V30 6234 H 591.846 4.15816 3.19683 0
M  V30 6235 H 593.32 3.11849 4.55471 0
M  V30 6236 H 593.797 1.47447 4.1371 0
M  V30 6237 H 594.403 2.83735 3.16819 0
M  V30 6238 N 592.718 -0.936591 1.26751 0
M  V30 6239 C 593.946 -1.71758 1.15355 0
M  V30 6240 C 594.361 -1.86549 -0.290683 0
M  V30 6241 O 593.718 -1.37616 -1.19868 0
M  V30 6242 C 593.769 -3.12193 1.82258 0
M  V30 6243 O 593.49 -2.98105 3.21038 0
M  V30 6244 C 594.991 -4.06485 1.76875 0
M  V30 6245 H 592.211 -0.537636 0.401483 0
M  V30 6246 H 594.755 -1.17382 1.67457 0
M  V30 6247 H 592.91 -3.63456 1.34083 0
M  V30 6248 H 593.324 -3.86824 3.54214 0
M  V30 6249 H 594.798 -5.02569 2.28316 0
M  V30 6250 H 595.275 -4.32986 0.736216 0
M  V30 6251 H 595.881 -3.61144 2.24623 0
M  V30 6252 N 594.196 -1.08629 -1.14182 0
M  V30 6253 C 595.426 -0.837673 -1.88856 0
M  V30 6254 C 595.834 0.614024 -1.78959 0
M  V30 6255 O 595.177 1.43384 -1.14833 0
M  V30 6256 C 595.239 -1.18355 -3.39459 0
M  V30 6257 C 594.903 -2.63848 -3.73139 0
M  V30 6258 C 595.9 -3.62099 -3.73069 0
M  V30 6259 C 593.585 -2.99761 -4.03049 0
M  V30 6260 C 595.579 -4.94292 -4.02435 0
M  V30 6261 C 593.266 -4.32147 -4.32078 0
M  V30 6262 C 594.264 -5.29223 -4.31755 0
M  V30 6263 O 593.952 -6.59229 -4.60079 0
M  V30 6264 H 593.684 -0.301609 -0.604986 0
M  V30 6265 H 596.238 -1.44961 -1.45518 0
M  V30 6266 H 594.468 -0.514628 -3.8326 0
M  V30 6267 H 596.157 -0.915391 -3.95443 0
M  V30 6268 H 596.923 -3.35698 -3.50046 0
M  V30 6269 H 592.802 -2.2484 -4.02453 0
M  V30 6270 H 596.346 -5.70055 -4.02098 0
M  V30 6271 H 592.243 -4.58296 -4.54571 0
M  V30 6272 H 593.011 -6.64578 -4.77785 0
M  V30 6273 N 595.674 1.31259 -0.872281 0
M  V30 6274 C 596.921 1.96622 -0.484365 0
M  V30 6275 C 597.249 1.68939 0.963841 0
M  V30 6276 O 596.504 0.97974 1.6941 0
M  V30 6277 C 596.803 3.50659 -0.690889 0
M  V30 6278 C 596.469 3.98366 -2.11224 0
M  V30 6279 C 595.131 4.11104 -2.50094 0
M  V30 6280 C 597.483 4.23425 -3.0391 0
M  V30 6281 C 594.811 4.46254 -3.80887 0
M  V30 6282 C 597.163 4.60039 -4.3422 0
M  V30 6283 C 595.827 4.70984 -4.73001 0
M  V30 6284 H 595.097 0.71949 -0.177242 0
M  V30 6285 H 597.744 1.56353 -1.10571 0
M  V30 6286 H 596.049 3.91798 0.0135782 0
M  V30 6287 H 597.746 3.99284 -0.370534 0
M  V30 6288 H 594.336 3.88949 -1.80047 0
M  V30 6289 H 598.52 4.13075 -2.75104 0
M  V30 6290 H 593.776 4.52926 -4.10692 0
M  V30 6291 H 597.95 4.78381 -5.06088 0
M  V30 6292 H 595.577 4.97977 -5.7439 0
M  V30 6293 N 597.152 0.631951 1.44375 0
M  V30 6294 C 598.062 -0.073674 2.34484 0
M  V30 6295 C 599.078 -0.834825 1.52665 0
M  V30 6296 O 600.254 -0.786902 1.85391 0
M  V30 6297 C 597.319 -1.04247 3.30656 0
M  V30 6298 C 596.38 -0.280602 4.28382 0
M  V30 6299 C 595.613 -1.20325 5.19959 0
M  V30 6300 O 595.836 -2.44199 5.15484 0
M  V30 6301 O 594.77 -0.687128 5.97965 0
M  V30 6302 H 598.596 0.667477 2.96274 0
M  V30 6303 H 596.181 0.392144 1.44162 0
M  V30 6304 H 598.063 -1.59981 3.89851 0
M  V30 6305 H 596.738 -1.76422 2.71398 0
M  V30 6306 H 595.645 0.319804 3.72731 0
M  V30 6307 H 596.978 0.401144 4.90563 0
M  V30 6308 N 598.631 -1.53133 0.372548 0
M  V30 6309 C 599.88 -2.00539 -0.216115 0
M  V30 6310 C 600.193 -1.26374 -1.49295 0
M  V30 6311 O 601.399 -1.64404 -2.16064 0
M  V30 6312 C 599.855 -3.57253 -0.435678 0
M  V30 6313 C 599.463 -4.40302 0.82693 0
M  V30 6314 C 601.207 -4.12995 -0.981618 0
M  V30 6315 C 599.114 -5.88583 0.576567 0
M  V30 6316 H 598.044 -0.749246 -0.084536 0
M  V30 6317 H 600.695 -1.76771 0.492364 0
M  V30 6318 H 599.077 -3.77202 -1.20559 0
M  V30 6319 H 600.251 -4.32124 1.60017 0
M  V30 6320 H 598.566 -3.95699 1.29659 0
M  V30 6321 H 601.163 -5.21418 -1.18436 0
M  V30 6322 H 601.506 -3.68027 -1.94581 0
M  V30 6323 H 602.039 -3.96871 -0.271696 0
M  V30 6324 H 598.778 -6.37841 1.51128 0
M  V30 6325 H 598.298 -5.99592 -0.158047 0
M  V30 6326 H 599.977 -6.46676 0.204722 0
M  V30 6327 N 600.109 -0.101901 -1.5727 0
M  V30 6328 C 601.356 0.560197 -1.94597 0
M  V30 6329 C 601.684 1.67767 -0.984101 0
M  V30 6330 O 600.939 1.95699 -0.00489193 0
M  V30 6331 C 601.238 1.14898 -3.38427 0
M  V30 6332 C 600.904 0.154613 -4.50635 0
M  V30 6333 C 599.566 -0.118861 -4.81053 0
M  V30 6334 C 601.918 -0.523979 -5.18559 0
M  V30 6335 C 599.246 -1.0775 -5.76721 0
M  V30 6336 C 601.598 -1.47114 -6.15256 0
M  V30 6337 C 600.262 -1.75278 -6.44076 0
M  V30 6338 H 599.532 0.204991 -0.712081 0
M  V30 6339 H 602.179 -0.17918 -1.9066 0
M  V30 6340 H 600.484 1.96476 -3.38976 0
M  V30 6341 H 602.181 1.66909 -3.64613 0
M  V30 6342 H 598.771 0.377948 -4.2693 0
M  V30 6343 H 602.955 -0.325851 -4.95229 0
M  V30 6344 H 598.211 -1.30263 -5.97362 0
M  V30 6345 H 602.385 -2.00274 -6.66981 0
M  V30 6346 H 600.012 -2.49717 -7.18015 0
M  V30 6347 N 601.587 1.56661 0.17182 0
M  V30 6348 C 602.815 1.861 0.904115 0
M  V30 6349 C 603.23 0.687227 1.75848 0
M  V30 6350 O 602.587 -0.343671 1.79235 0
M  V30 6351 C 602.638 3.14568 1.78127 0
M  V30 6352 O 602.359 4.27422 0.961366 0
M  V30 6353 C 603.86 3.5735 2.62327 0
M  V30 6354 H 601.08 0.617445 0.262684 0
M  V30 6355 H 603.624 2.03775 0.172068 0
M  V30 6356 H 601.779 2.98721 2.46666 0
M  V30 6357 H 602.193 5.00725 1.56123 0
M  V30 6358 H 603.667 4.50144 3.1949 0
M  V30 6359 H 604.144 2.81445 3.37173 0
M  V30 6360 H 604.75 3.75807 1.99121 0
M  V30 6361 N 603.065 -0.440357 1.51323 0
M  V30 6362 C 604.028 -1.51679 1.71832 0
M  V30 6363 C 605.028 -1.49648 0.588386 0
M  V30 6364 O 606.218 -1.51724 0.855891 0
M  V30 6365 C 603.35 -2.91228 1.77199 0
M  V30 6366 H 604.543 -1.34799 2.67898 0
M  V30 6367 H 602.096 -0.66883 1.41267 0
M  V30 6368 H 602.831 -3.13516 0.829363 0
M  V30 6369 H 602.616 -2.94107 2.59314 0
M  V30 6370 H 604.106 -3.69321 1.94915 0
M  V30 6371 N 604.543 -1.41418 -0.695603 0
M  V30 6372 C 605.791 -1.40496 -1.45277 0
M  V30 6373 C 606.112 -0.0149538 -1.94994 0
M  V30 6374 O 605.382 0.9432 -1.71699 0
M  V30 6375 H 603.962 -0.517147 -0.539044 0
M  V30 6376 H 606.624 -1.76656 -0.823321 0
M  V30 6377 H 605.72 -2.09214 -2.31595 0
M  V30 6378 N 606.021 0.929856 -1.27246 0
M  V30 6379 C 606.984 2.01172 -1.09829 0
M  V30 6380 C 607.984 1.60743 -0.0429687 0
M  V30 6381 O 609.174 1.71813 -0.287373 0
M  V30 6382 C 606.306 3.34191 -0.673003 0
M  V30 6383 H 607.499 2.18054 -2.05895 0
M  V30 6384 H 605.052 1.11036 -1.10003 0
M  V30 6385 H 605.787 3.23009 0.289134 0
M  V30 6386 H 605.572 3.64892 -1.43515 0
M  V30 6387 H 607.062 4.13646 -0.573323 0
M  V30 6388 N 607.499 1.09233 1.13605 0
M  V30 6389 C 608.747 0.825525 1.84471 0
M  V30 6390 C 609.068 -0.650702 1.83823 0
M  V30 6391 O 608.338 -1.47204 1.29259 0
M  V30 6392 H 606.918 0.3024 0.683054 0
M  V30 6393 H 609.58 1.38006 1.37624 0
M  V30 6394 H 608.676 1.17727 2.89045 0
M  V30 6395 N 608.977 -1.30795 0.87923 0
M  V30 6396 C 610.205 -2.00527 0.509548 0
M  V30 6397 C 610.62 -1.65944 -0.90045 0
M  V30 6398 O 609.977 -0.893525 -1.5913 0
M  V30 6399 C 610.028 -3.55276 0.667943 0
M  V30 6400 O 609.749 -3.88625 2.02242 0
M  V30 6401 C 611.25 -4.4228 0.300494 0
M  V30 6402 H 608.47 -0.641261 0.197549 0
M  V30 6403 H 611.014 -1.66813 1.18295 0
M  V30 6404 H 609.169 -3.87377 0.0419843 0
M  V30 6405 H 609.583 -4.83334 2.03688 0
M  V30 6406 H 611.057 -5.50061 0.462242 0
M  V30 6407 H 611.534 -4.32556 -0.76106 0
M  V30 6408 H 612.14 -4.15613 0.902536 0
M  V30 6409 N 610.455 -0.639598 -1.44038 0
M  V30 6410 C 611.703 -0.147188 -2.01563 0
M  V30 6411 C 612.024 1.2384 -1.50628 0
M  V30 6412 O 611.294 1.82452 -0.713316 0
M  V30 6413 H 609.874 -0.0514231 -0.745228 0
M  V30 6414 H 612.536 -0.828205 -1.76428 0
M  V30 6415 H 611.632 -0.121358 -3.11864 0
M  V30 6416 N 611.933 1.52934 -0.380664 0
M  V30 6417 C 612.843 2.29921 0.466192 0
M  V30 6418 C 613.859 1.36488 1.07922 0
M  V30 6419 O 615.035 1.69553 1.0869 0
M  V30 6420 C 612.1 3.08468 1.58266 0
M  V30 6421 C 611.161 4.17595 0.995627 0
M  V30 6422 C 610.394 4.92387 2.05889 0
M  V30 6423 O 610.617 4.67184 3.27254 0
M  V30 6424 O 609.551 5.77949 1.68102 0
M  V30 6425 H 613.377 3.03274 -0.160735 0
M  V30 6426 H 610.962 1.48698 -0.144617 0
M  V30 6427 H 612.844 3.57469 2.23145 0
M  V30 6428 H 611.519 2.37937 2.19471 0
M  V30 6429 H 610.426 3.72811 0.310332 0
M  V30 6430 H 611.759 4.90336 0.427918 0
M  V30 6431 N 613.412 0.11024 1.57214 0
M  V30 6432 C 614.658 -0.550684 1.9518 0
M  V30 6433 C 614.991 -1.66885 0.993122 0
M  V30 6434 O 614.266 -1.94479 0.0287907 0
M  V30 6435 C 614.549 -1.09163 3.43155 0
M  V30 6436 C 614.402 0.0225198 4.49794 0
M  V30 6437 C 615.721 -1.98527 3.92778 0
M  V30 6438 H 612.84 -0.198706 0.709708 0
M  V30 6439 H 615.482 0.184024 1.89107 0
M  V30 6440 H 613.632 -1.71775 3.48462 0
M  V30 6441 H 615.304 0.657443 4.56591 0
M  V30 6442 H 613.547 0.686868 4.28328 0
M  V30 6443 H 614.218 -0.39706 5.5057 0
M  V30 6444 H 616.694 -1.458 3.8972 0
M  V30 6445 H 615.57 -2.33298 4.96853 0
M  V30 6446 H 615.831 -2.90846 3.32958 0
M  V30 6447 N 614.89 -1.56749 -0.16351 0
M  V30 6448 C 615.8 -2.00255 -1.2221 0
M  V30 6449 C 616.816 -0.915194 -1.47987 0
M  V30 6450 O 617.992 -1.22342 -1.59982 0
M  V30 6451 C 615.057 -2.36035 -2.53946 0
M  V30 6452 C 614.118 -3.58637 -2.35962 0
M  V30 6453 C 613.351 -3.92701 -3.61416 0
M  V30 6454 O 613.574 -3.27632 -4.66919 0
M  V30 6455 O 612.508 -4.86019 -3.55062 0
M  V30 6456 H 616.334 -2.90586 -0.882794 0
M  V30 6457 H 613.919 -1.44721 -0.370978 0
M  V30 6458 H 615.801 -2.59982 -3.31643 0
M  V30 6459 H 614.476 -1.48863 -2.8744 0
M  V30 6460 H 613.383 -3.39898 -1.5627 0
M  V30 6461 H 614.716 -4.46374 -2.0739 0
M  V30 6462 N 616.368 0.432326 -1.51554 0
M  V30 6463 C 617.614 1.18309 -1.64714 0
M  V30 6464 C 617.947 1.90745 -0.364696 0
M  V30 6465 O 617.222 1.8381 0.635936 0
M  V30 6466 C 617.505 2.1961 -2.85383 0
M  V30 6467 C 617.358 1.51223 -4.23617 0
M  V30 6468 C 618.677 3.20538 -3.01569 0
M  V30 6469 H 615.796 0.428751 -0.599451 0
M  V30 6470 H 618.438 0.471689 -1.84052 0
M  V30 6471 H 616.588 2.8028 -2.69027 0
M  V30 6472 H 618.26 0.938516 -4.51652 0
M  V30 6473 H 616.503 0.814501 -4.26085 0
M  V30 6474 H 617.174 2.25024 -5.04052 0
M  V30 6475 H 619.65 2.69926 -3.16669 0
M  V30 6476 H 618.526 3.88706 -3.87555 0
M  V30 6477 H 618.787 3.86933 -2.13859 0
M  V30 6478 N 617.846 1.41785 0.688094 0
M  V30 6479 C 619.092 1.41753 1.4503 0
M  V30 6480 C 619.425 0.0290745 1.94178 0
M  V30 6481 O 618.7 -0.944456 1.7003 0
M  V30 6482 C 618.983 2.43069 2.65686 0
M  V30 6483 C 618.836 3.91053 2.22256 0
M  V30 6484 C 620.155 2.41543 3.67893 0
M  V30 6485 H 617.274 0.516202 0.526027 0
M  V30 6486 H 619.916 1.73111 0.783105 0
M  V30 6487 H 618.066 2.1646 3.2261 0
M  V30 6488 H 619.738 4.28594 1.70602 0
M  V30 6489 H 617.981 4.05559 1.53963 0
M  V30 6490 H 618.652 4.57501 3.08863 0
M  V30 6491 H 621.128 2.65175 3.20658 0
M  V30 6492 H 620.004 3.14434 4.49914 0
M  V30 6493 H 620.265 1.43666 4.18106 0
M  V30 6494 N 619.324 -0.923095 1.27737 0
M  V30 6495 C 620.573 -1.66581 1.13727 0
M  V30 6496 C 620.886 -1.9304 -0.315433 0
M  V30 6497 O 622.092 -2.65309 -0.57651 0
M  V30 6498 C 620.548 -3.00047 1.98745 0
M  V30 6499 C 620.156 -2.8127 3.48699 0
M  V30 6500 C 621.9 -3.77887 1.93395 0
M  V30 6501 C 619.807 -4.1032 4.25901 0
M  V30 6502 H 618.737 -0.624834 0.422017 0
M  V30 6503 H 621.388 -1.02514 1.52194 0
M  V30 6504 H 619.77 -3.65197 1.53125 0
M  V30 6505 H 620.944 -2.24859 4.02213 0
M  V30 6506 H 619.259 -2.16854 3.55476 0
M  V30 6507 H 621.856 -4.73526 2.48348 0
M  V30 6508 H 622.199 -4.06264 0.908605 0
M  V30 6509 H 622.732 -3.19541 2.36935 0
M  V30 6510 H 619.471 -3.8712 5.28978 0
M  V30 6511 H 618.991 -4.66377 3.77163 0
M  V30 6512 H 620.67 -4.78648 4.35321 0
M  V30 6513 N 620.802 -1.09834 -1.13024 0
M  V30 6514 C 621.734 -0.699379 -2.18269 0
M  V30 6515 C 622.747 0.260841 -1.60697 0
M  V30 6516 O 623.936 0.0462538 -1.7844 0
M  V30 6517 C 621.036 -0.0104537 -3.38898 0
M  V30 6518 C 620.209 -0.993275 -4.25973 0
M  V30 6519 C 619.268 -0.336982 -5.2512 0
M  V30 6520 O 618.294 -0.985892 -5.60597 0
M  V30 6521 N 619.496 0.90716 -5.73368 0
M  V30 6522 H 622.261 -1.60486 -2.5311 0
M  V30 6523 H 619.822 -0.986337 -1.28386 0
M  V30 6524 H 621.814 0.43991 -4.02302 0
M  V30 6525 H 620.384 0.797335 -3.0226 0
M  V30 6526 H 619.604 -1.62208 -3.5928 0
M  V30 6527 H 620.892 -1.65876 -4.81002 0
M  V30 6528 H 620.29 1.45384 -5.46699 0
M  V30 6529 H 618.847 1.30077 -6.38689 0
M  V30 6530 N 622.28 1.30327 -0.886154 0
M  V30 6531 C 623.557 1.90922 -0.425217 0
M  V30 6532 C 623.937 1.80533 1.09413 0
M  V30 6533 O 623.285 1.2233 1.92996 0
M  V30 6534 C 623.495 3.36529 -0.924638 0
M  V30 6535 C 624.843 4.13598 -0.960305 0
M  V30 6536 O 625.867 3.45377 -0.871382 0
M  V30 6537 O 624.726 5.35482 -1.09184 0
M  V30 6538 H 621.82 0.81668 -0.130238 0
M  V30 6539 H 624.366 1.38886 -0.975132 0
M  V30 6540 H 623.138 3.38181 -1.96849 0
M  V30 6541 H 622.761 3.96021 -0.353955 0
M  V30 6542 N 623.758 0.647228 1.43697 0
M  V30 6543 C 625.169 0.238689 1.85168 0
M  V30 6544 C 625.52 -1.21345 1.54175 0
M  V30 6545 O 624.645 -1.92542 0.987743 0
M  V30 6546 C 625.24 0.426422 3.36106 0
M  V30 6547 C 623.799 0.0722541 3.76331 0
M  V30 6548 C 622.946 0.732153 2.6746 0
M  V30 6549 H 625.897 0.851309 1.33934 0
M  V30 6550 H 625.918 -0.32987 3.79067 0
M  V30 6551 H 625.43 1.48339 3.58632 0
M  V30 6552 H 623.531 -0.982355 3.59417 0
M  V30 6553 H 623.644 0.493541 4.76551 0
M  V30 6554 H 622.008 0.16594 2.54159 0
M  V30 6555 H 622.791 1.79204 2.92816 0
M  V30 6556 N 625.236 -1.5273 0.388769 0
M  V30 6557 C 626.169 -2.22861 -0.490752 0
M  V30 6558 C 627.147 -1.22912 -1.06449 0
M  V30 6559 O 628.331 -1.51896 -1.11624 0
M  V30 6560 C 625.458 -2.94141 -1.67925 0
M  V30 6561 C 624.504 -4.08355 -1.23081 0
M  V30 6562 S 625.337 -5.35077 -0.212786 0
M  V30 6563 C 626.493 -6.09879 -1.40708 0
M  V30 6564 H 626.726 -2.97115 0.104787 0
M  V30 6565 H 624.259 -1.53428 0.172956 0
M  V30 6566 H 626.217 -3.35818 -2.36085 0
M  V30 6567 H 624.878 -2.19568 -2.24608 0
M  V30 6568 H 624.071 -4.57328 -2.11818 0
M  V30 6569 H 623.673 -3.68688 -0.628121 0
M  V30 6570 H 625.965 -6.36018 -2.33424 0
M  V30 6571 H 626.908 -7.01586 -0.958271 0
M  V30 6572 H 627.316 -5.40646 -1.62364 0
M  V30 6573 N 626.714 -0.118576 -1.57153 0
M  V30 6574 C 627.962 0.538461 -1.94795 0
M  V30 6575 C 628.283 1.67243 -1.00274 0
M  V30 6576 O 627.553 1.95811 -0.0589692 0
M  V30 6577 H 626.133 0.201904 -0.719197 0
M  V30 6578 H 628.795 -0.187418 -1.93997 0
M  V30 6579 H 627.891 0.933315 -2.97818 0
M  V30 6580 N 628.193 1.56834 0.155195 0
M  V30 6581 C 629.125 1.94235 1.21677 0
M  V30 6582 C 630.138 0.83724 1.39621 0
M  V30 6583 O 631.327 1.11567 1.39338 0
M  V30 6584 C 628.427 2.19402 2.58294 0
M  V30 6585 C 627.6 3.50671 2.61436 0
M  V30 6586 C 626.659 3.64475 3.79532 0
M  V30 6587 O 625.685 4.36945 3.64784 0
M  V30 6588 N 626.887 3.00526 4.96653 0
M  V30 6589 H 629.652 2.85901 0.898932 0
M  V30 6590 H 627.213 1.58185 0.34483 0
M  V30 6591 H 629.205 2.25886 3.35794 0
M  V30 6592 H 627.775 1.34042 2.82403 0
M  V30 6593 H 626.995 3.55702 1.69912 0
M  V30 6594 H 628.283 4.3702 2.60559 0
M  V30 6595 H 627.681 2.41549 5.11538 0
M  V30 6596 H 626.238 3.12583 5.71958 0
M  V30 6597 N 629.671 -0.424282 1.51781 0
M  V30 6598 C 630.618 -1.51591 1.74037 0
M  V30 6599 C 631.588 -1.55556 0.582358 0
M  V30 6600 O 632.773 -1.72364 0.818245 0
M  V30 6601 C 629.913 -2.89188 1.8832 0
M  V30 6602 C 629.026 -2.9465 3.1592 0
M  V30 6603 C 628.161 -4.23452 3.20721 0
M  V30 6604 C 627.2 -4.22831 4.42584 0
M  V30 6605 N 626.337 -5.43178 4.44862 0
M  V30 6606 H 631.177 -1.31917 2.67212 0
M  V30 6607 H 628.714 -0.640599 1.32419 0
M  V30 6608 H 630.672 -3.69044 1.94583 0
M  V30 6609 H 629.302 -3.07392 0.985402 0
M  V30 6610 H 628.354 -2.07378 3.18902 0
M  V30 6611 H 629.666 -2.90055 4.05795 0
M  V30 6612 H 628.82 -5.1169 3.25973 0
M  V30 6613 H 627.559 -4.30722 2.28757 0
M  V30 6614 H 626.564 -3.32984 4.37495 0
M  V30 6615 H 627.789 -4.17213 5.35826 0
M  V30 6616 H 625.735 -5.51145 3.55775 0
M  V30 6617 H 625.652 -5.40515 5.28563 0
M  V30 6618 H 626.92 -6.33412 4.54324 0
M  V30 6619 N 631.149 -1.42148 -0.680565 0
M  V30 6620 C 632.397 -1.42029 -1.43779 0
M  V30 6621 C 632.718 -0.0356347 -1.94967 0
M  V30 6622 O 631.988 0.924936 -1.7269 0
M  V30 6623 H 630.568 -0.522835 -0.533529 0
M  V30 6624 H 633.23 -1.7752 -0.804538 0
M  V30 6625 H 632.326 -2.11658 -2.29363 0
M  V30 6626 N 632.627 0.916307 -1.28225 0
M  V30 6627 C 633.855 1.69901 -1.18073 0
M  V30 6628 C 634.27 1.86988 0.260968 0
M  V30 6629 O 633.627 1.39505 1.17663 0
M  V30 6630 C 633.678 3.09254 -1.87201 0
M  V30 6631 O 633.399 2.92959 -3.2574 0
M  V30 6632 C 634.9 4.0362 -1.83319 0
M  V30 6633 H 632.12 0.531181 -0.409985 0
M  V30 6634 H 634.664 1.14703 -1.69303 0
M  V30 6635 H 632.819 3.61277 -1.39848 0
M  V30 6636 H 633.233 3.81139 -3.60324 0
M  V30 6637 H 634.707 4.98873 -2.36282 0
M  V30 6638 H 635.184 4.3176 -0.805007 0
M  V30 6639 H 635.79 3.57524 -2.3034 0
M  V30 6640 N 634.105 1.10431 1.1244 0
M  V30 6641 C 635.351 0.847972 1.84221 0
M  V30 6642 C 635.684 -0.624903 1.83871 0
M  V30 6643 O 634.959 -1.46074 1.28423 0
M  V30 6644 C 635.242 1.39695 3.319 0
M  V30 6645 C 635.095 2.93668 3.40704 0
M  V30 6646 C 636.414 1.03924 4.27654 0
M  V30 6647 H 633.533 0.309502 0.668863 0
M  V30 6648 H 636.175 1.36745 1.31912 0
M  V30 6649 H 634.325 0.955095 3.76577 0
M  V30 6650 H 635.997 3.46379 3.04662 0
M  V30 6651 H 634.24 3.30272 2.81252 0
M  V30 6652 H 634.911 3.27162 4.446 0
M  V30 6653 H 637.387 1.42049 3.91102 0
M  V30 6654 H 636.263 1.45027 5.29394 0
M  V30 6655 H 636.524 -0.051336 4.4207 0
M  V30 6656 N 635.583 -1.29855 0.893053 0
M  V30 6657 C 636.493 -2.31661 0.370157 0
M  V30 6658 C 637.509 -1.65677 -0.531723 0
M  V30 6659 O 638.685 -1.9691 -0.422902 0
M  V30 6660 C 635.75 -3.44388 -0.399741 0
M  V30 6661 C 634.811 -4.2598 0.532861 0
M  V30 6662 C 634.044 -5.33324 -0.200388 0
M  V30 6663 O 634.267 -5.52305 -1.42531 0
M  V30 6664 O 633.201 -6.00188 0.453668 0
M  V30 6665 H 637.027 -2.78354 1.2146 0
M  V30 6666 H 634.612 -1.34171 0.657153 0
M  V30 6667 H 636.494 -4.13037 -0.835358 0
M  V30 6668 H 635.169 -2.99815 -1.22035 0
M  V30 6669 H 634.076 -3.59998 1.01746 0
M  V30 6670 H 635.409 -4.74178 1.3197 0
M  V30 6671 N 637.061 -0.65484 -1.43351 0
M  V30 6672 C 638.472 -0.248506 -1.85039 0
M  V30 6673 C 638.823 1.20526 -1.54816 0
M  V30 6674 O 637.948 1.92016 -0.99794 0
M  V30 6675 C 638.543 -0.444241 -3.35875 0
M  V30 6676 C 637.102 -0.0922108 -3.76287 0
M  V30 6677 C 636.249 -0.746327 -2.67068 0
M  V30 6678 H 639.2 -0.8584 -1.33481 0
M  V30 6679 H 639.221 0.309762 -3.79237 0
M  V30 6680 H 638.733 -1.50239 -3.5784 0
M  V30 6681 H 636.834 0.96328 -3.59933 0
M  V30 6682 H 636.947 -0.518807 -4.76283 0
M  V30 6683 H 635.311 -0.179416 -2.54067 0
M  V30 6684 H 636.094 -1.80754 -2.91861 0
M  V30 6685 N 638.539 1.52521 -0.396863 0
M  V30 6686 C 639.471 2.24333 0.469814 0
M  V30 6687 C 640.484 1.2685 1.02043 0
M  V30 6688 O 641.673 1.52876 0.92147 0
M  V30 6689 C 638.773 2.95202 1.66461 0
M  V30 6690 C 637.946 4.19454 1.24003 0
M  V30 6691 C 637.005 4.73255 2.30036 0
M  V30 6692 O 636.031 5.36151 1.91131 0
M  V30 6693 N 637.233 4.53765 3.62047 0
M  V30 6694 H 639.998 2.99347 -0.145468 0
M  V30 6695 H 637.559 1.60348 -0.223606 0
M  V30 6696 H 639.551 3.28092 2.36934 0
M  V30 6697 H 638.121 2.2345 2.18607 0
M  V30 6698 H 637.341 3.92517 0.363892 0
M  V30 6699 H 638.629 5.0017 0.933135 0
M  V30 6700 H 638.027 4.03576 3.96412 0
M  V30 6701 H 636.584 4.91124 4.28533 0
M  V30 6702 N 640.017 0.126909 1.57088 0
M  V30 6703 C 640.947 -0.816847 2.18746 0
M  V30 6704 C 641.928 -1.27161 1.12979 0
M  V30 6705 O 643.113 -1.33279 1.41246 0
M  V30 6706 C 640.243 -2.06398 2.79315 0
M  V30 6707 C 639.197 -1.74673 3.90735 0
M  V30 6708 C 638.523 -3.06482 4.38147 0
M  V30 6709 C 639.823 -1.0089 5.12463 0
M  V30 6710 H 641.517 -0.303032 2.97863 0
M  V30 6711 H 639.063 -0.144314 1.43275 0
M  V30 6712 H 641.016 -2.72885 3.2111 0
M  V30 6713 H 639.74 -2.60118 1.975 0
M  V30 6714 H 638.399 -1.10572 3.49527 0
M  V30 6715 H 638.047 -3.58152 3.5318 0
M  V30 6716 H 637.747 -2.86025 5.13287 0
M  V30 6717 H 639.271 -3.74073 4.82599 0
M  V30 6718 H 640.685 -1.57546 5.51228 0
M  V30 6719 H 639.082 -0.905006 5.93237 0
M  V30 6720 H 640.152 0.00297335 4.849 0
M  V30 6721 N 641.495 -1.56914 -0.146875 0
M  V30 6722 C 642.405 -2.0154 -1.20079 0
M  V30 6723 C 643.421 -0.930838 -1.47008 0
M  V30 6724 O 644.597 -1.24032 -1.58676 0
M  V30 6725 C 641.662 -2.38715 -2.51428 0
M  V30 6726 C 640.723 -3.6112 -2.32145 0
M  V30 6727 C 639.956 -3.96512 -3.57231 0
M  V30 6728 O 640.179 -3.32566 -4.63418 0
M  V30 6729 O 639.113 -4.89758 -3.49887 0
M  V30 6730 H 642.939 -2.91506 -0.851924 0
M  V30 6731 H 640.524 -1.45106 -0.355607 0
M  V30 6732 H 642.406 -2.63485 -3.28867 0
M  V30 6733 H 641.081 -1.51903 -2.85845 0
M  V30 6734 H 639.988 -3.41536 -1.52656 0
M  V30 6735 H 641.321 -4.48549 -2.02644 0
M  V30 6736 N 642.974 0.416227 -1.52004 0
M  V30 6737 C 643.937 1.48926 -1.74223 0
M  V30 6738 C 644.937 1.48693 -0.612119 0
M  V30 6739 O 646.127 1.50343 -0.879921 0
M  V30 6740 C 643.259 2.88372 -1.81809 0
M  V30 6741 H 644.452 1.3052 -2.70008 0
M  V30 6742 H 642.005 0.646271 -1.42313 0
M  V30 6743 H 642.74 3.12157 -0.879135 0
M  V30 6744 H 642.525 2.89944 -2.6396 0
M  V30 6745 H 644.015 3.66173 -2.00766 0
M  V30 6746 N 644.452 1.42507 0.673017 0
M  V30 6747 C 645.868 1.25472 0.986355 0
M  V30 6748 C 646.068 0.160181 2.00862 0
M  V30 6749 O 645.124 -0.467993 2.48125 0
M  V30 6750 C 646.437 2.61219 1.48947 0
M  V30 6751 C 647.985 2.68589 1.60715 0
M  V30 6752 C 648.46 4.04707 2.14422 0
M  V30 6753 N 649.951 4.0667 2.21752 0
M  V30 6754 C 650.686 5.0881 2.64386 0
M  V30 6755 N 650.182 6.21332 3.0646 0
M  V30 6756 N 651.975 4.96166 2.64151 0
M  V30 6757 H 644.126 2.124 -0.00378532 0
M  V30 6758 H 646.389 0.946046 0.0608367 0
M  V30 6759 H 646.095 3.42179 0.812812 0
M  V30 6760 H 645.969 2.85261 2.46791 0
M  V30 6761 H 648.356 1.87974 2.27486 0
M  V30 6762 H 648.437 2.48333 0.613552 0
M  V30 6763 H 648.081 4.8578 1.48258 0
M  V30 6764 H 648.011 4.22315 3.14575 0
M  V30 6765 H 650.502 3.25438 1.92089 0
M  V30 6766 H 650.815 6.95118 3.37684 0
M  V30 6767 H 649.16 6.24835 3.04313 0
M  V30 6768 H 652.351 4.07334 2.30644 0
M  V30 6769 H 652.524 5.759 2.97057 0
M  V30 6770 N 645.93 -0.909495 1.28709 0
M  V30 6771 C 647.178 -1.65577 1.15882 0
M  V30 6772 C 647.499 -1.928 -0.292108 0
M  V30 6773 O 646.769 -1.54716 -1.20166 0
M  V30 6774 H 645.349 -0.613714 0.425869 0
M  V30 6775 H 648.011 -1.09108 1.61498 0
M  V30 6776 H 647.107 -2.61634 1.70159 0
M  V30 6777 N 647.408 -1.11026 -1.11852 0
M  V30 6778 C 648.685 -0.768347 -1.79877 0
M  V30 6779 C 649.065 0.744261 -1.97545 0
M  V30 6780 O 648.413 1.67271 -1.55669 0
M  V30 6781 C 648.623 -1.52648 -3.13846 0
M  V30 6782 C 649.971 -1.70297 -3.88953 0
M  V30 6783 O 650.995 -1.49037 -3.23522 0
M  V30 6784 O 649.854 -2.05593 -5.06353 0
M  V30 6785 H 646.948 -0.277891 -0.778913 0
M  V30 6786 H 649.494 -1.21343 -1.18633 0
M  V30 6787 H 648.266 -2.55564 -2.96315 0
M  V30 6788 H 647.889 -1.07466 -3.82801 0
M  V30 6789 N 648.886 1.2938 -0.899927 0
M  V30 6790 C 650.111 2.00228 -0.540692 0
M  V30 6791 C 650.536 1.66909 0.867359 0
M  V30 6792 O 649.894 0.893824 1.57735 0
M  V30 6793 C 649.942 3.52921 -0.740232 0
M  V30 6794 O 649.046 4.11879 0.207154 0
M  V30 6795 H 648.387 0.629505 -0.211233 0
M  V30 6796 H 650.917 1.6487 -1.21158 0
M  V30 6797 H 650.927 4.0287 -0.644973 0
M  V30 6798 H 649.602 3.76508 -1.76677 0
M  V30 6799 H 648.179 3.72845 0.0643315 0
M  V30 6800 N 650.364 0.662433 1.43002 0
M  V30 6801 C 651.592 0.187615 2.06048 0
M  V30 6802 C 652.007 -1.15039 1.49705 0
M  V30 6803 O 651.364 -1.71209 0.631956 0
M  V30 6804 C 651.415 0.100498 3.6136 0
M  V30 6805 O 651.136 1.38562 4.15611 0
M  V30 6806 C 652.637 -0.399298 4.41498 0
M  V30 6807 H 649.857 0.0941675 0.664359 0
M  V30 6808 H 652.401 0.905681 1.83351 0
M  V30 6809 H 650.556 -0.568181 3.83211 0
M  V30 6810 H 650.97 1.25084 5.09366 0
M  V30 6811 H 652.444 -0.409187 5.50481 0
M  V30 6812 H 652.921 -1.43232 4.15188 0
M  V30 6813 H 653.527 0.23721 4.24638 0
M  V30 6814 N 651.842 -1.52309 0.404946 0
M  V30 6815 C 653.072 -2.05886 -0.171569 0
M  V30 6816 C 653.48 -1.27527 -1.39762 0
M  V30 6817 O 652.823 -0.319215 -1.80905 0
M  V30 6818 C 652.885 -3.54609 -0.590983 0
M  V30 6819 C 652.549 -4.53989 0.523757 0
M  V30 6820 C 653.546 -5.01084 1.38604 0
M  V30 6821 C 651.231 -4.97465 0.695255 0
M  V30 6822 C 653.225 -5.90295 2.4048 0
M  V30 6823 C 650.912 -5.86473 1.71733 0
M  V30 6824 C 651.91 -6.32782 2.57051 0
M  V30 6825 O 651.598 -7.20029 3.57509 0
M  V30 6826 H 651.33 -0.675508 -0.0257763 0
M  V30 6827 H 653.884 -1.97238 0.573278 0
M  V30 6828 H 652.114 -3.60929 -1.38805 0
M  V30 6829 H 653.803 -3.90853 -1.09494 0
M  V30 6830 H 654.569 -4.68214 1.26492 0
M  V30 6831 H 650.448 -4.60982 0.0408447 0
M  V30 6832 H 653.992 -6.26363 3.07108 0
M  V30 6833 H 649.889 -6.18756 1.83877 0
M  V30 6834 H 650.657 -7.3813 3.53703 0
M  V30 6835 N 653.32 -0.135238 -1.57019 0
M  V30 6836 C 654.736 0.221262 -1.58059 0
M  V30 6837 C 654.936 1.65538 -1.14889 0
M  V30 6838 O 653.992 2.37985 -0.843751 0
M  V30 6839 C 655.305 -0.0268114 -3.00688 0
M  V30 6840 C 656.853 0.0378206 -3.12977 0
M  V30 6841 C 657.328 -0.182769 -4.57635 0
M  V30 6842 N 658.819 -0.129292 -4.6302 0
M  V30 6843 C 659.554 -0.274648 -5.72742 0
M  V30 6844 N 659.05 -0.477075 -6.91155 0
M  V30 6845 N 660.843 -0.213077 -5.61696 0
M  V30 6846 H 652.994 -1.07177 -1.83376 0
M  V30 6847 H 655.257 -0.423338 -0.848227 0
M  V30 6848 H 654.963 -1.01889 -3.36618 0
M  V30 6849 H 654.837 0.697863 -3.70688 0
M  V30 6850 H 657.224 1.02043 -2.76896 0
M  V30 6851 H 657.305 -0.718996 -2.45487 0
M  V30 6852 H 656.949 -1.16243 -4.94419 0
M  V30 6853 H 656.879 0.59423 -5.23237 0
M  V30 6854 H 659.37 0.0229896 -3.77893 0
M  V30 6855 H 659.683 -0.578413 -7.70632 0
M  V30 6856 H 658.028 -0.513252 -6.93102 0
M  V30 6857 H 661.219 -0.0557796 -4.68067 0
M  V30 6858 H 661.392 -0.329796 -6.4716 0
M  V30 6859 N 654.798 1.5699 0.138552 0
M  V30 6860 C 656.038 1.85619 0.855849 0
M  V30 6861 C 656.402 0.720663 1.77962 0
M  V30 6862 O 657.603 0.888221 2.53701 0
M  V30 6863 C 655.874 3.19447 1.60275 0
M  V30 6864 S 657.433 3.69656 2.36431 0
M  V30 6865 H 654.251 0.650926 0.286035 0
M  V30 6866 H 656.853 1.9516 0.115331 0
M  V30 6867 H 655.557 4.00053 0.915737 0
M  V30 6868 H 655.088 3.12935 2.38402 0
M  V30 6869 H 657.103 3.39595 3.61787 0
M  V30 6870 N 656.276 -0.40816 1.52223 0
M  V30 6871 C 657.501 -1.18127 1.70472 0
M  V30 6872 C 657.926 -1.83491 0.41384 0
M  V30 6873 O 657.284 -1.70047 -0.628778 0
M  V30 6874 C 657.332 -2.21935 2.84213 0
M  V30 6875 O 656.436 -3.28099 2.4985 0
M  V30 6876 H 655.777 -0.344781 0.56747 0
M  V30 6877 H 658.307 -0.478328 1.9893 0
M  V30 6878 H 658.317 -2.66248 3.09153 0
M  V30 6879 H 656.992 -1.73744 3.7787 0
M  V30 6880 H 655.569 -2.89058 2.35584 0
M  V30 6881 N 657.755 -1.42862 -0.66545 0
M  V30 6882 C 658.985 -1.47032 -1.45138 0
M  V30 6883 C 659.393 -0.0829977 -1.89018 0
M  V30 6884 O 658.736 0.914551 -1.59316 0
M  V30 6885 C 658.798 -2.34302 -2.72659 0
M  V30 6886 C 658.462 -3.82034 -2.50796 0
M  V30 6887 C 659.459 -4.73453 -2.14799 0
M  V30 6888 C 657.144 -4.26397 -2.655 0
M  V30 6889 C 659.138 -6.07228 -1.93785 0
M  V30 6890 C 656.825 -5.6023 -2.44103 0
M  V30 6891 C 657.823 -6.50462 -2.08299 0
M  V30 6892 O 657.511 -7.8182 -1.87116 0
M  V30 6893 H 657.243 -0.501969 -0.452772 0
M  V30 6894 H 659.797 -1.88137 -0.82423 0
M  V30 6895 H 658.027 -1.88063 -3.37889 0
M  V30 6896 H 659.716 -2.29818 -3.34572 0
M  V30 6897 H 660.482 -4.4046 -2.03026 0
M  V30 6898 H 656.361 -3.56448 -2.92345 0
M  V30 6899 H 659.905 -6.7762 -1.65763 0
M  V30 6900 H 655.802 -5.92793 -2.55475 0
M  V30 6901 H 656.57 -7.93274 -2.01639 0
M  V30 6902 N 659.233 0.902656 -1.29189 0
M  V30 6903 C 660.165 2.01149 -1.09872 0
M  V30 6904 C 661.178 1.62732 -0.0471046 0
M  V30 6905 O 662.367 1.76107 -0.29132 0
M  V30 6906 C 659.467 3.32612 -0.649818 0
M  V30 6907 C 658.64 3.99574 -1.7793 0
M  V30 6908 C 657.699 5.09325 -1.32191 0
M  V30 6909 O 656.725 5.31919 -2.02611 0
M  V30 6910 N 657.927 5.80185 -0.191171 0
M  V30 6911 H 660.692 2.18276 -2.05368 0
M  V30 6912 H 658.253 1.07466 -1.2109 0
M  V30 6913 H 660.245 4.03375 -0.327199 0
M  V30 6914 H 658.815 3.11876 0.212597 0
M  V30 6915 H 658.035 3.22213 -2.27095 0
M  V30 6916 H 659.323 4.41056 -2.53668 0
M  V30 6917 H 658.721 5.64312 0.396016 0
M  V30 6918 H 657.278 6.5176 0.0721001 0
M  V30 6919 N 660.711 1.11618 1.11262 0
M  V30 6920 C 662.122 0.881942 1.64556 0
M  V30 6921 C 662.473 -0.585442 1.87262 0
M  V30 6922 O 661.598 -1.44795 1.60821 0
M  V30 6923 C 662.193 1.59446 2.98935 0
M  V30 6924 C 660.752 1.40661 3.4913 0
M  V30 6925 C 659.899 1.63593 2.23903 0
M  V30 6926 H 662.85 1.27217 0.94877 0
M  V30 6927 H 662.871 1.04054 3.65996 0
M  V30 6928 H 662.383 2.66241 2.82378 0
M  V30 6929 H 660.484 0.360835 3.70849 0
M  V30 6930 H 660.597 2.15693 4.27801 0
M  V30 6931 H 658.961 1.05944 2.3162 0
M  V30 6932 H 659.744 2.71666 2.09886 0
M  V30 6933 N 662.189 -1.289 0.906776 0
M  V30 6934 C 663.417 -1.99401 0.551969 0
M  V30 6935 C 663.832 -1.67816 -0.865048 0
M  V30 6936 O 663.189 -0.927078 -1.57199 0
M  V30 6937 C 663.24 -3.53779 0.743152 0
M  V30 6938 O 662.961 -3.84248 2.1044 0
M  V30 6939 C 664.462 -4.41543 0.39424 0
M  V30 6940 H 661.682 -0.636926 0.211106 0
M  V30 6941 H 664.226 -1.64266 1.21807 0
M  V30 6942 H 662.381 -3.87201 0.124143 0
M  V30 6943 H 662.795 -4.78904 2.13895 0
M  V30 6944 H 664.269 -5.48957 0.578814 0
M  V30 6945 H 664.746 -4.34073 -0.669137 0
M  V30 6946 H 665.352 -4.13605 0.990491 0
M  V30 6947 N 663.667 -0.670007 -1.42649 0
M  V30 6948 C 664.6 0.0613623 -2.28117 0
M  V30 6949 C 665.578 0.813414 -1.40792 0
M  V30 6950 O 666.762 0.809529 -1.70232 0
M  V30 6951 C 663.889 1.09399 -3.20546 0
M  V30 6952 C 662.935 0.438064 -4.24244 0
M  V30 6953 S 663.768 -0.800808 -5.29478 0
M  V30 6954 C 664.924 0.23086 -6.25474 0
M  V30 6955 H 665.157 -0.663606 -2.89799 0
M  V30 6956 H 662.69 -0.45939 -1.47407 0
M  V30 6957 H 664.648 1.68469 -3.74337 0
M  V30 6958 H 663.309 1.79137 -2.58009 0
M  V30 6959 H 662.502 1.21707 -4.89084 0
M  V30 6960 H 662.104 -0.0789346 -3.73917 0
M  V30 6961 H 664.396 1.09204 -6.68641 0
M  V30 6962 H 665.339 -0.382945 -7.07064 0
M  V30 6963 H 665.747 0.574191 -5.61572 0
M  V30 6964 N 665.145 1.52092 -0.413018 0
M  V30 6965 C 666.055 2.30858 0.417318 0
M  V30 6966 C 667.071 1.38746 1.05003 0
M  V30 6967 O 668.247 1.71821 1.05069 0
M  V30 6968 C 665.312 3.11756 1.51687 0
M  V30 6969 C 664.373 4.19613 0.906825 0
M  V30 6970 C 663.606 4.96644 1.95399 0
M  V30 6971 O 663.829 4.7402 3.17271 0
M  V30 6972 O 662.763 5.81385 1.55805 0
M  V30 6973 H 666.589 3.02865 -0.225028 0
M  V30 6974 H 664.174 1.48358 -0.176126 0
M  V30 6975 H 666.056 3.62122 2.15512 0
M  V30 6976 H 664.731 2.42539 2.14375 0
M  V30 6977 H 663.638 3.73385 0.231183 0
M  V30 6978 H 664.971 4.91134 0.323814 0
M  V30 6979 N 666.623 0.143563 1.56945 0
M  V30 6980 C 667.871 -0.507402 1.95627 0
M  V30 6981 C 668.192 -1.65626 1.02922 0
M  V30 6982 O 667.462 -1.95693 0.0901136 0
M  V30 6983 H 666.042 -0.190436 0.722318 0
M  V30 6984 H 668.704 0.218257 1.93674 0
M  V30 6985 H 667.8 -0.885816 2.99265 0
M  V30 6986 N 668.101 -1.57061 -0.130224 0
M  V30 6987 C 669.347 -1.8453 -0.841216 0
M  V30 6988 C 669.68 -0.727666 -1.80052 0
M  V30 6989 O 668.955 0.267419 -1.92653 0
M  V30 6990 C 669.238 -3.22553 -1.60099 0
M  V30 6991 C 669.091 -4.44901 -0.662048 0
M  V30 6992 C 670.41 -3.58003 -2.55973 0
M  V30 6993 H 667.529 -0.671215 -0.304366 0
M  V30 6994 H 670.171 -1.89705 -0.105821 0
M  V30 6995 H 668.321 -3.18272 -2.22789 0
M  V30 6996 H 669.993 -4.61278 -0.0448559 0
M  V30 6997 H 668.236 -4.33791 0.0272253 0
M  V30 6998 H 668.907 -5.3812 -1.23006 0
M  V30 6999 H 671.383 -3.63002 -2.03393 0
M  V30 7000 H 670.259 -4.55576 -3.06172 0
M  V30 7001 H 670.52 -2.84833 -3.38116 0
M  V30 7002 N 669.579 0.400081 -1.52437 0
M  V30 7003 C 670.529 1.48734 -1.72807 0
M  V30 7004 C 671.513 1.50004 -0.582032 0
M  V30 7005 O 672.705 1.55828 -0.839449 0
M  V30 7006 C 669.834 2.86568 -1.89034 0
M  V30 7007 C 668.92 2.8991 -3.09537 0
M  V30 7008 N 669.311 2.62937 -4.32086 0
M  V30 7009 C 667.609 3.21078 -3.09556 0
M  V30 7010 C 668.31 2.73079 -5.13617 0
M  V30 7011 N 667.286 3.06342 -4.49061 0
M  V30 7012 H 671.088 1.26689 -2.65193 0
M  V30 7013 H 668.602 0.607902 -1.50593 0
M  V30 7014 H 670.599 3.64834 -2.01746 0
M  V30 7015 H 669.259 3.09604 -0.978547 0
M  V30 7016 H 670.27 2.37163 -4.60406 0
M  V30 7017 H 666.947 3.49651 -2.28146 0
M  V30 7018 H 668.337 2.55863 -6.21276 0
M  V30 7019 N 671.057 1.43213 0.657864 0
M  V30 7020 C 672.285 1.48015 1.44566 0
M  V30 7021 C 672.7 0.0965951 1.88553 0
M  V30 7022 O 672.057 -0.892221 1.59203 0
M  V30 7023 C 672.108 2.42199 2.68369 0
M  V30 7024 O 671.829 3.75173 2.26223 0
M  V30 7025 C 673.33 2.56195 3.61772 0
M  V30 7026 H 670.55 0.502861 0.444266 0
M  V30 7027 H 673.094 1.87907 0.806917 0
M  V30 7028 H 671.249 2.05514 3.28394 0
M  V30 7029 H 671.663 4.25776 3.06293 0
M  V30 7030 H 673.137 3.26182 4.4532 0
M  V30 7031 H 673.614 1.60534 4.0881 0
M  V30 7032 H 674.22 2.93671 3.07632 0
M  V30 7033 N 672.536 -0.895792 1.29666 0
M  V30 7034 C 673.782 -1.64908 1.18039 0
M  V30 7035 C 674.115 -1.9236 -0.266682 0
M  V30 7036 O 673.39 -1.53682 -1.19214 0
M  V30 7037 C 673.673 -2.99574 1.99819 0
M  V30 7038 C 673.526 -2.79163 3.52687 0
M  V30 7039 C 674.845 -4.00358 1.82761 0
M  V30 7040 H 671.964 -0.598437 0.430165 0
M  V30 7041 H 674.606 -1.03736 1.59182 0
M  V30 7042 H 672.756 -3.51786 1.64859 0
M  V30 7043 H 674.428 -2.33821 3.9765 0
M  V30 7044 H 672.671 -2.13871 3.77414 0
M  V30 7045 H 673.342 -3.74871 4.05186 0
M  V30 7046 H 675.818 -3.57268 2.13304 0
M  V30 7047 H 674.694 -4.92514 2.42325 0
M  V30 7048 H 674.955 -4.35096 0.783839 0
M  V30 7049 N 674.014 -1.12206 -1.10668 0
M  V30 7050 C 674.964 -0.75669 -2.15077 0
M  V30 7051 C 675.948 0.243154 -1.59052 0
M  V30 7052 O 677.14 0.0490268 -1.76932 0
M  V30 7053 C 674.269 -0.210303 -3.42655 0
M  V30 7054 C 673.355 -1.23829 -4.05619 0
M  V30 7055 N 673.746 -2.43513 -4.43323 0
M  V30 7056 C 672.044 -1.08309 -4.32649 0
M  V30 7057 C 672.745 -3.09138 -4.92756 0
M  V30 7058 N 671.721 -2.36593 -4.89413 0
M  V30 7059 H 675.523 -1.66747 -2.42018 0
M  V30 7060 H 673.037 -1.00248 -1.27765 0
M  V30 7061 H 675.034 0.0696287 -4.16842 0
M  V30 7062 H 673.694 0.694967 -3.17176 0
M  V30 7063 H 674.705 -2.80912 -4.35097 0
M  V30 7064 H 671.382 -0.234919 -4.16839 0
M  V30 7065 H 672.772 -4.11049 -5.31496 0
M  V30 7066 N 675.492 1.28418 -0.913599 0
M  V30 7067 C 676.738 1.9527 -0.547484 0
M  V30 7068 C 677.071 1.71745 0.906486 0
M  V30 7069 O 676.346 1.03834 1.64465 0
M  V30 7070 C 676.629 3.49748 -0.857205 0
M  V30 7071 C 676.482 3.82675 -2.3639 0
M  V30 7072 C 677.801 4.3868 -0.353258 0
M  V30 7073 H 674.92 0.709236 -0.200381 0
M  V30 7074 H 677.562 1.51789 -1.14281 0
M  V30 7075 H 675.712 3.86915 -0.350548 0
M  V30 7076 H 677.384 3.55378 -2.94116 0
M  V30 7077 H 675.627 3.29724 -2.81894 0
M  V30 7078 H 676.298 4.90547 -2.53115 0
M  V30 7079 H 678.774 4.08584 -0.787288 0
M  V30 7080 H 677.65 5.45621 -0.599049 0
M  V30 7081 H 677.911 4.35753 0.746413 0
M  V30 7082 N 676.97 0.677563 1.42291 0
M  V30 7083 C 678.198 0.209459 2.05837 0
M  V30 7084 C 678.613 -1.13444 1.50917 0
M  V30 7085 O 677.97 -1.70529 0.65008 0
M  V30 7086 C 678.021 0.138819 3.61233 0
M  V30 7087 O 677.742 1.42962 4.14118 0
M  V30 7088 C 679.243 -0.352449 4.41897 0
M  V30 7089 H 676.463 0.101209 0.663323 0
M  V30 7090 H 679.007 0.925077 1.8238 0
M  V30 7091 H 677.162 -0.527505 3.83792 0
M  V30 7092 H 677.576 1.3048 5.08011 0
M  V30 7093 H 679.05 -0.350778 5.50884 0
M  V30 7094 H 679.527 -1.3882 4.16684 0
M  V30 7095 H 680.133 0.282236 4.24362 0
M  V30 7096 N 678.448 -1.51871 0.421078 0
M  V30 7097 C 679.695 -2.01938 -0.15079 0
M  V30 7098 C 680.023 -1.30611 -1.44121 0
M  V30 7099 O 679.278 -0.404631 -1.91471 0
M  V30 7100 C 679.577 -3.54764 -0.433292 0
M  V30 7101 C 679.243 -4.44288 0.76936 0
M  V30 7102 C 677.905 -4.68477 1.09921 0
M  V30 7103 C 680.257 -4.96915 1.57242 0
M  V30 7104 C 677.585 -5.4254 2.2331 0
M  V30 7105 C 679.937 -5.7222 2.69716 0
M  V30 7106 C 678.601 -5.94678 3.03174 0
M  V30 7107 H 677.871 -0.738943 -0.0551781 0
M  V30 7108 H 680.518 -1.82977 0.564945 0
M  V30 7109 H 678.823 -3.71968 -1.23074 0
M  V30 7110 H 680.52 -3.91023 -0.888922 0
M  V30 7111 H 677.11 -4.25646 0.502305 0
M  V30 7112 H 681.294 -4.78125 1.3308 0
M  V30 7113 H 676.55 -5.58146 2.49565 0
M  V30 7114 H 680.724 -6.11992 3.32323 0
M  V30 7115 H 678.351 -6.51848 3.9115 0
M  V30 7116 N 679.926 -0.151884 -1.56866 0
M  V30 7117 C 680.889 0.771861 -2.15812 0
M  V30 7118 C 681.889 1.17181 -1.10115 0
M  V30 7119 O 683.079 1.09194 -1.35729 0
M  V30 7120 C 680.211 2.04806 -2.7252 0
M  V30 7121 H 681.404 0.259021 -2.98779 0
M  V30 7122 H 678.957 0.097588 -1.55995 0
M  V30 7123 H 679.692 2.60445 -1.93233 0
M  V30 7124 H 679.477 1.77044 -3.49854 0
M  V30 7125 H 680.967 2.70771 -3.1792 0
M  V30 7126 N 681.404 1.57128 0.121893 0
M  V30 7127 C 682.652 1.84335 0.828548 0
M  V30 7128 C 682.973 0.736632 1.80551 0
M  V30 7129 O 682.243 -0.23962 1.94429 0
M  V30 7130 H 680.823 0.680108 0.30897 0
M  V30 7131 H 683.485 1.9459 0.109906 0
M  V30 7132 H 682.581 2.80152 1.37554 0
M  V30 7133 N 682.882 -0.391992 1.52647 0
M  V30 7134 C 684.128 -1.139 1.67793 0
M  V30 7135 C 684.461 -1.89711 0.41514 0
M  V30 7136 O 683.736 -1.85431 -0.586979 0
M  V30 7137 C 684.019 -2.11966 2.91105 0
M  V30 7138 C 683.872 -1.39939 4.27478 0
M  V30 7139 C 685.191 -3.1243 3.09961 0
M  V30 7140 H 682.31 -0.412707 0.610608 0
M  V30 7141 H 684.952 -0.422725 1.85238 0
M  V30 7142 H 683.102 -2.73048 2.76364 0
M  V30 7143 H 684.774 -0.818439 4.53982 0
M  V30 7144 H 683.017 -0.701246 4.28095 0
M  V30 7145 H 683.688 -2.1158 5.09841 0
M  V30 7146 H 686.164 -2.61435 3.23714 0
M  V30 7147 H 685.04 -3.78294 3.97725 0
M  V30 7148 H 685.301 -3.81127 2.24042 0
M  V30 7149 N 684.36 -1.4356 -0.65026 0
M  V30 7150 C 685.771 -1.40324 -1.2315 0
M  V30 7151 C 686.122 -0.108812 -1.95898 0
M  V30 7152 O 685.247 0.79163 -2.01401 0
M  V30 7153 C 685.842 -2.54195 -2.23987 0
M  V30 7154 C 684.401 -2.54215 -2.77582 0
M  V30 7155 C 683.548 -2.31752 -1.5227 0
M  V30 7156 H 686.499 -1.52418 -0.442095 0
M  V30 7157 H 686.52 -2.25854 -3.0622 0
M  V30 7158 H 686.032 -3.48392 -1.71011 0
M  V30 7159 H 684.133 -1.63907 -3.34612 0
M  V30 7160 H 684.246 -3.52081 -3.24925 0
M  V30 7161 H 682.61 -1.80476 -1.79723 0
M  V30 7162 H 683.393 -3.28037 -1.01225 0
M  V30 7163 N 685.838 0.888903 -1.30139 0
M  V30 7164 C 687.087 1.63507 -1.18103 0
M  V30 7165 C 687.4 1.93808 0.264141 0
M  V30 7166 O 688.606 2.66744 0.505966 0
M  V30 7167 C 687.062 2.94673 -2.0663 0
M  V30 7168 C 686.67 2.71926 -3.56034 0
M  V30 7169 C 688.414 3.72626 -2.03346 0
M  V30 7170 C 686.321 3.98884 -4.3663 0
M  V30 7171 H 685.251 0.613426 -0.438435 0
M  V30 7172 H 687.902 0.984427 -1.54859 0
M  V30 7173 H 686.284 3.61009 -1.62754 0
M  V30 7174 H 687.458 2.14116 -4.08033 0
M  V30 7175 H 685.773 2.07353 -3.61101 0
M  V30 7176 H 688.37 4.66775 -2.60816 0
M  V30 7177 H 688.713 4.03712 -1.016 0
M  V30 7178 H 689.246 3.13147 -2.45324 0
M  V30 7179 H 685.985 3.72959 -5.39056 0
M  V30 7180 H 685.505 4.56214 -3.89396 0
M  V30 7181 H 687.184 4.66938 -4.47859 0
M  V30 7182 N 687.317 1.12792 1.10072 0
M  V30 7183 C 688.728 0.899346 1.63611 0
M  V30 7184 C 689.079 -0.565547 1.87872 0
M  V30 7185 O 688.204 -1.43081 1.62348 0
M  V30 7186 C 688.799 1.62608 2.97227 0
M  V30 7187 C 687.358 1.44356 3.47618 0
M  V30 7188 C 686.505 1.65958 2.22156 0
M  V30 7189 H 689.456 1.28216 0.935223 0
M  V30 7190 H 689.477 1.0793 3.64872 0
M  V30 7191 H 688.989 2.69221 2.79538 0
M  V30 7192 H 687.09 0.400148 3.70445 0
M  V30 7193 H 687.203 2.20218 4.25489 0
M  V30 7194 H 685.567 1.08395 2.30484 0
M  V30 7195 H 686.35 2.73877 2.06993 0
M  V30 7196 N 688.795 -1.27931 0.920396 0
M  V30 7197 C 690.211 -1.47085 0.619537 0
M  V30 7198 C 690.411 -1.83463 -0.833291 0
M  V30 7199 O 689.467 -1.94363 -1.61181 0
M  V30 7200 C 690.78 -2.56878 1.56314 0
M  V30 7201 C 692.328 -2.70743 1.57058 0
M  V30 7202 C 692.803 -3.83687 2.50097 0
M  V30 7203 N 694.294 -3.9105 2.48262 0
M  V30 7204 C 695.029 -4.77842 3.16945 0
M  V30 7205 N 694.525 -5.69176 3.94982 0
M  V30 7206 N 696.318 -4.71509 3.06 0
M  V30 7207 H 688.469 -1.02601 1.85975 0
M  V30 7208 H 690.732 -0.511682 0.798051 0
M  V30 7209 H 690.438 -2.36923 2.59923 0
M  V30 7210 H 690.312 -3.54117 1.29928 0
M  V30 7211 H 692.699 -2.90083 0.541832 0
M  V30 7212 H 692.78 -1.74015 1.8749 0
M  V30 7213 H 692.424 -3.65101 3.53077 0
M  V30 7214 H 692.354 -4.79827 2.16964 0
M  V30 7215 H 694.845 -3.25738 1.91581 0
M  V30 7216 H 695.158 -6.32245 4.44394 0
M  V30 7217 H 693.503 -5.68995 3.99086 0
M  V30 7218 H 696.694 -3.99151 2.44533 0
M  V30 7219 H 696.867 -5.38933 3.59799 0
M  V30 7220 N 690.273 -0.685099 -1.4193 0
M  V30 7221 C 691.498 -0.218842 -2.06242 0
M  V30 7222 C 691.923 1.11923 -1.51178 0
M  V30 7223 O 691.281 1.69837 -0.634446 0
M  V30 7224 C 691.329 -0.175592 -3.60172 0
M  V30 7225 O 690.433 0.852776 -4.03487 0
M  V30 7226 H 689.774 -0.109531 -0.654904 0
M  V30 7227 H 692.304 -0.937013 -1.81882 0
M  V30 7228 H 692.314 -0.00291151 -4.08 0
M  V30 7229 H 690.989 -1.15222 -3.99621 0
M  V30 7230 H 689.566 0.650301 -3.67186 0
M  V30 7231 N 691.751 1.51645 -0.429126 0
M  V30 7232 C 693.162 1.86665 0.0359003 0
M  V30 7233 C 693.513 1.34677 1.42676 0
M  V30 7234 O 692.638 0.694195 2.04963 0
M  V30 7235 C 693.233 3.38724 0.0719221 0
M  V30 7236 C 691.792 3.7331 0.481336 0
M  V30 7237 C 690.939 2.75313 -0.331329 0
M  V30 7238 H 693.89 1.44987 -0.645333 0
M  V30 7239 H 693.911 3.7011 0.883118 0
M  V30 7240 H 693.423 3.76532 -0.940495 0
M  V30 7241 H 691.524 3.41088 1.49966 0
M  V30 7242 H 691.637 4.78631 0.211837 0
M  V30 7243 H 690.001 2.53839 0.209204 0
M  V30 7244 H 690.784 3.15963 -1.34247 0
M  V30 7245 N 693.229 0.160201 1.56784 0
M  V30 7246 C 694.459 -0.493449 2.00621 0
M  V30 7247 C 694.867 -1.5809 1.03943 0
M  V30 7248 O 694.21 -1.83675 0.0305343 0
M  V30 7249 C 694.272 -1.14169 3.4089 0
M  V30 7250 C 693.936 -0.197243 4.56574 0
M  V30 7251 C 694.933 0.580174 5.16653 0
M  V30 7252 C 692.618 -0.0963038 5.02208 0
M  V30 7253 C 694.612 1.44584 6.20785 0
M  V30 7254 C 692.299 0.772959 6.06192 0
M  V30 7255 C 693.297 1.54263 6.65351 0
M  V30 7256 O 692.985 2.39738 7.67321 0
M  V30 7257 H 692.717 -0.131764 0.663034 0
M  V30 7258 H 695.271 0.255728 2.03802 0
M  V30 7259 H 693.501 -1.93877 3.34587 0
M  V30 7260 H 695.19 -1.69641 3.6875 0
M  V30 7261 H 695.956 0.5123 4.82287 0
M  V30 7262 H 691.835 -0.685143 4.5588 0
M  V30 7263 H 695.379 2.04706 6.66889 0
M  V30 7264 H 691.276 0.842077 6.39984 0
M  V30 7265 H 692.044 2.33131 7.84597 0
M  V30 7266 N 694.707 -1.5719 -0.113559 0
M  V30 7267 C 695.935 -1.89328 -0.834422 0
M  V30 7268 C 696.35 -0.752018 -1.73177 0
M  V30 7269 O 695.707 0.276912 -1.80387 0
M  V30 7270 C 695.758 -3.20962 -1.66329 0
M  V30 7271 O 695.479 -4.30695 -0.802069 0
M  V30 7272 C 696.98 -3.6684 -2.48884 0
M  V30 7273 H 694.2 -0.626769 -0.239587 0
M  V30 7274 H 696.744 -2.04273 -0.0963195 0
M  V30 7275 H 694.899 -3.0767 -2.35409 0
M  V30 7276 H 695.313 -5.06175 -1.37431 0
M  V30 7277 H 696.787 -4.61692 -3.02563 0
M  V30 7278 H 697.264 -2.93765 -3.26495 0
M  V30 7279 H 697.87 -3.82938 -1.85036 0
M  V30 7280 N 696.185 0.383891 -1.52853 0
M  V30 7281 C 697.431 1.13009 -1.68395 0
M  V30 7282 C 697.764 1.89488 -0.425195 0
M  V30 7283 O 697.039 1.8574 0.577136 0
M  V30 7284 C 697.322 2.10419 -2.92226 0
M  V30 7285 C 697.175 1.3767 -4.28214 0
M  V30 7286 C 698.494 3.10781 -3.11614 0
M  V30 7287 H 695.613 0.409463 -0.612788 0
M  V30 7288 H 698.255 0.412895 -1.85459 0
M  V30 7289 H 696.405 2.71579 -2.77808 0
M  V30 7290 H 698.077 0.794352 -4.54409 0
M  V30 7291 H 696.32 0.678533 -4.2846 0
M  V30 7292 H 696.991 2.08874 -5.10956 0
M  V30 7293 H 699.467 2.59715 -3.25096 0
M  V30 7294 H 698.343 3.76179 -3.99725 0
M  V30 7295 H 698.604 3.79933 -2.2606 0
M  V30 7296 N 697.663 1.43903 0.642637 0
M  V30 7297 C 698.891 1.4954 1.42988 0
M  V30 7298 C 699.306 0.116588 1.8844 0
M  V30 7299 O 698.663 -0.875285 1.60141 0
M  V30 7300 C 698.714 2.45031 2.65785 0
M  V30 7301 O 698.435 3.77551 2.22232 0
M  V30 7302 C 699.936 2.60017 3.59035 0
M  V30 7303 H 697.156 0.507544 0.438907 0
M  V30 7304 H 699.7 1.88752 0.786942 0
M  V30 7305 H 697.855 2.08985 3.26196 0
M  V30 7306 H 698.269 4.29001 3.01759 0
M  V30 7307 H 699.743 3.30887 4.41835 0
M  V30 7308 H 700.22 1.64861 4.07084 0
M  V30 7309 H 700.826 2.96918 3.045 0
M  V30 7310 N 699.141 -0.881989 1.30609 0
M  V30 7311 C 700.387 -1.63647 1.19781 0
M  V30 7312 C 700.72 -1.92632 -0.246265 0
M  V30 7313 O 699.995 -1.54938 -1.17577 0
M  V30 7314 C 700.278 -2.97437 2.02985 0
M  V30 7315 C 700.131 -2.75406 3.55628 0
M  V30 7316 C 701.45 -3.98397 1.86997 0
M  V30 7317 H 698.569 -0.593841 0.436488 0
M  V30 7318 H 701.211 -1.02041 1.60273 0
M  V30 7319 H 699.361 -3.50018 1.68581 0
M  V30 7320 H 701.033 -2.2959 4.00107 0
M  V30 7321 H 699.276 -2.09856 3.79662 0
M  V30 7322 H 699.947 -3.70552 4.09139 0
M  V30 7323 H 702.423 -3.54986 2.17081 0
M  V30 7324 H 701.299 -4.89916 2.47536 0
M  V30 7325 H 701.56 -4.3424 0.829943 0
M  V30 7326 N 700.619 -1.13374 -1.09472 0
M  V30 7327 C 701.867 -0.893422 -1.8128 0
M  V30 7328 C 702.188 0.582029 -1.86111 0
M  V30 7329 O 701.458 1.42305 -1.34633 0
M  V30 7330 H 700.038 -0.327543 -0.67136 0
M  V30 7331 H 702.7 -1.43018 -1.32408 0
M  V30 7332 H 701.796 -1.28374 -2.84476 0
M  V30 7333 N 702.098 1.27442 -0.927168 0
M  V30 7334 C 703.03 2.25975 -0.383158 0
M  V30 7335 C 704.043 1.55382 0.485832 0
M  V30 7336 O 705.232 1.75986 0.298541 0
M  V30 7337 C 702.332 3.35629 0.469688 0
M  V30 7338 C 701.505 4.35747 -0.379886 0
M  V30 7339 C 700.564 5.24598 0.410227 0
M  V30 7340 O 699.59 5.68909 -0.181888 0
M  V30 7341 N 700.792 5.54737 1.71017 0
M  V30 7342 H 703.557 2.7329 -1.23015 0
M  V30 7343 H 701.118 1.41063 -0.794539 0
M  V30 7344 H 703.11 3.92015 1.00532 0
M  V30 7345 H 701.68 2.87919 1.21744 0
M  V30 7346 H 700.9 3.78634 -1.09682 0
M  V30 7347 H 702.188 4.99648 -0.960717 0
M  V30 7348 H 701.586 5.20594 2.21356 0
M  V30 7349 H 700.143 6.13824 2.19234 0
M  V30 7350 N 703.576 0.692616 1.41565 0
M  V30 7351 C 704.539 0.0344174 2.29174 0
M  V30 7352 C 705.539 -0.710961 1.44229 0
M  V30 7353 O 706.729 -0.546293 1.65412 0
M  V30 7354 C 703.861 -0.961682 3.27054 0
M  V30 7355 H 705.054 0.805755 2.88873 0
M  V30 7356 H 702.607 0.455947 1.49502 0
M  V30 7357 H 703.342 -1.76089 2.72329 0
M  V30 7358 H 703.127 -0.430375 3.89731 0
M  V30 7359 H 704.617 -1.4201 3.92712 0
M  V30 7360 N 705.054 -1.51416 0.437162 0
M  V30 7361 C 706.294 -2.03995 -0.128538 0
M  V30 7362 C 706.658 -1.31417 -1.39977 0
M  V30 7363 O 707.859 -1.74369 -2.0457 0
M  V30 7364 C 706.13 -3.55757 -0.342317 0
M  V30 7365 S 707.689 -4.3006 -0.871446 0
M  V30 7366 H 704.507 -0.710283 -0.0319322 0
M  V30 7367 H 707.109 -1.86177 0.596526 0
M  V30 7368 H 705.813 -4.06148 0.589233 0
M  V30 7369 H 705.344 -3.77869 -1.09447 0
M  V30 7370 H 707.359 -4.47248 -2.14903 0
M  V30 7371 N 706.532 -0.168513 -1.56696 0
M  V30 7372 C 707.48 0.779791 -2.19139 0
M  V30 7373 C 708.474 1.23957 -1.1546 0
M  V30 7374 O 709.68 1.20555 -1.33666 0
M  V30 7375 H 706.055 0.269739 -0.701958 0
M  V30 7376 H 708.026 0.229156 -2.97519 0
M  V30 7377 C 706.775 2.00003 -2.84419 0
M  V30 7378 H 706.098 1.65527 -3.63924 0
M  V30 7379 H 707.538 2.64251 -3.31583 0
M  V30 7380 C 705.997 2.82187 -1.84044 0
M  V30 7381 O 706.527 3.79247 -1.32418 0
M  V30 7382 N 704.733 2.47145 -1.52864 0
M  V30 7383 H 704.28 1.68277 -1.9504 0
M  V30 7384 H 704.238 3.02422 -0.859569 0
M  V30 7385 N 708.01 1.57248 0.105221 0
M  V30 7386 C 709.421 1.74612 0.660865 0
M  V30 7387 C 709.772 0.789231 1.79626 0
M  V30 7388 O 708.897 -0.0346611 2.16372 0
M  V30 7389 C 709.492 3.16624 1.20559 0
M  V30 7390 C 708.051 3.35447 1.7074 0
M  V30 7391 C 707.198 2.70445 0.612764 0
M  V30 7392 H 710.149 1.5824 -0.12079 0
M  V30 7393 H 710.17 3.18937 2.07508 0
M  V30 7394 H 709.682 3.86245 0.379012 0
M  V30 7395 H 707.783 2.7089 2.5583 0
M  V30 7396 H 707.896 4.43702 1.80736 0
M  V30 7397 H 706.26 2.32061 1.04975 0
M  V30 7398 H 707.043 3.42699 -0.203066 0
M  V30 7399 N 709.488 -0.375779 1.53054 0
M  V30 7400 C 710.713 -1.14484 1.7294 0
M  V30 7401 C 711.138 -1.82572 0.452668 0
M  V30 7402 O 710.496 -1.71343 -0.592567 0
M  V30 7403 C 710.544 -2.15857 2.88857 0
M  V30 7404 O 709.648 -3.22725 2.56753 0
M  V30 7405 H 708.989 -0.332666 0.574656 0
M  V30 7406 H 711.519 -0.436025 1.999 0
M  V30 7407 H 711.529 -2.59631 3.14731 0
M  V30 7408 H 710.204 -1.65689 3.81471 0
M  V30 7409 H 708.781 -2.83996 2.41663 0
M  V30 7410 N 710.966 -1.44241 -0.634997 0
M  V30 7411 C 711.929 -1.50457 -1.72903 0
M  V30 7412 C 712.929 -0.387058 -1.56072 0
M  V30 7413 O 714.119 -0.649531 -1.61638 0
M  V30 7414 C 711.251 -1.37477 -3.1195 0
M  V30 7415 H 712.444 -2.47907 -1.68767 0
M  V30 7416 H 709.997 -1.31276 -0.84831 0
M  V30 7417 H 710.732 -0.41106 -3.21684 0
M  V30 7418 H 710.517 -2.18506 -3.25573 0
M  V30 7419 H 712.007 -1.44799 -3.91692 0
M  V30 7420 N 712.444 0.87505 -1.31075 0
M  V30 7421 C 713.684 1.64174 -1.21763 0
M  V30 7422 C 714.048 1.90713 0.221933 0
M  V30 7423 O 715.249 2.652 0.438458 0
M  V30 7424 C 713.52 2.93932 -2.0332 0
M  V30 7425 S 715.079 3.84841 -2.10815 0
M  V30 7426 H 711.897 0.563358 -0.433761 0
M  V30 7427 H 714.499 1.03788 -1.65675 0
M  V30 7428 H 713.203 2.72349 -3.07009 0
M  V30 7429 H 712.734 3.59345 -1.60108 0
M  V30 7430 H 714.749 4.80385 -1.24276 0
M  V30 7431 N 713.922 1.13953 1.08869 0
M  V30 7432 C 715.338 0.878924 1.33218 0
M  V30 7433 C 715.538 -0.482478 1.95638 0
M  V30 7434 O 714.594 -1.22778 2.2064 0
M  V30 7435 C 715.907 2.00798 2.23832 0
M  V30 7436 C 717.455 2.04073 2.37325 0
M  V30 7437 C 717.93 3.16258 3.31278 0
M  V30 7438 N 719.421 3.15805 3.38853 0
M  V30 7439 C 720.156 3.99249 4.11567 0
M  V30 7440 N 719.652 4.92721 4.87029 0
M  V30 7441 N 721.445 3.87327 4.0735 0
M  V30 7442 H 713.596 2.01645 0.66731 0
M  V30 7443 H 715.859 0.878395 0.356547 0
M  V30 7444 H 715.565 2.98986 1.85203 0
M  V30 7445 H 715.439 1.92704 3.24261 0
M  V30 7446 H 717.826 1.06495 2.75214 0
M  V30 7447 H 717.907 2.16239 1.36654 0
M  V30 7448 H 717.551 4.14079 2.9411 0
M  V30 7449 H 717.481 3.0133 4.31866 0
M  V30 7450 H 719.972 2.48102 2.8505 0
M  V30 7451 H 720.285 5.52867 5.39961 0
M  V30 7452 H 718.63 4.96723 4.86098 0
M  V30 7453 H 721.821 3.13627 3.475 0
M  V30 7454 H 721.994 4.52585 4.63757 0
M  V30 7455 N 715.4 -1.26948 0.933913 0
M  V30 7456 C 716.363 -2.24889 0.442457 0
M  V30 7457 C 717.363 -1.54594 -0.442426 0
M  V30 7458 O 718.553 -1.72502 -0.242629 0
M  V30 7459 C 715.685 -3.3896 -0.363173 0
M  V30 7460 H 716.878 -2.69879 1.30787 0
M  V30 7461 H 714.431 -1.38978 0.715187 0
M  V30 7462 H 715.166 -2.99361 -1.24714 0
M  V30 7463 H 714.951 -3.9116 0.271366 0
M  V30 7464 H 716.441 -4.11739 -0.697186 0
M  V30 7465 N 716.879 -0.700114 -1.41195 0
M  V30 7466 C 718.125 -0.233351 -2.01453 0
M  V30 7467 C 718.458 1.16548 -1.55339 0
M  V30 7468 O 717.733 1.78756 -0.766575 0
M  V30 7469 C 718.016 -0.2961 -3.58881 0
M  V30 7470 C 717.869 -1.7322 -4.15108 0
M  V30 7471 C 719.188 0.341525 -4.38773 0
M  V30 7472 H 716.307 -0.0862667 -0.731934 0
M  V30 7473 H 718.949 -0.889693 -1.67882 0
M  V30 7474 H 717.099 0.262736 -3.87611 0
M  V30 7475 H 718.771 -2.34523 -3.97236 0
M  V30 7476 H 717.014 -2.2649 -3.69979 0
M  V30 7477 H 717.685 -1.7276 -5.24269 0
M  V30 7478 H 720.161 -0.134461 -4.15883 0
M  V30 7479 H 719.037 0.267098 -5.4825 0
M  V30 7480 H 719.298 1.42289 -4.18577 0
M  V30 7481 N 718.357 1.51182 -0.445186 0
M  V30 7482 C 719.605 2.01753 0.11841 0
M  V30 7483 C 719.926 1.33087 1.42523 0
M  V30 7484 O 719.196 0.467891 1.9023 0
M  V30 7485 H 717.776 0.745536 0.0467492 0
M  V30 7486 H 720.438 1.85765 -0.589688 0
M  V30 7487 H 719.534 3.10762 0.288665 0
M  V30 7488 N 719.835 0.176821 1.56605 0
M  V30 7489 C 721.251 -0.179278 1.5859 0
M  V30 7490 C 721.451 -1.62433 1.19238 0
M  V30 7491 O 720.507 -2.35665 0.906552 0
M  V30 7492 C 721.82 0.106524 3.00511 0
M  V30 7493 C 723.368 0.0451731 3.12967 0
M  V30 7494 C 723.843 0.304038 4.5699 0
M  V30 7495 N 725.334 0.252008 4.62514 0
M  V30 7496 C 726.069 0.426404 5.71812 0
M  V30 7497 N 725.565 0.660155 6.89648 0
M  V30 7498 N 727.358 0.361926 5.60934 0
M  V30 7499 H 719.509 1.12001 1.8047 0
M  V30 7500 H 721.772 0.445679 0.836704 0
M  V30 7501 H 721.478 1.10778 3.33798 0
M  V30 7502 H 721.352 -0.599337 3.72408 0
M  V30 7503 H 723.739 -0.946662 2.79504 0
M  V30 7504 H 723.82 0.78383 2.43495 0
M  V30 7505 H 723.464 1.29311 4.91163 0
M  V30 7506 H 723.394 -0.455294 5.24628 0
M  V30 7507 H 725.885 0.0772102 3.77821 0
M  V30 7508 H 726.198 0.782529 7.68828 0
M  V30 7509 H 724.543 0.696835 6.91498 0
M  V30 7510 H 727.734 0.17986 4.67754 0
M  V30 7511 H 727.907 0.501263 6.46058 0
M  V30 7512 N 721.313 -1.57302 -0.09688 0
M  V30 7513 C 722.561 -1.8563 -0.799117 0
M  V30 7514 C 722.882 -0.765263 -1.79356 0
M  V30 7515 O 722.152 0.208657 -1.94786 0
M  V30 7516 H 720.732 -0.684937 -0.298111 0
M  V30 7517 H 723.394 -1.9474 -0.0789341 0
M  V30 7518 H 722.49 -2.82305 -1.3308 0
M  V30 7519 N 722.791 0.367657 -1.53252 0
M  V30 7520 C 723.721 1.45632 -1.8252 0
M  V30 7521 C 724.702 1.55979 -0.678568 0
M  V30 7522 O 725.887 1.70581 -0.928217 0
M  V30 7523 C 723.017 2.82994 -2.01325 0
M  V30 7524 C 721.971 2.87473 -3.17086 0
M  V30 7525 C 721.297 4.2749 -3.21179 0
M  V30 7526 C 722.597 2.55182 -4.55719 0
M  V30 7527 H 724.291 1.21387 -2.73689 0
M  V30 7528 H 721.837 0.58251 -1.31692 0
M  V30 7529 H 723.79 3.59179 -2.20383 0
M  V30 7530 H 722.514 3.08622 -1.06864 0
M  V30 7531 H 721.173 2.13739 -2.97844 0
M  V30 7532 H 720.821 4.5019 -2.24361 0
M  V30 7533 H 720.521 4.31403 -3.98955 0
M  V30 7534 H 722.045 5.0555 -3.42419 0
M  V30 7535 H 723.459 3.21081 -4.74953 0
M  V30 7536 H 721.856 2.70414 -5.3572 0
M  V30 7537 H 722.926 1.5044 -4.60973 0
M  V30 7538 N 724.269 1.44576 0.627338 0
M  V30 7539 C 725.201 1.47724 1.75243 0
M  V30 7540 C 726.214 0.370193 1.58535 0
M  V30 7541 O 727.403 0.636151 1.66779 0
M  V30 7542 C 724.503 1.2991 3.13012 0
M  V30 7543 C 723.676 2.5393 3.56143 0
M  V30 7544 C 722.735 2.30961 4.72804 0
M  V30 7545 O 721.761 3.04469 4.80923 0
M  V30 7546 N 722.963 1.34261 5.6476 0
M  V30 7547 H 725.728 2.44718 1.73012 0
M  V30 7548 H 723.289 1.40064 0.812022 0
M  V30 7549 H 725.281 1.12385 3.88782 0
M  V30 7550 H 723.851 0.412668 3.09864 0
M  V30 7551 H 723.071 2.86707 2.70542 0
M  V30 7552 H 724.359 3.36411 3.81713 0
M  V30 7553 H 723.757 0.735573 5.60897 0
M  V30 7554 H 722.314 1.22713 6.40144 0
M  V30 7555 N 725.747 -0.868086 1.31537 0
M  V30 7556 C 727.158 -1.437 1.19195 0
M  V30 7557 C 727.509 -1.95169 -0.200842 0
M  V30 7558 O 726.634 -1.86432 -1.09872 0
M  V30 7559 C 727.229 -2.612 2.15778 0
M  V30 7560 C 725.788 -3.1413 2.07363 0
M  V30 7561 C 724.935 -1.86845 2.049 0
M  V30 7562 H 727.886 -0.676457 1.43561 0
M  V30 7563 H 727.907 -3.37948 1.74847 0
M  V30 7564 H 727.419 -2.23709 3.17137 0
M  V30 7565 H 725.52 -3.56238 1.09204 0
M  V30 7566 H 725.633 -3.76285 2.96557 0
M  V30 7567 H 723.997 -2.05886 1.49943 0
M  V30 7568 H 724.78 -1.51589 3.08019 0
M  V30 7569 N 727.225 -1.14528 -1.08264 0
M  V30 7570 C 728.172 -0.833556 -2.15222 0
M  V30 7571 C 729.142 0.209539 -1.64773 0
M  V30 7572 O 730.327 0.0791388 -1.90636 0
M  V30 7573 C 727.467 -0.318799 -3.43624 0
M  V30 7574 C 726.58 -1.42237 -4.07913 0
M  V30 7575 C 725.715 -0.864704 -5.24115 0
M  V30 7576 C 724.754 -1.94585 -5.80347 0
M  V30 7577 N 723.891 -1.40525 -6.87893 0
M  V30 7578 H 728.731 -1.74965 -2.41228 0
M  V30 7579 H 726.268 -0.873169 -1.18381 0
M  V30 7580 H 728.226 -0.00213088 -4.172 0
M  V30 7581 H 726.856 0.560397 -3.17898 0
M  V30 7582 H 725.908 -1.8554 -3.32083 0
M  V30 7583 H 727.22 -2.23901 -4.45724 0
M  V30 7584 H 726.374 -0.500025 -6.04636 0
M  V30 7585 H 725.113 -0.0171219 -4.87697 0
M  V30 7586 H 724.118 -2.31946 -4.98479 0
M  V30 7587 H 725.343 -2.79704 -6.18823 0
M  V30 7588 H 723.289 -0.579873 -6.53432 0
M  V30 7589 H 723.206 -2.15825 -7.24538 0
M  V30 7590 H 724.474 -1.06852 -7.72142 0
M  V30 7591 N 728.703 1.26451 -0.940633 0
M  V30 7592 C 729.951 1.93395 -0.586748 0
M  V30 7593 C 730.272 1.7417 0.876921 0
M  V30 7594 O 729.542 1.097 1.62304 0
M  V30 7595 H 728.122 0.715687 -0.214012 0
M  V30 7596 H 730.784 1.53902 -1.19584 0
M  V30 7597 H 729.88 3.01565 -0.804059 0
M  V30 7598 N 730.181 0.707592 1.40822 0
M  V30 7599 C 731.427 0.244031 2.01326 0
M  V30 7600 C 731.76 -1.15722 1.55955 0
M  V30 7601 O 731.035 -1.78347 0.776044 0
M  V30 7602 C 731.318 0.315128 3.58718 0
M  V30 7603 C 731.171 1.75419 4.14184 0
M  V30 7604 C 732.49 -0.318251 4.38948 0
M  V30 7605 H 729.609 0.0901471 0.731466 0
M  V30 7606 H 732.251 0.898584 1.67408 0
M  V30 7607 H 730.401 -0.242176 3.87744 0
M  V30 7608 H 732.073 2.36626 3.95987 0
M  V30 7609 H 730.316 2.28449 3.68773 0
M  V30 7610 H 730.987 1.75538 5.23345 0
M  V30 7611 H 733.463 0.156514 4.15806 0
M  V30 7612 H 732.339 -0.238019 5.48384 0
M  V30 7613 H 732.6 -1.40067 4.19325 0
M  V30 7614 N 731.66 -1.50943 0.453197 0
M  V30 7615 C 733.076 -1.59245 0.106342 0
M  V30 7616 C 733.276 -1.46287 -1.38572 0
M  V30 7617 O 732.332 -1.31219 -2.15726 0
M  V30 7618 C 733.645 -2.93797 0.640595 0
M  V30 7619 C 735.193 -3.07148 0.602435 0
M  V30 7620 C 735.668 -4.44247 1.11393 0
M  V30 7621 N 737.159 -4.50611 1.07258 0
M  V30 7622 C 737.894 -5.55049 1.43905 0
M  V30 7623 N 737.39 -6.66828 1.87914 0
M  V30 7624 N 739.183 -5.45494 1.35621 0
M  V30 7625 H 731.334 -1.5761 1.42382 0
M  V30 7626 H 733.597 -0.74384 0.587713 0
M  V30 7627 H 733.303 -3.087 1.68515 0
M  V30 7628 H 733.177 -3.77127 0.0742272 0
M  V30 7629 H 735.564 -2.91903 -0.433171 0
M  V30 7630 H 735.645 -2.25619 1.20539 0
M  V30 7631 H 735.289 -4.60239 2.14808 0
M  V30 7632 H 735.219 -5.2434 0.487353 0
M  V30 7633 H 737.71 -3.70391 0.749585 0
M  V30 7634 H 738.023 -7.42558 2.14072 0
M  V30 7635 H 736.368 -6.67995 1.91853 0
M  V30 7636 H 739.559 -4.57053 1.01093 0
M  V30 7637 H 739.732 -6.2677 1.64508 0
M  V30 7638 N 733.138 -0.185124 -1.56509 0
M  V30 7639 C 734.384 0.456934 -1.97585 0
M  V30 7640 C 734.717 1.61957 -1.07161 0
M  V30 7641 O 733.992 1.9412 -0.121546 0
M  V30 7642 C 734.275 0.926666 -3.47973 0
M  V30 7643 C 734.128 -0.237097 -4.49175 0
M  V30 7644 C 735.447 1.79561 -4.01803 0
M  V30 7645 H 732.566 0.164619 -0.71838 0
M  V30 7646 H 735.208 -0.274039 -1.88013 0
M  V30 7647 H 733.358 1.54954 -3.56261 0
M  V30 7648 H 735.03 -0.87454 -4.52934 0
M  V30 7649 H 733.273 -0.890446 -4.24563 0
M  V30 7650 H 733.944 0.133924 -5.51838 0
M  V30 7651 H 736.42 1.27039 -3.96232 0
M  V30 7652 H 735.296 2.09327 -5.07418 0
M  V30 7653 H 735.557 2.74629 -3.46455 0
M  V30 7654 N 734.616 1.57351 0.0885366 0
M  V30 7655 C 735.563 2.02523 1.10693 0
M  V30 7656 C 736.533 0.902736 1.39427 0
M  V30 7657 O 737.718 1.16921 1.50779 0
M  V30 7658 C 734.858 2.46013 2.42016 0
M  V30 7659 C 733.971 3.7181 2.19957 0
M  V30 7660 C 733.106 4.04152 3.44724 0
M  V30 7661 C 732.145 5.2304 3.17956 0
M  V30 7662 N 731.282 5.51102 4.35007 0
M  V30 7663 H 736.122 2.89302 0.714742 0
M  V30 7664 H 733.659 1.43084 0.341378 0
M  V30 7665 H 735.617 2.69274 3.18665 0
M  V30 7666 H 734.247 1.62235 2.79069 0
M  V30 7667 H 733.299 3.55987 1.34079 0
M  V30 7668 H 734.611 4.58604 1.96173 0
M  V30 7669 H 733.765 4.28225 4.29777 0
M  V30 7670 H 732.504 3.15893 3.71568 0
M  V30 7671 H 731.509 4.98781 2.31296 0
M  V30 7672 H 732.734 6.12902 2.92451 0
M  V30 7673 H 730.68 4.65802 4.61914 0
M  V30 7674 H 730.597 6.3228 4.14437 0
M  V30 7675 H 731.865 5.79714 5.21106 0
M  V30 7676 N 736.094 -0.359525 1.53444 0
M  V30 7677 C 737.004 -1.46445 1.83278 0
M  V30 7678 C 738.02 -1.5833 0.721629 0
M  V30 7679 O 739.196 -1.7411 1.01231 0
M  V30 7680 C 736.261 -2.81638 2.02191 0
M  V30 7681 C 735.322 -2.7923 3.26082 0
M  V30 7682 C 734.555 -4.07974 3.44082 0
M  V30 7683 O 734.778 -5.04447 2.66251 0
M  V30 7684 O 733.712 -4.13417 4.37458 0
M  V30 7685 H 737.538 -1.24156 2.77162 0
M  V30 7686 H 735.123 -0.550201 1.389 0
M  V30 7687 H 737.005 -3.61732 2.16167 0
M  V30 7688 H 735.68 -3.03892 1.11496 0
M  V30 7689 H 734.587 -1.97813 3.17523 0
M  V30 7690 H 735.92 -2.6193 4.16718 0
M  V30 7691 N 737.572 -1.44907 -0.619662 0
M  V30 7692 C 738.8 -1.51795 -1.40591 0
M  V30 7693 C 739.215 -0.146553 -1.8823 0
M  V30 7694 O 738.572 0.849698 -1.61513 0
M  V30 7695 C 738.623 -2.49229 -2.61853 0
M  V30 7696 O 738.344 -3.81039 -2.16197 0
M  V30 7697 C 739.845 -2.65696 -3.54853 0
M  V30 7698 H 737.065 -0.514463 -0.430777 0
M  V30 7699 H 739.609 -1.8998 -0.756813 0
M  V30 7700 H 737.764 -2.14149 -3.2283 0
M  V30 7701 H 738.178 -4.33747 -2.94896 0
M  V30 7702 H 739.652 -3.37874 -4.36515 0
M  V30 7703 H 740.129 -1.71316 -4.0441 0
M  V30 7704 H 740.735 -3.01724 -2.99737 0
M  V30 7705 N 739.05 0.861098 -1.31996 0
M  V30 7706 C 740.013 1.95068 -1.20338 0
M  V30 7707 C 741.013 1.60289 -0.128114 0
M  V30 7708 O 742.203 1.70048 -0.378044 0
M  V30 7709 C 739.335 3.30153 -0.849205 0
M  V30 7710 H 740.528 2.06833 -2.17164 0
M  V30 7711 H 738.081 1.05049 -1.15734 0
M  V30 7712 H 738.816 3.24087 0.117508 0
M  V30 7713 H 738.601 3.56771 -1.62655 0
M  V30 7714 H 740.091 4.10025 -0.791782 0
M  V30 7715 N 740.528 1.15101 1.07655 0
M  V30 7716 C 741.805 0.834578 1.76902 0
M  V30 7717 C 742.185 -0.670431 2.00171 0
M  V30 7718 O 741.533 -1.61378 1.6177 0
M  V30 7719 C 741.743 1.64191 3.07965 0
M  V30 7720 C 743.091 1.84615 3.82364 0
M  V30 7721 O 744.115 1.60941 3.17768 0
M  V30 7722 O 742.974 2.24244 4.98374 0
M  V30 7723 H 740.068 0.306608 0.768063 0
M  V30 7724 H 742.614 1.25663 1.14048 0
M  V30 7725 H 741.386 2.66386 2.86626 0
M  V30 7726 H 741.009 1.216 3.78549 0
M  V30 7727 N 742.006 -1.2595 0.947325 0
M  V30 7728 C 743.253 -1.93463 0.598178 0
M  V30 7729 C 743.581 -1.74271 -0.863705 0
M  V30 7730 O 742.836 -1.07684 -1.63409 0
M  V30 7731 C 743.135 -3.46034 0.894158 0
M  V30 7732 C 742.801 -3.85373 2.3409 0
M  V30 7733 C 741.463 -3.95823 2.73637 0
M  V30 7734 C 743.815 -4.04986 3.2808 0
M  V30 7735 C 741.143 -4.23288 4.06257 0
M  V30 7736 C 743.495 -4.3394 4.60303 0
M  V30 7737 C 742.159 -4.42606 4.99656 0
M  V30 7738 H 741.429 -0.707933 0.218889 0
M  V30 7739 H 744.076 -1.4964 1.19499 0
M  V30 7740 H 742.381 -3.9121 0.214874 0
M  V30 7741 H 744.078 -3.96445 0.602698 0
M  V30 7742 H 740.668 -3.7779 2.02417 0
M  V30 7743 H 744.852 -3.96333 2.9872 0
M  V30 7744 H 740.108 -4.28211 4.36401 0
M  V30 7745 H 744.282 -4.48061 5.33118 0
M  V30 7746 H 741.909 -4.63641 6.02446 0
M  V30 7747 N 743.484 -0.715051 -1.40445 0
M  V30 7748 C 744.431 -0.0621393 -2.30716 0
M  V30 7749 C 745.401 0.750871 -1.48159 0
M  V30 7750 O 746.586 0.714928 -1.76899 0
M  V30 7751 C 743.726 0.854036 -3.34365 0
M  V30 7752 C 742.839 0.0305565 -4.31989 0
M  V30 7753 C 741.974 0.946162 -5.22706 0
M  V30 7754 C 741.013 0.116741 -6.11989 0
M  V30 7755 N 740.15 0.987194 -6.95125 0
M  V30 7756 H 744.99 -0.83764 -2.85985 0
M  V30 7757 H 742.527 -0.424759 -1.40834 0
M  V30 7758 H 744.485 1.39946 -3.93028 0
M  V30 7759 H 743.115 1.59572 -2.806 0
M  V30 7760 H 742.167 -0.632044 -3.75112 0
M  V30 7761 H 743.479 -0.611615 -4.95036 0
M  V30 7762 H 742.633 1.56014 -5.86297 0
M  V30 7763 H 741.372 1.62216 -4.59932 0
M  V30 7764 H 740.377 -0.510176 -5.47428 0
M  V30 7765 H 741.602 -0.555742 -6.76822 0
M  V30 7766 H 739.548 1.64885 -6.3494 0
M  V30 7767 H 739.465 0.401046 -7.54936 0
M  V30 7768 H 740.733 1.58737 -7.63166 0
M  V30 7769 N 744.962 1.50701 -0.461195 0
M  V30 7770 C 746.208 2.02566 0.0973411 0
M  V30 7771 C 746.541 1.3432 1.40257 0
M  V30 7772 O 745.816 0.465692 1.88843 0
M  V30 7773 C 746.099 3.58919 0.291423 0
M  V30 7774 C 745.952 4.37751 -1.03413 0
M  V30 7775 C 747.271 4.27379 1.05048 0
M  V30 7776 H 744.39 0.73622 0.0339026 0
M  V30 7777 H 747.032 1.80115 -0.604855 0
M  V30 7778 H 745.182 3.78179 0.889539 0
M  V30 7779 H 746.854 4.30085 -1.66806 0
M  V30 7780 H 745.097 4.01885 -1.63313 0
M  V30 7781 H 745.768 5.45384 -0.852085 0
M  V30 7782 H 748.244 4.12534 0.543603 0
M  V30 7783 H 747.12 5.36609 1.15506 0
M  V30 7784 H 747.381 3.89868 2.0846 0
M  V30 7785 N 746.441 0.193421 1.56409 0
M  V30 7786 C 747.671 -0.450783 2.01622 0
M  V30 7787 C 748.079 -1.5585 1.07273 0
M  V30 7788 O 747.422 -1.83569 0.0694875 0
M  V30 7789 C 747.484 -1.06913 3.43235 0
M  V30 7790 C 747.148 -0.100352 4.5689 0
M  V30 7791 C 748.145 0.689633 5.15306 0
M  V30 7792 C 745.83 0.0102436 5.02299 0
M  V30 7793 C 747.824 1.5772 6.17579 0
M  V30 7794 C 745.511 0.901368 6.04416 0
M  V30 7795 C 746.509 1.68341 6.61929 0
M  V30 7796 O 746.197 2.5596 7.62063 0
M  V30 7797 H 745.929 -0.117671 0.66568 0
M  V30 7798 H 748.483 0.2989 2.03214 0
M  V30 7799 H 746.713 -1.86736 3.38624 0
M  V30 7800 H 748.402 -1.61781 3.72266 0
M  V30 7801 H 749.168 0.614485 4.81092 0
M  V30 7802 H 745.047 -0.58829 4.57231 0
M  V30 7803 H 748.591 2.18805 6.62397 0
M  V30 7804 H 744.488 0.977637 6.38054 0
M  V30 7805 H 745.256 2.49721 7.79475 0
M  V30 7806 N 747.919 -1.57396 -0.0801906 0
M  V30 7807 C 749.147 -1.91055 -0.794075 0
M  V30 7808 C 749.562 -0.788583 -1.71542 0
M  V30 7809 O 748.919 0.238587 -1.80934 0
M  V30 7810 C 748.97 -3.24418 -1.59484 0
M  V30 7811 O 748.691 -4.323 -0.710532 0
M  V30 7812 C 750.192 -3.72037 -2.41046 0
M  V30 7813 H 747.412 -0.63171 -0.226238 0
M  V30 7814 H 749.956 -2.04431 -0.0529685 0
M  V30 7815 H 748.111 -3.12595 -2.2883 0
M  V30 7816 H 748.525 -5.08976 -1.26663 0
M  V30 7817 H 749.999 -4.68006 -2.92702 0
M  V30 7818 H 750.476 -3.00624 -3.2019 0
M  V30 7819 H 751.082 -3.86777 -1.76871 0
M  V30 7820 N 749.397 0.351382 -1.53633 0
M  V30 7821 C 750.344 1.43115 -1.81071 0
M  V30 7822 C 751.314 1.52601 -0.655913 0
M  V30 7823 O 752.499 1.68264 -0.89955 0
M  V30 7824 C 749.639 2.79874 -2.01903 0
M  V30 7825 C 748.752 2.79242 -3.29618 0
M  V30 7826 C 747.887 4.07667 -3.40559 0
M  V30 7827 C 746.926 4.01233 -4.62254 0
M  V30 7828 N 746.063 5.21334 -4.70271 0
M  V30 7829 H 750.903 1.19017 -2.73201 0
M  V30 7830 H 748.44 0.576691 -1.35324 0
M  V30 7831 H 750.398 3.5934 -2.11969 0
M  V30 7832 H 749.028 3.0234 -1.13094 0
M  V30 7833 H 748.08 1.91927 -3.28433 0
M  V30 7834 H 749.392 2.70363 -4.19172 0
M  V30 7835 H 748.546 4.95555 -3.50015 0
M  V30 7836 H 747.285 4.19317 -2.49047 0
M  V30 7837 H 746.29 3.11732 -4.52884 0
M  V30 7838 H 747.515 3.91173 -5.55122 0
M  V30 7839 H 745.461 5.33543 -3.81665 0
M  V30 7840 H 745.378 5.14681 -5.5375 0
M  V30 7841 H 746.646 6.11014 -4.84027 0
M  V30 7842 N 750.875 1.45233 0.611969 0
M  V30 7843 C 752.123 1.48727 1.36838 0
M  V30 7844 C 752.444 0.128616 1.94575 0
M  V30 7845 O 751.714 -0.84149 1.76906 0
M  V30 7846 H 750.294 0.547695 0.507976 0
M  V30 7847 H 752.956 1.81156 0.718925 0
M  V30 7848 H 752.052 2.2236 2.19003 0
M  V30 7849 N 752.353 -0.854086 1.3245 0
M  V30 7850 C 753.316 -1.94427 1.21371 0
M  V30 7851 C 754.316 -1.60219 0.136613 0
M  V30 7852 O 755.506 -1.69846 0.387057 0
M  V30 7853 C 752.638 -3.29698 0.866701 0
M  V30 7854 H 753.831 -2.05679 2.18257 0
M  V30 7855 H 751.384 -1.04434 1.1629 0
M  V30 7856 H 752.119 -3.24145 -0.100319 0
M  V30 7857 H 751.904 -3.55903 1.64545 0
M  V30 7858 H 753.394 -4.09599 0.813515 0
M  V30 7859 N 753.831 -1.1567 -1.07043 0
M  V30 7860 C 755.079 -0.931673 -1.79344 0
M  V30 7861 C 755.4 0.542421 -1.87304 0
M  V30 7862 O 754.67 1.39418 -1.37621 0
M  V30 7863 H 753.25 -0.34171 -0.664262 0
M  V30 7864 H 755.912 -1.45795 -1.29344 0
M  V30 7865 H 755.008 -1.34379 -2.81689 0
M  V30 7866 N 755.309 1.25446 -0.953992 0
M  V30 7867 C 756.534 1.97755 -0.625129 0
M  V30 7868 C 756.959 1.70437 0.795787 0
M  V30 7869 O 756.317 0.95992 1.53803 0
M  V30 7870 C 756.365 3.49463 -0.889251 0
M  V30 7871 O 755.469 4.12387 0.0322757 0
M  V30 7872 H 754.81 0.61998 -0.237742 0
M  V30 7873 H 757.34 1.59582 -1.28041 0
M  V30 7874 H 757.35 3.99772 -0.815263 0
M  V30 7875 H 756.025 3.68676 -1.92487 0
M  V30 7876 H 754.602 3.72782 -0.0938625 0
M  V30 7877 N 756.787 0.722489 1.40064 0
M  V30 7878 C 758.035 0.264455 2.00362 0
M  V30 7879 C 758.356 -1.14847 1.57592 0
M  V30 7880 O 757.626 -1.77982 0.818477 0
M  V30 7881 H 756.206 0.0947846 0.740962 0
M  V30 7882 H 758.868 0.929659 1.71299 0
M  V30 7883 H 757.964 0.302977 3.10626 0
M  V30 7884 N 758.265 -1.50454 0.469181 0
M  V30 7885 C 759.175 -2.32248 -0.331349 0
M  V30 7886 C 760.191 -1.42548 -0.997807 0
M  V30 7887 O 761.367 -1.75602 -0.9862 0
M  V30 7888 C 758.432 -3.17171 -1.40012 0
M  V30 7889 C 757.493 -4.2269 -0.750463 0
M  V30 7890 C 756.726 -5.03554 -1.76831 0
M  V30 7891 O 756.949 -4.85469 -2.99459 0
M  V30 7892 O 755.883 -5.86767 -1.3412 0
M  V30 7893 H 759.709 -3.01821 0.337279 0
M  V30 7894 H 757.294 -1.47602 0.231066 0
M  V30 7895 H 759.176 -3.69871 -2.01924 0
M  V30 7896 H 757.851 -2.50328 -2.05226 0
M  V30 7897 H 756.758 -3.73986 -0.0924446 0
M  V30 7898 H 758.091 -4.91997 -0.14131 0
M  V30 7899 N 759.743 -0.201713 -1.56304 0
M  V30 7900 C 760.673 0.71155 -2.22394 0
M  V30 7901 C 761.654 1.21625 -1.18917 0
M  V30 7902 O 762.839 1.26388 -1.47444 0
M  V30 7903 C 759.969 1.92837 -2.88845 0
M  V30 7904 C 758.923 1.55831 -3.98623 0
M  V30 7905 C 758.249 2.85228 -4.52271 0
M  V30 7906 C 759.549 0.763249 -5.16693 0
M  V30 7907 H 761.243 0.160573 -2.98969 0
M  V30 7908 H 758.789 0.0757916 -1.438 0
M  V30 7909 H 760.742 2.57253 -3.33764 0
M  V30 7910 H 759.466 2.50398 -2.09686 0
M  V30 7911 H 758.125 0.9377 -3.54405 0
M  V30 7912 H 757.773 3.40893 -3.69866 0
M  V30 7913 H 757.473 2.6121 -5.26349 0
M  V30 7914 H 758.997 3.50622 -4.99897 0
M  V30 7915 H 760.411 1.31066 -5.58117 0
M  V30 7916 H 758.808 0.620935 -5.96879 0
M  V30 7917 H 759.878 -0.234322 -4.84334 0
M  V30 7918 N 761.222 1.57436 0.0718424 0
M  V30 7919 C 762.169 2.03686 1.08539 0
M  V30 7920 C 763.139 0.917474 1.38462 0
M  V30 7921 O 764.324 1.18513 1.4953 0
M  V30 7922 C 761.464 2.48566 2.39393 0
M  V30 7923 C 760.577 3.74122 2.16001 0
M  V30 7924 C 759.712 4.07786 3.40418 0
M  V30 7925 C 758.751 5.26383 3.1239 0
M  V30 7926 N 757.888 5.55685 4.29138 0
M  V30 7927 H 762.728 2.90043 0.684018 0
M  V30 7928 H 760.265 1.43438 0.326183 0
M  V30 7929 H 762.223 2.72639 3.15791 0
M  V30 7930 H 760.853 1.65186 2.77333 0
M  V30 7931 H 759.905 3.57389 1.30296 0
M  V30 7932 H 761.217 4.60659 1.91298 0
M  V30 7933 H 760.371 4.32759 4.25211 0
M  V30 7934 H 759.11 3.19817 3.68197 0
M  V30 7935 H 758.115 5.01206 2.25993 0
M  V30 7936 H 759.34 6.1597 2.85934 0
M  V30 7937 H 757.286 4.70675 4.56948 0
M  V30 7938 H 757.203 6.3664 4.07708 0
M  V30 7939 H 758.471 5.85209 5.14928 0
M  V30 7940 N 762.7 -0.34323 1.53817 0
M  V30 7941 C 763.946 -1.08504 1.71332 0
M  V30 7942 C 764.279 -1.88294 0.475285 0
M  V30 7943 O 763.554 -1.87205 -0.527688 0
M  V30 7944 C 763.837 -2.02597 2.97702 0
M  V30 7945 C 763.69 -1.26268 4.31713 0
M  V30 7946 C 765.009 -3.0241 3.19744 0
M  V30 7947 H 762.128 -0.393072 0.623429 0
M  V30 7948 H 764.77 -0.363579 1.86489 0
M  V30 7949 H 762.92 -2.64118 2.8491 0
M  V30 7950 H 764.592 -0.673594 4.56356 0
M  V30 7951 H 762.835 -0.564696 4.30109 0
M  V30 7952 H 763.506 -1.95253 5.16314 0
M  V30 7953 H 765.982 -2.51004 3.31868 0
M  V30 7954 H 764.858 -3.65449 4.09558 0
M  V30 7955 H 765.119 -3.73806 2.36054 0
M  V30 7956 N 764.178 -1.45556 -0.604258 0
M  V30 7957 C 765.406 -1.53278 -1.38973 0
M  V30 7958 C 765.821 -0.166509 -1.88064 0
M  V30 7959 O 765.178 0.832519 -1.62405 0
M  V30 7960 C 765.229 -2.51992 -2.59195 0
M  V30 7961 O 764.95 -3.8331 -2.12143 0
M  V30 7962 C 766.451 -2.69445 -3.52015 0
M  V30 7963 H 763.671 -0.519003 -0.425297 0
M  V30 7964 H 766.215 -1.90773 -0.736621 0
M  V30 7965 H 764.37 -2.17561 -3.2054 0
M  V30 7966 H 764.784 -4.3685 -2.90279 0
M  V30 7967 H 766.258 -3.42485 -4.32907 0
M  V30 7968 H 766.735 -1.75596 -4.0257 0
M  V30 7969 H 767.341 -3.04886 -2.9652 0
M  V30 7970 N 765.656 0.84705 -1.32902 0
M  V30 7971 C 766.902 1.60414 -1.24078 0
M  V30 7972 C 767.235 1.93217 0.195105 0
M  V30 7973 O 766.51 1.58001 1.13428 0
M  V30 7974 C 766.793 2.91951 -2.108 0
M  V30 7975 C 766.646 2.6588 -3.62805 0
M  V30 7976 C 767.965 3.93299 -1.97494 0
M  V30 7977 H 765.084 0.58206 -0.452079 0
M  V30 7978 H 767.726 0.977562 -1.62922 0
M  V30 7979 H 765.876 3.45425 -1.77802 0
M  V30 7980 H 767.548 2.18902 -4.06054 0
M  V30 7981 H 765.791 1.99716 -3.85092 0
M  V30 7982 H 766.462 3.59574 -4.1882 0
M  V30 7983 H 768.938 3.49105 -2.26417 0
M  V30 7984 H 767.814 4.8318 -2.60438 0
M  V30 7985 H 768.075 4.31887 -0.944782 0
M  V30 7986 N 767.134 1.16236 1.06428 0
M  V30 7987 C 768.081 0.86769 2.13869 0
M  V30 7988 C 769.051 -0.183298 1.65086 0
M  V30 7989 O 770.236 -0.0488002 1.90738 0
M  V30 7990 C 767.376 0.373427 3.43074 0
M  V30 7991 C 766.489 1.48708 4.05598 0
M  V30 7992 C 765.624 0.947977 5.22673 0
M  V30 7993 C 764.663 2.03793 5.77178 0
M  V30 7994 N 763.8 1.51451 6.85571 0
M  V30 7995 H 768.64 1.78781 2.38414 0
M  V30 7996 H 766.177 0.891892 1.16977 0
M  V30 7997 H 768.135 0.0685035 4.17144 0
M  V30 7998 H 766.765 -0.509752 3.1875 0
M  V30 7999 H 765.817 1.908 3.29089 0
M  V30 8000 H 767.129 2.30964 4.42105 0
M  V30 8001 H 766.283 0.596154 6.03764 0
M  V30 8002 H 765.022 0.0947081 4.87608 0
M  V30 8003 H 764.027 2.39847 4.94726 0
M  V30 8004 H 765.252 2.89514 6.14295 0
M  V30 8005 H 763.198 0.683755 6.52427 0
M  V30 8006 H 763.115 2.27325 7.21013 0
M  V30 8007 H 764.383 1.19123 7.70344 0
M  V30 8008 N 768.612 -1.24939 0.960631 0
M  V30 8009 C 769.86 -1.92437 0.617441 0
M  V30 8010 C 770.181 -1.75543 -0.849101 0
M  V30 8011 O 769.451 -1.12269 -1.60538 0
M  V30 8012 H 768.031 -0.712192 0.225371 0
M  V30 8013 H 770.693 -1.5198 1.22017 0
M  V30 8014 H 769.789 -3.00247 0.851933 0
M  V30 8015 N 770.09 -0.729906 -1.39679 0
M  V30 8016 C 771.501 -0.346241 -1.83461 0
M  V30 8017 C 771.852 1.1215 -1.60987 0
M  V30 8018 O 770.977 1.86456 -1.09832 0
M  V30 8019 C 771.572 -0.621656 -3.33048 0
M  V30 8020 C 770.131 -0.291543 -3.75269 0
M  V30 8021 C 769.278 -0.886844 -2.62736 0
M  V30 8022 H 772.229 -0.927949 -1.28743 0
M  V30 8023 H 772.25 0.108301 -3.80346 0
M  V30 8024 H 771.762 -1.68996 -3.49373 0
M  V30 8025 H 769.863 0.771133 -3.64533 0
M  V30 8026 H 769.976 -0.770544 -4.72863 0
M  V30 8027 H 768.34 -0.313839 -2.52759 0
M  V30 8028 H 769.123 -1.95971 -2.81869 0
M  V30 8029 N 771.568 1.50203 -0.477153 0
M  V30 8030 C 772.515 2.28656 0.31386 0
M  V30 8031 C 773.485 1.33977 0.981802 0
M  V30 8032 O 774.67 1.62919 0.993072 0
M  V30 8033 C 771.81 3.16027 1.38639 0
M  V30 8034 C 770.923 4.25743 0.732615 0
M  V30 8035 C 770.058 5.00363 1.78355 0
M  V30 8036 C 769.097 6.01945 1.11035 0
M  V30 8037 N 768.234 6.6982 2.10441 0
M  V30 8038 H 773.074 2.958 -0.361445 0
M  V30 8039 H 770.611 1.45867 -0.190093 0
M  V30 8040 H 772.569 3.6504 2.01994 0
M  V30 8041 H 771.199 2.50917 2.03077 0
M  V30 8042 H 770.251 3.80398 -0.0136546 0
M  V30 8043 H 771.563 4.98393 0.201513 0
M  V30 8044 H 770.717 5.53124 2.49276 0
M  V30 8045 H 769.456 4.27432 2.34847 0
M  V30 8046 H 768.461 5.48438 0.386797 0
M  V30 8047 H 769.686 6.76851 0.552248 0
M  V30 8048 H 767.632 5.99677 2.65939 0
M  V30 8049 H 767.549 7.38366 1.62332 0
M  V30 8050 H 768.817 7.27196 2.80724 0
M  V30 8051 N 773.046 0.209999 1.56195 0
M  V30 8052 C 774.294 -0.423974 1.97603 0
M  V30 8053 C 774.615 -1.61112 1.09854 0
M  V30 8054 O 773.885 -1.95134 0.173032 0
M  V30 8055 H 772.465 -0.159629 0.729745 0
M  V30 8056 H 775.127 0.300205 1.92574 0
M  V30 8057 H 774.223 -0.75809 3.02753 0
M  V30 8058 N 774.524 -1.57472 -0.0634922 0
M  V30 8059 C 775.434 -2.07621 -1.09227 0
M  V30 8060 C 776.45 -1.00746 -1.41867 0
M  V30 8061 O 777.626 -1.32269 -1.51878 0
M  V30 8062 C 774.691 -2.51707 -2.38421 0
M  V30 8063 C 773.752 -3.72917 -2.12676 0
M  V30 8064 C 772.985 -4.14891 -3.3571 0
M  V30 8065 O 773.208 -3.56663 -4.45137 0
M  V30 8066 O 772.142 -5.07616 -3.23434 0
M  V30 8067 H 775.968 -2.95612 -0.696205 0
M  V30 8068 H 773.553 -1.46787 -0.27819 0
M  V30 8069 H 775.435 -2.80547 -3.14438 0
M  V30 8070 H 774.11 -1.66842 -2.77391 0
M  V30 8071 H 773.017 -3.49148 -1.34337 0
M  V30 8072 H 774.35 -4.5866 -1.78583 0
M  V30 8073 N 776.003 0.335068 -1.53997 0
M  V30 8074 C 776.913 1.43511 -1.85585 0
M  V30 8075 C 777.929 1.57162 -0.746726 0
M  V30 8076 O 779.105 1.72477 -1.03988 0
M  V30 8077 C 776.17 2.78386 -2.06646 0
M  V30 8078 C 775.231 2.74007 -3.30483 0
M  V30 8079 C 774.464 4.02449 -3.50529 0
M  V30 8080 O 774.687 5.00147 -2.74242 0
M  V30 8081 O 773.621 4.06405 -4.4398 0
M  V30 8082 H 777.447 1.19731 -2.79102 0
M  V30 8083 H 775.032 0.528033 -1.39758 0
M  V30 8084 H 776.914 3.58247 -2.21894 0
M  V30 8085 H 775.589 3.0208 -1.16317 0
M  V30 8086 H 774.496 1.92736 -3.2063 0
M  V30 8087 H 775.829 2.55267 -4.20832 0
M  V30 8088 N 777.481 1.45874 0.596531 0
M  V30 8089 C 778.897 1.30524 0.918459 0
M  V30 8090 C 779.097 0.266429 1.99731 0
M  V30 8091 O 778.153 -0.335809 2.50257 0
M  V30 8092 C 779.466 2.68747 1.3489 0
M  V30 8093 C 781.014 2.7673 1.46251 0
M  V30 8094 C 781.489 4.15504 1.92667 0
M  V30 8095 N 782.98 4.17853 1.99883 0
M  V30 8096 C 783.715 5.22109 2.37044 0
M  V30 8097 N 783.211 6.36704 2.73094 0
M  V30 8098 N 785.004 5.09471 2.37479 0
M  V30 8099 H 777.155 2.12081 -0.116368 0
M  V30 8100 H 779.418 0.947941 0.0106033 0
M  V30 8101 H 779.124 3.46006 0.630288 0
M  V30 8102 H 778.998 2.97942 2.31323 0
M  V30 8103 H 781.385 1.99768 2.17202 0
M  V30 8104 H 781.466 2.51236 0.481054 0
M  V30 8105 H 781.11 4.92956 1.223 0
M  V30 8106 H 781.04 4.38396 2.91747 0
M  V30 8107 H 783.531 3.35163 1.74568 0
M  V30 8108 H 783.844 7.12041 3.00362 0
M  V30 8109 H 782.189 6.40087 2.70764 0
M  V30 8110 H 785.38 4.18987 2.08728 0
M  V30 8111 H 785.553 5.90837 2.66112 0
M  V30 8112 N 778.959 -0.83999 1.33349 0
M  V30 8113 C 780.205 -1.59753 1.24927 0
M  V30 8114 C 780.538 -1.93318 -0.184855 0
M  V30 8115 O 779.813 -1.586 -1.12589 0
M  V30 8116 C 780.096 -2.90829 2.12345 0
M  V30 8117 C 779.949 -2.63953 3.6421 0
M  V30 8118 C 781.268 -3.92246 1.99577 0
M  V30 8119 H 778.387 -0.579654 0.45516 0
M  V30 8120 H 781.029 -0.968909 1.63439 0
M  V30 8121 H 779.179 -3.44478 1.79631 0
M  V30 8122 H 780.851 -2.16745 4.07209 0
M  V30 8123 H 779.094 -1.97671 3.86146 0
M  V30 8124 H 779.765 -3.57348 4.20721 0
M  V30 8125 H 782.241 -3.479 2.28265 0
M  V30 8126 H 781.117 -4.81793 2.62996 0
M  V30 8127 H 781.378 -4.3138 0.967673 0
M  V30 8128 N 780.437 -1.16799 -1.0581 0
M  V30 8129 C 781.384 -0.87902 -2.13405 0
M  V30 8130 C 782.354 0.174541 -1.6518 0
M  V30 8131 O 783.539 0.0386843 -1.90761 0
M  V30 8132 C 780.679 -0.391616 -3.42871 0
M  V30 8133 C 779.792 -1.50857 -4.04804 0
M  V30 8134 C 778.927 -0.975682 -5.22163 0
M  V30 8135 C 777.966 -2.06851 -5.76089 0
M  V30 8136 N 777.103 -1.55085 -6.84758 0
M  V30 8137 H 781.943 -1.80043 -2.37463 0
M  V30 8138 H 779.48 -0.898083 -1.16503 0
M  V30 8139 H 781.438 -0.0906247 -4.17102 0
M  V30 8140 H 780.068 0.49284 -3.19016 0
M  V30 8141 H 779.12 -1.92542 -3.28073 0
M  V30 8142 H 780.432 -2.33305 -4.40874 0
M  V30 8143 H 779.586 -0.628165 -6.03439 0
M  V30 8144 H 778.325 -0.120566 -4.87551 0
M  V30 8145 H 777.33 -2.42467 -4.93447 0
M  V30 8146 H 778.555 -2.92768 -6.12751 0
M  V30 8147 H 776.501 -0.718345 -6.52055 0
M  V30 8148 H 776.418 -2.31145 -7.19797 0
M  V30 8149 H 777.686 -1.23206 -7.69702 0
M  V30 8150 N 781.915 1.24427 -0.967243 0
M  V30 8151 C 782.847 2.24641 -0.454856 0
M  V30 8152 C 783.86 1.56849 0.436152 0
M  V30 8153 O 785.049 1.76846 0.242401 0
M  V30 8154 C 782.149 3.36954 0.362672 0
M  V30 8155 C 781.322 4.34318 -0.518324 0
M  V30 8156 C 780.381 5.25638 0.243122 0
M  V30 8157 O 779.407 5.68043 -0.362791 0
M  V30 8158 N 780.609 5.59897 1.53282 0
M  V30 8159 H 783.374 2.69238 -1.31648 0
M  V30 8160 H 780.935 1.38464 -0.839015 0
M  V30 8161 H 782.927 3.95014 0.880094 0
M  V30 8162 H 781.497 2.91646 1.12522 0
M  V30 8163 H 780.717 3.74953 -1.21672 0
M  V30 8164 H 782.005 4.96338 -1.11919 0
M  V30 8165 H 781.403 5.27373 2.04682 0
M  V30 8166 H 779.96 6.20488 1.99594 0
M  V30 8167 N 783.393 0.737304 1.3929 0
M  V30 8168 C 784.34 0.0988364 2.30588 0
M  V30 8169 C 785.31 -0.727206 1.49335 0
M  V30 8170 O 786.495 -0.686694 1.78014 0
M  V30 8171 C 783.635 -0.800734 3.35682 0
M  V30 8172 C 782.748 0.0381731 4.31983 0
M  V30 8173 C 781.883 -0.862884 5.24145 0
M  V30 8174 C 780.922 -0.0193639 6.12097 0
M  V30 8175 N 780.059 -0.87648 6.96608 0
M  V30 8176 H 784.899 0.883031 2.84617 0
M  V30 8177 H 782.436 0.447111 1.4014 0
M  V30 8178 H 784.394 -1.33676 3.95205 0
M  V30 8179 H 783.024 -1.55088 2.83103 0
M  V30 8180 H 782.076 0.691641 3.74059 0
M  V30 8181 H 783.388 0.690294 4.94 0
M  V30 8182 H 782.542 -1.46667 5.88705 0
M  V30 8183 H 781.281 -1.54878 4.62454 0
M  V30 8184 H 780.286 0.597202 5.46547 0
M  V30 8185 H 781.511 0.663348 6.75852 0
M  V30 8186 H 779.457 -1.54762 6.37483 0
M  V30 8187 H 779.374 -0.280892 7.55478 0
M  V30 8188 H 780.642 -1.46575 7.65595 0
M  V30 8189 N 784.871 -1.49948 0.485112 0
M  V30 8190 C 786.148 -1.95186 -0.12726 0
M  V30 8191 C 786.528 -1.42605 -1.5565 0
M  V30 8192 O 785.876 -0.632986 -2.19558 0
M  V30 8193 C 786.086 -3.48955 -0.0562117 0
M  V30 8194 C 787.434 -4.23932 -0.238106 0
M  V30 8195 O 788.458 -3.55955 -0.132145 0
M  V30 8196 O 787.317 -5.44614 -0.453658 0
M  V30 8197 H 784.411 -0.820433 -0.104014 0
M  V30 8198 H 786.957 -1.60659 0.546517 0
M  V30 8199 H 785.729 -3.79814 0.941122 0
M  V30 8200 H 785.352 -3.90056 -0.770834 0
M  V30 8201 N 786.349 -0.21828 -1.56081 0
M  V30 8202 C 787.279 0.687922 -2.23136 0
M  V30 8203 C 788.26 1.20357 -1.202 0
M  V30 8204 O 789.445 1.24817 -1.48776 0
M  V30 8205 C 786.575 1.89762 -2.90874 0
M  V30 8206 C 785.529 1.51595 -4.00254 0
M  V30 8207 C 784.855 2.80415 -4.55271 0
M  V30 8208 C 786.155 0.708404 -5.17474 0
M  V30 8209 H 787.849 0.128854 -2.99123 0
M  V30 8210 H 785.395 0.0605354 -1.43873 0
M  V30 8211 H 787.348 2.53699 -3.36474 0
M  V30 8212 H 786.072 2.4816 -2.1233 0
M  V30 8213 H 784.731 0.900058 -3.55379 0
M  V30 8214 H 784.379 3.36951 -3.73461 0
M  V30 8215 H 784.079 2.55613 -5.2909 0
M  V30 8216 H 785.603 3.453 -5.03587 0
M  V30 8217 H 787.017 1.2514 -5.59476 0
M  V30 8218 H 785.414 0.557593 -5.97504 0
M  V30 8219 H 786.484 -0.285679 -4.84058 0
M  V30 8220 N 787.827 1.57504 0.0551401 0
M  V30 8221 C 789.075 1.87684 0.74962 0
M  V30 8222 C 789.396 0.812547 1.77264 0
M  V30 8223 O 788.666 -0.15694 1.9527 0
M  V30 8224 H 787.246 0.6926 0.279846 0
M  V30 8225 H 789.908 1.94881 0.0272745 0
M  V30 8226 H 789.004 2.85734 1.25548 0
M  V30 8227 N 789.305 -0.326896 1.54172 0
M  V30 8228 C 790.582 -1.08326 1.62864 0
M  V30 8229 C 790.962 -2.06018 0.46039 0
M  V30 8230 O 790.31 -2.21889 -0.545685 0
M  V30 8231 C 790.52 -1.78816 2.9971 0
M  V30 8232 C 791.868 -2.31958 3.55641 0
M  V30 8233 O 792.892 -1.88888 3.01993 0
M  V30 8234 O 791.751 -3.10801 4.49517 0
M  V30 8235 H 788.845 -0.499131 0.659392 0
M  V30 8236 H 791.391 -0.327054 1.66519 0
M  V30 8237 H 790.163 -1.07739 3.76176 0
M  V30 8238 H 789.786 -2.61255 2.99719 0
M  V30 8239 N 790.784 -1.46188 -0.588786 0
M  V30 8240 C 792.032 -1.50885 -1.34455 0
M  V30 8241 C 792.353 -0.159555 -1.94346 0
M  V30 8242 O 791.623 0.813239 -1.78222 0
M  V30 8243 H 790.203 -0.555707 -0.499198 0
M  V30 8244 H 792.865 -1.82277 -0.690014 0
M  V30 8245 H 791.961 -2.25816 -2.15438 0
M  V30 8246 N 792.262 0.832906 -1.33792 0
M  V30 8247 C 793.508 1.59089 -1.25772 0
M  V30 8248 C 793.841 1.93414 0.174601 0
M  V30 8249 O 793.116 1.59195 1.11746 0
M  V30 8250 C 793.399 2.89699 -2.13885 0
M  V30 8251 C 793.252 2.62017 -3.65605 0
M  V30 8252 C 794.571 3.91182 -2.01654 0
M  V30 8253 H 791.69 0.577232 -0.458227 0
M  V30 8254 H 794.332 0.960227 -1.6395 0
M  V30 8255 H 792.482 3.4352 -1.81456 0
M  V30 8256 H 794.154 2.14582 -4.08353 0
M  V30 8257 H 792.397 1.95621 -3.87189 0
M  V30 8258 H 793.068 3.55112 -4.2261 0
M  V30 8259 H 795.544 3.46684 -2.30107 0
M  V30 8260 H 794.42 4.80391 -2.65548 0
M  V30 8261 H 794.681 4.30861 -0.990536 0
M  V30 8262 N 793.74 1.17359 1.05189 0
M  V30 8263 C 794.97 0.985099 1.81602 0
M  V30 8264 C 795.378 -0.469872 1.83273 0
M  V30 8265 O 794.721 -1.33806 1.25864 0
M  V30 8266 C 794.783 1.44956 3.2898 0
M  V30 8267 C 794.447 2.92666 3.50993 0
M  V30 8268 C 795.444 3.906 3.43115 0
M  V30 8269 C 793.129 3.30841 3.77954 0
M  V30 8270 C 795.123 5.24709 3.61883 0
M  V30 8271 C 792.81 4.65116 3.96371 0
M  V30 8272 C 793.808 5.61859 3.88335 0
M  V30 8273 O 793.496 6.93704 4.06238 0
M  V30 8274 H 793.228 0.348731 0.579105 0
M  V30 8275 H 795.782 1.56066 1.33539 0
M  V30 8276 H 794.012 0.817559 3.77959 0
M  V30 8277 H 795.701 1.22674 3.86919 0
M  V30 8278 H 796.467 3.62453 3.22262 0
M  V30 8279 H 792.346 2.5611 3.83313 0
M  V30 8280 H 795.89 6.00205 3.55527 0
M  V30 8281 H 791.787 4.92969 4.16715 0
M  V30 8282 H 792.555 7.00443 4.23463 0
M  V30 8283 N 795.218 -1.23913 0.973828 0
M  V30 8284 C 796.466 -1.91771 0.637817 0
M  V30 8285 C 796.787 -1.76434 -0.830435 0
M  V30 8286 O 796.057 -1.13965 -1.59339 0
M  V30 8287 H 794.637 -0.709761 0.232912 0
M  V30 8288 H 797.299 -1.50677 1.23622 0
M  V30 8289 H 796.395 -2.99327 0.883731 0
M  V30 8290 N 796.696 -0.74468 -1.38897 0
M  V30 8291 C 797.943 -0.296884 -2.00312 0
M  V30 8292 C 798.271 1.11878 -1.59102 0
M  V30 8293 O 797.526 1.7789 -0.815702 0
M  V30 8294 C 797.825 -0.357302 -3.55609 0
M  V30 8295 C 797.491 -1.72736 -4.16501 0
M  V30 8296 C 796.153 -2.10232 -4.32846 0
M  V30 8297 C 798.505 -2.62647 -4.50184 0
M  V30 8298 C 795.833 -3.3713 -4.80167 0
M  V30 8299 C 798.185 -3.88926 -4.98918 0
M  V30 8300 C 796.849 -4.26503 -5.1347 0
M  V30 8301 H 796.119 -0.108638 -0.732993 0
M  V30 8302 H 798.766 -0.953419 -1.66079 0
M  V30 8303 H 797.071 0.382805 -3.89925 0
M  V30 8304 H 798.768 0.0074596 -4.00999 0
M  V30 8305 H 795.358 -1.42585 -4.04187 0
M  V30 8306 H 799.542 -2.34945 -4.37166 0
M  V30 8307 H 794.798 -3.66174 -4.89619 0
M  V30 8308 H 798.972 -4.58745 -5.23952 0
M  V30 8309 H 796.599 -5.24896 -5.49898 0
M  V30 8310 N 798.174 1.49689 -0.493057 0
M  V30 8311 C 799.084 2.32746 0.294358 0
M  V30 8312 C 800.1 1.44117 0.975003 0
M  V30 8313 O 801.276 1.77149 0.958138 0
M  V30 8314 C 798.341 3.19358 1.34949 0
M  V30 8315 C 797.402 4.2383 0.683122 0
M  V30 8316 C 796.635 5.06303 1.68798 0
M  V30 8317 O 796.858 4.90172 2.91698 0
M  V30 8318 O 795.792 5.88826 1.24768 0
M  V30 8319 H 799.618 3.01247 -0.385254 0
M  V30 8320 H 797.203 1.47216 -0.254519 0
M  V30 8321 H 799.085 3.73037 1.96014 0
M  V30 8322 H 797.76 2.53561 2.01217 0
M  V30 8323 H 796.667 3.74086 0.0329351 0
M  V30 8324 H 798 4.9216 0.0630192 0
M  V30 8325 N 799.652 0.226554 1.55963 0
M  V30 8326 C 800.882 -0.407915 2.02533 0
M  V30 8327 C 801.29 -1.53539 1.10554 0
M  V30 8328 O 800.633 -1.8338 0.108409 0
M  V30 8329 C 800.695 -0.996081 3.45425 0
M  V30 8330 C 800.359 -0.00341651 4.57 0
M  V30 8331 C 801.356 0.798782 5.13727 0
M  V30 8332 C 799.041 0.116786 5.02164 0
M  V30 8333 C 801.035 1.70784 6.14094 0
M  V30 8334 C 798.722 1.02937 6.02368 0
M  V30 8335 C 799.72 1.82344 6.5821 0
M  V30 8336 O 799.408 2.72067 7.56462 0
M  V30 8337 H 799.14 -0.103524 0.668026 0
M  V30 8338 H 801.694 0.341937 2.02534 0
M  V30 8339 H 799.924 -1.79512 3.42509 0
M  V30 8340 H 801.613 -1.53848 3.75614 0
M  V30 8341 H 802.379 0.716393 4.7968 0
M  V30 8342 H 798.258 -0.491172 4.58376 0
M  V30 8343 H 801.802 2.32807 6.57607 0
M  V30 8344 H 797.699 1.11276 6.35836 0
M  V30 8345 H 798.467 2.66199 7.74003 0
M  V30 8346 N 801.13 -1.57531 -0.0467866 0
M  V30 8347 C 802.36 -1.92417 -0.752279 0
M  V30 8348 C 802.768 -0.823134 -1.70356 0
M  V30 8349 O 802.111 0.210598 -1.82489 0
M  V30 8350 C 802.173 -3.22974 -1.57887 0
M  V30 8351 C 801.837 -4.50045 -0.794285 0
M  V30 8352 C 802.834 -5.19799 -0.102368 0
M  V30 8353 C 800.519 -4.96608 -0.754061 0
M  V30 8354 C 802.513 -6.34385 0.619267 0
M  V30 8355 C 800.2 -6.11093 -0.0286682 0
M  V30 8356 C 801.198 -6.79835 0.656772 0
M  V30 8357 O 800.886 -7.92133 1.37042 0
M  V30 8358 H 800.618 -0.640029 -0.217576 0
M  V30 8359 H 803.172 -2.05395 -0.0137438 0
M  V30 8360 H 801.402 -3.06273 -2.3608 0
M  V30 8361 H 803.091 -3.43319 -2.16533 0
M  V30 8362 H 803.857 -4.8484 -0.124589 0
M  V30 8363 H 799.736 -4.42958 -1.27706 0
M  V30 8364 H 803.28 -6.87975 1.15483 0
M  V30 8365 H 799.177 -6.455 -0.00446214 0
M  V30 8366 H 799.945 -8.08394 1.28227 0
M  V30 8367 N 802.608 0.318715 -1.54344 0
M  V30 8368 C 804.019 0.89285 -1.63967 0
M  V30 8369 C 804.37 1.88712 -0.536855 0
M  V30 8370 O 803.495 2.13877 0.329457 0
M  V30 8371 C 804.09 1.62618 -2.97222 0
M  V30 8372 C 802.649 2.14897 -3.09025 0
M  V30 8373 C 801.796 0.975909 -2.5956 0
M  V30 8374 H 804.747 0.0961687 -1.58408 0
M  V30 8375 H 804.768 2.4907 -2.87653 0
M  V30 8376 H 804.28 0.902286 -3.77466 0
M  V30 8377 H 802.381 2.90387 -2.33465 0
M  V30 8378 H 802.494 2.39565 -4.14904 0
M  V30 8379 H 800.858 1.35646 -2.15574 0
M  V30 8380 H 801.641 0.266253 -3.42266 0
M  V30 8381 N 804.086 1.46499 0.581025 0
M  V30 8382 C 805.019 1.51706 1.70472 0
M  V30 8383 C 805.997 0.371036 1.5831 0
M  V30 8384 O 807.181 0.575426 1.79502 0
M  V30 8385 C 804.308 1.3972 3.08538 0
M  V30 8386 C 803.354 2.58525 3.39215 0
M  V30 8387 S 804.187 4.20872 3.311 0
M  V30 8388 C 805.343 4.11398 4.71702 0
M  V30 8389 H 805.576 2.46777 1.65796 0
M  V30 8390 H 803.109 1.34405 0.759908 0
M  V30 8391 H 805.067 1.33492 3.88188 0
M  V30 8392 H 803.728 0.460742 3.10702 0
M  V30 8393 H 802.921 2.46137 4.3981 0
M  V30 8394 H 802.523 2.61752 2.67136 0
M  V30 8395 H 804.815 3.78182 5.62125 0
M  V30 8396 H 805.758 5.11997 4.89147 0
M  V30 8397 H 806.166 3.42624 4.48631 0
M  V30 8398 N 805.565 -0.825799 1.34232 0
M  V30 8399 C 806.811 -1.58419 1.26614 0
M  V30 8400 C 807.144 -1.93503 -0.164341 0
M  V30 8401 O 806.419 -1.59785 -1.109 0
M  V30 8402 C 806.702 -2.8856 2.15418 0
M  V30 8403 C 806.555 -2.60075 3.66989 0
M  V30 8404 C 807.874 -3.90107 2.03726 0
M  V30 8405 H 804.993 -0.574794 0.461282 0
M  V30 8406 H 807.635 -0.951519 1.64457 0
M  V30 8407 H 805.785 -3.42553 1.83275 0
M  V30 8408 H 807.457 -2.12414 4.09485 0
M  V30 8409 H 805.7 -1.93565 3.88221 0
M  V30 8410 H 806.371 -3.52866 4.24488 0
M  V30 8411 H 808.847 -3.45459 2.31942 0
M  V30 8412 H 807.723 -4.78976 2.68092 0
M  V30 8413 H 807.984 -4.30329 1.01337 0
M  V30 8414 N 807.043 -1.17915 -1.04565 0
M  V30 8415 C 808.454 -0.976383 -1.59134 0
M  V30 8416 C 808.805 0.475267 -1.90357 0
M  V30 8417 O 807.93 1.35172 -1.6899 0
M  V30 8418 C 808.525 -1.76604 -2.89131 0
M  V30 8419 C 807.084 -1.60777 -3.40335 0
M  V30 8420 C 806.231 -1.76369 -2.13985 0
M  V30 8421 H 809.182 -1.32532 -0.872985 0
M  V30 8422 H 809.203 -1.25215 -3.59307 0
M  V30 8423 H 808.715 -2.82252 -2.66375 0
M  V30 8424 H 806.816 -0.576436 -3.68114 0
M  V30 8425 H 806.929 -2.40268 -4.14497 0
M  V30 8426 H 805.293 -1.19268 -2.25049 0
M  V30 8427 H 806.076 -2.83441 -1.9369 0
M  V30 8428 N 808.521 1.23394 -0.980386 0
M  V30 8429 C 809.769 1.91431 -0.647978 0
M  V30 8430 C 810.09 1.76871 0.821066 0
M  V30 8431 O 809.36 1.14808 1.58732 0
M  V30 8432 H 807.94 0.708516 -0.236673 0
M  V30 8433 H 810.602 1.50019 -1.2442 0
M  V30 8434 H 809.698 2.98854 -0.899592 0
M  V30 8435 N 809.999 0.752036 1.385 0
M  V30 8436 C 811.227 0.318274 2.04437 0
M  V30 8437 C 811.642 -1.05285 1.56718 0
M  V30 8438 O 810.999 -1.66844 0.73956 0
M  V30 8439 C 811.05 0.330106 3.5999 0
M  V30 8440 O 810.771 1.64712 4.05957 0
M  V30 8441 C 812.272 -0.117713 4.43144 0
M  V30 8442 H 809.492 0.136228 0.657026 0
M  V30 8443 H 812.036 1.02045 1.7722 0
M  V30 8444 H 810.191 -0.323323 3.86048 0
M  V30 8445 H 810.605 1.57225 5.0038 0
M  V30 8446 H 812.079 -0.0582735 5.51969 0
M  V30 8447 H 812.556 -1.16538 4.23457 0
M  V30 8448 H 813.162 0.506784 4.2227 0
M  V30 8449 N 811.477 -1.49425 0.500989 0
M  V30 8450 C 812.707 -2.06561 -0.0402858 0
M  V30 8451 C 813.115 -1.36157 -1.31369 0
M  V30 8452 O 812.458 -0.433618 -1.78509 0
M  V30 8453 C 812.52 -3.5765 -0.364269 0
M  V30 8454 C 812.184 -4.49739 0.811417 0
M  V30 8455 C 813.181 -4.91255 1.7019 0
M  V30 8456 C 810.866 -4.92036 1.01022 0
M  V30 8457 C 812.86 -5.73806 2.77534 0
M  V30 8458 C 810.547 -5.74364 2.08683 0
M  V30 8459 C 811.545 -6.15154 2.96774 0
M  V30 8460 O 811.233 -6.95836 4.02577 0
M  V30 8461 H 810.965 -0.67578 0.0172357 0
M  V30 8462 H 813.519 -1.93193 0.697553 0
M  V30 8463 H 811.749 -3.69026 -1.1557 0
M  V30 8464 H 813.438 -3.97025 -0.844156 0
M  V30 8465 H 814.204 -4.59222 1.56013 0
M  V30 8466 H 810.083 -4.59789 0.333929 0
M  V30 8467 H 813.627 -6.05564 3.4632 0
M  V30 8468 H 809.524 -6.0581 2.22855 0
M  V30 8469 H 810.292 -7.14142 3.9993 0
M  V30 8470 N 812.955 -0.234822 -1.55841 0
M  V30 8471 C 814.204 0.393685 -1.97821 0
M  V30 8472 C 814.517 1.59947 -1.1259 0
M  V30 8473 O 815.723 2.29835 -1.44528 0
M  V30 8474 C 814.179 0.751811 -3.5196 0
M  V30 8475 C 813.787 -0.431898 -4.45913 0
M  V30 8476 C 815.531 1.34518 -4.02623 0
M  V30 8477 C 813.438 -0.0505976 -5.91378 0
M  V30 8478 H 812.368 0.150864 -0.738753 0
M  V30 8479 H 815.019 -0.333132 -1.80451 0
M  V30 8480 H 813.401 1.53642 -3.6498 0
M  V30 8481 H 814.575 -1.20935 -4.44647 0
M  V30 8482 H 812.89 -0.939385 -4.05666 0
M  V30 8483 H 815.487 1.64359 -5.08813 0
M  V30 8484 H 815.83 2.26554 -3.49255 0
M  V30 8485 H 816.363 0.623729 -3.9288 0
M  V30 8486 H 813.102 -0.937779 -6.48757 0
M  V30 8487 H 812.622 0.690898 -5.95808 0
M  V30 8488 H 814.301 0.37146 -6.45933 0
M  V30 8489 N 814.433 1.57553 0.0384317 0
M  V30 8490 C 815.679 1.89121 0.732199 0
M  V30 8491 C 816.012 0.831404 1.75503 0
M  V30 8492 O 815.287 -0.154642 1.93884 0
M  V30 8493 C 815.57 3.31338 1.41021 0
M  V30 8494 C 815.423 4.48004 0.401532 0
M  V30 8495 C 816.742 3.72318 2.34665 0
M  V30 8496 H 813.861 0.687819 0.264715 0
M  V30 8497 H 816.503 1.89999 -0.00496279 0
M  V30 8498 H 814.653 3.3072 2.03854 0
M  V30 8499 H 816.325 4.60755 -0.224159 0
M  V30 8500 H 814.568 4.32895 -0.280092 0
M  V30 8501 H 815.239 5.44377 0.91423 0
M  V30 8502 H 817.715 3.74243 1.81883 0
M  V30 8503 H 816.591 4.72652 2.7909 0
M  V30 8504 H 816.852 3.04062 3.20934 0
M  V30 8505 N 815.911 -0.310526 1.54511 0
M  V30 8506 C 817.139 -1.06611 1.77318 0
M  V30 8507 C 817.554 -1.81265 0.528043 0
M  V30 8508 O 816.911 -1.75466 -0.50178 0
M  V30 8509 C 816.962 -2.05409 2.97472 0
M  V30 8510 O 816.683 -1.33785 4.17173 0
M  V30 8511 C 818.184 -2.93082 3.32593 0
M  V30 8512 H 815.404 -0.316578 0.591624 0
M  V30 8513 H 817.948 -0.352691 2.01436 0
M  V30 8514 H 816.103 -2.72266 2.7559 0
M  V30 8515 H 816.517 -2.00055 4.84849 0
M  V30 8516 H 817.991 -3.58274 4.19933 0
M  V30 8517 H 818.468 -3.60877 2.50329 0
M  V30 8518 H 819.074 -2.31768 3.566 0
M  V30 8519 N 817.389 -1.46805 -0.573248 0
M  V30 8520 C 818.638 -1.51868 -1.32736 0
M  V30 8521 C 818.951 -0.178765 -1.94781 0
M  V30 8522 O 820.157 -0.107272 -2.71288 0
M  V30 8523 C 818.613 -2.67641 -2.40616 0
M  V30 8524 C 818.221 -4.08094 -1.84832 0
M  V30 8525 C 819.965 -2.81984 -3.17309 0
M  V30 8526 C 817.872 -5.15193 -2.90397 0
M  V30 8527 H 816.802 -0.56523 -0.49903 0
M  V30 8528 H 819.453 -1.7304 -0.610695 0
M  V30 8529 H 817.835 -2.39818 -3.15124 0
M  V30 8530 H 819.009 -4.45751 -1.16803 0
M  V30 8531 H 817.324 -3.985 -1.20775 0
M  V30 8532 H 819.921 -3.59166 -3.96111 0
M  V30 8533 H 820.264 -1.89842 -3.70494 0
M  V30 8534 H 820.797 -3.095 -2.4991 0
M  V30 8535 H 817.536 -6.09158 -2.42088 0
M  V30 8536 H 817.056 -4.82071 -3.56886 0
M  V30 8537 H 818.735 -5.41448 -3.54179 0
M  V30 8538 N 818.867 0.818669 -1.34668 0
M  V30 8539 C 820.095 1.60674 -1.30351 0
M  V30 8540 C 820.51 1.88408 0.121546 0
M  V30 8541 O 819.867 1.47849 1.06991 0
M  V30 8542 C 819.918 2.94516 -2.09625 0
M  V30 8543 O 819.639 2.6799 -3.46573 0
M  V30 8544 C 821.14 3.8891 -2.12754 0
M  V30 8545 H 818.36 0.499306 -0.448258 0
M  V30 8546 H 820.904 1.01828 -1.77345 0
M  V30 8547 H 819.059 3.49908 -1.66262 0
M  V30 8548 H 819.473 3.53361 -3.87603 0
M  V30 8549 H 820.947 4.79972 -2.72637 0
M  V30 8550 H 821.424 4.24599 -1.12306 0
M  V30 8551 H 822.03 3.39453 -2.56225 0
M  V30 8552 N 820.346 1.18468 1.03938 0
M  V30 8553 C 821.592 0.992302 1.77553 0
M  V30 8554 C 821.947 -0.472959 1.86496 0
M  V30 8555 O 821.24 -1.34662 1.36296 0
M  V30 8556 C 821.434 1.58229 3.20466 0
M  V30 8557 C 821.263 3.1034 3.25452 0
M  V30 8558 C 820.033 3.79166 3.34008 0
M  V30 8559 C 822.231 4.07814 3.13357 0
M  V30 8560 N 820.213 5.18768 3.28258 0
M  V30 8561 C 821.584 5.33946 3.15121 0
M  V30 8562 C 823.639 3.99315 2.97409 0
M  V30 8563 C 822.342 6.52565 3.02574 0
M  V30 8564 C 824.368 5.17532 2.86208 0
M  V30 8565 C 823.73 6.42557 2.88617 0
M  V30 8566 H 819.829 0.417131 0.661457 0
M  V30 8567 H 822.413 1.50265 1.23808 0
M  V30 8568 H 820.584 1.0981 3.72554 0
M  V30 8569 H 822.316 1.32531 3.82384 0
M  V30 8570 H 819.071 3.29905 3.39794 0
M  V30 8571 H 819.495 5.91783 3.28818 0
M  V30 8572 H 824.137 3.03485 2.94375 0
M  V30 8573 H 821.855 7.48592 3.0436 0
M  V30 8574 H 825.441 5.12748 2.7492 0
M  V30 8575 H 824.321 7.32494 2.80039 0
M  V30 8576 N 821.824 -1.22873 0.986916 0
M  V30 8577 C 823.072 -1.91084 0.658121 0
M  V30 8578 C 823.393 -1.77304 -0.811675 0
M  V30 8579 O 822.663 -1.15649 -1.58121 0
M  V30 8580 H 821.243 -0.707251 0.240427 0
M  V30 8581 H 823.905 -1.49357 1.25213 0
M  V30 8582 H 823.001 -2.98373 0.915428 0
M  V30 8583 N 823.302 -0.75937 -1.38099 0
M  V30 8584 C 824.55 -0.317485 -1.99591 0
M  V30 8585 C 824.871 1.10628 -1.60581 0
M  V30 8586 O 824.141 1.7575 -0.865378 0
M  V30 8587 H 822.721 -0.114397 -0.738189 0
M  V30 8588 H 825.383 -0.974749 -1.68774 0
M  V30 8589 H 824.479 -0.385227 -3.09713 0
M  V30 8590 N 824.78 1.49157 -0.508906 0
M  V30 8591 C 825.712 2.272 0.302115 0
M  V30 8592 C 826.725 1.3407 0.923529 0
M  V30 8593 O 827.914 1.5929 0.805532 0
M  V30 8594 C 825.014 3.06736 1.44105 0
M  V30 8595 C 824.187 4.27497 0.925477 0
M  V30 8596 C 823.246 4.89014 1.94297 0
M  V30 8597 O 822.272 5.48851 1.50834 0
M  V30 8598 N 823.474 4.7937 3.2739 0
M  V30 8599 H 826.239 2.97443 -0.367115 0
M  V30 8600 H 823.8 1.58248 -0.341933 0
M  V30 8601 H 825.792 3.44763 2.11944 0
M  V30 8602 H 824.362 2.3905 2.0143 0
M  V30 8603 H 823.582 3.94135 0.0717301 0
M  V30 8604 H 824.87 5.05714 0.55955 0
M  V30 8605 H 824.268 4.31869 3.65384 0
M  V30 8606 H 822.825 5.21559 3.90922 0
M  V30 8607 N 826.258 0.243083 1.55714 0
M  V30 8608 C 827.206 -0.674349 2.2261 0
M  V30 8609 C 828.2 -1.18307 1.21243 0
M  V30 8610 O 829.406 -1.1404 1.39265 0
M  V30 8611 H 825.781 -0.235941 0.714028 0
M  V30 8612 H 827.752 -0.0869446 2.98273 0
M  V30 8613 C 826.501 -1.86206 2.93637 0
M  V30 8614 H 825.824 -1.47975 3.71407 0
M  V30 8615 H 827.264 -2.4813 3.43813 0
M  V30 8616 C 825.723 -2.73084 1.97298 0
M  V30 8617 O 826.253 -3.72497 1.50361 0
M  V30 8618 N 824.459 -2.39571 1.64482 0
M  V30 8619 H 824.006 -1.5878 2.02846 0
M  V30 8620 H 823.964 -2.97976 1.00288 0
M  V30 8621 N 827.736 -1.57571 -0.0300757 0
M  V30 8622 C 828.985 -1.88407 -0.720126 0
M  V30 8623 C 829.298 -0.841466 -1.76575 0
M  V30 8624 O 830.504 -1.03902 -2.50832 0
M  V30 8625 C 828.96 -3.34348 -1.33188 0
M  V30 8626 C 828.568 -4.46837 -0.32266 0
M  V30 8627 C 830.312 -3.74333 -2.00187 0
M  V30 8628 C 828.219 -5.83838 -0.942703 0
M  V30 8629 H 827.149 -0.702952 -0.272718 0
M  V30 8630 H 829.8 -1.83482 0.0255337 0
M  V30 8631 H 828.182 -3.34014 -2.12721 0
M  V30 8632 H 829.356 -4.58638 0.445887 0
M  V30 8633 H 827.671 -4.15678 0.245181 0
M  V30 8634 H 830.268 -4.74008 -2.47428 0
M  V30 8635 H 830.611 -3.06275 -2.81959 0
M  V30 8636 H 831.144 -3.76837 -1.2743 0
M  V30 8637 H 827.883 -6.55294 -0.164413 0
M  V30 8638 H 827.403 -5.75759 -1.68111 0
M  V30 8639 H 829.082 -6.30535 -1.45034 0
M  V30 8640 N 829.214 0.302327 -1.54673 0
M  V30 8641 C 830.462 1.03565 -1.73547 0
M  V30 8642 C 830.783 1.87843 -0.523448 0
M  V30 8643 O 830.053 1.90367 0.462295 0
M  V30 8644 H 828.633 0.385358 -0.639928 0
M  V30 8645 H 831.295 0.333632 -1.92023 0
M  V30 8646 H 830.391 1.68952 -2.62415 0
M  V30 8647 N 830.692 1.47107 0.565454 0
M  V30 8648 C 832.108 1.32443 0.890566 0
M  V30 8649 C 832.308 0.308735 1.99121 0
M  V30 8650 O 831.364 -0.28265 2.50913 0
M  V30 8651 C 832.677 2.71548 1.2916 0
M  V30 8652 C 834.225 2.7977 1.40349 0
M  V30 8653 C 834.7 4.19497 1.83811 0
M  V30 8654 N 836.191 4.21998 1.90975 0
M  V30 8655 C 836.926 5.2702 2.25916 0
M  V30 8656 N 836.422 6.42353 2.59527 0
M  V30 8657 N 838.215 5.14393 2.26619 0
M  V30 8658 H 830.366 2.11786 -0.161328 0
M  V30 8659 H 832.629 0.947952 -0.00950631 0
M  V30 8660 H 832.335 3.47265 0.556753 0
M  V30 8661 H 832.209 3.02782 2.24951 0
M  V30 8662 H 834.596 2.0433 2.12916 0
M  V30 8663 H 834.677 2.522 0.427655 0
M  V30 8664 H 834.321 4.95439 1.11816 0
M  V30 8665 H 834.251 4.44486 2.82382 0
M  V30 8666 H 836.742 3.38791 1.6742 0
M  V30 8667 H 837.055 7.18252 2.85191 0
M  V30 8668 H 835.4 6.45687 2.57126 0
M  V30 8669 H 838.591 4.2332 1.99794 0
M  V30 8670 H 838.764 5.96349 2.5352 0
M  V30 8671 N 832.17 -0.811516 1.35101 0
M  V30 8672 C 833.395 -1.60499 1.31358 0
M  V30 8673 C 833.82 -1.87793 -0.107383 0
M  V30 8674 O 833.178 -1.46161 -1.07268 0
M  V30 8675 C 833.226 -2.91612 2.12119 0
M  V30 8676 O 832.33 -3.84211 1.49853 0
M  V30 8677 H 831.671 -0.487702 0.450603 0
M  V30 8678 H 834.201 -1.00758 1.7807 0
M  V30 8679 H 834.211 -3.4108 2.23894 0
M  V30 8680 H 832.886 -2.71071 3.15426 0
M  V30 8681 H 831.463 -3.42751 1.46889 0
M  V30 8682 N 833.648 -1.19017 -1.03309 0
M  V30 8683 C 835.059 -0.993206 -1.5809 0
M  V30 8684 C 835.41 0.45505 -1.9085 0
M  V30 8685 O 834.535 1.33372 -1.70414 0
M  V30 8686 C 835.13 -1.79661 -2.87241 0
M  V30 8687 C 833.689 -1.64377 -3.38611 0
M  V30 8688 C 832.836 -1.78628 -2.12102 0
M  V30 8689 H 835.787 -1.3345 -0.858879 0
M  V30 8690 H 835.808 -1.29019 -3.57958 0
M  V30 8691 H 835.32 -2.85061 -2.63366 0
M  V30 8692 H 833.421 -0.615447 -3.67482 0
M  V30 8693 H 833.534 -2.44651 -4.11926 0
M  V30 8694 H 831.898 -1.21648 -2.23772 0
M  V30 8695 H 832.681 -2.8548 -1.90673 0
M  V30 8696 N 835.127 1.22348 -0.993418 0
M  V30 8697 C 836.374 1.9111 -0.669568 0
M  V30 8698 C 836.702 1.77357 0.79843 0
M  V30 8699 O 835.957 1.13675 1.593 0
M  V30 8700 C 836.256 3.42477 -1.02197 0
M  V30 8701 C 835.922 3.7642 -2.48232 0
M  V30 8702 C 834.584 3.85395 -2.88139 0
M  V30 8703 C 836.936 3.9253 -3.42884 0
M  V30 8704 C 834.264 4.07918 -4.21687 0
M  V30 8705 C 836.616 4.16557 -4.76091 0
M  V30 8706 C 835.28 4.23757 -5.15739 0
M  V30 8707 H 834.55 0.699321 -0.245012 0
M  V30 8708 H 837.197 1.45102 -1.2497 0
M  V30 8709 H 835.502 3.90143 -0.359921 0
M  V30 8710 H 837.199 3.93935 -0.74942 0
M  V30 8711 H 833.789 3.70017 -2.16299 0
M  V30 8712 H 837.973 3.84974 -3.13224 0
M  V30 8713 H 833.229 4.11719 -4.51993 0
M  V30 8714 H 837.403 4.27966 -5.4938 0
M  V30 8715 H 835.03 4.40962 -6.19239 0
M  V30 8716 N 836.605 0.766683 1.37694 0
M  V30 8717 C 837.515 0.150158 2.34119 0
M  V30 8718 C 838.531 -0.685513 1.59927 0
M  V30 8719 O 839.707 -0.606616 1.92047 0
M  V30 8720 C 836.772 -0.722562 3.39087 0
M  V30 8721 C 835.833 0.128983 4.29106 0
M  V30 8722 C 835.066 -0.702178 5.29061 0
M  V30 8723 O 835.289 -1.93954 5.36412 0
M  V30 8724 O 834.223 -0.114056 6.01792 0
M  V30 8725 H 838.049 0.946829 2.88563 0
M  V30 8726 H 835.634 0.527765 1.39768 0
M  V30 8727 H 837.516 -1.22095 4.03325 0
M  V30 8728 H 836.191 -1.49751 2.86978 0
M  V30 8729 H 835.098 0.673612 3.67985 0
M  V30 8730 H 836.431 0.866892 4.84506 0
M  V30 8731 N 838.083 -1.48885 0.516809 0
M  V30 8732 C 839.329 -2.02788 -0.0220928 0
M  V30 8733 C 839.662 -1.39433 -1.35175 0
M  V30 8734 O 838.937 -0.535459 -1.86984 0
M  V30 8735 C 839.22 -3.59753 -0.158012 0
M  V30 8736 C 839.073 -4.33611 1.19588 0
M  V30 8737 C 840.392 -4.30984 -0.891133 0
M  V30 8738 H 837.511 -0.736971 -0.00655488 0
M  V30 8739 H 840.153 -1.77746 0.671287 0
M  V30 8740 H 838.303 -3.8122 -0.748568 0
M  V30 8741 H 839.975 -4.23598 1.82653 0
M  V30 8742 H 838.218 -3.95547 1.78116 0
M  V30 8743 H 838.889 -5.41846 1.05391 0
M  V30 8744 H 841.365 -4.14267 -0.39012 0
M  V30 8745 H 840.241 -5.40527 -0.955107 0
M  V30 8746 H 840.502 -3.97336 -1.93847 0
M  V30 8747 N 839.561 -0.251338 -1.55583 0
M  V30 8748 C 840.508 0.646337 -2.21565 0
M  V30 8749 C 841.478 1.16796 -1.18102 0
M  V30 8750 O 842.663 1.22162 -1.46564 0
M  V30 8751 C 839.803 1.83557 -2.92234 0
M  V30 8752 C 838.916 1.35006 -4.10363 0
M  V30 8753 C 838.051 2.4992 -4.68736 0
M  V30 8754 C 837.09 1.98253 -5.79105 0
M  V30 8755 N 836.227 3.06551 -6.31642 0
M  V30 8756 H 841.067 0.0769881 -2.97901 0
M  V30 8757 H 838.604 0.026238 -1.47077 0
M  V30 8758 H 840.562 2.53425 -3.31408 0
M  V30 8759 H 839.192 2.37733 -2.18364 0
M  V30 8760 H 838.244 0.545274 -3.76472 0
M  V30 8761 H 839.556 0.931435 -4.90026 0
M  V30 8762 H 838.71 3.27823 -5.10507 0
M  V30 8763 H 837.449 2.95086 -3.88298 0
M  V30 8764 H 836.454 1.18822 -5.36807 0
M  V30 8765 H 837.679 1.54051 -6.61396 0
M  V30 8766 H 835.625 3.51143 -5.54107 0
M  V30 8767 H 835.542 2.69033 -7.06511 0
M  V30 8768 H 836.81 3.84499 -6.78071 0
M  V30 8769 N 841.039 1.57585 0.0217189 0
M  V30 8770 C 842.285 1.89887 0.712099 0
M  V30 8771 C 842.618 0.849971 1.74611 0
M  V30 8772 O 841.893 -0.13407 1.94037 0
M  V30 8773 C 842.176 3.32815 1.37499 0
M  V30 8774 C 842.029 4.48405 0.353993 0
M  V30 8775 C 843.348 3.74786 2.30703 0
M  V30 8776 H 840.467 0.690588 0.257405 0
M  V30 8777 H 843.109 1.89983 -0.0251145 0
M  V30 8778 H 841.259 3.32863 2.00335 0
M  V30 8779 H 842.931 4.60491 -0.273015 0
M  V30 8780 H 841.174 4.32573 -0.32599 0
M  V30 8781 H 841.845 5.45316 0.85644 0
M  V30 8782 H 844.321 3.76151 1.77904 0
M  V30 8783 H 843.197 4.75585 2.74061 0
M  V30 8784 H 843.458 3.07449 3.17691 0
M  V30 8785 N 842.517 -0.29412 1.54831 0
M  V30 8786 C 843.765 -1.02643 1.74094 0
M  V30 8787 C 844.086 -1.87563 0.533402 0
M  V30 8788 O 843.356 -1.9061 -0.452192 0
M  V30 8789 H 841.936 -0.381959 0.641963 0
M  V30 8790 H 844.598 -0.323444 1.92197 0
M  V30 8791 H 843.694 -1.67558 2.63307 0
M  V30 8792 N 843.995 -1.47404 -0.557645 0
M  V30 8793 C 845.223 -1.57622 -1.34026 0
M  V30 8794 C 845.638 -0.226256 -1.87439 0
M  V30 8795 O 844.995 0.78043 -1.64971 0
M  V30 8796 C 845.046 -2.60111 -2.51047 0
M  V30 8797 O 844.767 -3.89866 -1.99841 0
M  V30 8798 C 846.268 -2.80508 -3.43264 0
M  V30 8799 H 843.488 -0.532271 -0.40857 0
M  V30 8800 H 846.032 -1.93019 -0.675555 0
M  V30 8801 H 844.187 -2.27648 -3.13457 0
M  V30 8802 H 844.601 -4.45864 -2.76234 0
M  V30 8803 H 846.075 -3.56084 -4.21792 0
M  V30 8804 H 846.552 -1.88314 -3.9678 0
M  V30 8805 H 847.158 -3.14166 -2.86671 0
M  V30 8806 N 845.473 0.80434 -1.35529 0
M  V30 8807 C 846.383 1.94784 -1.30753 0
M  V30 8808 C 847.399 1.72703 -0.212071 0
M  V30 8809 O 848.575 1.96494 -0.441841 0
M  V30 8810 C 845.64 3.29406 -1.08133 0
M  V30 8811 C 844.701 3.64367 -2.27013 0
M  V30 8812 C 843.934 4.92566 -2.05463 0
M  V30 8813 O 844.157 5.61166 -1.02222 0
M  V30 8814 O 843.091 5.25838 -2.92879 0
M  V30 8815 H 846.917 2.01761 -2.26994 0
M  V30 8816 H 844.502 0.942448 -1.15924 0
M  V30 8817 H 846.384 4.09995 -0.973756 0
M  V30 8818 H 845.059 3.23355 -0.149444 0
M  V30 8819 H 843.966 2.84146 -2.43335 0
M  V30 8820 H 845.299 3.75125 -3.18656 0
M  V30 8821 N 846.951 1.19563 1.02676 0
M  V30 8822 C 848.191 1.01072 1.77662 0
M  V30 8823 C 848.555 -0.450344 1.86644 0
M  V30 8824 O 849.756 -0.755132 2.57975 0
M  V30 8825 C 848.027 1.66383 3.16309 0
M  V30 8826 S 849.586 1.62858 4.07459 0
M  V30 8827 H 846.404 0.362644 0.611564 0
M  V30 8828 H 849.006 1.51947 1.23014 0
M  V30 8829 H 847.71 2.71917 3.07391 0
M  V30 8830 H 847.241 1.15596 3.76033 0
M  V30 8831 H 849.256 0.654265 4.91868 0
M  V30 8832 N 848.429 -1.21819 0.999893 0
M  V30 8833 C 849.677 -1.90375 0.678351 0
M  V30 8834 C 849.998 -1.78155 -0.792824 0
M  V30 8835 O 849.268 -1.17319 -1.56885 0
M  V30 8836 H 847.848 -0.704661 0.247915 0
M  V30 8837 H 850.51 -1.48021 1.2679 0
M  V30 8838 H 849.606 -2.97385 0.947023 0
M  V30 8839 N 849.908 -0.773975 -1.37286 0
M  V30 8840 C 850.856 -0.149581 -2.32119 0
M  V30 8841 C 851.85 0.682457 -1.55045 0
M  V30 8842 O 853.056 0.579269 -1.70424 0
M  V30 8843 H 849.431 -0.0295857 -0.751418 0
M  V30 8844 H 851.402 -0.965117 -2.82362 0
M  V30 8845 C 850.151 0.713409 -3.40302 0
M  V30 8846 H 849.474 0.0825416 -3.99715 0
M  V30 8847 H 850.914 1.11723 -4.09016 0
M  V30 8848 C 849.373 1.86498 -2.80571 0
M  V30 8849 O 849.903 2.9606 -2.71498 0
M  V30 8850 N 848.109 1.66629 -2.38082 0
M  V30 8851 H 847.656 0.775145 -2.45661 0
M  V30 8852 H 847.614 2.43845 -1.98461 0
M  V30 8853 N 851.386 1.48609 -0.524698 0
M  V30 8854 C 852.318 2.27508 0.278 0
M  V30 8855 C 853.331 1.35042 0.909258 0
M  V30 8856 O 854.52 1.60136 0.788592 0
M  V30 8857 C 851.62 3.08247 1.40843 0
M  V30 8858 C 850.793 4.28455 0.880083 0
M  V30 8859 C 849.852 4.91048 1.891 0
M  V30 8860 O 848.878 5.5042 1.45005 0
M  V30 8861 N 850.08 4.82816 3.22288 0
M  V30 8862 H 852.845 2.97037 -0.398642 0
M  V30 8863 H 850.406 1.57876 -0.358698 0
M  V30 8864 H 852.398 3.46992 2.08276 0
M  V30 8865 H 850.968 2.41173 1.98883 0
M  V30 8866 H 850.188 3.94189 0.0299228 0
M  V30 8867 H 851.476 5.06279 0.505881 0
M  V30 8868 H 850.874 4.3572 3.60783 0
M  V30 8869 H 849.431 5.25676 3.85368 0
M  V30 8870 N 852.864 0.259585 1.55447 0
M  V30 8871 C 853.811 -0.634578 2.21905 0
M  V30 8872 C 854.781 -1.16168 1.18719 0
M  V30 8873 O 855.966 -1.21383 1.4721 0
M  V30 8874 C 853.106 -1.82005 2.93203 0
M  V30 8875 C 852.219 -1.32828 4.11073 0
M  V30 8876 C 851.354 -2.47431 4.70055 0
M  V30 8877 C 850.393 -1.95179 5.80148 0
M  V30 8878 N 849.53 -3.03197 6.33258 0
M  V30 8879 H 854.37 -0.0611886 2.97937 0
M  V30 8880 H 851.907 -0.0184378 1.47088 0
M  V30 8881 H 853.865 -2.51664 3.32748 0
M  V30 8882 H 852.495 -2.36571 2.19622 0
M  V30 8883 H 851.547 -0.525301 3.76756 0
M  V30 8884 H 852.859 -0.905435 4.90513 0
M  V30 8885 H 852.013 -3.25111 5.12238 0
M  V30 8886 H 850.752 -2.93023 3.89857 0
M  V30 8887 H 849.757 -1.15974 5.37429 0
M  V30 8888 H 850.982 -1.50541 6.62204 0
M  V30 8889 H 848.928 -3.48199 5.55961 0
M  V30 8890 H 848.845 -2.65282 7.07928 0
M  V30 8891 H 850.113 -3.80898 6.80101 0
M  V30 8892 N 854.342 -1.57594 -0.0133615 0
M  V30 8893 C 855.588 -1.90262 -0.702019 0
M  V30 8894 C 855.921 -0.859219 -1.74158 0
M  V30 8895 O 855.196 0.123778 -1.94106 0
M  V30 8896 C 855.479 -3.3354 -1.35732 0
M  V30 8897 C 855.332 -4.48586 -0.330208 0
M  V30 8898 C 856.651 -3.76004 -2.28712 0
M  V30 8899 H 853.77 -0.691943 -0.253739 0
M  V30 8900 H 856.412 -1.89967 0.0351894 0
M  V30 8901 H 854.562 -3.33921 -1.98567 0
M  V30 8902 H 856.234 -4.6034 0.297433 0
M  V30 8903 H 854.477 -4.32394 0.348926 0
M  V30 8904 H 855.148 -5.45762 -0.827508 0
M  V30 8905 H 857.624 -3.77089 -1.75906 0
M  V30 8906 H 856.5 -4.77032 -2.71535 0
M  V30 8907 H 856.761 -3.09129 -3.16056 0
M  V30 8908 N 855.82 0.285905 -1.54985 0
M  V30 8909 C 857.236 0.632405 -1.46536 0
M  V30 8910 C 857.436 1.90074 -0.668888 0
M  V30 8911 O 856.492 2.51839 -0.182586 0
M  V30 8912 C 857.805 0.771361 -2.90638 0
M  V30 8913 C 859.353 0.866262 -3.00774 0
M  V30 8914 C 859.828 1.0371 -4.46103 0
M  V30 8915 N 861.319 1.10294 -4.49877 0
M  V30 8916 C 862.054 1.25369 -5.59527 0
M  V30 8917 N 861.55 1.37246 -6.7907 0
M  V30 8918 N 863.343 1.28377 -5.47244 0
M  V30 8919 H 855.494 -0.547226 -2.0523 0
M  V30 8920 H 857.757 -0.183298 -0.930111 0
M  V30 8921 H 857.463 -0.0899485 -3.51585 0
M  V30 8922 H 857.337 1.65569 -3.3892 0
M  V30 8923 H 859.724 1.71805 -2.39931 0
M  V30 8924 H 859.805 -0.0424049 -2.55765 0
M  V30 8925 H 859.449 0.190021 -5.07544 0
M  V30 8926 H 859.379 1.96022 -4.88757 0
M  V30 8927 H 861.87 1.02407 -3.6376 0
M  V30 8928 H 862.183 1.48546 -7.58389 0
M  V30 8929 H 860.528 1.34274 -6.81906 0
M  V30 8930 H 863.719 1.1872 -4.52795 0
M  V30 8931 H 863.892 1.39782 -6.32744 0
M  V30 8932 N 857.298 1.47698 0.54982 0
M  V30 8933 C 858.261 1.60282 1.63837 0
M  V30 8934 C 859.261 0.477394 1.5355 0
M  V30 8935 O 860.451 0.742665 1.57576 0
M  V30 8936 C 857.583 1.55431 3.03404 0
M  V30 8937 H 858.776 2.57325 1.54026 0
M  V30 8938 H 856.329 1.35999 0.770329 0
M  V30 8939 H 857.064 0.597912 3.1874 0
M  V30 8940 H 856.849 2.37116 3.12279 0
M  V30 8941 H 858.339 1.6739 3.82584 0
M  V30 8942 N 858.776 -0.797141 1.35954 0
M  V30 8943 C 860.022 -1.55636 1.30954 0
M  V30 8944 C 860.377 -1.92071 -0.112515 0
M  V30 8945 O 859.67 -1.5926 -1.06521 0
M  V30 8946 C 859.864 -2.84847 2.15863 0
M  V30 8947 C 859.693 -2.61039 3.66182 0
M  V30 8948 C 858.463 -2.56452 4.35385 0
M  V30 8949 C 860.661 -2.30766 4.59621 0
M  V30 8950 N 858.643 -2.2446 5.71394 0
M  V30 8951 C 860.014 -2.08695 5.8382 0
M  V30 8952 C 862.069 -2.16708 4.48266 0
M  V30 8953 C 860.772 -1.73989 6.9794 0
M  V30 8954 C 862.798 -1.83399 5.62244 0
M  V30 8955 C 862.16 -1.62171 6.85478 0
M  V30 8956 H 858.259 -0.570853 0.534463 0
M  V30 8957 H 860.843 -0.932261 1.7093 0
M  V30 8958 H 859.014 -3.45137 1.78144 0
M  V30 8959 H 860.746 -3.50503 2.02311 0
M  V30 8960 H 857.501 -2.7143 3.88101 0
M  V30 8961 H 857.925 -2.11232 6.43203 0
M  V30 8962 H 862.567 -2.31814 3.53585 0
M  V30 8963 H 860.285 -1.57621 7.92579 0
M  V30 8964 H 863.871 -1.73217 5.55416 0
M  V30 8965 H 862.751 -1.36774 7.7218 0
M  V30 8966 N 860.254 -1.20106 -1.0204 0
M  V30 8967 C 861.502 -1.0069 -1.75231 0
M  V30 8968 C 861.823 0.462491 -1.89436 0
M  V30 8969 O 861.093 1.33455 -1.4341 0
M  V30 8970 H 859.673 -0.369576 -0.649171 0
M  V30 8971 H 862.335 -1.51149 -1.23044 0
M  V30 8972 H 861.431 -1.46205 -2.75736 0
M  V30 8973 N 861.732 1.21287 -1.00634 0
M  V30 8974 C 863.143 1.72136 -0.722914 0
M  V30 8975 C 863.494 1.8091 0.759338 0
M  V30 8976 O 862.619 1.46458 1.59308 0
M  V30 8977 C 863.214 3.12633 -1.30561 0
M  V30 8978 C 861.773 3.60833 -1.07127 0
M  V30 8979 C 860.92 2.38326 -1.4176 0
M  V30 8980 H 863.871 1.06445 -1.17708 0
M  V30 8981 H 863.892 3.74174 -0.690937 0
M  V30 8982 H 863.404 3.06215 -2.38441 0
M  V30 8983 H 861.505 3.72599 -0.00968671 0
M  V30 8984 H 861.618 4.46226 -1.74411 0
M  V30 8985 H 859.982 2.40575 -0.836412 0
M  V30 8986 H 860.765 2.34558 -2.50674 0
M  V30 8987 N 863.21 0.781244 1.36873 0
M  V30 8988 C 864.458 0.349198 1.9906 0
M  V30 8989 C 864.779 -1.0806 1.62321 0
M  V30 8990 O 864.049 -1.74351 0.893229 0
M  V30 8991 H 862.629 0.126126 0.736275 0
M  V30 8992 H 865.291 1.00148 1.67202 0
M  V30 8993 H 864.387 0.434451 3.09061 0
M  V30 8994 N 864.689 -1.48329 0.532571 0
M  V30 8995 C 865.619 -2.32485 -0.217511 0
M  V30 8996 C 866.6 -1.42255 -0.932598 0
M  V30 8997 O 867.785 -1.7114 -0.917873 0
M  V30 8998 C 864.915 -3.23509 -1.26329 0
M  V30 8999 C 863.869 -4.22784 -0.666191 0
M  V30 9000 C 863.195 -5.0296 -1.81482 0
M  V30 9001 C 864.495 -5.21031 0.363813 0
M  V30 9002 H 866.189 -2.95445 0.485014 0
M  V30 9003 H 863.735 -1.42075 0.234694 0
M  V30 9004 H 865.688 -3.81211 -1.79601 0
M  V30 9005 H 864.412 -2.58554 -1.99543 0
M  V30 9006 H 863.071 -3.66272 -0.15498 0
M  V30 9007 H 862.719 -4.34427 -2.5354 0
M  V30 9008 H 862.419 -5.70154 -1.4212 0
M  V30 9009 H 863.943 -5.63514 -2.35126 0
M  V30 9010 H 865.357 -5.73241 -0.0819079 0
M  V30 9011 H 863.754 -5.96292 0.674956 0
M  V30 9012 H 864.824 -4.6801 1.26865 0
M  V30 9013 N 866.167 -0.267825 -1.55308 0
M  V30 9014 C 867.077 0.633055 -2.25897 0
M  V30 9015 C 868.093 1.17613 -1.28231 0
M  V30 9016 O 869.269 1.20797 -1.61153 0
M  V30 9017 C 866.334 1.80397 -2.96071 0
M  V30 9018 C 865.395 1.29829 -4.09198 0
M  V30 9019 C 864.628 2.4134 -4.76016 0
M  V30 9020 O 864.851 3.60537 -4.42006 0
M  V30 9021 O 863.785 2.09909 -5.64111 0
M  V30 9022 H 867.611 0.0614381 -3.03638 0
M  V30 9023 H 865.196 -0.0355072 -1.49358 0
M  V30 9024 H 867.078 2.48685 -3.40197 0
M  V30 9025 H 865.753 2.36281 -2.21253 0
M  V30 9026 H 864.66 0.582086 -3.69544 0
M  V30 9027 H 865.993 0.785288 -4.85895 0
M  V30 9028 N 867.645 1.57599 0.00500368 0
M  V30 9029 C 868.893 1.89973 0.68953 0
M  V30 9030 C 869.214 0.868531 1.7459 0
M  V30 9031 O 868.484 -0.0947367 1.95671 0
M  V30 9032 H 867.064 0.701153 0.25767 0
M  V30 9033 H 869.726 1.94869 -0.0347392 0
M  V30 9034 H 868.822 2.89584 1.16394 0
M  V30 9035 N 869.123 -0.277682 1.55134 0
M  V30 9036 C 870.371 -1.00791 1.75173 0
M  V30 9037 C 870.692 -1.86987 0.553266 0
M  V30 9038 O 869.962 -1.91079 -0.43195 0
M  V30 9039 H 868.542 -0.375129 0.645978 0
M  V30 9040 H 871.204 -0.303041 1.9253 0
M  V30 9041 H 870.3 -1.64756 2.6507 0
M  V30 9042 N 870.601 -1.47988 -0.541979 0
M  V30 9043 C 871.847 -1.55623 -1.30036 0
M  V30 9044 C 872.18 -0.224254 -1.92901 0
M  V30 9045 O 871.455 0.768629 -1.78668 0
M  V30 9046 C 871.738 -2.68562 -2.39888 0
M  V30 9047 C 871.591 -4.11426 -1.81792 0
M  V30 9048 C 872.91 -2.77325 -3.41729 0
M  V30 9049 H 870.029 -0.566498 -0.471433 0
M  V30 9050 H 872.671 -1.8011 -0.604998 0
M  V30 9051 H 870.821 -2.47814 -2.992 0
M  V30 9052 H 872.493 -4.43581 -1.26624 0
M  V30 9053 H 870.736 -4.18989 -1.12386 0
M  V30 9054 H 871.407 -4.8625 -2.61276 0
M  V30 9055 H 873.883 -2.96085 -2.92357 0
M  V30 9056 H 872.759 -3.58097 -4.16002 0
M  V30 9057 H 873.02 -1.84995 -4.01534 0
M  V30 9058 N 872.079 0.78992 -1.36375 0
M  V30 9059 C 873.325 1.55007 -1.3077 0
M  V30 9060 C 873.658 1.93871 0.112979 0
M  V30 9061 O 872.933 1.6267 1.06625 0
M  V30 9062 C 873.216 2.82748 -2.22993 0
M  V30 9063 C 873.069 2.50253 -3.73756 0
M  V30 9064 C 874.388 3.84569 -2.13998 0
M  V30 9065 H 871.507 0.562362 -0.476359 0
M  V30 9066 H 874.149 0.907582 -1.66922 0
M  V30 9067 H 872.299 3.37573 -1.92292 0
M  V30 9068 H 873.971 2.01482 -4.14973 0
M  V30 9069 H 872.214 1.83203 -3.93216 0
M  V30 9070 H 872.885 3.41487 -4.33694 0
M  V30 9071 H 875.361 3.39188 -2.4102 0
M  V30 9072 H 874.237 4.717 -2.80697 0
M  V30 9073 H 874.498 4.27491 -1.12711 0
M  V30 9074 N 873.557 1.20646 1.01402 0
M  V30 9075 C 874.805 1.01618 1.74695 0
M  V30 9076 C 875.126 -0.452438 1.89679 0
M  V30 9077 O 874.396 -1.32693 1.44116 0
M  V30 9078 H 872.976 0.373013 0.647202 0
M  V30 9079 H 875.638 1.518 1.22241 0
M  V30 9080 H 874.734 1.47666 2.74957 0
M  V30 9081 N 875.035 -1.20752 1.01276 0
M  V30 9082 C 875.982 -2.234 0.579732 0
M  V30 9083 C 876.952 -1.61256 -0.398206 0
M  V30 9084 O 878.137 -1.8845 -0.29851 0
M  V30 9085 C 875.277 -3.45008 -0.0797006 0
M  V30 9086 C 874.39 -4.21597 0.942343 0
M  V30 9087 C 873.525 -5.30591 0.254364 0
M  V30 9088 C 872.564 -5.98919 1.26343 0
M  V30 9089 N 871.701 -6.99511 0.602384 0
M  V30 9090 H 876.541 -2.59801 1.45971 0
M  V30 9091 H 874.078 -1.27663 0.730787 0
M  V30 9092 H 876.036 -4.1444 -0.479125 0
M  V30 9093 H 874.666 -3.09312 -0.923354 0
M  V30 9094 H 873.718 -3.51268 1.45996 0
M  V30 9095 H 875.03 -4.68576 1.70992 0
M  V30 9096 H 874.184 -6.06368 -0.200763 0
M  V30 9097 H 872.923 -4.84639 -0.545553 0
M  V30 9098 H 871.928 -5.21906 1.72898 0
M  V30 9099 H 873.153 -6.46957 2.06456 0
M  V30 9100 H 871.099 -6.55759 -0.177734 0
M  V30 9101 H 871.016 -7.44597 1.30809 0
M  V30 9102 H 872.284 -7.79313 0.17072 0
M  V30 9103 N 876.513 -0.788492 -1.36457 0
M  V30 9104 C 877.738 -0.371224 -2.04051 0
M  V30 9105 C 878.163 1.004 -1.59064 0
M  V30 9106 O 877.521 1.64663 -0.758679 0
M  V30 9107 C 877.569 -0.442275 -3.57877 0
M  V30 9108 O 876.673 0.55113 -4.08701 0
M  V30 9109 H 876.014 -0.157808 -0.644975 0
M  V30 9110 H 878.544 -1.06935 -1.74431 0
M  V30 9111 H 878.554 -0.305548 -4.06854 0
M  V30 9112 H 877.229 -1.44547 -3.89973 0
M  V30 9113 H 875.806 0.37614 -3.70998 0
M  V30 9114 N 877.991 1.48044 -0.54043 0
M  V30 9115 C 878.954 2.28273 0.205966 0
M  V30 9116 C 879.954 1.35983 0.858209 0
M  V30 9117 O 881.144 1.58776 0.716651 0
M  V30 9118 C 878.276 3.15174 1.29917 0
M  V30 9119 H 879.469 2.95727 -0.498555 0
M  V30 9120 H 877.022 1.53457 -0.296745 0
M  V30 9121 H 877.757 2.52374 2.03661 0
M  V30 9122 H 877.542 3.83074 0.836475 0
M  V30 9123 H 879.032 3.75666 1.82387 0
M  V30 9124 N 879.47 0.276058 1.55163 0
M  V30 9125 C 880.747 -0.392292 1.91626 0
M  V30 9126 C 881.127 -1.73646 1.20043 0
M  V30 9127 O 880.475 -2.26139 0.327606 0
M  V30 9128 C 880.685 -0.531641 3.44927 0
M  V30 9129 C 882.033 -0.8141 4.16722 0
M  V30 9130 O 883.057 -0.616413 3.50826 0
M  V30 9131 O 881.916 -1.19224 5.33337 0
M  V30 9132 H 879.01 -0.214945 0.798579 0
M  V30 9133 H 881.556 0.32228 1.66612 0
M  V30 9134 H 880.328 0.414282 3.89101 0
M  V30 9135 H 879.951 -1.29564 3.75897 0
M  V30 9136 N 880.948 -1.576 0.00335426 0
M  V30 9137 C 882.195 -1.90713 -0.680791 0
M  V30 9138 C 882.523 -0.877263 -1.73592 0
M  V30 9139 O 881.778 0.117497 -1.95347 0
M  V30 9140 C 882.077 -3.3058 -1.35837 0
M  V30 9141 C 881.743 -4.48786 -0.436111 0
M  V30 9142 C 880.405 -4.80855 -0.182195 0
M  V30 9143 C 882.757 -5.20821 0.198677 0
M  V30 9144 C 880.085 -5.8233 0.714747 0
M  V30 9145 C 882.437 -6.23252 1.08351 0
M  V30 9146 C 881.101 -6.53776 1.34658 0
M  V30 9147 H 880.371 -0.697869 -0.249119 0
M  V30 9148 H 883.018 -1.91407 0.0596011 0
M  V30 9149 H 881.323 -3.26026 -2.17289 0
M  V30 9150 H 883.02 -3.53462 -1.89383 0
M  V30 9151 H 879.61 -4.23731 -0.644186 0
M  V30 9152 H 883.794 -4.96298 0.0155259 0
M  V30 9153 H 879.05 -6.04339 0.926529 0
M  V30 9154 H 883.224 -6.78199 1.58172 0
M  V30 9155 H 880.851 -7.32225 2.04328 0
M  V30 9156 N 882.426 0.269451 -1.5528 0
M  V30 9157 C 883.672 1.00206 -1.76314 0
M  V30 9158 C 884.005 1.85812 -0.564581 0
M  V30 9159 O 883.28 1.89509 0.437769 0
M  V30 9160 C 883.563 1.88163 -3.07029 0
M  V30 9161 C 883.416 1.05527 -4.37246 0
M  V30 9162 C 884.735 2.8681 -3.33808 0
M  V30 9163 H 881.854 0.36288 -0.641473 0
M  V30 9164 H 884.496 0.274188 -1.88011 0
M  V30 9165 H 882.646 2.50224 -2.97187 0
M  V30 9166 H 884.318 0.455094 -4.5905 0
M  V30 9167 H 882.561 0.358842 -4.32313 0
M  V30 9168 H 883.232 1.70397 -5.25042 0
M  V30 9169 H 885.708 2.34884 -3.43466 0
M  V30 9170 H 884.584 3.45492 -4.26528 0
M  V30 9171 H 884.845 3.62118 -2.5362 0
M  V30 9172 N 883.904 1.48273 0.534124 0
M  V30 9173 C 885.15 1.56311 1.29208 0
M  V30 9174 C 885.483 0.234481 1.92779 0
M  V30 9175 O 884.758 -0.759143 1.79073 0
M  V30 9176 C 885.041 2.69831 2.3846 0
M  V30 9177 C 884.894 4.12385 1.79608 0
M  V30 9178 C 886.213 2.79133 3.40254 0
M  V30 9179 H 883.332 0.56899 0.468422 0
M  V30 9180 H 885.974 1.80429 0.595438 0
M  V30 9181 H 884.124 2.49397 2.97881 0
M  V30 9182 H 885.796 4.44246 1.24269 0
M  V30 9183 H 884.039 4.19579 1.10162 0
M  V30 9184 H 884.71 4.87629 2.58693 0
M  V30 9185 H 887.186 2.97632 2.90783 0
M  V30 9186 H 886.062 3.60298 4.14097 0
M  V30 9187 H 886.323 1.87122 4.00547 0
M  V30 9188 N 885.382 -0.782676 1.36792 0
M  V30 9189 C 886.292 -1.92679 1.33835 0
M  V30 9190 C 887.308 -1.72344 0.23952 0
M  V30 9191 O 888.484 -1.95766 0.473045 0
M  V30 9192 C 885.549 -3.27644 1.1336 0
M  V30 9193 C 884.61 -3.6071 2.32781 0
M  V30 9194 C 883.843 -4.89234 2.13273 0
M  V30 9195 O 884.066 -5.59468 1.11136 0
M  V30 9196 O 883 -5.21112 3.01208 0
M  V30 9197 H 886.826 -1.98124 2.30175 0
M  V30 9198 H 884.411 -0.923887 1.17408 0
M  V30 9199 H 886.293 -4.08394 1.03886 0
M  V30 9200 H 884.968 -3.23076 0.200868 0
M  V30 9201 H 883.875 -2.80238 2.47825 0
M  V30 9202 H 885.208 -3.70008 3.24584 0
M  V30 9203 N 886.86 -1.21182 -1.00761 0
M  V30 9204 C 887.823 -0.970339 -2.07646 0
M  V30 9205 C 888.823 0.0576345 -1.60697 0
M  V30 9206 O 890.013 -0.179369 -1.73274 0
M  V30 9207 C 887.145 -0.462703 -3.37745 0
M  V30 9208 H 888.338 -1.91856 -2.30502 0
M  V30 9209 H 885.891 -1.02844 -1.17698 0
M  V30 9210 H 886.626 0.490559 -3.20568 0
M  V30 9211 H 886.411 -1.20416 -3.73152 0
M  V30 9212 H 887.901 -0.313531 -4.16421 0
M  V30 9213 N 888.338 1.20213 -1.01915 0
M  V30 9214 C 889.587 1.88968 -0.705261 0
M  V30 9215 C 889.9 1.79869 0.768531 0
M  V30 9216 O 891.106 2.43783 1.19508 0
M  V30 9217 C 889.562 3.38911 -1.21109 0
M  V30 9218 C 889.17 3.5659 -2.71197 0
M  V30 9219 C 890.914 4.13204 -0.97275 0
M  V30 9220 C 888.821 5.00372 -3.15248 0
M  V30 9221 H 887.751 0.707715 -0.260107 0
M  V30 9222 H 890.402 1.35977 -1.23217 0
M  V30 9223 H 888.784 3.9124 -0.612152 0
M  V30 9224 H 889.958 3.14635 -3.36662 0
M  V30 9225 H 888.273 2.95671 -2.93202 0
M  V30 9226 H 890.87 5.19221 -1.27726 0
M  V30 9227 H 891.213 4.16201 0.09072 0
M  V30 9228 H 891.746 3.66983 -1.5352 0
M  V30 9229 H 888.485 5.02532 -4.20882 0
M  V30 9230 H 888.005 5.43127 -2.54505 0
M  V30 9231 H 889.684 5.68969 -3.08032 0
M  V30 9232 N 889.816 0.795718 1.36037 0
M  V30 9233 C 891.064 0.370291 1.98679 0
M  V30 9234 C 891.385 -1.06332 1.63458 0
M  V30 9235 O 890.655 -1.73394 0.911671 0
M  V30 9236 H 889.235 0.133928 0.734896 0
M  V30 9237 H 891.897 1.01915 1.6613 0
M  V30 9238 H 890.993 0.467207 3.08583 0
M  V30 9239 N 891.294 -1.47756 0.548274 0
M  V30 9240 C 892.571 -1.9555 -0.0443603 0
M  V30 9241 C 892.951 -1.49079 -1.49462 0
M  V30 9242 O 892.299 -0.725538 -2.16675 0
M  V30 9243 C 892.509 -3.48879 0.0918425 0
M  V30 9244 C 893.857 -4.2456 -0.0580879 0
M  V30 9245 O 894.881 -3.56195 0.018946 0
M  V30 9246 O 893.74 -5.46048 -0.222261 0
M  V30 9247 H 890.834 -0.824106 -0.0691235 0
M  V30 9248 H 893.38 -1.58196 0.614166 0
M  V30 9249 H 892.152 -3.7548 1.10137 0
M  V30 9250 H 891.775 -3.92975 -0.604704 0
M  V30 9251 N 892.772 -0.284283 -1.55015 0
M  V30 9252 C 894.049 0.382125 -1.91831 0
M  V30 9253 C 894.429 1.73007 -1.20962 0
M  V30 9254 O 893.777 2.25962 -0.339594 0
M  V30 9255 C 893.987 0.513341 -3.45204 0
M  V30 9256 C 895.335 0.791989 -4.17148 0
M  V30 9257 O 896.359 0.597799 -3.51148 0
M  V30 9258 O 895.218 1.16394 -5.33961 0
M  V30 9259 H 892.312 0.210707 -0.799707 0
M  V30 9260 H 894.858 -0.331111 -1.66438 0
M  V30 9261 H 893.63 -0.434911 -3.88876 0
M  V30 9262 H 893.253 1.27569 -3.76579 0
M  V30 9263 N 894.251 1.57596 -0.0117121 0
M  V30 9264 C 895.497 1.91355 0.671661 0
M  V30 9265 C 895.83 0.886818 1.72769 0
M  V30 9266 O 895.105 -0.0928813 1.94278 0
M  V30 9267 C 895.388 3.35657 1.30409 0
M  V30 9268 C 895.241 4.49055 0.2588 0
M  V30 9269 C 896.56 3.79595 2.22701 0
M  V30 9270 H 893.679 0.695893 0.242698 0
M  V30 9271 H 896.321 1.89887 -0.0654071 0
M  V30 9272 H 894.471 3.37038 1.9323 0
M  V30 9273 H 896.143 4.59809 -0.370631 0
M  V30 9274 H 894.386 4.31785 -0.417672 0
M  V30 9275 H 895.057 5.4701 0.740578 0
M  V30 9276 H 897.533 3.7984 1.69885 0
M  V30 9277 H 896.409 4.81292 2.63912 0
M  V30 9278 H 896.67 3.14118 3.11098 0
M  V30 9279 N 895.729 -0.261212 1.5542 0
M  V30 9280 C 896.977 -0.989272 1.76232 0
M  V30 9281 C 897.298 -1.86389 0.573067 0
M  V30 9282 O 896.568 -1.91526 -0.41166 0
M  V30 9283 H 895.148 -0.368256 0.64992 0
M  V30 9284 H 897.81 -0.282603 1.9284 0
M  V30 9285 H 896.906 -1.61935 2.66802 0
M  V30 9286 N 897.207 -1.48554 -0.526253 0
M  V30 9287 C 898.435 -1.60429 -1.30652 0
M  V30 9288 C 898.85 -0.265963 -1.86917 0
M  V30 9289 O 898.207 0.745262 -1.6659 0
M  V30 9290 C 898.258 -2.65377 -2.45473 0
M  V30 9291 O 897.979 -3.94017 -1.91527 0
M  V30 9292 C 899.48 -2.87726 -3.37237 0
M  V30 9293 H 896.7 -0.540817 -0.397187 0
M  V30 9294 H 899.244 -1.94409 -0.634461 0
M  V30 9295 H 897.399 -2.34246 -3.08557 0
M  V30 9296 H 897.813 -4.51623 -2.66715 0
M  V30 9297 H 899.287 -3.64951 -4.14144 0
M  V30 9298 H 899.764 -1.96688 -3.92696 0
M  V30 9299 H 900.37 -3.20176 -2.79942 0
M  V30 9300 N 898.685 0.775411 -1.37205 0
M  V30 9301 C 899.615 1.90258 -1.35367 0
M  V30 9302 C 900.596 1.68634 -0.222864 0
M  V30 9303 O 901.781 1.89545 -0.422659 0
M  V30 9304 C 898.911 3.27488 -1.15623 0
M  V30 9305 C 897.865 3.63668 -2.25676 0
M  V30 9306 C 897.191 4.994 -1.91059 0
M  V30 9307 C 898.491 3.70797 -3.67841 0
M  V30 9308 H 900.185 1.92053 -2.29687 0
M  V30 9309 H 897.731 0.922597 -1.10563 0
M  V30 9310 H 899.684 4.05976 -1.12968 0
M  V30 9311 H 898.408 3.26117 -0.177573 0
M  V30 9312 H 897.067 2.87486 -2.2748 0
M  V30 9313 H 896.715 4.94565 -0.917324 0
M  V30 9314 H 896.415 5.24576 -2.64751 0
M  V30 9315 H 897.939 5.80291 -1.89985 0
M  V30 9316 H 899.353 4.39444 -3.68187 0
M  V30 9317 H 897.75 4.07468 -4.40556 0
M  V30 9318 H 898.82 2.71549 -4.01732 0
M  V30 9319 N 900.163 1.21714 1.00117 0
M  V30 9320 C 901.411 1.03465 1.73607 0
M  V30 9321 C 901.732 -0.432295 1.90148 0
M  V30 9322 O 901.002 -1.31157 1.45515 0
M  V30 9323 H 899.582 0.379857 0.643209 0
M  V30 9324 H 902.244 1.53088 1.20624 0
M  V30 9325 H 901.34 1.50574 2.73375 0
M  V30 9326 N 901.641 -1.19671 1.02551 0
M  V30 9327 C 902.888 -1.89268 0.720002 0
M  V30 9328 C 903.216 -1.79411 -0.751127 0
M  V30 9329 O 902.471 -1.17859 -1.5623 0
M  V30 9330 C 902.77 -3.39647 1.11241 0
M  V30 9331 C 902.436 -3.69706 2.58125 0
M  V30 9332 C 901.098 -3.7762 2.98256 0
M  V30 9333 C 903.45 -3.83301 3.53171 0
M  V30 9334 C 900.778 -3.96594 4.32354 0
M  V30 9335 C 903.13 -4.03788 4.86968 0
M  V30 9336 C 901.794 -4.09934 5.26793 0
M  V30 9337 H 901.064 -0.692579 0.263467 0
M  V30 9338 H 903.711 -1.41738 1.28774 0
M  V30 9339 H 902.016 -3.89052 0.463234 0
M  V30 9340 H 903.713 -3.91809 0.853602 0
M  V30 9341 H 900.303 -3.64152 2.26033 0
M  V30 9342 H 904.487 -3.76534 3.2332 0
M  V30 9343 H 899.743 -3.9959 4.6275 0
M  V30 9344 H 903.917 -4.1325 5.60533 0
M  V30 9345 H 901.544 -4.24389 6.30712 0
M  V30 9346 N 903.119 -0.802921 -1.35613 0
M  V30 9347 C 904.344 -0.392846 -2.03645 0
M  V30 9348 C 904.769 0.987075 -1.6012 0
M  V30 9349 O 904.127 1.63849 -0.776101 0
M  V30 9350 C 904.175 -0.480208 -3.57388 0
M  V30 9351 O 903.279 0.507751 -4.09262 0
M  V30 9352 H 902.62 -0.16464 -0.643265 0
M  V30 9353 H 905.15 -1.08779 -1.73287 0
M  V30 9354 H 905.16 -0.348683 -4.06507 0
M  V30 9355 H 903.835 -1.48675 -3.88418 0
M  V30 9356 H 902.412 0.336769 -3.71376 0
M  V30 9357 N 904.597 1.47463 -0.556102 0
M  V30 9358 C 905.843 2.02775 -0.0316806 0
M  V30 9359 C 906.176 1.42967 1.3143 0
M  V30 9360 O 905.451 0.584847 1.85499 0
M  V30 9361 C 905.734 3.60046 0.0625742 0
M  V30 9362 C 905.587 4.30288 -1.31043 0
M  V30 9363 C 906.906 4.33195 0.776553 0
M  V30 9364 H 904.025 0.736886 -0.0129869 0
M  V30 9365 H 906.667 1.75904 -0.718177 0
M  V30 9366 H 904.817 3.83071 0.647231 0
M  V30 9367 H 906.489 4.18607 -1.9382 0
M  V30 9368 H 904.732 3.90685 -1.8854 0
M  V30 9369 H 905.403 5.38861 -1.1972 0
M  V30 9370 H 907.879 4.15156 0.280147 0
M  V30 9371 H 906.755 5.42869 0.81146 0
M  V30 9372 H 907.016 4.02336 1.83244 0
M  V30 9373 N 906.075 0.2925 1.54862 0
M  V30 9374 C 906.985 -0.597036 2.26876 0
M  V30 9375 C 908.001 -1.15558 1.30086 0
M  V30 9376 O 909.177 -1.18217 1.63054 0
M  V30 9377 C 906.242 -1.75664 2.98903 0
M  V30 9378 C 905.303 -1.23303 4.11212 0
M  V30 9379 C 904.536 -2.33736 4.79795 0
M  V30 9380 O 904.759 -3.53459 4.47686 0
M  V30 9381 O 903.693 -2.00908 5.67379 0
M  V30 9382 H 907.519 -0.0131242 3.03697 0
M  V30 9383 H 905.104 0.0592642 1.49282 0
M  V30 9384 H 906.986 -2.43241 3.4411 0
M  V30 9385 H 905.661 -2.32731 2.24984 0
M  V30 9386 H 904.568 -0.523222 3.70423 0
M  V30 9387 H 905.901 -0.707887 4.87083 0
M  V30 9388 N 907.553 -1.57587 0.0200696 0
M  V30 9389 C 908.801 -1.91046 -0.65922 0
M  V30 9390 C 909.122 -0.896197 -1.73186 0
M  V30 9391 O 908.392 0.0635952 -1.95797 0
M  V30 9392 H 906.972 -0.705163 -0.246483 0
M  V30 9393 H 909.634 -1.94789 0.0657368 0
M  V30 9394 H 908.73 -2.91399 -1.11773 0
M  V30 9395 N 909.032 0.252966 -1.55557 0
M  V30 9396 C 910.443 0.822503 -1.67606 0
M  V30 9397 C 910.794 1.86265 -0.616411 0
M  V30 9398 O 909.919 2.15082 0.238447 0
M  V30 9399 C 910.514 1.49866 -3.03852 0
M  V30 9400 C 909.073 2.01597 -3.17861 0
M  V30 9401 C 908.22 0.864943 -2.63465 0
M  V30 9402 H 911.171 0.0288958 -1.58674 0
M  V30 9403 H 911.192 2.36646 -2.97958 0
M  V30 9404 H 910.704 0.741378 -3.80953 0
M  V30 9405 H 908.805 2.80224 -2.45571 0
M  V30 9406 H 908.918 2.21752 -4.24692 0
M  V30 9407 H 907.282 1.2638 -2.21134 0
M  V30 9408 H 908.065 0.120847 -3.43087 0
M  V30 9409 N 910.51 1.48831 0.518367 0
M  V30 9410 C 911.735 1.61379 1.30275 0
M  V30 9411 C 912.16 0.278571 1.86026 0
M  V30 9412 O 911.518 -0.751427 1.64995 0
M  V30 9413 C 911.566 2.67225 2.42122 0
M  V30 9414 O 910.67 2.25192 3.45489 0
M  V30 9415 H 910.011 0.540742 0.385349 0
M  V30 9416 H 912.541 1.949 0.622498 0
M  V30 9417 H 912.551 2.88859 2.8814 0
M  V30 9418 H 911.226 3.64155 2.00907 0
M  V30 9419 H 909.803 2.13819 3.05509 0
M  V30 9420 N 911.988 -0.768124 1.37614 0
M  V30 9421 C 912.92 -1.89076 1.29548 0
M  V30 9422 C 913.933 -1.61433 0.21056 0
M  V30 9423 O 915.122 -1.72283 0.466992 0
M  V30 9424 C 912.222 -3.24388 0.981102 0
M  V30 9425 C 911.395 -3.79649 2.17222 0
M  V30 9426 C 910.454 -4.93444 1.82754 0
M  V30 9427 O 909.48 -5.0884 2.5509 0
M  V30 9428 N 910.682 -5.75319 0.773819 0
M  V30 9429 H 913.447 -1.9651 2.26283 0
M  V30 9430 H 911.008 -0.947399 1.31286 0
M  V30 9431 H 913 -3.98038 0.731301 0
M  V30 9432 H 911.57 -3.12433 0.102203 0
M  V30 9433 H 910.79 -2.97735 2.58355 0
M  V30 9434 H 912.078 -4.13302 2.96748 0
M  V30 9435 H 911.476 -5.65433 0.173644 0
M  V30 9436 H 910.033 -6.4918 0.583882 0
M  V30 9437 N 913.466 -1.22244 -0.994698 0
M  V30 9438 C 914.429 -0.992308 -2.06606 0
M  V30 9439 C 915.429 0.0405872 -1.60749 0
M  V30 9440 O 916.619 -0.197737 -1.73074 0
M  V30 9441 C 913.751 -0.498499 -3.37236 0
M  V30 9442 H 914.944 -1.9429 -2.28455 0
M  V30 9443 H 912.497 -1.04087 -1.166 0
M  V30 9444 H 913.232 0.456531 -3.21071 0
M  V30 9445 H 913.017 -1.24367 -3.71854 0
M  V30 9446 H 914.507 -0.35768 -4.16065 0
M  V30 9447 N 914.944 1.19125 -1.03184 0
M  V30 9448 C 915.891 2.2245 -0.6152 0
M  V30 9449 C 916.861 1.61869 0.372502 0
M  V30 9450 O 918.046 1.88901 0.268491 0
M  V30 9451 C 915.186 3.45091 0.0248027 0
M  V30 9452 C 914.299 4.20044 -1.0093 0
M  V30 9453 C 913.434 5.30119 -0.338744 0
M  V30 9454 C 912.473 5.96833 -1.35855 0
M  V30 9455 N 911.61 6.98464 -0.713594 0
M  V30 9456 H 916.45 2.57445 -1.50086 0
M  V30 9457 H 913.987 1.26485 -0.751005 0
M  V30 9458 H 915.945 4.15149 0.413131 0
M  V30 9459 H 914.575 3.10742 0.874028 0
M  V30 9460 H 913.627 3.48901 -1.51566 0
M  V30 9461 H 914.939 4.65796 -1.78425 0
M  V30 9462 H 914.093 6.0661 0.104269 0
M  V30 9463 H 912.832 4.85446 0.468382 0
M  V30 9464 H 911.837 5.1909 -1.81179 0
M  V30 9465 H 913.062 6.4359 -2.16722 0
M  V30 9466 H 911.008 6.55959 0.0733863 0
M  V30 9467 H 910.925 7.42422 -1.42638 0
M  V30 9468 H 912.193 7.78943 -0.294681 0
M  V30 9469 N 916.422 0.810101 1.35185 0
M  V30 9470 C 917.671 0.388589 1.97921 0
M  V30 9471 C 917.984 -1.05079 1.64978 0
M  V30 9472 O 919.19 -1.57559 2.21105 0
M  V30 9473 C 917.646 0.643864 3.54094 0
M  V30 9474 C 917.254 2.09602 3.95943 0
M  V30 9475 C 918.998 0.287883 4.23523 0
M  V30 9476 C 916.905 2.29686 5.44976 0
M  V30 9477 H 915.835 0.141562 0.740592 0
M  V30 9478 H 918.486 0.994653 1.54204 0
M  V30 9479 H 916.868 -0.0321978 3.95987 0
M  V30 9480 H 918.042 2.81018 3.65192 0
M  V30 9481 H 916.357 2.4122 3.39414 0
M  V30 9482 H 918.954 0.415946 5.3308 0
M  V30 9483 H 919.297 -0.766305 4.09186 0
M  V30 9484 H 919.83 0.918004 3.87063 0
M  V30 9485 H 916.569 3.33563 5.64284 0
M  V30 9486 H 916.089 1.62798 5.77284 0
M  V30 9487 H 917.768 2.11411 6.11485 0
M  V30 9488 N 917.9 -1.47166 0.563914 0
M  V30 9489 C 918.81 -2.33885 -0.182977 0
M  V30 9490 C 919.826 -1.48605 -0.905132 0
M  V30 9491 O 921.002 -1.81518 -0.872527 0
M  V30 9492 C 918.067 -3.25433 -1.19558 0
M  V30 9493 C 917.128 -4.26607 -0.480129 0
M  V30 9494 C 916.361 -5.1378 -1.44449 0
M  V30 9495 O 916.584 -5.03531 -2.67979 0
M  V30 9496 O 915.518 -5.94109 -0.965321 0
M  V30 9497 H 919.344 -2.99065 0.528544 0
M  V30 9498 H 916.929 -1.45834 0.324468 0
M  V30 9499 H 918.811 -3.81964 -1.77993 0
M  V30 9500 H 917.486 -2.62873 -1.8889 0
M  V30 9501 H 916.393 -3.73817 0.145583 0
M  V30 9502 H 917.726 -4.919 0.171868 0
M  V30 9503 N 919.378 -0.300708 -1.54705 0
M  V30 9504 C 920.618 0.30953 -2.02043 0
M  V30 9505 C 920.982 1.51114 -1.18442 0
M  V30 9506 O 922.183 2.19273 -1.55477 0
M  V30 9507 C 920.454 0.657489 -3.513 0
M  V30 9508 S 922.013 1.25063 -4.206 0
M  V30 9509 H 918.831 0.0950019 -0.704624 0
M  V30 9510 H 921.433 -0.428512 -1.90746 0
M  V30 9511 H 920.137 -0.225532 -4.0978 0
M  V30 9512 H 919.668 1.42633 -3.66633 0
M  V30 9513 H 921.683 2.53844 -4.26354 0
M  V30 9514 N 920.856 1.57574 -0.0284266 0
M  V30 9515 C 922.133 1.83064 0.688979 0
M  V30 9516 C 922.513 0.91219 1.90374 0
M  V30 9517 O 921.861 -0.0323672 2.28477 0
M  V30 9518 C 922.071 3.32262 1.06785 0
M  V30 9519 C 923.419 3.98717 1.45978 0
M  V30 9520 O 924.443 3.36753 1.16085 0
M  V30 9521 O 923.302 5.07927 2.01673 0
M  V30 9522 H 920.396 0.7548 0.337944 0
M  V30 9523 H 922.942 1.69607 -0.0560555 0
M  V30 9524 H 921.714 3.90772 0.203235 0
M  V30 9525 H 921.337 3.50823 1.87107 0
M  V30 9526 N 922.334 -0.244713 1.55689 0
M  V30 9527 C 923.611 -0.995407 1.68378 0
M  V30 9528 C 923.991 -2.03288 0.568949 0
M  V30 9529 O 923.339 -2.24469 -0.427299 0
M  V30 9530 C 923.549 -1.62678 3.08767 0
M  V30 9531 C 924.897 -2.1278 3.67437 0
M  V30 9532 O 925.921 -1.72614 3.11581 0
M  V30 9533 O 924.78 -2.86536 4.65359 0
M  V30 9534 H 921.874 -0.463476 0.684923 0
M  V30 9535 H 924.42 -0.238326 1.68018 0
M  V30 9536 H 923.192 -0.876469 3.81358 0
M  V30 9537 H 922.815 -2.45 3.13146 0
M  V30 9538 N 923.813 -1.49104 -0.510467 0
M  V30 9539 C 924.76 -1.65074 -1.61305 0
M  V30 9540 C 925.73 -0.492362 -1.58635 0
M  V30 9541 O 926.915 -0.718241 -1.76765 0
M  V30 9542 C 924.055 -1.71457 -2.99493 0
M  V30 9543 C 923.168 -2.98536 -3.12251 0
M  V30 9544 C 922.303 -2.95957 -4.41116 0
M  V30 9545 C 921.342 -4.17655 -4.47471 0
M  V30 9546 N 920.479 -4.13041 -5.67751 0
M  V30 9547 H 925.319 -2.59222 -1.46996 0
M  V30 9548 H 922.856 -1.28535 -0.715346 0
M  V30 9549 H 924.814 -1.7314 -3.79577 0
M  V30 9550 H 923.444 -0.807834 -3.12528 0
M  V30 9551 H 922.496 -3.06509 -2.25292 0
M  V30 9552 H 923.808 -3.88527 -3.12807 0
M  V30 9553 H 922.962 -2.96149 -5.2951 0
M  V30 9554 H 921.701 -2.03728 -4.4311 0
M  V30 9555 H 920.706 -4.17717 -3.57481 0
M  V30 9556 H 921.931 -5.11066 -4.472 0
M  V30 9557 H 919.877 -3.23643 -5.70606 0
M  V30 9558 H 919.794 -4.96757 -5.69884 0
M  V30 9559 H 921.062 -4.17322 -6.58379 0
M  V30 9560 N 925.291 0.760815 -1.38019 0
M  V30 9561 C 926.539 1.51673 -1.33566 0
M  V30 9562 C 926.86 1.94852 0.076024 0
M  V30 9563 O 926.13 1.67112 1.02227 0
M  V30 9564 H 924.71 0.562581 -0.491438 0
M  V30 9565 H 927.372 0.904832 -1.72623 0
M  V30 9566 H 926.468 2.41102 -1.98182 0
M  V30 9567 N 926.769 1.22769 0.988202 0
M  V30 9568 C 928.046 0.9635 1.70223 0
M  V30 9569 C 928.426 -0.520102 2.04593 0
M  V30 9570 O 927.774 -1.48934 1.73295 0
M  V30 9571 C 927.984 1.86583 2.94937 0
M  V30 9572 C 929.332 2.12469 3.67616 0
M  V30 9573 O 930.356 1.84069 3.04954 0
M  V30 9574 O 929.215 2.60595 4.80367 0
M  V30 9575 H 926.309 0.362737 0.743203 0
M  V30 9576 H 928.855 1.33776 1.04412 0
M  V30 9577 H 927.627 2.86913 2.66077 0
M  V30 9578 H 927.25 1.49344 3.68486 0
M  V30 9579 N 928.247 -1.18576 1.03814 0
M  V30 9580 C 929.495 -1.88121 0.738574 0
M  V30 9581 C 929.816 -1.80587 -0.735744 0
M  V30 9582 O 929.086 -1.22251 -1.53074 0
M  V30 9583 H 927.666 -0.696417 0.270208 0
M  V30 9584 H 930.328 -1.43912 1.31435 0
M  V30 9585 H 929.424 -2.94222 1.04115 0
M  V30 9586 N 929.725 -0.817259 -1.34754 0
M  V30 9587 C 930.95 -0.414423 -2.03217 0
M  V30 9588 C 931.375 0.970037 -1.61158 0
M  V30 9589 O 930.733 1.63016 -0.793436 0
M  V30 9590 C 930.781 -0.518087 -3.56859 0
M  V30 9591 O 929.885 0.464314 -4.09778 0
M  V30 9592 H 929.226 -0.171454 -0.641482 0
M  V30 9593 H 931.756 -1.10611 -1.72123 0
M  V30 9594 H 931.766 -0.391779 -4.06115 0
M  V30 9595 H 930.441 -1.52786 -3.86819 0
M  V30 9596 H 929.018 0.297361 -3.71712 0
M  V30 9597 N 931.203 1.46865 -0.571711 0
M  V30 9598 C 932.443 2.04324 -0.0556487 0
M  V30 9599 C 932.807 1.43486 1.27576 0
M  V30 9600 O 934.008 1.92079 1.8804 0
M  V30 9601 C 932.279 3.57394 0.0206263 0
M  V30 9602 S 933.838 4.36159 0.480709 0
M  V30 9603 H 930.656 0.710273 -0.0321467 0
M  V30 9604 H 933.258 1.8005 -0.761725 0
M  V30 9605 H 931.962 3.99193 -0.952509 0
M  V30 9606 H 931.493 3.86188 0.749812 0
M  V30 9607 H 933.508 4.6478 1.73763 0
M  V30 9608 N 932.681 0.308908 1.54543 0
M  V30 9609 C 933.958 -0.351558 1.92415 0
M  V30 9610 C 934.338 -1.71061 1.23699 0
M  V30 9611 O 933.686 -2.25394 0.3755 0
M  V30 9612 C 933.896 -0.458357 3.45977 0
M  V30 9613 C 935.244 -0.725524 4.18355 0
M  V30 9614 O 936.268 -0.541859 3.52054 0
M  V30 9615 O 935.127 -1.07884 5.35745 0
M  V30 9616 H 932.221 -0.197957 0.802958 0
M  V30 9617 H 934.767 0.357548 1.65891 0
M  V30 9618 H 933.539 0.496723 3.88134 0
M  V30 9619 H 933.162 -1.21562 3.78561 0
M  V30 9620 N 934.159 -1.57557 0.0367827 0
M  V30 9621 C 935.405 -1.92399 -0.641133 0
M  V30 9622 C 935.738 -0.914191 -1.71336 0
M  V30 9623 O 935.013 0.0619616 -1.94401 0
M  V30 9624 C 935.296 -3.37689 -1.25052 0
M  V30 9625 C 935.149 -4.4941 -0.187326 0
M  V30 9626 C 936.468 -3.8309 -2.16634 0
M  V30 9627 H 933.587 -0.699666 -0.231597 0
M  V30 9628 H 936.229 -1.89759 0.0956083 0
M  V30 9629 H 934.379 -3.40069 -1.87843 0
M  V30 9630 H 936.051 -4.59161 0.443736 0
M  V30 9631 H 934.294 -4.31065 0.486313 0
M  V30 9632 H 934.965 -5.48119 -0.653459 0
M  V30 9633 H 937.441 -3.82494 -1.63821 0
M  V30 9634 H 936.317 -4.85429 -2.56222 0
M  V30 9635 H 936.578 -3.19028 -3.06062 0
M  V30 9636 N 935.637 0.236453 -1.55816 0
M  V30 9637 C 937.053 0.585465 -1.48474 0
M  V30 9638 C 937.253 1.8785 -0.72902 0
M  V30 9639 O 936.309 2.51131 -0.262614 0
M  V30 9640 C 937.622 0.678506 -2.92945 0
M  V30 9641 C 939.17 0.770135 -3.03378 0
M  V30 9642 C 939.645 0.894649 -4.49177 0
M  V30 9643 N 941.136 0.959253 -4.53158 0
M  V30 9644 C 941.871 1.07505 -5.63232 0
M  V30 9645 N 941.367 1.15572 -6.83092 0
M  V30 9646 N 943.16 1.10902 -5.51051 0
M  V30 9647 H 935.311 -0.612241 -2.03385 0
M  V30 9648 H 937.574 -0.212796 -0.923808 0
M  V30 9649 H 937.28 -0.201757 -3.51121 0
M  V30 9650 H 937.154 1.54703 -3.44016 0
M  V30 9651 H 939.541 1.64085 -2.45276 0
M  V30 9652 H 939.622 -0.123753 -2.555 0
M  V30 9653 H 939.266 0.0284537 -5.07892 0
M  V30 9654 H 939.196 1.80373 -4.94745 0
M  V30 9655 H 941.687 0.907827 -3.66834 0
M  V30 9656 H 942 1.24343 -7.62731 0
M  V30 9657 H 940.345 1.12511 -6.85833 0
M  V30 9658 H 943.536 1.04255 -4.56343 0
M  V30 9659 H 943.709 1.19581 -6.36871 0
M  V30 9660 N 937.115 1.49373 0.502552 0
M  V30 9661 C 938.345 1.62252 1.27898 0
M  V30 9662 C 938.753 0.292555 1.86924 0
M  V30 9663 O 938.096 -0.731823 1.68493 0
M  V30 9664 C 938.158 2.63153 2.4493 0
M  V30 9665 C 937.822 4.07541 2.06784 0
M  V30 9666 C 938.819 4.94392 1.60849 0
M  V30 9667 C 936.504 4.53263 2.16466 0
M  V30 9668 C 938.498 6.25003 1.25098 0
M  V30 9669 C 936.185 5.83888 1.80327 0
M  V30 9670 C 937.183 6.69582 1.34718 0
M  V30 9671 O 936.871 7.97773 0.990661 0
M  V30 9672 H 936.603 0.54918 0.394179 0
M  V30 9673 H 939.157 1.96132 0.610031 0
M  V30 9674 H 937.387 2.2445 3.14895 0
M  V30 9675 H 939.076 2.65578 3.06957 0
M  V30 9676 H 939.842 4.60296 1.52816 0
M  V30 9677 H 935.721 3.86731 2.50919 0
M  V30 9678 H 939.265 6.91844 0.894269 0
M  V30 9679 H 935.162 6.17513 1.8801 0
M  V30 9680 H 935.93 8.1077 1.12227 0
M  V30 9681 N 938.594 -0.753485 1.38421 0
M  V30 9682 C 939.84 -1.51391 1.35839 0
M  V30 9683 C 940.195 -1.92331 -0.0513518 0
M  V30 9684 O 939.488 -1.62568 -1.01401 0
M  V30 9685 C 939.682 -2.77836 2.24816 0
M  V30 9686 C 939.511 -2.49257 3.74301 0
M  V30 9687 C 938.281 -2.42471 4.43324 0
M  V30 9688 C 940.479 -2.16027 4.6673 0
M  V30 9689 N 938.461 -2.06168 5.78246 0
M  V30 9690 C 939.832 -1.90016 5.90164 0
M  V30 9691 C 941.887 -2.02337 4.54933 0
M  V30 9692 C 940.59 -1.51696 7.03122 0
M  V30 9693 C 942.616 -1.65419 5.67794 0
M  V30 9694 C 941.978 -1.40281 6.9029 0
M  V30 9695 H 938.077 -0.553561 0.552354 0
M  V30 9696 H 940.661 -0.877409 1.73809 0
M  V30 9697 H 938.832 -3.39295 1.89034 0
M  V30 9698 H 940.564 -3.43889 2.13359 0
M  V30 9699 H 937.319 -2.58946 3.9654 0
M  V30 9700 H 937.743 -1.90662 6.49598 0
M  V30 9701 H 942.385 -2.20447 3.60781 0
M  V30 9702 H 940.103 -1.32325 7.97192 0
M  V30 9703 H 943.689 -1.55459 5.60646 0
M  V30 9704 H 942.569 -1.12139 7.76141 0
M  V30 9705 N 940.072 -1.23292 -0.981677 0
M  V30 9706 C 941.483 -1.05936 -1.53735 0
M  V30 9707 C 941.834 0.373695 -1.92608 0
M  V30 9708 O 940.959 1.26024 -1.75917 0
M  V30 9709 C 941.554 -1.91682 -2.79363 0
M  V30 9710 C 940.113 -1.78591 -3.31334 0
M  V30 9711 C 939.26 -1.87463 -2.04335 0
M  V30 9712 H 942.211 -1.36973 -0.801505 0
M  V30 9713 H 942.232 -1.44085 -3.52164 0
M  V30 9714 H 941.744 -2.95975 -2.51039 0
M  V30 9715 H 939.845 -0.770755 -3.64541 0
M  V30 9716 H 939.958 -2.61902 -4.01179 0
M  V30 9717 H 938.322 -1.3103 -2.18411 0
M  V30 9718 H 939.105 -2.9331 -1.78394 0
M  V30 9719 N 941.55 1.18024 -1.04442 0
M  V30 9720 C 942.482 2.21294 -0.596799 0
M  V30 9721 C 943.495 1.59305 0.33552 0
M  V30 9722 O 944.684 1.7803 0.129443 0
M  V30 9723 C 941.784 3.38578 0.147648 0
M  V30 9724 C 940.957 4.30143 -0.793484 0
M  V30 9725 C 940.016 5.2612 -0.0916561 0
M  V30 9726 O 939.042 5.64586 -0.72331 0
M  V30 9727 N 940.244 5.68512 1.17364 0
M  V30 9728 H 943.009 2.6032 -1.48504 0
M  V30 9729 H 940.57 1.32847 -0.925374 0
M  V30 9730 H 942.562 3.99812 0.627098 0
M  V30 9731 H 941.132 2.98212 0.937466 0
M  V30 9732 H 940.352 3.66456 -1.45272 0
M  V30 9733 H 941.64 4.88216 -1.43258 0
M  V30 9734 H 941.038 5.39322 1.70729 0
M  V30 9735 H 939.595 6.31925 1.5973 0
M  V30 9736 N 943.028 0.824394 1.34319 0
M  V30 9737 C 943.938 0.24932 2.33271 0
M  V30 9738 C 944.954 -0.617066 1.62691 0
M  V30 9739 O 946.13 -0.524616 1.94447 0
M  V30 9740 C 943.195 -0.578094 3.41846 0
M  V30 9741 C 942.256 0.310866 4.28173 0
M  V30 9742 C 941.489 -0.477153 5.31563 0
M  V30 9743 O 941.712 -1.71028 5.44156 0
M  V30 9744 O 940.646 0.141287 6.01734 0
M  V30 9745 H 944.472 1.06837 2.84288 0
M  V30 9746 H 942.057 0.58657 1.37403 0
M  V30 9747 H 943.939 -1.04878 4.0814 0
M  V30 9748 H 942.614 -1.37444 2.93071 0
M  V30 9749 H 941.521 0.829081 3.64797 0
M  V30 9750 H 942.854 1.07161 4.80393 0
M  V30 9751 N 944.506 -1.46559 0.579492 0
M  V30 9752 C 945.469 -2.28739 -0.145371 0
M  V30 9753 C 946.469 -1.38211 -0.821854 0
M  V30 9754 O 947.659 -1.6062 -0.674302 0
M  V30 9755 C 944.791 -3.18507 -1.21515 0
M  V30 9756 H 945.984 -2.94301 0.576786 0
M  V30 9757 H 943.537 -1.52616 0.337327 0
M  V30 9758 H 944.272 -2.57685 -1.96899 0
M  V30 9759 H 944.057 -3.85157 -0.734616 0
M  V30 9760 H 945.547 -3.80369 -1.72363 0
M  V30 9761 N 945.984 -0.3171 -1.54377 0
M  V30 9762 C 947.232 0.286842 -2.00054 0
M  V30 9763 C 947.553 1.53161 -1.20692 0
M  V30 9764 O 946.823 1.93479 -0.307045 0
M  V30 9765 H 945.403 0.108979 -0.739008 0
M  V30 9766 H 948.065 -0.432152 -1.90049 0
M  V30 9767 H 947.161 0.547729 -3.07256 0
M  V30 9768 N 947.462 1.57535 -0.0451378 0
M  V30 9769 C 948.372 2.14653 0.946646 0
M  V30 9770 C 949.388 1.10279 1.3459 0
M  V30 9771 O 950.564 1.42417 1.42405 0
M  V30 9772 C 947.629 2.67533 2.20515 0
M  V30 9773 C 946.69 3.86682 1.86481 0
M  V30 9774 C 945.923 4.37031 3.06332 0
M  V30 9775 O 946.146 3.86481 4.1951 0
M  V30 9776 O 945.08 5.28691 2.87697 0
M  V30 9777 H 948.906 2.99706 0.49091 0
M  V30 9778 H 946.491 1.48355 0.17641 0
M  V30 9779 H 948.373 3.01542 2.94365 0
M  V30 9780 H 947.048 1.85554 2.65238 0
M  V30 9781 H 945.955 3.57573 1.09966 0
M  V30 9782 H 947.288 4.69873 1.46562 0
M  V30 9783 N 948.94 -0.228186 1.55939 0
M  V30 9784 C 950.17 -0.969211 1.82455 0
M  V30 9785 C 950.578 -1.78714 0.621133 0
M  V30 9786 O 949.921 -1.78841 -0.419694 0
M  V30 9787 C 949.983 -1.94088 3.02605 0
M  V30 9788 C 949.647 -1.30811 4.37878 0
M  V30 9789 C 950.644 -0.701275 5.15149 0
M  V30 9790 C 948.329 -1.32187 4.84595 0
M  V30 9791 C 950.323 -0.116631 6.37293 0
M  V30 9792 C 948.01 -0.733375 6.06683 0
M  V30 9793 C 949.008 -0.131804 6.82873 0
M  V30 9794 O 948.696 0.447549 8.02653 0
M  V30 9795 H 948.428 -0.289951 0.610659 0
M  V30 9796 H 950.982 -0.250576 2.03866 0
M  V30 9797 H 949.212 -2.69833 2.76996 0
M  V30 9798 H 950.901 -2.5469 3.1605 0
M  V30 9799 H 951.667 -0.683022 4.80166 0
M  V30 9800 H 947.546 -1.77949 4.25271 0
M  V30 9801 H 951.09 0.353539 6.96704 0
M  V30 9802 H 946.987 -0.749019 6.4114 0
M  V30 9803 H 947.755 0.341224 8.17788 0
M  V30 9804 N 950.418 -1.49637 -0.494624 0
M  V30 9805 C 951.381 -1.66252 -1.57775 0
M  V30 9806 C 952.381 -0.534054 -1.51672 0
M  V30 9807 O 953.571 -0.800637 -1.54711 0
M  V30 9808 C 950.703 -1.66584 -2.97426 0
M  V30 9809 H 951.896 -2.62864 -1.4437 0
M  V30 9810 H 949.449 -1.38764 -0.719323 0
M  V30 9811 H 950.184 -0.715798 -3.16302 0
M  V30 9812 H 949.969 -2.48543 -3.03264 0
M  V30 9813 H 951.459 -1.81474 -3.76108 0
M  V30 9814 N 951.896 0.746133 -1.38819 0
M  V30 9815 C 953.142 1.50768 -1.35635 0
M  V30 9816 C 953.475 1.94132 0.0512435 0
M  V30 9817 O 952.75 1.65979 1.01396 0
M  V30 9818 C 953.033 2.7551 -2.31875 0
M  V30 9819 C 952.886 2.38236 -3.81528 0
M  V30 9820 C 954.205 3.77566 -2.26124 0
M  V30 9821 H 951.324 0.546922 -0.494009 0
M  V30 9822 H 953.966 0.854017 -1.69725 0
M  V30 9823 H 952.116 3.31285 -2.02935 0
M  V30 9824 H 953.788 1.88178 -4.21173 0
M  V30 9825 H 952.031 1.70601 -3.98846 0
M  V30 9826 H 952.702 3.27517 -4.44339 0
M  V30 9827 H 955.178 3.31349 -2.51689 0
M  V30 9828 H 954.054 4.62531 -2.95561 0
M  V30 9829 H 954.315 4.23689 -1.26254 0
M  V30 9830 N 953.375 1.23811 0.975125 0
M  V30 9831 C 954.325 0.991036 2.05335 0
M  V30 9832 C 955.309 -0.0648793 1.60769 0
M  V30 9833 O 956.501 0.147917 1.76381 0
M  V30 9834 C 953.63 0.589822 3.38195 0
M  V30 9835 C 952.716 1.68142 3.89344 0
M  V30 9836 N 953.107 2.91274 4.13513 0
M  V30 9837 C 951.405 1.55722 4.17931 0
M  V30 9838 C 952.106 3.61987 4.55347 0
M  V30 9839 N 951.082 2.8952 4.60086 0
M  V30 9840 H 954.884 1.92612 2.21986 0
M  V30 9841 H 952.398 1.13827 1.15832 0
M  V30 9842 H 954.395 0.394075 4.15033 0
M  V30 9843 H 953.055 -0.338157 3.22934 0
M  V30 9844 H 954.066 3.27528 4.01181 0
M  V30 9845 H 950.743 0.696732 4.11645 0
M  V30 9846 H 952.133 4.67572 4.8252 0
M  V30 9847 N 954.853 -1.17469 1.05066 0
M  V30 9848 C 956.099 -1.87976 0.761113 0
M  V30 9849 C 956.432 -1.80756 -0.709995 0
M  V30 9850 O 955.707 -1.21469 -1.51906 0
M  V30 9851 C 955.99 -3.38055 1.2406 0
M  V30 9852 C 955.843 -3.54032 2.77455 0
M  V30 9853 C 957.162 -4.32036 0.838612 0
M  V30 9854 H 954.281 -0.682573 0.277963 0
M  V30 9855 H 956.923 -1.38147 1.30443 0
M  V30 9856 H 955.073 -3.80622 0.778388 0
M  V30 9857 H 956.745 -3.20489 3.3179 0
M  V30 9858 H 954.988 -2.96352 3.16793 0
M  V30 9859 H 955.659 -4.59377 3.06066 0
M  V30 9860 H 958.135 -3.97303 1.23651 0
M  V30 9861 H 957.011 -5.35583 1.20173 0
M  V30 9862 H 957.272 -4.41349 -0.257498 0
M  V30 9863 N 956.331 -0.831506 -1.3388 0
M  V30 9864 C 957.261 -0.274378 -2.31882 0
M  V30 9865 C 958.242 0.613872 -1.58637 0
M  V30 9866 O 959.427 0.538961 -1.86571 0
M  V30 9867 C 956.557 0.557498 -3.42796 0
M  V30 9868 C 955.511 -0.234337 -4.27358 0
M  V30 9869 C 954.837 0.720825 -5.29819 0
M  V30 9870 C 956.137 -1.44732 -5.01847 0
M  V30 9871 H 957.831 -1.09322 -2.78728 0
M  V30 9872 H 955.377 -0.527136 -1.34005 0
M  V30 9873 H 957.33 0.957501 -4.10378 0
M  V30 9874 H 956.054 1.40947 -2.94621 0
M  V30 9875 H 954.713 -0.61581 -3.61391 0
M  V30 9876 H 954.361 1.569 -4.77903 0
M  V30 9877 H 954.061 0.195171 -5.87276 0
M  V30 9878 H 955.585 1.1185 -6.00268 0
M  V30 9879 H 956.999 -1.12087 -5.62236 0
M  V30 9880 H 955.396 -1.90923 -5.68919 0
M  V30 9881 H 956.466 -2.22099 -4.31045 0
M  V30 9882 N 957.809 1.4625 -0.587256 0
M  V30 9883 C 959.049 2.04254 -0.0773169 0
M  V30 9884 C 959.413 1.44831 1.26047 0
M  V30 9885 O 960.614 1.94063 1.85992 0
M  V30 9886 C 958.885 3.57396 -0.0172813 0
M  V30 9887 S 960.444 4.36644 0.434422 0
M  V30 9888 H 957.262 0.709892 -0.0396783 0
M  V30 9889 H 959.864 1.79232 -0.780779 0
M  V30 9890 H 958.568 3.98161 -0.994795 0
M  V30 9891 H 958.099 3.86962 0.70881 0
M  V30 9892 H 960.114 4.66597 1.68824 0
M  V30 9893 N 959.287 0.325282 1.54207 0
M  V30 9894 C 960.235 -0.5554 2.25872 0
M  V30 9895 C 961.229 -1.11714 1.27344 0
M  V30 9896 O 962.435 -1.06498 1.45115 0
M  V30 9897 H 958.81 -0.19776 0.725531 0
M  V30 9898 H 960.781 0.0712858 2.98315 0
M  V30 9899 C 959.53 -1.70379 3.03095 0
M  V30 9900 H 958.853 -1.2808 3.78729 0
M  V30 9901 H 960.293 -2.29556 3.56483 0
M  V30 9902 C 958.752 -2.62242 2.11496 0
M  V30 9903 O 959.282 -3.64003 1.69895 0
M  V30 9904 N 957.488 -2.30515 1.7695 0
M  V30 9905 H 957.035 -1.47805 2.10978 0
M  V30 9906 H 956.993 -2.92241 1.15942 0
M  V30 9907 N 960.765 -1.57509 0.0534917 0
M  V30 9908 C 961.99 -1.97511 -0.632794 0
M  V30 9909 C 962.415 -0.930947 -1.63447 0
M  V30 9910 O 961.773 0.105558 -1.80992 0
M  V30 9911 C 961.821 -3.3658 -1.29407 0
M  V30 9912 O 960.925 -3.3467 -2.40977 0
M  V30 9913 H 960.266 -0.643349 -0.16431 0
M  V30 9914 H 962.796 -2.04232 0.12258 0
M  V30 9915 H 962.806 -3.73359 -1.64521 0
M  V30 9916 H 961.481 -4.12113 -0.559976 0
M  V30 9917 H 960.058 -3.09639 -2.07793 0
M  V30 9918 N 962.243 0.219913 -1.56058 0
M  V30 9919 C 963.153 1.29349 -1.95719 0
M  V30 9920 C 964.169 1.5119 -0.861248 0
M  V30 9921 O 965.345 1.64289 -1.16495 0
M  V30 9922 C 962.41 2.6229 -2.26726 0
M  V30 9923 C 961.471 2.48738 -3.49897 0
M  V30 9924 C 960.704 3.75339 -3.79416 0
M  V30 9925 O 960.927 4.78427 -3.10586 0
M  V30 9926 O 959.861 3.72352 -4.72903 0
M  V30 9927 H 963.687 0.986979 -2.87215 0
M  V30 9928 H 961.272 0.42291 -1.43289 0
M  V30 9929 H 963.154 3.408 -2.47857 0
M  V30 9930 H 961.829 2.92619 -1.38404 0
M  V30 9931 H 960.736 1.68422 -3.34043 0
M  V30 9932 H 962.069 2.23347 -4.38608 0
M  V30 9933 N 963.721 1.49897 0.486681 0
M  V30 9934 C 964.998 1.50614 1.24799 0
M  V30 9935 C 965.378 0.24193 2.09709 0
M  V30 9936 O 964.726 -0.775237 2.14947 0
M  V30 9937 C 964.936 2.79318 2.09243 0
M  V30 9938 C 966.284 3.29371 2.67955 0
M  V30 9939 O 967.308 2.80533 2.19499 0
M  V30 9940 O 966.167 4.14466 3.56202 0
M  V30 9941 H 963.261 0.603447 0.565491 0
M  V30 9942 H 965.807 1.62174 0.499778 0
M  V30 9943 H 964.579 3.62812 1.46572 0
M  V30 9944 H 964.202 2.70687 2.91229 0
M  V30 9945 N 965.199 -0.738761 1.39212 0
M  V30 9946 C 966.448 -1.49368 1.35543 0
M  V30 9947 C 966.761 -1.95543 -0.0471091 0
M  V30 9948 O 967.967 -2.70714 -0.206376 0
M  V30 9949 C 966.423 -2.69882 2.381 0
M  V30 9950 C 966.031 -2.30672 3.8405 0
M  V30 9951 C 967.775 -3.47718 2.435 0
M  V30 9952 C 965.682 -3.47886 4.78256 0
M  V30 9953 H 964.612 -0.560898 0.503894 0
M  V30 9954 H 967.263 -0.806221 1.6484 0
M  V30 9955 H 965.645 -3.40684 2.01867 0
M  V30 9956 H 966.819 -1.67441 4.29302 0
M  V30 9957 H 965.134 -1.65936 3.81909 0
M  V30 9958 H 967.731 -4.34897 3.11077 0
M  V30 9959 H 968.074 -3.89919 1.45838 0
M  V30 9960 H 968.607 -2.83942 2.78606 0
M  V30 9961 H 965.346 -3.10739 5.77167 0
M  V30 9962 H 964.866 -4.10111 4.37686 0
M  V30 9963 H 966.545 -4.14271 4.96979 0
M  V30 9964 N 966.677 -1.24326 -0.968545 0
M  V30 9965 C 968.093 -1.00847 -1.23701 0
M  V30 9966 C 968.293 0.283235 -1.99499 0
M  V30 9967 O 967.349 0.999607 -2.31871 0
M  V30 9968 C 968.662 -2.22295 -2.02498 0
M  V30 9969 C 970.21 -2.26911 -2.15593 0
M  V30 9970 C 970.685 -3.47978 -2.97784 0
M  V30 9971 N 972.176 -3.48289 -3.05367 0
M  V30 9972 C 972.911 -4.38625 -3.69318 0
M  V30 9973 N 972.407 -5.39213 -4.34995 0
M  V30 9974 N 974.2 -4.26339 -3.66322 0
M  V30 9975 H 966.351 -2.07335 -0.461087 0
M  V30 9976 H 968.614 -0.909805 -0.26638 0
M  V30 9977 H 968.32 -3.161 -1.54188 0
M  V30 9978 H 968.194 -2.24344 -3.03232 0
M  V30 9979 H 970.581 -1.33639 -2.63106 0
M  V30 9980 H 970.662 -2.28888 -1.14209 0
M  V30 9981 H 970.306 -4.41564 -2.50965 0
M  V30 9982 H 970.236 -3.43244 -3.99364 0
M  V30 9983 H 972.727 -2.75517 -2.58648 0
M  V30 9984 H 973.04 -6.04378 -4.81608 0
M  V30 9985 H 971.385 -5.43101 -4.33667 0
M  V30 9986 H 974.576 -3.46991 -3.14189 0
M  V30 9987 H 974.749 -4.9694 -4.15878 0
M  V30 9988 N 968.156 1.1691 -1.05688 0
M  V30 9989 C 969.086 2.23275 -0.683402 0
M  V30 9990 C 970.067 1.6704 0.321206 0
M  V30 9991 O 971.252 1.93191 0.197691 0
M  V30 9992 C 968.382 3.47244 -0.0626006 0
M  V30 9993 C 967.336 4.16333 -0.992513 0
M  V30 9994 C 966.662 5.34182 -0.23533 0
M  V30 9995 C 967.962 4.68002 -2.31886 0
M  V30 9996 H 969.656 2.54771 -1.57264 0
M  V30 9997 H 967.202 1.2246 -0.757606 0
M  V30 9998 H 969.155 4.20874 0.210503 0
M  V30 9999 H 967.879 3.1503 0.861616 0
M  V30 10000 H 966.538 3.44622 -1.25026 0
M  V30 10001 H 966.186 4.9822 0.69181 0
M  V30 10002 H 965.886 5.81346 -0.855002 0
M  V30 10003 H 967.41 6.10592 0.0303717 0
M  V30 10004 H 968.824 5.33244 -2.10531 0
M  V30 10005 H 967.221 5.25764 -2.89296 0
M  V30 10006 H 968.291 3.84541 -2.95391 0
M  V30 10007 N 969.634 0.838594 1.33437 0
M  V30 10008 C 970.859 0.446701 2.02532 0
M  V30 10009 C 971.284 -0.944275 1.62681 0
M  V30 10010 O 970.642 -1.61733 0.81927 0
M  V30 10011 C 970.69 0.574794 3.55989 0
M  V30 10012 O 969.794 -0.399063 4.10465 0
M  V30 10013 H 969.135 0.181637 0.638674 0
M  V30 10014 H 971.665 1.13335 1.70342 0
M  V30 10015 H 971.675 0.456339 4.0544 0
M  V30 10016 H 970.35 1.58921 3.8434 0
M  V30 10017 H 968.927 -0.238187 3.72139 0
M  V30 10018 N 971.112 -1.45937 0.595003 0
M  V30 10019 C 972.523 -1.85908 0.171779 0
M  V30 10020 C 972.874 -1.497 -1.26824 0
M  V30 10021 O 971.999 -0.917688 -1.95978 0
M  V30 10022 C 972.594 -3.37425 0.304976 0
M  V30 10023 C 971.153 -3.76346 -0.0634635 0
M  V30 10024 C 970.3 -2.69926 0.635255 0
M  V30 10025 H 973.251 -1.36916 0.802471 0
M  V30 10026 H 973.272 -3.77632 -0.466313 0
M  V30 10027 H 972.784 -3.63747 1.35314 0
M  V30 10028 H 970.885 -3.55642 -1.11129 0
M  V30 10029 H 970.998 -4.78021 0.321419 0
M  V30 10030 H 969.362 -2.54592 0.0742054 0
M  V30 10031 H 970.145 -2.99086 1.68531 0
M  V30 10032 N 972.59 -0.333456 -1.54032 0
M  V30 10033 C 973.837 0.266133 -2.00744 0
M  V30 10034 C 974.165 1.51361 -1.22148 0
M  V30 10035 O 973.42 1.93473 -0.294368 0
M  V30 10036 C 973.719 0.63565 -3.51702 0
M  V30 10037 C 973.385 -0.513786 -4.47963 0
M  V30 10038 C 972.047 -0.829253 -4.74001 0
M  V30 10039 C 974.399 -1.2854 -5.05101 0
M  V30 10040 C 971.727 -1.91888 -5.54433 0
M  V30 10041 C 974.079 -2.3652 -5.86721 0
M  V30 10042 C 972.743 -2.68637 -6.11057 0
M  V30 10043 H 972.013 0.097385 -0.734573 0
M  V30 10044 H 974.66 -0.459282 -1.85911 0
M  V30 10045 H 972.965 1.44163 -3.64313 0
M  V30 10046 H 974.662 1.11129 -3.85294 0
M  V30 10047 H 971.252 -0.25784 -4.27824 0
M  V30 10048 H 975.436 -1.05494 -4.84958 0
M  V30 10049 H 970.692 -2.17208 -5.71516 0
M  V30 10050 H 974.866 -2.96747 -6.30011 0
M  V30 10051 H 972.493 -3.53197 -6.73169 0
M  V30 10052 N 974.068 1.57479 -0.061844 0
M  V30 10053 C 975.001 2.07734 0.94455 0
M  V30 10054 C 975.979 0.980207 1.29733 0
M  V30 10055 O 977.163 1.2529 1.40836 0
M  V30 10056 C 974.29 2.52673 2.25553 0
M  V30 10057 C 973.336 3.73725 2.05503 0
M  V30 10058 S 974.169 5.18886 1.32354 0
M  V30 10059 C 975.325 5.67148 2.64753 0
M  V30 10060 H 975.558 2.92772 0.516888 0
M  V30 10061 H 973.091 1.53663 0.150684 0
M  V30 10062 H 975.049 2.79226 3.00904 0
M  V30 10063 H 973.71 1.67921 2.65445 0
M  V30 10064 H 972.903 4.03125 3.025 0
M  V30 10065 H 972.505 3.47494 1.3829 0
M  V30 10066 H 974.797 5.73385 3.60882 0
M  V30 10067 H 975.74 6.66196 2.39976 0
M  V30 10068 H 976.148 4.94921 2.71502 0
M  V30 10069 N 975.546 -0.211634 1.56173 0
M  V30 10070 C 976.509 -1.24588 1.92381 0
M  V30 10071 C 977.509 -1.39297 0.803311 0
M  V30 10072 O 978.699 -1.37392 1.07094 0
M  V30 10073 C 975.831 -2.61807 2.18335 0
M  V30 10074 H 977.024 -0.936814 2.84893 0
M  V30 10075 H 974.577 -0.452471 1.49607 0
M  V30 10076 H 975.312 -2.97795 1.28407 0
M  V30 10077 H 975.097 -2.52506 2.99972 0
M  V30 10078 H 976.587 -3.3642 2.4741 0
M  V30 10079 N 977.024 -1.50153 -0.478725 0
M  V30 10080 C 978.301 -1.51274 -1.23999 0
M  V30 10081 C 978.681 -0.253048 -2.09578 0
M  V30 10082 O 978.029 0.763827 -2.15355 0
M  V30 10083 C 978.239 -2.80423 -2.07759 0
M  V30 10084 C 979.587 -3.30788 -2.66204 0
M  V30 10085 O 980.611 -2.81693 -2.18008 0
M  V30 10086 O 979.47 -4.1635 -3.53999 0
M  V30 10087 H 976.564 -0.606438 -0.562283 0
M  V30 10088 H 979.11 -1.62436 -0.491171 0
M  V30 10089 H 977.882 -3.63584 -1.44645 0
M  V30 10090 H 977.505 -2.72228 -2.89789 0
M  V30 10091 N 978.502 0.731368 -1.39602 0
M  V30 10092 C 979.751 1.48647 -1.36334 0
M  V30 10093 C 980.064 1.95565 0.0367383 0
M  V30 10094 O 981.27 2.7082 0.192017 0
M  V30 10095 C 979.726 2.68616 -2.39528 0
M  V30 10096 C 979.334 2.28632 -3.85268 0
M  V30 10097 C 981.078 3.46422 -2.45341 0
M  V30 10098 C 978.985 3.45345 -4.80095 0
M  V30 10099 H 977.915 0.558218 -0.506861 0
M  V30 10100 H 980.566 0.797467 -1.65266 0
M  V30 10101 H 978.948 3.39609 -2.03671 0
M  V30 10102 H 980.122 1.65162 -4.30184 0
M  V30 10103 H 978.437 1.63909 -3.82783 0
M  V30 10104 H 981.034 4.33241 -3.13379 0
M  V30 10105 H 981.377 3.8914 -1.47904 0
M  V30 10106 H 981.91 2.82461 -2.80108 0
M  V30 10107 H 978.649 3.07674 -5.78807 0
M  V30 10108 H 978.169 4.07784 -4.39855 0
M  V30 10109 H 979.848 4.1163 -4.99169 0
M  V30 10110 N 979.98 1.24838 0.961938 0
M  V30 10111 C 981.396 1.01502 1.23165 0
M  V30 10112 C 981.596 -0.272651 1.99647 0
M  V30 10113 O 980.652 -0.987297 2.32398 0
M  V30 10114 C 981.965 2.23366 2.01316 0
M  V30 10115 C 983.513 2.28051 2.14387 0
M  V30 10116 C 983.988 3.49552 2.95935 0
M  V30 10117 N 985.479 3.49904 3.03515 0
M  V30 10118 C 986.214 4.40577 3.66987 0
M  V30 10119 N 985.71 5.41512 4.3213 0
M  V30 10120 N 987.503 4.28275 3.64056 0
M  V30 10121 H 979.654 2.07576 0.450086 0
M  V30 10122 H 981.917 0.911205 0.261551 0
M  V30 10123 H 981.623 3.16913 1.5251 0
M  V30 10124 H 981.497 2.25949 3.02038 0
M  V30 10125 H 983.884 1.35032 2.62393 0
M  V30 10126 H 983.965 2.29491 1.12994 0
M  V30 10127 H 983.609 4.42889 2.4862 0
M  V30 10128 H 983.539 3.45357 3.97538 0
M  V30 10129 H 986.03 2.76885 2.57183 0
M  V30 10130 H 986.343 6.06924 4.78396 0
M  V30 10131 H 984.688 5.45393 4.3078 0
M  V30 10132 H 987.879 3.48653 3.12344 0
M  V30 10133 H 988.052 4.99138 4.13237 0
M  V30 10134 N 981.458 -1.16348 1.06306 0
M  V30 10135 C 982.735 -1.829 0.69331 0
M  V30 10136 C 983.115 -1.94298 -0.82531 0
M  V30 10137 O 982.463 -1.48619 -1.73565 0
M  V30 10138 C 982.673 -3.1989 1.3954 0
M  V30 10139 C 984.021 -3.95662 1.54068 0
M  V30 10140 O 985.045 -3.29408 1.35532 0
M  V30 10141 O 983.904 -5.14422 1.84479 0
M  V30 10142 H 980.998 -0.789738 0.245445 0
M  V30 10143 H 983.544 -1.23549 1.16334 0
M  V30 10144 H 982.316 -3.06629 2.43093 0
M  V30 10145 H 981.939 -3.86918 0.915453 0
M  V30 10146 N 982.937 -0.845659 -1.3299 0
M  V30 10147 C 983.9 -0.288905 -2.27372 0
M  V30 10148 C 984.9 0.546263 -1.51237 0
M  V30 10149 O 986.09 0.359072 -1.70459 0
M  V30 10150 C 983.222 0.59224 -3.35716 0
M  V30 10151 H 984.415 -1.12181 -2.78128 0
M  V30 10152 H 981.968 -0.619276 -1.43508 0
M  V30 10153 H 982.703 1.44732 -2.90212 0
M  V30 10154 H 982.488 -0.00543255 -3.921 0
M  V30 10155 H 983.978 0.974848 -4.06062 0
M  V30 10156 N 984.415 1.45619 -0.602734 0
M  V30 10157 C 985.826 1.85814 -0.181636 0
M  V30 10158 C 986.177 1.5037 1.26029 0
M  V30 10159 O 985.302 0.928068 1.95489 0
M  V30 10160 C 985.897 3.37258 -0.322866 0
M  V30 10161 C 984.456 3.76375 0.043504 0
M  V30 10162 C 983.603 2.69585 -0.649561 0
M  V30 10163 H 986.554 1.36489 -0.809721 0
M  V30 10164 H 986.575 3.77874 0.446279 0
M  V30 10165 H 986.087 3.63024 -1.37241 0
M  V30 10166 H 984.188 3.56226 1.09241 0
M  V30 10167 H 984.301 4.77843 -0.346765 0
M  V30 10168 H 982.665 2.54549 -0.087706 0
M  V30 10169 H 983.448 2.98188 -1.70115 0
M  V30 10170 N 985.893 0.34162 1.53853 0
M  V30 10171 C 986.825 -0.550383 2.22494 0
M  V30 10172 C 987.838 -1.0655 1.23089 0
M  V30 10173 O 989.027 -0.975985 1.49455 0
M  V30 10174 C 986.127 -1.76995 2.89009 0
M  V30 10175 C 985.3 -1.39045 4.14711 0
M  V30 10176 C 984.359 -2.46947 4.64654 0
M  V30 10177 O 983.385 -2.10336 5.28912 0
M  V30 10178 N 984.587 -3.7817 4.40418 0
M  V30 10179 H 987.352 0.037456 2.99677 0
M  V30 10180 H 984.913 0.165654 1.6105 0
M  V30 10181 H 986.905 -2.48608 3.19337 0
M  V30 10182 H 985.475 -2.2652 2.15424 0
M  V30 10183 H 984.695 -0.505161 3.9095 0
M  V30 10184 H 985.983 -1.11284 4.96481 0
M  V30 10185 H 985.381 -4.10704 3.89023 0
M  V30 10186 H 983.938 -4.45959 4.75356 0
M  V30 10187 N 987.371 -1.57444 0.0701946 0
M  V30 10188 C 988.648 -1.84826 -0.6402 0
M  V30 10189 C 989.028 -0.962344 -1.87889 0
M  V30 10190 O 988.376 -0.0282209 -2.28483 0
M  V30 10191 C 988.586 -3.34976 -0.979382 0
M  V30 10192 C 989.934 -4.02448 -1.35355 0
M  V30 10193 O 990.958 -3.39713 -1.07116 0
M  V30 10194 O 989.817 -5.13096 -1.88136 0
M  V30 10195 H 986.911 -0.763494 -0.317813 0
M  V30 10196 H 989.457 -1.69399 0.101004 0
M  V30 10197 H 988.229 -3.91173 -0.0995576 0
M  V30 10198 H 987.852 -3.5566 -1.7774 0
M  V30 10199 N 988.849 0.203349 -1.56283 0
M  V30 10200 C 990.096 0.92501 -1.80138 0
M  V30 10201 C 990.424 1.83598 -0.64204 0
M  V30 10202 O 989.679 1.92119 0.372658 0
M  V30 10203 C 989.978 1.78016 -3.09912 0
M  V30 10204 C 989.644 1.02088 -4.39191 0
M  V30 10205 C 988.306 0.811208 -4.74313 0
M  V30 10206 C 990.658 0.486037 -5.18929 0
M  V30 10207 C 987.986 0.0550856 -5.86674 0
M  V30 10208 C 990.338 -0.256833 -6.32078 0
M  V30 10209 C 989.002 -0.477594 -6.65789 0
M  V30 10210 H 988.272 0.338485 -0.659173 0
M  V30 10211 H 990.919 0.191923 -1.90536 0
M  V30 10212 H 989.224 2.58167 -2.94715 0
M  V30 10213 H 990.921 2.341 -3.25574 0
M  V30 10214 H 987.511 1.1943 -4.11624 0
M  V30 10215 H 991.695 0.635446 -4.92215 0
M  V30 10216 H 986.951 -0.126006 -6.1127 0
M  V30 10217 H 991.125 -0.678683 -6.93085 0
M  V30 10218 H 988.752 -1.0654 -7.52697 0
M  V30 10219 N 990.327 1.50405 0.470755 0
M  V30 10220 C 991.277 1.65681 1.56633 0
M  V30 10221 C 992.261 0.511424 1.52556 0
M  V30 10222 O 993.453 0.765844 1.59574 0
M  V30 10223 C 990.582 1.7546 2.95074 0
M  V30 10224 C 989.668 2.95676 3.04034 0
M  V30 10225 N 990.059 4.1935 2.82807 0
M  V30 10226 C 988.357 2.94241 3.35169 0
M  V30 10227 C 989.058 5.0032 2.96741 0
M  V30 10228 N 988.034 4.34282 3.26956 0
M  V30 10229 H 991.836 2.58994 1.38922 0
M  V30 10230 H 989.35 1.47593 0.67749 0
M  V30 10231 H 991.347 1.84508 3.73848 0
M  V30 10232 H 990.007 0.833057 3.13832 0
M  V30 10233 H 991.018 4.48842 2.58382 0
M  V30 10234 H 987.695 2.11587 3.59913 0
M  V30 10235 H 989.085 6.08664 2.84566 0
M  V30 10236 N 991.805 -0.723954 1.39988 0
M  V30 10237 C 993.216 -1.30273 1.33738 0
M  V30 10238 C 993.567 -1.96199 0.00690581 0
M  V30 10239 O 992.692 -1.97016 -0.895179 0
M  V30 10240 C 993.287 -2.36889 2.42217 0
M  V30 10241 C 991.846 -2.90412 2.39453 0
M  V30 10242 C 990.993 -1.64103 2.2353 0
M  V30 10243 H 993.944 -0.520672 1.49916 0
M  V30 10244 H 993.965 -3.17538 2.09642 0
M  V30 10245 H 993.477 -1.88878 3.39038 0
M  V30 10246 H 991.578 -3.42674 1.46304 0
M  V30 10247 H 991.691 -3.42775 3.34727 0
M  V30 10248 H 990.055 -1.88855 1.70897 0
M  V30 10249 H 990.838 -1.18128 3.22336 0
M  V30 10250 N 993.283 -1.25346 -0.955304 0
M  V30 10251 C 994.56 -1.00829 -1.67609 0
M  V30 10252 C 994.94 0.465675 -2.059 0
M  V30 10253 O 994.288 1.44287 -1.77182 0
M  V30 10254 C 994.498 -1.94337 -2.89886 0
M  V30 10255 C 995.846 -2.22142 -3.61854 0
M  V30 10256 O 996.87 -1.9209 -2.99967 0
M  V30 10257 O 995.729 -2.73239 -4.73289 0
M  V30 10258 H 992.823 -0.382314 -0.733325 0
M  V30 10259 H 995.369 -1.36498 -1.00829 0
M  V30 10260 H 994.141 -2.93867 -2.58376 0
M  V30 10261 H 993.764 -1.59062 -3.64397 0
M  V30 10262 N 994.761 1.15782 -1.06922 0
M  V30 10263 C 996.177 1.38454 -0.793896 0
M  V30 10264 C 996.377 1.92238 0.603875 0
M  V30 10265 O 995.433 2.1253 1.36335 0
M  V30 10266 C 996.746 2.3595 -1.86408 0
M  V30 10267 C 998.294 2.49622 -1.88833 0
M  V30 10268 C 998.769 3.50406 -2.94923 0
M  V30 10269 N 1000.26 3.57938 -2.93997 0
M  V30 10270 C 1001 4.35728 -3.72731 0
M  V30 10271 N 1000.49 5.16888 -4.61301 0
M  V30 10272 N 1002.28 4.30774 -3.61096 0
M  V30 10273 H 994.435 0.792101 -1.97077 0
M  V30 10274 H 996.698 0.410779 -0.85438 0
M  V30 10275 H 996.404 2.03537 -2.86819 0
M  V30 10276 H 996.278 3.35677 -1.72049 0
M  V30 10277 H 998.665 2.81335 -0.890759 0
M  V30 10278 H 998.746 1.49909 -2.0727 0
M  V30 10279 H 998.39 3.19429 -3.94877 0
M  V30 10280 H 998.32 4.49864 -2.73734 0
M  V30 10281 H 1000.81 3.00007 -2.29791 0
M  V30 10282 H 1001.12 5.73477 -5.18019 0
M  V30 10283 H 999.469 5.16209 -4.65353 0
M  V30 10284 H 1002.66 3.66432 -2.91282 0
M  V30 10285 H 1002.83 4.91151 -4.22699 0
M  V30 10286 N 996.239 0.8527 1.3254 0
M  V30 10287 C 997.485 0.455798 1.97612 0
M  V30 10288 C 997.818 -0.985616 1.6733 0
M  V30 10289 O 997.093 -1.69129 0.960493 0
M  V30 10290 C 997.376 0.69312 3.53366 0
M  V30 10291 C 997.229 2.18281 3.93285 0
M  V30 10292 C 998.548 0.148236 4.3985 0
M  V30 10293 H 995.667 0.167078 0.717812 0
M  V30 10294 H 998.309 1.07076 1.56954 0
M  V30 10295 H 996.459 0.169677 3.88129 0
M  V30 10296 H 998.131 2.77218 3.68711 0
M  V30 10297 H 996.374 2.66206 3.42515 0
M  V30 10298 H 997.045 2.29957 5.01821 0
M  V30 10299 H 999.521 0.595834 4.11812 0
M  V30 10300 H 998.397 0.343873 5.47822 0
M  V30 10301 H 998.658 -0.948872 4.31797 0
M  V30 10302 N 997.718 -1.45297 0.610449 0
M  V30 10303 C 998.665 -2.30553 -0.106718 0
M  V30 10304 C 999.635 -1.42272 -0.85719 0
M  V30 10305 O 1000.82 -1.71199 -0.842357 0
M  V30 10306 C 997.96 -3.27226 -1.09623 0
M  V30 10307 C 997.073 -4.3061 -0.346329 0
M  V30 10308 C 996.208 -5.14389 -1.32581 0
M  V30 10309 C 995.247 -6.09497 -0.563892 0
M  V30 10310 N 994.384 -6.86047 -1.4928 0
M  V30 10311 H 999.224 -2.91344 0.626296 0
M  V30 10312 H 996.761 -1.43563 0.32065 0
M  V30 10313 H 998.719 -3.81744 -1.68308 0
M  V30 10314 H 997.349 -2.68182 -1.79662 0
M  V30 10315 H 996.401 -3.7873 0.356084 0
M  V30 10316 H 997.713 -4.98183 0.248026 0
M  V30 10317 H 996.867 -5.73321 -1.98464 0
M  V30 10318 H 995.606 -4.4684 -1.9541 0
M  V30 10319 H 994.611 -5.49693 0.108551 0
M  V30 10320 H 995.836 -6.79074 0.0593872 0
M  V30 10321 H 993.782 -6.21185 -2.10868 0
M  V30 10322 H 993.699 -7.49983 -0.951953 0
M  V30 10323 H 994.967 -7.49518 -2.14112 0
M  V30 10324 N 999.196 -0.349774 -1.5367 0
M  V30 10325 C 1000.16 0.491676 -2.23864 0
M  V30 10326 C 1001.16 1.02256 -1.24098 0
M  V30 10327 O 1002.35 0.910816 -1.48492 0
M  V30 10328 C 999.481 1.68557 -2.96313 0
M  V30 10329 H 1000.67 -0.12233 -2.9965 0
M  V30 10330 H 998.227 -0.101214 -1.55972 0
M  V30 10331 H 998.962 2.3381 -2.2473 0
M  V30 10332 H 998.747 1.31203 -3.69497 0
M  V30 10333 H 1000.24 2.28225 -3.49718 0
M  V30 10334 N 1000.67 1.57404 -0.0785433 0
M  V30 10335 C 1002.09 1.57158 0.2781 0
M  V30 10336 C 1002.29 1.08847 1.69572 0
M  V30 10337 O 1001.35 0.757407 2.40873 0
M  V30 10338 C 1002.66 3.00589 0.0816067 0
M  V30 10339 C 1004.21 3.12637 0.150627 0
M  V30 10340 C 1004.68 4.57997 -0.0176685 0
M  V30 10341 N 1006.17 4.63185 0.0377145 0
M  V30 10342 C 1006.91 5.7336 -0.0679907 0
M  V30 10343 N 1006.4 6.92426 -0.227598 0
M  V30 10344 N 1008.2 5.62099 -0.0104424 0
M  V30 10345 H 1000.35 1.87121 -1.00496 0
M  V30 10346 H 1002.61 0.862937 -0.392484 0
M  V30 10347 H 1002.32 3.40072 -0.896869 0
M  V30 10348 H 1002.19 3.67931 0.831046 0
M  V30 10349 H 1004.58 2.73037 1.11959 0
M  V30 10350 H 1004.66 2.4792 -0.630028 0
M  V30 10351 H 1004.3 4.98288 -0.983431 0
M  V30 10352 H 1004.23 5.20754 0.782475 0
M  V30 10353 H 1006.72 3.77564 0.159208 0
M  V30 10354 H 1007.04 7.72217 -0.300217 0
M  V30 10355 H 1005.38 6.94502 -0.263049 0
M  V30 10356 H 1008.57 4.67964 0.112999 0
M  V30 10357 H 1008.75 6.47928 -0.0962747 0
M  V30 10358 N 1002.15 -0.195058 1.56388 0
M  V30 10359 C 1003.4 -0.913636 1.8027 0
M  V30 10360 C 1003.72 -1.83791 0.651606 0
M  V30 10361 O 1002.99 -1.931 -0.330057 0
M  V30 10362 H 1001.57 -0.34036 0.664954 0
M  V30 10363 H 1004.23 -0.200559 1.93865 0
M  V30 10364 H 1003.33 -1.50473 2.7343 0
M  V30 10365 N 1003.63 -1.50653 -0.462772 0
M  V30 10366 C 1005.04 -1.54821 -1.04342 0
M  V30 10367 C 1005.39 -0.356595 -1.92932 0
M  V30 10368 O 1004.52 0.529579 -2.0982 0
M  V30 10369 C 1005.11 -2.80571 -1.89909 0
M  V30 10370 C 1003.67 -2.87394 -2.43067 0
M  V30 10371 C 1002.82 -2.49206 -1.21621 0
M  V30 10372 H 1005.77 -1.56797 -0.245048 0
M  V30 10373 H 1005.79 -2.62897 -2.75074 0
M  V30 10374 H 1005.3 -3.67281 -1.25405 0
M  V30 10375 H 1003.4 -2.05055 -3.111 0
M  V30 10376 H 1003.52 -3.90477 -2.77605 0
M  V30 10377 H 1001.88 -2.01829 -1.55361 0
M  V30 10378 H 1002.66 -3.38233 -0.587669 0
M  V30 10379 N 1005.11 0.71652 -1.4037 0
M  V30 10380 C 1006.36 1.47347 -1.38324 0
M  V30 10381 C 1006.68 1.94995 0.0139949 0
M  V30 10382 O 1005.95 1.7028 0.968585 0
M  V30 10383 H 1004.53 0.546662 -0.509087 0
M  V30 10384 H 1007.19 0.849455 -1.75415 0
M  V30 10385 H 1006.29 2.34675 -2.05752 0
M  V30 10386 N 1006.59 1.25851 0.948643 0
M  V30 10387 C 1007.52 1.09248 2.06367 0
M  V30 10388 C 1008.5 -0.000205168 1.701 0
M  V30 10389 O 1009.68 0.170442 1.93451 0
M  V30 10390 C 1006.81 0.716777 3.39823 0
M  V30 10391 C 1005.77 1.76036 3.90122 0
M  V30 10392 C 1005.09 1.23918 5.20143 0
M  V30 10393 C 1006.39 3.16039 4.15833 0
M  V30 10394 H 1008.09 2.02518 2.20515 0
M  V30 10395 H 1005.63 0.975093 1.05962 0
M  V30 10396 H 1007.59 0.587531 4.17284 0
M  V30 10397 H 1006.31 -0.251626 3.25629 0
M  V30 10398 H 1004.97 1.87815 3.14835 0
M  V30 10399 H 1004.62 0.260836 5.02323 0
M  V30 10400 H 1004.32 1.93673 5.54765 0
M  V30 10401 H 1005.84 1.12245 6.00194 0
M  V30 10402 H 1007.25 3.0738 4.83933 0
M  V30 10403 H 1005.65 3.83317 4.61723 0
M  V30 10404 H 1006.72 3.62652 3.21887 0
M  V30 10405 N 1008.06 -1.15214 1.07534 0
M  V30 10406 C 1008.97 -2.23636 0.708818 0
M  V30 10407 C 1009.99 -1.7172 -0.280759 0
M  V30 10408 O 1011.17 -2.01 -0.126927 0
M  V30 10409 C 1008.23 -3.46512 0.114167 0
M  V30 10410 C 1007.29 -4.13409 1.15722 0
M  V30 10411 C 1006.53 -5.30419 0.59085 0
M  V30 10412 O 1006.75 -5.67314 -0.592512 0
M  V30 10413 O 1005.68 -5.86871 1.33663 0
M  V30 10414 H 1009.51 -2.57322 1.61305 0
M  V30 10415 H 1007.09 -1.22972 0.848422 0
M  V30 10416 H 1008.98 -4.20851 -0.215091 0
M  V30 10417 H 1007.65 -3.1457 -0.763356 0
M  V30 10418 H 1006.56 -3.40984 1.53886 0
M  V30 10419 H 1007.89 -4.49435 2.00671 0
M  V30 10420 N 1009.54 -0.859717 -1.32086 0
M  V30 10421 C 1010.49 -0.306042 -2.28762 0
M  V30 10422 C 1011.46 0.589801 -1.55276 0
M  V30 10423 O 1012.64 0.523633 -1.83474 0
M  V30 10424 C 1009.78 0.495256 -3.41528 0
M  V30 10425 C 1008.9 -0.426947 -4.29885 0
M  V30 10426 C 1008.03 0.387474 -5.29785 0
M  V30 10427 C 1007.07 -0.531807 -6.09785 0
M  V30 10428 N 1006.21 0.245741 -7.0167 0
M  V30 10429 H 1011.05 -1.1357 -2.7551 0
M  V30 10430 H 1008.59 -0.571468 -1.35546 0
M  V30 10431 H 1010.54 0.97551 -4.05635 0
M  V30 10432 H 1009.17 1.28969 -2.95917 0
M  V30 10433 H 1008.23 -1.02561 -3.66313 0
M  V30 10434 H 1009.54 -1.13226 -4.85779 0
M  V30 10435 H 1008.69 0.930677 -5.99519 0
M  V30 10436 H 1007.43 1.12612 -4.74521 0
M  V30 10437 H 1006.44 -1.08685 -5.3895 0
M  V30 10438 H 1007.66 -1.26915 -6.67135 0
M  V30 10439 H 1005.61 0.967391 -6.48828 0
M  V30 10440 H 1005.52 -0.400432 -7.54939 0
M  V30 10441 H 1006.79 0.770507 -7.75683 0
M  V30 10442 N 1011.02 1.44971 -0.618145 0
M  V30 10443 C 1012.25 2.06527 -0.124165 0
M  V30 10444 C 1012.66 1.46097 1.19588 0
M  V30 10445 O 1012.02 0.57901 1.73071 0
M  V30 10446 C 1012.07 3.61498 0.0106701 0
M  V30 10447 O 1011.79 4.19675 -1.25716 0
M  V30 10448 C 1013.29 4.40061 0.534872 0
M  V30 10449 H 1010.51 0.666941 -0.0736935 0
M  V30 10450 H 1013.06 1.8605 -0.848871 0
M  V30 10451 H 1011.21 3.81282 0.685752 0
M  V30 10452 H 1011.63 5.12972 -1.09362 0
M  V30 10453 H 1013.1 5.48963 0.57827 0
M  V30 10454 H 1013.58 4.10587 1.55931 0
M  V30 10455 H 1014.18 4.25167 -0.10652 0
M  V30 10456 N 1012.5 0.357919 1.53482 0
M  V30 10457 C 1013.75 -0.2337 2.00744 0
M  V30 10458 C 1014.07 -1.49908 1.2471 0
M  V30 10459 O 1013.34 -1.92597 0.358235 0
M  V30 10460 H 1011.92 -0.0893474 0.741637 0
M  V30 10461 H 1014.58 0.482388 1.88836 0
M  V30 10462 H 1013.68 -0.466073 3.086 0
M  V30 10463 N 1013.98 -1.5736 0.0868897 0
M  V30 10464 C 1015.22 -1.94341 -0.579598 0
M  V30 10465 C 1015.56 -0.968238 -1.68341 0
M  V30 10466 O 1014.83 8.29649e-05 -1.945 0
M  V30 10467 C 1015.11 -3.41497 -1.14245 0
M  V30 10468 C 1014.97 -4.49778 -0.044255 0
M  V30 10469 C 1016.29 -3.89788 -2.04336 0
M  V30 10470 H 1013.4 -0.70668 -0.20922 0
M  V30 10471 H 1016.05 -1.89359 0.15593 0
M  V30 10472 H 1014.2 -3.45873 -1.76929 0
M  V30 10473 H 1015.87 -4.57517 0.58959 0
M  V30 10474 H 1014.11 -4.293 0.623207 0
M  V30 10475 H 1014.78 -5.4992 -0.478749 0
M  V30 10476 H 1017.26 -3.87513 -1.51569 0
M  V30 10477 H 1016.13 -4.93335 -2.40648 0
M  V30 10478 H 1016.4 -3.28603 -2.95757 0
M  V30 10479 N 1015.45 0.186762 -1.56489 0
M  V30 10480 C 1016.42 1.21511 -1.94339 0
M  V30 10481 C 1017.42 1.38001 -0.82537 0
M  V30 10482 O 1018.61 1.3567 -1.09266 0
M  V30 10483 C 1015.74 2.583 -2.22472 0
M  V30 10484 H 1016.93 0.891371 -2.86347 0
M  V30 10485 H 1014.49 0.428612 -1.50308 0
M  V30 10486 H 1015.22 2.95715 -1.33129 0
M  V30 10487 H 1015.01 2.47701 -3.03951 0
M  V30 10488 H 1016.5 3.32441 -2.5273 0
M  V30 10489 N 1016.93 1.50896 0.454776 0
M  V30 10490 C 1018.18 1.6294 1.20741 0
M  V30 10491 C 1018.51 0.336339 1.91265 0
M  V30 10492 O 1017.79 -0.663153 1.82846 0
M  V30 10493 C 1018.07 2.82092 2.23822 0
M  V30 10494 C 1017.92 4.21326 1.57495 0
M  V30 10495 C 1019.24 2.96777 3.24979 0
M  V30 10496 H 1016.36 0.59302 0.437603 0
M  V30 10497 H 1019 1.83331 0.498959 0
M  V30 10498 H 1017.15 2.64837 2.84243 0
M  V30 10499 H 1018.82 4.50209 1.00546 0
M  V30 10500 H 1017.07 4.24829 0.877664 0
M  V30 10501 H 1017.74 5.00656 2.32482 0
M  V30 10502 H 1020.21 3.12627 2.74597 0
M  V30 10503 H 1019.09 3.81742 3.94416 0
M  V30 10504 H 1019.35 2.08091 3.90065 0
M  V30 10505 N 1018.41 -0.709066 1.40748 0
M  V30 10506 C 1019.36 -1.84445 1.41714 0
M  V30 10507 C 1020.35 -1.66779 0.296818 0
M  V30 10508 O 1021.56 -1.73805 0.468181 0
M  V30 10509 H 1017.93 -0.607581 0.443114 0
M  V30 10510 H 1019.9 -1.80747 2.3743 0
M  V30 10511 C 1018.65 -3.22362 1.303 0
M  V30 10512 H 1017.98 -3.36565 2.15787 0
M  V30 10513 H 1019.42 -4.01922 1.35036 0
M  V30 10514 C 1017.88 -3.36897 0.0139015 0
M  V30 10515 O 1018.41 -3.90389 -0.946553 0
M  V30 10516 N 1016.61 -2.90543 -0.0577491 0
M  V30 10517 H 1016.16 -2.472 0.724574 0
M  V30 10518 H 1016.12 -3.00647 -0.919721 0
M  V30 10519 N 1019.89 -1.26353 -0.941956 0
M  V30 10520 C 1020.84 -1.07842 -2.04056 0
M  V30 10521 C 1021.81 0.0163064 -1.66092 0
M  V30 10522 O 1022.99 -0.143313 -1.90261 0
M  V30 10523 C 1020.13 -0.716636 -3.37577 0
M  V30 10524 C 1019.24 -1.88754 -3.88582 0
M  V30 10525 C 1018.38 -1.46893 -5.10486 0
M  V30 10526 C 1017.42 -2.60819 -5.53751 0
M  V30 10527 N 1016.56 -2.19646 -6.66858 0
M  V30 10528 H 1021.4 -2.01856 -2.19221 0
M  V30 10529 H 1018.93 -1.00504 -1.07412 0
M  V30 10530 H 1020.89 -0.487768 -4.14339 0
M  V30 10531 H 1019.52 0.18653 -3.22261 0
M  V30 10532 H 1018.57 -2.22936 -3.08227 0
M  V30 10533 H 1019.88 -2.74264 -4.1663 0
M  V30 10534 H 1019.04 -1.20047 -5.94705 0
M  V30 10535 H 1017.78 -0.584721 -4.84182 0
M  V30 10536 H 1016.78 -2.88396 -4.6809 0
M  V30 10537 H 1018.01 -3.49838 -5.82057 0
M  V30 10538 H 1015.95 -1.33657 -6.4224 0
M  V30 10539 H 1015.87 -2.987 -6.94489 0
M  V30 10540 H 1017.14 -1.96009 -7.54454 0
M  V30 10541 N 1021.37 1.14642 -1.08144 0
M  V30 10542 C 1022.78 1.6719 -0.830923 0
M  V30 10543 C 1023.13 1.85373 0.642749 0
M  V30 10544 O 1022.25 1.56293 1.49671 0
M  V30 10545 C 1022.85 3.03697 -1.50179 0
M  V30 10546 C 1021.41 3.5329 -1.29858 0
M  V30 10547 C 1020.56 2.28828 -1.5663 0
M  V30 10548 H 1023.51 0.987441 -1.24239 0
M  V30 10549 H 1023.53 3.69023 -0.9275 0
M  V30 10550 H 1023.04 2.90431 -2.57432 0
M  V30 10551 H 1021.14 3.71783 -0.246626 0
M  V30 10552 H 1021.25 4.34231 -2.02436 0
M  V30 10553 H 1019.62 2.34769 -0.987716 0
M  V30 10554 H 1020.4 2.18141 -2.65084 0
M  V30 10555 N 1022.85 0.866709 1.31628 0
M  V30 10556 C 1023.81 0.325041 2.26883 0
M  V30 10557 C 1024.81 -0.522133 1.52087 0
M  V30 10558 O 1026 -0.331908 1.71009 0
M  V30 10559 C 1023.13 -0.538756 3.36616 0
M  V30 10560 H 1024.32 1.16592 2.76308 0
M  V30 10561 H 1021.88 0.642029 1.42505 0
M  V30 10562 H 1022.61 -1.40096 2.92478 0
M  V30 10563 H 1022.4 0.0678115 3.92041 0
M  V30 10564 H 1023.89 -0.910123 4.07562 0
M  V30 10565 N 1024.32 -1.44642 0.625825 0
M  V30 10566 C 1025.23 -2.34451 -0.0836134 0
M  V30 10567 C 1026.25 -1.5231 -0.841289 0
M  V30 10568 O 1027.43 -1.85056 -0.794754 0
M  V30 10569 C 1024.49 -3.30211 -1.05648 0
M  V30 10570 C 1023.55 -4.28259 -0.298759 0
M  V30 10571 C 1022.78 -5.19444 -1.22528 0
M  V30 10572 O 1023.01 -5.14444 -2.46382 0
M  V30 10573 O 1021.94 -5.97668 -0.71247 0
M  V30 10574 H 1025.77 -2.96555 0.654912 0
M  V30 10575 H 1023.35 -1.44327 0.386029 0
M  V30 10576 H 1025.23 -3.8917 -1.61632 0
M  V30 10577 H 1023.91 -2.70648 -1.77571 0
M  V30 10578 H 1022.82 -3.72863 0.304001 0
M  V30 10579 H 1024.15 -4.90728 0.380345 0
M  V30 10580 N 1025.8 -0.366053 -1.5329 0
M  V30 10581 C 1027.05 0.223493 -2.01263 0
M  V30 10582 C 1027.38 1.48736 -1.25331 0
M  V30 10583 O 1026.63 1.92805 -0.335341 0
M  V30 10584 C 1026.93 0.560906 -3.52971 0
M  V30 10585 C 1026.6 -0.60869 -4.46773 0
M  V30 10586 C 1025.26 -0.929609 -4.72135 0
M  V30 10587 C 1027.61 -1.39225 -5.02261 0
M  V30 10588 C 1024.94 -2.03606 -5.50238 0
M  V30 10589 C 1027.29 -2.48912 -5.81572 0
M  V30 10590 C 1025.95 -2.81538 -6.05221 0
M  V30 10591 H 1025.22 0.0817818 -0.736473 0
M  V30 10592 H 1027.87 -0.498613 -1.84895 0
M  V30 10593 H 1026.18 1.36403 -3.67289 0
M  V30 10594 H 1027.87 1.02931 -3.87564 0
M  V30 10595 H 1024.46 -0.348529 -4.27181 0
M  V30 10596 H 1028.65 -1.15757 -4.82612 0
M  V30 10597 H 1023.9 -2.29281 -5.6678 0
M  V30 10598 H 1028.08 -3.10044 -6.23575 0
M  V30 10599 H 1025.7 -3.67396 -6.65525 0
M  V30 10600 N 1027.28 1.57312 -0.0952337 0
M  V30 10601 C 1028.51 1.98697 0.57682 0
M  V30 10602 C 1028.92 0.974347 1.61716 0
M  V30 10603 O 1028.28 -0.036022 1.82464 0
M  V30 10604 C 1028.33 3.40133 1.2244 0
M  V30 10605 O 1028.05 4.37518 0.225678 0
M  V30 10606 C 1029.55 3.96522 1.98205 0
M  V30 10607 H 1026.77 0.65294 0.154629 0
M  V30 10608 H 1029.32 2.03754 -0.174562 0
M  V30 10609 H 1027.47 3.3609 1.92671 0
M  V30 10610 H 1027.89 5.199 0.693116 0
M  V30 10611 H 1029.36 4.97637 2.38875 0
M  V30 10612 H 1029.84 3.34347 2.84796 0
M  V30 10613 H 1030.44 4.04038 1.3279 0
M  V30 10614 N 1028.76 -0.17846 1.56586 0
M  V30 10615 C 1030 -0.897562 1.81856 0
M  V30 10616 C 1030.34 -1.82204 0.671955 0
M  V30 10617 O 1029.61 -1.91739 -0.326535 0
M  V30 10618 C 1029.89 -1.69942 3.17477 0
M  V30 10619 C 1029.75 -0.798545 4.42655 0
M  V30 10620 C 1031.07 -2.66861 3.49962 0
M  V30 10621 H 1028.19 -0.324863 0.661539 0
M  V30 10622 H 1030.83 -0.164106 1.8929 0
M  V30 10623 H 1028.98 -2.32471 3.11271 0
M  V30 10624 H 1030.65 -0.18668 4.60922 0
M  V30 10625 H 1028.89 -0.106181 4.3367 0
M  V30 10626 H 1029.56 -1.39496 5.34083 0
M  V30 10627 H 1032.04 -2.1446 3.56576 0
M  V30 10628 H 1030.92 -3.20037 4.45946 0
M  V30 10629 H 1031.18 -3.46715 2.74301 0
M  V30 10630 N 1030.24 -1.51135 -0.446768 0
M  V30 10631 C 1031.51 -1.5387 -1.20762 0
M  V30 10632 C 1031.89 -0.297446 -2.08994 0
M  V30 10633 O 1031.24 0.717975 -2.16927 0
M  V30 10634 C 1031.45 -2.84767 -2.01764 0
M  V30 10635 C 1032.8 -3.3636 -2.59128 0
M  V30 10636 O 1033.82 -2.86254 -2.11984 0
M  V30 10637 O 1032.68 -4.23765 -3.45088 0
M  V30 10638 H 1029.78 -0.618228 -0.549293 0
M  V30 10639 H 1032.32 -1.63442 -0.456605 0
M  V30 10640 H 1031.09 -3.6657 -1.36901 0
M  V30 10641 H 1030.72 -2.78313 -2.8395 0
M  V30 10642 N 1031.71 0.701592 -1.41122 0
M  V30 10643 C 1032.68 1.79733 -1.42227 0
M  V30 10644 C 1033.68 1.57708 -0.313831 0
M  V30 10645 O 1034.87 1.64492 -0.573423 0
M  V30 10646 C 1032 3.18024 -1.22775 0
M  V30 10647 H 1033.19 1.80148 -2.39764 0
M  V30 10648 H 1030.74 0.908624 -1.27176 0
M  V30 10649 H 1031.48 3.23252 -0.260552 0
M  V30 10650 H 1031.26 3.35411 -2.0308 0
M  V30 10651 H 1032.75 3.98021 -1.2637 0
M  V30 10652 N 1033.19 1.2685 0.935242 0
M  V30 10653 C 1034.14 1.08923 2.03481 0
M  V30 10654 C 1035.11 -0.00749786 1.66098 0
M  V30 10655 O 1036.29 0.153401 1.90182 0
M  V30 10656 C 1033.43 0.734529 3.37192 0
M  V30 10657 C 1032.55 1.90812 3.87576 0
M  V30 10658 C 1031.68 1.49599 5.097 0
M  V30 10659 C 1030.72 2.63752 5.5236 0
M  V30 10660 N 1029.86 2.23179 6.65684 0
M  V30 10661 H 1034.7 2.03016 2.18148 0
M  V30 10662 H 1032.23 1.01072 1.06878 0
M  V30 10663 H 1034.19 0.509734 4.14074 0
M  V30 10664 H 1032.82 -0.169438 3.22355 0
M  V30 10665 H 1031.87 2.24567 3.0704 0
M  V30 10666 H 1033.19 2.7647 4.1517 0
M  V30 10667 H 1032.34 1.23199 5.9406 0
M  V30 10668 H 1031.08 0.61039 4.83865 0
M  V30 10669 H 1030.08 2.90874 4.66554 0
M  V30 10670 H 1031.31 3.5292 5.80193 0
M  V30 10671 H 1029.26 1.37061 6.41522 0
M  V30 10672 H 1029.17 3.02379 6.92895 0
M  V30 10673 H 1030.44 2.00007 7.53404 0
M  V30 10674 N 1034.67 -1.14067 1.0875 0
M  V30 10675 C 1035.62 -2.17302 0.690195 0
M  V30 10676 C 1036.6 -1.58229 -0.291948 0
M  V30 10677 O 1037.8 -1.76698 -0.103411 0
M  V30 10678 C 1034.93 -3.4314 0.104835 0
M  V30 10679 C 1034.01 -4.09235 1.11298 0
M  V30 10680 N 1034.4 -4.50601 2.29765 0
M  V30 10681 C 1032.7 -4.35775 0.949535 0
M  V30 10682 C 1033.4 -5.02029 2.93839 0
M  V30 10683 N 1032.38 -4.96457 2.21431 0
M  V30 10684 H 1036.18 -2.47031 1.59226 0
M  V30 10685 H 1033.69 -1.30788 0.962722 0
M  V30 10686 H 1035.69 -4.16431 -0.197777 0
M  V30 10687 H 1034.35 -3.14888 -0.792172 0
M  V30 10688 H 1035.36 -4.43529 2.67399 0
M  V30 10689 H 1032.04 -4.17364 0.106627 0
M  V30 10690 H 1033.43 -5.43885 3.94511 0
M  V30 10691 N 1036.15 -0.873678 -1.31166 0
M  V30 10692 C 1037.4 -0.485497 -1.96182 0
M  V30 10693 C 1037.72 0.96621 -1.69379 0
M  V30 10694 O 1036.99 1.67783 -1.01121 0
M  V30 10695 H 1035.57 -0.176547 -0.725838 0
M  V30 10696 H 1038.23 -1.11428 -1.59906 0
M  V30 10697 H 1037.33 -0.646325 -3.05334 0
M  V30 10698 N 1037.63 1.44308 -0.633487 0
M  V30 10699 C 1038.87 2.01624 -0.138643 0
M  V30 10700 C 1039.2 1.50101 1.24477 0
M  V30 10701 O 1038.47 0.705575 1.82752 0
M  V30 10702 H 1037.05 0.745439 -0.0482636 0
M  V30 10703 H 1039.71 1.76777 -0.820719 0
M  V30 10704 H 1038.8 3.11913 -0.108136 0
M  V30 10705 N 1039.1 0.374177 1.53094 0
M  V30 10706 C 1040.05 -0.468226 2.26001 0
M  V30 10707 C 1041.02 -1.07041 1.27009 0
M  V30 10708 O 1042.21 -1.10129 1.55809 0
M  V30 10709 C 1039.35 -1.59754 3.05896 0
M  V30 10710 C 1038.46 -1.01969 4.19793 0
M  V30 10711 C 1037.59 -2.11882 4.87113 0
M  V30 10712 C 1036.63 -1.51607 5.93028 0
M  V30 10713 N 1035.77 -2.55388 6.54004 0
M  V30 10714 H 1040.61 0.159983 2.9757 0
M  V30 10715 H 1038.15 0.0907196 1.4682 0
M  V30 10716 H 1040.11 -2.26288 3.50499 0
M  V30 10717 H 1038.74 -2.19628 2.36565 0
M  V30 10718 H 1037.79 -0.244386 3.79614 0
M  V30 10719 H 1039.1 -0.539089 4.95878 0
M  V30 10720 H 1038.25 -2.86218 5.34943 0
M  V30 10721 H 1036.99 -2.63297 4.10519 0
M  V30 10722 H 1036 -0.757891 5.44551 0
M  V30 10723 H 1037.22 -1.01006 6.71546 0
M  V30 10724 H 1035.17 -3.06 5.80258 0
M  V30 10725 H 1035.09 -2.12039 7.25655 0
M  V30 10726 H 1036.35 -3.294 7.06481 0
M  V30 10727 N 1040.58 -1.57259 0.103575 0
M  V30 10728 C 1041.55 -2.13337 -0.837859 0
M  V30 10729 C 1042.55 -1.06459 -1.20512 0
M  V30 10730 O 1043.74 -1.32307 -1.13316 0
M  V30 10731 C 1040.87 -2.66093 -2.13089 0
M  V30 10732 H 1042.06 -2.97842 -0.350775 0
M  V30 10733 H 1039.61 -1.55621 -0.145511 0
M  V30 10734 H 1040.35 -1.85133 -2.66264 0
M  V30 10735 H 1040.13 -3.44244 -1.87719 0
M  V30 10736 H 1041.62 -3.09443 -2.80419 0
M  V30 10737 N 1042.06 0.170153 -1.56679 0
M  V30 10738 C 1043.47 0.732502 -1.7173 0
M  V30 10739 C 1043.82 1.82736 -0.71428 0
M  V30 10740 O 1042.95 2.16044 0.124102 0
M  V30 10741 C 1043.54 1.33548 -3.11368 0
M  V30 10742 C 1042.1 1.84464 -3.281 0
M  V30 10743 C 1041.25 0.724069 -2.6768 0
M  V30 10744 H 1044.2 -0.0552543 -1.58604 0
M  V30 10745 H 1044.22 2.20519 -3.10083 0
M  V30 10746 H 1043.73 0.5384 -3.84347 0
M  V30 10747 H 1041.83 2.66813 -2.6008 0
M  V30 10748 H 1041.95 1.98928 -4.35849 0
M  V30 10749 H 1040.31 1.14481 -2.27522 0
M  V30 10750 H 1041.09 -0.0611861 -3.43245 0
M  V30 10751 N 1043.54 1.5137 0.438746 0
M  V30 10752 C 1044.47 1.75528 1.53987 0
M  V30 10753 C 1045.45 0.605067 1.58975 0
M  V30 10754 O 1046.63 0.847634 1.74725 0
M  V30 10755 C 1043.76 1.87904 2.92078 0
M  V30 10756 C 1042.72 3.0333 3.01951 0
M  V30 10757 C 1042.04 3.00888 4.42007 0
M  V30 10758 C 1043.34 4.43319 2.76163 0
M  V30 10759 H 1045.04 2.67728 1.34022 0
M  V30 10760 H 1042.58 1.28831 0.643308 0
M  V30 10761 H 1044.54 2.03388 3.69068 0
M  V30 10762 H 1043.26 0.923514 3.13271 0
M  V30 10763 H 1041.92 2.87549 2.274 0
M  V30 10764 H 1041.57 2.03116 4.60166 0
M  V30 10765 H 1041.27 3.78397 4.49544 0
M  V30 10766 H 1042.79 3.18464 5.20973 0
M  V30 10767 H 1044.21 4.59458 3.42887 0
M  V30 10768 H 1042.6 5.22523 2.9511 0
M  V30 10769 H 1043.67 4.53453 1.71779 0
M  V30 10770 N 1045.02 -0.694098 1.41492 0
M  V30 10771 C 1046.43 -1.00487 1.23994 0
M  V30 10772 C 1046.63 -2.01078 0.130346 0
M  V30 10773 O 1045.69 -2.47403 -0.504775 0
M  V30 10774 C 1047 -1.52808 2.58979 0
M  V30 10775 C 1048.55 -1.64684 2.66173 0
M  V30 10776 C 1049.02 -2.20406 4.01479 0
M  V30 10777 N 1050.52 -2.27765 4.03333 0
M  V30 10778 C 1051.25 -2.7191 5.04829 0
M  V30 10779 N 1050.75 -3.1565 6.16714 0
M  V30 10780 N 1052.54 -2.71487 4.9219 0
M  V30 10781 H 1044.69 -0.027746 2.12382 0
M  V30 10782 H 1046.95 -0.0748741 0.945039 0
M  V30 10783 H 1046.66 -0.863519 3.40934 0
M  V30 10784 H 1046.53 -2.50998 2.81566 0
M  V30 10785 H 1048.92 -2.30251 1.84576 0
M  V30 10786 H 1049 -0.65035 2.47395 0
M  V30 10787 H 1048.65 -1.55454 4.83525 0
M  V30 10788 H 1048.58 -3.2081 4.17599 0
M  V30 10789 H 1051.07 -1.96899 3.22551 0
M  V30 10790 H 1051.38 -3.47966 6.90029 0
M  V30 10791 H 1049.72 -3.13555 6.20248 0
M  V30 10792 H 1052.92 -2.36666 4.03865 0
M  V30 10793 H 1053.09 -3.05573 5.71427 0
M  V30 10794 N 1046.49 -1.27344 -0.928501 0
M  V30 10795 C 1047.74 -1.13804 -1.67859 0
M  V30 10796 C 1048.07 0.31555 -1.91619 0
M  V30 10797 O 1047.35 1.23087 -1.50599 0
M  V30 10798 C 1047.63 -1.9213 -3.04562 0
M  V30 10799 C 1047.48 -3.45468 -2.88048 0
M  V30 10800 C 1048.8 -1.72513 -4.04879 0
M  V30 10801 H 1045.92 -0.414796 -0.609191 0
M  V30 10802 H 1048.56 -1.5649 -1.07753 0
M  V30 10803 H 1046.71 -1.55853 -3.55868 0
M  V30 10804 H 1048.39 -3.9157 -2.43865 0
M  V30 10805 H 1046.63 -3.71849 -2.23407 0
M  V30 10806 H 1047.3 -3.95515 -3.85061 0
M  V30 10807 H 1049.78 -2.04143 -3.62581 0
M  V30 10808 H 1048.65 -2.29713 -4.98521 0
M  V30 10809 H 1048.91 -0.672856 -4.3695 0
M  V30 10810 N 1047.97 1.13488 -1.09353 0
M  V30 10811 C 1048.9 2.18563 -0.69012 0
M  V30 10812 C 1049.92 1.60585 0.267651 0
M  V30 10813 O 1051.11 1.78419 0.0538176 0
M  V30 10814 C 1048.21 3.389 0.00391255 0
M  V30 10815 C 1047.38 4.2639 -0.975209 0
M  V30 10816 C 1046.44 5.25258 -0.314719 0
M  V30 10817 O 1045.46 5.6101 -0.962119 0
M  V30 10818 N 1046.67 5.72978 0.931458 0
M  V30 10819 H 1049.43 2.53788 -1.59411 0
M  V30 10820 H 1046.99 1.28803 -0.980886 0
M  V30 10821 H 1048.98 4.02112 0.45696 0
M  V30 10822 H 1047.55 3.0192 0.81014 0
M  V30 10823 H 1046.77 3.59964 -1.60684 0
M  V30 10824 H 1048.06 4.817 -1.63836 0
M  V30 10825 H 1047.46 5.46078 1.477 0
M  V30 10826 H 1046.02 6.38131 1.32784 0
M  V30 10827 N 1049.45 0.880621 1.30701 0
M  V30 10828 C 1050.7 0.497611 1.966 0
M  V30 10829 C 1051.03 -0.949901 1.69383 0
M  V30 10830 O 1050.31 -1.67054 0.996152 0
M  V30 10831 C 1050.59 0.767919 3.51817 0
M  V30 10832 C 1050.44 2.26574 3.88567 0
M  V30 10833 C 1051.76 0.241502 4.39437 0
M  V30 10834 H 1048.88 0.182267 0.714106 0
M  V30 10835 H 1051.52 1.10382 1.54648 0
M  V30 10836 H 1049.67 0.251967 3.87682 0
M  V30 10837 H 1051.34 2.84977 3.62748 0
M  V30 10838 H 1049.59 2.73411 3.36792 0
M  V30 10839 H 1050.26 2.40549 4.9683 0
M  V30 10840 H 1052.73 0.683051 4.10455 0
M  V30 10841 H 1051.61 0.459997 5.46969 0
M  V30 10842 H 1051.87 -0.857068 4.33713 0
M  V30 10843 N 1050.93 -1.4397 0.641131 0
M  V30 10844 C 1051.86 -2.28997 -0.0963315 0
M  V30 10845 C 1052.87 -1.4184 -0.799071 0
M  V30 10846 O 1054.06 -1.65896 -0.658846 0
M  V30 10847 C 1051.16 -3.18465 -1.15903 0
M  V30 10848 C 1050.34 -4.34093 -0.536828 0
M  V30 10849 C 1049.4 -5.04522 -1.4948 0
M  V30 10850 O 1048.42 -5.60202 -1.00807 0
M  V30 10851 N 1049.62 -5.06899 -2.82901 0
M  V30 10852 H 1052.39 -2.9293 0.633422 0
M  V30 10853 H 1049.95 -1.54527 0.48302 0
M  V30 10854 H 1051.94 -3.62445 -1.80044 0
M  V30 10855 H 1050.51 -2.56214 -1.79089 0
M  V30 10856 H 1049.73 -3.9318 0.283414 0
M  V30 10857 H 1051.02 -5.08698 -0.101966 0
M  V30 10858 H 1050.42 -4.63012 -3.25017 0
M  V30 10859 H 1048.97 -5.54637 -3.42376 0
M  V30 10860 N 1052.41 -0.382291 -1.52893 0
M  V30 10861 C 1053.68 0.259354 -1.93873 0
M  V30 10862 C 1054.06 1.64964 -1.3172 0
M  V30 10863 O 1053.41 2.23345 -0.482611 0
M  V30 10864 C 1053.62 0.292765 -3.4777 0
M  V30 10865 C 1054.97 0.525095 -4.21341 0
M  V30 10866 O 1055.99 0.373272 -3.54239 0
M  V30 10867 O 1054.85 0.822004 -5.40283 0
M  V30 10868 H 1051.95 0.159422 -0.811489 0
M  V30 10869 H 1054.49 -0.436289 -1.63996 0
M  V30 10870 H 1053.27 -0.681341 -3.85323 0
M  V30 10871 H 1052.89 1.03362 -3.8393 0
M  V30 10872 N 1053.89 1.57202 -0.111913 0
M  V30 10873 C 1054.83 2.16186 0.858286 0
M  V30 10874 C 1055.83 1.10917 1.28039 0
M  V30 10875 O 1057.03 1.29233 1.25295 0
M  V30 10876 H 1053.41 0.691777 0.29487 0
M  V30 10877 H 1055.38 2.96499 0.336265 0
M  V30 10878 C 1054.13 2.77024 2.10127 0
M  V30 10879 H 1053.45 3.5772 1.78539 0
M  V30 10880 H 1054.89 3.21841 2.76033 0
M  V30 10881 C 1053.35 1.73752 2.88638 0
M  V30 10882 O 1053.88 1.18659 3.83774 0
M  V30 10883 N 1052.09 1.43855 2.52496 0
M  V30 10884 H 1051.63 1.88846 1.75199 0
M  V30 10885 H 1051.59 0.749985 3.05324 0
M  V30 10886 N 1055.36 -0.161842 1.56767 0
M  V30 10887 C 1056.27 -1.21996 2.00385 0
M  V30 10888 C 1057.29 -1.4789 0.916768 0
M  V30 10889 O 1058.47 -1.59852 1.22513 0
M  V30 10890 C 1055.53 -2.53695 2.36305 0
M  V30 10891 C 1054.59 -2.3558 3.58888 0
M  V30 10892 C 1053.82 -3.60998 3.93085 0
M  V30 10893 O 1054.05 -4.6657 3.28129 0
M  V30 10894 O 1052.98 -3.54544 4.86397 0
M  V30 10895 H 1056.81 -0.879701 2.9068 0
M  V30 10896 H 1054.39 -0.369437 1.4476 0
M  V30 10897 H 1056.27 -3.31366 2.60335 0
M  V30 10898 H 1054.95 -2.87281 1.49169 0
M  V30 10899 H 1053.86 -1.55908 3.40064 0
M  V30 10900 H 1055.19 -2.06915 4.46595 0
M  V30 10901 N 1056.84 -1.516 -0.430713 0
M  V30 10902 C 1058.09 -1.64271 -1.17726 0
M  V30 10903 C 1058.41 -0.364406 -1.91565 0
M  V30 10904 O 1057.68 0.619991 -1.8583 0
M  V30 10905 H 1056.26 -0.605432 -0.437562 0
M  V30 10906 H 1058.92 -1.88557 -0.493166 0
M  V30 10907 H 1058.02 -2.47355 -1.90321 0
M  V30 10908 N 1058.32 0.686584 -1.41858 0
M  V30 10909 C 1059.56 1.45879 -1.43173 0
M  V30 10910 C 1059.92 1.91953 -0.0423059 0
M  V30 10911 O 1061.12 2.68709 0.069783 0
M  V30 10912 C 1059.4 2.63196 -2.41791 0
M  V30 10913 S 1060.95 3.52212 -2.6171 0
M  V30 10914 H 1057.77 0.498391 -0.507077 0
M  V30 10915 H 1060.37 0.800313 -1.78368 0
M  V30 10916 H 1059.08 2.27566 -3.41529 0
M  V30 10917 H 1058.61 3.33928 -2.0798 0
M  V30 10918 H 1060.62 4.58744 -1.89125 0
M  V30 10919 N 1059.8 1.27835 0.921735 0
M  V30 10920 C 1061.21 1.13151 1.48505 0
M  V30 10921 C 1061.56 -0.281373 1.94172 0
M  V30 10922 O 1060.68 -1.17487 1.8173 0
M  V30 10923 C 1061.28 2.04792 2.69899 0
M  V30 10924 C 1059.84 1.94196 3.22436 0
M  V30 10925 C 1058.99 1.96999 1.95158 0
M  V30 10926 H 1061.94 1.40641 0.735241 0
M  V30 10927 H 1061.96 1.60724 3.44889 0
M  V30 10928 H 1061.47 3.07615 2.36631 0
M  V30 10929 H 1059.57 0.943805 3.60448 0
M  V30 10930 H 1059.68 2.80744 3.88226 0
M  V30 10931 H 1058.05 1.41301 2.11911 0
M  V30 10932 H 1058.83 3.01487 1.64196 0
M  V30 10933 N 1061.28 -1.12907 1.09954 0
M  V30 10934 C 1062.52 -1.84579 0.840155 0
M  V30 10935 C 1062.85 -1.83605 -0.632692 0
M  V30 10936 O 1062.13 -1.27803 -1.46617 0
M  V30 10937 C 1062.41 -3.32489 1.38286 0
M  V30 10938 C 1062.27 -3.41946 2.92221 0
M  V30 10939 C 1063.58 -4.28091 1.0211 0
M  V30 10940 H 1060.7 -0.670169 0.306663 0
M  V30 10941 H 1063.35 -1.3249 1.36185 0
M  V30 10942 H 1061.5 -3.76978 0.939123 0
M  V30 10943 H 1063.17 -3.06128 3.45085 0
M  V30 10944 H 1061.41 -2.8265 3.29077 0
M  V30 10945 H 1062.08 -4.45983 3.25274 0
M  V30 10946 H 1064.56 -3.91701 1.4039 0
M  V30 10947 H 1063.43 -5.30005 1.42781 0
M  V30 10948 H 1063.69 -4.42044 -0.0700753 0
M  V30 10949 N 1062.75 -0.88754 -1.30232 0
M  V30 10950 C 1063.66 -0.360333 -2.31816 0
M  V30 10951 C 1064.68 0.538741 -1.6545 0
M  V30 10952 O 1065.86 0.431246 -1.96729 0
M  V30 10953 C 1062.92 0.414336 -3.44215 0
M  V30 10954 C 1061.98 -0.514799 -4.26202 0
M  V30 10955 C 1061.21 0.222994 -5.33234 0
M  V30 10956 O 1061.44 1.44871 -5.51696 0
M  V30 10957 O 1060.37 -0.428221 -6.00375 0
M  V30 10958 H 1064.2 -1.20279 -2.78867 0
M  V30 10959 H 1061.78 -0.651459 -1.34448 0
M  V30 10960 H 1063.66 0.852859 -4.12679 0
M  V30 10961 H 1062.34 1.23305 -2.99295 0
M  V30 10962 H 1061.25 -1.00219 -3.60426 0
M  V30 10963 H 1062.58 -1.29959 -4.74733 0
M  V30 10964 N 1064.23 1.43628 -0.648757 0
M  V30 10965 C 1065.2 2.29172 0.0360713 0
M  V30 10966 C 1066.2 1.41974 0.754976 0
M  V30 10967 O 1067.39 1.63654 0.5969 0
M  V30 10968 C 1064.52 3.23942 1.0618 0
M  V30 10969 H 1065.71 2.91214 -0.716544 0
M  V30 10970 H 1063.26 1.50833 -0.409759 0
M  V30 10971 H 1064 2.66786 1.8438 0
M  V30 10972 H 1063.78 3.88223 0.550016 0
M  V30 10973 H 1065.27 3.8816 1.54019 0
M  V30 10974 N 1065.71 0.390394 1.52688 0
M  V30 10975 C 1066.64 -0.43567 2.294 0
M  V30 10976 C 1067.62 -1.06253 1.32832 0
M  V30 10977 O 1068.81 -1.07509 1.61726 0
M  V30 10978 C 1065.94 -1.56259 3.10162 0
M  V30 10979 C 1064.89 -1.06172 4.14622 0
M  V30 10980 C 1064.22 -2.2808 4.83615 0
M  V30 10981 C 1065.52 -0.128902 5.22141 0
M  V30 10982 H 1067.21 0.204384 2.98702 0
M  V30 10983 H 1064.76 0.0997377 1.43654 0
M  V30 10984 H 1066.71 -2.14732 3.62585 0
M  V30 10985 H 1065.43 -2.23025 2.38595 0
M  V30 10986 H 1064.09 -0.499518 3.63181 0
M  V30 10987 H 1063.74 -2.93358 4.08595 0
M  V30 10988 H 1063.44 -1.95227 5.5422 0
M  V30 10989 H 1064.96 -2.87193 5.38844 0
M  V30 10990 H 1066.38 -0.621849 5.69917 0
M  V30 10991 H 1064.78 0.109919 5.99999 0
M  V30 10992 H 1065.85 0.821884 4.77884 0
M  V30 10993 N 1067.19 -1.57141 0.120249 0
M  V30 10994 C 1068.43 -1.95527 -0.538245 0
M  V30 10995 C 1068.77 -1.00373 -1.6625 0
M  V30 10996 O 1068.04 -0.0411734 -1.94456 0
M  V30 10997 C 1068.33 -3.43843 -1.06976 0
M  V30 10998 C 1068.18 -4.49771 0.0511596 0
M  V30 10999 C 1069.5 -3.94035 -1.96022 0
M  V30 11000 H 1066.62 -0.710958 -0.194183 0
M  V30 11001 H 1069.26 -1.88986 0.196061 0
M  V30 11002 H 1067.41 -3.49548 -1.69553 0
M  V30 11003 H 1069.08 -4.56163 0.686503 0
M  V30 11004 H 1067.32 -4.27882 0.714127 0
M  V30 11005 H 1067.99 -5.50812 -0.361995 0
M  V30 11006 H 1070.47 -3.9064 -1.43315 0
M  V30 11007 H 1069.35 -4.98329 -2.3013 0
M  V30 11008 H 1069.61 -3.34803 -2.8872 0
M  V30 11009 N 1068.67 0.153526 -1.5685 0
M  V30 11010 C 1069.61 1.18973 -1.97773 0
M  V30 11011 C 1070.58 1.43041 -0.844311 0
M  V30 11012 O 1071.77 1.55484 -1.10586 0
M  V30 11013 C 1068.91 2.51981 -2.35795 0
M  V30 11014 C 1068.02 2.35143 -3.62397 0
M  V30 11015 C 1067.16 3.61141 -3.89552 0
M  V30 11016 C 1066.2 3.39311 -5.09445 0
M  V30 11017 N 1065.33 4.57423 -5.32643 0
M  V30 11018 H 1070.17 0.833758 -2.86099 0
M  V30 11019 H 1067.71 0.400252 -1.4155 0
M  V30 11020 H 1069.67 3.29527 -2.55867 0
M  V30 11021 H 1068.3 2.85539 -1.50557 0
M  V30 11022 H 1067.35 1.48684 -3.50139 0
M  V30 11023 H 1068.66 2.14969 -4.501 0
M  V30 11024 H 1067.82 4.47117 -4.10087 0
M  V30 11025 H 1066.55 3.84312 -3.00259 0
M  V30 11026 H 1065.56 2.51723 -4.8879 0
M  V30 11027 H 1066.78 3.17545 -6.00285 0
M  V30 11028 H 1064.73 4.8078 -4.46303 0
M  V30 11029 H 1064.65 4.40228 -6.14602 0
M  V30 11030 H 1065.92 5.44632 -5.57671 0
M  V30 11031 N 1070.14 1.51827 0.422667 0
M  V30 11032 C 1071.42 1.55772 1.18299 0
M  V30 11033 C 1071.8 0.330657 2.08494 0
M  V30 11034 O 1071.15 -0.683373 2.18042 0
M  V30 11035 C 1071.36 2.87941 1.97208 0
M  V30 11036 C 1072.71 3.4044 2.53744 0
M  V30 11037 O 1073.73 2.8959 2.07403 0
M  V30 11038 O 1072.59 4.29201 3.38303 0
M  V30 11039 H 1069.68 0.626889 0.539388 0
M  V30 11040 H 1072.23 1.64147 0.430545 0
M  V30 11041 H 1071 3.68702 1.31052 0
M  V30 11042 H 1070.63 2.82795 2.79486 0
M  V30 11043 N 1071.62 -0.679052 1.4222 0
M  V30 11044 C 1072.57 -1.81398 1.45594 0
M  V30 11045 C 1073.56 -1.66112 0.332127 0
M  V30 11046 O 1074.77 -1.72772 0.504942 0
M  V30 11047 H 1071.15 -0.598045 0.455902 0
M  V30 11048 H 1073.12 -1.7567 2.41211 0
M  V30 11049 C 1071.87 -3.19525 1.37109 0
M  V30 11050 H 1071.19 -3.31912 2.22878 0
M  V30 11051 H 1072.63 -3.98967 1.43531 0
M  V30 11052 C 1071.09 -3.36792 0.0853593 0
M  V30 11053 O 1071.62 -3.92309 -0.863532 0
M  V30 11054 N 1069.82 -2.906 0.00389229 0
M  V30 11055 H 1069.37 -2.45607 0.776846 0
M  V30 11056 H 1069.33 -3.0253 -0.855742 0
M  V30 11057 N 1073.1 -1.28322 -0.914942 0
M  V30 11058 C 1074.35 -1.15179 -1.66067 0
M  V30 11059 C 1074.67 0.300279 -1.92674 0
M  V30 11060 O 1073.94 1.20821 -1.54205 0
M  V30 11061 H 1072.52 -0.423264 -0.615513 0
M  V30 11062 H 1075.18 -1.61034 -1.09791 0
M  V30 11063 H 1074.28 -1.69048 -2.62353 0
M  V30 11064 N 1074.58 1.12322 -1.10551 0
M  V30 11065 C 1075.53 2.20166 -0.750317 0
M  V30 11066 C 1076.52 1.67484 0.254066 0
M  V30 11067 O 1077.73 1.79637 0.114309 0
M  V30 11068 H 1074.1 0.717642 -0.22471 0
M  V30 11069 H 1076.07 2.47378 -1.66873 0
M  V30 11070 C 1074.82 3.47126 -0.199651 0
M  V30 11071 H 1074.14 3.88011 -0.963735 0
M  V30 11072 H 1075.58 4.23999 0.0108033 0
M  V30 11073 C 1074.04 3.19526 1.06792 0
M  V30 11074 O 1074.57 3.39368 2.14923 0
M  V30 11075 N 1072.78 2.73324 0.987032 0
M  V30 11076 H 1072.33 2.57378 0.106997 0
M  V30 11077 H 1072.28 2.55234 1.83584 0
M  V30 11078 N 1076.06 0.894434 1.2976 0
M  V30 11079 C 1077.3 0.516646 1.95385 0
M  V30 11080 C 1077.63 -0.939141 1.70895 0
M  V30 11081 O 1076.9 -1.66153 1.03778 0
M  V30 11082 H 1075.48 0.188072 0.722937 0
M  V30 11083 H 1078.14 1.13958 1.58113 0
M  V30 11084 H 1077.23 0.694819 3.04267 0
M  V30 11085 N 1077.53 -1.43282 0.656365 0
M  V30 11086 C 1078.76 -2.06125 0.178879 0
M  V30 11087 C 1079.18 -1.49216 -1.15672 0
M  V30 11088 O 1078.53 -0.624693 -1.71475 0
M  V30 11089 C 1078.59 -3.614 0.0851785 0
M  V30 11090 O 1078.31 -4.16194 1.36798 0
M  V30 11091 C 1079.81 -4.41325 -0.41801 0
M  V30 11092 H 1077.03 -0.664753 0.0913504 0
M  V30 11093 H 1079.57 -1.83733 0.897901 0
M  V30 11094 H 1077.73 -3.82966 -0.584421 0
M  V30 11095 H 1078.14 -5.09892 1.22924 0
M  V30 11096 H 1079.61 -5.50303 -0.432519 0
M  V30 11097 H 1080.09 -4.14577 -1.44991 0
M  V30 11098 H 1080.7 -4.24735 0.219208 0
M  V30 11099 N 1079.01 -0.398486 -1.52479 0
M  V30 11100 C 1080.24 0.180295 -2.05812 0
M  V30 11101 C 1080.65 1.40301 -1.26934 0
M  V30 11102 O 1079.99 1.81039 -0.311544 0
M  V30 11103 C 1080.06 0.60601 -3.54355 0
M  V30 11104 C 1079.72 -0.504508 -4.54207 0
M  V30 11105 C 1080.72 -1.36478 -5.01667 0
M  V30 11106 C 1078.4 -0.674161 -4.97755 0
M  V30 11107 C 1080.4 -2.37975 -5.91309 0
M  V30 11108 C 1078.08 -1.69246 -5.87196 0
M  V30 11109 C 1079.08 -2.54367 -6.33866 0
M  V30 11110 O 1078.77 -3.54454 -7.21538 0
M  V30 11111 H 1078.5 0.0286396 -0.675393 0
M  V30 11112 H 1081.06 -0.564912 -1.97479 0
M  V30 11113 H 1079.29 1.40334 -3.60338 0
M  V30 11114 H 1080.97 1.1115 -3.90385 0
M  V30 11115 H 1081.74 -1.24506 -4.68746 0
M  V30 11116 H 1077.62 -0.0213029 -4.60995 0
M  V30 11117 H 1081.16 -3.0445 -6.27659 0
M  V30 11118 H 1077.06 -1.81252 -6.1953 0
M  V30 11119 H 1077.83 -3.50571 -7.39623 0
M  V30 11120 N 1080.49 1.57075 -0.12858 0
M  V30 11121 C 1081.72 2.00305 0.537839 0
M  V30 11122 C 1082.14 1.00787 1.58819 0
M  V30 11123 O 1081.5 -0.0190839 1.8129 0
M  V30 11124 C 1081.55 3.42371 1.13201 0
M  V30 11125 O 1080.65 3.45786 2.24735 0
M  V30 11126 H 1079.99 0.650456 0.133428 0
M  V30 11127 H 1082.52 2.03415 -0.219882 0
M  V30 11128 H 1082.53 3.80783 1.4652 0
M  V30 11129 H 1081.21 4.14315 0.362713 0
M  V30 11130 H 1079.78 3.19201 1.92783 0
M  V30 11131 N 1081.97 -0.145205 1.5693 0
M  V30 11132 C 1083.21 -0.863709 1.85255 0
M  V30 11133 C 1083.57 -1.78266 0.713112 0
M  V30 11134 O 1084.77 -2.54075 0.877459 0
M  V30 11135 C 1083.05 -1.61628 3.18765 0
M  V30 11136 S 1084.6 -2.37996 3.68651 0
M  V30 11137 H 1081.42 -0.288792 0.649708 0
M  V30 11138 H 1084.02 -0.123603 1.95109 0
M  V30 11139 H 1082.73 -0.932688 3.99661 0
M  V30 11140 H 1082.26 -2.39726 3.11921 0
M  V30 11141 H 1084.27 -3.63223 3.38058 0
M  V30 11142 N 1083.45 -1.52049 -0.414609 0
M  V30 11143 C 1084.67 -1.6997 -1.18848 0
M  V30 11144 C 1085.1 -0.406058 -1.83665 0
M  V30 11145 O 1084.46 0.635981 -1.69779 0
M  V30 11146 C 1084.5 -2.8327 -2.23138 0
M  V30 11147 O 1083.61 -2.48457 -3.29155 0
M  V30 11148 H 1082.95 -0.566003 -0.347183 0
M  V30 11149 H 1085.48 -1.98726 -0.486757 0
M  V30 11150 H 1085.49 -3.08022 -2.67557 0
M  V30 11151 H 1084.16 -3.7713 -1.75344 0
M  V30 11152 H 1082.74 -2.34357 -2.90054 0
M  V30 11153 N 1084.93 0.6715 -1.42579 0
M  V30 11154 C 1086.16 1.4576 -1.46416 0
M  V30 11155 C 1086.56 1.89051 -0.0749843 0
M  V30 11156 O 1085.91 1.58927 0.921296 0
M  V30 11157 C 1085.97 2.7365 -2.33144 0
M  V30 11158 C 1085.63 2.52414 -3.80968 0
M  V30 11159 C 1086.63 2.16804 -4.72538 0
M  V30 11160 C 1084.31 2.67306 -4.25268 0
M  V30 11161 C 1086.31 1.96358 -6.06401 0
M  V30 11162 C 1084 2.46475 -5.5919 0
M  V30 11163 C 1084.99 2.11055 -6.49573 0
M  V30 11164 O 1084.68 1.90428 -7.8102 0
M  V30 11165 H 1084.41 0.454896 -0.500045 0
M  V30 11166 H 1086.97 0.832198 -1.87786 0
M  V30 11167 H 1085.2 3.38684 -1.86629 0
M  V30 11168 H 1086.89 3.35543 -2.28398 0
M  V30 11169 H 1087.65 2.04891 -4.39596 0
M  V30 11170 H 1083.53 2.93854 -3.55206 0
M  V30 11171 H 1087.08 1.68634 -6.76911 0
M  V30 11172 H 1082.97 2.57985 -5.91704 0
M  V30 11173 H 1083.74 2.05 -7.92412 0
M  V30 11174 N 1086.4 1.28806 0.908124 0
M  V30 11175 C 1087.65 1.1646 1.66027 0
M  V30 11176 C 1087.98 -0.285025 1.92097 0
M  V30 11177 O 1087.26 -1.20675 1.52538 0
M  V30 11178 C 1087.54 1.96951 3.01467 0
M  V30 11179 C 1087.39 3.50007 2.82515 0
M  V30 11180 C 1088.71 1.78932 4.02084 0
M  V30 11181 H 1085.83 0.424435 0.602515 0
M  V30 11182 H 1088.47 1.58185 1.0525 0
M  V30 11183 H 1086.62 1.61495 3.53344 0
M  V30 11184 H 1088.3 3.95401 2.37605 0
M  V30 11185 H 1086.54 3.75356 2.17463 0
M  V30 11186 H 1087.21 4.01591 3.7872 0
M  V30 11187 H 1089.69 2.09885 3.59287 0
M  V30 11188 H 1088.56 2.37615 4.94803 0
M  V30 11189 H 1088.82 0.742286 4.35824 0
M  V30 11190 N 1087.88 -1.11734 1.11145 0
M  V30 11191 C 1089.29 -1.64928 0.874959 0
M  V30 11192 C 1089.64 -1.87012 -0.593375 0
M  V30 11193 O 1088.77 -1.60206 -1.45475 0
M  V30 11194 C 1089.36 -2.99608 1.58178 0
M  V30 11195 C 1087.92 -3.49723 1.39179 0
M  V30 11196 C 1087.07 -2.24595 1.62642 0
M  V30 11197 H 1090.02 -0.954154 1.26813 0
M  V30 11198 H 1090.04 -3.66434 1.02501 0
M  V30 11199 H 1089.55 -2.83504 2.65042 0
M  V30 11200 H 1087.65 -3.70998 0.345111 0
M  V30 11201 H 1087.77 -4.28711 2.13878 0
M  V30 11202 H 1086.13 -2.32067 1.04961 0
M  V30 11203 H 1086.91 -2.11036 2.70774 0
M  V30 11204 N 1089.36 -0.901303 -1.29284 0
M  V30 11205 C 1090.78 -0.597634 -1.47988 0
M  V30 11206 C 1090.98 0.860434 -1.82205 0
M  V30 11207 O 1090.03 1.64049 -1.91948 0
M  V30 11208 C 1091.34 -1.52484 -2.5917 0
M  V30 11209 C 1092.89 -1.53021 -2.73045 0
M  V30 11210 C 1093.37 -2.44373 -3.87357 0
M  V30 11211 N 1094.86 -2.42429 -3.94693 0
M  V30 11212 C 1095.59 -3.09817 -4.82495 0
M  V30 11213 N 1095.09 -3.86489 -5.74976 0
M  V30 11214 N 1096.88 -2.98966 -4.76 0
M  V30 11215 H 1089.03 -1.84432 -1.0535 0
M  V30 11216 H 1091.3 -0.790367 -0.523473 0
M  V30 11217 H 1091 -2.56378 -2.40756 0
M  V30 11218 H 1090.88 -1.24657 -3.56006 0
M  V30 11219 H 1093.26 -0.498709 -2.90855 0
M  V30 11220 H 1093.34 -1.84886 -1.76779 0
M  V30 11221 H 1092.99 -3.47618 -3.70302 0
M  V30 11222 H 1092.92 -2.09817 -4.82995 0
M  V30 11223 H 1095.41 -1.86724 -3.28546 0
M  V30 11224 H 1095.72 -4.34959 -6.38773 0
M  V30 11225 H 1094.07 -3.90596 -5.74857 0
M  V30 11226 H 1097.26 -2.38581 -4.02737 0
M  V30 11227 H 1097.43 -3.51758 -5.44215 0
M  V30 11228 N 1090.84 1.42931 -0.663954 0
M  V30 11229 C 1091.78 2.3079 0.0210764 0
M  V30 11230 C 1092.75 1.45356 0.803796 0
M  V30 11231 O 1093.94 1.74207 0.778237 0
M  V30 11232 C 1091.08 3.31069 0.974023 0
M  V30 11233 C 1090.19 4.31598 0.186273 0
M  V30 11234 C 1089.33 5.18955 1.13399 0
M  V30 11235 C 1088.37 6.1117 0.337292 0
M  V30 11236 N 1087.5 6.91114 1.23715 0
M  V30 11237 H 1092.34 2.88819 -0.733995 0
M  V30 11238 H 1089.88 1.42274 -0.373711 0
M  V30 11239 H 1091.84 3.87727 1.54024 0
M  V30 11240 H 1090.47 2.74665 1.69585 0
M  V30 11241 H 1089.52 3.77147 -0.496402 0
M  V30 11242 H 1090.83 4.96919 -0.432753 0
M  V30 11243 H 1089.99 5.80292 1.77049 0
M  V30 11244 H 1088.73 4.53785 1.78691 0
M  V30 11245 H 1087.73 5.48911 -0.312492 0
M  V30 11246 H 1088.96 6.78386 -0.31138 0
M  V30 11247 H 1086.9 6.28583 1.87668 0
M  V30 11248 H 1086.82 7.52999 0.672946 0
M  V30 11249 H 1088.09 7.56948 1.86146 0
M  V30 11250 N 1092.32 0.406567 1.52266 0
M  V30 11251 C 1093.73 -0.063607 1.86592 0
M  V30 11252 C 1094.08 -1.4466 1.32544 0
M  V30 11253 O 1093.2 -2.05971 0.663692 0
M  V30 11254 C 1093.8 -0.122198 3.3858 0
M  V30 11255 C 1092.36 -0.536701 3.72554 0
M  V30 11256 C 1091.5 0.290422 2.75775 0
M  V30 11257 H 1094.45 0.623738 1.45929 0
M  V30 11258 H 1094.48 -0.937964 3.68758 0
M  V30 11259 H 1093.99 0.884495 3.77887 0
M  V30 11260 H 1092.09 -1.55013 3.38824 0
M  V30 11261 H 1092.2 -0.282867 4.78264 0
M  V30 11262 H 1090.57 -0.246864 2.53501 0
M  V30 11263 H 1091.35 1.29541 3.17921 0
M  V30 11264 N 1093.79 -1.57004 0.136909 0
M  V30 11265 C 1095.04 -1.96087 -0.517477 0
M  V30 11266 C 1095.37 -1.0213 -1.65176 0
M  V30 11267 O 1094.65 -0.0617958 -1.94402 0
M  V30 11268 C 1094.93 -3.44958 -1.03323 0
M  V30 11269 C 1094.78 -4.49691 0.0988609 0
M  V30 11270 C 1096.1 -3.96091 -1.91832 0
M  V30 11271 H 1093.22 -0.712978 -0.186632 0
M  V30 11272 H 1095.86 -1.88767 0.216095 0
M  V30 11273 H 1094.01 -3.51327 -1.65836 0
M  V30 11274 H 1095.69 -4.55409 0.734847 0
M  V30 11275 H 1093.93 -4.271 0.75947 0
M  V30 11276 H 1094.6 -5.51165 -0.303554 0
M  V30 11277 H 1097.08 -3.92139 -1.39164 0
M  V30 11278 H 1095.95 -5.00742 -2.24831 0
M  V30 11279 H 1096.21 -3.37846 -2.85153 0
M  V30 11280 N 1095.27 0.136881 -1.57004 0
M  V30 11281 C 1096.22 1.16869 -1.99023 0
M  V30 11282 C 1097.19 1.42137 -0.859435 0
M  V30 11283 O 1098.37 1.54303 -1.12229 0
M  V30 11284 C 1095.51 2.49466 -2.38455 0
M  V30 11285 C 1094.63 2.31286 -3.64871 0
M  V30 11286 C 1093.76 3.56989 -3.9336 0
M  V30 11287 C 1092.8 3.33889 -5.13015 0
M  V30 11288 N 1091.94 4.51748 -5.37464 0
M  V30 11289 H 1096.78 0.803366 -2.86967 0
M  V30 11290 H 1094.32 0.385216 -1.41967 0
M  V30 11291 H 1096.27 3.26794 -2.59348 0
M  V30 11292 H 1094.9 2.83926 -1.53577 0
M  V30 11293 H 1093.96 1.44962 -3.51696 0
M  V30 11294 H 1095.27 2.10183 -4.52355 0
M  V30 11295 H 1094.42 4.42742 -4.14806 0
M  V30 11296 H 1093.16 3.81106 -3.04318 0
M  V30 11297 H 1092.17 2.46525 -4.91432 0
M  V30 11298 H 1093.39 3.1116 -6.03619 0
M  V30 11299 H 1091.34 4.76019 -4.51377 0
M  V30 11300 H 1091.25 4.33684 -6.19237 0
M  V30 11301 H 1092.52 5.38686 -5.63416 0
M  V30 11302 N 1096.75 1.52266 0.40654 0
M  V30 11303 C 1097.7 1.72175 1.49465 0
M  V30 11304 C 1098.68 0.575668 1.50249 0
M  V30 11305 O 1099.88 0.832835 1.56182 0
M  V30 11306 C 1097.01 1.87818 2.87366 0
M  V30 11307 C 1096.09 3.08305 2.91219 0
M  V30 11308 N 1096.48 4.30967 2.64766 0
M  V30 11309 C 1094.78 3.08192 3.22388 0
M  V30 11310 C 1095.48 5.12455 2.75254 0
M  V30 11311 N 1094.46 4.47758 3.08242 0
M  V30 11312 H 1098.26 2.64653 1.27812 0
M  V30 11313 H 1095.77 1.50334 0.61428 0
M  V30 11314 H 1097.77 2.00198 3.65686 0
M  V30 11315 H 1096.43 0.965414 3.10016 0
M  V30 11316 H 1097.44 4.59397 2.39113 0
M  V30 11317 H 1094.12 2.26662 3.50615 0
M  V30 11318 H 1095.51 6.20186 2.58495 0
M  V30 11319 N 1098.23 -0.663929 1.42933 0
M  V30 11320 C 1099.46 -1.45192 1.474 0
M  V30 11321 C 1099.87 -1.88592 0.0886014 0
M  V30 11322 O 1099.23 -1.58824 -0.898962 0
M  V30 11323 C 1099.28 -2.69394 2.41059 0
M  V30 11324 O 1099 -2.27812 3.7421 0
M  V30 11325 C 1100.5 -3.62855 2.54659 0
M  V30 11326 H 1097.72 -0.446394 0.500973 0
M  V30 11327 H 1100.27 -0.814875 1.87563 0
M  V30 11328 H 1098.42 -3.29262 2.0412 0
M  V30 11329 H 1098.83 -3.08095 4.24474 0
M  V30 11330 H 1100.31 -4.46698 3.24291 0
M  V30 11331 H 1100.79 -4.09487 1.58799 0
M  V30 11332 H 1101.39 -3.08874 2.92364 0
M  V30 11333 N 1099.71 -1.29285 -0.901281 0
M  V30 11334 C 1100.67 -1.14283 -1.98676 0
M  V30 11335 C 1101.67 -0.0787641 -1.60607 0
M  V30 11336 O 1102.86 -0.325574 -1.71131 0
M  V30 11337 C 1099.99 -0.747279 -3.32609 0
M  V30 11338 H 1101.18 -2.10701 -2.13413 0
M  V30 11339 H 1098.74 -1.12449 -1.08558 0
M  V30 11340 H 1099.47 0.217111 -3.23572 0
M  V30 11341 H 1099.26 -1.51608 -3.61604 0
M  V30 11342 H 1100.75 -0.665322 -4.12266 0
M  V30 11343 N 1101.18 1.11143 -1.11736 0
M  V30 11344 C 1102.12 2.16467 -0.722299 0
M  V30 11345 C 1103.1 1.60118 0.283006 0
M  V30 11346 O 1104.28 1.87651 0.178696 0
M  V30 11347 C 1101.41 3.38632 -0.0679339 0
M  V30 11348 C 1100.45 4.13654 -1.03888 0
M  V30 11349 S 1101.29 4.70187 -2.5629 0
M  V30 11350 C 1102.44 5.95671 -1.92163 0
M  V30 11351 H 1102.67 2.49644 -1.61447 0
M  V30 11352 H 1100.21 1.22816 -0.935708 0
M  V30 11353 H 1102.17 4.09378 0.303253 0
M  V30 11354 H 1100.83 3.03709 0.80124 0
M  V30 11355 H 1100.02 5.01221 -0.528522 0
M  V30 11356 H 1099.62 3.48683 -1.35265 0
M  V30 11357 H 1101.91 6.65681 -1.25994 0
M  V30 11358 H 1102.86 6.51357 -2.77741 0
M  V30 11359 H 1103.26 5.47359 -1.3805 0
M  V30 11360 N 1102.66 0.908147 1.28804 0
M  V30 11361 C 1103.91 0.539201 1.95501 0
M  V30 11362 C 1104.24 -0.913759 1.7136 0
M  V30 11363 O 1103.52 -1.64904 1.03136 0
M  V30 11364 C 1103.8 0.842372 3.50109 0
M  V30 11365 C 1103.65 2.34765 3.83673 0
M  V30 11366 C 1104.97 0.334658 4.38826 0
M  V30 11367 H 1102.09 0.197373 0.71008 0
M  V30 11368 H 1104.73 1.13637 1.52272 0
M  V30 11369 H 1102.88 0.334143 3.8706 0
M  V30 11370 H 1104.55 2.92607 3.56621 0
M  V30 11371 H 1102.8 2.80494 3.30916 0
M  V30 11372 H 1103.47 2.51034 4.91616 0
M  V30 11373 H 1105.94 0.769961 4.08914 0
M  V30 11374 H 1104.82 0.575914 5.4587 0
M  V30 11375 H 1105.08 -0.764878 4.35433 0
M  V30 11376 N 1104.14 -1.42577 0.671525 0
M  V30 11377 C 1105.37 -2.06442 0.199152 0
M  V30 11378 C 1105.79 -1.50104 -1.1336 0
M  V30 11379 O 1105.15 -0.618211 -1.70434 0
M  V30 11380 C 1105.2 -3.60323 0.141215 0
M  V30 11381 O 1104.3 -4.02655 -0.891238 0
M  V30 11382 H 1103.64 -0.655919 0.103277 0
M  V30 11383 H 1106.17 -1.82768 0.919614 0
M  V30 11384 H 1106.18 -4.07984 -0.0360209 0
M  V30 11385 H 1104.86 -4.00702 1.11403 0
M  V30 11386 H 1103.43 -3.66549 -0.685309 0
M  V30 11387 N 1105.62 -0.414636 -1.52048 0
M  V30 11388 C 1106.86 0.151945 -2.02832 0
M  V30 11389 C 1107.22 1.42337 -1.29452 0
M  V30 11390 O 1106.51 1.87509 -0.39383 0
M  V30 11391 C 1106.71 0.448327 -3.54577 0
M  V30 11392 C 1106.54 -0.792827 -4.42656 0
M  V30 11393 C 1105.31 -1.31966 -4.87763 0
M  V30 11394 C 1107.5 -1.67252 -4.86345 0
M  V30 11395 N 1105.49 -2.51572 -5.59986 0
M  V30 11396 C 1106.86 -2.71479 -5.57404 0
M  V30 11397 C 1108.91 -1.68963 -4.68354 0
M  V30 11398 C 1107.61 -3.77334 -6.12382 0
M  V30 11399 C 1109.64 -2.7374 -5.24233 0
M  V30 11400 C 1109 -3.76687 -5.95219 0
M  V30 11401 H 1105.1 0.0170247 -0.781815 0
M  V30 11402 H 1107.69 -0.570219 -1.86163 0
M  V30 11403 H 1105.86 1.13953 -3.71307 0
M  V30 11404 H 1107.59 1.00427 -3.92041 0
M  V30 11405 H 1104.34 -0.876885 -4.65411 0
M  V30 11406 H 1104.77 -3.12161 -6.00737 0
M  V30 11407 H 1109.41 -0.907103 -4.12955 0
M  V30 11408 H 1107.13 -4.56439 -6.6685 0
M  V30 11409 H 1110.71 -2.75978 -5.12179 0
M  V30 11410 H 1109.59 -4.56431 -6.37684 0
M  V30 11411 N 1107.1 1.56929 -0.145233 0
M  V30 11412 C 1108.34 1.95681 0.50532 0
M  V30 11413 C 1108.67 1.03098 1.65516 0
M  V30 11414 O 1107.94 0.0921961 1.95683 0
M  V30 11415 H 1106.52 0.72252 0.189668 0
M  V30 11416 H 1109.18 1.93651 -0.220318 0
M  V30 11417 H 1108.27 2.99359 0.882631 0
M  V30 11418 N 1108.58 -0.128553 1.57075 0
M  V30 11419 C 1109.82 -0.836355 1.83982 0
M  V30 11420 C 1110.14 -1.80862 0.728971 0
M  V30 11421 O 1109.41 -1.94326 -0.247859 0
M  V30 11422 H 1107.99 -0.31185 0.678792 0
M  V30 11423 H 1110.66 -0.118153 1.94542 0
M  V30 11424 H 1109.75 -1.38741 2.79567 0
M  V30 11425 N 1110.05 -1.5248 -0.398459 0
M  V30 11426 C 1111.3 -1.67309 -1.1461 0
M  V30 11427 C 1111.63 -0.407095 -1.89885 0
M  V30 11428 O 1110.91 0.594834 -1.85181 0
M  V30 11429 C 1111.19 -2.90204 -2.13198 0
M  V30 11430 C 1111.04 -4.26881 -1.4175 0
M  V30 11431 C 1112.36 -3.08634 -3.13741 0
M  V30 11432 H 1109.48 -0.608853 -0.415292 0
M  V30 11433 H 1112.12 -1.85057 -0.430573 0
M  V30 11434 H 1110.27 -2.75204 -2.74218 0
M  V30 11435 H 1111.95 -4.53631 -0.837676 0
M  V30 11436 H 1110.19 -4.27793 -0.719387 0
M  V30 11437 H 1110.86 -5.08939 -2.1374 0
M  V30 11438 H 1113.34 -3.22603 -2.62805 0
M  V30 11439 H 1112.21 -3.96117 -3.79977 0
M  V30 11440 H 1112.47 -2.22425 -3.82073 0
M  V30 11441 N 1111.53 0.65634 -1.43283 0
M  V30 11442 C 1112.76 1.44906 -1.48382 0
M  V30 11443 C 1113.18 1.87823 -0.101993 0
M  V30 11444 O 1112.54 1.57178 0.903597 0
M  V30 11445 C 1112.59 2.66231 -2.43215 0
M  V30 11446 O 1111.69 3.65176 -1.91625 0
M  V30 11447 H 1111.03 0.434601 -0.502014 0
M  V30 11448 H 1113.56 0.803429 -1.88165 0
M  V30 11449 H 1113.57 3.14083 -2.60414 0
M  V30 11450 H 1112.25 2.34336 -3.43598 0
M  V30 11451 H 1110.82 3.24302 -1.84072 0
M  V30 11452 N 1113.01 1.29761 0.894412 0
M  V30 11453 C 1114.26 1.17409 1.64006 0
M  V30 11454 C 1114.57 -0.272355 1.93695 0
M  V30 11455 O 1115.78 -0.517269 2.66527 0
M  V30 11456 C 1114.23 2.05379 2.95546 0
M  V30 11457 C 1113.84 3.54878 2.73433 0
M  V30 11458 C 1115.59 2.01765 3.73485 0
M  V30 11459 C 1113.49 4.34935 4.00731 0
M  V30 11460 H 1112.42 0.43583 0.615279 0
M  V30 11461 H 1115.07 1.5444 0.990983 0
M  V30 11462 H 1113.46 1.61222 3.61695 0
M  V30 11463 H 1114.63 4.07122 2.15844 0
M  V30 11464 H 1112.94 3.60218 2.08882 0
M  V30 11465 H 1115.54 2.58835 4.67877 0
M  V30 11466 H 1115.88 0.998876 4.04139 0
M  V30 11467 H 1116.42 2.43994 3.14184 0
M  V30 11468 H 1113.16 5.3747 3.75241 0
M  V30 11469 H 1112.68 3.87458 4.5786 0
M  V30 11470 H 1114.36 4.45875 4.68833 0
M  V30 11471 N 1114.49 -1.10549 1.12324 0
M  V30 11472 C 1115.9 -1.63991 0.892402 0
M  V30 11473 C 1116.25 -1.87631 -0.573506 0
M  V30 11474 O 1115.37 -1.6174 -1.43768 0
M  V30 11475 C 1115.97 -2.97914 1.61347 0
M  V30 11476 C 1114.53 -3.48227 1.42881 0
M  V30 11477 C 1113.68 -2.22857 1.65015 0
M  V30 11478 H 1116.63 -0.94065 1.27818 0
M  V30 11479 H 1116.65 -3.65326 1.06382 0
M  V30 11480 H 1116.16 -2.80677 2.68034 0
M  V30 11481 H 1114.26 -3.70611 0.384441 0
M  V30 11482 H 1114.37 -4.26419 2.18413 0
M  V30 11483 H 1112.74 -2.30941 1.07417 0
M  V30 11484 H 1113.52 -2.08152 2.72997 0
M  V30 11485 N 1115.97 -0.914965 -1.28321 0
M  V30 11486 C 1116.91 -0.394477 -2.29231 0
M  V30 11487 C 1117.91 0.514481 -1.61398 0
M  V30 11488 O 1119.11 0.395591 -1.75599 0
M  V30 11489 H 1115.49 -0.108969 -0.744063 0
M  V30 11490 H 1117.46 -1.25862 -2.70557 0
M  V30 11491 C 1116.21 0.349134 -3.45943 0
M  V30 11492 H 1115.53 -0.341087 -3.98342 0
M  V30 11493 H 1116.97 0.677944 -4.18545 0
M  V30 11494 C 1115.43 1.55747 -2.98738 0
M  V30 11495 O 1115.96 2.65654 -3.01315 0
M  V30 11496 N 1114.17 1.40488 -2.54384 0
M  V30 11497 H 1113.71 0.510716 -2.52487 0
M  V30 11498 H 1113.67 2.21464 -2.23161 0
M  V30 11499 N 1117.44 1.42219 -0.679077 0
M  V30 11500 C 1118.67 2.06333 -0.210097 0
M  V30 11501 C 1119.09 1.50703 1.12562 0
M  V30 11502 O 1118.45 0.627241 1.70104 0
M  V30 11503 C 1118.5 3.60243 -0.160322 0
M  V30 11504 O 1117.6 4.03122 0.869872 0
M  V30 11505 H 1116.94 0.655362 -0.106754 0
M  V30 11506 H 1119.47 1.82278 -0.929294 0
M  V30 11507 H 1119.48 4.07997 0.014384 0
M  V30 11508 H 1118.16 4.00106 -1.13526 0
M  V30 11509 H 1116.74 3.66907 0.66586 0
M  V30 11510 N 1118.92 0.422693 1.51826 0
M  V30 11511 C 1120.33 -0.0438129 1.86649 0
M  V30 11512 C 1120.68 -1.43246 1.34071 0
M  V30 11513 O 1119.81 -2.05256 0.685501 0
M  V30 11514 C 1120.4 -0.0862802 3.3869 0
M  V30 11515 C 1118.96 -0.497157 3.73102 0
M  V30 11516 C 1118.11 0.319655 2.75451 0
M  V30 11517 H 1121.06 0.639181 1.45259 0
M  V30 11518 H 1121.08 -0.8988 3.69732 0
M  V30 11519 H 1120.59 0.924525 3.76927 0
M  V30 11520 H 1118.69 -1.51411 3.40449 0
M  V30 11521 H 1118.81 -0.232125 4.78537 0
M  V30 11522 H 1117.17 -0.219963 2.53748 0
M  V30 11523 H 1117.95 1.32906 3.16529 0
M  V30 11524 N 1120.4 -1.5685 0.153553 0
M  V30 11525 C 1121.65 -1.96334 -0.495915 0
M  V30 11526 C 1121.97 -1.03873 -1.64441 0
M  V30 11527 O 1121.23 -0.069231 -1.95578 0
M  V30 11528 C 1121.53 -3.42022 -1.0371 0
M  V30 11529 C 1121.19 -4.509 -0.00637049 0
M  V30 11530 C 1119.86 -4.80402 0.276956 0
M  V30 11531 C 1122.21 -5.16556 0.694187 0
M  V30 11532 C 1119.54 -5.72866 1.26653 0
M  V30 11533 C 1121.89 -6.10087 1.67263 0
M  V30 11534 C 1120.55 -6.37965 1.96359 0
M  V30 11535 H 1119.82 -0.718436 -0.181468 0
M  V30 11536 H 1122.47 -1.89968 0.241768 0
M  V30 11537 H 1120.77 -3.45252 -1.85225 0
M  V30 11538 H 1122.47 -3.69903 -1.54831 0
M  V30 11539 H 1119.06 -4.27942 -0.237378 0
M  V30 11540 H 1123.25 -4.9389 0.488496 0
M  V30 11541 H 1118.5 -5.92756 1.49833 0
M  V30 11542 H 1122.68 -6.60036 2.22094 0
M  V30 11543 H 1120.3 -7.09416 2.73189 0
M  V30 11544 N 1121.88 0.120221 -1.57141 0
M  V30 11545 C 1123.29 0.473718 -1.52408 0
M  V30 11546 C 1123.49 1.81925 -0.866354 0
M  V30 11547 O 1122.55 2.48491 -0.448173 0
M  V30 11548 C 1123.86 0.459338 -2.97171 0
M  V30 11549 C 1125.41 0.542975 -3.08254 0
M  V30 11550 C 1125.89 0.558996 -4.54576 0
M  V30 11551 N 1127.38 0.620469 -4.59026 0
M  V30 11552 C 1128.11 0.654292 -5.69655 0
M  V30 11553 N 1127.61 0.645835 -6.89783 0
M  V30 11554 N 1129.4 0.697208 -5.57759 0
M  V30 11555 H 1121.55 -0.76142 -1.98283 0
M  V30 11556 H 1123.81 -0.280736 -0.905479 0
M  V30 11557 H 1123.52 -0.461654 -3.48657 0
M  V30 11558 H 1123.39 1.28759 -3.54543 0
M  V30 11559 H 1125.78 1.45439 -2.56772 0
M  V30 11560 H 1125.86 -0.312936 -2.53879 0
M  V30 11561 H 1125.51 -0.348367 -5.06704 0
M  V30 11562 H 1125.44 1.43177 -5.06762 0
M  V30 11563 H 1127.93 0.633218 -3.72557 0
M  V30 11564 H 1128.24 0.674233 -7.69853 0
M  V30 11565 H 1126.59 0.613279 -6.92289 0
M  V30 11566 H 1129.78 0.70117 -4.62819 0
M  V30 11567 H 1129.95 0.7201 -6.43986 0
M  V30 11568 N 1123.36 1.52689 0.390367 0
M  V30 11569 C 1124.6 1.67914 1.13722 0
M  V30 11570 C 1124.94 0.417159 1.89667 0
M  V30 11571 O 1124.21 -0.585005 1.85494 0
M  V30 11572 C 1124.49 2.91331 2.11656 0
M  V30 11573 C 1124.35 4.27626 1.39484 0
M  V30 11574 C 1125.67 3.10293 3.12099 0
M  V30 11575 H 1122.78 0.611047 0.412057 0
M  V30 11576 H 1125.43 1.85283 0.420753 0
M  V30 11577 H 1123.58 2.76654 2.72754 0
M  V30 11578 H 1125.25 4.54068 0.813607 0
M  V30 11579 H 1123.49 4.28169 0.69669 0
M  V30 11580 H 1124.16 5.10066 2.11038 0
M  V30 11581 H 1126.64 3.23992 2.6109 0
M  V30 11582 H 1125.51 3.98127 3.7787 0
M  V30 11583 H 1125.78 2.24448 3.80888 0
M  V30 11584 N 1124.83 -0.648732 1.43629 0
M  V30 11585 C 1125.78 -1.78269 1.49409 0
M  V30 11586 C 1126.78 -1.6537 0.367288 0
M  V30 11587 O 1127.98 -1.71663 0.541476 0
M  V30 11588 H 1124.36 -0.58824 0.468484 0
M  V30 11589 H 1126.33 -1.70514 2.44883 0
M  V30 11590 C 1125.08 -3.16545 1.43856 0
M  V30 11591 H 1124.4 -3.2711 2.29868 0
M  V30 11592 H 1125.84 -3.95833 1.51961 0
M  V30 11593 C 1124.3 -3.36535 0.156779 0
M  V30 11594 O 1124.83 -3.94052 -0.780124 0
M  V30 11595 N 1123.04 -2.90526 0.0655319 0
M  V30 11596 H 1122.58 -2.43904 0.828768 0
M  V30 11597 H 1122.54 -3.04277 -0.791379 0
M  V30 11598 N 1126.31 -1.30234 -0.887518 0
M  V30 11599 C 1127.56 -1.19086 -1.64153 0
M  V30 11600 C 1127.89 0.254428 -1.92526 0
M  V30 11601 O 1127.17 1.18233 -1.54438 0
M  V30 11602 C 1127.45 -2.01723 -2.98295 0
M  V30 11603 C 1127.3 -3.54458 -2.76911 0
M  V30 11604 C 1128.62 -1.85307 -3.99186 0
M  V30 11605 H 1125.74 -0.433967 -0.595686 0
M  V30 11606 H 1128.38 -1.59839 -1.0272 0
M  V30 11607 H 1126.53 -1.67096 -3.5073 0
M  V30 11608 H 1128.2 -3.99131 -2.31284 0
M  V30 11609 H 1126.45 -3.78768 -2.11464 0
M  V30 11610 H 1127.12 -4.07565 -3.72283 0
M  V30 11611 H 1129.59 -2.15575 -3.55903 0
M  V30 11612 H 1128.47 -2.45456 -4.90961 0
M  V30 11613 H 1128.73 -0.811528 -4.34588 0
M  V30 11614 N 1127.79 1.09952 -1.12909 0
M  V30 11615 C 1129.04 1.81657 -0.885729 0
M  V30 11616 C 1129.36 1.85863 0.589913 0
M  V30 11617 O 1128.63 1.34028 1.42875 0
M  V30 11618 H 1127.21 0.672743 -0.324694 0
M  V30 11619 H 1129.87 1.33013 -1.42456 0
M  V30 11620 H 1128.97 2.85018 -1.27167 0
M  V30 11621 N 1129.27 0.921757 1.27833 0
M  V30 11622 C 1130.23 0.420978 2.25301 0
M  V30 11623 C 1131.23 -0.457158 1.54165 0
M  V30 11624 O 1132.42 -0.259079 1.72263 0
M  V30 11625 C 1129.55 -0.395501 3.38598 0
M  V30 11626 H 1130.75 1.28206 2.71115 0
M  V30 11627 H 1128.3 0.701893 1.39654 0
M  V30 11628 H 1129.03 -1.27565 2.98157 0
M  V30 11629 H 1128.82 0.234029 3.91401 0
M  V30 11630 H 1130.31 -0.736444 4.11055 0
M  V30 11631 N 1130.75 -1.41857 0.686609 0
M  V30 11632 C 1131.99 -2.0097 0.213378 0
M  V30 11633 C 1132.32 -1.54618 -1.1882 0
M  V30 11634 O 1131.59 -0.772916 -1.80008 0
M  V30 11635 H 1130.17 -0.743134 0.0758968 0
M  V30 11636 H 1132.83 -1.73609 0.885763 0
M  V30 11637 H 1131.92 -3.11296 0.223826 0
M  V30 11638 N 1132.22 -0.430739 -1.51599 0
M  V30 11639 C 1133.45 0.139197 -2.06932 0
M  V30 11640 C 1133.87 1.3626 -1.29672 0
M  V30 11641 O 1133.23 1.78219 -0.332836 0
M  V30 11642 C 1133.28 0.446593 -3.57824 0
M  V30 11643 O 1132.38 1.53414 -3.82803 0
M  V30 11644 H 1131.73 0.00475812 -0.663983 0
M  V30 11645 H 1134.26 -0.610171 -1.9529 0
M  V30 11646 H 1134.27 0.698972 -4.01968 0
M  V30 11647 H 1132.94 -0.447613 -4.13484 0
M  V30 11648 H 1131.52 1.27224 -3.50526 0
M  V30 11649 N 1133.7 1.56767 -0.161869 0
M  V30 11650 C 1134.65 2.1409 0.784183 0
M  V30 11651 C 1135.64 1.07262 1.19932 0
M  V30 11652 O 1136.83 1.33406 1.16326 0
M  V30 11653 C 1133.96 2.77778 2.01729 0
M  V30 11654 C 1133.04 3.91751 1.62457 0
M  V30 11655 N 1133.43 4.96972 0.940888 0
M  V30 11656 C 1131.73 4.02735 1.91626 0
M  V30 11657 C 1132.43 5.76858 0.748946 0
M  V30 11658 N 1131.41 5.28134 1.28745 0
M  V30 11659 H 1135.21 2.92811 0.252763 0
M  V30 11660 H 1132.73 1.62353 0.0391501 0
M  V30 11661 H 1134.72 3.17216 2.70517 0
M  V30 11662 H 1133.38 2.00535 2.55374 0
M  V30 11663 H 1134.39 5.14413 0.599981 0
M  V30 11664 H 1131.07 3.36585 2.47016 0
M  V30 11665 H 1132.46 6.71575 0.208991 0
M  V30 11666 N 1135.18 -0.111886 1.57202 0
M  V30 11667 C 1136.59 -0.668261 1.74331 0
M  V30 11668 C 1136.94 -1.79959 0.781609 0
M  V30 11669 O 1136.07 -2.16356 -0.043833 0
M  V30 11670 C 1136.66 -1.219 3.1611 0
M  V30 11671 C 1135.22 -1.7216 3.34721 0
M  V30 11672 C 1134.37 -0.624223 2.70183 0
M  V30 11673 H 1137.32 0.114081 1.58289 0
M  V30 11674 H 1137.34 -2.08858 3.18054 0
M  V30 11675 H 1136.85 -0.395381 3.86081 0
M  V30 11676 H 1134.95 -2.56976 2.69803 0
M  V30 11677 H 1135.07 -1.82615 4.42932 0
M  V30 11678 H 1133.43 -1.05958 2.31614 0
M  V30 11679 H 1134.21 0.188537 3.42782 0
M  V30 11680 N 1136.66 -1.52894 -0.382264 0
M  V30 11681 C 1137.61 -1.78799 -1.48774 0
M  V30 11682 C 1138.6 -0.65624 -1.56173 0
M  V30 11683 O 1139.81 -0.838856 -1.59258 0
M  V30 11684 H 1136.18 -0.565855 -0.49529 0
M  V30 11685 H 1138.15 -2.7136 -1.24122 0
M  V30 11686 C 1136.9 -1.97987 -2.85826 0
M  V30 11687 H 1136.22 -2.84505 -2.80886 0
M  V30 11688 H 1137.66 -2.20099 -3.62398 0
M  V30 11689 C 1136.12 -0.75427 -3.28348 0
M  V30 11690 O 1136.65 0.0650749 -4.01647 0
M  V30 11691 N 1134.86 -0.582457 -2.84703 0
M  V30 11692 H 1134.41 -1.25034 -2.2522 0
M  V30 11693 H 1134.36 0.236208 -3.13511 0
M  V30 11694 N 1138.14 0.641106 -1.43971 0
M  V30 11695 C 1139.08 1.75352 -1.50068 0
M  V30 11696 C 1140.05 1.62386 -0.349266 0
M  V30 11697 O 1141.24 1.82455 -0.558118 0
M  V30 11698 C 1138.38 3.13561 -1.4413 0
M  V30 11699 C 1137.49 3.37574 -2.6957 0
M  V30 11700 C 1136.63 4.65698 -2.55535 0
M  V30 11701 C 1135.67 4.82857 -3.76186 0
M  V30 11702 N 1134.8 6.02249 -3.60888 0
M  V30 11703 H 1139.64 1.69477 -2.45116 0
M  V30 11704 H 1137.18 0.826871 -1.2166 0
M  V30 11705 H 1139.14 3.93476 -1.38681 0
M  V30 11706 H 1137.77 3.18476 -0.526563 0
M  V30 11707 H 1136.82 2.5167 -2.85248 0
M  V30 11708 H 1138.13 3.46135 -3.59154 0
M  V30 11709 H 1137.29 5.53759 -2.47862 0
M  V30 11710 H 1136.03 4.59479 -1.63495 0
M  V30 11711 H 1135.03 3.93229 -3.84254 0
M  V30 11712 H 1136.26 4.90898 -4.6925 0
M  V30 11713 H 1134.2 5.97138 -2.71591 0
M  V30 11714 H 1134.12 6.11822 -4.44083 0
M  V30 11715 H 1135.39 6.92898 -3.57088 0
M  V30 11716 N 1139.62 1.30703 0.880598 0
M  V30 11717 C 1140.86 1.19955 1.63519 0
M  V30 11718 C 1141.19 -0.244214 1.92658 0
M  V30 11719 O 1140.47 -1.17412 1.55063 0
M  V30 11720 C 1140.75 2.03302 2.97221 0
M  V30 11721 C 1140.61 3.55921 2.75028 0
M  V30 11722 C 1141.92 1.87421 3.98198 0
M  V30 11723 H 1139.04 0.43712 0.593376 0
M  V30 11724 H 1141.69 1.60382 1.01871 0
M  V30 11725 H 1139.84 1.68953 3.49839 0
M  V30 11726 H 1141.51 4.00352 2.29164 0
M  V30 11727 H 1139.75 3.79885 2.09452 0
M  V30 11728 H 1140.42 4.09533 3.70117 0
M  V30 11729 H 1142.9 2.17459 3.54755 0
M  V30 11730 H 1141.77 2.48057 4.89652 0
M  V30 11731 H 1142.03 0.834563 4.34151 0
M  V30 11732 N 1141.09 -1.09351 1.1349 0
M  V30 11733 C 1142.04 -2.16008 0.812981 0
M  V30 11734 C 1143.01 -1.64566 -0.225252 0
M  V30 11735 O 1144.2 -1.90552 -0.0973261 0
M  V30 11736 C 1141.34 -3.43913 0.285996 0
M  V30 11737 C 1140.45 -4.09251 1.38338 0
M  V30 11738 C 1139.58 -5.24916 0.814652 0
M  V30 11739 C 1138.62 -5.82178 1.89038 0
M  V30 11740 N 1137.76 -6.89203 1.33955 0
M  V30 11741 H 1142.6 -2.42887 1.72655 0
M  V30 11742 H 1140.14 -1.19209 0.861833 0
M  V30 11743 H 1142.09 -4.17183 -0.0376794 0
M  V30 11744 H 1140.72 -3.17349 -0.590707 0
M  V30 11745 H 1139.78 -3.33838 1.82363 0
M  V30 11746 H 1141.09 -4.4784 2.19638 0
M  V30 11747 H 1140.24 -6.05086 0.442306 0
M  V30 11748 H 1138.98 -4.87691 -0.029416 0
M  V30 11749 H 1137.99 -5.00669 2.27179 0
M  V30 11750 H 1139.21 -6.21464 2.73787 0
M  V30 11751 H 1137.16 -6.53956 0.517494 0
M  V30 11752 H 1137.07 -7.26565 2.08902 0
M  V30 11753 H 1138.34 -7.73126 0.994793 0
M  V30 11754 N 1142.57 -0.928524 -1.27343 0
M  V30 11755 C 1143.82 -0.570235 -1.94618 0
M  V30 11756 C 1144.15 0.886381 -1.72792 0
M  V30 11757 O 1143.43 1.63242 -1.05747 0
M  V30 11758 C 1143.71 -0.897964 -3.48724 0
M  V30 11759 C 1143.56 -2.40839 -3.7989 0
M  V30 11760 C 1144.88 -0.404429 -4.38238 0
M  V30 11761 H 1142 -0.208645 -0.70685 0
M  V30 11762 H 1144.64 -1.16045 -1.50444 0
M  V30 11763 H 1142.79 -0.395679 -3.8648 0
M  V30 11764 H 1144.46 -2.98243 -3.51921 0
M  V30 11765 H 1142.71 -2.85723 -3.26412 0
M  V30 11766 H 1143.38 -2.58823 -4.8756 0
M  V30 11767 H 1145.85 -0.834918 -4.07637 0
M  V30 11768 H 1144.73 -0.662684 -5.44885 0
M  V30 11769 H 1144.99 0.695507 -4.36595 0
M  V30 11770 N 1144.05 1.41491 -0.694123 0
M  V30 11771 C 1145.28 2.0528 -0.233128 0
M  V30 11772 C 1145.69 1.52329 1.12217 0
M  V30 11773 O 1145.03 0.66579 1.7121 0
M  V30 11774 C 1145.09 3.59326 -0.111718 0
M  V30 11775 C 1144.76 4.35065 -1.39882 0
M  V30 11776 C 1145.75 4.64446 -2.33637 0
M  V30 11777 C 1143.44 4.74364 -1.65179 0
M  V30 11778 C 1145.43 5.32083 -3.50951 0
M  V30 11779 C 1143.12 5.41737 -2.82779 0
M  V30 11780 C 1144.12 5.70524 -3.75488 0
M  V30 11781 O 1143.81 6.36511 -4.91029 0
M  V30 11782 H 1143.54 0.667571 -0.106418 0
M  V30 11783 H 1146.09 1.82276 -0.94682 0
M  V30 11784 H 1144.32 3.81065 0.65773 0
M  V30 11785 H 1146.01 4.047 0.311906 0
M  V30 11786 H 1146.78 4.34568 -2.1535 0
M  V30 11787 H 1142.66 4.5134 -0.93881 0
M  V30 11788 H 1146.2 5.54468 -4.23333 0
M  V30 11789 H 1142.1 5.71033 -3.00984 0
M  V30 11790 H 1142.86 6.55006 -4.90825 0
M  V30 11791 N 1145.53 0.438773 1.51369 0
M  V30 11792 C 1146.78 -0.126962 2.01701 0
M  V30 11793 C 1147.1 -1.43086 1.32481 0
M  V30 11794 O 1146.37 -1.90427 0.459823 0
M  V30 11795 H 1144.95 -0.0499092 0.745331 0
M  V30 11796 H 1147.61 0.581808 1.86013 0
M  V30 11797 H 1146.7 -0.301836 3.10637 0
M  V30 11798 N 1147.01 -1.56678 0.170181 0
M  V30 11799 C 1148.42 -1.83452 -0.346742 0
M  V30 11800 C 1148.77 -1.08993 -1.63141 0
M  V30 11801 O 1147.89 -0.342607 -2.13671 0
M  V30 11802 C 1148.49 -3.32779 -0.635882 0
M  V30 11803 C 1147.05 -3.60052 -1.09725 0
M  V30 11804 C 1146.19 -2.76983 -0.132516 0
M  V30 11805 H 1149.14 -1.53719 0.394465 0
M  V30 11806 H 1149.17 -3.50195 -1.48806 0
M  V30 11807 H 1148.68 -3.86944 0.299291 0
M  V30 11808 H 1146.78 -3.11297 -2.04756 0
M  V30 11809 H 1146.89 -4.68393 -1.00719 0
M  V30 11810 H 1145.26 -2.46794 -0.62966 0
M  V30 11811 H 1146.04 -3.33929 0.796658 0
M  V30 11812 N 1148.48 0.103547 -1.57259 0
M  V30 11813 C 1149.73 0.806979 -1.8529 0
M  V30 11814 C 1150.05 1.79679 -0.757653 0
M  V30 11815 O 1149.32 1.94695 0.216913 0
M  V30 11816 H 1147.9 0.301012 -0.683667 0
M  V30 11817 H 1150.56 0.0871886 -1.94705 0
M  V30 11818 H 1149.66 1.34275 -2.81738 0
M  V30 11819 N 1149.96 1.53094 0.37415 0
M  V30 11820 C 1151.21 1.69111 1.11934 0
M  V30 11821 C 1151.54 0.437252 1.89213 0
M  V30 11822 O 1150.82 -0.565298 1.86104 0
M  V30 11823 C 1151.1 2.93559 2.08554 0
M  V30 11824 C 1150.95 4.29082 1.3494 0
M  V30 11825 C 1152.27 3.13586 3.08791 0
M  V30 11826 H 1149.39 0.615383 0.405553 0
M  V30 11827 H 1152.03 1.85719 0.401078 0
M  V30 11828 H 1150.18 2.79531 2.69805 0
M  V30 11829 H 1151.85 4.54906 0.765402 0
M  V30 11830 H 1150.1 4.28884 0.651238 0
M  V30 11831 H 1150.77 5.12275 2.05616 0
M  V30 11832 H 1153.24 3.26743 2.57639 0
M  V30 11833 H 1152.12 4.02112 3.73627 0
M  V30 11834 H 1152.38 2.28475 3.78486 0
M  V30 11835 N 1151.44 -0.633461 1.44309 0
M  V30 11836 C 1152.4 -1.72743 1.50641 0
M  V30 11837 C 1153.4 -1.56031 0.388718 0
M  V30 11838 O 1154.59 -1.61568 0.651251 0
M  V30 11839 C 1151.72 -3.11804 1.37809 0
M  V30 11840 H 1152.92 -1.68503 2.48086 0
M  V30 11841 H 1150.47 -0.846912 1.31366 0
M  V30 11842 H 1151.21 -3.2164 0.414483 0
M  V30 11843 H 1150.99 -3.2534 2.18852 0
M  V30 11844 H 1152.48 -3.91538 1.45216 0
M  V30 11845 N 1152.92 -1.31168 -0.873655 0
M  V30 11846 C 1153.87 -1.18507 -1.98052 0
M  V30 11847 C 1154.84 -0.0717583 -1.65945 0
M  V30 11848 O 1156.02 -0.243965 -1.89234 0
M  V30 11849 C 1153.16 -0.894571 -3.33304 0
M  V30 11850 C 1152.27 -2.09086 -3.7803 0
M  V30 11851 C 1151.41 -1.73747 -5.01982 0
M  V30 11852 C 1150.45 -2.89805 -5.39147 0
M  V30 11853 N 1149.58 -2.54686 -6.54278 0
M  V30 11854 H 1154.42 -2.13193 -2.08213 0
M  V30 11855 H 1151.96 -1.06056 -1.01934 0
M  V30 11856 H 1153.92 -0.706714 -4.11171 0
M  V30 11857 H 1152.55 0.0154449 -3.22796 0
M  V30 11858 H 1151.6 -2.38961 -2.95976 0
M  V30 11859 H 1152.91 -2.95963 -4.01506 0
M  V30 11860 H 1152.07 -1.51402 -5.87505 0
M  V30 11861 H 1150.81 -0.840553 -4.80402 0
M  V30 11862 H 1149.81 -3.12803 -4.52144 0
M  V30 11863 H 1151.04 -3.802 -5.62694 0
M  V30 11864 H 1148.98 -1.67513 -6.34252 0
M  V30 11865 H 1148.9 -3.35093 -6.77679 0
M  V30 11866 H 1150.17 -2.35725 -7.43003 0
M  V30 11867 N 1154.4 1.08748 -1.14068 0
M  V30 11868 C 1155.62 1.84814 -0.930138 0
M  V30 11869 C 1156.04 1.81461 0.521267 0
M  V30 11870 O 1155.4 1.21577 1.36108 0
M  V30 11871 C 1155.45 3.32501 -1.41863 0
M  V30 11872 O 1155.17 3.35846 -2.81317 0
M  V30 11873 C 1156.67 4.25384 -1.24753 0
M  V30 11874 H 1153.89 0.583546 -0.331233 0
M  V30 11875 H 1156.43 1.37366 -1.51495 0
M  V30 11876 H 1154.59 3.7735 -0.876664 0
M  V30 11877 H 1155 4.28013 -3.03159 0
M  V30 11878 H 1156.48 5.27138 -1.63798 0
M  V30 11879 H 1156.95 4.38789 -0.18999 0
M  V30 11880 H 1157.56 3.86357 -1.77787 0
M  V30 11881 N 1155.87 0.935264 1.26849 0
M  V30 11882 C 1157.12 0.578545 1.93642 0
M  V30 11883 C 1157.44 -0.884296 1.73796 0
M  V30 11884 O 1156.71 -1.62768 1.09011 0
M  V30 11885 H 1155.29 0.210976 0.716588 0
M  V30 11886 H 1157.96 1.1893 1.54407 0
M  V30 11887 H 1157.05 0.791268 3.01903 0
M  V30 11888 N 1157.35 -1.41121 0.701616 0
M  V30 11889 C 1158.28 -2.33436 0.0545974 0
M  V30 11890 C 1159.26 -1.52144 -0.760662 0
M  V30 11891 O 1160.45 -1.80661 -0.712414 0
M  V30 11892 C 1157.58 -3.36015 -0.878117 0
M  V30 11893 C 1156.53 -4.27664 -0.169511 0
M  V30 11894 C 1155.86 -5.20666 -1.21699 0
M  V30 11895 C 1157.16 -5.13254 0.967859 0
M  V30 11896 H 1158.85 -2.87791 0.825637 0
M  V30 11897 H 1156.4 -1.38377 0.398484 0
M  V30 11898 H 1158.35 -3.99526 -1.34004 0
M  V30 11899 H 1157.08 -2.80024 -1.68089 0
M  V30 11900 H 1155.73 -3.65586 0.272441 0
M  V30 11901 H 1155.38 -4.60987 -2.01246 0
M  V30 11902 H 1155.08 -5.82822 -0.747836 0
M  V30 11903 H 1156.61 -5.87053 -1.6793 0
M  V30 11904 H 1158.02 -5.70298 0.585944 0
M  V30 11905 H 1156.42 -5.84381 1.3645 0
M  V30 11906 H 1157.49 -4.5006 1.80483 0
M  V30 11907 N 1158.83 -0.446794 -1.51134 0
M  V30 11908 C 1159.78 0.359865 -2.27977 0
M  V30 11909 C 1160.75 1.0086 -1.31972 0
M  V30 11910 O 1161.93 1.02569 -1.60886 0
M  V30 11911 C 1159.07 1.44978 -3.1317 0
M  V30 11912 C 1158.19 0.818243 -4.2418 0
M  V30 11913 C 1157.32 1.884 -4.96668 0
M  V30 11914 C 1156.36 1.2314 -5.99586 0
M  V30 11915 N 1155.5 2.23894 -6.65444 0
M  V30 11916 H 1160.34 -0.301775 -2.96468 0
M  V30 11917 H 1157.87 -0.160666 -1.4622 0
M  V30 11918 H 1159.83 2.09308 -3.60896 0
M  V30 11919 H 1158.46 2.08092 -2.46775 0
M  V30 11920 H 1157.51 0.0629889 -3.80348 0
M  V30 11921 H 1158.83 0.301885 -4.97886 0
M  V30 11922 H 1157.98 2.6037 -5.4799 0
M  V30 11923 H 1156.72 2.43411 -4.22614 0
M  V30 11924 H 1155.72 0.497215 -5.47547 0
M  V30 11925 H 1156.95 0.688505 -6.75601 0
M  V30 11926 H 1154.89 2.77967 -5.94197 0
M  V30 11927 H 1154.81 1.77176 -7.34945 0
M  V30 11928 H 1156.08 2.95318 -7.21393 0
M  V30 11929 N 1160.31 1.56586 -0.178487 0
M  V30 11930 C 1161.27 2.17091 0.73512 0
M  V30 11931 C 1162.27 1.12088 1.15295 0
M  V30 11932 O 1163.46 1.37563 1.06874 0
M  V30 11933 C 1160.59 2.75957 2.00151 0
M  V30 11934 H 1161.79 2.99176 0.208272 0
M  V30 11935 H 1159.34 1.56138 0.0710967 0
M  V30 11936 H 1160.07 1.97626 2.57127 0
M  V30 11937 H 1159.86 3.52809 1.7108 0
M  V30 11938 H 1161.35 3.2247 2.65335 0
M  V30 11939 N 1161.79 -0.095206 1.57312 0
M  V30 11940 C 1162.74 -1.12188 1.98489 0
M  V30 11941 C 1163.72 -1.35778 0.863317 0
M  V30 11942 O 1164.91 -1.36471 1.12715 0
M  V30 11943 C 1162.04 -2.44214 2.41277 0
M  V30 11944 C 1161.13 -2.23998 3.60119 0
M  V30 11945 N 1161.52 -1.7365 4.75057 0
M  V30 11946 C 1159.82 -2.54565 3.66214 0
M  V30 11947 C 1160.52 -1.67702 5.57002 0
M  V30 11948 N 1159.49 -2.12912 5.00169 0
M  V30 11949 H 1163.3 -0.725545 2.84804 0
M  V30 11950 H 1160.81 -0.302634 1.59555 0
M  V30 11951 H 1162.81 -3.185 2.69004 0
M  V30 11952 H 1161.47 -2.84585 1.56339 0
M  V30 11953 H 1162.48 -1.42849 4.9781 0
M  V30 11954 H 1159.15 -2.98461 2.91937 0
M  V30 11955 H 1160.54 -1.29827 6.59238 0
M  V30 11956 N 1163.26 -1.53291 -0.366026 0
M  V30 11957 C 1164.17 -1.82656 -1.47221 0
M  V30 11958 C 1165.19 -0.71491 -1.58635 0
M  V30 11959 O 1166.37 -1.00492 -1.74538 0
M  V30 11960 C 1163.43 -2.00995 -2.82492 0
M  V30 11961 C 1162.49 -3.24895 -2.8061 0
M  V30 11962 C 1161.73 -3.4235 -4.09429 0
M  V30 11963 O 1161.95 -2.6411 -5.05571 0
M  V30 11964 O 1160.88 -4.35702 -4.15268 0
M  V30 11965 H 1164.71 -2.76634 -1.2533 0
M  V30 11966 H 1162.29 -1.38665 -0.556084 0
M  V30 11967 H 1164.18 -2.14632 -3.62645 0
M  V30 11968 H 1162.85 -1.10207 -3.04362 0
M  V30 11969 H 1161.76 -3.16682 -1.99157 0
M  V30 11970 H 1163.09 -4.15604 -2.63694 0
M  V30 11971 N 1164.74 0.6258 -1.44643 0
M  V30 11972 C 1166.15 1.20751 -1.42394 0
M  V30 11973 C 1166.5 1.95685 -0.142047 0
M  V30 11974 O 1165.63 2.02715 0.757332 0
M  V30 11975 C 1166.22 2.1964 -2.57961 0
M  V30 11976 C 1164.78 2.73227 -2.5889 0
M  V30 11977 C 1163.93 1.48315 -2.34303 0
M  V30 11978 H 1166.88 0.416162 -1.53146 0
M  V30 11979 H 1166.9 3.02342 -2.31019 0
M  V30 11980 H 1166.41 1.65073 -3.51244 0
M  V30 11981 H 1164.52 3.31782 -1.69563 0
M  V30 11982 H 1164.63 3.18902 -3.57545 0
M  V30 11983 H 1162.99 1.76634 -1.83501 0
M  V30 11984 H 1163.78 0.956427 -3.29708 0
M  V30 11985 N 1166.22 1.31629 0.866686 0
M  V30 11986 C 1167.45 1.24474 1.65269 0
M  V30 11987 C 1167.86 -0.18939 1.87848 0
M  V30 11988 O 1167.22 -1.12251 1.43895 0
M  V30 11989 C 1167.27 1.98872 3.01881 0
M  V30 11990 O 1166.99 3.36687 2.8031 0
M  V30 11991 C 1168.49 1.98595 3.96327 0
M  V30 11992 H 1165.71 0.429966 0.515141 0
M  V30 11993 H 1168.26 1.73559 1.08156 0
M  V30 11994 H 1166.41 1.53539 3.55675 0
M  V30 11995 H 1166.83 3.74612 3.67105 0
M  V30 11996 H 1168.3 2.55156 4.89489 0
M  V30 11997 H 1168.78 0.969257 4.28371 0
M  V30 11998 H 1169.38 2.43821 3.4847 0
M  V30 11999 N 1167.7 -1.08142 1.14644 0
M  V30 12000 C 1168.93 -1.8405 0.938563 0
M  V30 12001 C 1169.34 -1.82017 -0.516361 0
M  V30 12002 O 1168.68 -1.22418 -1.36966 0
M  V30 12003 C 1168.74 -3.32563 1.36536 0
M  V30 12004 C 1168.41 -3.58327 2.83638 0
M  V30 12005 C 1169.4 -3.52944 3.81741 0
M  V30 12006 C 1167.09 -3.86251 3.21115 0
M  V30 12007 C 1169.08 -3.7512 5.15329 0
M  V30 12008 C 1166.77 -4.0808 4.54878 0
M  V30 12009 C 1167.77 -4.02508 5.51794 0
M  V30 12010 O 1167.46 -4.23761 6.83141 0
M  V30 12011 H 1167.19 -0.587793 0.33388 0
M  V30 12012 H 1169.74 -1.37467 1.52617 0
M  V30 12013 H 1167.97 -3.79917 0.721106 0
M  V30 12014 H 1169.66 -3.89915 1.12787 0
M  V30 12015 H 1170.43 -3.31382 3.54134 0
M  V30 12016 H 1166.31 -3.89707 2.46272 0
M  V30 12017 H 1169.85 -3.70686 5.90963 0
M  V30 12018 H 1165.75 -4.29126 4.82204 0
M  V30 12019 H 1166.51 -4.41152 6.8944 0
M  V30 12020 N 1169.18 -0.941978 -1.26351 0
M  V30 12021 C 1170.42 -0.589971 -1.93715 0
M  V30 12022 C 1170.75 0.871085 -1.73903 0
M  V30 12023 O 1170.01 1.63864 -1.06991 0
M  V30 12024 C 1170.31 -0.879481 -3.4641 0
M  V30 12025 C 1169.97 -2.32454 -3.86362 0
M  V30 12026 C 1168.63 -2.71957 -3.9698 0
M  V30 12027 C 1170.99 -3.2636 -4.06373 0
M  V30 12028 C 1168.31 -4.04459 -4.25006 0
M  V30 12029 C 1170.67 -4.58459 -4.35887 0
M  V30 12030 C 1169.33 -4.97775 -4.4472 0
M  V30 12031 H 1168.6 -0.215886 -0.708854 0
M  V30 12032 H 1171.25 -1.18863 -1.50146 0
M  V30 12033 H 1169.55 -0.198289 -3.91298 0
M  V30 12034 H 1171.25 -0.585887 -3.96697 0
M  V30 12035 H 1167.84 -2.00814 -3.78645 0
M  V30 12036 H 1172.02 -2.97037 -3.97596 0
M  V30 12037 H 1167.28 -4.34582 -4.30057 0
M  V30 12038 H 1171.45 -5.31213 -4.50317 0
M  V30 12039 H 1169.08 -6.00475 -4.66191 0
M  V30 12040 N 1170.66 1.40747 -0.709091 0
M  V30 12041 C 1171.88 2.05319 -0.255258 0
M  V30 12042 C 1172.3 1.53406 1.10054 0
M  V30 12043 O 1171.66 0.687905 1.69039 0
M  V30 12044 C 1171.71 3.60835 -0.219251 0
M  V30 12045 O 1171.43 4.1083 -1.52151 0
M  V30 12046 C 1172.93 4.42572 0.253927 0
M  V30 12047 H 1170.15 0.660904 -0.115959 0
M  V30 12048 H 1172.69 1.80274 -0.965474 0
M  V30 12049 H 1170.85 3.84872 0.441882 0
M  V30 12050 H 1171.26 5.04979 -1.41764 0
M  V30 12051 H 1172.74 5.51529 0.22798 0
M  V30 12052 H 1173.21 4.19673 1.29504 0
M  V30 12053 H 1173.82 4.23629 -0.376694 0
M  V30 12054 N 1172.13 0.454803 1.50895 0
M  V30 12055 C 1173.38 -0.105927 2.02523 0
M  V30 12056 C 1173.71 -1.40825 1.33724 0
M  V30 12057 O 1172.99 -1.89038 0.457683 0
M  V30 12058 C 1173.27 -0.306635 3.58792 0
M  V30 12059 C 1173.12 1.01556 4.38185 0
M  V30 12060 C 1174.44 -1.06858 4.2693 0
M  V30 12061 H 1171.56 -0.0370232 0.736069 0
M  V30 12062 H 1174.2 0.597215 1.8037 0
M  V30 12063 H 1172.35 -0.905563 3.77799 0
M  V30 12064 H 1174.03 1.64981 4.30789 0
M  V30 12065 H 1172.27 1.61608 4.02574 0
M  V30 12066 H 1172.94 0.828959 5.4574 0
M  V30 12067 H 1175.42 -0.561086 4.123 0
M  V30 12068 H 1174.29 -1.1778 5.36115 0
M  V30 12069 H 1174.55 -2.10111 3.8898 0
M  V30 12070 N 1173.61 -1.56489 0.186789 0
M  V30 12071 C 1174.89 -1.89066 -0.501337 0
M  V30 12072 C 1175.27 -1.09906 -1.80233 0
M  V30 12073 O 1174.62 -0.197626 -2.27644 0
M  V30 12074 C 1174.83 -3.41318 -0.728207 0
M  V30 12075 C 1176.17 -4.11379 -1.0513 0
M  V30 12076 O 1177.2 -3.46722 -0.816216 0
M  V30 12077 O 1176.06 -5.25638 -1.49557 0
M  V30 12078 H 1173.15 -0.784966 -0.260303 0
M  V30 12079 H 1175.7 -1.68183 0.226382 0
M  V30 12080 H 1174.47 -3.90834 0.19088 0
M  V30 12081 H 1174.09 -3.67865 -1.50869 0
M  V30 12082 N 1175.09 0.086862 -1.5736 0
M  V30 12083 C 1176.33 0.794358 -1.88333 0
M  V30 12084 C 1176.69 1.75496 -0.778783 0
M  V30 12085 O 1177.89 2.50643 -0.971152 0
M  V30 12086 C 1176.17 1.49686 -3.24544 0
M  V30 12087 S 1177.72 2.2415 -3.7723 0
M  V30 12088 H 1174.54 0.264479 -0.659979 0
M  V30 12089 H 1177.14 0.0511046 -1.95433 0
M  V30 12090 H 1175.85 0.783713 -4.02847 0
M  V30 12091 H 1175.38 2.27984 -3.20604 0
M  V30 12092 H 1177.39 3.50426 -3.51306 0
M  V30 12093 N 1176.57 1.53483 0.357892 0
M  V30 12094 C 1177.53 1.79782 1.42166 0
M  V30 12095 C 1178.53 0.668441 1.46248 0
M  V30 12096 O 1179.72 0.936677 1.46874 0
M  V30 12097 C 1176.85 1.92686 2.8122 0
M  V30 12098 H 1178.05 2.74794 1.20117 0
M  V30 12099 H 1175.6 1.44677 0.591468 0
M  V30 12100 H 1176.33 0.997669 3.08573 0
M  V30 12101 H 1176.12 2.74837 2.79655 0
M  V30 12102 H 1177.61 2.14599 3.58242 0
M  V30 12103 N 1178.05 -0.61812 1.44973 0
M  V30 12104 C 1178.96 -1.7579 1.55355 0
M  V30 12105 C 1179.97 -1.68384 0.438512 0
M  V30 12106 O 1181.15 -1.88928 0.697715 0
M  V30 12107 C 1178.21 -3.1222 1.50729 0
M  V30 12108 C 1177.27 -3.3116 2.73188 0
M  V30 12109 C 1176.51 -4.61082 2.68774 0
M  V30 12110 O 1176.73 -5.42728 1.75507 0
M  V30 12111 O 1175.66 -4.82506 3.59821 0
M  V30 12112 H 1179.49 -1.69983 2.51674 0
M  V30 12113 H 1177.07 -0.780934 1.27365 0
M  V30 12114 H 1178.96 -3.93524 1.5072 0
M  V30 12115 H 1177.63 -3.18541 0.575587 0
M  V30 12116 H 1176.54 -2.49485 2.78762 0
M  V30 12117 H 1177.87 -3.29709 3.65449 0
M  V30 12118 N 1179.52 -1.32087 -0.859693 0
M  V30 12119 C 1180.49 -1.20546 -1.94939 0
M  V30 12120 C 1181.49 -0.12982 -1.60275 0
M  V30 12121 O 1182.68 -0.379853 -1.70008 0
M  V30 12122 C 1179.81 -0.852717 -3.30063 0
M  V30 12123 H 1181 -2.17384 -2.06602 0
M  V30 12124 H 1178.55 -1.15846 -1.04926 0
M  V30 12125 H 1179.29 0.114059 -3.24099 0
M  V30 12126 H 1179.07 -1.63035 -3.56598 0
M  V30 12127 H 1180.56 -0.796145 -4.09941 0
M  V30 12128 N 1181 1.07532 -1.15215 0
M  V30 12129 C 1182.25 1.79737 -0.924062 0
M  V30 12130 C 1182.57 1.87072 0.550356 0
M  V30 12131 O 1181.84 1.37029 1.4 0
M  V30 12132 H 1180.42 0.665704 -0.338891 0
M  V30 12133 H 1183.08 1.29961 -1.45245 0
M  V30 12134 H 1182.18 2.82256 -1.33184 0
M  V30 12135 N 1182.48 0.948665 1.2585 0
M  V30 12136 C 1183.41 0.421458 2.25292 0
M  V30 12137 C 1184.43 -0.459389 1.56184 0
M  V30 12138 O 1185.61 -0.268627 1.76467 0
M  V30 12139 C 1182.71 -0.412653 3.36378 0
M  V30 12140 C 1181.89 0.453792 4.3504 0
M  V30 12141 C 1180.95 -0.321127 5.25219 0
M  V30 12142 O 1179.97 0.278424 5.68519 0
M  V30 12143 N 1181.17 -1.61576 5.5756 0
M  V30 12144 H 1183.94 1.27636 2.71162 0
M  V30 12145 H 1181.5 0.818367 1.39694 0
M  V30 12146 H 1183.49 -0.938637 3.93664 0
M  V30 12147 H 1182.06 -1.16839 2.89944 0
M  V30 12148 H 1181.28 1.16093 3.76718 0
M  V30 12149 H 1182.57 1.04538 4.97945 0
M  V30 12150 H 1181.97 -2.12488 5.24276 0
M  V30 12151 H 1180.53 -2.08783 6.17457 0
M  V30 12152 N 1183.96 -1.40369 0.716545 0
M  V30 12153 C 1185.21 -2.00473 0.255959 0
M  V30 12154 C 1185.53 -1.57104 -1.15514 0
M  V30 12155 O 1184.8 -0.810925 -1.78328 0
M  V30 12156 H 1183.38 -0.741357 0.0916427 0
M  V30 12157 H 1186.04 -1.71692 0.922389 0
M  V30 12158 H 1185.14 -3.10752 0.289806 0
M  V30 12159 N 1185.44 -0.462799 -1.50652 0
M  V30 12160 C 1186.71 0.156221 -1.94975 0
M  V30 12161 C 1187.09 1.5775 -1.40279 0
M  V30 12162 O 1186.44 2.20473 -0.600323 0
M  V30 12163 C 1186.65 0.108008 -3.48833 0
M  V30 12164 C 1188 0.301013 -4.23532 0
M  V30 12165 O 1189.02 0.184973 -3.55719 0
M  V30 12166 O 1187.88 0.534457 -5.4388 0
M  V30 12167 H 1184.98 0.116182 -0.818798 0
M  V30 12168 H 1187.52 -0.522607 -1.61453 0
M  V30 12169 H 1186.29 -0.884634 -3.81169 0
M  V30 12170 H 1185.92 0.828653 -3.88869 0
M  V30 12171 N 1186.91 1.56388 -0.195085 0
M  V30 12172 C 1188.16 1.97872 0.444344 0
M  V30 12173 C 1188.49 1.0819 1.61271 0
M  V30 12174 O 1187.77 0.133904 1.94039 0
M  V30 12175 C 1188.05 3.48556 0.90449 0
M  V30 12176 C 1187.9 4.49015 -0.265693 0
M  V30 12177 C 1189.22 4.02938 1.76999 0
M  V30 12178 H 1186.34 0.719413 0.160041 0
M  V30 12179 H 1188.98 1.87835 -0.286005 0
M  V30 12180 H 1187.13 3.5724 1.52682 0
M  V30 12181 H 1188.81 4.52368 -0.903363 0
M  V30 12182 H 1187.05 4.23987 -0.917462 0
M  V30 12183 H 1187.72 5.51912 0.0987834 0
M  V30 12184 H 1190.2 3.97033 1.24514 0
M  V30 12185 H 1189.07 5.08741 2.06092 0
M  V30 12186 H 1189.33 3.48197 2.72418 0
M  V30 12187 N 1188.39 -0.0785156 1.57404 0
M  V30 12188 C 1189.62 -0.795871 1.91522 0
M  V30 12189 C 1190.04 -1.70665 0.790892 0
M  V30 12190 O 1189.4 -1.79474 -0.25666 0
M  V30 12191 C 1189.45 -1.57121 3.24569 0
M  V30 12192 O 1188.55 -2.6814 3.13328 0
M  V30 12193 H 1187.89 -0.217575 0.627341 0
M  V30 12194 H 1190.42 -0.0487724 2.04542 0
M  V30 12195 H 1190.43 -1.9519 3.5828 0
M  V30 12196 H 1189.11 -0.902909 4.05981 0
M  V30 12197 H 1187.69 -2.32978 2.91163 0
M  V30 12198 N 1189.87 -1.5367 -0.349747 0
M  V30 12199 C 1191.12 -1.69835 -1.08807 0
M  V30 12200 C 1191.43 -0.46497 -1.89993 0
M  V30 12201 O 1192.64 -0.507452 -2.66716 0
M  V30 12202 C 1191.09 -3.00294 -1.98372 0
M  V30 12203 C 1190.7 -4.30949 -1.22422 0
M  V30 12204 C 1192.45 -3.25826 -2.72099 0
M  V30 12205 C 1190.35 -5.52486 -2.1098 0
M  V30 12206 H 1189.28 -0.63284 -0.409915 0
M  V30 12207 H 1191.93 -1.80171 -0.347968 0
M  V30 12208 H 1190.32 -2.838 -2.76176 0
M  V30 12209 H 1191.49 -4.58126 -0.495707 0
M  V30 12210 H 1189.81 -4.11983 -0.604896 0
M  V30 12211 H 1192.4 -4.13817 -3.38615 0
M  V30 12212 H 1192.75 -2.42566 -3.3833 0
M  V30 12213 H 1193.28 -3.43067 -2.0137 0
M  V30 12214 H 1190.02 -6.38271 -1.49301 0
M  V30 12215 H 1189.54 -5.29566 -2.81638 0
M  V30 12216 H 1191.22 -5.87889 -2.70176 0
M  V30 12217 N 1191.35 0.610423 -1.45298 0
M  V30 12218 C 1192.6 1.3668 -1.48872 0
M  V30 12219 C 1192.92 1.94562 -0.130686 0
M  V30 12220 O 1192.19 1.76996 0.839607 0
M  V30 12221 H 1190.77 0.507393 -0.548235 0
M  V30 12222 H 1193.43 0.716997 -1.81232 0
M  V30 12223 H 1192.53 2.18766 -2.22593 0
M  V30 12224 N 1192.83 1.32541 0.852676 0
M  V30 12225 C 1194.08 1.22567 1.60188 0
M  V30 12226 C 1194.39 -0.210594 1.94463 0
M  V30 12227 O 1195.59 -0.432214 2.68038 0
M  V30 12228 C 1194.05 2.14678 2.88862 0
M  V30 12229 C 1193.66 3.63398 2.62004 0
M  V30 12230 C 1195.4 2.13545 3.66877 0
M  V30 12231 C 1193.31 4.47464 3.86691 0
M  V30 12232 H 1192.24 0.455184 0.601102 0
M  V30 12233 H 1194.89 1.57515 0.941347 0
M  V30 12234 H 1193.27 1.72647 3.56383 0
M  V30 12235 H 1194.45 4.13783 2.02782 0
M  V30 12236 H 1192.76 3.66681 1.97316 0
M  V30 12237 H 1195.36 2.73589 4.59405 0
M  V30 12238 H 1195.7 1.12694 4.00756 0
M  V30 12239 H 1196.23 2.53866 3.06263 0
M  V30 12240 H 1192.97 5.49136 3.57952 0
M  V30 12241 H 1192.49 4.01829 4.45302 0
M  V30 12242 H 1194.17 4.60565 4.5441 0
M  V30 12243 N 1194.3 -1.0692 1.15784 0
M  V30 12244 C 1195.25 -2.14235 0.858616 0
M  V30 12245 C 1196.22 -1.65006 -0.190295 0
M  V30 12246 O 1197.41 -1.90715 -0.0568853 0
M  V30 12247 C 1194.55 -3.43229 0.35888 0
M  V30 12248 C 1193.66 -4.06225 1.46987 0
M  V30 12249 C 1192.79 -5.2307 0.925812 0
M  V30 12250 C 1191.83 -5.78037 2.01345 0
M  V30 12251 N 1190.97 -6.86206 1.48544 0
M  V30 12252 H 1195.81 -2.3917 1.77769 0
M  V30 12253 H 1193.35 -1.17354 0.886925 0
M  V30 12254 H 1195.31 -4.17169 0.0508198 0
M  V30 12255 H 1193.94 -3.18531 -0.523259 0
M  V30 12256 H 1192.99 -3.29895 1.89403 0
M  V30 12257 H 1194.3 -4.43081 2.29088 0
M  V30 12258 H 1193.45 -6.04011 0.570555 0
M  V30 12259 H 1192.19 -4.87644 0.0740371 0
M  V30 12260 H 1191.2 -4.95738 2.37748 0
M  V30 12261 H 1192.42 -6.15517 2.86907 0
M  V30 12262 H 1190.37 -6.52711 0.656092 0
M  V30 12263 H 1190.29 -7.2197 2.24266 0
M  V30 12264 H 1191.55 -7.70842 1.15856 0
M  V30 12265 N 1195.78 -0.955326 -1.25345 0
M  V30 12266 C 1197.02 -0.618161 -1.94828 0
M  V30 12267 C 1197.39 0.829532 -1.73155 0
M  V30 12268 O 1198.59 1.27632 -2.36566 0
M  V30 12269 C 1196.86 -0.967887 -3.44045 0
M  V30 12270 S 1198.42 -0.743401 -4.32457 0
M  V30 12271 H 1195.24 -0.227189 -0.673726 0
M  V30 12272 H 1197.84 -1.22965 -1.51986 0
M  V30 12273 H 1196.54 -2.01864 -3.57322 0
M  V30 12274 H 1196.07 -0.346677 -3.9187 0
M  V30 12275 H 1198.09 0.385467 -4.94701 0
M  V30 12276 N 1197.26 1.39987 -0.723979 0
M  V30 12277 C 1198.22 2.29041 -0.0854583 0
M  V30 12278 C 1199.22 1.45777 0.678657 0
M  V30 12279 O 1200.41 1.66588 0.509311 0
M  V30 12280 C 1197.55 3.29115 0.88859 0
M  V30 12281 H 1198.74 2.87006 -0.869903 0
M  V30 12282 H 1196.29 1.48449 -0.489136 0
M  V30 12283 H 1197.03 2.76184 1.69979 0
M  V30 12284 H 1196.81 3.90593 0.343454 0
M  V30 12285 H 1198.3 3.95778 1.33227 0
M  V30 12286 N 1198.74 0.470782 1.50404 0
M  V30 12287 C 1200.15 0.0155901 1.86693 0
M  V30 12288 C 1200.5 -1.38908 1.38561 0
M  V30 12289 O 1199.63 -2.02971 0.750454 0
M  V30 12290 C 1200.22 0.0215152 3.38793 0
M  V30 12291 C 1198.78 -0.378206 3.74495 0
M  V30 12292 C 1197.93 0.407126 2.74295 0
M  V30 12293 H 1200.88 0.68507 1.43152 0
M  V30 12294 H 1200.9 -0.780717 3.72404 0
M  V30 12295 H 1200.41 1.04397 3.73795 0
M  V30 12296 H 1198.51 -1.40503 3.45094 0
M  V30 12297 H 1198.63 -0.0797643 4.79034 0
M  V30 12298 H 1196.99 -0.139123 2.5432 0
M  V30 12299 H 1197.77 1.42909 3.12141 0
M  V30 12300 N 1200.22 -1.56282 0.203376 0
M  V30 12301 C 1201.47 -1.97421 -0.432346 0
M  V30 12302 C 1201.79 -1.0917 -1.61576 0
M  V30 12303 O 1201.06 -0.164759 -1.95206 0
M  V30 12304 H 1199.64 -0.729062 -0.162721 0
M  V30 12305 H 1202.3 -1.927 0.292039 0
M  V30 12306 H 1201.39 -3.02429 -0.770918 0
M  V30 12307 N 1201.7 0.070167 -1.57444 0
M  V30 12308 C 1202.94 0.770153 -1.87607 0
M  V30 12309 C 1203.27 1.77143 -0.795875 0
M  V30 12310 O 1202.55 1.93533 0.193674 0
M  V30 12311 C 1202.83 1.47668 -3.2843 0
M  V30 12312 C 1202.69 0.491712 -4.47104 0
M  V30 12313 C 1204 2.42118 -3.67514 0
M  V30 12314 H 1201.12 0.278519 -0.682346 0
M  V30 12315 H 1203.77 0.0333184 -1.89971 0
M  V30 12316 H 1201.92 2.10476 -3.26546 0
M  V30 12317 H 1203.59 -0.131283 -4.61113 0
M  V30 12318 H 1201.83 -0.192817 -4.33371 0
M  V30 12319 H 1202.5 1.02372 -5.42424 0
M  V30 12320 H 1204.98 1.89387 -3.70502 0
M  V30 12321 H 1203.85 2.88556 -4.66933 0
M  V30 12322 H 1204.11 3.26995 -2.97534 0
M  V30 12323 N 1203.17 1.53854 0.341593 0
M  V30 12324 C 1204.42 1.71447 1.08322 0
M  V30 12325 C 1204.75 0.477289 1.88243 0
M  V30 12326 O 1204.03 -0.525695 1.87261 0
M  V30 12327 C 1204.31 2.97917 2.02281 0
M  V30 12328 C 1204.16 4.31847 1.25809 0
M  V30 12329 C 1205.48 3.20065 3.0207 0
M  V30 12330 H 1202.6 0.623847 0.392408 0
M  V30 12331 H 1205.24 1.86527 0.361594 0
M  V30 12332 H 1203.39 2.85191 2.63815 0
M  V30 12333 H 1205.07 4.56427 0.668737 0
M  V30 12334 H 1203.31 4.30169 0.560119 0
M  V30 12335 H 1203.98 5.16522 1.94704 0
M  V30 12336 H 1206.46 3.32135 2.50651 0
M  V30 12337 H 1205.33 4.09947 3.65013 0
M  V30 12338 H 1205.59 2.36452 3.73554 0
M  V30 12339 N 1204.65 -0.602709 1.4562 0
M  V30 12340 C 1205.9 -1.35889 1.49595 0
M  V30 12341 C 1206.22 -1.9449 0.141002 0
M  V30 12342 O 1205.49 -1.77438 -0.830209 0
M  V30 12343 H 1204.07 -0.504478 0.550918 0
M  V30 12344 H 1206.73 -0.707376 1.8161 0
M  V30 12345 H 1205.83 -2.17583 2.2375 0
M  V30 12346 N 1206.13 -1.32992 -0.845635 0
M  V30 12347 C 1207.54 -1.21616 -1.41656 0
M  V30 12348 C 1207.89 0.167687 -1.95482 0
M  V30 12349 O 1207.02 1.06692 -1.8827 0
M  V30 12350 C 1207.61 -2.2018 -2.575 0
M  V30 12351 C 1206.17 -2.12664 -3.10565 0
M  V30 12352 C 1205.32 -2.08042 -1.83341 0
M  V30 12353 H 1208.27 -1.44688 -0.651993 0
M  V30 12354 H 1208.29 -1.80558 -3.34931 0
M  V30 12355 H 1207.8 -3.20888 -2.18294 0
M  V30 12356 H 1205.9 -1.15235 -3.54333 0
M  V30 12357 H 1206.02 -3.02902 -3.71197 0
M  V30 12358 H 1204.38 -1.53416 -2.03312 0
M  V30 12359 H 1205.16 -3.10547 -1.46339 0
M  V30 12360 N 1207.61 1.06304 -1.1635 0
M  V30 12361 C 1208.57 2.11947 -0.872419 0
M  V30 12362 C 1209.57 1.60253 0.132534 0
M  V30 12363 O 1210.76 1.73922 -0.0983441 0
M  V30 12364 C 1207.89 3.39536 -0.304646 0
M  V30 12365 H 1209.09 2.39201 -1.80894 0
M  V30 12366 H 1206.64 1.22367 -0.972419 0
M  V30 12367 H 1207.37 3.17931 0.639565 0
M  V30 12368 H 1207.16 3.78363 -1.02878 0
M  V30 12369 H 1208.65 4.17431 -0.118936 0
M  V30 12370 N 1209.09 0.96196 1.24836 0
M  V30 12371 C 1210 0.494876 2.29321 0
M  V30 12372 C 1211.01 -0.441363 1.68309 0
M  V30 12373 O 1212.19 -0.315814 1.98908 0
M  V30 12374 C 1209.25 -0.212944 3.46045 0
M  V30 12375 C 1208.31 0.762411 4.22476 0
M  V30 12376 C 1207.55 0.0882756 5.33627 0
M  V30 12377 O 1207.77 -1.12459 5.59204 0
M  V30 12378 O 1206.7 0.777529 5.96857 0
M  V30 12379 H 1210.53 1.36333 2.7138 0
M  V30 12380 H 1208.11 0.728738 1.30421 0
M  V30 12381 H 1210 -0.610805 4.1695 0
M  V30 12382 H 1208.67 -1.05645 3.05975 0
M  V30 12383 H 1207.58 1.21062 3.5397 0
M  V30 12384 H 1208.91 1.57416 4.66349 0
M  V30 12385 N 1210.56 -1.39601 0.731392 0
M  V30 12386 C 1211.53 -2.28992 0.0976037 0
M  V30 12387 C 1212.53 -1.46135 -0.670917 0
M  V30 12388 O 1213.72 -1.66856 -0.50047 0
M  V30 12389 C 1210.85 -3.29582 -0.871124 0
M  V30 12390 H 1212.04 -2.86541 0.885112 0
M  V30 12391 H 1209.59 -1.48188 0.497002 0
M  V30 12392 H 1210.33 -2.77082 -1.68512 0
M  V30 12393 H 1210.11 -3.9077 -0.322735 0
M  V30 12394 H 1211.6 -3.96479 -1.31126 0
M  V30 12395 N 1212.04 -0.478751 -1.50152 0
M  V30 12396 C 1213.32 0.135533 -1.9513 0
M  V30 12397 C 1213.7 1.56253 -1.41944 0
M  V30 12398 O 1213.05 2.19824 -0.623673 0
M  V30 12399 C 1213.26 0.0710037 -3.48928 0
M  V30 12400 C 1214.61 0.256075 -4.23827 0
M  V30 12401 O 1215.63 0.147234 -3.55896 0
M  V30 12402 O 1214.49 0.476741 -5.44417 0
M  V30 12403 H 1211.58 0.107491 -0.819985 0
M  V30 12404 H 1214.13 -0.539701 -1.60889 0
M  V30 12405 H 1212.9 -0.925012 -3.80209 0
M  V30 12406 H 1212.52 0.787362 -3.89726 0
M  V30 12407 N 1213.52 1.56172 -0.211661 0
M  V30 12408 C 1214.77 1.97214 0.423008 0
M  V30 12409 C 1215.08 1.10203 1.616 0
M  V30 12410 O 1216.29 1.411 2.31955 0
M  V30 12411 C 1214.74 3.50805 0.803977 0
M  V30 12412 C 1214.35 4.46505 -0.365654 0
M  V30 12413 C 1216.1 4.00582 1.4048 0
M  V30 12414 C 1214 5.91388 0.0371986 0
M  V30 12415 H 1212.93 0.736432 0.161814 0
M  V30 12416 H 1215.58 1.80925 -0.306307 0
M  V30 12417 H 1213.97 3.62659 1.59043 0
M  V30 12418 H 1215.14 4.46394 -1.14321 0
M  V30 12419 H 1213.46 4.07015 -0.879061 0
M  V30 12420 H 1216.05 5.06317 1.71894 0
M  V30 12421 H 1216.4 3.45853 2.31713 0
M  V30 12422 H 1216.93 3.9191 0.681984 0
M  V30 12423 H 1213.67 6.50078 -0.841367 0
M  V30 12424 H 1213.19 5.94716 0.77927 0
M  V30 12425 H 1214.87 6.4531 0.467309 0
M  V30 12426 N 1215 -0.0618163 1.57479 0
M  V30 12427 C 1216.28 -0.792636 1.7882 0
M  V30 12428 C 1216.66 -1.95283 0.801724 0
M  V30 12429 O 1216 -2.27917 -0.163095 0
M  V30 12430 C 1216.21 -1.25629 3.25605 0
M  V30 12431 C 1217.56 -1.68561 3.89708 0
M  V30 12432 O 1218.59 -1.35171 3.29556 0
M  V30 12433 O 1217.44 -2.30417 4.95551 0
M  V30 12434 H 1214.54 -0.380595 0.734218 0
M  V30 12435 H 1217.08 -0.0411205 1.6965 0
M  V30 12436 H 1215.86 -0.426582 3.88968 0
M  V30 12437 H 1215.48 -2.06882 3.39537 0
M  V30 12438 N 1216.48 -1.54033 -0.333429 0
M  V30 12439 C 1217.72 -1.71765 -1.07252 0
M  V30 12440 C 1218.05 -0.486135 -1.88327 0
M  V30 12441 O 1217.31 0.532135 -1.88326 0
M  V30 12442 C 1217.61 -2.93926 -2.03328 0
M  V30 12443 C 1217.27 -4.29107 -1.38486 0
M  V30 12444 C 1215.93 -4.6586 -1.20532 0
M  V30 12445 C 1218.29 -5.13041 -0.918624 0
M  V30 12446 C 1215.61 -5.84155 -0.545881 0
M  V30 12447 C 1217.97 -6.3201 -0.273055 0
M  V30 12448 C 1216.63 -6.67451 -0.0812815 0
M  V30 12449 H 1215.9 -0.628532 -0.392464 0
M  V30 12450 H 1218.55 -1.88261 -0.350709 0
M  V30 12451 H 1216.85 -2.72075 -2.81926 0
M  V30 12452 H 1218.55 -3.0484 -2.60526 0
M  V30 12453 H 1215.14 -4.00185 -1.5346 0
M  V30 12454 H 1219.32 -4.8517 -1.04515 0
M  V30 12455 H 1214.58 -6.1018 -0.386009 0
M  V30 12456 H 1218.75 -6.96333 0.0962582 0
M  V30 12457 H 1216.38 -7.58973 0.431734 0
M  V30 12458 N 1217.95 0.594978 -1.45938 0
M  V30 12459 C 1219.23 1.35477 -1.41086 0
M  V30 12460 C 1219.61 2.10917 -0.0879512 0
M  V30 12461 O 1218.96 2.08704 0.930323 0
M  V30 12462 C 1219.17 2.29106 -2.63271 0
M  V30 12463 C 1220.52 2.9132 -3.08898 0
M  V30 12464 O 1221.54 2.39423 -2.63733 0
M  V30 12465 O 1220.4 3.85553 -3.87313 0
M  V30 12466 H 1217.49 0.6081 -0.560485 0
M  V30 12467 H 1220.04 0.617016 -1.58085 0
M  V30 12468 H 1218.81 1.72707 -3.51124 0
M  V30 12469 H 1218.44 3.10241 -2.48669 0
M  V30 12470 N 1219.43 1.33438 0.838571 0
M  V30 12471 C 1220.68 1.24259 1.58879 0
M  V30 12472 C 1220.99 -0.189957 1.94675 0
M  V30 12473 O 1222.2 -0.40376 2.68481 0
M  V30 12474 C 1220.66 2.1773 2.86569 0
M  V30 12475 C 1220.26 3.66156 2.58135 0
M  V30 12476 C 1222.01 2.17424 3.64591 0
M  V30 12477 C 1219.92 4.5154 3.81923 0
M  V30 12478 H 1218.85 0.461534 0.59624 0
M  V30 12479 H 1221.5 1.58504 0.924588 0
M  V30 12480 H 1219.88 1.76418 3.54532 0
M  V30 12481 H 1221.05 4.1591 1.98382 0
M  V30 12482 H 1219.37 3.68754 1.93416 0
M  V30 12483 H 1221.96 2.78446 4.56478 0
M  V30 12484 H 1222.31 1.16939 3.99539 0
M  V30 12485 H 1222.84 2.571 3.03553 0
M  V30 12486 H 1219.58 5.52902 3.52107 0
M  V30 12487 H 1219.1 4.06529 4.41015 0
M  V30 12488 H 1220.78 4.65359 4.495 0
M  V30 12489 N 1220.91 -1.05686 1.16912 0
M  V30 12490 C 1222.16 -1.77987 0.948875 0
M  V30 12491 C 1222.47 -1.8845 -0.524011 0
M  V30 12492 O 1223.68 -2.57442 -0.862322 0
M  V30 12493 C 1222.13 -3.19927 1.64848 0
M  V30 12494 C 1221.74 -3.1761 3.15956 0
M  V30 12495 C 1223.49 -3.96719 1.51044 0
M  V30 12496 C 1221.39 -4.54307 3.78628 0
M  V30 12497 H 1220.32 -0.667119 0.35138 0
M  V30 12498 H 1222.97 -1.18496 1.40111 0
M  V30 12499 H 1221.36 -3.79714 1.12397 0
M  V30 12500 H 1222.53 -2.67369 3.75301 0
M  V30 12501 H 1220.85 -2.54317 3.29715 0
M  V30 12502 H 1223.44 -4.97779 1.95243 0
M  V30 12503 H 1223.79 -4.13748 0.460268 0
M  V30 12504 H 1224.32 -3.43468 2.00685 0
M  V30 12505 H 1221.06 -4.42484 4.8362 0
M  V30 12506 H 1220.58 -5.04717 3.24069 0
M  V30 12507 H 1222.26 -5.23255 3.80543 0
M  V30 12508 N 1222.39 -0.968567 -1.24324 0
M  V30 12509 C 1223.8 -0.675239 -1.44612 0
M  V30 12510 C 1224 0.762641 -1.8651 0
M  V30 12511 O 1223.06 1.53644 -2.00374 0
M  V30 12512 C 1224.37 -1.66007 -2.50723 0
M  V30 12513 C 1225.92 -1.6728 -2.6455 0
M  V30 12514 C 1226.4 -2.64563 -3.73859 0
M  V30 12515 N 1227.89 -2.6301 -3.81287 0
M  V30 12516 C 1228.62 -3.34957 -4.65394 0
M  V30 12517 N 1228.12 -4.16424 -5.53681 0
M  V30 12518 N 1229.91 -3.23778 -4.59483 0
M  V30 12519 H 1222.06 -1.89757 -0.954257 0
M  V30 12520 H 1224.33 -0.817004 -0.480841 0
M  V30 12521 H 1224.03 -2.68779 -2.26827 0
M  V30 12522 H 1223.91 -1.43353 -3.48898 0
M  V30 12523 H 1226.29 -0.652184 -2.87803 0
M  V30 12524 H 1226.37 -1.93997 -1.6673 0
M  V30 12525 H 1226.02 -3.66759 -3.51355 0
M  V30 12526 H 1225.95 -2.35124 -4.71194 0
M  V30 12527 H 1228.44 -2.03877 -3.18186 0
M  V30 12528 H 1228.75 -4.68207 -6.14818 0
M  V30 12529 H 1227.1 -4.20518 -5.53344 0
M  V30 12530 H 1230.29 -2.59594 -3.89524 0
M  V30 12531 H 1230.46 -3.80112 -5.24804 0
M  V30 12532 N 1223.87 1.39211 -0.738786 0
M  V30 12533 C 1224.81 2.32424 -0.0904601 0
M  V30 12534 C 1225.81 1.53258 0.721694 0
M  V30 12535 O 1227.01 1.68895 0.622454 0
M  V30 12536 H 1223.39 0.751927 -0.010453 0
M  V30 12537 H 1225.36 2.84726 -0.892945 0
M  V30 12538 C 1224.11 3.38377 0.799783 0
M  V30 12539 H 1223.43 3.99375 0.18424 0
M  V30 12540 H 1224.87 4.0604 1.22096 0
M  V30 12541 C 1223.33 2.75734 1.93578 0
M  V30 12542 O 1223.86 2.63876 3.02874 0
M  V30 12543 N 1222.07 2.33764 1.72634 0
M  V30 12544 H 1221.61 2.43609 0.837413 0
M  V30 12545 H 1221.57 1.92191 2.48817 0
M  V30 12546 N 1225.34 0.486708 1.49896 0
M  V30 12547 C 1226.62 -0.125183 1.95199 0
M  V30 12548 C 1227 -1.55498 1.42771 0
M  V30 12549 O 1226.35 -2.1949 0.635322 0
M  V30 12550 C 1226.56 -0.0524982 3.48961 0
M  V30 12551 C 1227.91 -0.233595 4.23957 0
M  V30 12552 O 1228.93 -0.128357 3.55969 0
M  V30 12553 O 1227.79 -0.447862 5.44662 0
M  V30 12554 H 1224.88 -0.103141 0.820543 0
M  V30 12555 H 1227.43 0.548226 1.60601 0
M  V30 12556 H 1226.2 0.945163 3.79714 0
M  V30 12557 H 1225.83 -0.766683 3.90138 0
M  V30 12558 N 1226.82 -1.56058 0.219941 0
M  V30 12559 C 1227.77 -2.21585 -0.707321 0
M  V30 12560 C 1228.77 -1.19473 -1.20094 0
M  V30 12561 O 1229.97 -1.37557 -1.16095 0
M  V30 12562 H 1226.35 -0.710447 -0.246515 0
M  V30 12563 H 1228.32 -2.98111 -0.131214 0
M  V30 12564 C 1227.07 -2.90841 -1.90544 0
M  V30 12565 H 1226.39 -3.6917 -1.53472 0
M  V30 12566 H 1227.83 -3.40092 -2.53206 0
M  V30 12567 C 1226.29 -1.93223 -2.75983 0
M  V30 12568 O 1226.82 -1.44815 -3.74689 0
M  V30 12569 N 1225.02 -1.60907 -2.41986 0
M  V30 12570 H 1224.57 -2.00467 -1.61774 0
M  V30 12571 H 1224.53 -0.958534 -2.99432 0
M  V30 12572 N 1228.3 0.053464 -1.57509 0
M  V30 12573 C 1229.58 0.783141 -1.79238 0
M  V30 12574 C 1229.96 1.94855 -0.812069 0
M  V30 12575 O 1229.31 2.28 0.151006 0
M  V30 12576 C 1229.52 1.239 -3.26266 0
M  V30 12577 C 1230.86 1.66492 -3.90596 0
M  V30 12578 O 1231.89 1.33421 -3.30269 0
M  V30 12579 O 1230.75 2.27785 -4.96766 0
M  V30 12580 H 1227.84 0.376696 -0.736226 0
M  V30 12581 H 1230.39 0.0321229 -1.6967 0
M  V30 12582 H 1229.16 0.405948 -3.89189 0
M  V30 12583 H 1228.78 2.05078 -3.4063 0
M  V30 12584 N 1229.78 1.54207 0.325255 0
M  V30 12585 C 1231.01 1.76293 1.08298 0
M  V30 12586 C 1231.42 0.510722 1.81761 0
M  V30 12587 O 1230.78 -0.5185 1.7498 0
M  V30 12588 C 1230.83 2.95498 2.08238 0
M  V30 12589 O 1230.55 4.15877 1.37759 0
M  V30 12590 C 1232.05 3.29781 2.96242 0
M  V30 12591 H 1229.27 0.588576 0.322209 0
M  V30 12592 H 1231.82 2.0109 0.371896 0
M  V30 12593 H 1229.97 2.72979 2.74884 0
M  V30 12594 H 1230.39 4.82918 2.04672 0
M  V30 12595 H 1231.86 4.16495 3.62265 0
M  V30 12596 H 1232.34 2.46874 3.63249 0
M  V30 12597 H 1232.94 3.54372 2.3516 0
M  V30 12598 N 1231.26 -0.58723 1.46251 0
M  V30 12599 C 1232.5 -1.3456 1.51327 0
M  V30 12600 C 1232.83 -1.93815 0.163146 0
M  V30 12601 O 1232.09 -1.76723 -0.840677 0
M  V30 12602 C 1232.39 -2.49776 2.5563 0
M  V30 12603 C 1232.05 -2.08543 3.99776 0
M  V30 12604 C 1230.71 -1.97013 4.39021 0
M  V30 12605 C 1233.07 -1.76669 4.90344 0
M  V30 12606 C 1230.39 -1.5186 5.66706 0
M  V30 12607 C 1232.75 -1.32996 6.18462 0
M  V30 12608 C 1231.41 -1.20039 6.56618 0
M  V30 12609 H 1230.68 -0.492391 0.553744 0
M  V30 12610 H 1233.33 -0.661715 1.79704 0
M  V30 12611 H 1231.63 -3.23592 2.20897 0
M  V30 12612 H 1233.33 -3.07995 2.56788 0
M  V30 12613 H 1229.92 -2.18451 3.68751 0
M  V30 12614 H 1234.1 -1.84465 4.60746 0
M  V30 12615 H 1229.36 -1.40467 5.95045 0
M  V30 12616 H 1233.53 -1.07385 6.88071 0
M  V30 12617 H 1231.16 -0.848268 7.55452 0
M  V30 12618 N 1232.74 -1.33881 -0.831482 0
M  V30 12619 C 1233.96 -1.28812 -1.61911 0
M  V30 12620 C 1234.38 0.139519 -1.88284 0
M  V30 12621 O 1233.74 1.08397 -1.46821 0
M  V30 12622 C 1233.79 -2.06806 -2.96502 0
M  V30 12623 O 1233.51 -3.44 -2.71285 0
M  V30 12624 C 1235.01 -2.09033 -3.90922 0
M  V30 12625 H 1232.23 -0.443473 -0.50356 0
M  V30 12626 H 1234.77 -1.76365 -1.03516 0
M  V30 12627 H 1232.93 -1.62915 -3.51479 0
M  V30 12628 H 1233.34 -3.84213 -3.57044 0
M  V30 12629 H 1234.82 -2.68044 -4.82552 0
M  V30 12630 H 1235.29 -1.08249 -4.25651 0
M  V30 12631 H 1235.9 -2.52975 -3.41883 0
M  V30 12632 N 1234.21 1.05064 -1.1747 0
M  V30 12633 C 1235.46 1.78352 -0.965311 0
M  V30 12634 C 1235.79 1.87527 0.504707 0
M  V30 12635 O 1235.07 1.376 1.37465 0
M  V30 12636 C 1235.35 3.22173 -1.60862 0
M  V30 12637 C 1235.2 3.21003 -3.15083 0
M  V30 12638 C 1236.52 4.2004 -1.31358 0
M  V30 12639 H 1233.64 0.647452 -0.352101 0
M  V30 12640 H 1236.28 1.22794 -1.44988 0
M  V30 12641 H 1234.43 3.69613 -1.19658 0
M  V30 12642 H 1236.11 2.81629 -3.65353 0
M  V30 12643 H 1234.35 2.59309 -3.47766 0
M  V30 12644 H 1235.02 4.22516 -3.55224 0
M  V30 12645 H 1237.5 3.81099 -1.6704 0
M  V30 12646 H 1236.37 5.1891 -1.78953 0
M  V30 12647 H 1236.63 4.41477 -0.234606 0
M  V30 12648 N 1235.69 0.975146 1.23809 0
M  V30 12649 C 1236.64 0.510761 2.25077 0
M  V30 12650 C 1237.61 -0.447605 1.59955 0
M  V30 12651 O 1238.79 -0.356318 1.87443 0
M  V30 12652 C 1235.93 -0.185755 3.446 0
M  V30 12653 C 1235.05 0.812254 4.24295 0
M  V30 12654 C 1234.18 0.0910835 5.31122 0
M  V30 12655 C 1233.22 1.07866 6.02521 0
M  V30 12656 N 1232.36 0.386995 7.01033 0
M  V30 12657 H 1237.2 1.37913 2.64166 0
M  V30 12658 H 1234.73 0.691184 1.2985 0
M  V30 12659 H 1236.69 -0.606341 4.1277 0
M  V30 12660 H 1235.32 -1.01803 3.06327 0
M  V30 12661 H 1234.37 1.35125 3.55592 0
M  V30 12662 H 1235.69 1.56502 4.73612 0
M  V30 12663 H 1234.84 -0.387129 6.05464 0
M  V30 12664 H 1233.58 -0.694324 4.82732 0
M  V30 12665 H 1232.58 1.56767 5.26976 0
M  V30 12666 H 1233.81 1.86464 6.52999 0
M  V30 12667 H 1231.76 -0.3793 6.54903 0
M  V30 12668 H 1231.67 1.0785 7.48268 0
M  V30 12669 H 1232.94 -0.0690036 7.79469 0
M  V30 12670 N 1237.17 -1.38817 0.746158 0
M  V30 12671 C 1238.4 -2.04274 0.309156 0
M  V30 12672 C 1238.81 -1.56389 -1.06486 0
M  V30 12673 O 1238.15 -0.728875 -1.68621 0
M  V30 12674 C 1238.21 -3.58664 0.245003 0
M  V30 12675 C 1237.88 -4.29574 1.55933 0
M  V30 12676 C 1238.87 -4.55454 2.50714 0
M  V30 12677 C 1236.56 -4.67907 1.82671 0
M  V30 12678 C 1238.55 -5.18691 3.70458 0
M  V30 12679 C 1236.24 -5.30869 3.0269 0
M  V30 12680 C 1237.24 -5.56195 3.96404 0
M  V30 12681 O 1236.93 -6.17848 5.14314 0
M  V30 12682 H 1236.66 -0.663162 0.131121 0
M  V30 12683 H 1239.21 -1.78636 1.01382 0
M  V30 12684 H 1237.44 -3.83244 -0.515847 0
M  V30 12685 H 1239.13 -4.05579 -0.16149 0
M  V30 12686 H 1239.9 -4.26276 2.3133 0
M  V30 12687 H 1235.78 -4.47544 1.10568 0
M  V30 12688 H 1239.32 -5.38375 4.4362 0
M  V30 12689 H 1235.22 -5.59469 3.2197 0
M  V30 12690 H 1235.98 -6.36338 5.14797 0
M  V30 12691 N 1238.65 -0.49465 -1.49636 0
M  V30 12692 C 1239.88 0.0491129 -2.06842 0
M  V30 12693 C 1240.29 1.31395 -1.35576 0
M  V30 12694 O 1239.65 1.7731 -0.432135 0
M  V30 12695 C 1239.7 0.313171 -3.60141 0
M  V30 12696 O 1239.42 -0.90152 -4.28724 0
M  V30 12697 C 1240.92 0.901284 -4.34041 0
M  V30 12698 H 1238.14 -0.0176186 -0.670769 0
M  V30 12699 H 1240.68 -0.690188 -1.92501 0
M  V30 12700 H 1238.84 1.00244 -3.74206 0
M  V30 12701 H 1239.25 -0.660477 -5.20325 0
M  V30 12702 H 1240.73 1.03567 -5.42197 0
M  V30 12703 H 1241.2 1.89746 -3.96097 0
M  V30 12704 H 1241.81 0.249677 -4.24566 0
M  V30 12705 N 1240.13 1.55939 -0.228214 0
M  V30 12706 C 1241.54 1.84612 0.278417 0
M  V30 12707 C 1241.89 1.14973 1.58983 0
M  V30 12708 O 1241.01 0.421673 2.12252 0
M  V30 12709 C 1241.61 3.3491 0.511935 0
M  V30 12710 C 1240.17 3.63876 0.962861 0
M  V30 12711 C 1239.31 2.77284 0.0296246 0
M  V30 12712 H 1242.26 1.52149 -0.451245 0
M  V30 12713 H 1242.29 3.55477 1.35707 0
M  V30 12714 H 1241.8 3.85567 -0.442697 0
M  V30 12715 H 1239.9 3.18682 1.93062 0
M  V30 12716 H 1240.01 4.71809 0.832659 0
M  V30 12717 H 1238.38 2.48961 0.53763 0
M  V30 12718 H 1239.16 3.30742 -0.920044 0
M  V30 12719 N 1241.6 -0.0451101 1.57535 0
M  V30 12720 C 1243.02 -0.400463 1.54494 0
M  V30 12721 C 1243.22 -1.77584 0.952166 0
M  V30 12722 O 1242.28 -2.46069 0.566221 0
M  V30 12723 C 1243.59 -0.31703 2.99024 0
M  V30 12724 C 1245.14 -0.395284 3.10494 0
M  V30 12725 C 1245.61 -0.341475 4.56725 0
M  V30 12726 N 1247.1 -0.400755 4.61463 0
M  V30 12727 C 1247.84 -0.381757 5.72128 0
M  V30 12728 N 1247.33 -0.315995 6.92079 0
M  V30 12729 N 1249.13 -0.4303 5.60451 0
M  V30 12730 H 1241.28 0.855156 1.94424 0
M  V30 12731 H 1243.54 0.323618 0.891053 0
M  V30 12732 H 1243.25 0.627477 3.46057 0
M  V30 12733 H 1243.12 -1.11696 3.60283 0
M  V30 12734 H 1245.51 -1.33022 2.63418 0
M  V30 12735 H 1245.59 0.433709 2.52096 0
M  V30 12736 H 1245.23 0.589725 5.04465 0
M  V30 12737 H 1245.16 -1.18836 5.13016 0
M  V30 12738 H 1247.65 -0.454745 3.75154 0
M  V30 12739 H 1247.97 -0.306158 7.72193 0
M  V30 12740 H 1246.31 -0.282281 6.94427 0
M  V30 12741 H 1249.5 -0.479555 4.65637 0
M  V30 12742 H 1249.68 -0.412025 6.46689 0
M  V30 12743 N 1243.08 -1.54377 -0.317073 0
M  V30 12744 C 1244.33 -1.72551 -1.05216 0
M  V30 12745 C 1244.65 -0.5055 -1.88334 0
M  V30 12746 O 1243.92 0.480439 -1.89917 0
M  V30 12747 H 1242.5 -0.636222 -0.391447 0
M  V30 12748 H 1245.16 -1.91696 -0.35194 0
M  V30 12749 H 1244.26 -2.60791 -1.71448 0
M  V30 12750 N 1244.56 0.579466 -1.4656 0
M  V30 12751 C 1245.52 1.67033 -1.56948 0
M  V30 12752 C 1246.52 1.54481 -0.446361 0
M  V30 12753 O 1247.71 1.5904 -0.710767 0
M  V30 12754 C 1244.85 3.06474 -1.49286 0
M  V30 12755 H 1246.04 1.59179 -2.54169 0
M  V30 12756 H 1243.59 0.797573 -1.34419 0
M  V30 12757 H 1244.33 3.1988 -0.533572 0
M  V30 12758 H 1244.11 3.16993 -2.30776 0
M  V30 12759 H 1245.6 3.85879 -1.59648 0
M  V30 12760 N 1246.04 1.3432 0.824371 0
M  V30 12761 C 1247.29 1.26345 1.57738 0
M  V30 12762 C 1247.61 -0.166836 1.94285 0
M  V30 12763 O 1246.88 -1.09911 1.62162 0
M  V30 12764 H 1245.46 0.46466 0.584893 0
M  V30 12765 H 1248.12 1.68214 0.984373 0
M  V30 12766 H 1247.22 1.8672 2.50084 0
M  V30 12767 N 1247.52 -1.0444 1.18026 0
M  V30 12768 C 1248.74 -1.81772 0.998684 0
M  V30 12769 C 1249.17 -1.82682 -0.448225 0
M  V30 12770 O 1248.52 -1.24136 -1.32136 0
M  V30 12771 C 1248.57 -3.2542 1.55352 0
M  V30 12772 O 1247.68 -4.05103 0.772351 0
M  V30 12773 H 1247.02 -0.561731 0.354054 0
M  V30 12774 H 1249.55 -1.31557 1.56697 0
M  V30 12775 H 1249.56 -3.76206 1.57903 0
M  V30 12776 H 1248.23 -3.24073 2.60672 0
M  V30 12777 H 1246.81 -3.63798 0.818852 0
M  V30 12778 N 1248.99 -0.981699 -1.2329 0
M  V30 12779 C 1250.22 -0.668399 -1.95489 0
M  V30 12780 C 1250.63 0.768976 -1.72868 0
M  V30 12781 O 1249.98 1.52925 -1.01783 0
M  V30 12782 C 1250.04 -0.880535 -3.4855 0
M  V30 12783 C 1249.7 -2.30023 -3.9489 0
M  V30 12784 C 1250.7 -3.27899 -4.03458 0
M  V30 12785 C 1248.38 -2.63167 -4.27842 0
M  V30 12786 C 1250.38 -4.56999 -4.44332 0
M  V30 12787 C 1248.06 -3.92489 -4.68397 0
M  V30 12788 C 1249.06 -4.89216 -4.76609 0
M  V30 12789 O 1248.75 -6.16229 -5.16253 0
M  V30 12790 H 1248.48 -0.247255 -0.629159 0
M  V30 12791 H 1251.04 -1.31606 -1.57699 0
M  V30 12792 H 1249.27 -0.175698 -3.86301 0
M  V30 12793 H 1250.96 -0.564198 -4.0196 0
M  V30 12794 H 1251.72 -3.03624 -3.78203 0
M  V30 12795 H 1247.6 -1.88588 -4.20661 0
M  V30 12796 H 1251.14 -5.32498 -4.50656 0
M  V30 12797 H 1247.04 -4.16558 -4.93102 0
M  V30 12798 H 1247.81 -6.20001 -5.34361 0
M  V30 12799 N 1250.47 1.3842 -0.753509 0
M  V30 12800 C 1251.7 2.04403 -0.320449 0
M  V30 12801 C 1252.12 1.5683 1.05118 0
M  V30 12802 O 1251.47 0.741335 1.66765 0
M  V30 12803 C 1251.52 3.59954 -0.333937 0
M  V30 12804 O 1251.24 4.05782 -1.65144 0
M  V30 12805 C 1252.75 4.43156 0.112997 0
M  V30 12806 H 1249.97 0.656881 -0.136927 0
M  V30 12807 H 1252.51 1.77112 -1.02234 0
M  V30 12808 H 1250.66 3.86083 0.319215 0
M  V30 12809 H 1251.08 5.00213 -1.57757 0
M  V30 12810 H 1252.55 5.51975 0.0523995 0
M  V30 12811 H 1253.03 4.23581 1.16087 0
M  V30 12812 H 1253.64 4.22216 -0.511278 0
M  V30 12813 N 1251.95 0.502579 1.49372 0
M  V30 12814 C 1253.2 -0.0432341 2.01654 0
M  V30 12815 C 1253.51 -1.379 1.38719 0
M  V30 12816 O 1254.72 -2.01159 1.82338 0
M  V30 12817 C 1253.17 -0.127509 3.59674 0
M  V30 12818 C 1252.78 1.20171 4.31582 0
M  V30 12819 C 1254.53 -0.623603 4.19895 0
M  V30 12820 C 1252.43 1.07951 5.81464 0
M  V30 12821 H 1251.36 -0.0199308 0.753737 0
M  V30 12822 H 1254.01 0.642237 1.71894 0
M  V30 12823 H 1252.4 -0.877465 3.86156 0
M  V30 12824 H 1253.57 1.96508 4.16799 0
M  V30 12825 H 1251.89 1.63136 3.83113 0
M  V30 12826 H 1254.48 -0.732562 5.29658 0
M  V30 12827 H 1254.83 -1.62282 3.83367 0
M  V30 12828 H 1255.36 0.0698641 3.97739 0
M  V30 12829 H 1252.1 2.05304 6.22519 0
M  V30 12830 H 1251.62 0.357051 5.98736 0
M  V30 12831 H 1253.3 0.758885 6.42534 0
M  V30 12832 N 1253.43 -1.55816 0.23648 0
M  V30 12833 C 1254.36 -2.16945 -0.707826 0
M  V30 12834 C 1255.34 -1.11832 -1.18036 0
M  V30 12835 O 1256.52 -1.40166 -1.26039 0
M  V30 12836 C 1253.65 -2.76175 -1.96074 0
M  V30 12837 C 1252.7 -3.9425 -1.62695 0
M  V30 12838 S 1253.53 -5.30381 -0.738663 0
M  V30 12839 C 1254.69 -5.93059 -2.00081 0
M  V30 12840 H 1254.92 -2.96703 -0.188303 0
M  V30 12841 H 1252.45 -1.54386 0.0210284 0
M  V30 12842 H 1254.41 -3.10938 -2.68007 0
M  V30 12843 H 1253.07 -1.96382 -2.45138 0
M  V30 12844 H 1252.26 -4.34247 -2.55823 0
M  V30 12845 H 1251.87 -3.6071 -0.988129 0
M  V30 12846 H 1254.16 -6.09941 -2.94921 0
M  V30 12847 H 1255.1 -6.88739 -1.64449 0
M  V30 12848 H 1255.51 -5.2203 -2.14815 0
M  V30 12849 N 1254.91 0.036755 -1.57557 0
M  V30 12850 C 1256.15 0.730186 -1.89199 0
M  V30 12851 C 1256.49 1.75414 -0.833271 0
M  V30 12852 O 1255.76 1.93901 0.152579 0
M  V30 12853 C 1256.04 1.40669 -3.31488 0
M  V30 12854 C 1255.9 0.396764 -4.48047 0
M  V30 12855 C 1257.22 2.34268 -3.72567 0
M  V30 12856 H 1254.33 0.263983 -0.6881 0
M  V30 12857 H 1256.98 -0.0069847 -1.89999 0
M  V30 12858 H 1255.13 2.03502 -3.30937 0
M  V30 12859 H 1256.8 -0.229062 -4.60731 0
M  V30 12860 H 1255.04 -0.284698 -4.32865 0
M  V30 12861 H 1255.71 0.908436 -5.44474 0
M  V30 12862 H 1258.19 1.81485 -3.74436 0
M  V30 12863 H 1257.06 2.78587 -4.72949 0
M  V30 12864 H 1257.33 3.20611 -3.04403 0
M  V30 12865 N 1256.39 1.54543 0.308881 0
M  V30 12866 C 1257.32 1.87947 1.38557 0
M  V30 12867 C 1258.3 0.737622 1.53275 0
M  V30 12868 O 1259.48 0.992664 1.66913 0
M  V30 12869 C 1256.61 2.11982 2.75102 0
M  V30 12870 C 1255.57 3.2783 2.75158 0
M  V30 12871 C 1254.89 3.37266 4.14917 0
M  V30 12872 C 1256.19 4.65129 2.37598 0
M  V30 12873 H 1257.89 2.78123 1.1085 0
M  V30 12874 H 1255.43 1.3382 0.531808 0
M  V30 12875 H 1257.38 2.33935 3.50503 0
M  V30 12876 H 1256.11 1.18569 3.04317 0
M  V30 12877 H 1254.77 3.05787 2.02212 0
M  V30 12878 H 1254.42 2.41384 4.41296 0
M  V30 12879 H 1254.12 4.15135 4.15857 0
M  V30 12880 H 1255.64 3.61471 4.92109 0
M  V30 12881 H 1257.05 4.86865 3.02714 0
M  V30 12882 H 1255.45 5.45653 2.49765 0
M  V30 12883 H 1256.52 4.6638 1.32731 0
M  V30 12884 N 1257.86 -0.571685 1.46866 0
M  V30 12885 C 1259.11 -1.32948 1.52745 0
M  V30 12886 C 1259.44 -1.93631 0.183694 0
M  V30 12887 O 1258.69 -1.77605 -0.821886 0
M  V30 12888 C 1258.99 -2.47051 2.58264 0
M  V30 12889 C 1258.66 -2.04291 4.01965 0
M  V30 12890 C 1257.32 -1.92345 4.41086 0
M  V30 12891 C 1259.67 -1.71458 4.9219 0
M  V30 12892 C 1257 -1.4584 5.68285 0
M  V30 12893 C 1259.35 -1.26429 6.19837 0
M  V30 12894 C 1258.02 -1.13068 6.57854 0
M  V30 12895 H 1257.29 -0.48649 0.558935 0
M  V30 12896 H 1259.93 -0.642618 1.80396 0
M  V30 12897 H 1258.24 -3.21231 2.24316 0
M  V30 12898 H 1259.94 -3.05254 2.6004 0
M  V30 12899 H 1256.53 -2.14527 3.71047 0
M  V30 12900 H 1260.71 -1.79567 4.62676 0
M  V30 12901 H 1255.97 -1.34148 5.96502 0
M  V30 12902 H 1260.14 -1.00081 6.89171 0
M  V30 12903 H 1257.77 -0.768094 7.5631 0
M  V30 12904 N 1259.34 -1.34755 -0.817236 0
M  V30 12905 C 1260.3 -1.26687 -1.91006 0
M  V30 12906 C 1261.3 -0.180745 -1.59781 0
M  V30 12907 O 1262.49 -0.433748 -1.68714 0
M  V30 12908 C 1259.63 -0.957293 -3.27183 0
M  V30 12909 H 1260.82 -2.23846 -1.99582 0
M  V30 12910 H 1258.37 -1.19125 -1.01187 0
M  V30 12911 H 1259.11 0.0108917 -3.24298 0
M  V30 12912 H 1258.89 -1.74297 -3.5123 0
M  V30 12913 H 1260.38 -0.926161 -4.072 0
M  V30 12914 N 1260.82 1.03812 -1.18578 0
M  V30 12915 C 1262.1 1.74062 -0.892288 0
M  V30 12916 C 1262.48 2.02267 0.604256 0
M  V30 12917 O 1261.82 1.66988 1.55972 0
M  V30 12918 C 1262.03 3.024 -1.74228 0
M  V30 12919 C 1263.38 3.76088 -1.97087 0
M  V30 12920 O 1264.41 3.12305 -1.71302 0
M  V30 12921 O 1263.27 4.90732 -2.40509 0
M  V30 12922 H 1260.36 0.757567 -0.331695 0
M  V30 12923 H 1262.91 1.09855 -1.29345 0
M  V30 12924 H 1261.68 2.77713 -2.75665 0
M  V30 12925 H 1261.3 3.74346 -1.3398 0
M  V30 12926 N 1262.3 0.988223 1.22768 0
M  V30 12927 C 1263.23 0.492919 2.23837 0
M  V30 12928 C 1264.24 -0.409467 1.57567 0
M  V30 12929 O 1265.43 -0.21235 1.77232 0
M  V30 12930 C 1262.53 -0.305428 3.37521 0
M  V30 12931 C 1261.7 0.591966 4.33376 0
M  V30 12932 C 1260.76 -0.15387 5.25975 0
M  V30 12933 O 1259.79 0.459153 5.67345 0
M  V30 12934 N 1260.99 -1.43756 5.62418 0
M  V30 12935 H 1263.76 1.36199 2.66965 0
M  V30 12936 H 1261.32 0.862395 1.3702 0
M  V30 12937 H 1263.31 -0.812921 3.96451 0
M  V30 12938 H 1261.88 -1.07556 2.93514 0
M  V30 12939 H 1261.1 1.28019 3.72833 0
M  V30 12940 H 1262.39 1.20327 4.94367 0
M  V30 12941 H 1261.79 -1.95701 5.30771 0
M  V30 12942 H 1260.34 -1.89034 6.23786 0
M  V30 12943 N 1263.78 -1.38018 0.760839 0
M  V30 12944 C 1264.74 -2.28734 0.146154 0
M  V30 12945 C 1265.74 -1.47525 -0.639768 0
M  V30 12946 O 1266.93 -1.6788 -0.464964 0
M  V30 12947 C 1264.06 -3.31356 -0.801019 0
M  V30 12948 H 1265.25 -2.84599 0.945692 0
M  V30 12949 H 1262.81 -1.471 0.528323 0
M  V30 12950 H 1263.54 -2.80594 -1.62597 0
M  V30 12951 H 1263.33 -3.91366 -0.239775 0
M  V30 12952 H 1264.82 -3.99171 -1.22687 0
M  V30 12953 N 1265.25 -0.510493 -1.49103 0
M  V30 12954 C 1266.48 0.0271718 -2.06882 0
M  V30 12955 C 1266.9 1.2995 -1.36962 0
M  V30 12956 O 1266.25 1.76842 -0.450916 0
M  V30 12957 C 1266.3 0.274956 -3.60453 0
M  V30 12958 O 1266.03 -0.946941 -4.27744 0
M  V30 12959 C 1267.53 0.855197 -4.34973 0
M  V30 12960 H 1264.75 -0.024732 -0.670544 0
M  V30 12961 H 1267.29 -0.710567 -1.91758 0
M  V30 12962 H 1265.45 0.962696 -3.75248 0
M  V30 12963 H 1265.86 -0.715627 -5.19595 0
M  V30 12964 H 1267.33 0.978103 -5.43265 0
M  V30 12965 H 1267.81 1.85535 -3.98087 0
M  V30 12966 H 1268.42 0.204632 -4.24807 0
M  V30 12967 N 1266.73 1.55688 -0.24474 0
M  V30 12968 C 1268.14 1.84897 0.25882 0
M  V30 12969 C 1268.49 1.16653 1.57755 0
M  V30 12970 O 1267.62 0.444162 2.11793 0
M  V30 12971 C 1268.21 3.35434 0.476385 0
M  V30 12972 C 1266.77 3.64877 0.924213 0
M  V30 12973 C 1265.92 2.773 0.00021322 0
M  V30 12974 H 1268.87 1.51662 -0.467358 0
M  V30 12975 H 1268.89 3.56896 1.31929 0
M  V30 12976 H 1268.4 3.85076 -0.483567 0
M  V30 12977 H 1266.5 3.20711 1.89671 0
M  V30 12978 H 1266.62 4.72665 0.78257 0
M  V30 12979 H 1264.98 2.49517 0.511194 0
M  V30 12980 H 1265.76 3.29747 -0.955072 0
M  V30 12981 N 1268.21 -0.0283989 1.57574 0
M  V30 12982 C 1269.44 -0.730831 1.93563 0
M  V30 12983 C 1269.85 -1.68857 0.844556 0
M  V30 12984 O 1269.21 -1.8162 -0.178971 0
M  V30 12985 C 1269.26 -1.48731 3.29486 0
M  V30 12986 O 1268.98 -0.568017 4.34402 0
M  V30 12987 C 1270.48 -2.28684 3.79761 0
M  V30 12988 H 1267.7 -0.205346 0.638807 0
M  V30 12989 H 1270.25 0.0142728 2.04495 0
M  V30 12990 H 1268.4 -2.18429 3.19949 0
M  V30 12991 H 1268.82 -1.09861 5.12865 0
M  V30 12992 H 1270.29 -2.77157 4.77376 0
M  V30 12993 H 1270.77 -3.10133 3.10989 0
M  V30 12994 H 1271.37 -1.64059 3.92383 0
M  V30 12995 N 1269.69 -1.54705 -0.300681 0
M  V30 12996 C 1270.91 -1.78318 -1.05913 0
M  V30 12997 C 1271.34 -0.541177 -1.80147 0
M  V30 12998 O 1270.7 0.508291 -1.74029 0
M  V30 12999 C 1270.74 -2.99041 -2.01511 0
M  V30 13000 O 1269.85 -2.72188 -3.09818 0
M  V30 13001 H 1269.19 -0.590197 -0.304242 0
M  V30 13002 H 1271.72 -2.01789 -0.338006 0
M  V30 13003 H 1271.73 -3.2702 -2.43971 0
M  V30 13004 H 1270.4 -3.89098 -1.46886 0
M  V30 13005 H 1268.98 -2.55227 -2.71871 0
M  V30 13006 N 1271.17 0.563888 -1.47167 0
M  V30 13007 C 1272.58 1.14603 -1.47388 0
M  V30 13008 C 1272.93 1.94907 -0.224916 0
M  V30 13009 O 1272.05 2.05745 0.670672 0
M  V30 13010 C 1272.65 2.08501 -2.67044 0
M  V30 13011 C 1271.21 2.62 -2.70246 0
M  V30 13012 C 1270.35 1.38244 -2.40383 0
M  V30 13013 H 1273.31 0.350833 -1.54774 0
M  V30 13014 H 1273.33 2.92272 -2.43634 0
M  V30 13015 H 1272.84 1.50027 -3.57929 0
M  V30 13016 H 1270.94 3.24292 -1.83482 0
M  V30 13017 H 1271.05 3.0345 -3.70749 0
M  V30 13018 H 1269.42 1.68692 -1.90827 0
M  V30 13019 H 1270.2 0.815726 -3.33468 0
M  V30 13020 N 1272.64 1.35187 0.810078 0
M  V30 13021 C 1273.89 1.27602 1.56207 0
M  V30 13022 C 1274.21 -0.148621 1.95035 0
M  V30 13023 O 1275.41 -0.346721 2.69277 0
M  V30 13024 C 1273.87 2.23759 2.81886 0
M  V30 13025 C 1273.48 3.71549 2.5031 0
M  V30 13026 C 1275.22 2.25109 3.59898 0
M  V30 13027 C 1273.13 4.5954 3.7226 0
M  V30 13028 H 1272.06 0.474078 0.586316 0
M  V30 13029 H 1274.71 1.6043 0.890759 0
M  V30 13030 H 1273.09 1.83898 3.5071 0
M  V30 13031 H 1274.26 4.20025 1.89515 0
M  V30 13032 H 1272.58 3.72773 1.85551 0
M  V30 13033 H 1275.18 2.88066 4.50469 0
M  V30 13034 H 1275.52 1.25387 3.96968 0
M  V30 13035 H 1276.05 2.63481 2.98031 0
M  V30 13036 H 1272.79 5.60246 3.403 0
M  V30 13037 H 1272.31 4.15792 4.32293 0
M  V30 13038 H 1273.99 4.74789 4.39528 0
M  V30 13039 N 1274.12 -1.03182 1.19127 0
M  V30 13040 C 1275.54 -1.28773 0.942854 0
M  V30 13041 C 1275.74 -1.97759 -0.386483 0
M  V30 13042 O 1274.79 -2.26365 -1.1187 0
M  V30 13043 C 1276.11 -2.13771 2.11476 0
M  V30 13044 C 1277.66 -2.27089 2.15406 0
M  V30 13045 C 1278.13 -3.15458 3.32039 0
M  V30 13046 N 1279.62 -3.23046 3.31957 0
M  V30 13047 C 1280.36 -3.91604 4.18848 0
M  V30 13048 N 1279.85 -4.62418 5.15889 0
M  V30 13049 N 1281.65 -3.87974 4.06734 0
M  V30 13050 H 1273.8 -0.568165 2.0466 0
M  V30 13051 H 1276.06 -0.31328 0.89474 0
M  V30 13052 H 1275.77 -1.704 3.07663 0
M  V30 13053 H 1275.64 -3.14476 2.0829 0
M  V30 13054 H 1278.03 -2.69693 1.19791 0
M  V30 13055 H 1278.11 -1.25945 2.22647 0
M  V30 13056 H 1277.75 -2.73564 4.27931 0
M  V30 13057 H 1277.68 -4.16654 3.22035 0
M  V30 13058 H 1280.17 -2.7261 2.6171 0
M  V30 13059 H 1280.49 -5.12353 5.78545 0
M  V30 13060 H 1278.83 -4.61293 5.1984 0
M  V30 13061 H 1282.02 -3.31789 3.30202 0
M  V30 13062 H 1282.19 -4.4113 4.74666 0
M  V30 13063 N 1275.6 -0.99472 -1.22242 0
M  V30 13064 C 1276.85 -0.672596 -1.91322 0
M  V30 13065 C 1277.18 0.793542 -1.77247 0
M  V30 13066 O 1276.45 1.57407 -1.14251 0
M  V30 13067 C 1276.74 -1.08155 -3.43474 0
M  V30 13068 C 1276.59 -2.60638 -3.6659 0
M  V30 13069 C 1277.91 -0.636161 -4.35478 0
M  V30 13070 H 1275.03 -0.24582 -0.694796 0
M  V30 13071 H 1277.67 -1.23857 -1.44082 0
M  V30 13072 H 1275.82 -0.599987 -3.83839 0
M  V30 13073 H 1277.49 -3.16479 -3.35617 0
M  V30 13074 H 1275.74 -3.02624 -3.10808 0
M  V30 13075 H 1276.41 -2.84304 -4.73155 0
M  V30 13076 H 1278.88 -1.04982 -4.02639 0
M  V30 13077 H 1277.76 -0.950584 -5.40606 0
M  V30 13078 H 1278.02 0.4631 -4.39668 0
M  V30 13079 N 1277.08 1.37613 -0.768148 0
M  V30 13080 C 1278.03 2.30311 -0.150176 0
M  V30 13081 C 1279 1.50918 0.69376 0
M  V30 13082 O 1280.18 1.795 0.64687 0
M  V30 13083 C 1277.32 3.37382 0.72576 0
M  V30 13084 C 1276.43 4.31791 -0.13439 0
M  V30 13085 C 1275.57 5.25937 0.745915 0
M  V30 13086 C 1274.61 6.11988 -0.116988 0
M  V30 13087 N 1273.74 6.98387 0.721091 0
M  V30 13088 H 1278.58 2.82579 -0.946212 0
M  V30 13089 H 1276.12 1.3911 -0.478217 0
M  V30 13090 H 1278.08 3.98084 1.24839 0
M  V30 13091 H 1276.71 2.86488 1.48743 0
M  V30 13092 H 1275.76 3.72426 -0.774793 0
M  V30 13093 H 1277.07 4.9234 -0.800163 0
M  V30 13094 H 1276.23 5.91826 1.33516 0
M  V30 13095 H 1274.97 4.6579 1.44538 0
M  V30 13096 H 1273.97 5.45081 -0.7188 0
M  V30 13097 H 1275.2 6.74207 -0.813732 0
M  V30 13098 H 1273.14 6.40772 1.40524 0
M  V30 13099 H 1273.06 7.55916 0.112536 0
M  V30 13100 H 1274.33 7.6867 1.29485 0
M  V30 13101 N 1278.56 0.518393 1.4883 0
M  V30 13102 C 1279.8 -0.0199348 2.0279 0
M  V30 13103 C 1280.14 -1.35026 1.39576 0
M  V30 13104 O 1279.41 -1.86927 0.537449 0
M  V30 13105 C 1279.69 -0.154184 3.5977 0
M  V30 13106 C 1279.55 1.2005 4.33484 0
M  V30 13107 C 1280.87 -0.886547 4.31078 0
M  V30 13108 H 1277.98 -0.00577061 0.736977 0
M  V30 13109 H 1280.63 0.673178 1.77675 0
M  V30 13110 H 1278.78 -0.74451 3.81299 0
M  V30 13111 H 1280.45 1.83104 4.23404 0
M  V30 13112 H 1278.69 1.78537 3.95357 0
M  V30 13113 H 1279.36 1.05968 5.41733 0
M  V30 13114 H 1281.84 -0.385711 4.14308 0
M  V30 13115 H 1280.71 -0.949355 5.40628 0
M  V30 13116 H 1280.98 -1.93424 3.97542 0
M  V30 13117 N 1280.03 -1.55556 0.252993 0
M  V30 13118 C 1280.94 -2.25283 -0.654581 0
M  V30 13119 C 1281.96 -1.27103 -1.18831 0
M  V30 13120 O 1283.14 -1.59993 -1.22329 0
M  V30 13121 C 1280.2 -2.94336 -1.83214 0
M  V30 13122 C 1279.26 -4.0794 -1.33728 0
M  V30 13123 C 1278.5 -4.73691 -2.45871 0
M  V30 13124 O 1278.72 -4.38545 -3.64738 0
M  V30 13125 O 1277.65 -5.62083 -2.15283 0
M  V30 13126 H 1281.48 -3.03565 -0.0904091 0
M  V30 13127 H 1279.06 -1.49385 0.0212535 0
M  V30 13128 H 1280.95 -3.37808 -2.5192 0
M  V30 13129 H 1279.62 -2.18989 -2.38381 0
M  V30 13130 H 1278.53 -3.68971 -0.617323 0
M  V30 13131 H 1279.86 -4.85124 -0.831617 0
M  V30 13132 N 1281.51 0.0200419 -1.57587 0
M  V30 13133 C 1282.92 0.565484 -1.7793 0
M  V30 13134 C 1283.27 1.75096 -0.885201 0
M  V30 13135 O 1282.4 2.16243 -0.0823831 0
M  V30 13136 C 1282.99 1.03263 -3.2268 0
M  V30 13137 C 1281.55 1.52352 -3.44189 0
M  V30 13138 C 1280.7 0.465637 -2.73363 0
M  V30 13139 H 1283.65 -0.206174 -1.57355 0
M  V30 13140 H 1283.67 1.89959 -3.2969 0
M  V30 13141 H 1283.18 0.169613 -3.87729 0
M  V30 13142 H 1281.29 2.40809 -2.84327 0
M  V30 13143 H 1281.4 1.5648 -4.52825 0
M  V30 13144 H 1279.76 0.922738 -2.37398 0
M  V30 13145 H 1280.55 -0.388068 -3.411 0
M  V30 13146 N 1282.99 1.54862 0.292472 0
M  V30 13147 C 1284.22 1.78877 1.04966 0
M  V30 13148 C 1284.64 0.550724 1.79857 0
M  V30 13149 O 1284 -0.499054 1.74296 0
M  V30 13150 C 1284.05 3.00106 1.99922 0
M  V30 13151 O 1283.15 2.73827 3.0837 0
M  V30 13152 H 1282.49 0.591802 0.301108 0
M  V30 13153 H 1285.02 2.01965 0.3273 0
M  V30 13154 H 1285.03 3.28309 2.42233 0
M  V30 13155 H 1283.71 3.89872 1.44821 0
M  V30 13156 H 1282.28 2.56665 2.70513 0
M  V30 13157 N 1284.47 -0.556076 1.47464 0
M  V30 13158 C 1285.42 -1.6586 1.56444 0
M  V30 13159 C 1286.4 -1.55233 0.423262 0
M  V30 13160 O 1287.59 -1.63696 0.673247 0
M  V30 13161 C 1284.72 -3.04633 1.58283 0
M  V30 13162 C 1283.81 -3.2046 2.77788 0
M  V30 13163 N 1284.2 -3.06347 4.02474 0
M  V30 13164 C 1282.5 -3.51462 2.74573 0
M  V30 13165 C 1283.2 -3.24893 4.82514 0
M  V30 13166 N 1282.18 -3.51278 4.14855 0
M  V30 13167 H 1285.98 -1.53519 2.50618 0
M  V30 13168 H 1283.49 -0.760862 1.43474 0
M  V30 13169 H 1285.49 -3.83797 1.62806 0
M  V30 13170 H 1284.15 -3.18085 0.652052 0
M  V30 13171 H 1285.16 -2.8365 4.33316 0
M  V30 13172 H 1281.84 -3.71434 1.90639 0
M  V30 13173 H 1283.23 -3.1894 5.91377 0
M  V30 13174 N 1285.95 -1.35615 -0.802897 0
M  V30 13175 C 1287.22 -1.19655 -1.54732 0
M  V30 13176 C 1287.6 0.222827 -2.09921 0
M  V30 13177 O 1286.95 1.2268 -1.92774 0
M  V30 13178 C 1287.16 -2.26761 -2.65293 0
M  V30 13179 C 1288.51 -2.62754 -3.33535 0
M  V30 13180 O 1289.53 -2.25702 -2.75567 0
M  V30 13181 O 1288.39 -3.26476 -4.38264 0
M  V30 13182 H 1285.49 -0.465079 -0.683835 0
M  V30 13183 H 1288.03 -1.47307 -0.84254 0
M  V30 13184 H 1286.81 -3.21946 -2.22411 0
M  V30 13185 H 1286.43 -2.00399 -3.43404 0
M  V30 13186 N 1287.43 1.02549 -1.19673 0
M  V30 13187 C 1288.39 2.09064 -0.939407 0
M  V30 13188 C 1289.39 1.60593 0.0814837 0
M  V30 13189 O 1290.58 1.73521 -0.153626 0
M  V30 13190 C 1287.71 3.38395 -0.412513 0
M  V30 13191 H 1288.9 2.33325 -1.88413 0
M  V30 13192 H 1286.46 1.19211 -1.01086 0
M  V30 13193 H 1287.19 3.19805 0.538094 0
M  V30 13194 H 1286.98 3.74898 -1.14863 0
M  V30 13195 H 1288.47 4.16841 -0.251678 0
M  V30 13196 N 1288.9 1.00119 1.21713 0
M  V30 13197 C 1290.13 0.700172 1.95224 0
M  V30 13198 C 1290.55 -0.730138 1.73351 0
M  V30 13199 O 1289.91 -1.50026 1.01794 0
M  V30 13200 C 1289.96 1.02202 3.45814 0
M  V30 13201 O 1289.06 0.125188 4.1221 0
M  V30 13202 H 1288.4 0.261238 0.610451 0
M  V30 13203 H 1290.93 1.34041 1.54578 0
M  V30 13204 H 1290.94 0.967293 3.96368 0
M  V30 13205 H 1289.62 2.06422 3.61058 0
M  V30 13206 H 1288.2 0.236114 3.72152 0
M  V30 13207 N 1290.38 -1.37203 0.775435 0
M  V30 13208 C 1291.33 -2.30228 0.162388 0
M  V30 13209 C 1292.3 -1.51284 -0.685747 0
M  V30 13210 O 1293.48 -1.7984 -0.637342 0
M  V30 13211 C 1290.62 -3.37762 -0.707858 0
M  V30 13212 C 1289.74 -4.31714 0.157287 0
M  V30 13213 C 1288.87 -5.26325 -0.718012 0
M  V30 13214 C 1287.91 -6.11918 0.149442 0
M  V30 13215 N 1287.05 -6.9876 -0.684043 0
M  V30 13216 H 1291.89 -2.82073 0.961184 0
M  V30 13217 H 1289.42 -1.38854 0.485587 0
M  V30 13218 H 1291.38 -3.98741 -1.22726 0
M  V30 13219 H 1290.01 -2.87273 -1.47222 0
M  V30 13220 H 1289.06 -3.7201 0.794533 0
M  V30 13221 H 1290.38 -4.91909 0.826262 0
M  V30 13222 H 1289.53 -5.92526 -1.30376 0
M  V30 13223 H 1288.27 -4.6655 -1.42066 0
M  V30 13224 H 1287.27 -5.44692 0.747697 0
M  V30 13225 H 1288.5 -6.73766 0.849476 0
M  V30 13226 H 1286.45 -6.41508 -1.37124 0
M  V30 13227 H 1286.36 -7.55965 -0.0724464 0
M  V30 13228 H 1287.63 -7.69346 -1.25407 0
M  V30 13229 N 1291.86 -0.526279 -1.48553 0
M  V30 13230 C 1293.11 0.00918008 -2.02798 0
M  V30 13231 C 1293.44 1.34284 -1.4029 0
M  V30 13232 O 1292.71 1.86639 -0.547355 0
M  V30 13233 C 1293 0.135102 -3.59846 0
M  V30 13234 C 1292.85 -1.22347 -4.32841 0
M  V30 13235 C 1294.17 0.863673 -4.31542 0
M  V30 13236 H 1291.29 0.00186216 -0.736998 0
M  V30 13237 H 1293.93 -0.682591 -1.77315 0
M  V30 13238 H 1292.08 0.724279 -3.81689 0
M  V30 13239 H 1293.75 -1.85347 -4.22427 0
M  V30 13240 H 1291.99 -1.80631 -3.94405 0
M  V30 13241 H 1292.67 -1.08839 -5.41164 0
M  V30 13242 H 1295.14 0.363734 -4.14507 0
M  V30 13243 H 1294.02 0.92067 -5.41124 0
M  V30 13244 H 1294.28 1.91313 -3.98562 0
M  V30 13245 N 1293.34 1.5542 -0.261239 0
M  V30 13246 C 1294.28 2.21972 0.632216 0
M  V30 13247 C 1295.25 1.18843 1.16041 0
M  V30 13248 O 1296.44 1.47339 1.21226 0
M  V30 13249 C 1293.58 2.93397 1.81693 0
M  V30 13250 C 1292.69 4.11214 1.3239 0
M  V30 13251 C 1291.83 4.70318 2.46931 0
M  V30 13252 C 1290.87 5.80355 1.94561 0
M  V30 13253 N 1290 6.33581 3.02523 0
M  V30 13254 H 1294.84 2.97944 0.058018 0
M  V30 13255 H 1292.38 1.4709 0.0168725 0
M  V30 13256 H 1294.34 3.33015 2.5131 0
M  V30 13257 H 1292.97 2.19874 2.36337 0
M  V30 13258 H 1292.02 3.76811 0.521292 0
M  V30 13259 H 1293.33 4.90609 0.900214 0
M  V30 13260 H 1292.49 5.12584 3.24565 0
M  V30 13261 H 1291.23 3.90169 2.92608 0
M  V30 13262 H 1290.23 5.37552 1.15402 0
M  V30 13263 H 1291.46 6.62364 1.49836 0
M  V30 13264 H 1289.4 5.56332 3.47608 0
M  V30 13265 H 1289.32 7.08209 2.64529 0
M  V30 13266 H 1290.59 6.80506 3.80174 0
M  V30 13267 N 1294.82 -0.0116844 1.57596 0
M  V30 13268 C 1295.78 -0.991601 2.0664 0
M  V30 13269 C 1296.78 -1.27973 0.973629 0
M  V30 13270 O 1297.97 -1.22686 1.23668 0
M  V30 13271 C 1295.1 -2.31975 2.49801 0
M  V30 13272 H 1296.29 -0.567607 2.9448 0
M  V30 13273 H 1293.85 -0.258906 1.54141 0
M  V30 13274 H 1294.58 -2.79087 1.65169 0
M  V30 13275 H 1294.37 -2.12386 3.29598 0
M  V30 13276 H 1295.86 -3.02294 2.88112 0
M  V30 13277 N 1296.29 -1.55015 -0.284256 0
M  V30 13278 C 1297.2 -1.90203 -1.37332 0
M  V30 13279 C 1298.22 -0.797994 -1.54622 0
M  V30 13280 O 1299.4 -1.09602 -1.68965 0
M  V30 13281 C 1296.46 -2.15687 -2.71441 0
M  V30 13282 C 1295.52 -3.39313 -2.62993 0
M  V30 13283 C 1294.75 -3.63571 -3.90707 0
M  V30 13284 O 1294.98 -2.90538 -4.9086 0
M  V30 13285 O 1293.91 -4.57102 -3.91589 0
M  V30 13286 H 1297.74 -2.82888 -1.1049 0
M  V30 13287 H 1295.32 -1.41418 -0.481798 0
M  V30 13288 H 1297.2 -2.33553 -3.50758 0
M  V30 13289 H 1295.88 -1.26185 -2.98092 0
M  V30 13290 H 1294.79 -3.26793 -1.82091 0
M  V30 13291 H 1296.12 -4.28997 -2.41293 0
M  V30 13292 N 1297.77 0.548248 -1.47757 0
M  V30 13293 C 1299.02 1.30243 -1.54535 0
M  V30 13294 C 1299.34 1.93832 -0.213089 0
M  V30 13295 O 1298.61 1.80397 0.763782 0
M  V30 13296 H 1297.19 0.483684 -0.569262 0
M  V30 13297 H 1299.85 0.639485 -1.8411 0
M  V30 13298 H 1298.95 2.09128 -2.31672 0
M  V30 13299 N 1299.25 1.36039 0.795694 0
M  V30 13300 C 1300.66 1.2679 1.37044 0
M  V30 13301 C 1301.01 -0.0950192 1.9597 0
M  V30 13302 O 1300.14 -0.996311 1.921 0
M  V30 13303 C 1300.73 2.29585 2.49151 0
M  V30 13304 C 1299.29 2.24044 3.02458 0
M  V30 13305 C 1298.44 2.14703 1.75493 0
M  V30 13306 H 1301.39 1.47009 0.597843 0
M  V30 13307 H 1301.41 1.92864 3.27999 0
M  V30 13308 H 1300.92 3.28769 2.06234 0
M  V30 13309 H 1299.02 1.28307 3.49812 0
M  V30 13310 H 1299.14 3.1647 3.597 0
M  V30 13311 H 1297.5 1.60856 1.97478 0
M  V30 13312 H 1298.28 3.15765 1.34713 0
M  V30 13313 N 1300.73 -1.01913 1.20215 0
M  V30 13314 C 1301.98 -1.75124 1.00876 0
M  V30 13315 C 1302.3 -1.89485 -0.460475 0
M  V30 13316 O 1301.57 -1.43552 -1.33302 0
M  V30 13317 H 1300.15 -0.648777 0.370266 0
M  V30 13318 H 1302.81 -1.22883 1.5128 0
M  V30 13319 H 1301.91 -2.7558 1.46499 0
M  V30 13320 N 1302.21 -1.00763 -1.2118 0
M  V30 13321 C 1303.14 -0.590493 -2.2591 0
M  V30 13322 C 1304.12 0.390002 -1.65569 0
M  V30 13323 O 1305.3 0.277406 -1.92208 0
M  V30 13324 C 1302.43 0.0810388 -3.47205 0
M  V30 13325 C 1301.39 -0.81951 -4.20081 0
M  V30 13326 C 1300.71 -0.014244 -5.34698 0
M  V30 13327 C 1302.01 -2.12336 -4.7719 0
M  V30 13328 H 1303.71 -1.46595 -2.61056 0
M  V30 13329 H 1301.25 -0.706321 -1.25487 0
M  V30 13330 H 1303.21 0.384355 -4.19644 0
M  V30 13331 H 1301.93 0.991145 -3.11197 0
M  V30 13332 H 1300.59 -1.10669 -3.49497 0
M  V30 13333 H 1300.24 0.897233 -4.94933 0
M  V30 13334 H 1299.94 -0.613883 -5.84384 0
M  V30 13335 H 1301.46 0.282827 -6.09945 0
M  V30 13336 H 1302.87 -1.88301 -5.41494 0
M  V30 13337 H 1301.27 -2.67308 -5.37277 0
M  V30 13338 H 1302.34 -2.79238 -3.96427 0
M  V30 13339 N 1303.68 1.3679 -0.7827 0
M  V30 13340 C 1304.91 2.04206 -0.362571 0
M  V30 13341 C 1305.33 1.58637 1.01074 0
M  V30 13342 O 1304.69 0.751692 1.64983 0
M  V30 13343 C 1304.74 3.58062 -0.4271 0
M  V30 13344 O 1303.84 4.08463 0.56845 0
M  V30 13345 H 1303.19 0.645638 -0.155073 0
M  V30 13346 H 1305.72 1.74883 -1.06194 0
M  V30 13347 H 1305.73 4.0698 -0.288298 0
M  V30 13348 H 1304.4 3.90582 -1.42893 0
M  V30 13349 H 1302.98 3.70835 0.391863 0
M  V30 13350 N 1305.16 0.53415 1.48272 0
M  V30 13351 C 1306.58 0.192291 1.58437 0
M  V30 13352 C 1306.78 -1.3046 1.53566 0
M  V30 13353 O 1305.83 -2.08316 1.42692 0
M  V30 13354 C 1307.15 0.798515 2.89904 0
M  V30 13355 C 1308.7 0.76763 3.03441 0
M  V30 13356 C 1309.17 1.3525 4.37574 0
M  V30 13357 N 1310.66 1.31466 4.44152 0
M  V30 13358 C 1311.4 1.73706 5.46456 0
M  V30 13359 N 1310.89 2.23695 6.55692 0
M  V30 13360 N 1312.69 1.64918 5.37363 0
M  V30 13361 H 1304.84 1.50696 1.49681 0
M  V30 13362 H 1307.1 0.627073 0.710973 0
M  V30 13363 H 1306.81 1.8496 2.99136 0
M  V30 13364 H 1306.68 0.278033 3.76174 0
M  V30 13365 H 1309.07 -0.274704 2.93819 0
M  V30 13366 H 1309.15 1.32562 2.18771 0
M  V30 13367 H 1308.79 2.39379 4.47951 0
M  V30 13368 H 1308.72 0.770153 5.20938 0
M  V30 13369 H 1311.21 0.948761 3.65796 0
M  V30 13370 H 1311.53 2.5391 7.29897 0
M  V30 13371 H 1309.87 2.27691 6.56644 0
M  V30 13372 H 1313.06 1.25658 4.50919 0
M  V30 13373 H 1313.23 1.98157 6.16958 0
M  V30 13374 N 1306.64 -1.55279 0.269478 0
M  V30 13375 C 1307.87 -2.03876 -0.352418 0
M  V30 13376 C 1308.28 -1.14804 -1.49885 0
M  V30 13377 O 1307.64 -0.166989 -1.81734 0
M  V30 13378 C 1307.69 -3.51634 -0.838799 0
M  V30 13379 O 1307.41 -4.37316 0.261972 0
M  V30 13380 C 1308.91 -4.16094 -1.52909 0
M  V30 13381 H 1306.13 -0.66608 -0.0811043 0
M  V30 13382 H 1308.68 -2.00551 0.399929 0
M  V30 13383 H 1306.83 -3.55421 -1.54125 0
M  V30 13384 H 1307.25 -5.24383 -0.111013 0
M  V30 13385 H 1308.72 -5.21102 -1.82089 0
M  V30 13386 H 1309.2 -3.63928 -2.45872 0
M  V30 13387 H 1309.8 -4.16293 -0.87063 0
M  V30 13388 N 1308.12 0.00332656 -1.576 0
M  V30 13389 C 1309.37 0.687508 -1.90047 0
M  V30 13390 C 1309.69 1.74497 -0.870388 0
M  V30 13391 O 1308.96 1.95681 0.0926544 0
M  V30 13392 H 1307.54 0.256924 -0.701426 0
M  V30 13393 H 1310.2 -0.0368129 -1.94865 0
M  V30 13394 H 1309.3 1.16086 -2.89707 0
M  V30 13395 N 1309.6 1.55164 0.276031 0
M  V30 13396 C 1310.84 1.75887 1.00953 0
M  V30 13397 C 1311.18 0.5567 1.8605 0
M  V30 13398 O 1310.45 -0.445799 1.89322 0
M  V30 13399 C 1310.73 3.06228 1.89463 0
M  V30 13400 C 1310.59 4.36795 1.07379 0
M  V30 13401 C 1311.91 3.32589 2.88223 0
M  V30 13402 H 1309.02 0.639929 0.365596 0
M  V30 13403 H 1311.67 1.87893 0.282156 0
M  V30 13404 H 1309.82 2.96124 2.51481 0
M  V30 13405 H 1311.49 4.58853 0.474549 0
M  V30 13406 H 1309.73 4.32157 0.377165 0
M  V30 13407 H 1310.4 5.24315 1.72621 0
M  V30 13408 H 1312.88 3.42467 2.36338 0
M  V30 13409 H 1311.75 4.2506 3.47297 0
M  V30 13410 H 1312.02 2.52083 3.6319 0
M  V30 13411 N 1311.07 -0.540404 1.48045 0
M  V30 13412 C 1311.98 -1.67308 1.64455 0
M  V30 13413 C 1313 -1.65823 0.527152 0
M  V30 13414 O 1314.18 -1.84964 0.796881 0
M  V30 13415 C 1311.24 -3.03792 1.67068 0
M  V30 13416 C 1310.3 -3.16213 2.90358 0
M  V30 13417 C 1309.54 -4.46187 2.92837 0
M  V30 13418 O 1309.76 -5.32662 2.04029 0
M  V30 13419 O 1308.69 -4.62754 3.84892 0
M  V30 13420 H 1312.52 -1.56403 2.6033 0
M  V30 13421 H 1310.1 -0.712323 1.31325 0
M  V30 13422 H 1311.99 -3.84982 1.71368 0
M  V30 13423 H 1310.66 -3.15043 0.74363 0
M  V30 13424 H 1309.57 -2.34357 2.91595 0
M  V30 13425 H 1310.9 -3.09874 3.82412 0
M  V30 13426 N 1312.55 -1.36459 -0.788468 0
M  V30 13427 C 1313.48 -1.33545 -1.91541 0
M  V30 13428 C 1314.46 -0.206762 -1.68839 0
M  V30 13429 O 1315.65 -0.404553 -1.89939 0
M  V30 13430 C 1312.78 -1.12492 -3.28577 0
M  V30 13431 C 1311.73 -2.22196 -3.65805 0
M  V30 13432 C 1311.06 -1.86285 -5.01201 0
M  V30 13433 C 1312.36 -3.64286 -3.7429 0
M  V30 13434 H 1314.05 -2.27844 -1.94236 0
M  V30 13435 H 1311.6 -1.09677 -0.933105 0
M  V30 13436 H 1313.55 -1.09089 -4.07035 0
M  V30 13437 H 1312.28 -0.146446 -3.26272 0
M  V30 13438 H 1310.93 -2.24727 -2.89644 0
M  V30 13439 H 1310.58 -0.87009 -4.95417 0
M  V30 13440 H 1310.28 -2.59734 -5.27079 0
M  V30 13441 H 1311.81 -1.84439 -5.82078 0
M  V30 13442 H 1313.22 -3.63977 -4.42937 0
M  V30 13443 H 1311.62 -4.36648 -4.11653 0
M  V30 13444 H 1312.69 -3.99123 -2.75371 0
M  V30 13445 N 1314.03 1.01274 -1.20754 0
M  V30 13446 C 1315.28 1.74586 -1.01804 0
M  V30 13447 C 1315.6 1.89727 0.450419 0
M  V30 13448 O 1314.87 1.44257 1.32539 0
M  V30 13449 H 1313.45 0.646804 -0.373702 0
M  V30 13450 H 1316.11 1.22079 -1.5193 0
M  V30 13451 H 1315.21 2.748 -1.47958 0
M  V30 13452 N 1315.51 1.01404 1.20644 0
M  V30 13453 C 1316.46 0.582109 2.23339 0
M  V30 13454 C 1317.43 -0.39649 1.61298 0
M  V30 13455 O 1318.61 -0.296504 1.88482 0
M  V30 13456 C 1315.75 -0.076029 3.45016 0
M  V30 13457 C 1314.86 0.946829 4.21496 0
M  V30 13458 C 1314 0.26001 5.30563 0
M  V30 13459 C 1313.04 1.2698 5.98784 0
M  V30 13460 N 1312.18 0.609827 6.99447 0
M  V30 13461 H 1317.02 1.46248 2.59645 0
M  V30 13462 H 1314.55 0.732145 1.27585 0
M  V30 13463 H 1316.51 -0.474714 4.1449 0
M  V30 13464 H 1315.14 -0.920062 3.0941 0
M  V30 13465 H 1314.19 1.4637 3.51113 0
M  V30 13466 H 1315.5 1.71491 4.68393 0
M  V30 13467 H 1314.66 -0.19431 6.06389 0
M  V30 13468 H 1313.4 -0.540395 4.84697 0
M  V30 13469 H 1312.4 1.73453 5.21722 0
M  V30 13470 H 1313.63 2.07144 6.46737 0
M  V30 13471 H 1311.57 -0.170756 6.55778 0
M  V30 13472 H 1311.49 1.31601 7.44458 0
M  V30 13473 H 1312.76 0.179014 7.79294 0
M  V30 13474 N 1316.99 -1.36373 0.789944 0
M  V30 13475 C 1318.4 -1.81783 0.425677 0
M  V30 13476 C 1318.75 -1.65711 -1.05045 0
M  V30 13477 O 1317.87 -1.17835 -1.81505 0
M  V30 13478 C 1318.47 -3.3003 0.765866 0
M  V30 13479 C 1317.03 -3.73647 0.454421 0
M  V30 13480 C 1316.18 -2.58632 1.00023 0
M  V30 13481 H 1319.13 -1.24587 0.983044 0
M  V30 13482 H 1319.15 -3.80457 0.0571624 0
M  V30 13483 H 1318.66 -3.41696 1.84026 0
M  V30 13484 H 1316.76 -3.67541 -0.611918 0
M  V30 13485 H 1316.87 -4.69066 0.975401 0
M  V30 13486 H 1315.24 -2.51156 0.423434 0
M  V30 13487 H 1316.02 -2.73083 2.0804 0
M  V30 13488 N 1318.47 -0.542005 -1.47987 0
M  V30 13489 C 1319.69 -0.016717 -2.06893 0
M  V30 13490 C 1320.11 1.27015 -1.39687 0
M  V30 13491 O 1319.47 1.75845 -0.488326 0
M  V30 13492 C 1319.52 0.198437 -3.60955 0
M  V30 13493 O 1319.24 -1.03746 -4.25639 0
M  V30 13494 C 1320.74 0.762741 -4.36689 0
M  V30 13495 H 1317.96 -0.0389497 -0.669869 0
M  V30 13496 H 1320.5 -0.751082 -1.90208 0
M  V30 13497 H 1318.66 0.882884 -3.77205 0
M  V30 13498 H 1319.07 -0.82568 -5.1796 0
M  V30 13499 H 1320.55 0.862649 -5.45218 0
M  V30 13500 H 1321.02 1.77049 -4.01933 0
M  V30 13501 H 1321.63 0.114478 -4.25146 0
M  V30 13502 N 1319.94 1.55134 -0.277709 0
M  V30 13503 C 1320.89 2.19317 0.623216 0
M  V30 13504 C 1321.88 1.15863 1.11645 0
M  V30 13505 O 1323.07 1.41668 1.0611 0
M  V30 13506 C 1320.2 2.91976 1.80568 0
M  V30 13507 C 1319.28 4.02722 1.3295 0
M  V30 13508 N 1319.68 5.02582 0.569654 0
M  V30 13509 C 1317.97 4.1584 1.61224 0
M  V30 13510 C 1318.67 5.80825 0.318983 0
M  V30 13511 N 1317.65 5.36229 0.892145 0
M  V30 13512 H 1321.45 2.93879 0.0348669 0
M  V30 13513 H 1318.97 1.62196 -0.0813871 0
M  V30 13514 H 1320.96 3.36408 2.46242 0
M  V30 13515 H 1319.62 2.18925 2.39796 0
M  V30 13516 H 1320.63 5.17446 0.216749 0
M  V30 13517 H 1317.31 3.53981 2.21368 0
M  V30 13518 H 1318.7 6.71275 -0.289742 0
M  V30 13519 N 1321.42 0.00503138 1.57599 0
M  V30 13520 C 1322.67 -0.678761 1.90785 0
M  V30 13521 C 1323 -1.73499 0.87911 0
M  V30 13522 O 1322.25 -1.95359 -0.115418 0
M  V30 13523 C 1322.55 -1.35485 3.30724 0
M  V30 13524 C 1322.22 -0.431335 4.48832 0
M  V30 13525 C 1320.88 -0.177078 4.80874 0
M  V30 13526 C 1323.23 0.204219 5.208 0
M  V30 13527 C 1320.56 0.720944 5.82254 0
M  V30 13528 C 1322.91 1.09015 6.23136 0
M  V30 13529 C 1321.57 1.35353 6.53633 0
M  V30 13530 H 1320.84 -0.248376 0.698133 0
M  V30 13531 H 1323.49 0.061638 1.91401 0
M  V30 13532 H 1321.8 -2.16942 3.26257 0
M  V30 13533 H 1323.49 -1.89007 3.53663 0
M  V30 13534 H 1320.08 -0.639676 4.238 0
M  V30 13535 H 1324.27 0.0208074 4.96296 0
M  V30 13536 H 1319.52 0.93296 6.0424 0
M  V30 13537 H 1323.7 1.58894 6.78031 0
M  V30 13538 H 1321.32 2.05107 7.32008 0
M  V30 13539 N 1322.9 -1.55308 -0.267798 0
M  V30 13540 C 1324.13 -1.80191 -1.01681 0
M  V30 13541 C 1324.54 -0.57783 -1.7974 0
M  V30 13542 O 1323.9 0.4532 -1.76783 0
M  V30 13543 C 1323.95 -3.03023 -1.97127 0
M  V30 13544 O 1323.67 -4.20704 -1.22229 0
M  V30 13545 C 1325.17 -3.40549 -2.83798 0
M  V30 13546 H 1322.39 -0.60013 -0.300142 0
M  V30 13547 H 1324.94 -2.02332 -0.297007 0
M  V30 13548 H 1323.09 -2.82993 -2.64563 0
M  V30 13549 H 1323.51 -4.90181 -1.86608 0
M  V30 13550 H 1324.98 -4.29653 -3.46557 0
M  V30 13551 H 1325.46 -2.60186 -3.53836 0
M  V30 13552 H 1326.06 -3.62856 -2.21846 0
M  V30 13553 N 1324.38 0.532545 -1.4833 0
M  V30 13554 C 1325.62 1.29042 -1.56448 0
M  V30 13555 C 1325.96 1.92754 -0.236532 0
M  V30 13556 O 1325.23 1.79154 0.757237 0
M  V30 13557 C 1325.51 2.38173 -2.70084 0
M  V30 13558 C 1325.37 1.79169 -4.12576 0
M  V30 13559 C 1326.69 3.39957 -2.79495 0
M  V30 13560 H 1323.81 0.467816 -0.569488 0
M  V30 13561 H 1326.45 0.593517 -1.80492 0
M  V30 13562 H 1324.6 2.97616 -2.49714 0
M  V30 13563 H 1326.27 1.23797 -4.44378 0
M  V30 13564 H 1324.51 1.09716 -4.19696 0
M  V30 13565 H 1325.18 2.58174 -4.87904 0
M  V30 13566 H 1327.66 2.90466 -2.97941 0
M  V30 13567 H 1326.54 4.13714 -3.60739 0
M  V30 13568 H 1326.8 4.00347 -1.87548 0
M  V30 13569 N 1325.86 1.36875 0.78122 0
M  V30 13570 C 1326.8 1.31941 1.91557 0
M  V30 13571 C 1327.8 0.209783 1.68096 0
M  V30 13572 O 1329 0.377266 1.76002 0
M  V30 13573 H 1325.38 0.410955 0.629778 0
M  V30 13574 H 1327.35 2.27721 1.92836 0
M  V30 13575 C 1326.1 1.13379 3.28695 0
M  V30 13576 H 1325.42 1.98013 3.47319 0
M  V30 13577 H 1326.86 1.13976 4.08394 0
M  V30 13578 C 1325.32 -0.161119 3.36515 0
M  V30 13579 O 1325.85 -1.14806 3.84945 0
M  V30 13580 N 1324.06 -0.208594 2.8985 0
M  V30 13581 H 1323.6 0.595187 2.5063 0
M  V30 13582 H 1323.56 -1.07465 2.95463 0
M  V30 13583 N 1327.33 -1.00632 1.21289 0
M  V30 13584 C 1328.3 -2.07543 0.972548 0
M  V30 13585 C 1329.3 -1.60703 -0.0559244 0
M  V30 13586 O 1330.49 -1.73255 0.181213 0
M  V30 13587 C 1327.62 -3.37696 0.466297 0
M  V30 13588 H 1328.81 -2.30298 1.92101 0
M  V30 13589 H 1326.36 -1.17588 1.02969 0
M  V30 13590 H 1327.1 -3.2062 -0.487148 0
M  V30 13591 H 1326.88 -3.73024 1.20813 0
M  V30 13592 H 1328.37 -4.16388 0.317962 0
M  V30 13593 N 1328.81 -1.02043 -1.20104 0
M  V30 13594 C 1329.76 -0.593945 -2.23027 0
M  V30 13595 C 1330.73 0.387931 -1.61506 0
M  V30 13596 O 1331.91 0.286504 -1.88637 0
M  V30 13597 C 1329.05 0.0577309 -3.45052 0
M  V30 13598 C 1328.17 -0.969169 -4.20988 0
M  V30 13599 C 1327.3 -0.288143 -5.30418 0
M  V30 13600 C 1326.34 -1.30154 -5.98102 0
M  V30 13601 N 1325.48 -0.646912 -6.99113 0
M  V30 13602 H 1330.32 -1.47623 -2.58866 0
M  V30 13603 H 1327.85 -0.738901 -1.27195 0
M  V30 13604 H 1329.81 0.452726 -4.14736 0
M  V30 13605 H 1328.44 0.90364 -3.09894 0
M  V30 13606 H 1327.49 -1.48229 -3.50332 0
M  V30 13607 H 1328.81 -1.73972 -4.67477 0
M  V30 13608 H 1327.96 0.162149 -6.06483 0
M  V30 13609 H 1326.7 0.514683 -4.84977 0
M  V30 13610 H 1325.7 -1.76218 -5.20795 0
M  V30 13611 H 1326.93 -2.10571 -6.45629 0
M  V30 13612 H 1324.88 0.135976 -6.55859 0
M  V30 13613 H 1324.79 -1.35548 -7.43749 0
M  V30 13614 H 1326.06 -0.220339 -7.79189 0
M  V30 13615 N 1330.29 1.35952 -0.797165 0
M  V30 13616 C 1331.25 2.28266 -0.206748 0
M  V30 13617 C 1332.25 1.49169 0.60043 0
M  V30 13618 O 1333.44 1.69054 0.42029 0
M  V30 13619 C 1330.58 3.33363 0.712884 0
M  V30 13620 H 1331.77 2.81992 -1.02082 0
M  V30 13621 H 1329.32 1.45648 -0.567138 0
M  V30 13622 H 1330.06 2.84806 1.551 0
M  V30 13623 H 1329.84 3.91864 0.135926 0
M  V30 13624 H 1331.33 4.02284 1.1206 0
M  V30 13625 N 1331.77 0.549846 1.47697 0
M  V30 13626 C 1332.73 -0.191427 2.28399 0
M  V30 13627 C 1333.73 -0.849533 1.36527 0
M  V30 13628 O 1334.92 -0.706526 1.59229 0
M  V30 13629 C 1332.05 -1.27907 3.15995 0
M  V30 13630 H 1333.25 0.517375 2.95404 0
M  V30 13631 H 1330.8 0.30651 1.53265 0
M  V30 13632 H 1331.53 -2.0205 2.53665 0
M  V30 13633 H 1331.32 -0.812066 3.83599 0
M  V30 13634 H 1332.81 -1.79992 3.76819 0
M  V30 13635 N 1333.25 -1.54984 0.285932 0
M  V30 13636 C 1334.49 -1.99436 -0.32709 0
M  V30 13637 C 1334.82 -1.17582 -1.55562 0
M  V30 13638 O 1334.09 -0.268002 -1.94058 0
M  V30 13639 H 1332.67 -0.736662 -0.123846 0
M  V30 13640 H 1335.33 -1.90881 0.393774 0
M  V30 13641 H 1334.42 -3.0609 -0.609523 0
M  V30 13642 N 1334.72 -0.0133892 -1.57594 0
M  V30 13643 C 1335.67 0.97367 -2.09257 0
M  V30 13644 C 1336.64 1.33298 -0.990998 0
M  V30 13645 O 1337.83 1.42903 -1.26425 0
M  V30 13646 C 1334.97 2.25603 -2.61147 0
M  V30 13647 C 1334.08 1.95456 -3.85254 0
M  V30 13648 C 1333.21 3.17871 -4.25596 0
M  V30 13649 C 1332.25 2.83471 -5.42504 0
M  V30 13650 N 1331.39 3.98464 -5.78075 0
M  V30 13651 H 1336.23 0.526189 -2.93318 0
M  V30 13652 H 1333.77 0.248148 -1.44992 0
M  V30 13653 H 1335.73 3.00587 -2.89315 0
M  V30 13654 H 1334.36 2.67995 -1.7994 0
M  V30 13655 H 1333.41 1.10781 -3.63912 0
M  V30 13656 H 1334.72 1.6611 -4.70328 0
M  V30 13657 H 1333.87 4.0119 -4.55117 0
M  V30 13658 H 1332.61 3.50365 -3.39257 0
M  V30 13659 H 1331.62 1.98562 -5.12692 0
M  V30 13660 H 1332.84 2.5221 -6.30529 0
M  V30 13661 H 1330.79 4.3083 -4.94694 0
M  V30 13662 H 1330.71 3.72688 -6.57753 0
M  V30 13663 H 1331.97 4.82532 -6.12195 0
M  V30 13664 N 1336.2 1.55448 0.259558 0
M  V30 13665 C 1337.45 1.76337 0.987396 0
M  V30 13666 C 1337.77 0.57505 1.86328 0
M  V30 13667 O 1337.04 -0.409621 1.9157 0
M  V30 13668 H 1335.62 0.650312 0.367565 0
M  V30 13669 H 1338.28 1.9287 0.280551 0
M  V30 13670 H 1337.38 2.66975 1.61651 0
M  V30 13671 N 1337.68 -0.524672 1.4861 0
M  V30 13672 C 1338.63 -1.62872 1.63527 0
M  V30 13673 C 1339.6 -1.59097 0.477202 0
M  V30 13674 O 1340.78 -1.77443 0.701341 0
M  V30 13675 C 1337.92 -3.01116 1.68592 0
M  V30 13676 C 1337.04 -3.15085 2.95542 0
M  V30 13677 C 1336.17 -4.4392 2.91734 0
M  V30 13678 C 1335.21 -4.51436 4.13366 0
M  V30 13679 N 1334.35 -5.71667 4.07605 0
M  V30 13680 H 1339.19 -1.49462 2.57808 0
M  V30 13681 H 1336.72 -0.727578 1.27846 0
M  V30 13682 H 1338.68 -3.81212 1.6951 0
M  V30 13683 H 1337.31 -3.13285 0.777975 0
M  V30 13684 H 1336.36 -2.28207 3.04345 0
M  V30 13685 H 1337.68 -3.165 3.85524 0
M  V30 13686 H 1336.83 -5.32312 2.91083 0
M  V30 13687 H 1335.57 -4.45034 1.9949 0
M  V30 13688 H 1334.57 -3.6145 4.14287 0
M  V30 13689 H 1335.8 -4.52057 5.06776 0
M  V30 13690 H 1333.74 -5.73668 3.18184 0
M  V30 13691 H 1333.66 -5.74599 4.91297 0
M  V30 13692 H 1334.93 -6.62331 4.1102 0
M  V30 13693 N 1339.16 -1.37287 -0.77395 0
M  V30 13694 C 1340.09 -1.35569 -1.90114 0
M  V30 13695 C 1341.07 -0.224658 -1.6861 0
M  V30 13696 O 1342.25 -0.424676 -1.895 0
M  V30 13697 C 1339.38 -1.15971 -3.27365 0
M  V30 13698 C 1338.34 -2.26063 -3.63427 0
M  V30 13699 C 1337.66 -1.9159 -4.99197 0
M  V30 13700 C 1338.96 -3.68236 -3.70405 0
M  V30 13701 H 1340.66 -2.29891 -1.91808 0
M  V30 13702 H 1338.2 -1.10661 -0.92142 0
M  V30 13703 H 1340.16 -1.134 -4.05855 0
M  V30 13704 H 1338.88 -0.181043 -3.26098 0
M  V30 13705 H 1337.54 -2.27786 -2.87244 0
M  V30 13706 H 1337.19 -0.922586 -4.94467 0
M  V30 13707 H 1336.89 -2.65309 -5.24294 0
M  V30 13708 H 1338.41 -1.90602 -5.80089 0
M  V30 13709 H 1339.83 -3.68655 -4.39052 0
M  V30 13710 H 1338.22 -4.4099 -4.06999 0
M  V30 13711 H 1339.29 -4.02021 -2.71122 0
M  V30 13712 N 1340.64 0.999871 -1.21821 0
M  V30 13713 C 1341.91 1.71135 -0.947213 0
M  V30 13714 C 1342.29 2.04087 0.539601 0
M  V30 13715 O 1341.64 1.71866 1.5058 0
M  V30 13716 C 1341.85 2.96704 -1.8376 0
M  V30 13717 C 1343.2 3.69627 -2.08952 0
M  V30 13718 O 1344.22 3.06697 -1.81151 0
M  V30 13719 O 1343.08 4.82832 -2.55999 0
M  V30 13720 H 1340.18 0.746631 -0.355628 0
M  V30 13721 H 1342.72 1.05684 -1.32774 0
M  V30 13722 H 1341.49 2.68802 -2.84361 0
M  V30 13723 H 1341.12 3.69894 -1.45821 0
M  V30 13724 N 1342.11 1.02678 1.19562 0
M  V30 13725 C 1343.36 0.723086 1.89471 0
M  V30 13726 C 1343.69 -0.746269 1.79289 0
M  V30 13727 O 1342.97 -1.54322 1.18384 0
M  V30 13728 C 1343.25 1.17224 3.40486 0
M  V30 13729 C 1343.1 2.70266 3.5955 0
M  V30 13730 C 1344.42 0.751397 4.33638 0
M  V30 13731 H 1341.54 0.264155 0.688034 0
M  V30 13732 H 1344.18 1.27633 1.40747 0
M  V30 13733 H 1342.33 0.701544 3.82113 0
M  V30 13734 H 1344.01 3.25266 3.27108 0
M  V30 13735 H 1342.25 3.10758 3.02675 0
M  V30 13736 H 1342.92 2.96748 4.65451 0
M  V30 13737 H 1345.4 1.15621 3.99714 0
M  V30 13738 H 1344.27 1.09358 5.37896 0
M  V30 13739 H 1344.53 -0.346367 4.40741 0
M  V30 13740 N 1343.59 -1.35528 0.804364 0
M  V30 13741 C 1344.52 -2.28562 0.170893 0
M  V30 13742 C 1345.54 -1.50178 -0.628526 0
M  V30 13743 O 1346.73 -1.72438 -0.461252 0
M  V30 13744 C 1343.83 -3.29792 -0.780434 0
M  V30 13745 C 1343 -4.37391 -0.0278619 0
M  V30 13746 C 1342.06 -5.18492 -0.897341 0
M  V30 13747 O 1341.08 -5.68128 -0.349098 0
M  V30 13748 N 1342.29 -5.36385 -2.21971 0
M  V30 13749 H 1345.05 -2.83565 0.970108 0
M  V30 13750 H 1342.61 -1.47854 0.659617 0
M  V30 13751 H 1344.6 -3.80939 -1.36628 0
M  V30 13752 H 1343.17 -2.7532 -1.48046 0
M  V30 13753 H 1342.39 -3.87208 0.739178 0
M  V30 13754 H 1343.68 -5.06426 0.490889 0
M  V30 13755 H 1343.08 -4.97699 -2.6891 0
M  V30 13756 H 1341.64 -5.90721 -2.75485 0
M  V30 13757 N 1345.07 -0.557671 -1.47404 0
M  V30 13758 C 1346.32 -0.0337884 -2.02472 0
M  V30 13759 C 1346.65 1.31624 -1.43197 0
M  V30 13760 O 1345.9 1.86989 -0.577366 0
M  V30 13761 C 1346.2 0.108324 -3.57236 0
M  V30 13762 C 1345.87 -1.17088 -4.35432 0
M  V30 13763 C 1344.53 -1.5214 -4.56516 0
M  V30 13764 C 1346.88 -2.01854 -4.80525 0
M  V30 13765 C 1344.21 -2.71803 -5.19942 0
M  V30 13766 C 1346.56 -3.2072 -5.45272 0
M  V30 13767 C 1345.22 -3.56085 -5.64588 0
M  V30 13768 H 1344.49 -0.012364 -0.740897 0
M  V30 13769 H 1347.14 -0.729276 -1.7707 0
M  V30 13770 H 1345.45 0.886781 -3.81633 0
M  V30 13771 H 1347.14 0.529031 -3.97495 0
M  V30 13772 H 1343.73 -0.887952 -4.19301 0
M  V30 13773 H 1347.92 -1.76081 -4.64014 0
M  V30 13774 H 1343.17 -2.99371 -5.33092 0
M  V30 13775 H 1347.35 -3.86689 -5.79176 0
M  V30 13776 H 1344.97 -4.48903 -6.13506 0
M  V30 13777 N 1346.55 1.54831 -0.294147 0
M  V30 13778 C 1347.77 2.04873 0.32276 0
M  V30 13779 C 1348.2 1.17034 1.47257 0
M  V30 13780 O 1347.56 0.172949 1.80473 0
M  V30 13781 C 1347.61 3.52431 0.76319 0
M  V30 13782 O 1346.71 3.67635 1.86865 0
M  V30 13783 H 1346.05 0.660926 0.0638162 0
M  V30 13784 H 1348.58 1.99944 -0.433995 0
M  V30 13785 H 1348.59 3.94155 1.05385 0
M  V30 13786 H 1347.27 4.15827 -0.0779464 0
M  V30 13787 H 1345.84 3.37816 1.57907 0
M  V30 13788 N 1348.03 0.0217466 1.57585 0
M  V30 13789 C 1349.28 -0.657187 1.91116 0
M  V30 13790 C 1349.6 -1.7309 0.898039 0
M  V30 13791 O 1348.87 -1.95803 -0.0615116 0
M  V30 13792 H 1347.45 -0.245732 0.705425 0
M  V30 13793 H 1350.11 0.0678096 1.94782 0
M  V30 13794 H 1349.2 -1.11462 2.91518 0
M  V30 13795 N 1349.51 -1.55583 -0.251311 0
M  V30 13796 C 1350.44 -1.9296 -1.31486 0
M  V30 13797 C 1351.42 -0.794001 -1.50431 0
M  V30 13798 O 1352.6 -1.05393 -1.63113 0
M  V30 13799 C 1349.73 -2.22046 -2.67045 0
M  V30 13800 C 1348.69 -3.37816 -2.62801 0
M  V30 13801 C 1348.01 -3.52433 -4.02113 0
M  V30 13802 C 1349.31 -4.73626 -2.20171 0
M  V30 13803 H 1351.01 -2.82046 -1.00451 0
M  V30 13804 H 1348.55 -1.35702 -0.481775 0
M  V30 13805 H 1350.5 -2.46783 -3.41579 0
M  V30 13806 H 1349.23 -1.29782 -2.99707 0
M  V30 13807 H 1347.89 -3.13081 -1.90724 0
M  V30 13808 H 1347.54 -2.57597 -4.32034 0
M  V30 13809 H 1347.24 -4.30283 -4.00163 0
M  V30 13810 H 1348.76 -3.79486 -4.78354 0
M  V30 13811 H 1350.17 -4.97764 -2.84436 0
M  V30 13812 H 1348.57 -5.54547 -2.29341 0
M  V30 13813 H 1349.64 -4.70985 -1.1533 0
M  V30 13814 N 1350.98 0.516783 -1.48886 0
M  V30 13815 C 1352.21 1.29628 -1.61258 0
M  V30 13816 C 1352.63 1.86744 -0.27786 0
M  V30 13817 O 1351.98 1.67061 0.734639 0
M  V30 13818 C 1352.03 2.43779 -2.66935 0
M  V30 13819 O 1351.76 1.89014 -3.95228 0
M  V30 13820 C 1353.26 3.35398 -2.89867 0
M  V30 13821 H 1350.48 0.393736 -0.543335 0
M  V30 13822 H 1353.02 0.622069 -1.94809 0
M  V30 13823 H 1351.18 3.0706 -2.36206 0
M  V30 13824 H 1351.59 2.63833 -4.53312 0
M  V30 13825 H 1353.06 4.11812 -3.6758 0
M  V30 13826 H 1353.54 3.91436 -1.99185 0
M  V30 13827 H 1354.15 2.77898 -3.21952 0
M  V30 13828 N 1352.46 1.37696 0.766659 0
M  V30 13829 C 1353.41 1.33871 1.88009 0
M  V30 13830 C 1354.38 0.2034 1.6485 0
M  V30 13831 O 1355.56 0.393569 1.86697 0
M  V30 13832 C 1352.7 1.1566 3.25141 0
M  V30 13833 C 1351.82 2.38465 3.6022 0
M  V30 13834 C 1350.95 2.13087 4.86587 0
M  V30 13835 C 1349.99 3.31732 5.14413 0
M  V30 13836 N 1349.13 3.05872 6.3197 0
M  V30 13837 H 1353.97 2.29065 1.90613 0
M  V30 13838 H 1351.5 1.13821 0.931837 0
M  V30 13839 H 1353.46 1.03122 4.04255 0
M  V30 13840 H 1352.09 0.241115 3.21898 0
M  V30 13841 H 1351.14 2.61725 2.76051 0
M  V30 13842 H 1352.46 3.26933 3.76718 0
M  V30 13843 H 1351.61 1.97609 5.73616 0
M  V30 13844 H 1350.35 1.21965 4.72203 0
M  V30 13845 H 1349.35 3.47743 4.25858 0
M  V30 13846 H 1350.58 4.23712 5.30702 0
M  V30 13847 H 1348.53 2.17384 6.18935 0
M  V30 13848 H 1348.44 3.87885 6.48908 0
M  V30 13849 H 1349.71 2.94023 7.21922 0
M  V30 13850 N 1353.94 -0.993397 1.22349 0
M  V30 13851 C 1355.19 -1.72945 1.04568 0
M  V30 13852 C 1355.51 -1.90419 -0.420178 0
M  V30 13853 O 1354.78 -1.46348 -1.30227 0
M  V30 13854 H 1353.36 -0.640777 0.383945 0
M  V30 13855 H 1356.02 -1.19647 1.53853 0
M  V30 13856 H 1355.12 -2.72411 1.52311 0
M  V30 13857 N 1355.42 -1.03311 -1.19015 0
M  V30 13858 C 1356.69 -0.646539 -1.84606 0
M  V30 13859 C 1357.07 0.87449 -1.92135 0
M  V30 13860 O 1356.42 1.77291 -1.44154 0
M  V30 13861 C 1356.63 -1.31354 -3.23338 0
M  V30 13862 C 1357.98 -1.43949 -3.99455 0
M  V30 13863 O 1359 -1.27104 -3.32751 0
M  V30 13864 O 1357.86 -1.71328 -5.1895 0
M  V30 13865 H 1354.96 -0.225267 -0.795728 0
M  V30 13866 H 1357.5 -1.13152 -1.2647 0
M  V30 13867 H 1356.28 -2.3521 -3.12717 0
M  V30 13868 H 1355.9 -0.816688 -3.89122 0
M  V30 13869 N 1356.9 1.35099 -0.81154 0
M  V30 13870 C 1357.86 2.28033 -0.230947 0
M  V30 13871 C 1358.86 1.49798 0.584575 0
M  V30 13872 O 1360.05 1.6949 0.402336 0
M  V30 13873 C 1357.18 3.341 0.677486 0
M  V30 13874 H 1358.37 2.80893 -1.05067 0
M  V30 13875 H 1355.93 1.45038 -0.582554 0
M  V30 13876 H 1356.66 2.86435 1.5207 0
M  V30 13877 H 1356.45 3.91986 0.0943563 0
M  V30 13878 H 1357.94 4.0345 1.07787 0
M  V30 13879 N 1358.37 0.56548 1.47106 0
M  V30 13880 C 1359.62 0.0445914 2.02751 0
M  V30 13881 C 1359.95 -1.30517 1.43801 0
M  V30 13882 O 1359.23 -1.85123 0.596646 0
M  V30 13883 C 1359.51 -0.0396474 3.60078 0
M  V30 13884 C 1359.36 1.3378 4.29445 0
M  V30 13885 C 1360.68 -0.748954 4.3368 0
M  V30 13886 H 1357.8 0.0176787 0.736788 0
M  V30 13887 H 1360.44 0.729363 1.75443 0
M  V30 13888 H 1358.59 -0.622826 3.83475 0
M  V30 13889 H 1360.27 1.96482 4.17364 0
M  V30 13890 H 1358.51 1.91024 3.89477 0
M  V30 13891 H 1359.18 1.23149 5.38088 0
M  V30 13892 H 1361.66 -0.253707 4.15326 0
M  V30 13893 H 1360.53 -0.776877 5.43374 0
M  V30 13894 H 1360.79 -1.80679 4.03494 0
M  V30 13895 N 1359.85 -1.54672 0.302354 0
M  V30 13896 C 1361.27 -1.59519 -0.0509899 0
M  V30 13897 C 1361.47 -1.31931 -1.52304 0
M  V30 13898 O 1360.52 -1.09338 -2.27599 0
M  V30 13899 C 1361.84 -2.98678 0.348168 0
M  V30 13900 C 1363.39 -3.11587 0.297046 0
M  V30 13901 C 1363.86 -4.53057 0.671046 0
M  V30 13902 N 1365.35 -4.58983 0.623633 0
M  V30 13903 C 1366.09 -5.66522 0.885476 0
M  V30 13904 N 1365.58 -6.82092 1.21336 0
M  V30 13905 N 1367.38 -5.56198 0.812448 0
M  V30 13906 H 1359.53 -1.70865 1.2617 0
M  V30 13907 H 1361.79 -0.798099 0.511608 0
M  V30 13908 H 1361.5 -3.23794 1.37297 0
M  V30 13909 H 1361.37 -3.76025 -0.297505 0
M  V30 13910 H 1363.76 -2.86219 -0.718515 0
M  V30 13911 H 1363.84 -2.36392 0.977361 0
M  V30 13912 H 1363.48 -4.79155 1.68442 0
M  V30 13913 H 1363.41 -5.26591 -0.0313537 0
M  V30 13914 H 1365.9 -3.75972 0.381203 0
M  V30 13915 H 1366.22 -7.6003 1.39909 0
M  V30 13916 H 1364.56 -6.83641 1.25141 0
M  V30 13917 H 1367.75 -4.64787 0.555939 0
M  V30 13918 H 1367.92 -6.39924 1.01988 0
M  V30 13919 N 1361.33 -0.0301034 -1.57571 0
M  V30 13920 C 1362.61 0.68703 -1.83137 0
M  V30 13921 C 1362.99 1.90277 -0.914216 0
M  V30 13922 O 1362.34 2.2848 0.0299358 0
M  V30 13923 C 1362.55 1.06431 -3.32375 0
M  V30 13924 C 1363.89 1.45554 -3.98873 0
M  V30 13925 O 1364.92 1.15727 -3.36877 0
M  V30 13926 O 1363.78 2.01133 -5.08142 0
M  V30 13927 H 1360.87 0.337141 -0.755159 0
M  V30 13928 H 1363.42 -0.0578604 -1.69601 0
M  V30 13929 H 1362.19 0.199077 -3.90793 0
M  V30 13930 H 1361.81 1.86734 -3.51022 0
M  V30 13931 N 1362.81 1.55714 0.243056 0
M  V30 13932 C 1364.05 1.77989 0.971993 0
M  V30 13933 C 1364.39 0.596038 1.84827 0
M  V30 13934 O 1363.66 -0.40554 1.90225 0
M  V30 13935 C 1363.95 3.10178 1.82925 0
M  V30 13936 C 1363.8 4.38974 0.9809 0
M  V30 13937 C 1365.12 3.38628 2.81103 0
M  V30 13938 H 1362.24 0.64754 0.35194 0
M  V30 13939 H 1364.88 1.88449 0.242237 0
M  V30 13940 H 1363.03 3.01392 2.45143 0
M  V30 13941 H 1364.7 4.59756 0.377113 0
M  V30 13942 H 1362.94 4.3286 0.285414 0
M  V30 13943 H 1363.61 5.27858 1.61461 0
M  V30 13944 H 1366.09 3.47403 2.29021 0
M  V30 13945 H 1364.97 4.32331 3.38203 0
M  V30 13946 H 1365.23 2.5973 3.57761 0
M  V30 13947 N 1364.29 -0.50888 1.49158 0
M  V30 13948 C 1365.56 -1.27021 1.48745 0
M  V30 13949 C 1365.94 -2.10045 0.210772 0
M  V30 13950 O 1365.29 -2.13773 -0.807061 0
M  V30 13951 C 1365.5 -2.13367 2.76181 0
M  V30 13952 C 1366.85 -2.72815 3.25357 0
M  V30 13953 O 1367.87 -2.23639 2.77243 0
M  V30 13954 O 1366.73 -3.62316 4.09133 0
M  V30 13955 H 1363.83 -0.574387 0.594986 0
M  V30 13956 H 1366.37 -0.523798 1.61414 0
M  V30 13957 H 1365.14 -1.51941 3.60596 0
M  V30 13958 H 1364.77 -2.95215 2.66334 0
M  V30 13959 N 1365.76 -1.381 -0.759346 0
M  V30 13960 C 1367.01 -1.33311 -1.51364 0
M  V30 13961 C 1367.33 0.0761325 -1.95452 0
M  V30 13962 O 1368.53 0.246541 -2.70378 0
M  V30 13963 C 1366.99 -2.34067 -2.73387 0
M  V30 13964 C 1366.6 -3.80583 -2.36348 0
M  V30 13965 C 1368.34 -2.38311 -3.51295 0
M  V30 13966 C 1366.25 -4.73039 -3.54948 0
M  V30 13967 H 1365.18 -0.495512 -0.568317 0
M  V30 13968 H 1367.83 -1.63625 -0.830602 0
M  V30 13969 H 1366.21 -1.96788 -3.43643 0
M  V30 13970 H 1367.38 -4.26769 -1.73796 0
M  V30 13971 H 1365.7 -3.79403 -1.71587 0
M  V30 13972 H 1368.3 -3.04586 -4.39467 0
M  V30 13973 H 1368.64 -1.40034 -3.92041 0
M  V30 13974 H 1369.17 -2.74361 -2.88047 0
M  V30 13975 H 1365.91 -5.7249 -3.19273 0
M  V30 13976 H 1365.43 -4.3155 -4.16563 0
M  V30 13977 H 1367.11 -4.90775 -4.21603 0
M  V30 13978 N 1367.24 0.986894 -1.22875 0
M  V30 13979 C 1368.49 1.72152 -1.05103 0
M  V30 13980 C 1368.8 1.91185 0.413248 0
M  V30 13981 O 1370.01 2.62031 0.710759 0
M  V30 13982 C 1368.47 3.09771 -1.8322 0
M  V30 13983 C 1368.07 2.98648 -3.33936 0
M  V30 13984 C 1369.82 3.87238 -1.73917 0
M  V30 13985 C 1367.73 4.31459 -4.04471 0
M  V30 13986 H 1366.66 0.645498 -0.389677 0
M  V30 13987 H 1369.31 1.10125 -1.46781 0
M  V30 13988 H 1367.69 3.72515 -1.34345 0
M  V30 13989 H 1368.86 2.45033 -3.9025 0
M  V30 13990 H 1367.18 2.34661 -3.43982 0
M  V30 13991 H 1369.77 4.85549 -2.23933 0
M  V30 13992 H 1370.12 4.1036 -0.700711 0
M  V30 13993 H 1370.65 3.31183 -2.20369 0
M  V30 13994 H 1367.39 4.13534 -5.08596 0
M  V30 13995 H 1366.91 4.84964 -3.52944 0
M  V30 13996 H 1368.59 5.00179 -4.10403 0
M  V30 13997 N 1368.72 1.0394 1.18466 0
M  V30 13998 C 1370 0.65632 1.8426 0
M  V30 13999 C 1370.38 -0.864288 1.92596 0
M  V30 14000 O 1369.73 -1.76524 1.45092 0
M  V30 14001 C 1369.94 1.33067 3.22636 0
M  V30 14002 C 1371.28 1.46065 3.98686 0
M  V30 14003 O 1372.31 1.28867 3.32072 0
M  V30 14004 O 1371.17 1.74078 5.18034 0
M  V30 14005 H 1368.26 0.229484 0.794523 0
M  V30 14006 H 1370.81 1.13821 1.25868 0
M  V30 14007 H 1369.58 2.36866 3.11465 0
M  V30 14008 H 1369.2 0.837313 3.88683 0
M  V30 14009 N 1370.2 -1.34667 0.818693 0
M  V30 14010 C 1371.15 -2.27031 0.210001 0
M  V30 14011 C 1372.13 -1.48338 -0.623258 0
M  V30 14012 O 1373.32 -1.70409 -0.478531 0
M  V30 14013 C 1370.45 -3.37457 -0.63069 0
M  V30 14014 C 1369.54 -4.23565 0.212964 0
M  V30 14015 N 1369.93 -4.89286 1.28191 0
M  V30 14016 C 1368.23 -4.46 -0.00340477 0
M  V30 14017 C 1368.93 -5.53216 1.79798 0
M  V30 14018 N 1367.91 -5.32302 1.10253 0
M  V30 14019 H 1371.71 -2.75345 1.02773 0
M  V30 14020 H 1369.22 -1.48336 0.661071 0
M  V30 14021 H 1371.22 -4.0259 -1.0829 0
M  V30 14022 H 1369.88 -2.90694 -1.44663 0
M  V30 14023 H 1370.89 -4.90417 1.66467 0
M  V30 14024 H 1367.57 -4.10005 -0.787516 0
M  V30 14025 H 1368.96 -6.15613 2.69203 0
M  V30 14026 N 1371.68 -0.573274 -1.46804 0
M  V30 14027 C 1372.63 0.186085 -2.27239 0
M  V30 14028 C 1373.61 0.870579 -1.35313 0
M  V30 14029 O 1374.8 0.766233 -1.59555 0
M  V30 14030 C 1371.93 1.2052 -3.21449 0
M  V30 14031 C 1371.02 0.523305 -4.20859 0
M  V30 14032 N 1371.41 -0.415768 -5.04088 0
M  V30 14033 C 1369.71 0.775236 -4.39211 0
M  V30 14034 C 1370.41 -0.81341 -5.75985 0
M  V30 14035 N 1369.38 -0.164647 -5.43351 0
M  V30 14036 H 1373.19 -0.535687 -2.88977 0
M  V30 14037 H 1370.7 -0.394373 -1.57539 0
M  V30 14038 H 1372.7 1.76331 -3.77774 0
M  V30 14039 H 1371.36 1.9279 -2.61271 0
M  V30 14040 H 1372.37 -0.790798 -5.11827 0
M  V30 14041 H 1369.04 1.48522 -3.90189 0
M  V30 14042 H 1370.43 -1.58598 -6.52914 0
M  V30 14043 N 1373.15 1.5451 -0.310553 0
M  V30 14044 C 1374.43 1.92452 0.34951 0
M  V30 14045 C 1374.81 1.23881 1.70929 0
M  V30 14046 O 1374.16 0.377898 2.25353 0
M  V30 14047 C 1374.37 3.46026 0.454675 0
M  V30 14048 C 1375.72 4.18432 0.721071 0
M  V30 14049 O 1376.74 3.52112 0.538112 0
M  V30 14050 O 1375.6 5.3586 1.07314 0
M  V30 14051 H 1372.69 0.803168 0.197103 0
M  V30 14052 H 1375.24 1.65852 -0.359313 0
M  V30 14053 H 1374.01 3.88081 -0.500853 0
M  V30 14054 H 1373.64 3.7869 1.21159 0
M  V30 14055 N 1374.63 0.0384594 1.57553 0
M  V30 14056 C 1375.58 -0.958199 2.11946 0
M  V30 14057 C 1376.58 -1.33073 1.04823 0
M  V30 14058 O 1377.78 -1.31187 1.23247 0
M  V30 14059 H 1374.16 -0.326819 0.677269 0
M  V30 14060 H 1376.13 -0.474211 2.94608 0
M  V30 14061 C 1374.88 -2.22821 2.6692 0
M  V30 14062 H 1374.2 -1.95032 3.49002 0
M  V30 14063 H 1375.64 -2.90746 3.08614 0
M  V30 14064 C 1374.1 -2.96429 1.60098 0
M  V30 14065 O 1374.63 -3.88892 1.00628 0
M  V30 14066 N 1372.83 -2.58931 1.3192 0
M  V30 14067 H 1372.38 -1.83818 1.80468 0
M  V30 14068 H 1372.34 -3.0849 0.60674 0
M  V30 14069 N 1376.11 -1.55841 -0.234795 0
M  V30 14070 C 1377.34 -1.82307 -0.978355 0
M  V30 14071 C 1377.75 -0.615825 -1.78474 0
M  V30 14072 O 1377.11 0.4156 -1.77705 0
M  V30 14073 C 1377.16 -3.07136 -1.90655 0
M  V30 14074 O 1376.88 -4.23202 -1.13278 0
M  V30 14075 C 1378.38 -3.46492 -2.76511 0
M  V30 14076 H 1375.6 -0.606361 -0.287345 0
M  V30 14077 H 1378.15 -2.02916 -0.254023 0
M  V30 14078 H 1376.3 -2.88542 -2.58501 0
M  V30 14079 H 1376.72 -4.94029 -1.76168 0
M  V30 14080 H 1378.19 -4.36908 -3.37366 0
M  V30 14081 H 1378.67 -2.67633 -3.48238 0
M  V30 14082 H 1379.27 -3.6748 -2.14099 0
M  V30 14083 N 1377.59 0.500963 -1.49426 0
M  V30 14084 C 1378.82 1.27725 -1.62388 0
M  V30 14085 C 1379.23 1.86893 -0.294544 0
M  V30 14086 O 1378.57 1.68571 0.73003 0
M  V30 14087 C 1378.63 2.44649 -2.63414 0
M  V30 14088 C 1378.3 2.0635 -4.0776 0
M  V30 14089 C 1379.29 1.60323 -4.94563 0
M  V30 14090 C 1376.98 2.15984 -4.53493 0
M  V30 14091 C 1378.97 1.24433 -6.25136 0
M  V30 14092 C 1376.66 1.79706 -5.8408 0
M  V30 14093 C 1377.66 1.34005 -6.69725 0
M  V30 14094 O 1377.35 0.982171 -7.97878 0
M  V30 14095 H 1377.08 0.393595 -0.549599 0
M  V30 14096 H 1379.63 0.607944 -1.96197 0
M  V30 14097 H 1377.86 3.14656 -2.24785 0
M  V30 14098 H 1379.55 3.06675 -2.65905 0
M  V30 14099 H 1380.32 1.52326 -4.60458 0
M  V30 14100 H 1376.2 2.50507 -3.86998 0
M  V30 14101 H 1379.74 0.886906 -6.91939 0
M  V30 14102 H 1375.64 1.87352 -6.17713 0
M  V30 14103 H 1376.4 1.11364 -8.10889 0
M  V30 14104 N 1379.07 1.38501 0.752011 0
M  V30 14105 C 1380.3 1.38032 1.54125 0
M  V30 14106 C 1380.71 -0.0295066 1.88777 0
M  V30 14107 O 1380.07 -0.996522 1.52891 0
M  V30 14108 C 1380.12 2.23741 2.83941 0
M  V30 14109 O 1379.84 3.59232 2.50767 0
M  V30 14110 C 1381.34 2.31469 3.7807 0
M  V30 14111 H 1378.56 0.472077 0.476848 0
M  V30 14112 H 1381.1 1.82101 0.930572 0
M  V30 14113 H 1379.26 1.8313 3.41383 0
M  V30 14114 H 1379.67 4.04376 3.34036 0
M  V30 14115 H 1381.15 2.95722 4.66103 0
M  V30 14116 H 1381.62 1.32882 4.18616 0
M  V30 14117 H 1382.23 2.72477 3.26552 0
M  V30 14118 N 1380.55 -0.980364 1.23396 0
M  V30 14119 C 1381.79 -1.72421 1.06765 0
M  V30 14120 C 1382.12 -1.90151 -0.394515 0
M  V30 14121 O 1381.4 -1.4538 -1.29209 0
M  V30 14122 C 1381.68 -3.12246 1.79372 0
M  V30 14123 C 1381.54 -3.02087 3.33262 0
M  V30 14124 C 1382.85 -4.11667 1.55624 0
M  V30 14125 H 1379.97 -0.625822 0.389251 0
M  V30 14126 H 1382.62 -1.14132 1.51901 0
M  V30 14127 H 1380.77 -3.62008 1.41004 0
M  V30 14128 H 1382.44 -2.59848 3.81152 0
M  V30 14129 H 1380.68 -2.38592 3.62293 0
M  V30 14130 H 1381.35 -4.01087 3.79254 0
M  V30 14131 H 1383.83 -3.70712 1.88975 0
M  V30 14132 H 1382.7 -5.07593 2.08902 0
M  V30 14133 H 1382.96 -4.39358 0.491601 0
M  V30 14134 N 1382.02 -1.04567 -1.17913 0
M  V30 14135 C 1382.97 -0.641119 -2.21717 0
M  V30 14136 C 1383.94 0.353585 -1.62293 0
M  V30 14137 O 1385.13 0.246427 -1.89202 0
M  V30 14138 C 1382.27 -0.0154726 -3.45097 0
M  V30 14139 C 1381.38 -1.05825 -4.18838 0
M  V30 14140 C 1380.51 -0.400588 -5.29687 0
M  V30 14141 C 1379.55 -1.42811 -5.95207 0
M  V30 14142 N 1378.69 -0.795059 -6.97584 0
M  V30 14143 H 1383.53 -1.5308 -2.55676 0
M  V30 14144 H 1381.07 -0.765715 -1.25599 0
M  V30 14145 H 1383.02 0.364653 -4.15603 0
M  V30 14146 H 1381.65 0.837704 -3.11741 0
M  V30 14147 H 1380.71 -1.55627 -3.47109 0
M  V30 14148 H 1382.02 -1.83849 -4.63682 0
M  V30 14149 H 1381.17 0.0334682 -6.06691 0
M  V30 14150 H 1379.91 0.411696 -4.85959 0
M  V30 14151 H 1378.92 -1.87225 -5.1694 0
M  V30 14152 H 1380.14 -2.24218 -6.41017 0
M  V30 14153 H 1378.09 -0.00317202 -6.56 0
M  V30 14154 H 1378 -1.51293 -7.40707 0
M  V30 14155 H 1379.27 -0.385567 -7.78546 0
M  V30 14156 N 1383.5 1.34231 -0.825823 0
M  V30 14157 C 1384.73 2.02124 -0.427727 0
M  V30 14158 C 1385.14 1.62331 0.971869 0
M  V30 14159 O 1384.48 0.825946 1.64085 0
M  V30 14160 C 1384.54 3.56626 -0.453698 0
M  V30 14161 C 1384.21 4.19752 -1.80713 0
M  V30 14162 C 1385.21 4.40062 -2.76842 0
M  V30 14163 C 1382.89 4.5646 -2.09641 0
M  V30 14164 C 1384.88 4.9621 -4.00069 0
M  V30 14165 C 1382.57 5.12318 -3.33127 0
M  V30 14166 C 1383.57 5.32137 -4.28158 0
M  V30 14167 O 1383.26 5.86811 -5.49462 0
M  V30 14168 H 1382.99 0.654389 -0.169563 0
M  V30 14169 H 1385.54 1.72421 -1.11624 0
M  V30 14170 H 1383.77 3.856 0.291527 0
M  V30 14171 H 1385.46 4.0583 -0.075249 0
M  V30 14172 H 1386.23 4.12064 -2.5579 0
M  V30 14173 H 1382.11 4.40337 -1.36473 0
M  V30 14174 H 1385.65 5.11594 -4.74254 0
M  V30 14175 H 1381.55 5.39746 -3.54041 0
M  V30 14176 H 1382.32 6.05242 -5.51022 0
M  V30 14177 N 1384.98 0.581051 1.46498 0
M  V30 14178 C 1386.21 0.0715652 2.06776 0
M  V30 14179 C 1386.62 -1.23267 1.43006 0
M  V30 14180 O 1385.98 -1.74489 0.534776 0
M  V30 14181 C 1386.03 -0.102666 3.61354 0
M  V30 14182 O 1385.75 1.14995 4.22739 0
M  V30 14183 C 1387.25 -0.646692 4.38558 0
M  V30 14184 H 1384.47 0.0566964 0.6686 0
M  V30 14185 H 1387.02 0.801248 1.8815 0
M  V30 14186 H 1385.17 -0.782564 3.79414 0
M  V30 14187 H 1385.59 0.962718 5.15589 0
M  V30 14188 H 1387.06 -0.717791 5.47313 0
M  V30 14189 H 1387.54 -1.6633 4.06486 0
M  V30 14190 H 1388.14 -0.00171739 4.253 0
M  V30 14191 N 1386.46 -1.54343 0.318742 0
M  V30 14192 C 1387.87 -1.85922 -0.170309 0
M  V30 14193 C 1388.22 -1.24047 -1.52009 0
M  V30 14194 O 1387.34 -0.544705 -2.09432 0
M  V30 14195 C 1387.94 -3.37325 -0.315802 0
M  V30 14196 C 1386.5 -3.68871 -0.749073 0
M  V30 14197 C 1385.65 -2.76985 0.13209 0
M  V30 14198 H 1388.6 -1.4926 0.539185 0
M  V30 14199 H 1388.62 -3.62784 -1.14751 0
M  V30 14200 H 1388.13 -3.8233 0.66674 0
M  V30 14201 H 1386.23 -3.29396 -1.74153 0
M  V30 14202 H 1386.34 -4.75861 -0.556164 0
M  V30 14203 H 1384.71 -2.51672 -0.391564 0
M  V30 14204 H 1385.49 -3.24815 1.11131 0
M  V30 14205 N 1387.94 -0.0468143 -1.5753 0
M  V30 14206 C 1389.18 0.628869 -1.92803 0
M  V30 14207 C 1389.51 1.70751 -0.925083 0
M  V30 14208 O 1388.79 1.94437 0.0495821 0
M  V30 14209 C 1389.07 1.22899 -3.38479 0
M  V30 14210 C 1388.93 0.158707 -4.4952 0
M  V30 14211 C 1390.24 2.1419 -3.84461 0
M  V30 14212 H 1387.36 0.227137 -0.701126 0
M  V30 14213 H 1390.01 -0.107689 -1.89695 0
M  V30 14214 H 1388.16 1.85674 -3.41259 0
M  V30 14215 H 1389.83 -0.472963 -4.58869 0
M  V30 14216 H 1388.07 -0.51375 -4.30747 0
M  V30 14217 H 1388.74 0.618545 -5.48523 0
M  V30 14218 H 1391.22 1.61382 -3.8353 0
M  V30 14219 H 1390.09 2.53125 -4.87051 0
M  V30 14220 H 1390.35 3.04024 -3.2097 0
M  V30 14221 N 1389.41 1.55964 0.226527 0
M  V30 14222 C 1390.35 1.88487 1.30405 0
M  V30 14223 C 1391.36 0.772723 1.43293 0
M  V30 14224 O 1392.55 1.05099 1.44279 0
M  V30 14225 C 1389.65 2.074 2.68027 0
M  V30 14226 C 1388.82 3.38389 2.77149 0
M  V30 14227 C 1387.88 3.46795 3.95752 0
M  V30 14228 O 1386.91 4.19862 3.84323 0
M  V30 14229 N 1388.11 2.77573 5.09836 0
M  V30 14230 H 1390.87 2.81506 1.02833 0
M  V30 14231 H 1388.43 1.56449 0.416581 0
M  V30 14232 H 1390.43 2.10344 3.45742 0
M  V30 14233 H 1389 1.2103 2.8822 0
M  V30 14234 H 1388.22 3.47586 1.8595 0
M  V30 14235 H 1389.5 4.24688 2.8021 0
M  V30 14236 H 1388.9 2.17979 5.22017 0
M  V30 14237 H 1387.46 2.86185 5.85612 0
M  V30 14238 N 1390.89 -0.493031 1.4969 0
M  V30 14239 C 1391.82 -1.61058 1.63074 0
M  V30 14240 C 1392.84 -1.54504 0.513069 0
M  V30 14241 O 1394.03 -1.60291 0.785431 0
M  V30 14242 C 1391.13 -2.99877 1.57883 0
M  V30 14243 C 1390.3 -3.31531 2.85317 0
M  V30 14244 C 1389.36 -4.49799 2.7307 0
M  V30 14245 O 1388.38 -4.51189 3.47012 0
M  V30 14246 N 1389.59 -5.50182 1.85148 0
M  V30 14247 H 1392.35 -1.5 2.59461 0
M  V30 14248 H 1389.91 -0.681057 1.46878 0
M  V30 14249 H 1391.9 -3.76928 1.47333 0
M  V30 14250 H 1390.47 -3.04817 0.693218 0
M  V30 14251 H 1389.69 -2.433 3.10159 0
M  V30 14252 H 1390.98 -3.49481 3.69784 0
M  V30 14253 H 1390.38 -5.51865 1.24345 0
M  V30 14254 H 1388.94 -6.26305 1.80516 0
M  V30 14255 N 1392.37 -1.38898 -0.744656 0
M  V30 14256 C 1393.62 -1.35327 -1.50104 0
M  V30 14257 C 1393.94 0.0532788 -1.94927 0
M  V30 14258 O 1393.21 1.0027 -1.68294 0
M  V30 14259 H 1391.79 -0.49797 -0.556808 0
M  V30 14260 H 1394.45 -1.73667 -0.884625 0
M  V30 14261 H 1393.55 -2.00983 -2.38773 0
M  V30 14262 N 1393.85 0.973806 -1.23914 0
M  V30 14263 C 1395.26 1.53057 -1.06913 0
M  V30 14264 C 1395.61 1.92842 0.361423 0
M  V30 14265 O 1394.74 1.76716 1.24901 0
M  V30 14266 C 1395.33 2.78137 -1.93457 0
M  V30 14267 C 1393.89 3.3019 -1.80697 0
M  V30 14268 C 1393.04 2.03137 -1.88761 0
M  V30 14269 H 1395.99 0.792767 -1.37481 0
M  V30 14270 H 1396.01 3.5124 -1.46325 0
M  V30 14271 H 1395.52 2.49149 -2.97568 0
M  V30 14272 H 1393.62 3.64043 -0.793951 0
M  V30 14273 H 1393.73 3.99503 -2.64451 0
M  V30 14274 H 1392.1 2.17572 -1.32418 0
M  V30 14275 H 1392.88 1.76522 -2.9444 0
M  V30 14276 N 1395.33 1.05191 1.17357 0
M  V30 14277 C 1396.57 0.763113 1.87895 0
M  V30 14278 C 1396.91 -0.708071 1.80831 0
M  V30 14279 O 1396.18 -1.51777 1.21631 0
M  V30 14280 C 1396.46 1.2442 3.37923 0
M  V30 14281 C 1396.32 2.77832 3.53737 0
M  V30 14282 C 1397.64 0.843209 4.31947 0
M  V30 14283 H 1394.75 0.27869 0.682276 0
M  V30 14284 H 1397.4 1.3059 1.38008 0
M  V30 14285 H 1395.55 0.782438 3.80539 0
M  V30 14286 H 1397.22 3.32131 3.20135 0
M  V30 14287 H 1395.46 3.17108 2.96015 0
M  V30 14288 H 1396.13 3.06555 4.59052 0
M  V30 14289 H 1398.61 1.24073 3.97171 0
M  V30 14290 H 1397.48 1.20743 5.35455 0
M  V30 14291 H 1397.75 -0.252802 4.41377 0
M  V30 14292 N 1396.8 -1.33791 0.83293 0
M  V30 14293 C 1398.05 -1.97582 0.42494 0
M  V30 14294 C 1398.37 -1.66328 -1.01784 0
M  V30 14295 O 1397.64 -0.959141 -1.70814 0
M  V30 14296 H 1396.22 -0.730923 0.154143 0
M  V30 14297 H 1398.89 -1.63257 1.06458 0
M  V30 14298 H 1397.98 -3.07177 0.552127 0
M  V30 14299 N 1398.28 -0.588812 -1.46187 0
M  V30 14300 C 1399.53 -0.0768417 -2.02654 0
M  V30 14301 C 1399.86 1.28213 -1.4586 0
M  V30 14302 O 1399.14 1.8415 -0.626022 0
M  V30 14303 C 1399.42 -0.0176429 -3.60096 0
M  V30 14304 C 1399.27 -1.40595 -4.27262 0
M  V30 14305 C 1400.59 0.679864 -4.34817 0
M  V30 14306 H 1397.71 -0.0293981 -0.736413 0
M  V30 14307 H 1400.35 -0.757183 -1.74261 0
M  V30 14308 H 1398.5 0.56174 -3.84417 0
M  V30 14309 H 1400.17 -2.03097 -4.14185 0
M  V30 14310 H 1398.42 -1.97196 -3.86388 0
M  V30 14311 H 1399.09 -1.31694 -5.3606 0
M  V30 14312 H 1401.56 0.1876 -4.15677 0
M  V30 14313 H 1400.44 0.690333 -5.44542 0
M  V30 14314 H 1400.7 1.74237 -4.06318 0
M  V30 14315 N 1399.76 1.54172 -0.326923 0
M  V30 14316 C 1400.71 2.25931 0.552996 0
M  V30 14317 C 1401.7 1.27463 1.11578 0
M  V30 14318 O 1402.91 1.45228 1.06343 0
M  V30 14319 H 1399.28 0.725741 0.196988 0
M  V30 14320 H 1401.25 2.98307 -0.0744603 0
M  V30 14321 C 1400 3.03276 1.70056 0
M  V30 14322 H 1399.33 3.78865 1.27676 0
M  V30 14323 H 1400.77 3.56727 2.29177 0
M  V30 14324 C 1399.23 2.11775 2.62017 0
M  V30 14325 O 1399.76 1.70282 3.63822 0
M  V30 14326 N 1397.96 1.77195 2.30327 0
M  V30 14327 H 1397.51 2.11135 1.4758 0
M  V30 14328 H 1397.47 1.16253 2.92117 0
M  V30 14329 N 1401.24 0.0551678 1.57503 0
M  V30 14330 C 1402.48 -0.618636 1.93134 0
M  V30 14331 C 1402.82 -1.70258 0.934125 0
M  V30 14332 O 1402.09 -1.9446 -0.0392699 0
M  V30 14333 C 1402.38 -1.21103 3.39126 0
M  V30 14334 C 1402.23 -0.134865 4.49598 0
M  V30 14335 C 1403.55 -2.12148 3.85592 0
M  V30 14336 H 1400.67 -0.223416 0.702321 0
M  V30 14337 H 1403.31 0.117748 1.89635 0
M  V30 14338 H 1401.46 -1.83862 3.42238 0
M  V30 14339 H 1403.13 0.497292 4.58612 0
M  V30 14340 H 1401.37 0.536587 4.30469 0
M  V30 14341 H 1402.04 -0.589447 5.48844 0
M  V30 14342 H 1404.52 -1.59346 3.8438 0
M  V30 14343 H 1403.4 -2.50539 4.88387 0
M  V30 14344 H 1403.66 -3.02318 3.22578 0
M  V30 14345 N 1402.72 -1.56081 -0.218252 0
M  V30 14346 C 1403.94 -1.83334 -0.958964 0
M  V30 14347 C 1404.36 -0.63472 -1.77811 0
M  V30 14348 O 1403.72 0.396729 -1.78136 0
M  V30 14349 C 1403.77 -3.09141 -1.87387 0
M  V30 14350 O 1403.49 -4.24379 -1.08783 0
M  V30 14351 C 1404.99 -3.49405 -2.7282 0
M  V30 14352 H 1402.21 -0.609375 -0.280898 0
M  V30 14353 H 1404.75 -2.03174 -0.232486 0
M  V30 14354 H 1402.91 -2.91267 -2.55426 0
M  V30 14355 H 1403.32 -4.9587 -1.70919 0
M  V30 14356 H 1404.8 -4.40461 -3.32713 0
M  V30 14357 H 1405.27 -2.71311 -3.45379 0
M  V30 14358 H 1405.88 -3.6973 -2.1019 0
M  V30 14359 N 1404.2 0.485086 -1.49949 0
M  V30 14360 C 1405.43 1.25996 -1.63733 0
M  V30 14361 C 1405.83 1.8657 -0.31435 0
M  V30 14362 O 1405.18 1.69336 0.71211 0
M  V30 14363 C 1405.24 2.41842 -2.65994 0
M  V30 14364 C 1404.9 2.02014 -4.09926 0
M  V30 14365 C 1405.9 1.55068 -4.96236 0
M  V30 14366 C 1403.58 2.11162 -4.55759 0
M  V30 14367 C 1405.58 1.17796 -6.26421 0
M  V30 14368 C 1403.27 1.73501 -5.85953 0
M  V30 14369 C 1404.26 1.26894 -6.71109 0
M  V30 14370 O 1403.95 0.89749 -7.98874 0
M  V30 14371 H 1403.68 0.387743 -0.553743 0
M  V30 14372 H 1406.24 0.5871 -1.96831 0
M  V30 14373 H 1404.47 3.12254 -2.2811 0
M  V30 14374 H 1406.16 3.03837 -2.69143 0
M  V30 14375 H 1406.92 1.47434 -4.62048 0
M  V30 14376 H 1402.8 2.46389 -3.89633 0
M  V30 14377 H 1406.35 0.813467 -6.92841 0
M  V30 14378 H 1402.24 1.8079 -6.19665 0
M  V30 14379 H 1403.01 1.02757 -8.12024 0
M  V30 14380 N 1405.67 1.39291 0.737279 0
M  V30 14381 C 1406.92 1.36121 1.49384 0
M  V30 14382 C 1407.24 -0.0429406 1.94953 0
M  V30 14383 O 1406.51 -0.993756 1.68823 0
M  V30 14384 H 1405.09 0.500916 0.554159 0
M  V30 14385 H 1407.75 1.74134 0.875402 0
M  V30 14386 H 1406.85 2.02246 2.37704 0
M  V30 14387 N 1407.15 -0.967221 1.24429 0
M  V30 14388 C 1408.4 -1.70688 1.08213 0
M  V30 14389 C 1408.72 -1.91268 -0.379693 0
M  V30 14390 O 1407.99 -1.49077 -1.27094 0
M  V30 14391 H 1406.57 -0.632489 0.39745 0
M  V30 14392 H 1409.23 -1.16356 1.56356 0
M  V30 14393 H 1408.33 -2.69119 1.58055 0
M  V30 14394 N 1408.63 -1.05812 -1.16797 0
M  V30 14395 C 1409.91 -0.685551 -1.83193 0
M  V30 14396 C 1410.29 0.833539 -1.93947 0
M  V30 14397 O 1409.63 1.74193 -1.47882 0
M  V30 14398 C 1409.84 -1.38183 -3.20479 0
M  V30 14399 C 1411.19 -1.52389 -3.96311 0
M  V30 14400 O 1412.22 -1.34134 -3.2998 0
M  V30 14401 O 1411.08 -1.82297 -5.15199 0
M  V30 14402 H 1408.17 -0.242095 -0.790771 0
M  V30 14403 H 1410.72 -1.15809 -1.24041 0
M  V30 14404 H 1409.49 -2.41791 -3.07657 0
M  V30 14405 H 1409.11 -0.899043 -3.87302 0
M  V30 14406 N 1410.11 1.33347 -0.840014 0
M  V30 14407 C 1411.52 1.80077 -0.492851 0
M  V30 14408 C 1411.87 1.69495 0.988221 0
M  V30 14409 O 1410.99 1.2449 1.77006 0
M  V30 14410 C 1411.59 3.2696 -0.887827 0
M  V30 14411 C 1410.15 3.71703 -0.592785 0
M  V30 14412 C 1409.3 2.54742 -1.09554 0
M  V30 14413 H 1412.25 1.20853 -1.02861 0
M  V30 14414 H 1412.27 3.79983 -0.198327 0
M  V30 14415 H 1411.78 3.3463 -1.96581 0
M  V30 14416 H 1409.88 3.69559 0.475086 0
M  V30 14417 H 1409.99 4.65123 -1.14882 0
M  V30 14418 H 1408.36 2.49411 -0.516357 0
M  V30 14419 H 1409.14 2.65173 -2.18032 0
M  V30 14420 N 1411.59 0.596556 1.45873 0
M  V30 14421 C 1412.83 0.0850976 2.0152 0
M  V30 14422 C 1413.15 -1.28799 1.47208 0
M  V30 14423 O 1414.35 -1.89156 1.94762 0
M  V30 14424 C 1412.81 0.101488 3.59757 0
M  V30 14425 C 1412.42 1.47374 4.23066 0
M  V30 14426 C 1414.16 -0.355303 4.2301 0
M  V30 14427 C 1412.07 1.44711 5.73422 0
M  V30 14428 H 1411 0.0280444 0.753478 0
M  V30 14429 H 1413.65 0.750255 1.67462 0
M  V30 14430 H 1412.03 -0.630108 3.90955 0
M  V30 14431 H 1413.21 2.22617 4.03458 0
M  V30 14432 H 1411.52 1.87171 3.71962 0
M  V30 14433 H 1414.12 -0.394236 5.33245 0
M  V30 14434 H 1414.46 -1.37573 3.92911 0
M  V30 14435 H 1414.99 0.32267 3.96489 0
M  V30 14436 H 1411.73 2.44479 6.08203 0
M  V30 14437 H 1411.25 0.737102 5.95254 0
M  V30 14438 H 1412.93 1.16598 6.36407 0
M  V30 14439 N 1413.06 -1.53996 0.335095 0
M  V30 14440 C 1414.47 -1.86092 -0.15058 0
M  V30 14441 C 1414.83 -1.25652 -1.50685 0
M  V30 14442 O 1413.95 -0.566887 -2.08843 0
M  V30 14443 C 1414.55 -3.37641 -0.280007 0
M  V30 14444 C 1413.1 -3.69645 -0.709907 0
M  V30 14445 C 1412.25 -2.7683 0.161461 0
M  V30 14446 H 1415.2 -1.4868 0.554986 0
M  V30 14447 H 1415.22 -3.63981 -1.10896 0
M  V30 14448 H 1414.74 -3.81601 0.707254 0
M  V30 14449 H 1412.84 -3.31224 -1.7065 0
M  V30 14450 H 1412.95 -4.76424 -0.505661 0
M  V30 14451 H 1411.31 -2.52073 -0.364849 0
M  V30 14452 H 1412.1 -3.23618 1.1457 0
M  V30 14453 N 1414.54 -0.0635198 -1.57472 0
M  V30 14454 C 1415.49 0.906604 -2.12248 0
M  V30 14455 C 1416.46 1.30078 -1.0329 0
M  V30 14456 O 1417.64 1.38809 -1.30907 0
M  V30 14457 C 1414.78 2.1718 -2.68192 0
M  V30 14458 C 1413.9 1.831 -3.91278 0
M  V30 14459 C 1413.03 3.0417 -4.35493 0
M  V30 14460 C 1412.07 2.66069 -5.51248 0
M  V30 14461 N 1411.21 3.79871 -5.9046 0
M  V30 14462 H 1416.05 0.432606 -2.94843 0
M  V30 14463 H 1413.58 0.201895 -1.45708 0
M  V30 14464 H 1415.54 2.91231 -2.98732 0
M  V30 14465 H 1414.17 2.62135 -1.88375 0
M  V30 14466 H 1413.22 0.991473 -3.67252 0
M  V30 14467 H 1414.54 1.51063 -4.75375 0
M  V30 14468 H 1413.69 3.86507 -4.6765 0
M  V30 14469 H 1412.43 3.39395 -3.50232 0
M  V30 14470 H 1411.43 1.82151 -5.1875 0
M  V30 14471 H 1412.66 2.32023 -6.38234 0
M  V30 14472 H 1410.61 4.14873 -5.0815 0
M  V30 14473 H 1410.52 3.51573 -6.69277 0
M  V30 14474 H 1411.79 4.62811 -6.27237 0
M  V30 14475 N 1416.02 1.56195 0.209972 0
M  V30 14476 C 1417.24 1.84189 0.953364 0
M  V30 14477 C 1417.67 0.645288 1.76685 0
M  V30 14478 O 1417.03 -0.405962 1.76696 0
M  V30 14479 C 1417.08 3.10281 1.83733 0
M  V30 14480 O 1416.18 2.89788 2.93422 0
M  V30 14481 H 1415.52 0.606931 0.269314 0
M  V30 14482 H 1418.05 2.03416 0.219783 0
M  V30 14483 H 1418.06 3.40688 2.2449 0
M  V30 14484 H 1416.74 3.97 1.23951 0
M  V30 14485 H 1415.31 2.70643 2.56528 0
M  V30 14486 N 1417.5 -0.477127 1.50204 0
M  V30 14487 C 1418.91 -1.05815 1.53819 0
M  V30 14488 C 1419.26 -1.93264 0.338169 0
M  V30 14489 O 1418.38 -2.09305 -0.549576 0
M  V30 14490 C 1418.98 -1.92577 2.78746 0
M  V30 14491 C 1417.54 -2.45799 2.85061 0
M  V30 14492 C 1416.69 -1.23994 2.48034 0
M  V30 14493 H 1419.64 -0.259998 1.56556 0
M  V30 14494 H 1419.66 -2.7757 2.6026 0
M  V30 14495 H 1419.17 -1.28904 3.66068 0
M  V30 14496 H 1417.27 -3.13042 2.02077 0
M  V30 14497 H 1417.38 -2.81318 3.8781 0
M  V30 14498 H 1415.75 -1.5728 2.00338 0
M  V30 14499 H 1416.53 -0.619917 3.37657 0
M  V30 14500 N 1418.98 -1.3968 -0.729882 0
M  V30 14501 C 1420.22 -1.37182 -1.48954 0
M  V30 14502 C 1420.55 0.0305728 -1.94476 0
M  V30 14503 O 1419.81 1.0124 -1.67478 0
M  V30 14504 C 1420.11 -2.29499 -2.7398 0
M  V30 14505 C 1419.77 -3.77034 -2.47298 0
M  V30 14506 C 1418.43 -4.17232 -2.39731 0
M  V30 14507 C 1420.79 -4.70325 -2.24597 0
M  V30 14508 C 1418.11 -5.48777 -2.07511 0
M  V30 14509 C 1420.47 -6.02153 -1.93893 0
M  V30 14510 C 1419.13 -6.41409 -1.84798 0
M  V30 14511 H 1418.4 -0.501985 -0.545061 0
M  V30 14512 H 1421.05 -1.72226 -0.837294 0
M  V30 14513 H 1419.35 -1.87592 -3.43972 0
M  V30 14514 H 1421.05 -2.24857 -3.32024 0
M  V30 14515 H 1417.64 -3.45177 -2.54069 0
M  V30 14516 H 1421.82 -4.40097 -2.29408 0
M  V30 14517 H 1417.08 -5.78109 -1.98996 0
M  V30 14518 H 1421.25 -6.73966 -1.75337 0
M  V30 14519 H 1418.88 -7.43258 -1.59598 0
M  V30 14520 N 1420.45 0.960609 -1.2494 0
M  V30 14521 C 1421.68 1.7446 -1.12153 0
M  V30 14522 C 1422.1 1.85335 0.321315 0
M  V30 14523 O 1421.46 1.32944 1.23271 0
M  V30 14524 C 1421.51 3.13945 -1.774 0
M  V30 14525 O 1420.61 3.9882 -1.04958 0
M  V30 14526 H 1419.96 0.536007 -0.391909 0
M  V30 14527 H 1422.49 1.2045 -1.65388 0
M  V30 14528 H 1422.5 3.64434 -1.83444 0
M  V30 14529 H 1421.17 3.05346 -2.82377 0
M  V30 14530 H 1419.75 3.57293 -1.06752 0
M  V30 14531 N 1421.93 1.0643 1.16234 0
M  V30 14532 C 1423.18 0.782998 1.87075 0
M  V30 14533 C 1423.51 -0.688852 1.81572 0
M  V30 14534 O 1422.79 -1.50478 1.23234 0
M  V30 14535 C 1423.07 1.27997 3.36584 0
M  V30 14536 C 1422.92 2.81568 3.5077 0
M  V30 14537 C 1424.24 0.888975 4.31028 0
M  V30 14538 H 1421.36 0.28591 0.679282 0
M  V30 14539 H 1424 1.32046 1.36615 0
M  V30 14540 H 1422.15 0.822756 3.79688 0
M  V30 14541 H 1423.82 3.35508 3.16595 0
M  V30 14542 H 1422.07 3.2023 2.92635 0
M  V30 14543 H 1422.74 3.11406 4.55774 0
M  V30 14544 H 1425.21 1.28279 3.95833 0
M  V30 14545 H 1424.09 1.26416 5.34144 0
M  V30 14546 H 1424.35 -0.205973 4.4162 0
M  V30 14547 N 1423.41 -1.329 0.847073 0
M  V30 14548 C 1424.37 -2.27341 0.291324 0
M  V30 14549 C 1425.37 -1.51295 -0.544653 0
M  V30 14550 O 1426.56 -1.70497 -0.357258 0
M  V30 14551 C 1423.7 -3.35779 -0.588668 0
M  V30 14552 H 1424.89 -2.78009 1.12477 0
M  V30 14553 H 1422.44 -1.43442 0.620803 0
M  V30 14554 H 1423.18 -2.90366 -1.44423 0
M  V30 14555 H 1422.96 -3.92099 0.00960515 0
M  V30 14556 H 1424.45 -4.06166 -0.970526 0
M  V30 14557 N 1424.89 -0.604284 -1.45555 0
M  V30 14558 C 1426.13 -0.0983316 -2.02561 0
M  V30 14559 C 1426.47 1.26659 -1.47211 0
M  V30 14560 O 1425.74 1.83476 -0.645519 0
M  V30 14561 C 1426.03 -0.0558349 -3.60057 0
M  V30 14562 C 1425.88 -1.45119 -4.25747 0
M  V30 14563 C 1427.2 0.633708 -4.35514 0
M  V30 14564 H 1424.32 -0.0372071 -0.73606 0
M  V30 14565 H 1426.96 -0.775623 -1.73448 0
M  V30 14566 H 1425.11 0.520935 -3.84992 0
M  V30 14567 H 1426.78 -2.07478 -4.12008 0
M  V30 14568 H 1425.02 -2.01283 -3.84275 0
M  V30 14569 H 1425.69 -1.37372 -5.34633 0
M  V30 14570 H 1428.17 0.143501 -4.15852 0
M  V30 14571 H 1427.05 0.632538 -5.45243 0
M  V30 14572 H 1427.31 1.69917 -4.08143 0
M  V30 14573 N 1426.37 1.53816 -0.343257 0
M  V30 14574 C 1427.59 2.05796 0.257418 0
M  V30 14575 C 1428.02 1.2166 1.43459 0
M  V30 14576 O 1427.37 0.230278 1.79832 0
M  V30 14577 C 1427.42 3.54681 0.65068 0
M  V30 14578 O 1426.53 3.73394 1.75074 0
M  V30 14579 H 1425.87 0.662622 0.042757 0
M  V30 14580 H 1428.4 1.98462 -0.497386 0
M  V30 14581 H 1428.41 3.97308 0.927914 0
M  V30 14582 H 1427.08 4.15368 -0.210199 0
M  V30 14583 H 1425.66 3.42669 1.4708 0
M  V30 14584 N 1427.84 0.0718701 1.57436 0
M  V30 14585 C 1429.26 -0.460784 1.80924 0
M  V30 14586 C 1429.61 -1.69637 0.985781 0
M  V30 14587 O 1428.73 -2.15395 0.208319 0
M  V30 14588 C 1429.33 -0.842738 3.28151 0
M  V30 14589 C 1427.89 -1.32026 3.52486 0
M  V30 14590 C 1427.03 -0.305466 2.75612 0
M  V30 14591 H 1429.98 0.297566 1.55885 0
M  V30 14592 H 1430 -1.70414 3.40205 0
M  V30 14593 H 1429.52 0.056733 3.88059 0
M  V30 14594 H 1427.62 -2.23822 2.97883 0
M  V30 14595 H 1427.73 -1.29813 4.61178 0
M  V30 14596 H 1426.09 -0.782758 2.42374 0
M  V30 14597 H 1426.88 0.586279 3.38257 0
M  V30 14598 N 1429.32 -1.56304 -0.201686 0
M  V30 14599 C 1430.55 -1.84692 -0.943583 0
M  V30 14600 C 1430.97 -0.654649 -1.7634 0
M  V30 14601 O 1430.33 0.396586 -1.76909 0
M  V30 14602 C 1430.38 -3.11251 -1.82085 0
M  V30 14603 O 1429.48 -2.9134 -2.91881 0
M  V30 14604 H 1428.82 -0.608351 -0.266092 0
M  V30 14605 H 1431.35 -2.0353 -0.208992 0
M  V30 14606 H 1431.36 -3.41874 -2.2268 0
M  V30 14607 H 1430.04 -3.97652 -1.21844 0
M  V30 14608 H 1428.62 -2.72 -2.55089 0
M  V30 14609 N 1430.8 0.469154 -1.50455 0
M  V30 14610 C 1431.73 1.57493 -1.7239 0
M  V30 14611 C 1432.71 1.60161 -0.572915 0
M  V30 14612 O 1433.9 1.76397 -0.812259 0
M  V30 14613 C 1431.03 2.95804 -1.81981 0
M  V30 14614 C 1429.98 3.08001 -2.97185 0
M  V30 14615 C 1429.31 4.4798 -2.91922 0
M  V30 14616 C 1430.61 2.85039 -4.37665 0
M  V30 14617 H 1432.3 1.39389 -2.64974 0
M  V30 14618 H 1429.85 0.669133 -1.27509 0
M  V30 14619 H 1431.8 3.73091 -1.95911 0
M  V30 14620 H 1430.52 3.15068 -0.86021 0
M  V30 14621 H 1429.18 2.33148 -2.82909 0
M  V30 14622 H 1428.83 4.64165 -1.93803 0
M  V30 14623 H 1428.53 4.57076 -3.69263 0
M  V30 14624 H 1430.05 5.27284 -3.07903 0
M  V30 14625 H 1431.47 3.52074 -4.52456 0
M  V30 14626 H 1429.87 3.05578 -5.16471 0
M  V30 14627 H 1430.94 1.8088 -4.499 0
M  V30 14628 N 1432.28 1.40065 0.722464 0
M  V30 14629 C 1433.56 1.28473 1.47493 0
M  V30 14630 C 1433.94 -0.100058 2.10863 0
M  V30 14631 O 1433.28 -1.11232 1.99599 0
M  V30 14632 C 1433.49 2.41842 2.51621 0
M  V30 14633 C 1434.84 2.81753 3.17648 0
M  V30 14634 O 1435.87 2.41385 2.61939 0
M  V30 14635 O 1434.72 3.51473 4.18484 0
M  V30 14636 H 1431.82 0.504158 0.655556 0
M  V30 14637 H 1434.36 1.51969 0.755223 0
M  V30 14638 H 1433.14 3.34365 2.03263 0
M  V30 14639 H 1432.76 2.20079 3.31136 0
M  V30 14640 N 1433.76 -0.95397 1.25448 0
M  V30 14641 C 1434.69 -2.06828 1.08372 0
M  V30 14642 C 1435.67 -1.70098 -0.00741585 0
M  V30 14643 O 1436.85 -1.93521 0.16224 0
M  V30 14644 C 1433.98 -3.40124 0.702365 0
M  V30 14645 C 1432.94 -3.90865 1.74381 0
M  V30 14646 C 1432.26 -5.20663 1.21712 0
M  V30 14647 C 1433.56 -4.17169 3.14273 0
M  V30 14648 H 1435.26 -2.21372 2.01581 0
M  V30 14649 H 1432.8 -1.06374 0.970592 0
M  V30 14650 H 1434.76 -4.17529 0.569837 0
M  V30 14651 H 1433.48 -3.2552 -0.265428 0
M  V30 14652 H 1432.14 -3.15628 1.86479 0
M  V30 14653 H 1431.79 -5.02429 0.23954 0
M  V30 14654 H 1431.49 -5.55581 1.91319 0
M  V30 14655 H 1433.01 -6.00665 1.097 0
M  V30 14656 H 1434.43 -4.85231 3.05325 0
M  V30 14657 H 1432.82 -4.63344 3.81356 0
M  V30 14658 H 1433.89 -3.23421 3.61285 0
M  V30 14659 N 1435.24 -1.07045 -1.15668 0
M  V30 14660 C 1436.46 -0.812802 -1.9081 0
M  V30 14661 C 1436.89 0.627827 -1.77313 0
M  V30 14662 O 1436.24 1.43836 -1.10368 0
M  V30 14663 C 1436.29 -1.2219 -3.39267 0
M  V30 14664 O 1435.4 -0.365305 -4.10779 0
M  V30 14665 H 1434.74 -0.296385 -0.594182 0
M  V30 14666 H 1437.27 -1.42825 -1.465 0
M  V30 14667 H 1437.28 -1.19674 -3.90054 0
M  V30 14668 H 1435.95 -2.27121 -3.48409 0
M  V30 14669 H 1434.53 -0.452687 -3.70142 0
M  V30 14670 N 1436.71 1.32449 -0.85411 0
M  V30 14671 C 1437.66 2.2889 -0.296341 0
M  V30 14672 C 1438.63 1.55024 0.596378 0
M  V30 14673 O 1439.82 1.8325 0.531406 0
M  V30 14674 C 1436.96 3.41315 0.509729 0
M  V30 14675 C 1436.07 4.30062 -0.40872 0
M  V30 14676 C 1435.2 5.29616 0.409928 0
M  V30 14677 C 1434.24 6.10005 -0.505953 0
M  V30 14678 N 1433.38 7.01559 0.275483 0
M  V30 14679 H 1438.22 2.75989 -1.12401 0
M  V30 14680 H 1435.76 1.35787 -0.565717 0
M  V30 14681 H 1437.71 4.05218 0.992697 0
M  V30 14682 H 1436.34 2.95367 1.30223 0
M  V30 14683 H 1435.4 3.66745 -1.01007 0
M  V30 14684 H 1436.71 4.86255 -1.11165 0
M  V30 14685 H 1435.86 5.99119 0.956083 0
M  V30 14686 H 1434.6 4.74039 1.14623 0
M  V30 14687 H 1433.61 5.39406 -1.064 0
M  V30 14688 H 1434.83 6.67667 -1.24086 0
M  V30 14689 H 1432.78 6.48412 0.994887 0
M  V30 14690 H 1432.69 7.55102 -0.368426 0
M  V30 14691 H 1433.96 7.75349 0.803382 0
M  V30 14692 N 1438.19 0.611994 1.45232 0
M  V30 14693 C 1439.44 0.106467 2.01419 0
M  V30 14694 C 1439.75 -1.2723 1.48566 0
M  V30 14695 O 1440.96 -1.8708 1.96757 0
M  V30 14696 C 1439.42 0.139639 3.59629 0
M  V30 14697 C 1439.02 1.51853 4.21479 0
M  V30 14698 C 1440.77 -0.310417 4.23364 0
M  V30 14699 C 1438.67 1.50785 5.71855 0
M  V30 14700 H 1437.6 0.0360345 0.753138 0
M  V30 14701 H 1440.26 0.767974 1.66657 0
M  V30 14702 H 1438.64 -0.588606 3.91601 0
M  V30 14703 H 1439.81 2.26884 4.01074 0
M  V30 14704 H 1438.13 1.91105 3.69956 0
M  V30 14705 H 1440.72 -0.337656 5.33633 0
M  V30 14706 H 1441.07 -1.33398 3.94348 0
M  V30 14707 H 1441.6 0.364704 3.96125 0
M  V30 14708 H 1438.34 2.50916 6.05575 0
M  V30 14709 H 1437.86 0.800195 5.94438 0
M  V30 14710 H 1439.54 1.23341 6.35135 0
M  V30 14711 N 1439.67 -1.53632 0.351409 0
M  V30 14712 C 1440.62 -2.25281 -0.501724 0
M  V30 14713 C 1441.59 -1.25406 -1.08915 0
M  V30 14714 O 1442.77 -1.54157 -1.1243 0
M  V30 14715 C 1439.91 -3.03491 -1.64278 0
M  V30 14716 C 1439.02 -4.18233 -1.0819 0
M  V30 14717 C 1438.16 -4.83914 -2.1909 0
M  V30 14718 C 1437.2 -5.90712 -1.60394 0
M  V30 14719 N 1436.34 -6.50141 -2.65068 0
M  V30 14720 H 1441.18 -2.97775 0.11579 0
M  V30 14721 H 1438.71 -1.46938 0.0689141 0
M  V30 14722 H 1440.67 -3.47101 -2.31467 0
M  V30 14723 H 1439.3 -2.33279 -2.23116 0
M  V30 14724 H 1438.35 -3.7921 -0.300713 0
M  V30 14725 H 1439.66 -4.95023 -0.612644 0
M  V30 14726 H 1438.82 -5.30635 -2.94128 0
M  V30 14727 H 1437.56 -4.06565 -2.69362 0
M  V30 14728 H 1436.56 -5.43366 -0.838646 0
M  V30 14729 H 1437.79 -6.69973 -1.10964 0
M  V30 14730 H 1435.73 -5.75652 -3.14581 0
M  V30 14731 H 1435.65 -7.22427 -2.22788 0
M  V30 14732 H 1436.92 -7.01513 -3.39852 0
M  V30 14733 N 1441.15 -0.0802183 -1.57396 0
M  V30 14734 C 1442.39 0.587831 -1.94094 0
M  V30 14735 C 1442.73 1.6875 -0.961093 0
M  V30 14736 O 1442 1.94498 0.00832799 0
M  V30 14737 C 1442.28 1.15692 -3.41009 0
M  V30 14738 C 1442.14 0.0633211 -4.49755 0
M  V30 14739 C 1443.46 2.05987 -3.88918 0
M  V30 14740 H 1440.58 0.212214 -0.705786 0
M  V30 14741 H 1443.22 -0.147902 -1.89423 0
M  V30 14742 H 1441.37 1.78394 -3.4512 0
M  V30 14743 H 1443.04 -0.57019 -4.57763 0
M  V30 14744 H 1441.28 -0.605003 -4.2956 0
M  V30 14745 H 1441.95 0.502056 -5.49712 0
M  V30 14746 H 1444.43 1.5321 -3.86867 0
M  V30 14747 H 1443.31 2.42737 -4.92311 0
M  V30 14748 H 1443.57 2.97147 -3.27347 0
M  V30 14749 N 1442.63 1.56409 0.193394 0
M  V30 14750 C 1443.85 1.8519 0.933775 0
M  V30 14751 C 1444.28 0.663991 1.75991 0
M  V30 14752 O 1443.63 -0.387198 1.77117 0
M  V30 14753 C 1443.68 3.12212 1.80432 0
M  V30 14754 O 1442.79 2.92884 2.90332 0
M  V30 14755 H 1442.13 0.609754 0.262862 0
M  V30 14756 H 1444.66 2.03638 0.198195 0
M  V30 14757 H 1444.67 3.4305 2.20864 0
M  V30 14758 H 1443.34 3.98292 1.19733 0
M  V30 14759 H 1441.92 2.73349 2.53643 0
M  V30 14760 N 1444.1 -0.461169 1.50702 0
M  V30 14761 C 1445.35 -1.21012 1.61866 0
M  V30 14762 C 1445.67 -1.9226 0.325736 0
M  V30 14763 O 1444.94 -1.84543 -0.657306 0
M  V30 14764 H 1443.52 -0.449671 0.596494 0
M  V30 14765 H 1446.18 -0.531056 1.87525 0
M  V30 14766 H 1445.28 -1.95266 2.4347 0
M  V30 14767 N 1445.58 -1.40446 -0.715026 0
M  V30 14768 C 1446.51 -1.43511 -1.84193 0
M  V30 14769 C 1447.49 -0.295969 -1.67505 0
M  V30 14770 O 1448.68 -0.504667 -1.87528 0
M  V30 14771 C 1445.81 -1.29751 -3.22152 0
M  V30 14772 C 1444.76 -2.41274 -3.53512 0
M  V30 14773 C 1444.09 -2.12591 -4.90621 0
M  V30 14774 C 1445.39 -3.83614 -3.54454 0
M  V30 14775 H 1447.08 -2.37819 -1.81885 0
M  V30 14776 H 1444.63 -1.14469 -0.873655 0
M  V30 14777 H 1446.58 -1.30511 -4.0068 0
M  V30 14778 H 1445.3 -0.319189 -3.25037 0
M  V30 14779 H 1443.96 -2.39764 -2.77324 0
M  V30 14780 H 1443.61 -1.13148 -4.90109 0
M  V30 14781 H 1443.31 -2.87308 -5.1257 0
M  V30 14782 H 1444.84 -2.15034 -5.71483 0
M  V30 14783 H 1446.25 -3.86945 -4.23021 0
M  V30 14784 H 1444.65 -4.57855 -3.87929 0
M  V30 14785 H 1445.72 -4.13159 -2.53827 0
M  V30 14786 N 1447.06 0.947303 -1.25952 0
M  V30 14787 C 1448.31 1.68945 -1.10915 0
M  V30 14788 C 1448.63 1.91848 0.349216 0
M  V30 14789 O 1447.9 1.5108 1.24706 0
M  V30 14790 H 1446.48 0.626086 -0.407462 0
M  V30 14791 H 1449.14 1.13854 -1.58187 0
M  V30 14792 H 1448.24 2.6657 -1.62317 0
M  V30 14793 N 1448.54 1.07657 1.15099 0
M  V30 14794 C 1449.45 0.711198 2.2356 0
M  V30 14795 C 1450.46 -0.278932 1.7175 0
M  V30 14796 O 1451.64 -0.124788 2.01013 0
M  V30 14797 C 1448.71 0.117855 3.465 0
M  V30 14798 C 1447.77 1.16162 4.13286 0
M  V30 14799 C 1447 0.596494 5.30356 0
M  V30 14800 O 1447.22 -0.586474 5.67377 0
M  V30 14801 O 1446.16 1.34288 5.86729 0
M  V30 14802 H 1449.98 1.61578 2.5715 0
M  V30 14803 H 1447.57 0.84973 1.22882 0
M  V30 14804 H 1449.45 -0.210613 4.20873 0
M  V30 14805 H 1448.12 -0.760008 3.14652 0
M  V30 14806 H 1447.03 1.54249 3.4082 0
M  V30 14807 H 1448.36 2.01149 4.49221 0
M  V30 14808 N 1450.02 -1.31994 0.861122 0
M  V30 14809 C 1450.96 -2.28729 0.308476 0
M  V30 14810 C 1451.93 -1.55338 -0.588148 0
M  V30 14811 O 1453.12 -1.8353 -0.52168 0
M  V30 14812 C 1450.26 -3.4158 -0.491621 0
M  V30 14813 C 1449.37 -4.29839 0.431522 0
M  V30 14814 C 1448.51 -5.29826 -0.381836 0
M  V30 14815 C 1447.55 -6.09728 0.538296 0
M  V30 14816 N 1446.68 -7.01696 -0.238274 0
M  V30 14817 H 1451.52 -2.75389 1.13863 0
M  V30 14818 H 1449.06 -1.35485 0.572911 0
M  V30 14819 H 1451.02 -4.05738 -0.971193 0
M  V30 14820 H 1449.65 -2.96054 -1.28654 0
M  V30 14821 H 1448.7 -3.66204 1.02951 0
M  V30 14822 H 1450.01 -4.85658 1.13742 0
M  V30 14823 H 1449.17 -5.99618 -0.924297 0
M  V30 14824 H 1447.9 -4.7464 -1.12107 0
M  V30 14825 H 1446.91 -5.38834 1.09259 0
M  V30 14826 H 1448.13 -6.67 1.27625 0
M  V30 14827 H 1446.08 -6.4893 -0.960486 0
M  V30 14828 H 1446 -7.54896 0.408466 0
M  V30 14829 H 1447.27 -7.75764 -0.762252 0
M  V30 14830 N 1451.49 -0.619688 -1.44906 0
M  V30 14831 C 1452.74 -0.11981 -2.02446 0
M  V30 14832 C 1453.07 1.2509 -1.48546 0
M  V30 14833 O 1452.35 1.82781 -0.664942 0
M  V30 14834 C 1452.63 -0.0940205 -3.59977 0
M  V30 14835 C 1452.48 -1.49626 -4.24184 0
M  V30 14836 C 1453.8 0.58748 -4.36161 0
M  V30 14837 H 1450.92 -0.0450119 -0.735624 0
M  V30 14838 H 1453.56 -0.793975 -1.72615 0
M  V30 14839 H 1451.71 0.480073 -3.85522 0
M  V30 14840 H 1453.39 -2.11836 -4.09784 0
M  V30 14841 H 1451.63 -2.05348 -3.82119 0
M  V30 14842 H 1452.3 -1.43035 -5.33146 0
M  V30 14843 H 1454.78 0.0993863 -4.15981 0
M  V30 14844 H 1453.65 0.574672 -5.45883 0
M  V30 14845 H 1453.91 1.65579 -4.09922 0
M  V30 14846 N 1452.97 1.53444 -0.359552 0
M  V30 14847 C 1454.25 1.93467 0.288106 0
M  V30 14848 C 1454.63 1.29256 1.66901 0
M  V30 14849 O 1453.98 0.449402 2.24037 0
M  V30 14850 C 1454.19 3.47297 0.344359 0
M  V30 14851 C 1455.54 4.20515 0.587585 0
M  V30 14852 O 1456.56 3.53646 0.425818 0
M  V30 14853 O 1455.42 5.39003 0.902119 0
M  V30 14854 H 1452.51 0.809033 0.171451 0
M  V30 14855 H 1455.06 1.64625 -0.411896 0
M  V30 14856 H 1453.83 3.86292 -0.624064 0
M  V30 14857 H 1453.45 3.82353 1.0905 0
M  V30 14858 N 1454.45 0.0885642 1.57351 0
M  V30 14859 C 1455.7 -0.57753 1.94403 0
M  V30 14860 C 1456.03 -1.68238 0.970029 0
M  V30 14861 O 1455.3 -1.945 0.00198684 0
M  V30 14862 C 1455.59 -1.13882 3.41618 0
M  V30 14863 C 1455.44 -0.0394686 4.49783 0
M  V30 14864 C 1456.76 -2.03922 3.90005 0
M  V30 14865 H 1453.88 -0.208468 0.706902 0
M  V30 14866 H 1456.52 0.157945 1.89342 0
M  V30 14867 H 1454.67 -1.76561 3.46061 0
M  V30 14868 H 1456.34 0.594458 4.57454 0
M  V30 14869 H 1454.59 0.627775 4.29234 0
M  V30 14870 H 1455.26 -0.472897 5.49971 0
M  V30 14871 H 1457.73 -1.51156 3.87674 0
M  V30 14872 H 1456.61 -2.40123 4.93591 0
M  V30 14873 H 1456.87 -2.95407 3.28918 0
M  V30 14874 N 1455.93 -1.56509 -0.185096 0
M  V30 14875 C 1457.18 -1.80848 -0.902139 0
M  V30 14876 C 1457.5 -0.663295 -1.83372 0
M  V30 14877 O 1456.77 0.317754 -1.93306 0
M  V30 14878 H 1455.35 -0.667108 -0.336119 0
M  V30 14879 H 1458.01 -1.93989 -0.188211 0
M  V30 14880 H 1457.11 -2.74383 -1.48729 0
M  V30 14881 N 1457.41 0.45317 -1.50944 0
M  V30 14882 C 1458.35 1.54885 -1.71112 0
M  V30 14883 C 1459.32 1.56639 -0.552566 0
M  V30 14884 O 1460.51 1.73894 -0.785203 0
M  V30 14885 C 1457.65 2.92729 -1.82766 0
M  V30 14886 C 1456.76 3.00626 -3.10239 0
M  V30 14887 C 1455.9 4.29495 -3.12582 0
M  V30 14888 C 1454.94 4.312 -4.34434 0
M  V30 14889 N 1454.07 5.51568 -4.34415 0
M  V30 14890 H 1458.91 1.36992 -2.64645 0
M  V30 14891 H 1456.45 0.665753 -1.31172 0
M  V30 14892 H 1458.41 3.7269 -1.87505 0
M  V30 14893 H 1457.04 3.09216 -0.926561 0
M  V30 14894 H 1456.09 2.13426 -3.14886 0
M  V30 14895 H 1457.4 2.97746 -4.00186 0
M  V30 14896 H 1456.56 5.17817 -3.16149 0
M  V30 14897 H 1455.29 4.35009 -2.20496 0
M  V30 14898 H 1454.3 3.41272 -4.3106 0
M  V30 14899 H 1455.52 4.27363 -5.27767 0
M  V30 14900 H 1453.47 5.57834 -3.45192 0
M  V30 14901 H 1453.39 5.50504 -5.18152 0
M  V30 14902 H 1454.66 6.41966 -4.42153 0
M  V30 14903 N 1458.88 1.40823 0.707568 0
M  V30 14904 C 1460.16 1.3003 1.46122 0
M  V30 14905 C 1460.54 -0.0776873 2.10957 0
M  V30 14906 O 1459.89 -1.09109 2.00767 0
M  V30 14907 C 1460.1 2.44498 2.49042 0
M  V30 14908 C 1461.45 2.85106 3.14642 0
M  V30 14909 O 1462.47 2.44149 2.59364 0
M  V30 14910 O 1461.33 3.55892 4.14733 0
M  V30 14911 H 1458.42 0.511082 0.650172 0
M  V30 14912 H 1460.97 1.52761 0.739062 0
M  V30 14913 H 1459.74 3.36502 1.99705 0
M  V30 14914 H 1459.37 2.23579 3.28783 0
M  V30 14915 N 1460.36 -0.94061 1.26453 0
M  V30 14916 C 1461.29 -2.04322 1.03852 0
M  V30 14917 C 1462.31 -1.628 -0.00122618 0
M  V30 14918 O 1463.5 -1.76894 0.238911 0
M  V30 14919 C 1460.6 -3.34394 0.550789 0
M  V30 14920 C 1459.77 -4.0468 1.6599 0
M  V30 14921 C 1458.83 -5.13025 1.17012 0
M  V30 14922 O 1457.85 -5.37699 1.8673 0
M  V30 14923 N 1459.06 -5.80497 0.0188478 0
M  V30 14924 H 1461.82 -2.24276 1.98797 0
M  V30 14925 H 1459.38 -1.11013 1.17846 0
M  V30 14926 H 1461.37 -4.04169 0.207305 0
M  V30 14927 H 1459.94 -3.11108 -0.30509 0
M  V30 14928 H 1459.16 -3.28813 2.17429 0
M  V30 14929 H 1460.45 -4.48392 2.40463 0
M  V30 14930 H 1459.85 -5.62888 -0.563368 0
M  V30 14931 H 1458.41 -6.51259 -0.265556 0
M  V30 14932 N 1461.84 -1.08266 -1.14527 0
M  V30 14933 C 1462.75 -0.723043 -2.2318 0
M  V30 14934 C 1463.77 0.269819 -1.71895 0
M  V30 14935 O 1464.94 0.114126 -2.01076 0
M  V30 14936 C 1462.01 -0.136229 -3.46432 0
M  V30 14937 C 1461.07 -1.18352 -4.12664 0
M  V30 14938 C 1460.3 -0.624612 -5.30032 0
M  V30 14939 O 1460.52 0.556377 -5.6768 0
M  V30 14940 O 1459.46 -1.37397 -5.86008 0
M  V30 14941 H 1463.28 -1.6294 -2.56289 0
M  V30 14942 H 1460.87 -0.856235 -1.22429 0
M  V30 14943 H 1462.75 0.18829 -4.20979 0
M  V30 14944 H 1461.43 0.74331 -3.1505 0
M  V30 14945 H 1460.33 -1.56054 -3.39997 0
M  V30 14946 H 1461.67 -2.03528 -4.48148 0
M  V30 14947 N 1463.32 1.31536 -0.86811 0
M  V30 14948 C 1464.57 1.96775 -0.47812 0
M  V30 14949 C 1464.89 1.68632 0.9692 0
M  V30 14950 O 1464.15 0.974357 1.6972 0
M  V30 14951 C 1464.45 3.50876 -0.679752 0
M  V30 14952 C 1464.11 3.99034 -2.09958 0
M  V30 14953 C 1462.78 4.11896 -2.48787 0
M  V30 14954 C 1465.13 4.24387 -3.02564 0
M  V30 14955 C 1462.46 4.47461 -3.79468 0
M  V30 14956 C 1464.81 4.61415 -4.32757 0
M  V30 14957 C 1463.47 4.72484 -4.71503 0
M  V30 14958 H 1462.74 0.720049 -0.174957 0
M  V30 14959 H 1465.39 1.56703 -1.10074 0
M  V30 14960 H 1463.69 3.91791 0.0260174 0
M  V30 14961 H 1465.39 3.994 -0.357855 0
M  V30 14962 H 1461.98 3.89518 -1.78811 0
M  V30 14963 H 1466.17 4.13947 -2.73791 0
M  V30 14964 H 1461.42 4.54227 -4.09252 0
M  V30 14965 H 1465.6 4.79985 -5.04566 0
M  V30 14966 H 1463.22 4.99798 -5.72806 0
M  V30 14967 N 1464.8 0.627364 1.44575 0
M  V30 14968 C 1466.03 0.137313 2.06444 0
M  V30 14969 C 1466.44 -1.18655 1.46855 0
M  V30 14970 O 1465.8 -1.72699 0.590018 0
M  V30 14971 C 1465.85 0.0123481 3.61498 0
M  V30 14972 O 1465.57 1.28385 4.18866 0
M  V30 14973 C 1467.07 -0.506841 4.40393 0
M  V30 14974 H 1464.29 0.0779387 0.666458 0
M  V30 14975 H 1466.83 0.860701 1.85505 0
M  V30 14976 H 1464.99 -0.66146 3.81711 0
M  V30 14977 H 1465.4 1.12626 5.12265 0
M  V30 14978 H 1466.88 -0.543304 5.4932 0
M  V30 14979 H 1467.35 -1.53314 4.11572 0
M  V30 14980 H 1467.96 0.133589 4.2509 0
M  V30 14981 N 1466.28 -1.53251 0.367684 0
M  V30 14982 C 1467.52 -2.01585 -0.221679 0
M  V30 14983 C 1467.85 -1.25444 -1.48248 0
M  V30 14984 O 1467.13 -0.348726 -1.91348 0
M  V30 14985 C 1467.41 -3.56449 -0.511507 0
M  V30 14986 C 1467.27 -4.4328 0.763075 0
M  V30 14987 C 1468.58 -4.20113 -1.31121 0
M  V30 14988 H 1465.7 -0.732743 -0.0790954 0
M  V30 14989 H 1468.35 -1.83493 0.492991 0
M  V30 14990 H 1466.5 -3.71996 -1.12033 0
M  V30 14991 H 1468.17 -4.39526 1.40052 0
M  V30 14992 H 1466.41 -4.11164 1.38299 0
M  V30 14993 H 1467.08 -5.4959 0.515215 0
M  V30 14994 H 1469.56 -4.08412 -0.796169 0
M  V30 14995 H 1468.43 -5.28494 -1.48274 0
M  V30 14996 H 1468.69 -3.76316 -2.32032 0
M  V30 14997 N 1467.75 -0.0969077 -1.57302 0
M  V30 14998 C 1468.7 0.861379 -2.14124 0
M  V30 14999 C 1469.67 1.27858 -1.06026 0
M  V30 15000 O 1470.86 1.36001 -1.33822 0
M  V30 15001 C 1468 2.11443 -2.72738 0
M  V30 15002 C 1467.11 1.7476 -3.95074 0
M  V30 15003 C 1466.24 2.94864 -4.41847 0
M  V30 15004 C 1465.28 2.54316 -5.56767 0
M  V30 15005 N 1464.42 3.67261 -5.98384 0
M  V30 15006 H 1469.26 0.369968 -2.95694 0
M  V30 15007 H 1466.8 0.170943 -1.46103 0
M  V30 15008 H 1468.75 2.84829 -3.04842 0
M  V30 15009 H 1467.38 2.5808 -1.93893 0
M  V30 15010 H 1466.44 0.91335 -3.69272 0
M  V30 15011 H 1467.75 1.40946 -4.78472 0
M  V30 15012 H 1466.9 3.76501 -4.75744 0
M  V30 15013 H 1465.64 3.31889 -3.57352 0
M  V30 15014 H 1464.65 1.71106 -5.22497 0
M  V30 15015 H 1465.87 2.18432 -6.43012 0
M  V30 15016 H 1463.82 4.04001 -5.16836 0
M  V30 15017 H 1463.73 3.37298 -6.76584 0
M  V30 15018 H 1465 4.49403 -6.36912 0
M  V30 15019 N 1469.23 1.56605 0.176793 0
M  V30 15020 C 1470.46 1.8617 0.91408 0
M  V30 15021 C 1470.88 0.68262 1.75277 0
M  V30 15022 O 1470.24 -0.368391 1.77518 0
M  V30 15023 C 1470.29 3.14109 1.7711 0
M  V30 15024 O 1469.39 2.95947 2.87209 0
M  V30 15025 H 1468.73 0.612507 0.25638 0
M  V30 15026 H 1471.26 2.03837 0.176586 0
M  V30 15027 H 1471.27 3.45373 2.17213 0
M  V30 15028 H 1469.95 3.9954 1.15502 0
M  V30 15029 H 1468.52 2.76024 2.50729 0
M  V30 15030 N 1470.71 -0.445159 1.51182 0
M  V30 15031 C 1471.66 -1.53975 1.71931 0
M  V30 15032 C 1472.63 -1.56344 0.560865 0
M  V30 15033 O 1473.81 -1.73475 0.794414 0
M  V30 15034 C 1470.95 -2.91756 1.84316 0
M  V30 15035 C 1470.06 -2.98976 3.11829 0
M  V30 15036 C 1469.2 -4.27831 3.14855 0
M  V30 15037 C 1468.24 -4.2889 4.36715 0
M  V30 15038 N 1467.38 -5.49257 4.37334 0
M  V30 15039 H 1472.22 -1.35586 2.65368 0
M  V30 15040 H 1469.75 -0.658787 1.31523 0
M  V30 15041 H 1471.71 -3.7169 1.89479 0
M  V30 15042 H 1470.34 -3.08721 0.942947 0
M  V30 15043 H 1469.39 -2.11753 3.16014 0
M  V30 15044 H 1470.7 -2.95619 4.01759 0
M  V30 15045 H 1469.86 -5.16134 3.1889 0
M  V30 15046 H 1468.6 -4.33833 2.228 0
M  V30 15047 H 1467.6 -3.38982 4.32864 0
M  V30 15048 H 1468.83 -4.24558 5.30026 0
M  V30 15049 H 1466.77 -5.55995 3.48145 0
M  V30 15050 H 1466.69 -5.47748 5.21064 0
M  V30 15051 H 1467.96 -6.39613 4.45551 0
M  V30 15052 N 1472.19 -1.41197 -0.700089 0
M  V30 15053 C 1473.44 -1.40034 -1.45722 0
M  V30 15054 C 1473.76 -0.00876281 -1.94998 0
M  V30 15055 O 1473.03 0.948647 -1.71399 0
M  V30 15056 H 1471.61 -0.515433 -0.540683 0
M  V30 15057 H 1474.27 -1.76394 -0.828926 0
M  V30 15058 H 1473.36 -2.08477 -2.32258 0
M  V30 15059 N 1473.67 0.933891 -1.2695 0
M  V30 15060 C 1474.63 2.0152 -1.0919 0
M  V30 15061 C 1475.63 1.60755 -0.037865 0
M  V30 15062 O 1476.82 1.71904 -0.281917 0
M  V30 15063 C 1473.95 3.34403 -0.66239 0
M  V30 15064 H 1475.14 2.18706 -2.05201 0
M  V30 15065 H 1472.7 1.11385 -1.0965 0
M  V30 15066 H 1473.43 3.22915 0.299388 0
M  V30 15067 H 1473.22 3.65345 -1.42356 0
M  V30 15068 H 1474.71 4.13826 -0.560187 0
M  V30 15069 N 1475.14 1.08871 1.13951 0
M  V30 15070 C 1476.39 0.819665 1.84732 0
M  V30 15071 C 1476.71 -0.656535 1.83615 0
M  V30 15072 O 1475.98 -1.47614 1.28791 0
M  V30 15073 H 1474.56 0.30023 0.684011 0
M  V30 15074 H 1477.22 1.37568 1.38062 0
M  V30 15075 H 1476.32 1.16809 2.89417 0
M  V30 15076 N 1476.62 -1.31073 0.875073 0
M  V30 15077 C 1477.87 -1.9613 0.487584 0
M  V30 15078 C 1478.19 -1.69482 -0.964407 0
M  V30 15079 O 1477.46 -1.013 -1.67676 0
M  V30 15080 H 1476.04 -0.725649 0.177319 0
M  V30 15081 H 1478.7 -1.59787 1.11598 0
M  V30 15082 H 1477.8 -3.05265 0.649574 0
M  V30 15083 N 1478.1 -0.635022 -1.4424 0
M  V30 15084 C 1479.03 0.106038 -2.28955 0
M  V30 15085 C 1480.05 0.805076 -1.415 0
M  V30 15086 O 1481.23 0.665872 -1.65615 0
M  V30 15087 C 1478.33 1.17252 -3.1797 0
M  V30 15088 C 1477.51 0.555225 -4.33862 0
M  V30 15089 C 1476.57 1.51618 -5.03883 0
M  V30 15090 O 1475.59 1.03181 -5.5977 0
M  V30 15091 N 1476.79 2.85048 -5.05696 0
M  V30 15092 H 1479.56 -0.620999 -2.93196 0
M  V30 15093 H 1477.12 -0.476466 -1.5473 0
M  V30 15094 H 1479.11 1.81578 -3.61679 0
M  V30 15095 H 1477.68 1.80174 -2.55453 0
M  V30 15096 H 1476.9 -0.266745 -3.93296 0
M  V30 15097 H 1478.19 0.123529 -5.0865 0
M  V30 15098 H 1477.59 3.26977 -4.6163 0
M  V30 15099 H 1476.15 3.44724 -5.5318 0
M  V30 15100 N 1479.58 1.53054 -0.375806 0
M  V30 15101 C 1480.83 2.01003 0.210257 0
M  V30 15102 C 1481.15 1.26451 1.48442 0
M  V30 15103 O 1480.42 0.380687 1.92166 0
M  V30 15104 H 1479 0.74263 0.0806861 0
M  V30 15105 H 1481.66 1.8826 -0.504393 0
M  V30 15106 H 1480.76 3.09123 0.430027 0
M  V30 15107 N 1481.06 0.105248 1.57248 0
M  V30 15108 C 1482 -0.850012 2.14577 0
M  V30 15109 C 1482.97 -1.27294 1.06703 0
M  V30 15110 O 1484.16 -1.35289 1.34542 0
M  V30 15111 C 1481.3 -2.09993 2.73856 0
M  V30 15112 C 1480.41 -1.72662 3.95995 0
M  V30 15113 C 1479.55 -2.92517 4.43404 0
M  V30 15114 C 1478.59 -2.5136 5.58108 0
M  V30 15115 N 1477.72 -3.64082 6.00324 0
M  V30 15116 H 1482.56 -0.354282 2.95887 0
M  V30 15117 H 1480.1 -0.163192 1.46192 0
M  V30 15118 H 1482.06 -2.83208 3.06348 0
M  V30 15119 H 1480.69 -2.57048 1.95259 0
M  V30 15120 H 1479.74 -0.893754 3.69752 0
M  V30 15121 H 1481.05 -1.38406 4.79213 0
M  V30 15122 H 1480.21 -3.73973 4.77734 0
M  V30 15123 H 1478.94 -3.2999 3.59107 0
M  V30 15124 H 1477.95 -1.68333 5.23397 0
M  V30 15125 H 1479.17 -2.15019 6.44161 0
M  V30 15126 H 1477.12 -4.01255 5.18971 0
M  V30 15127 H 1477.04 -3.33705 6.78363 0
M  V30 15128 H 1478.31 -4.46019 6.39287 0
M  V30 15129 N 1482.53 -1.56697 -0.168486 0
M  V30 15130 C 1483.78 -1.82424 -0.885965 0
M  V30 15131 C 1484.11 -0.683543 -1.81773 0
M  V30 15132 O 1483.39 0.314319 -1.91943 0
M  V30 15133 C 1483.67 -3.18553 -1.67917 0
M  V30 15134 C 1483.52 -4.43154 -0.770343 0
M  V30 15135 C 1484.84 -3.51654 -2.64627 0
M  V30 15136 H 1481.96 -0.663594 -0.320644 0
M  V30 15137 H 1484.6 -1.89391 -0.15205 0
M  V30 15138 H 1482.75 -3.12745 -2.30484 0
M  V30 15139 H 1484.43 -4.61032 -0.157328 0
M  V30 15140 H 1482.67 -4.33729 -0.0785653 0
M  V30 15141 H 1483.34 -5.34961 -1.36092 0
M  V30 15142 H 1485.82 -3.57934 -2.12185 0
M  V30 15143 H 1484.69 -4.47975 -3.17191 0
M  V30 15144 H 1484.95 -2.76503 -3.44961 0
M  V30 15145 N 1484.01 0.437135 -1.51416 0
M  V30 15146 C 1484.98 1.51313 -1.72154 0
M  V30 15147 C 1485.98 1.49523 -0.59157 0
M  V30 15148 O 1487.17 1.51541 -0.859118 0
M  V30 15149 C 1484.3 2.9085 -1.77818 0
M  V30 15150 H 1485.49 1.34229 -2.68184 0
M  V30 15151 H 1483.04 0.665822 -1.41409 0
M  V30 15152 H 1483.78 3.13338 -0.836033 0
M  V30 15153 H 1483.56 2.93554 -2.59939 0
M  V30 15154 H 1485.05 3.68905 -1.957 0
M  V30 15155 N 1485.49 1.41566 0.692592 0
M  V30 15156 C 1486.72 1.44646 1.48635 0
M  V30 15157 C 1487.14 0.0541597 1.88022 0
M  V30 15158 O 1486.5 -0.943305 1.54827 0
M  V30 15159 C 1486.55 2.3636 2.72335 0
M  V30 15160 O 1485.65 1.8227 3.69934 0
M  V30 15161 H 1484.99 0.490791 0.447236 0
M  V30 15162 H 1487.52 1.8606 0.851056 0
M  V30 15163 H 1487.53 2.52337 3.20609 0
M  V30 15164 H 1486.21 3.37523 2.43004 0
M  V30 15165 H 1484.78 1.75759 3.28882 0
M  V30 15166 N 1486.97 -0.927146 1.27443 0
M  V30 15167 C 1487.92 -2.02783 1.10216 0
M  V30 15168 C 1488.89 -1.661 0.00307842 0
M  V30 15169 O 1490.07 -1.90081 0.165508 0
M  V30 15170 C 1487.21 -3.36718 0.755984 0
M  V30 15171 C 1486.32 -3.86353 1.93276 0
M  V30 15172 C 1485.46 -5.08737 1.52841 0
M  V30 15173 C 1484.5 -5.50669 2.67263 0
M  V30 15174 N 1483.63 -6.6425 2.27413 0
M  V30 15175 H 1488.47 -2.16851 2.04401 0
M  V30 15176 H 1486.01 -1.06232 1.0175 0
M  V30 15177 H 1487.97 -4.13741 0.53609 0
M  V30 15178 H 1486.6 -3.22456 -0.148909 0
M  V30 15179 H 1485.65 -3.05604 2.26518 0
M  V30 15180 H 1486.96 -4.13401 2.79108 0
M  V30 15181 H 1486.12 -5.93263 1.26979 0
M  V30 15182 H 1484.86 -4.83467 0.641187 0
M  V30 15183 H 1483.86 -4.64692 2.93839 0
M  V30 15184 H 1485.09 -5.77934 3.56607 0
M  V30 15185 H 1483.03 -6.40636 1.41143 0
M  V30 15186 H 1482.95 -6.90955 3.06784 0
M  V30 15187 H 1484.22 -7.52115 2.048 0
M  V30 15188 N 1488.45 -1.09474 -1.13372 0
M  V30 15189 C 1489.7 -0.825968 -1.84013 0
M  V30 15190 C 1490.01 0.650623 -1.84462 0
M  V30 15191 O 1491.21 1.03495 -2.51 0
M  V30 15192 C 1489.67 -1.42769 -3.30371 0
M  V30 15193 C 1489.28 -2.93686 -3.38308 0
M  V30 15194 C 1491.02 -1.23788 -4.0605 0
M  V30 15195 C 1488.93 -3.46942 -4.78942 0
M  V30 15196 H 1487.86 -0.305322 -0.689416 0
M  V30 15197 H 1490.51 -1.31751 -1.27726 0
M  V30 15198 H 1488.89 -0.86384 -3.86463 0
M  V30 15199 H 1490.07 -3.56302 -2.92208 0
M  V30 15200 H 1488.38 -3.11706 -2.76094 0
M  V30 15201 H 1490.98 -1.61031 -5.09876 0
M  V30 15202 H 1491.32 -0.178578 -4.15917 0
M  V30 15203 H 1491.85 -1.76927 -3.56289 0
M  V30 15204 H 1488.59 -4.52495 -4.74267 0
M  V30 15205 H 1488.11 -2.8909 -5.25535 0
M  V30 15206 H 1489.79 -3.44176 -5.47861 0
M  V30 15207 N 1489.92 1.30607 -0.882012 0
M  V30 15208 C 1491.17 1.96547 -0.499703 0
M  V30 15209 C 1491.5 1.69484 0.948098 0
M  V30 15210 O 1490.78 0.997929 1.66948 0
M  V30 15211 C 1491.06 3.51735 -0.771662 0
M  V30 15212 C 1490.91 3.88326 -2.26987 0
M  V30 15213 C 1492.23 4.39411 -0.246178 0
M  V30 15214 H 1489.35 0.713912 -0.183026 0
M  V30 15215 H 1491.99 1.5453 -1.10546 0
M  V30 15216 H 1490.14 3.87655 -0.256092 0
M  V30 15217 H 1491.82 3.62444 -2.85362 0
M  V30 15218 H 1490.06 3.36501 -2.7377 0
M  V30 15219 H 1490.73 4.96574 -2.41078 0
M  V30 15220 H 1493.21 4.10382 -0.687419 0
M  V30 15221 H 1492.08 5.4692 -0.465817 0
M  V30 15222 H 1492.34 4.33804 0.852452 0
M  V30 15223 N 1491.4 0.642663 1.43901 0
M  V30 15224 C 1492.65 0.151478 2.01532 0
M  V30 15225 C 1492.97 -1.23519 1.50891 0
M  V30 15226 O 1492.24 -1.82299 0.717197 0
M  V30 15227 H 1490.82 0.0530091 0.745117 0
M  V30 15228 H 1493.48 0.831958 1.76251 0
M  V30 15229 H 1492.58 0.127995 3.11837 0
M  V30 15230 N 1492.88 -1.52852 0.383918 0
M  V30 15231 C 1494.29 -1.86477 -0.0912997 0
M  V30 15232 C 1494.64 -1.30382 -1.46611 0
M  V30 15233 O 1493.77 -0.633042 -2.06934 0
M  V30 15234 C 1494.36 -3.38361 -0.172447 0
M  V30 15235 C 1492.92 -3.71716 -0.591948 0
M  V30 15236 C 1492.07 -2.76176 0.24945 0
M  V30 15237 H 1495.02 -1.46839 0.602006 0
M  V30 15238 H 1495.04 -3.67325 -0.992603 0
M  V30 15239 H 1494.55 -3.79158 0.8283 0
M  V30 15240 H 1492.65 -3.36486 -1.60026 0
M  V30 15241 H 1492.77 -4.77792 -0.353835 0
M  V30 15242 H 1491.13 -2.53106 -0.284469 0
M  V30 15243 H 1491.91 -3.19809 1.24808 0
M  V30 15244 N 1494.36 -0.113586 -1.5719 0
M  V30 15245 C 1495.58 0.556928 -1.99783 0
M  V30 15246 C 1496.01 1.59774 -0.992669 0
M  V30 15247 O 1495.37 1.81263 0.0363821 0
M  V30 15248 C 1495.42 1.16463 -3.41275 0
M  V30 15249 O 1494.52 2.28024 -3.43626 0
M  V30 15250 H 1493.86 0.139628 -0.649153 0
M  V30 15251 H 1496.39 -0.200462 -2.03616 0
M  V30 15252 H 1496.4 1.50147 -3.79368 0
M  V30 15253 H 1495.08 0.402232 -4.1395 0
M  V30 15254 H 1493.65 1.9582 -3.17347 0
M  V30 15255 N 1495.84 1.56784 0.160173 0
M  V30 15256 C 1497.09 1.8226 0.873253 0
M  V30 15257 C 1497.41 0.692384 1.82294 0
M  V30 15258 O 1496.68 -0.286961 1.93787 0
M  V30 15259 H 1495.26 0.672371 0.325463 0
M  V30 15260 H 1497.92 1.94264 0.157325 0
M  V30 15261 H 1497.01 2.76714 1.44345 0
M  V30 15262 N 1497.32 -0.429099 1.51646 0
M  V30 15263 C 1498.28 -1.50398 1.72954 0
M  V30 15264 C 1499.28 -1.49207 0.599491 0
M  V30 15265 O 1500.47 -1.51084 0.867143 0
M  V30 15266 C 1497.6 -2.89903 1.79358 0
M  V30 15267 H 1498.79 -1.32805 2.68892 0
M  V30 15268 H 1496.35 -0.658313 1.4176 0
M  V30 15269 H 1497.08 -3.12891 0.852639 0
M  V30 15270 H 1496.87 -2.92171 2.61492 0
M  V30 15271 H 1498.36 -3.67862 1.97654 0
M  V30 15272 N 1498.79 -1.41931 -0.685074 0
M  V30 15273 C 1499.76 -1.44315 -1.78061 0
M  V30 15274 C 1500.76 -0.332215 -1.57331 0
M  V30 15275 O 1501.95 -0.59258 -1.63811 0
M  V30 15276 C 1499.08 -1.26479 -3.16569 0
M  V30 15277 H 1500.27 -2.4185 -1.77337 0
M  V30 15278 H 1497.82 -1.28228 -0.893721 0
M  V30 15279 H 1498.56 -0.298259 -3.22926 0
M  V30 15280 H 1498.34 -2.06981 -3.33018 0
M  V30 15281 H 1499.83 -1.31006 -3.96519 0
M  V30 15282 N 1500.27 0.920374 -1.27933 0
M  V30 15283 C 1501.52 1.67131 -1.1487 0
M  V30 15284 C 1501.85 1.91816 0.303343 0
M  V30 15285 O 1501.13 1.51379 1.22125 0
M  V30 15286 C 1501.41 3.03332 -1.94066 0
M  V30 15287 C 1501.26 2.85842 -3.47296 0
M  V30 15288 C 1502.58 4.03773 -1.75087 0
M  V30 15289 H 1499.7 0.606537 -0.418666 0
M  V30 15290 H 1502.34 1.06755 -1.57173 0
M  V30 15291 H 1500.49 3.54869 -1.58116 0
M  V30 15292 H 1502.16 2.41367 -3.93115 0
M  V30 15293 H 1500.41 2.21035 -3.73264 0
M  V30 15294 H 1501.08 3.82535 -3.97958 0
M  V30 15295 H 1503.55 3.61274 -2.06447 0
M  V30 15296 H 1502.43 4.97048 -2.32882 0
M  V30 15297 H 1502.69 4.36512 -0.700665 0
M  V30 15298 N 1501.75 1.10074 1.1279 0
M  V30 15299 C 1503.16 0.859181 1.65756 0
M  V30 15300 C 1503.51 -0.611193 1.86437 0
M  V30 15301 O 1502.64 -1.46997 1.58811 0
M  V30 15302 C 1503.23 1.55312 3.01104 0
M  V30 15303 C 1501.79 1.35836 3.51035 0
M  V30 15304 C 1500.94 1.60491 2.26137 0
M  V30 15305 H 1503.89 1.25897 0.966211 0
M  V30 15306 H 1503.91 0.990001 3.67395 0
M  V30 15307 H 1503.42 2.62325 2.8602 0
M  V30 15308 H 1501.52 0.309694 3.71311 0
M  V30 15309 H 1501.64 2.09777 4.30732 0
M  V30 15310 H 1500 1.02742 2.33058 0
M  V30 15311 H 1500.78 2.68748 2.1361 0
M  V30 15312 N 1503.23 -1.30138 0.888926 0
M  V30 15313 C 1504.47 -1.97776 0.516122 0
M  V30 15314 C 1504.83 -1.68613 -0.918358 0
M  V30 15315 O 1506.03 -2.29617 -1.39748 0
M  V30 15316 C 1504.3 -3.48608 0.787866 0
M  V30 15317 S 1505.86 -4.35735 0.517757 0
M  V30 15318 H 1502.68 -0.684617 0.191885 0
M  V30 15319 H 1505.28 -1.58168 1.14904 0
M  V30 15320 H 1503.99 -3.67326 1.8303 0
M  V30 15321 H 1503.52 -3.93141 0.142652 0
M  V30 15322 H 1505.53 -4.9203 -0.64192 0
M  V30 15323 N 1504.71 -0.650285 -1.43559 0
M  V30 15324 C 1505.65 0.043098 -2.3076 0
M  V30 15325 C 1506.62 0.81763 -1.44582 0
M  V30 15326 O 1507.81 0.794825 -1.73457 0
M  V30 15327 C 1504.95 1.00557 -3.30125 0
M  V30 15328 C 1504.06 0.227448 -4.31401 0
M  V30 15329 C 1503.2 1.18345 -5.17849 0
M  V30 15330 C 1502.23 0.395596 -6.1082 0
M  V30 15331 N 1501.37 1.30304 -6.89902 0
M  V30 15332 H 1506.21 -0.706402 -2.89506 0
M  V30 15333 H 1503.75 -0.360118 -1.42624 0
M  V30 15334 H 1505.71 1.57717 -3.8624 0
M  V30 15335 H 1504.34 1.72198 -2.73034 0
M  V30 15336 H 1503.39 -0.460391 -3.77604 0
M  V30 15337 H 1504.7 -0.385316 -4.9731 0
M  V30 15338 H 1503.85 1.82578 -5.78576 0
M  V30 15339 H 1502.59 1.83013 -4.52059 0
M  V30 15340 H 1501.6 -0.260099 -5.49184 0
M  V30 15341 H 1502.82 -0.246633 -6.78652 0
M  V30 15342 H 1500.77 1.93657 -6.26764 0
M  V30 15343 H 1500.69 0.744768 -7.52323 0
M  V30 15344 H 1501.95 1.93361 -7.55137 0
M  V30 15345 N 1506.18 1.52647 -0.392018 0
M  V30 15346 C 1507.43 2.01912 0.18958 0
M  V30 15347 C 1507.76 1.27786 1.46234 0
M  V30 15348 O 1507.04 0.379124 1.90769 0
M  V30 15349 C 1507.32 3.57217 0.454734 0
M  V30 15350 C 1507.17 4.4201 -0.833501 0
M  V30 15351 C 1508.49 4.22146 1.24421 0
M  V30 15352 H 1505.61 0.733909 0.0674281 0
M  V30 15353 H 1508.25 1.82685 -0.52212 0
M  V30 15354 H 1506.4 3.73731 1.06101 0
M  V30 15355 H 1508.08 4.37242 -1.47027 0
M  V30 15356 H 1506.32 4.08912 -1.44823 0
M  V30 15357 H 1506.99 5.48701 -0.602585 0
M  V30 15358 H 1509.47 4.09627 0.731093 0
M  V30 15359 H 1508.34 5.30786 1.39848 0
M  V30 15360 H 1508.6 3.7996 2.26016 0
M  V30 15361 N 1507.66 0.121921 1.57128 0
M  V30 15362 C 1508.57 -0.840825 2.19014 0
M  V30 15363 C 1509.59 -1.29051 1.16712 0
M  V30 15364 O 1510.76 -1.35289 1.49194 0
M  V30 15365 C 1507.83 -2.07204 2.7797 0
M  V30 15366 C 1506.89 -1.67399 3.95318 0
M  V30 15367 C 1506.12 -2.84652 4.51452 0
M  V30 15368 O 1506.35 -4.00161 4.06482 0
M  V30 15369 O 1505.28 -2.61568 5.42094 0
M  V30 15370 H 1509.11 -0.344146 3.01744 0
M  V30 15371 H 1506.69 -0.103841 1.49039 0
M  V30 15372 H 1508.57 -2.79307 3.1554 0
M  V30 15373 H 1507.25 -2.55872 1.9827 0
M  V30 15374 H 1506.16 -0.92395 3.62511 0
M  V30 15375 H 1507.49 -1.2347 4.76462 0
M  V30 15376 N 1509.14 -1.56867 -0.151857 0
M  V30 15377 C 1510.55 -1.72573 -0.712411 0
M  V30 15378 C 1510.9 -0.735557 -1.8189 0
M  V30 15379 O 1510.03 0.09888 -2.16174 0
M  V30 15380 C 1510.62 -3.12906 -1.29905 0
M  V30 15381 C 1509.18 -3.30231 -1.80623 0
M  V30 15382 C 1508.33 -2.68507 -0.692781 0
M  V30 15383 H 1511.28 -1.58528 0.0737603 0
M  V30 15384 H 1511.3 -3.12636 -2.16885 0
M  V30 15385 H 1510.81 -3.84949 -0.493509 0
M  V30 15386 H 1508.91 -2.63176 -2.6376 0
M  V30 15387 H 1509.03 -4.38141 -1.93828 0
M  V30 15388 H 1507.39 -2.28842 -1.11818 0
M  V30 15389 H 1508.17 -3.43151 0.10124 0
M  V30 15390 N 1510.62 0.421051 -1.51871 0
M  V30 15391 C 1511.87 1.16677 -1.65018 0
M  V30 15392 C 1512.19 1.91329 -0.376596 0
M  V30 15393 O 1511.46 1.86221 0.608146 0
M  V30 15394 H 1510.04 0.433698 -0.608206 0
M  V30 15395 H 1512.7 0.48115 -1.88868 0
M  V30 15396 H 1511.8 1.88742 -2.48562 0
M  V30 15397 N 1512.1 1.42293 0.677538 0
M  V30 15398 C 1513.03 1.48344 1.80323 0
M  V30 15399 C 1514.01 0.340276 1.66662 0
M  V30 15400 O 1515.19 0.554209 1.86124 0
M  V30 15401 C 1512.32 1.38247 3.18599 0
M  V30 15402 C 1511.28 2.50562 3.46991 0
M  V30 15403 C 1510.6 2.25524 4.84812 0
M  V30 15404 C 1511.9 3.92877 3.44158 0
M  V30 15405 H 1513.6 2.42558 1.75516 0
M  V30 15406 H 1511.14 1.16746 0.842999 0
M  V30 15407 H 1513.1 1.41089 3.97079 0
M  V30 15408 H 1511.82 0.405255 3.24076 0
M  V30 15409 H 1510.48 2.47032 2.7087 0
M  V30 15410 H 1510.13 1.26102 4.86937 0
M  V30 15411 H 1509.83 3.00797 5.04772 0
M  V30 15412 H 1511.35 2.3011 5.65581 0
M  V30 15413 H 1512.76 3.98024 4.12613 0
M  V30 15414 H 1511.16 4.6798 3.75653 0
M  V30 15415 H 1512.23 4.19743 2.42783 0
M  V30 15416 N 1513.57 -0.913576 1.28419 0
M  V30 15417 C 1514.82 -1.65944 1.15355 0
M  V30 15418 C 1515.14 -1.92706 -0.298228 0
M  V30 15419 O 1514.41 -1.54333 -1.20657 0
M  V30 15420 H 1512.99 -0.615063 0.423919 0
M  V30 15421 H 1515.66 -1.0962 1.6115 0
M  V30 15422 H 1514.75 -2.62173 1.69327 0
M  V30 15423 N 1515.05 -1.1067 -1.12204 0
M  V30 15424 C 1516.02 -0.761145 -2.16193 0
M  V30 15425 C 1517.02 0.215599 -1.59348 0
M  V30 15426 O 1518.21 -0.00786723 -1.74198 0
M  V30 15427 C 1515.34 -0.127863 -3.4066 0
M  V30 15428 H 1516.53 -1.68225 -2.48275 0
M  V30 15429 H 1514.08 -0.907542 -1.27253 0
M  V30 15430 H 1514.82 0.803851 -3.14179 0
M  V30 15431 H 1514.6 -0.83085 -3.83196 0
M  V30 15432 H 1516.09 0.0980593 -4.17485 0
M  V30 15433 N 1516.53 1.29665 -0.895815 0
M  V30 15434 C 1517.81 1.90601 -0.439394 0
M  V30 15435 C 1518.19 1.81341 1.08068 0
M  V30 15436 O 1517.54 1.23761 1.92082 0
M  V30 15437 C 1517.75 3.35832 -0.949622 0
M  V30 15438 C 1519.09 4.12873 -0.991015 0
M  V30 15439 O 1520.12 3.4472 -0.897025 0
M  V30 15440 O 1518.98 5.34656 -1.1316 0
M  V30 15441 H 1516.07 0.81569 -0.136304 0
M  V30 15442 H 1518.62 1.38157 -0.985426 0
M  V30 15443 H 1517.39 3.36708 -1.99357 0
M  V30 15444 H 1517.01 3.95747 -0.383376 0
M  V30 15445 N 1518.01 0.657889 1.43212 0
M  V30 15446 C 1518.96 -0.0427288 2.32561 0
M  V30 15447 C 1519.95 -0.808236 1.48875 0
M  V30 15448 O 1521.16 -0.718109 1.65055 0
M  V30 15449 H 1517.53 -0.0326049 0.751293 0
M  V30 15450 H 1519.5 0.728503 2.89371 0
M  V30 15451 C 1518.25 -0.99216 3.33244 0
M  V30 15452 H 1517.57 -0.412542 3.97666 0
M  V30 15453 H 1519.01 -1.45138 3.98385 0
M  V30 15454 C 1517.47 -2.09044 2.64201 0
M  V30 15455 O 1518 -3.17481 2.46107 0
M  V30 15456 N 1516.21 -1.85732 2.23499 0
M  V30 15457 H 1515.76 -0.975483 2.38416 0
M  V30 15458 H 1515.71 -2.5941 1.77634 0
M  V30 15459 N 1519.49 -1.52437 0.400108 0
M  V30 15460 C 1520.71 -2.0661 -0.180861 0
M  V30 15461 C 1521.14 -1.269 -1.38845 0
M  V30 15462 O 1520.49 -0.296862 -1.78853 0
M  V30 15463 C 1520.54 -3.56851 -0.518595 0
M  V30 15464 O 1519.65 -3.79634 -1.61095 0
M  V30 15465 H 1518.99 -0.663752 -0.0181348 0
M  V30 15466 H 1521.52 -1.96479 0.570702 0
M  V30 15467 H 1521.53 -4.00478 -0.779817 0
M  V30 15468 H 1520.2 -4.14302 0.364216 0
M  V30 15469 H 1518.78 -3.47892 -1.3426 0
M  V30 15470 N 1520.96 -0.130252 -1.57061 0
M  V30 15471 C 1522.21 0.525784 -1.95866 0
M  V30 15472 C 1522.54 1.65607 -1.01429 0
M  V30 15473 O 1521.82 1.94426 -0.0535544 0
M  V30 15474 C 1522.1 1.04784 -3.44517 0
M  V30 15475 C 1521.95 -0.0797972 -4.49729 0
M  V30 15476 C 1523.27 1.9351 -3.95275 0
M  V30 15477 H 1520.39 0.189652 -0.71218 0
M  V30 15478 H 1523.03 -0.208091 -1.88857 0
M  V30 15479 H 1521.18 1.67324 -3.50621 0
M  V30 15480 H 1522.86 -0.715535 -4.55717 0
M  V30 15481 H 1521.1 -0.741358 -4.27418 0
M  V30 15482 H 1521.77 0.326915 -5.51031 0
M  V30 15483 H 1524.25 1.40825 -3.91545 0
M  V30 15484 H 1523.12 2.26952 -4.99784 0
M  V30 15485 H 1523.38 2.86583 -3.36634 0
M  V30 15486 N 1522.44 1.56945 0.143535 0
M  V30 15487 C 1523.69 1.8381 0.856831 0
M  V30 15488 C 1524.02 0.712375 1.80662 0
M  V30 15489 O 1523.3 -0.283743 1.92419 0
M  V30 15490 C 1523.58 3.21184 1.62828 0
M  V30 15491 C 1523.43 4.44324 0.699744 0
M  V30 15492 C 1524.75 3.5582 2.58999 0
M  V30 15493 H 1521.87 0.668611 0.310046 0
M  V30 15494 H 1524.51 1.89609 0.1219 0
M  V30 15495 H 1522.66 3.16372 2.2548 0
M  V30 15496 H 1524.34 4.61224 0.0839619 0
M  V30 15497 H 1522.58 4.33799 0.0095529 0
M  V30 15498 H 1523.25 5.37058 1.27564 0
M  V30 15499 H 1525.73 3.61264 2.06464 0
M  V30 15500 H 1524.6 4.52964 3.10024 0
M  V30 15501 H 1524.86 2.81956 3.40519 0
M  V30 15502 N 1523.92 -0.412991 1.52093 0
M  V30 15503 C 1525.34 -0.751324 1.40809 0
M  V30 15504 C 1525.54 -1.94951 0.509543 0
M  V30 15505 O 1524.59 -2.52486 -0.026132 0
M  V30 15506 C 1525.91 -1.00888 2.8327 0
M  V30 15507 C 1527.45 -1.11183 2.92587 0
M  V30 15508 C 1527.93 -1.40217 4.36008 0
M  V30 15509 N 1529.42 -1.4709 4.39225 0
M  V30 15510 C 1530.16 -1.71174 5.47254 0
M  V30 15511 N 1529.65 -1.92887 6.65407 0
M  V30 15512 N 1531.44 -1.73157 5.34765 0
M  V30 15513 H 1523.6 0.375774 2.0905 0
M  V30 15514 H 1525.86 0.105817 0.942076 0
M  V30 15515 H 1525.56 -0.200872 3.51126 0
M  V30 15516 H 1525.44 -1.93008 3.2408 0
M  V30 15517 H 1527.83 -1.91043 2.24915 0
M  V30 15518 H 1527.91 -0.169078 2.55241 0
M  V30 15519 H 1527.55 -0.608754 5.04239 0
M  V30 15520 H 1527.48 -2.35737 4.70888 0
M  V30 15521 H 1529.97 -1.32114 3.54054 0
M  V30 15522 H 1530.28 -2.10704 7.43521 0
M  V30 15523 H 1528.63 -1.9016 6.68479 0
M  V30 15524 H 1531.82 -1.55728 4.41437 0
M  V30 15525 H 1531.99 -1.91587 6.1903 0
M  V30 15526 N 1525.4 -1.4265 -0.669982 0
M  V30 15527 C 1526.65 -1.43376 -1.43002 0
M  V30 15528 C 1526.97 -0.0519386 -1.94431 0
M  V30 15529 O 1526.23 0.940456 -1.71621 0
M  V30 15530 C 1526.53 -2.40913 -2.63999 0
M  V30 15531 C 1526.19 -3.87183 -2.31085 0
M  V30 15532 C 1524.86 -4.27024 -2.21819 0
M  V30 15533 C 1527.21 -4.79428 -2.04447 0
M  V30 15534 C 1524.54 -5.57084 -1.84049 0
M  V30 15535 C 1526.89 -6.09835 -1.68179 0
M  V30 15536 C 1525.55 -6.4867 -1.57428 0
M  V30 15537 H 1524.82 -0.524651 -0.52328 0
M  V30 15538 H 1527.47 -1.75622 -0.763494 0
M  V30 15539 H 1525.77 -2.02012 -3.35706 0
M  V30 15540 H 1527.47 -2.38737 -3.22189 0
M  V30 15541 H 1524.06 -3.55642 -2.392 0
M  V30 15542 H 1528.25 -4.49431 -2.10535 0
M  V30 15543 H 1523.5 -5.86029 -1.74298 0
M  V30 15544 H 1527.68 -6.80796 -1.46594 0
M  V30 15545 H 1525.3 -7.49358 -1.2793 0
M  V30 15546 N 1526.88 0.906753 -1.28902 0
M  V30 15547 C 1527.81 2.02663 -1.15974 0
M  V30 15548 C 1528.79 1.70009 -0.0557202 0
M  V30 15549 O 1529.97 1.92786 -0.233952 0
M  V30 15550 C 1527.1 3.37283 -0.828115 0
M  V30 15551 C 1526.06 3.84123 -1.88767 0
M  V30 15552 C 1525.38 5.15787 -1.40953 0
M  V30 15553 C 1526.68 4.05217 -3.2954 0
M  V30 15554 H 1528.38 2.13738 -2.09658 0
M  V30 15555 H 1525.92 1.02699 -1.0094 0
M  V30 15556 H 1527.88 4.15127 -0.724408 0
M  V30 15557 H 1526.6 3.2628 0.14443 0
M  V30 15558 H 1525.26 3.0849 -1.98065 0
M  V30 15559 H 1524.91 5.01194 -0.425848 0
M  V30 15560 H 1524.61 5.48098 -2.11807 0
M  V30 15561 H 1526.13 5.9618 -1.31918 0
M  V30 15562 H 1527.55 4.73565 -3.23124 0
M  V30 15563 H 1525.94 4.48871 -3.9829 0
M  V30 15564 H 1527.01 3.0979 -3.73039 0
M  V30 15565 N 1528.36 1.11264 1.11616 0
M  V30 15566 C 1529.77 0.876713 1.64835 0
M  V30 15567 C 1530.12 -0.591384 1.87075 0
M  V30 15568 O 1529.24 -1.45304 1.60361 0
M  V30 15569 C 1529.84 1.58496 2.9944 0
M  V30 15570 C 1528.4 1.39551 3.49575 0
M  V30 15571 C 1527.54 1.62881 2.24422 0
M  V30 15572 H 1530.49 1.26915 0.952804 0
M  V30 15573 H 1530.52 1.02891 3.66325 0
M  V30 15574 H 1530.03 2.65344 2.83221 0
M  V30 15575 H 1528.13 0.349059 3.70961 0
M  V30 15576 H 1528.24 2.14334 4.28483 0
M  V30 15577 H 1526.61 1.05208 2.31955 0
M  V30 15578 H 1527.39 2.70999 2.10748 0
M  V30 15579 N 1529.83 -1.29188 0.902679 0
M  V30 15580 C 1531.25 -1.47924 0.599209 0
M  V30 15581 C 1531.45 -1.82297 -0.858494 0
M  V30 15582 O 1530.51 -1.92123 -1.63845 0
M  V30 15583 C 1531.82 -2.59008 1.52759 0
M  V30 15584 C 1533.37 -2.72882 1.53312 0
M  V30 15585 C 1533.84 -3.87097 2.44785 0
M  V30 15586 N 1535.33 -3.94435 2.42849 0
M  V30 15587 C 1536.07 -4.82165 3.1033 0
M  V30 15588 N 1535.56 -5.74565 3.87101 0
M  V30 15589 N 1537.36 -4.75681 2.99473 0
M  V30 15590 H 1529.51 -1.05154 1.84544 0
M  V30 15591 H 1531.77 -0.522632 0.790924 0
M  V30 15592 H 1531.48 -2.40483 2.56634 0
M  V30 15593 H 1531.35 -3.55873 1.25036 0
M  V30 15594 H 1533.74 -2.90802 0.501804 0
M  V30 15595 H 1533.82 -1.76582 1.85074 0
M  V30 15596 H 1533.46 -3.69932 3.48012 0
M  V30 15597 H 1533.39 -4.82772 2.10331 0
M  V30 15598 H 1535.88 -3.28347 1.87074 0
M  V30 15599 H 1536.2 -6.3831 4.35638 0
M  V30 15600 H 1534.54 -5.74441 3.91207 0
M  V30 15601 H 1537.73 -4.02483 2.39009 0
M  V30 15602 H 1537.91 -5.4384 3.52337 0
M  V30 15603 N 1531.31 -0.665475 -1.42861 0
M  V30 15604 C 1532.22 0.018927 -2.34592 0
M  V30 15605 C 1533.24 0.798967 -1.54572 0
M  V30 15606 O 1534.41 0.743419 -1.87177 0
M  V30 15607 C 1531.48 0.965013 -3.32999 0
M  V30 15608 C 1530.54 0.180544 -4.2892 0
M  V30 15609 C 1529.77 1.08157 -5.22626 0
M  V30 15610 O 1530 2.32101 -5.21043 0
M  V30 15611 O 1528.93 0.54738 -5.99406 0
M  V30 15612 H 1532.76 -0.736444 -2.94636 0
M  V30 15613 H 1530.34 -0.425684 -1.43207 0
M  V30 15614 H 1532.22 1.50839 -3.93479 0
M  V30 15615 H 1530.9 1.7004 -2.75442 0
M  V30 15616 H 1529.8 -0.40671 -3.71883 0
M  V30 15617 H 1531.14 -0.515529 -4.89493 0
M  V30 15618 N 1532.79 1.52222 -0.408187 0
M  V30 15619 C 1533.7 2.30725 0.424645 0
M  V30 15620 C 1534.72 1.38412 1.05442 0
M  V30 15621 O 1535.89 1.71486 1.05614 0
M  V30 15622 C 1532.96 3.11273 1.52677 0
M  V30 15623 C 1532.02 4.19323 0.920143 0
M  V30 15624 C 1531.25 4.96021 1.96974 0
M  V30 15625 O 1531.47 4.73011 3.18774 0
M  V30 15626 O 1530.41 5.80887 1.5765 0
M  V30 15627 H 1534.23 3.02935 -0.215411 0
M  V30 15628 H 1531.82 1.48413 -0.171414 0
M  V30 15629 H 1533.7 3.61436 2.16661 0
M  V30 15630 H 1532.38 2.41857 2.15144 0
M  V30 15631 H 1531.28 3.7331 0.243037 0
M  V30 15632 H 1532.62 4.91028 0.339405 0
M  V30 15633 N 1534.27 0.138579 1.5699 0
M  V30 15634 C 1535.52 -0.513611 1.95465 0
M  V30 15635 C 1535.84 -1.65952 1.02396 0
M  V30 15636 O 1535.11 -1.9572 0.0839001 0
M  V30 15637 H 1533.69 -0.192729 0.72171 0
M  V30 15638 H 1536.35 0.212107 1.93742 0
M  V30 15639 H 1535.44 -0.895313 2.98983 0
M  V30 15640 N 1535.75 -1.57019 -0.13521 0
M  V30 15641 C 1537.16 -1.73319 -0.694067 0
M  V30 15642 C 1537.51 -0.754808 -1.811 0
M  V30 15643 O 1536.63 0.0759463 -2.16267 0
M  V30 15644 C 1537.23 -3.14266 -1.26579 0
M  V30 15645 C 1535.79 -3.32128 -1.7711 0
M  V30 15646 C 1534.93 -2.69226 -0.664263 0
M  V30 15647 H 1537.88 -1.58441 0.0905702 0
M  V30 15648 H 1537.91 -3.14919 -2.13557 0
M  V30 15649 H 1537.42 -3.85451 -0.452652 0
M  V30 15650 H 1535.52 -2.65959 -2.60953 0
M  V30 15651 H 1535.63 -4.40172 -1.8917 0
M  V30 15652 H 1534 -2.30016 -1.09384 0
M  V30 15653 H 1534.78 -3.43024 0.13763 0
M  V30 15654 N 1537.22 0.404919 -1.52309 0
M  V30 15655 C 1538.45 1.17139 -1.70182 0
M  V30 15656 C 1538.86 1.84642 -0.412805 0
M  V30 15657 O 1538.21 1.72873 0.621347 0
M  V30 15658 C 1538.27 2.27402 -2.78439 0
M  V30 15659 C 1537.93 1.8 -4.20058 0
M  V30 15660 C 1538.93 1.28546 -5.03758 0
M  V30 15661 C 1536.61 1.86706 -4.66311 0
M  V30 15662 C 1538.61 0.84425 -6.31784 0
M  V30 15663 C 1536.29 1.42197 -5.94326 0
M  V30 15664 C 1537.29 0.911418 -6.76892 0
M  V30 15665 O 1536.98 0.472762 -8.02509 0
M  V30 15666 H 1536.71 0.357845 -0.573518 0
M  V30 15667 H 1539.27 0.481939 -1.99666 0
M  V30 15668 H 1537.5 2.99724 -2.44341 0
M  V30 15669 H 1539.19 2.89143 -2.8487 0
M  V30 15670 H 1539.95 1.22734 -4.69213 0
M  V30 15671 H 1535.83 2.25389 -4.02145 0
M  V30 15672 H 1539.37 0.445063 -6.96179 0
M  V30 15673 H 1535.27 1.47689 -6.28377 0
M  V30 15674 H 1536.04 0.595689 -8.16329 0
M  V30 15675 N 1538.7 1.43003 0.662408 0
M  V30 15676 C 1539.61 1.49876 1.80484 0
M  V30 15677 C 1540.63 0.386526 1.69653 0
M  V30 15678 O 1541.8 0.639289 1.90984 0
M  V30 15679 C 1538.87 1.41057 3.16708 0
M  V30 15680 C 1537.93 2.62875 3.39404 0
M  V30 15681 C 1537.16 2.54468 4.69129 0
M  V30 15682 O 1537.39 1.58735 5.47868 0
M  V30 15683 O 1536.32 3.44814 4.93343 0
M  V30 15684 H 1540.15 2.46327 1.77641 0
M  V30 15685 H 1537.73 1.24903 0.81973 0
M  V30 15686 H 1539.61 1.38547 3.97973 0
M  V30 15687 H 1538.29 0.477361 3.20161 0
M  V30 15688 H 1537.2 2.70958 2.57939 0
M  V30 15689 H 1538.53 3.55137 3.40791 0
M  V30 15690 N 1540.18 -0.899904 1.29381 0
M  V30 15691 C 1541.43 -1.65282 1.17515 0
M  V30 15692 C 1541.76 -1.92275 -0.272788 0
M  V30 15693 O 1541.03 -1.53303 -1.19701 0
M  V30 15694 C 1541.32 -3.00207 1.98867 0
M  V30 15695 C 1541.17 -2.80281 3.51799 0
M  V30 15696 C 1542.49 -4.00936 1.81489 0
M  V30 15697 H 1539.61 -0.5998 0.428263 0
M  V30 15698 H 1542.25 -1.04241 1.58852 0
M  V30 15699 H 1540.4 -3.52308 1.63741 0
M  V30 15700 H 1542.07 -2.35082 3.96905 0
M  V30 15701 H 1540.32 -2.15068 3.76733 0
M  V30 15702 H 1540.99 -3.76155 4.03994 0
M  V30 15703 H 1543.46 -3.57944 2.12169 0
M  V30 15704 H 1542.34 -4.9328 2.4076 0
M  V30 15705 H 1542.6 -4.35342 0.770021 0
M  V30 15706 N 1541.66 -1.11854 -1.11024 0
M  V30 15707 C 1542.57 -0.79368 -2.20767 0
M  V30 15708 C 1543.58 0.214996 -1.72667 0
M  V30 15709 O 1544.76 0.0500976 -2.01338 0
M  V30 15710 C 1541.83 -0.246375 -3.45823 0
M  V30 15711 C 1540.89 -1.31421 -4.0869 0
M  V30 15712 C 1540.12 -0.792922 -5.27777 0
M  V30 15713 O 1540.34 0.375492 -5.69163 0
M  V30 15714 O 1539.28 -1.55971 -5.8134 0
M  V30 15715 H 1543.1 -1.71011 -2.50976 0
M  V30 15716 H 1540.69 -0.894752 -1.19643 0
M  V30 15717 H 1542.57 0.0542632 -4.21365 0
M  V30 15718 H 1541.24 0.642703 -3.17255 0
M  V30 15719 H 1540.15 -1.66792 -3.3486 0
M  V30 15720 H 1541.48 -2.17683 -4.41446 0
M  V30 15721 N 1543.14 1.28707 -0.909517 0
M  V30 15722 C 1544.38 1.95443 -0.541281 0
M  V30 15723 C 1544.72 1.71457 0.911934 0
M  V30 15724 O 1543.99 1.03312 1.64794 0
M  V30 15725 C 1544.27 3.50019 -0.846097 0
M  V30 15726 C 1544.13 3.83423 -2.35173 0
M  V30 15727 C 1545.45 4.3879 -0.339328 0
M  V30 15728 H 1542.56 0.709869 -0.198128 0
M  V30 15729 H 1545.21 1.52151 -1.13799 0
M  V30 15730 H 1543.36 3.87025 -0.338262 0
M  V30 15731 H 1545.03 3.5631 -2.92986 0
M  V30 15732 H 1543.27 3.30618 -2.80846 0
M  V30 15733 H 1543.94 4.91348 -2.51557 0
M  V30 15734 H 1546.42 4.08832 -0.774312 0
M  V30 15735 H 1545.29 5.45809 -0.581722 0
M  V30 15736 H 1545.56 4.35514 0.760244 0
M  V30 15737 N 1544.61 0.673042 1.42506 0
M  V30 15738 C 1545.84 0.202922 2.05902 0
M  V30 15739 C 1546.26 -1.13923 1.50556 0
M  V30 15740 O 1545.61 -1.70735 0.644662 0
M  V30 15741 C 1545.67 0.12735 3.61276 0
M  V30 15742 O 1545.39 1.41646 4.1457 0
M  V30 15743 C 1546.89 -0.366477 4.41783 0
M  V30 15744 H 1544.11 0.0991021 0.663641 0
M  V30 15745 H 1546.65 0.919282 1.82673 0
M  V30 15746 H 1544.81 -0.539687 3.83622 0
M  V30 15747 H 1545.22 1.28866 5.08423 0
M  V30 15748 H 1546.69 -0.368267 5.5077 0
M  V30 15749 H 1547.17 -1.40142 4.16241 0
M  V30 15750 H 1547.78 0.268761 4.2445 0
M  V30 15751 N 1546.09 -1.52004 0.416254 0
M  V30 15752 C 1547.32 -2.06008 -0.156264 0
M  V30 15753 C 1547.73 -1.28562 -1.3881 0
M  V30 15754 O 1547.07 -0.33265 -1.80663 0
M  V30 15755 C 1547.14 -3.55039 -0.564614 0
M  V30 15756 C 1546.8 -4.53587 0.557481 0
M  V30 15757 C 1547.8 -5.0004 1.42324 0
M  V30 15758 C 1545.48 -4.96935 0.732205 0
M  V30 15759 C 1547.48 -5.88492 2.4486 0
M  V30 15760 C 1545.16 -5.85181 1.76087 0
M  V30 15761 C 1546.16 -6.30855 2.61747 0
M  V30 15762 O 1545.85 -7.17353 3.6285 0
M  V30 15763 H 1545.58 -0.675681 -0.0207555 0
M  V30 15764 H 1548.13 -1.96806 0.58792 0
M  V30 15765 H 1546.36 -3.61951 -1.36119 0
M  V30 15766 H 1548.05 -3.91656 -1.06586 0
M  V30 15767 H 1548.82 -4.67261 1.29968 0
M  V30 15768 H 1544.7 -4.60939 0.0751016 0
M  V30 15769 H 1548.24 -6.24063 3.11754 0
M  V30 15770 H 1544.14 -6.17373 1.8847 0
M  V30 15771 H 1544.91 -7.35481 3.59179 0
M  V30 15772 N 1547.57 -0.146903 -1.56914 0
M  V30 15773 C 1548.85 0.549291 -1.87729 0
M  V30 15774 C 1549.23 1.82971 -1.05284 0
M  V30 15775 O 1548.58 2.28073 -0.139628 0
M  V30 15776 C 1548.79 0.814835 -3.39354 0
M  V30 15777 C 1550.13 1.15565 -4.0857 0
M  V30 15778 O 1551.16 0.904191 -3.44533 0
M  V30 15779 O 1550.02 1.62886 -5.21661 0
M  V30 15780 H 1547.11 0.280196 -0.778087 0
M  V30 15781 H 1549.66 -0.183507 -1.68705 0
M  V30 15782 H 1548.43 -0.0913527 -3.91193 0
M  V30 15783 H 1548.05 1.60182 -3.63906 0
M  V30 15784 N 1549.05 1.57088 0.126881 0
M  V30 15785 C 1550.3 1.84071 0.834397 0
M  V30 15786 C 1550.62 0.730896 1.80784 0
M  V30 15787 O 1549.89 -0.245791 1.94352 0
M  V30 15788 H 1548.47 0.679123 0.311128 0
M  V30 15789 H 1551.13 1.94554 0.116083 0
M  V30 15790 H 1550.23 2.79714 1.38443 0
M  V30 15791 N 1550.53 -0.396836 1.52522 0
M  V30 15792 C 1551.77 -1.14432 1.67431 0
M  V30 15793 C 1552.11 -1.89842 0.409115 0
M  V30 15794 O 1551.38 -1.85244 -0.592863 0
M  V30 15795 C 1551.66 -2.12889 2.90431 0
M  V30 15796 C 1551.52 -1.41295 4.27031 0
M  V30 15797 C 1552.84 -3.13412 3.08967 0
M  V30 15798 H 1549.95 -0.414643 0.609295 0
M  V30 15799 H 1552.6 -0.428604 1.85103 0
M  V30 15800 H 1550.75 -2.73924 2.75495 0
M  V30 15801 H 1552.42 -0.832848 4.53719 0
M  V30 15802 H 1550.66 -0.714834 4.2787 0
M  V30 15803 H 1551.33 -2.13198 5.09167 0
M  V30 15804 H 1553.81 -2.62462 3.22883 0
M  V30 15805 H 1552.68 -3.79555 3.96522 0
M  V30 15806 H 1552.95 -3.81836 2.22831 0
M  V30 15807 N 1552.01 -1.43353 -0.654814 0
M  V30 15808 C 1553.42 -1.39933 -1.23595 0
M  V30 15809 C 1553.77 -0.102592 -1.95932 0
M  V30 15810 O 1552.89 0.798021 -2.01148 0
M  V30 15811 C 1553.49 -2.53483 -2.24793 0
M  V30 15812 C 1552.05 -2.53333 -2.78387 0
M  V30 15813 C 1551.19 -2.31268 -1.53005 0
M  V30 15814 H 1554.14 -1.52277 -0.446932 0
M  V30 15815 H 1554.17 -2.2488 -3.06935 0
M  V30 15816 H 1553.68 -3.47847 -1.72116 0
M  V30 15817 H 1551.78 -1.62844 -3.35131 0
M  V30 15818 H 1551.89 -3.51047 -3.26041 0
M  V30 15819 H 1550.26 -1.79905 -1.80295 0
M  V30 15820 H 1551.04 -3.27714 -1.02266 0
M  V30 15821 N 1553.48 0.89303 -1.29857 0
M  V30 15822 C 1554.73 1.64657 -1.18389 0
M  V30 15823 C 1555.06 1.92417 0.262587 0
M  V30 15824 O 1554.34 1.53936 1.18887 0
M  V30 15825 C 1554.62 2.99148 -2.00456 0
M  V30 15826 C 1554.47 2.78411 -3.53281 0
M  V30 15827 C 1555.79 3.99968 -1.83613 0
M  V30 15828 H 1552.91 0.59752 -0.431438 0
M  V30 15829 H 1555.55 1.03397 -1.59402 0
M  V30 15830 H 1553.7 3.51435 -1.65607 0
M  V30 15831 H 1555.38 2.32974 -3.98147 0
M  V30 15832 H 1553.62 2.13067 -3.77869 0
M  V30 15833 H 1554.29 3.74008 -4.05983 0
M  V30 15834 H 1556.77 3.56813 -2.14064 0
M  V30 15835 H 1555.64 4.91997 -2.43373 0
M  V30 15836 H 1555.9 4.34928 -0.793098 0
M  V30 15837 N 1554.96 1.12442 1.10429 0
M  V30 15838 C 1556.37 0.894147 1.63896 0
M  V30 15839 C 1556.72 -0.571509 1.87692 0
M  V30 15840 O 1555.85 -1.43595 1.61893 0
M  V30 15841 C 1556.44 1.61664 2.97742 0
M  V30 15842 C 1555 1.43251 3.48075 0
M  V30 15843 C 1554.15 1.65252 2.22682 0
M  V30 15844 H 1557.1 1.27918 0.939289 0
M  V30 15845 H 1557.12 1.06771 3.65213 0
M  V30 15846 H 1556.63 2.68333 2.80391 0
M  V30 15847 H 1554.73 0.388385 3.7057 0
M  V30 15848 H 1554.85 2.18866 4.26186 0
M  V30 15849 H 1553.21 1.07663 2.30827 0
M  V30 15850 H 1553.99 2.73219 2.07862 0
M  V30 15851 N 1556.44 -1.28223 0.91633 0
M  V30 15852 C 1557.69 -1.9448 0.549734 0
M  V30 15853 C 1558.01 -1.72465 -0.909999 0
M  V30 15854 O 1557.28 -1.06583 -1.64368 0
M  V30 15855 H 1555.86 -0.719641 0.200315 0
M  V30 15856 H 1558.52 -1.56156 1.16625 0
M  V30 15857 H 1557.62 -3.03044 0.746363 0
M  V30 15858 N 1557.92 -0.68059 -1.42147 0
M  V30 15859 C 1559.14 -0.212293 -2.06311 0
M  V30 15860 C 1559.57 1.12402 -1.50822 0
M  V30 15861 O 1558.93 1.70037 -0.629051 0
M  V30 15862 C 1558.97 -0.164156 -3.60226 0
M  V30 15863 O 1558.08 0.865582 -4.03214 0
M  V30 15864 H 1557.42 -0.107451 -0.655248 0
M  V30 15865 H 1559.95 -0.931233 -1.82179 0
M  V30 15866 H 1559.96 0.0100422 -4.07999 0
M  V30 15867 H 1558.63 -1.13952 -3.99985 0
M  V30 15868 H 1557.21 0.661955 -3.66978 0
M  V30 15869 N 1559.4 1.51781 -0.424309 0
M  V30 15870 C 1560.81 1.86653 0.0418266 0
M  V30 15871 C 1561.16 1.34224 1.43103 0
M  V30 15872 O 1560.28 0.687684 2.05183 0
M  V30 15873 C 1560.88 3.38699 0.0826759 0
M  V30 15874 C 1559.44 3.73155 0.493186 0
M  V30 15875 C 1558.58 2.75417 -0.322586 0
M  V30 15876 H 1561.53 1.45191 -0.640726 0
M  V30 15877 H 1561.56 3.69828 0.894864 0
M  V30 15878 H 1561.07 3.76829 -0.928536 0
M  V30 15879 H 1559.17 3.4061 1.51048 0
M  V30 15880 H 1559.28 4.78562 0.227032 0
M  V30 15881 H 1557.65 2.53772 0.217262 0
M  V30 15882 H 1558.43 3.16388 -1.33243 0
M  V30 15883 N 1560.87 0.155222 1.56834 0
M  V30 15884 C 1562.12 -0.493826 1.96386 0
M  V30 15885 C 1562.45 -1.6433 1.04048 0
M  V30 15886 O 1561.7 -1.9557 0.0713123 0
M  V30 15887 C 1562 -1.03346 3.42132 0
M  V30 15888 C 1561.67 -0.00157215 4.509 0
M  V30 15889 C 1560.33 0.282068 4.80373 0
M  V30 15890 C 1562.68 0.699684 5.16482 0
M  V30 15891 C 1560.01 1.27263 5.72731 0
M  V30 15892 C 1562.36 1.67912 6.09908 0
M  V30 15893 C 1561.03 1.97037 6.37756 0
M  V30 15894 H 1560.3 -0.180704 0.718629 0
M  V30 15895 H 1562.94 0.243789 1.89942 0
M  V30 15896 H 1561.25 -1.84857 3.45449 0
M  V30 15897 H 1562.95 -1.54437 3.70068 0
M  V30 15898 H 1559.54 -0.232824 4.27967 0
M  V30 15899 H 1563.72 0.493751 4.93838 0
M  V30 15900 H 1558.98 1.50464 5.92597 0
M  V30 15901 H 1563.15 2.22796 6.59799 0
M  V30 15902 H 1560.78 2.73944 7.09125 0
M  V30 15903 N 1562.35 -1.57153 -0.118549 0
M  V30 15904 C 1563.76 -1.74046 -0.675645 0
M  V30 15905 C 1564.11 -0.773974 -1.80289 0
M  V30 15906 O 1563.24 0.0530041 -2.16335 0
M  V30 15907 C 1563.83 -3.15591 -1.23239 0
M  V30 15908 C 1562.39 -3.33988 -1.73577 0
M  V30 15909 C 1561.54 -2.69916 -0.63567 0
M  V30 15910 H 1564.49 -1.58336 0.10737 0
M  V30 15911 H 1564.51 -3.17166 -2.10205 0
M  V30 15912 H 1564.02 -3.8591 -0.411744 0
M  V30 15913 H 1562.12 -2.68712 -2.58118 0
M  V30 15914 H 1562.24 -4.42154 -1.84491 0
M  V30 15915 H 1560.6 -2.31163 -1.06939 0
M  V30 15916 H 1561.38 -3.42859 0.174005 0
M  V30 15917 N 1563.83 0.388742 -1.5273 0
M  V30 15918 C 1564.76 1.48133 -1.80496 0
M  V30 15919 C 1565.74 1.56899 -0.657008 0
M  V30 15920 O 1566.93 1.71844 -0.904621 0
M  V30 15921 C 1564.06 2.85742 -1.97405 0
M  V30 15922 C 1563.01 2.91815 -3.13094 0
M  V30 15923 C 1562.34 4.31876 -3.15258 0
M  V30 15924 C 1563.64 2.61438 -4.52159 0
M  V30 15925 H 1565.33 1.25147 -2.7199 0
M  V30 15926 H 1562.88 0.600603 -1.30877 0
M  V30 15927 H 1564.83 3.62182 -2.15412 0
M  V30 15928 H 1563.55 3.10065 -1.02601 0
M  V30 15929 H 1562.21 2.17824 -2.9487 0
M  V30 15930 H 1561.86 4.53239 -2.18135 0
M  V30 15931 H 1561.56 4.3686 -3.92972 0
M  V30 15932 H 1563.08 5.10221 -3.3542 0
M  V30 15933 H 1564.5 3.27596 -4.70483 0
M  V30 15934 H 1562.89 2.77771 -5.31943 0
M  V30 15935 H 1563.96 1.56778 -4.58856 0
M  V30 15936 N 1565.31 1.43698 0.647203 0
M  V30 15937 C 1566.22 1.51781 1.78884 0
M  V30 15938 C 1567.23 0.404498 1.69233 0
M  V30 15939 O 1568.41 0.659509 1.90296 0
M  V30 15940 C 1565.47 1.44408 3.15194 0
M  V30 15941 C 1564.54 2.6646 3.36597 0
M  V30 15942 C 1563.77 2.59429 4.66403 0
M  V30 15943 O 1563.99 1.64537 5.46154 0
M  V30 15944 O 1562.93 3.50027 4.89658 0
M  V30 15945 H 1566.75 2.48198 1.75019 0
M  V30 15946 H 1564.34 1.25766 0.806436 0
M  V30 15947 H 1566.22 1.42761 3.96481 0
M  V30 15948 H 1564.89 0.511292 3.19637 0
M  V30 15949 H 1563.8 2.73679 2.5505 0
M  V30 15950 H 1565.13 3.58732 3.37005 0
M  V30 15951 N 1566.79 -0.886131 1.30328 0
M  V30 15952 C 1567.75 -1.97328 1.16594 0
M  V30 15953 C 1568.75 -1.60504 0.0975023 0
M  V30 15954 O 1569.94 -1.70739 0.345524 0
M  V30 15955 C 1567.07 -3.31714 0.786045 0
M  V30 15956 H 1568.26 -2.1094 2.13177 0
M  V30 15957 H 1565.82 -1.07238 1.13708 0
M  V30 15958 H 1566.55 -3.23804 -0.179334 0
M  V30 15959 H 1566.34 -3.5981 1.55817 0
M  V30 15960 H 1567.83 -4.11461 0.71339 0
M  V30 15961 N 1568.26 -1.13026 -1.09832 0
M  V30 15962 C 1569.51 -0.890736 -1.82191 0
M  V30 15963 C 1569.84 0.581818 -1.8528 0
M  V30 15964 O 1569.12 1.43037 -1.31798 0
M  V30 15965 C 1569.4 -1.47403 -3.28549 0
M  V30 15966 C 1569.25 -3.0154 -3.33757 0
M  V30 15967 C 1570.57 -1.13876 -4.25112 0
M  V30 15968 H 1567.69 -0.325028 -0.661457 0
M  V30 15969 H 1570.33 -1.39787 -1.28684 0
M  V30 15970 H 1568.48 -1.04272 -3.74245 0
M  V30 15971 H 1570.16 -3.53395 -2.96495 0
M  V30 15972 H 1568.4 -3.36746 -2.73467 0
M  V30 15973 H 1569.07 -3.37449 -4.36843 0
M  V30 15974 H 1571.55 -1.51139 -3.87681 0
M  V30 15975 H 1570.42 -1.57343 -5.25865 0
M  V30 15976 H 1570.68 -0.051854 -4.4207 0
M  V30 15977 N 1569.74 1.27735 -0.923117 0
M  V30 15978 C 1570.71 2.25256 -0.423375 0
M  V30 15979 C 1571.71 1.54213 0.455517 0
M  V30 15980 O 1572.9 1.7229 0.257245 0
M  V30 15981 C 1570.03 3.3864 0.391897 0
M  V30 15982 H 1571.22 2.70978 -1.28495 0
M  V30 15983 H 1568.77 1.39579 -0.703378 0
M  V30 15984 H 1569.51 2.98293 1.27248 0
M  V30 15985 H 1569.29 3.91376 -0.238194 0
M  V30 15986 H 1570.78 4.11133 0.732069 0
M  V30 15987 N 1571.22 0.688118 1.41784 0
M  V30 15988 C 1572.63 0.291625 1.84408 0
M  V30 15989 C 1572.98 -1.1688 1.57587 0
M  V30 15990 O 1572.11 -1.89634 1.04248 0
M  V30 15991 C 1572.7 0.522511 3.34747 0
M  V30 15992 C 1571.26 0.180008 3.75969 0
M  V30 15993 C 1570.41 0.808455 2.65253 0
M  V30 15994 H 1573.36 0.88932 1.31441 0
M  V30 15995 H 1573.38 -0.221167 3.79857 0
M  V30 15996 H 1572.89 1.5855 3.54236 0
M  V30 15997 H 1570.99 -0.879012 3.62083 0
M  V30 15998 H 1571.11 0.629826 4.74942 0
M  V30 15999 H 1569.47 0.238665 2.53579 0
M  V30 16000 H 1570.25 1.87516 2.87563 0
M  V30 16001 N 1572.7 -1.51554 0.432352 0
M  V30 16002 C 1573.93 -2.06462 -0.1346 0
M  V30 16003 C 1574.34 -1.30027 -1.36889 0
M  V30 16004 O 1573.7 -0.358447 -1.78945 0
M  V30 16005 C 1573.75 -3.58538 -0.461822 0
M  V30 16006 O 1573.47 -4.32085 0.723471 0
M  V30 16007 C 1574.97 -4.29943 -1.07999 0
M  V30 16008 H 1572.19 -0.670923 -0.0101329 0
M  V30 16009 H 1574.74 -1.9519 0.609999 0
M  V30 16010 H 1572.89 -3.6974 -1.15632 0
M  V30 16011 H 1573.3 -5.22611 0.444757 0
M  V30 16012 H 1574.78 -5.37451 -1.25898 0
M  V30 16013 H 1575.26 -3.87912 -2.05963 0
M  V30 16014 H 1575.86 -4.23171 -0.425022 0
M  V30 16015 N 1574.18 -0.163538 -1.56749 0
M  V30 16016 C 1575.12 0.769787 -2.17584 0
M  V30 16017 C 1576.09 1.23246 -1.11354 0
M  V30 16018 O 1577.28 1.30203 -1.3947 0
M  V30 16019 C 1574.42 1.99685 -2.81461 0
M  V30 16020 C 1573.53 1.57846 -4.0213 0
M  V30 16021 C 1572.67 2.75858 -4.53955 0
M  V30 16022 C 1571.71 2.30473 -5.67053 0
M  V30 16023 N 1570.84 3.41551 -6.13423 0
M  V30 16024 H 1575.68 0.244221 -2.96998 0
M  V30 16025 H 1573.22 0.108821 -1.46697 0
M  V30 16026 H 1575.18 2.71643 -3.16648 0
M  V30 16027 H 1573.81 2.49624 -2.04664 0
M  V30 16028 H 1572.86 0.755907 -3.72814 0
M  V30 16029 H 1574.17 1.20525 -4.8402 0
M  V30 16030 H 1573.33 3.55984 -4.91284 0
M  V30 16031 H 1572.06 3.16434 -3.71107 0
M  V30 16032 H 1571.07 1.48791 -5.29284 0
M  V30 16033 H 1572.29 1.90964 -6.51698 0
M  V30 16034 H 1570.24 3.81717 -5.33506 0
M  V30 16035 H 1570.16 3.08298 -6.90281 0
M  V30 16036 H 1571.43 4.21985 -6.554 0
M  V30 16037 N 1575.65 1.57214 0.110213 0
M  V30 16038 C 1577.07 1.74402 0.666405 0
M  V30 16039 C 1577.42 0.783524 1.79876 0
M  V30 16040 O 1576.54 -0.0415306 2.1636 0
M  V30 16041 C 1577.14 3.1624 1.21564 0
M  V30 16042 C 1575.7 3.34904 1.71804 0
M  V30 16043 C 1574.84 2.70249 0.621347 0
M  V30 16044 H 1577.79 1.58277 -0.115765 0
M  V30 16045 H 1577.81 3.18276 2.0852 0
M  V30 16046 H 1577.33 3.86123 0.391273 0
M  V30 16047 H 1575.43 2.70077 2.56689 0
M  V30 16048 H 1575.54 4.43126 1.82143 0
M  V30 16049 H 1573.9 2.31727 1.05711 0
M  V30 16050 H 1574.69 3.42762 -0.192185 0
M  V30 16051 N 1577.13 -0.380637 1.52934 0
M  V30 16052 C 1578.36 -1.15033 1.72575 0
M  V30 16053 C 1578.78 -1.82715 0.446869 0
M  V30 16054 O 1578.14 -1.71154 -0.598004 0
M  V30 16055 C 1578.19 -2.16773 2.8817 0
M  V30 16056 O 1577.29 -3.23539 2.55727 0
M  V30 16057 H 1576.63 -0.334489 0.573597 0
M  V30 16058 H 1579.16 -0.442369 1.9976 0
M  V30 16059 H 1579.17 -2.60629 3.13905 0
M  V30 16060 H 1577.85 -1.669 3.80943 0
M  V30 16061 H 1576.43 -2.84761 2.4076 0
M  V30 16062 N 1578.61 -1.44039 -0.639573 0
M  V30 16063 C 1579.56 -1.50254 -1.75192 0
M  V30 16064 C 1580.53 -0.350994 -1.62349 0
M  V30 16065 O 1581.71 -0.56006 -1.82395 0
M  V30 16066 C 1578.85 -1.44464 -3.13407 0
M  V30 16067 C 1577.97 -2.69929 -3.37287 0
M  V30 16068 C 1577.1 -2.56031 -4.65426 0
M  V30 16069 C 1576.14 -3.76699 -4.82456 0
M  V30 16070 N 1575.28 -3.61529 -6.01865 0
M  V30 16071 H 1580.12 -2.45296 -1.69216 0
M  V30 16072 H 1577.65 -1.21748 -0.825576 0
M  V30 16073 H 1579.61 -1.39099 -3.93328 0
M  V30 16074 H 1578.24 -0.529951 -3.1842 0
M  V30 16075 H 1577.29 -2.85516 -2.51366 0
M  V30 16076 H 1578.61 -3.59523 -3.45753 0
M  V30 16077 H 1577.76 -2.48451 -5.53495 0
M  V30 16078 H 1576.5 -1.63983 -4.59305 0
M  V30 16079 H 1575.5 -3.84672 -3.92819 0
M  V30 16080 H 1576.73 -4.69772 -4.90398 0
M  V30 16081 H 1574.67 -2.72226 -5.96849 0
M  V30 16082 H 1574.59 -4.44733 -6.1135 0
M  V30 16083 H 1575.86 -3.57826 -6.92518 0
M  V30 16084 N 1580.09 0.879207 -1.30796 0
M  V30 16085 C 1581.33 1.63392 -1.20129 0
M  V30 16086 C 1581.67 1.92684 0.242164 0
M  V30 16087 O 1580.94 1.55188 1.17247 0
M  V30 16088 C 1581.23 2.97005 -2.03618 0
M  V30 16089 C 1581.08 2.74649 -3.56214 0
M  V30 16090 C 1582.4 3.97998 -1.87845 0
M  V30 16091 H 1579.52 0.592911 -0.437751 0
M  V30 16092 H 1582.16 1.017 -1.6049 0
M  V30 16093 H 1580.31 3.49659 -1.69326 0
M  V30 16094 H 1581.98 2.28738 -4.00595 0
M  V30 16095 H 1580.22 2.09048 -3.80107 0
M  V30 16096 H 1580.89 3.69681 -4.09927 0
M  V30 16097 H 1583.37 3.54523 -2.17836 0
M  V30 16098 H 1582.25 4.89388 -2.48578 0
M  V30 16099 H 1582.51 4.34062 -0.839183 0
M  V30 16100 N 1581.57 1.13606 1.09231 0
M  V30 16101 C 1582.51 0.815279 2.15921 0
M  V30 16102 C 1583.48 -0.223501 1.64589 0
M  V30 16103 O 1584.67 -0.0952982 1.90562 0
M  V30 16104 C 1581.81 0.289655 3.43882 0
M  V30 16105 C 1580.92 1.38773 4.09104 0
M  V30 16106 C 1580.06 0.820238 5.24829 0
M  V30 16107 C 1579.1 1.89658 5.81976 0
M  V30 16108 N 1578.23 1.34688 6.8906 0
M  V30 16109 H 1583.07 1.72914 2.42703 0
M  V30 16110 H 1580.61 0.863101 1.19117 0
M  V30 16111 H 1582.57 -0.0332398 4.17187 0
M  V30 16112 H 1581.2 -0.587329 3.17412 0
M  V30 16113 H 1580.25 1.82718 3.33644 0
M  V30 16114 H 1581.56 2.20114 4.47606 0
M  V30 16115 H 1580.72 0.448745 6.05038 0
M  V30 16116 H 1579.46 -0.0242261 4.87694 0
M  V30 16117 H 1578.46 2.27712 5.00427 0
M  V30 16118 H 1579.69 2.74448 6.21172 0
M  V30 16119 H 1577.63 0.524453 6.539 0
M  V30 16120 H 1577.55 2.09675 7.26342 0
M  V30 16121 H 1578.82 1.00302 7.7302 0
M  V30 16122 N 1583.05 -1.27244 0.929878 0
M  V30 16123 C 1584.01 -2.25028 0.435315 0
M  V30 16124 C 1585.01 -1.54453 -0.447332 0
M  V30 16125 O 1586.2 -1.72424 -0.248105 0
M  V30 16126 C 1583.33 -3.38843 -0.373933 0
M  V30 16127 H 1584.52 -2.70293 1.2993 0
M  V30 16128 H 1582.08 -1.39204 0.710771 0
M  V30 16129 H 1582.81 -2.98963 -1.25664 0
M  V30 16130 H 1582.6 -3.91244 0.258946 0
M  V30 16131 H 1584.09 -4.11516 -0.710255 0
M  V30 16132 N 1584.52 -0.695628 -1.41417 0
M  V30 16133 C 1585.77 -0.226618 -2.01228 0
M  V30 16134 C 1586.1 1.17376 -1.5509 0
M  V30 16135 O 1585.35 1.80635 -0.752964 0
M  V30 16136 C 1585.65 -0.232664 -3.56642 0
M  V30 16137 C 1585.32 -1.58057 -4.2229 0
M  V30 16138 C 1583.98 -1.94959 -4.39937 0
M  V30 16139 C 1586.33 -2.46735 -4.59098 0
M  V30 16140 C 1583.66 -3.20123 -4.91669 0
M  V30 16141 C 1586.01 -3.71232 -5.1222 0
M  V30 16142 C 1584.68 -4.08277 -5.28078 0
M  V30 16143 H 1583.95 -0.0829255 -0.736345 0
M  V30 16144 H 1586.59 -0.894729 -1.69313 0
M  V30 16145 H 1584.9 0.518995 -3.88347 0
M  V30 16146 H 1586.6 0.147754 -4.00728 0
M  V30 16147 H 1583.19 -1.28356 -4.08929 0
M  V30 16148 H 1587.37 -2.19506 -4.45119 0
M  V30 16149 H 1582.63 -3.48819 -5.02131 0
M  V30 16150 H 1586.8 -4.40132 -5.39682 0
M  V30 16151 H 1584.43 -5.05335 -5.67927 0
M  V30 16152 N 1586 1.51322 -0.440383 0
M  V30 16153 C 1587.25 2.01714 0.124815 0
M  V30 16154 C 1587.57 1.32634 1.42945 0
M  V30 16155 O 1586.84 0.461849 1.90378 0
M  V30 16156 H 1585.42 0.745384 0.049116 0
M  V30 16157 H 1588.08 1.85951 -0.583787 0
M  V30 16158 H 1587.18 3.10669 0.29853 0
M  V30 16159 N 1587.48 0.171848 1.5666 0
M  V30 16160 C 1588.89 -0.34479 1.83489 0
M  V30 16161 C 1589.24 -1.63025 1.09167 0
M  V30 16162 O 1588.37 -2.13634 0.34488 0
M  V30 16163 C 1588.96 -0.63234 3.32847 0
M  V30 16164 C 1587.52 -1.09342 3.60169 0
M  V30 16165 C 1586.67 -0.129569 2.76997 0
M  V30 16166 H 1589.62 0.396101 1.53677 0
M  V30 16167 H 1589.64 -1.48434 3.50354 0
M  V30 16168 H 1589.15 0.303409 3.86912 0
M  V30 16169 H 1587.25 -2.04425 3.11514 0
M  V30 16170 H 1587.37 -1.00221 4.685 0
M  V30 16171 H 1585.73 -0.627033 2.46861 0
M  V30 16172 H 1586.51 0.800211 3.33844 0
M  V30 16173 N 1588.96 -1.5727 -0.101874 0
M  V30 16174 C 1590.21 -1.85375 -0.805007 0
M  V30 16175 C 1590.53 -0.759564 -1.79599 0
M  V30 16176 O 1589.8 0.21484 -1.94718 0
M  V30 16177 H 1588.38 -0.683987 -0.300284 0
M  V30 16178 H 1591.04 -1.94714 -0.0851166 0
M  V30 16179 H 1590.13 -2.81881 -1.33976 0
M  V30 16180 N 1590.44 0.372521 -1.53134 0
M  V30 16181 C 1591.37 1.4621 -1.82057 0
M  V30 16182 C 1592.35 1.56194 -0.673612 0
M  V30 16183 O 1593.53 1.70875 -0.922797 0
M  V30 16184 C 1590.66 2.83632 -2.00425 0
M  V30 16185 C 1589.62 2.88478 -3.16171 0
M  V30 16186 C 1588.94 4.28508 -3.19821 0
M  V30 16187 C 1590.24 2.56628 -4.54906 0
M  V30 16188 H 1591.94 1.22256 -2.73302 0
M  V30 16189 H 1589.48 0.586688 -1.31507 0
M  V30 16190 H 1591.43 3.59876 -2.19242 0
M  V30 16191 H 1590.16 3.0896 -1.05884 0
M  V30 16192 H 1588.82 2.14684 -2.97164 0
M  V30 16193 H 1588.47 4.509 -2.2293 0
M  V30 16194 H 1588.17 4.32667 -3.97584 0
M  V30 16195 H 1589.69 5.06635 -3.40813 0
M  V30 16196 H 1591.1 3.22587 -4.73931 0
M  V30 16197 H 1589.5 2.72114 -5.34859 0
M  V30 16198 H 1590.57 1.51902 -4.60493 0
M  V30 16199 N 1591.91 1.44376 0.631925 0
M  V30 16200 C 1592.85 1.47167 1.75711 0
M  V30 16201 C 1593.86 0.365158 1.58652 0
M  V30 16202 O 1595.05 0.630852 1.66981 0
M  V30 16203 C 1592.15 1.28916 3.13423 0
M  V30 16204 C 1591.32 2.52798 3.56948 0
M  V30 16205 C 1590.38 2.29458 4.73535 0
M  V30 16206 O 1589.41 3.02941 4.81887 0
M  V30 16207 N 1590.61 1.32467 5.65184 0
M  V30 16208 H 1593.37 2.44168 1.73788 0
M  V30 16209 H 1590.93 1.39805 0.816465 0
M  V30 16210 H 1592.93 1.1115 3.89137 0
M  V30 16211 H 1591.5 0.402828 3.09994 0
M  V30 16212 H 1590.72 2.85846 2.71451 0
M  V30 16213 H 1592 3.35198 3.82779 0
M  V30 16214 H 1591.4 0.717762 5.61128 0
M  V30 16215 H 1589.96 1.2068 6.40531 0
M  V30 16216 N 1593.39 -0.872258 1.31261 0
M  V30 16217 C 1594.64 -1.6219 1.20576 0
M  V30 16218 C 1594.96 -1.93557 -0.236769 0
M  V30 16219 O 1594.23 -1.58094 -1.15686 0
M  V30 16220 H 1592.81 -0.601265 0.443272 0
M  V30 16221 H 1595.47 -1.04438 1.64556 0
M  V30 16222 H 1594.57 -2.56653 1.77582 0
M  V30 16223 N 1594.87 -1.14184 -1.08627 0
M  V30 16224 C 1596.12 -0.906869 -1.80611 0
M  V30 16225 C 1596.44 0.568182 -1.86539 0
M  V30 16226 O 1595.71 1.41301 -1.35687 0
M  V30 16227 H 1594.29 -0.332523 -0.668908 0
M  V30 16228 H 1596.95 -1.43998 -1.31341 0
M  V30 16229 H 1596.05 -1.30484 -2.83514 0
M  V30 16230 N 1596.35 1.26749 -0.936613 0
M  V30 16231 C 1597.57 1.98597 -0.597817 0
M  V30 16232 C 1598 1.69324 0.8192 0
M  V30 16233 O 1597.36 0.938634 1.55111 0
M  V30 16234 C 1597.4 3.50656 -0.841007 0
M  V30 16235 O 1596.51 4.12304 0.0891038 0
M  V30 16236 H 1595.85 0.623197 -0.229176 0
M  V30 16237 H 1598.38 1.61332 -1.2583 0
M  V30 16238 H 1598.39 4.00857 -0.760093 0
M  V30 16239 H 1597.06 3.71293 -1.87388 0
M  V30 16240 H 1595.64 3.72876 -0.0424804 0
M  V30 16241 N 1597.83 0.703118 1.41046 0
M  V30 16242 C 1598.79 0.0514476 2.29142 0
M  V30 16243 C 1599.79 -0.700223 1.44753 0
M  V30 16244 O 1600.98 -0.533985 1.65814 0
M  V30 16245 C 1598.11 -0.93735 3.2776 0
M  V30 16246 H 1599.3 0.827201 2.88266 0
M  V30 16247 H 1596.86 0.467045 1.49159 0
M  V30 16248 H 1597.59 -1.7406 2.7363 0
M  V30 16249 H 1597.38 -0.4014 3.9004 0
M  V30 16250 H 1598.87 -1.39088 3.93757 0
M  V30 16251 N 1599.3 -1.51086 0.448402 0
M  V30 16252 C 1600.55 -2.01778 -0.114116 0
M  V30 16253 C 1600.87 -1.3339 -1.4224 0
M  V30 16254 O 1600.14 -0.471938 -1.9013 0
M  V30 16255 H 1598.72 -0.745634 -0.0451624 0
M  V30 16256 H 1601.39 -1.85639 0.59364 0
M  V30 16257 H 1600.48 -3.10823 -0.28205 0
M  V30 16258 N 1600.78 -0.180154 -1.56567 0
M  V30 16259 C 1602.01 0.471692 -2.01965 0
M  V30 16260 C 1602.43 1.5542 -1.05954 0
M  V30 16261 O 1601.79 1.81255 -0.0405307 0
M  V30 16262 C 1601.84 1.01883 -3.45908 0
M  V30 16263 O 1600.94 2.13245 -3.52988 0
M  V30 16264 H 1600.28 0.11197 -0.654491 0
M  V30 16265 H 1602.81 -0.286642 -2.02582 0
M  V30 16266 H 1602.82 1.33922 -3.85395 0
M  V30 16267 H 1601.5 0.226299 -4.15284 0
M  V30 16268 H 1600.08 1.82184 -3.25367 0
M  V30 16269 N 1602.26 1.57322 0.0935319 0
M  V30 16270 C 1603.67 1.75099 0.64787 0
M  V30 16271 C 1604.02 0.802558 1.79035 0
M  V30 16272 O 1603.15 -0.0185803 2.16392 0
M  V30 16273 C 1603.74 3.17512 1.18203 0
M  V30 16274 C 1602.3 3.36707 1.68242 0
M  V30 16275 C 1601.45 2.70893 0.592649 0
M  V30 16276 H 1604.4 1.58146 -0.132546 0
M  V30 16277 H 1604.42 3.2047 2.05132 0
M  V30 16278 H 1603.93 3.86516 0.350297 0
M  V30 16279 H 1602.03 2.72784 2.5381 0
M  V30 16280 H 1602.15 4.45033 1.77433 0
M  V30 16281 H 1600.51 2.32835 1.03248 0
M  V30 16282 H 1601.29 3.42539 -0.228529 0
M  V30 16283 N 1603.74 -0.364395 1.53329 0
M  V30 16284 C 1604.7 -1.42927 1.79178 0
M  V30 16285 C 1605.7 -1.4653 0.662235 0
M  V30 16286 O 1606.89 -1.4727 0.930442 0
M  V30 16287 C 1604.02 -2.82035 1.91492 0
M  V30 16288 H 1605.22 -1.21281 2.74283 0
M  V30 16289 H 1602.77 -0.597596 1.44425 0
M  V30 16290 H 1603.5 -3.08993 0.984579 0
M  V30 16291 H 1603.29 -2.80818 2.73649 0
M  V30 16292 H 1604.78 -3.59148 2.13078 0
M  V30 16293 N 1605.22 -1.44709 -0.62426 0
M  V30 16294 C 1606.63 -1.28747 -0.9432 0
M  V30 16295 C 1606.83 -0.228265 -2.00203 0
M  V30 16296 O 1605.89 0.383506 -2.49571 0
M  V30 16297 C 1607.2 -2.66124 -1.39995 0
M  V30 16298 C 1608.75 -2.73889 -1.51506 0
M  V30 16299 C 1609.22 -4.11751 -2.00562 0
M  V30 16300 N 1610.72 -4.13962 -2.07821 0
M  V30 16301 C 1611.45 -5.1749 -2.46964 0
M  V30 16302 N 1610.95 -6.31376 -2.85195 0
M  V30 16303 N 1612.74 -5.04846 -2.47158 0
M  V30 16304 H 1604.89 -2.12264 0.0758746 0
M  V30 16305 H 1607.15 -0.947566 -0.0286915 0
M  V30 16306 H 1606.86 -3.4474 -0.696203 0
M  V30 16307 H 1606.73 -2.93474 -2.36967 0
M  V30 16308 H 1609.12 -1.95587 -2.20975 0
M  V30 16309 H 1609.2 -2.50272 -0.528911 0
M  V30 16310 H 1608.85 -4.90532 -1.31685 0
M  V30 16311 H 1608.78 -4.32749 -3.0006 0
M  V30 16312 H 1611.27 -3.31771 -1.80933 0
M  V30 16313 H 1611.58 -7.06179 -3.13896 0
M  V30 16314 H 1609.92 -6.34804 -2.8293 0
M  V30 16315 H 1613.12 -4.14927 -2.16686 0
M  V30 16316 H 1613.29 -5.85651 -2.77339 0
M  V30 16317 N 1606.69 0.865285 -1.31722 0
M  V30 16318 C 1607.94 1.61868 -1.21675 0
M  V30 16319 C 1608.27 1.93206 0.223988 0
M  V30 16320 O 1607.52 1.5657 1.17407 0
M  V30 16321 C 1607.82 2.95462 -2.0109 0
M  V30 16322 C 1607.49 2.83598 -3.50547 0
M  V30 16323 C 1606.15 2.80069 -3.91299 0
M  V30 16324 C 1608.5 2.70295 -4.45635 0
M  V30 16325 C 1605.83 2.61102 -5.25398 0
M  V30 16326 C 1608.18 2.52864 -5.79864 0
M  V30 16327 C 1606.85 2.47722 -6.19831 0
M  V30 16328 H 1606.12 0.592319 -0.445241 0
M  V30 16329 H 1608.76 1.00456 -1.63036 0
M  V30 16330 H 1607.07 3.60935 -1.52424 0
M  V30 16331 H 1608.77 3.52756 -1.90693 0
M  V30 16332 H 1605.36 2.87164 -3.18175 0
M  V30 16333 H 1609.54 2.72073 -4.15078 0
M  V30 16334 H 1604.8 2.55549 -5.55432 0
M  V30 16335 H 1608.97 2.41548 -6.53167 0
M  V30 16336 H 1606.6 2.32784 -7.23682 0
M  V30 16337 N 1608.17 1.14759 1.0802 0
M  V30 16338 C 1609.4 0.941887 1.84218 0
M  V30 16339 C 1609.82 -0.509702 1.8179 0
M  V30 16340 O 1609.17 -1.35331 1.22441 0
M  V30 16341 C 1609.22 1.43978 3.31591 0
M  V30 16342 O 1608.94 2.83449 3.34048 0
M  V30 16343 C 1610.45 1.27459 4.24581 0
M  V30 16344 H 1607.67 0.334942 0.581425 0
M  V30 16345 H 1610.21 1.52367 1.36399 0
M  V30 16346 H 1608.36 0.900674 3.76785 0
M  V30 16347 H 1608.78 3.05878 4.26073 0
M  V30 16348 H 1610.25 1.67151 5.26084 0
M  V30 16349 H 1610.73 0.217925 4.38659 0
M  V30 16350 H 1611.34 1.80243 3.85217 0
M  V30 16351 N 1609.65 -1.26251 0.943322 0
M  V30 16352 C 1610.9 -1.92946 0.587764 0
M  V30 16353 C 1611.21 -1.74805 -0.877647 0
M  V30 16354 O 1612.42 -2.35976 -1.34267 0
M  V30 16355 C 1610.87 -3.45715 1.00047 0
M  V30 16356 C 1610.48 -3.72586 2.48764 0
M  V30 16357 C 1612.23 -4.18403 0.716905 0
M  V30 16358 C 1610.13 -5.18805 2.83893 0
M  V30 16359 H 1609.06 -0.722366 0.21611 0
M  V30 16360 H 1611.71 -1.43295 1.14625 0
M  V30 16361 H 1610.1 -3.94263 0.370491 0
M  V30 16362 H 1611.27 -3.34735 3.16684 0
M  V30 16363 H 1609.59 -3.13136 2.74472 0
M  V30 16364 H 1612.18 -5.2609 0.955669 0
M  V30 16365 H 1612.53 -4.14856 -0.346396 0
M  V30 16366 H 1613.06 -3.75726 1.3067 0
M  V30 16367 H 1609.8 -5.27454 3.89195 0
M  V30 16368 H 1609.32 -5.57745 2.20636 0
M  V30 16369 H 1611 -5.86828 2.72474 0
M  V30 16370 N 1611.13 -0.710588 -1.40671 0
M  V30 16371 C 1612.41 -0.175319 -1.94813 0
M  V30 16372 C 1612.79 1.31792 -1.64906 0
M  V30 16373 O 1612.13 2.07167 -0.964058 0
M  V30 16374 C 1612.34 -0.482691 -3.45646 0
M  V30 16375 C 1613.69 -0.418619 -4.22531 0
M  V30 16376 O 1614.72 -0.418463 -3.53733 0
M  V30 16377 O 1613.58 -0.391787 -5.45094 0
M  V30 16378 H 1610.67 -0.0237744 -0.826658 0
M  V30 16379 H 1613.22 -0.787778 -1.50307 0
M  V30 16380 H 1611.99 -1.51569 -3.60753 0
M  V30 16381 H 1611.61 0.159984 -3.97278 0
M  V30 16382 N 1612.61 1.50847 -0.456408 0
M  V30 16383 C 1613.84 2.0665 0.101737 0
M  V30 16384 C 1614.25 1.32188 1.34803 0
M  V30 16385 O 1613.61 0.38687 1.78352 0
M  V30 16386 C 1613.66 3.59227 0.404724 0
M  V30 16387 O 1613.38 4.30879 -0.79212 0
M  V30 16388 C 1614.88 4.31607 1.01145 0
M  V30 16389 H 1612.1 0.671 -0.000542219 0
M  V30 16390 H 1614.64 1.94195 -0.640974 0
M  V30 16391 H 1612.8 3.71533 1.09735 0
M  V30 16392 H 1613.21 5.21837 -0.527843 0
M  V30 16393 H 1614.69 5.39386 1.17332 0
M  V30 16394 H 1615.16 3.9114 1.99765 0
M  V30 16395 H 1615.77 4.23794 0.357645 0
M  V30 16396 N 1614.09 0.188454 1.56469 0
M  V30 16397 C 1615.03 -0.735074 2.18781 0
M  V30 16398 C 1616 -1.21459 1.133 0
M  V30 16399 O 1617.19 -1.27967 1.41524 0
M  V30 16400 C 1614.33 -1.95181 2.84602 0
M  V30 16401 C 1613.44 -1.51428 4.0459 0
M  V30 16402 C 1612.58 -2.68601 4.58287 0
M  V30 16403 C 1611.61 -2.21422 5.70648 0
M  V30 16404 N 1610.75 -3.31749 6.18779 0
M  V30 16405 H 1615.59 -0.19694 2.97349 0
M  V30 16406 H 1613.13 -0.0854693 1.46851 0
M  V30 16407 H 1615.09 -2.66571 3.2093 0
M  V30 16408 H 1613.72 -2.46337 2.0861 0
M  V30 16409 H 1612.77 -0.6965 3.73969 0
M  V30 16410 H 1614.08 -1.1281 4.85876 0
M  V30 16411 H 1613.23 -3.48123 4.96885 0
M  V30 16412 H 1611.97 -3.1049 3.76095 0
M  V30 16413 H 1610.98 -1.40352 5.31584 0
M  V30 16414 H 1612.2 -1.80572 6.54653 0
M  V30 16415 H 1610.15 -3.73181 5.39511 0
M  V30 16416 H 1610.07 -2.97277 6.95099 0
M  V30 16417 H 1611.33 -4.11504 6.62031 0
M  V30 16418 N 1615.56 -1.5737 -0.0851874 0
M  V30 16419 C 1616.81 -1.86219 -0.7853 0
M  V30 16420 C 1617.13 -0.77857 -1.78783 0
M  V30 16421 O 1616.4 0.194176 -1.94935 0
M  V30 16422 H 1614.98 -0.687134 -0.293013 0
M  V30 16423 H 1617.64 -1.94793 -0.0644597 0
M  V30 16424 H 1616.74 -2.83286 -1.30978 0
M  V30 16425 N 1617.04 0.356258 -1.53521 0
M  V30 16426 C 1618 1.41975 -1.79933 0
M  V30 16427 C 1619 1.46177 -0.669997 0
M  V30 16428 O 1620.19 1.46774 -0.938239 0
M  V30 16429 C 1617.33 2.81015 -1.92985 0
M  V30 16430 H 1618.52 1.19824 -2.74922 0
M  V30 16431 H 1616.07 0.589928 -1.4474 0
M  V30 16432 H 1616.81 3.08466 -1.00095 0
M  V30 16433 H 1616.59 2.79363 -2.75135 0
M  V30 16434 H 1618.08 3.58013 -2.1498 0
M  V30 16435 N 1618.52 1.45038 0.616577 0
M  V30 16436 C 1619.77 1.48292 1.3731 0
M  V30 16437 C 1620.09 0.122437 1.94615 0
M  V30 16438 O 1619.36 -0.847103 1.76638 0
M  V30 16439 H 1617.94 0.546079 0.509712 0
M  V30 16440 H 1620.6 1.80927 0.724673 0
M  V30 16441 H 1619.7 2.21664 2.19708 0
M  V30 16442 N 1620 -0.858287 1.32179 0
M  V30 16443 C 1621.23 -1.64473 1.25523 0
M  V30 16444 C 1621.64 -1.87964 -0.177425 0
M  V30 16445 O 1621 -1.44607 -1.11333 0
M  V30 16446 C 1621.05 -3.00609 2.0079 0
M  V30 16447 O 1620.77 -2.7816 3.38465 0
M  V30 16448 C 1622.27 -3.95054 2.01115 0
M  V30 16449 H 1619.49 -0.512393 0.433237 0
M  V30 16450 H 1622.03 -1.07048 1.74244 0
M  V30 16451 H 1620.19 -3.5469 1.55801 0
M  V30 16452 H 1620.6 -3.64712 3.76942 0
M  V30 16453 H 1622.08 -4.87854 2.58268 0
M  V30 16454 H 1622.55 -4.27746 0.996513 0
M  V30 16455 H 1623.16 -3.4691 2.46035 0
M  V30 16456 N 1621.48 -1.1533 -1.07409 0
M  V30 16457 C 1622.72 -0.925974 -1.79639 0
M  V30 16458 C 1623.04 0.548365 -1.87131 0
M  V30 16459 O 1622.31 1.39854 -1.37178 0
M  V30 16460 H 1620.89 -0.339599 -0.665343 0
M  V30 16461 H 1623.56 -1.45383 -1.29806 0
M  V30 16462 H 1622.65 -1.33484 -2.82114 0
M  V30 16463 N 1622.95 1.25748 -0.950004 0
M  V30 16464 C 1624.2 1.92954 -0.601104 0
M  V30 16465 C 1624.52 1.74817 0.863953 0
M  V30 16466 O 1623.79 1.10904 1.61484 0
M  V30 16467 H 1622.37 0.714077 -0.219325 0
M  V30 16468 H 1625.03 1.53009 -1.20724 0
M  V30 16469 H 1624.13 3.00959 -0.826447 0
M  V30 16470 N 1624.43 0.718038 1.40292 0
M  V30 16471 C 1625.36 0.0818367 2.33357 0
M  V30 16472 C 1626.34 -0.742854 1.53022 0
M  V30 16473 O 1627.53 -0.691281 1.8148 0
M  V30 16474 C 1624.66 -0.838843 3.37017 0
M  V30 16475 C 1623.61 -0.119589 4.27833 0
M  V30 16476 C 1622.94 -1.15615 5.22051 0
M  V30 16477 C 1624.24 1.02769 5.1209 0
M  V30 16478 H 1625.93 0.859167 2.86808 0
M  V30 16479 H 1623.48 0.414606 1.37902 0
M  V30 16480 H 1625.43 -1.29332 4.01063 0
M  V30 16481 H 1624.15 -1.6481 2.81967 0
M  V30 16482 H 1622.81 0.315088 3.65243 0
M  V30 16483 H 1622.46 -1.95852 4.63304 0
M  V30 16484 H 1622.16 -0.679767 5.83655 0
M  V30 16485 H 1623.69 -1.61068 5.88973 0
M  V30 16486 H 1625.1 0.652461 5.69575 0
M  V30 16487 H 1623.5 1.4326 5.82749 0
M  V30 16488 H 1624.57 1.85723 4.47923 0
M  V30 16489 N 1625.91 -1.50602 0.464402 0
M  V30 16490 C 1627.16 -2.01887 -0.0927084 0
M  V30 16491 C 1627.48 -1.34891 -1.40817 0
M  V30 16492 O 1626.75 -0.492078 -1.89619 0
M  V30 16493 H 1625.33 -0.746071 -0.0372514 0
M  V30 16494 H 1627.99 -1.84999 0.613296 0
M  V30 16495 H 1627.09 -3.11105 -0.249067 0
M  V30 16496 N 1627.39 -0.19675 -1.56367 0
M  V30 16497 C 1628.32 0.718607 -2.22167 0
M  V30 16498 C 1629.3 1.22002 -1.1853 0
M  V30 16499 O 1630.48 1.26856 -1.47042 0
M  V30 16500 C 1627.61 1.93753 -2.88231 0
M  V30 16501 C 1626.57 1.57096 -3.98127 0
M  V30 16502 C 1625.89 2.86663 -4.51363 0
M  V30 16503 C 1627.19 0.779649 -5.16448 0
M  V30 16504 H 1628.89 0.170064 -2.98917 0
M  V30 16505 H 1626.43 0.0803568 -1.43776 0
M  V30 16506 H 1628.39 2.58312 -3.32946 0
M  V30 16507 H 1627.11 2.51063 -2.0889 0
M  V30 16508 H 1625.77 0.948947 -3.54105 0
M  V30 16509 H 1625.42 3.42066 -3.68782 0
M  V30 16510 H 1625.12 2.6288 -5.25517 0
M  V30 16511 H 1626.64 3.52207 -4.98781 0
M  V30 16512 H 1628.06 1.32838 -5.57698 0
M  V30 16513 H 1626.45 0.639882 -5.96679 0
M  V30 16514 H 1627.52 -0.218944 -4.84405 0
M  V30 16515 N 1628.87 1.57413 0.0768405 0
M  V30 16516 C 1630.09 1.91224 0.790007 0
M  V30 16517 C 1630.51 0.792232 1.71374 0
M  V30 16518 O 1629.87 -0.234736 1.80984 0
M  V30 16519 C 1629.92 3.24757 1.58793 0
M  V30 16520 O 1629.64 4.3245 0.701329 0
M  V30 16521 C 1631.14 3.72549 2.40254 0
M  V30 16522 H 1628.36 0.63219 0.224893 0
M  V30 16523 H 1630.9 2.04442 0.0486173 0
M  V30 16524 H 1629.06 3.13081 2.28165 0
M  V30 16525 H 1629.47 5.09245 1.2558 0
M  V30 16526 H 1630.95 4.68628 2.91705 0
M  V30 16527 H 1631.42 3.01305 3.1955 0
M  V30 16528 H 1632.03 3.87153 1.76048 0
M  V30 16529 N 1630.34 -0.348112 1.53707 0
M  V30 16530 C 1631.59 -1.09048 1.70987 0
M  V30 16531 C 1631.92 -1.88444 0.469305 0
M  V30 16532 O 1631.2 -1.87037 -0.533629 0
M  V30 16533 C 1631.48 -2.03542 2.97057 0
M  V30 16534 C 1631.33 -1.27638 4.3131 0
M  V30 16535 C 1632.65 -3.03424 3.18782 0
M  V30 16536 H 1629.77 -0.395049 0.622178 0
M  V30 16537 H 1632.41 -0.369498 1.86373 0
M  V30 16538 H 1630.56 -2.65021 2.8407 0
M  V30 16539 H 1632.24 -0.688079 4.56139 0
M  V30 16540 H 1630.48 -0.578349 4.29927 0
M  V30 16541 H 1631.15 -1.96891 5.15692 0
M  V30 16542 H 1633.63 -2.52056 3.31069 0
M  V30 16543 H 1632.5 -3.66748 4.08396 0
M  V30 16544 H 1632.76 -3.74553 2.34866 0
M  V30 16545 N 1631.82 -1.45363 -0.608876 0
M  V30 16546 C 1632.73 -1.56471 -1.74797 0
M  V30 16547 C 1633.75 -0.449225 -1.68101 0
M  V30 16548 O 1634.92 -0.709731 -1.8848 0
M  V30 16549 C 1631.99 -1.52714 -3.11254 0
M  V30 16550 C 1631.05 -2.75291 -3.29414 0
M  V30 16551 C 1630.28 -2.71704 -4.59361 0
M  V30 16552 O 1630.51 -1.78959 -5.41599 0
M  V30 16553 O 1629.44 -3.62886 -4.80205 0
M  V30 16554 H 1633.27 -2.52751 -1.68377 0
M  V30 16555 H 1630.85 -1.27859 -0.772808 0
M  V30 16556 H 1632.73 -1.53222 -3.92557 0
M  V30 16557 H 1631.41 -0.595858 -3.18169 0
M  V30 16558 H 1630.32 -2.80345 -2.47704 0
M  V30 16559 H 1631.65 -3.67541 -3.27375 0
M  V30 16560 N 1633.3 0.851265 -1.32632 0
M  V30 16561 C 1634.55 1.60252 -1.23141 0
M  V30 16562 C 1634.87 1.93909 0.205946 0
M  V30 16563 O 1634.14 1.59914 1.13156 0
M  V30 16564 H 1632.72 0.594137 -0.452781 0
M  V30 16565 H 1635.38 1.01806 -1.66197 0
M  V30 16566 H 1634.48 2.53796 -1.81643 0
M  V30 16567 N 1634.78 1.15898 1.06796 0
M  V30 16568 C 1636.19 0.945837 1.60968 0
M  V30 16569 C 1636.54 -0.511507 1.89415 0
M  V30 16570 O 1635.67 -1.38372 1.66379 0
M  V30 16571 C 1636.26 1.71054 2.92448 0
M  V30 16572 C 1634.82 1.54252 3.43341 0
M  V30 16573 C 1633.97 1.72253 2.17311 0
M  V30 16574 H 1636.92 1.30842 0.898118 0
M  V30 16575 H 1636.94 1.18336 3.61631 0
M  V30 16576 H 1636.45 2.77117 2.71712 0
M  V30 16577 H 1634.55 0.506082 3.69147 0
M  V30 16578 H 1634.66 2.32314 4.19007 0
M  V30 16579 H 1633.03 1.14952 2.27284 0
M  V30 16580 H 1633.81 2.79693 1.99064 0
M  V30 16581 N 1636.26 -1.25243 0.956659 0
M  V30 16582 C 1637.5 -1.94763 0.620234 0
M  V30 16583 C 1637.86 -1.73244 -0.827689 0
M  V30 16584 O 1639.06 -2.36702 -1.2738 0
M  V30 16585 C 1637.33 -3.43941 0.971547 0
M  V30 16586 S 1638.89 -4.32378 0.748002 0
M  V30 16587 H 1635.71 -0.673484 0.227906 0
M  V30 16588 H 1638.31 -1.51855 1.23127 0
M  V30 16589 H 1637.02 -3.57107 2.02244 0
M  V30 16590 H 1636.55 -3.91832 0.350847 0
M  V30 16591 H 1638.56 -4.94741 -0.380203 0
M  V30 16592 N 1637.73 -0.725468 -1.3991 0
M  V30 16593 C 1638.64 -0.0805887 -2.34462 0
M  V30 16594 C 1639.66 0.732689 -1.57822 0
M  V30 16595 O 1640.84 0.663362 -1.90162 0
M  V30 16596 C 1637.9 0.822908 -3.36792 0
M  V30 16597 C 1636.96 -0.00153812 -4.293 0
M  V30 16598 C 1636.2 0.85893 -5.26743 0
M  V30 16599 O 1636.42 2.09793 -5.30418 0
M  V30 16600 O 1635.35 0.292659 -6.01188 0
M  V30 16601 H 1639.18 -0.860746 -2.91247 0
M  V30 16602 H 1636.76 -0.48604 -1.41273 0
M  V30 16603 H 1638.65 1.34014 -3.99522 0
M  V30 16604 H 1637.32 1.58204 -2.82406 0
M  V30 16605 H 1636.23 -0.564072 -3.69823 0
M  V30 16606 H 1637.56 -0.722675 -4.86866 0
M  V30 16607 N 1639.21 1.50354 -0.472382 0
M  V30 16608 C 1640.18 2.27096 0.30981 0
M  V30 16609 C 1641.18 1.3193 0.919306 0
M  V30 16610 O 1642.37 1.55344 0.788284 0
M  V30 16611 C 1639.5 3.08924 1.44149 0
M  V30 16612 H 1640.69 2.97692 -0.363228 0
M  V30 16613 H 1638.24 1.5465 -0.226483 0
M  V30 16614 H 1638.98 2.42828 2.14954 0
M  V30 16615 H 1638.76 3.78862 1.01023 0
M  V30 16616 H 1640.25 3.66961 1.99323 0
M  V30 16617 N 1640.69 0.205039 1.56261 0
M  V30 16618 C 1641.62 -0.743854 2.16794 0
M  V30 16619 C 1642.64 -1.16959 1.13245 0
M  V30 16620 O 1643.83 -1.1036 1.40296 0
M  V30 16621 C 1640.93 -2.01717 2.7233 0
M  V30 16622 C 1640.1 -1.74965 4.00882 0
M  V30 16623 C 1639.16 -2.86841 4.41145 0
M  V30 16624 O 1638.18 -2.5602 5.08372 0
M  V30 16625 N 1639.39 -4.15425 4.05466 0
M  V30 16626 H 1642.15 -0.226145 2.98846 0
M  V30 16627 H 1639.71 0.0234276 1.61883 0
M  V30 16628 H 1641.7 -2.7572 2.96244 0
M  V30 16629 H 1640.27 -2.44582 1.94675 0
M  V30 16630 H 1639.49 -0.846903 3.84995 0
M  V30 16631 H 1640.78 -1.54501 4.84775 0
M  V30 16632 H 1640.18 -4.43314 3.5141 0
M  V30 16633 H 1638.74 -4.86023 4.3431 0
M  V30 16634 N 1642.17 -1.57451 -0.0684915 0
M  V30 16635 C 1643.1 -2.06954 -1.0813 0
M  V30 16636 C 1644.08 -0.963716 -1.40166 0
M  V30 16637 O 1645.27 -1.23664 -1.49736 0
M  V30 16638 C 1642.4 -2.51622 -2.39381 0
M  V30 16639 C 1641.35 -3.66111 -2.2169 0
M  V30 16640 C 1640.68 -3.96846 -3.58354 0
M  V30 16641 C 1641.98 -4.96036 -1.63541 0
M  V30 16642 H 1643.67 -2.91822 -0.66936 0
M  V30 16643 H 1641.22 -1.40387 -0.320533 0
M  V30 16644 H 1643.17 -2.84867 -3.1053 0
M  V30 16645 H 1641.89 -1.63788 -2.82562 0
M  V30 16646 H 1640.55 -3.33155 -1.52982 0
M  V30 16647 H 1640.2 -3.06137 -3.9911 0
M  V30 16648 H 1639.9 -4.73939 -3.47354 0
M  V30 16649 H 1641.42 -4.3259 -4.30927 0
M  V30 16650 H 1642.84 -5.27491 -2.24559 0
M  V30 16651 H 1641.23 -5.77474 -1.63228 0
M  V30 16652 H 1642.3 -4.81208 -0.597199 0
M  V30 16653 N 1643.65 0.339955 -1.5389 0
M  V30 16654 C 1644.56 1.441 -1.85128 0
M  V30 16655 C 1645.57 1.57399 -0.741733 0
M  V30 16656 O 1646.75 1.72807 -1.0344 0
M  V30 16657 C 1643.81 2.7904 -2.05761 0
M  V30 16658 C 1642.88 2.75055 -3.29611 0
M  V30 16659 C 1642.11 4.0356 -3.4925 0
M  V30 16660 O 1642.33 5.01015 -2.72653 0
M  V30 16661 O 1641.27 4.07813 -4.42687 0
M  V30 16662 H 1645.09 1.20616 -2.78721 0
M  V30 16663 H 1642.68 0.532468 -1.39589 0
M  V30 16664 H 1644.56 3.5895 -2.20756 0
M  V30 16665 H 1643.23 3.02447 -1.15357 0
M  V30 16666 H 1642.14 1.93753 -3.20016 0
M  V30 16667 H 1643.47 2.56602 -4.20019 0
M  V30 16668 N 1645.13 1.45684 0.601159 0
M  V30 16669 C 1646.37 1.51581 1.37123 0
M  V30 16670 C 1646.73 0.156185 1.91364 0
M  V30 16671 O 1647.93 0.0898599 2.6865 0
M  V30 16672 C 1646.2 2.56989 2.48378 0
M  V30 16673 S 1647.76 2.82158 3.36054 0
M  V30 16674 H 1644.58 0.53577 0.46741 0
M  V30 16675 H 1647.18 1.82805 0.693012 0
M  V30 16676 H 1645.88 3.54436 2.0689 0
M  V30 16677 H 1645.42 2.27437 3.20992 0
M  V30 16678 H 1647.43 2.16025 4.46708 0
M  V30 16679 N 1646.6 -0.84422 1.33082 0
M  V30 16680 C 1647.53 -1.96899 1.25511 0
M  V30 16681 C 1648.51 -1.69549 0.13677 0
M  V30 16682 O 1649.7 -1.9145 0.325667 0
M  V30 16683 C 1646.83 -3.32947 0.988094 0
M  V30 16684 C 1645.78 -3.7468 2.06879 0
M  V30 16685 C 1645.11 -5.08475 1.65401 0
M  V30 16686 C 1646.41 -3.89033 3.48498 0
M  V30 16687 H 1648.1 -2.03491 2.19617 0
M  V30 16688 H 1645.65 -0.977659 1.05725 0
M  V30 16689 H 1647.6 -4.11198 0.921645 0
M  V30 16690 H 1646.33 -3.26598 0.0114067 0
M  V30 16691 H 1644.99 -2.98689 2.12557 0
M  V30 16692 H 1644.63 -4.98592 0.66449 0
M  V30 16693 H 1644.33 -5.37368 2.37717 0
M  V30 16694 H 1645.86 -5.89207 1.60212 0
M  V30 16695 H 1647.27 -4.57609 3.4535 0
M  V30 16696 H 1645.67 -4.29357 4.19253 0
M  V30 16697 H 1646.74 -2.91639 3.87395 0
M  V30 16698 N 1648.08 -1.16463 -1.0618 0
M  V30 16699 C 1649.36 -0.857038 -1.75824 0
M  V30 16700 C 1649.74 0.644886 -2.01009 0
M  V30 16701 O 1649.09 1.59305 -1.63812 0
M  V30 16702 C 1649.3 -1.681 -3.05849 0
M  V30 16703 C 1650.64 -1.8947 -3.79982 0
M  V30 16704 O 1651.67 -1.64975 -3.15692 0
M  V30 16705 O 1650.53 -2.30573 -4.95478 0
M  V30 16706 H 1647.62 -0.316364 -0.764096 0
M  V30 16707 H 1650.17 -1.27105 -1.12438 0
M  V30 16708 H 1648.94 -2.70014 -2.8321 0
M  V30 16709 H 1648.56 -1.2641 -3.7697 0
M  V30 16710 N 1649.56 1.24734 -0.963288 0
M  V30 16711 C 1650.51 2.27557 -0.481704 0
M  V30 16712 C 1651.5 1.63245 0.452488 0
M  V30 16713 O 1652.71 1.76981 0.328263 0
M  V30 16714 H 1649.08 0.73936 -0.137297 0
M  V30 16715 H 1651.05 2.65555 -1.361 0
M  V30 16716 C 1649.8 3.47023 0.216806 0
M  V30 16717 H 1649.13 3.9675 -0.492916 0
M  V30 16718 H 1650.57 4.20828 0.517659 0
M  V30 16719 C 1649.02 3.04466 1.44229 0
M  V30 16720 O 1649.55 3.11238 2.53956 0
M  V30 16721 N 1647.76 2.59563 1.30674 0
M  V30 16722 H 1647.31 2.54252 0.41395 0
M  V30 16723 H 1647.27 2.31453 2.12783 0
M  V30 16724 N 1651.04 0.732878 1.39523 0
M  V30 16725 C 1652.29 0.279338 2.0016 0
M  V30 16726 C 1652.61 -1.13673 1.58441 0
M  V30 16727 O 1651.88 -1.77369 0.831681 0
M  V30 16728 H 1650.46 0.100288 0.740237 0
M  V30 16729 H 1653.12 0.942363 1.70603 0
M  V30 16730 H 1652.21 0.326053 3.10392 0
M  V30 16731 N 1652.52 -1.50101 0.480349 0
M  V30 16732 C 1653.79 -1.95144 -0.133456 0
M  V30 16733 C 1654.17 -1.4211 -1.56102 0
M  V30 16734 O 1653.52 -0.626012 -2.19757 0
M  V30 16735 C 1653.73 -3.48935 -0.0672904 0
M  V30 16736 C 1655.08 -4.23854 -0.251564 0
M  V30 16737 O 1656.1 -3.55911 -0.143446 0
M  V30 16738 O 1654.96 -5.44467 -0.470947 0
M  V30 16739 H 1652.06 -0.820098 -0.106619 0
M  V30 16740 H 1654.6 -1.60832 0.541413 0
M  V30 16741 H 1653.37 -3.80111 0.929058 0
M  V30 16742 H 1653 -3.8981 -0.783214 0
M  V30 16743 N 1653.99 -0.213323 -1.5615 0
M  V30 16744 C 1655.24 0.419767 -1.97693 0
M  V30 16745 C 1655.56 1.60878 -1.10197 0
M  V30 16746 O 1654.83 1.95097 -0.177185 0
M  V30 16747 H 1653.41 0.158075 -0.730083 0
M  V30 16748 H 1656.07 -0.304303 -1.9251 0
M  V30 16749 H 1655.17 0.751645 -3.02914 0
M  V30 16750 N 1655.47 1.57485 0.0601405 0
M  V30 16751 C 1656.7 1.92051 0.769681 0
M  V30 16752 C 1657.12 0.810364 1.70524 0
M  V30 16753 O 1656.47 -0.215527 1.81223 0
M  V30 16754 C 1656.52 3.26423 1.55339 0
M  V30 16755 O 1656.24 4.3317 0.655423 0
M  V30 16756 C 1657.75 3.75076 2.36289 0
M  V30 16757 H 1654.97 0.63454 0.218175 0
M  V30 16758 H 1657.51 2.04482 0.0269308 0
M  V30 16759 H 1655.66 3.15483 2.24831 0
M  V30 16760 H 1656.08 5.10548 1.20171 0
M  V30 16761 H 1657.55 4.71695 2.86719 0
M  V30 16762 H 1658.03 3.04677 3.16336 0
M  V30 16763 H 1658.64 3.88998 1.71932 0
M  V30 16764 N 1656.95 -0.331789 1.54068 0
M  V30 16765 C 1658.19 -1.07901 1.736 0
M  V30 16766 C 1658.55 -1.85513 0.494862 0
M  V30 16767 O 1659.76 -2.62743 0.567392 0
M  V30 16768 C 1658.03 -1.9858 2.97154 0
M  V30 16769 S 1659.59 -2.80365 3.37552 0
M  V30 16770 H 1656.4 -0.364399 0.61052 0
M  V30 16771 H 1659.01 -0.355989 1.92232 0
M  V30 16772 H 1657.71 -1.40383 3.85643 0
M  V30 16773 H 1657.24 -2.753 2.81022 0
M  V30 16774 H 1659.26 -4.01036 2.92207 0
M  V30 16775 N 1658.43 -1.46001 -0.593424 0
M  V30 16776 C 1659.65 -1.54541 -1.38318 0
M  V30 16777 C 1660.08 -0.183555 -1.87202 0
M  V30 16778 O 1659.44 0.834407 -1.60958 0
M  V30 16779 C 1659.48 -2.54559 -2.55405 0
M  V30 16780 O 1658.59 -2.07321 -3.56499 0
M  V30 16781 H 1657.93 -0.520434 -0.412364 0
M  V30 16782 H 1660.46 -1.9148 -0.720862 0
M  V30 16783 H 1660.47 -2.73823 -3.02465 0
M  V30 16784 H 1659.14 -3.53461 -2.19176 0
M  V30 16785 H 1657.72 -1.97997 -3.15993 0
M  V30 16786 N 1659.91 0.83715 -1.33527 0
M  V30 16787 C 1661.15 1.59487 -1.25267 0
M  V30 16788 C 1661.49 1.93357 0.180741 0
M  V30 16789 O 1660.76 1.5884 1.12251 0
M  V30 16790 C 1661.04 2.90376 -2.12964 0
M  V30 16791 C 1660.9 2.63177 -3.64771 0
M  V30 16792 C 1662.22 3.9182 -2.00412 0
M  V30 16793 H 1659.33 0.578684 -0.456392 0
M  V30 16794 H 1661.98 0.965428 -1.63644 0
M  V30 16795 H 1660.13 3.44095 -1.80364 0
M  V30 16796 H 1661.8 2.15878 -4.0767 0
M  V30 16797 H 1660.04 1.96849 -3.86566 0
M  V30 16798 H 1660.71 3.56452 -4.21481 0
M  V30 16799 H 1663.19 3.47413 -2.29005 0
M  V30 16800 H 1662.06 4.81232 -2.64021 0
M  V30 16801 H 1662.33 4.31173 -0.976852 0
M  V30 16802 N 1661.38 1.17024 1.05561 0
M  V30 16803 C 1662.61 0.981293 1.82717 0
M  V30 16804 C 1663.03 -0.465636 1.82246 0
M  V30 16805 O 1662.39 -1.33315 1.22869 0
M  V30 16806 C 1662.44 1.52239 3.26888 0
M  V30 16807 O 1661.54 0.73366 4.05822 0
M  V30 16808 H 1660.89 0.348677 0.565084 0
M  V30 16809 H 1663.42 1.55435 1.33046 0
M  V30 16810 H 1663.43 1.54306 3.77695 0
M  V30 16811 H 1662.1 2.57567 3.26545 0
M  V30 16812 H 1660.68 0.784101 3.64563 0
M  V30 16813 N 1662.86 -1.24221 0.969889 0
M  V30 16814 C 1664.09 -1.96118 0.649715 0
M  V30 16815 C 1664.5 -1.72127 -0.785436 0
M  V30 16816 O 1663.84 -1.00319 -1.53889 0
M  V30 16817 C 1663.91 -3.49374 0.847236 0
M  V30 16818 C 1663.57 -3.97067 2.26244 0
M  V30 16819 C 1664.57 -4.06568 3.24034 0
M  V30 16820 C 1662.25 -4.30333 2.59072 0
M  V30 16821 C 1664.25 -4.48672 4.52738 0
M  V30 16822 C 1661.93 -4.72121 3.88001 0
M  V30 16823 C 1662.93 -4.81256 4.84646 0
M  V30 16824 O 1662.62 -5.22109 6.11275 0
M  V30 16825 H 1662.35 -0.63149 0.24124 0
M  V30 16826 H 1664.9 -1.58948 1.30095 0
M  V30 16827 H 1663.13 -3.86451 0.138828 0
M  V30 16828 H 1664.82 -4.0248 0.525817 0
M  V30 16829 H 1665.59 -3.81083 3.00002 0
M  V30 16830 H 1661.47 -4.22441 1.84565 0
M  V30 16831 H 1665.01 -4.55717 5.28174 0
M  V30 16832 H 1660.91 -4.97054 4.11834 0
M  V30 16833 H 1661.68 -5.40252 6.14874 0
M  V30 16834 N 1664.34 -0.740267 -1.39132 0
M  V30 16835 C 1665.59 -0.290953 -2.00702 0
M  V30 16836 C 1665.92 1.12051 -1.58613 0
M  V30 16837 O 1665.19 1.76488 -0.817457 0
M  V30 16838 C 1665.48 -0.398765 -3.57885 0
M  V30 16839 C 1665.33 -1.85038 -4.09977 0
M  V30 16840 C 1666.65 0.215717 -4.39571 0
M  V30 16841 H 1663.77 -0.107194 -0.729163 0
M  V30 16842 H 1666.41 -0.937411 -1.65265 0
M  V30 16843 H 1664.56 0.151613 -3.88204 0
M  V30 16844 H 1666.23 -2.45804 -3.90357 0
M  V30 16845 H 1664.48 -2.36994 -3.63341 0
M  V30 16846 H 1665.15 -1.87705 -5.19106 0
M  V30 16847 H 1667.62 -0.253518 -4.15327 0
M  V30 16848 H 1666.5 0.109966 -5.4879 0
M  V30 16849 H 1666.76 1.30242 -4.2248 0
M  V30 16850 N 1665.82 1.49844 -0.488302 0
M  V30 16851 C 1667.23 1.86663 -0.037377 0
M  V30 16852 C 1667.58 1.40172 1.37281 0
M  V30 16853 O 1666.71 0.77409 2.02081 0
M  V30 16854 C 1667.3 3.38745 -0.0610523 0
M  V30 16855 C 1665.86 3.74911 0.334475 0
M  V30 16856 C 1665.01 2.73801 -0.439109 0
M  V30 16857 H 1667.96 1.42343 -0.70173 0
M  V30 16858 H 1667.98 3.7329 0.737203 0
M  V30 16859 H 1667.49 3.72551 -1.08753 0
M  V30 16860 H 1665.59 3.4671 1.36466 0
M  V30 16861 H 1665.7 4.79094 0.0238536 0
M  V30 16862 H 1664.07 2.54465 0.109433 0
M  V30 16863 H 1664.85 3.10452 -1.46542 0
M  V30 16864 N 1667.3 0.221601 1.56034 0
M  V30 16865 C 1668.52 -0.414945 2.02696 0
M  V30 16866 C 1668.94 -1.53344 1.10141 0
M  V30 16867 O 1668.3 -1.82162 0.111026 0
M  V30 16868 C 1668.35 -0.946532 3.48888 0
M  V30 16869 O 1668.07 0.12737 4.37915 0
M  V30 16870 C 1669.57 -1.65631 4.11195 0
M  V30 16871 H 1666.79 -0.101548 0.663271 0
M  V30 16872 H 1669.33 0.338069 2.01686 0
M  V30 16873 H 1667.49 -1.64982 3.50514 0
M  V30 16874 H 1667.9 -0.272211 5.23793 0
M  V30 16875 H 1669.38 -1.98027 5.15257 0
M  V30 16876 H 1669.85 -2.56947 3.56195 0
M  V30 16877 H 1670.46 -0.998231 4.13419 0
M  V30 16878 N 1668.77 -1.57515 -0.0517878 0
M  V30 16879 C 1669.68 -2.08427 -1.07681 0
M  V30 16880 C 1670.7 -1.01797 -1.41115 0
M  V30 16881 O 1671.88 -1.33394 -1.50891 0
M  V30 16882 C 1668.94 -2.53472 -2.36544 0
M  V30 16883 C 1668 -3.74488 -2.09899 0
M  V30 16884 C 1667.24 -4.17374 -3.32618 0
M  V30 16885 O 1667.46 -3.59962 -4.42475 0
M  V30 16886 O 1666.39 -5.10006 -3.19653 0
M  V30 16887 H 1670.22 -2.96122 -0.674217 0
M  V30 16888 H 1667.8 -1.4699 -0.267274 0
M  V30 16889 H 1669.69 -2.82876 -3.12345 0
M  V30 16890 H 1668.36 -1.68899 -2.76143 0
M  V30 16891 H 1667.27 -3.50137 -1.31739 0
M  V30 16892 H 1668.6 -4.59975 -1.75169 0
M  V30 16893 N 1670.25 0.323614 -1.54242 0
M  V30 16894 C 1671.66 0.898051 -1.63682 0
M  V30 16895 C 1672.02 1.88882 -0.530861 0
M  V30 16896 O 1671.14 2.13772 0.336245 0
M  V30 16897 C 1671.74 1.63561 -2.96704 0
M  V30 16898 C 1670.29 2.15877 -3.08341 0
M  V30 16899 C 1669.44 0.984145 -2.59249 0
M  V30 16900 H 1672.39 0.101198 -1.58377 0
M  V30 16901 H 1672.41 2.49982 -2.86861 0
M  V30 16902 H 1671.93 0.914265 -3.77177 0
M  V30 16903 H 1670.03 2.91127 -2.32542 0
M  V30 16904 H 1670.14 2.40881 -4.14141 0
M  V30 16905 H 1668.5 1.3633 -2.15143 0
M  V30 16906 H 1669.29 0.277118 -3.4218 0
M  V30 16907 N 1671.73 1.46313 0.585673 0
M  V30 16908 C 1672.98 1.51171 1.34134 0
M  V30 16909 C 1673.3 0.163691 1.94312 0
M  V30 16910 O 1672.57 -0.809444 1.78395 0
M  V30 16911 H 1671.15 0.556768 0.498014 0
M  V30 16912 H 1673.81 1.82423 0.686133 0
M  V30 16913 H 1672.91 2.26274 2.14957 0
M  V30 16914 N 1673.21 -0.830057 1.33969 0
M  V30 16915 C 1674.49 -1.57112 1.16513 0
M  V30 16916 C 1674.87 -2.09429 -0.265075 0
M  V30 16917 O 1674.21 -1.90263 -1.26539 0
M  V30 16918 C 1674.42 -2.69808 2.2137 0
M  V30 16919 C 1675.77 -3.38761 2.55981 0
M  V30 16920 O 1676.8 -2.80058 2.20104 0
M  V30 16921 O 1675.66 -4.44753 3.1758 0
M  V30 16922 H 1672.75 -0.693066 0.451207 0
M  V30 16923 H 1675.3 -0.872048 1.4558 0
M  V30 16924 H 1674.07 -2.28852 3.17399 0
M  V30 16925 H 1673.69 -3.47372 1.93439 0
M  V30 16926 N 1674.69 -1.17582 -1.04939 0
M  V30 16927 C 1675.92 -0.988962 -1.81392 0
M  V30 16928 C 1676.33 0.46597 -1.83372 0
M  V30 16929 O 1675.67 1.33538 -1.26148 0
M  V30 16930 C 1675.73 -1.45656 -3.28671 0
M  V30 16931 C 1675.39 -2.93412 -3.50369 0
M  V30 16932 C 1676.39 -3.91329 -3.42283 0
M  V30 16933 C 1674.08 -3.31645 -3.77249 0
M  V30 16934 C 1676.07 -5.25478 -3.60766 0
M  V30 16935 C 1673.76 -4.65959 -3.95381 0
M  V30 16936 C 1674.76 -5.62684 -3.87138 0
M  V30 16937 O 1674.44 -6.94567 -4.04761 0
M  V30 16938 H 1674.18 -0.349962 -0.578362 0
M  V30 16939 H 1676.73 -1.5635 -1.33206 0
M  V30 16940 H 1674.96 -0.825602 -3.77784 0
M  V30 16941 H 1676.65 -1.23497 -3.86657 0
M  V30 16942 H 1677.41 -3.63138 -3.2149 0
M  V30 16943 H 1673.29 -2.56925 -3.82767 0
M  V30 16944 H 1676.84 -6.00961 -3.54248 0
M  V30 16945 H 1672.73 -4.93855 -4.15665 0
M  V30 16946 H 1673.5 -7.01343 -4.21972 0
M  V30 16947 N 1676.17 1.23705 -0.976463 0
M  V30 16948 C 1677.11 2.27034 -0.505813 0
M  V30 16949 C 1678.11 1.63716 0.435148 0
M  V30 16950 O 1679.31 1.7732 0.309474 0
M  V30 16951 H 1675.69 0.737862 -0.145131 0
M  V30 16952 H 1677.66 2.64097 -1.38908 0
M  V30 16953 C 1676.41 3.47234 0.179987 0
M  V30 16954 H 1675.73 3.96205 -0.534969 0
M  V30 16955 H 1677.17 4.21353 0.472996 0
M  V30 16956 C 1675.63 3.05979 1.40991 0
M  V30 16957 O 1676.16 3.13914 2.50641 0
M  V30 16958 N 1674.37 2.60934 1.27913 0
M  V30 16959 H 1673.91 2.54677 0.38696 0
M  V30 16960 H 1673.87 2.33697 2.10316 0
M  V30 16961 N 1677.64 0.747635 1.38738 0
M  V30 16962 C 1678.89 0.297962 1.99487 0
M  V30 16963 C 1679.21 -1.1249 1.60016 0
M  V30 16964 O 1680.41 -1.67474 2.13693 0
M  V30 16965 C 1678.87 0.48178 3.56661 0
M  V30 16966 C 1678.48 1.91335 4.05086 0
M  V30 16967 C 1680.22 0.0945202 4.24395 0
M  V30 16968 C 1678.13 2.04604 5.54879 0
M  V30 16969 H 1677.06 0.107655 0.746275 0
M  V30 16970 H 1679.71 0.923325 1.58578 0
M  V30 16971 H 1678.09 -0.212676 3.95428 0
M  V30 16972 H 1679.26 2.64079 3.77623 0
M  V30 16973 H 1677.58 2.25497 3.50057 0
M  V30 16974 H 1680.18 0.172508 5.34422 0
M  V30 16975 H 1680.52 -0.952037 4.05268 0
M  V30 16976 H 1681.05 0.740606 3.90845 0
M  V30 16977 H 1677.79 3.07493 5.78903 0
M  V30 16978 H 1677.31 1.36313 5.84105 0
M  V30 16979 H 1678.99 1.83317 6.20487 0
M  V30 16980 N 1679.12 -1.49583 0.496242 0
M  V30 16981 C 1680.07 -2.30677 -0.298474 0
M  V30 16982 C 1681.06 -1.39074 -0.967207 0
M  V30 16983 O 1682.27 -1.56147 -0.895439 0
M  V30 16984 H 1678.64 -0.743138 -0.11511 0
M  V30 16985 H 1680.62 -2.95632 0.405533 0
M  V30 16986 C 1679.36 -3.20297 -1.35297 0
M  V30 16987 H 1678.69 -3.90708 -0.847789 0
M  V30 16988 H 1680.13 -3.79987 -1.88111 0
M  V30 16989 C 1678.59 -2.39584 -2.36857 0
M  V30 16990 O 1679.12 -2.09662 -3.42644 0
M  V30 16991 N 1677.32 -2.01695 -2.09206 0
M  V30 16992 H 1676.87 -2.26229 -1.23201 0
M  V30 16993 H 1676.83 -1.47998 -2.77388 0
M  V30 16994 N 1680.6 -0.229873 -1.55915 0
M  V30 16995 C 1681.85 0.399963 -1.97695 0
M  V30 16996 C 1682.16 1.60303 -1.12081 0
M  V30 16997 O 1683.37 2.30292 -1.43797 0
M  V30 16998 C 1681.82 0.762982 -3.51719 0
M  V30 16999 C 1681.43 -0.417738 -4.46048 0
M  V30 17000 C 1683.18 1.35796 -4.02194 0
M  V30 17001 C 1681.08 -0.0318216 -5.91391 0
M  V30 17002 H 1680.01 0.153209 -0.73827 0
M  V30 17003 H 1682.66 -0.327401 -1.80556 0
M  V30 17004 H 1681.05 1.548 -3.6449 0
M  V30 17005 H 1682.22 -1.19523 -4.45029 0
M  V30 17006 H 1680.53 -0.926501 -4.05962 0
M  V30 17007 H 1683.13 1.65974 -5.08288 0
M  V30 17008 H 1683.47 2.27661 -3.48534 0
M  V30 17009 H 1684.01 0.6362 -3.9268 0
M  V30 17010 H 1680.75 -0.917176 -6.49052 0
M  V30 17011 H 1680.27 0.709811 -5.95585 0
M  V30 17012 H 1681.95 0.391966 -6.45812 0
M  V30 17013 N 1682.08 1.5754 0.0434337 0
M  V30 17014 C 1683.01 2.08648 1.04824 0
M  V30 17015 C 1683.99 0.985894 1.38615 0
M  V30 17016 O 1685.17 1.2603 1.4775 0
M  V30 17017 C 1682.3 2.55399 2.35348 0
M  V30 17018 C 1681.26 3.69592 2.15837 0
M  V30 17019 C 1680.58 4.02497 3.51995 0
M  V30 17020 C 1681.88 4.98575 1.55629 0
M  V30 17021 H 1683.58 2.9285 0.622849 0
M  V30 17022 H 1681.12 1.40879 0.298158 0
M  V30 17023 H 1683.08 2.89771 3.05958 0
M  V30 17024 H 1681.8 1.68262 2.7992 0
M  V30 17025 H 1680.46 3.35546 1.47663 0
M  V30 17026 H 1680.11 3.12448 3.94189 0
M  V30 17027 H 1679.81 4.79406 3.39771 0
M  V30 17028 H 1681.33 4.39391 4.23991 0
M  V30 17029 H 1682.75 5.30996 2.16138 0
M  V30 17030 H 1681.14 5.79998 1.54021 0
M  V30 17031 H 1682.21 4.82098 0.520567 0
M  V30 17032 N 1683.56 -0.31543 1.54411 0
M  V30 17033 C 1684.8 -1.0524 1.73005 0
M  V30 17034 C 1685.13 -1.87747 0.50808 0
M  V30 17035 O 1684.39 -1.88935 -0.51012 0
M  V30 17036 C 1684.68 -1.99884 2.96279 0
M  V30 17037 C 1684.35 -1.33468 4.30694 0
M  V30 17038 C 1683.01 -1.15087 4.67235 0
M  V30 17039 C 1685.36 -0.858688 5.14078 0
M  V30 17040 C 1682.69 -0.47767 5.84752 0
M  V30 17041 C 1685.04 -0.199278 6.32286 0
M  V30 17042 C 1683.71 -0.00338158 6.675 0
M  V30 17043 H 1682.98 -0.385102 0.63307 0
M  V30 17044 H 1685.63 -0.328714 1.88658 0
M  V30 17045 H 1683.93 -2.78732 2.75347 0
M  V30 17046 H 1685.63 -2.56951 3.07859 0
M  V30 17047 H 1682.22 -1.48779 4.01949 0
M  V30 17048 H 1686.4 -0.98846 4.86357 0
M  V30 17049 H 1681.66 -0.314772 6.10589 0
M  V30 17050 H 1685.83 0.177517 6.96174 0
M  V30 17051 H 1683.46 0.52028 7.58418 0
M  V30 17052 N 1685.03 -1.46622 -0.577906 0
M  V30 17053 C 1686 -1.57126 -1.66865 0
M  V30 17054 C 1687 -0.448004 -1.54433 0
M  V30 17055 O 1688.19 -0.712459 -1.58964 0
M  V30 17056 C 1685.32 -1.49612 -3.06315 0
M  V30 17057 H 1686.51 -2.54338 -1.58909 0
M  V30 17058 H 1684.07 -1.34504 -0.796142 0
M  V30 17059 H 1684.8 -0.536976 -3.19823 0
M  V30 17060 H 1684.59 -2.31113 -3.16748 0
M  V30 17061 H 1686.08 -1.60058 -3.85709 0
M  V30 17062 N 1686.51 0.822941 -1.34408 0
M  V30 17063 C 1687.79 1.56492 -1.17345 0
M  V30 17064 C 1688.17 2.09567 0.253965 0
M  V30 17065 O 1687.52 1.90931 1.25529 0
M  V30 17066 C 1687.73 2.6863 -2.22797 0
M  V30 17067 C 1689.08 3.37399 -2.57773 0
M  V30 17068 O 1690.1 2.78887 -2.21587 0
M  V30 17069 O 1688.96 4.43063 -3.19934 0
M  V30 17070 H 1686.05 0.690664 -0.454876 0
M  V30 17071 H 1688.6 0.864315 -1.4604 0
M  V30 17072 H 1687.37 2.27166 -3.18608 0
M  V30 17073 H 1686.99 3.46341 -1.95279 0
M  V30 17074 N 1687.99 1.18137 1.04314 0
M  V30 17075 C 1689.22 1.00002 1.81128 0
M  V30 17076 C 1689.63 -0.451609 1.83319 0
M  V30 17077 O 1688.99 -1.31367 1.26685 0
M  V30 17078 C 1689.04 1.54454 3.26843 0
M  V30 17079 O 1688.76 2.93933 3.24861 0
M  V30 17080 C 1690.26 1.40902 4.20311 0
M  V30 17081 H 1687.48 0.35327 0.570475 0
M  V30 17082 H 1690.03 1.56629 1.31482 0
M  V30 17083 H 1688.18 1.02009 3.73728 0
M  V30 17084 H 1688.6 3.19279 4.16127 0
M  V30 17085 H 1690.07 1.83803 5.205 0
M  V30 17086 H 1690.55 0.357371 4.37744 0
M  V30 17087 H 1691.15 1.92407 3.79288 0
M  V30 17088 N 1689.47 -1.23186 0.98301 0
M  V30 17089 C 1690.42 -2.22529 0.496484 0
M  V30 17090 C 1691.4 -1.5505 -0.429923 0
M  V30 17091 O 1692.59 -1.75104 -0.258352 0
M  V30 17092 C 1689.72 -3.42733 -0.197237 0
M  V30 17093 C 1688.81 -4.17435 0.748894 0
M  V30 17094 N 1689.2 -4.69056 1.89261 0
M  V30 17095 C 1687.5 -4.42435 0.562753 0
M  V30 17096 C 1688.2 -5.25918 2.48566 0
M  V30 17097 N 1687.18 -5.14001 1.76929 0
M  V30 17098 H 1690.98 -2.60072 1.36893 0
M  V30 17099 H 1688.49 -1.38745 0.844014 0
M  V30 17100 H 1690.49 -4.1308 -0.56311 0
M  V30 17101 H 1689.15 -3.06705 -1.06593 0
M  V30 17102 H 1690.16 -4.6532 2.27372 0
M  V30 17103 H 1686.84 -4.16685 -0.260705 0
M  V30 17104 H 1688.23 -5.76462 3.45168 0
M  V30 17105 N 1690.95 -0.754982 -1.38339 0
M  V30 17106 C 1692.2 -0.308537 -1.99326 0
M  V30 17107 C 1692.51 1.1164 -1.60611 0
M  V30 17108 O 1693.71 1.66339 -2.14578 0
M  V30 17109 C 1692.17 -0.500688 -3.564 0
M  V30 17110 C 1691.78 -1.9348 -4.04066 0
M  V30 17111 C 1693.52 -0.117026 -4.24339 0
M  V30 17112 C 1691.43 -2.07544 -5.53786 0
M  V30 17113 H 1690.36 -0.111611 -0.745694 0
M  V30 17114 H 1693.01 -0.931722 -1.58086 0
M  V30 17115 H 1691.39 0.191702 -3.95536 0
M  V30 17116 H 1692.57 -2.66077 -3.76217 0
M  V30 17117 H 1690.88 -2.27351 -3.48856 0
M  V30 17118 H 1693.48 -0.200847 -5.34323 0
M  V30 17119 H 1693.82 0.930531 -4.05767 0
M  V30 17120 H 1694.35 -0.761323 -3.90447 0
M  V30 17121 H 1691.09 -3.10559 -5.77264 0
M  V30 17122 H 1690.61 -1.39409 -5.83374 0
M  V30 17123 H 1692.29 -1.86605 -6.19506 0
M  V30 17124 N 1692.42 1.49318 -0.504168 0
M  V30 17125 C 1693.84 1.86612 -0.0571729 0
M  V30 17126 C 1694.19 1.4162 1.35787 0
M  V30 17127 O 1693.31 0.79548 2.01249 0
M  V30 17128 C 1693.91 3.38661 -0.0969773 0
M  V30 17129 C 1692.47 3.75245 0.294692 0
M  V30 17130 C 1691.61 2.7332 -0.468125 0
M  V30 17131 H 1694.56 1.4159 -0.716788 0
M  V30 17132 H 1694.58 3.74051 0.697569 0
M  V30 17133 H 1694.1 3.71377 -1.12698 0
M  V30 17134 H 1692.2 3.48138 1.32781 0
M  V30 17135 H 1692.31 4.79092 -0.0269621 0
M  V30 17136 H 1690.67 2.54567 0.0824379 0
M  V30 17137 H 1691.46 3.0888 -1.49827 0
M  V30 17138 N 1693.9 0.238138 1.5579 0
M  V30 17139 C 1695.15 -0.388263 1.98335 0
M  V30 17140 C 1695.47 -1.59104 1.12743 0
M  V30 17141 O 1694.74 -1.9479 0.208201 0
M  V30 17142 H 1693.32 -0.14644 0.732505 0
M  V30 17143 H 1695.98 0.334891 1.92001 0
M  V30 17144 H 1695.08 -0.703359 3.04071 0
M  V30 17145 N 1695.38 -1.57561 -0.0350783 0
M  V30 17146 C 1696.61 -1.93644 -0.742753 0
M  V30 17147 C 1697.03 -0.837655 -1.68419 0
M  V30 17148 O 1696.39 0.207069 -1.80114 0
M  V30 17149 C 1696.44 -3.28779 -1.48111 0
M  V30 17150 O 1695.54 -3.20604 -2.59398 0
M  V30 17151 H 1694.88 -0.633103 -0.200192 0
M  V30 17152 H 1697.41 -2.04599 0.00765271 0
M  V30 17153 H 1697.42 -3.63527 -1.85236 0
M  V30 17154 H 1696.1 -4.08316 -0.790608 0
M  V30 17155 H 1694.67 -2.97477 -2.2486 0
M  V30 17156 N 1696.86 0.307236 -1.54576 0
M  V30 17157 C 1698.27 0.88064 -1.64626 0
M  V30 17158 C 1698.62 1.88308 -0.550865 0
M  V30 17159 O 1697.75 2.14116 0.313553 0
M  V30 17160 C 1698.34 1.60405 -2.98422 0
M  V30 17161 C 1696.9 2.12595 -3.10613 0
M  V30 17162 C 1696.05 0.956593 -2.60278 0
M  V30 17163 H 1699 0.0843939 -1.58475 0
M  V30 17164 H 1699.02 2.46925 -2.89496 0
M  V30 17165 H 1698.53 0.874209 -3.78126 0
M  V30 17166 H 1696.63 2.88644 -2.35617 0
M  V30 17167 H 1696.74 2.36475 -4.16673 0
M  V30 17168 H 1695.11 1.3404 -2.16576 0
M  V30 17169 H 1695.89 0.24081 -3.42454 0
M  V30 17170 N 1698.34 1.46926 0.570122 0
M  V30 17171 C 1699.58 1.52887 1.32785 0
M  V30 17172 C 1699.91 0.185754 1.93611 0
M  V30 17173 O 1699.17 -0.819995 1.77692 0
M  V30 17174 C 1699.47 2.58527 2.46776 0
M  V30 17175 C 1699.13 4.02182 2.03863 0
M  V30 17176 C 1697.79 4.4129 1.91876 0
M  V30 17177 C 1700.15 4.92373 1.70935 0
M  V30 17178 C 1697.47 5.6844 1.45235 0
M  V30 17179 C 1699.83 6.19972 1.25769 0
M  V30 17180 C 1698.49 6.57974 1.12368 0
M  V30 17181 H 1697.76 0.559453 0.485895 0
M  V30 17182 H 1700.41 1.80464 0.640698 0
M  V30 17183 H 1698.71 2.24658 3.20992 0
M  V30 17184 H 1700.41 2.60365 3.04977 0
M  V30 17185 H 1697 3.71275 2.14132 0
M  V30 17186 H 1701.18 4.62867 1.79075 0
M  V30 17187 H 1696.44 5.96644 1.33513 0
M  V30 17188 H 1700.61 6.89277 0.993475 0
M  V30 17189 H 1698.24 7.56391 0.760046 0
M  V30 17190 N 1699.82 -0.815801 1.34842 0
M  V30 17191 C 1700.76 -1.92713 1.27006 0
M  V30 17192 C 1701.73 -1.65476 0.143838 0
M  V30 17193 O 1702.92 -1.87994 0.326007 0
M  V30 17194 C 1700.06 -3.29099 1.03863 0
M  V30 17195 C 1699.17 -3.68583 2.25324 0
M  V30 17196 C 1698.31 -4.93953 1.95407 0
M  V30 17197 C 1697.34 -5.26037 3.12971 0
M  V30 17198 N 1696.48 -6.42586 2.82891 0
M  V30 17199 H 1701.32 -1.98747 2.22044 0
M  V30 17200 H 1698.86 -0.972265 1.10388 0
M  V30 17201 H 1700.82 -4.07709 0.884809 0
M  V30 17202 H 1699.45 -3.22558 0.124911 0
M  V30 17203 H 1698.5 -2.85307 2.51603 0
M  V30 17204 H 1699.81 -3.88259 3.1314 0
M  V30 17205 H 1698.96 -5.80367 1.76801 0
M  V30 17206 H 1697.7 -4.76293 1.04862 0
M  V30 17207 H 1696.71 -4.38117 3.32165 0
M  V30 17208 H 1697.93 -5.45632 4.04305 0
M  V30 17209 H 1695.88 -6.26369 1.9493 0
M  V30 17210 H 1695.8 -6.62469 3.64239 0
M  V30 17211 H 1697.06 -7.32052 2.67805 0
M  V30 17212 N 1701.29 -1.18689 -1.03686 0
M  V30 17213 C 1702.26 -0.919415 -2.09951 0
M  V30 17214 C 1703.26 0.0968042 -1.60508 0
M  V30 17215 O 1704.45 -0.137062 -1.7366 0
M  V30 17216 C 1701.58 -0.380204 -3.38773 0
M  V30 17217 H 1702.77 -1.86178 -2.35112 0
M  V30 17218 H 1700.32 -0.999435 -1.20171 0
M  V30 17219 H 1701.06 0.568586 -3.19277 0
M  V30 17220 H 1700.84 -1.11281 -3.75977 0
M  V30 17221 H 1702.33 -0.211891 -4.17062 0
M  V30 17222 N 1702.77 1.22662 -0.989529 0
M  V30 17223 C 1703.72 2.22262 -0.508279 0
M  V30 17224 C 1704.71 1.55276 0.421694 0
M  V30 17225 O 1705.9 1.75239 0.249062 0
M  V30 17226 C 1703.03 3.42833 0.179058 0
M  V30 17227 C 1702.11 4.17032 -0.771021 0
M  V30 17228 N 1702.5 4.68046 -1.91746 0
M  V30 17229 C 1700.8 4.42131 -0.586208 0
M  V30 17230 C 1701.5 5.24592 -2.51352 0
M  V30 17231 N 1700.48 5.13056 -1.79652 0
M  V30 17232 H 1704.28 2.59343 -1.3827 0
M  V30 17233 H 1701.79 1.38295 -0.85136 0
M  V30 17234 H 1703.79 4.13372 0.541196 0
M  V30 17235 H 1702.45 3.07266 1.04965 0
M  V30 17236 H 1703.46 4.64107 -2.29836 0
M  V30 17237 H 1700.14 4.16818 0.238604 0
M  V30 17238 H 1701.53 5.74623 -3.48221 0
M  V30 17239 N 1704.25 0.762308 1.37937 0
M  V30 17240 C 1705.5 0.322846 2.00214 0
M  V30 17241 C 1705.83 -1.09513 1.60376 0
M  V30 17242 O 1705.1 -1.75165 0.845432 0
M  V30 17243 C 1705.39 0.455651 3.57206 0
M  V30 17244 C 1705.24 1.91537 4.06981 0
M  V30 17245 C 1706.56 -0.145758 4.39859 0
M  V30 17246 H 1703.68 0.118781 0.727365 0
M  V30 17247 H 1706.32 0.963585 1.63753 0
M  V30 17248 H 1704.47 -0.0898341 3.88396 0
M  V30 17249 H 1706.14 2.51983 3.86397 0
M  V30 17250 H 1704.38 2.42744 3.59524 0
M  V30 17251 H 1705.06 1.9594 5.16054 0
M  V30 17252 H 1707.53 0.31956 4.14871 0
M  V30 17253 H 1706.41 -0.0226441 5.48895 0
M  V30 17254 H 1706.67 -1.23504 4.24499 0
M  V30 17255 N 1705.73 -1.49049 0.51208 0
M  V30 17256 C 1706.97 -2.0278 -0.0285311 0
M  V30 17257 C 1707.31 -1.39003 -1.35617 0
M  V30 17258 O 1706.58 -0.52952 -1.87153 0
M  V30 17259 C 1706.86 -3.59701 -0.169433 0
M  V30 17260 C 1706.72 -4.33989 1.18211 0
M  V30 17261 C 1708.04 -4.30698 -0.904812 0
M  V30 17262 H 1705.16 -0.736946 -0.00889467 0
M  V30 17263 H 1707.8 -1.77959 0.66564 0
M  V30 17264 H 1705.95 -3.8098 -0.760667 0
M  V30 17265 H 1707.62 -4.24176 1.81307 0
M  V30 17266 H 1705.86 -3.9611 1.76859 0
M  V30 17267 H 1706.53 -5.42177 1.03671 0
M  V30 17268 H 1709.01 -4.14141 -0.40327 0
M  V30 17269 H 1707.89 -5.40221 -0.972264 0
M  V30 17270 H 1708.15 -3.96718 -1.95108 0
M  V30 17271 N 1707.21 -0.246397 -1.55662 0
M  V30 17272 C 1708.62 0.256853 -1.84925 0
M  V30 17273 C 1708.97 1.5763 -1.16821 0
M  V30 17274 O 1708.09 2.11745 -0.446415 0
M  V30 17275 C 1708.69 0.472815 -3.35485 0
M  V30 17276 C 1707.25 0.92033 -3.64975 0
M  V30 17277 C 1706.39 -0.00273772 -2.773 0
M  V30 17278 H 1709.34 -0.468971 -1.51612 0
M  V30 17279 H 1709.37 1.31549 -3.57037 0
M  V30 17280 H 1708.88 -0.487664 -3.85024 0
M  V30 17281 H 1706.98 1.89329 -3.20913 0
M  V30 17282 H 1707.09 0.77754 -4.72748 0
M  V30 17283 H 1705.46 0.508539 -2.49572 0
M  V30 17284 H 1706.24 -0.958581 -3.29645 0
M  V30 17285 N 1708.68 1.57577 0.026722 0
M  V30 17286 C 1709.92 1.91228 0.721878 0
M  V30 17287 C 1710.29 0.845216 1.72395 0
M  V30 17288 O 1711.49 1.06613 2.46753 0
M  V30 17289 C 1709.76 3.30022 1.37186 0
M  V30 17290 S 1711.32 3.85512 2.09585 0
M  V30 17291 H 1708.14 0.669595 0.23909 0
M  V30 17292 H 1710.74 1.95486 -0.0235447 0
M  V30 17293 H 1709.44 4.05546 0.629344 0
M  V30 17294 H 1708.97 3.29074 2.15578 0
M  V30 17295 H 1710.99 3.64429 3.36758 0
M  V30 17296 N 1710.16 -0.299034 1.54737 0
M  V30 17297 C 1711.41 -1.034 1.74111 0
M  V30 17298 C 1711.74 -1.87197 0.527965 0
M  V30 17299 O 1710.99 -1.89465 -0.490052 0
M  V30 17300 C 1711.29 -1.9673 2.98382 0
M  V30 17301 C 1710.96 -1.28893 4.32085 0
M  V30 17302 C 1709.62 -1.10124 4.68429 0
M  V30 17303 C 1711.97 -0.804114 5.1496 0
M  V30 17304 C 1709.3 -0.415622 5.85226 0
M  V30 17305 C 1711.65 -0.132204 6.32462 0
M  V30 17306 C 1710.31 0.0674159 6.67466 0
M  V30 17307 H 1709.58 -0.378366 0.637119 0
M  V30 17308 H 1712.23 -0.308686 1.88996 0
M  V30 17309 H 1710.54 -2.75795 2.78288 0
M  V30 17310 H 1712.23 -2.53671 3.10567 0
M  V30 17311 H 1708.82 -1.44507 4.03504 0
M  V30 17312 H 1713.01 -0.93682 4.87378 0
M  V30 17313 H 1708.26 -0.249993 6.10889 0
M  V30 17314 H 1712.44 0.251345 6.95946 0
M  V30 17315 H 1710.06 0.600691 7.57823 0
M  V30 17316 N 1711.64 -1.47227 -0.562322 0
M  V30 17317 C 1712.92 -1.44069 -1.32301 0
M  V30 17318 C 1713.3 -0.134912 -2.10668 0
M  V30 17319 O 1712.64 0.883603 -2.10724 0
M  V30 17320 C 1712.85 -2.68309 -2.23184 0
M  V30 17321 C 1714.2 -3.1531 -2.84367 0
M  V30 17322 O 1715.23 -2.69001 -2.33489 0
M  V30 17323 O 1714.09 -3.95805 -3.7683 0
M  V30 17324 H 1711.18 -0.573892 -0.595464 0
M  V30 17325 H 1713.73 -1.59421 -0.581648 0
M  V30 17326 H 1712.5 -3.54884 -1.64842 0
M  V30 17327 H 1712.12 -2.55518 -3.04625 0
M  V30 17328 N 1713.12 0.808639 -1.35273 0
M  V30 17329 C 1714.08 1.90195 -1.279 0
M  V30 17330 C 1715.08 1.59663 -0.190915 0
M  V30 17331 O 1716.27 1.68434 -0.444482 0
M  V30 17332 C 1713.4 3.26567 -0.978106 0
M  V30 17333 H 1714.6 1.98152 -2.25113 0
M  V30 17334 H 1712.15 1.00426 -1.19767 0
M  V30 17335 H 1712.88 3.24299 -0.00975789 0
M  V30 17336 H 1712.67 3.50114 -1.7653 0
M  V30 17337 H 1714.16 4.06602 -0.95207 0
M  V30 17338 N 1714.6 1.19237 1.03055 0
M  V30 17339 C 1715.82 1.01983 1.80594 0
M  V30 17340 C 1716.25 -0.426875 1.83192 0
M  V30 17341 O 1715.6 -1.30678 1.2567 0
M  V30 17342 C 1715.65 1.59139 3.23585 0
M  V30 17343 O 1714.76 0.819576 4.04174 0
M  V30 17344 H 1714.1 0.360585 0.557561 0
M  V30 17345 H 1716.63 1.58222 1.29719 0
M  V30 17346 H 1716.64 1.62283 3.74337 0
M  V30 17347 H 1715.31 2.64436 3.21009 0
M  V30 17348 H 1713.89 0.861253 3.62818 0
M  V30 17349 N 1716.07 -1.22136 0.99602 0
M  V30 17350 C 1717.02 -2.24178 0.54889 0
M  V30 17351 C 1717.99 -1.60692 -0.420391 0
M  V30 17352 O 1719.18 -1.88021 -0.324452 0
M  V30 17353 C 1716.32 -3.44865 -0.127239 0
M  V30 17354 C 1715.43 -4.22855 0.884153 0
M  V30 17355 C 1714.56 -5.30891 0.181219 0
M  V30 17356 C 1713.6 -6.00603 1.18077 0
M  V30 17357 N 1712.74 -7.00275 0.505927 0
M  V30 17358 H 1717.58 -2.61788 1.42377 0
M  V30 17359 H 1715.12 -1.28658 0.713124 0
M  V30 17360 H 1717.08 -4.1374 -0.536194 0
M  V30 17361 H 1715.71 -3.0801 -0.965892 0
M  V30 17362 H 1714.76 -3.53247 1.41141 0
M  V30 17363 H 1716.07 -4.70888 1.64518 0
M  V30 17364 H 1715.22 -6.06033 -0.284307 0
M  V30 17365 H 1713.96 -4.83841 -0.612289 0
M  V30 17366 H 1712.97 -5.2424 1.65689 0
M  V30 17367 H 1714.19 -6.4974 1.9752 0
M  V30 17368 H 1712.14 -6.55452 -0.268088 0
M  V30 17369 H 1712.06 -7.46329 1.20535 0
M  V30 17370 H 1713.32 -7.79474 0.0633069 0
M  V30 17371 N 1717.55 -0.769612 -1.37531 0
M  V30 17372 C 1718.8 -0.33346 -2.0004 0
M  V30 17373 C 1719.13 1.08661 -1.60955 0
M  V30 17374 O 1718.41 1.74714 -0.854709 0
M  V30 17375 C 1718.69 -0.474588 -3.56959 0
M  V30 17376 C 1718.54 -1.93692 -4.0596 0
M  V30 17377 C 1719.86 0.122429 -4.3993 0
M  V30 17378 H 1716.98 -0.122637 -0.726725 0
M  V30 17379 H 1719.62 -0.972255 -1.6324 0
M  V30 17380 H 1717.77 0.0692352 -3.88438 0
M  V30 17381 H 1719.44 -2.54028 -3.85055 0
M  V30 17382 H 1717.69 -2.44647 -3.58232 0
M  V30 17383 H 1718.36 -1.98674 -5.15008 0
M  V30 17384 H 1720.83 -0.341557 -4.14696 0
M  V30 17385 H 1719.71 -0.00646545 -5.489 0
M  V30 17386 H 1719.97 1.21251 -4.25148 0
M  V30 17387 N 1719.03 1.48775 -0.519977 0
M  V30 17388 C 1719.98 2.29461 0.248242 0
M  V30 17389 C 1720.95 1.36734 0.943027 0
M  V30 17390 O 1722.13 1.65697 0.946003 0
M  V30 17391 C 1719.27 3.19868 1.29531 0
M  V30 17392 C 1718.39 4.27666 0.610379 0
M  V30 17393 C 1717.52 5.05266 1.63951 0
M  V30 17394 C 1716.56 6.04878 0.937496 0
M  V30 17395 N 1715.7 6.75573 1.91171 0
M  V30 17396 H 1720.54 2.94643 -0.446016 0
M  V30 17397 H 1718.07 1.45262 -0.231792 0
M  V30 17398 H 1720.03 3.70675 1.91456 0
M  V30 17399 H 1718.66 2.5663 1.95808 0
M  V30 17400 H 1717.71 3.80202 -0.122598 0
M  V30 17401 H 1719.03 4.98765 0.0586864 0
M  V30 17402 H 1718.18 5.60037 2.33332 0
M  V30 17403 H 1716.92 4.33983 2.22509 0
M  V30 17404 H 1715.92 5.49321 0.229562 0
M  V30 17405 H 1717.15 6.78155 0.358166 0
M  V30 17406 H 1715.09 6.07048 2.48655 0
M  V30 17407 H 1715.01 7.42712 1.41118 0
M  V30 17408 H 1716.28 7.34938 2.59781 0
M  V30 17409 N 1720.51 0.254649 1.55529 0
M  V30 17410 C 1721.75 -0.369374 2.01035 0
M  V30 17411 C 1722.11 -1.54564 1.13904 0
M  V30 17412 O 1723.31 -2.23792 1.48899 0
M  V30 17413 C 1721.58 -0.761489 3.49194 0
M  V30 17414 S 1723.14 -1.37494 4.16702 0
M  V30 17415 H 1719.96 -0.115878 0.701494 0
M  V30 17416 H 1722.56 0.371696 1.91934 0
M  V30 17417 H 1721.27 0.103781 4.10269 0
M  V30 17418 H 1720.8 -1.53454 3.62237 0
M  V30 17419 H 1722.81 -2.66389 4.1863 0
M  V30 17420 N 1721.99 -1.57589 -0.0183649 0
M  V30 17421 C 1723.21 -1.94421 -0.722172 0
M  V30 17422 C 1723.64 -0.855471 -1.67521 0
M  V30 17423 O 1722.99 0.187954 -1.80323 0
M  V30 17424 C 1723.04 -3.30331 -1.44615 0
M  V30 17425 O 1722.15 -3.23337 -2.55982 0
M  V30 17426 H 1721.49 -0.63519 -0.193466 0
M  V30 17427 H 1724.02 -2.04579 0.0293527 0
M  V30 17428 H 1724.03 -3.65471 -1.8137 0
M  V30 17429 H 1722.7 -4.09132 -0.747256 0
M  V30 17430 H 1721.28 -2.99845 -2.21692 0
M  V30 17431 N 1723.46 0.290824 -1.54893 0
M  V30 17432 C 1724.71 1.02272 -1.74312 0
M  V30 17433 C 1725.03 1.87449 -0.537393 0
M  V30 17434 O 1724.3 1.90705 0.448135 0
M  V30 17435 H 1722.88 0.380592 -0.642774 0
M  V30 17436 H 1725.55 0.319353 -1.92266 0
M  V30 17437 H 1724.64 1.66997 -2.63663 0
M  V30 17438 N 1724.94 1.47523 0.554506 0
M  V30 17439 C 1726.35 1.48114 1.13662 0
M  V30 17440 C 1726.7 0.237321 1.94759 0
M  V30 17441 O 1725.83 -0.657558 2.06168 0
M  V30 17442 C 1726.42 2.68366 2.06797 0
M  V30 17443 C 1724.98 2.71908 2.60274 0
M  V30 17444 C 1724.13 2.41258 1.3671 0
M  V30 17445 H 1727.08 1.54994 0.34097 0
M  V30 17446 H 1727.1 2.4549 2.90714 0
M  V30 17447 H 1726.61 3.58877 1.47745 0
M  V30 17448 H 1724.72 1.85543 3.23117 0
M  V30 17449 H 1724.83 3.72673 3.01084 0
M  V30 17450 H 1723.19 1.91897 1.67474 0
M  V30 17451 H 1723.98 3.3398 0.794476 0
M  V30 17452 N 1726.42 -0.801453 1.357 0
M  V30 17453 C 1727.67 -1.55571 1.29004 0
M  V30 17454 C 1727.99 -1.9454 -0.133836 0
M  V30 17455 O 1727.26 -1.64004 -1.07143 0
M  V30 17456 H 1725.84 -0.576922 0.47452 0
M  V30 17457 H 1728.5 -0.95568 1.69861 0
M  V30 17458 H 1727.6 -2.46879 1.90937 0
M  V30 17459 N 1727.9 -1.19782 -1.02421 0
M  V30 17460 C 1728.83 -0.963553 -2.12692 0
M  V30 17461 C 1729.81 0.104769 -1.69777 0
M  V30 17462 O 1730.99 -0.0512017 -1.94132 0
M  V30 17463 C 1728.12 -0.506525 -3.43586 0
M  V30 17464 C 1727.08 -1.51722 -4.00206 0
M  V30 17465 C 1726.4 -0.917097 -5.26776 0
M  V30 17466 C 1727.7 -2.89879 -4.34474 0
M  V30 17467 H 1729.4 -1.88579 -2.32547 0
M  V30 17468 H 1726.94 -0.908111 -1.11756 0
M  V30 17469 H 1728.9 -0.329907 -4.20107 0
M  V30 17470 H 1727.62 0.451322 -3.23467 0
M  V30 17471 H 1726.28 -1.68106 -3.25785 0
M  V30 17472 H 1725.93 0.0484457 -5.02977 0
M  V30 17473 H 1725.63 -1.59204 -5.65622 0
M  V30 17474 H 1727.15 -0.751379 -6.05959 0
M  V30 17475 H 1728.57 -2.7705 -5.01913 0
M  V30 17476 H 1726.96 -3.54209 -4.84413 0
M  V30 17477 H 1728.03 -3.42179 -3.43571 0
M  V30 17478 N 1729.38 1.21606 -1.00248 0
M  V30 17479 C 1730.29 2.2757 -0.570004 0
M  V30 17480 C 1731.3 1.69669 0.385788 0
M  V30 17481 O 1732.48 1.99839 0.250246 0
M  V30 17482 C 1729.54 3.46558 0.0990566 0
M  V30 17483 C 1728.61 4.19741 -0.9009 0
M  V30 17484 C 1727.84 5.33048 -0.263673 0
M  V30 17485 O 1728.06 5.62599 0.940131 0
M  V30 17486 O 1727 5.93978 -0.973342 0
M  V30 17487 H 1730.82 2.66751 -1.45182 0
M  V30 17488 H 1728.41 1.27955 -0.771224 0
M  V30 17489 H 1730.29 4.18733 0.47339 0
M  V30 17490 H 1728.96 3.09283 0.955285 0
M  V30 17491 H 1727.87 3.49798 -1.32634 0
M  V30 17492 H 1729.2 4.60921 -1.72664 0
M  V30 17493 N 1730.86 0.776895 1.37121 0
M  V30 17494 C 1732.27 0.457116 1.52914 0
M  V30 17495 C 1732.47 -1.0265 1.73394 0
M  V30 17496 O 1731.53 -1.81224 1.75824 0
M  V30 17497 C 1732.84 1.27667 2.72253 0
M  V30 17498 C 1734.39 1.26909 2.86117 0
M  V30 17499 C 1734.86 2.0721 4.08446 0
M  V30 17500 N 1736.35 2.04591 4.15568 0
M  V30 17501 C 1737.09 2.63502 5.09268 0
M  V30 17502 N 1736.59 3.31222 6.08493 0
M  V30 17503 N 1738.38 2.53304 5.0179 0
M  V30 17504 H 1730.53 1.73811 1.2208 0
M  V30 17505 H 1732.79 0.738142 0.594853 0
M  V30 17506 H 1732.5 2.32825 2.63601 0
M  V30 17507 H 1732.37 0.909363 3.66074 0
M  V30 17508 H 1734.76 0.225476 2.94237 0
M  V30 17509 H 1734.84 1.67607 1.9324 0
M  V30 17510 H 1734.48 3.11595 4.01087 0
M  V30 17511 H 1734.41 1.63891 5.00447 0
M  V30 17512 H 1736.91 1.55293 3.44518 0
M  V30 17513 H 1737.22 3.73535 6.76529 0
M  V30 17514 H 1735.56 3.35322 6.08756 0
M  V30 17515 H 1738.75 2.00009 4.23218 0
M  V30 17516 H 1738.93 2.99509 5.74629 0
M  V30 17517 N 1732.33 -1.48497 0.527859 0
M  V30 17518 C 1733.3 -2.2809 -0.225312 0
M  V30 17519 C 1734.3 -1.35251 -0.869707 0
M  V30 17520 O 1735.49 -1.58163 -0.730086 0
M  V30 17521 C 1732.62 -3.14061 -1.32584 0
M  V30 17522 H 1733.81 -2.96139 0.473465 0
M  V30 17523 H 1731.36 -1.53703 0.283724 0
M  V30 17524 H 1732.1 -2.50638 -2.05794 0
M  V30 17525 H 1731.88 -3.82351 -0.868922 0
M  V30 17526 H 1733.37 -3.74106 -1.85566 0
M  V30 17527 N 1733.81 -0.262893 -1.55392 0
M  V30 17528 C 1735.04 0.361057 -2.03725 0
M  V30 17529 C 1735.45 1.5037 -1.14168 0
M  V30 17530 O 1734.81 1.81804 -0.159284 0
M  V30 17531 C 1734.86 0.853697 -3.51275 0
M  V30 17532 O 1734.58 -0.243431 -4.37423 0
M  V30 17533 C 1736.08 1.54671 -4.15442 0
M  V30 17534 H 1733.3 0.0839272 -0.665731 0
M  V30 17535 H 1735.85 -0.391424 -2.00719 0
M  V30 17536 H 1734 1.55631 -3.54765 0
M  V30 17537 H 1734.42 0.133241 -5.24331 0
M  V30 17538 H 1735.89 1.84296 -5.20326 0
M  V30 17539 H 1736.37 2.47413 -3.62882 0
M  V30 17540 H 1736.97 0.888269 -4.15921 0
M  V30 17541 N 1735.29 1.57597 0.0100073 0
M  V30 17542 C 1736.25 2.06745 0.989401 0
M  V30 17543 C 1737.25 0.97499 1.27869 0
M  V30 17544 O 1738.44 1.23798 1.22555 0
M  V30 17545 C 1735.57 2.50048 2.31709 0
M  V30 17546 H 1736.77 2.9454 0.564473 0
M  V30 17547 H 1734.32 1.54168 0.257266 0
M  V30 17548 H 1735.06 1.65466 2.78911 0
M  V30 17549 H 1734.84 3.29823 2.12035 0
M  V30 17550 H 1736.33 2.88433 3.01987 0
M  V30 17551 N 1736.77 -0.282606 1.55045 0
M  V30 17552 C 1738.02 -1.01346 1.74852 0
M  V30 17553 C 1738.34 -1.87161 0.547327 0
M  V30 17554 O 1737.61 -1.9094 -0.438015 0
M  V30 17555 H 1736.19 -0.377178 0.644784 0
M  V30 17556 H 1738.85 -0.309152 1.92432 0
M  V30 17557 H 1737.94 -1.65596 2.64545 0
M  V30 17558 N 1738.25 -1.47815 -0.546675 0
M  V30 17559 C 1739.16 -1.63744 -1.68003 0
M  V30 17560 C 1740.17 -0.520118 -1.66044 0
M  V30 17561 O 1741.35 -0.789033 -1.853 0
M  V30 17562 C 1738.41 -1.65778 -3.04497 0
M  V30 17563 C 1737.47 -2.89015 -3.17441 0
M  V30 17564 C 1736.71 -2.90943 -4.47424 0
M  V30 17565 O 1736.93 -2.01769 -5.33522 0
M  V30 17566 O 1735.86 -3.82927 -4.64382 0
M  V30 17567 H 1739.69 -2.59665 -1.57505 0
M  V30 17568 H 1737.27 -1.31022 -0.717883 0
M  V30 17569 H 1739.16 -1.69734 -3.85705 0
M  V30 17570 H 1737.83 -0.730268 -3.15355 0
M  V30 17571 H 1736.74 -2.90599 -2.35591 0
M  V30 17572 H 1738.07 -3.81095 -3.11492 0
M  V30 17573 N 1739.72 0.794246 -1.36123 0
M  V30 17574 C 1740.97 1.55421 -1.30277 0
M  V30 17575 C 1741.3 1.93834 0.119134 0
M  V30 17576 O 1740.58 1.6233 1.07141 0
M  V30 17577 C 1740.86 2.83454 -2.22094 0
M  V30 17578 C 1740.71 2.51439 -3.72959 0
M  V30 17579 C 1742.03 3.85246 -2.12776 0
M  V30 17580 H 1739.15 0.563871 -0.474572 0
M  V30 17581 H 1741.79 0.912877 -1.66633 0
M  V30 17582 H 1739.94 3.38182 -1.9122 0
M  V30 17583 H 1741.62 2.02799 -4.14331 0
M  V30 17584 H 1739.86 1.84451 -3.92632 0
M  V30 17585 H 1740.53 3.42863 -4.32608 0
M  V30 17586 H 1743.01 3.39952 -2.39942 0
M  V30 17587 H 1741.88 4.72588 -2.79198 0
M  V30 17588 H 1742.14 4.27847 -1.11353 0
M  V30 17589 N 1741.2 1.20323 1.01785 0
M  V30 17590 C 1742.45 1.01063 1.75016 0
M  V30 17591 C 1742.77 -0.458458 1.89534 0
M  V30 17592 O 1742.04 -1.3315 1.43694 0
M  V30 17593 H 1740.62 0.370957 0.648383 0
M  V30 17594 H 1743.28 1.51411 1.22722 0
M  V30 17595 H 1742.38 1.46792 2.75424 0
M  V30 17596 N 1742.68 -1.21073 1.00892 0
M  V30 17597 C 1743.61 -2.22968 0.530841 0
M  V30 17598 C 1744.62 -1.58239 -0.382664 0
M  V30 17599 O 1745.81 -1.77567 -0.182237 0
M  V30 17600 C 1742.91 -3.37991 -0.248096 0
M  V30 17601 C 1742.09 -4.32309 0.665439 0
M  V30 17602 C 1741.15 -5.2616 -0.0645731 0
M  V30 17603 O 1740.17 -5.66484 0.555383 0
M  V30 17604 N 1741.37 -5.64777 -1.3419 0
M  V30 17605 H 1744.14 -2.64614 1.4071 0
M  V30 17606 H 1741.7 -1.35536 0.885528 0
M  V30 17607 H 1743.69 -3.97774 -0.745513 0
M  V30 17608 H 1742.26 -2.95297 -1.02558 0
M  V30 17609 H 1741.48 -3.70607 1.34329 0
M  V30 17610 H 1742.77 -4.92254 1.28701 0
M  V30 17611 H 1742.17 -5.34016 -1.86664 0
M  V30 17612 H 1740.72 -6.26905 -1.78419 0
M  V30 17613 N 1744.16 -0.784156 -1.36707 0
M  V30 17614 C 1745.41 -0.354133 -1.99379 0
M  V30 17615 C 1745.73 1.07276 -1.62241 0
M  V30 17616 O 1744.99 1.75481 -0.866317 0
M  V30 17617 C 1745.29 -0.459004 -3.5444 0
M  V30 17618 C 1744.95 -1.84594 -4.11383 0
M  V30 17619 C 1743.62 -2.22543 -4.26648 0
M  V30 17620 C 1745.97 -2.75433 -4.42477 0
M  V30 17621 C 1743.3 -3.50744 -4.70315 0
M  V30 17622 C 1745.65 -4.03056 -4.87574 0
M  V30 17623 C 1744.31 -4.41034 -5.01044 0
M  V30 17624 H 1743.58 -0.129586 -0.729581 0
M  V30 17625 H 1746.23 -1.00059 -1.6328 0
M  V30 17626 H 1744.53 0.27097 -3.90862 0
M  V30 17627 H 1746.23 -0.107393 -4.00856 0
M  V30 17628 H 1742.82 -1.54103 -3.99938 0
M  V30 17629 H 1747 -2.4737 -4.30258 0
M  V30 17630 H 1742.26 -3.80047 -4.78931 0
M  V30 17631 H 1746.43 -4.73563 -5.10599 0
M  V30 17632 H 1744.06 -5.4043 -5.34639 0
M  V30 17633 N 1745.64 1.48215 -0.535727 0
M  V30 17634 C 1746.57 2.27708 0.261085 0
M  V30 17635 C 1747.58 1.35714 0.899197 0
M  V30 17636 O 1748.77 1.60717 0.776669 0
M  V30 17637 C 1745.87 3.09285 1.38549 0
M  V30 17638 C 1745.04 4.29097 0.848218 0
M  V30 17639 C 1744.1 4.92439 1.85445 0
M  V30 17640 O 1743.13 5.51483 1.4091 0
M  V30 17641 N 1744.33 4.85197 3.18691 0
M  V30 17642 H 1747.1 2.96732 -0.420706 0
M  V30 17643 H 1744.66 1.57606 -0.370421 0
M  V30 17644 H 1746.65 3.4853 2.05691 0
M  V30 17645 H 1745.22 2.42644 1.97085 0
M  V30 17646 H 1744.44 3.942 0.000627744 0
M  V30 17647 H 1745.73 5.06641 0.468243 0
M  V30 17648 H 1745.12 4.3839 3.57535 0
M  V30 17649 H 1743.68 5.28525 3.81451 0
M  V30 17650 N 1747.11 0.27113 1.5525 0
M  V30 17651 C 1748.36 -0.347304 1.99804 0
M  V30 17652 C 1748.69 -1.55803 1.15928 0
M  V30 17653 O 1747.97 -1.93154 0.228386 0
M  V30 17654 C 1748.25 -0.733408 3.52552 0
M  V30 17655 C 1748.1 0.48438 4.47184 0
M  V30 17656 C 1749.42 -1.57136 4.11092 0
M  V30 17657 H 1746.54 -0.124762 0.726363 0
M  V30 17658 H 1749.18 0.37728 1.86217 0
M  V30 17659 H 1747.33 -1.35076 3.64262 0
M  V30 17660 H 1749.01 1.12293 4.47424 0
M  V30 17661 H 1747.25 1.12317 4.19008 0
M  V30 17662 H 1747.92 0.170525 5.51737 0
M  V30 17663 H 1750.4 -1.05001 4.02634 0
M  V30 17664 H 1749.27 -1.81033 5.18187 0
M  V30 17665 H 1749.53 -2.55111 3.61069 0
M  V30 17666 N 1748.59 -1.576 -0.00164943 0
M  V30 17667 C 1749.87 -1.81716 -0.723788 0
M  V30 17668 C 1750.25 -0.875694 -1.9208 0
M  V30 17669 O 1749.6 0.0759629 -2.28374 0
M  V30 17670 C 1749.81 -3.30164 -1.13106 0
M  V30 17671 C 1751.16 -3.95859 -1.5356 0
M  V30 17672 O 1752.18 -3.34477 -1.2249 0
M  V30 17673 O 1751.04 -5.03986 -2.1133 0
M  V30 17674 H 1748.13 -0.748213 -0.352287 0
M  V30 17675 H 1750.68 -1.69683 0.0236782 0
M  V30 17676 H 1749.45 -3.90313 -0.277771 0
M  V30 17677 H 1749.07 -3.47188 -1.93768 0
M  V30 17678 N 1750.07 0.274379 -1.55193 0
M  V30 17679 C 1751.31 1.01383 -1.77485 0
M  V30 17680 C 1751.67 1.83549 -0.563373 0
M  V30 17681 O 1752.88 2.60457 -0.664517 0
M  V30 17682 C 1751.15 1.87414 -3.0432 0
M  V30 17683 S 1752.71 2.67644 -3.47725 0
M  V30 17684 H 1749.52 0.341489 -0.623623 0
M  V30 17685 H 1752.13 0.284398 -1.9342 0
M  V30 17686 H 1750.83 1.25974 -3.90588 0
M  V30 17687 H 1750.36 2.6468 -2.91046 0
M  V30 17688 H 1752.38 3.89914 -3.06889 0
M  V30 17689 N 1751.55 1.48103 0.538828 0
M  V30 17690 C 1752.77 1.59568 1.32487 0
M  V30 17691 C 1753.2 0.252908 1.86392 0
M  V30 17692 O 1752.56 -0.774094 1.63944 0
M  V30 17693 C 1752.6 2.63863 2.45782 0
M  V30 17694 O 1751.71 2.20409 3.48559 0
M  V30 17695 H 1751.05 0.53538 0.392765 0
M  V30 17696 H 1753.58 1.94024 0.649299 0
M  V30 17697 H 1753.59 2.8486 2.92093 0
M  V30 17698 H 1752.26 3.61352 2.05906 0
M  V30 17699 H 1750.84 2.09588 3.08427 0
M  V30 17700 N 1753.03 -0.787016 1.36542 0
M  V30 17701 C 1754.25 -1.58103 1.34231 0
M  V30 17702 C 1754.68 -1.87956 -0.0734932 0
M  V30 17703 O 1754.03 -1.48073 -1.04615 0
M  V30 17704 C 1754.08 -2.87739 2.17345 0
M  V30 17705 O 1753.19 -3.81445 1.56759 0
M  V30 17706 H 1752.53 -0.479495 0.459326 0
M  V30 17707 H 1755.06 -0.975294 1.79859 0
M  V30 17708 H 1755.07 -3.36986 2.3001 0
M  V30 17709 H 1753.74 -2.65338 3.20264 0
M  V30 17710 H 1752.32 -3.40046 1.53047 0
M  V30 17711 N 1754.5 -1.20861 -1.01145 0
M  V30 17712 C 1755.47 -0.963742 -2.07954 0
M  V30 17713 C 1756.47 0.0627362 -1.60678 0
M  V30 17714 O 1757.66 -0.173867 -1.7333 0
M  V30 17715 C 1754.79 -0.451977 -3.3789 0
M  V30 17716 H 1755.98 -1.91123 -2.3111 0
M  V30 17717 H 1753.54 -1.0247 -1.18024 0
M  V30 17718 H 1754.27 0.500735 -3.20411 0
M  V30 17719 H 1754.06 -1.19231 -3.73532 0
M  V30 17720 H 1755.55 -0.300308 -4.16519 0
M  V30 17721 N 1755.98 1.20536 -1.01532 0
M  V30 17722 C 1757.23 1.89496 -0.70254 0
M  V30 17723 C 1757.55 1.7915 0.770072 0
M  V30 17724 O 1756.82 1.19308 1.55379 0
M  V30 17725 H 1755.4 0.701447 -0.256868 0
M  V30 17726 H 1758.06 1.46394 -1.28665 0
M  V30 17727 H 1757.16 2.96155 -0.984817 0
M  V30 17728 N 1757.46 0.791395 1.36289 0
M  V30 17729 C 1758.69 0.375566 2.03971 0
M  V30 17730 C 1759.11 -1.00061 1.59277 0
M  V30 17731 O 1758.47 -1.64501 0.762182 0
M  V30 17732 C 1758.52 0.449891 3.57783 0
M  V30 17733 O 1757.62 -0.54243 4.08817 0
M  V30 17734 H 1756.96 0.159181 0.644637 0
M  V30 17735 H 1759.49 1.07306 1.74203 0
M  V30 17736 H 1759.5 0.314206 4.06788 0
M  V30 17737 H 1758.18 1.45377 3.89665 0
M  V30 17738 H 1756.75 -0.368243 3.71077 0
M  V30 17739 N 1758.94 -1.47929 0.54358 0
M  V30 17740 C 1759.9 -2.28316 -0.201107 0
M  V30 17741 C 1760.9 -1.36165 -0.855313 0
M  V30 17742 O 1762.09 -1.58928 -0.71327 0
M  V30 17743 C 1759.22 -3.1545 -1.29245 0
M  V30 17744 H 1760.42 -2.9562 0.504848 0
M  V30 17745 H 1757.97 -1.53394 0.300011 0
M  V30 17746 H 1758.71 -2.52807 -2.03124 0
M  V30 17747 H 1758.49 -3.83251 -0.82832 0
M  V30 17748 H 1759.98 -3.76053 -1.81587 0
M  V30 17749 N 1760.42 -0.27936 -1.55104 0
M  V30 17750 C 1761.33 0.616249 -2.26361 0
M  V30 17751 C 1762.34 1.16656 -1.29102 0
M  V30 17752 O 1763.52 1.19596 -1.62046 0
M  V30 17753 C 1760.58 1.78191 -2.97403 0
M  V30 17754 C 1759.65 1.26785 -4.10151 0
M  V30 17755 C 1758.88 2.37795 -4.77796 0
M  V30 17756 O 1759.1 3.57242 -4.44673 0
M  V30 17757 O 1758.04 2.05711 -5.65656 0
M  V30 17758 H 1761.86 0.0388715 -3.03675 0
M  V30 17759 H 1759.45 -0.0466058 -1.49327 0
M  V30 17760 H 1761.33 2.4615 -3.42036 0
M  V30 17761 H 1760 2.3463 -2.23003 0
M  V30 17762 H 1758.91 0.554608 -3.69966 0
M  V30 17763 H 1760.24 0.749157 -4.86465 0
M  V30 17764 N 1761.9 1.57599 -0.0067085 0
M  V30 17765 C 1762.83 2.11878 0.981331 0
M  V30 17766 C 1763.81 1.02949 1.35408 0
M  V30 17767 O 1764.99 1.30667 1.43665 0
M  V30 17768 C 1762.12 2.62757 2.27104 0
M  V30 17769 C 1761.08 3.76272 2.0397 0
M  V30 17770 C 1760.4 4.13491 3.39012 0
M  V30 17771 C 1761.7 5.03274 1.39688 0
M  V30 17772 H 1763.4 2.94683 0.529366 0
M  V30 17773 H 1760.94 1.41757 0.253187 0
M  V30 17774 H 1762.89 2.99359 2.96585 0
M  V30 17775 H 1761.62 1.77082 2.74426 0
M  V30 17776 H 1760.28 3.40074 1.36913 0
M  V30 17777 H 1759.93 3.24831 3.8405 0
M  V30 17778 H 1759.63 4.89972 3.24347 0
M  V30 17779 H 1761.15 4.52657 4.09797 0
M  V30 17780 H 1762.56 5.37604 1.99136 0
M  V30 17781 H 1760.96 5.84604 1.3549 0
M  V30 17782 H 1762.03 4.8351 0.366928 0
M  V30 17783 N 1763.37 -0.266145 1.55336 0
M  V30 17784 C 1764.6 -1.01489 1.80299 0
M  V30 17785 C 1765.02 -1.79679 0.579742 0
M  V30 17786 O 1764.37 -1.76831 -0.451319 0
M  V30 17787 C 1764.42 -1.96805 3.03233 0
M  V30 17788 O 1764.15 -1.21782 4.20834 0
M  V30 17789 C 1765.65 -2.83436 3.40851 0
M  V30 17790 H 1762.87 -0.299504 0.600449 0
M  V30 17791 H 1765.41 -0.294854 2.02363 0
M  V30 17792 H 1763.57 -2.64262 2.83275 0
M  V30 17793 H 1763.98 -1.86086 4.9038 0
M  V30 17794 H 1765.45 -3.461 4.30022 0
M  V30 17795 H 1765.93 -3.53559 2.60562 0
M  V30 17796 H 1766.54 -2.2146 3.63092 0
M  V30 17797 N 1764.85 -1.48386 -0.530967 0
M  V30 17798 C 1766.1 -1.55608 -1.28332 0
M  V30 17799 C 1766.41 -0.234479 -1.94189 0
M  V30 17800 O 1767.62 -0.184926 -2.70869 0
M  V30 17801 C 1766.08 -2.74423 -2.32852 0
M  V30 17802 C 1765.68 -4.13221 -1.73068 0
M  V30 17803 C 1767.43 -2.90956 -3.09103 0
M  V30 17804 C 1765.33 -5.23299 -2.75522 0
M  V30 17805 H 1764.26 -0.579291 -0.482637 0
M  V30 17806 H 1766.92 -1.74718 -0.560885 0
M  V30 17807 H 1765.3 -2.48745 -3.08126 0
M  V30 17808 H 1766.47 -4.48913 -1.03989 0
M  V30 17809 H 1764.79 -4.01796 -1.09312 0
M  V30 17810 H 1767.38 -3.70363 -3.85662 0
M  V30 17811 H 1767.73 -2.00376 -3.64905 0
M  V30 17812 H 1768.26 -3.1653 -2.40943 0
M  V30 17813 H 1765 -6.15842 -2.24542 0
M  V30 17814 H 1764.52 -4.92095 -3.42932 0
M  V30 17815 H 1766.2 -5.5137 -3.38526 0
M  V30 17816 N 1766.33 0.779763 -1.36958 0
M  V30 17817 C 1767.24 1.92394 -1.34245 0
M  V30 17818 C 1768.26 1.72292 -0.243187 0
M  V30 17819 O 1769.43 1.95665 -0.477211 0
M  V30 17820 C 1766.5 3.27402 -1.14057 0
M  V30 17821 C 1765.56 3.60213 -2.33548 0
M  V30 17822 C 1764.79 4.88779 -2.14314 0
M  V30 17823 O 1765.01 5.59231 -1.12327 0
M  V30 17824 O 1763.95 5.20469 -3.02316 0
M  V30 17825 H 1767.77 1.97633 -2.30596 0
M  V30 17826 H 1765.36 0.921386 -1.17605 0
M  V30 17827 H 1767.24 4.08172 -1.04755 0
M  V30 17828 H 1765.92 3.23033 -0.207744 0
M  V30 17829 H 1764.82 2.7971 -2.48421 0
M  V30 17830 H 1766.16 3.69317 -3.25371 0
M  V30 17831 N 1767.81 1.21396 1.00503 0
M  V30 17832 C 1769.06 1.02536 1.73693 0
M  V30 17833 C 1769.37 -0.441584 1.9055 0
M  V30 17834 O 1770.58 -0.749579 2.60947 0
M  V30 17835 C 1769.03 1.78602 3.12457 0
M  V30 17836 C 1768.64 3.29466 3.03573 0
M  V30 17837 C 1770.38 1.68149 3.89777 0
M  V30 17838 C 1768.29 3.98021 4.37416 0
M  V30 17839 H 1767.22 0.380052 0.651212 0
M  V30 17840 H 1769.87 1.4513 1.12292 0
M  V30 17841 H 1768.25 1.288 3.74468 0
M  V30 17842 H 1769.43 3.8657 2.50799 0
M  V30 17843 H 1767.74 3.4046 2.39741 0
M  V30 17844 H 1770.34 2.167 4.8882 0
M  V30 17845 H 1770.68 0.639716 4.11355 0
M  V30 17846 H 1771.22 2.15428 3.34418 0
M  V30 17847 H 1767.95 5.02401 4.21039 0
M  V30 17848 H 1767.47 3.45706 4.9015 0
M  V30 17849 H 1769.15 4.02932 5.06216 0
M  V30 17850 N 1769.29 -1.19996 1.0217 0
M  V30 17851 C 1770.53 -1.91201 0.722601 0
M  V30 17852 C 1770.89 -1.77387 -0.734692 0
M  V30 17853 O 1772.09 -2.43121 -1.14654 0
M  V30 17854 C 1770.36 -3.38308 1.1525 0
M  V30 17855 S 1771.92 -4.27805 0.976144 0
M  V30 17856 H 1768.74 -0.660456 0.263285 0
M  V30 17857 H 1771.34 -1.45115 1.31003 0
M  V30 17858 H 1770.04 -3.45885 2.20889 0
M  V30 17859 H 1769.58 -3.89422 0.558056 0
M  V30 17860 H 1771.59 -4.96061 -0.117417 0
M  V30 17861 N 1770.76 -0.798611 -1.35867 0
M  V30 17862 C 1771.99 -0.386378 -2.03769 0
M  V30 17863 C 1772.41 0.992154 -1.59806 0
M  V30 17864 O 1771.77 1.64094 -0.770895 0
M  V30 17865 C 1771.82 -0.468859 -3.57539 0
M  V30 17866 O 1770.92 0.520742 -4.09099 0
M  V30 17867 H 1770.26 -0.162597 -0.643784 0
M  V30 17868 H 1772.79 -1.08228 -1.73631 0
M  V30 17869 H 1772.8 -0.335775 -4.06616 0
M  V30 17870 H 1771.48 -1.47441 -3.88888 0
M  V30 17871 H 1770.06 0.348559 -3.71267 0
M  V30 17872 N 1772.24 1.47639 -0.551417 0
M  V30 17873 C 1773.15 2.33722 0.202799 0
M  V30 17874 C 1774.17 1.47832 0.917699 0
M  V30 17875 O 1775.34 1.80772 0.887885 0
M  V30 17876 C 1772.41 3.24408 1.22313 0
M  V30 17877 C 1771.47 4.26184 0.51628 0
M  V30 17878 C 1770.7 5.12537 1.488 0
M  V30 17879 O 1770.93 5.01241 2.72238 0
M  V30 17880 O 1769.86 5.93269 1.01566 0
M  V30 17881 H 1773.69 2.99503 -0.50317 0
M  V30 17882 H 1771.27 1.46104 -0.312093 0
M  V30 17883 H 1773.15 3.80441 1.81225 0
M  V30 17884 H 1771.83 2.61262 1.91112 0
M  V30 17885 H 1770.73 3.73927 -0.113886 0
M  V30 17886 H 1772.07 4.92028 -0.130158 0
M  V30 17887 N 1773.72 0.287581 1.54954 0
M  V30 17888 C 1774.68 -0.581465 2.21702 0
M  V30 17889 C 1775.68 -1.07172 1.19878 0
M  V30 17890 O 1776.87 -0.969899 1.44702 0
M  V30 17891 C 1774.01 -1.80358 2.89282 0
M  V30 17892 H 1775.2 0.00151035 2.999 0
M  V30 17893 H 1772.75 0.0382953 1.56253 0
M  V30 17894 H 1773.49 -2.42674 2.15128 0
M  V30 17895 H 1773.27 -1.45983 3.63911 0
M  V30 17896 H 1774.76 -2.42129 3.4024 0
M  V30 17897 N 1775.2 -1.57593 0.0150662 0
M  V30 17898 C 1776.45 -1.90836 -0.665282 0
M  V30 17899 C 1776.77 -0.890693 -1.73469 0
M  V30 17900 O 1776.04 0.0698113 -1.95776 0
M  V30 17901 H 1774.62 -0.704377 -0.24872 0
M  V30 17902 H 1777.28 -1.94809 0.0595521 0
M  V30 17903 H 1776.38 -2.91043 -1.12697 0
M  V30 17904 N 1776.68 0.257904 -1.55475 0
M  V30 17905 C 1777.61 1.32303 -1.92401 0
M  V30 17906 C 1778.59 1.50767 -0.787617 0
M  V30 17907 O 1779.77 1.63559 -1.047 0
M  V30 17908 C 1776.9 2.67984 -2.20912 0
M  V30 17909 C 1775.86 2.64231 -3.36699 0
M  V30 17910 C 1775.18 4.03604 -3.50725 0
M  V30 17911 C 1776.48 2.22177 -4.72689 0
M  V30 17912 H 1778.18 1.01646 -2.81618 0
M  V30 17913 H 1775.72 0.487523 -1.35496 0
M  V30 17914 H 1777.68 3.42622 -2.45332 0
M  V30 17915 H 1776.4 3.00254 -1.2851 0
M  V30 17916 H 1775.06 1.92049 -3.1227 0
M  V30 17917 H 1774.71 4.33122 -2.55763 0
M  V30 17918 H 1774.41 4.01983 -4.28583 0
M  V30 17919 H 1775.93 4.79959 -3.77455 0
M  V30 17920 H 1777.34 2.86543 -4.96554 0
M  V30 17921 H 1775.74 2.3169 -5.5357 0
M  V30 17922 H 1776.81 1.17326 -4.70492 0
M  V30 17923 N 1778.15 1.48666 0.52309 0
M  V30 17924 C 1779.57 1.50492 1.10495 0
M  V30 17925 C 1779.92 0.278579 1.94212 0
M  V30 17926 O 1779.04 -0.613679 2.07516 0
M  V30 17927 C 1779.64 2.72692 2.01058 0
M  V30 17928 C 1778.2 2.77368 2.54448 0
M  V30 17929 C 1777.34 2.44104 1.31562 0
M  V30 17930 H 1780.29 1.55682 0.308017 0
M  V30 17931 H 1780.31 2.51601 2.85442 0
M  V30 17932 H 1779.83 3.61931 1.401 0
M  V30 17933 H 1777.93 1.92356 3.19108 0
M  V30 17934 H 1778.04 3.78976 2.93111 0
M  V30 17935 H 1776.4 1.95407 1.63366 0
M  V30 17936 H 1777.19 3.35591 0.723455 0
M  V30 17937 N 1779.63 -0.772489 1.37369 0
M  V30 17938 C 1780.6 -1.86737 1.32898 0
M  V30 17939 C 1781.6 -1.591 0.23318 0
M  V30 17940 O 1782.79 -1.67196 0.488983 0
M  V30 17941 C 1779.92 -3.23859 1.06435 0
M  V30 17942 H 1781.11 -1.92114 2.30287 0
M  V30 17943 H 1778.66 -0.972158 1.22388 0
M  V30 17944 H 1779.4 -3.24159 0.0957365 0
M  V30 17945 H 1779.18 -3.4531 1.85751 0
M  V30 17946 H 1780.67 -4.03935 1.05954 0
M  V30 17947 N 1781.11 -1.21927 -0.998575 0
M  V30 17948 C 1782.02 -1.00049 -2.12197 0
M  V30 17949 C 1783.04 0.0494414 -1.7393 0
M  V30 17950 O 1784.21 -0.142033 -2.00899 0
M  V30 17951 C 1781.28 -0.574871 -3.41901 0
M  V30 17952 C 1780.34 -1.69776 -3.94303 0
M  V30 17953 C 1779.57 -1.29236 -5.17816 0
M  V30 17954 O 1779.79 -0.168709 -5.7015 0
M  V30 17955 O 1778.73 -2.10671 -5.63827 0
M  V30 17956 H 1782.55 -1.94154 -2.33534 0
M  V30 17957 H 1780.14 -1.00472 -1.10571 0
M  V30 17958 H 1782.02 -0.347603 -4.19964 0
M  V30 17959 H 1780.7 0.337389 -3.21937 0
M  V30 17960 H 1779.6 -1.9795 -3.17438 0
M  V30 17961 H 1780.94 -2.58768 -4.18688 0
M  V30 17962 N 1782.59 1.19452 -1.02805 0
M  V30 17963 C 1783.83 1.89394 -0.725101 0
M  V30 17964 C 1784.17 1.79368 0.744361 0
M  V30 17965 O 1783.44 1.18548 1.54196 0
M  V30 17966 C 1783.73 3.40361 -1.17586 0
M  V30 17967 C 1783.58 3.59263 -2.70648 0
M  V30 17968 C 1784.9 4.33558 -0.756011 0
M  V30 17969 H 1782.02 0.687753 -0.264887 0
M  V30 17970 H 1784.66 1.40611 -1.27783 0
M  V30 17971 H 1782.81 3.82038 -0.70561 0
M  V30 17972 H 1784.48 3.26762 -3.25614 0
M  V30 17973 H 1782.72 3.02344 -3.1108 0
M  V30 17974 H 1783.39 4.65135 -2.97244 0
M  V30 17975 H 1785.87 3.9959 -1.16046 0
M  V30 17976 H 1784.75 5.37779 -1.09931 0
M  V30 17977 H 1785.01 4.40778 0.341677 0
M  V30 17978 N 1784.07 0.805805 1.35442 0
M  V30 17979 C 1785.3 0.397675 2.02737 0
M  V30 17980 C 1785.7 -0.99586 1.6087 0
M  V30 17981 O 1785.05 -1.65293 0.801496 0
M  V30 17982 C 1785.11 0.400706 3.5726 0
M  V30 17983 C 1784.77 1.74462 4.22388 0
M  V30 17984 C 1785.77 2.70278 4.44123 0
M  V30 17985 C 1783.46 2.02841 4.59522 0
M  V30 17986 C 1785.45 3.92658 5.02094 0
M  V30 17987 C 1783.14 3.25485 5.17207 0
M  V30 17988 C 1784.13 4.20211 5.38435 0
M  V30 17989 O 1783.82 5.4069 5.94903 0
M  V30 17990 H 1783.55 0.159829 0.656834 0
M  V30 17991 H 1786.11 1.09052 1.7406 0
M  V30 17992 H 1784.34 -0.348738 3.85124 0
M  V30 17993 H 1786.03 0.0149949 4.05897 0
M  V30 17994 H 1786.79 2.49645 4.15815 0
M  V30 17995 H 1782.67 1.29921 4.42314 0
M  V30 17996 H 1786.22 4.66607 5.18578 0
M  V30 17997 H 1782.11 3.45989 5.44942 0
M  V30 17998 H 1782.88 5.41976 6.13355 0
M  V30 17999 N 1785.54 -1.47344 0.559239 0
M  V30 18000 C 1786.79 -2.01672 0.0337843 0
M  V30 18001 C 1787.11 -1.43883 -1.32503 0
M  V30 18002 O 1788.31 -1.89885 -1.94051 0
M  V30 18003 C 1786.77 -3.59899 0.00989925 0
M  V30 18004 C 1786.38 -4.2668 1.3656 0
M  V30 18005 C 1788.12 -4.21969 -0.462842 0
M  V30 18006 C 1786.03 -5.76919 1.30071 0
M  V30 18007 H 1784.96 -0.753948 0.00885972 0
M  V30 18008 H 1787.61 -1.69317 0.707394 0
M  V30 18009 H 1785.99 -3.89225 -0.729399 0
M  V30 18010 H 1787.16 -4.08993 2.12277 0
M  V30 18011 H 1785.48 -3.76605 1.77644 0
M  V30 18012 H 1788.08 -5.32069 -0.529816 0
M  V30 18013 H 1788.42 -3.89283 -1.47528 0
M  V30 18014 H 1788.95 -3.97182 0.221661 0
M  V30 18015 H 1785.69 -6.14227 2.28921 0
M  V30 18016 H 1785.21 -5.96937 0.585375 0
M  V30 18017 H 1786.89 -6.39168 1.00364 0
M  V30 18018 N 1787.02 -0.295795 -1.54799 0
M  V30 18019 C 1787.95 0.616191 -2.20762 0
M  V30 18020 C 1788.97 1.10157 -1.19872 0
M  V30 18021 O 1790.16 1.01992 -1.46492 0
M  V30 18022 C 1787.26 1.85497 -2.83627 0
M  V30 18023 C 1786.43 1.51295 -4.10401 0
M  V30 18024 C 1785.49 2.60633 -4.57118 0
M  V30 18025 O 1784.51 2.25945 -5.22434 0
M  V30 18026 N 1785.72 3.91078 -4.28997 0
M  V30 18027 H 1788.48 0.0515252 -2.99656 0
M  V30 18028 H 1786.04 -0.11777 -1.61471 0
M  V30 18029 H 1788.03 2.57979 -3.11816 0
M  V30 18030 H 1786.6 2.32816 -2.08604 0
M  V30 18031 H 1785.82 0.621 -3.89278 0
M  V30 18032 H 1787.11 1.25974 -4.92958 0
M  V30 18033 H 1786.51 4.22072 -3.76659 0
M  V30 18034 H 1785.07 4.59875 -4.61907 0
M  V30 18035 N 1788.5 1.57583 -0.0234236 0
M  V30 18036 C 1789.78 1.82844 0.694787 0
M  V30 18037 C 1790.16 0.906142 1.90663 0
M  V30 18038 O 1789.51 -0.039621 2.28466 0
M  V30 18039 C 1789.72 3.31921 1.07839 0
M  V30 18040 C 1791.06 3.98252 1.47243 0
M  V30 18041 O 1792.09 3.36383 1.17154 0
M  V30 18042 O 1790.95 5.07284 2.03285 0
M  V30 18043 H 1788.04 0.753723 0.340339 0
M  V30 18044 H 1790.59 1.69624 -0.0506703 0
M  V30 18045 H 1789.36 3.90705 0.215641 0
M  V30 18046 H 1788.98 3.50227 1.8822 0
M  V30 18047 N 1789.98 -0.249655 1.5561 0
M  V30 18048 C 1790.93 -1.31189 1.86477 0
M  V30 18049 C 1791.91 -1.43619 0.725415 0
M  V30 18050 O 1793.11 -1.46907 0.987281 0
M  V30 18051 C 1790.23 -2.66786 2.16056 0
M  V30 18052 C 1789.32 -2.58371 3.36311 0
M  V30 18053 N 1789.71 -2.19587 4.55648 0
M  V30 18054 C 1788.01 -2.8939 3.39366 0
M  V30 18055 C 1788.71 -2.21737 5.3778 0
M  V30 18056 N 1787.69 -2.61131 4.76772 0
M  V30 18057 H 1791.49 -1.00248 2.76275 0
M  V30 18058 H 1789 -0.458283 1.558 0
M  V30 18059 H 1791 -3.43442 2.36333 0
M  V30 18060 H 1789.66 -2.98597 1.27555 0
M  V30 18061 H 1790.67 -1.91176 4.81323 0
M  V30 18062 H 1787.35 -3.25758 2.61128 0
M  V30 18063 H 1788.74 -1.94114 6.43249 0
M  V30 18064 N 1791.46 -1.48941 -0.515198 0
M  V30 18065 C 1792.71 -1.57398 -1.26768 0
M  V30 18066 C 1793.03 -0.256213 -1.93309 0
M  V30 18067 O 1792.3 0.723408 -1.82054 0
M  V30 18068 H 1790.88 -0.579895 -0.470883 0
M  V30 18069 H 1793.54 -1.85489 -0.598315 0
M  V30 18070 H 1792.63 -2.36272 -2.03916 0
M  V30 18071 N 1792.94 0.765193 -1.37777 0
M  V30 18072 C 1794.21 1.51374 -1.23876 0
M  V30 18073 C 1794.59 2.10455 0.164852 0
M  V30 18074 O 1793.94 1.96084 1.17318 0
M  V30 18075 C 1794.15 2.58939 -2.33991 0
M  V30 18076 C 1795.5 3.26162 -2.71852 0
M  V30 18077 O 1796.52 2.69238 -2.33216 0
M  V30 18078 O 1795.38 4.29094 -3.38438 0
M  V30 18079 H 1792.48 0.670749 -0.48376 0
M  V30 18080 H 1795.02 0.801597 -1.49574 0
M  V30 18081 H 1793.79 2.13448 -3.27957 0
M  V30 18082 H 1793.42 3.37747 -2.09793 0
M  V30 18083 N 1794.41 1.22455 0.992094 0
M  V30 18084 C 1795.66 1.04752 1.72833 0
M  V30 18085 C 1795.98 -0.418152 1.90464 0
M  V30 18086 O 1795.25 -1.30072 1.46486 0
M  V30 18087 H 1793.83 0.384626 0.640368 0
M  V30 18088 H 1796.49 1.5398 1.19483 0
M  V30 18089 H 1795.59 1.52601 2.72249 0
M  V30 18090 N 1795.89 -1.18905 1.03437 0
M  V30 18091 C 1797.12 -1.92678 0.753853 0
M  V30 18092 C 1797.53 -1.75814 -0.688111 0
M  V30 18093 O 1796.89 -1.08363 -1.46846 0
M  V30 18094 C 1796.94 -3.44275 1.10258 0
M  V30 18095 O 1796.66 -3.60602 2.48793 0
M  V30 18096 C 1798.16 -4.35159 0.84566 0
M  V30 18097 H 1795.38 -0.611875 0.275408 0
M  V30 18098 H 1797.93 -1.50887 1.38034 0
M  V30 18099 H 1796.08 -3.83878 0.521177 0
M  V30 18100 H 1796.5 -4.54403 2.61951 0
M  V30 18101 H 1797.97 -5.40109 1.13958 0
M  V30 18102 H 1798.45 -4.3865 -0.219767 0
M  V30 18103 H 1799.05 -4.01245 1.41006 0
M  V30 18104 N 1797.37 -0.812977 -1.35013 0
M  V30 18105 C 1798.32 -0.200375 -2.27118 0
M  V30 18106 C 1799.3 0.629541 -1.48073 0
M  V30 18107 O 1800.5 0.485751 -1.70204 0
M  V30 18108 C 1797.62 0.644989 -3.37187 0
M  V30 18109 C 1796.71 -0.195007 -4.23651 0
M  V30 18110 N 1797.1 -1.26116 -4.89825 0
M  V30 18111 C 1795.4 0.0223111 -4.45994 0
M  V30 18112 C 1796.1 -1.77451 -5.53973 0
M  V30 18113 N 1795.08 -1.07995 -5.32764 0
M  V30 18114 H 1798.88 -1.01605 -2.75778 0
M  V30 18115 H 1796.39 -0.654777 -1.48615 0
M  V30 18116 H 1798.39 1.09995 -4.02128 0
M  V30 18117 H 1797.05 1.45894 -2.90078 0
M  V30 18118 H 1798.06 -1.64387 -4.91118 0
M  V30 18119 H 1794.74 0.804889 -4.09668 0
M  V30 18120 H 1796.13 -2.66591 -6.16749 0
M  V30 18121 N 1798.85 1.47045 -0.567045 0
M  V30 18122 C 1800.08 2.06835 -0.0518309 0
M  V30 18123 C 1800.49 1.41823 1.24626 0
M  V30 18124 O 1799.85 0.518102 1.74991 0
M  V30 18125 C 1799.9 3.6124 0.137142 0
M  V30 18126 O 1799.62 4.23817 -1.10955 0
M  V30 18127 C 1801.12 4.37921 0.688511 0
M  V30 18128 H 1798.34 0.669111 -0.0503138 0
M  V30 18129 H 1800.88 1.88906 -0.783258 0
M  V30 18130 H 1799.04 3.7865 0.818733 0
M  V30 18131 H 1799.45 5.16484 -0.913475 0
M  V30 18132 H 1800.93 5.46603 0.769984 0
M  V30 18133 H 1801.4 4.0488 1.70201 0
M  V30 18134 H 1802.01 4.25279 0.0423004 0
M  V30 18135 N 1800.33 0.304 1.5464 0
M  V30 18136 C 1801.57 -0.305185 1.99378 0
M  V30 18137 C 1801.89 -1.54773 1.19602 0
M  V30 18138 O 1803.09 -2.23169 1.54621 0
M  V30 18139 C 1801.55 -0.594303 3.54959 0
M  V30 18140 C 1801.16 0.630078 4.43547 0
M  V30 18141 C 1802.9 -1.16452 4.08215 0
M  V30 18142 C 1800.81 0.313946 5.90566 0
M  V30 18143 H 1799.74 -0.11781 0.744739 0
M  V30 18144 H 1802.39 0.413174 1.78788 0
M  V30 18145 H 1800.77 -1.37233 3.71461 0
M  V30 18146 H 1801.95 1.40619 4.3882 0
M  V30 18147 H 1800.26 1.11914 4.01079 0
M  V30 18148 H 1802.86 -1.41534 5.15628 0
M  V30 18149 H 1803.2 -2.10773 3.58999 0
M  V30 18150 H 1803.73 -0.448123 3.95268 0
M  V30 18151 H 1800.47 1.2258 6.43937 0
M  V30 18152 H 1799.99 -0.424841 5.98294 0
M  V30 18153 H 1801.67 -0.083395 6.46946 0
M  V30 18154 N 1801.8 -1.57568 0.0317802 0
M  V30 18155 C 1803.03 -1.96212 -0.656401 0
M  V30 18156 C 1803.45 -0.908406 -1.6551 0
M  V30 18157 O 1802.8 0.109502 -1.82171 0
M  V30 18158 C 1802.85 -3.34924 -1.36044 0
M  V30 18159 O 1802.58 -4.36254 -0.401757 0
M  V30 18160 C 1804.08 -3.88215 -2.14019 0
M  V30 18161 H 1801.3 -0.646181 -0.180808 0
M  V30 18162 H 1803.84 -2.04291 0.0923341 0
M  V30 18163 H 1802 -3.28055 -2.06055 0
M  V30 18164 H 1802.41 -5.16686 -0.902005 0
M  V30 18165 H 1803.88 -4.87609 -2.5873 0
M  V30 18166 H 1804.36 -3.22602 -2.98034 0
M  V30 18167 H 1804.97 -3.98361 -1.4896 0
M  V30 18168 N 1803.28 0.241399 -1.5574 0
M  V30 18169 C 1804.51 0.984645 -1.81627 0
M  V30 18170 C 1804.92 1.79234 -0.605959 0
M  V30 18171 O 1804.26 1.78479 0.434841 0
M  V30 18172 C 1804.33 1.96647 -3.00949 0
M  V30 18173 C 1803.99 1.34519 -4.36754 0
M  V30 18174 C 1804.99 0.744925 -5.14536 0
M  V30 18175 C 1802.67 1.3629 -4.83457 0
M  V30 18176 C 1804.67 0.170657 -6.37171 0
M  V30 18177 C 1802.35 0.784784 -6.0604 0
M  V30 18178 C 1803.35 0.189694 -6.82737 0
M  V30 18179 O 1803.04 -0.379483 -8.03004 0
M  V30 18180 H 1802.77 0.295118 -0.608179 0
M  V30 18181 H 1805.32 0.267851 -2.03646 0
M  V30 18182 H 1803.55 2.72172 -2.74699 0
M  V30 18183 H 1805.24 2.5736 -3.1388 0
M  V30 18184 H 1806.01 0.723706 -4.7957 0
M  V30 18185 H 1801.89 1.81548 -4.23747 0
M  V30 18186 H 1805.43 -0.294459 -6.96978 0
M  V30 18187 H 1801.33 0.803348 -6.40482 0
M  V30 18188 H 1802.1 -0.271879 -8.18048 0
M  V30 18189 N 1804.76 1.49212 0.507292 0
M  V30 18190 C 1806.01 1.5763 1.2584 0
M  V30 18191 C 1806.32 0.265343 1.93792 0
M  V30 18192 O 1807.53 0.227996 2.70541 0
M  V30 18193 C 1805.98 2.78093 2.28457 0
M  V30 18194 C 1805.59 4.15922 1.66472 0
M  V30 18195 C 1807.34 2.95837 3.04435 0
M  V30 18196 C 1805.24 5.27616 2.67162 0
M  V30 18197 H 1804.17 0.586896 0.47336 0
M  V30 18198 H 1806.82 1.75588 0.533018 0
M  V30 18199 H 1805.21 2.53616 3.0413 0
M  V30 18200 H 1806.38 4.50511 0.968337 0
M  V30 18201 H 1804.7 4.03484 1.02906 0
M  V30 18202 H 1807.29 3.76452 3.79721 0
M  V30 18203 H 1807.64 2.06156 3.61671 0
M  V30 18204 H 1808.17 3.20323 2.35877 0
M  V30 18205 H 1804.91 6.19336 2.14716 0
M  V30 18206 H 1804.43 4.97488 3.3506 0
M  V30 18207 H 1806.11 5.56686 3.29712 0
M  V30 18208 N 1806.24 -0.757876 1.38181 0
M  V30 18209 C 1807.65 -1.33496 1.30521 0
M  V30 18210 C 1808 -1.96157 -0.0409405 0
M  V30 18211 O 1807.13 -1.94775 -0.942957 0
M  V30 18212 C 1807.72 -2.42725 2.36369 0
M  V30 18213 C 1806.28 -2.96165 2.323 0
M  V30 18214 C 1805.43 -1.69505 2.19461 0
M  V30 18215 H 1808.38 -0.557075 1.48601 0
M  V30 18216 H 1808.4 -3.22556 2.01836 0
M  V30 18217 H 1807.91 -1.97089 3.34331 0
M  V30 18218 H 1806.01 -3.4614 1.37904 0
M  V30 18219 H 1806.12 -3.50836 3.26269 0
M  V30 18220 H 1804.49 -1.92967 1.66241 0
M  V30 18221 H 1805.27 -1.25954 3.1936 0
M  V30 18222 N 1807.72 -1.22979 -0.985586 0
M  V30 18223 C 1808.65 -1.03073 -2.09519 0
M  V30 18224 C 1809.63 0.0507025 -1.70024 0
M  V30 18225 O 1810.81 -0.112938 -1.93871 0
M  V30 18226 C 1807.94 -0.615578 -3.41801 0
M  V30 18227 C 1806.9 -1.64377 -3.95176 0
M  V30 18228 C 1806.22 -1.08422 -5.23592 0
M  V30 18229 C 1807.52 -3.03555 -4.25032 0
M  V30 18230 H 1809.22 -1.95882 -2.2643 0
M  V30 18231 H 1806.76 -0.943206 -1.0881 0
M  V30 18232 H 1808.72 -0.463394 -4.18844 0
M  V30 18233 H 1807.44 0.348185 -3.24739 0
M  V30 18234 H 1806.1 -1.78386 -3.20272 0
M  V30 18235 H 1805.75 -0.111597 -5.02876 0
M  V30 18236 H 1805.45 -1.77118 -5.6027 0
M  V30 18237 H 1806.97 -0.94378 -6.03262 0
M  V30 18238 H 1808.38 -2.92878 -4.92844 0
M  V30 18239 H 1806.78 -3.69441 -4.72899 0
M  V30 18240 H 1807.85 -3.52937 -3.32511 0
M  V30 18241 N 1809.19 1.18355 -1.04066 0
M  V30 18242 C 1810.43 1.90027 -0.752928 0
M  V30 18243 C 1810.8 1.78534 0.706379 0
M  V30 18244 O 1812 2.44914 1.10772 0
M  V30 18245 C 1810.27 3.36432 -1.20617 0
M  V30 18246 S 1811.83 4.26198 -1.04408 0
M  V30 18247 H 1808.65 0.656184 -0.273759 0
M  V30 18248 H 1811.25 1.43013 -1.33295 0
M  V30 18249 H 1809.95 3.42327 -2.26364 0
M  V30 18250 H 1809.48 3.88485 -0.619939 0
M  V30 18251 H 1811.5 4.96185 0.0384827 0
M  V30 18252 N 1810.67 0.820125 1.3458 0
M  V30 18253 C 1812.08 0.466064 1.80789 0
M  V30 18254 C 1812.43 -1.01327 1.6801 0
M  V30 18255 O 1811.56 -1.78835 1.21849 0
M  V30 18256 C 1812.15 0.839192 3.28242 0
M  V30 18257 C 1810.71 0.53754 3.72542 0
M  V30 18258 C 1809.86 1.0576 2.5634 0
M  V30 18259 H 1812.81 1.01055 1.22366 0
M  V30 18260 H 1812.83 0.141897 3.80235 0
M  V30 18261 H 1812.34 1.91592 3.37512 0
M  V30 18262 H 1810.45 -0.529895 3.68813 0
M  V30 18263 H 1810.56 1.07964 4.66777 0
M  V30 18264 H 1808.92 0.479275 2.5015 0
M  V30 18265 H 1809.71 2.14072 2.68381 0
M  V30 18266 N 1812.15 -1.46743 0.574835 0
M  V30 18267 C 1813.4 -2.02019 0.057302 0
M  V30 18268 C 1813.72 -1.44965 -1.30423 0
M  V30 18269 O 1812.99 -0.631377 -1.85447 0
M  V30 18270 H 1811.57 -0.746778 0.018193 0
M  V30 18271 H 1814.23 -1.7994 0.748834 0
M  V30 18272 H 1813.33 -3.12095 -0.0176114 0
M  V30 18273 N 1813.63 -0.312197 -1.54477 0
M  V30 18274 C 1814.59 0.54612 -2.22599 0
M  V30 18275 C 1815.59 1.05252 -1.21568 0
M  V30 18276 O 1816.78 0.946756 -1.46226 0
M  V30 18277 C 1813.91 1.75733 -2.92114 0
M  V30 18278 H 1815.11 -0.0492216 -2.9986 0
M  V30 18279 H 1812.66 -0.063149 -1.56172 0
M  V30 18280 H 1813.39 2.39221 -2.18961 0
M  V30 18281 H 1813.18 1.40175 -3.66188 0
M  V30 18282 H 1814.67 2.36685 -3.44049 0
M  V30 18283 N 1815.11 1.57549 -0.040136 0
M  V30 18284 C 1816.34 1.96272 0.645049 0
M  V30 18285 C 1816.74 0.915804 1.65559 0
M  V30 18286 O 1816.09 -0.109666 1.83372 0
M  V30 18287 C 1816.15 3.31187 1.3984 0
M  V30 18288 C 1815.81 4.53739 0.544953 0
M  V30 18289 C 1816.81 5.19573 -0.184369 0
M  V30 18290 C 1814.5 5.0001 0.479119 0
M  V30 18291 C 1816.49 6.30006 -0.968081 0
M  V30 18292 C 1814.18 6.10322 -0.30829 0
M  V30 18293 C 1815.17 6.7518 -1.03059 0
M  V30 18294 O 1814.86 7.83373 -1.80507 0
M  V30 18295 H 1814.59 0.651051 0.181958 0
M  V30 18296 H 1817.15 2.05159 -0.0995179 0
M  V30 18297 H 1815.38 3.18823 2.18835 0
M  V30 18298 H 1817.07 3.54735 1.97276 0
M  V30 18299 H 1817.83 4.84789 -0.142908 0
M  V30 18300 H 1813.71 4.49325 1.0309 0
M  V30 18301 H 1817.26 6.80562 -1.53237 0
M  V30 18302 H 1813.15 6.44543 -0.351428 0
M  V30 18303 H 1813.92 8.00094 -1.72601 0
M  V30 18304 N 1816.58 -0.233136 1.55866 0
M  V30 18305 C 1817.81 -0.976415 1.82411 0
M  V30 18306 C 1818.23 -1.78409 0.617724 0
M  V30 18307 O 1817.58 -1.77749 -0.413709 0
M  V30 18308 C 1817.64 -1.90328 3.07339 0
M  V30 18309 O 1817.36 -1.12828 4.23322 0
M  V30 18310 C 1818.86 -2.76142 3.46786 0
M  V30 18311 H 1816.08 -0.2867 0.606666 0
M  V30 18312 H 1818.62 -0.251863 2.02943 0
M  V30 18313 H 1816.78 -2.58193 2.88816 0
M  V30 18314 H 1817.19 -1.75643 4.94216 0
M  V30 18315 H 1818.66 -3.36901 4.37266 0
M  V30 18316 H 1819.14 -3.47953 2.68003 0
M  V30 18317 H 1819.75 -2.13708 3.67708 0
M  V30 18318 N 1818.06 -1.49479 -0.499372 0
M  V30 18319 C 1819.31 -1.59284 -1.25525 0
M  V30 18320 C 1819.64 -0.27941 -1.92179 0
M  V30 18321 O 1818.92 0.717142 -1.80796 0
M  V30 18322 C 1819.2 -2.75323 -2.32098 0
M  V30 18323 C 1819.05 -4.16464 -1.69934 0
M  V30 18324 C 1820.37 -2.86998 -3.33646 0
M  V30 18325 H 1817.49 -0.579768 -0.455015 0
M  V30 18326 H 1820.13 -1.81769 -0.553165 0
M  V30 18327 H 1818.28 -2.56282 -2.91979 0
M  V30 18328 H 1819.96 -4.47026 -1.13867 0
M  V30 18329 H 1818.2 -4.22036 -1.0034 0
M  V30 18330 H 1818.87 -4.93534 -2.47242 0
M  V30 18331 H 1821.35 -3.04337 -2.83757 0
M  V30 18332 H 1820.22 -3.69865 -4.05575 0
M  V30 18333 H 1820.48 -1.96419 -3.9607 0
M  V30 18334 N 1819.54 0.750537 -1.38581 0
M  V30 18335 C 1820.77 1.53978 -1.38196 0
M  V30 18336 C 1821.18 1.8878 0.0274976 0
M  V30 18337 O 1820.54 1.52997 0.994894 0
M  V30 18338 C 1820.59 2.83702 -2.24043 0
M  V30 18339 O 1820.31 2.50384 -3.59499 0
M  V30 18340 C 1821.81 3.77823 -2.31872 0
M  V30 18341 H 1819.03 0.476345 -0.472585 0
M  V30 18342 H 1821.58 0.928634 -1.82199 0
M  V30 18343 H 1819.73 3.41187 -1.83494 0
M  V30 18344 H 1820.15 3.33605 -4.04732 0
M  V30 18345 H 1821.62 4.65788 -2.96218 0
M  V30 18346 H 1822.1 4.18474 -1.33327 0
M  V30 18347 H 1822.7 3.26262 -2.72824 0
M  V30 18348 N 1821.02 1.235 0.979051 0
M  V30 18349 C 1822.27 1.06197 1.71479 0
M  V30 18350 C 1822.58 -0.401066 1.91444 0
M  V30 18351 O 1823.79 -0.69406 2.62479 0
M  V30 18352 C 1822.24 1.85189 3.08598 0
M  V30 18353 C 1821.85 3.35831 2.96516 0
M  V30 18354 C 1823.6 1.76379 3.86122 0
M  V30 18355 C 1821.5 4.0721 4.28875 0
M  V30 18356 H 1820.43 0.393779 0.643004 0
M  V30 18357 H 1823.08 1.47479 1.09188 0
M  V30 18358 H 1821.47 1.36714 3.71652 0
M  V30 18359 H 1822.64 3.91803 2.42543 0
M  V30 18360 H 1820.95 3.45469 2.32466 0
M  V30 18361 H 1823.55 2.2702 4.84114 0
M  V30 18362 H 1823.89 0.726826 4.09906 0
M  V30 18363 H 1824.43 2.22473 3.29773 0
M  V30 18364 H 1821.17 5.11218 4.10288 0
M  V30 18365 H 1820.69 3.56025 4.82707 0
M  V30 18366 H 1822.37 4.13579 4.97555 0
M  V30 18367 N 1822.5 -1.17802 1.04693 0
M  V30 18368 C 1823.44 -2.21648 0.643478 0
M  V30 18369 C 1824.41 -1.6233 -0.351858 0
M  V30 18370 O 1825.6 -1.89228 -0.244414 0
M  V30 18371 C 1822.74 -3.45095 0.019145 0
M  V30 18372 C 1821.85 -4.18725 1.06271 0
M  V30 18373 C 1820.99 -5.29644 0.406224 0
M  V30 18374 C 1820.03 -5.95055 1.43444 0
M  V30 18375 N 1819.16 -6.97499 0.802482 0
M  V30 18376 H 1824 -2.55513 1.53352 0
M  V30 18377 H 1821.54 -1.25518 0.767051 0
M  V30 18378 H 1823.5 -4.15642 -0.36023 0
M  V30 18379 H 1822.13 -3.1183 -0.834386 0
M  V30 18380 H 1821.18 -3.46943 1.55996 0
M  V30 18381 H 1822.49 -4.63486 1.84342 0
M  V30 18382 H 1821.65 -6.06694 -0.027012 0
M  V30 18383 H 1820.39 -4.86003 -0.406525 0
M  V30 18384 H 1819.39 -5.1674 1.87775 0
M  V30 18385 H 1820.62 -6.40778 2.249 0
M  V30 18386 H 1818.56 -6.55999 0.010153 0
M  V30 18387 H 1818.48 -7.40545 1.52081 0
M  V30 18388 H 1819.75 -7.78504 0.393852 0
M  V30 18389 N 1823.98 -0.827251 -1.34143 0
M  V30 18390 C 1825.21 -0.429878 -2.02078 0
M  V30 18391 C 1825.61 0.970141 -1.62434 0
M  V30 18392 O 1824.96 1.63997 -0.827692 0
M  V30 18393 C 1825.02 -0.457493 -3.56577 0
M  V30 18394 C 1824.68 -1.8116 -4.19559 0
M  V30 18395 C 1825.68 -2.7731 -4.39767 0
M  V30 18396 C 1823.36 -2.10126 -4.56237 0
M  V30 18397 C 1825.36 -4.00596 -4.95784 0
M  V30 18398 C 1823.05 -3.33672 -5.11963 0
M  V30 18399 C 1824.04 -4.28724 -5.31681 0
M  V30 18400 O 1823.73 -5.50086 -5.86226 0
M  V30 18401 H 1823.46 -0.170259 -0.654208 0
M  V30 18402 H 1826.02 -1.11808 -1.72303 0
M  V30 18403 H 1824.25 0.287424 -3.8563 0
M  V30 18404 H 1825.94 -0.0795677 -4.05822 0
M  V30 18405 H 1826.7 -2.56228 -4.11791 0
M  V30 18406 H 1822.58 -1.36941 -4.40191 0
M  V30 18407 H 1826.13 -4.74798 -5.11089 0
M  V30 18408 H 1822.02 -3.54615 -5.39369 0
M  V30 18409 H 1822.79 -5.51665 -6.04655 0
M  V30 18410 N 1825.45 1.46436 -0.582609 0
M  V30 18411 C 1826.7 2.01986 -0.0680147 0
M  V30 18412 C 1827.02 1.45654 1.29653 0
M  V30 18413 O 1826.29 0.641203 1.85109 0
M  V30 18414 H 1824.87 0.746671 -0.022153 0
M  V30 18415 H 1827.53 1.79541 -0.758367 0
M  V30 18416 H 1826.63 3.121 0.00106001 0
M  V30 18417 N 1826.93 0.320385 1.54309 0
M  V30 18418 C 1828.18 -0.282584 2.00115 0
M  V30 18419 C 1828.5 -1.52904 1.21018 0
M  V30 18420 O 1827.77 -1.93413 0.311163 0
M  V30 18421 H 1826.35 -0.107406 0.739238 0
M  V30 18422 H 1829.01 0.436196 1.89956 0
M  V30 18423 H 1828.11 -0.541189 3.07372 0
M  V30 18424 N 1828.41 -1.57525 0.0484906 0
M  V30 18425 C 1829.34 -2.08313 -0.955941 0
M  V30 18426 C 1830.35 -1.01042 -1.2765 0
M  V30 18427 O 1831.54 -1.28615 -1.23776 0
M  V30 18428 C 1828.64 -2.509 -2.27821 0
M  V30 18429 C 1827.82 -3.81476 -2.13997 0
M  V30 18430 C 1826.88 -4.10404 -3.29325 0
M  V30 18431 O 1825.9 -4.80366 -3.05348 0
M  V30 18432 N 1827.1 -3.62104 -4.53719 0
M  V30 18433 H 1829.87 -2.95111 -0.522472 0
M  V30 18434 H 1827.43 -1.61312 -0.137816 0
M  V30 18435 H 1829.42 -2.6733 -3.03837 0
M  V30 18436 H 1827.99 -1.69365 -2.62744 0
M  V30 18437 H 1827.21 -3.74654 -1.22589 0
M  V30 18438 H 1828.5 -4.6699 -2.01985 0
M  V30 18439 H 1827.9 -3.05541 -4.7609 0
M  V30 18440 H 1826.45 -3.83778 -5.26838 0
M  V30 18441 N 1829.89 0.224867 -1.55988 0
M  V30 18442 C 1831.3 0.792138 -1.69062 0
M  V30 18443 C 1831.65 1.85123 -0.649908 0
M  V30 18444 O 1830.77 2.15477 0.199614 0
M  V30 18445 C 1831.37 1.44361 -3.06505 0
M  V30 18446 C 1829.93 1.95831 -3.21446 0
M  V30 18447 C 1829.08 0.81728 -2.64983 0
M  V30 18448 H 1832.03 0.000270833 -1.587 0
M  V30 18449 H 1832.05 2.31233 -3.02178 0
M  V30 18450 H 1831.56 0.672544 -3.82228 0
M  V30 18451 H 1829.66 2.75749 -2.50586 0
M  V30 18452 H 1829.77 2.14056 -4.28622 0
M  V30 18453 H 1828.14 1.22371 -2.23377 0
M  V30 18454 H 1828.92 0.058944 -3.43249 0
M  V30 18455 N 1831.37 1.49742 0.491438 0
M  V30 18456 C 1832.61 1.59947 1.24679 0
M  V30 18457 C 1832.94 0.289598 1.92029 0
M  V30 18458 O 1832.22 -0.707544 1.81174 0
M  V30 18459 C 1832.5 2.7655 2.30634 0
M  V30 18460 C 1832.36 4.1736 1.67723 0
M  V30 18461 C 1833.67 2.88764 3.3212 0
M  V30 18462 H 1830.79 0.582173 0.451934 0
M  V30 18463 H 1833.44 1.8206 0.543517 0
M  V30 18464 H 1831.59 2.57826 2.90616 0
M  V30 18465 H 1833.26 4.47623 1.11495 0
M  V30 18466 H 1831.5 4.22562 0.981 0
M  V30 18467 H 1832.17 4.94838 2.44621 0
M  V30 18468 H 1834.65 3.05838 2.82139 0
M  V30 18469 H 1833.52 3.7201 4.03608 0
M  V30 18470 H 1833.78 1.98517 3.95023 0
M  V30 18471 N 1832.84 -0.743177 1.38977 0
M  V30 18472 C 1834.26 -1.32104 1.3193 0
M  V30 18473 C 1834.61 -1.9619 -0.0201331 0
M  V30 18474 O 1833.73 -1.95764 -0.922245 0
M  V30 18475 C 1834.33 -2.40204 2.3893 0
M  V30 18476 C 1832.89 -2.93684 2.35428 0
M  V30 18477 C 1832.03 -1.67168 2.21247 0
M  V30 18478 H 1834.98 -0.541283 1.49184 0
M  V30 18479 H 1835 -3.20397 2.05246 0
M  V30 18480 H 1834.52 -1.93532 3.36403 0
M  V30 18481 H 1832.62 -3.44658 1.41568 0
M  V30 18482 H 1832.73 -3.47355 3.29971 0
M  V30 18483 H 1831.09 -1.91193 1.68278 0
M  V30 18484 H 1831.88 -1.22559 3.20678 0
M  V30 18485 N 1834.32 -1.24018 -0.972487 0
M  V30 18486 C 1835.27 -1.02594 -2.08752 0
M  V30 18487 C 1836.26 0.0376128 -1.69358 0
M  V30 18488 O 1837.47 -0.116549 -1.79622 0
M  V30 18489 H 1833.85 -0.314713 -0.682979 0
M  V30 18490 H 1835.82 -1.97163 -2.23985 0
M  V30 18491 C 1834.57 -0.642298 -3.41716 0
M  V30 18492 H 1833.89 -1.45243 -3.72484 0
M  V30 18493 H 1835.33 -0.531964 -4.2065 0
M  V30 18494 C 1833.79 0.650173 -3.30567 0
M  V30 18495 O 1834.32 1.6972 -3.64085 0
M  V30 18496 N 1832.52 0.629085 -2.83709 0
M  V30 18497 H 1832.07 -0.223302 -2.5663 0
M  V30 18498 H 1832.03 1.49407 -2.76631 0
M  V30 18499 N 1835.8 1.17245 -1.05316 0
M  V30 18500 C 1837.05 1.87536 -0.76398 0
M  V30 18501 C 1837.38 1.81115 0.709049 0
M  V30 18502 O 1836.63 1.21473 1.53437 0
M  V30 18503 C 1836.93 3.36958 -1.19138 0
M  V30 18504 C 1836.6 3.63581 -2.66683 0
M  V30 18505 C 1835.26 3.70556 -3.06988 0
M  V30 18506 C 1837.61 3.74954 -3.62021 0
M  V30 18507 C 1834.94 3.86396 -4.41492 0
M  V30 18508 C 1837.29 3.92313 -4.9626 0
M  V30 18509 C 1835.95 3.97527 -5.36217 0
M  V30 18510 H 1835.22 0.686241 -0.27956 0
M  V30 18511 H 1837.87 1.38694 -1.32047 0
M  V30 18512 H 1836.18 3.87865 -0.55391 0
M  V30 18513 H 1837.87 3.8971 -0.944815 0
M  V30 18514 H 1834.46 3.58778 -2.34471 0
M  V30 18515 H 1838.65 3.68885 -3.3202 0
M  V30 18516 H 1833.9 3.88681 -4.7195 0
M  V30 18517 H 1838.08 4.00055 -5.70026 0
M  V30 18518 H 1835.7 4.09553 -6.40445 0
M  V30 18519 N 1837.28 0.834353 1.33702 0
M  V30 18520 C 1838.69 0.485213 1.80285 0
M  V30 18521 C 1839.04 -0.995397 1.69075 0
M  V30 18522 O 1838.17 -1.77532 1.23738 0
M  V30 18523 C 1838.76 0.873959 3.27334 0
M  V30 18524 C 1837.32 0.577023 3.71951 0
M  V30 18525 C 1836.47 1.08473 2.55204 0
M  V30 18526 H 1839.42 1.02347 1.21288 0
M  V30 18527 H 1839.44 0.182218 3.80063 0
M  V30 18528 H 1838.95 1.95161 3.35461 0
M  V30 18529 H 1837.05 -0.490747 3.69354 0
M  V30 18530 H 1837.16 1.12909 4.65605 0
M  V30 18531 H 1835.53 0.505779 2.49628 0
M  V30 18532 H 1836.31 2.16906 2.66095 0
M  V30 18533 N 1838.76 -1.46125 0.590367 0
M  V30 18534 C 1839.98 -2.07234 0.0828625 0
M  V30 18535 C 1840.41 -1.43498 -1.21614 0
M  V30 18536 O 1839.76 -0.521488 -1.73638 0
M  V30 18537 C 1839.81 -3.60548 -0.0614302 0
M  V30 18538 O 1838.92 -3.97012 -1.11603 0
M  V30 18539 H 1838.26 -0.660685 0.0662654 0
M  V30 18540 H 1840.79 -1.87646 0.815486 0
M  V30 18541 H 1840.8 -4.07137 -0.265161 0
M  V30 18542 H 1839.47 -4.06328 0.887164 0
M  V30 18543 H 1838.05 -3.6212 -0.890146 0
M  V30 18544 N 1840.23 -0.328564 -1.54137 0
M  V30 18545 C 1841.18 0.535112 -2.24511 0
M  V30 18546 C 1842.15 1.10765 -1.23776 0
M  V30 18547 O 1843.34 1.14706 -1.52471 0
M  V30 18548 C 1840.48 1.68765 -3.01019 0
M  V30 18549 C 1839.59 1.14387 -4.16581 0
M  V30 18550 C 1838.72 2.26249 -4.80609 0
M  V30 18551 C 1837.76 1.69146 -5.88265 0
M  V30 18552 N 1836.9 2.74691 -6.46134 0
M  V30 18553 H 1841.74 -0.0715726 -2.97914 0
M  V30 18554 H 1839.28 -0.0470933 -1.47025 0
M  V30 18555 H 1841.24 2.36594 -3.43626 0
M  V30 18556 H 1839.87 2.26555 -2.29941 0
M  V30 18557 H 1838.92 0.356974 -3.78721 0
M  V30 18558 H 1840.23 0.686063 -4.94059 0
M  V30 18559 H 1839.38 3.01973 -5.2621 0
M  V30 18560 H 1838.12 2.75368 -4.02522 0
M  V30 18561 H 1837.13 0.919217 -5.42061 0
M  V30 18562 H 1838.35 1.20897 -6.68252 0
M  V30 18563 H 1836.3 3.23091 -5.70918 0
M  V30 18564 H 1836.22 2.33488 -7.19041 0
M  V30 18565 H 1837.48 3.50228 -6.96391 0
M  V30 18566 N 1841.71 1.57497 -0.0568439 0
M  V30 18567 C 1842.64 2.14892 0.913427 0
M  V30 18568 C 1843.62 1.07205 1.32065 0
M  V30 18569 O 1844.81 1.35172 1.39435 0
M  V30 18570 C 1841.94 2.69849 2.18629 0
M  V30 18571 C 1840.89 3.8257 1.91896 0
M  V30 18572 C 1840.22 4.24068 3.25685 0
M  V30 18573 C 1841.52 5.07463 1.23606 0
M  V30 18574 H 1843.21 2.96218 0.435347 0
M  V30 18575 H 1840.76 1.4249 0.20796 0
M  V30 18576 H 1842.71 3.08643 2.86911 0
M  V30 18577 H 1841.44 1.85723 2.68653 0
M  V30 18578 H 1840.09 3.44258 1.26024 0
M  V30 18579 H 1839.74 3.36884 3.73521 0
M  V30 18580 H 1839.44 5.00043 3.08594 0
M  V30 18581 H 1840.97 4.65466 3.95189 0
M  V30 18582 H 1842.38 5.43667 1.81931 0
M  V30 18583 H 1840.78 5.88619 1.16823 0
M  V30 18584 H 1841.85 4.84432 0.212918 0
M  V30 18585 N 1843.19 -0.216591 1.56105 0
M  V30 18586 C 1844.12 -1.29202 1.89313 0
M  V30 18587 C 1845.14 -1.42798 0.781832 0
M  V30 18588 O 1846.32 -1.43607 1.06016 0
M  V30 18589 C 1843.42 -2.66701 2.09102 0
M  V30 18590 C 1842.6 -2.74989 3.40147 0
M  V30 18591 C 1841.66 -3.93536 3.49308 0
M  V30 18592 O 1840.68 -3.81642 4.22301 0
M  V30 18593 N 1841.88 -5.08059 2.80814 0
M  V30 18594 H 1844.65 -1.01038 2.82155 0
M  V30 18595 H 1842.21 -0.406611 1.56711 0
M  V30 18596 H 1844.2 -3.44396 2.12541 0
M  V30 18597 H 1842.77 -2.87443 1.22862 0
M  V30 18598 H 1841.99 -1.83733 3.48763 0
M  V30 18599 H 1843.28 -2.775 4.26464 0
M  V30 18600 H 1842.68 -5.20618 2.21299 0
M  V30 18601 H 1841.24 -5.83778 2.89908 0
M  V30 18602 N 1844.67 -1.5 -0.48349 0
M  V30 18603 C 1845.91 -1.60606 -1.23829 0
M  V30 18604 C 1846.25 -0.299778 -1.91872 0
M  V30 18605 O 1845.52 0.697925 -1.81547 0
M  V30 18606 C 1845.81 -2.77769 -2.29165 0
M  V30 18607 C 1845.66 -4.18243 -1.65507 0
M  V30 18608 C 1846.98 -2.90521 -3.30584 0
M  V30 18609 H 1844.1 -0.584561 -0.44884 0
M  V30 18610 H 1846.74 -1.82346 -0.533855 0
M  V30 18611 H 1844.89 -2.59364 -2.89245 0
M  V30 18612 H 1846.56 -4.48208 -1.09119 0
M  V30 18613 H 1844.8 -4.23077 -0.958577 0
M  V30 18614 H 1845.47 -4.96128 -2.41994 0
M  V30 18615 H 1847.95 -3.0733 -2.80513 0
M  V30 18616 H 1846.83 -3.74146 -4.0163 0
M  V30 18617 H 1847.09 -2.00609 -3.93965 0
M  V30 18618 N 1846.15 0.735796 -1.39369 0
M  V30 18619 C 1847.06 1.88026 -1.40298 0
M  V30 18620 C 1848.07 1.71431 -0.297878 0
M  V30 18621 O 1849.25 1.94047 -0.539219 0
M  V30 18622 C 1846.31 3.23607 -1.24415 0
M  V30 18623 C 1845.37 3.52601 -2.4489 0
M  V30 18624 C 1844.61 4.81714 -2.29755 0
M  V30 18625 O 1844.83 5.55374 -1.30061 0
M  V30 18626 O 1843.76 5.10588 -3.18722 0
M  V30 18627 H 1847.59 1.90197 -2.36767 0
M  V30 18628 H 1845.18 0.883504 -1.20476 0
M  V30 18629 H 1847.06 4.04633 -1.17688 0
M  V30 18630 H 1845.73 3.22208 -0.310409 0
M  V30 18631 H 1844.64 2.71665 -2.57194 0
M  V30 18632 H 1845.97 3.58778 -3.36955 0
M  V30 18633 N 1847.63 1.24532 0.965897 0
M  V30 18634 C 1849.04 1.07886 1.52373 0
M  V30 18635 C 1849.39 -0.349136 1.93069 0
M  V30 18636 O 1848.51 -1.23774 1.77508 0
M  V30 18637 C 1849.11 1.95224 2.76899 0
M  V30 18638 C 1847.67 1.82796 3.29033 0
M  V30 18639 C 1846.81 1.9005 2.01931 0
M  V30 18640 H 1849.76 1.37982 0.783997 0
M  V30 18641 H 1849.79 1.48558 3.50301 0
M  V30 18642 H 1849.3 2.99148 2.47249 0
M  V30 18643 H 1847.4 0.817115 3.6353 0
M  V30 18644 H 1847.51 2.66989 3.97811 0
M  V30 18645 H 1845.88 1.338 2.16725 0
M  V30 18646 H 1846.66 2.95558 1.74644 0
M  V30 18647 N 1849.1 -1.16685 1.05936 0
M  V30 18648 C 1850.07 -2.19155 0.671098 0
M  V30 18649 C 1851.07 -1.5832 -0.281305 0
M  V30 18650 O 1852.26 -1.74082 -0.0641708 0
M  V30 18651 C 1849.39 -3.40897 -0.0131101 0
M  V30 18652 H 1850.58 -2.55019 1.57815 0
M  V30 18653 H 1848.13 -1.30897 0.854147 0
M  V30 18654 H 1848.87 -3.10587 -0.933077 0
M  V30 18655 H 1848.65 -3.86304 0.671687 0
M  V30 18656 H 1850.14 -4.16722 -0.270606 0
M  V30 18657 N 1850.58 -0.841432 -1.33258 0
M  V30 18658 C 1851.83 -0.439027 -1.97991 0
M  V30 18659 C 1852.16 0.999767 -1.66488 0
M  V30 18660 O 1851.44 1.69938 -0.94612 0
M  V30 18661 C 1851.72 -0.663137 -3.53941 0
M  V30 18662 C 1851.57 -2.14939 -3.95122 0
M  V30 18663 C 1852.89 -0.11094 -4.3996 0
M  V30 18664 H 1850.01 -0.160987 -0.719203 0
M  V30 18665 H 1852.65 -1.05742 -1.57856 0
M  V30 18666 H 1850.8 -0.136765 -3.88259 0
M  V30 18667 H 1852.47 -2.74082 -3.71048 0
M  V30 18668 H 1850.72 -2.63293 -3.4476 0
M  V30 18669 H 1851.39 -2.25694 -5.03752 0
M  V30 18670 H 1853.86 -0.560898 -4.12302 0
M  V30 18671 H 1852.74 -0.297416 -5.48094 0
M  V30 18672 H 1853 0.985446 -4.30977 0
M  V30 18673 N 1852.06 1.4581 -0.598108 0
M  V30 18674 C 1853.34 1.95588 -0.0220376 0
M  V30 18675 C 1853.72 1.54066 1.44316 0
M  V30 18676 O 1853.06 0.798663 2.14088 0
M  V30 18677 C 1853.27 3.48366 -0.210204 0
M  V30 18678 C 1854.62 4.24513 -0.0860474 0
M  V30 18679 O 1855.65 3.55925 -0.139833 0
M  V30 18680 O 1854.51 5.46488 0.0367961 0
M  V30 18681 H 1851.6 0.825977 0.0411123 0
M  V30 18682 H 1854.15 1.56021 -0.667506 0
M  V30 18683 H 1852.92 3.71526 -1.22818 0
M  V30 18684 H 1852.54 3.94801 0.470974 0
M  V30 18685 N 1853.54 0.336733 1.53961 0
M  V30 18686 C 1854.77 -0.263446 2.05216 0
M  V30 18687 C 1855.18 -1.44752 1.21212 0
M  V30 18688 O 1854.54 -1.80837 0.245844 0
M  V30 18689 C 1854.59 -0.685127 3.54948 0
M  V30 18690 O 1854.31 0.451854 4.35764 0
M  V30 18691 C 1855.81 -1.34674 4.22348 0
M  V30 18692 H 1853.03 -0.0520687 0.668977 0
M  V30 18693 H 1855.57 0.486744 1.98623 0
M  V30 18694 H 1853.73 -1.38527 3.61786 0
M  V30 18695 H 1854.14 0.117076 5.24369 0
M  V30 18696 H 1855.62 -1.59261 5.28526 0
M  V30 18697 H 1856.09 -2.29818 3.74273 0
M  V30 18698 H 1856.7 -0.688817 4.19685 0
M  V30 18699 N 1855.02 -1.57465 0.0651956 0
M  V30 18700 C 1856.24 -1.97975 -0.618099 0
M  V30 18701 C 1856.67 -0.943068 -1.62751 0
M  V30 18702 O 1856.02 0.0921045 -1.81066 0
M  V30 18703 C 1856.07 -3.37533 -1.26902 0
M  V30 18704 O 1855.18 -3.36451 -2.38483 0
M  V30 18705 H 1854.52 -0.644553 -0.159524 0
M  V30 18706 H 1857.05 -2.04136 0.137754 0
M  V30 18707 H 1857.06 -3.74571 -1.61742 0
M  V30 18708 H 1855.73 -4.12518 -0.529334 0
M  V30 18709 H 1854.31 -3.11175 -2.05486 0
M  V30 18710 N 1856.49 0.20831 -1.56217 0
M  V30 18711 C 1857.74 0.928886 -1.79488 0
M  V30 18712 C 1858.06 1.84337 -0.636 0
M  V30 18713 O 1857.33 1.92813 0.346416 0
M  V30 18714 H 1855.91 0.345985 -0.662045 0
M  V30 18715 H 1858.57 0.216988 -1.93688 0
M  V30 18716 H 1857.67 1.52786 -2.72145 0
M  V30 18717 N 1857.97 1.50255 0.475528 0
M  V30 18718 C 1859.22 1.61261 1.22975 0
M  V30 18719 C 1859.55 0.309949 1.91711 0
M  V30 18720 O 1858.83 -0.688288 1.81914 0
M  V30 18721 C 1859.11 2.7898 2.27688 0
M  V30 18722 C 1858.96 4.19115 1.63287 0
M  V30 18723 C 1860.28 2.9227 3.29038 0
M  V30 18724 H 1857.4 0.586933 0.445734 0
M  V30 18725 H 1860.04 1.82626 0.524177 0
M  V30 18726 H 1858.19 2.60894 2.87865 0
M  V30 18727 H 1859.86 4.48781 1.06741 0
M  V30 18728 H 1858.11 4.23579 0.936127 0
M  V30 18729 H 1858.78 4.97405 2.39359 0
M  V30 18730 H 1861.25 3.08813 2.78879 0
M  V30 18731 H 1860.13 3.7627 3.9964 0
M  V30 18732 H 1860.39 2.02696 3.92895 0
M  V30 18733 N 1859.45 -0.728395 1.39758 0
M  V30 18734 C 1860.38 -1.85288 1.34911 0
M  V30 18735 C 1861.39 -1.60763 0.25671 0
M  V30 18736 O 1862.58 -1.70875 0.516143 0
M  V30 18737 C 1859.68 -3.21445 1.07361 0
M  V30 18738 C 1858.86 -3.73272 2.28006 0
M  V30 18739 C 1857.92 -4.88008 1.96812 0
M  V30 18740 O 1856.94 -5.01325 2.69559 0
M  V30 18741 N 1858.14 -5.72867 0.938278 0
M  V30 18742 H 1860.91 -1.89949 2.31818 0
M  V30 18743 H 1858.47 -0.909409 1.33945 0
M  V30 18744 H 1860.46 -3.9578 0.845002 0
M  V30 18745 H 1859.03 -3.12012 0.191644 0
M  V30 18746 H 1858.25 -2.90214 2.66777 0
M  V30 18747 H 1859.54 -4.04633 3.08463 0
M  V30 18748 H 1858.94 -5.64704 0.335517 0
M  V30 18749 H 1857.49 -6.47241 0.769572 0
M  V30 18750 N 1860.93 -1.25042 -0.959279 0
M  V30 18751 C 1862.17 -1.10714 -1.71819 0
M  V30 18752 C 1862.53 0.346756 -1.88843 0
M  V30 18753 O 1863.73 0.611754 -2.61746 0
M  V30 18754 C 1862 -1.83569 -3.06655 0
M  V30 18755 S 1863.56 -1.85075 -3.9786 0
M  V30 18756 H 1860.38 -0.39581 -0.59064 0
M  V30 18757 H 1862.98 -1.58498 -1.14449 0
M  V30 18758 H 1861.69 -2.88451 -2.91932 0
M  V30 18759 H 1861.22 -1.36152 -3.69088 0
M  V30 18760 H 1863.23 -0.924451 -4.87512 0
M  V30 18761 N 1862.41 1.16121 -1.06553 0
M  V30 18762 C 1863.64 1.90335 -0.803506 0
M  V30 18763 C 1864.04 1.77824 0.646172 0
M  V30 18764 O 1863.39 1.12231 1.4543 0
M  V30 18765 C 1863.45 3.41537 -1.12219 0
M  V30 18766 C 1863.11 3.77833 -2.57082 0
M  V30 18767 C 1864.11 3.79533 -3.55318 0
M  V30 18768 C 1861.8 4.08385 -2.92449 0
M  V30 18769 C 1863.79 4.11277 -4.8696 0
M  V30 18770 C 1861.48 4.39795 -4.24291 0
M  V30 18771 C 1862.47 4.41221 -5.21357 0
M  V30 18772 O 1862.16 4.71883 -6.50831 0
M  V30 18773 H 1861.89 0.610323 -0.290658 0
M  V30 18774 H 1864.45 1.48107 -1.42315 0
M  V30 18775 H 1862.68 3.84125 -0.445483 0
M  V30 18776 H 1864.37 3.97029 -0.843985 0
M  V30 18777 H 1865.13 3.56038 -3.29336 0
M  V30 18778 H 1861.01 4.06439 -2.17551 0
M  V30 18779 H 1864.56 4.12305 -5.62717 0
M  V30 18780 H 1860.45 4.62756 -4.5003 0
M  V30 18781 H 1861.22 4.89683 -6.5586 0
M  V30 18782 N 1863.88 0.848487 1.3281 0
M  V30 18783 C 1865.13 0.44797 1.97073 0
M  V30 18784 C 1865.45 -0.998358 1.67505 0
M  V30 18785 O 1864.72 -1.69683 0.97901 0
M  V30 18786 H 1863.3 0.162663 0.729075 0
M  V30 18787 H 1865.97 1.08356 1.62003 0
M  V30 18788 H 1865.06 0.587939 3.06512 0
M  V30 18789 N 1865.36 -1.4549 0.605832 0
M  V30 18790 C 1866.77 -1.85775 0.18559 0
M  V30 18791 C 1867.12 -1.50638 -1.25708 0
M  V30 18792 O 1866.25 -0.932227 -1.95291 0
M  V30 18793 C 1866.84 -3.37189 0.330043 0
M  V30 18794 C 1865.4 -3.76383 -0.0354934 0
M  V30 18795 C 1864.55 -2.69446 0.655297 0
M  V30 18796 H 1867.5 -1.36316 0.812624 0
M  V30 18797 H 1867.52 -3.77968 -0.438236 0
M  V30 18798 H 1867.03 -3.62731 1.38014 0
M  V30 18799 H 1865.14 -3.56458 -1.08483 0
M  V30 18800 H 1865.25 -4.77769 0.356935 0
M  V30 18801 H 1863.61 -2.5453 0.0931235 0
M  V30 18802 H 1864.4 -2.97825 1.70749 0
M  V30 18803 N 1866.84 -0.344893 -1.5378 0
M  V30 18804 C 1868.09 0.250711 -2.00539 0
M  V30 18805 C 1868.41 1.5096 -1.23435 0
M  V30 18806 O 1867.68 1.92893 -0.341893 0
M  V30 18807 H 1866.26 0.0956318 -0.740853 0
M  V30 18808 H 1868.92 -0.466361 -1.89238 0
M  V30 18809 H 1868.02 0.49222 -3.08194 0
M  V30 18810 N 1868.32 1.57428 -0.0735454 0
M  V30 18811 C 1869.57 1.92732 0.594748 0
M  V30 18812 C 1869.88 0.955693 1.70663 0
M  V30 18813 O 1871.09 1.20162 2.43461 0
M  V30 18814 C 1869.54 3.42379 1.10927 0
M  V30 18815 C 1869.15 4.47991 0.0283008 0
M  V30 18816 C 1870.89 3.8668 1.75153 0
M  V30 18817 C 1868.8 5.88771 0.556965 0
M  V30 18818 H 1867.73 0.719355 0.22593 0
M  V30 18819 H 1870.38 1.82918 -0.146063 0
M  V30 18820 H 1868.76 3.47272 1.9031 0
M  V30 18821 H 1869.94 4.54716 -0.74634 0
M  V30 18822 H 1868.25 4.13168 -0.517835 0
M  V30 18823 H 1870.85 4.89244 2.15741 0
M  V30 18824 H 1871.19 3.24144 2.61221 0
M  V30 18825 H 1871.73 3.84397 1.02389 0
M  V30 18826 H 1868.47 6.54958 -0.266602 0
M  V30 18827 H 1867.99 5.85563 1.29909 0
M  V30 18828 H 1869.66 6.38703 1.03281 0
M  V30 18829 N 1869.8 -0.200022 1.56326 0
M  V30 18830 C 1870.71 -1.26847 1.9735 0
M  V30 18831 C 1871.72 -1.50081 0.880432 0
M  V30 18832 O 1872.9 -1.62792 1.18578 0
M  V30 18833 C 1869.96 -2.59382 2.30048 0
M  V30 18834 C 1869.02 -2.44262 3.53036 0
M  V30 18835 C 1868.26 -3.70476 3.84165 0
M  V30 18836 O 1868.48 -4.74433 3.16654 0
M  V30 18837 O 1867.41 -3.663 4.77606 0
M  V30 18838 H 1871.24 -0.950324 2.88449 0
M  V30 18839 H 1868.83 -0.404628 1.43816 0
M  V30 18840 H 1870.71 -3.37616 2.52177 0
M  V30 18841 H 1869.38 -2.90833 1.42119 0
M  V30 18842 H 1868.29 -1.64154 3.36161 0
M  V30 18843 H 1869.62 -2.17744 4.41416 0
M  V30 18844 N 1871.27 -1.50505 -0.467553 0
M  V30 18845 C 1872.52 -1.61352 -1.21697 0
M  V30 18846 C 1872.84 -0.317583 -1.92396 0
M  V30 18847 O 1872.11 0.665123 -1.84263 0
M  V30 18848 H 1870.69 -0.594582 -0.452196 0
M  V30 18849 H 1873.36 -1.87299 -0.539 0
M  V30 18850 H 1872.45 -2.4264 -1.96296 0
M  V30 18851 N 1872.75 0.720973 -1.40142 0
M  V30 18852 C 1873.68 1.8457 -1.35891 0
M  V30 18853 C 1874.7 1.60625 -0.265232 0
M  V30 18854 O 1875.89 1.70599 -0.525198 0
M  V30 18855 C 1872.99 3.20871 -1.09064 0
M  V30 18856 C 1872.16 3.72058 -2.29982 0
M  V30 18857 C 1871.22 4.86957 -1.99397 0
M  V30 18858 O 1870.24 4.99888 -2.72213 0
M  V30 18859 N 1871.45 5.72361 -0.968645 0
M  V30 18860 H 1874.21 1.88717 -2.32822 0
M  V30 18861 H 1871.77 0.902293 -1.34426 0
M  V30 18862 H 1873.76 3.95326 -0.865979 0
M  V30 18863 H 1872.33 3.11906 -0.208188 0
M  V30 18864 H 1871.55 2.88795 -2.68312 0
M  V30 18865 H 1872.84 4.02991 -3.10605 0
M  V30 18866 H 1872.24 5.64518 -0.36546 0
M  V30 18867 H 1870.8 6.46824 -0.803886 0
M  V30 18868 N 1874.23 1.25549 0.952634 0
M  V30 18869 C 1875.48 1.10198 1.69413 0
M  V30 18870 C 1875.8 -0.357345 1.91698 0
M  V30 18871 O 1875.07 -1.25345 1.5055 0
M  V30 18872 H 1873.65 0.404804 0.627808 0
M  V30 18873 H 1876.31 1.57703 1.14524 0
M  V30 18874 H 1875.41 1.61185 2.67256 0
M  V30 18875 N 1875.71 -1.15554 1.07168 0
M  V30 18876 C 1876.95 -1.86572 0.794894 0
M  V30 18877 C 1877.29 -1.82007 -0.677276 0
M  V30 18878 O 1876.56 -1.2419 -1.4969 0
M  V30 18879 C 1876.85 -3.35762 1.30137 0
M  V30 18880 C 1876.7 -3.4897 2.83796 0
M  V30 18881 C 1878.02 -4.30453 0.916402 0
M  V30 18882 H 1875.14 -0.677448 0.29023 0
M  V30 18883 H 1877.78 -1.35772 1.32914 0
M  V30 18884 H 1875.93 -3.79156 0.846915 0
M  V30 18885 H 1877.6 -3.14452 3.37517 0
M  V30 18886 H 1875.84 -2.9059 3.22087 0
M  V30 18887 H 1876.51 -4.53782 3.14302 0
M  V30 18888 H 1878.99 -3.95008 1.30797 0
M  V30 18889 H 1877.87 -5.33329 1.29814 0
M  V30 18890 H 1878.13 -4.41742 -0.17785 0
M  V30 18891 N 1877.19 -0.855519 -1.32358 0
M  V30 18892 C 1878.43 -0.459322 -1.97222 0
M  V30 18893 C 1878.76 0.985247 -1.677 0
M  V30 18894 O 1878.02 1.70642 -0.958117 0
M  V30 18895 C 1878.32 -0.64624 -3.51509 0
M  V30 18896 C 1877.98 -2.06141 -4.0102 0
M  V30 18897 C 1876.64 -2.44846 -4.14251 0
M  V30 18898 C 1879 -2.985 -4.27255 0
M  V30 18899 C 1876.32 -3.75181 -4.51061 0
M  V30 18900 C 1878.68 -4.28335 -4.65524 0
M  V30 18901 C 1877.34 -4.66973 -4.76961 0
M  V30 18902 H 1876.61 -0.168078 -0.721686 0
M  V30 18903 H 1879.26 -1.08574 -1.57747 0
M  V30 18904 H 1877.56 0.0634018 -3.91749 0
M  V30 18905 H 1879.26 -0.319727 -3.99723 0
M  V30 18906 H 1875.85 -1.75086 -3.91207 0
M  V30 18907 H 1880.03 -2.69829 -4.1654 0
M  V30 18908 H 1875.29 -4.04899 -4.58112 0
M  V30 18909 H 1879.46 -4.99963 -4.84778 0
M  V30 18910 H 1877.09 -5.6801 -5.05241 0
M  V30 18911 N 1878.67 1.45167 -0.61354 0
M  V30 18912 C 1880.08 1.57166 -0.277678 0
M  V30 18913 C 1880.28 1.60395 1.21965 0
M  V30 18914 O 1879.34 1.53747 2.00295 0
M  V30 18915 C 1880.65 2.85162 -0.9541 0
M  V30 18916 C 1882.2 2.98847 -0.930579 0
M  V30 18917 C 1882.67 4.29621 -1.58712 0
M  V30 18918 N 1884.16 4.36394 -1.55289 0
M  V30 18919 C 1884.9 5.36264 -2.02999 0
M  V30 18920 N 1884.4 6.42638 -2.58821 0
M  V30 18921 N 1886.19 5.27659 -1.93732 0
M  V30 18922 H 1878.34 1.41314 -1.58569 0
M  V30 18923 H 1880.6 0.676027 -0.664598 0
M  V30 18924 H 1880.31 2.88698 -2.00864 0
M  V30 18925 H 1880.18 3.7412 -0.481025 0
M  V30 18926 H 1882.57 2.94874 0.115433 0
M  V30 18927 H 1882.65 2.11283 -1.44198 0
M  V30 18928 H 1882.29 4.34352 -2.6325 0
M  V30 18929 H 1882.22 5.16011 -1.0507 0
M  V30 18930 H 1884.72 3.60131 -1.14516 0
M  V30 18931 H 1885.03 7.151 -2.93004 0
M  V30 18932 H 1883.37 6.43372 -2.62863 0
M  V30 18933 H 1886.56 4.43465 -1.49856 0
M  V30 18934 H 1886.74 6.05341 -2.31227 0
M  V30 18935 N 1880.14 0.353044 1.53595 0
M  V30 18936 C 1881.05 -0.507548 2.29044 0
M  V30 18937 C 1882.07 -1.10364 1.34521 0
M  V30 18938 O 1883.25 -1.11728 1.67567 0
M  V30 18939 C 1880.31 -1.63799 3.05566 0
M  V30 18940 C 1879.37 -1.07071 4.15733 0
M  V30 18941 C 1878.6 -2.14728 4.88597 0
M  V30 18942 O 1878.83 -3.35619 4.61211 0
M  V30 18943 O 1877.76 -1.78489 5.74826 0
M  V30 18944 H 1881.59 0.10606 3.03515 0
M  V30 18945 H 1879.17 0.117799 1.48935 0
M  V30 18946 H 1881.05 -2.2955 3.5339 0
M  V30 18947 H 1879.73 -2.23723 2.33944 0
M  V30 18948 H 1878.64 -0.37746 3.72191 0
M  V30 18949 H 1879.97 -0.516205 4.89486 0
M  V30 18950 N 1881.62 -1.57387 0.0818932 0
M  V30 18951 C 1882.58 -2.12162 -0.86718 0
M  V30 18952 C 1883.58 -1.04788 -1.21967 0
M  V30 18953 O 1884.77 -1.30733 -1.15128 0
M  V30 18954 C 1881.91 -2.63132 -2.16736 0
M  V30 18955 H 1883.1 -2.9733 -0.391788 0
M  V30 18956 H 1880.65 -1.55406 -0.166944 0
M  V30 18957 H 1881.39 -1.81446 -2.6879 0
M  V30 18958 H 1881.17 -3.41625 -1.92445 0
M  V30 18959 H 1882.66 -3.05549 -2.84657 0
M  V30 18960 N 1883.1 0.191729 -1.56429 0
M  V30 18961 C 1884.33 0.927708 -1.84936 0
M  V30 18962 C 1884.74 1.76708 -0.664809 0
M  V30 18963 O 1884.1 1.78783 0.366436 0
M  V30 18964 C 1884.15 1.82113 -3.12277 0
M  V30 18965 O 1883.87 1.01564 -4.26165 0
M  V30 18966 C 1885.37 2.6685 -3.53986 0
M  V30 18967 H 1882.59 0.270514 -0.614055 0
M  V30 18968 H 1885.14 0.197968 -2.0354 0
M  V30 18969 H 1883.29 2.50445 -2.9556 0
M  V30 18970 H 1883.71 1.62478 -4.987 0
M  V30 18971 H 1885.18 3.25189 -4.46045 0
M  V30 18972 H 1885.66 3.40725 -2.77134 0
M  V30 18973 H 1886.26 2.03884 -3.73245 0
M  V30 18974 N 1884.58 1.50751 0.459565 0
M  V30 18975 C 1885.81 1.66089 1.23377 0
M  V30 18976 C 1886.22 0.348952 1.85547 0
M  V30 18977 O 1885.58 -0.670323 1.69744 0
M  V30 18978 C 1885.63 2.76047 2.3341 0
M  V30 18979 O 1885.35 4.02156 1.73787 0
M  V30 18980 C 1886.85 3.02461 3.24087 0
M  V30 18981 H 1884.07 0.557971 0.372705 0
M  V30 18982 H 1886.61 1.97042 0.547242 0
M  V30 18983 H 1884.77 2.47756 2.97818 0
M  V30 18984 H 1885.18 4.63055 2.46335 0
M  V30 18985 H 1886.66 3.83034 3.97478 0
M  V30 18986 H 1887.13 2.13984 3.83546 0
M  V30 18987 H 1887.74 3.32326 2.65404 0
M  V30 18988 N 1886.06 -0.713531 1.40522 0
M  V30 18989 C 1886.97 -1.8577 1.43272 0
M  V30 18990 C 1887.98 -1.70936 0.325113 0
M  V30 18991 O 1889.16 -1.93165 0.570022 0
M  V30 18992 C 1886.22 -3.21587 1.29548 0
M  V30 18993 C 1885.28 -3.4866 2.50469 0
M  V30 18994 C 1884.52 -4.77998 2.3739 0
M  V30 18995 O 1884.74 -5.53234 1.38881 0
M  V30 18996 O 1883.67 -5.05453 3.26804 0
M  V30 18997 H 1887.5 -1.86406 2.39763 0
M  V30 18998 H 1885.08 -0.864226 1.21867 0
M  V30 18999 H 1886.97 -4.02709 1.2411 0
M  V30 19000 H 1885.64 -3.21674 0.36163 0
M  V30 19001 H 1884.55 -2.67539 2.61483 0
M  V30 19002 H 1885.88 -3.53372 3.42621 0
M  V30 19003 N 1887.53 -1.26053 -0.945962 0
M  V30 19004 C 1888.78 -1.11315 -1.69161 0
M  V30 19005 C 1889.11 0.34437 -1.91427 0
M  V30 19006 O 1888.36 1.26968 -1.48921 0
M  V30 19007 C 1888.66 -1.8222 -3.07459 0
M  V30 19008 C 1888.33 -3.32126 -3.04964 0
M  V30 19009 C 1886.99 -3.73019 -3.03991 0
M  V30 19010 C 1889.34 -4.2786 -2.97633 0
M  V30 19011 C 1886.67 -5.08041 -2.93446 0
M  V30 19012 C 1889.02 -5.62917 -2.88631 0
M  V30 19013 C 1887.69 -6.03127 -2.85998 0
M  V30 19014 H 1886.96 -0.407329 -0.619002 0
M  V30 19015 H 1889.6 -1.56435 -1.10454 0
M  V30 19016 H 1887.91 -1.29554 -3.69761 0
M  V30 19017 H 1889.61 -1.68261 -3.63991 0
M  V30 19018 H 1886.2 -2.99594 -3.06498 0
M  V30 19019 H 1890.38 -3.97252 -2.97497 0
M  V30 19020 H 1885.64 -5.38364 -2.89782 0
M  V30 19021 H 1889.81 -6.36784 -2.81921 0
M  V30 19022 H 1887.44 -7.07709 -2.77583 0
M  V30 19023 N 1889.01 1.14984 -1.07779 0
M  V30 19024 C 1890.24 1.90288 -0.824935 0
M  V30 19025 C 1890.66 1.77709 0.616524 0
M  V30 19026 O 1890.02 1.11281 1.4313 0
M  V30 19027 C 1890.07 3.38482 -1.24348 0
M  V30 19028 O 1889.17 4.10538 -0.391454 0
M  V30 19029 H 1888.51 0.592283 -0.300162 0
M  V30 19030 H 1891.04 1.45588 -1.43755 0
M  V30 19031 H 1891.05 3.89284 -1.22155 0
M  V30 19032 H 1889.73 3.46956 -2.29335 0
M  V30 19033 H 1888.3 3.69846 -0.476247 0
M  V30 19034 N 1890.49 0.862526 1.31902 0
M  V30 19035 C 1891.74 0.470471 1.97267 0
M  V30 19036 C 1892.07 -0.973153 1.68058 0
M  V30 19037 O 1891.34 -1.68411 0.973035 0
M  V30 19038 C 1891.63 0.719362 3.52842 0
M  V30 19039 C 1891.48 2.21198 3.91652 0
M  V30 19040 C 1892.8 0.18092 4.39728 0
M  V30 19041 H 1889.92 0.172408 0.71655 0
M  V30 19042 H 1892.56 1.0824 1.56154 0
M  V30 19043 H 1890.71 0.198516 3.87992 0
M  V30 19044 H 1892.38 2.79951 3.66641 0
M  V30 19045 H 1890.62 2.68744 3.40528 0
M  V30 19046 H 1891.3 2.33679 5.00098 0
M  V30 19047 H 1893.77 0.626421 4.11358 0
M  V30 19048 H 1892.65 0.384575 5.47551 0
M  V30 19049 H 1892.91 -0.916756 4.3249 0
M  V30 19050 N 1891.97 -1.4484 0.62123 0
M  V30 19051 C 1893.25 -1.95528 0.0531511 0
M  V30 19052 C 1893.63 -1.56342 -1.41846 0
M  V30 19053 O 1892.97 -0.832621 -2.1279 0
M  V30 19054 C 1893.18 -3.47988 0.2656 0
M  V30 19055 C 1894.53 -4.24322 0.153573 0
M  V30 19056 O 1895.56 -3.55658 0.19644 0
M  V30 19057 O 1894.41 -5.46477 0.05015 0
M  V30 19058 H 1891.51 -0.826527 -0.0279665 0
M  V30 19059 H 1894.05 -1.54939 0.692243 0
M  V30 19060 H 1892.83 -3.69525 1.28713 0
M  V30 19061 H 1892.45 -3.955 -0.408105 0
M  V30 19062 N 1893.45 -0.361184 -1.53405 0
M  V30 19063 C 1894.41 0.475026 -2.24223 0
M  V30 19064 C 1895.41 1.01331 -1.24855 0
M  V30 19065 O 1896.6 0.899756 -1.49164 0
M  V30 19066 C 1893.73 1.6635 -2.97557 0
M  V30 19067 H 1894.92 -0.144595 -2.99551 0
M  V30 19068 H 1892.48 -0.112802 -1.55892 0
M  V30 19069 H 1893.21 2.32133 -2.26461 0
M  V30 19070 H 1893 1.28454 -3.70462 0
M  V30 19071 H 1894.49 2.2562 -3.51405 0
M  V30 19072 N 1894.92 1.57341 -0.0902386 0
M  V30 19073 C 1896.34 1.57361 0.266413 0
M  V30 19074 C 1896.54 1.10104 1.68758 0
M  V30 19075 O 1895.6 0.775287 2.40303 0
M  V30 19076 C 1896.91 3.00642 0.0592661 0
M  V30 19077 C 1898.46 3.12741 0.127389 0
M  V30 19078 C 1898.93 4.57971 -0.0517042 0
M  V30 19079 N 1900.42 4.632 0.0032917 0
M  V30 19080 C 1901.16 5.73293 -0.110598 0
M  V30 19081 N 1900.65 6.92238 -0.279049 0
M  V30 19082 N 1902.45 5.62076 -0.0522147 0
M  V30 19083 H 1894.6 1.86369 -1.01884 0
M  V30 19084 H 1896.86 0.859996 -0.398886 0
M  V30 19085 H 1896.57 3.39396 -0.922117 0
M  V30 19086 H 1896.44 3.68539 0.80368 0
M  V30 19087 H 1898.83 2.73861 1.09927 0
M  V30 19088 H 1898.91 2.47445 -0.648435 0
M  V30 19089 H 1898.55 4.97544 -1.02043 0
M  V30 19090 H 1898.48 5.21321 0.743753 0
M  V30 19091 H 1900.97 3.77672 0.131145 0
M  V30 19092 H 1901.29 7.71972 -0.357596 0
M  V30 19093 H 1899.63 6.94287 -0.314653 0
M  V30 19094 H 1902.82 4.68035 0.0782189 0
M  V30 19095 H 1903 6.47839 -0.144423 0
M  V30 19096 N 1896.4 -0.183431 1.56529 0
M  V30 19097 C 1897.37 -1.21097 1.94597 0
M  V30 19098 C 1898.37 -1.37825 0.828305 0
M  V30 19099 O 1899.56 -1.35438 1.09555 0
M  V30 19100 C 1896.69 -2.57826 2.23021 0
M  V30 19101 H 1897.88 -0.885275 2.86536 0
M  V30 19102 H 1895.43 -0.425412 1.50399 0
M  V30 19103 H 1896.17 -2.95431 1.33758 0
M  V30 19104 H 1895.95 -2.47054 3.04478 0
M  V30 19105 H 1897.44 -3.31902 2.53437 0
M  V30 19106 N 1897.88 -1.50992 -0.451564 0
M  V30 19107 C 1898.81 -1.74216 -1.5547 0
M  V30 19108 C 1899.79 -0.591568 -1.59482 0
M  V30 19109 O 1900.98 -0.83279 -1.75437 0
M  V30 19110 C 1898.11 -1.85421 -2.9366 0
M  V30 19111 C 1897.06 -3.0076 -3.04512 0
M  V30 19112 C 1896.39 -2.9713 -4.44542 0
M  V30 19113 C 1897.69 -4.40961 -2.79911 0
M  V30 19114 H 1899.38 -2.66582 -1.36287 0
M  V30 19115 H 1896.93 -1.28281 -0.654207 0
M  V30 19116 H 1898.88 -2.00252 -3.70779 0
M  V30 19117 H 1897.6 -0.896921 -3.14043 0
M  V30 19118 H 1896.26 -2.85611 -2.2983 0
M  V30 19119 H 1895.91 -1.99207 -4.61872 0
M  V30 19120 H 1895.61 -3.74572 -4.52736 0
M  V30 19121 H 1897.13 -3.14035 -5.23655 0
M  V30 19122 H 1898.55 -4.56534 -3.4677 0
M  V30 19123 H 1896.95 -5.20002 -2.9953 0
M  V30 19124 H 1898.02 -4.51981 -1.75618 0
M  V30 19125 N 1899.36 0.706069 -1.40899 0
M  V30 19126 C 1900.59 1.49504 -1.43025 0
M  V30 19127 C 1901 1.88772 -0.0325752 0
M  V30 19128 O 1900.36 1.56085 0.945716 0
M  V30 19129 C 1900.41 2.76431 -2.32955 0
M  V30 19130 O 1900.13 2.38821 -3.67282 0
M  V30 19131 C 1901.63 3.70255 -2.43774 0
M  V30 19132 H 1898.85 0.461069 -0.4875 0
M  V30 19133 H 1901.4 0.870198 -1.85062 0
M  V30 19134 H 1899.55 3.35177 -1.94255 0
M  V30 19135 H 1899.96 3.2056 -4.1514 0
M  V30 19136 H 1901.44 4.56129 -3.10887 0
M  V30 19137 H 1901.92 4.14021 -1.46573 0
M  V30 19138 H 1902.52 3.17417 -2.83066 0
M  V30 19139 N 1900.84 1.26553 0.939264 0
M  V30 19140 C 1901.77 1.04069 2.04211 0
M  V30 19141 C 1902.78 0.000506291 1.628 0
M  V30 19142 O 1903.97 0.240794 1.76868 0
M  V30 19143 C 1901.07 0.554348 3.34335 0
M  V30 19144 C 1900.24 1.6642 4.04503 0
M  V30 19145 C 1899.3 1.17558 5.129 0
M  V30 19146 O 1898.33 1.87303 5.375 0
M  V30 19147 N 1899.53 0.0250252 5.80495 0
M  V30 19148 H 1902.3 1.99036 2.24065 0
M  V30 19149 H 1899.86 1.17964 1.10888 0
M  V30 19150 H 1901.85 0.211606 4.04146 0
M  V30 19151 H 1900.42 -0.301779 3.1114 0
M  V30 19152 H 1899.64 2.17779 3.28582 0
M  V30 19153 H 1900.93 2.4094 4.48136 0
M  V30 19154 H 1900.32 -0.557378 5.62947 0
M  V30 19155 H 1898.88 -0.258625 6.51287 0
M  V30 19156 N 1902.31 -1.14411 1.08387 0
M  V30 19157 C 1903.54 -1.89307 0.834895 0
M  V30 19158 C 1903.96 -1.78574 -0.612923 0
M  V30 19159 O 1903.31 -1.14494 -1.42118 0
M  V30 19160 C 1903.37 -3.39289 1.24761 0
M  V30 19161 O 1903.09 -3.49725 2.63863 0
M  V30 19162 C 1904.59 -4.31181 1.02947 0
M  V30 19163 H 1901.81 -0.599644 0.301112 0
M  V30 19164 H 1904.35 -1.44897 1.44309 0
M  V30 19165 H 1902.51 -3.81322 0.683524 0
M  V30 19166 H 1902.92 -4.42884 2.80988 0
M  V30 19167 H 1904.39 -5.34789 1.36763 0
M  V30 19168 H 1904.87 -4.39187 -0.0335224 0
M  V30 19169 H 1905.48 -3.94903 1.57898 0
M  V30 19170 N 1903.79 -0.869509 -1.31443 0
M  V30 19171 C 1905.04 -0.479265 -1.96335 0
M  V30 19172 C 1905.36 0.971583 -1.69072 0
M  V30 19173 O 1904.63 1.68104 -1.00588 0
M  V30 19174 H 1903.21 -0.174241 -0.726394 0
M  V30 19175 H 1905.87 -1.1092 -1.60259 0
M  V30 19176 H 1904.97 -0.636628 -3.05538 0
M  V30 19177 N 1905.27 1.44508 -0.628902 0
M  V30 19178 C 1906.52 2.01667 -0.13224 0
M  V30 19179 C 1906.84 1.49706 1.24953 0
M  V30 19180 O 1906.11 0.699769 1.82976 0
M  V30 19181 H 1904.69 0.745589 -0.0458966 0
M  V30 19182 H 1907.35 1.77037 -0.815102 0
M  V30 19183 H 1906.45 3.11945 -0.0982328 0
M  V30 19184 N 1906.75 0.369315 1.53212 0
M  V30 19185 C 1908.16 -0.10909 1.86381 0
M  V30 19186 C 1908.51 -1.47849 1.28977 0
M  V30 19187 O 1907.64 -2.07528 0.613267 0
M  V30 19188 C 1908.23 -0.204726 3.38181 0
M  V30 19189 C 1906.79 -0.627391 3.71134 0
M  V30 19190 C 1905.94 0.223086 2.76401 0
M  V30 19191 H 1908.89 0.587967 1.47406 0
M  V30 19192 H 1908.91 -1.02761 3.66361 0
M  V30 19193 H 1908.42 0.792082 3.79931 0
M  V30 19194 H 1906.52 -1.63229 3.34943 0
M  V30 19195 H 1906.64 -0.39941 4.77432 0
M  V30 19196 H 1905 -0.308608 2.52823 0
M  V30 19197 H 1905.78 1.2175 3.20986 0
M  V30 19198 N 1908.23 -1.57291 0.0985816 0
M  V30 19199 C 1909.18 -2.10757 -0.869797 0
M  V30 19200 C 1910.16 -1.02343 -1.24156 0
M  V30 19201 O 1911.35 -1.28612 -1.21606 0
M  V30 19202 C 1908.48 -2.69425 -2.12756 0
M  V30 19203 C 1907.57 -3.84888 -1.78107 0
M  V30 19204 N 1907.96 -4.92778 -1.14034 0
M  V30 19205 C 1906.26 -3.94688 -2.07695 0
M  V30 19206 C 1906.96 -5.73373 -0.980736 0
M  V30 19207 N 1905.93 -5.22519 -1.49917 0
M  V30 19208 H 1909.74 -2.91555 -0.370523 0
M  V30 19209 H 1907.25 -1.62063 -0.104525 0
M  V30 19210 H 1909.25 -3.0606 -2.83077 0
M  V30 19211 H 1907.91 -1.90083 -2.63246 0
M  V30 19212 H 1908.92 -5.11578 -0.806735 0
M  V30 19213 H 1905.6 -3.2636 -2.60375 0
M  V30 19214 H 1906.99 -6.70188 -0.479379 0
M  V30 19215 N 1909.71 0.175127 -1.56624 0
M  V30 19216 C 1910.95 0.89369 -1.82047 0
M  V30 19217 C 1911.28 1.82061 -0.675831 0
M  V30 19218 O 1910.56 1.91808 0.322453 0
M  V30 19219 C 1910.84 1.69266 -3.17838 0
M  V30 19220 C 1910.7 0.789122 -4.42824 0
M  V30 19221 C 1912.01 2.66115 -3.50529 0
M  V30 19222 H 1909.13 0.323454 -0.662228 0
M  V30 19223 H 1911.78 0.160077 -1.89324 0
M  V30 19224 H 1909.93 2.31808 -3.11765 0
M  V30 19225 H 1911.6 0.17687 -4.60961 0
M  V30 19226 H 1909.84 0.0969508 -4.33692 0
M  V30 19227 H 1910.51 1.38358 -5.34379 0
M  V30 19228 H 1912.99 2.137 -3.57031 0
M  V30 19229 H 1911.86 3.19087 -4.46626 0
M  V30 19230 H 1912.12 3.4613 -2.75038 0
M  V30 19231 N 1911.18 1.5123 0.44355 0
M  V30 19232 C 1912.13 1.72095 1.53792 0
M  V30 19233 C 1913.1 0.562529 1.56284 0
M  V30 19234 O 1914.29 0.796259 1.73391 0
M  V30 19235 C 1911.43 1.84627 2.9156 0
M  V30 19236 C 1910.54 3.12147 2.98644 0
M  V30 19237 C 1909.67 3.1531 4.27496 0
M  V30 19238 C 1908.71 4.37171 4.28425 0
M  V30 19239 N 1907.85 4.37919 5.48791 0
M  V30 19240 H 1912.69 2.65512 1.35304 0
M  V30 19241 H 1910.23 1.31593 0.657387 0
M  V30 19242 H 1912.18 1.89874 3.71488 0
M  V30 19243 H 1910.81 0.946232 3.0862 0
M  V30 19244 H 1909.87 3.16239 2.11417 0
M  V30 19245 H 1911.18 4.02074 2.95192 0
M  V30 19246 H 1910.33 3.19439 5.15794 0
M  V30 19247 H 1909.07 2.23261 4.33596 0
M  V30 19248 H 1908.08 4.33225 3.38521 0
M  V30 19249 H 1909.3 5.30477 4.23994 0
M  V30 19250 H 1907.25 3.48737 5.55624 0
M  V30 19251 H 1907.16 5.21647 5.47193 0
M  V30 19252 H 1908.43 4.46232 6.39138 0
M  V30 19253 N 1912.66 -0.698586 1.41271 0
M  V30 19254 C 1913.62 -1.7943 1.4261 0
M  V30 19255 C 1914.62 -1.57641 0.317187 0
M  V30 19256 O 1915.81 -1.64369 0.576922 0
M  V30 19257 C 1912.95 -3.17762 1.23452 0
M  V30 19258 H 1914.14 -1.79637 2.40147 0
M  V30 19259 H 1911.69 -0.905916 1.27369 0
M  V30 19260 H 1912.43 -3.23195 0.267431 0
M  V30 19261 H 1912.21 -3.34978 2.03794 0
M  V30 19262 H 1913.7 -3.97751 1.27217 0
M  V30 19263 N 1914.14 -1.27049 -0.93254 0
M  V30 19264 C 1915.56 -1.04349 -1.20762 0
M  V30 19265 C 1915.76 0.225981 -2.00229 0
M  V30 19266 O 1914.81 0.932788 -2.34639 0
M  V30 19267 C 1916.12 -2.28004 -1.96048 0
M  V30 19268 C 1917.67 -2.32993 -2.09006 0
M  V30 19269 C 1918.15 -3.56364 -2.87696 0
M  V30 19270 N 1919.64 -3.56892 -2.95266 0
M  V30 19271 C 1920.37 -4.49022 -3.56604 0
M  V30 19272 N 1919.87 -5.51451 -4.19374 0
M  V30 19273 N 1921.66 -4.36656 -3.53961 0
M  V30 19274 H 1913.81 -2.0857 -0.401516 0
M  V30 19275 H 1916.08 -0.917061 -0.240213 0
M  V30 19276 H 1915.78 -3.20386 -1.45072 0
M  V30 19277 H 1915.66 -2.32937 -2.96682 0
M  V30 19278 H 1918.04 -1.41119 -2.5917 0
M  V30 19279 H 1918.12 -2.32065 -1.07607 0
M  V30 19280 H 1917.77 -4.48571 -2.38216 0
M  V30 19281 H 1917.7 -3.54541 -3.89369 0
M  V30 19282 H 1920.19 -2.82812 -2.5065 0
M  V30 19283 H 1920.5 -6.17924 -4.64101 0
M  V30 19284 H 1918.85 -5.55298 -4.17934 0
M  V30 19285 H 1922.04 -3.55848 -3.04122 0
M  V30 19286 H 1922.21 -5.08647 -4.01475 0
M  V30 19287 N 1915.62 1.13835 -1.08993 0
M  V30 19288 C 1916.86 1.85284 -0.824476 0
M  V30 19289 C 1917.2 1.83062 0.648235 0
M  V30 19290 O 1916.47 1.26555 1.47696 0
M  V30 19291 C 1916.75 3.33649 -1.35463 0
M  V30 19292 C 1916.61 3.44411 -2.89312 0
M  V30 19293 C 1917.93 4.28941 -0.984768 0
M  V30 19294 H 1915.05 0.672745 -0.300971 0
M  V30 19295 H 1917.69 1.3364 -1.35057 0
M  V30 19296 H 1915.84 3.77761 -0.907128 0
M  V30 19297 H 1917.51 3.09043 -3.42477 0
M  V30 19298 H 1915.75 2.85429 -3.26669 0
M  V30 19299 H 1916.42 4.48724 -3.21481 0
M  V30 19300 H 1918.9 3.92877 -1.37064 0
M  V30 19301 H 1917.78 5.31196 -1.38283 0
M  V30 19302 H 1918.04 4.41969 0.10755 0
M  V30 19303 N 1917.1 0.876467 1.3098 0
M  V30 19304 C 1918.06 0.341893 2.26636 0
M  V30 19305 C 1919.06 -0.510816 1.52471 0
M  V30 19306 O 1920.25 -0.31919 1.71251 0
M  V30 19307 C 1917.38 -0.513725 3.37007 0
M  V30 19308 H 1918.57 1.18642 2.75434 0
M  V30 19309 H 1916.13 0.652602 1.42024 0
M  V30 19310 H 1916.86 -1.37919 2.93511 0
M  V30 19311 H 1916.65 0.0969443 3.9198 0
M  V30 19312 H 1918.14 -0.87981 4.08227 0
M  V30 19313 N 1918.57 -1.44173 0.636557 0
M  V30 19314 C 1919.52 -2.32472 -0.077248 0
M  V30 19315 C 1920.52 -1.47659 -0.830248 0
M  V30 19316 O 1921.72 -1.63971 -0.742533 0
M  V30 19317 H 1918.1 -0.750726 -0.0437543 0
M  V30 19318 H 1920.07 -2.9042 0.685465 0
M  V30 19319 C 1918.82 -3.31734 -1.04152 0
M  V30 19320 H 1918.14 -3.9701 -0.471531 0
M  V30 19321 H 1919.58 -3.96187 -1.51036 0
M  V30 19322 C 1918.04 -2.61069 -2.12943 0
M  V30 19323 O 1918.57 -2.41366 -3.211 0
M  V30 19324 N 1916.77 -2.20717 -1.8903 0
M  V30 19325 H 1916.32 -2.36941 -1.01077 0
M  V30 19326 H 1916.28 -1.73763 -2.62018 0
M  V30 19327 N 1920.05 -0.377435 -1.53014 0
M  V30 19328 C 1921.46 0.0992038 -1.86436 0
M  V30 19329 C 1921.81 1.47163 -1.2976 0
M  V30 19330 O 1920.94 2.072 -0.624264 0
M  V30 19331 C 1921.53 0.186789 -3.38285 0
M  V30 19332 C 1920.09 0.6077 -3.71462 0
M  V30 19333 C 1919.24 -0.237741 -2.76279 0
M  V30 19334 H 1922.19 -0.595776 -1.47092 0
M  V30 19335 H 1922.21 1.00817 -3.66901 0
M  V30 19336 H 1921.72 -0.812219 -3.79506 0
M  V30 19337 H 1919.82 1.61451 -3.35804 0
M  V30 19338 H 1919.94 0.374085 -4.77637 0
M  V30 19339 H 1918.3 0.295196 -2.52984 0
M  V30 19340 H 1919.08 -1.23451 -3.20335 0
M  V30 19341 N 1921.53 1.57237 -0.106922 0
M  V30 19342 C 1922.76 1.99545 0.565392 0
M  V30 19343 C 1923.18 0.985887 1.60193 0
M  V30 19344 O 1922.54 -0.0440657 1.81246 0
M  V30 19345 C 1922.59 3.40779 1.17908 0
M  V30 19346 O 1921.69 3.42656 2.29479 0
M  V30 19347 H 1921.03 0.648556 0.142379 0
M  V30 19348 H 1923.56 2.03699 -0.191829 0
M  V30 19349 H 1923.57 3.78728 1.51754 0
M  V30 19350 H 1922.25 4.13776 0.419776 0
M  V30 19351 H 1920.82 3.16514 1.97164 0
M  V30 19352 N 1923.01 -0.166818 1.56715 0
M  V30 19353 C 1924.26 -0.880972 1.81888 0
M  V30 19354 C 1924.58 -1.82586 0.68465 0
M  V30 19355 O 1923.85 -1.93663 -0.295173 0
M  V30 19356 H 1922.43 -0.32831 0.670985 0
M  V30 19357 H 1925.09 -0.165558 1.94196 0
M  V30 19358 H 1924.19 -1.45517 2.761 0
M  V30 19359 N 1924.49 -1.51463 -0.435524 0
M  V30 19360 C 1925.43 -1.73484 -1.54939 0
M  V30 19361 C 1926.43 -0.601197 -1.58373 0
M  V30 19362 O 1927.63 -0.782622 -1.62096 0
M  V30 19363 H 1924.01 -0.54818 -0.514784 0
M  V30 19364 H 1925.98 -2.66851 -1.3354 0
M  V30 19365 C 1924.73 -1.87866 -2.92578 0
M  V30 19366 H 1924.05 -2.74503 -2.90668 0
M  V30 19367 H 1925.49 -2.07285 -3.69877 0
M  V30 19368 C 1923.95 -0.638928 -3.30786 0
M  V30 19369 O 1924.48 0.205561 -4.01174 0
M  V30 19370 N 1922.69 -0.48249 -2.86567 0
M  V30 19371 H 1922.23 -1.17078 -2.29457 0
M  V30 19372 H 1922.19 0.345753 -3.12493 0
M  V30 19373 N 1925.96 0.691085 -1.4164 0
M  V30 19374 C 1926.89 1.8173 -1.46616 0
M  V30 19375 C 1927.88 1.66979 -0.324357 0
M  V30 19376 O 1929.06 1.86644 -0.536424 0
M  V30 19377 C 1926.19 3.19903 -1.35201 0
M  V30 19378 C 1925.14 3.49366 -2.47239 0
M  V30 19379 C 1924.47 4.86942 -2.20887 0
M  V30 19380 C 1925.77 3.47891 -3.89575 0
M  V30 19381 H 1927.46 1.77823 -2.40872 0
M  V30 19382 H 1925.01 0.8541 -1.15936 0
M  V30 19383 H 1926.96 3.98407 -1.37293 0
M  V30 19384 H 1925.69 3.24448 -0.374312 0
M  V30 19385 H 1924.35 2.73215 -2.44436 0
M  V30 19386 H 1923.99 4.88118 -1.2145 0
M  V30 19387 H 1923.69 5.0762 -2.95966 0
M  V30 19388 H 1925.22 5.67751 -2.24703 0
M  V30 19389 H 1926.63 4.16392 -3.94069 0
M  V30 19390 H 1925.03 3.80101 -4.64374 0
M  V30 19391 H 1926.1 2.46778 -4.17407 0
M  V30 19392 N 1927.44 1.27542 0.925789 0
M  V30 19393 C 1928.67 1.1681 1.70772 0
M  V30 19394 C 1929.09 -0.274824 1.86789 0
M  V30 19395 O 1928.44 -1.18694 1.38629 0
M  V30 19396 C 1928.49 1.84904 3.10633 0
M  V30 19397 O 1928.21 3.23559 2.95366 0
M  V30 19398 C 1929.72 1.80322 4.04968 0
M  V30 19399 H 1926.94 0.406036 0.534206 0
M  V30 19400 H 1929.48 1.68448 1.15955 0
M  V30 19401 H 1927.63 1.37166 3.62304 0
M  V30 19402 H 1928.05 3.57488 3.838 0
M  V30 19403 H 1929.52 2.32577 5.00611 0
M  V30 19404 H 1930 0.772975 4.32344 0
M  V30 19405 H 1930.61 2.27683 3.59222 0
M  V30 19406 N 1928.92 -1.13255 1.09595 0
M  V30 19407 C 1929.83 -2.22321 0.74904 0
M  V30 19408 C 1930.85 -1.72198 -0.24974 0
M  V30 19409 O 1932.02 -2.01196 -0.090652 0
M  V30 19410 C 1929.09 -3.4625 0.17665 0
M  V30 19411 C 1928.15 -4.11254 1.2316 0
M  V30 19412 C 1927.38 -5.29267 0.686427 0
M  V30 19413 O 1927.6 -5.68291 -0.490088 0
M  V30 19414 O 1926.54 -5.84365 1.44227 0
M  V30 19415 H 1930.36 -2.5437 1.6592 0
M  V30 19416 H 1927.95 -1.21422 0.870465 0
M  V30 19417 H 1929.83 -4.2117 -0.139147 0
M  V30 19418 H 1928.51 -3.15896 -0.706492 0
M  V30 19419 H 1927.41 -3.38152 1.60012 0
M  V30 19420 H 1928.75 -4.45743 2.08745 0
M  V30 19421 N 1930.4 -0.883401 -1.30514 0
M  V30 19422 C 1931.63 -0.515948 -2.00364 0
M  V30 19423 C 1932.04 0.895148 -1.6623 0
M  V30 19424 O 1931.4 1.58844 -0.898601 0
M  V30 19425 C 1931.45 -0.679282 -3.55061 0
M  V30 19426 O 1931.17 -2.03482 -3.87978 0
M  V30 19427 C 1932.67 -0.314612 -4.42182 0
M  V30 19428 H 1929.89 -0.199595 -0.640627 0
M  V30 19429 H 1932.44 -1.18827 -1.66435 0
M  V30 19430 H 1930.59 -0.0543511 -3.87362 0
M  V30 19431 H 1931 -2.0523 -4.82681 0
M  V30 19432 H 1932.48 -0.4798 -5.49911 0
M  V30 19433 H 1932.96 0.747247 -4.32797 0
M  V30 19434 H 1933.56 -0.9158 -4.15323 0
M  V30 19435 N 1931.88 1.43833 -0.644194 0
M  V30 19436 C 1933.11 2.0597 -0.161163 0
M  V30 19437 C 1933.51 1.48309 1.17478 0
M  V30 19438 O 1932.86 0.60548 1.73435 0
M  V30 19439 C 1932.92 3.59497 0.014069 0
M  V30 19440 C 1932.58 4.39693 -1.24575 0
M  V30 19441 C 1933.58 4.72336 -2.17244 0
M  V30 19442 C 1931.27 4.79853 -1.48481 0
M  V30 19443 C 1933.26 5.44036 -3.3212 0
M  V30 19444 C 1930.95 5.51299 -2.63652 0
M  V30 19445 C 1931.94 5.83312 -3.55297 0
M  V30 19446 O 1931.63 6.53301 -4.68458 0
M  V30 19447 H 1931.36 0.670886 -0.0829965 0
M  V30 19448 H 1933.92 1.85477 -0.882467 0
M  V30 19449 H 1932.15 3.78531 0.790652 0
M  V30 19450 H 1933.84 4.03361 0.453309 0
M  V30 19451 H 1934.6 4.41836 -2.00014 0
M  V30 19452 H 1930.48 4.54348 -0.780324 0
M  V30 19453 H 1934.03 5.6894 -4.03674 0
M  V30 19454 H 1929.92 5.81214 -2.80821 0
M  V30 19455 H 1930.69 6.71778 -4.67607 0
M  V30 19456 N 1933.35 0.385544 1.52811 0
M  V30 19457 C 1934.6 -0.198138 2.0183 0
M  V30 19458 C 1934.93 -1.46774 1.27165 0
M  V30 19459 O 1934.21 -1.90928 0.371034 0
M  V30 19460 C 1934.49 -0.469873 3.57021 0
M  V30 19461 C 1934.34 0.814756 4.42359 0
M  V30 19462 C 1935.66 -1.26209 4.21615 0
M  V30 19463 H 1932.78 -0.0705386 0.733617 0
M  V30 19464 H 1935.42 0.514372 1.82905 0
M  V30 19465 H 1933.57 -1.07684 3.73278 0
M  V30 19466 H 1935.25 1.45172 4.37862 0
M  V30 19467 H 1933.49 1.43088 4.09522 0
M  V30 19468 H 1934.16 0.57932 5.48952 0
M  V30 19469 H 1936.64 -0.748451 4.09313 0
M  V30 19470 H 1935.51 -1.42096 5.30188 0
M  V30 19471 H 1935.77 -2.27624 3.78998 0
M  V30 19472 N 1934.83 -1.57178 0.115259 0
M  V30 19473 C 1935.76 -2.1218 -0.866728 0
M  V30 19474 C 1936.78 -1.06365 -1.23249 0
M  V30 19475 O 1937.97 -1.33749 -1.18209 0
M  V30 19476 C 1935.07 -2.60337 -2.16975 0
M  V30 19477 C 1934.24 -3.90209 -1.97625 0
M  V30 19478 C 1933.3 -4.24003 -3.11622 0
M  V30 19479 O 1932.32 -4.92884 -2.847 0
M  V30 19480 N 1933.53 -3.81022 -4.37953 0
M  V30 19481 H 1936.29 -2.97061 -0.396835 0
M  V30 19482 H 1933.85 -1.61752 -0.0692734 0
M  V30 19483 H 1935.84 -2.79976 -2.92225 0
M  V30 19484 H 1934.41 -1.80356 -2.55324 0
M  V30 19485 H 1933.63 -3.79516 -1.06589 0
M  V30 19486 H 1934.92 -4.75137 -1.81996 0
M  V30 19487 H 1934.32 -3.25459 -4.62702 0
M  V30 19488 H 1932.88 -4.05777 -5.10086 0
M  V30 19489 N 1936.31 0.158505 -1.56801 0
M  V30 19490 C 1937.59 0.901061 -1.73609 0
M  V30 19491 C 1937.97 1.99842 -0.680163 0
M  V30 19492 O 1937.32 2.26484 0.302892 0
M  V30 19493 C 1937.53 1.45407 -3.17266 0
M  V30 19494 C 1938.87 1.92199 -3.78609 0
M  V30 19495 O 1939.9 1.55173 -3.20624 0
M  V30 19496 O 1938.76 2.60443 -4.80449 0
M  V30 19497 H 1935.85 0.425009 -0.709434 0
M  V30 19498 H 1938.4 0.14533 -1.69077 0
M  V30 19499 H 1937.17 0.664882 -3.8561 0
M  V30 19500 H 1936.79 2.27363 -3.26178 0
M  V30 19501 N 1937.79 1.51692 0.427485 0
M  V30 19502 C 1939.21 1.40086 0.764726 0
M  V30 19503 C 1939.41 0.490917 1.95428 0
M  V30 19504 O 1938.46 -0.0502236 2.5245 0
M  V30 19505 C 1939.77 2.82295 1.03586 0
M  V30 19506 C 1941.32 2.91513 1.1397 0
M  V30 19507 C 1941.8 4.34651 1.44371 0
M  V30 19508 N 1943.29 4.37802 1.51274 0
M  V30 19509 C 1944.02 5.45596 1.76388 0
M  V30 19510 N 1943.52 6.63536 1.99228 0
M  V30 19511 N 1945.31 5.33088 1.78252 0
M  V30 19512 H 1937.46 2.09399 -0.355809 0
M  V30 19513 H 1939.73 0.943043 -0.0968225 0
M  V30 19514 H 1939.43 3.50918 0.234369 0
M  V30 19515 H 1939.31 3.22223 1.96092 0
M  V30 19516 H 1941.69 2.23082 1.9318 0
M  V30 19517 H 1941.77 2.55068 0.193426 0
M  V30 19518 H 1941.42 5.03635 0.656841 0
M  V30 19519 H 1941.35 4.68617 2.4022 0
M  V30 19520 H 1943.84 3.52777 1.35487 0
M  V30 19521 H 1944.15 7.41477 2.17789 0
M  V30 19522 H 1942.5 6.66634 1.9653 0
M  V30 19523 H 1945.69 4.39931 1.59933 0
M  V30 19524 H 1945.86 6.17174 1.97486 0
M  V30 19525 N 1939.27 -0.683564 1.42004 0
M  V30 19526 C 1940.52 -1.44078 1.41725 0
M  V30 19527 C 1940.84 -1.94975 0.0315193 0
M  V30 19528 O 1940.11 -1.72494 -0.928579 0
M  V30 19529 H 1938.69 -0.534631 0.521707 0
M  V30 19530 H 1941.35 -0.808284 1.77349 0
M  V30 19531 H 1940.44 -2.29809 2.11174 0
M  V30 19532 N 1940.75 -1.28031 -0.919012 0
M  V30 19533 C 1942.02 -1.05588 -1.64653 0
M  V30 19534 C 1942.4 0.406513 -2.07149 0
M  V30 19535 O 1941.75 1.39153 -1.81242 0
M  V30 19536 C 1941.96 -2.0256 -2.84202 0
M  V30 19537 C 1943.31 -2.32414 -3.55343 0
M  V30 19538 O 1944.33 -2.00602 -2.94342 0
M  V30 19539 O 1943.19 -2.86683 -4.65269 0
M  V30 19540 H 1940.29 -0.40316 -0.722074 0
M  V30 19541 H 1942.83 -1.3933 -0.968781 0
M  V30 19542 H 1941.6 -3.01146 -2.49853 0
M  V30 19543 H 1941.23 -1.69433 -3.59692 0
M  V30 19544 N 1942.22 1.12672 -1.10194 0
M  V30 19545 C 1943.47 1.83763 -0.841168 0
M  V30 19546 C 1943.79 1.84369 0.635061 0
M  V30 19547 O 1943.06 1.30504 1.46101 0
M  V30 19548 H 1941.64 0.680461 -0.308192 0
M  V30 19549 H 1944.3 1.36447 -1.3917 0
M  V30 19550 H 1943.4 2.88034 -1.20178 0
M  V30 19551 N 1943.7 0.89031 1.30043 0
M  V30 19552 C 1944.63 0.305628 2.26144 0
M  V30 19553 C 1945.61 -0.576854 1.52024 0
M  V30 19554 O 1946.8 -0.525759 1.81019 0
M  V30 19555 C 1943.92 -0.56523 3.3395 0
M  V30 19556 C 1942.97 0.248651 4.25775 0
M  V30 19557 S 1943.8 1.64039 5.09756 0
M  V30 19558 C 1944.96 0.7762 6.21068 0
M  V30 19559 H 1945.19 1.12021 2.75388 0
M  V30 19560 H 1942.72 0.690064 1.38121 0
M  V30 19561 H 1944.68 -1.06193 3.96527 0
M  V30 19562 H 1943.34 -1.35396 2.8342 0
M  V30 19563 H 1942.54 -0.416165 5.02279 0
M  V30 19564 H 1942.14 0.678155 3.678 0
M  V30 19565 H 1944.43 -0.00451589 6.775 0
M  V30 19566 H 1945.37 1.51302 6.91747 0
M  V30 19567 H 1945.78 0.334741 5.63507 0
M  V30 19568 N 1945.18 -1.43489 0.651812 0
M  V30 19569 C 1946.41 -2.05882 0.172084 0
M  V30 19570 C 1946.82 -1.4893 -1.1669 0
M  V30 19571 O 1946.16 -0.614669 -1.73111 0
M  V30 19572 C 1946.22 -3.595 0.00499624 0
M  V30 19573 C 1945.89 -4.39026 1.26905 0
M  V30 19574 C 1946.88 -4.71177 2.19746 0
M  V30 19575 C 1944.57 -4.79058 1.51024 0
M  V30 19576 C 1946.56 -5.42267 3.35001 0
M  V30 19577 C 1944.25 -5.49893 2.66572 0
M  V30 19578 C 1945.25 -5.81419 3.58386 0
M  V30 19579 O 1944.94 -6.50807 4.71916 0
M  V30 19580 H 1944.67 -0.670436 0.0865532 0
M  V30 19581 H 1947.22 -1.85006 0.89229 0
M  V30 19582 H 1945.45 -3.78945 -0.770567 0
M  V30 19583 H 1947.14 -4.03596 -0.431912 0
M  V30 19584 H 1947.91 -4.4077 2.02354 0
M  V30 19585 H 1943.79 -4.53928 0.804408 0
M  V30 19586 H 1947.33 -5.66791 4.06686 0
M  V30 19587 H 1943.23 -5.79717 2.83899 0
M  V30 19588 H 1943.99 -6.69289 4.71163 0
M  V30 19589 N 1946.66 -0.393643 -1.52605 0
M  V30 19590 C 1947.6 0.439408 -2.26579 0
M  V30 19591 C 1948.57 1.05415 -1.28362 0
M  V30 19592 O 1949.76 1.08136 -1.57198 0
M  V30 19593 C 1946.9 1.55846 -3.07906 0
M  V30 19594 C 1946.01 0.966152 -4.21058 0
M  V30 19595 C 1945.15 2.05662 -4.89772 0
M  V30 19596 C 1944.19 1.44043 -5.9491 0
M  V30 19597 N 1943.32 2.47039 -6.57203 0
M  V30 19598 H 1948.16 -0.197864 -2.97342 0
M  V30 19599 H 1945.7 -0.109409 -1.46693 0
M  V30 19600 H 1947.66 2.21807 -3.53352 0
M  V30 19601 H 1946.29 2.16598 -2.39343 0
M  V30 19602 H 1945.34 0.196024 -3.79895 0
M  V30 19603 H 1946.65 0.475898 -4.96525 0
M  V30 19604 H 1945.81 2.79383 -5.38544 0
M  V30 19605 H 1944.55 2.58048 -4.13839 0
M  V30 19606 H 1943.55 0.688483 -5.45472 0
M  V30 19607 H 1944.78 0.924458 -6.72778 0
M  V30 19608 H 1942.72 2.98586 -5.84108 0
M  V30 19609 H 1942.64 2.02781 -7.28297 0
M  V30 19610 H 1943.91 3.20377 -7.10619 0
M  V30 19611 N 1948.14 1.57115 -0.123593 0
M  V30 19612 C 1949.38 1.95641 0.534082 0
M  V30 19613 C 1949.71 1.00726 1.66036 0
M  V30 19614 O 1948.99 0.045312 1.94447 0
M  V30 19615 C 1949.27 3.4407 1.06244 0
M  V30 19616 C 1949.13 4.49759 -0.0607321 0
M  V30 19617 C 1950.44 3.94451 1.95183 0
M  V30 19618 H 1947.56 0.71137 0.19267 0
M  V30 19619 H 1950.21 1.88944 -0.200083 0
M  V30 19620 H 1948.36 3.49909 1.68808 0
M  V30 19621 H 1950.03 4.56016 -0.69621 0
M  V30 19622 H 1948.27 4.27729 -0.723232 0
M  V30 19623 H 1948.94 5.50888 0.350271 0
M  V30 19624 H 1951.42 3.90945 1.42483 0
M  V30 19625 H 1950.29 4.98817 2.29069 0
M  V30 19626 H 1950.55 3.35417 2.88007 0
M  V30 19627 N 1949.61 -0.150187 1.56883 0
M  V30 19628 C 1950.52 -1.20504 2.01286 0
M  V30 19629 C 1951.54 -1.47204 0.927733 0
M  V30 19630 O 1952.72 -1.58937 1.23697 0
M  V30 19631 C 1949.78 -2.51932 2.38184 0
M  V30 19632 C 1948.84 -2.32906 3.60629 0
M  V30 19633 C 1948.07 -3.58067 3.95757 0
M  V30 19634 O 1948.3 -4.64119 3.31587 0
M  V30 19635 O 1947.23 -3.5092 4.89018 0
M  V30 19636 H 1951.06 -0.858075 2.91326 0
M  V30 19637 H 1948.64 -0.358669 1.45031 0
M  V30 19638 H 1950.52 -3.29423 2.6279 0
M  V30 19639 H 1949.2 -2.86165 1.513 0
M  V30 19640 H 1948.11 -1.53377 3.41213 0
M  V30 19641 H 1949.44 -2.0359 4.4812 0
M  V30 19642 N 1951.09 -1.51916 -0.419434 0
M  V30 19643 C 1952.32 -1.69057 -1.18758 0
M  V30 19644 C 1952.73 -0.395167 -1.85027 0
M  V30 19645 O 1952.07 0.637815 -1.72272 0
M  V30 19646 C 1952.14 -2.76257 -2.30049 0
M  V30 19647 C 1951.8 -4.18321 -1.84001 0
M  V30 19648 C 1952.8 -5.02508 -1.33347 0
M  V30 19649 C 1950.48 -4.64508 -1.91147 0
M  V30 19650 C 1952.48 -6.3095 -0.904498 0
M  V30 19651 C 1950.16 -5.92942 -1.47861 0
M  V30 19652 C 1951.16 -6.75991 -0.975967 0
M  V30 19653 O 1950.85 -8.02021 -0.549318 0
M  V30 19654 H 1950.58 -0.570077 -0.363302 0
M  V30 19655 H 1953.13 -1.99197 -0.50097 0
M  V30 19656 H 1951.36 -2.4147 -3.02042 0
M  V30 19657 H 1953.05 -2.82098 -2.91848 0
M  V30 19658 H 1953.82 -4.68021 -1.27206 0
M  V30 19659 H 1949.7 -3.99976 -2.29216 0
M  V30 19660 H 1953.24 -6.95722 -0.511474 0
M  V30 19661 H 1949.14 -6.2694 -1.53678 0
M  V30 19662 H 1949.91 -8.15724 -0.673558 0
M  V30 19663 N 1952.57 0.676023 -1.42365 0
M  V30 19664 C 1953.8 1.46436 -1.46164 0
M  V30 19665 C 1954.21 1.8866 -0.0726092 0
M  V30 19666 O 1953.57 1.58056 0.912395 0
M  V30 19667 C 1953.62 2.71428 -2.38766 0
M  V30 19668 O 1953.34 2.30976 -3.72266 0
M  V30 19669 C 1954.84 3.65001 -2.51573 0
M  V30 19670 H 1952.06 0.450625 -0.49717 0
M  V30 19671 H 1954.61 0.830748 -1.86866 0
M  V30 19672 H 1952.76 3.30981 -2.01321 0
M  V30 19673 H 1953.18 3.11682 -4.21846 0
M  V30 19674 H 1954.65 4.49432 -3.20492 0
M  V30 19675 H 1955.13 4.10818 -1.55322 0
M  V30 19676 H 1955.73 3.11342 -2.89735 0
M  V30 19677 N 1954.05 1.28517 0.912209 0
M  V30 19678 C 1955.46 1.14251 1.4766 0
M  V30 19679 C 1955.81 -0.266935 1.94376 0
M  V30 19680 O 1954.94 -1.16134 1.82598 0
M  V30 19681 C 1955.53 2.06792 2.6837 0
M  V30 19682 C 1954.09 1.96587 3.20984 0
M  V30 19683 C 1953.24 1.98444 1.93689 0
M  V30 19684 H 1956.19 1.41184 0.724769 0
M  V30 19685 H 1956.21 1.63282 3.43685 0
M  V30 19686 H 1955.72 3.09365 2.34339 0
M  V30 19687 H 1953.82 0.970565 3.59737 0
M  V30 19688 H 1953.93 2.83622 3.86129 0
M  V30 19689 H 1952.3 1.42872 2.10855 0
M  V30 19690 H 1953.08 3.02699 1.61951 0
M  V30 19691 N 1955.53 -1.12086 1.1079 0
M  V30 19692 C 1956.76 -1.87222 0.873594 0
M  V30 19693 C 1957.16 -1.80099 -0.579728 0
M  V30 19694 O 1956.51 -1.17551 -1.41165 0
M  V30 19695 C 1956.57 -3.37136 1.24817 0
M  V30 19696 C 1956.23 -3.68031 2.70928 0
M  V30 19697 C 1957.23 -3.66084 3.69159 0
M  V30 19698 C 1954.92 -3.9725 3.07405 0
M  V30 19699 C 1956.91 -3.9292 5.01889 0
M  V30 19700 C 1954.6 -4.23745 4.40322 0
M  V30 19701 C 1955.59 -4.21567 5.37373 0
M  V30 19702 O 1955.28 -4.47403 6.67897 0
M  V30 19703 H 1955.01 -0.599114 0.31311 0
M  V30 19704 H 1957.57 -1.42723 1.47714 0
M  V30 19705 H 1955.8 -3.82207 0.587742 0
M  V30 19706 H 1957.49 -3.93623 0.990758 0
M  V30 19707 H 1958.25 -3.4357 3.42323 0
M  V30 19708 H 1954.13 -3.98085 2.32486 0
M  V30 19709 H 1957.68 -3.91136 5.77632 0
M  V30 19710 H 1953.57 -4.45734 4.66895 0
M  V30 19711 H 1954.34 -4.65004 6.73583 0
M  V30 19712 N 1957 -0.897194 -1.29569 0
M  V30 19713 C 1957.91 -0.377551 -2.31542 0
M  V30 19714 C 1958.93 0.526431 -1.65845 0
M  V30 19715 O 1960.11 0.416614 -1.97044 0
M  V30 19716 C 1957.17 0.388744 -3.44514 0
M  V30 19717 C 1956.23 -0.546458 -4.25808 0
M  V30 19718 C 1955.47 0.183361 -5.33385 0
M  V30 19719 O 1955.69 1.40767 -5.52757 0
M  V30 19720 O 1954.62 -0.472827 -6.0004 0
M  V30 19721 H 1958.45 -1.22348 -2.77965 0
M  V30 19722 H 1956.03 -0.661433 -1.33961 0
M  V30 19723 H 1957.92 0.822167 -4.13302 0
M  V30 19724 H 1956.59 1.21077 -3.00203 0
M  V30 19725 H 1955.5 -1.02894 -3.59671 0
M  V30 19726 H 1956.83 -1.33483 -4.73754 0
M  V30 19727 N 1958.48 1.43142 -0.659413 0
M  V30 19728 C 1959.39 2.34582 0.0288714 0
M  V30 19729 C 1960.41 1.54232 0.805512 0
M  V30 19730 O 1961.58 1.8686 0.751347 0
M  V30 19731 C 1958.65 3.32587 0.97912 0
M  V30 19732 C 1957.71 4.2884 0.198725 0
M  V30 19733 C 1956.94 5.22163 1.10371 0
M  V30 19734 O 1957.17 5.20054 2.34308 0
M  V30 19735 O 1956.1 5.99168 0.572785 0
M  V30 19736 H 1959.93 2.94945 -0.723947 0
M  V30 19737 H 1957.51 1.43386 -0.419609 0
M  V30 19738 H 1959.39 3.92836 1.52505 0
M  V30 19739 H 1958.07 2.74719 1.71206 0
M  V30 19740 H 1956.98 3.72052 -0.390942 0
M  V30 19741 H 1958.31 4.89707 -0.494774 0
M  V30 19742 N 1959.96 0.40173 1.52394 0
M  V30 19743 C 1961.21 -0.17611 2.01331 0
M  V30 19744 C 1961.53 -1.46274 1.28953 0
M  V30 19745 O 1960.8 -1.91492 0.413249 0
M  V30 19746 H 1959.38 -0.0680697 0.743892 0
M  V30 19747 H 1962.04 0.536274 1.87377 0
M  V30 19748 H 1961.14 -0.377497 3.09809 0
M  V30 19749 N 1961.44 -1.57047 0.131923 0
M  V30 19750 C 1962.37 -2.19006 -0.809859 0
M  V30 19751 C 1963.35 -1.13384 -1.26799 0
M  V30 19752 O 1964.53 -1.4167 -1.32827 0
M  V30 19753 C 1961.66 -2.79973 -2.05505 0
M  V30 19754 C 1960.62 -3.9129 -1.73424 0
M  V30 19755 C 1959.94 -4.39123 -3.05081 0
M  V30 19756 C 1961.24 -5.12783 -0.992535 0
M  V30 19757 H 1962.94 -2.97958 -0.293522 0
M  V30 19758 H 1960.48 -1.4332 -0.13974 0
M  V30 19759 H 1962.44 -3.2198 -2.71858 0
M  V30 19760 H 1961.16 -1.9833 -2.59486 0
M  V30 19761 H 1959.82 -3.49879 -1.09456 0
M  V30 19762 H 1959.47 -3.54322 -3.57022 0
M  V30 19763 H 1959.17 -5.14197 -2.84385 0
M  V30 19764 H 1960.69 -4.8379 -3.72531 0
M  V30 19765 H 1962.11 -5.51728 -1.55785 0
M  V30 19766 H 1960.5 -5.93522 -0.886062 0
M  V30 19767 H 1961.57 -4.84896 0.0184538 0
M  V30 19768 N 1962.92 0.141865 -1.5696 0
M  V30 19769 C 1963.87 1.18031 -1.95071 0
M  V30 19770 C 1964.85 1.38281 -0.822629 0
M  V30 19771 O 1966.04 1.39757 -1.08614 0
M  V30 19772 C 1963.17 2.51269 -2.33921 0
M  V30 19773 C 1962.26 2.3459 -3.53311 0
M  V30 19774 N 1962.65 1.87676 -4.69693 0
M  V30 19775 C 1960.95 2.65324 -3.58496 0
M  V30 19776 C 1961.65 1.84163 -5.51778 0
M  V30 19777 N 1960.62 2.27667 -4.93628 0
M  V30 19778 H 1964.43 0.809774 -2.82524 0
M  V30 19779 H 1961.94 0.349868 -1.58587 0
M  V30 19780 H 1963.94 3.26345 -2.59431 0
M  V30 19781 H 1962.6 2.891 -1.47821 0
M  V30 19782 H 1963.61 1.57565 -4.9335 0
M  V30 19783 H 1960.28 3.06996 -2.82948 0
M  V30 19784 H 1961.67 1.49341 -6.55093 0
M  V30 19785 N 1964.39 1.52136 0.411372 0
M  V30 19786 C 1965.62 1.70223 1.18486 0
M  V30 19787 C 1966.04 0.409966 1.83578 0
M  V30 19788 O 1965.4 -0.632366 1.69914 0
M  V30 19789 C 1965.45 2.83744 2.22535 0
M  V30 19790 O 1964.55 2.49157 3.28625 0
M  V30 19791 H 1963.9 0.566741 0.345978 0
M  V30 19792 H 1966.43 1.98829 0.482526 0
M  V30 19793 H 1966.44 3.08591 2.669 0
M  V30 19794 H 1965.11 3.77503 1.74541 0
M  V30 19795 H 1963.69 2.34974 2.89554 0
M  V30 19796 N 1965.87 -0.668464 1.42721 0
M  V30 19797 C 1967.12 -1.43061 1.43741 0
M  V30 19798 C 1967.45 -1.9412 0.0558656 0
M  V30 19799 O 1966.73 -1.71317 -0.920904 0
M  V30 19800 C 1967.01 -2.62307 2.46712 0
M  V30 19801 C 1966.86 -2.16839 3.94082 0
M  V30 19802 C 1968.18 -3.64525 2.46596 0
M  V30 19803 H 1965.3 -0.518854 0.523412 0
M  V30 19804 H 1967.94 -0.759144 1.74175 0
M  V30 19805 H 1966.09 -3.19593 2.20891 0
M  V30 19806 H 1967.77 -1.64672 4.30907 0
M  V30 19807 H 1966.01 -1.48352 4.07645 0
M  V30 19808 H 1966.68 -3.02521 4.6172 0
M  V30 19809 H 1969.16 -3.16968 2.69574 0
M  V30 19810 H 1968.03 -4.45532 3.20613 0
M  V30 19811 H 1968.29 -4.16084 1.49421 0
M  V30 19812 N 1967.35 -1.28999 -0.905381 0
M  V30 19813 C 1968.63 -1.07329 -1.63523 0
M  V30 19814 C 1969.01 0.384519 -2.07568 0
M  V30 19815 O 1968.36 1.37223 -1.82708 0
M  V30 19816 C 1968.57 -2.05563 -2.82037 0
M  V30 19817 C 1969.91 -2.3617 -3.52858 0
M  V30 19818 O 1970.94 -2.03713 -2.92198 0
M  V30 19819 O 1969.8 -2.91601 -4.62202 0
M  V30 19820 H 1966.89 -0.410796 -0.717757 0
M  V30 19821 H 1969.44 -1.40349 -0.953949 0
M  V30 19822 H 1968.21 -3.03779 -2.46645 0
M  V30 19823 H 1967.83 -1.73238 -3.57875 0
M  V30 19824 N 1968.83 1.11497 -1.11383 0
M  V30 19825 C 1970.08 1.83494 -0.863592 0
M  V30 19826 C 1970.41 1.84395 0.609259 0
M  V30 19827 O 1969.68 1.2966 1.44978 0
M  V30 19828 C 1969.97 3.30701 -1.42509 0
M  V30 19829 C 1969.82 3.38197 -2.96552 0
M  V30 19830 C 1971.14 4.26756 -1.07553 0
M  V30 19831 H 1968.26 0.666209 -0.315173 0
M  V30 19832 H 1970.9 1.30745 -1.37861 0
M  V30 19833 H 1969.05 3.75752 -0.987053 0
M  V30 19834 H 1970.72 3.01709 -3.48955 0
M  V30 19835 H 1968.96 2.78436 -3.3265 0
M  V30 19836 H 1969.64 4.41804 -3.30927 0
M  V30 19837 H 1972.11 3.89882 -1.45367 0
M  V30 19838 H 1970.99 5.28143 -1.49519 0
M  V30 19839 H 1971.25 4.42098 0.0137773 0
M  V30 19840 N 1970.31 0.904053 1.29092 0
M  V30 19841 C 1971.54 0.547758 1.99517 0
M  V30 19842 C 1971.95 -0.868589 1.67633 0
M  V30 19843 O 1971.31 -1.57394 0.923758 0
M  V30 19844 C 1971.36 0.735683 3.53935 0
M  V30 19845 O 1971.08 2.09629 3.84691 0
M  V30 19846 C 1972.58 0.38492 4.41626 0
M  V30 19847 H 1969.8 0.209762 0.63737 0
M  V30 19848 H 1972.34 1.2146 1.64523 0
M  V30 19849 H 1970.5 0.11597 3.87226 0
M  V30 19850 H 1970.91 2.12883 4.79355 0
M  V30 19851 H 1972.39 0.567226 5.49078 0
M  V30 19852 H 1972.86 -0.678298 4.33931 0
M  V30 19853 H 1973.47 0.981759 4.13813 0
M  V30 19854 N 1971.79 -1.4279 0.666995 0
M  V30 19855 C 1973.02 -2.05688 0.193911 0
M  V30 19856 C 1973.42 -1.50159 -1.15103 0
M  V30 19857 O 1972.77 -0.632996 -1.7245 0
M  V30 19858 C 1972.83 -3.59474 0.0431257 0
M  V30 19859 C 1972.49 -4.37656 1.31554 0
M  V30 19860 C 1973.49 -4.6882 2.24731 0
M  V30 19861 C 1971.17 -4.7743 1.56097 0
M  V30 19862 C 1973.17 -5.38683 3.40734 0
M  V30 19863 C 1970.86 -5.47035 2.72389 0
M  V30 19864 C 1971.85 -5.77586 3.64532 0
M  V30 19865 O 1971.54 -6.45765 4.78792 0
M  V30 19866 H 1971.27 -0.66948 0.0936592 0
M  V30 19867 H 1973.83 -1.8405 0.911863 0
M  V30 19868 H 1972.06 -3.79741 -0.730331 0
M  V30 19869 H 1973.75 -4.04031 -0.389081 0
M  V30 19870 H 1974.51 -4.38599 2.07018 0
M  V30 19871 H 1970.39 -4.53049 0.852508 0
M  V30 19872 H 1973.94 -5.62446 4.12674 0
M  V30 19873 H 1969.83 -5.76673 2.90032 0
M  V30 19874 H 1970.6 -6.64254 4.78236 0
M  V30 19875 N 1973.26 -0.409806 -1.52179 0
M  V30 19876 C 1974.54 0.224342 -1.94309 0
M  V30 19877 C 1974.92 1.62561 -1.34674 0
M  V30 19878 O 1974.27 2.22438 -0.522817 0
M  V30 19879 C 1974.48 0.22999 -3.48241 0
M  V30 19880 C 1975.83 0.449011 -4.22219 0
M  V30 19881 O 1976.85 0.309316 -3.54854 0
M  V30 19882 O 1975.71 0.724419 -5.41677 0
M  V30 19883 H 1972.8 0.144759 -0.814232 0
M  V30 19884 H 1975.35 -0.465799 -1.63182 0
M  V30 19885 H 1974.12 -0.750731 -3.84031 0
M  V30 19886 H 1973.74 0.964201 -3.85732 0
M  V30 19887 N 1974.74 1.56975 -0.14025 0
M  V30 19888 C 1975.99 1.95519 0.51153 0
M  V30 19889 C 1976.31 1.02572 1.65843 0
M  V30 19890 O 1975.58 0.0859828 1.95711 0
M  V30 19891 H 1974.16 0.721914 0.191961 0
M  V30 19892 H 1976.82 1.9372 -0.214169 0
M  V30 19893 H 1975.92 2.99078 0.892131 0
M  V30 19894 N 1976.22 -0.133539 1.57033 0
M  V30 19895 C 1977.44 -0.862393 1.8862 0
M  V30 19896 C 1977.87 -1.73328 0.730696 0
M  V30 19897 O 1977.23 -1.78466 -0.319297 0
M  V30 19898 C 1977.28 -1.68381 3.18873 0
M  V30 19899 O 1976.38 -2.78939 3.03755 0
M  V30 19900 H 1975.72 -0.239391 0.619345 0
M  V30 19901 H 1978.25 -0.120306 2.04246 0
M  V30 19902 H 1978.26 -2.07606 3.51232 0
M  V30 19903 H 1976.94 -1.0444 4.02573 0
M  V30 19904 H 1975.51 -2.43022 2.82833 0
M  V30 19905 N 1977.7 -1.52352 -0.403298 0
M  V30 19906 C 1979.11 -1.58796 -0.981864 0
M  V30 19907 C 1979.46 -0.432029 -1.91384 0
M  V30 19908 O 1978.58 0.446835 -2.11736 0
M  V30 19909 C 1979.18 -2.87807 -1.78752 0
M  V30 19910 C 1977.74 -2.96711 -2.31602 0
M  V30 19911 C 1976.89 -2.53787 -1.11748 0
M  V30 19912 H 1979.84 -1.57638 -0.18333 0
M  V30 19913 H 1979.86 -2.73488 -2.64546 0
M  V30 19914 H 1979.37 -3.71919 -1.10896 0
M  V30 19915 H 1977.47 -2.17105 -3.02814 0
M  V30 19916 H 1977.58 -4.0107 -2.62069 0
M  V30 19917 H 1975.95 -2.07771 -1.47321 0
M  V30 19918 H 1976.73 -3.40278 -0.45449 0
M  V30 19919 N 1979.18 0.660885 -1.43074 0
M  V30 19920 C 1980.42 1.42296 -1.44498 0
M  V30 19921 C 1980.75 1.94087 -0.0661594 0
M  V30 19922 O 1980.03 1.71803 0.911806 0
M  V30 19923 C 1980.31 2.60995 -2.481 0
M  V30 19924 C 1980.17 2.14746 -3.95227 0
M  V30 19925 C 1981.48 3.63212 -2.48526 0
M  V30 19926 H 1978.6 0.516071 -0.526156 0
M  V30 19927 H 1981.25 0.749896 -1.74575 0
M  V30 19928 H 1979.4 3.18417 -2.22583 0
M  V30 19929 H 1981.07 1.62384 -4.31774 0
M  V30 19930 H 1979.31 1.46188 -4.08426 0
M  V30 19931 H 1979.98 3.00068 -4.63318 0
M  V30 19932 H 1982.46 3.15534 -2.71251 0
M  V30 19933 H 1981.33 4.43825 -3.22971 0
M  V30 19934 H 1981.59 4.15285 -1.51626 0
M  V30 19935 N 1980.65 1.29477 0.898527 0
M  V30 19936 C 1982.07 1.15811 1.4644 0
M  V30 19937 C 1982.42 -0.246304 1.94648 0
M  V30 19938 O 1981.54 -1.1419 1.83819 0
M  V30 19939 C 1982.14 2.09627 2.66161 0
M  V30 19940 C 1980.7 1.9998 3.18881 0
M  V30 19941 C 1979.84 2.00487 1.91573 0
M  V30 19942 H 1982.79 1.41944 0.709754 0
M  V30 19943 H 1982.81 1.66918 3.41934 0
M  V30 19944 H 1982.33 3.11834 2.31044 0
M  V30 19945 H 1980.43 1.00867 3.58687 0
M  V30 19946 H 1980.54 2.87701 3.83099 0
M  V30 19947 H 1978.9 1.451 2.09327 0
M  V30 19948 H 1979.69 3.044 1.58731 0
M  V30 19949 N 1982.13 -1.10905 1.11972 0
M  V30 19950 C 1983.36 -1.87095 0.894991 0
M  V30 19951 C 1983.78 -1.79875 -0.550144 0
M  V30 19952 O 1983.14 -1.16517 -1.38901 0
M  V30 19953 C 1983.19 -3.33634 1.36825 0
M  V30 19954 O 1982.29 -4.08802 0.543553 0
M  V30 19955 H 1981.63 -0.580734 0.321938 0
M  V30 19956 H 1984.16 -1.40152 1.49059 0
M  V30 19957 H 1984.17 -3.84482 1.36519 0
M  V30 19958 H 1982.85 -3.38205 2.42054 0
M  V30 19959 H 1981.43 -3.67824 0.613185 0
M  V30 19960 N 1983.61 -0.910886 -1.2861 0
M  V30 19961 C 1984.84 -0.557684 -1.99761 0
M  V30 19962 C 1985.26 0.853148 -1.67639 0
M  V30 19963 O 1984.62 1.5697 -0.907192 0
M  V30 19964 C 1984.67 -0.770188 -3.52279 0
M  V30 19965 O 1983.77 0.172155 -4.12041 0
M  V30 19966 H 1983.11 -0.216573 -0.627688 0
M  V30 19967 H 1985.64 -1.22554 -1.63834 0
M  V30 19968 H 1985.65 -0.679176 -4.02307 0
M  V30 19969 H 1984.33 -1.79869 -3.74993 0
M  V30 19970 H 1982.9 0.0326535 -3.72886 0
M  V30 19971 N 1985.09 1.42434 -0.674558 0
M  V30 19972 C 1986.5 1.84678 -0.274015 0
M  V30 19973 C 1986.85 1.56464 1.18378 0
M  V30 19974 O 1985.98 1.02434 1.90621 0
M  V30 19975 C 1986.57 3.3523 -0.490545 0
M  V30 19976 C 1985.13 3.76124 -0.144124 0
M  V30 19977 C 1984.28 2.66013 -0.783107 0
M  V30 19978 H 1987.23 1.32284 -0.876737 0
M  V30 19979 H 1987.25 3.79628 0.257403 0
M  V30 19980 H 1986.76 3.55733 -1.55163 0
M  V30 19981 H 1984.86 3.61228 0.913523 0
M  V30 19982 H 1984.97 4.75521 -0.584478 0
M  V30 19983 H 1983.34 2.53796 -0.214457 0
M  V30 19984 H 1984.12 2.89339 -1.84764 0
M  V30 19985 N 1986.57 0.417871 1.51959 0
M  V30 19986 C 1987.81 -0.155052 2.01906 0
M  V30 19987 C 1988.14 -1.44397 1.30307 0
M  V30 19988 O 1987.4 -1.91556 0.400588 0
M  V30 19989 C 1987.7 -0.440779 3.54672 0
M  V30 19990 C 1987.36 0.759981 4.44449 0
M  V30 19991 C 1986.02 1.08932 4.68708 0
M  V30 19992 C 1988.38 1.56193 4.97246 0
M  V30 19993 C 1985.7 2.22164 5.4301 0
M  V30 19994 C 1988.06 2.68508 5.72788 0
M  V30 19995 C 1986.72 3.01918 5.95316 0
M  V30 19996 H 1985.99 -0.0567377 0.738825 0
M  V30 19997 H 1988.64 0.561082 1.83096 0
M  V30 19998 H 1986.94 -1.23858 3.71707 0
M  V30 19999 H 1988.64 -0.897174 3.90835 0
M  V30 20000 H 1985.23 0.49332 4.25751 0
M  V30 20001 H 1989.41 1.32071 4.78405 0
M  V30 20002 H 1984.67 2.48387 5.58672 0
M  V30 20003 H 1988.84 3.3103 6.12692 0
M  V30 20004 H 1986.47 3.89774 6.52672 0
M  V30 20005 N 1988.04 -1.56898 0.148573 0
M  V30 20006 C 1988.98 -2.13971 -0.821526 0
M  V30 20007 C 1989.99 -1.08955 -1.20965 0
M  V30 20008 O 1991.18 -1.36226 -1.15346 0
M  V30 20009 C 1988.28 -2.6488 -2.11404 0
M  V30 20010 C 1987.45 -3.94313 -1.89303 0
M  V30 20011 C 1986.51 -4.30517 -3.02558 0
M  V30 20012 O 1985.54 -4.98812 -2.74181 0
M  V30 20013 N 1986.74 -3.90226 -4.29772 0
M  V30 20014 H 1989.5 -2.97836 -0.333735 0
M  V30 20015 H 1987.06 -1.61862 -0.0349479 0
M  V30 20016 H 1989.06 -2.86112 -2.8622 0
M  V30 20017 H 1987.63 -1.85731 -2.51441 0
M  V30 20018 H 1986.85 -3.81692 -0.985147 0
M  V30 20019 H 1988.13 -4.7889 -1.71877 0
M  V30 20020 H 1987.53 -3.352 -4.55694 0
M  V30 20021 H 1986.09 -4.16506 -5.01364 0
M  V30 20022 N 1989.52 0.125209 -1.57102 0
M  V30 20023 C 1990.77 0.835321 -1.84798 0
M  V30 20024 C 1991.1 1.79819 -0.73341 0
M  V30 20025 O 1990.38 1.92737 0.261268 0
M  V30 20026 C 1990.66 1.59069 -3.23062 0
M  V30 20027 C 1990.51 0.647841 -4.4511 0
M  V30 20028 C 1991.83 2.54829 -3.58818 0
M  V30 20029 H 1988.95 0.302222 -0.672184 0
M  V30 20030 H 1991.59 0.0997638 -1.89738 0
M  V30 20031 H 1989.74 2.21772 -3.18982 0
M  V30 20032 H 1991.41 0.0301293 -4.6129 0
M  V30 20033 H 1989.66 -0.041074 -4.33781 0
M  V30 20034 H 1990.33 1.21288 -5.3851 0
M  V30 20035 H 1992.8 2.02233 -3.63649 0
M  V30 20036 H 1991.68 3.04716 -4.56551 0
M  V30 20037 H 1991.94 3.37205 -2.85911 0
M  V30 20038 N 1991 1.52564 0.395213 0
M  V30 20039 C 1992.41 1.59315 0.973429 0
M  V30 20040 C 1992.76 0.442173 1.91152 0
M  V30 20041 O 1991.89 -0.4356 2.1197 0
M  V30 20042 C 1992.48 2.88751 1.77224 0
M  V30 20043 C 1991.04 2.97935 2.30026 0
M  V30 20044 C 1990.19 2.54376 1.10401 0
M  V30 20045 H 1993.14 1.57733 0.174968 0
M  V30 20046 H 1993.16 2.74887 2.63091 0
M  V30 20047 H 1992.67 3.72502 1.08922 0
M  V30 20048 H 1990.77 2.18708 3.01658 0
M  V30 20049 H 1990.89 4.02454 2.59938 0
M  V30 20050 H 1989.25 2.08549 1.46217 0
M  V30 20051 H 1990.03 3.40514 0.436438 0
M  V30 20052 N 1992.48 -0.653289 1.43422 0
M  V30 20053 C 1993.72 -1.41528 1.4525 0
M  V30 20054 C 1994.06 -1.94049 0.0764514 0
M  V30 20055 O 1993.33 -1.72284 -0.902682 0
M  V30 20056 C 1993.62 -2.59676 2.49481 0
M  V30 20057 C 1993.47 -2.12647 3.9636 0
M  V30 20058 C 1994.79 -3.61889 2.50449 0
M  V30 20059 H 1991.91 -0.513273 0.528885 0
M  V30 20060 H 1994.55 -0.740628 1.74971 0
M  V30 20061 H 1992.7 -3.17232 2.24268 0
M  V30 20062 H 1994.37 -1.60092 4.32629 0
M  V30 20063 H 1992.61 -1.4402 4.09195 0
M  V30 20064 H 1993.28 -2.97607 4.64902 0
M  V30 20065 H 1995.76 -3.14091 2.72921 0
M  V30 20066 H 1994.64 -4.42106 3.2532 0
M  V30 20067 H 1994.9 -4.14475 1.53826 0
M  V30 20068 N 1993.96 -1.29952 -0.891648 0
M  V30 20069 C 1995.18 -1.21297 -1.67615 0
M  V30 20070 C 1995.6 0.225203 -1.87452 0
M  V30 20071 O 1994.96 1.14977 -1.41727 0
M  V30 20072 C 1995.01 -1.93074 -3.05622 0
M  V30 20073 O 1994.73 -3.31276 -2.86684 0
M  V30 20074 C 1996.23 -1.90996 -4.00044 0
M  V30 20075 H 1993.45 -0.420057 -0.523253 0
M  V30 20076 H 1995.99 -1.71463 -1.11448 0
M  V30 20077 H 1994.15 -1.46724 -3.5854 0
M  V30 20078 H 1994.56 -3.67538 -3.74187 0
M  V30 20079 H 1996.04 -2.45768 -4.94269 0
M  V30 20080 H 1996.51 -0.887331 -4.30143 0
M  V30 20081 H 1997.12 -2.37127 -3.53059 0
M  V30 20082 N 1995.44 1.1031 -1.12559 0
M  V30 20083 C 1996.35 2.20257 -0.807721 0
M  V30 20084 C 1997.36 1.728 0.203997 0
M  V30 20085 O 1998.54 2.01365 0.0372766 0
M  V30 20086 C 1995.6 3.4566 -0.26839 0
M  V30 20087 C 1994.66 4.07844 -1.3402 0
M  V30 20088 C 1993.9 5.27261 -0.826511 0
M  V30 20089 O 1994.12 5.6939 0.339244 0
M  V30 20090 O 1993.05 5.80335 -1.5967 0
M  V30 20091 H 1996.88 2.49882 -1.72606 0
M  V30 20092 H 1994.46 1.19071 -0.902352 0
M  V30 20093 H 1996.35 4.21391 0.0274321 0
M  V30 20094 H 1995.02 3.17658 0.622489 0
M  V30 20095 H 1993.93 3.33791 -1.68921 0
M  V30 20096 H 1995.26 4.40051 -2.20489 0
M  V30 20097 N 1996.91 0.917694 1.28125 0
M  V30 20098 C 1998.16 0.551804 1.94421 0
M  V30 20099 C 1998.48 -0.908163 1.72561 0
M  V30 20100 O 1997.75 -1.64255 1.06758 0
M  V30 20101 H 1996.33 0.201081 0.719427 0
M  V30 20102 H 1998.99 1.16791 1.56032 0
M  V30 20103 H 1998.09 0.749587 3.02965 0
M  V30 20104 N 1998.39 -1.42074 0.682102 0
M  V30 20105 C 1999.63 -2.03304 0.211386 0
M  V30 20106 C 2000 -1.52802 -1.16256 0
M  V30 20107 O 2001.2 -2.05867 -1.72836 0
M  V30 20108 C 1999.47 -3.5651 0.252125 0
M  V30 20109 S 2001.03 -4.38555 -0.146519 0
M  V30 20110 H 1997.84 -0.70575 0.0862467 0
M  V30 20111 H 2000.45 -1.73713 0.896882 0
M  V30 20112 H 1999.15 -3.90762 1.25432 0
M  V30 20113 H 1998.68 -3.90784 -0.452966 0
M  V30 20114 H 2000.7 -4.76684 -1.37794 0
M  V30 20115 N 1999.87 -0.425924 -1.51735 0
M  V30 20116 C 2001.15 0.203721 -1.94536 0
M  V30 20117 C 2001.53 1.61124 -1.3639 0
M  V30 20118 O 2000.87 2.21871 -0.54638 0
M  V30 20119 C 2001.08 0.193041 -3.48466 0
M  V30 20120 C 2002.43 0.404204 -4.22672 0
M  V30 20121 O 2003.46 0.271662 -3.55163 0
M  V30 20122 O 2002.32 0.666926 -5.42415 0
M  V30 20123 H 1999.41 0.136115 -0.815722 0
M  V30 20124 H 2001.96 -0.48308 -1.62679 0
M  V30 20125 H 2000.73 -0.791421 -3.83213 0
M  V30 20126 H 2000.35 0.923235 -3.86733 0
M  V30 20127 N 2001.35 1.56817 -0.156891 0
M  V30 20128 C 2002.76 1.83151 0.362283 0
M  V30 20129 C 2003.11 1.07606 1.64059 0
M  V30 20130 O 2002.23 0.324479 2.13953 0
M  V30 20131 C 2002.83 3.32228 0.664072 0
M  V30 20132 C 2001.39 3.59109 1.12773 0
M  V30 20133 C 2000.54 2.76861 0.155995 0
M  V30 20134 H 2003.49 1.54048 -0.381419 0
M  V30 20135 H 2003.51 3.48921 1.5177 0
M  V30 20136 H 2003.02 3.87184 -0.266475 0
M  V30 20137 H 2001.12 3.0955 2.07388 0
M  V30 20138 H 2001.23 4.67523 1.04687 0
M  V30 20139 H 1999.6 2.46251 0.650561 0
M  V30 20140 H 2000.38 3.34592 -0.768318 0
M  V30 20141 N 2002.83 -0.116876 1.57166 0
M  V30 20142 C 2004.05 -0.842338 1.89524 0
M  V30 20143 C 2004.48 -1.72543 0.749039 0
M  V30 20144 O 2003.83 -1.78795 -0.30035 0
M  V30 20145 C 2003.88 -1.64989 3.20641 0
M  V30 20146 O 2002.99 -2.75701 3.06696 0
M  V30 20147 H 2002.33 -0.232809 0.621849 0
M  V30 20148 H 2004.86 -0.0986366 2.04362 0
M  V30 20149 H 2004.87 -2.03869 3.53414 0
M  V30 20150 H 2003.54 -1.00164 4.03658 0
M  V30 20151 H 2002.12 -2.40009 2.85395 0
M  V30 20152 N 2004.3 -1.52772 -0.387116 0
M  V30 20153 C 2005.72 -1.42064 -0.727316 0
M  V30 20154 C 2005.92 -0.542559 -1.94058 0
M  V30 20155 O 2004.98 -0.0167267 -2.52494 0
M  V30 20156 C 2006.29 -2.84942 -0.960651 0
M  V30 20157 C 2007.84 -2.94432 -1.06201 0
M  V30 20158 C 2008.31 -4.38326 -1.32796 0
M  V30 20159 N 2009.8 -4.41659 -1.39613 0
M  V30 20160 C 2010.54 -5.50081 -1.6186 0
M  V30 20161 N 2010.03 -6.68585 -1.81566 0
M  V30 20162 N 2011.83 -5.37627 -1.64055 0
M  V30 20163 H 2003.98 -2.08382 0.411202 0
M  V30 20164 H 2006.24 -0.940144 0.121792 0
M  V30 20165 H 2005.95 -3.51416 -0.141246 0
M  V30 20166 H 2005.82 -3.27309 -1.87479 0
M  V30 20167 H 2008.21 -2.28125 -1.87198 0
M  V30 20168 H 2008.29 -2.55491 -0.125731 0
M  V30 20169 H 2007.93 -5.05199 -0.523081 0
M  V30 20170 H 2007.86 -4.74821 -2.27711 0
M  V30 20171 H 2010.35 -3.56245 -1.26086 0
M  V30 20172 H 2010.67 -7.4699 -1.98053 0
M  V30 20173 H 2009.01 -6.7161 -1.78786 0
M  V30 20174 H 2012.2 -4.44016 -1.48213 0
M  V30 20175 H 2012.38 -6.22193 -1.81053 0
M  V30 20176 N 2005.78 0.645673 -1.43767 0
M  V30 20177 C 2007.03 1.40756 -1.45999 0
M  V30 20178 C 2007.36 1.94006 -0.0867413 0
M  V30 20179 O 2006.64 1.72761 0.893532 0
M  V30 20180 C 2006.92 2.58349 -2.50854 0
M  V30 20181 C 2006.77 2.10542 -3.97482 0
M  V30 20182 C 2008.09 3.60555 -2.52364 0
M  V30 20183 H 2005.21 0.510461 -0.5316 0
M  V30 20184 H 2007.85 0.731338 -1.75361 0
M  V30 20185 H 2006 3.16038 -2.25947 0
M  V30 20186 H 2007.67 1.57795 -4.33472 0
M  V30 20187 H 2005.92 1.41848 -4.09953 0
M  V30 20188 H 2006.59 2.95137 -4.66474 0
M  V30 20189 H 2009.06 3.12639 -2.74583 0
M  V30 20190 H 2007.94 4.40375 -3.2766 0
M  V30 20191 H 2008.2 4.13654 -1.56022 0
M  V30 20192 N 2007.26 1.30423 0.884744 0
M  V30 20193 C 2008.68 1.08759 1.16806 0
M  V30 20194 C 2008.88 -0.151512 2.0093 0
M  V30 20195 O 2007.93 -0.84506 2.37939 0
M  V30 20196 C 2009.24 2.35123 1.87451 0
M  V30 20197 C 2010.79 2.40589 2.00214 0
M  V30 20198 C 2011.27 3.66796 2.74271 0
M  V30 20199 N 2012.76 3.67605 2.81817 0
M  V30 20200 C 2013.49 4.61948 3.39694 0
M  V30 20201 N 2012.99 5.66635 3.98618 0
M  V30 20202 N 2014.78 4.49492 3.37511 0
M  V30 20203 H 2006.93 2.09917 0.32383 0
M  V30 20204 H 2009.2 0.925345 0.206011 0
M  V30 20205 H 2008.9 3.25549 1.33081 0
M  V30 20206 H 2008.78 2.43788 2.87832 0
M  V30 20207 H 2011.16 1.50641 2.53754 0
M  V30 20208 H 2011.24 2.35899 0.989199 0
M  V30 20209 H 2010.89 4.57103 2.21403 0
M  V30 20210 H 2010.82 3.68748 3.75942 0
M  V30 20211 H 2013.31 2.9192 2.39981 0
M  V30 20212 H 2013.62 6.34723 4.40847 0
M  V30 20213 H 2011.97 5.70427 3.97037 0
M  V30 20214 H 2015.16 3.6689 2.90705 0
M  V30 20215 H 2015.33 5.23197 3.8232 0
M  V30 20216 N 2008.74 -1.09711 1.13142 0
M  V30 20217 C 2009.98 -1.82097 0.892675 0
M  V30 20218 C 2010.32 -1.85341 -0.579846 0
M  V30 20219 O 2009.59 -1.3195 -1.42897 0
M  V30 20220 C 2009.87 -3.28392 1.47752 0
M  V30 20221 C 2009.73 -3.33436 3.01895 0
M  V30 20222 C 2011.05 -4.24991 1.14329 0
M  V30 20223 H 2008.17 -0.661111 0.325732 0
M  V30 20224 H 2010.81 -1.28535 1.39924 0
M  V30 20225 H 2008.96 -3.74134 1.04671 0
M  V30 20226 H 2010.63 -2.96119 3.53711 0
M  V30 20227 H 2008.87 -2.73109 3.37037 0
M  V30 20228 H 2009.54 -4.36484 3.37914 0
M  V30 20229 H 2012.02 -3.8752 1.51551 0
M  V30 20230 H 2010.9 -5.25698 1.57902 0
M  V30 20231 H 2011.16 -4.42064 0.0565583 0
M  V30 20232 N 2010.22 -0.924476 -1.27637 0
M  V30 20233 C 2011.17 -0.392138 -2.24602 0
M  V30 20234 C 2012.15 0.501783 -1.52876 0
M  V30 20235 O 2013.34 0.339754 -1.73709 0
M  V30 20236 C 2010.47 0.356902 -3.4144 0
M  V30 20237 C 2009.56 -0.553352 -4.20475 0
M  V30 20238 N 2009.95 -1.67175 -4.77374 0
M  V30 20239 C 2008.25 -0.355752 -4.44579 0
M  V30 20240 C 2008.95 -2.23762 -5.36941 0
M  V30 20241 N 2007.92 -1.52759 -5.21695 0
M  V30 20242 H 2011.73 -1.24612 -2.66175 0
M  V30 20243 H 2009.24 -0.778373 -1.42531 0
M  V30 20244 H 2011.24 0.755192 -4.10003 0
M  V30 20245 H 2009.9 1.20785 -3.01399 0
M  V30 20246 H 2010.91 -2.05418 -4.7542 0
M  V30 20247 H 2007.58 0.454798 -4.15015 0
M  V30 20248 H 2008.97 -3.17902 -5.91936 0
M  V30 20249 N 2011.69 1.41711 -0.689627 0
M  V30 20250 C 2012.94 2.00925 -0.217655 0
M  V30 20251 C 2013.26 1.5487 1.18491 0
M  V30 20252 O 2012.53 0.776746 1.79843 0
M  V30 20253 H 2011.11 0.742971 -0.0774783 0
M  V30 20254 H 2013.78 1.73421 -0.889456 0
M  V30 20255 H 2012.87 3.11248 -0.230451 0
M  V30 20256 N 2013.17 0.433965 1.51507 0
M  V30 20257 C 2014.58 -0.0299408 1.86676 0
M  V30 20258 C 2014.93 -1.42245 1.35132 0
M  V30 20259 O 2014.06 -2.0474 0.700735 0
M  V30 20260 C 2014.65 -0.0611079 3.38745 0
M  V30 20261 C 2013.21 -0.469416 3.73461 0
M  V30 20262 C 2012.36 0.340116 2.75206 0
M  V30 20263 H 2015.31 0.649958 1.4478 0
M  V30 20264 H 2015.33 -0.871298 3.7039 0
M  V30 20265 H 2014.84 0.952511 3.7623 0
M  V30 20266 H 2012.95 -1.48876 3.41565 0
M  V30 20267 H 2013.06 -0.196556 4.78697 0
M  V30 20268 H 2011.42 -0.201099 2.53905 0
M  V30 20269 H 2012.21 1.35255 3.15533 0
M  V30 20270 N 2014.65 -1.56732 0.165206 0
M  V30 20271 C 2015.9 -1.96308 -0.48036 0
M  V30 20272 C 2016.22 -1.05198 -1.6419 0
M  V30 20273 O 2015.49 -0.117108 -1.9555 0
M  V30 20274 H 2014.07 -0.724877 -0.180451 0
M  V30 20275 H 2016.73 -1.93354 0.244961 0
M  V30 20276 H 2015.83 -3.00459 -0.844437 0
M  V30 20277 N 2016.13 0.10854 -1.57226 0
M  V30 20278 C 2017.38 0.813095 -1.84585 0
M  V30 20279 C 2017.69 1.80548 -0.752453 0
M  V30 20280 O 2018.9 2.55697 -0.912763 0
M  V30 20281 C 2017.35 1.4968 -3.27298 0
M  V30 20282 C 2016.96 0.544871 -4.44674 0
M  V30 20283 C 2018.7 2.18587 -3.63895 0
M  V30 20284 C 2016.61 1.2324 -5.78417 0
M  V30 20285 H 2015.54 0.3074 -0.688492 0
M  V30 20286 H 2018.19 0.065908 -1.83382 0
M  V30 20287 H 2016.57 2.29098 -3.23002 0
M  V30 20288 H 2017.75 -0.216842 -4.6029 0
M  V30 20289 H 2016.06 -0.0377882 -4.16383 0
M  V30 20290 H 2018.66 2.70735 -4.61093 0
M  V30 20291 H 2019 2.96868 -2.91848 0
M  V30 20292 H 2019.54 1.46046 -3.70021 0
M  V30 20293 H 2016.28 0.490673 -6.53661 0
M  V30 20294 H 2015.8 1.96587 -5.66669 0
M  V30 20295 H 2017.47 1.76267 -6.22526 0
M  V30 20296 N 2017.61 1.52975 0.379009 0
M  V30 20297 C 2018.54 1.74729 1.48332 0
M  V30 20298 C 2019.55 0.627862 1.50206 0
M  V30 20299 O 2020.74 0.903805 1.53927 0
M  V30 20300 C 2017.84 1.79998 2.87148 0
M  V30 20301 C 2017.01 3.09452 3.09125 0
M  V30 20302 C 2016.07 3.06138 4.27979 0
M  V30 20303 O 2015.1 3.79976 4.23801 0
M  V30 20304 N 2016.3 2.26019 5.34692 0
M  V30 20305 H 2019.07 2.70011 1.30054 0
M  V30 20306 H 2016.63 1.51586 0.568617 0
M  V30 20307 H 2018.62 1.75275 3.64775 0
M  V30 20308 H 2017.19 0.920593 2.98737 0
M  V30 20309 H 2016.41 3.27586 2.19274 0
M  V30 20310 H 2017.7 3.9503 3.20669 0
M  V30 20311 H 2017.09 1.65515 5.40945 0
M  V30 20312 H 2015.65 2.27126 6.10948 0
M  V30 20313 N 2019.08 -0.63804 1.44107 0
M  V30 20314 C 2020.31 -1.43004 1.50215 0
M  V30 20315 C 2020.73 -1.87678 0.125903 0
M  V30 20316 O 2020.09 -1.58316 -0.883508 0
M  V30 20317 C 2020.14 -2.63112 2.46585 0
M  V30 20318 O 2019.24 -3.62706 1.9626 0
M  V30 20319 H 2018.59 -0.428173 0.507508 0
M  V30 20320 H 2021.12 -0.779402 1.89173 0
M  V30 20321 H 2021.13 -3.10742 2.64393 0
M  V30 20322 H 2019.8 -2.29941 3.46554 0
M  V30 20323 H 2018.38 -3.21932 1.88186 0
M  V30 20324 N 2020.56 -1.3089 -0.877815 0
M  V30 20325 C 2021.81 -1.19888 -1.627 0
M  V30 20326 C 2022.13 0.244972 -1.93455 0
M  V30 20327 O 2021.4 1.16355 -1.57602 0
M  V30 20328 H 2019.98 -0.440719 -0.603138 0
M  V30 20329 H 2022.64 -1.64112 -1.05134 0
M  V30 20330 H 2021.74 -1.76493 -2.57404 0
M  V30 20331 N 2022.04 1.0911 -1.13723 0
M  V30 20332 C 2023.27 1.85108 -0.924265 0
M  V30 20333 C 2023.68 1.81295 0.527025 0
M  V30 20334 O 2023.04 1.21144 1.36493 0
M  V30 20335 C 2023.09 3.3295 -1.40807 0
M  V30 20336 O 2022.81 3.36738 -2.80249 0
M  V30 20337 C 2024.31 4.25778 -1.23401 0
M  V30 20338 H 2021.53 0.584594 -0.329379 0
M  V30 20339 H 2024.08 1.37847 -1.51058 0
M  V30 20340 H 2022.23 3.77627 -0.864679 0
M  V30 20341 H 2022.65 4.28973 -3.01799 0
M  V30 20342 H 2024.12 5.27655 -1.62123 0
M  V30 20343 H 2024.6 4.38847 -0.176058 0
M  V30 20344 H 2025.2 3.8692 -1.76559 0
M  V30 20345 N 2023.52 0.931232 1.27145 0
M  V30 20346 C 2024.75 0.589956 1.98311 0
M  V30 20347 C 2025.16 -0.832836 1.69438 0
M  V30 20348 O 2024.52 -1.55399 0.956935 0
M  V30 20349 C 2024.57 0.810592 3.52295 0
M  V30 20350 O 2024.29 2.17741 3.80158 0
M  V30 20351 C 2025.79 0.478508 4.4071 0
M  V30 20352 H 2023.01 0.223234 0.632778 0
M  V30 20353 H 2025.56 1.24922 1.6191 0
M  V30 20354 H 2023.71 0.198081 3.86893 0
M  V30 20355 H 2024.12 2.23003 4.74731 0
M  V30 20356 H 2025.6 0.683566 5.47751 0
M  V30 20357 H 2026.08 -0.586102 4.35272 0
M  V30 20358 H 2026.68 1.06931 4.11638 0
M  V30 20359 N 2025 -1.41343 0.697132 0
M  V30 20360 C 2025.95 -2.3259 0.0214207 0
M  V30 20361 C 2026.94 -1.51048 -0.766873 0
M  V30 20362 O 2028.15 -1.66973 -0.672319 0
M  V30 20363 H 2024.52 -0.751906 -0.0118741 0
M  V30 20364 H 2026.49 -2.87252 0.808025 0
M  V30 20365 C 2025.24 -3.35853 -0.899884 0
M  V30 20366 H 2024.56 -3.98652 -0.302721 0
M  V30 20367 H 2026 -4.02236 -1.34097 0
M  V30 20368 C 2024.46 -2.69865 -2.01679 0
M  V30 20369 O 2024.99 -2.54768 -3.10574 0
M  V30 20370 N 2023.2 -2.28536 -1.79498 0
M  V30 20371 H 2022.75 -2.41015 -0.909364 0
M  V30 20372 H 2022.7 -1.8472 -2.54413 0
M  V30 20373 N 2026.48 -0.441993 -1.51275 0
M  V30 20374 C 2027.42 0.367101 -2.27862 0
M  V30 20375 C 2028.39 1.01278 -1.31651 0
M  V30 20376 O 2029.58 1.0308 -1.60559 0
M  V30 20377 C 2026.72 1.45971 -3.12708 0
M  V30 20378 C 2025.83 0.831707 -4.23918 0
M  V30 20379 C 2024.97 1.89976 -4.96067 0
M  V30 20380 C 2024 1.25043 -5.99192 0
M  V30 20381 N 2023.14 2.26005 -6.6473 0
M  V30 20382 H 2027.98 -0.292361 -2.96562 0
M  V30 20383 H 2025.52 -0.156023 -1.4627 0
M  V30 20384 H 2027.48 2.10453 -3.6023 0
M  V30 20385 H 2026.11 2.08874 -2.46113 0
M  V30 20386 H 2025.16 0.0750644 -3.80326 0
M  V30 20387 H 2026.47 0.317691 -4.97787 0
M  V30 20388 H 2025.62 2.62108 -5.4716 0
M  V30 20389 H 2024.36 2.44751 -4.21839 0
M  V30 20390 H 2023.37 0.514597 -5.47386 0
M  V30 20391 H 2024.59 0.709951 -6.75379 0
M  V30 20392 H 2022.54 2.79852 -5.93312 0
M  V30 20393 H 2022.46 1.79508 -7.34379 0
M  V30 20394 H 2023.72 2.97607 -7.20452 0
M  V30 20395 N 2027.95 1.56642 -0.173515 0
M  V30 20396 C 2029.36 1.83525 0.342837 0
M  V30 20397 C 2029.72 1.0934 1.62908 0
M  V30 20398 O 2028.84 0.347154 2.13597 0
M  V30 20399 C 2029.44 3.32914 0.628798 0
M  V30 20400 C 2027.99 3.60285 1.08958 0
M  V30 20401 C 2027.14 2.77011 0.126621 0
M  V30 20402 H 2030.09 1.53635 -0.397736 0
M  V30 20403 H 2030.11 3.50511 1.48061 0
M  V30 20404 H 2029.63 3.8688 -0.307526 0
M  V30 20405 H 2027.73 3.11732 2.04093 0
M  V30 20406 H 2027.84 4.68607 0.997222 0
M  V30 20407 H 2026.2 2.46928 0.624406 0
M  V30 20408 H 2026.99 3.33758 -0.803763 0
M  V30 20409 N 2029.43 -0.1002 1.57281 0
M  V30 20410 C 2030.38 -1.14082 2.02702 0
M  V30 20411 C 2031.37 -1.41773 0.927183 0
M  V30 20412 O 2032.58 -1.41514 1.11237 0
M  V30 20413 H 2028.95 -0.385095 0.645915 0
M  V30 20414 H 2030.93 -0.731375 2.89298 0
M  V30 20415 C 2029.67 -2.45424 2.46297 0
M  V30 20416 H 2029 -2.24959 3.30505 0
M  V30 20417 H 2030.44 -3.16752 2.81859 0
M  V30 20418 C 2028.9 -3.09356 1.33418 0
M  V30 20419 O 2029.43 -3.96233 0.660494 0
M  V30 20420 N 2027.63 -2.69526 1.08646 0
M  V30 20421 H 2027.18 -1.98972 1.63609 0
M  V30 20422 H 2027.14 -3.1263 0.333186 0
M  V30 20423 N 2030.91 -1.53174 -0.370891 0
M  V30 20424 C 2031.86 -1.79236 -1.45406 0
M  V30 20425 C 2032.83 -0.636453 -1.53423 0
M  V30 20426 O 2034.01 -0.878079 -1.69394 0
M  V30 20427 C 2031.15 -1.98327 -2.82419 0
M  V30 20428 C 2030.26 -3.2604 -2.83411 0
M  V30 20429 C 2029.4 -3.35348 -4.11965 0
M  V30 20430 C 2028.44 -4.57114 -4.07079 0
M  V30 20431 N 2027.58 -4.63603 -5.27272 0
M  V30 20432 H 2032.42 -2.71666 -1.22482 0
M  V30 20433 H 2029.95 -1.3458 -0.593853 0
M  V30 20434 H 2031.91 -2.07382 -3.62006 0
M  V30 20435 H 2030.54 -1.0924 -3.03754 0
M  V30 20436 H 2029.59 -3.25966 -1.96088 0
M  V30 20437 H 2030.9 -4.157 -2.75672 0
M  V30 20438 H 2030.06 -3.43685 -4.99966 0
M  V30 20439 H 2028.8 -2.43695 -4.2245 0
M  V30 20440 H 2027.8 -4.48883 -3.17466 0
M  V30 20441 H 2029.03 -5.50102 -3.98201 0
M  V30 20442 H 2026.97 -3.74849 -5.38353 0
M  V30 20443 H 2026.89 -5.4716 -5.21682 0
M  V30 20444 H 2028.16 -4.76218 -6.1712 0
M  V30 20445 N 2032.39 0.630389 -1.44443 0
M  V30 20446 C 2033.63 1.38993 -1.47265 0
M  V30 20447 C 2033.96 1.94213 -0.105537 0
M  V30 20448 O 2033.22 1.7415 0.89277 0
M  V30 20449 C 2033.52 2.57255 -2.48102 0
M  V30 20450 C 2033.18 2.20319 -3.93408 0
M  V30 20451 C 2031.84 2.09959 -4.32979 0
M  V30 20452 C 2034.2 1.91148 -4.84883 0
M  V30 20453 C 2031.52 1.68616 -5.61948 0
M  V30 20454 C 2033.88 1.51298 -6.14241 0
M  V30 20455 C 2032.54 1.39479 -6.52765 0
M  V30 20456 H 2031.81 0.508613 -0.538882 0
M  V30 20457 H 2034.46 0.714772 -1.77661 0
M  V30 20458 H 2032.76 3.30007 -2.11193 0
M  V30 20459 H 2034.46 3.15483 -2.47531 0
M  V30 20460 H 2031.05 2.29301 -3.62103 0
M  V30 20461 H 2035.23 1.98061 -4.55066 0
M  V30 20462 H 2030.49 1.5807 -5.90613 0
M  V30 20463 H 2034.66 1.27764 -6.8458 0
M  V30 20464 H 2032.29 1.07216 -7.52601 0
M  V30 20465 N 2033.87 1.31354 0.870861 0
M  V30 20466 C 2035.09 1.23948 1.65664 0
M  V30 20467 C 2035.51 -0.195353 1.87787 0
M  V30 20468 O 2034.87 -1.12708 1.43538 0
M  V30 20469 C 2034.92 1.97912 3.02511 0
M  V30 20470 O 2034.64 3.35795 2.81377 0
M  V30 20471 C 2036.14 1.97336 3.96955 0
M  V30 20472 H 2033.36 0.428328 0.516504 0
M  V30 20473 H 2035.9 1.73214 1.08706 0
M  V30 20474 H 2034.06 1.52409 3.5616 0
M  V30 20475 H 2034.47 3.73444 3.68293 0
M  V30 20476 H 2035.95 2.53601 4.90297 0
M  V30 20477 H 2036.42 0.955651 4.28677 0
M  V30 20478 H 2037.03 2.42714 3.49242 0
M  V30 20479 N 2035.34 -1.08505 1.143 0
M  V30 20480 C 2036.59 -1.8114 0.911938 0
M  V30 20481 C 2036.92 -1.85946 -0.560156 0
M  V30 20482 O 2036.2 -1.33458 -1.41489 0
M  V30 20483 C 2036.48 -3.26806 1.51227 0
M  V30 20484 C 2036.33 -3.30215 3.05414 0
M  V30 20485 C 2037.65 -4.23754 1.1883 0
M  V30 20486 H 2034.77 -0.657619 0.332725 0
M  V30 20487 H 2037.41 -1.27044 1.41279 0
M  V30 20488 H 2035.56 -3.73003 1.08633 0
M  V30 20489 H 2037.24 -2.92351 3.56832 0
M  V30 20490 H 2035.48 -2.69518 3.39915 0
M  V30 20491 H 2036.15 -4.32875 3.42525 0
M  V30 20492 H 2038.63 -3.8589 1.55653 0
M  V30 20493 H 2037.5 -5.23993 1.63469 0
M  V30 20494 H 2037.76 -4.41979 0.103442 0
M  V30 20495 N 2036.82 -0.937962 -1.26649 0
M  V30 20496 C 2037.73 -0.451023 -2.30224 0
M  V30 20497 C 2038.75 0.473402 -1.67436 0
M  V30 20498 O 2039.92 0.353715 -1.9827 0
M  V30 20499 C 2036.99 0.278943 -3.45576 0
M  V30 20500 C 2036.05 -0.681649 -4.23854 0
M  V30 20501 C 2035.28 0.0135756 -5.33698 0
M  V30 20502 O 2035.51 1.2311 -5.56956 0
M  V30 20503 O 2034.44 -0.663486 -5.98232 0
M  V30 20504 H 2038.27 -1.31129 -2.73932 0
M  V30 20505 H 2035.85 -0.703717 -1.31788 0
M  V30 20506 H 2037.73 0.690262 -4.15708 0
M  V30 20507 H 2036.41 1.11465 -3.03903 0
M  V30 20508 H 2035.31 -1.14285 -3.56216 0
M  V30 20509 H 2036.65 -1.48488 -4.69268 0
M  V30 20510 N 2038.3 1.40971 -0.704618 0
M  V30 20511 C 2039.53 2.05399 -0.248738 0
M  V30 20512 C 2039.94 1.53056 1.10541 0
M  V30 20513 O 2039.3 0.682534 1.69256 0
M  V30 20514 C 2039.35 3.60902 -0.207794 0
M  V30 20515 O 2039.07 4.11311 -1.50846 0
M  V30 20516 C 2040.57 4.42489 0.267977 0
M  V30 20517 H 2037.79 0.661269 -0.11386 0
M  V30 20518 H 2040.34 1.8058 -0.959745 0
M  V30 20519 H 2038.49 3.84729 0.4541 0
M  V30 20520 H 2038.91 5.05426 -1.4016 0
M  V30 20521 H 2040.38 5.51454 0.245489 0
M  V30 20522 H 2040.86 4.1926 1.30836 0
M  V30 20523 H 2041.46 4.23746 -0.363242 0
M  V30 20524 N 2039.78 0.45001 1.51039 0
M  V30 20525 C 2041.19 0.10298 1.59267 0
M  V30 20526 C 2041.39 -1.38881 1.45995 0
M  V30 20527 O 2040.45 -2.16003 1.30763 0
M  V30 20528 C 2041.76 0.634392 2.93932 0
M  V30 20529 C 2043.31 0.59595 3.07274 0
M  V30 20530 C 2043.79 1.10455 4.44481 0
M  V30 20531 N 2045.28 1.06307 4.50836 0
M  V30 20532 C 2046.01 1.42733 5.55351 0
M  V30 20533 N 2045.51 1.86506 6.67224 0
M  V30 20534 N 2047.3 1.34469 5.45779 0
M  V30 20535 H 2039.45 1.42049 1.57911 0
M  V30 20536 H 2041.72 0.586142 0.745078 0
M  V30 20537 H 2041.42 1.67863 3.09055 0
M  V30 20538 H 2041.3 0.0662668 3.77142 0
M  V30 20539 H 2043.68 -0.439332 2.91811 0
M  V30 20540 H 2043.76 1.20063 2.25873 0
M  V30 20541 H 2043.41 2.13836 4.60692 0
M  V30 20542 H 2043.34 0.476284 5.24442 0
M  V30 20543 H 2045.83 0.741765 3.70549 0
M  V30 20544 H 2046.14 2.12505 7.43009 0
M  V30 20545 H 2044.49 1.90443 6.68398 0
M  V30 20546 H 2047.68 1.00128 4.57266 0
M  V30 20547 H 2047.85 1.63185 6.27116 0
M  V30 20548 N 2041.26 -1.56548 0.18182 0
M  V30 20549 C 2042.5 -1.96807 -0.459512 0
M  V30 20550 C 2042.83 -1.06933 -1.63065 0
M  V30 20551 O 2042.1 -0.137842 -1.95414 0
M  V30 20552 H 2040.68 -0.72675 -0.172753 0
M  V30 20553 H 2043.34 -1.93084 0.265455 0
M  V30 20554 H 2042.43 -3.01338 -0.812522 0
M  V30 20555 N 2042.73 0.0918577 -1.57332 0
M  V30 20556 C 2043.7 1.09546 -2.01326 0
M  V30 20557 C 2044.7 1.32761 -0.907252 0
M  V30 20558 O 2045.89 1.2882 -1.17265 0
M  V30 20559 C 2043.02 2.44385 -2.37674 0
M  V30 20560 H 2044.21 0.71671 -2.9121 0
M  V30 20561 H 2041.77 0.337001 -1.52624 0
M  V30 20562 H 2042.5 2.8713 -1.50755 0
M  V30 20563 H 2042.29 2.28882 -3.18364 0
M  V30 20564 H 2043.78 3.16562 -2.72357 0
M  V30 20565 N 2044.21 1.53368 0.362763 0
M  V30 20566 C 2045.46 1.69352 1.10292 0
M  V30 20567 C 2045.78 0.449366 1.89752 0
M  V30 20568 O 2045.05 -0.536608 1.88407 0
M  V30 20569 H 2043.63 0.62432 0.410162 0
M  V30 20570 H 2046.29 1.90567 0.408694 0
M  V30 20571 H 2045.39 2.55586 1.79115 0
M  V30 20572 N 2045.69 -0.62272 1.44776 0
M  V30 20573 C 2046.92 -1.40911 1.51498 0
M  V30 20574 C 2047.33 -1.88261 0.142579 0
M  V30 20575 O 2046.69 -1.61333 -0.853105 0
M  V30 20576 C 2046.74 -2.62379 2.48676 0
M  V30 20577 O 2046.46 -2.17001 3.80582 0
M  V30 20578 C 2047.96 -3.55413 2.64947 0
M  V30 20579 H 2045.18 -0.431862 0.513552 0
M  V30 20580 H 2047.73 -0.760822 1.8982 0
M  V30 20581 H 2045.88 -3.23281 2.13467 0
M  V30 20582 H 2046.3 -2.95811 4.33124 0
M  V30 20583 H 2047.77 -4.37227 3.36952 0
M  V30 20584 H 2048.25 -4.04771 1.70462 0
M  V30 20585 H 2048.85 -3.00374 3.01091 0
M  V30 20586 N 2047.17 -1.31814 -0.863883 0
M  V30 20587 C 2048.42 -1.21607 -1.61419 0
M  V30 20588 C 2048.74 0.22444 -1.93704 0
M  V30 20589 O 2048.01 1.14677 -1.58827 0
M  V30 20590 H 2046.59 -0.447091 -0.59843 0
M  V30 20591 H 2049.25 -1.65218 -1.03388 0
M  V30 20592 H 2048.35 -1.79213 -2.55517 0
M  V30 20593 N 2048.65 1.07897 -1.14873 0
M  V30 20594 C 2049.89 1.8003 -0.918351 0
M  V30 20595 C 2050.22 1.86897 0.556293 0
M  V30 20596 O 2049.49 1.36584 1.40434 0
M  V30 20597 H 2048.07 0.666777 -0.336776 0
M  V30 20598 H 2050.73 1.30421 -1.44832 0
M  V30 20599 H 2049.82 2.82678 -1.32287 0
M  V30 20600 N 2050.12 0.944665 1.2615 0
M  V30 20601 C 2051.05 0.47478 2.28622 0
M  V30 20602 C 2052.04 -0.473742 1.6337 0
M  V30 20603 O 2053.22 -0.374847 1.90548 0
M  V30 20604 C 2050.35 -0.2576 3.46343 0
M  V30 20605 C 2049.3 0.604701 4.23707 0
M  V30 20606 C 2048.63 -0.257841 5.34078 0
M  V30 20607 C 2049.93 1.8778 4.87377 0
M  V30 20608 H 2051.62 1.33122 2.68177 0
M  V30 20609 H 2049.17 0.641555 1.28919 0
M  V30 20610 H 2051.12 -0.597382 4.17144 0
M  V30 20611 H 2049.85 -1.14821 3.05751 0
M  V30 20612 H 2048.51 0.927426 3.54675 0
M  V30 20613 H 2048.15 -1.1479 4.89727 0
M  V30 20614 H 2047.85 0.315739 5.86751 0
M  V30 20615 H 2049.38 -0.592815 6.07715 0
M  V30 20616 H 2050.79 1.60505 5.50374 0
M  V30 20617 H 2049.19 2.39623 5.50182 0
M  V30 20618 H 2050.26 2.58705 4.10122 0
M  V30 20619 N 2051.6 -1.40596 0.712085 0
M  V30 20620 C 2052.85 -2.00553 0.249593 0
M  V30 20621 C 2053.17 -1.56736 -1.16012 0
M  V30 20622 O 2052.44 -0.805259 -1.78584 0
M  V30 20623 H 2051.02 -0.741644 0.0892885 0
M  V30 20624 H 2053.68 -1.71984 0.916933 0
M  V30 20625 H 2052.78 -3.10842 0.279939 0
M  V30 20626 N 2053.08 -0.458013 -1.50798 0
M  V30 20627 C 2054.01 0.333063 -2.31112 0
M  V30 20628 C 2054.99 1.00231 -1.37433 0
M  V30 20629 O 2056.18 1.00199 -1.66354 0
M  V30 20630 C 2053.31 1.4229 -3.16814 0
M  V30 20631 C 2052.26 0.875993 -4.1894 0
M  V30 20632 C 2051.59 2.06313 -4.93294 0
M  V30 20633 C 2052.89 -0.103786 -5.22197 0
M  V30 20634 H 2054.58 -0.337222 -2.97495 0
M  V30 20635 H 2052.13 -0.163622 -1.43067 0
M  V30 20636 H 2054.08 1.98369 -3.7179 0
M  V30 20637 H 2052.8 2.12177 -2.48291 0
M  V30 20638 H 2051.46 0.337263 -3.65045 0
M  V30 20639 H 2051.11 2.74868 -4.21256 0
M  V30 20640 H 2050.81 1.70348 -5.62366 0
M  V30 20641 H 2052.33 2.62908 -5.511 0
M  V30 20642 H 2053.75 0.367392 -5.72122 0
M  V30 20643 H 2052.15 -0.377048 -5.98914 0
M  V30 20644 H 2053.22 -1.03392 -4.73749 0
M  V30 20645 N 2054.56 1.56449 -0.190119 0
M  V30 20646 C 2055.52 2.17632 0.718966 0
M  V30 20647 C 2056.52 1.12941 1.14459 0
M  V30 20648 O 2057.71 1.38353 1.05849 0
M  V30 20649 C 2054.84 2.77437 1.98095 0
M  V30 20650 H 2056.04 2.99322 0.186033 0
M  V30 20651 H 2053.59 1.56187 0.0594913 0
M  V30 20652 H 2054.33 1.99531 2.55652 0
M  V30 20653 H 2054.11 3.5407 1.68454 0
M  V30 20654 H 2055.6 3.24433 2.62932 0
M  V30 20655 N 2056.04 -0.0835127 1.57379 0
M  V30 20656 C 2057.28 -0.786031 1.86948 0
M  V30 20657 C 2057.62 -1.77811 0.780828 0
M  V30 20658 O 2056.89 -1.93362 -0.210075 0
M  V30 20659 C 2057.17 -1.50447 3.27166 0
M  V30 20660 C 2057.03 -0.529601 4.46671 0
M  V30 20661 C 2058.35 -2.45226 3.65448 0
M  V30 20662 H 2055.47 -0.284294 0.67996 0
M  V30 20663 H 2058.11 -0.0494231 1.89936 0
M  V30 20664 H 2056.26 -2.13237 3.24749 0
M  V30 20665 H 2057.93 0.0921842 4.61208 0
M  V30 20666 H 2056.17 0.156069 4.33519 0
M  V30 20667 H 2056.84 -1.06967 5.41537 0
M  V30 20668 H 2059.32 -1.92521 3.68883 0
M  V30 20669 H 2058.2 -2.92505 4.6447 0
M  V30 20670 H 2058.46 -3.29506 2.94751 0
M  V30 20671 N 2057.52 -1.53558 -0.354624 0
M  V30 20672 C 2058.43 -1.83745 -1.4586 0
M  V30 20673 C 2059.44 -0.72668 -1.58099 0
M  V30 20674 O 2060.62 -1.01786 -1.73786 0
M  V30 20675 C 2057.68 -2.03089 -2.80991 0
M  V30 20676 C 2056.74 -3.26971 -2.78187 0
M  V30 20677 C 2055.98 -3.45383 -4.06874 0
M  V30 20678 O 2056.2 -2.6786 -5.03594 0
M  V30 20679 O 2055.13 -4.38776 -4.12019 0
M  V30 20680 H 2058.96 -2.77557 -1.23271 0
M  V30 20681 H 2056.54 -1.39075 -0.545763 0
M  V30 20682 H 2058.43 -2.17321 -3.6104 0
M  V30 20683 H 2057.1 -1.12466 -3.03534 0
M  V30 20684 H 2056.01 -3.18153 -1.96798 0
M  V30 20685 H 2057.34 -4.17552 -2.60598 0
M  V30 20686 N 2058.99 0.615033 -1.45104 0
M  V30 20687 C 2060.24 1.37152 -1.48438 0
M  V30 20688 C 2060.56 1.94602 -0.124508 0
M  V30 20689 O 2059.83 1.76728 0.845222 0
M  V30 20690 H 2058.41 0.509131 -0.546621 0
M  V30 20691 H 2061.07 0.722747 -1.81004 0
M  V30 20692 H 2060.17 2.19472 -2.21898 0
M  V30 20693 N 2060.47 1.3227 0.85688 0
M  V30 20694 C 2061.88 1.20411 1.42682 0
M  V30 20695 C 2062.23 -0.184254 1.95333 0
M  V30 20696 O 2061.36 -1.08285 1.87359 0
M  V30 20697 C 2061.95 2.17989 2.59358 0
M  V30 20698 C 2060.51 2.10024 3.12357 0
M  V30 20699 C 2059.66 2.0648 1.85098 0
M  V30 20700 H 2062.61 1.4413 0.664236 0
M  V30 20701 H 2062.63 1.77712 3.3645 0
M  V30 20702 H 2062.14 3.19026 2.21007 0
M  V30 20703 H 2060.24 1.12227 3.55297 0
M  V30 20704 H 2060.36 2.99744 3.73752 0
M  V30 20705 H 2058.72 1.51687 2.04605 0
M  V30 20706 H 2059.5 3.09296 1.48967 0
M  V30 20707 N 2061.95 -1.07287 1.15444 0
M  V30 20708 C 2063.17 -1.84153 0.954061 0
M  V30 20709 C 2063.6 -1.81534 -0.492639 0
M  V30 20710 O 2062.96 -1.20877 -1.35124 0
M  V30 20711 C 2063.01 -3.29112 1.4737 0
M  V30 20712 O 2062.11 -4.06866 0.673335 0
M  V30 20713 H 2061.45 -0.570198 0.34025 0
M  V30 20714 H 2063.98 -1.35339 1.53442 0
M  V30 20715 H 2063.99 -3.79944 1.48682 0
M  V30 20716 H 2062.67 -3.30333 2.52691 0
M  V30 20717 H 2061.24 -3.65687 0.729894 0
M  V30 20718 N 2063.43 -0.951342 -1.25647 0
M  V30 20719 C 2064.34 -0.475416 -2.29732 0
M  V30 20720 C 2065.35 0.455617 -1.67929 0
M  V30 20721 O 2066.53 0.332666 -1.98634 0
M  V30 20722 C 2063.59 0.242274 -3.45852 0
M  V30 20723 C 2062.66 -0.726566 -4.23107 0
M  V30 20724 C 2061.89 -0.043031 -5.33683 0
M  V30 20725 O 2062.11 1.17196 -5.5823 0
M  V30 20726 O 2061.05 -0.726899 -5.97495 0
M  V30 20727 H 2064.87 -1.34027 -2.72526 0
M  V30 20728 H 2062.46 -0.717655 -1.31035 0
M  V30 20729 H 2064.34 0.646132 -4.16417 0
M  V30 20730 H 2063.01 1.08236 -3.05068 0
M  V30 20731 H 2061.92 -1.18057 -3.54984 0
M  V30 20732 H 2063.25 -1.53457 -4.67666 0
M  V30 20733 N 2064.91 1.40216 -0.719531 0
M  V30 20734 C 2065.87 2.29067 -0.078186 0
M  V30 20735 C 2066.87 1.45561 0.683282 0
M  V30 20736 O 2068.06 1.66426 0.514598 0
M  V30 20737 C 2065.19 3.28832 0.899035 0
M  V30 20738 H 2066.38 2.87281 -0.860786 0
M  V30 20739 H 2063.94 1.48604 -0.48442 0
M  V30 20740 H 2064.67 2.75643 1.70855 0
M  V30 20741 H 2064.46 3.90482 0.355853 0
M  V30 20742 H 2065.95 3.95353 1.34483 0
M  V30 20743 N 2066.38 0.466004 1.50553 0
M  V30 20744 C 2067.33 -0.330804 2.28417 0
M  V30 20745 C 2068.3 -0.991708 1.33246 0
M  V30 20746 O 2069.49 -1.00512 1.62179 0
M  V30 20747 C 2066.63 -1.40978 3.14991 0
M  V30 20748 C 2065.74 -0.76416 4.25188 0
M  V30 20749 C 2064.87 -1.8206 4.99027 0
M  V30 20750 C 2063.91 -1.15495 6.01105 0
M  V30 20751 N 2063.05 -2.15401 6.68242 0
M  V30 20752 H 2067.89 0.339504 2.9606 0
M  V30 20753 H 2065.43 0.179273 1.46003 0
M  V30 20754 H 2067.38 -2.04695 3.63532 0
M  V30 20755 H 2066.01 -2.04932 2.49405 0
M  V30 20756 H 2065.07 -0.0145483 3.80397 0
M  V30 20757 H 2066.38 -0.238458 4.9823 0
M  V30 20758 H 2065.53 -2.5337 5.51261 0
M  V30 20759 H 2064.27 -2.38009 4.25679 0
M  V30 20760 H 2063.28 -0.427447 5.48136 0
M  V30 20761 H 2064.5 -0.602414 6.76423 0
M  V30 20762 H 2062.45 -2.70378 5.97689 0
M  V30 20763 H 2062.36 -1.67802 7.37142 0
M  V30 20764 H 2063.63 -2.86107 7.25095 0
M  V30 20765 N 2067.86 -1.56346 0.198413 0
M  V30 20766 C 2068.79 -2.15154 -0.760519 0
M  V30 20767 C 2069.77 -1.0892 -1.20728 0
M  V30 20768 O 2070.96 -1.37051 -1.29419 0
M  V30 20769 C 2068.08 -2.71312 -2.0275 0
M  V30 20770 C 2067.13 -3.90165 -1.7226 0
M  V30 20771 S 2067.96 -5.28422 -0.86778 0
M  V30 20772 C 2069.12 -5.88003 -2.14483 0
M  V30 20773 H 2069.35 -2.96156 -0.2606 0
M  V30 20774 H 2066.88 -1.54391 -0.0166257 0
M  V30 20775 H 2068.84 -3.0431 -2.7551 0
M  V30 20776 H 2067.5 -1.90346 -2.49854 0
M  V30 20777 H 2066.7 -4.2788 -2.66336 0
M  V30 20778 H 2066.3 -3.58194 -1.0758 0
M  V30 20779 H 2068.59 -6.02568 -3.09707 0
M  V30 20780 H 2069.53 -6.84524 -1.81196 0
M  V30 20781 H 2069.94 -5.16636 -2.27481 0
M  V30 20782 N 2069.34 0.0751653 -1.57421 0
M  V30 20783 C 2070.57 0.791793 -1.91691 0
M  V30 20784 C 2070.99 1.70496 -0.794522 0
M  V30 20785 O 2070.35 1.79528 0.25284 0
M  V30 20786 C 2070.4 1.5643 -3.24903 0
M  V30 20787 O 2069.5 2.67473 -3.13898 0
M  V30 20788 H 2068.84 0.21624 -0.627803 0
M  V30 20789 H 2071.37 0.0444189 -2.04552 0
M  V30 20790 H 2071.38 1.94427 -3.58695 0
M  V30 20791 H 2070.06 0.894266 -4.06172 0
M  V30 20792 H 2068.63 2.32357 -2.91658 0
M  V30 20793 N 2070.82 1.53744 0.346476 0
M  V30 20794 C 2072.06 1.72562 1.09552 0
M  V30 20795 C 2072.42 0.477138 1.85977 0
M  V30 20796 O 2073.62 0.542295 2.63273 0
M  V30 20797 C 2071.89 2.95246 2.01406 0
M  V30 20798 S 2073.45 3.34861 2.83573 0
M  V30 20799 H 2070.27 0.607015 0.370208 0
M  V30 20800 H 2072.87 1.91883 0.374316 0
M  V30 20801 H 2071.58 3.84286 1.44057 0
M  V30 20802 H 2071.11 2.78382 2.77969 0
M  V30 20803 H 2073.12 2.88367 4.03806 0
M  V30 20804 N 2072.3 -0.607329 1.45428 0
M  V30 20805 C 2073.23 -1.73178 1.48609 0
M  V30 20806 C 2074.21 -1.58953 0.342449 0
M  V30 20807 O 2075.39 -1.8051 0.542987 0
M  V30 20808 C 2072.52 -3.11006 1.34138 0
M  V30 20809 C 2071.56 -3.43819 2.52371 0
M  V30 20810 S 2072.4 -3.3863 4.14837 0
M  V30 20811 C 2073.55 -4.79038 4.02831 0
M  V30 20812 H 2073.79 -1.70216 2.4375 0
M  V30 20813 H 2071.32 -0.784003 1.33014 0
M  V30 20814 H 2073.28 -3.90531 1.26476 0
M  V30 20815 H 2071.94 -3.11482 0.40468 0
M  V30 20816 H 2071.13 -4.44174 2.38172 0
M  V30 20817 H 2070.73 -2.7181 2.56896 0
M  V30 20818 H 2073.03 -5.68848 3.67991 0
M  V30 20819 H 2073.97 -4.98294 5.03099 0
M  V30 20820 H 2074.38 -4.54732 3.34484 0
M  V30 20821 N 2073.77 -1.32722 -0.849853 0
M  V30 20822 C 2075.05 -1.14168 -1.58824 0
M  V30 20823 C 2075.43 0.296136 -2.09013 0
M  V30 20824 O 2074.78 1.2935 -1.88364 0
M  V30 20825 C 2074.99 -2.1734 -2.73065 0
M  V30 20826 C 2076.34 -2.50923 -3.42524 0
M  V30 20827 O 2077.36 -2.15923 -2.83295 0
M  V30 20828 O 2076.22 -3.10942 -4.49419 0
M  V30 20829 H 2073.31 -0.440869 -0.699688 0
M  V30 20830 H 2075.86 -1.44269 -0.893563 0
M  V30 20831 H 2074.63 -3.13967 -2.33539 0
M  V30 20832 H 2074.26 -1.88261 -3.50205 0
M  V30 20833 N 2075.25 1.06673 -1.16011 0
M  V30 20834 C 2076.2 2.16153 -0.859109 0
M  V30 20835 C 2077.19 1.68542 0.170281 0
M  V30 20836 O 2078.4 1.79983 0.0246416 0
M  V30 20837 H 2074.78 0.705551 -0.260196 0
M  V30 20838 H 2076.75 2.38754 -1.78994 0
M  V30 20839 C 2075.5 3.457 -0.3724 0
M  V30 20840 H 2074.82 3.82725 -1.15591 0
M  V30 20841 H 2076.26 4.23526 -0.200519 0
M  V30 20842 C 2074.72 3.24451 0.90735 0
M  V30 20843 O 2075.25 3.49658 1.97743 0
M  V30 20844 N 2073.45 2.77904 0.849588 0
M  V30 20845 H 2073 2.57591 -0.0214058 0
M  V30 20846 H 2072.96 2.64066 1.70636 0
M  V30 20847 N 2076.73 0.957992 1.25141 0
M  V30 20848 C 2077.68 0.479695 2.2576 0
M  V30 20849 C 2078.65 -0.469606 1.59323 0
M  V30 20850 O 2079.83 -0.382116 1.86935 0
M  V30 20851 C 2076.97 -0.233227 3.44311 0
M  V30 20852 C 2076.09 0.753705 4.25374 0
M  V30 20853 C 2075.22 0.0178808 5.31197 0
M  V30 20854 C 2074.26 0.995522 6.0395 0
M  V30 20855 N 2073.4 0.290349 7.01499 0
M  V30 20856 H 2078.24 1.3426 2.66042 0
M  V30 20857 H 2075.77 0.673224 1.3079 0
M  V30 20858 H 2077.73 -0.663168 4.11896 0
M  V30 20859 H 2076.36 -1.06015 3.04894 0
M  V30 20860 H 2075.41 1.30212 3.5742 0
M  V30 20861 H 2076.73 1.4996 4.75724 0
M  V30 20862 H 2075.88 -0.470532 6.04873 0
M  V30 20863 H 2074.62 -0.760784 4.8173 0
M  V30 20864 H 2073.62 1.4949 5.29087 0
M  V30 20865 H 2074.85 1.77447 6.55507 0
M  V30 20866 H 2072.79 -0.469516 6.54318 0
M  V30 20867 H 2072.71 0.975282 7.49683 0
M  V30 20868 H 2073.98 -0.176416 7.793 0
M  V30 20869 N 2078.21 -1.39832 0.726957 0
M  V30 20870 C 2079.49 -1.94595 0.198042 0
M  V30 20871 C 2079.87 -1.66433 -1.29858 0
M  V30 20872 O 2079.21 -0.98817 -2.06028 0
M  V30 20873 C 2079.42 -3.45059 0.522997 0
M  V30 20874 C 2080.77 -4.22014 0.467902 0
M  V30 20875 O 2081.8 -3.53221 0.459717 0
M  V30 20876 O 2080.65 -5.44599 0.455375 0
M  V30 20877 H 2077.75 -0.826324 0.0334203 0
M  V30 20878 H 2080.29 -1.49377 0.805266 0
M  V30 20879 H 2079.07 -3.58959 1.55769 0
M  V30 20880 H 2078.69 -3.97438 -0.113609 0
M  V30 20881 N 2079.69 -0.473982 -1.50304 0
M  V30 20882 C 2080.93 0.0798516 -2.01942 0
M  V30 20883 C 2081.26 1.39955 -1.35785 0
M  V30 20884 O 2080.53 1.89302 -0.504142 0
M  V30 20885 H 2079.11 0.0325001 -0.746293 0
M  V30 20886 H 2081.77 -0.625063 -1.84605 0
M  V30 20887 H 2080.86 0.229253 -3.11257 0
M  V30 20888 N 2081.16 1.56239 -0.206702 0
M  V30 20889 C 2082.39 2.02736 0.437344 0
M  V30 20890 C 2082.81 1.08577 1.53599 0
M  V30 20891 O 2082.17 0.0712895 1.8116 0
M  V30 20892 C 2082.22 3.47587 0.959974 0
M  V30 20893 O 2081.32 3.56556 2.07223 0
M  V30 20894 H 2080.67 0.656297 0.100845 0
M  V30 20895 H 2083.2 2.02066 -0.320985 0
M  V30 20896 H 2083.21 3.87612 1.27361 0
M  V30 20897 H 2081.88 4.15608 0.15578 0
M  V30 20898 H 2080.46 3.28412 1.76635 0
M  V30 20899 N 2082.64 -0.0668159 1.57458 0
M  V30 20900 C 2083.88 -0.77031 1.89329 0
M  V30 20901 C 2084.25 -1.7449 0.801069 0
M  V30 20902 O 2085.45 -2.49386 1.00299 0
M  V30 20903 C 2083.72 -1.45541 3.26424 0
M  V30 20904 S 2085.28 -2.19328 3.80054 0
M  V30 20905 H 2082.1 -0.256053 0.663293 0
M  V30 20906 H 2084.7 -0.026213 1.95482 0
M  V30 20907 H 2083.4 -0.732349 4.03813 0
M  V30 20908 H 2082.93 -2.23883 3.23481 0
M  V30 20909 H 2084.95 -3.45924 3.5574 0
M  V30 20910 N 2084.12 -1.53926 -0.338317 0
M  V30 20911 C 2085.35 -1.75682 -1.1023 0
M  V30 20912 C 2085.77 -0.497087 -1.81413 0
M  V30 20913 O 2085.13 0.550577 -1.72738 0
M  V30 20914 C 2085.18 -2.94038 -2.08743 0
M  V30 20915 O 2084.28 -2.64552 -3.16364 0
M  V30 20916 H 2083.62 -0.582603 -0.318544 0
M  V30 20917 H 2086.15 -2.00904 -0.387113 0
M  V30 20918 H 2086.16 -3.20973 -2.51873 0
M  V30 20919 H 2084.84 -3.854 -1.56331 0
M  V30 20920 H 2083.41 -2.48521 -2.78014 0
M  V30 20921 N 2085.6 0.599608 -1.45748 0
M  V30 20922 C 2086.85 1.3604 -1.50403 0
M  V30 20923 C 2087.18 1.93632 -0.148419 0
M  V30 20924 O 2086.45 1.75516 0.838118 0
M  V30 20925 C 2086.74 2.50237 -2.58946 0
M  V30 20926 C 2086.59 1.9779 -4.03979 0
M  V30 20927 C 2087.91 3.52344 -2.63708 0
M  V30 20928 H 2085.03 0.49329 -0.547571 0
M  V30 20929 H 2087.67 0.675178 -1.77599 0
M  V30 20930 H 2085.82 3.0869 -2.35888 0
M  V30 20931 H 2087.49 1.43925 -4.38273 0
M  V30 20932 H 2085.73 1.28734 -4.14258 0
M  V30 20933 H 2086.41 2.80147 -4.75628 0
M  V30 20934 H 2088.88 3.03746 -2.8439 0
M  V30 20935 H 2087.76 4.29728 -3.41504 0
M  V30 20936 H 2088.02 4.08481 -1.69103 0
M  V30 20937 N 2087.08 1.33171 0.842803 0
M  V30 20938 C 2087.99 1.25124 1.98447 0
M  V30 20939 C 2089 0.162551 1.73239 0
M  V30 20940 O 2090.18 0.385417 1.97678 0
M  V30 20941 C 2087.24 0.9866 3.32366 0
M  V30 20942 C 2086.31 2.16491 3.70716 0
M  V30 20943 C 2085.54 1.9128 4.98245 0
M  V30 20944 O 2085.76 0.861174 5.63862 0
M  V30 20945 O 2084.7 2.77708 5.34005 0
M  V30 20946 H 2088.52 2.21126 2.08175 0
M  V30 20947 H 2086.11 1.13178 0.975243 0
M  V30 20948 H 2087.99 0.856003 4.12614 0
M  V30 20949 H 2086.66 0.0568283 3.2365 0
M  V30 20950 H 2085.57 2.35103 2.90994 0
M  V30 20951 H 2086.9 3.07788 3.84093 0
M  V30 20952 N 2088.56 -1.06056 1.16576 0
M  V30 20953 C 2089.79 -1.82328 0.971608 0
M  V30 20954 C 2090.19 -1.82919 -0.483446 0
M  V30 20955 O 2089.54 -1.24868 -1.34735 0
M  V30 20956 C 2089.6 -3.30046 1.42513 0
M  V30 20957 C 2089.26 -3.53153 2.90055 0
M  V30 20958 C 2090.26 -3.46001 3.88045 0
M  V30 20959 C 2087.94 -3.80397 3.2803 0
M  V30 20960 C 2089.94 -3.65764 5.22011 0
M  V30 20961 C 2087.63 -3.99809 4.62165 0
M  V30 20962 C 2088.62 -3.9249 5.58964 0
M  V30 20963 O 2088.31 -4.1137 6.90673 0
M  V30 20964 H 2088.04 -0.581675 0.344427 0
M  V30 20965 H 2090.6 -1.34692 1.55071 0
M  V30 20966 H 2088.83 -3.78555 0.789515 0
M  V30 20967 H 2090.52 -3.87817 1.19802 0
M  V30 20968 H 2091.28 -3.24941 3.60053 0
M  V30 20969 H 2087.16 -3.85201 2.53261 0
M  V30 20970 H 2090.71 -3.59967 5.97553 0
M  V30 20971 H 2086.6 -4.20359 4.89866 0
M  V30 20972 H 2087.37 -4.28645 6.97285 0
M  V30 20973 N 2090.03 -0.964615 -1.24631 0
M  V30 20974 C 2091.28 -0.620429 -1.91921 0
M  V30 20975 C 2091.6 0.847851 -1.76269 0
M  V30 20976 O 2092.8 1.30243 -2.38221 0
M  V30 20977 C 2091.26 -1.059 -3.43967 0
M  V30 20978 C 2090.87 -2.55052 -3.6831 0
M  V30 20979 C 2092.61 -0.787818 -4.17126 0
M  V30 20980 C 2090.52 -2.92658 -5.13912 0
M  V30 20981 H 2089.45 -0.22834 -0.718594 0
M  V30 20982 H 2092.1 -1.17041 -1.41328 0
M  V30 20983 H 2090.48 -0.437357 -3.93577 0
M  V30 20984 H 2091.65 -3.2232 -3.29312 0
M  V30 20985 H 2089.97 -2.79748 -3.08432 0
M  V30 20986 H 2092.57 -1.04483 -5.24392 0
M  V30 20987 H 2092.91 0.275932 -4.15385 0
M  V30 20988 H 2093.44 -1.37028 -3.73454 0
M  V30 20989 H 2090.18 -3.98091 -5.20772 0
M  V30 20990 H 2089.7 -2.30071 -5.5392 0
M  V30 20991 H 2091.38 -2.82395 -5.82119 0
M  V30 20992 N 2091.51 1.39445 -0.734362 0
M  V30 20993 C 2092.92 1.8335 -0.352097 0
M  V30 20994 C 2093.27 1.61344 1.11635 0
M  V30 20995 O 2092.4 1.10427 1.86105 0
M  V30 20996 C 2092.99 3.32848 -0.632286 0
M  V30 20997 C 2091.55 3.75174 -0.303522 0
M  V30 20998 C 2090.7 2.62452 -0.895228 0
M  V30 20999 H 2093.65 1.28446 -0.932054 0
M  V30 21000 H 2093.67 3.80378 0.0961584 0
M  V30 21001 H 2093.18 3.48832 -1.70111 0
M  V30 21002 H 2091.28 3.64777 0.759492 0
M  V30 21003 H 2091.4 4.72615 -0.785637 0
M  V30 21004 H 2089.76 2.52658 -0.321907 0
M  V30 21005 H 2090.54 2.81242 -1.9687 0
M  V30 21006 N 2092.99 0.481946 1.5005 0
M  V30 21007 C 2094.22 -0.0665508 2.06493 0
M  V30 21008 C 2094.63 -1.3309 1.34476 0
M  V30 21009 O 2093.97 -1.79046 0.410882 0
M  V30 21010 C 2094.03 -0.409721 3.57158 0
M  V30 21011 C 2093.7 0.754158 4.50734 0
M  V30 21012 C 2094.69 1.63929 4.93379 0
M  V30 21013 C 2092.38 0.947563 4.93281 0
M  V30 21014 C 2094.37 2.70214 5.77289 0
M  V30 21015 C 2092.06 2.01362 5.76972 0
M  V30 21016 C 2093.06 2.88927 6.18878 0
M  V30 21017 O 2092.75 3.93695 7.00899 0
M  V30 21018 H 2092.48 0.00864043 0.675945 0
M  V30 21019 H 2095.03 0.672929 1.94064 0
M  V30 21020 H 2093.26 -1.20254 3.67527 0
M  V30 21021 H 2094.95 -0.894578 3.95919 0
M  V30 21022 H 2095.72 1.5016 4.61169 0
M  V30 21023 H 2091.6 0.275431 4.60176 0
M  V30 21024 H 2095.14 3.38592 6.09919 0
M  V30 21025 H 2091.04 2.15133 6.08595 0
M  V30 21026 H 2091.8 3.90816 7.1917 0
M  V30 21027 N 2094.47 -1.56127 0.214985 0
M  V30 21028 C 2095.38 -2.2362 -0.709323 0
M  V30 21029 C 2096.39 -1.24168 -1.21895 0
M  V30 21030 O 2097.57 -1.56962 -1.26194 0
M  V30 21031 C 2094.63 -2.89781 -1.90337 0
M  V30 21032 C 2093.7 -4.04558 -1.43636 0
M  V30 21033 C 2092.93 -4.67555 -2.57349 0
M  V30 21034 O 2093.15 -4.29521 -3.75324 0
M  V30 21035 O 2092.09 -5.56666 -2.28925 0
M  V30 21036 H 2095.91 -3.03255 -0.164408 0
M  V30 21037 H 2093.5 -1.49392 -0.0151812 0
M  V30 21038 H 2095.38 -3.31565 -2.60082 0
M  V30 21039 H 2094.05 -2.1311 -2.43651 0
M  V30 21040 H 2092.96 -3.67356 -0.707115 0
M  V30 21041 H 2094.29 -4.82951 -0.94967 0
M  V30 21042 N 2095.95 0.0584645 -1.57492 0
M  V30 21043 C 2096.91 1.05251 -2.03605 0
M  V30 21044 C 2097.91 1.30807 -0.935209 0
M  V30 21045 O 2099.1 1.26304 -1.19971 0
M  V30 21046 C 2096.23 2.39288 -2.42804 0
M  V30 21047 H 2097.42 0.654779 -2.92665 0
M  V30 21048 H 2094.98 0.304552 -1.53304 0
M  V30 21049 H 2095.71 2.83868 -1.56811 0
M  V30 21050 H 2095.5 2.22077 -3.23147 0
M  V30 21051 H 2096.99 3.10713 -2.79011 0
M  V30 21052 N 2097.42 1.54103 0.330149 0
M  V30 21053 C 2098.67 1.71653 1.06675 0
M  V30 21054 C 2098.99 0.489514 1.88756 0
M  V30 21055 O 2098.26 -0.496523 1.89503 0
M  V30 21056 H 2096.84 0.63288 0.396827 0
M  V30 21057 H 2099.5 1.91391 0.36818 0
M  V30 21058 H 2098.6 2.59328 1.73653 0
M  V30 21059 N 2098.9 -0.59187 1.46064 0
M  V30 21060 C 2100.13 -1.37666 1.54453 0
M  V30 21061 C 2100.55 -1.87916 0.18248 0
M  V30 21062 O 2099.9 -1.63106 -0.818692 0
M  V30 21063 C 2099.95 -2.57045 2.54185 0
M  V30 21064 O 2099.67 -2.08879 3.85099 0
M  V30 21065 C 2101.18 -3.49713 2.72426 0
M  V30 21066 H 2098.4 -0.420872 0.522597 0
M  V30 21067 H 2100.94 -0.720387 1.91391 0
M  V30 21068 H 2099.09 -3.18681 2.20276 0
M  V30 21069 H 2099.51 -2.86557 4.39301 0
M  V30 21070 H 2100.98 -4.29981 3.4615 0
M  V30 21071 H 2101.46 -4.01064 1.7901 0
M  V30 21072 H 2102.07 -2.9392 3.07395 0
M  V30 21073 N 2100.38 -1.33616 -0.835729 0
M  V30 21074 C 2101.61 -1.28111 -1.62084 0
M  V30 21075 C 2102.02 0.149577 -1.88608 0
M  V30 21076 O 2101.36 1.10314 -1.4689 0
M  V30 21077 C 2101.42 -1.99073 -2.9935 0
M  V30 21078 C 2101.09 -3.48371 -2.95781 0
M  V30 21079 C 2102.08 -4.43516 -2.71273 0
M  V30 21080 C 2099.77 -3.90595 -3.15818 0
M  V30 21081 C 2101.76 -5.78859 -2.66835 0
M  V30 21082 C 2099.45 -5.26041 -3.11004 0
M  V30 21083 C 2100.45 -6.19985 -2.86544 0
M  V30 21084 O 2100.14 -7.5295 -2.8164 0
M  V30 21085 H 2099.87 -0.442615 -0.510948 0
M  V30 21086 H 2102.42 -1.76601 -1.04887 0
M  V30 21087 H 2100.65 -1.45179 -3.58413 0
M  V30 21088 H 2102.34 -1.87026 -3.60245 0
M  V30 21089 H 2103.11 -4.12218 -2.55541 0
M  V30 21090 H 2098.99 -3.1788 -3.33876 0
M  V30 21091 H 2102.53 -6.52157 -2.47663 0
M  V30 21092 H 2098.43 -5.56963 -3.26286 0
M  V30 21093 H 2099.2 -7.62535 -2.97459 0
M  V30 21094 N 2101.86 1.05436 -1.17136 0
M  V30 21095 C 2103.08 1.82612 -0.983237 0
M  V30 21096 C 2103.51 1.82295 0.463697 0
M  V30 21097 O 2102.87 1.23011 1.33184 0
M  V30 21098 C 2102.91 3.26726 -1.52587 0
M  V30 21099 O 2102.02 4.05743 -0.737979 0
M  V30 21100 H 2101.36 0.564713 -0.349279 0
M  V30 21101 H 2103.89 1.3288 -1.55576 0
M  V30 21102 H 2103.9 3.77531 -1.54708 0
M  V30 21103 H 2102.57 3.26271 -2.57915 0
M  V30 21104 H 2101.15 3.64479 -0.78798 0
M  V30 21105 N 2103.34 0.971211 1.24118 0
M  V30 21106 C 2104.27 0.523167 2.27564 0
M  V30 21107 C 2105.25 -0.438983 1.64338 0
M  V30 21108 O 2106.43 -0.334345 1.913 0
M  V30 21109 C 2103.56 -0.184078 3.46812 0
M  V30 21110 C 2102.52 0.694439 4.22329 0
M  V30 21111 C 2101.84 -0.144498 5.34505 0
M  V30 21112 C 2103.14 1.98076 4.83284 0
M  V30 21113 H 2104.84 1.3878 2.65293 0
M  V30 21114 H 2102.38 0.668756 1.27529 0
M  V30 21115 H 2104.34 -0.508765 4.18318 0
M  V30 21116 H 2103.06 -1.08309 3.08118 0
M  V30 21117 H 2101.72 1.00245 3.52628 0
M  V30 21118 H 2101.37 -1.04377 4.92051 0
M  V30 21119 H 2101.07 0.440127 5.85949 0
M  V30 21120 H 2102.59 -0.463776 6.08836 0
M  V30 21121 H 2104 1.72143 5.46845 0
M  V30 21122 H 2102.4 2.5124 5.44976 0
M  V30 21123 H 2103.47 2.67346 4.04542 0
M  V30 21124 N 2104.81 -1.39054 0.741747 0
M  V30 21125 C 2105.76 -2.32404 0.0954067 0
M  V30 21126 C 2106.76 -1.53411 -0.71843 0
M  V30 21127 O 2107.96 -1.69027 -0.618858 0
M  V30 21128 H 2104.34 -0.751903 0.0120533 0
M  V30 21129 H 2106.31 -2.84536 0.899003 0
M  V30 21130 C 2105.06 -3.38546 -0.79258 0
M  V30 21131 H 2104.38 -3.99414 -0.175739 0
M  V30 21132 H 2105.82 -4.06299 -1.21232 0
M  V30 21133 C 2104.28 -2.76145 -1.92991 0
M  V30 21134 O 2104.81 -2.6452 -3.02311 0
M  V30 21135 N 2103.02 -2.34131 -1.72137 0
M  V30 21136 H 2102.56 -2.43786 -0.832227 0
M  V30 21137 H 2102.52 -1.92721 -2.48407 0
M  V30 21138 N 2106.29 -0.489897 -1.49792 0
M  V30 21139 C 2107.54 0.0586308 -2.02715 0
M  V30 21140 C 2107.87 1.37665 -1.36974 0
M  V30 21141 O 2107.15 1.87919 -0.501679 0
M  V30 21142 C 2107.43 0.222812 -3.5941 0
M  V30 21143 C 2107.28 -1.11755 -4.35696 0
M  V30 21144 C 2108.6 0.96865 -4.29308 0
M  V30 21145 H 2105.72 0.0198337 -0.736733 0
M  V30 21146 H 2108.36 -0.639149 -1.78927 0
M  V30 21147 H 2106.51 0.81714 -3.79809 0
M  V30 21148 H 2108.18 -1.74991 -4.26821 0
M  V30 21149 H 2106.43 -1.70959 -3.98692 0
M  V30 21150 H 2107.1 -0.956105 -5.43657 0
M  V30 21151 H 2109.57 0.464706 -4.13497 0
M  V30 21152 H 2108.45 1.05235 -5.38718 0
M  V30 21153 H 2108.71 2.00975 -3.93778 0
M  V30 21154 N 2107.77 1.56011 -0.223262 0
M  V30 21155 C 2109 2.0274 0.412787 0
M  V30 21156 C 2109.41 1.10304 1.53227 0
M  V30 21157 O 2108.77 0.112965 1.8215 0
M  V30 21158 C 2108.82 3.48989 0.942818 0
M  V30 21159 O 2108.54 4.37901 -0.132031 0
M  V30 21160 C 2110.04 4.11371 1.65194 0
M  V30 21161 H 2107.26 0.663379 0.100842 0
M  V30 21162 H 2109.81 2.0165 -0.340215 0
M  V30 21163 H 2107.96 3.50689 1.64609 0
M  V30 21164 H 2108.38 5.23822 0.266637 0
M  V30 21165 H 2109.85 5.15467 1.97479 0
M  V30 21166 H 2110.33 3.56468 2.56568 0
M  V30 21167 H 2110.93 4.13525 0.993831 0
M  V30 21168 N 2109.25 -0.0501116 1.5752 0
M  V30 21169 C 2110.48 -0.756338 1.92258 0
M  V30 21170 C 2110.89 -1.70529 0.819536 0
M  V30 21171 O 2110.23 -1.82444 -0.214449 0
M  V30 21172 C 2110.29 -1.58568 3.2264 0
M  V30 21173 C 2109.96 -0.803782 4.49876 0
M  V30 21174 C 2110.95 -0.11334 5.19776 0
M  V30 21175 C 2108.64 -0.764541 4.96447 0
M  V30 21176 C 2110.63 0.605876 6.34514 0
M  V30 21177 C 2108.32 -0.0415669 6.11086 0
M  V30 21178 C 2109.32 0.642421 6.79972 0
M  V30 21179 O 2109 1.3537 7.9242 0
M  V30 21180 H 2108.74 -0.218926 0.639568 0
M  V30 21181 H 2111.29 -0.0180791 2.05392 0
M  V30 21182 H 2109.52 -2.36726 3.05774 0
M  V30 21183 H 2111.21 -2.17257 3.42862 0
M  V30 21184 H 2111.98 -0.134822 4.84813 0
M  V30 21185 H 2107.85 -1.28641 4.42688 0
M  V30 21186 H 2111.4 1.1403 6.88217 0
M  V30 21187 H 2107.3 -0.0180871 6.45497 0
M  V30 21188 H 2108.06 1.2652 8.08662 0
M  V30 21189 N 2110.73 -1.54276 -0.321972 0
M  V30 21190 C 2111.97 -1.72216 -1.05764 0
M  V30 21191 C 2112.3 -0.499518 -1.88494 0
M  V30 21192 O 2111.57 0.486466 -1.89764 0
M  V30 21193 H 2110.15 -0.634976 -0.393465 0
M  V30 21194 H 2112.81 -1.91583 -0.358025 0
M  V30 21195 H 2111.9 -2.60245 -1.72275 0
M  V30 21196 N 2112.2 0.584116 -1.46376 0
M  V30 21197 C 2113.45 1.33973 -1.51313 0
M  V30 21198 C 2113.77 1.94294 -0.165758 0
M  V30 21199 O 2113.04 1.78481 0.807546 0
M  V30 21200 H 2111.62 0.497422 -0.557298 0
M  V30 21201 H 2114.29 0.684191 -1.82496 0
M  V30 21202 H 2113.38 2.14716 -2.26503 0
M  V30 21203 N 2113.68 1.34058 0.828631 0
M  V30 21204 C 2114.63 1.21721 1.9279 0
M  V30 21205 C 2115.62 0.117615 1.6047 0
M  V30 21206 O 2116.81 0.346722 1.73571 0
M  V30 21207 C 2113.94 0.969045 3.29339 0
M  V30 21208 C 2113.02 2.11155 3.67797 0
M  V30 21209 N 2113.42 3.36232 3.77865 0
M  V30 21210 C 2111.71 2.02052 3.97606 0
M  V30 21211 C 2112.41 4.11227 4.11421 0
M  V30 21212 N 2111.39 3.39763 4.24337 0
M  V30 21213 H 2115.19 2.16513 1.98744 0
M  V30 21214 H 2112.71 1.26213 1.02196 0
M  V30 21215 H 2114.7 0.861579 4.079 0
M  V30 21216 H 2113.36 0.0297527 3.24686 0
M  V30 21217 H 2114.37 3.70855 3.61506 0
M  V30 21218 H 2111.05 1.15845 4.01106 0
M  V30 21219 H 2112.44 5.19211 4.26462 0
M  V30 21220 N 2115.16 -1.04814 1.17694 0
M  V30 21221 C 2116.09 -2.12661 0.854872 0
M  V30 21222 C 2117.11 -1.62159 -0.144345 0
M  V30 21223 O 2118.3 -1.78309 0.0824726 0
M  V30 21224 C 2115.4 -3.37942 0.254679 0
M  V30 21225 C 2114.57 -4.17706 1.2977 0
M  V30 21226 C 2113.63 -5.21326 0.714573 0
M  V30 21227 O 2112.65 -5.52033 1.38736 0
M  V30 21228 N 2113.86 -5.78415 -0.491561 0
M  V30 21229 H 2116.62 -2.40885 1.7831 0
M  V30 21230 H 2114.18 -1.20943 1.0763 0
M  V30 21231 H 2116.17 -4.04426 -0.148817 0
M  V30 21232 H 2114.74 -3.07221 -0.577415 0
M  V30 21233 H 2113.96 -3.46655 1.8768 0
M  V30 21234 H 2115.25 -4.67796 2.00112 0
M  V30 21235 H 2114.65 -5.55756 -1.05604 0
M  V30 21236 H 2113.21 -6.46403 -0.837072 0
M  V30 21237 N 2116.64 -0.977779 -1.23601 0
M  V30 21238 C 2117.89 -0.646167 -1.9223 0
M  V30 21239 C 2118.22 0.817893 -1.76137 0
M  V30 21240 O 2117.49 1.58966 -1.12071 0
M  V30 21241 C 2117.78 -1.03412 -3.44932 0
M  V30 21242 C 2117.63 -2.55561 -3.70147 0
M  V30 21243 C 2118.95 -0.576087 -4.36313 0
M  V30 21244 H 2116.07 -0.236222 -0.698118 0
M  V30 21245 H 2118.71 -1.21859 -1.45775 0
M  V30 21246 H 2116.86 -0.547033 -3.84629 0
M  V30 21247 H 2118.53 -3.11824 -3.39947 0
M  V30 21248 H 2116.77 -2.98312 -3.14949 0
M  V30 21249 H 2117.45 -2.77756 -4.77028 0
M  V30 21250 H 2119.92 -0.994237 -4.04047 0
M  V30 21251 H 2118.8 -0.875993 -5.41865 0
M  V30 21252 H 2119.06 0.523647 -4.38988 0
M  V30 21253 N 2118.12 1.38658 -0.749111 0
M  V30 21254 C 2119.53 1.82966 -0.371524 0
M  V30 21255 C 2119.88 1.62519 1.09918 0
M  V30 21256 O 2119 1.12394 1.84923 0
M  V30 21257 C 2119.6 3.32158 -0.667553 0
M  V30 21258 C 2118.16 3.74831 -0.343297 0
M  V30 21259 C 2117.31 2.61488 -0.923014 0
M  V30 21260 H 2120.26 1.2745 -0.945625 0
M  V30 21261 H 2120.28 3.80459 0.0558088 0
M  V30 21262 H 2119.79 3.47008 -1.73801 0
M  V30 21263 H 2117.89 3.65562 0.72076 0
M  V30 21264 H 2118 4.71755 -0.83572 0
M  V30 21265 H 2116.37 2.52302 -0.348687 0
M  V30 21266 H 2117.15 2.79138 -1.99841 0
M  V30 21267 N 2119.6 0.497834 1.49531 0
M  V30 21268 C 2120.84 -0.0477142 2.02044 0
M  V30 21269 C 2121.16 -1.37777 1.37994 0
M  V30 21270 O 2120.43 -1.88476 0.534194 0
M  V30 21271 H 2119.01 -0.0206231 0.746715 0
M  V30 21272 H 2121.68 0.654353 1.83587 0
M  V30 21273 H 2120.77 -0.179706 3.11582 0
M  V30 21274 N 2121.07 -1.5589 0.231532 0
M  V30 21275 C 2122.3 -2.03407 -0.405035 0
M  V30 21276 C 2122.72 -1.11007 -1.51852 0
M  V30 21277 O 2122.08 -0.100101 -1.81023 0
M  V30 21278 C 2122.13 -3.4907 -0.904554 0
M  V30 21279 O 2121.23 -3.59808 -2.01524 0
M  V30 21280 H 2120.57 -0.657819 -0.090391 0
M  V30 21281 H 2123.1 -2.0153 0.353092 0
M  V30 21282 H 2123.11 -3.89589 -1.21178 0
M  V30 21283 H 2121.79 -4.15803 -0.0896407 0
M  V30 21284 H 2120.37 -3.3118 -1.71388 0
M  V30 21285 N 2122.55 0.0417572 -1.57545 0
M  V30 21286 C 2123.96 0.589951 -1.77134 0
M  V30 21287 C 2124.31 1.76299 -0.860987 0
M  V30 21288 O 2123.44 2.16336 -0.0525748 0
M  V30 21289 C 2124.03 1.077 -3.21226 0
M  V30 21290 C 2122.59 1.57081 -3.42056 0
M  V30 21291 C 2121.74 0.503265 -2.72695 0
M  V30 21292 H 2124.69 -0.18447 -1.57624 0
M  V30 21293 H 2124.71 1.94485 -3.27041 0
M  V30 21294 H 2124.22 0.22303 -3.87459 0
M  V30 21295 H 2122.32 2.44704 -2.80981 0
M  V30 21296 H 2122.44 1.62706 -4.50626 0
M  V30 21297 H 2120.8 0.955366 -2.36103 0
M  V30 21298 H 2121.58 -0.341024 -3.41602 0
M  V30 21299 N 2124.03 1.54445 0.313786 0
M  V30 21300 C 2125.28 1.73117 1.05056 0
M  V30 21301 C 2125.6 0.510078 1.87692 0
M  V30 21302 O 2124.86 -0.508109 1.88989 0
M  V30 21303 C 2125.16 2.96492 1.99568 0
M  V30 21304 C 2124.82 4.30835 1.3301 0
M  V30 21305 C 2123.49 4.67357 1.14589 0
M  V30 21306 C 2125.84 5.14169 0.853216 0
M  V30 21307 C 2123.17 5.84803 0.471447 0
M  V30 21308 C 2125.52 6.32307 0.192549 0
M  V30 21309 C 2124.18 6.675 -0.00372174 0
M  V30 21310 H 2123.45 0.633479 0.384428 0
M  V30 21311 H 2126.1 1.88693 0.326706 0
M  V30 21312 H 2124.4 2.75643 2.78438 0
M  V30 21313 H 2126.1 3.08133 2.56623 0
M  V30 21314 H 2122.69 4.02107 1.48351 0
M  V30 21315 H 2126.88 4.86462 0.983284 0
M  V30 21316 H 2122.13 6.10622 0.308274 0
M  V30 21317 H 2126.31 6.96154 -0.184925 0
M  V30 21318 H 2123.93 7.58362 -0.52835 0
M  V30 21319 N 2125.51 -0.576345 1.46683 0
M  V30 21320 C 2126.45 -1.68494 1.57729 0
M  V30 21321 C 2127.42 -1.6067 0.421246 0
M  V30 21322 O 2128.61 -1.79788 0.638829 0
M  V30 21323 C 2125.75 -3.0683 1.57953 0
M  V30 21324 C 2124.86 -3.25233 2.84337 0
M  V30 21325 C 2124 -4.53855 2.76024 0
M  V30 21326 C 2123.04 -4.65623 3.97319 0
M  V30 21327 N 2122.17 -5.85578 3.87354 0
M  V30 21328 H 2127.01 -1.58391 2.52421 0
M  V30 21329 H 2124.55 -0.771863 1.25223 0
M  V30 21330 H 2126.51 -3.86909 1.56068 0
M  V30 21331 H 2125.14 -3.15815 0.667889 0
M  V30 21332 H 2124.19 -2.38715 2.96174 0
M  V30 21333 H 2125.5 -3.29795 3.74215 0
M  V30 21334 H 2124.66 -5.4217 2.72281 0
M  V30 21335 H 2123.4 -4.51741 1.83797 0
M  V30 21336 H 2122.4 -3.75724 4.01387 0
M  V30 21337 H 2123.63 -4.69511 4.90649 0
M  V30 21338 H 2121.57 -5.84449 2.97918 0
M  V30 21339 H 2121.49 -5.91436 4.70892 0
M  V30 21340 H 2122.76 -6.76306 3.87596 0
M  V30 21341 N 2126.99 -1.34495 -0.82151 0
M  V30 21342 C 2128.23 -1.27119 -1.58014 0
M  V30 21343 C 2128.56 0.158163 -1.93555 0
M  V30 21344 O 2127.84 1.10389 -1.60139 0
M  V30 21345 C 2128.12 -2.16338 -2.87871 0
M  V30 21346 C 2127.98 -3.67818 -2.58902 0
M  V30 21347 C 2129.29 -2.04971 -3.89455 0
M  V30 21348 H 2126.41 -0.463115 -0.573318 0
M  V30 21349 H 2129.06 -1.6476 -0.946264 0
M  V30 21350 H 2127.21 -1.84367 -3.41966 0
M  V30 21351 H 2128.88 -4.10161 -2.11106 0
M  V30 21352 H 2127.12 -3.88837 -1.92324 0
M  V30 21353 H 2127.79 -4.25612 -3.51509 0
M  V30 21354 H 2130.27 -2.33044 -3.44717 0
M  V30 21355 H 2129.14 -2.6962 -4.78118 0
M  V30 21356 H 2129.4 -1.02711 -4.30003 0
M  V30 21357 N 2128.46 1.04188 -1.18248 0
M  V30 21358 C 2129.88 1.58822 -0.981458 0
M  V30 21359 C 2130.23 1.90507 0.469187 0
M  V30 21360 O 2129.35 1.6942 1.34632 0
M  V30 21361 C 2129.95 2.88565 -1.77526 0
M  V30 21362 C 2128.51 3.3982 -1.61862 0
M  V30 21363 C 2127.65 2.13421 -1.77051 0
M  V30 21364 H 2130.6 0.868749 -1.3281 0
M  V30 21365 H 2130.62 3.58905 -1.26362 0
M  V30 21366 H 2130.14 2.65472 -2.83101 0
M  V30 21367 H 2128.24 3.67928 -0.588186 0
M  V30 21368 H 2128.35 4.13728 -2.4159 0
M  V30 21369 H 2126.71 2.24667 -1.19986 0
M  V30 21370 H 2127.5 1.92785 -2.84058 0
M  V30 21371 N 2129.94 0.98432 1.23081 0
M  V30 21372 C 2131.19 0.656352 1.91885 0
M  V30 21373 C 2131.52 -0.808541 1.76568 0
M  V30 21374 O 2130.8 -1.5837 1.12912 0
M  V30 21375 C 2131.08 1.05239 3.44379 0
M  V30 21376 C 2130.93 2.57521 3.68786 0
M  V30 21377 C 2132.25 0.599218 4.36002 0
M  V30 21378 H 2129.37 0.23992 0.696855 0
M  V30 21379 H 2132.01 1.22631 1.45127 0
M  V30 21380 H 2130.16 0.567423 3.84334 0
M  V30 21381 H 2131.83 3.13622 3.38288 0
M  V30 21382 H 2130.08 2.99978 3.13362 0
M  V30 21383 H 2130.75 2.80282 4.75548 0
M  V30 21384 H 2133.22 1.01565 4.03514 0
M  V30 21385 H 2132.1 0.904717 5.41393 0
M  V30 21386 H 2132.36 -0.500359 4.39259 0
M  V30 21387 N 2131.42 -1.38259 0.756453 0
M  V30 21388 C 2132.37 -2.27752 0.10629 0
M  V30 21389 C 2133.35 -1.45343 -0.690231 0
M  V30 21390 O 2134.55 -1.6805 -0.555715 0
M  V30 21391 C 2131.68 -3.34231 -0.783865 0
M  V30 21392 C 2130.76 -4.24095 0.0196592 0
M  V30 21393 N 2131.15 -4.94621 1.05753 0
M  V30 21394 C 2129.45 -4.45521 -0.206711 0
M  V30 21395 C 2130.15 -5.60837 1.54393 0
M  V30 21396 N 2129.13 -5.36774 0.85873 0
M  V30 21397 H 2132.93 -2.79744 0.901144 0
M  V30 21398 H 2130.44 -1.51195 0.592764 0
M  V30 21399 H 2132.44 -3.97235 -1.26529 0
M  V30 21400 H 2131.1 -2.83797 -1.57764 0
M  V30 21401 H 2132.11 -4.97496 1.43938 0
M  V30 21402 H 2128.79 -4.05989 -0.973599 0
M  V30 21403 H 2130.18 -6.27245 2.4086 0
M  V30 21404 N 2132.9 -0.505757 -1.49264 0
M  V30 21405 C 2134.18 0.100315 -1.95343 0
M  V30 21406 C 2134.56 1.53667 -1.44739 0
M  V30 21407 O 2133.9 2.18663 -0.663221 0
M  V30 21408 C 2134.11 0.00805543 -3.48999 0
M  V30 21409 C 2135.46 0.179587 -4.2422 0
M  V30 21410 O 2136.49 0.0830161 -3.56103 0
M  V30 21411 O 2135.34 0.378466 -5.45188 0
M  V30 21412 H 2132.44 0.0926837 -0.82179 0
M  V30 21413 H 2134.98 -0.568634 -1.59889 0
M  V30 21414 H 2133.76 -0.993441 -3.78479 0
M  V30 21415 H 2133.38 0.716938 -3.91083 0
M  V30 21416 N 2134.38 1.55765 -0.239796 0
M  V30 21417 C 2135.62 1.99064 0.387489 0
M  V30 21418 C 2135.96 1.12765 1.58107 0
M  V30 21419 O 2135.23 0.189423 1.93575 0
M  V30 21420 C 2135.51 3.51003 0.80429 0
M  V30 21421 C 2135.37 4.48069 -0.394185 0
M  V30 21422 C 2136.69 4.07842 1.65386 0
M  V30 21423 H 2133.8 0.723702 0.139371 0
M  V30 21424 H 2136.45 1.86939 -0.339685 0
M  V30 21425 H 2134.6 3.61466 1.42388 0
M  V30 21426 H 2136.27 4.49595 -1.03255 0
M  V30 21427 H 2134.51 4.21186 -1.03852 0
M  V30 21428 H 2135.18 5.51968 -0.0593288 0
M  V30 21429 H 2137.66 4.00437 1.13092 0
M  V30 21430 H 2136.53 5.14435 1.91436 0
M  V30 21431 H 2136.8 3.55856 2.62333 0
M  V30 21432 N 2135.85 -0.0334016 1.57565 0
M  V30 21433 C 2137.08 -0.736973 1.9333 0
M  V30 21434 C 2137.5 -1.69124 0.83919 0
M  V30 21435 O 2136.85 -1.81563 -0.184737 0
M  V30 21436 C 2136.91 -1.49777 3.29012 0
M  V30 21437 O 2136.63 -0.581806 4.3422 0
M  V30 21438 C 2138.13 -2.29889 3.79033 0
M  V30 21439 H 2135.35 -0.207374 0.638151 0
M  V30 21440 H 2137.89 0.0077802 2.04499 0
M  V30 21441 H 2136.05 -2.19444 3.19254 0
M  V30 21442 H 2136.46 -1.11488 5.12514 0
M  V30 21443 H 2137.93 -2.78671 4.76494 0
M  V30 21444 H 2138.41 -3.11119 3.10003 0
M  V30 21445 H 2139.02 -1.65304 3.9186 0
M  V30 21446 N 2137.33 -1.54609 -0.305591 0
M  V30 21447 C 2138.61 -1.64344 -1.06068 0
M  V30 21448 C 2138.99 -0.488774 -2.05364 0
M  V30 21449 O 2138.34 0.515015 -2.2262 0
M  V30 21450 C 2138.55 -3.02149 -1.74663 0
M  V30 21451 C 2139.9 -3.58808 -2.27029 0
M  V30 21452 O 2140.92 -3.04571 -1.84703 0
M  V30 21453 O 2139.78 -4.53762 -3.04568 0
M  V30 21454 H 2136.87 -0.666216 -0.489984 0
M  V30 21455 H 2139.42 -1.66954 -0.304046 0
M  V30 21456 H 2138.19 -3.77626 -1.02538 0
M  V30 21457 H 2137.81 -3.03296 -2.57094 0
M  V30 21458 N 2138.81 0.568558 -1.46987 0
M  V30 21459 C 2139.77 1.65862 -1.58185 0
M  V30 21460 C 2140.77 1.54145 -0.457828 0
M  V30 21461 O 2141.96 1.58507 -0.722567 0
M  V30 21462 C 2139.1 3.05356 -1.5156 0
M  V30 21463 H 2140.29 1.57286 -2.55345 0
M  V30 21464 H 2137.84 0.787562 -1.35008 0
M  V30 21465 H 2138.58 3.19475 -0.557329 0
M  V30 21466 H 2138.36 3.1527 -2.33125 0
M  V30 21467 H 2139.85 3.84682 -1.62511 0
M  V30 21468 N 2140.29 1.34929 0.814366 0
M  V30 21469 C 2141.51 1.31019 1.60776 0
M  V30 21470 C 2141.94 -0.111347 1.8777 0
M  V30 21471 O 2141.3 -1.07577 1.45935 0
M  V30 21472 C 2141.34 2.11503 2.92059 0
M  V30 21473 O 2140.45 1.49042 3.84526 0
M  V30 21474 H 2139.79 0.449572 0.488652 0
M  V30 21475 H 2142.32 1.77857 1.01133 0
M  V30 21476 H 2142.33 2.23174 3.41552 0
M  V30 21477 H 2141 3.14853 2.71736 0
M  V30 21478 H 2139.58 1.46165 3.4306 0
M  V30 21479 N 2141.77 -1.0356 1.18799 0
M  V30 21480 C 2142.71 -2.11687 0.919622 0
M  V30 21481 C 2143.68 -1.65484 -0.142958 0
M  V30 21482 O 2144.87 -1.908 -0.00223972 0
M  V30 21483 C 2142.01 -3.4206 0.457036 0
M  V30 21484 C 2141.12 -4.01848 1.58562 0
M  V30 21485 C 2140.26 -5.20204 1.07524 0
M  V30 21486 C 2139.3 -5.72033 2.17817 0
M  V30 21487 N 2138.43 -6.8167 1.68136 0
M  V30 21488 H 2143.27 -2.33981 1.84546 0
M  V30 21489 H 2140.81 -1.14766 0.920172 0
M  V30 21490 H 2142.77 -4.16852 0.170279 0
M  V30 21491 H 2141.4 -3.19899 -0.431815 0
M  V30 21492 H 2140.45 -3.24335 1.98774 0
M  V30 21493 H 2141.76 -4.36338 2.41684 0
M  V30 21494 H 2140.92 -6.02129 0.743314 0
M  V30 21495 H 2139.65 -4.87232 0.213672 0
M  V30 21496 H 2138.66 -4.88725 2.51849 0
M  V30 21497 H 2139.88 -6.07047 3.04418 0
M  V30 21498 H 2137.83 -6.50564 0.842764 0
M  V30 21499 H 2137.75 -7.15251 2.44852 0
M  V30 21500 H 2139.02 -7.67208 1.37886 0
M  V30 21501 N 2143.25 -0.990834 -1.22557 0
M  V30 21502 C 2144.49 -0.666519 -1.91534 0
M  V30 21503 C 2144.82 0.799165 -1.76994 0
M  V30 21504 O 2144.1 1.57769 -1.13751 0
M  V30 21505 C 2144.38 -1.07064 -3.43816 0
M  V30 21506 C 2144.24 -2.59473 -3.67415 0
M  V30 21507 C 2145.55 -0.622332 -4.35678 0
M  V30 21508 H 2142.67 -0.243613 -0.695573 0
M  V30 21509 H 2145.32 -1.23399 -1.44474 0
M  V30 21510 H 2143.47 -0.587797 -3.84028 0
M  V30 21511 H 2145.14 -3.15412 -3.3662 0
M  V30 21512 H 2143.38 -3.01635 -3.11767 0
M  V30 21513 H 2144.05 -2.828 -4.74055 0
M  V30 21514 H 2146.53 -1.03704 -4.0297 0
M  V30 21515 H 2145.4 -0.933416 -5.40905 0
M  V30 21516 H 2145.66 0.477057 -4.39519 0
M  V30 21517 N 2144.72 1.37856 -0.763775 0
M  V30 21518 C 2145.67 2.30357 -0.142863 0
M  V30 21519 C 2146.64 1.50697 0.698548 0
M  V30 21520 O 2147.83 1.79294 0.652566 0
M  V30 21521 C 2144.97 3.3715 0.736468 0
M  V30 21522 C 2144.08 4.31831 -0.12068 0
M  V30 21523 C 2143.21 5.25697 0.762609 0
M  V30 21524 C 2142.25 6.12022 -0.0975572 0
M  V30 21525 N 2141.39 6.98155 0.74326 0
M  V30 21526 H 2146.23 2.82878 -0.937235 0
M  V30 21527 H 2143.77 1.39261 -0.473798 0
M  V30 21528 H 2145.72 3.97686 1.26102 0
M  V30 21529 H 2144.35 2.86014 1.49652 0
M  V30 21530 H 2143.41 3.7267 -0.762965 0
M  V30 21531 H 2144.72 4.92592 -0.784528 0
M  V30 21532 H 2143.87 5.91399 1.35395 0
M  V30 21533 H 2142.61 4.65328 1.46016 0
M  V30 21534 H 2141.62 5.45306 -0.70149 0
M  V30 21535 H 2142.84 6.74462 -0.792323 0
M  V30 21536 H 2140.79 6.40323 1.42558 0
M  V30 21537 H 2140.7 7.55877 0.136535 0
M  V30 21538 H 2141.97 7.68255 1.31925 0
M  V30 21539 N 2146.2 0.513665 1.48994 0
M  V30 21540 C 2147.44 -0.0245374 2.04385 0
M  V30 21541 C 2147.81 -1.33106 1.38372 0
M  V30 21542 O 2149.01 -1.95429 1.84556 0
M  V30 21543 C 2147.28 -0.160793 3.57038 0
M  V30 21544 S 2148.84 -0.651417 4.33938 0
M  V30 21545 H 2145.65 0.0042625 0.710987 0
M  V30 21546 H 2148.26 0.690517 1.82899 0
M  V30 21547 H 2146.96 0.795198 4.02622 0
M  V30 21548 H 2146.49 -0.900712 3.8295 0
M  V30 21549 H 2148.51 -1.9186 4.57607 0
M  V30 21550 N 2147.68 -1.55636 0.248053 0
M  V30 21551 C 2148.9 -2.03825 -0.383439 0
M  V30 21552 C 2149.33 -1.12611 -1.50666 0
M  V30 21553 O 2148.69 -0.119296 -1.80907 0
M  V30 21554 C 2148.74 -3.5001 -0.86748 0
M  V30 21555 O 2147.84 -3.61925 -1.97696 0
M  V30 21556 H 2147.18 -0.65874 -0.0834089 0
M  V30 21557 H 2149.71 -2.01144 0.374447 0
M  V30 21558 H 2149.72 -3.90853 -1.17039 0
M  V30 21559 H 2148.4 -4.15875 -0.0455341 0
M  V30 21560 H 2146.97 -3.3298 -1.67866 0
M  V30 21561 N 2149.16 0.0250451 -1.5758 0
M  V30 21562 C 2150.41 0.713634 -1.89081 0
M  V30 21563 C 2150.73 1.7568 -0.846258 0
M  V30 21564 O 2150 1.95534 0.119612 0
M  V30 21565 H 2148.58 0.266566 -0.697819 0
M  V30 21566 H 2151.24 -0.00995501 -1.94897 0
M  V30 21567 H 2150.33 1.20068 -2.8808 0
M  V30 21568 N 2150.64 1.54769 0.297388 0
M  V30 21569 C 2152.05 1.65183 0.87014 0
M  V30 21570 C 2152.4 0.562844 1.87953 0
M  V30 21571 O 2151.52 -0.299913 2.14312 0
M  V30 21572 C 2152.12 2.99437 1.58501 0
M  V30 21573 C 2150.68 3.1196 2.10612 0
M  V30 21574 C 2149.82 2.60882 0.94 0
M  V30 21575 H 2152.77 1.58526 0.0743014 0
M  V30 21576 H 2152.8 2.91063 2.45077 0
M  V30 21577 H 2152.31 3.78675 0.850115 0
M  V30 21578 H 2150.41 2.3745 2.87138 0
M  V30 21579 H 2150.52 4.1817 2.33817 0
M  V30 21580 H 2148.89 2.17426 1.32658 0
M  V30 21581 H 2149.67 3.42601 0.219 0
M  V30 21582 N 2152.11 -0.560755 1.47286 0
M  V30 21583 C 2153.36 -1.31548 1.53426 0
M  V30 21584 C 2153.68 -1.94006 0.196648 0
M  V30 21585 O 2152.95 -1.79743 -0.779049 0
M  V30 21586 H 2151.53 -0.488493 0.565141 0
M  V30 21587 H 2154.19 -0.655071 1.83562 0
M  V30 21588 H 2153.29 -2.11085 2.2989 0
M  V30 21589 N 2153.59 -1.35359 -0.807199 0
M  V30 21590 C 2154.52 -1.30893 -1.93363 0
M  V30 21591 C 2155.5 -0.183475 -1.69108 0
M  V30 21592 O 2156.69 -0.378339 -1.90479 0
M  V30 21593 C 2153.82 -1.07954 -3.30096 0
M  V30 21594 C 2152.77 -2.17133 -3.68832 0
M  V30 21595 C 2152.1 -1.7936 -5.0372 0
M  V30 21596 C 2153.4 -3.59094 -3.79274 0
M  V30 21597 H 2155.09 -2.25145 -1.97357 0
M  V30 21598 H 2152.64 -1.08381 -0.948131 0
M  V30 21599 H 2154.59 -1.03469 -4.085 0
M  V30 21600 H 2153.31 -0.101468 -3.26442 0
M  V30 21601 H 2151.97 -2.20714 -2.92713 0
M  V30 21602 H 2151.62 -0.801733 -4.96569 0
M  V30 21603 H 2151.32 -2.52445 -5.30608 0
M  V30 21604 H 2152.85 -1.764 -5.84564 0
M  V30 21605 H 2154.26 -3.57839 -4.47911 0
M  V30 21606 H 2152.66 -4.30934 -4.17632 0
M  V30 21607 H 2153.73 -3.9529 -2.80845 0
M  V30 21608 N 2155.07 1.02928 -1.19346 0
M  V30 21609 C 2156.29 1.80485 -1.02175 0
M  V30 21610 C 2156.72 1.83238 0.424925 0
M  V30 21611 O 2156.08 1.25809 1.30545 0
M  V30 21612 C 2156.13 3.23415 -1.59483 0
M  V30 21613 O 2155.23 4.04087 -0.823877 0
M  V30 21614 H 2154.57 0.557177 -0.361178 0
M  V30 21615 H 2157.1 1.29551 -1.5836 0
M  V30 21616 H 2157.11 3.74164 -1.62681 0
M  V30 21617 H 2155.79 3.20727 -2.64777 0
M  V30 21618 H 2154.36 3.62726 -0.865114 0
M  V30 21619 N 2156.55 0.997319 1.2203 0
M  V30 21620 C 2157.96 0.710132 1.72667 0
M  V30 21621 C 2158.31 -0.77273 1.80342 0
M  V30 21622 O 2157.43 -1.6039 1.45273 0
M  V30 21623 C 2158.03 1.28239 3.13592 0
M  V30 21624 C 2156.59 1.04449 3.61618 0
M  V30 21625 C 2155.74 1.3999 2.3937 0
M  V30 21626 H 2158.69 1.16915 1.07315 0
M  V30 21627 H 2158.71 0.663177 3.74676 0
M  V30 21628 H 2158.22 2.36164 3.07974 0
M  V30 21629 H 2156.32 -0.0179379 3.72596 0
M  V30 21630 H 2156.43 1.71098 4.47507 0
M  V30 21631 H 2154.8 0.818553 2.41188 0
M  V30 21632 H 2155.58 2.48928 2.3641 0
M  V30 21633 N 2158.03 -1.37449 0.771075 0
M  V30 21634 C 2159.27 -1.99314 0.33443 0
M  V30 21635 C 2159.6 -1.61515 -1.0926 0
M  V30 21636 O 2158.87 -0.880278 -1.75008 0
M  V30 21637 H 2157.45 -0.73719 0.120664 0
M  V30 21638 H 2160.11 -1.6794 0.989052 0
M  V30 21639 H 2159.2 -3.09375 0.411526 0
M  V30 21640 N 2159.5 -0.52156 -1.4872 0
M  V30 21641 C 2160.44 0.292887 -2.26313 0
M  V30 21642 C 2161.42 0.952293 -1.31796 0
M  V30 21643 O 2162.6 0.978349 -1.61123 0
M  V30 21644 C 2159.73 1.4141 -3.07768 0
M  V30 21645 C 2158.77 0.866968 -4.17595 0
M  V30 21646 S 2159.61 -0.258537 -5.34876 0
M  V30 21647 C 2160.76 0.865353 -6.19889 0
M  V30 21648 H 2160.99 -0.365638 -2.95043 0
M  V30 21649 H 2158.53 -0.307197 -1.51313 0
M  V30 21650 H 2160.49 2.05642 -3.55277 0
M  V30 21651 H 2159.15 2.04432 -2.38467 0
M  V30 21652 H 2158.34 1.70784 -4.74182 0
M  V30 21653 H 2157.94 0.301497 -3.72783 0
M  V30 21654 H 2160.23 1.76594 -6.5408 0
M  V30 21655 H 2161.18 0.337647 -7.07295 0
M  V30 21656 H 2161.58 1.14196 -5.52829 0
M  V30 21657 N 2160.98 1.55502 -0.256304 0
M  V30 21658 C 2162.23 1.99463 0.366354 0
M  V30 21659 C 2162.56 1.14436 1.56902 0
M  V30 21660 O 2161.84 0.209944 1.93364 0
M  V30 21661 C 2162.12 3.51836 0.767016 0
M  V30 21662 C 2161.97 4.47626 -0.441687 0
M  V30 21663 C 2163.29 4.09574 1.61051 0
M  V30 21664 H 2160.41 0.72514 0.131688 0
M  V30 21665 H 2163.05 1.86568 -0.359494 0
M  V30 21666 H 2161.2 3.62956 1.38546 0
M  V30 21667 H 2162.87 4.48475 -1.08018 0
M  V30 21668 H 2161.12 4.2006 -1.08313 0
M  V30 21669 H 2161.79 5.51874 -0.117869 0
M  V30 21670 H 2164.26 4.01614 1.08838 0
M  V30 21671 H 2163.14 5.16436 1.85969 0
M  V30 21672 H 2163.4 3.58619 2.58544 0
M  V30 21673 N 2162.46 -0.0166879 1.57591 0
M  V30 21674 C 2163.88 -0.372531 1.55191 0
M  V30 21675 C 2164.08 -1.75838 0.984042 0
M  V30 21676 O 2163.13 -2.45008 0.610513 0
M  V30 21677 C 2164.45 -0.263043 2.99547 0
M  V30 21678 C 2165.99 -0.339216 3.11156 0
M  V30 21679 C 2166.47 -0.259039 4.57267 0
M  V30 21680 N 2167.96 -0.317455 4.62111 0
M  V30 21681 C 2168.69 -0.278499 5.72723 0
M  V30 21682 N 2168.19 -0.191112 6.92536 0
M  V30 21683 N 2169.98 -0.32914 5.61136 0
M  V30 21684 H 2162.13 0.890086 1.9285 0
M  V30 21685 H 2164.4 0.339637 0.885071 0
M  V30 21686 H 2164.1 0.689794 3.44869 0
M  V30 21687 H 2163.98 -1.0518 3.62239 0
M  V30 21688 H 2166.36 -1.28249 2.65775 0
M  V30 21689 H 2166.45 0.479109 2.51273 0
M  V30 21690 H 2166.09 0.68062 5.03319 0
M  V30 21691 H 2166.02 -1.09563 5.15076 0
M  V30 21692 H 2168.51 -0.387004 3.75913 0
M  V30 21693 H 2168.82 -0.166827 7.7262 0
M  V30 21694 H 2167.17 -0.15698 6.94823 0
M  V30 21695 H 2170.36 -0.395489 4.66426 0
M  V30 21696 H 2170.53 -0.295314 6.47327 0
M  V30 21697 N 2163.94 -1.54924 -0.289176 0
M  V30 21698 C 2164.9 -1.85935 -1.34017 0
M  V30 21699 C 2165.9 -0.732916 -1.43126 0
M  V30 21700 O 2167.09 -1.00116 -1.42556 0
M  V30 21701 C 2164.22 -2.0502 -2.72359 0
M  V30 21702 H 2165.42 -2.79872 -1.07758 0
M  V30 21703 H 2162.97 -1.47168 -0.526442 0
M  V30 21704 H 2163.7 -1.13412 -3.03823 0
M  V30 21705 H 2163.49 -2.8702 -2.67136 0
M  V30 21706 H 2164.98 -2.30342 -3.48328 0
M  V30 21707 N 2165.42 0.552936 -1.47582 0
M  V30 21708 C 2166.36 1.68064 -1.60802 0
M  V30 21709 C 2167.36 1.62599 -0.475175 0
M  V30 21710 O 2168.56 1.67733 -0.653122 0
M  V30 21711 H 2164.94 0.556179 -0.506131 0
M  V30 21712 H 2166.91 1.54051 -2.5556 0
M  V30 21713 C 2165.66 3.06407 -1.64348 0
M  V30 21714 H 2164.98 3.11295 -2.50869 0
M  V30 21715 H 2166.42 3.8499 -1.77647 0
M  V30 21716 C 2164.88 3.34777 -0.377611 0
M  V30 21717 O 2165.41 3.98327 0.519466 0
M  V30 21718 N 2163.62 2.89467 -0.256324 0
M  V30 21719 H 2163.16 2.3793 -0.98727 0
M  V30 21720 H 2163.12 3.0882 0.589696 0
M  V30 21721 N 2166.89 1.35785 0.800009 0
M  V30 21722 C 2167.82 1.31917 1.92666 0
M  V30 21723 C 2168.81 0.19244 1.69008 0
M  V30 21724 O 2169.99 0.388435 1.90276 0
M  V30 21725 C 2167.12 1.09703 3.29519 0
M  V30 21726 C 2166.07 2.19086 3.67675 0
M  V30 21727 C 2165.4 1.82029 5.02762 0
M  V30 21728 C 2166.7 3.611 3.77365 0
M  V30 21729 H 2168.39 2.26189 1.96161 0
M  V30 21730 H 2165.94 1.08882 0.94237 0
M  V30 21731 H 2167.89 1.05634 4.07945 0
M  V30 21732 H 2166.62 0.118779 3.26384 0
M  V30 21733 H 2165.28 2.22263 2.91539 0
M  V30 21734 H 2164.92 0.828056 4.96137 0
M  V30 21735 H 2164.62 2.55256 5.29262 0
M  V30 21736 H 2166.15 1.79497 5.83621 0
M  V30 21737 H 2167.56 3.60209 4.46007 0
M  V30 21738 H 2165.96 4.33143 4.1534 0
M  V30 21739 H 2167.03 3.96774 2.78744 0
M  V30 21740 N 2168.37 -1.02294 1.19891 0
M  V30 21741 C 2169.78 -1.5724 1.0066 0
M  V30 21742 C 2170.13 -1.9123 -0.43882 0
M  V30 21743 O 2169.26 -1.71541 -1.31919 0
M  V30 21744 C 2169.85 -2.85704 1.82094 0
M  V30 21745 C 2168.41 -3.37202 1.67248 0
M  V30 21746 C 2167.56 -2.10577 1.80424 0
M  V30 21747 H 2170.51 -0.84751 1.34175 0
M  V30 21748 H 2170.53 -3.56849 1.32056 0
M  V30 21749 H 2170.04 -2.60935 2.87289 0
M  V30 21750 H 2168.15 -3.66946 0.646645 0
M  V30 21751 H 2168.26 -4.09832 2.48142 0
M  V30 21752 H 2166.62 -2.2273 1.23545 0
M  V30 21753 H 2167.41 -1.88241 2.87089 0
M  V30 21754 N 2169.85 -1.00378 -1.21499 0
M  V30 21755 C 2170.78 -0.521384 -2.23191 0
M  V30 21756 C 2171.8 0.389369 -1.58075 0
M  V30 21757 O 2172.98 0.189763 -1.77488 0
M  V30 21758 C 2170.08 0.262422 -3.37882 0
M  V30 21759 C 2169.26 -0.647107 -4.32587 0
M  V30 21760 C 2168.32 0.0868769 -5.26128 0
M  V30 21761 O 2167.34 -0.531365 -5.66714 0
M  V30 21762 N 2168.54 1.36582 -5.64203 0
M  V30 21763 H 2171.31 -1.39587 -2.65208 0
M  V30 21764 H 2168.87 -0.879774 -1.3591 0
M  V30 21765 H 2170.86 0.762368 -3.97454 0
M  V30 21766 H 2169.43 1.03809 -2.9486 0
M  V30 21767 H 2168.65 -1.32756 -3.71173 0
M  V30 21768 H 2169.94 -1.26613 -4.92795 0
M  V30 21769 H 2169.34 1.88926 -5.3322 0
M  V30 21770 H 2167.9 1.81075 -6.26143 0
M  V30 21771 N 2171.33 1.37038 -0.778354 0
M  V30 21772 C 2172.55 2.0432 -0.356086 0
M  V30 21773 C 2172.98 1.58315 1.01577 0
M  V30 21774 O 2172.34 0.74645 1.65221 0
M  V30 21775 C 2172.38 3.58196 -0.41573 0
M  V30 21776 O 2171.49 4.08281 0.581416 0
M  V30 21777 H 2170.83 0.646127 -0.153022 0
M  V30 21778 H 2173.36 1.75219 -1.05639 0
M  V30 21779 H 2173.37 4.0707 -0.275375 0
M  V30 21780 H 2172.04 3.91034 -1.41652 0
M  V30 21781 H 2170.62 3.70709 0.403635 0
M  V30 21782 N 2172.81 0.529439 1.48441 0
M  V30 21783 C 2174.05 -0.00485664 2.02499 0
M  V30 21784 C 2174.38 -1.34333 1.40659 0
M  V30 21785 O 2173.64 -1.88057 0.541576 0
M  V30 21786 C 2173.94 -0.176478 3.56964 0
M  V30 21787 C 2173.6 1.08757 4.37587 0
M  V30 21788 C 2172.26 1.434 4.59336 0
M  V30 21789 C 2174.62 1.92647 4.8429 0
M  V30 21790 C 2171.94 2.61831 5.25035 0
M  V30 21791 C 2174.3 3.10256 5.51293 0
M  V30 21792 C 2172.96 3.45246 5.71281 0
M  V30 21793 H 2172.23 -0.00177717 0.740998 0
M  V30 21794 H 2174.88 0.695352 1.7843 0
M  V30 21795 H 2173.18 -0.959449 3.79871 0
M  V30 21796 H 2174.88 -0.604791 3.96413 0
M  V30 21797 H 2171.47 0.807773 4.20919 0
M  V30 21798 H 2175.65 1.67194 4.6729 0
M  V30 21799 H 2170.91 2.89143 5.38708 0
M  V30 21800 H 2175.08 3.75566 5.86449 0
M  V30 21801 H 2172.71 4.37113 6.21961 0
M  V30 21802 N 2174.29 -1.55364 0.264547 0
M  V30 21803 C 2175.22 -2.19475 -0.660544 0
M  V30 21804 C 2176.23 -1.17628 -1.1255 0
M  V30 21805 O 2177.42 -1.44407 -1.04923 0
M  V30 21806 C 2174.52 -2.79832 -1.91173 0
M  V30 21807 C 2173.69 -4.07269 -1.59533 0
M  V30 21808 C 2172.75 -4.51774 -2.6979 0
M  V30 21809 O 2171.78 -5.17776 -2.36425 0
M  V30 21810 N 2172.98 -4.2103 -3.99642 0
M  V30 21811 H 2175.74 -2.99491 -0.111888 0
M  V30 21812 H 2173.31 -1.61676 0.0852139 0
M  V30 21813 H 2175.3 -3.06555 -2.64209 0
M  V30 21814 H 2173.87 -2.03871 -2.36971 0
M  V30 21815 H 2173.09 -3.87948 -0.699303 0
M  V30 21816 H 2174.38 -4.9032 -1.35881 0
M  V30 21817 H 2173.77 -3.68079 -4.29575 0
M  V30 21818 H 2172.33 -4.52548 -4.69088 0
M  V30 21819 N 2175.76 0.00833021 -1.57598 0
M  V30 21820 C 2177.01 0.695941 -1.90485 0
M  V30 21821 C 2177.34 1.73883 -0.864775 0
M  V30 21822 O 2176.62 1.94144 0.11758 0
M  V30 21823 C 2176.9 1.34667 -3.33971 0
M  V30 21824 C 2176.75 0.315885 -4.48689 0
M  V30 21825 C 2178.07 2.2751 -3.76732 0
M  V30 21826 H 2175.19 0.251528 -0.69275 0
M  V30 21827 H 2177.83 -0.0412539 -1.89955 0
M  V30 21828 H 2175.98 1.975 -3.34553 0
M  V30 21829 H 2177.66 -0.312127 -4.60243 0
M  V30 21830 H 2175.9 -0.362729 -4.32281 0
M  V30 21831 H 2176.57 0.810081 -5.46024 0
M  V30 21832 H 2179.05 1.74702 -3.77649 0
M  V30 21833 H 2177.92 2.70011 -4.77897 0
M  V30 21834 H 2178.18 3.15068 -3.10136 0
M  V30 21835 N 2177.24 1.55075 0.280956 0
M  V30 21836 C 2178.52 1.6601 1.0344 0
M  V30 21837 C 2178.9 0.521384 2.0456 0
M  V30 21838 O 2178.25 -0.479533 2.23412 0
M  V30 21839 C 2178.46 3.04889 1.69834 0
M  V30 21840 C 2179.8 3.62374 2.21292 0
M  V30 21841 O 2180.83 3.07471 1.79834 0
M  V30 21842 O 2179.69 4.5855 2.97311 0
M  V30 21843 H 2176.78 0.673927 0.479324 0
M  V30 21844 H 2179.33 1.67417 0.277446 0
M  V30 21845 H 2178.1 3.7921 0.96517 0
M  V30 21846 H 2177.72 3.07347 2.52237 0
M  V30 21847 N 2178.72 -0.545102 1.47873 0
M  V30 21848 C 2179.95 -1.32682 1.58755 0
M  V30 21849 C 2180.36 -1.8724 0.242172 0
M  V30 21850 O 2179.72 -1.65628 -0.766386 0
M  V30 21851 C 2179.77 -2.48828 2.62234 0
M  V30 21852 O 2179.49 -1.96522 3.91549 0
M  V30 21853 C 2180.99 -3.40869 2.83414 0
M  V30 21854 H 2178.21 -0.404033 0.535722 0
M  V30 21855 H 2180.76 -0.659132 1.93586 0
M  V30 21856 H 2178.91 -3.11511 2.30303 0
M  V30 21857 H 2179.33 -2.72436 4.48195 0
M  V30 21858 H 2180.8 -4.18751 3.59655 0
M  V30 21859 H 2181.28 -3.95166 1.91679 0
M  V30 21860 H 2181.88 -2.83991 3.1659 0
M  V30 21861 N 2180.2 -1.36208 -0.792797 0
M  V30 21862 C 2181.42 -1.3356 -1.58671 0
M  V30 21863 C 2181.85 0.0814602 -1.87924 0
M  V30 21864 O 2181.21 1.05241 -1.47628 0
M  V30 21865 C 2181.25 -2.16123 -2.88658 0
M  V30 21866 O 2180.36 -1.5514 -3.82106 0
M  V30 21867 H 2179.7 -0.45729 -0.481438 0
M  V30 21868 H 2182.23 -1.79444 -0.982909 0
M  V30 21869 H 2182.24 -2.28579 -3.37958 0
M  V30 21870 H 2180.91 -3.19136 -2.66693 0
M  V30 21871 H 2179.49 -1.51604 -3.40691 0
M  V30 21872 N 2181.68 1.01656 -1.20431 0
M  V30 21873 C 2182.62 2.10198 -0.953184 0
M  V30 21874 C 2183.59 1.6569 0.116613 0
M  V30 21875 O 2184.78 1.90779 -0.0281152 0
M  V30 21876 C 2181.92 3.4129 -0.511397 0
M  V30 21877 C 2181.03 3.99275 -1.64935 0
M  V30 21878 C 2180.17 5.18427 -1.15787 0
M  V30 21879 C 2179.2 5.68496 -2.2689 0
M  V30 21880 N 2178.34 6.78909 -1.7896 0
M  V30 21881 H 2183.18 2.31015 -1.88245 0
M  V30 21882 H 2180.72 1.13288 -0.938314 0
M  V30 21883 H 2182.68 4.16529 -0.236575 0
M  V30 21884 H 2181.31 3.20545 0.380867 0
M  V30 21885 H 2180.36 3.21132 -2.03909 0
M  V30 21886 H 2181.67 4.32437 -2.48595 0
M  V30 21887 H 2180.82 6.00871 -0.839013 0
M  V30 21888 H 2179.56 4.8683 -0.291159 0
M  V30 21889 H 2178.57 4.84657 -2.59592 0
M  V30 21890 H 2179.79 6.02127 -3.14037 0
M  V30 21891 H 2177.74 6.49141 -0.946156 0
M  V30 21892 H 2177.66 7.11265 -2.562 0
M  V30 21893 H 2178.92 7.64917 -1.50074 0
M  V30 21894 N 2183.15 1.01021 1.20965 0
M  V30 21895 C 2184.12 0.579903 2.21743 0
M  V30 21896 C 2185.12 -0.34653 1.57022 0
M  V30 21897 O 2186.31 -0.136099 1.73668 0
M  V30 21898 C 2183.44 -0.154061 3.40552 0
M  V30 21899 H 2184.63 1.47135 2.61326 0
M  V30 21900 H 2182.18 0.79929 1.34317 0
M  V30 21901 H 2182.92 -1.06071 3.06463 0
M  V30 21902 H 2182.7 0.511376 3.88751 0
M  V30 21903 H 2184.19 -0.44269 4.15247 0
M  V30 21904 N 2184.63 -1.36623 0.78561 0
M  V30 21905 C 2185.88 -1.98948 0.355551 0
M  V30 21906 C 2186.2 -1.62665 -1.07541 0
M  V30 21907 O 2185.47 -0.89879 -1.74065 0
M  V30 21908 H 2184.05 -0.735869 0.128476 0
M  V30 21909 H 2186.71 -1.66881 1.00681 0
M  V30 21910 H 2185.81 -3.08921 0.444316 0
M  V30 21911 N 2186.11 -0.537304 -1.48158 0
M  V30 21912 C 2187.36 -0.00589118 -2.02799 0
M  V30 21913 C 2187.69 1.33238 -1.41285 0
M  V30 21914 O 2186.96 1.86228 -0.56121 0
M  V30 21915 C 2187.25 0.108356 -3.59937 0
M  V30 21916 C 2187.1 -1.2556 -4.3192 0
M  V30 21917 C 2188.42 0.831579 -4.32172 0
M  V30 21918 H 2185.54 -0.00361491 -0.736991 0
M  V30 21919 H 2188.18 -0.69575 -1.76803 0
M  V30 21920 H 2186.33 0.695893 -3.82217 0
M  V30 21921 H 2188 -1.88481 -4.21038 0
M  V30 21922 H 2186.24 -1.83557 -3.93051 0
M  V30 21923 H 2186.92 -1.12858 -5.4034 0
M  V30 21924 H 2189.39 0.332919 -4.14766 0
M  V30 21925 H 2188.27 0.880431 -5.41793 0
M  V30 21926 H 2188.53 1.88346 -3.99973 0
M  V30 21927 N 2187.59 1.55221 -0.272782 0
M  V30 21928 C 2188.55 2.21137 0.602593 0
M  V30 21929 C 2189.55 1.1885 1.08311 0
M  V30 21930 O 2190.74 1.4377 0.983663 0
M  V30 21931 C 2187.87 2.87548 1.8311 0
M  V30 21932 H 2189.07 2.99888 0.0271068 0
M  V30 21933 H 2186.62 1.56283 -0.0233836 0
M  V30 21934 H 2187.35 2.12802 2.44716 0
M  V30 21935 H 2187.14 3.62502 1.49449 0
M  V30 21936 H 2188.63 3.37914 2.45365 0
M  V30 21937 N 2189.07 2.77022e-05 1.576 0
M  V30 21938 C 2190.48 -0.54278 1.78636 0
M  V30 21939 C 2190.83 -1.73955 0.907427 0
M  V30 21940 O 2189.95 -2.16121 0.109914 0
M  V30 21941 C 2190.55 -0.991451 3.23969 0
M  V30 21942 C 2189.11 -1.47957 3.46101 0
M  V30 21943 C 2188.25 -0.430787 2.73933 0
M  V30 21944 H 2191.21 0.226196 1.5708 0
M  V30 21945 H 2191.23 -1.85746 3.32083 0
M  V30 21946 H 2190.74 -0.120224 3.87914 0
M  V30 21947 H 2188.84 -2.37169 2.8737 0
M  V30 21948 H 2188.95 -1.50701 4.54781 0
M  V30 21949 H 2187.32 -0.892431 2.38553 0
M  V30 21950 H 2188.1 0.431474 3.40578 0
M  V30 21951 N 2190.54 -1.55222 -0.272728 0
M  V30 21952 C 2191.47 -1.9113 -1.34133 0
M  V30 21953 C 2192.46 -0.773195 -1.51511 0
M  V30 21954 O 2193.64 -1.03135 -1.6455 0
M  V30 21955 C 2190.77 -2.18345 -2.70079 0
M  V30 21956 C 2189.72 -3.34162 -2.67431 0
M  V30 21957 C 2189.05 -3.46858 -4.06932 0
M  V30 21958 C 2190.35 -4.70547 -2.26677 0
M  V30 21959 H 2192.04 -2.80635 -1.04328 0
M  V30 21960 H 2189.59 -1.35025 -0.50043 0
M  V30 21961 H 2191.54 -2.42052 -3.44948 0
M  V30 21962 H 2190.27 -1.25639 -3.01467 0
M  V30 21963 H 2188.93 -3.10423 -1.9502 0
M  V30 21964 H 2188.57 -2.51618 -4.35542 0
M  V30 21965 H 2188.27 -4.24727 -4.06055 0
M  V30 21966 H 2189.8 -3.72858 -4.83539 0
M  V30 21967 H 2191.21 -4.93797 -2.91268 0
M  V30 21968 H 2189.61 -5.51334 -2.36961 0
M  V30 21969 H 2190.68 -4.69351 -1.2181 0
M  V30 21970 N 2192.02 0.537252 -1.4816 0
M  V30 21971 C 2192.95 1.65828 -1.58221 0
M  V30 21972 C 2193.97 1.55959 -0.466975 0
M  V30 21973 O 2195.16 1.62552 -0.737499 0
M  V30 21974 C 2192.26 3.04432 -1.48911 0
M  V30 21975 C 2191.43 3.39855 -2.75349 0
M  V30 21976 C 2190.49 4.57708 -2.59596 0
M  V30 21977 O 2189.51 4.61291 -3.33465 0
M  V30 21978 N 2190.72 5.55436 -1.68734 0
M  V30 21979 H 2193.48 1.57637 -2.54893 0
M  V30 21980 H 2191.04 0.72436 -1.44792 0
M  V30 21981 H 2193.03 3.81136 -1.36078 0
M  V30 21982 H 2191.6 3.0674 -0.602422 0
M  V30 21983 H 2190.82 2.52401 -3.028 0
M  V30 21984 H 2192.11 3.60305 -3.59246 0
M  V30 21985 H 2191.51 5.55313 -1.07908 0
M  V30 21986 H 2190.07 6.31387 -1.61843 0
M  V30 21987 N 2193.5 1.36626 0.785562 0
M  V30 21988 C 2194.75 1.31264 1.54588 0
M  V30 21989 C 2195.08 -0.106789 1.93906 0
M  V30 21990 O 2194.35 -1.06105 1.63009 0
M  V30 21991 C 2194.64 2.23894 2.82034 0
M  V30 21992 C 2194.49 3.74553 2.49059 0
M  V30 21993 C 2195.81 2.15224 3.83884 0
M  V30 21994 H 2192.93 0.478152 0.560838 0
M  V30 21995 H 2195.57 1.67211 0.902248 0
M  V30 21996 H 2193.72 1.93369 3.36958 0
M  V30 21997 H 2195.39 4.15614 2.00157 0
M  V30 21998 H 2193.64 3.93799 1.81947 0
M  V30 21999 H 2194.31 4.34782 3.40101 0
M  V30 22000 H 2196.78 2.42101 3.38417 0
M  V30 22001 H 2195.66 2.82201 4.70801 0
M  V30 22002 H 2195.92 1.14075 4.27129 0
M  V30 22003 N 2194.98 -1.01016 1.20969 0
M  V30 22004 C 2195.93 -2.09689 0.964317 0
M  V30 22005 C 2196.9 -1.6575 -0.107824 0
M  V30 22006 O 2198.08 -1.90762 0.0382323 0
M  V30 22007 C 2195.22 -3.41014 0.52949 0
M  V30 22008 C 2194.33 -3.98395 1.6705 0
M  V30 22009 C 2193.47 -5.17806 1.18534 0
M  V30 22010 C 2192.51 -5.67284 2.29902 0
M  V30 22011 N 2191.64 -6.77951 1.82558 0
M  V30 22012 H 2196.48 -2.30013 1.89467 0
M  V30 22013 H 2194.02 -1.12788 0.944309 0
M  V30 22014 H 2195.98 -4.16397 0.258662 0
M  V30 22015 H 2194.61 -3.20743 -0.363862 0
M  V30 22016 H 2193.66 -3.20046 2.05609 0
M  V30 22017 H 2194.97 -4.31113 2.50885 0
M  V30 22018 H 2194.13 -6.00417 0.870867 0
M  V30 22019 H 2192.87 -4.86669 0.316973 0
M  V30 22020 H 2191.87 -4.83273 2.62158 0
M  V30 22021 H 2193.1 -6.00453 3.17226 0
M  V30 22022 H 2191.04 -6.4863 0.980568 0
M  V30 22023 H 2190.96 -7.09896 2.59969 0
M  V30 22024 H 2192.23 -7.6411 1.54129 0
M  V30 22025 N 2196.46 -1.01661 -1.20428 0
M  V30 22026 C 2197.7 -0.706996 -1.90077 0
M  V30 22027 C 2198.04 0.761442 -1.7865 0
M  V30 22028 O 2197.31 1.55321 -1.17072 0
M  V30 22029 C 2197.59 -1.14333 -3.41467 0
M  V30 22030 C 2197.45 -2.67208 -3.61829 0
M  V30 22031 C 2198.77 -0.714606 -4.3426 0
M  V30 22032 H 2195.88 -0.258312 -0.690249 0
M  V30 22033 H 2198.53 -1.26435 -1.41824 0
M  V30 22034 H 2196.68 -0.669123 -3.82694 0
M  V30 22035 H 2198.35 -3.22481 -3.29854 0
M  V30 22036 H 2196.59 -3.0818 -3.05299 0
M  V30 22037 H 2197.26 -2.92792 -4.6795 0
M  V30 22038 H 2199.74 -1.12228 -4.0068 0
M  V30 22039 H 2198.61 -1.04794 -5.38804 0
M  V30 22040 H 2198.88 0.383721 -4.40432 0
M  V30 22041 N 2197.93 1.36205 -0.792844 0
M  V30 22042 C 2198.87 2.28699 -0.15151 0
M  V30 22043 C 2199.88 1.4964 0.641235 0
M  V30 22044 O 2201.07 1.7204 0.475854 0
M  V30 22045 C 2198.17 3.29118 0.808366 0
M  V30 22046 C 2197.34 4.37352 0.0649434 0
M  V30 22047 C 2196.4 5.17713 0.941267 0
M  V30 22048 O 2195.43 5.67812 0.397252 0
M  V30 22049 N 2196.63 5.34484 2.26511 0
M  V30 22050 H 2199.39 2.84377 -0.946032 0
M  V30 22051 H 2196.95 1.48407 -0.647058 0
M  V30 22052 H 2198.95 3.79767 1.39853 0
M  V30 22053 H 2197.52 2.74055 1.50375 0
M  V30 22054 H 2196.74 3.8782 -0.706324 0
M  V30 22055 H 2198.02 5.06824 -0.447936 0
M  V30 22056 H 2197.42 4.95401 2.73119 0
M  V30 22057 H 2195.98 5.88364 2.80483 0
M  V30 22058 N 2199.41 0.545154 1.47871 0
M  V30 22059 C 2200.66 0.0165886 2.02093 0
M  V30 22060 C 2200.98 -1.33317 1.42308 0
M  V30 22061 O 2200.25 -1.86681 0.593886 0
M  V30 22062 H 2198.83 0.00314351 0.746993 0
M  V30 22063 H 2201.49 0.712429 1.81412 0
M  V30 22064 H 2200.59 -0.0804873 3.11996 0
M  V30 22065 N 2200.89 -1.55074 0.28101 0
M  V30 22066 C 2202.3 -1.85451 -0.215596 0
M  V30 22067 C 2202.65 -1.20303 -1.54989 0
M  V30 22068 O 2201.78 -0.493472 -2.10698 0
M  V30 22069 C 2202.37 -3.36455 -0.397967 0
M  V30 22070 C 2200.93 -3.66935 -0.838802 0
M  V30 22071 C 2200.08 -2.77225 0.0645067 0
M  V30 22072 H 2203.03 -1.5053 0.502627 0
M  V30 22073 H 2203.05 -3.59878 -1.23563 0
M  V30 22074 H 2202.56 -3.83842 0.573309 0
M  V30 22075 H 2200.66 -3.25051 -1.82134 0
M  V30 22076 H 2200.78 -4.74363 -0.67204 0
M  V30 22077 H 2199.14 -2.50642 -0.452819 0
M  V30 22078 H 2199.92 -3.27428 1.03177 0
M  V30 22079 N 2202.37 -0.00838561 -1.57598 0
M  V30 22080 C 2203.32 0.980309 -2.08946 0
M  V30 22081 C 2204.29 1.33612 -0.986761 0
M  V30 22082 O 2205.47 1.43304 -1.25971 0
M  V30 22083 C 2202.61 2.2643 -2.60429 0
M  V30 22084 C 2201.72 1.96678 -3.84632 0
M  V30 22085 C 2200.86 3.1922 -4.24584 0
M  V30 22086 C 2199.9 2.85192 -5.41601 0
M  V30 22087 N 2199.04 4.00297 -5.76807 0
M  V30 22088 H 2203.88 0.535499 -2.93149 0
M  V30 22089 H 2201.41 0.252751 -1.44912 0
M  V30 22090 H 2203.37 3.01504 -2.88359 0
M  V30 22091 H 2202 2.68565 -1.79088 0
M  V30 22092 H 2201.05 1.11936 -3.63558 0
M  V30 22093 H 2202.36 1.67603 -4.69799 0
M  V30 22094 H 2201.52 4.02633 -4.53841 0
M  V30 22095 H 2200.26 3.51441 -3.38143 0
M  V30 22096 H 2199.26 2.00189 -5.12059 0
M  V30 22097 H 2200.49 2.54211 -6.29725 0
M  V30 22098 H 2198.43 4.32398 -4.93323 0
M  V30 22099 H 2198.35 3.74774 -6.56567 0
M  V30 22100 H 2199.62 4.84473 -6.1066 0
M  V30 22101 N 2203.85 1.55365 0.264492 0
M  V30 22102 C 2205.1 1.76023 0.99299 0
M  V30 22103 C 2205.42 0.569132 1.8651 0
M  V30 22104 O 2204.69 -0.415701 1.91439 0
M  V30 22105 H 2203.27 0.649141 0.369627 0
M  V30 22106 H 2205.93 1.9278 0.286673 0
M  V30 22107 H 2205.02 2.6646 1.62498 0
M  V30 22108 N 2205.33 -0.529387 1.48443 0
M  V30 22109 C 2206.26 -1.6431 1.65905 0
M  V30 22110 C 2207.24 -1.6234 0.507926 0
M  V30 22111 O 2208.42 -1.79526 0.740534 0
M  V30 22112 C 2205.55 -3.02895 1.69917 0
M  V30 22113 C 2204.51 -3.19724 2.84536 0
M  V30 22114 C 2203.83 -4.59377 2.73637 0
M  V30 22115 C 2205.13 -3.02439 4.25826 0
M  V30 22116 H 2206.83 -1.49951 2.59143 0
M  V30 22117 H 2204.37 -0.71996 1.2471 0
M  V30 22118 H 2206.32 -3.80681 1.80721 0
M  V30 22119 H 2205.05 -3.18278 0.73258 0
M  V30 22120 H 2203.71 -2.44356 2.73287 0
M  V30 22121 H 2203.36 -4.71596 1.74946 0
M  V30 22122 H 2203.06 -4.71582 3.50549 0
M  V30 22123 H 2204.58 -5.3926 2.8641 0
M  V30 22124 H 2205.99 -3.70016 4.37905 0
M  V30 22125 H 2204.39 -3.26137 5.03741 0
M  V30 22126 H 2205.46 -1.98859 4.42248 0
M  V30 22127 N 2206.8 -1.37041 -0.778305 0
M  V30 22128 C 2208.05 -1.32082 -1.5389 0
M  V30 22129 C 2208.38 0.0965045 -1.9396 0
M  V30 22130 O 2207.66 1.05239 -1.6357 0
M  V30 22131 C 2207.94 -2.25387 -2.80843 0
M  V30 22132 C 2207.79 -3.75868 -2.47069 0
M  V30 22133 C 2209.11 -2.17257 -3.82737 0
M  V30 22134 H 2206.23 -0.48112 -0.558294 0
M  V30 22135 H 2208.87 -1.67687 -0.893368 0
M  V30 22136 H 2207.02 -1.95153 -3.35928 0
M  V30 22137 H 2208.7 -4.1667 -1.9795 0
M  V30 22138 H 2206.94 -3.94758 -1.79856 0
M  V30 22139 H 2207.61 -4.36579 -3.3779 0
M  V30 22140 H 2210.09 -2.43893 -3.37128 0
M  V30 22141 H 2208.96 -2.84694 -4.69298 0
M  V30 22142 H 2209.22 -1.16339 -4.26518 0
M  V30 22143 N 2208.28 1.00373 -1.21503 0
M  V30 22144 C 2209.19 2.12619 -0.991484 0
M  V30 22145 C 2210.21 1.73907 0.056814 0
M  V30 22146 O 2211.38 2.00957 -0.133516 0
M  V30 22147 C 2208.45 3.42141 -0.560372 0
M  V30 22148 C 2207.51 3.95019 -1.68103 0
M  V30 22149 C 2206.74 5.1836 -1.27039 0
M  V30 22150 O 2206.97 5.70217 -0.144538 0
M  V30 22151 O 2205.9 5.64715 -2.08279 0
M  V30 22152 H 2209.73 2.34354 -1.93162 0
M  V30 22153 H 2207.31 1.10995 -1.00002 0
M  V30 22154 H 2209.19 4.20107 -0.329798 0
M  V30 22155 H 2207.87 3.21791 0.351033 0
M  V30 22156 H 2206.77 3.18274 -1.96602 0
M  V30 22157 H 2208.11 4.19782 -2.56991 0
M  V30 22158 N 2209.76 1.02298 1.19887 0
M  V30 22159 C 2211.17 0.746598 1.71122 0
M  V30 22160 C 2211.52 -0.734303 1.81941 0
M  V30 22161 O 2210.65 -1.57272 1.48642 0
M  V30 22162 C 2211.24 1.34862 3.10802 0
M  V30 22163 C 2209.8 1.12096 3.59321 0
M  V30 22164 C 2208.95 1.45035 2.36347 0
M  V30 22165 H 2211.9 1.19165 1.04811 0
M  V30 22166 H 2211.92 0.742503 3.73185 0
M  V30 22167 H 2211.43 2.42643 3.02896 0
M  V30 22168 H 2209.53 0.0610992 3.7255 0
M  V30 22169 H 2209.65 1.80551 4.43777 0
M  V30 22170 H 2208.01 0.869529 2.39398 0
M  V30 22171 H 2208.79 2.53887 2.31076 0
M  V30 22172 N 2211.24 -1.35782 0.800057 0
M  V30 22173 C 2212.48 -1.99247 0.377936 0
M  V30 22174 C 2212.82 -1.63335 -1.05049 0
M  V30 22175 O 2212.09 -0.893415 -1.72767 0
M  V30 22176 C 2212.37 -3.55813 0.553984 0
M  V30 22177 C 2212.23 -4.01545 2.02687 0
M  V30 22178 C 2213.55 -4.40093 -0.0244028 0
M  V30 22179 H 2210.67 -0.723813 0.138795 0
M  V30 22180 H 2213.31 -1.61033 1.00838 0
M  V30 22181 H 2211.46 -3.88496 0.0173081 0
M  V30 22182 H 2213.13 -3.79301 2.62543 0
M  V30 22183 H 2211.37 -3.52693 2.52567 0
M  V30 22184 H 2212.04 -5.10454 2.10096 0
M  V30 22185 H 2214.52 -4.13832 0.433848 0
M  V30 22186 H 2213.4 -5.48749 0.128733 0
M  V30 22187 H 2213.66 -4.27743 -1.11751 0
M  V30 22188 N 2212.72 -0.552988 -1.4758 0
M  V30 22189 C 2213.99 0.0381172 -1.95563 0
M  V30 22190 C 2214.37 1.48985 -1.49555 0
M  V30 22191 O 2213.72 2.16443 -0.732452 0
M  V30 22192 C 2213.93 -0.10298 -3.48848 0
M  V30 22193 C 2215.28 0.0445335 -4.24577 0
M  V30 22194 O 2216.3 -0.0303175 -3.56187 0
M  V30 22195 O 2215.16 0.204827 -5.46116 0
M  V30 22196 H 2212.26 0.0664922 -0.824323 0
M  V30 22197 H 2214.8 -0.619213 -1.57999 0
M  V30 22198 H 2213.57 -1.11335 -3.75127 0
M  V30 22199 H 2213.2 0.592155 -3.93166 0
M  V30 22200 N 2214.19 1.54923 -0.28923 0
M  V30 22201 C 2215.44 2.00196 0.323963 0
M  V30 22202 C 2215.77 1.17738 1.54439 0
M  V30 22203 O 2215.05 0.250912 1.92875 0
M  V30 22204 C 2215.33 3.53384 0.692214 0
M  V30 22205 C 2215.18 4.46589 -0.536535 0
M  V30 22206 C 2216.5 4.12898 1.52327 0
M  V30 22207 H 2213.62 0.72777 0.116277 0
M  V30 22208 H 2216.26 1.85764 -0.398987 0
M  V30 22209 H 2214.41 3.65813 1.30816 0
M  V30 22210 H 2216.09 4.46083 -1.17507 0
M  V30 22211 H 2214.33 4.17668 -1.17199 0
M  V30 22212 H 2215 5.515 -0.234903 0
M  V30 22213 H 2217.48 4.03832 1.00295 0
M  V30 22214 H 2216.35 5.20265 1.74973 0
M  V30 22215 H 2216.61 3.64022 2.50879 0
M  V30 22216 N 2215.67 0.0167433 1.57591 0
M  V30 22217 C 2216.92 -0.665548 1.91568 0
M  V30 22218 C 2217.25 -1.72485 0.892329 0
M  V30 22219 O 2216.53 -1.94307 -0.0866785 0
M  V30 22220 C 2216.81 -1.29336 3.36072 0
M  V30 22221 C 2216.66 -0.244462 4.49135 0
M  V30 22222 C 2217.98 -2.21488 3.80304 0
M  V30 22223 H 2215.1 -0.240476 0.696664 0
M  V30 22224 H 2217.74 0.071469 1.89866 0
M  V30 22225 H 2215.89 -1.92153 3.37653 0
M  V30 22226 H 2217.56 0.385309 4.59688 0
M  V30 22227 H 2215.81 0.431455 4.31649 0
M  V30 22228 H 2216.48 -0.723111 5.47243 0
M  V30 22229 H 2218.95 -1.68672 3.8038 0
M  V30 22230 H 2217.83 -2.62374 4.82132 0
M  V30 22231 H 2218.09 -3.10094 3.1511 0
M  V30 22232 N 2217.15 -1.55503 -0.256249 0
M  V30 22233 C 2218.43 -1.67635 -1.00786 0
M  V30 22234 C 2218.81 -0.553862 -2.03705 0
M  V30 22235 O 2218.16 0.443929 -2.24146 0
M  V30 22236 C 2218.37 -3.07552 -1.64962 0
M  V30 22237 C 2219.71 -3.65849 -2.15499 0
M  V30 22238 O 2220.74 -3.10293 -1.7492 0
M  V30 22239 O 2219.6 -4.63222 -2.89978 0
M  V30 22240 H 2216.69 -0.681468 -0.468541 0
M  V30 22241 H 2219.24 -1.67837 -0.250776 0
M  V30 22242 H 2218.01 -3.80697 -0.904718 0
M  V30 22243 H 2217.63 -3.11321 -2.47315 0
M  V30 22244 N 2218.63 0.521507 -1.48721 0
M  V30 22245 C 2219.58 1.64615 -1.64331 0
M  V30 22246 C 2220.57 1.61555 -0.509558 0
M  V30 22247 O 2221.78 1.6631 -0.688554 0
M  V30 22248 H 2218.15 0.545319 -0.517814 0
M  V30 22249 H 2220.12 1.48596 -2.5877 0
M  V30 22250 C 2218.87 3.02852 -1.7081 0
M  V30 22251 H 2218.19 3.05904 -2.57415 0
M  V30 22252 H 2219.63 3.81136 -1.85773 0
M  V30 22253 C 2218.09 3.33901 -0.448537 0
M  V30 22254 O 2218.62 3.99339 0.434858 0
M  V30 22255 N 2216.83 2.88859 -0.317667 0
M  V30 22256 H 2216.38 2.35782 -1.03752 0
M  V30 22257 H 2216.33 3.10002 0.524058 0
M  V30 22258 N 2220.11 1.37452 0.771027 0
M  V30 22259 C 2221.07 1.33097 1.86596 0
M  V30 22260 C 2222.07 0.234873 1.59075 0
M  V30 22261 O 2223.26 0.490762 1.67144 0
M  V30 22262 C 2220.39 1.06779 3.23745 0
M  V30 22263 H 2221.58 2.30492 1.91869 0
M  V30 22264 H 2219.14 1.22491 0.970855 0
M  V30 22265 H 2219.87 0.099186 3.24148 0
M  V30 22266 H 2219.66 1.86118 3.45112 0
M  V30 22267 H 2221.15 1.06384 4.03822 0
M  V30 22268 N 2221.58 -0.997276 1.22033 0
M  V30 22269 C 2222.86 -1.70933 0.950853 0
M  V30 22270 C 2223.24 -2.04201 -0.535256 0
M  V30 22271 O 2222.59 -1.72186 -1.50214 0
M  V30 22272 C 2222.8 -2.96312 1.84391 0
M  V30 22273 C 2224.15 -3.69182 2.09738 0
M  V30 22274 O 2225.17 -3.0631 1.81803 0
M  V30 22275 O 2224.03 -4.82286 2.57026 0
M  V30 22276 H 2221.12 -0.745872 0.357217 0
M  V30 22277 H 2223.67 -1.05401 1.32999 0
M  V30 22278 H 2222.44 -2.68196 2.84932 0
M  V30 22279 H 2222.07 -3.69583 1.46608 0
M  V30 22280 N 2223.06 -1.02932 -1.19343 0
M  V30 22281 C 2224.31 -0.724607 -1.88663 0
M  V30 22282 C 2224.63 0.749112 -1.80037 0
M  V30 22283 O 2223.9 1.53976 -1.21113 0
M  V30 22284 H 2222.48 -0.265037 -0.698401 0
M  V30 22285 H 2225.14 -1.30365 -1.44883 0
M  V30 22286 H 2224.24 -1.01931 -2.94985 0
M  V30 22287 N 2224.54 1.35356 -0.807246 0
M  V30 22288 C 2225.77 2.02988 -0.400413 0
M  V30 22289 C 2226.18 1.60834 0.988831 0
M  V30 22290 O 2225.54 0.806204 1.63727 0
M  V30 22291 C 2225.59 3.58367 -0.47493 0
M  V30 22292 O 2225.31 3.98989 -1.8094 0
M  V30 22293 C 2226.81 4.43258 -0.0609891 0
M  V30 22294 H 2224.03 0.651001 -0.162598 0
M  V30 22295 H 2226.58 1.72963 -1.09105 0
M  V30 22296 H 2224.73 3.87038 0.167466 0
M  V30 22297 H 2225.15 4.93637 -1.77265 0
M  V30 22298 H 2226.62 5.51756 -0.164242 0
M  V30 22299 H 2227.1 4.2781 0.993756 0
M  V30 22300 H 2227.7 4.19884 -0.676566 0
M  V30 22301 N 2226.02 0.560807 1.47284 0
M  V30 22302 C 2226.95 -0.222398 2.28118 0
M  V30 22303 C 2227.96 -0.876032 1.37221 0
M  V30 22304 O 2229.15 -0.749279 1.62013 0
M  V30 22305 C 2226.25 -1.33279 3.11592 0
M  V30 22306 C 2225.43 -0.775265 4.30475 0
M  V30 22307 C 2224.48 -1.7706 4.95516 0
M  V30 22308 O 2223.51 -1.31529 5.53795 0
M  V30 22309 N 2224.71 -3.10409 4.90537 0
M  V30 22310 H 2227.48 0.47101 2.95976 0
M  V30 22311 H 2225.04 0.397118 1.56954 0
M  V30 22312 H 2227.03 -1.99746 3.51971 0
M  V30 22313 H 2225.6 -1.92938 2.45954 0
M  V30 22314 H 2224.82 0.0662805 3.94144 0
M  V30 22315 H 2226.11 -0.382182 5.07363 0
M  V30 22316 H 2225.51 -3.50042 4.44395 0
M  V30 22317 H 2224.06 -3.72425 5.34923 0
M  V30 22318 N 2227.5 -1.54768 0.297442 0
M  V30 22319 C 2228.72 -2.04479 -0.315587 0
M  V30 22320 C 2229.14 -1.17489 -1.4779 0
M  V30 22321 O 2228.5 -0.199742 -1.81404 0
M  V30 22322 C 2228.55 -3.5309 -0.775238 0
M  V30 22323 O 2228.27 -4.36772 0.340808 0
M  V30 22324 C 2229.77 -4.18784 -1.45379 0
M  V30 22325 H 2226.99 -0.667435 -0.0690769 0
M  V30 22326 H 2229.53 -1.99797 0.436038 0
M  V30 22327 H 2227.69 -3.58143 -1.47689 0
M  V30 22328 H 2228.1 -5.24497 -0.0164113 0
M  V30 22329 H 2229.58 -5.24302 -1.7266 0
M  V30 22330 H 2230.05 -3.68303 -2.39268 0
M  V30 22331 H 2230.66 -4.17796 -0.795401 0
M  V30 22332 N 2228.97 -0.0251005 -1.5758 0
M  V30 22333 C 2230.22 0.65538 -1.91918 0
M  V30 22334 C 2230.55 1.7201 -0.901464 0
M  V30 22335 O 2229.83 1.9435 0.0763727 0
M  V30 22336 C 2230.11 1.27552 -3.36753 0
M  V30 22337 C 2229.96 0.22064 -4.49259 0
M  V30 22338 C 2231.28 2.19468 -3.81473 0
M  V30 22339 H 2228.4 0.236778 -0.697929 0
M  V30 22340 H 2231.04 -0.081537 -1.89825 0
M  V30 22341 H 2229.19 1.90359 -3.38667 0
M  V30 22342 H 2230.87 -0.409682 -4.59477 0
M  V30 22343 H 2229.11 -0.45434 -4.31414 0
M  V30 22344 H 2229.78 0.694079 -5.47619 0
M  V30 22345 H 2232.26 1.66652 -3.81269 0
M  V30 22346 H 2231.13 2.59813 -4.83516 0
M  V30 22347 H 2231.39 3.08419 -3.1675 0
M  V30 22348 N 2230.45 1.55637 0.247999 0
M  V30 22349 C 2231.4 1.91047 1.3268 0
M  V30 22350 C 2232.39 0.789427 1.49881 0
M  V30 22351 O 2233.6 0.974034 1.51369 0
M  V30 22352 H 2229.98 0.606742 0.444261 0
M  V30 22353 H 2231.95 2.81117 1.0008 0
M  V30 22354 C 2230.7 2.22069 2.67546 0
M  V30 22355 H 2230.02 3.0783 2.55109 0
M  V30 22356 H 2231.46 2.50749 3.41908 0
M  V30 22357 C 2229.92 1.03666 3.20554 0
M  V30 22358 O 2230.45 0.284086 4.00694 0
M  V30 22359 N 2228.65 0.827579 2.78567 0
M  V30 22360 H 2228.2 1.44127 2.13507 0
M  V30 22361 H 2228.16 0.0370356 3.14378 0
M  V30 22362 N 2231.93 -0.513613 1.48996 0
M  V30 22363 C 2233.16 -1.29097 1.61299 0
M  V30 22364 C 2233.57 -1.87136 0.278689 0
M  V30 22365 O 2232.91 -1.67946 -0.744295 0
M  V30 22366 C 2232.97 -2.46874 2.6133 0
M  V30 22367 C 2232.64 -2.098 4.05996 0
M  V30 22368 C 2233.64 -1.6451 4.93186 0
M  V30 22369 C 2231.32 -2.19821 4.51646 0
M  V30 22370 C 2233.31 -1.29729 6.24059 0
M  V30 22371 C 2231 -1.84651 5.82535 0
M  V30 22372 C 2232 -1.39678 6.68565 0
M  V30 22373 O 2231.69 -1.04978 7.97016 0
M  V30 22374 H 2231.42 -0.39824 0.546243 0
M  V30 22375 H 2233.97 -0.624556 1.95674 0
M  V30 22376 H 2232.2 -3.16551 2.2211 0
M  V30 22377 H 2233.89 -3.08918 2.63295 0
M  V30 22378 H 2234.66 -1.56225 4.5915 0
M  V30 22379 H 2230.54 -2.53779 3.8486 0
M  V30 22380 H 2234.08 -0.945537 6.91162 0
M  V30 22381 H 2229.98 -1.92583 6.16102 0
M  V30 22382 H 2230.75 -1.18235 8.09915 0
M  V30 22383 N 2233.41 -1.37859 -0.763727 0
M  V30 22384 C 2234.66 -1.33707 -1.52481 0
M  V30 22385 C 2234.99 0.075927 -1.94052 0
M  V30 22386 O 2234.26 1.03498 -1.64677 0
M  V30 22387 C 2234.55 -2.28353 -2.78437 0
M  V30 22388 C 2234.4 -3.78468 -2.43069 0
M  V30 22389 C 2235.72 -2.21304 -3.80411 0
M  V30 22390 H 2232.84 -0.487014 -0.55316 0
M  V30 22391 H 2235.48 -1.68625 -0.875532 0
M  V30 22392 H 2233.63 -1.98705 -3.33839 0
M  V30 22393 H 2235.3 -4.18746 -1.93519 0
M  V30 22394 H 2233.54 -3.96644 -1.75659 0
M  V30 22395 H 2234.22 -4.40138 -3.33141 0
M  V30 22396 H 2236.69 -2.47455 -3.34523 0
M  V30 22397 H 2235.57 -2.89656 -4.66252 0
M  V30 22398 H 2235.83 -1.20856 -4.2526 0
M  V30 22399 N 2234.89 0.990791 -1.22561 0
M  V30 22400 C 2236.3 1.54516 -1.04794 0
M  V30 22401 C 2236.65 1.92326 0.387964 0
M  V30 22402 O 2235.77 1.74978 1.27325 0
M  V30 22403 C 2236.37 2.80776 -1.89605 0
M  V30 22404 C 2234.93 3.32649 -1.76129 0
M  V30 22405 C 2234.08 2.05719 -1.85943 0
M  V30 22406 H 2237.03 0.811638 -1.36375 0
M  V30 22407 H 2237.05 3.53223 -1.41471 0
M  V30 22408 H 2236.56 2.53226 -2.94106 0
M  V30 22409 H 2234.66 3.65102 -0.743707 0
M  V30 22410 H 2234.77 4.03109 -2.5892 0
M  V30 22411 H 2233.14 2.19376 -1.29407 0
M  V30 22412 H 2233.92 1.80563 -2.91979 0
M  V30 22413 N 2236.37 1.03564 1.18795 0
M  V30 22414 C 2237.59 0.755798 1.93138 0
M  V30 22415 C 2238.02 -0.680189 1.75371 0
M  V30 22416 O 2237.37 -1.47049 1.06049 0
M  V30 22417 C 2237.42 1.12064 3.42745 0
M  V30 22418 O 2236.53 0.243197 4.11682 0
M  V30 22419 H 2235.87 0.278615 0.602719 0
M  V30 22420 H 2238.4 1.38413 1.50675 0
M  V30 22421 H 2238.41 1.08042 3.93435 0
M  V30 22422 H 2237.08 2.16678 3.54998 0
M  V30 22423 H 2235.66 0.342604 3.71323 0
M  V30 22424 N 2237.84 -1.34926 0.814413 0
M  V30 22425 C 2239.26 -1.51595 0.499111 0
M  V30 22426 C 2239.46 -1.76158 -0.978288 0
M  V30 22427 O 2238.52 -1.80755 -1.76306 0
M  V30 22428 C 2239.83 -2.68629 1.35126 0
M  V30 22429 C 2241.38 -2.82509 1.34751 0
M  V30 22430 C 2241.85 -4.02576 2.18395 0
M  V30 22431 N 2243.34 -4.09768 2.15973 0
M  V30 22432 C 2244.08 -5.01808 2.77446 0
M  V30 22433 N 2243.57 -5.99127 3.47877 0
M  V30 22434 N 2245.37 -4.94614 2.67046 0
M  V30 22435 H 2237.52 -1.1724 1.77112 0
M  V30 22436 H 2239.78 -0.574271 0.754266 0
M  V30 22437 H 2239.49 -2.5708 2.40005 0
M  V30 22438 H 2239.36 -3.63427 1.00997 0
M  V30 22439 H 2241.75 -2.93504 0.306532 0
M  V30 22440 H 2241.83 -1.88544 1.72872 0
M  V30 22441 H 2241.47 -3.92342 3.22537 0
M  V30 22442 H 2241.4 -4.95737 1.77629 0
M  V30 22443 H 2243.89 -3.40104 1.64735 0
M  V30 22444 H 2244.21 -6.6597 3.9205 0
M  V30 22445 H 2242.55 -5.99278 3.51982 0
M  V30 22446 H 2245.74 -4.17542 2.11604 0
M  V30 22447 H 2245.92 -5.66151 3.15242 0
M  V30 22448 N 2239.32 -0.56861 -1.46985 0
M  V30 22449 C 2240.23 0.175509 -2.33943 0
M  V30 22450 C 2241.25 0.900383 -1.48893 0
M  V30 22451 O 2242.42 0.866728 -1.81796 0
M  V30 22452 C 2239.49 1.18518 -3.25813 0
M  V30 22453 C 2238.55 0.466507 -4.26758 0
M  V30 22454 C 2237.78 1.42808 -5.14239 0
M  V30 22455 O 2238.01 2.6637 -5.04384 0
M  V30 22456 O 2236.94 0.946349 -5.94414 0
M  V30 22457 H 2240.77 -0.538089 -2.98895 0
M  V30 22458 H 2238.35 -0.329122 -1.4573 0
M  V30 22459 H 2240.23 1.76773 -3.8253 0
M  V30 22460 H 2238.91 1.8805 -2.63475 0
M  V30 22461 H 2237.81 -0.157517 -3.73768 0
M  V30 22462 H 2239.15 -0.187571 -4.91842 0
M  V30 22463 N 2240.8 1.54608 -0.305646 0
M  V30 22464 C 2242.05 1.99836 0.301666 0
M  V30 22465 C 2242.37 1.19553 1.54052 0
M  V30 22466 O 2241.64 0.292692 1.93701 0
M  V30 22467 H 2240.22 0.73818 0.114455 0
M  V30 22468 H 2242.88 1.90364 -0.41805 0
M  V30 22469 H 2241.98 3.06842 0.570494 0
M  V30 22470 N 2242.28 0.033457 1.57564 0
M  V30 22471 C 2243.69 -0.504766 1.79747 0
M  V30 22472 C 2244.04 -1.71991 0.944121 0
M  V30 22473 O 2243.16 -2.15839 0.155732 0
M  V30 22474 C 2243.76 -0.922509 3.25999 0
M  V30 22475 C 2242.32 -1.40582 3.49161 0
M  V30 22476 C 2241.47 -0.372585 2.74786 0
M  V30 22477 H 2244.42 0.259464 1.56565 0
M  V30 22478 H 2244.44 -1.7866 3.35948 0
M  V30 22479 H 2243.95 -0.0379142 3.88081 0
M  V30 22480 H 2242.05 -2.3102 2.92336 0
M  V30 22481 H 2242.16 -1.4102 4.57876 0
M  V30 22482 H 2240.53 -0.84163 2.40393 0
M  V30 22483 H 2241.31 0.503619 3.39586 0
M  V30 22484 N 2243.76 -1.55766 -0.239741 0
M  V30 22485 C 2244.99 -1.81732 -0.982711 0
M  V30 22486 C 2245.39 -0.607866 -1.79169 0
M  V30 22487 O 2244.74 0.432941 -1.78525 0
M  V30 22488 C 2244.8 -3.01158 -1.96326 0
M  V30 22489 C 2244.46 -4.36896 -1.34054 0
M  V30 22490 C 2245.46 -5.14615 -0.739449 0
M  V30 22491 C 2243.14 -4.83601 -1.35776 0
M  V30 22492 C 2245.14 -6.37189 -0.163877 0
M  V30 22493 C 2242.83 -6.06123 -0.778334 0
M  V30 22494 C 2243.82 -6.82756 -0.182428 0
M  V30 22495 O 2243.51 -8.02963 0.388028 0
M  V30 22496 H 2243.24 -0.608492 -0.294471 0
M  V30 22497 H 2245.8 -2.03674 -0.265684 0
M  V30 22498 H 2244.03 -2.74988 -2.71879 0
M  V30 22499 H 2245.72 -3.14154 -2.57026 0
M  V30 22500 H 2246.48 -4.79647 -0.718603 0
M  V30 22501 H 2242.36 -4.2394 -1.81097 0
M  V30 22502 H 2245.91 -6.96947 0.301876 0
M  V30 22503 H 2241.8 -6.40567 -0.796532 0
M  V30 22504 H 2242.57 -8.18019 0.280584 0
M  V30 22505 N 2245.23 0.505704 -1.49266 0
M  V30 22506 C 2246.46 1.28899 -1.6248 0
M  V30 22507 C 2246.88 1.85782 -0.294365 0
M  V30 22508 O 2246.24 1.65627 0.737383 0
M  V30 22509 C 2246.29 2.39843 -2.69273 0
M  V30 22510 O 2245.39 3.43563 -2.28119 0
M  V30 22511 H 2244.73 0.380741 -0.543996 0
M  V30 22512 H 2247.26 0.605918 -1.95422 0
M  V30 22513 H 2247.27 2.85676 -2.91296 0
M  V30 22514 H 2245.95 1.97806 -3.65849 0
M  V30 22515 H 2244.53 3.03682 -2.16407 0
M  V30 22516 N 2246.71 1.38262 0.756405 0
M  V30 22517 C 2247.96 1.33633 1.5108 0
M  V30 22518 C 2248.27 -0.0719725 1.95468 0
M  V30 22519 O 2249.48 -0.240786 2.7043 0
M  V30 22520 C 2247.94 2.34648 2.72888 0
M  V30 22521 C 2247.54 3.81085 2.35537 0
M  V30 22522 C 2249.29 2.39058 3.50787 0
M  V30 22523 C 2247.2 4.73794 3.5394 0
M  V30 22524 H 2246.13 0.49672 0.567261 0
M  V30 22525 H 2248.78 1.63802 0.827118 0
M  V30 22526 H 2247.16 1.97519 3.43223 0
M  V30 22527 H 2248.33 4.27138 1.72887 0
M  V30 22528 H 2246.65 3.79767 1.7078 0
M  V30 22529 H 2249.24 3.05521 4.38818 0
M  V30 22530 H 2249.59 1.40868 3.91742 0
M  V30 22531 H 2250.12 2.74973 2.87462 0
M  V30 22532 H 2246.86 5.73169 3.18053 0
M  V30 22533 H 2246.38 4.32436 4.15643 0
M  V30 22534 H 2248.06 4.91671 4.20558 0
M  V30 22535 N 2248.19 -0.984277 1.23084 0
M  V30 22536 C 2249.42 -1.76569 1.08803 0
M  V30 22537 C 2249.84 -1.84688 -0.356625 0
M  V30 22538 O 2249.2 -1.30567 -1.25785 0
M  V30 22539 C 2249.25 -3.17273 1.71376 0
M  V30 22540 O 2248.35 -4.0075 0.973283 0
M  V30 22541 H 2247.69 -0.543388 0.381609 0
M  V30 22542 H 2250.22 -1.23584 1.63059 0
M  V30 22543 H 2250.23 -3.67869 1.76456 0
M  V30 22544 H 2248.91 -3.10679 2.76498 0
M  V30 22545 H 2247.48 -3.59265 0.999141 0
M  V30 22546 N 2249.67 -1.04192 -1.18244 0
M  V30 22547 C 2250.91 -0.747155 -1.88535 0
M  V30 22548 C 2251.25 0.723377 -1.80225 0
M  V30 22549 O 2250.52 1.52802 -1.2034 0
M  V30 22550 C 2250.81 -1.2155 -3.38965 0
M  V30 22551 C 2250.66 -2.74823 -3.56079 0
M  V30 22552 C 2251.98 -0.806558 -4.32646 0
M  V30 22553 H 2249.1 -0.272895 -0.684615 0
M  V30 22554 H 2251.74 -1.29415 -1.3911 0
M  V30 22555 H 2249.89 -0.750148 -3.81189 0
M  V30 22556 H 2251.56 -3.29405 -3.2294 0
M  V30 22557 H 2249.8 -3.14587 -2.98693 0
M  V30 22558 H 2250.47 -3.02652 -4.61634 0
M  V30 22559 H 2252.95 -1.20702 -3.98209 0
M  V30 22560 H 2251.83 -1.16199 -5.3646 0
M  V30 22561 H 2252.09 0.290213 -4.41146 0
M  V30 22562 N 2251.15 1.34492 -0.821557 0
M  V30 22563 C 2252.08 2.32079 -0.257179 0
M  V30 22564 C 2253.06 1.58177 0.625617 0
M  V30 22565 O 2254.24 1.86167 0.552779 0
M  V30 22566 C 2251.37 3.42373 0.582898 0
M  V30 22567 C 2250.33 4.2752 -0.202646 0
M  V30 22568 C 2249.65 5.2927 0.760086 0
M  V30 22569 C 2250.95 5.02906 -1.41007 0
M  V30 22570 H 2252.65 2.79531 -1.07252 0
M  V30 22571 H 2250.19 1.34392 -0.517187 0
M  V30 22572 H 2252.15 4.09657 0.9879 0
M  V30 22573 H 2250.87 2.93568 1.43128 0
M  V30 22574 H 2249.53 3.61837 -0.589 0
M  V30 22575 H 2249.18 4.76727 1.60438 0
M  V30 22576 H 2248.88 5.87115 0.238706 0
M  V30 22577 H 2250.4 5.99422 1.16297 0
M  V30 22578 H 2251.81 5.63052 -1.07915 0
M  V30 22579 H 2250.21 5.70319 -1.86699 0
M  V30 22580 H 2251.28 4.3268 -2.18897 0
M  V30 22581 N 2252.62 0.576397 1.46681 0
M  V30 22582 C 2253.85 0.0649056 2.06498 0
M  V30 22583 C 2254.26 -1.24268 1.42668 0
M  V30 22584 O 2253.61 -1.7607 0.523917 0
M  V30 22585 C 2253.67 -0.181753 3.5904 0
M  V30 22586 C 2253.33 1.03928 4.45026 0
M  V30 22587 C 2254.33 1.94974 4.81955 0
M  V30 22588 C 2252.01 1.25935 4.86257 0
M  V30 22589 C 2254.01 3.06381 5.58936 0
M  V30 22590 C 2251.69 2.37648 5.62998 0
M  V30 22591 C 2252.69 3.277 5.99251 0
M  V30 22592 O 2252.38 4.37473 6.74442 0
M  V30 22593 H 2252.11 0.0516105 0.674027 0
M  V30 22594 H 2254.67 0.794984 1.89392 0
M  V30 22595 H 2252.9 -0.96637 3.7443 0
M  V30 22596 H 2254.59 -0.640977 4.00807 0
M  V30 22597 H 2255.35 1.79185 4.50686 0
M  V30 22598 H 2251.23 0.567529 4.57493 0
M  V30 22599 H 2254.77 3.76695 5.87151 0
M  V30 22600 H 2250.67 2.53402 5.93681 0
M  V30 22601 H 2251.44 4.35761 6.9286 0
M  V30 22602 N 2254.1 -1.54444 0.313841 0
M  V30 22603 C 2255.35 -1.99993 -0.291064 0
M  V30 22604 C 2255.67 -1.20369 -1.53416 0
M  V30 22605 O 2254.94 -0.302961 -1.93543 0
M  V30 22606 H 2253.52 -0.738776 -0.110539 0
M  V30 22607 H 2256.18 -1.90139 0.428139 0
M  V30 22608 H 2255.28 -3.0714 -0.554214 0
M  V30 22609 N 2255.58 -0.0418125 -1.57545 0
M  V30 22610 C 2256.86 0.673401 -1.83643 0
M  V30 22611 C 2257.24 1.89592 -0.928331 0
M  V30 22612 O 2256.59 2.28496 0.0129553 0
M  V30 22613 C 2256.8 1.03958 -3.33157 0
M  V30 22614 C 2258.14 1.42585 -3.99943 0
M  V30 22615 O 2259.17 1.1322 -3.37727 0
M  V30 22616 O 2258.03 1.97351 -5.09622 0
M  V30 22617 H 2255.12 0.331519 -0.757644 0
M  V30 22618 H 2257.67 -0.0704628 -1.69554 0
M  V30 22619 H 2256.44 0.170029 -3.9093 0
M  V30 22620 H 2256.06 1.8412 -3.524 0
M  V30 22621 N 2257.06 1.55891 0.231477 0
M  V30 22622 C 2257.97 1.94754 1.30797 0
M  V30 22623 C 2258.98 0.850015 1.51825 0
M  V30 22624 O 2260.16 1.15274 1.65148 0
M  V30 22625 C 2257.23 2.24775 2.63964 0
M  V30 22626 C 2256.29 3.48044 2.51325 0
M  V30 22627 C 2255.52 3.76623 3.78141 0
M  V30 22628 O 2255.74 3.07031 4.80716 0
M  V30 22629 O 2254.68 4.70129 3.75848 0
M  V30 22630 H 2258.5 2.86475 1.00825 0
M  V30 22631 H 2256.09 1.42972 0.433522 0
M  V30 22632 H 2257.97 2.45324 3.42629 0
M  V30 22633 H 2256.64 1.3623 2.93637 0
M  V30 22634 H 2255.55 3.32785 1.70894 0
M  V30 22635 H 2256.88 4.3694 2.26593 0
M  V30 22636 N 2258.54 -0.497781 1.49532 0
M  V30 22637 C 2259.45 -1.62529 1.69179 0
M  V30 22638 C 2260.46 -1.64245 0.574429 0
M  V30 22639 O 2261.64 -1.82606 0.849529 0
M  V30 22640 C 2258.7 -2.98882 1.757 0
M  V30 22641 C 2257.76 -3.07768 2.99295 0
M  V30 22642 C 2257 -4.37616 3.05496 0
M  V30 22643 O 2257.22 -5.26599 2.19201 0
M  V30 22644 O 2256.15 -4.51541 3.97988 0
M  V30 22645 H 2259.98 -1.48883 2.64703 0
M  V30 22646 H 2257.57 -0.674418 1.33312 0
M  V30 22647 H 2259.45 -3.79916 1.82324 0
M  V30 22648 H 2258.12 -3.12784 0.833555 0
M  V30 22649 H 2257.03 -2.2591 2.98187 0
M  V30 22650 H 2258.36 -2.98794 3.9113 0
M  V30 22651 N 2260.01 -1.38661 -0.749062 0
M  V30 22652 C 2261.26 -1.35317 -1.51054 0
M  V30 22653 C 2261.59 0.055341 -1.94121 0
M  V30 22654 O 2260.87 1.01746 -1.65765 0
M  V30 22655 C 2261.15 -2.31293 -2.75999 0
M  V30 22656 C 2261 -3.81024 -2.39041 0
M  V30 22657 C 2262.32 -2.25327 -3.78042 0
M  V30 22658 H 2259.44 -0.492854 -0.547963 0
M  V30 22659 H 2262.08 -1.69544 -0.857598 0
M  V30 22660 H 2260.23 -2.02235 -3.31713 0
M  V30 22661 H 2261.91 -4.20775 -1.89067 0
M  V30 22662 H 2260.15 -3.98485 -1.71442 0
M  V30 22663 H 2260.82 -4.43646 -3.28454 0
M  V30 22664 H 2263.3 -2.50989 -3.31879 0
M  V30 22665 H 2262.17 -2.94584 -4.63154 0
M  V30 22666 H 2262.43 -1.2536 -4.23954 0
M  V30 22667 N 2261.49 0.977736 -1.23605 0
M  V30 22668 C 2262.9 1.53396 -1.06427 0
M  V30 22669 C 2263.26 1.92727 0.367544 0
M  V30 22670 O 2262.38 1.76319 1.25462 0
M  V30 22671 C 2262.98 2.78749 -1.92573 0
M  V30 22672 C 2261.53 3.30762 -1.79648 0
M  V30 22673 C 2260.68 2.03735 -1.88115 0
M  V30 22674 H 2263.63 0.797128 -1.37228 0
M  V30 22675 H 2263.65 3.51702 -1.45209 0
M  V30 22676 H 2263.17 2.50092 -2.96775 0
M  V30 22677 H 2261.27 3.64293 -0.782389 0
M  V30 22678 H 2261.38 4.0034 -2.63181 0
M  V30 22679 H 2259.74 2.17991 -1.31726 0
M  V30 22680 H 2260.53 1.77456 -2.93878 0
M  V30 22681 N 2262.97 1.04818 1.1769 0
M  V30 22682 C 2264.39 0.768819 1.39862 0
M  V30 22683 C 2264.59 -0.638418 1.91119 0
M  V30 22684 O 2263.64 -1.40143 2.10039 0
M  V30 22685 C 2264.96 1.82126 2.39271 0
M  V30 22686 C 2266.5 1.84304 2.52984 0
M  V30 22687 C 2266.98 2.88561 3.55664 0
M  V30 22688 N 2268.47 2.875 3.63178 0
M  V30 22689 C 2269.21 3.64819 4.42374 0
M  V30 22690 N 2268.7 4.51912 5.25117 0
M  V30 22691 N 2270.49 3.53275 4.37211 0
M  V30 22692 H 2262.65 1.95618 0.827485 0
M  V30 22693 H 2264.91 0.846839 0.426108 0
M  V30 22694 H 2264.61 2.83105 2.08673 0
M  V30 22695 H 2264.49 1.65972 3.38723 0
M  V30 22696 H 2266.88 0.839919 2.82895 0
M  V30 22697 H 2266.96 2.04535 1.5362 0
M  V30 22698 H 2266.6 3.89057 3.26492 0
M  V30 22699 H 2266.53 2.65583 4.54723 0
M  V30 22700 H 2269.02 2.24348 3.04099 0
M  V30 22701 H 2269.33 5.07601 5.82719 0
M  V30 22702 H 2267.68 4.55975 5.24511 0
M  V30 22703 H 2270.87 2.84632 3.71621 0
M  V30 22704 H 2271.04 4.1378 4.98688 0
M  V30 22705 N 2264.45 -1.34055 0.828678 0
M  V30 22706 C 2265.67 -2.02858 0.431673 0
M  V30 22707 C 2266.1 -1.61976 -0.95631 0
M  V30 22708 O 2265.46 -0.807256 -1.62336 0
M  V30 22709 C 2265.51 -3.56406 0.548385 0
M  V30 22710 O 2264.61 -4.10158 -0.429484 0
M  V30 22711 H 2263.95 -0.640003 0.176897 0
M  V30 22712 H 2266.48 -1.71177 1.12069 0
M  V30 22713 H 2266.49 -4.05767 0.426267 0
M  V30 22714 H 2265.17 -3.85507 1.56067 0
M  V30 22715 H 2263.74 -3.71952 -0.265771 0
M  V30 22716 N 2265.93 -0.584167 -1.46374 0
M  V30 22717 C 2267.34 -0.157992 -1.8603 0
M  V30 22718 C 2267.69 1.27931 -1.48755 0
M  V30 22719 O 2266.81 1.96653 -0.903133 0
M  V30 22720 C 2267.41 -0.279951 -3.37641 0
M  V30 22721 C 2265.97 0.0913639 -3.76289 0
M  V30 22722 C 2265.12 -0.615226 -2.70389 0
M  V30 22723 H 2268.07 -0.792298 -1.37508 0
M  V30 22724 H 2268.09 0.494297 -3.77276 0
M  V30 22725 H 2267.6 -1.32614 -3.6474 0
M  V30 22726 H 2265.7 1.13763 -3.54808 0
M  V30 22727 H 2265.81 -0.28597 -4.78246 0
M  V30 22728 H 2264.18 -0.055328 -2.5464 0
M  V30 22729 H 2264.96 -1.66309 -3.00327 0
M  V30 22730 N 2267.41 1.54275 -0.322027 0
M  V30 22731 C 2268.65 2.00541 0.281009 0
M  V30 22732 C 2268.98 1.21022 1.52263 0
M  V30 22733 O 2268.24 0.280016 1.93686 0
M  V30 22734 C 2268.53 3.51221 0.661707 0
M  V30 22735 C 2268.2 4.48332 -0.48056 0
M  V30 22736 C 2266.86 4.74603 -0.794088 0
M  V30 22737 C 2269.21 5.0604 -1.24792 0
M  V30 22738 C 2266.54 5.5584 -1.87773 0
M  V30 22739 C 2268.89 5.88458 -2.32164 0
M  V30 22740 C 2267.56 6.13031 -2.641 0
M  V30 22741 H 2266.83 0.733831 0.102828 0
M  V30 22742 H 2269.48 1.86246 -0.445486 0
M  V30 22743 H 2267.78 3.63234 1.4686 0
M  V30 22744 H 2269.48 3.84459 1.13982 0
M  V30 22745 H 2266.07 4.28003 -0.226114 0
M  V30 22746 H 2270.25 4.85727 -1.01896 0
M  V30 22747 H 2265.51 5.73111 -2.12964 0
M  V30 22748 H 2269.68 6.32194 -2.92068 0
M  V30 22749 H 2267.31 6.75769 -3.48196 0
M  V30 22750 N 2268.88 0.0501669 1.5752 0
M  V30 22751 C 2269.83 -0.924566 2.11472 0
M  V30 22752 C 2270.8 -1.30949 1.02184 0
M  V30 22753 O 2271.99 -1.39914 1.29726 0
M  V30 22754 C 2269.13 -2.19446 2.66341 0
M  V30 22755 C 2268.24 -1.86411 3.89711 0
M  V30 22756 C 2267.37 -3.07851 4.32899 0
M  V30 22757 C 2266.41 -2.70733 5.48972 0
M  V30 22758 N 2265.55 -3.84863 5.87218 0
M  V30 22759 H 2270.39 -0.457588 2.94466 0
M  V30 22760 H 2267.93 -0.214241 1.45532 0
M  V30 22761 H 2269.88 -2.93753 2.96252 0
M  V30 22762 H 2268.51 -2.63723 1.86146 0
M  V30 22763 H 2267.57 -1.02257 3.66398 0
M  V30 22764 H 2268.88 -1.55088 4.74077 0
M  V30 22765 H 2268.03 -3.90458 4.64357 0
M  V30 22766 H 2266.77 -3.42352 3.47342 0
M  V30 22767 H 2265.78 -1.86542 5.17187 0
M  V30 22768 H 2267 -2.37425 6.36244 0
M  V30 22769 H 2264.95 -4.19166 5.04614 0
M  V30 22770 H 2264.86 -3.57235 6.66273 0
M  V30 22771 H 2266.13 -4.68113 6.2329 0
M  V30 22772 N 2270.36 -1.56011 -0.223207 0
M  V30 22773 C 2271.61 -1.79213 -0.949248 0
M  V30 22774 C 2271.94 -0.619527 -1.84053 0
M  V30 22775 O 2271.22 0.381283 -1.90726 0
M  V30 22776 C 2271.5 -3.12483 -1.7896 0
M  V30 22777 C 2271.35 -4.40188 -0.92492 0
M  V30 22778 C 2272.67 -3.4218 -2.76768 0
M  V30 22779 H 2269.79 -0.651969 -0.343665 0
M  V30 22780 H 2272.43 -1.88743 -0.21822 0
M  V30 22781 H 2270.58 -3.04489 -2.41285 0
M  V30 22782 H 2272.25 -4.60199 -0.318535 0
M  V30 22783 H 2270.5 -4.33188 -0.230268 0
M  V30 22784 H 2271.17 -5.29872 -1.54726 0
M  V30 22785 H 2273.64 -3.50291 -2.24578 0
M  V30 22786 H 2272.52 -4.36603 -3.3267 0
M  V30 22787 H 2272.78 -2.64265 -3.54424 0
M  V30 22788 N 2271.84 0.489844 -1.49794 0
M  V30 22789 C 2272.79 1.59011 -1.67284 0
M  V30 22790 C 2273.76 1.5794 -0.514204 0
M  V30 22791 O 2274.94 1.75757 -0.742564 0
M  V30 22792 C 2272.08 2.97099 -1.75574 0
M  V30 22793 C 2271.19 3.08102 -3.02816 0
M  V30 22794 C 2270.33 4.3699 -3.02016 0
M  V30 22795 C 2269.37 4.41666 -4.2379 0
M  V30 22796 N 2268.51 5.61998 -4.20836 0
M  V30 22797 H 2273.35 1.43405 -2.61226 0
M  V30 22798 H 2270.88 0.697542 -1.2951 0
M  V30 22799 H 2272.84 3.77152 -1.78361 0
M  V30 22800 H 2271.47 3.11384 -0.850882 0
M  V30 22801 H 2270.52 2.21041 -3.09588 0
M  V30 22802 H 2271.83 3.07416 -3.92806 0
M  V30 22803 H 2270.99 5.25373 -3.03427 0
M  V30 22804 H 2269.73 4.40256 -2.09823 0
M  V30 22805 H 2268.73 3.51683 -4.2261 0
M  V30 22806 H 2269.96 4.40106 -5.17188 0
M  V30 22807 H 2267.9 5.66086 -3.31486 0
M  V30 22808 H 2267.82 5.62976 -5.04574 0
M  V30 22809 H 2269.09 6.52558 -4.26367 0
M  V30 22810 N 2273.32 1.39056 0.741698 0
M  V30 22811 C 2274.56 1.36116 1.50334 0
M  V30 22812 C 2274.9 -0.0450455 1.94148 0
M  V30 22813 O 2274.17 -1.00865 1.66302 0
M  V30 22814 C 2274.45 2.32754 2.74768 0
M  V30 22815 C 2274.31 3.82287 2.37017 0
M  V30 22816 C 2275.63 2.27328 3.76842 0
M  V30 22817 H 2272.75 0.495753 0.545342 0
M  V30 22818 H 2275.39 1.69997 0.848595 0
M  V30 22819 H 2273.54 2.03991 3.30635 0
M  V30 22820 H 2275.21 4.21771 1.86833 0
M  V30 22821 H 2273.45 3.99388 1.69327 0
M  V30 22822 H 2274.12 4.45382 3.26097 0
M  V30 22823 H 2276.6 2.52745 3.30543 0
M  V30 22824 H 2275.48 2.97037 4.61585 0
M  V30 22825 H 2275.74 1.27606 4.23284 0
M  V30 22826 N 2274.8 -0.971167 1.24121 0
M  V30 22827 C 2275.73 -2.08302 1.05511 0
M  V30 22828 C 2276.71 -1.70072 -0.0308565 0
M  V30 22829 O 2277.89 -1.93726 0.135556 0
M  V30 22830 C 2275.02 -3.41059 0.655425 0
M  V30 22831 C 2273.98 -3.93231 1.68978 0
M  V30 22832 C 2273.3 -5.22291 1.14525 0
M  V30 22833 C 2274.6 -4.2146 3.08494 0
M  V30 22834 H 2276.3 -2.24129 1.98511 0
M  V30 22835 H 2273.84 -1.07702 0.95584 0
M  V30 22836 H 2275.79 -4.18275 0.512243 0
M  V30 22837 H 2274.52 -3.25123 -0.310263 0
M  V30 22838 H 2273.18 -3.18168 1.82111 0
M  V30 22839 H 2272.83 -5.02712 0.170277 0
M  V30 22840 H 2272.53 -5.58165 1.83645 0
M  V30 22841 H 2274.05 -6.0212 1.01412 0
M  V30 22842 H 2275.46 -4.89393 2.98609 0
M  V30 22843 H 2273.86 -4.68555 3.74935 0
M  V30 22844 H 2274.93 -3.2837 3.56793 0
M  V30 22845 N 2276.27 -1.05441 -1.17133 0
M  V30 22846 C 2277.69 -0.791706 -1.69083 0
M  V30 22847 C 2278.04 0.685806 -1.83824 0
M  V30 22848 O 2277.16 1.53276 -1.5276 0
M  V30 22849 C 2277.76 -1.43055 -3.07117 0
M  V30 22850 C 2276.32 -1.21583 -3.56222 0
M  V30 22851 C 2275.46 -1.51251 -2.32419 0
M  V30 22852 H 2278.41 -1.21902 -1.01615 0
M  V30 22853 H 2278.43 -0.841185 -3.71085 0
M  V30 22854 H 2277.95 -2.50589 -2.96356 0
M  V30 22855 H 2276.05 -0.159853 -3.72257 0
M  V30 22856 H 2276.16 -1.92254 -4.38834 0
M  V30 22857 H 2274.52 -0.932695 -2.37008 0
M  V30 22858 H 2275.31 -2.59924 -2.24264 0
M  V30 22859 N 2277.75 1.33613 -0.835776 0
M  V30 22860 C 2278.98 2.02093 -0.443379 0
M  V30 22861 C 2279.4 1.62895 0.954493 0
M  V30 22862 O 2278.75 0.840752 1.6198 0
M  V30 22863 C 2278.8 3.57279 -0.550838 0
M  V30 22864 O 2278.52 3.95061 -1.89363 0
M  V30 22865 C 2280.03 4.43029 -0.154997 0
M  V30 22866 H 2277.25 0.647406 -0.17637 0
M  V30 22867 H 2279.79 1.7061 -1.12749 0
M  V30 22868 H 2277.94 3.87306 0.0853316 0
M  V30 22869 H 2278.36 4.89766 -1.87696 0
M  V30 22870 H 2279.83 5.51283 -0.281241 0
M  V30 22871 H 2280.31 4.29821 0.902788 0
M  V30 22872 H 2280.92 4.18355 -0.765477 0
M  V30 22873 N 2279.23 0.591922 1.46062 0
M  V30 22874 C 2280.18 -0.157132 2.27458 0
M  V30 22875 C 2281.16 -0.853277 1.36411 0
M  V30 22876 O 2282.36 -0.745852 1.60518 0
M  V30 22877 C 2279.49 -1.16417 3.22958 0
M  V30 22878 C 2278.57 -0.469668 4.21491 0
M  V30 22879 N 2278.96 0.479928 5.03518 0
M  V30 22880 C 2277.26 -0.719241 4.40162 0
M  V30 22881 C 2277.96 0.886693 5.74902 0
M  V30 22882 N 2276.94 0.233827 5.43097 0
M  V30 22883 H 2280.74 0.572443 2.88271 0
M  V30 22884 H 2278.25 0.414403 1.57024 0
M  V30 22885 H 2280.25 -1.71506 3.79989 0
M  V30 22886 H 2278.91 -1.89447 2.63704 0
M  V30 22887 H 2279.92 0.855913 5.10778 0
M  V30 22888 H 2276.6 -1.43541 3.92049 0
M  V30 22889 H 2277.99 1.669 6.50841 0
M  V30 22890 N 2280.71 -1.54102 0.330204 0
M  V30 22891 C 2281.99 -1.92882 -0.324974 0
M  V30 22892 C 2282.37 -1.26048 -1.69337 0
M  V30 22893 O 2281.71 -0.406565 -2.24854 0
M  V30 22894 C 2281.92 -3.46577 -0.410573 0
M  V30 22895 C 2283.27 -4.19317 -0.667727 0
M  V30 22896 O 2284.3 -3.52769 -0.493228 0
M  V30 22897 O 2283.15 -5.37183 -1.00482 0
M  V30 22898 H 2280.25 -0.805613 -0.186859 0
M  V30 22899 H 2282.79 -1.65381 0.380405 0
M  V30 22900 H 2281.57 -3.87412 0.550233 0
M  V30 22901 H 2281.19 -3.80202 -1.16327 0
M  V30 22902 N 2282.19 -0.0585199 -1.57491 0
M  V30 22903 C 2283.15 0.89858 -2.10851 0
M  V30 22904 C 2284.15 1.2351 -1.02966 0
M  V30 22905 O 2285.34 1.17056 -1.29009 0
M  V30 22906 C 2282.47 2.20618 -2.59885 0
M  V30 22907 H 2283.66 0.435883 -2.96715 0
M  V30 22908 H 2281.22 0.189995 -1.55141 0
M  V30 22909 H 2281.95 2.71454 -1.77436 0
M  V30 22910 H 2281.74 1.97495 -3.3873 0
M  V30 22911 H 2283.23 2.89161 -3.0129 0
M  V30 22912 N 2283.66 1.56128 0.21493 0
M  V30 22913 C 2284.89 1.83886 0.959207 0
M  V30 22914 C 2285.31 0.639675 1.76889 0
M  V30 22915 O 2284.67 -0.41157 1.76567 0
M  V30 22916 C 2284.72 3.09696 1.84718 0
M  V30 22917 O 2283.82 2.88855 2.94341 0
M  V30 22918 H 2283.17 0.606073 0.27124 0
M  V30 22919 H 2285.7 2.03345 0.22624 0
M  V30 22920 H 2285.71 3.39973 2.2557 0
M  V30 22921 H 2284.38 3.96605 1.25211 0
M  V30 22922 H 2282.96 2.69828 2.57386 0
M  V30 22923 N 2285.14 -0.481893 1.50052 0
M  V30 22924 C 2286.09 -1.58122 1.68125 0
M  V30 22925 C 2287.06 -1.57665 0.522573 0
M  V30 22926 O 2288.24 -1.75361 0.751874 0
M  V30 22927 C 2285.38 -2.96164 1.77147 0
M  V30 22928 C 2284.5 -3.06491 3.04445 0
M  V30 22929 C 2283.63 -4.35382 3.04329 0
M  V30 22930 C 2282.67 -4.39412 4.26126 0
M  V30 22931 N 2281.81 -5.59758 4.2381 0
M  V30 22932 H 2286.65 -1.42017 2.61983 0
M  V30 22933 H 2284.19 -0.690664 1.29878 0
M  V30 22934 H 2286.14 -3.762 1.80358 0
M  V30 22935 H 2284.77 -3.10928 0.867383 0
M  V30 22936 H 2283.83 -2.19396 3.10756 0
M  V30 22937 H 2285.14 -3.05329 3.94431 0
M  V30 22938 H 2284.29 -5.23756 3.06209 0
M  V30 22939 H 2283.03 -4.39138 2.12154 0
M  V30 22940 H 2282.04 -3.49437 4.24469 0
M  V30 22941 H 2283.26 -4.37357 5.19515 0
M  V30 22942 H 2281.21 -5.6432 3.34484 0
M  V30 22943 H 2281.12 -5.60292 5.07552 0
M  V30 22944 H 2282.39 -6.50287 4.29821 0
M  V30 22945 N 2286.62 -1.39448 -0.734313 0
M  V30 22946 C 2287.87 -1.36911 -1.4961 0
M  V30 22947 C 2288.2 0.0347488 -1.94169 0
M  V30 22948 O 2287.47 0.999818 -1.66835 0
M  V30 22949 C 2287.76 -2.34208 -2.7353 0
M  V30 22950 C 2287.61 -3.83538 -2.34986 0
M  V30 22951 C 2288.93 -2.29324 -3.75631 0
M  V30 22952 H 2286.05 -0.498638 -0.542705 0
M  V30 22953 H 2288.69 -1.70444 -0.839567 0
M  V30 22954 H 2286.84 -2.05742 -3.29549 0
M  V30 22955 H 2288.51 -4.22756 -1.84593 0
M  V30 22956 H 2286.76 -4.00281 -1.67206 0
M  V30 22957 H 2287.43 -4.47105 -3.2373 0
M  V30 22958 H 2289.9 -2.54495 -3.29198 0
M  V30 22959 H 2288.78 -2.9948 -4.60003 0
M  V30 22960 H 2289.04 -1.29849 -4.22601 0
M  V30 22961 N 2288.1 0.964571 -1.24635 0
M  V30 22962 C 2289.05 2.05966 -1.04148 0
M  V30 22963 C 2290.02 1.66036 0.0462328 0
M  V30 22964 O 2291.2 1.90488 -0.109006 0
M  V30 22965 C 2288.34 3.38814 -0.65569 0
M  V30 22966 C 2287.45 3.9192 -1.81721 0
M  V30 22967 C 2286.59 5.1305 -1.37671 0
M  V30 22968 C 2285.63 5.58361 -2.50798 0
M  V30 22969 N 2284.76 6.70708 -2.07593 0
M  V30 22970 H 2289.6 2.22823 -1.97873 0
M  V30 22971 H 2287.14 1.09206 -0.985519 0
M  V30 22972 H 2289.1 4.1515 -0.413027 0
M  V30 22973 H 2287.73 3.21872 0.24457 0
M  V30 22974 H 2286.78 3.12194 -2.17345 0
M  V30 22975 H 2288.09 4.21504 -2.66712 0
M  V30 22976 H 2287.25 5.96771 -1.09311 0
M  V30 22977 H 2285.99 4.85157 -0.497378 0
M  V30 22978 H 2284.99 4.7321 -2.79914 0
M  V30 22979 H 2286.22 5.88266 -3.39293 0
M  V30 22980 H 2284.16 6.44544 -1.22063 0
M  V30 22981 H 2284.08 6.99758 -2.86137 0
M  V30 22982 H 2285.35 7.57863 -1.82382 0
M  V30 22983 N 2289.58 1.0606 1.16572 0
M  V30 22984 C 2290.54 0.67343 2.19083 0
M  V30 22985 C 2291.54 -0.27962 1.5835 0
M  V30 22986 O 2292.73 -0.0623182 1.74088 0
M  V30 22987 C 2289.86 -0.00948241 3.40899 0
M  V30 22988 H 2291.05 1.58086 2.54851 0
M  V30 22989 H 2288.61 0.855539 1.30806 0
M  V30 22990 H 2289.34 -0.929772 3.10686 0
M  V30 22991 H 2289.13 0.675798 3.86232 0
M  V30 22992 H 2290.62 -0.266171 4.16751 0
M  V30 22993 N 2291.06 -1.33168 0.84285 0
M  V30 22994 C 2292.28 -2.02389 0.453164 0
M  V30 22995 C 2292.71 -1.62981 -0.939077 0
M  V30 22996 O 2292.06 -0.824429 -1.61471 0
M  V30 22997 C 2292.11 -3.55804 0.586156 0
M  V30 22998 O 2291.22 -4.1059 -0.385957 0
M  V30 22999 H 2290.56 -0.63809 0.183675 0
M  V30 23000 H 2293.09 -1.69979 1.13878 0
M  V30 23001 H 2293.1 -4.05292 0.46928 0
M  V30 23002 H 2291.77 -3.8383 1.60147 0
M  V30 23003 H 2290.35 -3.72213 -0.226305 0
M  V30 23004 N 2292.53 -0.599659 -1.45746 0
M  V30 23005 C 2293.78 -0.0915827 -2.01892 0
M  V30 23006 C 2294.1 1.27944 -1.47158 0
M  V30 23007 O 2293.37 1.84348 -0.662762 0
M  V30 23008 H 2291.95 -0.0308655 -0.746362 0
M  V30 23009 H 2294.61 -0.779268 -1.78643 0
M  V30 23010 H 2293.71 -0.0353635 -3.1208 0
M  V30 23011 N 2294.01 1.53925 -0.338371 0
M  V30 23012 C 2295.42 1.86123 0.146619 0
M  V30 23013 C 2295.77 1.25972 1.50417 0
M  V30 23014 O 2294.9 0.571331 2.08722 0
M  V30 23015 C 2295.49 3.377 0.27282 0
M  V30 23016 C 2294.05 3.69795 0.702038 0
M  V30 23017 C 2293.2 2.76795 -0.167352 0
M  V30 23018 H 2296.15 1.48561 -0.558149 0
M  V30 23019 H 2296.17 3.64216 1.10121 0
M  V30 23020 H 2295.68 3.8145 -0.715374 0
M  V30 23021 H 2293.78 3.31587 1.69944 0
M  V30 23022 H 2293.9 4.76531 0.49552 0
M  V30 23023 H 2292.26 2.5215 0.359483 0
M  V30 23024 H 2293.04 3.23373 -1.15258 0
M  V30 23025 N 2295.49 0.0668712 1.57458 0
M  V30 23026 C 2296.74 -0.60218 1.9292 0
M  V30 23027 C 2297.06 -1.70447 0.947245 0
M  V30 23028 O 2296.33 -1.95899 -0.00540674 0
M  V30 23029 H 2294.91 -0.225428 0.712174 0
M  V30 23030 H 2297.57 0.123569 1.94508 0
M  V30 23031 H 2296.67 -1.03067 2.9459 0
M  V30 23032 N 2296.97 -1.56239 -0.206647 0
M  V30 23033 C 2297.9 -1.96647 -1.25906 0
M  V30 23034 C 2298.88 -0.83676 -1.48096 0
M  V30 23035 O 2300.06 -1.10021 -1.60028 0
M  V30 23036 C 2297.19 -2.29603 -2.60576 0
M  V30 23037 C 2296.15 -3.45204 -2.53018 0
M  V30 23038 C 2295.47 -3.63805 -3.91854 0
M  V30 23039 C 2296.77 -4.79738 -2.06516 0
M  V30 23040 H 2298.47 -2.84807 -0.923319 0
M  V30 23041 H 2296.01 -1.37026 -0.442711 0
M  V30 23042 H 2297.97 -2.56464 -3.34371 0
M  V30 23043 H 2296.69 -1.38312 -2.95867 0
M  V30 23044 H 2295.35 -3.18415 -1.81679 0
M  V30 23045 H 2295 -2.69865 -4.24479 0
M  V30 23046 H 2294.7 -4.41567 -3.87675 0
M  V30 23047 H 2296.22 -3.93031 -4.67289 0
M  V30 23048 H 2297.64 -5.05706 -2.70063 0
M  V30 23049 H 2296.03 -5.60888 -2.13364 0
M  V30 23050 H 2297.1 -4.74095 -1.01793 0
M  V30 23051 N 2298.45 0.473929 -1.50305 0
M  V30 23052 C 2299.39 1.59304 -1.69485 0
M  V30 23053 C 2300.39 1.59852 -0.560697 0
M  V30 23054 O 2301.59 1.64035 -0.741116 0
M  V30 23055 H 2297.97 0.528569 -0.534901 0
M  V30 23056 H 2299.94 1.40288 -2.63366 0
M  V30 23057 C 2298.69 2.97264 -1.80359 0
M  V30 23058 H 2298.01 2.9756 -2.67017 0
M  V30 23059 H 2299.45 3.75032 -1.97805 0
M  V30 23060 C 2297.91 3.32305 -0.554538 0
M  V30 23061 O 2298.44 4.00521 0.307591 0
M  V30 23062 N 2296.65 2.87702 -0.409404 0
M  V30 23063 H 2296.19 2.32362 -1.112 0
M  V30 23064 H 2296.15 3.11512 0.425168 0
M  V30 23065 N 2299.92 1.39835 0.726907 0
M  V30 23066 C 2301.15 1.4079 1.51611 0
M  V30 23067 C 2301.57 0.00454824 1.88799 0
M  V30 23068 O 2300.92 -0.968782 1.54664 0
M  V30 23069 C 2300.97 2.28826 2.79859 0
M  V30 23070 O 2300.7 3.63697 2.44247 0
M  V30 23071 C 2302.2 2.38251 3.73833 0
M  V30 23072 H 2299.42 0.480602 0.468255 0
M  V30 23073 H 2301.96 1.83749 0.897575 0
M  V30 23074 H 2300.12 1.89258 3.38024 0
M  V30 23075 H 2300.53 4.10336 3.26688 0
M  V30 23076 H 2302 3.04081 4.60693 0
M  V30 23077 H 2302.48 1.40411 4.16151 0
M  V30 23078 H 2303.09 2.78323 3.21584 0
M  V30 23079 N 2301.4 -0.957948 1.25144 0
M  V30 23080 C 2302.63 -1.73689 1.12427 0
M  V30 23081 C 2303.04 -1.86029 -0.322272 0
M  V30 23082 O 2302.4 -1.35563 -1.22184 0
M  V30 23083 C 2302.45 -3.15238 1.76938 0
M  V30 23084 O 2302.17 -3.03505 3.15937 0
M  V30 23085 C 2303.67 -4.09426 1.69957 0
M  V30 23086 H 2300.89 -0.544366 0.392309 0
M  V30 23087 H 2303.44 -1.20204 1.65442 0
M  V30 23088 H 2301.59 -3.65678 1.27901 0
M  V30 23089 H 2302.01 -3.92774 3.47605 0
M  V30 23090 H 2303.48 -5.06368 2.19762 0
M  V30 23091 H 2303.96 -4.34172 0.662695 0
M  V30 23092 H 2304.56 -3.649 2.18467 0
M  V30 23093 N 2302.88 -1.06677 -1.16008 0
M  V30 23094 C 2304.13 -0.784262 -1.86263 0
M  V30 23095 C 2304.45 0.691456 -1.82329 0
M  V30 23096 O 2303.72 1.50045 -1.2595 0
M  V30 23097 H 2302.3 -0.287122 -0.689616 0
M  V30 23098 H 2304.96 -1.34908 -1.40662 0
M  V30 23099 H 2304.06 -1.11264 -2.91593 0
M  V30 23100 N 2304.36 1.32719 -0.8499 0
M  V30 23101 C 2305.6 1.97707 -0.451625 0
M  V30 23102 C 2305.94 1.67121 0.989145 0
M  V30 23103 O 2305.21 0.956921 1.69332 0
M  V30 23104 C 2305.49 3.53512 -0.68566 0
M  V30 23105 C 2305.35 3.93745 -2.1745 0
M  V30 23106 C 2306.67 4.39881 -0.138952 0
M  V30 23107 H 2303.79 0.718163 -0.165563 0
M  V30 23108 H 2306.43 1.5718 -1.06745 0
M  V30 23109 H 2304.58 3.88164 -0.161484 0
M  V30 23110 H 2306.25 3.69295 -2.76439 0
M  V30 23111 H 2304.49 3.43076 -2.65483 0
M  V30 23112 H 2305.16 5.02305 -2.28897 0
M  V30 23113 H 2307.64 4.11937 -0.58714 0
M  V30 23114 H 2306.52 5.47893 -0.332309 0
M  V30 23115 H 2306.78 4.31596 0.957984 0
M  V30 23116 N 2305.84 0.60738 1.45426 0
M  V30 23117 C 2307.25 0.187567 1.85755 0
M  V30 23118 C 2307.6 -1.25548 1.50772 0
M  V30 23119 O 2306.72 -1.95191 0.934304 0
M  V30 23120 C 2307.32 0.333632 3.37153 0
M  V30 23121 C 2305.88 -0.031488 3.76387 0
M  V30 23122 C 2305.02 0.658164 2.69376 0
M  V30 23123 H 2307.98 0.814074 1.3623 0
M  V30 23124 H 2308 -0.434213 3.78014 0
M  V30 23125 H 2307.51 1.38399 3.62584 0
M  V30 23126 H 2305.61 -1.08104 3.56573 0
M  V30 23127 H 2305.72 0.362019 4.7773 0
M  V30 23128 H 2304.09 0.095832 2.5452 0
M  V30 23129 H 2304.87 1.71066 2.97643 0
M  V30 23130 N 2307.31 -1.53743 0.34653 0
M  V30 23131 C 2308.28 -2.2376 -0.4964 0
M  V30 23132 C 2309.28 -1.23882 -1.02517 0
M  V30 23133 O 2310.47 -1.48299 -0.913948 0
M  V30 23134 C 2307.6 -2.95956 -1.69182 0
M  V30 23135 H 2308.79 -2.99676 0.116004 0
M  V30 23136 H 2306.35 -1.55993 0.0979213 0
M  V30 23137 H 2307.08 -2.24236 -2.34284 0
M  V30 23138 H 2306.87 -3.69219 -1.31983 0
M  V30 23139 H 2308.36 -3.49236 -2.28963 0
M  V30 23140 N 2308.79 -0.0752207 -1.5742 0
M  V30 23141 C 2310.02 0.60548 -1.98365 0
M  V30 23142 C 2310.44 1.62147 -0.953412 0
M  V30 23143 O 2309.8 1.81121 0.0805734 0
M  V30 23144 C 2309.85 1.2475 -3.38334 0
M  V30 23145 O 2308.95 2.36336 -3.37963 0
M  V30 23146 H 2308.29 0.155417 -0.645555 0
M  V30 23147 H 2310.82 -0.15075 -2.04044 0
M  V30 23148 H 2310.83 1.59353 -3.75594 0
M  V30 23149 H 2309.51 0.503056 -4.12846 0
M  V30 23150 H 2308.09 2.03501 -3.12477 0
M  V30 23151 N 2310.27 1.56347 0.198358 0
M  V30 23152 C 2311.2 1.97312 1.24861 0
M  V30 23153 C 2312.18 0.844602 1.4765 0
M  V30 23154 O 2313.37 1.10868 1.59442 0
M  V30 23155 C 2310.5 2.30982 2.59354 0
M  V30 23156 C 2309.45 3.46541 2.51183 0
M  V30 23157 C 2308.78 3.65878 3.8992 0
M  V30 23158 C 2310.08 4.80826 2.03969 0
M  V30 23159 H 2311.77 2.85293 0.908202 0
M  V30 23160 H 2309.32 1.37259 0.435438 0
M  V30 23161 H 2311.27 2.58234 3.33006 0
M  V30 23162 H 2309.99 1.3988 2.95129 0
M  V30 23163 H 2308.65 3.19374 1.79988 0
M  V30 23164 H 2308.3 2.72112 4.23041 0
M  V30 23165 H 2308 4.43617 3.85328 0
M  V30 23166 H 2309.52 3.95503 4.65198 0
M  V30 23167 H 2310.94 5.07132 2.67377 0
M  V30 23168 H 2309.34 5.62012 2.10387 0
M  V30 23169 H 2310.41 4.74628 0.992778 0
M  V30 23170 N 2311.75 -0.465951 1.50554 0
M  V30 23171 C 2313.16 -1.04669 1.54601 0
M  V30 23172 C 2313.51 -1.93007 0.352522 0
M  V30 23173 O 2312.64 -2.09708 -0.534007 0
M  V30 23174 C 2313.23 -1.905 2.8017 0
M  V30 23175 C 2311.79 -2.43673 2.8688 0
M  V30 23176 C 2310.94 -1.22147 2.48949 0
M  V30 23177 H 2313.89 -0.248357 1.56745 0
M  V30 23178 H 2313.91 -2.75628 2.62315 0
M  V30 23179 H 2313.42 -1.2618 3.67015 0
M  V30 23180 H 2311.52 -3.11532 2.04398 0
M  V30 23181 H 2311.63 -2.78429 3.8989 0
M  V30 23182 H 2310 -1.55786 2.01501 0
M  V30 23183 H 2310.78 -0.594807 3.38108 0
M  V30 23184 N 2313.23 -1.40218 -0.719481 0
M  V30 23185 C 2314.47 -1.3849 -1.4815 0
M  V30 23186 C 2314.81 0.0141526 -1.94195 0
M  V30 23187 O 2314.08 0.982067 -1.67886 0
M  V30 23188 C 2314.36 -2.37096 -2.71031 0
M  V30 23189 C 2314.22 -3.86009 -2.30905 0
M  V30 23190 C 2315.54 -2.33295 -3.73178 0
M  V30 23191 H 2312.65 -0.504366 -0.537386 0
M  V30 23192 H 2315.3 -1.71325 -0.821442 0
M  V30 23193 H 2313.45 -2.09226 -3.27348 0
M  V30 23194 H 2315.12 -4.2469 -1.80099 0
M  V30 23195 H 2313.36 -4.02031 -1.62951 0
M  V30 23196 H 2314.03 -4.50513 -3.1897 0
M  V30 23197 H 2316.51 -2.57972 -3.26481 0
M  V30 23198 H 2315.38 -3.04342 -4.56801 0
M  V30 23199 H 2315.65 -1.34324 -4.212 0
M  V30 23200 N 2314.7 0.951297 -1.25651 0
M  V30 23201 C 2315.61 2.08222 -1.08077 0
M  V30 23202 C 2316.63 1.73992 -0.0169971 0
M  V30 23203 O 2317.81 2.0021 -0.218628 0
M  V30 23204 C 2314.87 3.39457 -0.704982 0
M  V30 23205 C 2313.93 3.87534 -1.84706 0
M  V30 23206 C 2313.17 5.12505 -1.48911 0
M  V30 23207 O 2313.39 5.69091 -0.386256 0
M  V30 23208 O 2312.32 5.55373 -2.32043 0
M  V30 23209 H 2316.15 2.25951 -2.02928 0
M  V30 23210 H 2313.73 1.06654 -1.0462 0
M  V30 23211 H 2315.62 4.18331 -0.507683 0
M  V30 23212 H 2314.29 3.2299 0.214234 0
M  V30 23213 H 2313.2 3.09649 -2.09924 0
M  V30 23214 H 2314.53 4.08504 -2.74564 0
M  V30 23215 N 2316.18 1.07291 1.1544 0
M  V30 23216 C 2317.43 0.7957 1.86212 0
M  V30 23217 C 2317.76 -0.678206 1.82293 0
M  V30 23218 O 2317.01 -1.51353 1.2406 0
M  V30 23219 C 2317.31 1.2484 3.34888 0
M  V30 23220 C 2316.98 2.72816 3.59002 0
M  V30 23221 C 2315.64 3.13233 3.65292 0
M  V30 23222 C 2317.99 3.68333 3.68755 0
M  V30 23223 C 2315.32 4.47987 3.78846 0
M  V30 23224 C 2317.67 5.02847 3.83833 0
M  V30 23225 C 2316.34 5.42887 3.88369 0
M  V30 23226 H 2315.61 0.291167 0.681397 0
M  V30 23227 H 2318.25 1.34382 1.36433 0
M  V30 23228 H 2316.56 0.619663 3.86869 0
M  V30 23229 H 2318.25 1.01082 3.88051 0
M  V30 23230 H 2314.84 2.40527 3.54746 0
M  V30 23231 H 2319.03 3.38234 3.63196 0
M  V30 23232 H 2314.28 4.78479 3.80615 0
M  V30 23233 H 2318.46 5.76734 3.90322 0
M  V30 23234 H 2316.09 6.47305 3.98624 0
M  V30 23235 N 2317.66 -1.32267 0.856927 0
M  V30 23236 C 2318.89 -2.01362 0.475475 0
M  V30 23237 C 2319.3 -1.64393 -0.928457 0
M  V30 23238 O 2318.66 -0.866415 -1.60622 0
M  V30 23239 C 2318.71 -3.56357 0.607608 0
M  V30 23240 O 2318.43 -3.91999 1.95624 0
M  V30 23241 C 2319.93 -4.42726 0.225459 0
M  V30 23242 H 2317.15 -0.644518 0.186647 0
M  V30 23243 H 2319.7 -1.68795 1.15449 0
M  V30 23244 H 2317.85 -3.87393 -0.0237038 0
M  V30 23245 H 2318.27 -4.86718 1.95464 0
M  V30 23246 H 2319.74 -5.50766 0.368909 0
M  V30 23247 H 2320.22 -4.31203 -0.834293 0
M  V30 23248 H 2320.82 -4.17084 0.831937 0
M  V30 23249 N 2319.14 -0.615084 -1.45102 0
M  V30 23250 C 2320.39 -0.110753 -2.01396 0
M  V30 23251 C 2320.7 1.26914 -1.48836 0
M  V30 23252 O 2321.91 1.86661 -1.97155 0
M  V30 23253 C 2320.36 -0.147293 -3.59598 0
M  V30 23254 C 2319.97 -1.5275 -4.21155 0
M  V30 23255 C 2321.71 0.301406 -4.23429 0
M  V30 23256 C 2319.62 -1.52002 -5.71533 0
M  V30 23257 H 2318.55 -0.0376373 -0.75306 0
M  V30 23258 H 2321.2 -0.77152 -1.66493 0
M  V30 23259 H 2319.58 0.58027 -3.91725 0
M  V30 23260 H 2320.76 -2.27737 -4.0059 0
M  V30 23261 H 2319.07 -1.91892 -3.69549 0
M  V30 23262 H 2321.67 0.326298 -5.33703 0
M  V30 23263 H 2322.01 1.32558 -3.94631 0
M  V30 23264 H 2322.55 -0.373134 -3.96046 0
M  V30 23265 H 2319.29 -2.52204 -6.0504 0
M  V30 23266 H 2318.81 -0.812845 -5.94267 0
M  V30 23267 H 2320.48 -1.24693 -6.34871 0
M  V30 23268 N 2320.62 1.53557 -0.354678 0
M  V30 23269 C 2321.89 1.93374 0.294247 0
M  V30 23270 C 2322.27 1.28726 1.67311 0
M  V30 23271 O 2321.62 0.442286 2.24179 0
M  V30 23272 C 2321.83 3.47186 0.355384 0
M  V30 23273 C 2323.18 4.20326 0.600933 0
M  V30 23274 O 2324.2 3.53509 0.437044 0
M  V30 23275 O 2323.06 5.38714 0.919228 0
M  V30 23276 H 2320.16 0.808484 0.174019 0
M  V30 23277 H 2322.7 1.64755 -0.406667 0
M  V30 23278 H 2321.48 3.86488 -0.611797 0
M  V30 23279 H 2321.1 3.82005 1.10263 0
M  V30 23280 N 2322.1 0.083568 1.57378 0
M  V30 23281 C 2323.06 -0.864922 2.12254 0
M  V30 23282 C 2324.06 -1.21856 1.04918 0
M  V30 23283 O 2325.25 -1.14989 1.30855 0
M  V30 23284 C 2322.38 -2.16456 2.63362 0
M  V30 23285 H 2323.57 -0.388623 2.97371 0
M  V30 23286 H 2321.13 -0.16529 1.55424 0
M  V30 23287 H 2321.86 -2.68596 1.81732 0
M  V30 23288 H 2321.65 -1.92081 3.41829 0
M  V30 23289 H 2323.14 -2.84331 3.05852 0
M  V30 23290 N 2323.57 -1.5645 -0.190064 0
M  V30 23291 C 2324.52 -1.94944 -1.23553 0
M  V30 23292 C 2325.49 -0.810722 -1.44971 0
M  V30 23293 O 2326.68 -1.0693 -1.58021 0
M  V30 23294 C 2323.82 -2.29854 -2.57412 0
M  V30 23295 C 2322.93 -3.56815 -2.43531 0
M  V30 23296 C 2322.06 -3.81024 -3.70128 0
M  V30 23297 C 2321.1 -5.01393 -3.511 0
M  V30 23298 N 2320.24 -5.2183 -4.69721 0
M  V30 23299 H 2325.08 -2.84076 -0.900254 0
M  V30 23300 H 2322.62 -1.40578 -0.433155 0
M  V30 23301 H 2324.57 -2.48112 -3.35404 0
M  V30 23302 H 2323.2 -1.43857 -2.88973 0
M  V30 23303 H 2322.26 -3.46576 -1.5681 0
M  V30 23304 H 2323.57 -4.44964 -2.25407 0
M  V30 23305 H 2322.72 -3.99548 -4.56559 0
M  V30 23306 H 2321.46 -2.91214 -3.9121 0
M  V30 23307 H 2320.47 -4.82786 -2.63054 0
M  V30 23308 H 2321.69 -5.92716 -3.31458 0
M  V30 23309 H 2319.64 -4.34969 -4.91058 0
M  V30 23310 H 2319.55 -6.04168 -4.54442 0
M  V30 23311 H 2320.82 -5.44817 -5.57489 0
M  V30 23312 N 2325.05 0.45796 -1.50799 0
M  V30 23313 C 2326.33 1.21899 -1.5297 0
M  V30 23314 C 2326.71 2.09209 -0.281943 0
M  V30 23315 O 2326.06 2.16389 0.734038 0
M  V30 23316 C 2326.27 2.0387 -2.83263 0
M  V30 23317 C 2327.61 2.61615 -3.34429 0
M  V30 23318 O 2328.64 2.14101 -2.84674 0
M  V30 23319 O 2327.5 3.4822 -4.21195 0
M  V30 23320 H 2324.59 0.553862 -0.614139 0
M  V30 23321 H 2327.14 0.46871 -1.63099 0
M  V30 23322 H 2325.91 1.39615 -3.65545 0
M  V30 23323 H 2325.53 2.86006 -2.762 0
M  V30 23324 N 2326.53 1.40598 0.712035 0
M  V30 23325 C 2327.49 1.40891 1.80783 0
M  V30 23326 C 2328.49 0.30213 1.57936 0
M  V30 23327 O 2329.68 0.561211 1.64912 0
M  V30 23328 C 2326.81 1.20414 3.18925 0
M  V30 23329 H 2328.01 2.38422 1.8192 0
M  V30 23330 H 2325.56 1.26499 0.918028 0
M  V30 23331 H 2326.3 0.236579 3.23436 0
M  V30 23332 H 2326.08 2.00588 3.36908 0
M  V30 23333 H 2327.57 1.23415 3.98947 0
M  V30 23334 N 2328.01 -0.94462 1.26153 0
M  V30 23335 C 2329.26 -1.68708 1.11274 0
M  V30 23336 C 2329.58 -1.91921 -0.345132 0
M  V30 23337 O 2328.85 -1.51345 -1.24384 0
M  V30 23338 H 2327.43 -0.625217 0.408794 0
M  V30 23339 H 2330.09 -1.13517 1.58429 0
M  V30 23340 H 2329.18 -2.66224 1.62884 0
M  V30 23341 N 2329.49 -1.07901 -1.1487 0
M  V30 23342 C 2330.4 -0.715954 -2.23408 0
M  V30 23343 C 2331.41 0.275275 -1.71809 0
M  V30 23344 O 2332.59 0.12051 -2.01039 0
M  V30 23345 C 2329.65 -0.125229 -3.46474 0
M  V30 23346 C 2328.71 -1.17041 -4.13037 0
M  V30 23347 C 2327.95 -0.607781 -5.30228 0
M  V30 23348 O 2328.17 0.574397 -5.67501 0
M  V30 23349 O 2327.1 -1.35536 -5.86441 0
M  V30 23350 H 2330.93 -1.62125 -2.56805 0
M  V30 23351 H 2328.51 -0.852344 -1.22701 0
M  V30 23352 H 2330.4 0.201655 -4.20917 0
M  V30 23353 H 2329.07 0.753309 -3.14813 0
M  V30 23354 H 2327.98 -1.54974 -3.40491 0
M  V30 23355 H 2329.31 -2.02105 -4.48792 0
M  V30 23356 N 2330.96 1.31811 -0.863929 0
M  V30 23357 C 2332.21 1.96536 -0.470938 0
M  V30 23358 C 2332.53 1.68658 0.978741 0
M  V30 23359 O 2331.8 0.998746 1.68529 0
M  V30 23360 H 2330.38 0.727127 -0.171161 0
M  V30 23361 H 2333.04 1.60727 -1.10239 0
M  V30 23362 H 2332.14 3.05805 -0.62367 0
M  V30 23363 N 2332.44 0.62277 1.44773 0
M  V30 23364 C 2333.37 -0.0741451 2.33382 0
M  V30 23365 C 2334.35 -0.843361 1.47721 0
M  V30 23366 O 2335.54 -0.810903 1.7646 0
M  V30 23367 C 2332.67 -1.06198 3.30665 0
M  V30 23368 C 2331.62 -0.404962 4.2608 0
M  V30 23369 C 2330.95 -1.50211 5.13167 0
M  V30 23370 C 2332.25 0.683505 5.17808 0
M  V30 23371 H 2333.94 0.665765 2.91904 0
M  V30 23372 H 2331.49 0.321611 1.40363 0
M  V30 23373 H 2333.44 -1.5582 3.91533 0
M  V30 23374 H 2332.16 -1.83267 2.70334 0
M  V30 23375 H 2330.82 0.0705327 3.66532 0
M  V30 23376 H 2330.47 -2.26347 4.49195 0
M  V30 23377 H 2330.17 -1.06792 5.77814 0
M  V30 23378 H 2331.7 -2.00031 5.76906 0
M  V30 23379 H 2333.11 0.270731 5.7266 0
M  V30 23380 H 2331.51 1.04034 5.91014 0
M  V30 23381 H 2332.58 1.55403 4.59323 0
M  V30 23382 N 2333.92 -1.53367 0.362817 0
M  V30 23383 C 2334.85 -2.28577 -0.476936 0
M  V30 23384 C 2335.83 -1.30896 -1.08629 0
M  V30 23385 O 2337.02 -1.59763 -1.10406 0
M  V30 23386 C 2334.15 -3.07296 -1.61823 0
M  V30 23387 C 2333.1 -4.12642 -1.13626 0
M  V30 23388 C 2332.43 -4.79427 -2.36757 0
M  V30 23389 C 2333.73 -5.21824 -0.222969 0
M  V30 23390 H 2335.42 -2.99021 0.150526 0
M  V30 23391 H 2332.97 -1.43811 0.0738356 0
M  V30 23392 H 2334.92 -3.58657 -2.21231 0
M  V30 23393 H 2333.64 -2.34537 -2.27288 0
M  V30 23394 H 2332.3 -3.62222 -0.564881 0
M  V30 23395 H 2331.95 -4.03243 -3.00673 0
M  V30 23396 H 2331.65 -5.50612 -2.05182 0
M  V30 23397 H 2333.17 -5.33581 -2.96856 0
M  V30 23398 H 2334.59 -5.68704 -0.724445 0
M  V30 23399 H 2332.98 -6.001 0.00178349 0
M  V30 23400 H 2334.05 -4.79287 0.735638 0
M  V30 23401 N 2335.4 -0.091913 -1.57332 0
M  V30 23402 C 2336.36 0.853653 -2.1271 0
M  V30 23403 C 2337.36 1.21298 -1.05563 0
M  V30 23404 O 2338.55 1.14294 -1.31463 0
M  V30 23405 C 2335.68 2.15056 -2.64506 0
M  V30 23406 H 2336.88 0.372848 -2.97573 0
M  V30 23407 H 2334.43 0.157045 -1.55509 0
M  V30 23408 H 2335.16 2.67629 -1.83154 0
M  V30 23409 H 2334.95 1.90266 -3.42843 0
M  V30 23410 H 2336.44 2.82705 -3.07356 0
M  V30 23411 N 2336.88 1.56548 0.181765 0
M  V30 23412 C 2338.12 1.81666 0.901399 0
M  V30 23413 C 2338.46 0.668107 1.82346 0
M  V30 23414 O 2337.73 -0.330581 1.9167 0
M  V30 23415 C 2338.01 3.17118 1.70612 0
M  V30 23416 C 2337.87 4.42485 0.807886 0
M  V30 23417 C 2339.19 3.49398 2.67599 0
M  V30 23418 H 2336.3 0.660851 0.326258 0
M  V30 23419 H 2338.95 1.89255 0.168101 0
M  V30 23420 H 2337.1 3.10779 2.33128 0
M  V30 23421 H 2338.77 4.60882 0.196409 0
M  V30 23422 H 2337.01 4.33647 0.115334 0
M  V30 23423 H 2337.68 5.33788 1.40623 0
M  V30 23424 H 2340.16 3.56122 2.15212 0
M  V30 23425 H 2339.03 4.45269 3.20977 0
M  V30 23426 H 2339.3 2.73569 3.47293 0
M  V30 23427 N 2338.35 -0.449957 1.5104 0
M  V30 23428 C 2339.29 -1.56321 1.6762 0
M  V30 23429 C 2340.3 -1.52971 0.55711 0
M  V30 23430 O 2341.49 -1.57976 0.831017 0
M  V30 23431 C 2338.59 -2.95232 1.66407 0
M  V30 23432 C 2337.76 -3.23224 2.94695 0
M  V30 23433 C 2336.82 -4.41794 2.8584 0
M  V30 23434 O 2335.85 -4.41065 3.59792 0
M  V30 23435 N 2337.05 -5.44654 2.0083 0
M  V30 23436 H 2339.81 -1.42508 2.63651 0
M  V30 23437 H 2337.37 -0.638711 1.48769 0
M  V30 23438 H 2339.37 -3.72554 1.58068 0
M  V30 23439 H 2337.94 -3.02706 0.780236 0
M  V30 23440 H 2337.16 -2.34317 3.17 0
M  V30 23441 H 2338.44 -3.38747 3.79642 0
M  V30 23442 H 2337.84 -5.48077 1.401 0
M  V30 23443 H 2336.4 -6.20877 1.98379 0
M  V30 23444 N 2339.83 -1.40974 -0.704569 0
M  V30 23445 C 2341.08 -1.39148 -1.46016 0
M  V30 23446 C 2341.39 -0.000623636 -1.956 0
M  V30 23447 O 2342.6 0.140252 -2.71138 0
M  V30 23448 C 2341.06 -2.44615 -2.63992 0
M  V30 23449 C 2340.66 -3.89565 -2.21231 0
M  V30 23450 C 2342.41 -2.51913 -3.41673 0
M  V30 23451 C 2340.32 -4.86603 -3.36112 0
M  V30 23452 H 2339.25 -0.517431 -0.548435 0
M  V30 23453 H 2341.9 -1.66759 -0.765754 0
M  V30 23454 H 2340.28 -2.10121 -3.35656 0
M  V30 23455 H 2341.45 -4.3326 -1.56915 0
M  V30 23456 H 2339.77 -3.85844 -1.56567 0
M  V30 23457 H 2342.36 -3.21597 -4.27176 0
M  V30 23458 H 2342.71 -1.5531 -3.86244 0
M  V30 23459 H 2343.24 -2.85453 -2.77059 0
M  V30 23460 H 2339.98 -5.84578 -2.96562 0
M  V30 23461 H 2339.5 -4.47564 -3.99307 0
M  V30 23462 H 2341.18 -5.06941 -4.0202 0
M  V30 23463 N 2341.31 0.937917 -1.26653 0
M  V30 23464 C 2342.54 1.71878 -1.15176 0
M  V30 23465 C 2342.95 1.86518 0.292635 0
M  V30 23466 O 2342.31 1.3749 1.20011 0
M  V30 23467 C 2342.36 3.12383 -1.81931 0
M  V30 23468 O 2342.08 2.9844 -3.20726 0
M  V30 23469 C 2343.58 4.0667 -1.76449 0
M  V30 23470 H 2340.8 0.538056 -0.40092 0
M  V30 23471 H 2343.35 1.17557 -1.67334 0
M  V30 23472 H 2341.5 3.63596 -1.33703 0
M  V30 23473 H 2341.92 3.87194 -3.53809 0
M  V30 23474 H 2343.39 5.02808 -2.2779 0
M  V30 23475 H 2343.87 4.33062 -0.731684 0
M  V30 23476 H 2344.47 3.61379 -2.24245 0
M  V30 23477 N 2342.79 1.08509 1.14296 0
M  V30 23478 C 2344.07 0.72812 1.81543 0
M  V30 23479 C 2344.45 -0.788046 1.95839 0
M  V30 23480 O 2343.79 -1.70694 1.51907 0
M  V30 23481 C 2344 1.45625 3.17166 0
M  V30 23482 C 2345.35 1.61597 3.92647 0
M  V30 23483 O 2346.38 1.41799 3.26759 0
M  V30 23484 O 2345.23 1.94272 5.10804 0
M  V30 23485 H 2342.33 0.260485 0.784905 0
M  V30 23486 H 2344.87 1.18673 1.21305 0
M  V30 23487 H 2343.65 2.48905 3.0193 0
M  V30 23488 H 2343.27 0.989192 3.85098 0
M  V30 23489 N 2344.27 -1.31351 0.870907 0
M  V30 23490 C 2345.68 -1.78878 0.534745 0
M  V30 23491 C 2346.03 -1.71756 -0.948392 0
M  V30 23492 O 2345.15 -1.28587 -1.74053 0
M  V30 23493 C 2345.75 -3.24799 0.963896 0
M  V30 23494 C 2344.31 -3.70218 0.679376 0
M  V30 23495 C 2343.45 -2.52115 1.15469 0
M  V30 23496 H 2346.41 -1.18419 1.05653 0
M  V30 23497 H 2346.43 -3.79416 0.286958 0
M  V30 23498 H 2345.94 -3.29951 2.04338 0
M  V30 23499 H 2344.04 -3.70567 -0.388704 0
M  V30 23500 H 2344.15 -4.62315 1.25706 0
M  V30 23501 H 2342.52 -2.48138 0.574427 0
M  V30 23502 H 2343.3 -2.60012 2.24162 0
M  V30 23503 N 2345.74 -0.630439 -1.44441 0
M  V30 23504 C 2346.65 0.0761281 -2.34476 0
M  V30 23505 C 2347.67 0.836423 -1.52578 0
M  V30 23506 O 2348.85 0.788842 -1.85309 0
M  V30 23507 C 2345.91 1.04593 -3.30547 0
M  V30 23508 C 2344.97 0.285085 -4.28352 0
M  V30 23509 C 2344.21 1.20869 -5.19833 0
M  V30 23510 O 2344.43 2.44738 -5.15228 0
M  V30 23511 O 2343.36 0.693386 -5.97893 0
M  V30 23512 H 2347.19 -0.664376 -2.96344 0
M  V30 23513 H 2344.77 -0.390635 -1.44203 0
M  V30 23514 H 2346.66 1.60389 -3.89684 0
M  V30 23515 H 2345.33 1.76706 -2.71213 0
M  V30 23516 H 2344.24 -0.315903 -3.72764 0
M  V30 23517 H 2345.57 -0.39601 -4.90604 0
M  V30 23518 N 2347.22 1.53172 -0.370945 0
M  V30 23519 C 2348.47 2.00936 0.216637 0
M  V30 23520 C 2348.79 1.2598 1.48843 0
M  V30 23521 O 2348.06 0.374584 1.92285 0
M  V30 23522 H 2346.64 0.74237 0.0830434 0
M  V30 23523 H 2349.3 1.88419 -0.498413 0
M  V30 23524 H 2348.4 3.08985 0.439839 0
M  V30 23525 N 2348.7 0.100255 1.57281 0
M  V30 23526 C 2349.65 -0.85682 2.14306 0
M  V30 23527 C 2350.62 -1.27632 1.06298 0
M  V30 23528 O 2351.8 -1.35716 1.34112 0
M  V30 23529 C 2348.94 -2.10862 2.73187 0
M  V30 23530 C 2348.06 -1.73918 3.95445 0
M  V30 23531 C 2347.19 -2.93923 4.42473 0
M  V30 23532 C 2346.23 -2.5313 5.57307 0
M  V30 23533 N 2345.37 -3.65987 5.99165 0
M  V30 23534 H 2350.21 -0.363674 2.95773 0
M  V30 23535 H 2347.74 -0.167833 1.46139 0
M  V30 23536 H 2349.7 -2.84179 3.05447 0
M  V30 23537 H 2348.33 -2.57667 1.94441 0
M  V30 23538 H 2347.38 -0.905489 3.69466 0
M  V30 23539 H 2348.7 -1.39927 4.78771 0
M  V30 23540 H 2347.85 -3.75487 4.76544 0
M  V30 23541 H 2346.59 -3.31128 3.58058 0
M  V30 23542 H 2345.59 -1.69994 5.2286 0
M  V30 23543 H 2346.82 -2.17063 6.43475 0
M  V30 23544 H 2344.76 -4.029 5.17694 0
M  V30 23545 H 2344.68 -3.35857 6.773 0
M  V30 23546 H 2345.95 -4.48046 6.37868 0
M  V30 23547 N 2350.18 -1.56643 -0.17346 0
M  V30 23548 C 2351.59 -1.71575 -0.736125 0
M  V30 23549 C 2351.94 -0.710421 -1.82886 0
M  V30 23550 O 2351.07 0.128662 -2.16017 0
M  V30 23551 C 2351.66 -3.11086 -1.34205 0
M  V30 23552 C 2350.22 -3.2771 -1.85156 0
M  V30 23553 C 2349.37 -2.67526 -0.729718 0
M  V30 23554 H 2352.32 -1.58615 0.0519065 0
M  V30 23555 H 2352.34 -3.09617 -2.21173 0
M  V30 23556 H 2351.85 -3.84233 -0.546512 0
M  V30 23557 H 2349.95 -2.59516 -2.67361 0
M  V30 23558 H 2350.07 -4.35428 -1.99848 0
M  V30 23559 H 2348.43 -2.2728 -1.14961 0
M  V30 23560 H 2349.21 -3.43258 0.0539409 0
M  V30 23561 N 2351.66 0.44194 -1.51277 0
M  V30 23562 C 2352.6 1.53609 -1.72258 0
M  V30 23563 C 2353.57 1.56224 -0.564191 0
M  V30 23564 O 2354.76 1.73306 -0.798104 0
M  V30 23565 C 2351.9 2.91363 -1.84937 0
M  V30 23566 C 2351.01 2.98312 -3.12465 0
M  V30 23567 C 2350.15 4.2716 -3.15765 0
M  V30 23568 C 2349.19 4.2796 -4.37627 0
M  V30 23569 N 2348.32 5.48325 -4.38502 0
M  V30 23570 H 2353.16 1.35021 -2.65656 0
M  V30 23571 H 2350.7 0.655986 -1.31663 0
M  V30 23572 H 2352.66 3.71286 -1.90269 0
M  V30 23573 H 2351.29 3.08519 -0.949515 0
M  V30 23574 H 2350.34 2.1108 -3.16464 0
M  V30 23575 H 2351.65 2.94764 -4.02388 0
M  V30 23576 H 2350.81 5.15454 -3.19988 0
M  V30 23577 H 2349.55 4.33358 -2.23723 0
M  V30 23578 H 2348.55 3.3806 -4.33585 0
M  V30 23579 H 2349.78 4.23429 -5.30928 0
M  V30 23580 H 2347.72 5.55253 -3.49328 0
M  V30 23581 H 2347.64 5.46638 -5.22229 0
M  V30 23582 H 2348.91 6.38663 -4.46912 0
M  V30 23583 N 2353.14 1.41345 0.697083 0
M  V30 23584 C 2354.08 1.43074 1.81103 0
M  V30 23585 C 2355.05 0.285303 1.63631 0
M  V30 23586 O 2356.24 0.486124 1.84503 0
M  V30 23587 C 2353.38 1.31721 3.18973 0
M  V30 23588 C 2352.49 2.56121 3.47888 0
M  V30 23589 C 2351.63 2.37072 4.75363 0
M  V30 23590 C 2350.66 3.56957 4.97241 0
M  V30 23591 N 2349.8 3.36988 6.15941 0
M  V30 23592 H 2354.64 2.3828 1.7896 0
M  V30 23593 H 2352.18 1.18324 0.873954 0
M  V30 23594 H 2354.14 1.2314 3.98613 0
M  V30 23595 H 2352.77 0.40124 3.20297 0
M  V30 23596 H 2351.82 2.75157 2.62665 0
M  V30 23597 H 2353.13 3.45301 3.59956 0
M  V30 23598 H 2352.28 2.25951 5.63055 0
M  V30 23599 H 2351.02 1.45346 4.65538 0
M  V30 23600 H 2350.03 3.68535 4.07998 0
M  V30 23601 H 2351.25 4.49634 5.08926 0
M  V30 23602 H 2349.2 2.4796 6.07332 0
M  V30 23603 H 2349.12 4.19743 6.2877 0
M  V30 23604 H 2350.38 3.29636 7.06371 0
M  V30 23605 N 2354.61 -0.931187 1.27148 0
M  V30 23606 C 2355.84 -1.71265 1.16085 0
M  V30 23607 C 2356.26 -1.86671 -0.282739 0
M  V30 23608 O 2355.61 -1.38124 -1.19281 0
M  V30 23609 C 2355.66 -3.11414 1.83585 0
M  V30 23610 O 2355.39 -2.96735 3.22304 0
M  V30 23611 C 2356.89 -4.05729 1.78604 0
M  V30 23612 H 2354.11 -0.535922 0.403768 0
M  V30 23613 H 2356.65 -1.16668 1.67955 0
M  V30 23614 H 2354.81 -3.62882 1.35629 0
M  V30 23615 H 2355.22 -3.85312 3.55858 0
M  V30 23616 H 2356.69 -5.01593 2.30453 0
M  V30 23617 H 2357.17 -4.32668 0.75464 0
M  V30 23618 H 2357.78 -3.60184 2.26158 0
M  V30 23619 N 2356.09 -1.09114 -1.13719 0
M  V30 23620 C 2357.04 -0.697129 -2.17081 0
M  V30 23621 C 2358.03 0.286895 -1.58322 0
M  V30 23622 O 2359.22 0.0977697 -1.7673 0
M  V30 23623 C 2356.35 -0.115789 -3.43105 0
M  V30 23624 C 2355.43 -1.12604 -4.08878 0
M  V30 23625 N 2355.82 -2.31202 -4.49866 0
M  V30 23626 C 2354.12 -0.963442 -4.3547 0
M  V30 23627 C 2354.82 -2.9544 -5.01089 0
M  V30 23628 N 2353.8 -2.23015 -4.95747 0
M  V30 23629 H 2357.6 -1.60014 -2.46521 0
M  V30 23630 H 2355.11 -0.966892 -1.3048 0
M  V30 23631 H 2357.11 0.184482 -4.16492 0
M  V30 23632 H 2355.77 0.782115 -3.1514 0
M  V30 23633 H 2356.78 -2.68814 -4.42673 0
M  V30 23634 H 2353.46 -0.119951 -4.17328 0
M  V30 23635 H 2354.85 -3.96245 -5.42623 0
M  V30 23636 N 2357.57 1.30887 -0.877861 0
M  V30 23637 C 2358.82 1.95687 -0.488827 0
M  V30 23638 C 2359.13 1.70113 0.965455 0
M  V30 23639 O 2360.34 2.28838 1.461 0
M  V30 23640 C 2358.79 3.50358 -0.823263 0
M  V30 23641 C 2358.4 3.84761 -2.29484 0
M  V30 23642 C 2360.15 4.21508 -0.503083 0
M  V30 23643 C 2358.05 5.32578 -2.57127 0
M  V30 23644 H 2356.98 0.732426 -0.179075 0
M  V30 23645 H 2359.63 1.48941 -1.07185 0
M  V30 23646 H 2358.02 3.95638 -0.169401 0
M  V30 23647 H 2359.19 3.50415 -2.99242 0
M  V30 23648 H 2357.5 3.26696 -2.58184 0
M  V30 23649 H 2360.1 5.30272 -0.686744 0
M  V30 23650 H 2360.44 4.12556 0.557036 0
M  V30 23651 H 2360.98 3.81888 -1.11383 0
M  V30 23652 H 2357.72 5.46574 -3.61853 0
M  V30 23653 H 2357.24 5.68249 -1.91971 0
M  V30 23654 H 2358.92 5.99932 -2.42262 0
M  V30 23655 N 2359.05 0.638091 1.44105 0
M  V30 23656 C 2359.98 -0.101165 2.28977 0
M  V30 23657 C 2360.99 -0.802063 1.41671 0
M  V30 23658 O 2362.18 -0.662346 1.65757 0
M  V30 23659 C 2359.28 -1.16575 3.18219 0
M  V30 23660 C 2358.45 -0.54599 4.33979 0
M  V30 23661 C 2357.51 -1.50545 5.04205 0
M  V30 23662 O 2356.54 -1.01989 5.59988 0
M  V30 23663 N 2357.74 -2.83971 5.06301 0
M  V30 23664 H 2360.51 0.627238 2.93063 0
M  V30 23665 H 2358.07 0.479758 1.54628 0
M  V30 23666 H 2360.06 -1.80808 3.62064 0
M  V30 23667 H 2358.63 -1.79629 2.55836 0
M  V30 23668 H 2357.85 0.275115 3.93239 0
M  V30 23669 H 2359.14 -0.112703 5.08675 0
M  V30 23670 H 2358.54 -3.25994 4.62325 0
M  V30 23671 H 2357.09 -3.43546 5.53913 0
M  V30 23672 N 2360.53 -1.52973 0.379063 0
M  V30 23673 C 2361.8 -1.93818 -0.263445 0
M  V30 23674 C 2362.18 -1.31371 -1.65242 0
M  V30 23675 O 2361.53 -0.477895 -2.23447 0
M  V30 23676 C 2361.74 -3.47707 -0.300105 0
M  V30 23677 C 2363.09 -4.21229 -0.533987 0
M  V30 23678 O 2364.11 -3.54159 -0.380748 0
M  V30 23679 O 2362.97 -5.40108 -0.833407 0
M  V30 23680 H 2360.07 -0.81115 -0.161134 0
M  V30 23681 H 2362.61 -1.64087 0.432827 0
M  V30 23682 H 2361.38 -3.85465 0.673206 0
M  V30 23683 H 2361.01 -3.83711 -1.04172 0
M  V30 23684 N 2362 -0.108595 -1.57225 0
M  V30 23685 C 2362.95 0.862847 -2.16004 0
M  V30 23686 C 2363.95 1.28272 -1.10646 0
M  V30 23687 O 2365.15 1.25568 -1.28968 0
M  V30 23688 H 2361.53 0.29633 -0.691153 0
M  V30 23689 H 2363.5 0.342523 -2.96428 0
M  V30 23690 C 2362.25 2.10711 -2.76579 0
M  V30 23691 H 2361.57 1.79294 -3.57343 0
M  V30 23692 H 2363.01 2.76712 -3.21258 0
M  V30 23693 C 2361.47 2.89004 -1.73142 0
M  V30 23694 O 2362 3.84024 -1.17849 0
M  V30 23695 N 2360.2 2.52799 -1.43322 0
M  V30 23696 H 2359.75 1.75598 -1.88476 0
M  V30 23697 H 2359.71 3.05481 -0.743539 0
M  V30 23698 N 2363.48 1.56732 0.16515 0
M  V30 23699 C 2364.43 1.93297 1.20914 0
M  V30 23700 C 2365.42 0.80201 1.39487 0
M  V30 23701 O 2366.61 1.06527 1.41354 0
M  V30 23702 C 2363.74 2.30165 2.54714 0
M  V30 23703 C 2362.82 3.49789 2.39809 0
M  V30 23704 N 2363.21 4.66855 1.94628 0
M  V30 23705 C 2361.51 3.54517 2.70617 0
M  V30 23706 C 2362.21 5.48983 1.92334 0
M  V30 23707 N 2361.19 4.90194 2.3497 0
M  V30 23708 H 2364.99 2.81291 0.851626 0
M  V30 23709 H 2362.5 1.5805 0.373371 0
M  V30 23710 H 2364.5 2.54557 3.30161 0
M  V30 23711 H 2363.16 1.43513 2.91263 0
M  V30 23712 H 2364.17 4.90956 1.64871 0
M  V30 23713 H 2360.85 2.7836 3.11162 0
M  V30 23714 H 2362.24 6.52804 1.59049 0
M  V30 23715 N 2364.96 -0.433911 1.51509 0
M  V30 23716 C 2366.24 -1.1945 1.5489 0
M  V30 23717 C 2366.62 -2.08734 0.315191 0
M  V30 23718 O 2365.97 -2.17529 -0.69952 0
M  V30 23719 C 2366.18 -1.99337 2.86471 0
M  V30 23720 C 2367.52 -2.56261 3.38549 0
M  V30 23721 O 2368.55 -2.09544 2.88044 0
M  V30 23722 O 2367.41 -3.41475 4.26681 0
M  V30 23723 H 2364.5 -0.544021 0.622872 0
M  V30 23724 H 2367.05 -0.442703 1.63824 0
M  V30 23725 H 2365.82 -1.33782 3.6772 0
M  V30 23726 H 2365.44 -2.81575 2.80715 0
M  V30 23727 N 2366.44 -1.41713 -0.689577 0
M  V30 23728 C 2367.69 -1.41113 -1.44678 0
M  V30 23729 C 2368.01 -0.0232539 -1.94986 0
M  V30 23730 O 2367.28 0.935883 -1.72099 0
M  V30 23731 H 2365.86 -0.519436 -0.536838 0
M  V30 23732 H 2368.52 -1.77005 -0.815794 0
M  V30 23733 H 2367.62 -2.10197 -2.30702 0
M  V30 23734 N 2367.92 0.924431 -1.2764 0
M  V30 23735 C 2369.14 1.70647 -1.16992 0
M  V30 23736 C 2369.56 1.86818 0.272836 0
M  V30 23737 O 2368.92 1.38755 1.18546 0
M  V30 23738 C 2368.97 3.10436 -1.85234 0
M  V30 23739 O 2368.69 2.95022 -3.23873 0
M  V30 23740 C 2370.19 4.04776 -1.80753 0
M  V30 23741 H 2367.41 0.533773 -0.406604 0
M  V30 23742 H 2369.95 1.15775 -1.68571 0
M  V30 23743 H 2368.11 3.62158 -1.37551 0
M  V30 23744 H 2368.52 3.8342 -3.57896 0
M  V30 23745 H 2370 5.00364 -2.3311 0
M  V30 23746 H 2370.47 4.32262 -0.777575 0
M  V30 23747 H 2371.08 3.5898 -2.28065 0
M  V30 23748 N 2369.39 1.09715 1.13139 0
M  V30 23749 C 2370.62 0.855689 1.88047 0
M  V30 23750 C 2371.03 -0.596887 1.79538 0
M  V30 23751 O 2370.38 -1.4228 1.16198 0
M  V30 23752 C 2370.44 1.21595 3.38312 0
M  V30 23753 C 2370.1 2.67404 3.706 0
M  V30 23754 C 2371.1 3.65649 3.6959 0
M  V30 23755 C 2368.78 3.036 4.00165 0
M  V30 23756 C 2370.78 4.98117 3.97691 0
M  V30 23757 C 2368.46 4.36258 4.27927 0
M  V30 23758 C 2369.46 5.33326 4.26676 0
M  V30 23759 O 2369.15 6.63597 4.53756 0
M  V30 23760 H 2368.88 0.307379 0.602075 0
M  V30 23761 H 2371.44 1.46345 1.44126 0
M  V30 23762 H 2369.67 0.551244 3.82751 0
M  V30 23763 H 2371.36 0.953153 3.9455 0
M  V30 23764 H 2372.12 3.39029 3.46821 0
M  V30 23765 H 2368 2.28677 4.00285 0
M  V30 23766 H 2371.54 5.73873 3.9663 0
M  V30 23767 H 2367.44 4.62621 4.50169 0
M  V30 23768 H 2368.21 6.69115 4.7141 0
M  V30 23769 N 2370.87 -1.30419 0.88479 0
M  V30 23770 C 2372.1 -2.00309 0.51808 0
M  V30 23771 C 2372.52 -1.66326 -0.893378 0
M  V30 23772 O 2371.87 -0.90029 -1.58748 0
M  V30 23773 C 2371.92 -3.54988 0.68306 0
M  V30 23774 O 2371.64 -3.87761 2.03895 0
M  V30 23775 C 2373.15 -4.42148 0.319317 0
M  V30 23776 H 2370.37 -0.640414 0.200277 0
M  V30 23777 H 2372.91 -1.66308 1.19004 0
M  V30 23778 H 2371.06 -3.87356 0.0584733 0
M  V30 23779 H 2371.48 -4.82462 2.05744 0
M  V30 23780 H 2372.95 -5.49859 0.485652 0
M  V30 23781 H 2373.43 -4.32876 -0.74264 0
M  V30 23782 H 2374.04 -4.15225 0.92022 0
M  V30 23783 N 2372.35 -0.645724 -1.43764 0
M  V30 23784 C 2373.6 -0.156306 -2.02197 0
M  V30 23785 C 2373.93 1.22391 -1.50779 0
M  V30 23786 O 2373.2 1.81552 -0.697803 0
M  V30 23787 C 2373.49 -0.158935 -3.59749 0
M  V30 23788 C 2373.34 -1.57253 -4.21416 0
M  V30 23789 C 2374.66 0.508713 -4.3715 0
M  V30 23790 H 2371.78 -0.0582732 -0.734693 0
M  V30 23791 H 2374.42 -0.824981 -1.71155 0
M  V30 23792 H 2372.57 0.410457 -3.86326 0
M  V30 23793 H 2374.24 -2.19193 -4.05897 0
M  V30 23794 H 2372.49 -2.12207 -3.78353 0
M  V30 23795 H 2373.16 -1.52628 -5.3048 0
M  V30 23796 H 2375.63 0.0243389 -4.16093 0
M  V30 23797 H 2374.51 0.476117 -5.46831 0
M  V30 23798 H 2374.77 1.58158 -4.12842 0
M  V30 23799 N 2373.83 1.5277 -0.38717 0
M  V30 23800 C 2374.79 2.24997 0.436899 0
M  V30 23801 C 2375.79 1.26557 0.991969 0
M  V30 23802 O 2376.98 1.5067 0.874308 0
M  V30 23803 C 2374.11 3.00338 1.61276 0
M  V30 23804 H 2375.31 2.99263 -0.195417 0
M  V30 23805 H 2372.86 1.55679 -0.139246 0
M  V30 23806 H 2373.59 2.30368 2.28256 0
M  V30 23807 H 2373.38 3.72589 1.22147 0
M  V30 23808 H 2374.87 3.55184 2.19623 0
M  V30 23809 N 2375.31 0.116931 1.57166 0
M  V30 23810 C 2376.54 -0.548551 1.99185 0
M  V30 23811 C 2376.94 -1.60895 0.995464 0
M  V30 23812 O 2376.29 -1.83689 -0.020097 0
M  V30 23813 C 2376.35 -1.23521 3.37614 0
M  V30 23814 C 2376.01 -0.322997 4.55857 0
M  V30 23815 C 2377.01 0.437567 5.18055 0
M  V30 23816 C 2374.7 -0.234673 5.01752 0
M  V30 23817 C 2376.69 1.27421 6.24534 0
M  V30 23818 C 2374.38 0.605603 6.08092 0
M  V30 23819 C 2375.37 1.35867 6.6935 0
M  V30 23820 O 2375.06 2.185 7.73636 0
M  V30 23821 H 2374.79 -0.149987 0.659151 0
M  V30 23822 H 2377.35 0.199464 2.04429 0
M  V30 23823 H 2375.58 -2.03025 3.29117 0
M  V30 23824 H 2377.27 -1.79739 3.63935 0
M  V30 23825 H 2378.03 0.37919 4.83515 0
M  V30 23826 H 2373.91 -0.810521 4.53819 0
M  V30 23827 H 2377.46 1.86249 6.72278 0
M  V30 23828 H 2373.35 0.665381 6.42061 0
M  V30 23829 H 2374.12 2.1142 7.90724 0
M  V30 23830 N 2376.78 -1.56818 -0.156836 0
M  V30 23831 C 2378.03 -1.83077 -0.872383 0
M  V30 23832 C 2378.36 -0.697033 -1.8126 0
M  V30 23833 O 2377.64 0.300046 -1.92172 0
M  V30 23834 C 2377.92 -3.19792 -1.65545 0
M  V30 23835 C 2377.77 -4.43715 -0.737389 0
M  V30 23836 C 2379.09 -3.53611 -2.62006 0
M  V30 23837 H 2376.21 -0.665958 -0.315704 0
M  V30 23838 H 2378.85 -1.89498 -0.137971 0
M  V30 23839 H 2377 -3.14449 -2.28154 0
M  V30 23840 H 2378.68 -4.61136 -0.123062 0
M  V30 23841 H 2376.92 -4.33775 -0.0463305 0
M  V30 23842 H 2377.59 -5.35957 -1.32113 0
M  V30 23843 H 2380.07 -3.59501 -2.09519 0
M  V30 23844 H 2378.94 -4.50319 -3.13853 0
M  V30 23845 H 2379.2 -2.79059 -3.42897 0
M  V30 23846 N 2378.26 0.425871 -1.51737 0
M  V30 23847 C 2379.67 1.00533 -1.57321 0
M  V30 23848 C 2380.02 1.92005 -0.403571 0
M  V30 23849 O 2379.15 2.1105 0.478219 0
M  V30 23850 C 2379.74 1.83005 -2.85122 0
M  V30 23851 C 2378.3 2.35982 -2.9324 0
M  V30 23852 C 2377.45 1.15503 -2.521 0
M  V30 23853 H 2380.4 0.206711 -1.57348 0
M  V30 23854 H 2380.42 2.68576 -2.69531 0
M  V30 23855 H 2379.93 1.16405 -3.70232 0
M  V30 23856 H 2378.04 3.06003 -2.12586 0
M  V30 23857 H 2378.15 2.67994 -3.97135 0
M  V30 23858 H 2376.51 1.50389 -2.05561 0
M  V30 23859 H 2377.3 0.504955 -3.39566 0
M  V30 23860 N 2379.74 1.42077 0.682052 0
M  V30 23861 C 2381.02 1.32644 1.43753 0
M  V30 23862 C 2381.4 -0.039624 2.11063 0
M  V30 23863 O 2380.75 -1.0547 2.02702 0
M  V30 23864 C 2380.96 2.4895 2.44591 0
M  V30 23865 C 2382.3 2.90735 3.09448 0
M  V30 23866 O 2383.33 2.48788 2.54918 0
M  V30 23867 O 2382.19 3.63314 4.08246 0
M  V30 23868 H 2379.28 0.522726 0.640848 0
M  V30 23869 H 2381.83 1.54069 0.711388 0
M  V30 23870 H 2380.6 3.4005 1.93603 0
M  V30 23871 H 2380.22 2.29473 3.24697 0
M  V30 23872 N 2381.22 -0.917649 1.28129 0
M  V30 23873 C 2382.47 -1.66886 1.15226 0
M  V30 23874 C 2382.8 -1.9188 -0.299259 0
M  V30 23875 O 2382.07 -1.51639 -1.21803 0
M  V30 23876 C 2382.36 -3.02919 1.94711 0
M  V30 23877 C 2382.21 -2.85102 3.47903 0
M  V30 23878 C 2383.53 -4.03399 1.75946 0
M  V30 23879 H 2380.65 -0.605645 0.419956 0
M  V30 23880 H 2383.29 -1.0642 1.574 0
M  V30 23881 H 2381.44 -3.54531 1.58871 0
M  V30 23882 H 2383.11 -2.4053 3.93628 0
M  V30 23883 H 2381.35 -2.2024 3.73734 0
M  V30 23884 H 2382.03 -3.81687 3.98772 0
M  V30 23885 H 2384.5 -3.60834 2.07216 0
M  V30 23886 H 2383.38 -4.96552 2.3394 0
M  V30 23887 H 2383.64 -4.36362 0.709953 0
M  V30 23888 N 2382.7 -1.10314 -1.12555 0
M  V30 23889 C 2383.93 -0.866906 -1.87863 0
M  V30 23890 C 2384.34 0.582525 -1.79589 0
M  V30 23891 O 2383.7 1.40154 -1.1689 0
M  V30 23892 C 2383.75 -1.30502 -3.37122 0
M  V30 23893 O 2383.47 -2.69761 -3.45196 0
M  V30 23894 C 2384.97 -1.1025 -4.29371 0
M  V30 23895 H 2382.19 -0.311246 -0.594447 0
M  V30 23896 H 2384.73 -1.46748 -1.42426 0
M  V30 23897 H 2382.89 -0.748148 -3.80107 0
M  V30 23898 H 2383.3 -2.88465 -4.3805 0
M  V30 23899 H 2384.78 -1.45821 -5.32391 0
M  V30 23900 H 2385.25 -0.0410263 -4.39181 0
M  V30 23901 H 2385.86 -1.64578 -3.92166 0
M  V30 23902 N 2384.18 1.29948 -0.891694 0
M  V30 23903 C 2385.42 1.95493 -0.512521 0
M  V30 23904 C 2385.74 1.70697 0.942746 0
M  V30 23905 O 2385.01 1.03427 1.66372 0
M  V30 23906 H 2383.59 0.723332 -0.186546 0
M  V30 23907 H 2386.26 1.58353 -1.13624 0
M  V30 23908 H 2385.35 3.04413 -0.688395 0
M  V30 23909 N 2385.65 0.653339 1.4342 0
M  V30 23910 C 2387.07 0.320914 1.5634 0
M  V30 23911 C 2387.27 -1.17496 1.63698 0
M  V30 23912 O 2386.33 -1.95979 1.59212 0
M  V30 23913 C 2387.64 1.03238 2.82423 0
M  V30 23914 C 2389.19 1.01264 2.96167 0
M  V30 23915 C 2389.66 1.705 4.25081 0
M  V30 23916 N 2391.15 1.67264 4.31945 0
M  V30 23917 C 2391.89 2.1771 5.30462 0
M  V30 23918 N 2391.38 2.76445 6.35256 0
M  V30 23919 N 2393.18 2.08209 5.22116 0
M  V30 23920 H 2385.33 1.62406 1.36887 0
M  V30 23921 H 2387.59 0.682989 0.657442 0
M  V30 23922 H 2387.3 2.08749 2.83049 0
M  V30 23923 H 2387.17 0.584013 3.72651 0
M  V30 23924 H 2389.56 -0.0340717 2.9508 0
M  V30 23925 H 2389.64 1.49969 2.07227 0
M  V30 23926 H 2389.28 2.75128 4.26928 0
M  V30 23927 H 2389.21 1.1926 5.12918 0
M  V30 23928 H 2391.7 1.24404 3.56836 0
M  V30 23929 H 2392.02 3.12613 7.06748 0
M  V30 23930 H 2390.36 2.80506 6.35879 0
M  V30 23931 H 2393.55 1.62028 4.39163 0
M  V30 23932 H 2393.73 2.47832 5.98735 0
M  V30 23933 N 2387.13 -1.52563 0.395266 0
M  V30 23934 C 2388.36 -2.05773 -0.184639 0
M  V30 23935 C 2388.77 -1.26637 -1.40569 0
M  V30 23936 O 2388.11 -0.307722 -1.81104 0
M  V30 23937 C 2388.17 -3.54227 -0.613488 0
M  V30 23938 C 2387.84 -4.54312 0.494919 0
M  V30 23939 C 2388.84 -5.01954 1.35419 0
M  V30 23940 C 2386.52 -4.97897 0.663653 0
M  V30 23941 C 2388.51 -5.9181 2.36727 0
M  V30 23942 C 2386.2 -5.87552 1.68006 0
M  V30 23943 C 2387.2 -6.34402 2.53028 0
M  V30 23944 O 2386.89 -7.22285 3.5293 0
M  V30 23945 H 2386.62 -0.675331 -0.0300651 0
M  V30 23946 H 2389.17 -1.97598 0.560742 0
M  V30 23947 H 2387.4 -3.60041 -1.41094 0
M  V30 23948 H 2389.09 -3.9015 -1.11974 0
M  V30 23949 H 2389.86 -4.69008 1.23517 0
M  V30 23950 H 2385.74 -4.60999 0.0115723 0
M  V30 23951 H 2389.28 -6.283 3.03124 0
M  V30 23952 H 2385.18 -6.19912 1.79944 0
M  V30 23953 H 2385.95 -7.40361 3.49009 0
M  V30 23954 N 2388.61 -0.125265 -1.57101 0
M  V30 23955 C 2389.84 0.538761 -1.99762 0
M  V30 23956 C 2390.25 1.59825 -1.00506 0
M  V30 23957 O 2389.61 1.825 0.00116266 0
M  V30 23958 C 2389.66 1.15921 -3.4241 0
M  V30 23959 O 2389.38 0.142066 -4.3787 0
M  V30 23960 C 2390.88 1.90595 -4.00235 0
M  V30 23961 H 2388.1 0.142129 -0.655775 0
M  V30 23962 H 2390.65 -0.213449 -2.03383 0
M  V30 23963 H 2388.8 1.86217 -3.39709 0
M  V30 23964 H 2389.22 0.593683 -5.21129 0
M  V30 23965 H 2390.69 2.29326 -5.02109 0
M  V30 23966 H 2391.17 2.78357 -3.39726 0
M  V30 23967 H 2391.77 1.25048 -4.06501 0
M  V30 23968 N 2390.09 1.56899 0.148518 0
M  V30 23969 C 2391.34 1.82456 0.859808 0
M  V30 23970 C 2391.65 0.706261 1.82404 0
M  V30 23971 O 2392.86 0.847394 2.57937 0
M  V30 23972 C 2391.31 3.23383 1.57961 0
M  V30 23973 C 2390.92 4.43144 0.657862 0
M  V30 23974 C 2392.66 3.58215 2.27778 0
M  V30 23975 C 2390.57 5.75093 1.3792 0
M  V30 23976 H 2389.5 0.680446 0.324822 0
M  V30 23977 H 2392.15 1.83154 0.112556 0
M  V30 23978 H 2390.53 3.17067 2.37244 0
M  V30 23979 H 2391.71 4.60692 -0.0996307 0
M  V30 23980 H 2390.02 4.16344 0.0681911 0
M  V30 23981 H 2392.62 4.54053 2.82382 0
M  V30 23982 H 2392.96 2.84198 3.04199 0
M  V30 23983 H 2393.5 3.66184 1.55415 0
M  V30 23984 H 2390.23 6.52201 0.656867 0
M  V30 23985 H 2389.75 5.61482 2.10944 0
M  V30 23986 H 2391.43 6.17839 1.92053 0
M  V30 23987 N 2391.57 -0.417818 1.51961 0
M  V30 23988 C 2392.5 -1.51551 1.77636 0
M  V30 23989 C 2393.48 -1.58125 0.626946 0
M  V30 23990 O 2394.66 -1.73539 0.871662 0
M  V30 23991 C 2391.79 -2.89457 1.91917 0
M  V30 23992 C 2390.75 -2.97737 3.07468 0
M  V30 23993 C 2390.07 -4.37813 3.06959 0
M  V30 23994 C 2391.37 -2.70019 4.47087 0
M  V30 23995 H 2393.07 -1.30315 2.69552 0
M  V30 23996 H 2390.61 -0.625469 1.29707 0
M  V30 23997 H 2392.56 -3.66226 2.08461 0
M  V30 23998 H 2391.29 -3.11967 0.966653 0
M  V30 23999 H 2389.95 -2.23411 2.9066 0
M  V30 24000 H 2389.6 -4.5732 2.09446 0
M  V30 24001 H 2389.3 -4.4428 3.84564 0
M  V30 24002 H 2390.82 -5.16529 3.25622 0
M  V30 24003 H 2392.23 -3.36514 4.64145 0
M  V30 24004 H 2390.63 -2.87872 5.26545 0
M  V30 24005 H 2391.7 -1.65506 4.5578 0
M  V30 24006 N 2393.04 -1.42436 -0.674508 0
M  V30 24007 C 2394.29 -1.42214 -1.43032 0
M  V30 24008 C 2394.61 -0.0421131 -1.95555 0
M  V30 24009 O 2395.81 0.0827081 -2.71374 0
M  V30 24010 C 2394.27 -2.50159 -2.58744 0
M  V30 24011 C 2393.88 -3.9417 -2.12918 0
M  V30 24012 C 2395.62 -2.59104 -3.36252 0
M  V30 24013 C 2393.53 -4.93623 -3.25714 0
M  V30 24014 H 2392.46 -0.528948 -0.537336 0
M  V30 24015 H 2395.11 -1.68345 -0.73021 0
M  V30 24016 H 2393.49 -2.17194 -3.31124 0
M  V30 24017 H 2394.66 -4.36491 -1.4769 0
M  V30 24018 H 2392.98 -3.89078 -1.48348 0
M  V30 24019 H 2395.58 -3.30586 -4.20258 0
M  V30 24020 H 2395.92 -1.63468 -3.82863 0
M  V30 24021 H 2396.45 -2.91265 -2.70942 0
M  V30 24022 H 2393.19 -5.90737 -2.84095 0
M  V30 24023 H 2392.71 -4.55933 -3.89724 0
M  V30 24024 H 2394.39 -5.15354 -3.91177 0
M  V30 24025 N 2394.52 0.910841 -1.28614 0
M  V30 24026 C 2395.47 2.01363 -1.1279 0
M  V30 24027 C 2396.44 1.66082 -0.0242302 0
M  V30 24028 O 2397.62 1.89855 -0.1897 0
M  V30 24029 C 2394.76 3.35728 -0.798802 0
M  V30 24030 C 2393.88 3.8386 -1.9818 0
M  V30 24031 C 2393.01 5.06749 -1.59307 0
M  V30 24032 C 2392.05 5.47221 -2.74254 0
M  V30 24033 N 2391.19 6.613 -2.35854 0
M  V30 24034 H 2396.03 2.1423 -2.07146 0
M  V30 24035 H 2393.56 1.04928 -1.03095 0
M  V30 24036 H 2395.52 4.13025 -0.588734 0
M  V30 24037 H 2394.15 3.2262 0.107833 0
M  V30 24038 H 2393.2 3.02695 -2.30391 0
M  V30 24039 H 2394.52 4.09813 -2.8435 0
M  V30 24040 H 2393.67 5.91598 -1.34524 0
M  V30 24041 H 2392.41 4.82611 -0.702702 0
M  V30 24042 H 2391.41 4.60912 -2.99733 0
M  V30 24043 H 2392.64 5.73346 -3.63938 0
M  V30 24044 H 2390.59 6.38787 -1.4929 0
M  V30 24045 H 2390.5 6.86993 -3.15558 0
M  V30 24046 H 2391.77 7.49446 -2.14361 0
M  V30 24047 N 2396 1.10909 1.11969 0
M  V30 24048 C 2397.23 0.875586 1.87128 0
M  V30 24049 C 2397.64 -0.577811 1.80161 0
M  V30 24050 O 2396.98 -1.4104 1.17701 0
M  V30 24051 C 2397.04 1.25176 3.37003 0
M  V30 24052 C 2396.71 2.71319 3.67743 0
M  V30 24053 C 2397.7 3.69548 3.65691 0
M  V30 24054 C 2395.39 3.07828 3.96923 0
M  V30 24055 C 2397.38 5.02307 3.92386 0
M  V30 24056 C 2395.07 4.40773 4.23276 0
M  V30 24057 C 2396.07 5.37821 4.20995 0
M  V30 24058 O 2395.76 6.68372 4.46692 0
M  V30 24059 H 2395.49 0.313747 0.598781 0
M  V30 24060 H 2398.04 1.47866 1.42566 0
M  V30 24061 H 2396.27 0.591809 3.82145 0
M  V30 24062 H 2397.96 0.994946 3.93517 0
M  V30 24063 H 2398.73 3.42688 3.43205 0
M  V30 24064 H 2394.61 2.32909 3.97837 0
M  V30 24065 H 2398.15 5.78048 3.90521 0
M  V30 24066 H 2394.05 4.67369 4.45237 0
M  V30 24067 H 2394.82 6.74077 4.64287 0
M  V30 24068 N 2397.48 -1.29474 0.898573 0
M  V30 24069 C 2398.73 -1.95219 0.522881 0
M  V30 24070 C 2399.05 -1.71194 -0.93368 0
M  V30 24071 O 2398.32 -1.04308 -1.65821 0
M  V30 24072 H 2396.9 -0.722333 0.190379 0
M  V30 24073 H 2399.56 -1.57748 1.14462 0
M  V30 24074 H 2398.66 -3.04044 0.704529 0
M  V30 24075 N 2398.96 -0.660936 -1.43071 0
M  V30 24076 C 2400.2 -0.17713 -2.01322 0
M  V30 24077 C 2400.53 1.21587 -1.52452 0
M  V30 24078 O 2399.8 1.81371 -0.740354 0
M  V30 24079 H 2398.38 -0.0624935 -0.744381 0
M  V30 24080 H 2401.04 -0.854336 -1.75177 0
M  V30 24081 H 2400.13 -0.167695 -3.11649 0
M  V30 24082 N 2400.43 1.52351 -0.403352 0
M  V30 24083 C 2401.71 1.94212 0.232577 0
M  V30 24084 C 2402.09 1.33983 1.63131 0
M  V30 24085 O 2401.44 0.513383 2.22658 0
M  V30 24086 C 2401.65 3.48141 0.24475 0
M  V30 24087 C 2403 4.22025 0.466906 0
M  V30 24088 O 2404.02 3.5472 0.324356 0
M  V30 24089 O 2402.88 5.41365 0.747375 0
M  V30 24090 H 2399.97 0.813611 0.148209 0
M  V30 24091 H 2402.52 1.63378 -0.458877 0
M  V30 24092 H 2401.29 3.84346 -0.734445 0
M  V30 24093 H 2400.92 3.85319 0.980544 0
M  V30 24094 N 2401.91 0.133594 1.57033 0
M  V30 24095 C 2402.82 -0.824525 2.19633 0
M  V30 24096 C 2403.84 -1.2818 1.17668 0
M  V30 24097 O 2405.01 -1.34177 1.50195 0
M  V30 24098 C 2402.08 -2.05132 2.79502 0
M  V30 24099 C 2401.14 -1.64457 3.96551 0
M  V30 24100 C 2400.37 -2.81289 4.53555 0
M  V30 24101 O 2400.6 -3.97129 4.09445 0
M  V30 24102 O 2399.53 -2.57532 5.44023 0
M  V30 24103 H 2403.36 -0.321712 3.01991 0
M  V30 24104 H 2400.94 -0.0927627 1.49112 0
M  V30 24105 H 2402.82 -2.76954 3.17607 0
M  V30 24106 H 2401.5 -2.54392 2.00166 0
M  V30 24107 H 2400.41 -0.896984 3.63187 0
M  V30 24108 H 2401.74 -1.19926 4.77366 0
M  V30 24109 N 2403.39 -1.56975 -0.140195 0
M  V30 24110 C 2404.64 -1.82909 -0.85012 0
M  V30 24111 C 2404.95 -0.715924 -1.82027 0
M  V30 24112 O 2406.16 -0.861061 -2.57484 0
M  V30 24113 C 2404.61 -3.24216 -1.56244 0
M  V30 24114 C 2404.22 -4.43486 -0.634352 0
M  V30 24115 C 2405.97 -3.59417 -2.25875 0
M  V30 24116 C 2403.87 -5.75816 -1.34868 0
M  V30 24117 H 2402.8 -0.682159 -0.321209 0
M  V30 24118 H 2405.45 -1.83212 -0.102842 0
M  V30 24119 H 2403.84 -3.18321 -2.35559 0
M  V30 24120 H 2405.01 -4.60633 0.124061 0
M  V30 24121 H 2403.33 -4.16374 -0.0461104 0
M  V30 24122 H 2405.92 -4.55544 -2.7997 0
M  V30 24123 H 2406.27 -2.85807 -3.02688 0
M  V30 24124 H 2406.8 -3.67003 -1.53471 0
M  V30 24125 H 2403.54 -6.5254 -0.62227 0
M  V30 24126 H 2403.06 -5.62593 -2.07964 0
M  V30 24127 H 2404.74 -6.18849 -1.88773 0
M  V30 24128 N 2404.87 0.409753 -1.5218 0
M  V30 24129 C 2406.28 0.988587 -1.58379 0
M  V30 24130 C 2406.63 1.91566 -0.423913 0
M  V30 24131 O 2405.76 2.11545 0.455807 0
M  V30 24132 C 2406.35 1.79971 -2.87047 0
M  V30 24133 C 2404.91 2.32858 -2.95726 0
M  V30 24134 C 2404.06 1.12823 -2.53311 0
M  V30 24135 H 2407.01 0.190011 -1.57558 0
M  V30 24136 H 2407.03 2.65703 -2.72364 0
M  V30 24137 H 2406.54 1.12471 -3.71446 0
M  V30 24138 H 2404.64 3.03731 -2.1582 0
M  V30 24139 H 2404.75 2.63766 -3.99955 0
M  V30 24140 H 2403.12 1.482 -2.07144 0
M  V30 24141 H 2403.9 0.468911 -3.40083 0
M  V30 24142 N 2406.35 1.42792 0.666944 0
M  V30 24143 C 2407.59 1.4368 1.42696 0
M  V30 24144 C 2407.92 0.0560766 1.94419 0
M  V30 24145 O 2407.18 -0.936801 1.71821 0
M  V30 24146 C 2407.48 2.41474 2.63486 0
M  V30 24147 C 2407.14 3.87674 2.3026 0
M  V30 24148 C 2405.8 4.27495 2.2091 0
M  V30 24149 C 2408.16 4.79862 2.03426 0
M  V30 24150 C 2405.48 5.57475 1.82863 0
M  V30 24151 C 2407.84 6.10191 1.66881 0
M  V30 24152 C 2406.5 6.49004 1.56047 0
M  V30 24153 H 2405.77 0.525764 0.522162 0
M  V30 24154 H 2408.42 1.75784 0.759754 0
M  V30 24155 H 2406.72 2.02726 3.35275 0
M  V30 24156 H 2408.42 2.39422 3.2168 0
M  V30 24157 H 2405.01 3.5615 2.38442 0
M  V30 24158 H 2409.19 4.49878 2.09578 0
M  V30 24159 H 2404.45 5.86399 1.7305 0
M  V30 24160 H 2408.62 6.81106 1.45145 0
M  V30 24161 H 2406.25 7.49629 1.26335 0
M  V30 24162 N 2407.82 -0.904008 1.29095 0
M  V30 24163 C 2409.05 -1.69292 1.19812 0
M  V30 24164 C 2409.47 -1.86583 -0.238448 0
M  V30 24165 O 2408.83 -1.38302 -1.17227 0
M  V30 24166 C 2408.88 -3.05732 1.91207 0
M  V30 24167 O 2407.98 -3.9375 1.22618 0
M  V30 24168 H 2407.33 -0.518019 0.415394 0
M  V30 24169 H 2409.86 -1.12964 1.70588 0
M  V30 24170 H 2409.87 -3.55902 1.99494 0
M  V30 24171 H 2408.54 -2.92466 2.95697 0
M  V30 24172 H 2407.12 -3.52184 1.2256 0
M  V30 24173 N 2409.3 -1.11501 -1.11379 0
M  V30 24174 C 2410.71 -0.88022 -1.64648 0
M  V30 24175 C 2411.06 0.587401 -1.87201 0
M  V30 24176 O 2410.19 1.44963 -1.6067 0
M  V30 24177 C 2410.78 -1.59133 -2.99102 0
M  V30 24178 C 2409.34 -1.40295 -3.49277 0
M  V30 24179 C 2408.49 -1.63358 -2.24075 0
M  V30 24180 H 2411.44 -1.27117 -0.950101 0
M  V30 24181 H 2411.46 -1.03671 -3.66105 0
M  V30 24182 H 2410.97 -2.65946 -2.82656 0
M  V30 24183 H 2409.08 -0.356953 -3.70886 0
M  V30 24184 H 2409.19 -2.15245 -4.28026 0
M  V30 24185 H 2407.55 -1.05702 -2.31731 0
M  V30 24186 H 2408.34 -2.71447 -2.10171 0
M  V30 24187 N 2410.78 1.28995 -0.905426 0
M  V30 24188 C 2412.01 1.9917 -0.549084 0
M  V30 24189 C 2412.42 1.67907 0.872001 0
M  V30 24190 O 2411.76 0.923589 1.58794 0
M  V30 24191 C 2411.82 3.53232 -0.668368 0
M  V30 24192 C 2411.49 4.08065 -2.05747 0
M  V30 24193 C 2412.49 4.22529 -3.02928 0
M  V30 24194 C 2410.17 4.42958 -2.3684 0
M  V30 24195 C 2412.16 4.71128 -4.29322 0
M  V30 24196 C 2409.85 4.91252 -3.63476 0
M  V30 24197 C 2410.85 5.05292 -4.59531 0
M  V30 24198 O 2410.54 5.52536 -5.83917 0
M  V30 24199 H 2410.27 0.642947 -0.208796 0
M  V30 24200 H 2412.82 1.65361 -1.21839 0
M  V30 24201 H 2411.05 3.86657 0.0579868 0
M  V30 24202 H 2412.74 4.04634 -0.320344 0
M  V30 24203 H 2413.51 3.95854 -2.80223 0
M  V30 24204 H 2409.39 4.31285 -1.62832 0
M  V30 24205 H 2412.93 4.82002 -5.04302 0
M  V30 24206 H 2408.83 5.17365 -3.86009 0
M  V30 24207 H 2409.6 5.70839 -5.86588 0
M  V30 24208 N 2412.26 0.668514 1.42719 0
M  V30 24209 C 2413.68 0.337478 1.55991 0
M  V30 24210 C 2413.88 -1.15753 1.64935 0
M  V30 24211 O 2412.93 -1.9428 1.61281 0
M  V30 24212 C 2414.24 1.06227 2.81312 0
M  V30 24213 C 2415.79 1.04399 2.95076 0
M  V30 24214 C 2416.27 1.74999 4.23249 0
M  V30 24215 N 2417.76 1.71836 4.30147 0
M  V30 24216 C 2418.49 2.23324 5.28123 0
M  V30 24217 N 2417.99 2.83167 6.32288 0
M  V30 24218 N 2419.78 2.13735 5.19878 0
M  V30 24219 H 2411.93 1.63848 1.35157 0
M  V30 24220 H 2414.2 0.689923 0.650162 0
M  V30 24221 H 2413.9 2.11739 2.80819 0
M  V30 24222 H 2413.78 0.623505 3.72011 0
M  V30 24223 H 2416.16 -0.00277253 2.951 0
M  V30 24224 H 2416.24 1.52159 2.05624 0
M  V30 24225 H 2415.89 2.7964 4.23986 0
M  V30 24226 H 2415.82 1.24694 5.11624 0
M  V30 24227 H 2418.31 1.28182 3.55497 0
M  V30 24228 H 2418.62 3.20092 7.03393 0
M  V30 24229 H 2416.97 2.87234 6.32868 0
M  V30 24230 H 2420.16 1.66677 4.3742 0
M  V30 24231 H 2420.33 2.54169 5.96072 0
M  V30 24232 N 2413.74 -1.52135 0.411426 0
M  V30 24233 C 2414.98 -2.02137 -0.163852 0
M  V30 24234 C 2415.32 -1.29638 -1.44595 0
M  V30 24235 O 2414.59 -0.403387 -1.90271 0
M  V30 24236 C 2414.87 -3.57767 -0.409208 0
M  V30 24237 C 2414.73 -4.40913 0.889721 0
M  V30 24238 C 2416.05 -4.23697 -1.19035 0
M  V30 24239 H 2413.17 -0.734708 -0.0580766 0
M  V30 24240 H 2415.81 -1.82006 0.545342 0
M  V30 24241 H 2413.96 -3.75052 -1.01333 0
M  V30 24242 H 2415.63 -4.35334 1.52583 0
M  V30 24243 H 2413.87 -4.07034 1.50018 0
M  V30 24244 H 2414.54 -5.47889 0.672411 0
M  V30 24245 H 2417.02 -4.10525 -0.67887 0
M  V30 24246 H 2415.9 -5.32524 -1.33077 0
M  V30 24247 H 2416.16 -3.82807 -2.21159 0
M  V30 24248 N 2415.22 -0.14192 -1.5696 0
M  V30 24249 C 2416.63 0.214532 -1.58152 0
M  V30 24250 C 2416.83 1.65047 -1.15593 0
M  V30 24251 O 2415.89 2.37624 -0.853874 0
M  V30 24252 C 2417.2 -0.0396105 -3.00674 0
M  V30 24253 C 2418.75 0.0244978 -3.1299 0
M  V30 24254 C 2419.22 -0.202247 -4.57553 0
M  V30 24255 N 2420.71 -0.149 -4.6296 0
M  V30 24256 C 2421.45 -0.299025 -5.7262 0
M  V30 24257 N 2420.95 -0.506491 -6.90946 0
M  V30 24258 N 2422.74 -0.236985 -5.616 0
M  V30 24259 H 2414.89 -1.07956 -1.82919 0
M  V30 24260 H 2417.15 -0.426945 -0.846417 0
M  V30 24261 H 2416.86 -1.0332 -3.36181 0
M  V30 24262 H 2416.73 0.682078 -3.70982 0
M  V30 24263 H 2419.12 1.00864 -2.77327 0
M  V30 24264 H 2419.2 -0.729439 -2.45179 0
M  V30 24265 H 2418.84 -1.18346 -4.9392 0
M  V30 24266 H 2418.77 0.571952 -5.23485 0
M  V30 24267 H 2421.27 0.00690373 -3.77899 0
M  V30 24268 H 2421.58 -0.611211 -7.70379 0
M  V30 24269 H 2419.92 -0.54275 -6.92877 0
M  V30 24270 H 2423.11 -0.0757031 -4.68039 0
M  V30 24271 H 2423.29 -0.357341 -6.47014 0
M  V30 24272 N 2416.69 1.57047 0.131868 0
M  V30 24273 C 2417.66 1.98473 1.14634 0
M  V30 24274 C 2418.66 0.873171 1.35027 0
M  V30 24275 O 2419.85 1.13949 1.31762 0
M  V30 24276 C 2416.98 2.31378 2.50354 0
M  V30 24277 H 2418.17 2.89292 0.790589 0
M  V30 24278 H 2415.72 1.51717 0.375734 0
M  V30 24279 H 2416.46 1.43398 2.90873 0
M  V30 24280 H 2416.24 3.12436 2.3691 0
M  V30 24281 H 2417.73 2.64213 3.23391 0
M  V30 24282 N 2418.17 -0.401677 1.52395 0
M  V30 24283 C 2419.42 -1.14963 1.67067 0
M  V30 24284 C 2419.75 -1.89971 0.403086 0
M  V30 24285 O 2419.03 -1.85055 -0.598741 0
M  V30 24286 C 2419.31 -2.1381 2.89754 0
M  V30 24287 C 2419.16 -1.4265 4.2658 0
M  V30 24288 C 2420.48 -3.14391 3.07971 0
M  V30 24289 H 2417.6 -0.416576 0.607975 0
M  V30 24290 H 2420.24 -0.434478 1.84966 0
M  V30 24291 H 2418.39 -2.74798 2.74624 0
M  V30 24292 H 2420.06 -0.847249 4.53453 0
M  V30 24293 H 2418.31 -0.728415 4.27641 0
M  V30 24294 H 2418.98 -2.14814 5.08487 0
M  V30 24295 H 2421.45 -2.63485 3.22048 0
M  V30 24296 H 2420.33 -3.80812 3.95315 0
M  V30 24297 H 2420.59 -3.82542 2.21618 0
M  V30 24298 N 2419.65 -1.43144 -0.659362 0
M  V30 24299 C 2421.06 -1.39539 -1.24039 0
M  V30 24300 C 2421.41 -0.0963708 -1.95963 0
M  V30 24301 O 2420.54 0.804403 -2.00894 0
M  V30 24302 C 2421.13 -2.52768 -2.25596 0
M  V30 24303 C 2419.69 -2.52448 -2.7919 0
M  V30 24304 C 2418.84 -2.30781 -1.53739 0
M  V30 24305 H 2421.79 -1.52134 -0.451765 0
M  V30 24306 H 2421.81 -2.23905 -3.07647 0
M  V30 24307 H 2421.32 -3.47299 -1.7322 0
M  V30 24308 H 2419.42 -1.61779 -3.35646 0
M  V30 24309 H 2419.54 -3.5001 -3.27154 0
M  V30 24310 H 2417.9 -1.79331 -1.80866 0
M  V30 24311 H 2418.68 -3.27388 -1.03306 0
M  V30 24312 N 2421.13 0.897149 -1.29572 0
M  V30 24313 C 2422.36 1.68127 -1.20585 0
M  V30 24314 C 2422.77 1.87355 0.233148 0
M  V30 24315 O 2422.13 1.41238 1.15577 0
M  V30 24316 C 2422.18 3.06437 -1.91777 0
M  V30 24317 O 2421.9 2.88086 -3.30058 0
M  V30 24318 C 2423.4 4.00851 -1.89298 0
M  V30 24319 H 2420.62 0.525029 -0.417835 0
M  V30 24320 H 2423.16 1.12174 -1.70989 0
M  V30 24321 H 2421.32 3.59159 -1.45202 0
M  V30 24322 H 2421.73 3.75742 -3.65948 0
M  V30 24323 H 2423.21 4.95306 -2.43671 0
M  V30 24324 H 2423.68 4.30515 -0.869089 0
M  V30 24325 H 2424.29 3.54061 -2.35628 0
M  V30 24326 N 2422.61 1.1209 1.10786 0
M  V30 24327 C 2423.85 0.872237 1.82309 0
M  V30 24328 C 2424.17 -0.603677 1.8542 0
M  V30 24329 O 2423.44 -1.43865 1.32965 0
M  V30 24330 H 2422.02 0.319697 0.675132 0
M  V30 24331 H 2424.69 1.41466 1.34065 0
M  V30 24332 H 2423.78 1.2505 2.85953 0
M  V30 24333 N 2424.08 -1.28513 0.912254 0
M  V30 24334 C 2425.36 -1.90026 0.46363 0
M  V30 24335 C 2425.74 -1.82702 -1.0575 0
M  V30 24336 O 2425.09 -1.26197 -1.9049 0
M  V30 24337 C 2425.3 -3.34596 0.992311 0
M  V30 24338 C 2426.65 -4.11577 1.04351 0
M  V30 24339 O 2427.67 -3.4355 0.94085 0
M  V30 24340 O 2426.53 -5.33172 1.1996 0
M  V30 24341 H 2423.62 -0.813888 0.14668 0
M  V30 24342 H 2426.17 -1.36891 1.00294 0
M  V30 24343 H 2424.94 -3.34142 2.03629 0
M  V30 24344 H 2424.56 -3.95227 0.433741 0
M  V30 24345 N 2425.56 -0.676073 -1.42362 0
M  V30 24346 C 2426.53 -0.00770969 -2.29199 0
M  V30 24347 C 2427.53 0.72772 -1.43391 0
M  V30 24348 O 2428.72 0.565531 -1.64765 0
M  V30 24349 C 2425.85 0.999727 -3.25911 0
M  V30 24350 H 2427.04 -0.772039 -2.89792 0
M  V30 24351 H 2424.59 -0.438495 -1.50023 0
M  V30 24352 H 2425.33 1.7925 -2.70259 0
M  V30 24353 H 2425.11 0.475761 -3.89203 0
M  V30 24354 H 2426.6 1.46577 -3.91031 0
M  V30 24355 N 2427.04 1.51915 -0.419488 0
M  V30 24356 C 2428.27 2.06823 0.154535 0
M  V30 24357 C 2428.69 1.28658 1.37218 0
M  V30 24358 O 2428.05 0.319614 1.78461 0
M  V30 24359 C 2428.1 3.57483 0.473109 0
M  V30 24360 O 2427.2 3.81655 1.56248 0
M  V30 24361 H 2426.54 0.663929 0.00968073 0
M  V30 24362 H 2429.07 1.95737 -0.595676 0
M  V30 24363 H 2429.08 4.01439 0.728754 0
M  V30 24364 H 2427.76 4.13805 -0.416946 0
M  V30 24365 H 2426.33 3.49573 1.29819 0
M  V30 24366 N 2428.52 0.150242 1.56882 0
M  V30 24367 C 2429.47 -0.788206 2.16924 0
M  V30 24368 C 2430.44 -1.24185 1.10305 0
M  V30 24369 O 2431.62 -1.3138 1.38361 0
M  V30 24370 C 2428.76 -2.02064 2.79758 0
M  V30 24371 C 2427.87 -1.6125 4.00777 0
M  V30 24372 C 2427.01 -2.79697 4.516 0
M  V30 24373 C 2426.05 -2.35272 5.65078 0
M  V30 24374 N 2425.18 -3.46739 6.10505 0
M  V30 24375 H 2430.02 -0.269392 2.9678 0
M  V30 24376 H 2427.56 -0.121254 1.46599 0
M  V30 24377 H 2429.52 -2.74318 3.14334 0
M  V30 24378 H 2428.15 -2.51351 2.02541 0
M  V30 24379 H 2427.2 -0.787488 3.7216 0
M  V30 24380 H 2428.51 -1.24624 4.82981 0
M  V30 24381 H 2427.67 -3.60136 4.88248 0
M  V30 24382 H 2426.41 -3.19569 3.68411 0
M  V30 24383 H 2425.41 -1.53273 5.28003 0
M  V30 24384 H 2426.64 -1.96482 6.50055 0
M  V30 24385 H 2424.58 -3.86226 5.3025 0
M  V30 24386 H 2424.5 -3.14139 6.87643 0
M  V30 24387 H 2425.77 -4.27526 6.51799 0
M  V30 24388 N 2430 -1.57115 -0.123538 0
M  V30 24389 C 2431.24 -1.86429 -0.838065 0
M  V30 24390 C 2431.6 -0.737643 -1.77265 0
M  V30 24391 O 2432.8 -0.912434 -2.5284 0
M  V30 24392 C 2431.07 -3.20965 -1.57214 0
M  V30 24393 S 2432.63 -3.719 -2.32886 0
M  V30 24394 H 2429.45 -0.653631 -0.279799 0
M  V30 24395 H 2432.05 -1.95261 -0.0966691 0
M  V30 24396 H 2430.76 -4.0091 -0.877451 0
M  V30 24397 H 2430.29 -3.15199 -2.35399 0
M  V30 24398 H 2432.3 -3.43038 -3.58524 0
M  V30 24399 N 2431.47 0.393589 -1.52606 0
M  V30 24400 C 2432.7 1.1604 -1.71296 0
M  V30 24401 C 2433.12 1.83855 -0.429292 0
M  V30 24402 O 2432.47 1.72498 0.595891 0
M  V30 24403 C 2432.53 2.21188 -2.85934 0
M  V30 24404 O 2432.25 1.56138 -4.09332 0
M  V30 24405 C 2433.75 3.10631 -3.16265 0
M  V30 24406 H 2430.97 0.348094 -0.573647 0
M  V30 24407 H 2433.51 0.461057 -1.99235 0
M  V30 24408 H 2431.67 2.86765 -2.6047 0
M  V30 24409 H 2432.08 2.2597 -4.73326 0
M  V30 24410 H 2433.55 3.80449 -3.99953 0
M  V30 24411 H 2434.03 3.7388 -2.30457 0
M  V30 24412 H 2434.64 2.50704 -3.43551 0
M  V30 24413 N 2432.95 1.43492 0.651762 0
M  V30 24414 C 2434.2 1.45401 1.41373 0
M  V30 24415 C 2434.53 0.0785164 1.94041 0
M  V30 24416 O 2433.81 -0.900848 1.7238 0
M  V30 24417 C 2434.09 2.49757 2.5941 0
M  V30 24418 C 2433.94 3.96586 2.12225 0
M  V30 24419 C 2435.26 2.50834 3.61622 0
M  V30 24420 H 2432.38 0.529431 0.51271 0
M  V30 24421 H 2435.02 1.75049 0.738765 0
M  V30 24422 H 2433.17 2.24606 3.16993 0
M  V30 24423 H 2434.84 4.328 1.59632 0
M  V30 24424 H 2433.09 4.09348 1.43584 0
M  V30 24425 H 2433.76 4.65219 2.97112 0
M  V30 24426 H 2436.23 2.73255 3.13801 0
M  V30 24427 H 2435.11 3.2579 4.4176 0
M  V30 24428 H 2435.37 1.54267 4.14312 0
M  V30 24429 N 2434.43 -0.890264 1.30046 0
M  V30 24430 C 2435.66 -1.67485 1.21475 0
M  V30 24431 C 2436.07 -1.87476 -0.223208 0
M  V30 24432 O 2435.43 -1.41849 -1.14826 0
M  V30 24433 C 2435.48 -3.05416 1.934 0
M  V30 24434 O 2435.2 -2.86331 3.31581 0
M  V30 24435 C 2436.7 -3.99841 1.91421 0
M  V30 24436 H 2433.92 -0.522805 0.420613 0
M  V30 24437 H 2436.47 -1.11265 1.71582 0
M  V30 24438 H 2434.62 -3.58384 1.47105 0
M  V30 24439 H 2435.04 -3.73796 3.67936 0
M  V30 24440 H 2436.51 -4.94007 2.46294 0
M  V30 24441 H 2436.99 -4.30048 0.891908 0
M  V30 24442 H 2437.59 -3.52807 2.37502 0
M  V30 24443 N 2435.91 -1.12676 -1.1019 0
M  V30 24444 C 2437.15 -0.884947 -1.82473 0
M  V30 24445 C 2437.49 0.587698 -1.85094 0
M  V30 24446 O 2436.76 1.43455 -1.31343 0
M  V30 24447 C 2437.05 -1.46359 -3.29015 0
M  V30 24448 C 2436.9 -3.00479 -3.34713 0
M  V30 24449 C 2438.22 -1.12526 -4.25471 0
M  V30 24450 H 2435.34 -0.322926 -0.662486 0
M  V30 24451 H 2437.98 -1.39378 -1.29127 0
M  V30 24452 H 2436.13 -1.03084 -3.74574 0
M  V30 24453 H 2437.8 -3.52452 -2.97616 0
M  V30 24454 H 2436.04 -3.35877 -2.74535 0
M  V30 24455 H 2436.71 -3.36061 -4.37912 0
M  V30 24456 H 2439.19 -1.49907 -3.88159 0
M  V30 24457 H 2438.07 -1.55672 -5.26362 0
M  V30 24458 H 2438.33 -0.0378184 -4.42084 0
M  V30 24459 N 2437.39 1.28028 -0.919057 0
M  V30 24460 C 2438.61 1.99402 -0.570392 0
M  V30 24461 C 2439.04 1.68179 0.842456 0
M  V30 24462 O 2438.39 0.917169 1.5639 0
M  V30 24463 C 2438.44 3.51781 -0.792603 0
M  V30 24464 O 2437.55 4.12142 0.145915 0
M  V30 24465 H 2436.89 0.626296 -0.220566 0
M  V30 24466 H 2439.42 1.63051 -1.23595 0
M  V30 24467 H 2439.43 4.01867 -0.704779 0
M  V30 24468 H 2438.1 3.7384 -1.82253 0
M  V30 24469 H 2436.68 3.72899 0.00890974 0
M  V30 24470 N 2438.86 0.683613 1.42002 0
M  V30 24471 C 2440.11 0.206716 2.00638 0
M  V30 24472 C 2440.43 -1.19668 1.54722 0
M  V30 24473 O 2441.63 -1.77041 2.05836 0
M  V30 24474 C 2440.09 0.318695 3.58486 0
M  V30 24475 C 2439.7 1.7267 4.13387 0
M  V30 24476 C 2441.44 -0.0990395 4.24384 0
M  V30 24477 C 2439.35 1.79097 5.63629 0
M  V30 24478 H 2438.28 0.0735239 0.750407 0
M  V30 24479 H 2440.93 0.850077 1.62622 0
M  V30 24480 H 2439.31 -0.392712 3.94048 0
M  V30 24481 H 2440.48 2.4659 3.89269 0
M  V30 24482 H 2438.8 2.09305 3.59972 0
M  V30 24483 H 2441.4 -0.0712894 5.34652 0
M  V30 24484 H 2441.74 -1.13579 4.00507 0
M  V30 24485 H 2442.27 0.561668 3.93815 0
M  V30 24486 H 2439.01 2.80784 5.92318 0
M  V30 24487 H 2438.53 1.09545 5.89712 0
M  V30 24488 H 2440.21 1.54841 6.28198 0
M  V30 24489 N 2440.34 -1.5169 0.427538 0
M  V30 24490 C 2441.59 -2.01601 -0.141912 0
M  V30 24491 C 2441.91 -1.31417 -1.44065 0
M  V30 24492 O 2441.18 -0.445692 -1.90763 0
M  V30 24493 H 2439.76 -0.74494 -0.0554337 0
M  V30 24494 H 2442.42 -1.8644 0.568001 0
M  V30 24495 H 2441.52 -3.10405 -0.324858 0
M  V30 24496 N 2441.82 -0.15856 -1.568 0
M  V30 24497 C 2443.07 0.488678 -1.96103 0
M  V30 24498 C 2443.39 1.64635 -1.04501 0
M  V30 24499 O 2442.66 1.95598 -0.108817 0
M  V30 24500 H 2441.24 0.183522 -0.724105 0
M  V30 24501 H 2443.9 -0.236762 -1.93457 0
M  V30 24502 H 2443 0.857167 -3.00098 0
M  V30 24503 N 2443.3 1.57178 0.115204 0
M  V30 24504 C 2444.25 1.97046 1.14703 0
M  V30 24505 C 2445.23 0.845981 1.36865 0
M  V30 24506 O 2446.43 1.1097 1.37893 0
M  V30 24507 C 2443.55 2.38152 2.47262 0
M  V30 24508 C 2442.64 3.57241 2.28559 0
M  V30 24509 N 2443.03 4.7281 1.79677 0
M  V30 24510 C 2441.33 3.62947 2.59201 0
M  V30 24511 C 2442.03 5.54824 1.74772 0
M  V30 24512 N 2441.01 4.97421 2.19256 0
M  V30 24513 H 2444.81 2.83858 0.761704 0
M  V30 24514 H 2442.32 1.59158 0.3229 0
M  V30 24515 H 2444.32 2.64932 3.21895 0
M  V30 24516 H 2442.98 1.52707 2.8655 0
M  V30 24517 H 2443.99 4.95953 1.49168 0
M  V30 24518 H 2440.67 2.88118 3.02149 0
M  V30 24519 H 2442.06 6.57534 1.382 0
M  V30 24520 N 2444.78 -0.38549 1.52813 0
M  V30 24521 C 2446.03 -1.12794 1.67696 0
M  V30 24522 C 2446.35 -1.90398 0.421148 0
M  V30 24523 O 2445.62 -1.8759 -0.564518 0
M  V30 24524 H 2444.2 -0.419385 0.618163 0
M  V30 24525 H 2446.86 -0.436938 1.89939 0
M  V30 24526 H 2445.95 -1.82889 2.52899 0
M  V30 24527 N 2446.26 -1.43835 -0.644143 0
M  V30 24528 C 2447.19 -1.52512 -1.76812 0
M  V30 24529 C 2448.17 -0.379081 -1.65822 0
M  V30 24530 O 2449.35 -0.597498 -1.8478 0
M  V30 24531 C 2446.48 -1.45645 -3.15285 0
M  V30 24532 C 2445.44 -2.58592 -3.41049 0
M  V30 24533 C 2444.76 -2.36778 -4.79417 0
M  V30 24534 C 2446.06 -4.00803 -3.34895 0
M  V30 24535 H 2447.76 -2.46588 -1.69807 0
M  V30 24536 H 2445.3 -1.18681 -0.815521 0
M  V30 24537 H 2447.25 -1.50318 -3.93678 0
M  V30 24538 H 2445.98 -0.480781 -3.23042 0
M  V30 24539 H 2444.64 -2.53287 -2.65031 0
M  V30 24540 H 2444.29 -1.37433 -4.83861 0
M  V30 24541 H 2443.99 -3.12496 -4.97614 0
M  V30 24542 H 2445.51 -2.43248 -5.60056 0
M  V30 24543 H 2446.92 -4.07546 -4.03211 0
M  V30 24544 H 2445.32 -4.76619 -3.64628 0
M  V30 24545 H 2446.39 -4.25295 -2.32921 0
M  V30 24546 N 2447.73 0.883355 -1.30517 0
M  V30 24547 C 2448.98 1.63207 -1.19197 0
M  V30 24548 C 2449.3 1.9335 0.253171 0
M  V30 24549 O 2448.57 1.57107 1.17022 0
M  V30 24550 H 2447.15 0.605001 -0.438158 0
M  V30 24551 H 2449.81 1.05829 -1.63665 0
M  V30 24552 H 2448.91 2.5815 -1.754 0
M  V30 24553 N 2449.21 1.13259 1.09591 0
M  V30 24554 C 2450.17 0.811396 2.14357 0
M  V30 24555 C 2451.17 -0.178349 1.59808 0
M  V30 24556 O 2452.36 0.0485217 1.74132 0
M  V30 24557 C 2449.5 0.207336 3.40269 0
M  V30 24558 H 2450.69 1.73973 2.44281 0
M  V30 24559 H 2448.24 0.936995 1.251 0
M  V30 24560 H 2448.98 -0.730305 3.1597 0
M  V30 24561 H 2448.76 0.920059 3.81153 0
M  V30 24562 H 2450.25 -0.00059454 4.176 0
M  V30 24563 N 2450.69 -1.27539 0.925834 0
M  V30 24564 C 2451.94 -1.94066 0.564172 0
M  V30 24565 C 2452.26 -1.73136 -0.897157 0
M  V30 24566 O 2451.53 -1.07802 -1.63571 0
M  V30 24567 H 2450.11 -0.718132 0.205658 0
M  V30 24568 H 2452.77 -1.55285 1.17782 0
M  V30 24569 H 2451.87 -3.02481 0.768863 0
M  V30 24570 N 2452.17 -0.691135 -1.41637 0
M  V30 24571 C 2453.42 -0.217353 -2.00525 0
M  V30 24572 C 2453.73 1.18846 -1.55355 0
M  V30 24573 O 2454.94 1.75947 -2.06772 0
M  V30 24574 C 2453.39 -0.337702 -3.58312 0
M  V30 24575 C 2453 -1.7486 -4.12466 0
M  V30 24576 C 2454.74 0.076532 -4.24431 0
M  V30 24577 C 2452.65 -1.82084 -5.62672 0
M  V30 24578 H 2451.58 -0.0775025 -0.750006 0
M  V30 24579 H 2454.23 -0.858689 -1.62169 0
M  V30 24580 H 2452.61 0.371809 -3.94251 0
M  V30 24581 H 2453.79 -2.48651 -3.87955 0
M  V30 24582 H 2452.1 -2.11212 -3.58857 0
M  V30 24583 H 2454.7 0.0429344 -5.34683 0
M  V30 24584 H 2455.04 1.11453 -4.01103 0
M  V30 24585 H 2455.58 -0.582545 -3.93511 0
M  V30 24586 H 2452.31 -2.83921 -5.90821 0
M  V30 24587 H 2451.83 -1.12671 -5.89122 0
M  V30 24588 H 2453.51 -1.5817 -6.27368 0
M  V30 24589 N 2453.65 1.51461 -0.435577 0
M  V30 24590 C 2454.89 2.01674 0.131219 0
M  V30 24591 C 2455.21 1.32179 1.43366 0
M  V30 24592 O 2454.48 0.455802 1.90524 0
M  V30 24593 H 2453.06 0.745224 0.0514823 0
M  V30 24594 H 2455.73 1.86136 -0.57788 0
M  V30 24595 H 2454.82 3.10573 0.308392 0
M  V30 24596 N 2455.12 0.166873 1.56714 0
M  V30 24597 C 2456.54 -0.350614 1.83378 0
M  V30 24598 C 2456.89 -1.6337 1.08649 0
M  V30 24599 O 2456.01 -2.13743 0.338096 0
M  V30 24600 C 2456.61 -0.642905 3.32644 0
M  V30 24601 C 2455.17 -1.10485 3.5982 0
M  V30 24602 C 2454.31 -0.138363 2.76955 0
M  V30 24603 H 2457.26 0.39122 1.53802 0
M  V30 24604 H 2457.28 -1.49545 3.49881 0
M  V30 24605 H 2456.8 0.291123 3.87007 0
M  V30 24606 H 2454.9 -2.05413 3.10864 0
M  V30 24607 H 2455.01 -1.01708 4.6818 0
M  V30 24608 H 2453.37 -0.634868 2.46661 0
M  V30 24609 H 2454.16 0.789608 3.34096 0
M  V30 24610 N 2456.6 -1.57237 -0.106866 0
M  V30 24611 C 2457.83 -1.89681 -0.826356 0
M  V30 24612 C 2458.25 -0.759383 -1.72855 0
M  V30 24613 O 2457.6 0.269231 -1.80503 0
M  V30 24614 C 2457.65 -3.21667 -1.64961 0
M  V30 24615 O 2457.37 -4.31033 -0.783728 0
M  V30 24616 C 2458.88 -3.67896 -2.4732 0
M  V30 24617 H 2456.1 -0.627783 -0.236916 0
M  V30 24618 H 2458.64 -2.04312 -0.0876234 0
M  V30 24619 H 2456.79 -3.0867 -2.34098 0
M  V30 24620 H 2457.21 -5.06755 -1.35275 0
M  V30 24621 H 2458.68 -4.62976 -3.00595 0
M  V30 24622 H 2459.16 -2.95152 -3.25241 0
M  V30 24623 H 2459.77 -3.83723 -1.83404 0
M  V30 24624 N 2458.08 0.377381 -1.53015 0
M  V30 24625 C 2459.33 1.1185 -1.67847 0
M  V30 24626 C 2459.64 1.908 -0.430659 0
M  V30 24627 O 2460.85 2.67587 -0.459308 0
M  V30 24628 C 2459.3 2.0375 -2.96671 0
M  V30 24629 C 2458.91 1.30168 -4.28673 0
M  V30 24630 C 2460.66 2.77926 -3.2087 0
M  V30 24631 C 2458.56 2.20902 -5.48595 0
M  V30 24632 H 2457.49 0.421252 -0.62535 0
M  V30 24633 H 2460.14 0.380378 -1.79514 0
M  V30 24634 H 2458.53 2.81245 -2.78778 0
M  V30 24635 H 2459.7 0.578179 -4.57158 0
M  V30 24636 H 2458.02 0.679035 -4.10826 0
M  V30 24637 H 2460.61 3.46017 -4.07648 0
M  V30 24638 H 2460.96 3.42646 -2.3643 0
M  V30 24639 H 2461.49 2.07519 -3.39383 0
M  V30 24640 H 2458.23 1.60778 -6.35477 0
M  V30 24641 H 2457.75 2.91134 -5.24405 0
M  V30 24642 H 2459.43 2.80726 -5.82925 0
M  V30 24643 N 2459.56 1.44175 0.636506 0
M  V30 24644 C 2460.49 1.46609 1.76178 0
M  V30 24645 C 2461.5 0.360119 1.58767 0
M  V30 24646 O 2462.69 0.625548 1.6718 0
M  V30 24647 C 2459.79 1.2792 3.13831 0
M  V30 24648 C 2458.97 2.51664 3.57749 0
M  V30 24649 C 2458.02 2.27954 4.74261 0
M  V30 24650 O 2457.05 3.01409 4.82847 0
M  V30 24651 N 2458.25 1.30672 5.65602 0
M  V30 24652 H 2461.02 2.43615 1.74562 0
M  V30 24653 H 2458.58 1.39545 0.820899 0
M  V30 24654 H 2460.57 1.09914 3.89488 0
M  V30 24655 H 2459.14 0.392984 3.1012 0
M  V30 24656 H 2458.36 2.84983 2.72357 0
M  V30 24657 H 2459.65 3.33981 3.83842 0
M  V30 24658 H 2459.05 0.699943 5.61353 0
M  V30 24659 H 2457.6 1.18646 6.40911 0
M  V30 24660 N 2461.04 -0.876421 1.30983 0
M  V30 24661 C 2462.29 -1.6237 1.19661 0
M  V30 24662 C 2462.6 -1.94052 -0.245601 0
M  V30 24663 O 2463.8 -2.67215 -0.480443 0
M  V30 24664 C 2462.26 -2.92684 2.09438 0
M  V30 24665 C 2461.87 -2.6851 3.58617 0
M  V30 24666 C 2463.61 -3.70665 2.06899 0
M  V30 24667 C 2461.52 -3.94691 4.40423 0
M  V30 24668 H 2460.45 -0.609206 0.444279 0
M  V30 24669 H 2463.1 -0.969578 1.55793 0
M  V30 24670 H 2461.48 -3.59436 1.66198 0
M  V30 24671 H 2462.66 -2.10205 4.10061 0
M  V30 24672 H 2460.97 -2.03892 3.63066 0
M  V30 24673 H 2463.57 -4.64261 2.65266 0
M  V30 24674 H 2463.91 -4.02722 1.05455 0
M  V30 24675 H 2464.44 -3.10788 2.48306 0
M  V30 24676 H 2461.18 -3.67789 5.42597 0
M  V30 24677 H 2460.7 -4.5247 3.93739 0
M  V30 24678 H 2462.38 -4.62636 4.52302 0
M  V30 24679 N 2462.51 -1.13839 -1.08989 0
M  V30 24680 C 2463.76 -0.90113 -1.80898 0
M  V30 24681 C 2464.08 0.574101 -1.86357 0
M  V30 24682 O 2463.35 1.41731 -1.35237 0
M  V30 24683 H 2461.93 -0.330398 -0.66996 0
M  V30 24684 H 2464.6 -1.43581 -1.31798 0
M  V30 24685 H 2463.69 -1.29583 -2.83927 0
M  V30 24686 N 2463.99 1.27046 -0.932584 0
M  V30 24687 C 2464.9 2.30413 -0.441259 0
M  V30 24688 C 2465.92 1.67234 0.480496 0
M  V30 24689 O 2467.09 1.98118 0.362116 0
M  V30 24690 C 2464.16 3.45455 0.29359 0
M  V30 24691 C 2463.22 4.24139 -0.663675 0
M  V30 24692 C 2462.45 5.33688 0.0361994 0
M  V30 24693 O 2462.68 5.56429 1.2547 0
M  V30 24694 O 2461.61 5.98508 -0.63812 0
M  V30 24695 H 2465.44 2.74486 -1.29967 0
M  V30 24696 H 2463.02 1.32086 -0.698124 0
M  V30 24697 H 2464.9 4.15412 0.707878 0
M  V30 24698 H 2463.58 3.03428 1.12753 0
M  V30 24699 H 2462.49 3.56697 -1.12774 0
M  V30 24700 H 2463.82 4.69893 -1.46497 0
M  V30 24701 N 2465.47 0.698636 1.41269 0
M  V30 24702 C 2466.38 0.0358304 2.34573 0
M  V30 24703 C 2467.4 -0.762673 1.56395 0
M  V30 24704 O 2468.57 -0.69953 1.88861 0
M  V30 24705 C 2465.64 -0.887031 3.35161 0
M  V30 24706 C 2464.7 -0.0803879 4.29225 0
M  V30 24707 C 2463.93 -0.959295 5.25008 0
M  V30 24708 O 2464.15 -2.19877 5.26318 0
M  V30 24709 O 2463.09 -0.407334 6.0052 0
M  V30 24710 H 2466.91 0.805009 2.92837 0
M  V30 24711 H 2464.5 0.458991 1.42175 0
M  V30 24712 H 2466.38 -1.41614 3.96892 0
M  V30 24713 H 2465.06 -1.63565 2.79335 0
M  V30 24714 H 2463.96 0.493394 3.70832 0
M  V30 24715 H 2465.3 0.629632 4.88156 0
M  V30 24716 N 2466.95 -1.51228 0.443603 0
M  V30 24717 C 2468.18 -2.06556 -0.119253 0
M  V30 24718 C 2468.59 -1.3104 -1.35919 0
M  V30 24719 O 2467.95 -0.371736 -1.78674 0
M  V30 24720 C 2468 -3.58871 -0.435165 0
M  V30 24721 O 2467.72 -4.31535 0.755562 0
M  V30 24722 C 2469.22 -4.30734 -1.04801 0
M  V30 24723 H 2466.44 -0.67098 -0.0051466 0
M  V30 24724 H 2468.99 -1.94732 0.624487 0
M  V30 24725 H 2467.14 -3.7059 -1.12881 0
M  V30 24726 H 2467.55 -5.22266 0.483582 0
M  V30 24727 H 2469.03 -5.38372 -1.21901 0
M  V30 24728 H 2469.51 -3.89432 -2.03074 0
M  V30 24729 H 2470.11 -4.23475 -0.393562 0
M  V30 24730 N 2468.43 -0.175182 -1.56623 0
M  V30 24731 C 2469.67 0.469471 -1.97291 0
M  V30 24732 C 2470.01 1.62634 -1.06131 0
M  V30 24733 O 2469.28 1.94193 -0.109218 0
M  V30 24734 C 2469.56 0.948742 -3.47377 0
M  V30 24735 C 2469.42 -0.20857 -4.49316 0
M  V30 24736 C 2470.74 1.82109 -4.00655 0
M  V30 24737 H 2467.85 0.169177 -0.71732 0
M  V30 24738 H 2470.5 -0.262095 -1.88184 0
M  V30 24739 H 2468.65 1.57213 -3.55269 0
M  V30 24740 H 2470.32 -0.845762 -4.5348 0
M  V30 24741 H 2468.56 -0.863469 -4.2512 0
M  V30 24742 H 2469.23 0.168962 -5.51741 0
M  V30 24743 H 2471.71 1.29553 -3.95418 0
M  V30 24744 H 2470.58 2.12545 -5.06079 0
M  V30 24745 H 2470.85 2.76824 -3.44704 0
M  V30 24746 N 2469.91 1.57292 0.0985263 0
M  V30 24747 C 2471.15 1.85099 0.801326 0
M  V30 24748 C 2471.47 0.763934 1.80065 0
M  V30 24749 O 2472.67 0.929026 2.5511 0
M  V30 24750 C 2471.13 3.28244 1.47593 0
M  V30 24751 C 2470.74 4.45012 0.516546 0
M  V30 24752 C 2472.48 3.6528 2.16266 0
M  V30 24753 C 2470.39 5.7919 1.19554 0
M  V30 24754 H 2469.32 0.690436 0.30301 0
M  V30 24755 H 2471.97 1.8342 0.0542301 0
M  V30 24756 H 2470.35 3.24454 2.27036 0
M  V30 24757 H 2471.53 4.60142 -0.246146 0
M  V30 24758 H 2469.84 4.1635 -0.0643001 0
M  V30 24759 H 2472.44 4.62807 2.67794 0
M  V30 24760 H 2472.78 2.93732 2.95003 0
M  V30 24761 H 2473.31 3.70943 1.43686 0
M  V30 24762 H 2470.05 6.5396 0.449042 0
M  V30 24763 H 2469.57 5.67909 1.92974 0
M  V30 24764 H 2471.25 6.23636 1.72299 0
M  V30 24765 N 2471.38 -0.369261 1.53213 0
M  V30 24766 C 2472.61 -1.133 1.73121 0
M  V30 24767 C 2473.03 -1.83148 0.458487 0
M  V30 24768 O 2472.38 -1.73424 -0.568372 0
M  V30 24769 C 2472.43 -2.16611 2.89417 0
M  V30 24770 O 2472.16 -1.49607 4.11764 0
M  V30 24771 C 2473.66 -3.0556 3.21167 0
M  V30 24772 H 2470.88 -0.338924 0.579113 0
M  V30 24773 H 2473.42 -0.429302 1.99943 0
M  V30 24774 H 2471.58 -2.82585 2.64999 0
M  V30 24775 H 2471.99 -2.18411 4.76862 0
M  V30 24776 H 2473.46 -3.74038 4.05955 0
M  V30 24777 H 2473.94 -3.70166 2.36376 0
M  V30 24778 H 2474.55 -2.45207 3.47496 0
M  V30 24779 N 2472.86 -1.4451 -0.628851 0
M  V30 24780 C 2474.11 -1.47632 -1.39042 0
M  V30 24781 C 2474.44 -0.109377 -1.93892 0
M  V30 24782 O 2473.72 0.87331 -1.73792 0
M  V30 24783 C 2474 -2.53852 -2.55404 0
M  V30 24784 C 2473.85 -3.99912 -2.05889 0
M  V30 24785 C 2475.17 -2.56555 -3.57586 0
M  V30 24786 H 2472.29 -0.537521 -0.504222 0
M  V30 24787 H 2474.93 -1.76202 -0.710823 0
M  V30 24788 H 2473.08 -2.2962 -3.1338 0
M  V30 24789 H 2474.75 -4.35284 -1.52726 0
M  V30 24790 H 2473 -4.11581 -1.37054 0
M  V30 24791 H 2473.67 -4.69887 -2.89673 0
M  V30 24792 H 2476.14 -2.78213 -3.09414 0
M  V30 24793 H 2475.02 -3.32777 -4.36521 0
M  V30 24794 H 2475.28 -1.60839 -4.11805 0
M  V30 24795 N 2474.34 0.869463 -1.31446 0
M  V30 24796 C 2475.62 1.60501 -1.11797 0
M  V30 24797 C 2476 2.0855 0.327131 0
M  V30 24798 O 2475.34 1.86423 1.32132 0
M  V30 24799 C 2475.55 2.76261 -2.13262 0
M  V30 24800 C 2476.9 3.46211 -2.45811 0
M  V30 24801 O 2477.93 2.86469 -2.11693 0
M  V30 24802 O 2476.79 4.53985 -3.04236 0
M  V30 24803 H 2473.88 0.706156 -0.430433 0
M  V30 24804 H 2476.43 0.914882 -1.42927 0
M  V30 24805 H 2475.2 2.38174 -3.10465 0
M  V30 24806 H 2474.82 3.52961 -1.83042 0
M  V30 24807 N 2475.82 1.14415 1.08383 0
M  V30 24808 C 2477.05 0.936033 1.84516 0
M  V30 24809 C 2477.46 -0.515471 1.81627 0
M  V30 24810 O 2476.82 -1.35719 1.22011 0
M  V30 24811 C 2476.87 1.42924 3.32047 0
M  V30 24812 O 2476.59 2.82387 3.34946 0
M  V30 24813 C 2478.09 1.2611 4.24984 0
M  V30 24814 H 2475.31 0.333095 0.582485 0
M  V30 24815 H 2477.85 1.51933 1.36882 0
M  V30 24816 H 2476.01 0.888707 3.77069 0
M  V30 24817 H 2476.42 3.04524 4.27042 0
M  V30 24818 H 2477.9 1.6548 5.26612 0
M  V30 24819 H 2478.37 0.203997 4.38726 0
M  V30 24820 H 2478.98 1.79019 3.85788 0
M  V30 24821 N 2477.3 -1.26549 0.939309 0
M  V30 24822 C 2478.24 -2.26447 0.446127 0
M  V30 24823 C 2479.21 -1.58609 -0.493206 0
M  V30 24824 O 2480.4 -1.86347 -0.409824 0
M  V30 24825 C 2477.54 -3.43927 -0.284314 0
M  V30 24826 C 2476.65 -4.26446 0.690474 0
M  V30 24827 C 2475.79 -5.31165 -0.0609778 0
M  V30 24828 C 2474.82 -6.05361 0.905755 0
M  V30 24829 N 2473.96 -7.01853 0.186179 0
M  V30 24830 H 2478.8 -2.68006 1.30296 0
M  V30 24831 H 2476.34 -1.31775 0.653734 0
M  V30 24832 H 2478.3 -4.10866 -0.724241 0
M  V30 24833 H 2476.93 -3.03287 -1.1053 0
M  V30 24834 H 2475.98 -3.59314 1.24892 0
M  V30 24835 H 2477.29 -4.77898 1.42882 0
M  V30 24836 H 2476.44 -6.04107 -0.560274 0
M  V30 24837 H 2475.18 -4.80547 -0.832213 0
M  V30 24838 H 2474.19 -5.31248 1.41619 0
M  V30 24839 H 2475.41 -6.58069 1.67696 0
M  V30 24840 H 2473.36 -6.53549 -0.566599 0
M  V30 24841 H 2473.28 -7.51048 0.863884 0
M  V30 24842 H 2474.54 -7.78953 -0.292084 0
M  V30 24843 N 2478.77 -0.706118 -1.40896 0
M  V30 24844 C 2479.74 -0.0563244 -2.29131 0
M  V30 24845 C 2480.74 0.697141 -1.44902 0
M  V30 24846 O 2481.93 0.530455 -1.65927 0
M  V30 24847 C 2479.06 0.930372 -3.27959 0
M  V30 24848 H 2480.25 -0.833334 -2.88089 0
M  V30 24849 H 2477.8 -0.470218 -1.49059 0
M  V30 24850 H 2478.54 1.73477 -2.74 0
M  V30 24851 H 2478.32 0.393098 -3.90125 0
M  V30 24852 H 2479.81 1.38249 -3.94052 0
M  V30 24853 N 2480.25 1.50991 -0.451617 0
M  V30 24854 C 2481.21 2.26648 0.341077 0
M  V30 24855 C 2482.21 1.3065 0.937399 0
M  V30 24856 O 2483.4 1.54243 0.809617 0
M  V30 24857 C 2480.54 3.06908 1.48392 0
M  V30 24858 H 2481.73 2.98165 -0.322169 0
M  V30 24859 H 2479.28 1.54948 -0.205149 0
M  V30 24860 H 2480.02 2.39842 2.1828 0
M  V30 24861 H 2479.8 3.77434 1.06235 0
M  V30 24862 H 2481.29 3.64179 2.04361 0
M  V30 24863 N 2481.73 0.183486 1.56528 0
M  V30 24864 C 2482.98 -0.457417 1.96856 0
M  V30 24865 C 2483.3 -1.62951 1.07107 0
M  V30 24866 O 2482.57 -1.954 0.139921 0
M  V30 24867 H 2481.15 -0.171979 0.726933 0
M  V30 24868 H 2483.81 0.26751 1.93055 0
M  V30 24869 H 2482.91 -0.809315 3.01424 0
M  V30 24870 N 2483.21 -1.57342 -0.0901833 0
M  V30 24871 C 2484.15 -2.02407 -1.10905 0
M  V30 24872 C 2485.12 -0.901276 -1.39521 0
M  V30 24873 O 2486.31 -1.16763 -1.50901 0
M  V30 24874 C 2483.45 -2.4576 -2.42273 0
M  V30 24875 C 2482.56 -3.7158 -2.20346 0
M  V30 24876 C 2481.7 -4.03791 -3.45147 0
M  V30 24877 C 2480.74 -5.22707 -3.18503 0
M  V30 24878 N 2479.87 -5.50646 -4.35584 0
M  V30 24879 H 2484.71 -2.89227 -0.71777 0
M  V30 24880 H 2482.25 -1.43048 -0.342876 0
M  V30 24881 H 2484.21 -2.68941 -3.18946 0
M  V30 24882 H 2482.84 -1.61943 -2.79239 0
M  V30 24883 H 2481.89 -3.55847 -1.34452 0
M  V30 24884 H 2483.2 -4.58398 -1.96653 0
M  V30 24885 H 2482.36 -4.27775 -4.30225 0
M  V30 24886 H 2481.1 -3.15504 -3.71898 0
M  V30 24887 H 2480.1 -4.98538 -2.31818 0
M  V30 24888 H 2481.33 -6.12596 -2.93092 0
M  V30 24889 H 2479.27 -4.65318 -4.62401 0
M  V30 24890 H 2479.19 -6.31846 -4.15099 0
M  V30 24891 H 2480.46 -5.79169 -5.21712 0
M  V30 24892 N 2484.69 0.36113 -1.53407 0
M  V30 24893 C 2485.93 1.10112 -1.69469 0
M  V30 24894 C 2486.26 1.89704 -0.451385 0
M  V30 24895 O 2485.53 1.88464 0.534602 0
M  V30 24896 H 2484.11 0.409498 -0.624757 0
M  V30 24897 H 2486.77 0.406666 -1.9061 0
M  V30 24898 H 2485.86 1.78843 -2.55777 0
M  V30 24899 N 2486.16 1.44842 0.621179 0
M  V30 24900 C 2487.11 1.52473 1.73265 0
M  V30 24901 C 2488.08 0.37164 1.61889 0
M  V30 24902 O 2489.27 0.583242 1.81667 0
M  V30 24903 C 2486.41 1.48443 3.11542 0
M  V30 24904 C 2485.52 2.74202 3.33822 0
M  V30 24905 C 2484.65 2.61937 4.62128 0
M  V30 24906 C 2483.69 3.82812 4.7762 0
M  V30 24907 N 2482.83 3.69164 5.97212 0
M  V30 24908 H 2487.67 2.47431 1.66078 0
M  V30 24909 H 2485.21 1.2279 0.810005 0
M  V30 24910 H 2487.17 1.44097 3.91525 0
M  V30 24911 H 2485.8 0.570458 3.17719 0
M  V30 24912 H 2484.85 2.88694 2.4771 0
M  V30 24913 H 2486.16 3.63896 3.41146 0
M  V30 24914 H 2485.31 2.5548 5.50286 0
M  V30 24915 H 2484.05 1.69819 4.57179 0
M  V30 24916 H 2483.06 3.89644 3.87889 0
M  V30 24917 H 2484.28 4.75979 4.84376 0
M  V30 24918 H 2482.23 2.79805 5.93334 0
M  V30 24919 H 2482.15 4.52483 6.05636 0
M  V30 24920 H 2483.41 3.66615 6.87905 0
M  V30 24921 N 2487.64 -0.862479 1.31905 0
M  V30 24922 C 2488.89 -1.61849 1.222 0
M  V30 24923 C 2489.22 -1.92977 -0.217607 0
M  V30 24924 O 2488.5 -1.56668 -1.15262 0
M  V30 24925 C 2488.78 -2.94388 2.07384 0
M  V30 24926 C 2488.63 -2.7009 3.59682 0
M  V30 24927 C 2489.95 -3.95574 1.92898 0
M  V30 24928 H 2487.07 -0.587288 0.445266 0
M  V30 24929 H 2489.71 -0.996481 1.61772 0
M  V30 24930 H 2487.86 -3.47474 1.73765 0
M  V30 24931 H 2489.53 -2.23618 4.03476 0
M  V30 24932 H 2487.78 -2.0419 3.82739 0
M  V30 24933 H 2488.45 -3.6443 4.14602 0
M  V30 24934 H 2490.92 -3.5172 2.22333 0
M  V30 24935 H 2489.8 -4.86183 2.5479 0
M  V30 24936 H 2490.06 -4.32958 0.894391 0
M  V30 24937 N 2489.12 -1.14988 -1.07775 0
M  V30 24938 C 2490.35 -0.945805 -1.84017 0
M  V30 24939 C 2490.76 0.505831 -1.81898 0
M  V30 24940 O 2490.12 1.3507 -1.22729 0
M  V30 24941 C 2490.17 -1.44683 -3.31284 0
M  V30 24942 O 2489.89 -2.8416 -3.33444 0
M  V30 24943 C 2491.39 -1.28362 -4.24309 0
M  V30 24944 H 2488.61 -0.336179 -0.580711 0
M  V30 24945 H 2491.16 -1.52657 -1.36074 0
M  V30 24946 H 2489.31 -0.908691 -3.76592 0
M  V30 24947 H 2489.73 -3.06785 -4.25422 0
M  V30 24948 H 2491.2 -1.6827 -5.25727 0
M  V30 24949 H 2491.68 -0.227261 -4.38612 0
M  V30 24950 H 2492.28 -1.81063 -3.84833 0
M  V30 24951 N 2490.6 1.26049 -0.946007 0
M  V30 24952 C 2491.84 1.95281 -0.603699 0
M  V30 24953 C 2492.2 1.72536 0.842347 0
M  V30 24954 O 2493.4 2.35613 1.29383 0
M  V30 24955 C 2491.67 3.44753 -0.942353 0
M  V30 24956 S 2493.23 4.32996 -0.711318 0
M  V30 24957 H 2490.05 0.675392 -0.222188 0
M  V30 24958 H 2492.65 1.52894 -1.21835 0
M  V30 24959 H 2491.36 3.58809 -1.99209 0
M  V30 24960 H 2490.89 3.92116 -0.317615 0
M  V30 24961 H 2492.9 4.94401 0.422134 0
M  V30 24962 N 2492.08 0.71358 1.4052 0
M  V30 24963 C 2493.3 0.261811 2.05237 0
M  V30 24964 C 2493.72 -1.09564 1.53757 0
M  V30 24965 O 2493.08 -1.68818 0.693298 0
M  V30 24966 C 2493.13 0.230769 3.60763 0
M  V30 24967 O 2492.85 1.53462 4.10343 0
M  V30 24968 C 2494.35 -0.239796 4.42651 0
M  V30 24969 H 2491.57 0.118069 0.660531 0
M  V30 24970 H 2494.11 0.971224 1.79965 0
M  V30 24971 H 2492.27 -0.429593 3.85011 0
M  V30 24972 H 2492.68 1.43375 5.04523 0
M  V30 24973 H 2494.16 -0.210371 5.51599 0
M  V30 24974 H 2494.63 -1.28163 4.20084 0
M  V30 24975 H 2495.24 0.390216 4.23506 0
M  V30 24976 N 2493.55 -1.50749 0.459618 0
M  V30 24977 C 2494.8 -2.02556 -0.099461 0
M  V30 24978 C 2495.13 -1.34173 -1.40397 0
M  V30 24979 O 2494.41 -0.463716 -1.88891 0
M  V30 24980 C 2494.69 -3.58888 -0.295179 0
M  V30 24981 C 2494.54 -4.37859 1.02954 0
M  V30 24982 C 2495.86 -4.27269 -1.05495 0
M  V30 24983 H 2492.98 -0.736184 -0.0346731 0
M  V30 24984 H 2495.62 -1.80178 0.60297 0
M  V30 24985 H 2493.77 -3.78086 -0.893497 0
M  V30 24986 H 2495.45 -4.3026 1.66356 0
M  V30 24987 H 2493.69 -4.02056 1.62892 0
M  V30 24988 H 2494.36 -5.45473 0.846377 0
M  V30 24989 H 2496.84 -4.12477 -0.547921 0
M  V30 24990 H 2495.71 -5.36488 -1.16068 0
M  V30 24991 H 2495.97 -3.89649 -2.08868 0
M  V30 24992 N 2495.03 -0.191784 -1.56429 0
M  V30 24993 C 2496.27 0.450064 -1.99384 0
M  V30 24994 C 2496.64 1.59027 -1.07584 0
M  V30 24995 O 2497.84 2.29609 -1.39762 0
M  V30 24996 C 2496.11 0.90155 -3.45842 0
M  V30 24997 S 2497.67 1.5417 -4.10825 0
M  V30 24998 H 2494.49 0.144045 -0.696256 0
M  V30 24999 H 2497.09 -0.29407 -1.93276 0
M  V30 25000 H 2495.79 0.0615875 -4.10354 0
M  V30 25001 H 2495.32 1.67923 -3.5576 0
M  V30 25002 H 2497.34 2.83038 -4.07558 0
M  V30 25003 N 2496.51 1.57387 0.0818378 0
M  V30 25004 C 2497.74 1.90972 0.796074 0
M  V30 25005 C 2498.15 0.786787 1.71625 0
M  V30 25006 O 2497.51 -0.240481 1.80909 0
M  V30 25007 C 2497.56 3.24251 1.59823 0
M  V30 25008 O 2497.28 4.32225 0.715056 0
M  V30 25009 C 2498.78 3.71785 2.41436 0
M  V30 25010 H 2496 0.631473 0.226899 0
M  V30 25011 H 2498.55 2.04426 0.055108 0
M  V30 25012 H 2496.7 3.12355 2.29157 0
M  V30 25013 H 2497.12 5.08843 1.27196 0
M  V30 25014 H 2498.59 4.67699 2.93192 0
M  V30 25015 H 2499.07 3.00289 3.20505 0
M  V30 25016 H 2499.67 3.86592 1.77276 0
M  V30 25017 N 2497.99 -0.35299 1.53596 0
M  V30 25018 C 2499.4 -0.929124 1.61939 0
M  V30 25019 C 2499.75 -1.8986 0.494719 0
M  V30 25020 O 2498.88 -2.13091 -0.376979 0
M  V30 25021 C 2499.47 -1.69193 2.93529 0
M  V30 25022 C 2498.03 -2.21722 3.04165 0
M  V30 25023 C 2497.18 -1.03344 2.57323 0
M  V30 25024 H 2500.13 -0.131403 1.58155 0
M  V30 25025 H 2500.15 -2.55411 2.82038 0
M  V30 25026 H 2499.66 -0.986078 3.75364 0
M  V30 25027 H 2497.76 -2.95512 2.26944 0
M  V30 25028 H 2497.87 -2.48741 4.09469 0
M  V30 25029 H 2496.24 -1.4041 2.12502 0
M  V30 25030 H 2497.02 -0.342368 3.41589 0
M  V30 25031 N 2499.47 -1.45169 -0.613489 0
M  V30 25032 C 2500.74 -1.39352 -1.37261 0
M  V30 25033 C 2501.12 -0.0611219 -2.11011 0
M  V30 25034 O 2500.47 0.956789 -2.07504 0
M  V30 25035 C 2500.68 -2.60336 -2.32435 0
M  V30 25036 C 2502.03 -3.05168 -2.95225 0
M  V30 25037 O 2503.05 -2.60667 -2.42758 0
M  V30 25038 O 2501.91 -3.82378 -3.90447 0
M  V30 25039 H 2499.01 -0.552707 -0.615178 0
M  V30 25040 H 2501.55 -1.57288 -0.637069 0
M  V30 25041 H 2500.33 -3.48899 -1.77158 0
M  V30 25042 H 2499.95 -2.44703 -3.13378 0
M  V30 25043 N 2500.95 0.855472 -1.32361 0
M  V30 25044 C 2502.19 1.60642 -1.22632 0
M  V30 25045 C 2502.51 1.93843 0.212102 0
M  V30 25046 O 2501.78 1.59554 1.13663 0
M  V30 25047 H 2500.36 0.595571 -0.450893 0
M  V30 25048 H 2503.03 1.02334 -1.65873 0
M  V30 25049 H 2502.12 2.54371 -1.80836 0
M  V30 25050 N 2502.42 1.15558 1.07164 0
M  V30 25051 C 2503.65 0.95602 1.84052 0
M  V30 25052 C 2504.07 -0.490707 1.81587 0
M  V30 25053 O 2503.43 -1.34995 1.21021 0
M  V30 25054 C 2503.48 1.4772 3.28955 0
M  V30 25055 O 2502.58 0.677664 4.06794 0
M  V30 25056 H 2501.92 0.340857 0.569836 0
M  V30 25057 H 2504.45 1.53586 1.35175 0
M  V30 25058 H 2504.46 1.49086 3.79786 0
M  V30 25059 H 2503.14 2.53043 3.30064 0
M  V30 25060 H 2501.72 0.733786 3.65609 0
M  V30 25061 N 2503.9 -1.25546 0.952678 0
M  V30 25062 C 2504.81 -2.29682 0.47786 0
M  V30 25063 C 2505.83 -1.67977 -0.453829 0
M  V30 25064 O 2507 -1.98669 -0.330552 0
M  V30 25065 C 2504.07 -3.45878 -0.238594 0
M  V30 25066 C 2503.13 -4.23029 0.731068 0
M  V30 25067 C 2502.36 -5.33678 0.0487103 0
M  V30 25068 O 2502.59 -5.58355 -1.16602 0
M  V30 25069 O 2501.52 -5.97417 0.733257 0
M  V30 25070 H 2505.35 -2.72383 1.34317 0
M  V30 25071 H 2502.93 -1.30958 0.719049 0
M  V30 25072 H 2504.81 -4.16485 -0.6417 0
M  V30 25073 H 2503.49 -3.05183 -1.07911 0
M  V30 25074 H 2502.39 -3.54858 1.18434 0
M  V30 25075 H 2503.73 -4.67503 1.53954 0
M  V30 25076 N 2505.38 -0.721022 -1.40139 0
M  V30 25077 C 2506.63 -0.263267 -2.01084 0
M  V30 25078 C 2506.96 1.14226 -1.57054 0
M  V30 25079 O 2506.23 1.77597 -0.793058 0
M  V30 25080 C 2506.52 -0.349407 -3.58401 0
M  V30 25081 C 2506.37 -1.7937 -4.12488 0
M  V30 25082 C 2507.69 0.276274 -4.39232 0
M  V30 25083 H 2504.81 -0.0971357 -0.730571 0
M  V30 25084 H 2507.45 -0.914547 -1.66541 0
M  V30 25085 H 2505.6 0.205097 -3.87958 0
M  V30 25086 H 2507.27 -2.40401 -3.93707 0
M  V30 25087 H 2505.51 -2.31964 -3.66572 0
M  V30 25088 H 2506.19 -1.80533 -5.21643 0
M  V30 25089 H 2508.66 -0.196257 -4.15637 0
M  V30 25090 H 2507.54 0.185584 -5.48586 0
M  V30 25091 H 2507.8 1.36052 -4.20645 0
M  V30 25092 N 2506.86 1.50503 -0.467606 0
M  V30 25093 C 2508.13 1.95024 0.149996 0
M  V30 25094 C 2508.51 1.40782 1.57301 0
M  V30 25095 O 2507.86 0.607358 2.2028 0
M  V30 25096 C 2508.07 3.48866 0.0968711 0
M  V30 25097 C 2509.42 4.23626 0.28749 0
M  V30 25098 O 2510.44 3.55777 0.173615 0
M  V30 25099 O 2509.3 5.44048 0.51709 0
M  V30 25100 H 2506.4 0.819165 0.113568 0
M  V30 25101 H 2508.94 1.61285 -0.527758 0
M  V30 25102 H 2507.72 3.80885 -0.896798 0
M  V30 25103 H 2507.34 3.89132 0.816234 0
M  V30 25104 N 2508.34 0.200077 1.56325 0
M  V30 25105 C 2509.58 -0.438024 1.98013 0
M  V30 25106 C 2509.91 -1.60925 1.08705 0
M  V30 25107 O 2509.19 -1.93995 0.140098 0
M  V30 25108 C 2509.47 -0.893358 3.48843 0
M  V30 25109 C 2509.33 0.280026 4.48927 0
M  V30 25110 C 2510.64 -1.75712 4.03501 0
M  V30 25111 H 2507.76 -0.157744 0.719921 0
M  V30 25112 H 2510.41 0.292001 1.87743 0
M  V30 25113 H 2508.56 -1.51541 3.57726 0
M  V30 25114 H 2510.23 0.9178 4.52078 0
M  V30 25115 H 2508.47 0.930993 4.23692 0
M  V30 25116 H 2509.14 -0.0811631 5.5194 0
M  V30 25117 H 2511.62 -1.23246 3.97429 0
M  V30 25118 H 2510.49 -2.04467 5.09396 0
M  V30 25119 H 2510.75 -2.71305 3.49065 0
M  V30 25120 N 2509.81 -1.57429 -0.0734901 0
M  V30 25121 C 2511.09 -1.78228 -0.805872 0
M  V30 25122 C 2511.47 -0.787224 -1.95872 0
M  V30 25123 O 2510.82 0.179989 -2.2779 0
M  V30 25124 C 2511.03 -3.24664 -1.28039 0
M  V30 25125 C 2512.38 -3.88447 -1.71446 0
M  V30 25126 O 2513.4 -3.28545 -1.3761 0
M  V30 25127 O 2512.26 -4.93829 -2.34084 0
M  V30 25128 H 2509.35 -0.731376 -0.386028 0
M  V30 25129 H 2511.9 -1.69615 -0.0536971 0
M  V30 25130 H 2510.67 -3.88641 -0.455408 0
M  V30 25131 H 2510.29 -3.37994 -2.09394 0
M  V30 25132 N 2511.29 0.344839 -1.53781 0
M  V30 25133 C 2512.54 1.08684 -1.71218 0
M  V30 25134 C 2512.87 1.88344 -0.473314 0
M  V30 25135 O 2512.15 1.8715 0.529647 0
M  V30 25136 C 2512.43 2.02909 -2.97489 0
M  V30 25137 C 2512.28 1.2672 -4.31581 0
M  V30 25138 C 2513.6 3.02745 -3.19427 0
M  V30 25139 H 2510.72 0.393724 -0.623017 0
M  V30 25140 H 2513.36 0.36553 -1.86451 0
M  V30 25141 H 2511.51 2.64416 -2.84634 0
M  V30 25142 H 2513.18 0.67837 -4.56285 0
M  V30 25143 H 2511.43 0.569197 -4.3005 0
M  V30 25144 H 2512.1 1.95793 -5.16109 0
M  V30 25145 H 2514.57 2.51351 -3.31605 0
M  V30 25146 H 2513.45 3.65878 -4.09176 0
M  V30 25147 H 2513.71 3.74053 -2.35663 0
M  V30 25148 N 2512.77 1.45492 0.605781 0
M  V30 25149 C 2514.02 1.49825 1.36676 0
M  V30 25150 C 2514.35 0.140209 1.93693 0
M  V30 25151 O 2513.62 -0.84555 1.75159 0
M  V30 25152 C 2513.91 2.57883 2.51333 0
M  V30 25153 C 2513.76 4.03137 1.995 0
M  V30 25154 C 2515.08 2.62212 3.53459 0
M  V30 25155 H 2512.2 0.545475 0.495607 0
M  V30 25156 H 2514.84 1.77311 0.682701 0
M  V30 25157 H 2512.99 2.34577 3.09687 0
M  V30 25158 H 2514.66 4.37659 1.45782 0
M  V30 25159 H 2512.9 4.13709 1.30489 0
M  V30 25160 H 2513.58 4.74436 2.82161 0
M  V30 25161 H 2516.05 2.831 3.04948 0
M  V30 25162 H 2514.93 3.3968 4.31172 0
M  V30 25163 H 2515.19 1.6737 4.09194 0
M  V30 25164 N 2514.25 -0.848441 1.32813 0
M  V30 25165 C 2515.16 -1.98975 1.24282 0
M  V30 25166 C 2516.17 -1.73306 0.155206 0
M  V30 25167 O 2517.35 -1.97839 0.377034 0
M  V30 25168 C 2514.42 -3.32781 0.972502 0
M  V30 25169 C 2513.48 -3.7163 2.14917 0
M  V30 25170 C 2512.71 -4.99051 1.89166 0
M  V30 25171 O 2512.93 -5.64222 0.837264 0
M  V30 25172 O 2511.87 -5.35178 2.75442 0
M  V30 25173 H 2515.69 -2.09111 2.20242 0
M  V30 25174 H 2513.28 -0.980032 1.12764 0
M  V30 25175 H 2515.16 -4.12973 0.838504 0
M  V30 25176 H 2513.83 -3.23671 0.0431079 0
M  V30 25177 H 2512.74 -2.91988 2.33867 0
M  V30 25178 H 2514.07 -3.85394 3.06157 0
M  V30 25179 N 2515.73 -1.16125 -1.06549 0
M  V30 25180 C 2516.67 -0.861409 -2.16061 0
M  V30 25181 C 2517.67 0.168487 -1.6856 0
M  V30 25182 O 2518.87 0.0227263 -1.79986 0
M  V30 25183 H 2515.25 -0.260946 -0.705274 0
M  V30 25184 H 2517.22 -1.79248 -2.38564 0
M  V30 25185 C 2515.97 -0.376079 -3.4566 0
M  V30 25186 H 2515.29 -1.15998 -3.82602 0
M  V30 25187 H 2516.73 -0.205026 -4.23504 0
M  V30 25188 C 2515.19 0.903897 -3.24548 0
M  V30 25189 O 2515.72 1.97371 -3.49868 0
M  V30 25190 N 2513.93 0.84663 -2.77994 0
M  V30 25191 H 2513.47 -0.024147 -2.57589 0
M  V30 25192 H 2513.43 1.70355 -2.64247 0
M  V30 25193 N 2517.2 1.25039 -0.959323 0
M  V30 25194 C 2518.11 2.29425 -0.490034 0
M  V30 25195 C 2519.13 1.68216 0.444915 0
M  V30 25196 O 2520.31 1.98841 0.320011 0
M  V30 25197 C 2517.37 3.46 0.220248 0
M  V30 25198 C 2516.43 4.22636 -0.753492 0
M  V30 25199 C 2515.67 5.33644 -0.0770118 0
M  V30 25200 O 2515.89 5.58965 1.13639 0
M  V30 25201 O 2514.82 5.9702 -0.764929 0
M  V30 25202 H 2518.65 2.71667 -1.3576 0
M  V30 25203 H 2516.23 1.30575 -0.725984 0
M  V30 25204 H 2518.12 4.1682 0.619604 0
M  V30 25205 H 2516.79 3.05751 1.06291 0
M  V30 25206 H 2515.7 3.54225 -1.20315 0
M  V30 25207 H 2517.03 4.6668 -1.56431 0
M  V30 25208 N 2518.68 0.728444 1.39755 0
M  V30 25209 C 2519.96 0.200113 1.94574 0
M  V30 25210 C 2520.34 -1.29681 1.66571 0
M  V30 25211 O 2519.69 -2.05923 0.990362 0
M  V30 25212 C 2519.9 0.526669 3.45003 0
M  V30 25213 C 2521.25 0.472392 4.21964 0
M  V30 25214 O 2522.27 0.463475 3.53172 0
M  V30 25215 O 2521.13 0.46117 5.44551 0
M  V30 25216 H 2518.22 0.0342996 0.826288 0
M  V30 25217 H 2520.77 0.806855 1.49291 0
M  V30 25218 H 2519.54 1.5615 3.58793 0
M  V30 25219 H 2519.16 -0.109379 3.9745 0
M  V30 25220 N 2520.16 -1.50253 0.475581 0
M  V30 25221 C 2521.41 -2.01951 -0.0777025 0
M  V30 25222 C 2521.73 -1.35934 -1.39811 0
M  V30 25223 O 2521 -0.506156 -1.89248 0
M  V30 25224 H 2519.58 -0.746327 -0.0317059 0
M  V30 25225 H 2522.24 -1.84538 0.627028 0
M  V30 25226 H 2521.34 -3.11281 -0.225941 0
M  V30 25227 N 2521.64 -0.208365 -1.56217 0
M  V30 25228 C 2522.87 0.432114 -2.02337 0
M  V30 25229 C 2523.28 1.54273 -1.08837 0
M  V30 25230 O 2522.64 1.8225 -0.0955782 0
M  V30 25231 C 2522.69 0.976077 -3.48073 0
M  V30 25232 O 2522.41 -0.090239 -4.38007 0
M  V30 25233 C 2523.91 1.69112 -4.09776 0
M  V30 25234 H 2521.13 0.107168 -0.662387 0
M  V30 25235 H 2523.68 -0.320958 -2.01966 0
M  V30 25236 H 2521.83 1.67948 -3.49102 0
M  V30 25237 H 2522.24 0.316609 -5.23544 0
M  V30 25238 H 2523.72 2.02388 -5.13559 0
M  V30 25239 H 2524.2 2.59958 -3.54004 0
M  V30 25240 H 2524.8 1.03325 -4.12558 0
M  V30 25241 N 2523.12 1.57465 0.0651402 0
M  V30 25242 C 2524.36 1.87574 0.76303 0
M  V30 25243 C 2524.69 0.800993 1.77241 0
M  V30 25244 O 2523.95 -0.202282 1.94652 0
M  V30 25245 C 2524.25 3.24364 1.50075 0
M  V30 25246 C 2523.91 4.46467 0.630738 0
M  V30 25247 C 2522.57 4.79609 0.390998 0
M  V30 25248 C 2524.93 5.21193 0.0278549 0
M  V30 25249 C 2522.25 5.84886 -0.460997 0
M  V30 25250 C 2524.61 6.27372 -0.811632 0
M  V30 25251 C 2523.27 6.59011 -1.06118 0
M  V30 25252 H 2522.54 0.686383 0.279212 0
M  V30 25253 H 2525.19 1.91485 0.0236389 0
M  V30 25254 H 2523.49 3.16275 2.31252 0
M  V30 25255 H 2525.19 3.44897 2.04565 0
M  V30 25256 H 2521.78 4.20531 0.827727 0
M  V30 25257 H 2525.96 4.95896 0.200175 0
M  V30 25258 H 2521.22 6.07794 -0.663014 0
M  V30 25259 H 2525.39 6.84433 -1.28549 0
M  V30 25260 H 2523.02 7.40414 -1.72313 0
M  V30 25261 N 2524.59 -0.336679 1.53962 0
M  V30 25262 C 2525.87 -1.09358 1.62173 0
M  V30 25263 C 2526.25 -2.06307 0.447299 0
M  V30 25264 O 2525.6 -2.21538 -0.559763 0
M  V30 25265 C 2525.81 -1.80715 2.98568 0
M  V30 25266 C 2527.16 -2.34212 3.54161 0
M  V30 25267 O 2528.18 -1.90802 3.00788 0
M  V30 25268 O 2527.04 -3.13649 4.47534 0
M  V30 25269 H 2524.13 -0.503308 0.656209 0
M  V30 25270 H 2526.68 -0.337621 1.66308 0
M  V30 25271 H 2525.45 -1.10125 3.75484 0
M  V30 25272 H 2525.08 -2.63153 2.98054 0
M  V30 25273 N 2526.07 -1.45812 -0.598057 0
M  V30 25274 C 2527.32 -1.49596 -1.35292 0
M  V30 25275 C 2527.63 -0.145713 -1.95056 0
M  V30 25276 O 2528.84 -0.0612576 -2.71431 0
M  V30 25277 C 2527.3 -2.63523 -2.45119 0
M  V30 25278 C 2526.9 -4.04902 -1.91725 0
M  V30 25279 C 2528.65 -2.76563 -3.22045 0
M  V30 25280 C 2526.56 -5.10195 -2.99091 0
M  V30 25281 H 2525.49 -0.556687 -0.508542 0
M  V30 25282 H 2528.14 -1.71979 -0.639947 0
M  V30 25283 H 2526.52 -2.3444 -3.19145 0
M  V30 25284 H 2527.69 -4.43706 -1.24344 0
M  V30 25285 H 2526.01 -3.96395 -1.27515 0
M  V30 25286 H 2528.6 -3.52398 -4.02144 0
M  V30 25287 H 2528.95 -1.83533 -3.73659 0
M  V30 25288 H 2529.48 -3.05218 -2.55121 0
M  V30 25289 H 2526.22 -6.04966 -2.52382 0
M  V30 25290 H 2525.74 -4.75951 -3.65008 0
M  V30 25291 H 2527.42 -5.35365 -3.63309 0
M  V30 25292 N 2527.55 0.841385 -1.33261 0
M  V30 25293 C 2528.8 1.59647 -1.24575 0
M  V30 25294 C 2529.13 1.93579 0.189103 0
M  V30 25295 O 2528.38 1.58662 1.14564 0
M  V30 25296 C 2528.68 2.91787 -2.06386 0
M  V30 25297 C 2528.35 2.77229 -3.55605 0
M  V30 25298 C 2527.01 2.72966 -3.96287 0
M  V30 25299 C 2529.36 2.62213 -4.50437 0
M  V30 25300 C 2526.69 2.51583 -5.30022 0
M  V30 25301 C 2529.04 2.42364 -5.84331 0
M  V30 25302 C 2527.7 2.36502 -6.24198 0
M  V30 25303 H 2526.97 0.584192 -0.455852 0
M  V30 25304 H 2529.62 0.974987 -1.64822 0
M  V30 25305 H 2527.93 3.58127 -1.58909 0
M  V30 25306 H 2529.62 3.49259 -1.97025 0
M  V30 25307 H 2526.21 2.81378 -3.23302 0
M  V30 25308 H 2530.4 2.64542 -4.19918 0
M  V30 25309 H 2525.65 2.45489 -5.59951 0
M  V30 25310 H 2529.83 2.29728 -6.57418 0
M  V30 25311 H 2527.45 2.19693 -7.27763 0
M  V30 25312 N 2529.03 1.16688 1.05932 0
M  V30 25313 C 2530.26 0.973547 1.82224 0
M  V30 25314 C 2530.67 -0.4815 1.82971 0
M  V30 25315 O 2530.01 -1.34602 1.25012 0
M  V30 25316 C 2530.07 1.42864 3.29894 0
M  V30 25317 C 2529.74 2.90431 3.52844 0
M  V30 25318 C 2530.73 3.88413 3.45588 0
M  V30 25319 C 2528.42 3.28435 3.80047 0
M  V30 25320 C 2530.41 5.224 3.65208 0
M  V30 25321 C 2528.1 4.6259 3.99317 0
M  V30 25322 C 2529.1 5.59381 3.91895 0
M  V30 25323 O 2528.79 6.91111 4.10635 0
M  V30 25324 H 2528.52 0.345046 0.581308 0
M  V30 25325 H 2531.07 1.55215 1.34527 0
M  V30 25326 H 2529.3 0.793543 3.7847 0
M  V30 25327 H 2530.99 1.20214 3.8769 0
M  V30 25328 H 2531.76 3.60399 3.24557 0
M  V30 25329 H 2527.64 2.5367 3.84932 0
M  V30 25330 H 2531.18 5.97936 3.59331 0
M  V30 25331 H 2527.08 4.90313 4.19837 0
M  V30 25332 H 2527.84 6.9774 4.27903 0
M  V30 25333 N 2530.51 -1.24529 0.96594 0
M  V30 25334 C 2531.74 -1.96608 0.64442 0
M  V30 25335 C 2532.15 -1.7167 -0.785793 0
M  V30 25336 O 2531.51 -0.999426 -1.52701 0
M  V30 25337 C 2531.56 -3.49925 0.907436 0
M  V30 25338 O 2531.28 -3.74009 2.28142 0
M  V30 25339 C 2532.78 -4.39223 0.599861 0
M  V30 25340 H 2530 -0.626381 0.240599 0
M  V30 25341 H 2532.54 -1.58403 1.29339 0
M  V30 25342 H 2530.7 -3.862 0.304699 0
M  V30 25343 H 2531.11 -4.68401 2.3601 0
M  V30 25344 H 2532.59 -5.45658 0.834359 0
M  V30 25345 H 2533.06 -4.36722 -0.465844 0
M  V30 25346 H 2533.67 -4.08533 1.18242 0
M  V30 25347 N 2531.99 -0.735845 -1.39367 0
M  V30 25348 C 2532.95 -0.104914 -2.2896 0
M  V30 25349 C 2533.95 0.666248 -1.46348 0
M  V30 25350 O 2535.14 0.49514 -1.67015 0
M  V30 25351 C 2532.27 0.860598 -3.29858 0
M  V30 25352 H 2533.46 -0.894255 -2.86257 0
M  V30 25353 H 2531.02 -0.50173 -1.48028 0
M  V30 25354 H 2531.75 1.67626 -2.77618 0
M  V30 25355 H 2531.54 0.310258 -3.90871 0
M  V30 25356 H 2533.03 1.2986 -3.96896 0
M  V30 25357 N 2533.46 1.49999 -0.483543 0
M  V30 25358 C 2534.87 1.86674 -0.0314504 0
M  V30 25359 C 2535.23 1.39736 1.37726 0
M  V30 25360 O 2534.35 0.767671 2.02326 0
M  V30 25361 C 2534.95 3.38763 -0.0502971 0
M  V30 25362 C 2533.5 3.74803 0.346376 0
M  V30 25363 C 2532.65 2.73939 -0.430414 0
M  V30 25364 H 2535.6 1.42565 -0.697207 0
M  V30 25365 H 2535.62 3.73054 0.749051 0
M  V30 25366 H 2535.14 3.72895 -1.07569 0
M  V30 25367 H 2533.24 3.46275 1.37566 0
M  V30 25368 H 2533.35 4.79084 0.0390643 0
M  V30 25369 H 2531.71 2.54429 0.117512 0
M  V30 25370 H 2532.5 3.10915 -1.45556 0
M  V30 25371 N 2534.94 0.216646 1.56104 0
M  V30 25372 C 2535.87 -0.727722 2.1734 0
M  V30 25373 C 2536.89 -1.16114 1.14111 0
M  V30 25374 O 2538.08 -1.09314 1.41112 0
M  V30 25375 C 2535.18 -1.99688 2.73821 0
M  V30 25376 C 2534.35 -1.71981 4.02171 0
M  V30 25377 C 2533.41 -2.83554 4.43264 0
M  V30 25378 O 2532.43 -2.52235 5.10261 0
M  V30 25379 N 2533.64 -4.124 4.08542 0
M  V30 25380 H 2536.4 -0.20393 2.99005 0
M  V30 25381 H 2533.96 0.0354574 1.61861 0
M  V30 25382 H 2535.95 -2.73511 2.98285 0
M  V30 25383 H 2534.52 -2.43128 1.96487 0
M  V30 25384 H 2533.74 -0.818269 3.85614 0
M  V30 25385 H 2535.03 -1.50894 4.8591 0
M  V30 25386 H 2534.43 -4.4069 3.54695 0
M  V30 25387 H 2532.99 -4.82782 4.3791 0
M  V30 25388 N 2536.42 -1.57498 -0.0567885 0
M  V30 25389 C 2537.83 -1.76563 -0.606827 0
M  V30 25390 C 2538.18 -0.844125 -1.77113 0
M  V30 25391 O 2537.31 -0.0319291 -2.16376 0
M  V30 25392 C 2537.9 -3.20184 -1.1076 0
M  V30 25393 C 2536.46 -3.40542 -1.60338 0
M  V30 25394 C 2535.61 -2.72202 -0.529263 0
M  V30 25395 H 2538.56 -1.57793 0.16942 0
M  V30 25396 H 2538.58 -3.2517 -1.97597 0
M  V30 25397 H 2538.09 -3.87228 -0.259992 0
M  V30 25398 H 2536.19 -2.78633 -2.47374 0
M  V30 25399 H 2536.31 -4.49053 -1.66998 0
M  V30 25400 H 2534.67 -2.35181 -0.977852 0
M  V30 25401 H 2535.45 -3.41912 0.308412 0
M  V30 25402 N 2537.9 0.328509 -1.54138 0
M  V30 25403 C 2539.15 1.06493 -1.71766 0
M  V30 25404 C 2539.47 1.88704 -0.491523 0
M  V30 25405 O 2538.74 1.89556 0.494506 0
M  V30 25406 H 2537.32 0.396153 -0.633302 0
M  V30 25407 H 2539.98 0.366143 -1.9143 0
M  V30 25408 H 2539.07 1.73377 -2.59513 0
M  V30 25409 N 2539.38 1.46127 0.590316 0
M  V30 25410 C 2540.32 1.56114 1.69992 0
M  V30 25411 C 2541.29 0.405895 1.61064 0
M  V30 25412 O 2542.48 0.621645 1.80389 0
M  V30 25413 C 2539.62 1.55018 3.08323 0
M  V30 25414 C 2538.73 2.81221 3.27931 0
M  V30 25415 C 2537.87 2.71681 4.56468 0
M  V30 25416 C 2536.9 3.92857 4.69393 0
M  V30 25417 N 2536.04 3.81749 5.89247 0
M  V30 25418 H 2540.88 2.50898 1.60792 0
M  V30 25419 H 2538.42 1.2448 0.783777 0
M  V30 25420 H 2540.38 1.52369 3.88381 0
M  V30 25421 H 2539.01 0.637722 3.16438 0
M  V30 25422 H 2538.06 2.93883 2.4153 0
M  V30 25423 H 2539.37 3.71051 3.33351 0
M  V30 25424 H 2538.52 2.67095 5.44743 0
M  V30 25425 H 2537.26 1.79478 4.53474 0
M  V30 25426 H 2536.27 3.97784 3.79537 0
M  V30 25427 H 2537.49 4.86147 4.74171 0
M  V30 25428 H 2535.44 2.92327 5.87265 0
M  V30 25429 H 2535.36 4.65227 5.95902 0
M  V30 25430 H 2536.62 3.81124 6.79974 0
M  V30 25431 N 2540.85 -0.834306 1.33705 0
M  V30 25432 C 2542.08 -1.61947 1.28283 0
M  V30 25433 C 2542.49 -1.88624 -0.147569 0
M  V30 25434 O 2541.83 -1.47007 -1.10157 0
M  V30 25435 C 2541.9 -2.99138 1.99391 0
M  V30 25436 C 2541.56 -2.9541 3.48686 0
M  V30 25437 C 2542.56 -2.70801 4.43805 0
M  V30 25438 C 2540.24 -3.15402 3.90931 0
M  V30 25439 C 2542.24 -2.66219 5.79143 0
M  V30 25440 C 2539.92 -3.10445 5.26372 0
M  V30 25441 C 2540.92 -2.85885 6.20289 0
M  V30 25442 O 2540.61 -2.80839 7.5325 0
M  V30 25443 H 2540.34 -0.510477 0.443159 0
M  V30 25444 H 2542.9 -1.04699 1.76713 0
M  V30 25445 H 2541.13 -3.58259 1.4556 0
M  V30 25446 H 2542.81 -3.60045 1.87409 0
M  V30 25447 H 2543.58 -2.55102 4.1249 0
M  V30 25448 H 2539.46 -3.33538 3.18235 0
M  V30 25449 H 2543 -2.46968 6.5242 0
M  V30 25450 H 2538.9 -3.25693 5.5731 0
M  V30 25451 H 2539.67 -2.96648 7.62852 0
M  V30 25452 N 2542.33 -1.17248 -1.05312 0
M  V30 25453 C 2543.58 -0.961544 -1.78556 0
M  V30 25454 C 2543.91 0.508664 -1.8742 0
M  V30 25455 O 2543.19 1.37755 -1.37309 0
M  V30 25456 C 2543.47 -1.60182 -3.22512 0
M  V30 25457 C 2543.32 -3.14405 -3.21667 0
M  V30 25458 C 2544.64 -1.30471 -4.20316 0
M  V30 25459 H 2541.76 -0.350734 -0.648193 0
M  V30 25460 H 2544.4 -1.44729 -1.231 0
M  V30 25461 H 2542.55 -1.18878 -3.69865 0
M  V30 25462 H 2544.22 -3.64758 -2.82399 0
M  V30 25463 H 2542.47 -3.47218 -2.60042 0
M  V30 25464 H 2543.14 -3.54332 -4.23265 0
M  V30 25465 H 2545.61 -1.66235 -3.81451 0
M  V30 25466 H 2544.49 -1.77857 -5.19286 0
M  V30 25467 H 2544.75 -0.225287 -4.41526 0
M  V30 25468 N 2543.81 1.24015 -0.972531 0
M  V30 25469 C 2545.06 1.91522 -0.632636 0
M  V30 25470 C 2545.37 1.76806 0.83661 0
M  V30 25471 O 2546.58 2.39045 1.28723 0
M  V30 25472 C 2545.03 3.43286 -1.08088 0
M  V30 25473 C 2544.64 3.66679 -2.57392 0
M  V30 25474 C 2546.39 4.16615 -0.814362 0
M  V30 25475 C 2544.29 5.12038 -2.95924 0
M  V30 25476 H 2543.22 0.717125 -0.232911 0
M  V30 25477 H 2545.87 1.4058 -1.17938 0
M  V30 25478 H 2544.26 3.93291 -0.462409 0
M  V30 25479 H 2545.43 3.27253 -3.24411 0
M  V30 25480 H 2543.75 3.06644 -2.81706 0
M  V30 25481 H 2546.34 5.23717 -1.07819 0
M  V30 25482 H 2546.69 4.15552 0.249477 0
M  V30 25483 H 2547.22 3.72574 -1.39404 0
M  V30 25484 H 2543.96 5.18227 -4.01399 0
M  V30 25485 H 2543.48 5.52444 -2.33593 0
M  V30 25486 H 2545.16 5.80309 -2.86096 0
M  V30 25487 N 2545.29 0.743226 1.38974 0
M  V30 25488 C 2546.53 0.299575 2.02193 0
M  V30 25489 C 2546.89 -1.09503 1.57712 0
M  V30 25490 O 2548.09 -1.63722 2.13187 0
M  V30 25491 C 2546.36 0.406885 3.55076 0
M  V30 25492 S 2547.92 0.044288 4.38778 0
M  V30 25493 H 2544.74 0.116849 0.701333 0
M  V30 25494 H 2547.34 0.971559 1.6965 0
M  V30 25495 H 2546.05 1.42302 3.84939 0
M  V30 25496 H 2545.58 -0.282638 3.92383 0
M  V30 25497 H 2547.59 -1.16939 4.82224 0
M  V30 25498 N 2546.77 -1.4974 0.491491 0
M  V30 25499 C 2548.01 -2.02721 -0.0564735 0
M  V30 25500 C 2548.35 -1.37121 -1.37519 0
M  V30 25501 O 2547.62 -0.503678 -1.87865 0
M  V30 25502 C 2547.9 -3.59434 -0.218988 0
M  V30 25503 C 2547.76 -4.35577 1.12219 0
M  V30 25504 C 2549.08 -4.29411 -0.964081 0
M  V30 25505 H 2546.19 -0.736754 -0.0190497 0
M  V30 25506 H 2548.84 -1.78859 0.641053 0
M  V30 25507 H 2546.99 -3.79896 -0.813098 0
M  V30 25508 H 2548.66 -4.26634 1.75445 0
M  V30 25509 H 2546.9 -3.9851 1.71384 0
M  V30 25510 H 2547.57 -5.43555 0.961889 0
M  V30 25511 H 2550.05 -4.13546 -0.460305 0
M  V30 25512 H 2548.92 -5.38829 -1.04662 0
M  V30 25513 H 2549.19 -3.93992 -2.00556 0
M  V30 25514 N 2548.24 -0.224922 -1.55987 0
M  V30 25515 C 2549.66 0.130398 -1.59066 0
M  V30 25516 C 2549.86 1.58688 -1.24179 0
M  V30 25517 O 2548.92 2.32764 -0.978633 0
M  V30 25518 C 2550.23 -0.198935 -3.00041 0
M  V30 25519 C 2551.78 -0.141446 -3.1268 0
M  V30 25520 C 2552.25 -0.444502 -4.55838 0
M  V30 25521 N 2553.74 -0.394196 -4.6152 0
M  V30 25522 C 2554.48 -0.602138 -5.7023 0
M  V30 25523 N 2553.97 -0.872035 -6.8729 0
M  V30 25524 N 2555.77 -0.534344 -5.59554 0
M  V30 25525 H 2547.92 -1.17501 -1.76939 0
M  V30 25526 H 2550.18 -0.471212 -0.822596 0
M  V30 25527 H 2549.89 -1.20995 -3.30232 0
M  V30 25528 H 2549.76 0.48447 -3.74076 0
M  V30 25529 H 2552.15 0.860215 -2.82284 0
M  V30 25530 H 2552.23 -0.858377 -2.40968 0
M  V30 25531 H 2551.87 -1.44362 -4.86952 0
M  V30 25532 H 2551.8 0.29366 -5.25781 0
M  V30 25533 H 2554.29 -0.193422 -3.77405 0
M  V30 25534 H 2554.61 -1.01871 -7.66056 0
M  V30 25535 H 2552.95 -0.909266 -6.89026 0
M  V30 25536 H 2556.14 -0.323694 -4.66979 0
M  V30 25537 H 2556.32 -0.699806 -6.4421 0
M  V30 25538 N 2549.72 1.57526 0.0484352 0
M  V30 25539 C 2550.97 1.88373 0.743092 0
M  V30 25540 C 2551.3 0.819746 1.76381 0
M  V30 25541 O 2550.55 -0.181625 1.94855 0
M  V30 25542 C 2550.85 3.25938 1.46627 0
M  V30 25543 C 2550.52 4.47111 0.583348 0
M  V30 25544 C 2549.18 4.79997 0.340107 0
M  V30 25545 C 2551.53 5.21193 -0.0274261 0
M  V30 25546 C 2548.86 5.84364 -0.523006 0
M  V30 25547 C 2551.21 6.26476 -0.878127 0
M  V30 25548 C 2549.88 6.57848 -1.13102 0
M  V30 25549 H 2549.15 0.689306 0.271917 0
M  V30 25550 H 2551.79 1.915 0.003328 0
M  V30 25551 H 2550.1 3.1871 2.27885 0
M  V30 25552 H 2551.79 3.47048 2.00895 0
M  V30 25553 H 2548.38 4.21386 0.783077 0
M  V30 25554 H 2552.57 4.96081 0.147567 0
M  V30 25555 H 2547.82 6.07057 -0.727441 0
M  V30 25556 H 2552 6.83031 -1.35801 0
M  V30 25557 H 2549.63 7.38544 -1.80157 0
M  V30 25558 N 2551.2 -0.32033 1.5431 0
M  V30 25559 C 2552.45 -1.0558 1.72329 0
M  V30 25560 C 2552.77 -1.8844 0.501523 0
M  V30 25561 O 2552.04 -1.89816 -0.484446 0
M  V30 25562 H 2550.62 -0.392789 0.635394 0
M  V30 25563 H 2553.28 -0.355986 1.91621 0
M  V30 25564 H 2552.38 -1.71998 2.60429 0
M  V30 25565 N 2552.68 -1.46438 -0.582558 0
M  V30 25566 C 2553.93 -1.51456 -1.33812 0
M  V30 25567 C 2554.25 -0.167826 -1.94276 0
M  V30 25568 O 2553.52 0.805646 -1.78567 0
M  V30 25569 H 2552.1 -0.557827 -0.496828 0
M  V30 25570 H 2554.76 -1.82569 -0.682249 0
M  V30 25571 H 2553.86 -2.26731 -2.14475 0
M  V30 25572 N 2554.16 0.827204 -1.34146 0
M  V30 25573 C 2555.07 1.96973 -1.27432 0
M  V30 25574 C 2556.08 1.73038 -0.182758 0
M  V30 25575 O 2557.26 1.97214 -0.408461 0
M  V30 25576 C 2554.32 3.31192 -1.02532 0
M  V30 25577 C 2553.38 3.68164 -2.20802 0
M  V30 25578 C 2552.62 4.95978 -1.97081 0
M  V30 25579 O 2552.84 5.62818 -0.926921 0
M  V30 25580 O 2551.77 5.30728 -2.83921 0
M  V30 25581 H 2555.6 2.0558 -2.23541 0
M  V30 25582 H 2553.19 0.961969 -1.14309 0
M  V30 25583 H 2555.07 4.11587 -0.904099 0
M  V30 25584 H 2553.74 3.23562 -0.0945958 0
M  V30 25585 H 2552.65 2.88231 -2.38483 0
M  V30 25586 H 2553.98 3.80474 -3.1225 0
M  V30 25587 N 2555.63 1.17805 1.04688 0
M  V30 25588 C 2556.58 0.867428 2.10855 0
M  V30 25589 C 2557.57 -0.160178 1.60101 0
M  V30 25590 O 2558.76 0.0429781 1.76948 0
M  V30 25591 C 2555.89 0.388072 3.411 0
M  V30 25592 C 2554.98 1.44739 3.98637 0
M  V30 25593 N 2555.37 2.6622 4.3007 0
M  V30 25594 C 2553.66 1.30644 4.26437 0
M  V30 25595 C 2554.37 3.34325 4.76027 0
M  V30 25596 N 2553.34 2.61705 4.76457 0
M  V30 25597 H 2557.14 1.79098 2.33026 0
M  V30 25598 H 2554.66 1.06752 1.22384 0
M  V30 25599 H 2556.65 0.147068 4.16641 0
M  V30 25600 H 2555.31 -0.529215 3.20358 0
M  V30 25601 H 2556.33 3.03141 4.19912 0
M  V30 25602 H 2553 0.451202 4.15055 0
M  V30 25603 H 2554.39 4.38112 5.09419 0
M  V30 25604 N 2557.11 -1.23497 0.979094 0
M  V30 25605 C 2558.36 -1.92162 0.648212 0
M  V30 25606 C 2558.69 -1.76224 -0.816018 0
M  V30 25607 O 2557.97 -1.1224 -1.58847 0
M  V30 25608 C 2558.25 -3.44822 1.03779 0
M  V30 25609 C 2558.1 -3.69874 2.55955 0
M  V30 25610 C 2559.42 -4.36252 0.58073 0
M  V30 25611 H 2556.54 -0.697866 0.236964 0
M  V30 25612 H 2559.18 -1.45645 1.22014 0
M  V30 25613 H 2557.33 -3.84571 0.551126 0
M  V30 25614 H 2559 -3.39615 3.12185 0
M  V30 25615 H 2557.25 -3.14631 2.98647 0
M  V30 25616 H 2557.92 -4.76732 2.78263 0
M  V30 25617 H 2560.39 -4.03941 0.998536 0
M  V30 25618 H 2559.27 -5.41771 0.881759 0
M  V30 25619 H 2559.53 -4.39043 -0.518975 0
M  V30 25620 N 2558.59 -0.750586 -1.38578 0
M  V30 25621 C 2560 -0.37347 -1.82926 0
M  V30 25622 C 2560.35 1.09745 -1.62636 0
M  V30 25623 O 2559.48 1.84803 -1.12591 0
M  V30 25624 C 2560.07 -0.671087 -3.32087 0
M  V30 25625 C 2558.63 -0.347286 -3.74794 0
M  V30 25626 C 2557.78 -0.925796 -2.61389 0
M  V30 25627 H 2560.73 -0.946981 -1.2735 0
M  V30 25628 H 2560.75 0.05176 -3.80465 0
M  V30 25629 H 2560.26 -1.7417 -3.46823 0
M  V30 25630 H 2558.36 0.716869 -3.65639 0
M  V30 25631 H 2558.48 -0.840739 -4.71666 0
M  V30 25632 H 2556.84 -0.351372 -2.52265 0
M  V30 25633 H 2557.62 -2.00138 -2.78926 0
M  V30 25634 N 2560.07 1.49477 -0.499425 0
M  V30 25635 C 2561.02 2.3074 0.293564 0
M  V30 25636 C 2562.01 1.39279 0.964245 0
M  V30 25637 O 2563.22 1.56337 0.892114 0
M  V30 25638 H 2559.59 0.743381 0.113528 0
M  V30 25639 H 2561.56 2.95545 -0.411824 0
M  V30 25640 C 2560.31 3.20584 1.34615 0
M  V30 25641 H 2559.64 3.90887 0.839472 0
M  V30 25642 H 2561.08 3.80387 1.87302 0
M  V30 25643 C 2559.53 2.40087 2.36347 0
M  V30 25644 O 2560.06 2.10391 3.42197 0
M  V30 25645 N 2558.27 2.0214 2.08777 0
M  V30 25646 H 2557.82 2.2649 1.22719 0
M  V30 25647 H 2557.78 1.48588 2.77072 0
M  V30 25648 N 2561.55 0.233191 1.55865 0
M  V30 25649 C 2562.77 -0.402871 2.0345 0
M  V30 25650 C 2563.2 -1.51734 1.11168 0
M  V30 25651 O 2562.56 -1.81013 0.102028 0
M  V30 25652 C 2562.6 -0.900839 3.49167 0
M  V30 25653 O 2561.71 -2.01141 3.60022 0
M  V30 25654 H 2561.05 -0.089691 0.657915 0
M  V30 25655 H 2563.58 0.355236 2.01493 0
M  V30 25656 H 2563.59 -1.20764 3.89718 0
M  V30 25657 H 2562.26 -0.0852158 4.15813 0
M  V30 25658 H 2560.84 -1.71036 3.31363 0
M  V30 25659 N 2563.03 -1.57549 -0.0400806 0
M  V30 25660 C 2564.44 -1.77197 -0.588066 0
M  V30 25661 C 2564.79 -0.862863 -1.76208 0
M  V30 25662 O 2563.91 -0.0548769 -2.1633 0
M  V30 25663 C 2564.51 -3.21341 -1.07358 0
M  V30 25664 C 2563.07 -3.42223 -1.56717 0
M  V30 25665 C 2562.21 -2.72748 -0.500362 0
M  V30 25666 H 2565.16 -1.57605 0.186147 0
M  V30 25667 H 2565.19 -3.27248 -1.94137 0
M  V30 25668 H 2564.7 -3.87482 -0.218906 0
M  V30 25669 H 2562.8 -2.81242 -2.44405 0
M  V30 25670 H 2562.91 -4.50799 -1.62226 0
M  V30 25671 H 2561.28 -2.36205 -0.952853 0
M  V30 25672 H 2562.06 -3.41565 0.344659 0
M  V30 25673 N 2564.5 0.312142 -1.54478 0
M  V30 25674 C 2565.75 1.04872 -1.73229 0
M  V30 25675 C 2566.08 1.87638 -0.512075 0
M  V30 25676 O 2565.33 1.89043 0.506098 0
M  V30 25677 C 2565.63 1.99253 -2.96704 0
M  V30 25678 C 2565.3 1.32551 -4.30977 0
M  V30 25679 C 2563.96 1.14092 -4.67479 0
M  V30 25680 C 2566.31 0.847744 -5.14259 0
M  V30 25681 C 2563.64 0.465223 -5.84853 0
M  V30 25682 C 2565.99 0.18582 -6.32327 0
M  V30 25683 C 2564.66 -0.0108251 -6.67499 0
M  V30 25684 H 2563.93 0.383754 -0.633888 0
M  V30 25685 H 2566.57 0.324698 -1.88727 0
M  V30 25686 H 2564.88 2.78145 -2.7594 0
M  V30 25687 H 2566.58 2.56295 -3.08406 0
M  V30 25688 H 2563.17 1.47923 -4.02264 0
M  V30 25689 H 2567.35 0.978106 -4.86566 0
M  V30 25690 H 2562.61 0.301776 -6.10655 0
M  V30 25691 H 2566.78 -0.192333 -6.96134 0
M  V30 25692 H 2564.41 -0.53642 -7.58305 0
M  V30 25693 N 2565.98 1.46745 0.574784 0
M  V30 25694 C 2566.91 1.53949 1.69801 0
M  V30 25695 C 2567.93 0.427134 1.57097 0
M  V30 25696 O 2569.12 0.695892 1.64376 0
M  V30 25697 C 2566.22 1.41116 3.08123 0
M  V30 25698 C 2565.39 2.66611 3.46753 0
M  V30 25699 C 2564.45 2.47864 4.64166 0
M  V30 25700 O 2563.47 3.21617 4.69629 0
M  V30 25701 N 2564.68 1.54544 5.5955 0
M  V30 25702 H 2567.44 2.50799 1.64073 0
M  V30 25703 H 2565 1.42901 0.760975 0
M  V30 25704 H 2566.99 1.26334 3.84476 0
M  V30 25705 H 2565.56 0.524163 3.08174 0
M  V30 25706 H 2564.78 2.96278 2.60025 0
M  V30 25707 H 2566.07 3.4996 3.69331 0
M  V30 25708 H 2565.47 0.937402 5.57879 0
M  V30 25709 H 2564.03 1.45722 6.35302 0
M  V30 25710 N 2567.46 -0.820078 1.34583 0
M  V30 25711 C 2568.71 -1.57879 1.27287 0
M  V30 25712 C 2569.04 -1.93572 -0.156103 0
M  V30 25713 O 2568.31 -1.60256 -1.10219 0
M  V30 25714 C 2568.6 -2.87641 2.16644 0
M  V30 25715 C 2568.45 -2.5851 3.68093 0
M  V30 25716 C 2569.77 -3.89236 2.05385 0
M  V30 25717 H 2566.89 -0.572825 0.463725 0
M  V30 25718 H 2569.53 -0.94451 1.64861 0
M  V30 25719 H 2567.68 -3.4177 1.84731 0
M  V30 25720 H 2569.35 -2.10669 4.10386 0
M  V30 25721 H 2567.59 -1.9191 3.89041 0
M  V30 25722 H 2568.27 -3.51056 4.25986 0
M  V30 25723 H 2570.74 -3.44469 2.33411 0
M  V30 25724 H 2569.62 -4.7783 2.70128 0
M  V30 25725 H 2569.88 -4.29894 1.03168 0
M  V30 25726 N 2568.94 -1.18359 -1.04062 0
M  V30 25727 C 2570.17 -1.00387 -1.80915 0
M  V30 25728 C 2570.58 0.447706 -1.83415 0
M  V30 25729 O 2569.94 1.31097 -1.26964 0
M  V30 25730 C 2569.99 -1.55149 -3.26513 0
M  V30 25731 O 2569.71 -2.94624 -3.24235 0
M  V30 25732 C 2571.21 -1.41796 -4.2001 0
M  V30 25733 H 2568.43 -0.354484 -0.569721 0
M  V30 25734 H 2570.97 -1.56909 -1.31149 0
M  V30 25735 H 2569.13 -1.02804 -3.7351 0
M  V30 25736 H 2569.54 -3.20164 -4.15446 0
M  V30 25737 H 2571.02 -1.84911 -5.20108 0
M  V30 25738 H 2571.49 -0.366687 -4.37667 0
M  V30 25739 H 2572.1 -1.93214 -3.78878 0
M  V30 25740 N 2570.42 1.22976 -0.98563 0
M  V30 25741 C 2571.38 2.22866 -0.53511 0
M  V30 25742 C 2572.38 1.56292 0.378096 0
M  V30 25743 O 2573.57 1.73358 0.171061 0
M  V30 25744 C 2570.7 3.40172 0.222642 0
M  V30 25745 H 2571.89 2.64238 -1.4184 0
M  V30 25746 H 2569.45 1.359 -0.772066 0
M  V30 25747 H 2570.18 3.04264 1.12224 0
M  V30 25748 H 2569.97 3.89702 -0.432948 0
M  V30 25749 H 2571.46 4.14271 0.526262 0
M  V30 25750 N 2571.89 0.757924 1.38178 0
M  V30 25751 C 2572.82 0.148638 2.33026 0
M  V30 25752 C 2573.8 -0.698723 1.55087 0
M  V30 25753 O 2574.99 -0.63902 1.83385 0
M  V30 25754 C 2572.12 -0.741975 3.39282 0
M  V30 25755 C 2571.07 0.00299469 4.28 0
M  V30 25756 C 2570.4 -1.00615 5.25148 0
M  V30 25757 C 2571.7 1.17394 5.08936 0
M  V30 25758 H 2573.39 0.940959 2.84229 0
M  V30 25759 H 2570.94 0.453932 1.36658 0
M  V30 25760 H 2572.89 -1.17792 4.04602 0
M  V30 25761 H 2571.62 -1.56666 2.86571 0
M  V30 25762 H 2570.28 0.419568 3.64191 0
M  V30 25763 H 2569.92 -1.82502 4.68724 0
M  V30 25764 H 2569.62 -0.512325 5.85362 0
M  V30 25765 H 2571.15 -1.44133 5.93345 0
M  V30 25766 H 2572.56 0.815324 5.67473 0
M  V30 25767 H 2570.96 1.59892 5.78407 0
M  V30 25768 H 2572.03 1.98475 4.4242 0
M  V30 25769 N 2573.37 -1.4921 0.507345 0
M  V30 25770 C 2574.34 -2.27758 -0.256723 0
M  V30 25771 C 2575.34 -1.34039 -0.888264 0
M  V30 25772 O 2576.53 -1.57141 -0.751813 0
M  V30 25773 C 2573.66 -3.12204 -1.36899 0
M  V30 25774 H 2574.85 -2.96763 0.432609 0
M  V30 25775 H 2572.4 -1.5408 0.262515 0
M  V30 25776 H 2573.14 -2.47778 -2.09228 0
M  V30 25777 H 2572.92 -3.81117 -0.921532 0
M  V30 25778 H 2574.41 -3.71513 -1.90704 0
M  V30 25779 N 2574.85 -0.241454 -1.55739 0
M  V30 25780 C 2576.1 0.384041 -1.98418 0
M  V30 25781 C 2576.42 1.58864 -1.13081 0
M  V30 25782 O 2575.69 1.94746 -0.212346 0
M  V30 25783 H 2574.27 0.144881 -0.732815 0
M  V30 25784 H 2576.93 -0.338977 -1.9193 0
M  V30 25785 H 2576.03 0.696886 -3.0422 0
M  V30 25786 N 2576.33 1.57568 0.0317248 0
M  V30 25787 C 2577.61 1.80302 0.758334 0
M  V30 25788 C 2577.99 0.838879 1.93716 0
M  V30 25789 O 2577.33 -0.119531 2.28187 0
M  V30 25790 C 2577.54 3.27945 1.19387 0
M  V30 25791 C 2578.89 3.92856 1.61087 0
M  V30 25792 O 2579.92 3.32078 1.28851 0
M  V30 25793 O 2578.77 4.99861 2.20909 0
M  V30 25794 H 2575.87 0.741354 0.366501 0
M  V30 25795 H 2578.41 1.69698 0.00870782 0
M  V30 25796 H 2577.19 3.89712 0.352207 0
M  V30 25797 H 2576.81 3.43427 2.00359 0
M  V30 25798 N 2577.81 -0.303946 1.54641 0
M  V30 25799 C 2578.74 -1.39633 1.81756 0
M  V30 25800 C 2579.75 -1.46965 0.700376 0
M  V30 25801 O 2580.94 -1.49336 0.977807 0
M  V30 25802 C 2578.04 -2.78027 1.93789 0
M  V30 25803 C 2577.21 -2.93663 3.24161 0
M  V30 25804 C 2576.27 -4.12538 3.26648 0
M  V30 25805 O 2575.3 -4.04764 4.00194 0
M  V30 25806 N 2576.5 -5.23032 2.51829 0
M  V30 25807 H 2579.27 -1.16729 2.76033 0
M  V30 25808 H 2576.83 -0.494006 1.54179 0
M  V30 25809 H 2578.82 -3.55792 1.92858 0
M  V30 25810 H 2577.39 -2.93891 1.0652 0
M  V30 25811 H 2576.61 -2.03036 3.37891 0
M  V30 25812 H 2577.9 -3.0102 4.10201 0
M  V30 25813 H 2577.29 -5.32228 1.91702 0
M  V30 25814 H 2575.85 -5.99142 2.56654 0
M  V30 25815 N 2579.28 -1.47047 -0.566994 0
M  V30 25816 C 2580.7 -1.47145 -1.14914 0
M  V30 25817 C 2581.05 -0.220801 -1.94954 0
M  V30 25818 O 2580.17 0.675014 -2.05603 0
M  V30 25819 C 2580.77 -2.66604 -2.09065 0
M  V30 25820 C 2579.33 -2.69692 -2.6257 0
M  V30 25821 C 2578.47 -2.40091 -1.38751 0
M  V30 25822 H 2581.42 -1.54699 -0.354099 0
M  V30 25823 H 2581.44 -2.43017 -2.92785 0
M  V30 25824 H 2580.96 -3.57612 -1.50782 0
M  V30 25825 H 2579.06 -1.82797 -3.24678 0
M  V30 25826 H 2579.17 -3.70107 -3.04232 0
M  V30 25827 H 2577.53 -1.90471 -1.69095 0
M  V30 25828 H 2578.32 -3.33295 -0.822763 0
M  V30 25829 N 2580.76 0.812929 -1.35016 0
M  V30 25830 C 2581.99 1.60636 -1.3119 0
M  V30 25831 C 2582.41 1.87782 0.109349 0
M  V30 25832 O 2581.77 1.46049 1.07421 0
M  V30 25833 C 2581.82 2.91834 -2.11814 0
M  V30 25834 O 2580.92 3.84367 -1.49451 0
M  V30 25835 H 2580.26 0.488173 -0.450092 0
M  V30 25836 H 2582.79 1.00944 -1.77965 0
M  V30 25837 H 2582.8 3.41314 -2.23537 0
M  V30 25838 H 2581.48 2.71401 -3.15142 0
M  V30 25839 H 2580.06 3.42904 -1.4653 0
M  V30 25840 N 2582.24 1.18909 1.03433 0
M  V30 25841 C 2583.49 0.989829 1.77003 0
M  V30 25842 C 2583.82 -0.478783 1.88205 0
M  V30 25843 O 2583.09 -1.35553 1.39483 0
M  V30 25844 C 2583.38 1.65293 3.19922 0
M  V30 25845 C 2583.23 3.19482 3.16625 0
M  V30 25846 C 2584.55 1.37141 4.18187 0
M  V30 25847 H 2581.67 0.361002 0.642531 0
M  V30 25848 H 2584.31 1.46669 1.20782 0
M  V30 25849 H 2582.46 1.24747 3.67927 0
M  V30 25850 H 2584.13 3.69205 2.7656 0
M  V30 25851 H 2582.38 3.51311 2.54485 0
M  V30 25852 H 2583.05 3.61021 4.17574 0
M  V30 25853 H 2585.52 1.72283 3.78758 0
M  V30 25854 H 2584.4 1.86096 5.16391 0
M  V30 25855 H 2584.66 0.295502 4.41111 0
M  V30 25856 N 2583.72 -1.22452 0.992137 0
M  V30 25857 C 2584.65 -2.23678 0.500063 0
M  V30 25858 C 2585.66 -1.57696 -0.404435 0
M  V30 25859 O 2586.85 -1.77299 -0.206691 0
M  V30 25860 C 2583.95 -3.37617 -0.294651 0
M  V30 25861 C 2583.13 -4.33185 0.605799 0
M  V30 25862 C 2582.18 -5.26021 -0.137077 0
M  V30 25863 O 2581.21 -5.67196 0.477263 0
M  V30 25864 N 2582.41 -5.62874 -1.4196 0
M  V30 25865 H 2585.18 -2.66528 1.3705 0
M  V30 25866 H 2582.74 -1.36744 0.866765 0
M  V30 25867 H 2584.73 -3.96709 -0.80026 0
M  V30 25868 H 2583.3 -2.93856 -1.06618 0
M  V30 25869 H 2582.52 -3.72423 1.29209 0
M  V30 25870 H 2583.81 -4.9398 1.21905 0
M  V30 25871 H 2583.21 -5.31393 -1.94006 0
M  V30 25872 H 2581.76 -6.24387 -1.87041 0
M  V30 25873 N 2585.2 -0.765242 -1.37774 0
M  V30 25874 C 2586.61 -0.392851 -1.8252 0
M  V30 25875 C 2586.96 1.08014 -1.63791 0
M  V30 25876 O 2586.08 1.83599 -1.14545 0
M  V30 25877 C 2586.68 -0.706272 -3.31357 0
M  V30 25878 C 2585.24 -0.387018 -3.74405 0
M  V30 25879 C 2584.38 -0.953468 -2.60393 0
M  V30 25880 H 2587.34 -0.960435 -1.26338 0
M  V30 25881 H 2587.36 0.0114037 -3.80498 0
M  V30 25882 H 2586.87 -1.77839 -3.44956 0
M  V30 25883 H 2584.97 0.678048 -3.66379 0
M  V30 25884 H 2585.08 -0.890719 -4.70747 0
M  V30 25885 H 2583.45 -0.378108 -2.51878 0
M  V30 25886 H 2584.23 -2.03085 -2.76787 0
M  V30 25887 N 2586.67 1.48939 -0.515251 0
M  V30 25888 C 2588.09 1.86565 -0.0710395 0
M  V30 25889 C 2588.44 1.42626 1.34731 0
M  V30 25890 O 2587.56 0.810414 2.00652 0
M  V30 25891 C 2588.16 3.3858 -0.122142 0
M  V30 25892 C 2586.72 3.75453 0.266797 0
M  V30 25893 C 2585.86 2.72965 -0.488424 0
M  V30 25894 H 2588.81 1.41054 -0.727291 0
M  V30 25895 H 2588.83 3.74559 0.669752 0
M  V30 25896 H 2588.35 3.70529 -1.15455 0
M  V30 25897 H 2586.45 3.49115 1.3019 0
M  V30 25898 H 2586.56 4.79059 -0.0625653 0
M  V30 25899 H 2584.92 2.54621 0.0635174 0
M  V30 25900 H 2585.71 3.07758 -1.52118 0
M  V30 25901 N 2588.15 0.249709 1.55609 0
M  V30 25902 C 2589.08 -0.642787 2.24478 0
M  V30 25903 C 2590.06 -1.17909 1.22603 0
M  V30 25904 O 2591.25 -1.21792 1.51263 0
M  V30 25905 C 2588.38 -1.83858 2.94641 0
M  V30 25906 C 2587.33 -1.43493 4.03229 0
M  V30 25907 C 2586.66 -2.71178 4.60833 0
M  V30 25908 C 2587.96 -0.60391 5.18797 0
M  V30 25909 H 2589.65 -0.0685099 2.99322 0
M  V30 25910 H 2587.2 -0.031511 1.43966 0
M  V30 25911 H 2589.15 -2.46862 3.41522 0
M  V30 25912 H 2587.88 -2.43828 2.17291 0
M  V30 25913 H 2586.54 -0.828212 3.57122 0
M  V30 25914 H 2586.18 -3.29352 3.8018 0
M  V30 25915 H 2585.88 -2.44892 5.34137 0
M  V30 25916 H 2587.41 -3.35075 5.10448 0
M  V30 25917 H 2588.82 -1.13832 5.61885 0
M  V30 25918 H 2587.22 -0.436992 5.98507 0
M  V30 25919 H 2588.29 0.383232 4.83383 0
M  V30 25920 N 2589.63 -1.57583 -0.0233682 0
M  V30 25921 C 2591.05 -1.55032 -0.379107 0
M  V30 25922 C 2591.25 -0.976579 -1.76253 0
M  V30 25923 O 2590.3 -0.600121 -2.45265 0
M  V30 25924 C 2591.62 -2.99433 -0.275739 0
M  V30 25925 C 2593.16 -3.1101 -0.352403 0
M  V30 25926 C 2593.64 -4.57153 -0.278421 0
M  V30 25927 N 2595.13 -4.61972 -0.337041 0
M  V30 25928 C 2595.87 -5.726 -0.302775 0
M  V30 25929 N 2595.36 -6.92449 -0.220468 0
M  V30 25930 N 2597.15 -5.60991 -0.352924 0
M  V30 25931 H 2589.31 -1.93226 0.881903 0
M  V30 25932 H 2591.57 -0.886503 0.335882 0
M  V30 25933 H 2591.27 -3.45158 0.675168 0
M  V30 25934 H 2591.15 -3.6179 -1.06714 0
M  V30 25935 H 2593.54 -2.65229 -1.29375 0
M  V30 25936 H 2593.62 -2.51474 0.468453 0
M  V30 25937 H 2593.26 -5.03603 0.659278 0
M  V30 25938 H 2593.19 -5.14607 -1.11746 0
M  V30 25939 H 2595.68 -3.75746 -0.402936 0
M  V30 25940 H 2595.99 -7.72542 -0.199577 0
M  V30 25941 H 2594.34 -6.9475 -0.186433 0
M  V30 25942 H 2597.53 -4.66254 -0.415258 0
M  V30 25943 H 2597.7 -6.47196 -0.322752 0
M  V30 25944 N 2591.11 0.29574 -1.548 0
M  V30 25945 C 2592.33 1.05343 -1.78655 0
M  V30 25946 C 2592.76 1.79973 -0.546926 0
M  V30 25947 O 2592.12 1.7419 0.502732 0
M  V30 25948 C 2592.17 2.00555 -2.99683 0
M  V30 25949 O 2591.27 3.08948 -2.73176 0
M  V30 25950 H 2590.61 0.302356 -0.591166 0
M  V30 25951 H 2593.14 0.331562 -2.01896 0
M  V30 25952 H 2593.15 2.42926 -3.27797 0
M  V30 25953 H 2591.83 1.45643 -3.89565 0
M  V30 25954 H 2590.4 2.71055 -2.56093 0
M  V30 25955 N 2592.59 1.47346 0.559187 0
M  V30 25956 C 2593.52 1.55741 1.68158 0
M  V30 25957 C 2594.53 0.443772 1.56635 0
M  V30 25958 O 2595.72 0.713287 1.63629 0
M  V30 25959 C 2592.82 1.44376 3.06609 0
M  V30 25960 C 2591.99 2.70274 3.43905 0
M  V30 25961 C 2591.05 2.52773 4.61511 0
M  V30 25962 O 2590.08 3.2658 4.66191 0
M  V30 25963 N 2591.28 1.6047 5.5788 0
M  V30 25964 H 2594.05 2.52525 1.61403 0
M  V30 25965 H 2591.61 1.437 0.745775 0
M  V30 25966 H 2593.6 1.30405 3.83114 0
M  V30 25967 H 2592.17 0.55682 3.07601 0
M  V30 25968 H 2591.39 2.99019 2.56868 0
M  V30 25969 H 2592.68 3.53858 3.65598 0
M  V30 25970 H 2592.08 0.99652 5.56854 0
M  V30 25971 H 2590.63 1.52452 6.3372 0
M  V30 25972 N 2594.07 -0.805758 1.35445 0
M  V30 25973 C 2595 -1.92575 1.24288 0
M  V30 25974 C 2596.01 -1.61952 0.16599 0
M  V30 25975 O 2597.2 -1.73505 0.419334 0
M  V30 25976 C 2594.3 -3.26969 0.89133 0
M  V30 25977 C 2593.47 -3.85492 2.06676 0
M  V30 25978 C 2592.53 -4.98294 1.69086 0
M  V30 25979 O 2591.56 -5.15677 2.40969 0
M  V30 25980 N 2592.76 -5.77233 0.614971 0
M  V30 25981 H 2595.52 -2.02672 2.20781 0
M  V30 25982 H 2593.09 -0.98322 1.28625 0
M  V30 25983 H 2595.08 -3.99902 0.621326 0
M  V30 25984 H 2593.65 -3.12596 0.016059 0
M  V30 25985 H 2592.87 -3.04742 2.50052 0
M  V30 25986 H 2594.16 -4.21323 2.85245 0
M  V30 25987 H 2593.55 -5.65697 0.0177474 0
M  V30 25988 H 2592.11 -6.50542 0.40475 0
M  V30 25989 N 2595.54 -1.19456 -1.02801 0
M  V30 25990 C 2596.47 -0.956795 -2.12997 0
M  V30 25991 C 2597.45 0.110159 -1.69743 0
M  V30 25992 O 2598.64 -0.0450379 -1.94148 0
M  V30 25993 C 2595.77 -0.495614 -3.43745 0
M  V30 25994 C 2594.72 -1.5045 -4.00685 0
M  V30 25995 C 2594.05 -0.900368 -5.27065 0
M  V30 25996 C 2595.35 -2.88498 -4.35392 0
M  V30 25997 H 2597.04 -1.8784 -2.33145 0
M  V30 25998 H 2594.59 -0.904559 -1.12043 0
M  V30 25999 H 2596.54 -0.316567 -4.20209 0
M  V30 26000 H 2595.27 0.461589 -3.23322 0
M  V30 26001 H 2593.93 -1.67071 -3.26317 0
M  V30 26002 H 2593.57 0.0644145 -5.02959 0
M  V30 26003 H 2593.27 -1.57407 -5.66124 0
M  V30 26004 H 2594.8 -0.732136 -6.06195 0
M  V30 26005 H 2596.21 -2.75455 -5.0279 0
M  V30 26006 H 2594.61 -3.52669 -4.85535 0
M  V30 26007 H 2595.68 -3.41087 -3.44656 0
M  V30 26008 N 2597.02 1.21924 -0.998617 0
M  V30 26009 C 2597.98 2.22286 -0.558718 0
M  V30 26010 C 2598.98 1.56684 0.361498 0
M  V30 26011 O 2600.17 1.7353 0.152665 0
M  V30 26012 C 2597.31 3.40389 0.18655 0
M  V30 26013 H 2598.5 2.62718 -1.44634 0
M  V30 26014 H 2596.05 1.35074 -0.786437 0
M  V30 26015 H 2596.79 3.05437 1.0899 0
M  V30 26016 H 2596.57 3.89221 -0.474257 0
M  V30 26017 H 2598.06 4.14806 0.482294 0
M  V30 26018 N 2598.5 0.772537 1.37367 0
M  V30 26019 C 2599.91 0.402525 1.82309 0
M  V30 26020 C 2600.26 -1.07144 1.64362 0
M  V30 26021 O 2599.39 -1.82988 1.15517 0
M  V30 26022 C 2599.98 0.723835 3.30977 0
M  V30 26023 C 2598.54 0.406868 3.74195 0
M  V30 26024 C 2597.69 0.967264 2.59883 0
M  V30 26025 H 2600.64 0.967121 1.25827 0
M  V30 26026 H 2600.66 0.0087752 3.80499 0
M  V30 26027 H 2600.17 1.79666 3.44008 0
M  V30 26028 H 2598.27 -0.658608 3.66733 0
M  V30 26029 H 2598.39 0.915671 4.70268 0
M  V30 26030 H 2596.75 0.39146 2.51674 0
M  V30 26031 H 2597.53 2.04551 2.75706 0
M  V30 26032 N 2599.98 -1.48664 0.523142 0
M  V30 26033 C 2600.91 -2.27479 -0.280381 0
M  V30 26034 C 2601.92 -1.34947 -0.91067 0
M  V30 26035 O 2603.11 -1.60053 -0.790267 0
M  V30 26036 C 2600.21 -3.081 -1.41166 0
M  V30 26037 C 2599.38 -4.28362 -0.884567 0
M  V30 26038 C 2598.44 -4.90849 -1.89613 0
M  V30 26039 O 2597.47 -5.50268 -1.45581 0
M  V30 26040 N 2598.67 -4.82478 -3.22793 0
M  V30 26041 H 2601.44 -2.97078 0.395533 0
M  V30 26042 H 2599 -1.57914 0.357046 0
M  V30 26043 H 2600.99 -3.46774 -2.08639 0
M  V30 26044 H 2599.56 -2.40965 -1.99135 0
M  V30 26045 H 2598.78 -3.94185 -0.0340484 0
M  V30 26046 H 2600.07 -5.06226 -0.511179 0
M  V30 26047 H 2599.47 -4.35343 -3.61239 0
M  V30 26048 H 2598.02 -5.25272 -3.85918 0
M  V30 26049 N 2601.46 -0.257958 -1.55475 0
M  V30 26050 C 2602.69 0.366991 -2.03314 0
M  V30 26051 C 2603.09 1.51279 -1.13628 0
M  V30 26052 O 2602.44 1.83124 -0.145366 0
M  V30 26053 C 2602.5 0.926223 -3.47363 0
M  V30 26054 C 2602.16 -0.0887387 -4.56914 0
M  V30 26055 C 2603.16 -0.902213 -5.12012 0
M  V30 26056 C 2600.84 -0.218025 -5.01827 0
M  V30 26057 C 2602.84 -1.83132 -6.10525 0
M  V30 26058 C 2600.53 -1.15063 -6.0017 0
M  V30 26059 C 2601.52 -1.9558 -6.54399 0
M  V30 26060 O 2601.21 -2.87266 -7.50822 0
M  V30 26061 H 2600.94 0.0900325 -0.669978 0
M  V30 26062 H 2603.5 -0.382709 -2.01803 0
M  V30 26063 H 2601.73 1.72569 -3.46059 0
M  V30 26064 H 2603.42 1.46243 -3.7864 0
M  V30 26065 H 2604.18 -0.812975 -4.78138 0
M  V30 26066 H 2600.06 0.39864 -4.59273 0
M  V30 26067 H 2603.61 -2.4602 -6.52779 0
M  V30 26068 H 2599.5 -1.24075 -6.33463 0
M  V30 26069 H 2600.27 -2.81753 -7.68478 0
M  V30 26070 N 2602.93 1.57593 0.0150108 0
M  V30 26071 C 2604.16 1.94176 0.71436 0
M  V30 26072 C 2604.58 0.858871 1.68133 0
M  V30 26073 O 2603.93 -0.163535 1.81766 0
M  V30 26074 C 2603.99 3.30738 1.45927 0
M  V30 26075 O 2603.71 4.34869 0.531091 0
M  V30 26076 C 2605.21 3.8169 2.2545 0
M  V30 26077 H 2602.43 0.640528 0.199912 0
M  V30 26078 H 2604.97 2.04476 -0.0316455 0
M  V30 26079 H 2603.13 3.21793 2.15703 0
M  V30 26080 H 2603.54 5.1378 1.055 0
M  V30 26081 H 2605.01 4.79714 2.73091 0
M  V30 26082 H 2605.49 3.13612 3.0748 0
M  V30 26083 H 2606.1 3.93763 1.6072 0
M  V30 26084 N 2604.41 -0.287527 1.54955 0
M  V30 26085 C 2605.64 -1.03813 1.78624 0
M  V30 26086 C 2606.05 -1.80954 0.552483 0
M  V30 26087 O 2605.39 -1.7711 -0.487634 0
M  V30 26088 C 2605.46 -2.05494 2.94979 0
M  V30 26089 C 2605.12 -1.47425 4.32568 0
M  V30 26090 C 2606.12 -0.897346 5.12097 0
M  V30 26091 C 2603.8 -1.50583 4.79197 0
M  V30 26092 C 2605.8 -0.359739 6.36384 0
M  V30 26093 C 2603.48 -0.964353 6.03443 0
M  V30 26094 C 2604.48 -0.392294 6.81872 0
M  V30 26095 O 2604.17 0.140929 8.03776 0
M  V30 26096 H 2603.9 -0.313043 0.59915 0
M  V30 26097 H 2606.45 -0.328189 2.02761 0
M  V30 26098 H 2604.68 -2.80207 2.66498 0
M  V30 26099 H 2606.37 -2.66565 3.06101 0
M  V30 26100 H 2607.14 -0.865757 4.7721 0
M  V30 26101 H 2603.02 -1.94048 4.1817 0
M  V30 26102 H 2606.56 0.0874177 6.97545 0
M  V30 26103 H 2602.46 -0.993133 6.37814 0
M  V30 26104 H 2603.23 0.0289056 8.18495 0
M  V30 26105 N 2605.89 -1.47641 -0.551365 0
M  V30 26106 C 2606.85 -1.6011 -1.64004 0
M  V30 26107 C 2607.85 -0.475787 -1.536 0
M  V30 26108 O 2609.04 -0.741016 -1.57653 0
M  V30 26109 C 2606.18 -1.55113 -3.03567 0
M  V30 26110 H 2607.37 -2.57163 -1.54295 0
M  V30 26111 H 2604.92 -1.35918 -0.771752 0
M  V30 26112 H 2605.66 -0.594576 -3.18803 0
M  V30 26113 H 2605.44 -2.36789 -3.12527 0
M  V30 26114 H 2606.93 -1.66989 -3.82759 0
M  V30 26115 N 2607.37 0.798563 -1.3587 0
M  V30 26116 C 2608.3 1.91913 -1.25308 0
M  V30 26117 C 2609.31 1.61861 -0.174577 0
M  V30 26118 O 2610.5 1.7328 -0.428529 0
M  V30 26119 C 2607.6 3.26491 -0.908657 0
M  V30 26120 C 2606.78 3.8439 -2.08718 0
M  V30 26121 C 2605.83 4.9739 -1.71726 0
M  V30 26122 O 2604.86 5.14391 -2.43701 0
M  V30 26123 N 2606.06 5.76899 -0.645574 0
M  V30 26124 H 2608.83 2.01498 -2.21853 0
M  V30 26125 H 2606.39 0.976385 -1.29145 0
M  V30 26126 H 2608.38 3.99567 -0.642525 0
M  V30 26127 H 2606.95 3.12583 -0.0326365 0
M  V30 26128 H 2606.17 3.03412 -2.51664 0
M  V30 26129 H 2607.46 4.19804 -2.87475 0
M  V30 26130 H 2606.86 5.6568 -0.0477474 0
M  V30 26131 H 2605.41 6.50318 -0.439244 0
M  V30 26132 N 2608.85 1.19999 1.02166 0
M  V30 26133 C 2610.09 1.00507 1.75336 0
M  V30 26134 C 2610.42 -0.464473 1.89388 0
M  V30 26135 O 2609.69 -1.33605 1.43271 0
M  V30 26136 H 2608.27 0.368896 0.649557 0
M  V30 26137 H 2610.93 1.51021 1.23202 0
M  V30 26138 H 2610.02 1.45917 2.75889 0
M  V30 26139 N 2610.32 -1.21392 1.00507 0
M  V30 26140 C 2611.57 -1.90085 0.686449 0
M  V30 26141 C 2611.89 -1.78491 -0.785233 0
M  V30 26142 O 2611.16 -1.17986 -1.56385 0
M  V30 26143 H 2609.74 -0.703599 0.250912 0
M  V30 26144 H 2612.41 -1.4748 1.27419 0
M  V30 26145 H 2611.5 -2.96979 0.959674 0
M  V30 26146 N 2611.8 -0.779811 -1.36955 0
M  V30 26147 C 2612.73 -0.12968 -2.28833 0
M  V30 26148 C 2613.75 0.655485 -1.49021 0
M  V30 26149 O 2614.94 0.492249 -1.71578 0
M  V30 26150 C 2612.04 0.839734 -3.28332 0
M  V30 26151 C 2611.21 0.106673 -4.3727 0
M  V30 26152 C 2610.27 0.990626 -5.16791 0
M  V30 26153 O 2609.29 0.451416 -5.67407 0
M  V30 26154 N 2610.5 2.31601 -5.32298 0
M  V30 26155 H 2613.26 -0.918853 -2.85267 0
M  V30 26156 H 2610.82 -0.632868 -1.49018 0
M  V30 26157 H 2612.81 1.4347 -3.78416 0
M  V30 26158 H 2611.38 1.52983 -2.72607 0
M  V30 26159 H 2610.6 -0.669285 -3.88477 0
M  V30 26160 H 2611.89 -0.399553 -5.07229 0
M  V30 26161 H 2611.29 2.77834 -4.92772 0
M  V30 26162 H 2609.85 2.86085 -5.85661 0
M  V30 26163 N 2613.28 1.48384 -0.531019 0
M  V30 26164 C 2614.21 2.27624 0.268313 0
M  V30 26165 C 2615.23 1.35428 0.903501 0
M  V30 26166 O 2616.41 1.6047 0.781768 0
M  V30 26167 C 2613.51 3.08844 1.3953 0
M  V30 26168 C 2612.69 4.28825 0.861837 0
M  V30 26169 C 2611.75 4.91848 1.87008 0
M  V30 26170 O 2610.77 5.51032 1.4266 0
M  V30 26171 N 2611.97 4.84183 3.20229 0
M  V30 26172 H 2614.74 2.96865 -0.411283 0
M  V30 26173 H 2612.3 1.57722 -0.365415 0
M  V30 26174 H 2614.29 3.47875 2.06797 0
M  V30 26175 H 2612.86 2.42017 1.97854 0
M  V30 26176 H 2612.08 3.94198 0.0131433 0
M  V30 26177 H 2613.37 5.0649 0.484326 0
M  V30 26178 H 2612.77 4.37252 3.58925 0
M  V30 26179 H 2611.33 5.27311 3.83127 0
M  V30 26180 N 2614.76 0.2662 1.55336 0
M  V30 26181 C 2615.99 -0.35672 2.03802 0
M  V30 26182 C 2616.4 -1.50127 1.14487 0
M  V30 26183 O 2615.76 -1.81769 0.163153 0
M  V30 26184 C 2615.81 -0.846219 3.51456 0
M  V30 26185 O 2615.53 0.25274 4.3737 0
M  V30 26186 C 2617.03 -1.53787 4.1577 0
M  V30 26187 H 2614.25 -0.0825101 0.665908 0
M  V30 26188 H 2616.8 0.395695 2.00635 0
M  V30 26189 H 2614.95 -1.54875 3.55095 0
M  V30 26190 H 2615.36 -0.122081 5.24358 0
M  V30 26191 H 2616.84 -1.83188 5.20717 0
M  V30 26192 H 2617.32 -2.4664 3.63408 0
M  V30 26193 H 2617.92 -0.879415 4.16109 0
M  V30 26194 N 2616.24 -1.57599 -0.0066531 0
M  V30 26195 C 2617.48 -1.914 -0.688316 0
M  V30 26196 C 2617.84 -0.867191 -1.71749 0
M  V30 26197 O 2617.13 0.121441 -1.91215 0
M  V30 26198 C 2617.32 -3.29711 -1.37933 0
M  V30 26199 C 2617.15 -4.47747 -0.41861 0
M  V30 26200 C 2615.92 -5.0529 -0.0314371 0
M  V30 26201 C 2618.12 -5.1335 0.312391 0
M  V30 26202 N 2616.1 -6.06842 0.928195 0
M  V30 26203 C 2617.47 -6.09672 1.12693 0
M  V30 26204 C 2619.53 -4.96471 0.37694 0
M  V30 26205 C 2618.23 -6.90933 2.00012 0
M  V30 26206 C 2620.26 -5.78311 1.23733 0
M  V30 26207 C 2619.62 -6.74221 2.03974 0
M  V30 26208 H 2615.72 -0.748848 -0.225279 0
M  V30 26209 H 2618.3 -1.9463 0.0521315 0
M  V30 26210 H 2616.47 -3.27367 -2.09011 0
M  V30 26211 H 2618.21 -3.50961 -2.01516 0
M  V30 26212 H 2614.96 -4.71921 -0.398402 0
M  V30 26213 H 2615.39 -6.62299 1.40318 0
M  V30 26214 H 2620.03 -4.22179 -0.229136 0
M  V30 26215 H 2617.75 -7.64555 2.6169 0
M  V30 26216 H 2621.33 -5.67293 1.2911 0
M  V30 26217 H 2620.21 -7.36447 2.69474 0
M  V30 26218 N 2617.72 0.279305 -1.55105 0
M  V30 26219 C 2618.68 1.32831 -1.86785 0
M  V30 26220 C 2619.68 1.42656 -0.742015 0
M  V30 26221 O 2620.87 1.41916 -1.01022 0
M  V30 26222 C 2618 2.71048 -2.0675 0
M  V30 26223 H 2619.19 1.05974 -2.80552 0
M  V30 26224 H 2616.75 0.517061 -1.475 0
M  V30 26225 H 2617.48 3.03095 -1.15344 0
M  V30 26226 H 2617.27 2.65303 -2.88715 0
M  V30 26227 H 2618.76 3.46854 -2.32555 0
M  V30 26228 N 2619.19 1.47931 0.543528 0
M  V30 26229 C 2620.6 1.48955 1.12558 0
M  V30 26230 C 2620.96 0.251788 1.94578 0
M  V30 26231 O 2620.08 -0.642219 2.06651 0
M  V30 26232 C 2620.68 2.69896 2.04797 0
M  V30 26233 C 2619.23 2.73835 2.58246 0
M  V30 26234 C 2618.38 2.42268 1.34914 0
M  V30 26235 H 2621.33 1.55243 0.329443 0
M  V30 26236 H 2621.35 2.47644 2.88882 0
M  V30 26237 H 2620.87 3.59965 1.45074 0
M  V30 26238 H 2618.97 1.8794 3.21729 0
M  V30 26239 H 2619.08 3.74901 2.98306 0
M  V30 26240 H 2617.44 1.93137 1.66043 0
M  V30 26241 H 2618.23 3.34562 0.769634 0
M  V30 26242 N 2620.67 -0.791347 1.36292 0
M  V30 26243 C 2621.58 -1.93525 1.32609 0
M  V30 26244 C 2622.6 -1.72492 0.228572 0
M  V30 26245 O 2623.77 -1.96062 0.460605 0
M  V30 26246 C 2620.84 -3.28357 1.11277 0
M  V30 26247 C 2619.9 -3.62181 2.30486 0
M  V30 26248 C 2619.13 -4.90579 2.10162 0
M  V30 26249 O 2619.36 -5.60163 1.07582 0
M  V30 26250 O 2618.29 -5.23014 2.97893 0
M  V30 26251 H 2622.12 -1.99581 2.28913 0
M  V30 26252 H 2619.7 -0.931323 1.16819 0
M  V30 26253 H 2621.58 -4.09045 1.01291 0
M  V30 26254 H 2620.26 -3.23197 0.180349 0
M  V30 26255 H 2619.16 -2.81806 2.46041 0
M  V30 26256 H 2620.5 -3.72062 3.22228 0
M  V30 26257 N 2622.15 -1.2054 -1.01528 0
M  V30 26258 C 2623.57 -0.960533 -1.2746 0
M  V30 26259 C 2623.77 0.359158 -1.98273 0
M  V30 26260 O 2622.82 1.08736 -2.27887 0
M  V30 26261 C 2624.13 -2.14406 -2.10833 0
M  V30 26262 C 2625.68 -2.18519 -2.24095 0
M  V30 26263 C 2626.16 -3.36361 -3.10846 0
M  V30 26264 N 2627.65 -3.36383 -3.18435 0
M  V30 26265 C 2628.38 -4.24212 -3.85787 0
M  V30 26266 N 2627.88 -5.22221 -4.55255 0
M  V30 26267 N 2629.67 -4.12049 -3.82324 0
M  V30 26268 H 2621.82 -2.05424 -0.539871 0
M  V30 26269 H 2624.09 -0.898978 -0.300904 0
M  V30 26270 H 2623.79 -3.09985 -1.66138 0
M  V30 26271 H 2623.67 -2.12609 -3.11572 0
M  V30 26272 H 2626.05 -1.23501 -2.68014 0
M  V30 26273 H 2626.13 -2.24363 -1.22861 0
M  V30 26274 H 2625.78 -4.31665 -2.67633 0
M  V30 26275 H 2625.71 -3.27754 -4.12171 0
M  V30 26276 H 2628.2 -2.65447 -2.68973 0
M  V30 26277 H 2628.51 -5.8556 -5.04321 0
M  V30 26278 H 2626.86 -5.26156 -4.54076 0
M  V30 26279 H 2630.05 -3.34749 -3.27201 0
M  V30 26280 H 2630.22 -4.80708 -4.34539 0
M  V30 26281 N 2623.63 1.20858 -1.01149 0
M  V30 26282 C 2625.04 1.71827 -0.730235 0
M  V30 26283 C 2625.39 1.81232 0.751631 0
M  V30 26284 O 2624.51 1.47135 1.58683 0
M  V30 26285 C 2625.11 3.12074 -1.3189 0
M  V30 26286 C 2623.67 3.60374 -1.08662 0
M  V30 26287 C 2622.82 2.3772 -1.42774 0
M  V30 26288 H 2625.77 1.05943 -1.1816 0
M  V30 26289 H 2625.79 3.73877 -0.706859 0
M  V30 26290 H 2625.3 3.05197 -2.39742 0
M  V30 26291 H 2623.4 3.72591 -0.0255469 0
M  V30 26292 H 2623.51 4.4548 -1.76308 0
M  V30 26293 H 2621.88 2.40217 -0.846645 0
M  V30 26294 H 2622.66 2.33489 -2.5167 0
M  V30 26295 N 2625.11 0.787064 1.3654 0
M  V30 26296 C 2626.04 0.198033 2.32659 0
M  V30 26297 C 2627.02 -0.665669 1.56534 0
M  V30 26298 O 2628.2 -0.599978 1.84699 0
M  V30 26299 C 2625.33 -0.669841 3.40779 0
M  V30 26300 C 2624.29 0.0937791 4.27897 0
M  V30 26301 C 2623.61 -0.894536 5.27164 0
M  V30 26302 C 2624.91 1.28163 5.06332 0
M  V30 26303 H 2626.61 1.00104 2.82169 0
M  V30 26304 H 2624.15 0.482817 1.35665 0
M  V30 26305 H 2626.1 -1.09184 4.0701 0
M  V30 26306 H 2624.83 -1.50553 2.8983 0
M  V30 26307 H 2623.49 0.496724 3.63219 0
M  V30 26308 H 2623.14 -1.72519 4.72489 0
M  V30 26309 H 2622.84 -0.388046 5.86317 0
M  V30 26310 H 2624.36 -1.31515 5.96269 0
M  V30 26311 H 2625.77 0.93551 5.65616 0
M  V30 26312 H 2624.17 1.72125 5.74885 0
M  V30 26313 H 2625.24 2.07815 4.38111 0
M  V30 26314 N 2626.58 -1.48101 0.53888 0
M  V30 26315 C 2627.83 -2.02798 0.0080493 0
M  V30 26316 C 2628.16 -1.41426 -1.33087 0
M  V30 26317 O 2627.44 -0.563191 -1.86168 0
M  V30 26318 C 2627.72 -3.59948 -0.104526 0
M  V30 26319 C 2627.57 -4.31786 1.2602 0
M  V30 26320 C 2628.89 -4.3226 -0.826979 0
M  V30 26321 H 2626.01 -0.736987 0.0043992 0
M  V30 26322 H 2628.65 -1.76729 0.697631 0
M  V30 26323 H 2626.8 -3.8229 -0.691825 0
M  V30 26324 H 2628.48 -4.20837 1.88929 0
M  V30 26325 H 2626.72 -3.92856 1.83975 0
M  V30 26326 H 2627.39 -5.40219 1.13433 0
M  V30 26327 H 2629.87 -4.14801 -0.328505 0
M  V30 26328 H 2628.74 -5.41886 -0.874665 0
M  V30 26329 H 2629 -4.00173 -1.8792 0
M  V30 26330 N 2628.06 -0.274434 -1.55192 0
M  V30 26331 C 2629.31 0.341867 -1.99188 0
M  V30 26332 C 2629.63 1.56429 -1.16425 0
M  V30 26333 O 2628.9 1.94251 -0.253607 0
M  V30 26334 H 2627.48 0.129304 -0.735724 0
M  V30 26335 H 2630.14 -0.379611 -1.91167 0
M  V30 26336 H 2629.24 0.632199 -3.0563 0
M  V30 26337 N 2629.54 1.576 -0.00170483 0
M  V30 26338 C 2630.79 1.90924 0.683798 0
M  V30 26339 C 2631.12 0.875829 1.73329 0
M  V30 26340 O 2630.39 -0.105216 1.94215 0
M  V30 26341 C 2630.68 3.34822 1.32537 0
M  V30 26342 C 2630.53 4.48881 0.287309 0
M  V30 26343 C 2631.85 3.78173 2.25107 0
M  V30 26344 H 2628.97 0.694337 0.247112 0
M  V30 26345 H 2631.61 1.89925 -0.0533483 0
M  V30 26346 H 2629.76 3.35804 1.95366 0
M  V30 26347 H 2631.43 4.60035 -0.341427 0
M  V30 26348 H 2629.67 4.32041 -0.390246 0
M  V30 26349 H 2630.35 5.46528 0.775297 0
M  V30 26350 H 2632.82 3.78753 1.72294 0
M  V30 26351 H 2631.7 4.79606 2.66963 0
M  V30 26352 H 2631.96 3.12136 3.13087 0
M  V30 26353 N 2631.02 -0.271076 1.55251 0
M  V30 26354 C 2631.97 -1.35501 1.89056 0
M  V30 26355 C 2632.96 -1.51037 0.76709 0
M  V30 26356 O 2634.17 -1.52798 0.951455 0
M  V30 26357 H 2630.54 -0.453219 0.60008 0
M  V30 26358 H 2632.51 -1.04242 2.796 0
M  V30 26359 C 2631.26 -2.70813 2.18072 0
M  V30 26360 H 2630.58 -2.5965 3.04009 0
M  V30 26361 H 2632.02 -3.45593 2.45646 0
M  V30 26362 C 2630.48 -3.22058 0.988957 0
M  V30 26363 O 2631.01 -4.01072 0.224571 0
M  V30 26364 N 2629.22 -2.79765 0.786135 0
M  V30 26365 H 2628.77 -2.15623 1.40941 0
M  V30 26366 H 2628.72 -3.14399 -0.00963823 0
M  V30 26367 N 2632.5 -1.48217 -0.535675 0
M  V30 26368 C 2633.74 -1.55636 -1.28925 0
M  V30 26369 C 2634.07 -0.229548 -1.93644 0
M  V30 26370 O 2633.34 0.748428 -1.8104 0
M  V30 26371 H 2631.92 -0.573351 -0.47883 0
M  V30 26372 H 2634.58 -1.84647 -0.623821 0
M  V30 26373 H 2633.67 -2.3344 -2.07153 0
M  V30 26374 N 2633.97 0.784108 -1.3671 0
M  V30 26375 C 2634.9 1.91114 -1.34156 0
M  V30 26376 C 2635.89 1.68772 -0.212151 0
M  V30 26377 O 2637.07 1.89809 -0.410615 0
M  V30 26378 C 2634.2 3.28216 -1.13541 0
M  V30 26379 C 2633.15 3.65094 -2.23362 0
M  V30 26380 C 2632.48 5.00603 -1.87884 0
M  V30 26381 C 2633.78 3.73125 -3.65479 0
M  V30 26382 H 2635.47 1.93508 -2.28463 0
M  V30 26383 H 2633.02 0.929599 -1.09975 0
M  V30 26384 H 2634.97 4.06685 -1.10388 0
M  V30 26385 H 2633.7 3.26223 -0.156861 0
M  V30 26386 H 2632.36 2.88925 -2.2565 0
M  V30 26387 H 2632 4.95137 -0.885902 0
M  V30 26388 H 2631.7 5.26247 -2.61415 0
M  V30 26389 H 2633.23 5.81486 -1.86296 0
M  V30 26390 H 2634.64 4.41773 -3.6539 0
M  V30 26391 H 2633.04 4.10257 -4.3796 0
M  V30 26392 H 2634.11 2.74095 -4 0
M  V30 26393 N 2635.45 1.21076 1.00888 0
M  V30 26394 C 2636.73 0.934499 1.71833 0
M  V30 26395 C 2637.11 -0.554717 2.03681 0
M  V30 26396 O 2636.46 -1.51851 1.70744 0
M  V30 26397 C 2636.67 1.81555 2.98058 0
M  V30 26398 C 2638.02 2.06206 3.71166 0
M  V30 26399 O 2639.04 1.78872 3.08031 0
M  V30 26400 O 2637.9 2.52412 4.84717 0
M  V30 26401 H 2634.99 0.350083 0.749247 0
M  V30 26402 H 2637.54 1.31987 1.06666 0
M  V30 26403 H 2636.31 2.8236 2.70903 0
M  V30 26404 H 2635.93 1.43075 3.70965 0
M  V30 26405 N 2636.93 -1.2032 1.01789 0
M  V30 26406 C 2638.18 -1.90002 0.709018 0
M  V30 26407 C 2638.51 -1.78731 -0.759541 0
M  V30 26408 O 2637.78 -1.17237 -1.55196 0
M  V30 26409 C 2638.07 -3.41346 1.14696 0
M  V30 26410 C 2637.92 -3.61544 2.67593 0
M  V30 26411 C 2639.24 -4.34183 0.719226 0
M  V30 26412 H 2636.36 -0.689974 0.259046 0
M  V30 26413 H 2639 -1.4169 1.26586 0
M  V30 26414 H 2637.15 -3.82623 0.673195 0
M  V30 26415 H 2638.82 -3.29511 3.22832 0
M  V30 26416 H 2637.07 -3.04971 3.08505 0
M  V30 26417 H 2637.74 -4.67638 2.93289 0
M  V30 26418 H 2640.21 -4.0056 1.12654 0
M  V30 26419 H 2639.09 -5.38692 1.05367 0
M  V30 26420 H 2639.35 -4.40472 -0.379034 0
M  V30 26421 N 2638.41 -0.794293 -1.3612 0
M  V30 26422 C 2639.64 -0.381025 -2.03361 0
M  V30 26423 C 2640.05 1.00413 -1.59883 0
M  V30 26424 O 2639.41 1.64489 -0.790544 0
M  V30 26425 C 2639.46 -0.440712 -3.58804 0
M  V30 26426 O 2639.18 -1.77125 -4.00697 0
M  V30 26427 C 2640.68 -0.0186896 -4.43296 0
M  V30 26428 H 2637.9 -0.156379 -0.652523 0
M  V30 26429 H 2640.45 -1.0745 -1.73997 0
M  V30 26430 H 2638.6 0.20439 -3.8686 0
M  V30 26431 H 2639.01 -1.72546 -4.95306 0
M  V30 26432 H 2640.49 -0.111585 -5.51887 0
M  V30 26433 H 2640.97 1.03453 -4.26842 0
M  V30 26434 H 2641.57 -0.636469 -4.20511 0
M  V30 26435 N 2639.89 1.47813 -0.546727 0
M  V30 26436 C 2641.11 2.07389 -0.0213045 0
M  V30 26437 C 2641.54 1.39825 1.2582 0
M  V30 26438 O 2640.89 0.469711 1.7511 0
M  V30 26439 C 2640.94 3.60206 0.168439 0
M  V30 26440 O 2640.05 3.93524 1.2334 0
M  V30 26441 H 2639.39 0.662361 -0.0466225 0
M  V30 26442 H 2641.92 1.89984 -0.759421 0
M  V30 26443 H 2641.93 4.06171 0.385911 0
M  V30 26444 H 2640.6 4.08782 -0.766147 0
M  V30 26445 H 2639.18 3.59318 0.997256 0
M  V30 26446 N 2641.36 0.28266 1.55044 0
M  V30 26447 C 2642.29 -0.595027 2.25791 0
M  V30 26448 C 2643.28 -1.15282 1.25076 0
M  V30 26449 O 2644.46 -1.18556 1.53812 0
M  V30 26450 C 2641.59 -1.77567 2.98475 0
M  V30 26451 C 2640.54 -1.34907 4.06182 0
M  V30 26452 C 2639.87 -2.61342 4.66481 0
M  V30 26453 C 2641.17 -0.49373 5.19961 0
M  V30 26454 H 2642.86 -0.00500391 2.994 0
M  V30 26455 H 2640.41 -0.00096669 1.44 0
M  V30 26456 H 2642.36 -2.39562 3.46681 0
M  V30 26457 H 2641.09 -2.39164 2.22414 0
M  V30 26458 H 2639.75 -0.752275 3.58799 0
M  V30 26459 H 2639.39 -3.21213 3.8708 0
M  V30 26460 H 2639.09 -2.33507 5.39211 0
M  V30 26461 H 2640.62 -3.24172 5.17441 0
M  V30 26462 H 2642.03 -1.01888 5.64173 0
M  V30 26463 H 2640.43 -0.309942 5.99299 0
M  V30 26464 H 2641.5 0.485678 4.82462 0
M  V30 26465 N 2642.84 -1.57597 0.0100627 0
M  V30 26466 C 2644.26 -1.55801 -0.346137 0
M  V30 26467 C 2644.46 -1.01375 -1.74142 0
M  V30 26468 O 2643.51 -0.652011 -2.43937 0
M  V30 26469 C 2644.83 -2.99951 -0.212163 0
M  V30 26470 C 2646.38 -3.11687 -0.286354 0
M  V30 26471 C 2646.85 -4.57641 -0.181389 0
M  V30 26472 N 2648.34 -4.62583 -0.238974 0
M  V30 26473 C 2649.08 -5.73113 -0.18125 0
M  V30 26474 N 2648.57 -6.92761 -0.0735392 0
M  V30 26475 N 2650.37 -5.61613 -0.23385 0
M  V30 26476 H 2642.52 -1.91312 0.92269 0
M  V30 26477 H 2644.78 -0.879179 0.354611 0
M  V30 26478 H 2644.49 -3.43649 0.74823 0
M  V30 26479 H 2644.36 -3.63972 -0.99016 0
M  V30 26480 H 2646.75 -2.67913 -1.2372 0
M  V30 26481 H 2646.83 -2.50424 0.521689 0
M  V30 26482 H 2646.47 -5.02091 0.765951 0
M  V30 26483 H 2646.4 -5.16862 -1.00805 0
M  V30 26484 H 2648.89 -3.76516 -0.323144 0
M  V30 26485 H 2649.21 -7.72792 -0.0356645 0
M  V30 26486 H 2647.55 -6.94989 -0.0390239 0
M  V30 26487 H 2650.74 -4.6703 -0.316265 0
M  V30 26488 H 2650.91 -6.47735 -0.1854 0
M  V30 26489 N 2644.32 0.262839 -1.55393 0
M  V30 26490 C 2645.73 0.833129 -1.6708 0
M  V30 26491 C 2646.08 1.86653 -0.604571 0
M  V30 26492 O 2645.21 2.14927 0.2521 0
M  V30 26493 C 2645.8 1.51792 -3.02894 0
M  V30 26494 C 2644.36 2.03611 -3.16575 0
M  V30 26495 C 2643.51 0.881655 -2.62911 0
M  V30 26496 H 2646.46 0.0389707 -1.58652 0
M  V30 26497 H 2646.48 2.38533 -2.9645 0
M  V30 26498 H 2645.99 0.765553 -3.80475 0
M  V30 26499 H 2644.09 2.81778 -2.43787 0
M  V30 26500 H 2644.21 2.24444 -4.23275 0
M  V30 26501 H 2642.57 1.27782 -2.20327 0
M  V30 26502 H 2643.35 0.14263 -3.43004 0
M  V30 26503 N 2645.8 1.48499 0.527807 0
M  V30 26504 C 2647.05 1.56627 1.28352 0
M  V30 26505 C 2647.37 0.24113 1.93 0
M  V30 26506 O 2646.63 -0.768767 1.79968 0
M  V30 26507 C 2646.93 2.65489 2.39271 0
M  V30 26508 C 2646.59 4.07856 1.92261 0
M  V30 26509 C 2645.26 4.46605 1.79158 0
M  V30 26510 C 2647.61 4.97066 1.56763 0
M  V30 26511 C 2644.94 5.72366 1.28895 0
M  V30 26512 C 2647.29 6.23319 1.07961 0
M  V30 26513 C 2645.95 6.60922 0.93477 0
M  V30 26514 H 2645.22 0.57314 0.469672 0
M  V30 26515 H 2647.87 1.82225 0.588749 0
M  V30 26516 H 2646.17 2.33759 3.14426 0
M  V30 26517 H 2647.87 2.68993 2.97395 0
M  V30 26518 H 2644.46 3.77256 2.03411 0
M  V30 26519 H 2648.64 4.67806 1.65745 0
M  V30 26520 H 2643.9 6.00223 1.1637 0
M  V30 26521 H 2648.07 6.9184 0.795653 0
M  V30 26522 H 2645.7 7.58258 0.543098 0
M  V30 26523 N 2647.28 -0.776847 1.37123 0
M  V30 26524 C 2648.55 -1.52419 1.22588 0
M  V30 26525 C 2648.93 -2.10308 -0.182689 0
M  V30 26526 O 2648.28 -1.95082 -1.18976 0
M  V30 26527 C 2648.49 -2.60914 2.31787 0
M  V30 26528 C 2649.84 -3.28455 2.69077 0
M  V30 26529 O 2650.86 -2.71205 2.30925 0
M  V30 26530 O 2649.72 -4.31948 3.34788 0
M  V30 26531 H 2646.82 -0.674827 0.478056 0
M  V30 26532 H 2649.36 -0.814249 1.48889 0
M  V30 26533 H 2648.14 -2.16221 3.26135 0
M  V30 26534 H 2647.76 -3.39513 2.06922 0
M  V30 26535 N 2648.76 -1.2161 -1.00244 0
M  V30 26536 C 2649.69 -1.00176 -2.10919 0
M  V30 26537 C 2650.67 0.0741288 -1.69938 0
M  V30 26538 O 2651.85 -0.0862094 -1.94009 0
M  V30 26539 C 2648.98 -0.568416 -3.42617 0
M  V30 26540 C 2647.94 -1.58916 -3.97404 0
M  V30 26541 C 2647.26 -1.01196 -5.25037 0
M  V30 26542 C 2648.56 -2.97668 -4.29175 0
M  V30 26543 H 2650.26 -1.92743 -2.29108 0
M  V30 26544 H 2647.8 -0.928121 -1.101 0
M  V30 26545 H 2649.75 -0.405629 -4.19443 0
M  V30 26546 H 2648.48 0.392904 -3.24228 0
M  V30 26547 H 2647.14 -1.73955 -3.227 0
M  V30 26548 H 2646.79 -0.0422849 -5.02982 0
M  V30 26549 H 2646.49 -1.6938 -5.62658 0
M  V30 26550 H 2648.01 -0.860554 -6.04505 0
M  V30 26551 H 2649.42 -2.86058 -4.96834 0
M  V30 26552 H 2647.82 -3.62889 -4.77945 0
M  V30 26553 H 2648.89 -3.48321 -3.37343 0
M  V30 26554 N 2650.23 1.19778 -1.02425 0
M  V30 26555 C 2651.48 1.89623 -0.719085 0
M  V30 26556 C 2651.81 1.79131 0.750052 0
M  V30 26557 O 2651.09 1.18058 1.54572 0
M  V30 26558 C 2651.37 3.40732 -1.16505 0
M  V30 26559 C 2651.22 3.6012 -2.69506 0
M  V30 26560 C 2652.54 4.33796 -0.742242 0
M  V30 26561 H 2649.66 0.68859 -0.262702 0
M  V30 26562 H 2652.3 1.41016 -1.27336 0
M  V30 26563 H 2650.45 3.82261 -0.693477 0
M  V30 26564 H 2652.13 3.27794 -3.24575 0
M  V30 26565 H 2650.37 3.0333 -3.10118 0
M  V30 26566 H 2651.04 4.66076 -2.95765 0
M  V30 26567 H 2653.52 3.99957 -1.14777 0
M  V30 26568 H 2652.39 5.38126 -1.08223 0
M  V30 26569 H 2652.65 4.40667 0.355669 0
M  V30 26570 N 2651.71 0.801501 1.35697 0
M  V30 26571 C 2652.96 0.376014 1.98164 0
M  V30 26572 C 2653.27 -1.06125 1.64307 0
M  V30 26573 O 2654.48 -1.5896 2.201 0
M  V30 26574 C 2652.94 0.621367 3.54495 0
M  V30 26575 C 2652.54 2.07083 3.97266 0
M  V30 26576 C 2654.29 0.260985 4.23697 0
M  V30 26577 C 2652.19 2.26221 5.46423 0
M  V30 26578 H 2651.12 0.136857 0.741476 0
M  V30 26579 H 2653.78 0.984842 1.54833 0
M  V30 26580 H 2652.16 -0.0573416 3.95958 0
M  V30 26581 H 2653.33 2.78694 3.66969 0
M  V30 26582 H 2651.65 2.3906 3.40939 0
M  V30 26583 H 2654.24 0.382088 5.33333 0
M  V30 26584 H 2654.59 -0.792272 4.08691 0
M  V30 26585 H 2655.12 0.893408 3.87638 0
M  V30 26586 H 2651.86 3.29973 5.6639 0
M  V30 26587 H 2651.38 1.59129 5.78306 0
M  V30 26588 H 2653.06 2.07524 6.12815 0
M  V30 26589 N 2653.19 -1.47521 0.554558 0
M  V30 26590 C 2654.6 -1.86311 0.120479 0
M  V30 26591 C 2654.95 -1.46148 -1.30902 0
M  V30 26592 O 2654.08 -0.863329 -1.98433 0
M  V30 26593 C 2654.67 -3.38137 0.211868 0
M  V30 26594 C 2653.23 -3.76029 -0.167158 0
M  V30 26595 C 2652.38 -2.71574 0.560624 0
M  V30 26596 H 2655.33 -1.39076 0.764433 0
M  V30 26597 H 2655.35 -3.76203 -0.570209 0
M  V30 26598 H 2654.86 -3.67338 1.25238 0
M  V30 26599 H 2652.96 -3.52444 -1.20888 0
M  V30 26600 H 2653.08 -4.78725 0.189557 0
M  V30 26601 H 2651.44 -2.547 0.00401313 0
M  V30 26602 H 2652.22 -3.03617 1.60224 0
M  V30 26603 N 2654.67 -0.290879 -1.54892 0
M  V30 26604 C 2655.91 0.321356 -1.99934 0
M  V30 26605 C 2656.24 1.5467 -1.1793 0
M  V30 26606 O 2655.5 1.94211 -0.240936 0
M  V30 26607 C 2655.8 0.732335 -3.49817 0
M  V30 26608 C 2655.46 -0.390135 -4.49209 0
M  V30 26609 C 2654.12 -0.698306 -4.76106 0
M  V30 26610 C 2656.48 -1.14571 -5.08451 0
M  V30 26611 C 2653.8 -1.76536 -5.59511 0
M  V30 26612 C 2656.16 -2.2026 -5.93016 0
M  V30 26613 C 2654.82 -2.51695 -6.18228 0
M  V30 26614 H 2654.09 0.117592 -0.73161 0
M  V30 26615 H 2656.74 -0.407872 -1.87106 0
M  V30 26616 H 2655.04 1.54149 -3.60202 0
M  V30 26617 H 2656.74 1.21705 -3.82085 0
M  V30 26618 H 2653.33 -0.139836 -4.28372 0
M  V30 26619 H 2657.51 -0.920887 -4.87682 0
M  V30 26620 H 2652.77 -2.01374 -5.77285 0
M  V30 26621 H 2656.94 -2.79272 -6.3795 0
M  V30 26622 H 2654.57 -3.34511 -6.82647 0
M  V30 26623 N 2656.15 1.57589 -0.0184203 0
M  V30 26624 C 2657.37 1.95648 0.673012 0
M  V30 26625 C 2657.79 0.894341 1.66274 0
M  V30 26626 O 2657.15 -0.124943 1.82072 0
M  V30 26627 C 2657.2 3.33759 1.38878 0
M  V30 26628 O 2656.92 4.35898 0.438729 0
M  V30 26629 C 2658.42 3.86386 2.17303 0
M  V30 26630 H 2655.64 0.644624 0.18628 0
M  V30 26631 H 2658.18 2.04362 -0.0750107 0
M  V30 26632 H 2656.34 3.26296 2.08829 0
M  V30 26633 H 2656.75 5.15902 0.945778 0
M  V30 26634 H 2658.23 4.85398 2.62854 0
M  V30 26635 H 2658.7 3.20064 3.00759 0
M  V30 26636 H 2659.31 3.97083 1.52332 0
M  V30 26637 N 2657.62 -0.254594 1.5553 0
M  V30 26638 C 2658.87 -0.981581 1.76204 0
M  V30 26639 C 2659.19 -1.86775 0.580916 0
M  V30 26640 O 2660.39 -2.63091 0.670494 0
M  V30 26641 C 2658.85 -1.79531 3.11924 0
M  V30 26642 C 2658.46 -0.956914 4.37661 0
M  V30 26643 C 2660.2 -2.51549 3.4194 0
M  V30 26644 C 2658.11 -1.76609 5.64414 0
M  V30 26645 H 2657.04 -0.370226 0.656848 0
M  V30 26646 H 2659.69 -0.236524 1.81969 0
M  V30 26647 H 2658.07 -2.58203 3.00245 0
M  V30 26648 H 2659.24 -0.213069 4.60307 0
M  V30 26649 H 2657.56 -0.350424 4.14923 0
M  V30 26650 H 2660.16 -3.12529 4.33855 0
M  V30 26651 H 2660.5 -3.22775 2.62911 0
M  V30 26652 H 2661.03 -1.79894 3.548 0
M  V30 26653 H 2657.77 -1.09772 6.46243 0
M  V30 26654 H 2657.29 -2.48542 5.45882 0
M  V30 26655 H 2658.97 -2.33516 6.0339 0
M  V30 26656 N 2659.1 -1.48777 -0.519925 0
M  V30 26657 C 2660.05 -1.64047 -1.6235 0
M  V30 26658 C 2661.02 -0.482279 -1.58944 0
M  V30 26659 O 2662.2 -0.707003 -1.77218 0
M  V30 26660 C 2659.34 -1.69552 -3.00576 0
M  V30 26661 C 2658.46 -2.96547 -3.1414 0
M  V30 26662 C 2657.59 -2.9315 -4.42986 0
M  V30 26663 C 2656.63 -4.14805 -4.50114 0
M  V30 26664 N 2655.77 -4.09428 -5.70363 0
M  V30 26665 H 2660.61 -2.58284 -1.48639 0
M  V30 26666 H 2658.14 -1.28078 -0.723493 0
M  V30 26667 H 2660.1 -1.70726 -3.80668 0
M  V30 26668 H 2658.73 -0.787973 -3.13035 0
M  V30 26669 H 2657.78 -3.05072 -2.27234 0
M  V30 26670 H 2659.1 -3.86533 -3.15268 0
M  V30 26671 H 2658.25 -2.92781 -5.3138 0
M  V30 26672 H 2656.99 -2.0091 -4.44395 0
M  V30 26673 H 2655.99 -4.15439 -3.60126 0
M  V30 26674 H 2657.22 -5.08216 -4.50436 0
M  V30 26675 H 2655.17 -3.20014 -5.72649 0
M  V30 26676 H 2655.08 -4.93129 -5.73027 0
M  V30 26677 H 2656.35 -4.13133 -6.61016 0
M  V30 26678 N 2660.58 0.769564 -1.37534 0
M  V30 26679 C 2661.53 1.88291 -1.33474 0
M  V30 26680 C 2662.5 1.64892 -0.19992 0
M  V30 26681 O 2663.68 1.86779 -0.389627 0
M  V30 26682 C 2660.82 3.25384 -1.14974 0
M  V30 26683 C 2659.93 3.60722 -2.37704 0
M  V30 26684 C 2659.07 4.87036 -2.1206 0
M  V30 26685 C 2658.11 5.15112 -3.30646 0
M  V30 26686 N 2657.25 6.32615 -3.04538 0
M  V30 26687 H 2662.09 1.91096 -2.28662 0
M  V30 26688 H 2659.62 0.934238 -1.13624 0
M  V30 26689 H 2661.58 4.04471 -1.02268 0
M  V30 26690 H 2660.21 3.21948 -0.23432 0
M  V30 26691 H 2659.26 2.76603 -2.61142 0
M  V30 26692 H 2660.57 3.77407 -3.26137 0
M  V30 26693 H 2659.73 5.74032 -1.96398 0
M  V30 26694 H 2658.47 4.7246 -1.20968 0
M  V30 26695 H 2657.47 4.26591 -3.46844 0
M  V30 26696 H 2658.7 5.31595 -4.22591 0
M  V30 26697 H 2656.64 6.19392 -2.16077 0
M  V30 26698 H 2656.56 6.49725 -3.86515 0
M  V30 26699 H 2657.83 7.22541 -2.92498 0
M  V30 26700 N 2662.06 1.22139 0.995977 0
M  V30 26701 C 2663.31 1.04203 1.73165 0
M  V30 26702 C 2663.63 -0.424197 1.9033 0
M  V30 26703 O 2662.9 -1.30536 1.46072 0
M  V30 26704 H 2661.48 0.382591 0.641586 0
M  V30 26705 H 2664.14 1.536 1.19971 0
M  V30 26706 H 2663.24 1.51736 2.72732 0
M  V30 26707 N 2663.54 -1.19233 1.03059 0
M  V30 26708 C 2664.45 -2.26178 0.622962 0
M  V30 26709 C 2665.46 -1.70523 -0.346083 0
M  V30 26710 O 2666.64 -2.00369 -0.203537 0
M  V30 26711 C 2663.7 -3.46695 -0.0181454 0
M  V30 26712 C 2662.76 -4.17524 0.998619 0
M  V30 26713 C 2662 -5.32288 0.388011 0
M  V30 26714 O 2662.22 -5.6464 -0.808569 0
M  V30 26715 O 2661.15 -5.91544 1.11171 0
M  V30 26716 H 2664.98 -2.6329 1.51368 0
M  V30 26717 H 2662.57 -1.2612 0.800878 0
M  V30 26718 H 2664.45 -4.19723 -0.375532 0
M  V30 26719 H 2663.12 -3.11428 -0.88284 0
M  V30 26720 H 2662.03 -3.46608 1.40762 0
M  V30 26721 H 2663.36 -4.56766 1.83374 0
M  V30 26722 N 2665.01 -0.808686 -1.3527 0
M  V30 26723 C 2666.26 -0.386518 -1.97962 0
M  V30 26724 C 2666.58 1.05252 -1.64868 0
M  V30 26725 O 2667.78 1.5779 -2.2094 0
M  V30 26726 C 2666.24 -0.640158 -3.54161 0
M  V30 26727 C 2665.85 -2.09187 -3.96162 0
M  V30 26728 C 2667.59 -0.283451 -4.23553 0
M  V30 26729 C 2665.5 -2.29115 -5.45216 0
M  V30 26730 H 2664.43 -0.140787 -0.74074 0
M  V30 26731 H 2667.08 -0.993039 -1.54308 0
M  V30 26732 H 2665.46 0.0363421 -3.95983 0
M  V30 26733 H 2666.63 -2.80636 -3.65486 0
M  V30 26734 H 2664.95 -2.40865 -3.39666 0
M  V30 26735 H 2667.55 -0.410366 -5.33123 0
M  V30 26736 H 2667.89 0.770587 -4.09106 0
M  V30 26737 H 2668.42 -0.913952 -3.87159 0
M  V30 26738 H 2665.16 -3.32972 -5.64632 0
M  V30 26739 H 2664.68 -1.62194 -5.77454 0
M  V30 26740 H 2666.36 -2.10771 -6.11706 0
M  V30 26741 N 2666.49 1.47225 -0.562374 0
M  V30 26742 C 2667.72 2.0685 -0.0452638 0
M  V30 26743 C 2668.14 1.41427 1.25076 0
M  V30 26744 O 2667.49 0.512544 1.75155 0
M  V30 26745 C 2667.54 3.61194 0.148611 0
M  V30 26746 O 2667.26 4.24167 -1.09609 0
M  V30 26747 C 2668.77 4.377 0.702411 0
M  V30 26748 H 2665.99 0.669267 -0.0481892 0
M  V30 26749 H 2668.53 1.89153 -0.777256 0
M  V30 26750 H 2666.68 3.78388 0.830751 0
M  V30 26751 H 2667.1 5.16772 -0.897073 0
M  V30 26752 H 2668.57 5.46356 0.787334 0
M  V30 26753 H 2669.05 4.04338 1.71486 0
M  V30 26754 H 2669.66 4.25263 0.0558025 0
M  V30 26755 N 2667.97 0.299089 1.54736 0
M  V30 26756 C 2669.22 -0.310135 1.99706 0
M  V30 26757 C 2669.54 -1.54557 1.18899 0
M  V30 26758 O 2668.81 -1.93823 0.284479 0
M  V30 26759 H 2667.39 -0.117583 0.737688 0
M  V30 26760 H 2670.05 0.409976 1.90539 0
M  V30 26761 H 2669.15 -0.583496 3.06597 0
M  V30 26762 N 2669.45 -1.57577 0.0267774 0
M  V30 26763 C 2670.36 -2.13535 -0.971595 0
M  V30 26764 C 2671.37 -1.08703 -1.35866 0
M  V30 26765 O 2672.55 -1.40748 -1.44055 0
M  V30 26766 C 2669.62 -2.64945 -2.23618 0
M  V30 26767 C 2668.68 -3.84483 -1.90975 0
M  V30 26768 C 2667.91 -4.33432 -3.11404 0
M  V30 26769 O 2668.13 -3.81566 -4.23985 0
M  V30 26770 O 2667.07 -5.25302 -2.93838 0
M  V30 26771 H 2670.89 -2.99114 -0.525801 0
M  V30 26772 H 2668.48 -1.48139 -0.193686 0
M  V30 26773 H 2670.36 -2.98091 -2.97859 0
M  V30 26774 H 2669.03 -1.82451 -2.67382 0
M  V30 26775 H 2667.94 -3.56267 -1.14125 0
M  V30 26776 H 2669.27 -4.68133 -1.52028 0
M  V30 26777 N 2670.93 0.246342 -1.55663 0
M  V30 26778 C 2672.17 0.975747 -1.77784 0
M  V30 26779 C 2672.51 1.84952 -0.592136 0
M  V30 26780 O 2671.78 1.90139 0.409554 0
M  V30 26781 C 2672.06 1.83579 -3.09792 0
M  V30 26782 C 2671.92 0.990164 -4.38766 0
M  V30 26783 C 2673.24 2.81817 -3.38034 0
M  V30 26784 H 2670.35 0.353306 -0.646795 0
M  V30 26785 H 2673 0.246215 -1.88398 0
M  V30 26786 H 2671.15 2.45779 -3.00874 0
M  V30 26787 H 2672.82 0.386816 -4.59675 0
M  V30 26788 H 2671.06 0.29455 -4.32799 0
M  V30 26789 H 2671.73 1.62574 -5.27516 0
M  V30 26790 H 2674.21 2.29754 -3.46919 0
M  V30 26791 H 2673.08 3.39115 -4.31616 0
M  V30 26792 H 2673.35 3.58308 -2.58974 0
M  V30 26793 N 2672.4 1.4905 0.512027 0
M  V30 26794 C 2673.82 1.35569 0.842216 0
M  V30 26795 C 2674.02 0.380354 1.97878 0
M  V30 26796 O 2673.08 -0.191966 2.51769 0
M  V30 26797 C 2674.39 2.7603 1.19281 0
M  V30 26798 C 2675.94 2.8465 1.30166 0
M  V30 26799 C 2676.41 4.25854 1.6856 0
M  V30 26800 N 2677.9 4.28612 1.7563 0
M  V30 26801 C 2678.64 5.34825 2.0676 0
M  V30 26802 N 2678.13 6.51296 2.3619 0
M  V30 26803 N 2679.93 5.22232 2.07918 0
M  V30 26804 H 2672.08 2.11067 -0.237611 0
M  V30 26805 H 2674.34 0.946993 -0.0436913 0
M  V30 26806 H 2674.05 3.49047 0.431137 0
M  V30 26807 H 2673.92 3.10699 2.13884 0
M  V30 26808 H 2676.31 2.11877 2.05407 0
M  V30 26809 H 2676.39 2.53578 0.336412 0
M  V30 26810 H 2676.03 4.99149 0.938736 0
M  V30 26811 H 2675.96 4.54382 2.66167 0
M  V30 26812 H 2678.45 3.44609 1.55091 0
M  V30 26813 H 2678.77 7.28071 2.591 0
M  V30 26814 H 2677.11 6.54541 2.3367 0
M  V30 26815 H 2680.3 4.30251 1.84395 0
M  V30 26816 H 2680.48 6.05105 2.31845 0
M  V30 26817 N 2673.88 -0.762259 1.3794 0
M  V30 26818 C 2674.82 -1.88347 1.28843 0
M  V30 26819 C 2675.79 -1.61739 0.167112 0
M  V30 26820 O 2676.98 -1.85354 0.342953 0
M  V30 26821 C 2674.1 -3.23776 0.994314 0
M  V30 26822 C 2673.15 -3.69283 2.13382 0
M  V30 26823 S 2673.98 -3.81839 3.75446 0
M  V30 26824 C 2675.14 -5.20101 3.48204 0
M  V30 26825 H 2675.37 -1.95776 2.23739 0
M  V30 26826 H 2672.91 -0.924346 1.23674 0
M  V30 26827 H 2674.86 -4.01991 0.83145 0
M  V30 26828 H 2673.52 -3.14037 0.0626803 0
M  V30 26829 H 2672.72 -4.67492 1.88327 0
M  V30 26830 H 2672.32 -2.98197 2.25731 0
M  V30 26831 H 2674.61 -6.05577 3.0378 0
M  V30 26832 H 2675.55 -5.50173 4.45775 0
M  V30 26833 H 2675.96 -4.88488 2.82914 0
M  V30 26834 N 2675.36 -1.22666 -0.989486 0
M  V30 26835 C 2676.77 -1.04958 -1.54404 0
M  V30 26836 C 2677.12 0.385917 -1.92367 0
M  V30 26837 O 2676.25 1.27139 -1.75113 0
M  V30 26838 C 2676.84 -1.89904 -2.80574 0
M  V30 26839 C 2675.4 -1.76483 -3.32461 0
M  V30 26840 C 2674.55 -1.86162 -2.05521 0
M  V30 26841 H 2677.5 -1.36461 -0.810187 0
M  V30 26842 H 2677.52 -1.41846 -3.53072 0
M  V30 26843 H 2677.03 -2.94375 -2.52913 0
M  V30 26844 H 2675.13 -0.747592 -3.65023 0
M  V30 26845 H 2675.25 -2.59349 -4.02833 0
M  V30 26846 H 2673.61 -1.2964 -2.19238 0
M  V30 26847 H 2674.39 -2.92171 -1.80252 0
M  V30 26848 N 2676.84 1.18685 -1.0369 0
M  V30 26849 C 2678.06 1.93058 -0.757853 0
M  V30 26850 C 2678.49 1.75443 0.678323 0
M  V30 26851 O 2677.85 1.06205 1.46936 0
M  V30 26852 C 2677.9 3.42625 -1.12429 0
M  V30 26853 O 2677 4.11656 -0.247578 0
M  V30 26854 H 2676.34 0.602422 -0.279256 0
M  V30 26855 H 2678.87 1.50528 -1.38573 0
M  V30 26856 H 2678.88 3.9332 -1.0846 0
M  V30 26857 H 2677.56 3.54767 -2.17056 0
M  V30 26858 H 2676.13 3.71286 -0.346555 0
M  V30 26859 N 2678.32 0.815849 1.34839 0
M  V30 26860 C 2679.57 0.399779 1.98106 0
M  V30 26861 C 2679.89 -1.03891 1.6502 0
M  V30 26862 O 2679.16 -1.7202 0.937341 0
M  V30 26863 H 2677.74 0.144836 0.732824 0
M  V30 26864 H 2680.4 1.04373 1.64597 0
M  V30 26865 H 2679.49 0.513019 3.07855 0
M  V30 26866 N 2679.8 -1.46924 0.570174 0
M  V30 26867 C 2680.74 -2.30171 -0.170217 0
M  V30 26868 C 2681.71 -1.39856 -0.896074 0
M  V30 26869 O 2682.9 -1.68812 -0.889218 0
M  V30 26870 C 2680.04 -3.24081 -1.18599 0
M  V30 26871 C 2679.15 -4.29491 -0.464871 0
M  V30 26872 C 2678.29 -5.10539 -1.46707 0
M  V30 26873 C 2677.32 -6.07712 -0.731651 0
M  V30 26874 N 2676.46 -6.81672 -1.6813 0
M  V30 26875 H 2681.3 -2.9296 0.545765 0
M  V30 26876 H 2678.84 -1.44392 0.280963 0
M  V30 26877 H 2680.8 -3.7696 -1.78765 0
M  V30 26878 H 2679.43 -2.63129 -1.86984 0
M  V30 26879 H 2678.48 -3.79567 0.251573 0
M  V30 26880 H 2679.79 -4.98677 0.110636 0
M  V30 26881 H 2678.94 -5.67634 -2.14189 0
M  V30 26882 H 2677.68 -4.41285 -2.0765 0
M  V30 26883 H 2676.69 -5.49783 -0.042982 0
M  V30 26884 H 2677.91 -6.7898 -0.127784 0
M  V30 26885 H 2675.86 -6.15138 -2.27907 0
M  V30 26886 H 2675.78 -7.47074 -1.15828 0
M  V30 26887 H 2677.04 -7.43332 -2.34687 0
M  V30 26888 N 2681.27 -0.307291 -1.54575 0
M  V30 26889 C 2682.52 0.300577 -2.0056 0
M  V30 26890 C 2682.85 1.53054 -1.19532 0
M  V30 26891 O 2682.13 1.92569 -0.273404 0
M  V30 26892 C 2682.41 0.650925 -3.54168 0
M  V30 26893 C 2682.26 -0.588618 -4.45932 0
M  V30 26894 C 2683.58 1.47498 -4.14647 0
M  V30 26895 H 2680.7 0.107775 -0.729077 0
M  V30 26896 H 2683.34 -0.420639 -1.85285 0
M  V30 26897 H 2681.49 1.26538 -3.67315 0
M  V30 26898 H 2683.17 -1.22705 -4.44681 0
M  V30 26899 H 2681.41 -1.22065 -4.16272 0
M  V30 26900 H 2682.08 -0.29925 -5.51188 0
M  V30 26901 H 2684.56 0.95575 -4.04975 0
M  V30 26902 H 2683.43 1.6889 -5.22271 0
M  V30 26903 H 2683.69 2.46614 -3.66925 0
M  V30 26904 N 2682.75 1.57561 -0.0351337 0
M  V30 26905 C 2683.71 2.09494 0.929782 0
M  V30 26906 C 2684.71 1.01121 1.25024 0
M  V30 26907 O 2685.9 1.27258 1.18959 0
M  V30 26908 C 2683.04 2.56581 2.24452 0
M  V30 26909 H 2684.23 2.96036 0.479883 0
M  V30 26910 H 2681.78 1.54842 0.213005 0
M  V30 26911 H 2682.52 1.73386 2.74058 0
M  V30 26912 H 2682.3 3.35761 2.02502 0
M  V30 26913 H 2683.79 2.96964 2.93602 0
M  V30 26914 N 2684.23 -0.238084 1.55791 0
M  V30 26915 C 2685.16 -1.31798 1.87515 0
M  V30 26916 C 2686.17 -1.43862 0.762078 0
M  V30 26917 O 2687.36 -1.45054 1.04027 0
M  V30 26918 C 2684.46 -2.69557 2.05407 0
M  V30 26919 C 2683.64 -2.7965 3.36325 0
M  V30 26920 C 2682.7 -3.98313 3.43851 0
M  V30 26921 O 2681.72 -3.87426 4.17001 0
M  V30 26922 N 2682.92 -5.1188 2.73786 0
M  V30 26923 H 2685.69 -1.04917 2.80736 0
M  V30 26924 H 2683.25 -0.428168 1.56136 0
M  V30 26925 H 2685.24 -3.47292 2.07775 0
M  V30 26926 H 2683.81 -2.89109 1.1889 0
M  V30 26927 H 2683.03 -1.88522 3.46198 0
M  V30 26928 H 2684.32 -2.83351 4.22599 0
M  V30 26929 H 2683.72 -5.23619 2.14103 0
M  V30 26930 H 2682.27 -5.87718 2.81835 0
M  V30 26931 N 2685.71 -1.4932 -0.504115 0
M  V30 26932 C 2687.12 -1.51887 -1.08569 0
M  V30 26933 C 2687.47 -0.303289 -1.93842 0
M  V30 26934 O 2686.59 0.587203 -2.08281 0
M  V30 26935 C 2687.19 -2.75231 -1.97569 0
M  V30 26936 C 2685.75 -2.80586 -2.50895 0
M  V30 26937 C 2684.9 -2.45759 -1.28443 0
M  V30 26938 H 2687.85 -1.56062 -0.288167 0
M  V30 26939 H 2687.87 -2.55216 -2.82215 0
M  V30 26940 H 2687.38 -3.63685 -1.35479 0
M  V30 26941 H 2685.48 -1.96404 -3.16633 0
M  V30 26942 H 2685.59 -3.82678 -2.88261 0
M  V30 26943 H 2683.96 -1.97471 -1.60864 0
M  V30 26944 H 2684.74 -3.36485 -0.680661 0
M  V30 26945 N 2687.19 0.754933 -1.38342 0
M  V30 26946 C 2688.41 1.54416 -1.37707 0
M  V30 26947 C 2688.83 1.8877 0.0334911 0
M  V30 26948 O 2688.19 1.5268 0.999747 0
M  V30 26949 C 2688.24 2.84412 -2.23141 0
M  V30 26950 O 2687.96 2.51525 -3.58702 0
M  V30 26951 C 2689.46 3.78558 -2.30671 0
M  V30 26952 H 2686.68 0.477843 -0.47107 0
M  V30 26953 H 2689.22 0.934414 -1.81904 0
M  V30 26954 H 2687.38 3.41768 -1.82409 0
M  V30 26955 H 2687.79 3.34889 -4.0367 0
M  V30 26956 H 2689.27 4.66726 -2.94738 0
M  V30 26957 H 2689.74 4.18895 -1.31998 0
M  V30 26958 H 2690.35 3.27127 -2.71787 0
M  V30 26959 N 2688.66 1.23189 0.982967 0
M  V30 26960 C 2689.91 1.05652 1.71815 0
M  V30 26961 C 2690.23 -0.407142 1.91316 0
M  V30 26962 O 2691.43 -0.70239 2.62257 0
M  V30 26963 C 2689.89 1.84208 3.09185 0
M  V30 26964 C 2689.5 3.34888 2.97581 0
M  V30 26965 C 2691.24 1.75153 3.86681 0
M  V30 26966 C 2689.15 4.05846 4.30166 0
M  V30 26967 H 2688.08 0.391736 0.644251 0
M  V30 26968 H 2690.73 1.47132 1.09656 0
M  V30 26969 H 2689.11 1.35533 3.72084 0
M  V30 26970 H 2690.28 3.91031 2.43786 0
M  V30 26971 H 2688.6 3.44729 2.33561 0
M  V30 26972 H 2691.2 2.25482 4.84832 0
M  V30 26973 H 2691.54 0.713809 4.10135 0
M  V30 26974 H 2692.07 2.21425 3.30478 0
M  V30 26975 H 2688.81 5.09913 4.11909 0
M  V30 26976 H 2688.33 3.54491 4.83835 0
M  V30 26977 H 2690.01 4.11997 4.98866 0
M  V30 26978 N 2690.14 -1.18133 1.04318 0
M  V30 26979 C 2691.37 -1.92112 0.768151 0
M  V30 26980 C 2691.78 -1.7632 -0.675026 0
M  V30 26981 O 2691.14 -1.09452 -1.46036 0
M  V30 26982 C 2691.19 -3.43446 1.12814 0
M  V30 26983 O 2690.91 -3.58743 2.51466 0
M  V30 26984 C 2692.41 -4.34519 0.877976 0
M  V30 26985 H 2689.63 -0.609812 0.279948 0
M  V30 26986 H 2692.18 -1.49857 1.39151 0
M  V30 26987 H 2690.33 -3.8348 0.549691 0
M  V30 26988 H 2690.75 -4.52443 2.65321 0
M  V30 26989 H 2692.22 -5.39247 1.17969 0
M  V30 26990 H 2692.7 -4.38801 -0.187162 0
M  V30 26991 H 2693.3 -4.00186 1.43984 0
M  V30 26992 N 2691.62 -0.822988 -1.34405 0
M  V30 26993 C 2692.9 -0.333675 -1.92733 0
M  V30 26994 C 2693.28 1.17898 -1.75109 0
M  V30 26995 O 2692.63 1.98611 -1.12986 0
M  V30 26996 C 2692.84 -0.763083 -3.40555 0
M  V30 26997 C 2694.18 -0.761952 -4.17707 0
M  V30 26998 O 2695.21 -0.705667 -3.4914 0
M  V30 26999 O 2694.07 -0.835204 -5.4008 0
M  V30 27000 H 2691.16 -0.0911394 -0.821963 0
M  V30 27001 H 2693.71 -0.907782 -1.43379 0
M  V30 27002 H 2692.48 -1.80496 -3.47184 0
M  V30 27003 H 2692.1 -0.164675 -3.97259 0
M  V30 27004 N 2693.1 1.4662 -0.577957 0
M  V30 27005 C 2694.05 2.31972 0.170841 0
M  V30 27006 C 2695.04 1.44195 0.889061 0
M  V30 27007 O 2696.25 1.60846 0.807989 0
M  V30 27008 H 2692.62 0.748354 0.0739632 0
M  V30 27009 H 2694.59 2.92946 -0.567907 0
M  V30 27010 C 2693.34 3.27269 1.17432 0
M  V30 27011 H 2692.66 3.94788 0.631091 0
M  V30 27012 H 2694.1 3.8978 1.66875 0
M  V30 27013 C 2692.56 2.52278 2.23288 0
M  V30 27014 O 2693.09 2.28234 3.30563 0
M  V30 27015 N 2691.3 2.12923 1.97768 0
M  V30 27016 H 2690.85 2.32677 1.1054 0
M  V30 27017 H 2690.8 1.63066 2.68806 0
M  V30 27018 N 2694.58 0.315484 1.5441 0
M  V30 27019 C 2695.52 -0.554127 2.24049 0
M  V30 27020 C 2696.49 -1.1181 1.22832 0
M  V30 27021 O 2697.68 -1.15994 1.51493 0
M  V30 27022 C 2694.82 -1.71311 2.99577 0
M  V30 27023 C 2693.93 -1.17914 4.15596 0
M  V30 27024 C 2693.07 -2.30316 4.78673 0
M  V30 27025 C 2692.11 -1.74127 5.8681 0
M  V30 27026 N 2691.24 -2.80159 6.43782 0
M  V30 27027 H 2696.08 0.0463126 2.97964 0
M  V30 27028 H 2693.62 0.0346267 1.47059 0
M  V30 27029 H 2695.58 -2.39499 3.41608 0
M  V30 27030 H 2694.21 -2.28496 2.28012 0
M  V30 27031 H 2693.26 -0.38907 3.78405 0
M  V30 27032 H 2694.57 -0.727925 4.9346 0
M  V30 27033 H 2693.73 -3.06423 5.23631 0
M  V30 27034 H 2692.46 -2.78771 4.00173 0
M  V30 27035 H 2691.47 -0.96514 5.41262 0
M  V30 27036 H 2692.69 -1.26559 6.67203 0
M  V30 27037 H 2690.64 -3.2792 5.68159 0
M  V30 27038 H 2690.56 -2.39576 7.17035 0
M  V30 27039 H 2691.83 -3.5612 6.93397 0
M  V30 27040 N 2696.05 -1.5754 0.0434891 0
M  V30 27041 C 2697.33 -1.83714 -0.671447 0
M  V30 27042 C 2697.71 -0.930348 -1.89493 0
M  V30 27043 O 2697.06 0.0105237 -2.28498 0
M  V30 27044 C 2697.27 -3.33268 -1.03604 0
M  V30 27045 C 2698.62 -4.00095 -1.4216 0
M  V30 27046 O 2699.64 -3.37848 -1.1286 0
M  V30 27047 O 2698.5 -5.09832 -1.96808 0
M  V30 27048 H 2695.59 -0.757996 -0.330713 0
M  V30 27049 H 2698.14 -1.69546 0.0722671 0
M  V30 27050 H 2696.91 -3.90948 -0.165869 0
M  V30 27051 H 2696.54 -3.52595 -1.83745 0
M  V30 27052 N 2697.53 0.229818 -1.55915 0
M  V30 27053 C 2698.78 0.953534 -1.78191 0
M  V30 27054 C 2699.1 1.85196 -0.610536 0
M  V30 27055 O 2698.37 1.92317 0.372955 0
M  V30 27056 H 2696.95 0.355076 -0.657214 0
M  V30 27057 H 2699.61 0.243659 -1.93371 0
M  V30 27058 H 2698.71 1.56522 -2.70014 0
M  V30 27059 N 2699.01 1.49585 0.49619 0
M  V30 27060 C 2700.24 1.63031 1.27391 0
M  V30 27061 C 2700.65 0.303601 1.86343 0
M  V30 27062 O 2700.01 -0.711517 1.68059 0
M  V30 27063 C 2700.06 2.70273 2.40072 0
M  V30 27064 O 2699.78 3.97799 1.83542 0
M  V30 27065 C 2701.28 2.94468 3.31366 0
M  V30 27066 H 2698.5 0.548716 0.386201 0
M  V30 27067 H 2701.05 1.95649 0.595129 0
M  V30 27068 H 2699.2 2.4042 3.03771 0
M  V30 27069 H 2699.62 4.5691 2.57553 0
M  V30 27070 H 2701.09 3.73228 4.067 0
M  V30 27071 H 2701.57 2.04567 3.8865 0
M  V30 27072 H 2702.17 3.25756 2.73429 0
M  V30 27073 N 2700.49 -0.747586 1.3874 0
M  V30 27074 C 2701.73 -1.5091 1.35477 0
M  V30 27075 C 2702.07 -1.94127 -0.0532752 0
M  V30 27076 O 2701.34 -1.65873 -1.01569 0
M  V30 27077 C 2701.63 -2.75753 2.31587 0
M  V30 27078 C 2701.48 -2.38635 3.81279 0
M  V30 27079 C 2702.8 -3.77802 2.25729 0
M  V30 27080 H 2699.92 -0.547439 0.493437 0
M  V30 27081 H 2702.56 -0.855793 1.69635 0
M  V30 27082 H 2700.71 -3.31497 2.02588 0
M  V30 27083 H 2702.38 -1.88619 4.20976 0
M  V30 27084 H 2700.62 -1.71018 3.98667 0
M  V30 27085 H 2701.29 -3.27982 4.43996 0
M  V30 27086 H 2703.77 -3.31612 2.51342 0
M  V30 27087 H 2702.65 -4.6284 2.95077 0
M  V30 27088 H 2702.91 -4.23821 1.25811 0
M  V30 27089 N 2701.97 -1.23709 -0.97642 0
M  V30 27090 C 2703.19 -1.09836 -1.75339 0
M  V30 27091 C 2703.61 0.349852 -1.8553 0
M  V30 27092 O 2702.97 1.24183 -1.33735 0
M  V30 27093 C 2703.02 -1.72239 -3.1783 0
M  V30 27094 O 2702.74 -3.11397 -3.08162 0
M  V30 27095 C 2704.24 -1.63861 -4.11904 0
M  V30 27096 H 2701.46 -0.384185 -0.55013 0
M  V30 27097 H 2704 -1.6364 -1.22647 0
M  V30 27098 H 2702.16 -1.22459 -3.67536 0
M  V30 27099 H 2702.57 -3.41736 -3.97891 0
M  V30 27100 H 2704.05 -2.1222 -5.09575 0
M  V30 27101 H 2704.52 -0.598169 -4.35108 0
M  V30 27102 H 2705.13 -2.13026 -3.68103 0
M  V30 27103 N 2703.44 1.17579 -1.04943 0
M  V30 27104 C 2704.69 1.88055 -0.759145 0
M  V30 27105 C 2705.02 1.80682 0.711887 0
M  V30 27106 O 2704.3 1.2131 1.52033 0
M  V30 27107 C 2704.58 3.38185 -1.23706 0
M  V30 27108 C 2704.43 3.54322 -2.77084 0
M  V30 27109 C 2705.75 4.32124 -0.83409 0
M  V30 27110 H 2702.87 0.682863 -0.277249 0
M  V30 27111 H 2705.51 1.38284 -1.30298 0
M  V30 27112 H 2703.66 3.80704 -0.774404 0
M  V30 27113 H 2705.34 3.20836 -3.31455 0
M  V30 27114 H 2703.58 2.96684 -3.16482 0
M  V30 27115 H 2704.25 4.59698 -3.05585 0
M  V30 27116 H 2706.73 3.97432 -1.23235 0
M  V30 27117 H 2705.6 5.35709 -1.19613 0
M  V30 27118 H 2705.86 4.41322 0.262117 0
M  V30 27119 N 2704.92 0.830104 1.33967 0
M  V30 27120 C 2706.34 0.516769 1.51002 0
M  V30 27121 C 2706.54 -0.957663 1.77288 0
M  V30 27122 O 2705.59 -1.74185 1.828 0
M  V30 27123 C 2706.91 1.38252 2.67034 0
M  V30 27124 C 2708.46 1.38039 2.80917 0
M  V30 27125 C 2708.93 2.23078 4 0
M  V30 27126 N 2710.42 2.2074 4.0722 0
M  V30 27127 C 2711.16 2.83284 4.98536 0
M  V30 27128 N 2710.65 3.54845 5.95027 0
M  V30 27129 N 2712.45 2.728 4.91464 0
M  V30 27130 H 2704.6 1.78468 1.15165 0
M  V30 27131 H 2706.86 0.760916 0.565429 0
M  V30 27132 H 2706.57 2.42989 2.54262 0
M  V30 27133 H 2706.44 1.05231 3.62224 0
M  V30 27134 H 2708.83 0.340764 2.93126 0
M  V30 27135 H 2708.91 1.75061 1.86514 0
M  V30 27136 H 2708.55 3.27094 3.88551 0
M  V30 27137 H 2708.48 1.83403 4.9363 0
M  V30 27138 H 2710.97 1.68693 3.38159 0
M  V30 27139 H 2711.29 3.99795 6.6135 0
M  V30 27140 H 2709.63 3.58952 5.95129 0
M  V30 27141 H 2712.82 2.16463 4.15044 0
M  V30 27142 H 2712.99 3.21828 5.62433 0
M  V30 27143 N 2706.4 -1.46311 0.585725 0
M  V30 27144 C 2707.63 -2.06453 0.0780529 0
M  V30 27145 C 2708.04 -1.43456 -1.23357 0
M  V30 27146 O 2707.38 -0.535117 -1.75733 0
M  V30 27147 C 2707.44 -3.59149 -0.158888 0
M  V30 27148 C 2707.11 -4.44355 1.0676 0
M  V30 27149 C 2708.11 -4.80704 1.98039 0
M  V30 27150 C 2705.79 -4.85445 1.29029 0
M  V30 27151 C 2707.78 -5.56974 3.09933 0
M  V30 27152 C 2705.47 -5.61473 2.41228 0
M  V30 27153 C 2706.47 -5.97152 3.31509 0
M  V30 27154 O 2706.16 -6.71643 4.41759 0
M  V30 27155 H 2705.89 -0.673685 0.0559013 0
M  V30 27156 H 2708.44 -1.88882 0.807027 0
M  V30 27157 H 2706.67 -3.75038 -0.942509 0
M  V30 27158 H 2708.36 -4.01207 -0.615443 0
M  V30 27159 H 2709.13 -4.49536 1.82051 0
M  V30 27160 H 2705.01 -4.57123 0.596648 0
M  V30 27161 H 2708.55 -5.84741 3.80426 0
M  V30 27162 H 2704.45 -5.92056 2.57177 0
M  V30 27163 H 2705.22 -6.90071 4.40164 0
M  V30 27164 N 2707.88 -0.323668 -1.54241 0
M  V30 27165 C 2708.84 0.529563 -2.22998 0
M  V30 27166 C 2709.84 1.04345 -1.22347 0
M  V30 27167 O 2711.03 0.935863 -1.46926 0
M  V30 27168 C 2708.16 1.73557 -2.93412 0
M  V30 27169 H 2709.36 -0.0715045 -2.99815 0
M  V30 27170 H 2706.91 -0.0747533 -1.56121 0
M  V30 27171 H 2707.65 2.37587 -2.20733 0
M  V30 27172 H 2707.43 1.37449 -3.67219 0
M  V30 27173 H 2708.92 2.34122 -3.45799 0
M  V30 27174 N 2709.36 1.57515 -0.0518432 0
M  V30 27175 C 2710.77 1.80324 0.483755 0
M  V30 27176 C 2711.12 0.964129 1.70877 0
M  V30 27177 O 2710.24 0.18091 2.15642 0
M  V30 27178 C 2710.84 3.27053 0.884401 0
M  V30 27179 C 2709.4 3.50778 1.36498 0
M  V30 27180 C 2708.55 2.75202 0.340491 0
M  V30 27181 H 2711.5 1.56251 -0.277718 0
M  V30 27182 H 2711.52 3.3801 1.74727 0
M  V30 27183 H 2711.03 3.88099 -0.00737915 0
M  V30 27184 H 2709.13 2.95013 2.27592 0
M  V30 27185 H 2709.24 4.5949 1.35667 0
M  V30 27186 H 2707.61 2.41359 0.813518 0
M  V30 27187 H 2708.39 3.38975 -0.543216 0
M  V30 27188 N 2710.84 -0.221546 1.56035 0
M  V30 27189 C 2712.06 -0.966994 1.83477 0
M  V30 27190 C 2712.49 -1.77159 0.632171 0
M  V30 27191 O 2711.84 -1.76391 -0.419051 0
M  V30 27192 C 2711.89 -1.86029 3.0891 0
M  V30 27193 O 2711 -2.95562 2.87605 0
M  V30 27194 H 2710.34 -0.273807 0.604918 0
M  V30 27195 H 2712.87 -0.234858 2.03248 0
M  V30 27196 H 2712.88 -2.2701 3.39014 0
M  V30 27197 H 2711.55 -1.26891 3.9607 0
M  V30 27198 H 2710.13 -2.58527 2.68734 0
M  V30 27199 N 2712.31 -1.49846 -0.48825 0
M  V30 27200 C 2713.22 -1.7021 -1.61448 0
M  V30 27201 C 2714.24 -0.584875 -1.63876 0
M  V30 27202 O 2715.42 -0.861139 -1.82061 0
M  V30 27203 C 2712.48 -1.77599 -2.97757 0
M  V30 27204 C 2711.54 -3.01249 -3.05856 0
M  V30 27205 C 2710.77 -3.08276 -4.35662 0
M  V30 27206 O 2711 -2.2255 -5.25193 0
M  V30 27207 O 2709.93 -4.00855 -4.48998 0
M  V30 27208 H 2713.76 -2.65645 -1.47194 0
M  V30 27209 H 2711.34 -1.33738 -0.665916 0
M  V30 27210 H 2713.22 -1.84739 -3.78747 0
M  V30 27211 H 2711.9 -0.853454 -3.12246 0
M  V30 27212 H 2710.81 -2.9962 -2.24006 0
M  V30 27213 H 2712.14 -3.93025 -2.96298 0
M  V30 27214 N 2713.79 0.740218 -1.39135 0
M  V30 27215 C 2714.75 1.83585 -1.3722 0
M  V30 27216 C 2715.75 1.58513 -0.270249 0
M  V30 27217 O 2716.94 1.66009 -0.527872 0
M  V30 27218 C 2714.08 3.21286 -1.13964 0
M  V30 27219 H 2715.27 1.86687 -2.34708 0
M  V30 27220 H 2712.82 0.943328 -1.24623 0
M  V30 27221 H 2713.56 3.23847 -0.171367 0
M  V30 27222 H 2713.34 3.40881 -1.9376 0
M  V30 27223 H 2714.83 4.01352 -1.15353 0
M  V30 27224 N 2715.27 1.24225 0.969846 0
M  V30 27225 C 2716.52 1.07853 1.70916 0
M  V30 27226 C 2716.84 -0.383729 1.91187 0
M  V30 27227 O 2716.11 -1.27408 1.48808 0
M  V30 27228 H 2714.69 0.396114 0.633327 0
M  V30 27229 H 2717.35 1.5611 1.16686 0
M  V30 27230 H 2716.45 1.57487 2.69452 0
M  V30 27231 N 2716.75 -1.1702 1.05565 0
M  V30 27232 C 2717.68 -2.23347 0.681065 0
M  V30 27233 C 2718.66 -1.67006 -0.322954 0
M  V30 27234 O 2719.84 -1.9317 -0.199712 0
M  V30 27235 C 2716.97 -3.4725 0.0589663 0
M  V30 27236 C 2715.93 -4.16437 0.988155 0
M  V30 27237 C 2715.25 -5.34206 0.22974 0
M  V30 27238 C 2716.55 -4.68245 2.31396 0
M  V30 27239 H 2718.25 -2.54936 1.56997 0
M  V30 27240 H 2715.79 -1.22539 0.756324 0
M  V30 27241 H 2717.75 -4.20852 -0.214908 0
M  V30 27242 H 2716.47 -3.14939 -0.864913 0
M  V30 27243 H 2715.13 -3.44752 1.24666 0
M  V30 27244 H 2714.78 -4.98147 -0.697024 0
M  V30 27245 H 2714.48 -5.81435 0.848917 0
M  V30 27246 H 2716 -6.10589 -0.0367621 0
M  V30 27247 H 2717.42 -5.33464 2.09973 0
M  V30 27248 H 2715.81 -5.26067 2.88745 0
M  V30 27249 H 2716.88 -3.8485 2.94989 0
M  V30 27250 N 2718.23 -0.837197 -1.33524 0
M  V30 27251 C 2719.18 -0.241308 -2.26719 0
M  V30 27252 C 2720.16 0.60273 -1.49184 0
M  V30 27253 O 2721.35 0.454972 -1.71053 0
M  V30 27254 C 2718.48 0.584066 -3.38295 0
M  V30 27255 C 2717.57 -0.27139 -4.23231 0
M  V30 27256 N 2717.96 -1.3493 -4.87471 0
M  V30 27257 C 2716.26 -0.0581373 -4.45962 0
M  V30 27258 C 2716.96 -1.87414 -5.50682 0
M  V30 27259 N 2715.93 -1.17587 -5.3073 0
M  V30 27260 H 2719.73 -1.06562 -2.73901 0
M  V30 27261 H 2717.25 -0.681476 -1.4741 0
M  V30 27262 H 2719.25 1.02724 -4.04046 0
M  V30 27263 H 2717.91 1.40638 -2.92662 0
M  V30 27264 H 2718.92 -1.73219 -4.88074 0
M  V30 27265 H 2715.59 0.730866 -4.11053 0
M  V30 27266 H 2716.98 -2.77672 -6.1184 0
M  V30 27267 N 2719.7 1.45999 -0.593476 0
M  V30 27268 C 2720.61 2.34207 0.135776 0
M  V30 27269 C 2721.63 1.504 0.874982 0
M  V30 27270 O 2722.81 1.83241 0.835746 0
M  V30 27271 C 2719.87 3.27778 1.12971 0
M  V30 27272 C 2718.93 4.27488 0.394006 0
M  V30 27273 C 2718.16 5.16589 1.34059 0
M  V30 27274 O 2718.39 5.08832 2.57771 0
M  V30 27275 O 2717.32 5.95934 0.845322 0
M  V30 27276 H 2721.15 2.97939 -0.588743 0
M  V30 27277 H 2718.73 1.4515 -0.35381 0
M  V30 27278 H 2720.61 3.85476 1.70254 0
M  V30 27279 H 2719.29 2.66628 1.83551 0
M  V30 27280 H 2718.2 3.73447 -0.220934 0
M  V30 27281 H 2719.53 4.91453 -0.271026 0
M  V30 27282 N 2721.18 0.331843 1.54067 0
M  V30 27283 C 2722.12 -0.573088 2.20887 0
M  V30 27284 C 2723.09 -1.10936 1.18878 0
M  V30 27285 O 2724.28 -1.17182 1.47651 0
M  V30 27286 C 2721.4 -1.78721 2.87709 0
M  V30 27287 C 2720.45 -1.38145 4.03508 0
M  V30 27288 S 2721.28 -0.411136 5.33919 0
M  V30 27289 C 2722.44 -1.63235 6.04239 0
M  V30 27290 H 2722.67 -0.00550511 2.97299 0
M  V30 27291 H 2720.21 0.11592 1.53964 0
M  V30 27292 H 2722.16 -2.48381 3.26829 0
M  V30 27293 H 2720.82 -2.32599 2.11084 0
M  V30 27294 H 2720.02 -2.28637 4.49156 0
M  V30 27295 H 2719.62 -0.76446 3.66104 0
M  V30 27296 H 2721.91 -2.56858 6.26921 0
M  V30 27297 H 2722.85 -1.21788 6.97548 0
M  V30 27298 H 2723.26 -1.82309 5.34251 0
M  V30 27299 N 2722.66 -1.57485 0.0601958 0
M  V30 27300 C 2723.94 -1.84416 -0.651923 0
M  V30 27301 C 2724.32 -0.950394 -1.88496 0
M  V30 27302 O 2723.67 -0.0137121 -2.28496 0
M  V30 27303 C 2723.88 -3.34348 -1.00063 0
M  V30 27304 C 2725.22 -4.0158 -1.37908 0
M  V30 27305 O 2726.25 -3.39026 -1.09271 0
M  V30 27306 O 2725.11 -5.11891 -1.9139 0
M  V30 27307 H 2722.2 -0.761461 -0.322655 0
M  V30 27308 H 2724.75 -1.6946 0.0902457 0
M  V30 27309 H 2723.52 -3.91102 -0.124394 0
M  V30 27310 H 2723.14 -3.54524 -1.79995 0
M  V30 27311 N 2724.14 0.213268 -1.5615 0
M  V30 27312 C 2725.39 0.934518 -1.78745 0
M  V30 27313 C 2725.7 1.85169 -0.630232 0
M  V30 27314 O 2726.91 2.6122 -0.740012 0
M  V30 27315 C 2725.36 1.71198 -3.16574 0
M  V30 27316 C 2724.97 0.84054 -4.40044 0
M  V30 27317 C 2726.71 2.42395 -3.4849 0
M  V30 27318 C 2724.62 1.61582 -5.68898 0
M  V30 27319 H 2723.55 0.352681 -0.666433 0
M  V30 27320 H 2726.2 0.188195 -1.82532 0
M  V30 27321 H 2724.58 2.50152 -3.06986 0
M  V30 27322 H 2725.76 0.0909516 -4.6071 0
M  V30 27323 H 2724.07 0.240292 -4.15706 0
M  V30 27324 H 2726.67 3.00916 -4.41988 0
M  V30 27325 H 2727.01 3.15691 -2.71376 0
M  V30 27326 H 2727.55 1.70424 -3.59445 0
M  V30 27327 H 2724.29 0.925992 -6.48927 0
M  V30 27328 H 2723.81 2.33981 -5.5228 0
M  V30 27329 H 2725.48 2.17436 -6.09369 0
M  V30 27330 N 2725.62 1.50103 0.480296 0
M  V30 27331 C 2727.03 1.37325 0.813271 0
M  V30 27332 C 2727.23 0.422241 1.97026 0
M  V30 27333 O 2726.29 -0.138519 2.5212 0
M  V30 27334 C 2727.6 2.78498 1.13399 0
M  V30 27335 C 2729.15 2.87347 1.24099 0
M  V30 27336 C 2729.62 4.29333 1.5949 0
M  V30 27337 N 2731.12 4.32241 1.66499 0
M  V30 27338 C 2731.85 5.3909 1.95369 0
M  V30 27339 N 2731.35 6.56159 2.22322 0
M  V30 27340 N 2733.14 5.26525 1.96794 0
M  V30 27341 H 2725.29 2.10515 -0.282328 0
M  V30 27342 H 2727.55 0.945853 -0.0637686 0
M  V30 27343 H 2727.26 3.49883 0.357002 0
M  V30 27344 H 2727.13 3.15165 2.07245 0
M  V30 27345 H 2729.52 2.16186 2.00867 0
M  V30 27346 H 2729.6 2.54235 0.282549 0
M  V30 27347 H 2729.25 5.01028 0.832648 0
M  V30 27348 H 2729.18 4.59925 2.56469 0
M  V30 27349 H 2731.67 3.47821 1.47747 0
M  V30 27350 H 2731.98 7.33403 2.43598 0
M  V30 27351 H 2730.32 6.5935 2.19734 0
M  V30 27352 H 2733.52 4.34066 1.75228 0
M  V30 27353 H 2733.69 6.09886 2.18958 0
M  V30 27354 N 2727.09 -0.732829 1.39526 0
M  V30 27355 C 2728.32 -1.51985 1.39943 0
M  V30 27356 C 2728.73 -1.89199 -0.00724648 0
M  V30 27357 O 2728.08 -1.54773 -0.989494 0
M  V30 27358 C 2728.14 -2.83523 2.21031 0
M  V30 27359 C 2727.8 -2.68732 3.69638 0
M  V30 27360 C 2728.8 -2.37135 4.62669 0
M  V30 27361 C 2726.48 -2.85535 4.1325 0
M  V30 27362 C 2728.48 -2.22526 5.97295 0
M  V30 27363 C 2726.16 -2.70544 5.4795 0
M  V30 27364 C 2727.16 -2.39085 6.39787 0
M  V30 27365 O 2726.85 -2.24191 7.72006 0
M  V30 27366 H 2726.58 -0.476198 0.479804 0
M  V30 27367 H 2729.14 -0.913022 1.83992 0
M  V30 27368 H 2727.37 -3.46474 1.71734 0
M  V30 27369 H 2729.06 -3.45152 2.136 0
M  V30 27370 H 2729.82 -2.23802 4.30276 0
M  V30 27371 H 2725.7 -3.09013 3.42099 0
M  V30 27372 H 2729.24 -1.97893 6.68943 0
M  V30 27373 H 2725.14 -2.83456 5.79933 0
M  V30 27374 H 2725.91 -2.39244 7.82754 0
M  V30 27375 N 2728.57 -1.24737 -0.963244 0
M  V30 27376 C 2729.85 -0.99763 -1.68246 0
M  V30 27377 C 2730.23 0.47874 -2.056 0
M  V30 27378 O 2729.58 1.45409 -1.76263 0
M  V30 27379 C 2729.79 -1.92492 -2.91115 0
M  V30 27380 C 2731.14 -2.19839 -3.63257 0
M  V30 27381 O 2732.16 -1.90181 -3.0118 0
M  V30 27382 O 2731.02 -2.70228 -4.75015 0
M  V30 27383 H 2728.11 -0.37765 -0.735738 0
M  V30 27384 H 2730.66 -1.35855 -1.01694 0
M  V30 27385 H 2729.43 -2.9222 -2.60237 0
M  V30 27386 H 2729.05 -1.56745 -3.654 0
M  V30 27387 N 2730.05 1.16459 -1.06184 0
M  V30 27388 C 2731 2.22869 -0.665755 0
M  V30 27389 C 2731.99 1.66392 0.317793 0
M  V30 27390 O 2733.2 1.7907 0.182776 0
M  V30 27391 H 2729.57 0.725694 -0.197161 0
M  V30 27392 H 2731.54 2.53566 -1.57312 0
M  V30 27393 C 2730.29 3.47635 -0.0670414 0
M  V30 27394 H 2729.62 3.91406 -0.814968 0
M  V30 27395 H 2731.06 4.23649 0.172594 0
M  V30 27396 C 2729.52 3.15218 1.18907 0
M  V30 27397 O 2730.05 3.3092 2.27717 0
M  V30 27398 N 2728.25 2.69358 1.09061 0
M  V30 27399 H 2727.8 2.56782 0.205135 0
M  V30 27400 H 2727.76 2.48042 1.9319 0
M  V30 27401 N 2731.53 0.844266 1.33079 0
M  V30 27402 C 2732.46 0.226319 2.27075 0
M  V30 27403 C 2733.44 -0.62969 1.49912 0
M  V30 27404 O 2734.62 -0.588771 1.79069 0
M  V30 27405 C 2731.75 -0.681724 3.31768 0
M  V30 27406 C 2730.8 0.0995314 4.26384 0
M  V30 27407 S 2731.63 1.46103 5.15184 0
M  V30 27408 C 2732.79 0.558429 6.23404 0
M  V30 27409 H 2733.02 1.02317 2.79139 0
M  V30 27410 H 2730.55 0.641316 1.40451 0
M  V30 27411 H 2732.51 -1.20001 3.92568 0
M  V30 27412 H 2731.17 -1.45229 2.78509 0
M  V30 27413 H 2730.36 -0.591645 5.00515 0
M  V30 27414 H 2729.97 0.549056 3.69948 0
M  V30 27415 H 2732.26 -0.241553 6.77069 0
M  V30 27416 H 2733.2 1.27007 6.96617 0
M  V30 27417 H 2733.61 0.13738 5.64333 0
M  V30 27418 N 2733.01 -1.45682 0.60121 0
M  V30 27419 C 2733.96 -2.27553 -0.142646 0
M  V30 27420 C 2734.94 -1.36952 -0.844574 0
M  V30 27421 O 2736.13 -1.6099 -0.735616 0
M  V30 27422 C 2733.26 -3.23693 -1.14358 0
M  V30 27423 C 2732.35 -4.21782 -0.44282 0
M  V30 27424 N 2732.74 -5.03202 0.511979 0
M  V30 27425 C 2731.04 -4.40611 -0.6912 0
M  V30 27426 C 2731.74 -5.74326 0.923281 0
M  V30 27427 N 2730.71 -5.42937 0.268403 0
M  V30 27428 H 2734.52 -2.87901 0.590787 0
M  V30 27429 H 2732.03 -1.56757 0.424393 0
M  V30 27430 H 2734.03 -3.81073 -1.69083 0
M  V30 27431 H 2732.69 -2.64905 -1.87764 0
M  V30 27432 H 2733.7 -5.10223 0.888419 0
M  V30 27433 H 2730.37 -3.92955 -1.41042 0
M  V30 27434 H 2731.76 -6.49765 1.71041 0
M  V30 27435 N 2734.48 -0.340009 -1.53889 0
M  V30 27436 C 2735.73 0.258569 -2.00036 0
M  V30 27437 C 2736.05 1.5194 -1.23182 0
M  V30 27438 O 2737.25 2.195 -1.59788 0
M  V30 27439 C 2735.71 0.511296 -3.5625 0
M  V30 27440 C 2735.32 -0.733427 -4.41956 0
M  V30 27441 C 2737.06 1.06893 -4.10821 0
M  V30 27442 C 2734.97 -0.451694 -5.89673 0
M  V30 27443 H 2733.9 0.100396 -0.747286 0
M  V30 27444 H 2736.55 -0.454789 -1.77775 0
M  V30 27445 H 2734.93 1.28526 -3.74562 0
M  V30 27446 H 2736.1 -1.50823 -4.35418 0
M  V30 27447 H 2734.42 -1.21244 -3.98358 0
M  V30 27448 H 2737.02 1.29461 -5.18791 0
M  V30 27449 H 2737.36 2.02337 -3.63821 0
M  V30 27450 H 2737.89 0.355748 -3.96206 0
M  V30 27451 H 2734.63 -1.37576 -6.409 0
M  V30 27452 H 2734.15 0.285088 -5.99122 0
M  V30 27453 H 2735.83 -0.0676204 -6.46965 0
M  V30 27454 N 2735.96 1.57451 -0.0685468 0
M  V30 27455 C 2737.37 1.80827 0.464602 0
M  V30 27456 C 2737.73 0.982198 1.69845 0
M  V30 27457 O 2736.85 0.203772 2.15438 0
M  V30 27458 C 2737.45 3.27973 0.849663 0
M  V30 27459 C 2736 3.52206 1.32769 0
M  V30 27460 C 2735.15 2.75547 0.311283 0
M  V30 27461 H 2738.1 1.55948 -0.294275 0
M  V30 27462 H 2738.12 3.39844 1.71132 0
M  V30 27463 H 2737.64 3.8807 -0.0485419 0
M  V30 27464 H 2735.74 2.9741 2.24451 0
M  V30 27465 H 2735.85 4.60903 1.30786 0
M  V30 27466 H 2734.21 2.42208 0.787873 0
M  V30 27467 H 2735 3.3838 -0.579138 0
M  V30 27468 N 2737.44 -0.204984 1.56261 0
M  V30 27469 C 2738.69 -0.925064 1.79686 0
M  V30 27470 C 2739.01 -1.84201 0.639922 0
M  V30 27471 O 2738.28 -1.92886 -0.342311 0
M  V30 27472 H 2736.86 -0.344575 0.66278 0
M  V30 27473 H 2739.52 -0.212865 1.93734 0
M  V30 27474 H 2738.62 -1.52206 2.72469 0
M  V30 27475 N 2738.92 -1.50356 -0.472329 0
M  V30 27476 C 2740.14 -1.65311 -1.25248 0
M  V30 27477 C 2740.57 -0.335675 -1.85081 0
M  V30 27478 O 2739.93 0.700306 -1.67229 0
M  V30 27479 C 2739.98 -2.74548 -2.33785 0
M  V30 27480 O 2739.08 -2.35715 -3.38396 0
M  V30 27481 H 2738.42 -0.552343 -0.368529 0
M  V30 27482 H 2740.95 -1.96723 -0.562236 0
M  V30 27483 H 2740.96 -2.97587 -2.79116 0
M  V30 27484 H 2739.64 -3.70165 -1.89607 0
M  V30 27485 H 2738.21 -2.23118 -2.98786 0
M  V30 27486 N 2740.4 0.725419 -1.39912 0
M  V30 27487 C 2741.81 1.30413 -1.33601 0
M  V30 27488 C 2742.16 1.96199 -0.00485241 0
M  V30 27489 O 2741.28 1.96923 0.897241 0
M  V30 27490 C 2741.88 2.37142 -2.41969 0
M  V30 27491 C 2740.44 2.90662 -2.39149 0
M  V30 27492 C 2739.59 1.64337 -2.23358 0
M  V30 27493 H 2742.54 0.522241 -1.49861 0
M  V30 27494 H 2742.56 3.17757 -2.0931 0
M  V30 27495 H 2742.07 1.89232 -3.3884 0
M  V30 27496 H 2740.17 3.42827 -1.45946 0
M  V30 27497 H 2740.28 3.43125 -3.34368 0
M  V30 27498 H 2738.65 1.89034 -1.70699 0
M  V30 27499 H 2739.43 1.18466 -3.22212 0
M  V30 27500 N 2741.88 1.25246 0.956615 0
M  V30 27501 C 2742.81 1.07935 2.07056 0
M  V30 27502 C 2743.79 -0.0110062 1.70096 0
M  V30 27503 O 2744.97 0.158155 1.93555 0
M  V30 27504 C 2742.1 0.695184 3.40271 0
M  V30 27505 C 2741.06 1.73555 3.91232 0
M  V30 27506 C 2740.38 1.20613 5.20919 0
M  V30 27507 C 2741.68 3.13392 4.17831 0
M  V30 27508 H 2743.38 2.01113 2.21797 0
M  V30 27509 H 2740.92 0.968345 1.06579 0
M  V30 27510 H 2742.87 0.561023 4.17649 0
M  V30 27511 H 2741.6 -0.272298 3.25463 0
M  V30 27512 H 2740.26 1.85812 3.16021 0
M  V30 27513 H 2739.91 0.228934 5.02479 0
M  V30 27514 H 2739.61 1.90146 5.55984 0
M  V30 27515 H 2741.13 1.08432 6.00895 0
M  V30 27516 H 2742.54 3.043 4.85875 0
M  V30 27517 H 2740.94 3.80377 4.64148 0
M  V30 27518 H 2742.01 3.60601 3.24183 0
M  V30 27519 N 2743.35 -1.15894 1.068 0
M  V30 27520 C 2744.29 -2.20045 0.641302 0
M  V30 27521 C 2745.3 -1.59949 -0.303327 0
M  V30 27522 O 2746.49 -1.78255 -0.0935164 0
M  V30 27523 C 2743.59 -3.38807 -0.0793433 0
M  V30 27524 C 2742.76 -4.28455 0.880062 0
M  V30 27525 C 2741.82 -5.25828 0.19773 0
M  V30 27526 O 2740.85 -5.63012 0.837012 0
M  V30 27527 N 2742.05 -5.70763 -1.05876 0
M  V30 27528 H 2744.81 -2.57273 1.53723 0
M  V30 27529 H 2742.37 -1.30954 0.951974 0
M  V30 27530 H 2744.37 -4.00995 -0.546348 0
M  V30 27531 H 2742.94 -3.00042 -0.877141 0
M  V30 27532 H 2742.16 -3.63452 1.52632 0
M  V30 27533 H 2743.44 -4.85228 1.53073 0
M  V30 27534 H 2742.84 -5.42655 -1.59818 0
M  V30 27535 H 2741.4 -6.35018 -1.46954 0
M  V30 27536 N 2744.83 -0.851312 -1.32629 0
M  V30 27537 C 2746.08 -0.453058 -1.97367 0
M  V30 27538 C 2746.41 0.990566 -1.67386 0
M  V30 27539 O 2745.66 1.70945 -0.952695 0
M  V30 27540 C 2745.96 -0.635077 -3.51712 0
M  V30 27541 C 2745.63 -2.04866 -4.01672 0
M  V30 27542 C 2744.29 -2.43529 -4.15026 0
M  V30 27543 C 2746.64 -2.97142 -4.28201 0
M  V30 27544 C 2743.97 -3.73747 -4.5225 0
M  V30 27545 C 2746.32 -4.26854 -4.66881 0
M  V30 27546 C 2744.98 -4.65457 -4.78442 0
M  V30 27547 H 2744.25 -0.165786 -0.722216 0
M  V30 27548 H 2746.9 -1.08072 -1.5809 0
M  V30 27549 H 2745.21 0.0758392 -3.91727 0
M  V30 27550 H 2746.9 -0.307034 -3.99823 0
M  V30 27551 H 2743.49 -1.73843 -3.91761 0
M  V30 27552 H 2747.68 -2.68505 -4.17395 0
M  V30 27553 H 2742.93 -4.03443 -4.59395 0
M  V30 27554 H 2747.11 -4.98421 -4.86363 0
M  V30 27555 H 2744.73 -5.66403 -5.07042 0
M  V30 27556 N 2746.31 1.45361 -0.608928 0
M  V30 27557 C 2747.54 2.06302 -0.110888 0
M  V30 27558 C 2747.95 1.454 1.21059 0
M  V30 27559 O 2747.29 0.563007 1.7486 0
M  V30 27560 C 2747.35 3.59356 0.10173 0
M  V30 27561 C 2747.02 4.426 -1.13816 0
M  V30 27562 C 2748.01 4.77493 -2.05662 0
M  V30 27563 C 2745.7 4.83331 -1.36736 0
M  V30 27564 C 2747.69 5.51973 -3.18755 0
M  V30 27565 C 2745.38 5.57565 -2.5013 0
M  V30 27566 C 2746.38 5.91803 -3.40967 0
M  V30 27567 O 2746.07 6.6453 -4.52388 0
M  V30 27568 H 2745.8 0.67271 -0.0666119 0
M  V30 27569 H 2748.35 1.87574 -0.836974 0
M  V30 27570 H 2746.58 3.7649 0.882724 0
M  V30 27571 H 2748.27 4.02135 0.551536 0
M  V30 27572 H 2749.04 4.46583 -1.8918 0
M  V30 27573 H 2744.92 4.56116 -0.669296 0
M  V30 27574 H 2748.46 5.78615 -3.8968 0
M  V30 27575 H 2744.36 5.87889 -2.66564 0
M  V30 27576 H 2745.12 6.82981 -4.51087 0
M  V30 27577 N 2747.79 0.348166 1.53706 0
M  V30 27578 C 2749.03 -0.247296 2.01287 0
M  V30 27579 C 2749.37 -1.49831 1.23548 0
M  V30 27580 O 2748.64 -1.91776 0.324364 0
M  V30 27581 C 2748.92 -0.556795 3.55769 0
M  V30 27582 C 2748.78 0.706642 4.44215 0
M  V30 27583 C 2750.1 -1.36453 4.18412 0
M  V30 27584 H 2747.22 -0.0884073 0.731678 0
M  V30 27585 H 2749.86 0.469616 1.84105 0
M  V30 27586 H 2748.01 -1.16755 3.70541 0
M  V30 27587 H 2749.68 1.34451 4.41271 0
M  V30 27588 H 2747.92 1.33059 4.12889 0
M  V30 27589 H 2748.59 0.445282 5.50201 0
M  V30 27590 H 2751.07 -0.848042 4.07366 0
M  V30 27591 H 2749.95 -1.54983 5.26566 0
M  V30 27592 H 2750.21 -2.36799 3.73335 0
M  V30 27593 N 2749.27 -1.57412 0.0768958 0
M  V30 27594 C 2750.54 -1.85097 -0.632327 0
M  V30 27595 C 2750.92 -0.970333 -1.87477 0
M  V30 27596 O 2750.27 -0.0379464 -2.28468 0
M  V30 27597 C 2750.48 -3.3539 -0.965115 0
M  V30 27598 C 2751.83 -4.0302 -1.33641 0
M  V30 27599 O 2752.85 -3.40165 -1.05669 0
M  V30 27600 O 2751.71 -5.13892 -1.8595 0
M  V30 27601 H 2748.81 -0.76484 -0.31456 0
M  V30 27602 H 2751.35 -1.69355 0.108214 0
M  V30 27603 H 2750.12 -3.91212 -0.0829057 0
M  V30 27604 H 2749.75 -3.56414 -1.76225 0
M  V30 27605 N 2750.74 0.196695 -1.56368 0
M  V30 27606 C 2751.97 0.932222 -1.84372 0
M  V30 27607 C 2752.38 1.77425 -0.657045 0
M  V30 27608 O 2751.73 1.79651 0.383545 0
M  V30 27609 C 2751.79 1.87947 -3.06458 0
M  V30 27610 C 2751.45 1.21955 -4.40427 0
M  V30 27611 C 2752.45 0.597252 -5.16458 0
M  V30 27612 C 2750.13 1.22388 -4.87162 0
M  V30 27613 C 2752.13 -0.0119033 -6.37399 0
M  V30 27614 C 2749.81 0.610888 -6.08039 0
M  V30 27615 C 2750.81 -0.00592492 -6.83 0
M  V30 27616 O 2750.5 -0.609314 -8.01588 0
M  V30 27617 H 2750.23 0.277578 -0.616382 0
M  V30 27618 H 2752.79 0.209416 -2.0433 0
M  V30 27619 H 2751.02 2.64192 -2.82381 0
M  V30 27620 H 2752.71 2.48265 -3.21122 0
M  V30 27621 H 2753.47 0.586057 -4.81446 0
M  V30 27622 H 2749.35 1.69337 -4.28773 0
M  V30 27623 H 2752.89 -0.493958 -6.95849 0
M  V30 27624 H 2748.79 0.61958 -6.4252 0
M  V30 27625 H 2749.56 -0.506062 -8.16934 0
M  V30 27626 N 2752.22 1.50604 0.464349 0
M  V30 27627 C 2753.47 1.6217 1.21773 0
M  V30 27628 C 2753.8 0.324188 1.91475 0
M  V30 27629 O 2753.08 -0.67475 1.82421 0
M  V30 27630 C 2753.36 2.80665 2.25609 0
M  V30 27631 C 2753.21 4.20317 1.60168 0
M  V30 27632 C 2754.53 2.94707 3.26857 0
M  V30 27633 H 2751.65 0.59023 0.441359 0
M  V30 27634 H 2754.29 1.83011 0.51059 0
M  V30 27635 H 2752.44 2.63026 2.85919 0
M  V30 27636 H 2754.11 4.49562 1.03403 0
M  V30 27637 H 2752.36 4.24263 0.904622 0
M  V30 27638 H 2753.03 4.9917 2.35656 0
M  V30 27639 H 2755.5 3.10877 2.76577 0
M  V30 27640 H 2754.38 3.7923 3.96832 0
M  V30 27641 H 2754.64 2.0561 3.91378 0
M  V30 27642 N 2753.7 -0.717989 1.40295 0
M  V30 27643 C 2754.65 -1.85341 1.4054 0
M  V30 27644 C 2755.64 -1.66964 0.286222 0
M  V30 27645 O 2756.85 -1.74098 0.457135 0
M  V30 27646 H 2753.22 -0.610382 0.439247 0
M  V30 27647 H 2755.19 -1.82251 2.36278 0
M  V30 27648 C 2753.94 -3.23183 1.28251 0
M  V30 27649 H 2753.27 -3.37928 2.13646 0
M  V30 27650 H 2754.71 -4.02771 1.32481 0
M  V30 27651 C 2753.17 -3.36899 -0.00749108 0
M  V30 27652 O 2753.7 -3.8978 -0.971323 0
M  V30 27653 N 2751.9 -2.905 -0.0761969 0
M  V30 27654 H 2751.45 -2.47655 0.708863 0
M  V30 27655 H 2751.41 -3.00057 -0.938793 0
M  V30 27656 N 2755.18 -1.25752 -0.94996 0
M  V30 27657 C 2756.42 -1.11988 -1.70992 0
M  V30 27658 C 2756.78 0.332713 -1.89095 0
M  V30 27659 O 2757.98 0.592285 -2.62193 0
M  V30 27660 C 2756.25 -1.85842 -3.05282 0
M  V30 27661 S 2757.81 -1.88026 -3.96474 0
M  V30 27662 H 2754.63 -0.400188 -0.587682 0
M  V30 27663 H 2757.23 -1.59344 -1.13268 0
M  V30 27664 H 2755.94 -2.90613 -2.8978 0
M  V30 27665 H 2755.47 -1.38891 -3.68066 0
M  V30 27666 H 2757.48 -0.960656 -4.86812 0
M  V30 27667 N 2756.66 1.15326 -1.07413 0
M  V30 27668 C 2757.9 1.85759 -0.796106 0
M  V30 27669 C 2758.23 1.82766 0.679832 0
M  V30 27670 O 2757.5 1.26903 1.4924 0
M  V30 27671 H 2756.08 0.687774 -0.291507 0
M  V30 27672 H 2758.74 1.398 -1.35801 0
M  V30 27673 H 2757.83 2.90879 -1.13119 0
M  V30 27674 N 2758.13 0.858334 1.32176 0
M  V30 27675 C 2759.08 0.277347 2.26307 0
M  V30 27676 C 2760.07 -0.57892 1.50124 0
M  V30 27677 O 2761.26 -0.427701 1.71755 0
M  V30 27678 C 2758.39 -0.530172 3.39181 0
M  V30 27679 C 2757.48 0.338688 4.22745 0
M  V30 27680 N 2757.87 1.42668 4.85262 0
M  V30 27681 C 2756.16 0.129079 4.45813 0
M  V30 27682 C 2756.87 1.96152 5.47631 0
M  V30 27683 N 2755.84 1.26016 5.28792 0
M  V30 27684 H 2759.64 1.10907 2.72171 0
M  V30 27685 H 2757.16 0.704842 1.46307 0
M  V30 27686 H 2759.15 -0.962833 4.05629 0
M  V30 27687 H 2757.81 -1.35964 2.94862 0
M  V30 27688 H 2758.83 1.80961 4.85256 0
M  V30 27689 H 2755.5 -0.665378 4.12164 0
M  V30 27690 H 2756.89 2.87371 6.07345 0
M  V30 27691 N 2759.61 -1.45036 0.616628 0
M  V30 27692 C 2760.86 -2.02471 0.115537 0
M  V30 27693 C 2761.19 -1.48282 -1.25404 0
M  V30 27694 O 2760.47 -0.661083 -1.82921 0
M  V30 27695 C 2760.75 -3.59996 0.0864221 0
M  V30 27696 C 2760.6 -4.24499 1.4873 0
M  V30 27697 C 2761.92 -4.36036 -0.596685 0
M  V30 27698 H 2759.04 -0.735718 0.0434591 0
M  V30 27699 H 2761.68 -1.72782 0.79033 0
M  V30 27700 H 2759.83 -3.8542 -0.488209 0
M  V30 27701 H 2761.5 -4.1023 2.10971 0
M  V30 27702 H 2759.75 -3.82551 2.04541 0
M  V30 27703 H 2760.42 -5.33447 1.41909 0
M  V30 27704 H 2762.89 -4.15959 -0.108166 0
M  V30 27705 H 2761.77 -5.45761 -0.586193 0
M  V30 27706 H 2762.03 -4.09572 -1.66444 0
M  V30 27707 N 2761.09 -0.356312 -1.53519 0
M  V30 27708 C 2762.32 0.237291 -2.05535 0
M  V30 27709 C 2762.73 1.43197 -1.23045 0
M  V30 27710 O 2762.09 1.80509 -0.268852 0
M  V30 27711 C 2762.14 0.639871 -3.55792 0
M  V30 27712 O 2761.86 -0.50731 -4.35153 0
M  V30 27713 C 2763.36 1.29284 -4.24029 0
M  V30 27714 H 2760.58 0.0435454 -0.669586 0
M  V30 27715 H 2763.13 -0.511998 -1.97987 0
M  V30 27716 H 2761.28 1.33909 -3.63521 0
M  V30 27717 H 2761.7 -0.183842 -5.24178 0
M  V30 27718 H 2763.17 1.52517 -5.30511 0
M  V30 27719 H 2763.65 2.25033 -3.7717 0
M  V30 27720 H 2764.25 0.635316 -4.20528 0
M  V30 27721 N 2762.57 1.57369 -0.0852427 0
M  V30 27722 C 2763.53 2.12346 0.862662 0
M  V30 27723 C 2764.53 1.05048 1.21744 0
M  V30 27724 O 2765.72 1.30978 1.1485 0
M  V30 27725 C 2762.85 2.63592 2.16176 0
M  V30 27726 H 2764.05 2.97413 0.385459 0
M  V30 27727 H 2761.6 1.55441 0.163636 0
M  V30 27728 H 2762.33 1.82018 2.68403 0
M  V30 27729 H 2762.12 3.42033 1.91717 0
M  V30 27730 H 2763.61 3.06154 2.84006 0
M  V30 27731 N 2764.05 -0.188399 1.5647 0
M  V30 27732 C 2765.28 -0.922431 1.84864 0
M  V30 27733 C 2765.68 -1.77074 0.666445 0
M  V30 27734 O 2765.03 -1.79852 -0.374012 0
M  V30 27735 C 2765.09 -1.86319 3.0745 0
M  V30 27736 C 2764.75 -1.19617 4.41068 0
M  V30 27737 C 2765.75 -0.569855 5.16768 0
M  V30 27738 C 2763.44 -1.19803 4.87804 0
M  V30 27739 C 2765.43 0.045706 6.37384 0
M  V30 27740 C 2763.12 -0.578633 6.08354 0
M  V30 27741 C 2764.11 0.042146 6.82987 0
M  V30 27742 O 2763.8 0.651815 8.01253 0
M  V30 27743 H 2763.53 -0.274306 0.617845 0
M  V30 27744 H 2766.09 -0.198577 2.04438 0
M  V30 27745 H 2764.32 -2.62691 2.83778 0
M  V30 27746 H 2766.01 -2.46558 3.22434 0
M  V30 27747 H 2766.77 -0.560517 4.8175 0
M  V30 27748 H 2762.65 -1.67061 4.29665 0
M  V30 27749 H 2766.2 0.530853 6.95577 0
M  V30 27750 H 2762.09 -0.585497 6.42839 0
M  V30 27751 H 2762.86 0.549379 8.16654 0
M  V30 27752 N 2765.53 -1.50848 -0.456355 0
M  V30 27753 C 2766.77 -1.62252 -1.20494 0
M  V30 27754 C 2767.09 -0.331872 -1.92155 0
M  V30 27755 O 2766.36 0.651411 -1.84752 0
M  V30 27756 H 2764.94 -0.597926 -0.447765 0
M  V30 27757 H 2767.61 -1.87694 -0.525066 0
M  V30 27758 H 2766.7 -2.44092 -1.94487 0
M  V30 27759 N 2767 0.710538 -1.40674 0
M  V30 27760 C 2768.41 1.28989 -1.34977 0
M  V30 27761 C 2768.77 1.96183 -0.0256617 0
M  V30 27762 O 2767.89 1.97863 0.876304 0
M  V30 27763 C 2768.49 2.34562 -2.44471 0
M  V30 27764 C 2767.04 2.8811 -2.42219 0
M  V30 27765 C 2766.19 1.61959 -2.25088 0
M  V30 27766 H 2769.14 0.506317 -1.50407 0
M  V30 27767 H 2769.16 3.15519 -2.12668 0
M  V30 27768 H 2768.68 1.85628 -3.40828 0
M  V30 27769 H 2766.78 3.4126 -1.49574 0
M  V30 27770 H 2766.89 3.39559 -3.37989 0
M  V30 27771 H 2765.25 1.87213 -1.72694 0
M  V30 27772 H 2766.04 1.15042 -3.23451 0
M  V30 27773 N 2768.48 1.26254 0.943277 0
M  V30 27774 C 2769.73 1.11454 1.6859 0
M  V30 27775 C 2770.05 -0.343089 1.91958 0
M  V30 27776 O 2769.32 -1.24223 1.51477 0
M  V30 27777 H 2767.9 0.409459 0.624782 0
M  V30 27778 H 2770.56 1.5855 1.13348 0
M  V30 27779 H 2769.66 1.63167 2.66051 0
M  V30 27780 N 2769.96 -1.14755 1.08024 0
M  V30 27781 C 2770.89 -2.21852 0.728287 0
M  V30 27782 C 2771.87 -1.67654 -0.287457 0
M  V30 27783 O 2773.06 -1.93551 -0.158693 0
M  V30 27784 C 2770.19 -3.47047 0.13261 0
M  V30 27785 C 2769.14 -4.14247 1.07627 0
M  V30 27786 C 2768.47 -5.33599 0.343001 0
M  V30 27787 C 2769.77 -4.63231 2.41276 0
M  V30 27788 H 2771.46 -2.51548 1.6237 0
M  V30 27789 H 2769.01 -1.20907 0.782146 0
M  V30 27790 H 2770.96 -4.21213 -0.125591 0
M  V30 27791 H 2769.68 -3.16703 -0.797915 0
M  V30 27792 H 2768.34 -3.4203 1.3195 0
M  V30 27793 H 2767.99 -4.99514 -0.591203 0
M  V30 27794 H 2767.69 -5.79504 0.972057 0
M  V30 27795 H 2769.21 -6.1053 0.0927611 0
M  V30 27796 H 2770.63 -5.28891 2.21241 0
M  V30 27797 H 2769.02 -5.19824 2.99839 0
M  V30 27798 H 2770.09 -3.78506 3.03086 0
M  V30 27799 N 2771.44 -0.865331 -1.31719 0
M  V30 27800 C 2772.67 -0.488286 -2.01056 0
M  V30 27801 C 2773.08 0.917971 -1.64981 0
M  V30 27802 O 2772.44 1.60067 -0.876625 0
M  V30 27803 C 2772.49 -0.630286 -3.55963 0
M  V30 27804 O 2772.21 -1.98116 -3.90745 0
M  V30 27805 C 2773.71 -0.253645 -4.42574 0
M  V30 27806 H 2770.93 -0.190748 -0.643317 0
M  V30 27807 H 2773.47 -1.16522 -1.68056 0
M  V30 27808 H 2771.63 -0.000963517 -3.874 0
M  V30 27809 H 2772.04 -1.98559 -4.85463 0
M  V30 27810 H 2773.52 -0.403971 -5.5052 0
M  V30 27811 H 2773.99 0.806819 -4.31726 0
M  V30 27812 H 2774.6 -0.858478 -4.16546 0
M  V30 27813 N 2772.92 1.44707 -0.624311 0
M  V30 27814 C 2773.87 2.27751 0.106426 0
M  V30 27815 C 2774.85 1.38278 0.822679 0
M  V30 27816 O 2776.04 1.6214 0.709911 0
M  V30 27817 C 2773.17 3.25471 1.09194 0
M  V30 27818 C 2772.26 4.22433 0.375662 0
M  V30 27819 N 2772.65 5.02324 -0.591969 0
M  V30 27820 C 2770.95 4.41655 0.621015 0
M  V30 27821 C 2771.65 5.72785 -1.01453 0
M  V30 27822 N 2770.62 5.42441 -0.354746 0
M  V30 27823 H 2774.42 2.86925 -0.636515 0
M  V30 27824 H 2771.94 1.56062 -0.449278 0
M  V30 27825 H 2773.94 3.83715 1.62999 0
M  V30 27826 H 2772.6 2.67859 1.83526 0
M  V30 27827 H 2773.61 5.08745 -0.969479 0
M  V30 27828 H 2770.28 3.95149 1.34772 0
M  V30 27829 H 2771.67 6.46962 -1.81356 0
M  V30 27830 N 2774.39 0.364449 1.53328 0
M  V30 27831 C 2775.64 -0.225153 2.00842 0
M  V30 27832 C 2775.96 -1.49375 1.25347 0
M  V30 27833 O 2775.23 -1.92442 0.36643 0
M  V30 27834 H 2773.81 -0.0861897 0.742011 0
M  V30 27835 H 2776.47 0.490422 1.88629 0
M  V30 27836 H 2775.57 -0.452933 3.08796 0
M  V30 27837 N 2775.87 -1.57322 0.0935872 0
M  V30 27838 C 2777.12 -1.94586 -0.57132 0
M  V30 27839 C 2777.45 -0.975395 -1.67928 0
M  V30 27840 O 2776.73 -0.00819625 -1.94498 0
M  V30 27841 C 2777.01 -3.4198 -1.12791 0
M  V30 27842 C 2776.86 -4.49793 -0.0251091 0
M  V30 27843 C 2778.18 -3.90654 -2.02675 0
M  V30 27844 H 2775.3 -0.707564 -0.20621 0
M  V30 27845 H 2777.94 -1.89291 0.163989 0
M  V30 27846 H 2776.09 -3.46623 -1.75455 0
M  V30 27847 H 2777.76 -4.57262 0.609059 0
M  V30 27848 H 2776.01 -4.29031 0.641475 0
M  V30 27849 H 2776.68 -5.50119 -0.455336 0
M  V30 27850 H 2779.15 -3.88154 -1.49918 0
M  V30 27851 H 2778.03 -4.94355 -2.38546 0
M  V30 27852 H 2778.29 -3.29859 -2.94356 0
M  V30 27853 N 2777.35 0.180099 -1.56568 0
M  V30 27854 C 2778.6 0.899465 -1.81762 0
M  V30 27855 C 2778.93 1.82275 -0.670048 0
M  V30 27856 O 2778.2 1.91705 0.328541 0
M  V30 27857 C 2778.49 1.70274 -3.17299 0
M  V30 27858 C 2778.34 0.803177 -4.42571 0
M  V30 27859 C 2779.66 2.67227 -3.49683 0
M  V30 27860 H 2776.78 0.325555 -0.661198 0
M  V30 27861 H 2779.42 0.166087 -1.89273 0
M  V30 27862 H 2777.57 2.32797 -3.11027 0
M  V30 27863 H 2779.24 0.191504 -4.60902 0
M  V30 27864 H 2777.48 0.11072 -4.33659 0
M  V30 27865 H 2778.16 1.40054 -5.33937 0
M  V30 27866 H 2780.63 2.14833 -3.56351 0
M  V30 27867 H 2779.51 3.20503 -4.45611 0
M  V30 27868 H 2779.77 3.47002 -2.73938 0
M  V30 27869 N 2778.83 1.51088 0.448349 0
M  V30 27870 C 2779.78 1.72164 1.56404 0
M  V30 27871 C 2780.77 0.587748 1.58877 0
M  V30 27872 O 2781.98 0.768851 1.62753 0
M  V30 27873 H 2778.35 0.543796 0.519413 0
M  V30 27874 H 2780.32 2.65709 1.35798 0
M  V30 27875 C 2779.07 1.85378 2.9416 0
M  V30 27876 H 2778.39 2.72029 2.92985 0
M  V30 27877 H 2779.83 2.04142 3.71621 0
M  V30 27878 C 2778.29 0.610861 3.31316 0
M  V30 27879 O 2778.82 -0.239566 4.00985 0
M  V30 27880 N 2777.03 0.458177 2.86965 0
M  V30 27881 H 2776.58 1.15128 2.30441 0
M  V30 27882 H 2776.53 -0.372234 3.12189 0
M  V30 27883 N 2780.31 -0.703068 1.41049 0
M  V30 27884 C 2781.25 -1.81708 1.42305 0
M  V30 27885 C 2782.22 -1.63751 0.278364 0
M  V30 27886 O 2783.41 -1.84708 0.478298 0
M  V30 27887 C 2780.55 -3.19528 1.30367 0
M  V30 27888 C 2779.66 -3.4897 2.54644 0
M  V30 27889 C 2778.8 -4.76364 2.35055 0
M  V30 27890 C 2777.84 -4.98749 3.54846 0
M  V30 27891 N 2776.97 -6.17364 3.34374 0
M  V30 27892 H 2781.81 -1.79969 2.37519 0
M  V30 27893 H 2779.35 -0.878962 1.17952 0
M  V30 27894 H 2781.31 -3.99131 1.2145 0
M  V30 27895 H 2779.94 -3.20464 0.387658 0
M  V30 27896 H 2778.99 -2.63829 2.74041 0
M  V30 27897 H 2780.3 -3.61417 3.43772 0
M  V30 27898 H 2779.46 -5.64008 2.23562 0
M  V30 27899 H 2778.19 -4.6615 1.43372 0
M  V30 27900 H 2777.2 -4.09556 3.66802 0
M  V30 27901 H 2778.42 -5.10827 4.47473 0
M  V30 27902 H 2776.37 -6.08377 2.45383 0
M  V30 27903 H 2776.29 -6.30544 4.17074 0
M  V30 27904 H 2777.56 -7.07762 3.26638 0
M  V30 27905 N 2781.78 -1.26752 -0.936569 0
M  V30 27906 C 2783.2 -1.11412 -1.49814 0
M  V30 27907 C 2783.55 0.303981 -1.93831 0
M  V30 27908 O 2782.67 1.19597 -1.80348 0
M  V30 27909 C 2783.27 -2.01633 -2.72267 0
M  V30 27910 C 2781.83 -1.90425 -3.24677 0
M  V30 27911 C 2780.97 -1.94711 -1.9744 0
M  V30 27912 H 2783.92 -1.39775 -0.75158 0
M  V30 27913 H 2783.94 -1.56694 -3.46738 0
M  V30 27914 H 2783.46 -3.04837 -2.402 0
M  V30 27915 H 2781.56 -0.901738 -3.61524 0
M  V30 27916 H 2781.67 -2.76201 -3.91471 0
M  V30 27917 H 2780.03 -1.38822 -2.13543 0
M  V30 27918 H 2780.82 -2.99553 -1.67698 0
M  V30 27919 N 2783.26 1.1418 -1.08631 0
M  V30 27920 C 2784.23 2.17529 -0.722065 0
M  V30 27921 C 2785.23 1.58934 0.244278 0
M  V30 27922 O 2786.42 1.74184 0.0235239 0
M  V30 27923 C 2783.55 3.40835 -0.0664565 0
M  V30 27924 H 2784.74 2.51266 -1.63724 0
M  V30 27925 H 2782.29 1.28868 -0.884465 0
M  V30 27926 H 2783.03 3.1268 0.860334 0
M  V30 27927 H 2782.81 3.84631 -0.761665 0
M  V30 27928 H 2784.3 4.1724 0.173272 0
M  V30 27929 N 2784.74 0.872304 1.31258 0
M  V30 27930 C 2785.97 0.498942 2.00794 0
M  V30 27931 C 2786.38 -0.909209 1.65466 0
M  V30 27932 O 2785.74 -1.596 0.885101 0
M  V30 27933 C 2785.79 0.649155 3.55624 0
M  V30 27934 O 2785.51 2.00185 3.89689 0
M  V30 27935 C 2787.01 0.277112 4.42433 0
M  V30 27936 H 2784.23 0.194157 0.642296 0
M  V30 27937 H 2786.78 1.17411 1.67436 0
M  V30 27938 H 2784.93 0.0215083 3.87394 0
M  V30 27939 H 2785.35 2.01131 4.84403 0
M  V30 27940 H 2786.82 0.433161 5.50298 0
M  V30 27941 H 2787.3 -0.783913 4.32147 0
M  V30 27942 H 2787.9 0.880556 4.16084 0
M  V30 27943 N 2786.22 -1.44374 0.631976 0
M  V30 27944 C 2787.47 -2.02037 0.136803 0
M  V30 27945 C 2787.79 -1.49711 -1.24165 0
M  V30 27946 O 2787.05 -0.671795 -1.83808 0
M  V30 27947 C 2787.35 -3.57324 0.0736489 0
M  V30 27948 C 2787.01 -4.28908 1.39099 0
M  V30 27949 C 2785.68 -4.48181 1.75179 0
M  V30 27950 C 2788.03 -4.69628 2.26051 0
M  V30 27951 C 2785.36 -5.05434 2.97916 0
M  V30 27952 C 2787.71 -5.2824 3.48059 0
M  V30 27953 C 2786.37 -5.45732 3.84361 0
M  V30 27954 H 2785.64 -0.739307 0.0500596 0
M  V30 27955 H 2788.29 -1.73129 0.81846 0
M  V30 27956 H 2786.59 -3.85652 -0.691381 0
M  V30 27957 H 2788.29 -3.99672 -0.32602 0
M  V30 27958 H 2784.88 -4.14238 1.10022 0
M  V30 27959 H 2789.06 -4.5445 1.99471 0
M  V30 27960 H 2784.32 -5.17163 3.26117 0
M  V30 27961 H 2788.49 -5.58742 4.15668 0
M  V30 27962 H 2786.12 -5.89862 4.79549 0
M  V30 27963 N 2787.7 -0.372575 -1.53133 0
M  V30 27964 C 2788.92 0.215478 -2.05775 0
M  V30 27965 C 2789.34 1.41884 -1.24557 0
M  V30 27966 O 2788.7 1.80214 -0.287983 0
M  V30 27967 C 2788.75 0.602098 -3.56451 0
M  V30 27968 O 2788.47 -0.553435 -4.3459 0
M  V30 27969 C 2789.97 1.2478 -4.25376 0
M  V30 27970 H 2787.19 0.0364411 -0.67001 0
M  V30 27971 H 2789.73 -0.532968 -1.97433 0
M  V30 27972 H 2787.89 1.30045 -3.6492 0
M  V30 27973 H 2788.3 -0.239428 -5.23953 0
M  V30 27974 H 2789.78 1.46882 -5.32099 0
M  V30 27975 H 2790.25 2.2102 -3.79535 0
M  V30 27976 H 2790.86 0.590678 -4.21178 0
M  V30 27977 N 2789.17 1.5727 -0.101929 0
M  V30 27978 C 2790.42 1.94886 0.560993 0
M  V30 27979 C 2790.75 0.984287 1.67408 0
M  V30 27980 O 2790.03 0.0185108 1.94491 0
M  V30 27981 C 2790.31 3.42573 1.10976 0
M  V30 27982 C 2790.16 4.498 0.00125511 0
M  V30 27983 C 2791.48 3.91724 2.00601 0
M  V30 27984 H 2788.6 0.708647 0.202455 0
M  V30 27985 H 2791.24 1.89201 -0.174026 0
M  V30 27986 H 2789.39 3.47549 1.73614 0
M  V30 27987 H 2791.07 4.56932 -0.6333 0
M  V30 27988 H 2789.31 4.28685 -0.664218 0
M  V30 27989 H 2789.98 5.50353 0.426156 0
M  V30 27990 H 2792.46 3.88944 1.47857 0
M  V30 27991 H 2791.33 4.95613 2.35921 0
M  V30 27992 H 2791.59 3.31416 2.92602 0
M  V30 27993 N 2790.65 -0.171793 1.56661 0
M  V30 27994 C 2791.6 -1.23203 1.97291 0
M  V30 27995 C 2792.59 -1.45853 0.861591 0
M  V30 27996 O 2793.8 -1.46438 1.0467 0
M  V30 27997 H 2790.18 -0.414139 0.627689 0
M  V30 27998 H 2792.15 -0.862492 2.85664 0
M  V30 27999 C 2790.9 -2.56396 2.34854 0
M  V30 28000 H 2790.22 -2.39791 3.19907 0
M  V30 28001 H 2791.66 -3.29271 2.67127 0
M  V30 28002 C 2790.12 -3.15116 1.19177 0
M  V30 28003 O 2790.65 -3.98832 0.479183 0
M  V30 28004 N 2788.85 -2.74199 0.962463 0
M  V30 28005 H 2788.4 -2.06223 1.54369 0
M  V30 28006 H 2788.36 -3.13823 0.190327 0
M  V30 28007 N 2792.13 -1.51324 -0.44033 0
M  V30 28008 C 2793.36 -1.67647 -1.21252 0
M  V30 28009 C 2793.77 -0.372552 -1.85088 0
M  V30 28010 O 2793.13 0.648653 -1.70584 0
M  V30 28011 C 2793.18 -2.78997 -2.29876 0
M  V30 28012 O 2792.9 -4.04337 -1.68652 0
M  V30 28013 C 2794.4 -3.06563 -3.20209 0
M  V30 28014 H 2791.62 -0.562672 -0.36557 0
M  V30 28015 H 2794.17 -1.97723 -0.522105 0
M  V30 28016 H 2792.32 -2.51529 -2.94639 0
M  V30 28017 H 2792.74 -4.66154 -2.40418 0
M  V30 28018 H 2794.21 -3.88065 -3.92568 0
M  V30 28019 H 2794.69 -2.18851 -3.8079 0
M  V30 28020 H 2795.29 -3.35679 -2.6115 0
M  V30 28021 N 2793.61 0.695578 -1.41419 0
M  V30 28022 C 2794.56 1.80951 -1.43267 0
M  V30 28023 C 2795.53 1.63601 -0.287045 0
M  V30 28024 O 2796.71 1.84451 -0.488087 0
M  V30 28025 C 2793.85 3.18833 -1.3206 0
M  V30 28026 C 2792.96 3.47615 -2.56491 0
M  V30 28027 C 2792.1 4.75111 -2.37578 0
M  V30 28028 C 2791.14 4.96861 -3.57486 0
M  V30 28029 N 2790.27 6.15582 -3.37643 0
M  V30 28030 H 2795.11 1.78707 -2.3847 0
M  V30 28031 H 2792.65 0.872694 -1.18416 0
M  V30 28032 H 2794.61 3.98482 -1.23565 0
M  V30 28033 H 2793.24 3.20254 -0.404648 0
M  V30 28034 H 2792.29 2.62372 -2.75437 0
M  V30 28035 H 2793.6 3.59588 -3.45684 0
M  V30 28036 H 2792.76 5.62814 -2.2655 0
M  V30 28037 H 2791.5 4.65383 -1.45842 0
M  V30 28038 H 2790.5 4.07605 -3.68969 0
M  V30 28039 H 2791.73 5.08447 -4.50176 0
M  V30 28040 H 2789.67 6.07067 -2.48606 0
M  V30 28041 H 2789.59 6.28323 -4.20412 0
M  V30 28042 H 2790.86 7.0602 -3.30387 0
M  V30 28043 N 2795.09 1.27247 0.929833 0
M  V30 28044 C 2796.36 1.04189 1.65542 0
M  V30 28045 C 2796.74 -0.42406 2.06797 0
M  V30 28046 O 2796.09 -1.40684 1.80056 0
M  V30 28047 C 2796.3 2.00143 2.85909 0
M  V30 28048 C 2797.65 2.29393 3.57301 0
M  V30 28049 O 2798.67 1.981 2.96032 0
M  V30 28050 O 2797.53 2.82728 4.67683 0
M  V30 28051 H 2794.63 0.397024 0.725466 0
M  V30 28052 H 2797.17 1.38503 0.980559 0
M  V30 28053 H 2795.95 2.99017 2.52398 0
M  V30 28054 H 2795.57 1.66377 3.61115 0
M  V30 28055 N 2796.57 -1.13603 1.09235 0
M  V30 28056 C 2797.53 -2.17143 0.733591 0
M  V30 28057 C 2798.53 -1.59061 -0.235845 0
M  V30 28058 O 2799.72 -1.74194 -0.0142861 0
M  V30 28059 C 2796.85 -3.40795 0.0845309 0
M  V30 28060 H 2798.04 -2.50394 1.65054 0
M  V30 28061 H 2795.6 -1.28397 0.891286 0
M  V30 28062 H 2796.33 -3.13132 -0.84374 0
M  V30 28063 H 2796.12 -3.84222 0.782052 0
M  V30 28064 H 2797.61 -4.17326 -0.151143 0
M  V30 28065 N 2798.04 -0.879253 -1.30793 0
M  V30 28066 C 2799.29 -0.493843 -1.95973 0
M  V30 28067 C 2799.61 0.958991 -1.69789 0
M  V30 28068 O 2798.88 1.67351 -1.01835 0
M  V30 28069 H 2797.46 -0.179635 -0.72508 0
M  V30 28070 H 2800.12 -1.12108 -1.5943 0
M  V30 28071 H 2799.22 -0.659316 -3.05056 0
M  V30 28072 N 2799.52 1.44037 -0.639624 0
M  V30 28073 C 2800.43 2.3452 0.0611965 0
M  V30 28074 C 2801.45 1.53107 0.82669 0
M  V30 28075 O 2802.62 1.85807 0.777027 0
M  V30 28076 C 2799.69 3.31206 1.02486 0
M  V30 28077 C 2798.75 4.28525 0.257804 0
M  V30 28078 C 2797.98 5.20592 1.17557 0
M  V30 28079 O 2798.21 5.16776 2.41452 0
M  V30 28080 O 2797.14 5.98322 0.655302 0
M  V30 28081 H 2800.97 2.95915 -0.683232 0
M  V30 28082 H 2798.55 1.43951 -0.399809 0
M  V30 28083 H 2800.43 3.90697 1.57905 0
M  V30 28084 H 2799.11 2.72333 1.74975 0
M  V30 28085 H 2798.01 3.72555 -0.339632 0
M  V30 28086 H 2799.35 4.90342 -0.42724 0
M  V30 28087 N 2801 0.380691 1.52933 0
M  V30 28088 C 2802.25 -0.203839 2.01069 0
M  V30 28089 C 2802.57 -1.48038 1.26925 0
M  V30 28090 O 2801.84 -1.92043 0.38682 0
M  V30 28091 H 2800.42 -0.0783148 0.742883 0
M  V30 28092 H 2803.08 0.510401 1.88098 0
M  V30 28093 H 2802.18 -0.420156 3.09259 0
M  V30 28094 N 2802.48 -1.57214 0.110268 0
M  V30 28095 C 2803.73 -1.94507 -0.548749 0
M  V30 28096 C 2804.05 -0.993889 -1.6777 0
M  V30 28097 O 2803.32 -0.0486185 -1.9584 0
M  V30 28098 H 2801.9 -0.718119 -0.205702 0
M  V30 28099 H 2804.56 -1.94093 0.177161 0
M  V30 28100 H 2803.65 -2.97321 -0.949043 0
M  V30 28101 N 2803.96 0.163482 -1.5675 0
M  V30 28102 C 2804.89 1.20435 -2.00044 0
M  V30 28103 C 2805.87 1.45732 -0.877282 0
M  V30 28104 O 2807.05 1.56933 -1.14393 0
M  V30 28105 C 2804.18 2.54145 -2.36702 0
M  V30 28106 C 2803.14 2.43402 -3.52051 0
M  V30 28107 C 2802.46 3.81673 -3.74473 0
M  V30 28108 C 2803.76 1.93208 -4.85251 0
M  V30 28109 H 2805.46 0.844427 -2.87245 0
M  V30 28110 H 2803 0.404755 -1.38195 0
M  V30 28111 H 2804.95 3.27171 -2.65588 0
M  V30 28112 H 2803.68 2.9194 -1.46419 0
M  V30 28113 H 2802.34 1.72829 -3.23304 0
M  V30 28114 H 2801.99 4.16875 -2.81468 0
M  V30 28115 H 2801.69 3.75351 -4.5209 0
M  V30 28116 H 2803.21 4.56273 -4.05768 0
M  V30 28117 H 2804.62 2.56014 -5.12962 0
M  V30 28118 H 2803.02 1.97815 -5.66559 0
M  V30 28119 H 2804.09 0.886806 -4.76722 0
M  V30 28120 N 2805.43 1.51555 0.432299 0
M  V30 28121 C 2806.66 1.68574 1.20821 0
M  V30 28122 C 2807.08 0.384628 1.84126 0
M  V30 28123 O 2806.44 -0.655722 1.69027 0
M  V30 28124 C 2806.49 2.8065 2.26424 0
M  V30 28125 O 2805.59 2.44604 3.32028 0
M  V30 28126 H 2804.93 0.561919 0.353755 0
M  V30 28127 H 2807.46 1.98145 0.509881 0
M  V30 28128 H 2807.47 3.04883 2.71128 0
M  V30 28129 H 2806.15 3.75062 1.79727 0
M  V30 28130 H 2804.73 2.30961 2.92765 0
M  V30 28131 N 2806.91 -0.688069 1.41786 0
M  V30 28132 C 2807.84 -1.81418 1.47003 0
M  V30 28133 C 2808.82 -1.66909 0.32791 0
M  V30 28134 O 2810.01 -1.8653 0.540395 0
M  V30 28135 C 2807.14 -3.19615 1.35881 0
M  V30 28136 C 2806.09 -3.48839 2.47982 0
M  V30 28137 C 2805.42 -4.86471 2.21923 0
M  V30 28138 C 2806.72 -3.47061 3.90315 0
M  V30 28139 H 2808.41 -1.7731 2.4125 0
M  V30 28140 H 2805.96 -0.851631 1.16117 0
M  V30 28141 H 2807.91 -3.98114 1.38141 0
M  V30 28142 H 2806.63 -3.24368 0.381217 0
M  V30 28143 H 2805.29 -2.72694 2.45017 0
M  V30 28144 H 2804.94 -4.87858 1.22489 0
M  V30 28145 H 2804.64 -5.06989 2.97046 0
M  V30 28146 H 2806.17 -5.67271 2.25911 0
M  V30 28147 H 2807.58 -4.15553 3.94954 0
M  V30 28148 H 2805.98 -3.79112 4.65182 0
M  V30 28149 H 2807.05 -2.45889 4.17932 0
M  V30 28150 N 2808.39 -1.27739 -0.923072 0
M  V30 28151 C 2809.35 -1.10898 -2.00585 0
M  V30 28152 C 2810.35 -0.0515209 -1.60717 0
M  V30 28153 O 2811.54 -0.296511 -1.71658 0
M  V30 28154 C 2808.67 -0.690776 -3.33828 0
M  V30 28155 H 2809.87 -2.07052 -2.16955 0
M  V30 28156 H 2807.42 -1.10592 -1.10449 0
M  V30 28157 H 2808.16 0.271944 -3.23158 0
M  V30 28158 H 2807.94 -1.45455 -3.64123 0
M  V30 28159 H 2809.43 -0.595324 -4.13335 0
M  V30 28160 N 2809.87 1.13022 -1.09836 0
M  V30 28161 C 2811.12 1.83748 -0.831839 0
M  V30 28162 C 2811.43 1.84669 0.644731 0
M  V30 28163 O 2812.64 2.51329 1.02693 0
M  V30 28164 C 2811.09 3.29913 -1.43823 0
M  V30 28165 C 2810.7 3.37369 -2.94765 0
M  V30 28166 C 2812.44 4.05653 -1.25084 0
M  V30 28167 C 2810.35 4.77832 -3.48469 0
M  V30 28168 H 2809.28 0.688438 -0.307522 0
M  V30 28169 H 2811.93 1.27305 -1.32158 0
M  V30 28170 H 2810.31 3.86185 -0.876174 0
M  V30 28171 H 2811.49 2.91069 -3.57233 0
M  V30 28172 H 2809.8 2.75098 -3.12586 0
M  V30 28173 H 2812.4 5.09359 -1.62658 0
M  V30 28174 H 2812.74 4.15858 -0.191855 0
M  V30 28175 H 2813.28 3.55722 -1.78063 0
M  V30 28176 H 2810.02 4.7282 -4.54006 0
M  V30 28177 H 2809.54 5.24609 -2.90766 0
M  V30 28178 H 2811.21 5.4676 -3.45923 0
M  V30 28179 N 2811.35 0.886177 1.30325 0
M  V30 28180 C 2812.26 0.357907 2.31854 0
M  V30 28181 C 2813.27 -0.540473 1.65393 0
M  V30 28182 O 2814.45 -0.433304 1.96684 0
M  V30 28183 C 2811.51 -0.417939 3.44172 0
M  V30 28184 C 2810.57 0.510338 4.26256 0
M  V30 28185 C 2809.81 -0.228575 5.3321 0
M  V30 28186 O 2810.03 -1.45449 5.51544 0
M  V30 28187 O 2808.96 0.421938 6.00419 0
M  V30 28188 H 2812.79 1.19987 2.78993 0
M  V30 28189 H 2810.38 0.650052 1.34516 0
M  V30 28190 H 2812.26 -0.857178 4.1259 0
M  V30 28191 H 2810.93 -1.23618 2.99166 0
M  V30 28192 H 2809.84 0.998414 3.60531 0
M  V30 28193 H 2811.17 1.29462 4.74869 0
M  V30 28194 N 2812.82 -1.43695 0.647253 0
M  V30 28195 C 2814.07 -2.01482 0.157911 0
M  V30 28196 C 2814.39 -1.51285 -1.23036 0
M  V30 28197 O 2813.66 -0.723014 -1.8207 0
M  V30 28198 H 2812.24 -0.744944 0.0553876 0
M  V30 28199 H 2814.91 -1.75985 0.837581 0
M  V30 28200 H 2814 -3.11795 0.13795 0
M  V30 28201 N 2814.3 -0.388796 -1.52729 0
M  V30 28202 C 2815.71 0.085346 -1.86505 0
M  V30 28203 C 2816.06 1.46194 -1.3085 0
M  V30 28204 O 2815.19 2.0673 -0.639645 0
M  V30 28205 C 2815.78 0.161644 -3.38414 0
M  V30 28206 C 2814.34 0.580078 -3.71903 0
M  V30 28207 C 2813.49 -0.258266 -2.76095 0
M  V30 28208 H 2816.44 -0.606691 -1.46646 0
M  V30 28209 H 2816.46 0.980871 -3.6764 0
M  V30 28210 H 2815.97 -0.8404 -3.78892 0
M  V30 28211 H 2814.08 1.58951 -3.36995 0
M  V30 28212 H 2814.19 0.338579 -4.77902 0
M  V30 28213 H 2812.55 0.276387 -2.53196 0
M  V30 28214 H 2813.34 -1.25828 -3.19409 0
M  V30 28215 N 2815.78 1.57153 -0.118604 0
M  V30 28216 C 2817.01 1.99959 0.550547 0
M  V30 28217 C 2817.43 0.997765 1.59456 0
M  V30 28218 O 2816.79 -0.0305951 1.81274 0
M  V30 28219 C 2816.84 3.41645 1.15373 0
M  V30 28220 O 2815.94 3.44352 2.26926 0
M  V30 28221 H 2815.28 0.649596 0.137555 0
M  V30 28222 H 2817.81 2.03551 -0.206961 0
M  V30 28223 H 2817.82 3.79845 1.48935 0
M  V30 28224 H 2816.5 4.14077 0.389014 0
M  V30 28225 H 2815.07 3.1797 1.94806 0
M  V30 28226 N 2817.26 -0.155167 1.56834 0
M  V30 28227 C 2818.21 -1.1918 1.97648 0
M  V30 28228 C 2819.18 -1.43129 0.842813 0
M  V30 28229 O 2820.36 -1.556 1.10423 0
M  V30 28230 C 2817.5 -2.52228 2.35531 0
M  V30 28231 C 2816.61 -2.35522 3.62151 0
M  V30 28232 C 2815.75 -3.61548 3.89174 0
M  V30 28233 C 2814.79 -3.39844 5.0909 0
M  V30 28234 N 2813.92 -4.5798 5.32164 0
M  V30 28235 H 2818.76 -0.836751 2.86011 0
M  V30 28236 H 2816.3 -0.401733 1.41508 0
M  V30 28237 H 2818.26 -3.29794 2.55522 0
M  V30 28238 H 2816.89 -2.85696 1.50258 0
M  V30 28239 H 2815.94 -1.49051 3.49983 0
M  V30 28240 H 2817.25 -2.1544 4.49875 0
M  V30 28241 H 2816.41 -4.47546 4.09619 0
M  V30 28242 H 2815.15 -3.84626 2.99856 0
M  V30 28243 H 2814.15 -2.52235 4.88526 0
M  V30 28244 H 2815.38 -3.18173 5.99952 0
M  V30 28245 H 2813.32 -4.81247 4.458 0
M  V30 28246 H 2813.24 -4.40871 6.14141 0
M  V30 28247 H 2814.51 -5.45215 5.57101 0
M  V30 28248 N 2818.74 -1.51782 -0.424256 0
M  V30 28249 C 2819.7 -1.73434 -1.49845 0
M  V30 28250 C 2820.7 -0.604251 -1.49015 0
M  V30 28251 O 2821.89 -0.871962 -1.50806 0
M  V30 28252 C 2819.02 -1.80282 -2.89329 0
M  V30 28253 H 2820.21 -2.69315 -1.31946 0
M  V30 28254 H 2817.77 -1.4197 -0.653784 0
M  V30 28255 H 2818.5 -0.862623 -3.12617 0
M  V30 28256 H 2818.29 -2.62424 -2.91335 0
M  V30 28257 H 2819.78 -1.98827 -3.67229 0
M  V30 28258 N 2820.21 0.68054 -1.42149 0
M  V30 28259 C 2821.12 1.82375 -1.47568 0
M  V30 28260 C 2822.14 1.7013 -0.36492 0
M  V30 28261 O 2823.32 1.91782 -0.61495 0
M  V30 28262 C 2820.38 3.18476 -1.37018 0
M  V30 28263 C 2819.44 3.4272 -2.58538 0
M  V30 28264 C 2818.68 4.72327 -2.48481 0
M  V30 28265 O 2818.9 5.49842 -1.51755 0
M  V30 28266 O 2817.83 4.97688 -3.38512 0
M  V30 28267 H 2821.66 1.8076 -2.44049 0
M  V30 28268 H 2819.24 0.835548 -1.23851 0
M  V30 28269 H 2821.13 3.99703 -1.33475 0
M  V30 28270 H 2819.8 3.20742 -0.436608 0
M  V30 28271 H 2818.71 2.61364 -2.67656 0
M  V30 28272 H 2820.04 3.4528 -3.50775 0
M  V30 28273 N 2821.69 1.28226 0.916285 0
M  V30 28274 C 2822.94 1.14611 1.65973 0
M  V30 28275 C 2823.25 -0.305157 1.93205 0
M  V30 28276 O 2824.46 -0.562386 2.65612 0
M  V30 28277 C 2822.92 2.00339 2.98986 0
M  V30 28278 C 2822.52 3.50191 2.79411 0
M  V30 28279 C 2824.27 1.95403 3.76852 0
M  V30 28280 C 2822.18 4.28078 4.08048 0
M  V30 28281 H 2821.11 0.425335 0.62258 0
M  V30 28282 H 2823.76 1.52738 1.01703 0
M  V30 28283 H 2822.14 1.55066 3.64377 0
M  V30 28284 H 2823.31 4.03404 2.22715 0
M  V30 28285 H 2821.63 3.56625 2.1496 0
M  V30 28286 H 2824.22 2.50864 4.72198 0
M  V30 28287 H 2824.57 0.930209 4.05774 0
M  V30 28288 H 2825.1 2.38632 3.18276 0
M  V30 28289 H 2821.84 5.31031 3.843 0
M  V30 28290 H 2821.36 3.79639 4.64364 0
M  V30 28291 H 2823.04 4.37862 4.76325 0
M  V30 28292 N 2823.17 -1.12438 1.10433 0
M  V30 28293 C 2824.4 -1.88311 0.869122 0
M  V30 28294 C 2824.82 -1.791 -0.57488 0
M  V30 28295 O 2824.18 -1.14592 -1.40494 0
M  V30 28296 C 2824.23 -3.35487 1.32214 0
M  V30 28297 O 2823.33 -4.09512 0.487164 0
M  V30 28298 H 2822.67 -0.585116 0.313904 0
M  V30 28299 H 2825.2 -1.42193 1.47114 0
M  V30 28300 H 2825.21 -3.86327 1.31208 0
M  V30 28301 H 2823.89 -3.41509 2.3737 0
M  V30 28302 H 2822.46 -3.68634 0.562436 0
M  V30 28303 N 2824.65 -0.893076 -1.29853 0
M  V30 28304 C 2825.89 -0.522434 -1.97611 0
M  V30 28305 C 2826.25 0.91297 -1.68905 0
M  V30 28306 O 2827.45 1.39015 -2.30062 0
M  V30 28307 C 2825.73 -0.798991 -3.48355 0
M  V30 28308 S 2827.28 -0.531665 -4.35567 0
M  V30 28309 H 2824.1 -0.19407 -0.684001 0
M  V30 28310 H 2826.7 -1.15409 -1.57801 0
M  V30 28311 H 2825.41 -1.84202 -3.66739 0
M  V30 28312 H 2824.94 -0.155202 -3.93094 0
M  V30 28313 H 2826.95 0.626208 -4.92233 0
M  V30 28314 N 2826.13 1.4335 -0.654865 0
M  V30 28315 C 2827.36 2.06144 -0.176721 0
M  V30 28316 C 2827.77 1.49095 1.15828 0
M  V30 28317 O 2827.13 0.622898 1.71541 0
M  V30 28318 C 2827.18 3.61408 -0.0813961 0
M  V30 28319 O 2826.9 4.16337 -1.36363 0
M  V30 28320 C 2828.4 4.41281 0.422628 0
M  V30 28321 H 2825.62 0.664848 -0.0906546 0
M  V30 28322 H 2828.16 1.83827 -0.895977 0
M  V30 28323 H 2826.32 3.82905 0.588428 0
M  V30 28324 H 2826.73 5.1002 -1.2239 0
M  V30 28325 H 2828.21 5.50257 0.438278 0
M  V30 28326 H 2828.68 4.14425 1.45424 0
M  V30 28327 H 2829.29 4.24757 -0.214762 0
M  V30 28328 N 2827.61 0.39689 1.52521 0
M  V30 28329 C 2828.88 -0.240808 1.94112 0
M  V30 28330 C 2829.26 -1.63697 1.33291 0
M  V30 28331 O 2828.61 -2.22874 0.50394 0
M  V30 28332 C 2828.82 -0.259505 3.48034 0
M  V30 28333 C 2830.17 -0.484791 4.21823 0
M  V30 28334 O 2831.19 -0.33939 3.54579 0
M  V30 28335 O 2830.05 -0.770317 5.41044 0
M  V30 28336 H 2827.15 -0.151657 0.812976 0
M  V30 28337 H 2829.69 0.451947 1.63571 0
M  V30 28338 H 2828.46 0.718146 3.84654 0
M  V30 28339 H 2828.09 -0.996869 3.849 0
M  V30 28340 N 2829.08 -1.57088 0.126936 0
M  V30 28341 C 2830.03 -2.16996 -0.83758 0
M  V30 28342 C 2831.03 -1.12136 -1.26972 0
M  V30 28343 O 2832.23 -1.30425 -1.24054 0
M  V30 28344 H 2828.61 -0.694564 -0.288243 0
M  V30 28345 H 2830.58 -2.96807 -0.307905 0
M  V30 28346 C 2829.33 -2.7902 -2.07469 0
M  V30 28347 H 2828.65 -3.59411 -1.75111 0
M  V30 28348 H 2830.09 -3.24465 -2.72944 0
M  V30 28349 C 2828.55 -1.76503 -2.86964 0
M  V30 28350 O 2829.08 -1.22323 -3.82623 0
M  V30 28351 N 2827.28 -1.46262 -2.51109 0
M  V30 28352 H 2826.83 -1.90513 -1.73386 0
M  V30 28353 H 2826.79 -0.779139 -3.04593 0
M  V30 28354 N 2830.56 0.146848 -1.56914 0
M  V30 28355 C 2831.49 1.20642 -1.9488 0
M  V30 28356 C 2832.51 1.39174 -0.844658 0
M  V30 28357 O 2833.7 1.38742 -1.12307 0
M  V30 28358 C 2830.8 2.57123 -2.20774 0
M  V30 28359 C 2829.97 2.59566 -3.52057 0
M  V30 28360 C 2829.03 3.77587 -3.66489 0
M  V30 28361 O 2828.05 3.62454 -4.3888 0
M  V30 28362 N 2829.26 4.95047 -3.03164 0
M  V30 28363 H 2832.02 0.883707 -2.86375 0
M  V30 28364 H 2829.58 0.336409 -1.58366 0
M  V30 28365 H 2831.57 3.34587 -2.2767 0
M  V30 28366 H 2830.14 2.81686 -1.35543 0
M  V30 28367 H 2829.36 1.68017 -3.56601 0
M  V30 28368 H 2830.65 2.5823 -4.384 0
M  V30 28369 H 2830.05 5.10245 -2.44267 0
M  V30 28370 H 2828.61 5.70286 -3.15621 0
M  V30 28371 N 2832.04 1.52005 0.4162 0
M  V30 28372 C 2833.32 1.56274 1.17635 0
M  V30 28373 C 2833.7 0.339529 2.08352 0
M  V30 28374 O 2833.04 -0.674085 2.18331 0
M  V30 28375 C 2833.25 2.88778 1.95981 0
M  V30 28376 C 2834.6 3.41517 2.52293 0
M  V30 28377 O 2835.63 2.9047 2.06169 0
M  V30 28378 O 2834.49 4.30637 3.36473 0
M  V30 28379 H 2831.58 0.629179 0.536715 0
M  V30 28380 H 2834.13 1.64329 0.423554 0
M  V30 28381 H 2832.9 3.69257 1.29481 0
M  V30 28382 H 2832.52 2.83982 2.7828 0
M  V30 28383 N 2833.52 -0.672992 1.42508 0
M  V30 28384 C 2834.77 -1.43021 1.42792 0
M  V30 28385 C 2835.09 -1.94946 0.0460081 0
M  V30 28386 O 2834.36 -1.73179 -0.915734 0
M  V30 28387 H 2832.94 -0.530739 0.525666 0
M  V30 28388 H 2835.6 -0.795081 1.77945 0
M  V30 28389 H 2834.69 -2.28233 2.12876 0
M  V30 28390 N 2835 -1.2871 -0.909472 0
M  V30 28391 C 2836.22 -1.18976 -1.6927 0
M  V30 28392 C 2836.64 0.251015 -1.87124 0
M  V30 28393 O 2836 1.16919 -1.40129 0
M  V30 28394 C 2836.05 -1.88844 -3.08253 0
M  V30 28395 O 2835.77 -3.27294 -2.91222 0
M  V30 28396 C 2837.27 -1.85464 -4.02639 0
M  V30 28397 H 2834.49 -0.412806 -0.528992 0
M  V30 28398 H 2837.03 -1.69911 -1.138 0
M  V30 28399 H 2835.19 -1.41769 -3.60528 0
M  V30 28400 H 2835.6 -3.62346 -3.79217 0
M  V30 28401 H 2837.08 -2.38933 -4.97609 0
M  V30 28402 H 2837.55 -0.827969 -4.31325 0
M  V30 28403 H 2838.16 -2.32239 -3.56294 0
M  V30 28404 N 2836.47 1.1185 -1.11028 0
M  V30 28405 C 2837.71 1.8513 -0.866381 0
M  V30 28406 C 2838.08 1.82476 0.597204 0
M  V30 28407 O 2839.28 2.5116 0.9577 0
M  V30 28408 C 2837.55 3.28528 -1.40727 0
M  V30 28409 S 2839.11 4.1911 -1.29971 0
M  V30 28410 H 2835.93 0.638442 -0.31291 0
M  V30 28411 H 2838.53 1.34697 -1.41694 0
M  V30 28412 H 2837.23 3.28022 -2.46636 0
M  V30 28413 H 2836.76 3.84029 -0.853557 0
M  V30 28414 H 2838.78 4.95511 -0.26142 0
M  V30 28415 N 2837.95 0.89995 1.29378 0
M  V30 28416 C 2839.18 0.540728 2.00227 0
M  V30 28417 C 2839.6 -0.86733 1.6691 0
M  V30 28418 O 2838.96 -1.57734 0.893851 0
M  V30 28419 C 2839.01 0.740294 3.52919 0
M  V30 28420 O 2838.11 -0.207082 4.1188 0
M  V30 28421 H 2837.45 0.211244 0.629501 0
M  V30 28422 H 2839.98 1.21161 1.64867 0
M  V30 28423 H 2839.99 0.645044 4.02869 0
M  V30 28424 H 2838.67 1.76683 3.76505 0
M  V30 28425 H 2837.24 -0.0642659 3.72845 0
M  V30 28426 N 2839.43 -1.43001 0.662458 0
M  V30 28427 C 2840.68 -2.02001 0.179893 0
M  V30 28428 C 2841.01 -1.52197 -1.20623 0
M  V30 28429 O 2840.28 -0.718943 -1.80725 0
M  V30 28430 C 2840.57 -3.59539 0.200908 0
M  V30 28431 C 2840.42 -4.19552 1.6216 0
M  V30 28432 C 2841.74 -4.37714 -0.457661 0
M  V30 28433 H 2838.86 -0.733963 0.0668434 0
M  V30 28434 H 2841.5 -1.70181 0.8449 0
M  V30 28435 H 2839.65 -3.86778 -0.365343 0
M  V30 28436 H 2841.32 -4.03311 2.23915 0
M  V30 28437 H 2839.57 -3.7585 2.16608 0
M  V30 28438 H 2840.24 -5.28662 1.58809 0
M  V30 28439 H 2842.71 -4.16093 0.0242226 0
M  V30 28440 H 2841.59 -5.4735 -0.412267 0
M  V30 28441 H 2841.85 -4.1466 -1.53329 0
M  V30 28442 N 2840.91 -0.404973 -1.52308 0
M  V30 28443 C 2842.13 0.174264 -2.06667 0
M  V30 28444 C 2842.56 1.38439 -1.27343 0
M  V30 28445 O 2841.92 1.78757 -0.302571 0
M  V30 28446 C 2841.96 0.5072 -3.57015 0
M  V30 28447 O 2841.07 1.59883 -3.80146 0
M  V30 28448 H 2840.41 0.0160156 -0.663807 0
M  V30 28449 H 2842.94 -0.576971 -1.96296 0
M  V30 28450 H 2842.95 0.767027 -4.00725 0
M  V30 28451 H 2841.62 -0.37744 -4.14184 0
M  V30 28452 H 2840.2 1.33149 -3.48318 0
M  V30 28453 N 2842.39 1.57018 -0.135265 0
M  V30 28454 C 2843.62 1.99811 0.525268 0
M  V30 28455 C 2844.02 1.01417 1.59722 0
M  V30 28456 O 2843.37 0.00134167 1.837 0
M  V30 28457 C 2843.43 3.39032 1.19572 0
M  V30 28458 C 2843.09 4.56203 0.269775 0
M  V30 28459 C 2844.09 5.17509 -0.497996 0
M  V30 28460 C 2841.78 5.01991 0.1761 0
M  V30 28461 C 2843.77 6.23004 -1.34701 0
M  V30 28462 C 2841.46 6.07344 -0.676528 0
M  V30 28463 C 2842.45 6.67719 -1.4367 0
M  V30 28464 O 2842.14 7.71033 -2.27514 0
M  V30 28465 H 2841.87 0.660856 0.142285 0
M  V30 28466 H 2844.43 2.04183 -0.223308 0
M  V30 28467 H 2842.66 3.31464 1.9917 0
M  V30 28468 H 2844.35 3.66008 1.75479 0
M  V30 28469 H 2845.11 4.8304 -0.435592 0
M  V30 28470 H 2840.99 4.54734 0.757503 0
M  V30 28471 H 2844.54 6.70058 -1.94082 0
M  V30 28472 H 2840.43 6.41241 -0.740267 0
M  V30 28473 H 2841.2 7.88203 -2.20633 0
M  V30 28474 N 2843.86 -0.138524 1.5699 0
M  V30 28475 C 2844.79 -1.17237 2.01935 0
M  V30 28476 C 2845.78 -1.44318 0.900356 0
M  V30 28477 O 2846.96 -1.55093 1.16875 0
M  V30 28478 C 2844.09 -2.50347 2.40715 0
M  V30 28479 C 2843.04 -2.3777 3.55878 0
M  V30 28480 C 2842.37 -3.75667 3.80498 0
M  V30 28481 C 2843.67 -1.85463 4.88263 0
M  V30 28482 H 2845.36 -0.798622 2.88552 0
M  V30 28483 H 2842.91 -0.382719 1.38821 0
M  V30 28484 H 2844.86 -3.22905 2.70759 0
M  V30 28485 H 2843.59 -2.89574 1.51045 0
M  V30 28486 H 2842.25 -1.67663 3.26013 0
M  V30 28487 H 2841.89 -4.12344 2.88064 0
M  V30 28488 H 2841.59 -3.68111 4.58005 0
M  V30 28489 H 2843.12 -4.4976 4.12975 0
M  V30 28490 H 2844.53 -2.47821 5.1697 0
M  V30 28491 H 2842.93 -1.88777 5.69634 0
M  V30 28492 H 2844 -0.810851 4.78072 0
M  V30 28493 N 2845.34 -1.52224 -0.408133 0
M  V30 28494 C 2846.75 -1.58484 -0.986901 0
M  V30 28495 C 2847.1 -0.425951 -1.9152 0
M  V30 28496 O 2846.23 0.453556 -2.11594 0
M  V30 28497 C 2846.82 -2.87238 -1.79665 0
M  V30 28498 C 2845.38 -2.95974 -2.32543 0
M  V30 28499 C 2844.53 -2.5343 -1.12554 0
M  V30 28500 H 2847.48 -1.57579 -0.188334 0
M  V30 28501 H 2847.5 -2.72647 -2.65413 0
M  V30 28502 H 2847.01 -3.71565 -1.12076 0
M  V30 28503 H 2845.12 -2.16143 -3.03501 0
M  V30 28504 H 2845.23 -4.00236 -2.63341 0
M  V30 28505 H 2843.59 -2.07302 -1.4798 0
M  V30 28506 H 2844.38 -3.40132 -0.465291 0
M  V30 28507 N 2846.82 0.665425 -1.42863 0
M  V30 28508 C 2848.07 1.42754 -1.44045 0
M  V30 28509 C 2848.4 1.94107 -0.059997 0
M  V30 28510 O 2847.67 1.71513 0.917256 0
M  V30 28511 C 2847.96 2.61781 -2.4727 0
M  V30 28512 C 2847.81 2.16 -3.94543 0
M  V30 28513 C 2849.13 3.63999 -2.47372 0
M  V30 28514 H 2846.25 0.517739 -0.524515 0
M  V30 28515 H 2848.89 0.755435 -1.74336 0
M  V30 28516 H 2847.04 3.19122 -2.21571 0
M  V30 28517 H 2848.71 1.63754 -4.31257 0
M  V30 28518 H 2846.96 1.47484 -4.07959 0
M  V30 28519 H 2847.63 3.01538 -4.62363 0
M  V30 28520 H 2850.1 3.16394 -2.70248 0
M  V30 28521 H 2848.98 4.44849 -3.2156 0
M  V30 28522 H 2849.24 4.15765 -1.50307 0
M  V30 28523 N 2848.3 1.29191 0.902633 0
M  V30 28524 C 2849.23 1.1662 2.02292 0
M  V30 28525 C 2850.21 0.0611474 1.6999 0
M  V30 28526 O 2851.39 0.240106 1.9271 0
M  V30 28527 C 2848.52 0.838879 3.37016 0
M  V30 28528 C 2847.48 1.89993 3.83519 0
M  V30 28529 C 2846.8 1.42598 5.15335 0
M  V30 28530 C 2848.1 3.30832 4.04163 0
M  V30 28531 H 2849.8 2.10339 2.13067 0
M  V30 28532 H 2847.34 1.01268 1.02376 0
M  V30 28533 H 2849.3 0.737657 4.14893 0
M  V30 28534 H 2848.02 -0.134013 3.26325 0
M  V30 28535 H 2846.68 1.99048 3.07856 0
M  V30 28536 H 2846.33 0.441847 5.01056 0
M  V30 28537 H 2846.03 2.13556 5.47419 0
M  V30 28538 H 2847.55 1.3382 5.95755 0
M  V30 28539 H 2848.97 3.24634 4.72531 0
M  V30 28540 H 2847.36 3.99721 4.47597 0
M  V30 28541 H 2848.43 3.74026 3.08597 0
M  V30 28542 N 2849.78 -1.1126 1.1162 0
M  V30 28543 C 2851.19 -1.64554 0.881971 0
M  V30 28544 C 2851.54 -1.87263 -0.585409 0
M  V30 28545 O 2850.66 -1.60824 -1.44792 0
M  V30 28546 C 2851.26 -2.98932 1.59452 0
M  V30 28547 C 2849.82 -3.49127 1.40667 0
M  V30 28548 C 2848.96 -2.23901 1.63597 0
M  V30 28549 H 2851.92 -0.948747 1.27218 0
M  V30 28550 H 2851.94 -3.65994 1.0406 0
M  V30 28551 H 2851.45 -2.82373 2.66246 0
M  V30 28552 H 2849.55 -3.70848 0.3609 0
M  V30 28553 H 2849.66 -4.27797 2.15701 0
M  V30 28554 H 2848.03 -2.31618 1.05948 0
M  V30 28555 H 2848.81 -2.09882 2.7167 0
M  V30 28556 N 2851.25 -0.906798 -1.28899 0
M  V30 28557 C 2852.5 -0.535301 -1.94882 0
M  V30 28558 C 2852.82 0.922761 -1.71785 0
M  V30 28559 O 2852.09 1.65154 -1.05361 0
M  V30 28560 H 2850.67 -0.194974 -0.721106 0
M  V30 28561 H 2853.34 -1.15464 -1.57016 0
M  V30 28562 H 2852.43 -0.723875 -3.03589 0
M  V30 28563 N 2852.73 1.42648 -0.670032 0
M  V30 28564 C 2854.01 1.95235 -0.119485 0
M  V30 28565 C 2854.39 1.61066 1.36458 0
M  V30 28566 O 2853.74 0.904366 2.09842 0
M  V30 28567 C 2853.95 3.46886 -0.383559 0
M  V30 28568 C 2855.3 4.23556 -0.297505 0
M  V30 28569 O 2856.32 3.54786 -0.317042 0
M  V30 28570 O 2855.18 5.45992 -0.235603 0
M  V30 28571 H 2852.27 0.827 -0.000103084 0
M  V30 28572 H 2854.82 1.525 -0.744433 0
M  V30 28573 H 2853.59 3.64943 -1.41181 0
M  V30 28574 H 2853.21 3.96657 0.273632 0
M  V30 28575 N 2854.21 0.413044 1.52091 0
M  V30 28576 C 2855.44 -0.160612 2.05975 0
M  V30 28577 C 2855.85 -1.39082 1.28269 0
M  V30 28578 O 2855.19 -1.80733 0.328836 0
M  V30 28579 C 2855.25 -0.572107 3.54919 0
M  V30 28580 C 2854.92 0.547906 4.53704 0
M  V30 28581 C 2855.92 1.41268 5.00339 0
M  V30 28582 C 2853.6 0.721714 4.97088 0
M  V30 28583 C 2855.59 2.43617 5.89007 0
M  V30 28584 C 2853.28 1.74851 5.85551 0
M  V30 28585 C 2854.28 2.60415 6.31406 0
M  V30 28586 O 2853.97 3.61335 7.18117 0
M  V30 28587 H 2853.7 -0.0221817 0.675636 0
M  V30 28588 H 2856.25 0.583765 1.9693 0
M  V30 28589 H 2854.48 -1.36883 3.61663 0
M  V30 28590 H 2856.17 -1.07413 3.9143 0
M  V30 28591 H 2856.94 1.28982 4.67535 0
M  V30 28592 H 2852.82 0.0653721 4.60954 0
M  V30 28593 H 2856.36 3.10436 6.2472 0
M  V30 28594 H 2852.26 1.87167 6.17769 0
M  V30 28595 H 2853.03 3.57626 7.36238 0
M  V30 28596 N 2855.69 -1.56945 0.143591 0
M  V30 28597 C 2856.91 -2.0081 -0.518666 0
M  V30 28598 C 2857.34 -1.02301 -1.57849 0
M  V30 28599 O 2856.7 0.00175203 -1.813 0
M  V30 28600 C 2856.75 -3.43438 -1.09923 0
M  V30 28601 O 2855.85 -3.47919 -2.21419 0
M  V30 28602 H 2855.19 -0.651702 -0.127203 0
M  V30 28603 H 2857.72 -2.03196 0.239318 0
M  V30 28604 H 2857.73 -3.82167 -1.42873 0
M  V30 28605 H 2856.41 -4.14643 -0.323089 0
M  V30 28606 H 2854.98 -3.21029 -1.89723 0
M  V30 28607 N 2857.17 0.130197 -1.57061 0
M  V30 28608 C 2858.42 0.838456 -1.83447 0
M  V30 28609 C 2858.73 1.81568 -0.7275 0
M  V30 28610 O 2859.94 2.5693 -0.877439 0
M  V30 28611 C 2858.39 1.54176 -3.25204 0
M  V30 28612 C 2858 0.6061 -4.43881 0
M  V30 28613 C 2859.74 2.23581 -3.60848 0
M  V30 28614 C 2857.65 1.31199 -5.76663 0
M  V30 28615 H 2856.58 0.316859 -0.68419 0
M  V30 28616 H 2859.23 0.0911736 -1.83273 0
M  V30 28617 H 2857.61 2.33527 -3.19814 0
M  V30 28618 H 2858.79 -0.153389 -4.60545 0
M  V30 28619 H 2857.1 0.0195973 -4.16395 0
M  V30 28620 H 2859.7 2.77064 -4.57318 0
M  V30 28621 H 2860.04 3.00862 -2.87729 0
M  V30 28622 H 2860.58 1.51131 -3.67973 0
M  V30 28623 H 2857.31 0.580708 -6.52923 0
M  V30 28624 H 2856.83 2.04377 -5.63906 0
M  V30 28625 H 2858.51 1.84829 -6.20038 0
M  V30 28626 N 2858.65 1.52438 0.400055 0
M  V30 28627 C 2859.58 1.79393 1.49467 0
M  V30 28628 C 2860.56 0.645357 1.57382 0
M  V30 28629 O 2861.74 0.891856 1.7251 0
M  V30 28630 C 2858.87 1.95282 2.87198 0
M  V30 28631 C 2857.83 3.10922 2.94129 0
M  V30 28632 C 2857.15 3.12047 4.34201 0
M  V30 28633 C 2858.45 4.50208 2.64783 0
M  V30 28634 H 2860.15 2.71055 1.2716 0
M  V30 28635 H 2857.69 1.30428 0.61029 0
M  V30 28636 H 2859.64 2.12721 3.63769 0
M  V30 28637 H 2858.37 1.00299 3.10818 0
M  V30 28638 H 2857.03 2.93247 2.20004 0
M  V30 28639 H 2856.68 2.14769 4.54844 0
M  V30 28640 H 2856.38 3.89723 4.39761 0
M  V30 28641 H 2857.9 3.31628 5.12694 0
M  V30 28642 H 2859.31 4.68041 3.31075 0
M  V30 28643 H 2857.71 5.29869 2.81708 0
M  V30 28644 H 2858.78 4.57681 1.60176 0
M  V30 28645 N 2860.12 -0.657839 1.43214 0
M  V30 28646 C 2861.37 -1.41988 1.448 0
M  V30 28647 C 2861.7 -1.94073 0.0702901 0
M  V30 28648 O 2860.98 -1.71997 -0.908147 0
M  V30 28649 C 2861.26 -2.60466 2.48655 0
M  V30 28650 C 2861.11 -2.13904 3.95683 0
M  V30 28651 C 2862.43 -3.62682 2.49299 0
M  V30 28652 H 2859.55 -0.51495 0.527253 0
M  V30 28653 H 2862.19 -0.746179 1.74735 0
M  V30 28654 H 2860.34 -3.17942 2.2326 0
M  V30 28655 H 2862.02 -1.61465 4.32119 0
M  V30 28656 H 2860.26 -1.45318 4.08736 0
M  V30 28657 H 2860.93 -2.99081 4.63955 0
M  V30 28658 H 2863.41 -3.14956 2.71922 0
M  V30 28659 H 2862.28 -4.43137 3.23915 0
M  V30 28660 H 2862.54 -4.14962 1.52509 0
M  V30 28661 N 2861.6 -1.29668 -0.895769 0
M  V30 28662 C 2862.55 -1.15132 -2.00033 0
M  V30 28663 C 2863.52 -0.0436111 -1.66043 0
M  V30 28664 O 2864.7 -0.211844 -1.8962 0
M  V30 28665 C 2861.84 -0.837929 -3.34773 0
M  V30 28666 C 2860.96 -2.02646 -3.81521 0
M  V30 28667 C 2860.09 -1.6521 -5.04855 0
M  V30 28668 C 2859.13 -2.80622 -5.43983 0
M  V30 28669 N 2858.27 -2.43555 -6.58502 0
M  V30 28670 H 2863.11 -2.09632 -2.11798 0
M  V30 28671 H 2860.64 -1.04313 -1.03717 0
M  V30 28672 H 2862.6 -0.636896 -4.1231 0
M  V30 28673 H 2861.23 0.0701746 -3.22724 0
M  V30 28674 H 2860.28 -2.33908 -2.99985 0
M  V30 28675 H 2861.6 -2.89113 -4.06467 0
M  V30 28676 H 2860.75 -1.41419 -5.89988 0
M  V30 28677 H 2859.49 -0.758977 -4.81758 0
M  V30 28678 H 2858.49 -3.05091 -4.57383 0
M  V30 28679 H 2859.72 -3.70605 -5.6906 0
M  V30 28680 H 2857.67 -1.56735 -6.37001 0
M  V30 28681 H 2857.58 -3.23555 -6.83263 0
M  V30 28682 H 2858.85 -2.23093 -7.46893 0
M  V30 28683 N 2863.08 1.10667 -1.12208 0
M  V30 28684 C 2864.31 1.86094 -0.897365 0
M  V30 28685 C 2864.72 1.80823 0.556746 0
M  V30 28686 O 2864.06 1.19339 1.39656 0
M  V30 28687 C 2864.12 3.35519 -1.291 0
M  V30 28688 C 2863.79 3.64552 -2.75592 0
M  V30 28689 C 2864.78 3.61353 -3.73791 0
M  V30 28690 C 2862.47 3.93303 -3.12439 0
M  V30 28691 C 2864.46 3.86497 -5.06852 0
M  V30 28692 C 2862.15 4.18103 -4.45682 0
M  V30 28693 C 2863.15 4.1469 -5.42698 0
M  V30 28694 O 2862.84 4.38861 -6.7354 0
M  V30 28695 H 2862.57 0.595079 -0.320714 0
M  V30 28696 H 2865.12 1.4083 -1.49519 0
M  V30 28697 H 2863.35 3.81428 -0.636366 0
M  V30 28698 H 2865.04 3.92329 -1.0408 0
M  V30 28699 H 2865.81 3.39182 -3.4667 0
M  V30 28700 H 2861.69 3.95092 -2.37537 0
M  V30 28701 H 2865.23 3.83748 -5.82566 0
M  V30 28702 H 2861.13 4.39753 -4.72533 0
M  V30 28703 H 2861.89 4.56388 -6.7945 0
M  V30 28704 N 2864.56 0.913621 1.28416 0
M  V30 28705 C 2865.51 0.392077 2.29272 0
M  V30 28706 C 2866.5 -0.51617 1.61344 0
M  V30 28707 O 2867.71 -0.397429 1.75558 0
M  V30 28708 H 2864.08 0.108191 0.744177 0
M  V30 28709 H 2866.05 1.25579 2.70689 0
M  V30 28710 C 2864.8 -0.352754 3.45906 0
M  V30 28711 H 2864.12 0.336918 3.98378 0
M  V30 28712 H 2865.56 -0.682325 4.18474 0
M  V30 28713 C 2864.02 -1.5606 2.98575 0
M  V30 28714 O 2864.55 -2.65969 3.01037 0
M  V30 28715 N 2862.76 -1.40754 2.54237 0
M  V30 28716 H 2862.31 -0.513359 2.52433 0
M  V30 28717 H 2862.26 -2.21698 2.22929 0
M  V30 28718 N 2866.04 -1.4229 0.677588 0
M  V30 28719 C 2866.95 -2.346 0.00100389 0
M  V30 28720 C 2867.96 -1.55245 -0.785806 0
M  V30 28721 O 2869.14 -1.87802 -0.72749 0
M  V30 28722 C 2866.2 -3.33807 -0.936688 0
M  V30 28723 C 2865.26 -4.29058 -0.144098 0
M  V30 28724 C 2864.5 -5.23526 -1.03713 0
M  V30 28725 O 2864.72 -5.22996 -2.27666 0
M  V30 28726 O 2863.65 -5.99849 -0.496437 0
M  V30 28727 H 2867.48 -2.93999 0.761448 0
M  V30 28728 H 2865.06 -1.4284 0.437835 0
M  V30 28729 H 2866.95 -3.94746 -1.4749 0
M  V30 28730 H 2865.62 -2.76876 -1.67693 0
M  V30 28731 H 2864.53 -3.71524 0.438289 0
M  V30 28732 H 2865.86 -4.89037 0.557096 0
M  V30 28733 N 2867.51 -0.421104 -1.5187 0
M  V30 28734 C 2868.45 0.434025 -2.25053 0
M  V30 28735 C 2869.46 1.0001 -1.28459 0
M  V30 28736 O 2870.65 0.897005 -1.54325 0
M  V30 28737 C 2867.75 1.61738 -2.97815 0
M  V30 28738 C 2866.92 1.17307 -4.21376 0
M  V30 28739 C 2865.98 2.22469 -4.76858 0
M  V30 28740 O 2865.01 1.82568 -5.39127 0
M  V30 28741 N 2866.21 3.54774 -4.59473 0
M  V30 28742 H 2868.97 -0.193125 -2.99077 0
M  V30 28743 H 2866.53 -0.249116 -1.59972 0
M  V30 28744 H 2868.53 2.31679 -3.31824 0
M  V30 28745 H 2867.1 2.1502 -2.26903 0
M  V30 28746 H 2866.32 0.301331 -3.93047 0
M  V30 28747 H 2867.6 0.853356 -5.01593 0
M  V30 28748 H 2867 3.89934 -4.09839 0
M  V30 28749 H 2865.56 4.20656 -4.97887 0
M  V30 28750 N 2868.99 1.56866 -0.151912 0
M  V30 28751 C 2869.94 2.13588 0.797761 0
M  V30 28752 C 2870.93 1.06498 1.20611 0
M  V30 28753 O 2872.12 1.32665 1.17171 0
M  V30 28754 C 2869.25 2.76491 2.03488 0
M  V30 28755 C 2868.33 3.90711 1.64941 0
M  V30 28756 N 2868.72 4.96364 0.972425 0
M  V30 28757 C 2867.02 4.0151 1.94179 0
M  V30 28758 C 2867.72 5.76371 0.78556 0
M  V30 28759 N 2866.7 5.27306 1.32096 0
M  V30 28760 H 2870.5 2.92645 0.271351 0
M  V30 28761 H 2868.02 1.62325 0.0494585 0
M  V30 28762 H 2870.01 3.15492 2.72526 0
M  V30 28763 H 2868.67 1.98909 2.56642 0
M  V30 28764 H 2869.68 5.14022 0.632633 0
M  V30 28765 H 2866.36 3.3501 2.49148 0
M  V30 28766 H 2867.75 6.71429 0.251631 0
M  V30 28767 N 2870.47 -0.121866 1.57128 0
M  V30 28768 C 2871.72 -0.831386 1.84975 0
M  V30 28769 C 2872.05 -1.79662 0.737236 0
M  V30 28770 O 2871.32 -1.92792 -0.257165 0
M  V30 28771 C 2871.61 -1.58381 3.234 0
M  V30 28772 C 2871.46 -0.638367 4.45247 0
M  V30 28773 C 2872.78 -2.54064 3.5936 0
M  V30 28774 H 2869.9 -0.300791 0.672825 0
M  V30 28775 H 2872.54 -0.0957254 1.89759 0
M  V30 28776 H 2870.69 -2.21093 3.19453 0
M  V30 28777 H 2872.36 -0.0203115 4.61296 0
M  V30 28778 H 2870.61 0.0503062 4.33771 0
M  V30 28779 H 2871.28 -1.20141 5.38767 0
M  V30 28780 H 2873.75 -2.01459 3.64079 0
M  V30 28781 H 2872.63 -3.03744 4.57199 0
M  V30 28782 H 2872.89 -3.36596 2.86628 0
M  V30 28783 N 2871.95 -1.52648 -0.391965 0
M  V30 28784 C 2873.36 -1.59522 -0.970036 0
M  V30 28785 C 2873.71 -0.44624 -1.91058 0
M  V30 28786 O 2872.84 0.431088 -2.12063 0
M  V30 28787 C 2873.43 -2.89128 -1.76609 0
M  V30 28788 C 2871.99 -2.98424 -2.29391 0
M  V30 28789 C 2871.14 -2.5461 -1.09859 0
M  V30 28790 H 2874.09 -1.57769 -0.17161 0
M  V30 28791 H 2874.11 -2.75447 -2.62506 0
M  V30 28792 H 2873.62 -3.72733 -1.08129 0
M  V30 28793 H 2871.72 -2.1935 -3.01192 0
M  V30 28794 H 2871.83 -4.03006 -2.59081 0
M  V30 28795 H 2870.2 -2.0886 -1.45773 0
M  V30 28796 H 2870.98 -3.40607 -0.42919 0
M  V30 28797 N 2873.43 0.650235 -1.43561 0
M  V30 28798 C 2874.67 1.40731 -1.45049 0
M  V30 28799 C 2875 1.94848 -0.0770164 0
M  V30 28800 O 2874.27 1.74614 0.888067 0
M  V30 28801 H 2872.85 0.522309 -0.534043 0
M  V30 28802 H 2875.51 0.766671 -1.79188 0
M  V30 28803 H 2874.6 2.24818 -2.1648 0
M  V30 28804 N 2874.9 1.30141 0.88888 0
M  V30 28805 C 2876.13 1.2178 1.67882 0
M  V30 28806 C 2876.55 -0.216657 1.86848 0
M  V30 28807 O 2875.91 -1.15605 1.39661 0
M  V30 28808 C 2875.96 1.94762 3.0348 0
M  V30 28809 O 2875.06 1.27204 3.92292 0
M  V30 28810 H 2874.41 0.421411 0.513136 0
M  V30 28811 H 2876.94 1.71895 1.10965 0
M  V30 28812 H 2876.95 2.03634 3.5355 0
M  V30 28813 H 2875.62 2.9909 2.88995 0
M  V30 28814 H 2874.2 1.26662 3.5073 0
M  V30 28815 N 2876.38 -1.1007 1.12794 0
M  V30 28816 C 2877.79 -1.6361 0.899375 0
M  V30 28817 C 2878.14 -1.87873 -0.565514 0
M  V30 28818 O 2877.27 -1.6235 -1.43078 0
M  V30 28819 C 2877.86 -2.97224 1.62613 0
M  V30 28820 C 2876.42 -3.47616 1.44362 0
M  V30 28821 C 2875.57 -2.22153 1.65962 0
M  V30 28822 H 2878.52 -0.935201 1.28217 0
M  V30 28823 H 2878.54 -3.6487 1.07936 0
M  V30 28824 H 2878.05 -2.79533 2.69226 0
M  V30 28825 H 2876.16 -3.70444 0.400213 0
M  V30 28826 H 2876.27 -4.25485 2.20226 0
M  V30 28827 H 2874.63 -2.30482 1.08399 0
M  V30 28828 H 2875.42 -2.06988 2.73881 0
M  V30 28829 N 2877.86 -0.920419 -1.2793 0
M  V30 28830 C 2879.11 -0.557041 -1.94688 0
M  V30 28831 C 2879.44 0.900446 -1.72401 0
M  V30 28832 O 2878.69 1.65655 -1.04197 0
M  V30 28833 C 2878.99 -0.820619 -3.47851 0
M  V30 28834 C 2878.66 -2.2587 -3.90248 0
M  V30 28835 C 2877.32 -2.65186 -4.01534 0
M  V30 28836 C 2879.67 -3.19423 -4.11848 0
M  V30 28837 C 2877 -3.97194 -4.31803 0
M  V30 28838 C 2879.35 -4.51003 -4.43598 0
M  V30 28839 C 2878.01 -4.90163 -4.53096 0
M  V30 28840 H 2877.28 -0.203836 -0.712413 0
M  V30 28841 H 2879.93 -1.16301 -1.5214 0
M  V30 28842 H 2878.24 -0.131913 -3.91578 0
M  V30 28843 H 2879.93 -0.51854 -3.97633 0
M  V30 28844 H 2876.52 -1.94365 -3.81995 0
M  V30 28845 H 2880.71 -2.90253 -4.02575 0
M  V30 28846 H 2875.96 -4.27227 -4.37364 0
M  V30 28847 H 2880.14 -5.23502 -4.59259 0
M  V30 28848 H 2877.76 -5.92484 -4.76305 0
M  V30 28849 N 2879.34 1.41929 -0.685124 0
M  V30 28850 C 2880.57 2.05723 -0.220408 0
M  V30 28851 C 2880.98 1.51518 1.1264 0
M  V30 28852 O 2880.34 0.659144 1.70181 0
M  V30 28853 C 2880.39 3.61154 -0.158038 0
M  V30 28854 O 2880.11 4.13351 -1.45163 0
M  V30 28855 C 2881.61 4.42078 0.328931 0
M  V30 28856 H 2878.83 0.662775 -0.104737 0
M  V30 28857 H 2881.38 1.81885 -0.934768 0
M  V30 28858 H 2879.53 3.84067 0.507076 0
M  V30 28859 H 2879.94 5.0731 -1.33181 0
M  V30 28860 H 2881.42 5.51063 0.321462 0
M  V30 28861 H 2881.9 4.17417 1.36601 0
M  V30 28862 H 2882.5 4.24206 -0.304811 0
M  V30 28863 N 2880.82 0.429152 1.51644 0
M  V30 28864 C 2881.78 -0.374686 2.26117 0
M  V30 28865 C 2882.78 -0.956691 1.29244 0
M  V30 28866 O 2883.97 -0.832425 1.53024 0
M  V30 28867 C 2881.1 -1.52932 3.04671 0
M  V30 28868 H 2882.29 0.277871 2.9861 0
M  V30 28869 H 2879.85 0.182124 1.55235 0
M  V30 28870 H 2880.58 -2.21817 2.36575 0
M  V30 28871 H 2880.37 -1.11826 3.75816 0
M  V30 28872 H 2881.86 -2.09745 3.61105 0
M  V30 28873 N 2882.29 -1.56783 0.160229 0
M  V30 28874 C 2883.71 -1.58391 -0.196061 0
M  V30 28875 C 2883.91 -1.17511 -1.63687 0
M  V30 28876 O 2882.97 -0.881548 -2.36611 0
M  V30 28877 C 2884.28 -3.00607 0.0746977 0
M  V30 28878 C 2885.83 -3.12998 0.0120312 0
M  V30 28879 C 2886.3 -4.57286 0.255632 0
M  V30 28880 N 2887.79 -4.62755 0.20302 0
M  V30 28881 C 2888.53 -5.72232 0.365832 0
M  V30 28882 N 2888.02 -6.90308 0.587093 0
M  V30 28883 N 2889.82 -5.61285 0.30251 0
M  V30 28884 H 2881.97 -1.81646 1.10084 0
M  V30 28885 H 2884.23 -0.841377 0.436794 0
M  V30 28886 H 2883.94 -3.34952 1.07237 0
M  V30 28887 H 2883.81 -3.71753 -0.638736 0
M  V30 28888 H 2886.2 -2.78486 -0.976205 0
M  V30 28889 H 2886.28 -2.44311 0.758003 0
M  V30 28890 H 2885.92 -4.92505 1.24103 0
M  V30 28891 H 2885.85 -5.24117 -0.51082 0
M  V30 28892 H 2888.34 -3.77882 0.0371993 0
M  V30 28893 H 2888.66 -7.69613 0.701076 0
M  V30 28894 H 2887 -6.92197 0.623575 0
M  V30 28895 H 2890.19 -4.67919 0.13032 0
M  V30 28896 H 2890.37 -6.46553 0.432826 0
M  V30 28897 N 2883.77 0.113531 -1.57191 0
M  V30 28898 C 2885.02 0.821564 -1.85413 0
M  V30 28899 C 2885.35 1.79269 -0.746753 0
M  V30 28900 O 2884.63 1.92926 0.246937 0
M  V30 28901 C 2884.91 1.56663 -3.24235 0
M  V30 28902 C 2884.76 0.614745 -4.45579 0
M  V30 28903 C 2886.08 2.52155 -3.60702 0
M  V30 28904 H 2883.2 0.297218 -0.674411 0
M  V30 28905 H 2885.84 0.0856606 -1.89807 0
M  V30 28906 H 2883.99 2.19396 -3.20621 0
M  V30 28907 H 2885.67 -0.00415246 -4.613 0
M  V30 28908 H 2883.91 -0.0733094 -4.33738 0
M  V30 28909 H 2884.58 1.17282 -5.39397 0
M  V30 28910 H 2887.06 1.99525 -3.65142 0
M  V30 28911 H 2885.93 3.01315 -4.58803 0
M  V30 28912 H 2886.19 3.35071 -2.88409 0
M  V30 28913 N 2885.25 1.52854 0.383864 0
M  V30 28914 C 2886.48 1.72032 1.14947 0
M  V30 28915 C 2886.89 0.44099 1.83578 0
M  V30 28916 O 2886.25 -0.584895 1.72873 0
M  V30 28917 C 2886.3 2.87337 2.19363 0
M  V30 28918 O 2886.02 4.10318 1.53529 0
M  V30 28919 C 2887.52 3.18236 3.08611 0
M  V30 28920 H 2884.74 0.575852 0.344435 0
M  V30 28921 H 2887.29 1.99524 0.448362 0
M  V30 28922 H 2885.44 2.62291 2.851 0
M  V30 28923 H 2885.86 4.74756 2.22951 0
M  V30 28924 H 2887.33 4.02368 3.77895 0
M  V30 28925 H 2887.81 2.32833 3.72405 0
M  V30 28926 H 2888.41 3.4514 2.48512 0
M  V30 28927 N 2886.73 -0.642612 1.43904 0
M  V30 28928 C 2887.98 -1.3996 1.45793 0
M  V30 28929 C 2888.3 -1.94804 0.0873486 0
M  V30 28930 O 2887.57 -1.75083 -0.878794 0
M  V30 28931 H 2886.15 -0.51947 0.536806 0
M  V30 28932 H 2888.81 -0.757158 1.79592 0
M  V30 28933 H 2887.91 -2.23666 2.17669 0
M  V30 28934 N 2888.21 -1.30611 -0.881966 0
M  V30 28935 C 2889.48 -1.10261 -1.61561 0
M  V30 28936 C 2889.86 0.347017 -2.08228 0
M  V30 28937 O 2889.21 1.33905 -1.85153 0
M  V30 28938 C 2889.42 -2.10617 -2.78283 0
M  V30 28939 C 2890.77 -2.42496 -3.48541 0
M  V30 28940 O 2891.79 -2.0895 -2.88476 0
M  V30 28941 O 2890.65 -2.99891 -4.56867 0
M  V30 28942 H 2887.75 -0.423675 -0.710231 0
M  V30 28943 H 2890.29 -1.42047 -0.928478 0
M  V30 28944 H 2889.07 -3.08179 -2.41126 0
M  V30 28945 H 2888.69 -1.79665 -3.54692 0
M  V30 28946 N 2889.69 1.0947 -1.13376 0
M  V30 28947 C 2890.96 1.78205 -0.80636 0
M  V30 28948 C 2891.34 1.9908 0.702156 0
M  V30 28949 O 2890.69 1.59185 1.63928 0
M  V30 28950 C 2890.9 3.10535 -1.59276 0
M  V30 28951 C 2892.25 3.8525 -1.78516 0
M  V30 28952 O 2893.27 3.20285 -1.55871 0
M  V30 28953 O 2892.13 5.01875 -2.16296 0
M  V30 28954 H 2889.23 0.772838 -0.294364 0
M  V30 28955 H 2891.77 1.16031 -1.23835 0
M  V30 28956 H 2890.54 2.90823 -2.61797 0
M  V30 28957 H 2890.17 3.80434 -1.15568 0
M  V30 28958 N 2891.16 0.92719 1.2744 0
M  V30 28959 C 2892.39 0.583077 1.99035 0
M  V30 28960 C 2892.81 -0.831731 1.68712 0
M  V30 28961 O 2892.17 -1.55802 0.927108 0
M  V30 28962 C 2892.22 0.814986 3.5127 0
M  V30 28963 O 2891.32 -0.119669 4.12226 0
M  V30 28964 H 2890.66 0.224549 0.624879 0
M  V30 28965 H 2893.19 1.2463 1.6226 0
M  V30 28966 H 2893.2 0.730353 4.0141 0
M  V30 28967 H 2891.88 1.8463 3.72672 0
M  V30 28968 H 2890.46 0.0148344 3.72897 0
M  V30 28969 N 2892.64 -1.41564 0.692641 0
M  V30 28970 C 2893.57 -2.28186 -0.0250229 0
M  V30 28971 C 2894.55 -1.42069 -0.790888 0
M  V30 28972 O 2895.74 -1.715 -0.782314 0
M  V30 28973 C 2892.86 -3.22248 -1.04279 0
M  V30 28974 C 2891.91 -4.24888 -0.370441 0
M  V30 28975 S 2892.74 -5.28136 0.885035 0
M  V30 28976 C 2893.9 -6.25762 -0.131214 0
M  V30 28977 H 2894.13 -2.88706 0.709677 0
M  V30 28978 H 2891.66 -1.46657 0.482809 0
M  V30 28979 H 2893.62 -3.76973 -1.62486 0
M  V30 28980 H 2892.28 -2.6083 -1.75005 0
M  V30 28981 H 2891.48 -4.90961 -1.13902 0
M  V30 28982 H 2891.08 -3.73744 0.138477 0
M  V30 28983 H 2893.37 -6.70295 -0.985409 0
M  V30 28984 H 2894.31 -7.06364 0.495509 0
M  V30 28985 H 2894.72 -5.62415 -0.484678 0
M  V30 28986 N 2894.12 -0.437188 -1.51415 0
M  V30 28987 C 2895.54 -0.0894739 -1.59349 0
M  V30 28988 C 2895.74 1.40113 -1.44812 0
M  V30 28989 O 2894.79 2.17104 -1.28928 0
M  V30 28990 C 2896.1 -0.609449 -2.94459 0
M  V30 28991 C 2897.65 -0.569878 -3.07768 0
M  V30 28992 C 2898.13 -1.06683 -4.45402 0
M  V30 28993 N 2899.62 -1.02481 -4.51721 0
M  V30 28994 C 2900.35 -1.38019 -5.56541 0
M  V30 28995 N 2899.85 -1.80843 -6.68781 0
M  V30 28996 N 2901.64 -1.29837 -5.46899 0
M  V30 28997 H 2893.79 -1.40705 -1.59109 0
M  V30 28998 H 2896.06 -0.579804 -0.750021 0
M  V30 28999 H 2895.76 -1.65237 -3.10467 0
M  V30 29000 H 2895.64 -0.0342899 -3.77184 0
M  V30 29001 H 2898.02 0.464056 -2.91428 0
M  V30 29002 H 2898.1 -1.18144 -2.26883 0
M  V30 29003 H 2897.75 -2.09922 -4.62488 0
M  V30 29004 H 2897.68 -0.431805 -5.24827 0
M  V30 29005 H 2900.17 -0.710323 -3.71164 0
M  V30 29006 H 2900.48 -2.06198 -7.44783 0
M  V30 29007 H 2898.83 -1.84769 -6.69989 0
M  V30 29008 H 2902.02 -0.962478 -4.58098 0
M  V30 29009 H 2902.19 -1.57862 -6.28477 0
M  V30 29010 N 2895.6 1.56696 -0.168541 0
M  V30 29011 C 2896.53 2.13664 0.801439 0
M  V30 29012 C 2897.51 1.06596 1.22784 0
M  V30 29013 O 2898.69 1.34556 1.32011 0
M  V30 29014 C 2895.82 2.67393 2.07891 0
M  V30 29015 C 2894.87 3.86807 1.79675 0
M  V30 29016 S 2895.7 5.2667 0.968464 0
M  V30 29017 C 2896.85 5.83803 2.25666 0
M  V30 29018 H 2897.09 2.95604 0.317069 0
M  V30 29019 H 2894.62 1.54331 0.046086 0
M  V30 29020 H 2896.58 2.98997 2.81267 0
M  V30 29021 H 2895.24 1.85543 2.53441 0
M  V30 29022 H 2894.43 4.22719 2.74453 0
M  V30 29023 H 2894.03 3.56075 1.14396 0
M  V30 29024 H 2896.33 5.96548 3.2115 0
M  V30 29025 H 2897.27 6.80942 1.94226 0
M  V30 29026 H 2897.68 5.12201 2.37299 0
M  V30 29027 N 2897.08 -0.105193 1.57249 0
M  V30 29028 C 2898.3 -0.828231 1.90145 0
M  V30 29029 C 2898.73 -1.71981 0.761841 0
M  V30 29030 O 2898.08 -1.79013 -0.287054 0
M  V30 29031 C 2898.13 -1.62602 3.21859 0
M  V30 29032 O 2897.24 -2.73414 3.08737 0
M  V30 29033 H 2896.58 -0.228181 0.623562 0
M  V30 29034 H 2899.11 -0.0834466 2.0443 0
M  V30 29035 H 2899.12 -2.01237 3.54919 0
M  V30 29036 H 2897.79 -0.971616 4.04391 0
M  V30 29037 H 2896.37 -2.37881 2.87171 0
M  V30 29038 N 2898.55 -1.53055 -0.375752 0
M  V30 29039 C 2899.5 -1.75154 -1.45962 0
M  V30 29040 C 2900.49 -0.605849 -1.49058 0
M  V30 29041 O 2901.68 -0.86416 -1.54471 0
M  V30 29042 C 2898.81 -1.93574 -2.83521 0
M  V30 29043 C 2897.9 -3.14115 -2.84943 0
M  V30 29044 N 2898.29 -4.36218 -2.56022 0
M  V30 29045 C 2896.58 -3.1463 -3.16107 0
M  V30 29046 C 2897.29 -5.17901 -2.64864 0
M  V30 29047 N 2896.26 -4.53883 -2.99151 0
M  V30 29048 H 2900.06 -2.67177 -1.22449 0
M  V30 29049 H 2897.58 -1.51542 -0.58384 0
M  V30 29050 H 2899.57 -2.07531 -3.61575 0
M  V30 29051 H 2898.23 -1.02773 -3.08006 0
M  V30 29052 H 2899.25 -4.64125 -2.298 0
M  V30 29053 H 2895.92 -2.33686 -3.45973 0
M  V30 29054 H 2897.31 -6.25272 -2.45936 0
M  V30 29055 N 2900.03 0.634971 -1.44242 0
M  V30 29056 C 2900.96 1.75837 -1.53635 0
M  V30 29057 C 2901.94 1.65577 -0.389632 0
M  V30 29058 O 2903.13 1.84396 -0.609252 0
M  V30 29059 C 2900.26 3.14351 -1.4765 0
M  V30 29060 C 2899.21 3.39395 -2.60758 0
M  V30 29061 C 2898.54 4.77899 -2.39825 0
M  V30 29062 C 2899.84 3.32336 -4.02927 0
M  V30 29063 H 2901.53 1.68234 -2.47665 0
M  V30 29064 H 2899.08 0.807948 -1.19198 0
M  V30 29065 H 2901.03 3.92713 -1.52822 0
M  V30 29066 H 2899.76 3.22729 -0.501341 0
M  V30 29067 H 2898.41 2.63412 -2.54969 0
M  V30 29068 H 2898.06 4.82976 -1.40511 0
M  V30 29069 H 2897.76 4.95615 -3.15658 0
M  V30 29070 H 2899.29 5.58496 -2.46809 0
M  V30 29071 H 2900.7 4.00608 -4.10105 0
M  V30 29072 H 2899.1 3.61586 -4.78932 0
M  V30 29073 H 2900.17 2.30208 -4.2677 0
M  V30 29074 N 2901.51 1.31076 0.875027 0
M  V30 29075 C 2902.46 1.183 1.98176 0
M  V30 29076 C 2903.43 0.0700215 1.65952 0
M  V30 29077 O 2904.61 0.241984 1.89259 0
M  V30 29078 C 2901.75 0.891082 3.33397 0
M  V30 29079 C 2900.87 2.0869 3.78249 0
M  V30 29080 C 2900 1.73221 5.02163 0
M  V30 29081 C 2899.04 2.89241 5.3945 0
M  V30 29082 N 2898.18 2.54001 6.54544 0
M  V30 29083 H 2903.02 2.12975 2.08436 0
M  V30 29084 H 2900.55 1.05949 1.02045 0
M  V30 29085 H 2902.51 0.70241 4.11244 0
M  V30 29086 H 2901.14 -0.0188232 3.22795 0
M  V30 29087 H 2900.19 2.38651 2.96226 0
M  V30 29088 H 2901.51 2.95543 4.01816 0
M  V30 29089 H 2900.66 1.50787 5.87663 0
M  V30 29090 H 2899.4 0.835525 4.8049 0
M  V30 29091 H 2898.4 3.12329 4.52471 0
M  V30 29092 H 2899.63 3.79611 5.63092 0
M  V30 29093 H 2897.57 1.66849 6.34427 0
M  V30 29094 H 2897.49 3.34384 6.78029 0
M  V30 29095 H 2898.76 2.34947 7.4325 0
M  V30 29096 N 2902.99 -1.08867 1.13955 0
M  V30 29097 C 2904.23 -1.81428 0.906183 0
M  V30 29098 C 2904.57 -1.85767 -0.566057 0
M  V30 29099 O 2903.84 -1.33008 -1.41912 0
M  V30 29100 C 2904.13 -3.27285 1.50189 0
M  V30 29101 C 2903.98 -3.31183 3.04364 0
M  V30 29102 C 2905.3 -4.24129 1.17484 0
M  V30 29103 H 2902.42 -0.658672 0.330636 0
M  V30 29104 H 2905.06 -1.27492 1.40875 0
M  V30 29105 H 2903.21 -3.73346 1.07448 0
M  V30 29106 H 2904.88 -2.93482 3.55902 0
M  V30 29107 H 2903.12 -2.70596 3.39058 0
M  V30 29108 H 2903.79 -4.3396 3.41149 0
M  V30 29109 H 2906.27 -3.86383 1.54427 0
M  V30 29110 H 2905.15 -5.2451 1.61805 0
M  V30 29111 H 2905.41 -4.4201 0.0894089 0
M  V30 29112 N 2904.47 -0.933936 -1.26946 0
M  V30 29113 C 2905.71 -0.576518 -1.93703 0
M  V30 29114 C 2906.04 0.886115 -1.73704 0
M  V30 29115 O 2905.31 1.62882 -1.08841 0
M  V30 29116 H 2903.89 -0.210226 -0.716808 0
M  V30 29117 H 2906.55 -1.18769 -1.54532 0
M  V30 29118 H 2905.64 -0.788108 -3.01986 0
M  V30 29119 N 2905.94 1.41194 -0.700139 0
M  V30 29120 C 2907.17 2.05998 -0.240741 0
M  V30 29121 C 2907.59 1.52359 1.1031 0
M  V30 29122 O 2906.95 0.652454 1.69153 0
M  V30 29123 C 2907 3.59965 -0.213846 0
M  V30 29124 O 2906.1 4.0437 0.809862 0
M  V30 29125 H 2905.45 0.653703 -0.116482 0
M  V30 29126 H 2907.98 1.80877 -0.956283 0
M  V30 29127 H 2907.99 4.07974 -0.0462569 0
M  V30 29128 H 2906.66 3.98374 -1.19461 0
M  V30 29129 H 2905.24 3.67856 0.611255 0
M  V30 29130 N 2907.42 0.445212 1.51181 0
M  V30 29131 C 2908.39 -0.350682 2.26501 0
M  V30 29132 C 2909.39 -0.942929 1.30252 0
M  V30 29133 O 2910.58 -0.816148 1.53898 0
M  V30 29134 C 2907.71 -1.49692 3.06276 0
M  V30 29135 H 2908.9 0.309527 2.98298 0
M  V30 29136 H 2906.45 0.198579 1.55033 0
M  V30 29137 H 2907.19 -2.19295 2.38915 0
M  V30 29138 H 2906.97 -1.07834 3.76981 0
M  V30 29139 H 2908.46 -2.05903 3.6331 0
M  V30 29140 N 2908.9 -1.56605 0.176849 0
M  V30 29141 C 2909.86 -2.17014 -0.737391 0
M  V30 29142 C 2910.86 -1.11967 -1.15412 0
M  V30 29143 O 2912.05 -1.37451 -1.07018 0
M  V30 29144 C 2909.19 -2.75748 -2.0044 0
M  V30 29145 H 2910.38 -2.99154 -0.211403 0
M  V30 29146 H 2907.93 -1.56131 -0.0727308 0
M  V30 29147 H 2908.67 -1.97357 -2.57334 0
M  V30 29148 H 2908.45 -3.52629 -1.7145 0
M  V30 29149 H 2909.94 -3.22192 -2.65673 0
M  V30 29150 N 2910.38 0.0968524 -1.57302 0
M  V30 29151 C 2911.66 0.832241 -1.77012 0
M  V30 29152 C 2912.04 1.97019 -0.758059 0
M  V30 29153 O 2911.38 2.27498 0.213784 0
M  V30 29154 C 2911.59 1.32845 -3.22728 0
M  V30 29155 C 2912.94 1.77194 -3.85859 0
M  V30 29156 O 2913.97 1.42472 -3.26466 0
M  V30 29157 O 2912.82 2.41389 -4.90299 0
M  V30 29158 H 2909.92 0.396843 -0.725565 0
M  V30 29159 H 2912.46 0.0788707 -1.69517 0
M  V30 29160 H 2911.24 0.513052 -3.87922 0
M  V30 29161 H 2910.86 2.14388 -3.34849 0
M  V30 29162 N 2911.86 1.53252 0.36763 0
M  V30 29163 C 2913.11 1.68556 1.10779 0
M  V30 29164 C 2913.42 0.442799 1.90522 0
M  V30 29165 O 2914.62 0.476337 2.67289 0
M  V30 29166 C 2913.08 2.97962 2.01857 0
M  V30 29167 C 2912.69 4.29493 1.27435 0
M  V30 29168 C 2914.43 3.22633 2.75877 0
M  V30 29169 C 2912.34 5.4999 2.17404 0
M  V30 29170 H 2911.27 0.62802 0.417261 0
M  V30 29171 H 2913.92 1.79753 0.36894 0
M  V30 29172 H 2912.3 2.80563 2.79465 0
M  V30 29173 H 2913.48 4.57517 0.549058 0
M  V30 29174 H 2911.79 4.1125 0.652863 0
M  V30 29175 H 2914.39 4.09843 3.43414 0
M  V30 29176 H 2914.73 2.38607 3.41134 0
M  V30 29177 H 2915.26 3.40697 2.05354 0
M  V30 29178 H 2912 6.36487 1.56729 0
M  V30 29179 H 2911.52 5.26248 2.87789 0
M  V30 29180 H 2913.2 5.84701 2.77009 0
M  V30 29181 N 2913.34 -0.627313 1.44577 0
M  V30 29182 C 2914.75 -1.209 1.42268 0
M  V30 29183 C 2915.1 -1.957 0.139998 0
M  V30 29184 O 2914.22 -2.02636 -0.759454 0
M  V30 29185 C 2914.82 -2.1991 2.57731 0
M  V30 29186 C 2913.38 -2.73498 2.58604 0
M  V30 29187 C 2912.52 -1.4856 2.34148 0
M  V30 29188 H 2915.47 -0.417764 1.53103 0
M  V30 29189 H 2915.5 -3.02584 2.30702 0
M  V30 29190 H 2915.01 -1.65441 3.51071 0
M  V30 29191 H 2913.11 -3.31959 1.69216 0
M  V30 29192 H 2913.22 -3.19276 3.57211 0
M  V30 29193 H 2911.59 -1.76826 1.83316 0
M  V30 29194 H 2912.37 -0.959877 3.29608 0
M  V30 29195 N 2914.81 -1.31539 -0.868063 0
M  V30 29196 C 2916.06 -1.20692 -1.61605 0
M  V30 29197 C 2916.38 0.23324 -1.94204 0
M  V30 29198 O 2917.58 0.463418 -2.67516 0
M  V30 29199 C 2916.04 -2.11297 -2.91344 0
M  V30 29200 C 2915.65 -3.6032 -2.66221 0
M  V30 29201 C 2917.39 -2.09255 -3.69341 0
M  V30 29202 C 2915.3 -4.42927 -3.91879 0
M  V30 29203 H 2914.23 -0.448149 -0.606365 0
M  V30 29204 H 2916.88 -1.56407 -0.959638 0
M  V30 29205 H 2915.26 -1.68483 -3.58371 0
M  V30 29206 H 2916.43 -4.11392 -2.0759 0
M  V30 29207 H 2914.75 -3.64357 -2.01576 0
M  V30 29208 H 2917.35 -2.68217 -4.62562 0
M  V30 29209 H 2917.69 -1.08017 -4.02042 0
M  V30 29210 H 2918.22 -2.5028 -3.092 0
M  V30 29211 H 2914.96 -5.44928 -3.64327 0
M  V30 29212 H 2914.48 -3.96612 -4.49954 0
M  V30 29213 H 2916.16 -4.55239 -4.59746 0
M  V30 29214 N 2916.29 1.08262 -1.1453 0
M  V30 29215 C 2917.24 2.17316 -0.829239 0
M  V30 29216 C 2918.23 1.68291 0.193492 0
M  V30 29217 O 2919.44 1.79932 0.0494428 0
M  V30 29218 H 2915.81 0.70907 -0.250448 0
M  V30 29219 H 2917.79 2.41198 -1.75687 0
M  V30 29220 C 2916.53 3.4618 -0.324724 0
M  V30 29221 H 2915.86 3.84282 -1.10306 0
M  V30 29222 H 2917.3 4.23762 -0.142134 0
M  V30 29223 C 2915.76 3.2317 0.951976 0
M  V30 29224 O 2916.29 3.469 2.02543 0
M  V30 29225 N 2914.49 2.76706 0.887806 0
M  V30 29226 H 2914.04 2.57596 0.0140949 0
M  V30 29227 H 2914 2.61689 1.74259 0
M  V30 29228 N 2917.77 0.940655 1.26449 0
M  V30 29229 C 2919.02 0.58369 1.9307 0
M  V30 29230 C 2919.33 -0.881335 1.74619 0
M  V30 29231 O 2920.54 -1.34765 2.35692 0
M  V30 29232 C 2918.99 0.993167 3.45925 0
M  V30 29233 C 2918.6 2.47977 3.73111 0
M  V30 29234 C 2920.35 0.708072 4.18553 0
M  V30 29235 C 2918.25 2.82797 5.19403 0
M  V30 29236 H 2917.18 0.214585 0.72282 0
M  V30 29237 H 2919.83 1.14322 1.43536 0
M  V30 29238 H 2918.22 0.362168 3.9434 0
M  V30 29239 H 2919.39 3.15977 3.35403 0
M  V30 29240 H 2917.7 2.73811 3.13714 0
M  V30 29241 H 2920.3 0.944562 5.26291 0
M  V30 29242 H 2920.64 -0.355152 4.14782 0
M  V30 29243 H 2921.18 1.29877 3.76001 0
M  V30 29244 H 2917.92 3.88081 5.28274 0
M  V30 29245 H 2917.44 2.19458 5.5821 0
M  V30 29246 H 2919.12 2.71235 5.87402 0
M  V30 29247 N 2919.25 -1.40821 0.707617 0
M  V30 29248 C 2920.47 -2.05867 0.251662 0
M  V30 29249 C 2920.9 -1.52942 -1.09501 0
M  V30 29250 O 2920.26 -0.661415 -1.68805 0
M  V30 29251 C 2920.3 -3.59847 0.232933 0
M  V30 29252 O 2919.41 -4.04794 -0.788405 0
M  V30 29253 H 2918.75 -0.653076 0.119947 0
M  V30 29254 H 2921.28 -1.80367 0.965862 0
M  V30 29255 H 2921.29 -4.07944 0.0678921 0
M  V30 29256 H 2919.96 -3.97735 1.21572 0
M  V30 29257 H 2918.54 -3.68175 -0.591738 0
M  V30 29258 N 2920.73 -0.453223 -1.50943 0
M  V30 29259 C 2921.64 0.355922 -2.31884 0
M  V30 29260 C 2922.65 1.01285 -1.41483 0
M  V30 29261 O 2923.83 1.00474 -1.74548 0
M  V30 29262 C 2920.89 1.43363 -3.15671 0
M  V30 29263 C 2919.95 0.795179 -4.21871 0
M  V30 29264 C 2919.19 1.82153 -5.01653 0
M  V30 29265 O 2919.41 3.04583 -4.82271 0
M  V30 29266 O 2918.34 1.40325 -5.85314 0
M  V30 29267 H 2922.17 -0.305301 -3.02162 0
M  V30 29268 H 2919.75 -0.215424 -1.47839 0
M  V30 29269 H 2921.64 2.05829 -3.67712 0
M  V30 29270 H 2920.31 2.07865 -2.48141 0
M  V30 29271 H 2919.22 0.13204 -3.73867 0
M  V30 29272 H 2920.55 0.193398 -4.9182 0
M  V30 29273 N 2922.2 1.56509 -0.185151 0
M  V30 29274 C 2923.43 2.01674 0.462104 0
M  V30 29275 C 2923.85 1.06534 1.55871 0
M  V30 29276 O 2923.2 0.0685126 1.82371 0
M  V30 29277 C 2923.25 3.46586 1.02764 0
M  V30 29278 O 2922.98 4.38093 -0.0252066 0
M  V30 29279 C 2924.48 4.0722 1.75176 0
M  V30 29280 H 2921.7 0.660723 0.116989 0
M  V30 29281 H 2924.24 2.0242 -0.290941 0
M  V30 29282 H 2922.4 3.46571 1.73111 0
M  V30 29283 H 2922.81 5.23016 0.394295 0
M  V30 29284 H 2924.28 5.10498 2.0999 0
M  V30 29285 H 2924.76 3.50106 2.65184 0
M  V30 29286 H 2925.37 4.10979 1.09438 0
M  V30 29287 N 2923.68 -0.0885089 1.57351 0
M  V30 29288 C 2924.96 -0.822842 1.7745 0
M  V30 29289 C 2925.34 -1.96615 0.768497 0
M  V30 29290 O 2924.69 -2.27608 -0.201717 0
M  V30 29291 C 2924.9 -1.31132 3.23428 0
M  V30 29292 C 2926.24 -1.75145 3.86794 0
M  V30 29293 O 2927.27 -1.40739 3.27217 0
M  V30 29294 O 2926.13 -2.38786 4.91573 0
M  V30 29295 H 2923.22 -0.392989 0.727659 0
M  V30 29296 H 2925.77 -0.0698797 1.69556 0
M  V30 29297 H 2924.54 -0.492472 3.88189 0
M  V30 29298 H 2924.16 -2.12609 3.35981 0
M  V30 29299 N 2925.16 -1.53445 -0.359498 0
M  V30 29300 C 2926.09 -1.83293 -1.44658 0
M  V30 29301 C 2927.07 -0.686857 -1.55616 0
M  V30 29302 O 2928.26 -0.93728 -1.70084 0
M  V30 29303 C 2925.39 -2.02827 -2.81919 0
M  V30 29304 C 2924.34 -3.18611 -2.85782 0
M  V30 29305 C 2923.67 -3.2345 -4.25775 0
M  V30 29306 C 2924.97 -4.5707 -2.52754 0
M  V30 29307 H 2926.66 -2.74331 -1.19929 0
M  V30 29308 H 2924.21 -1.32 -0.575494 0
M  V30 29309 H 2926.16 -2.22291 -3.58001 0
M  V30 29310 H 2924.88 -1.08505 -3.08049 0
M  V30 29311 H 2923.54 -2.98977 -2.12151 0
M  V30 29312 H 2923.19 -2.26753 -4.4899 0
M  V30 29313 H 2922.89 -4.01245 -4.29274 0
M  V30 29314 H 2924.41 -3.45105 -5.03721 0
M  V30 29315 H 2925.83 -4.76654 -3.18549 0
M  V30 29316 H 2924.22 -5.37151 -2.6756 0
M  V30 29317 H 2925.29 -4.61767 -1.47985 0
M  V30 29318 N 2926.64 0.619637 -1.44908 0
M  V30 29319 C 2927.86 1.4108 -1.52024 0
M  V30 29320 C 2928.29 1.87503 -0.149793 0
M  V30 29321 O 2927.65 1.59428 0.863275 0
M  V30 29322 C 2927.69 2.59951 -2.49916 0
M  V30 29323 O 2926.8 3.60177 -2.00863 0
M  V30 29324 H 2926.14 0.421675 -0.512919 0
M  V30 29325 H 2928.67 0.755249 -1.9015 0
M  V30 29326 H 2928.68 3.0735 -2.68329 0
M  V30 29327 H 2927.35 2.25509 -3.49454 0
M  V30 29328 H 2925.93 3.1951 -1.92271 0
M  V30 29329 N 2928.12 1.31997 0.861075 0
M  V30 29330 C 2929.05 1.22997 1.98479 0
M  V30 29331 C 2930.03 0.115198 1.69709 0
M  V30 29332 O 2931.21 0.301294 1.91849 0
M  V30 29333 C 2928.34 0.945674 3.34177 0
M  V30 29334 C 2927.3 2.02098 3.7728 0
M  V30 29335 C 2926.62 1.58921 5.10537 0
M  V30 29336 C 2927.92 3.43522 3.93433 0
M  V30 29337 H 2929.62 2.17012 2.06268 0
M  V30 29338 H 2927.16 1.04473 0.991025 0
M  V30 29339 H 2929.12 0.869279 4.12337 0
M  V30 29340 H 2927.84 -0.0301275 3.26586 0
M  V30 29341 H 2926.5 2.08742 3.01368 0
M  V30 29342 H 2926.15 0.60103 4.99396 0
M  V30 29343 H 2925.85 2.30864 5.40348 0
M  V30 29344 H 2927.37 1.52706 5.91196 0
M  V30 29345 H 2928.78 3.39503 4.61964 0
M  V30 29346 H 2927.18 4.13759 4.34653 0
M  V30 29347 H 2928.25 3.83655 2.96542 0
M  V30 29348 N 2929.59 -1.07653 1.15103 0
M  V30 29349 C 2930.52 -2.16771 0.867902 0
M  V30 29350 C 2931.51 -1.69142 -0.180253 0
M  V30 29351 O 2932.69 -1.94168 -0.0352811 0
M  V30 29352 C 2929.82 -3.45501 0.35305 0
M  V30 29353 C 2928.77 -4.06564 1.33753 0
M  V30 29354 C 2928.1 -5.30337 0.681656 0
M  V30 29355 C 2929.4 -4.46949 2.70248 0
M  V30 29356 H 2931.09 -2.40713 1.78039 0
M  V30 29357 H 2928.64 -1.15688 0.857455 0
M  V30 29358 H 2930.59 -4.21159 0.142539 0
M  V30 29359 H 2929.32 -3.21136 -0.594888 0
M  V30 29360 H 2927.98 -3.32946 1.53435 0
M  V30 29361 H 2927.62 -5.02262 -0.272334 0
M  V30 29362 H 2927.32 -5.72149 1.33863 0
M  V30 29363 H 2928.85 -6.08704 0.480847 0
M  V30 29364 H 2930.26 -5.1375 2.54429 0
M  V30 29365 H 2928.66 -4.99703 3.32291 0
M  V30 29366 H 2929.73 -3.58465 3.26544 0
M  V30 29367 N 2931.07 -0.947348 -1.25949 0
M  V30 29368 C 2932.3 -0.615162 -1.97543 0
M  V30 29369 C 2932.72 0.811191 -1.70485 0
M  V30 29370 O 2932.07 1.54168 -0.976647 0
M  V30 29371 C 2932.12 -0.85539 -3.51234 0
M  V30 29372 O 2931.84 -2.22565 -3.77355 0
M  V30 29373 C 2933.35 -0.534592 -4.40065 0
M  V30 29374 H 2930.57 -0.231274 -0.629884 0
M  V30 29375 H 2933.11 -1.26974 -1.60306 0
M  V30 29376 H 2931.26 -0.247334 -3.8661 0
M  V30 29377 H 2931.68 -2.29031 -4.71853 0
M  V30 29378 H 2933.15 -0.753264 -5.46836 0
M  V30 29379 H 2933.63 0.530625 -4.35983 0
M  V30 29380 H 2934.24 -1.12165 -4.10243 0
M  V30 29381 N 2932.55 1.40444 -0.715075 0
M  V30 29382 C 2933.51 2.2909 -0.0709129 0
M  V30 29383 C 2934.51 1.45343 0.6879 0
M  V30 29384 O 2935.7 1.66262 0.519879 0
M  V30 29385 C 2932.84 3.28544 0.909471 0
M  V30 29386 H 2934.03 2.87553 -0.851661 0
M  V30 29387 H 2931.58 1.48757 -0.4797 0
M  V30 29388 H 2932.32 2.75099 1.71729 0
M  V30 29389 H 2932.1 3.90367 0.368249 0
M  V30 29390 H 2933.59 3.94924 1.35737 0
M  V30 29391 N 2934.03 0.461222 1.507 0
M  V30 29392 C 2935.26 -0.0951392 2.06681 0
M  V30 29393 C 2935.67 -1.3438 1.32618 0
M  V30 29394 O 2935.03 -1.78228 0.392562 0
M  V30 29395 C 2935.08 -0.393253 3.59355 0
M  V30 29396 O 2934.8 0.805872 4.30624 0
M  V30 29397 C 2936.3 -0.997669 4.31928 0
M  V30 29398 H 2933.52 0.00268438 0.670995 0
M  V30 29399 H 2936.07 0.647171 1.9399 0
M  V30 29400 H 2934.22 -1.08548 3.71882 0
M  V30 29401 H 2934.63 0.5445 5.21666 0
M  V30 29402 H 2936.11 -1.15609 5.39758 0
M  V30 29403 H 2936.59 -1.98516 3.91776 0
M  V30 29404 H 2937.19 -0.344114 4.23906 0
M  V30 29405 N 2935.51 -1.56408 0.193449 0
M  V30 29406 C 2936.75 -1.97826 -0.446414 0
M  V30 29407 C 2937.09 -1.08022 -1.61385 0
M  V30 29408 O 2936.36 -0.131873 -1.94052 0
M  V30 29409 C 2936.64 -3.48461 -0.908137 0
M  V30 29410 C 2936.5 -4.49042 0.260993 0
M  V30 29411 C 2937.82 -4.02753 -1.77421 0
M  V30 29412 H 2934.93 -0.719246 -0.160794 0
M  V30 29413 H 2937.58 -1.87865 0.284039 0
M  V30 29414 H 2935.73 -3.5708 -1.53056 0
M  V30 29415 H 2937.4 -4.52463 0.898628 0
M  V30 29416 H 2935.64 -4.24083 0.913024 0
M  V30 29417 H 2936.31 -5.51901 -0.10456 0
M  V30 29418 H 2938.79 -3.96903 -1.24929 0
M  V30 29419 H 2937.66 -5.08525 -2.06624 0
M  V30 29420 H 2937.93 -3.47911 -2.72782 0
M  V30 29421 N 2936.98 0.0801629 -1.57396 0
M  V30 29422 C 2938.23 0.782051 -1.87114 0
M  V30 29423 C 2938.56 1.77644 -0.784611 0
M  V30 29424 O 2937.84 1.93406 0.205959 0
M  V30 29425 C 2938.12 1.49751 -3.27485 0
M  V30 29426 C 2937.97 0.520093 -4.46783 0
M  V30 29427 C 2939.29 2.44447 -3.65969 0
M  V30 29428 H 2936.41 0.282846 -0.680564 0
M  V30 29429 H 2939.05 0.0453805 -1.89946 0
M  V30 29430 H 2937.2 2.12545 -3.25203 0
M  V30 29431 H 2938.88 -0.102 -4.61187 0
M  V30 29432 H 2937.12 -0.165295 -4.33485 0
M  V30 29433 H 2937.79 1.05814 -5.41763 0
M  V30 29434 H 2940.27 1.91735 -3.69292 0
M  V30 29435 H 2939.14 2.91515 -4.65091 0
M  V30 29436 H 2939.4 3.28878 -2.95452 0
M  V30 29437 N 2938.46 1.53634 0.351355 0
M  V30 29438 C 2939.87 1.62038 0.9274 0
M  V30 29439 C 2940.22 0.496739 1.89808 0
M  V30 29440 O 2939.35 -0.374712 2.13131 0
M  V30 29441 C 2939.94 2.93709 1.68881 0
M  V30 29442 C 2938.5 3.04401 2.21398 0
M  V30 29443 C 2937.65 2.57433 1.0307 0
M  V30 29444 H 2940.6 1.58169 0.12972 0
M  V30 29445 H 2940.62 2.8231 2.55111 0
M  V30 29446 H 2940.13 3.75469 0.982083 0
M  V30 29447 H 2938.24 2.27258 2.9527 0
M  V30 29448 H 2938.35 4.09734 2.48305 0
M  V30 29449 H 2936.71 2.12651 1.40184 0
M  V30 29450 H 2937.5 3.41625 0.338733 0
M  V30 29451 N 2939.94 -0.611943 1.45234 0
M  V30 29452 C 2941.35 -1.19384 1.43542 0
M  V30 29453 C 2941.7 -1.9554 0.160747 0
M  V30 29454 O 2940.83 -2.0343 -0.737919 0
M  V30 29455 C 2941.42 -2.17164 2.60049 0
M  V30 29456 C 2939.98 -2.70739 2.6149 0
M  V30 29457 C 2939.13 -1.46068 2.3571 0
M  V30 29458 H 2942.08 -0.401502 1.53537 0
M  V30 29459 H 2942.1 -3.0012 2.33898 0
M  V30 29460 H 2941.61 -1.61708 3.52806 0
M  V30 29461 H 2939.71 -3.30146 1.72727 0
M  V30 29462 H 2939.83 -3.15469 3.60577 0
M  V30 29463 H 2938.19 -1.74872 1.85181 0
M  V30 29464 H 2938.97 -0.924864 3.30607 0
M  V30 29465 N 2941.42 -1.32452 -0.854063 0
M  V30 29466 C 2942.64 -1.26188 -1.64594 0
M  V30 29467 C 2943.07 0.167041 -1.87357 0
M  V30 29468 O 2942.43 1.11862 -1.42677 0
M  V30 29469 C 2942.47 -2.0274 -2.9821 0
M  V30 29470 O 2941.58 -1.37561 -3.88781 0
M  V30 29471 H 2940.92 -0.434868 -0.501783 0
M  V30 29472 H 2943.45 -1.74777 -1.06369 0
M  V30 29473 H 2943.46 -2.12936 -3.48026 0
M  V30 29474 H 2942.13 -3.06647 -2.80964 0
M  V30 29475 H 2940.71 -1.35916 -3.47248 0
M  V30 29476 N 2942.9 1.07041 -1.15672 0
M  V30 29477 C 2944.15 1.79342 -0.931705 0
M  V30 29478 C 2944.47 1.87305 0.542388 0
M  V30 29479 O 2943.74 1.37624 1.39415 0
M  V30 29480 H 2942.32 0.664256 -0.341721 0
M  V30 29481 H 2944.98 1.29342 -1.45797 0
M  V30 29482 H 2944.07 2.81687 -1.34384 0
M  V30 29483 N 2944.38 0.954014 1.25445 0
M  V30 29484 C 2945.79 0.658342 1.45389 0
M  V30 29485 C 2945.99 -0.784323 1.85609 0
M  V30 29486 O 2945.05 -1.55968 1.9857 0
M  V30 29487 C 2946.36 1.63074 2.52641 0
M  V30 29488 C 2947.91 1.64185 2.66481 0
M  V30 29489 C 2948.38 2.60188 3.76917 0
M  V30 29490 N 2949.87 2.58549 3.84326 0
M  V30 29491 C 2950.61 3.29511 4.69265 0
M  V30 29492 N 2950.11 4.09944 5.58496 0
M  V30 29493 N 2951.9 3.18401 4.63225 0
M  V30 29494 H 2944.05 1.88632 0.976304 0
M  V30 29495 H 2946.31 0.811345 0.490329 0
M  V30 29496 H 2946.02 2.66118 2.29944 0
M  V30 29497 H 2945.89 1.39277 3.50545 0
M  V30 29498 H 2948.28 0.618603 2.88543 0
M  V30 29499 H 2948.36 1.92041 1.68979 0
M  V30 29500 H 2948 3.62639 3.55605 0
M  V30 29501 H 2947.93 2.29618 4.73902 0
M  V30 29502 H 2950.43 2.00156 3.2054 0
M  V30 29503 H 2950.74 4.61011 6.20233 0
M  V30 29504 H 2949.08 4.14042 5.58206 0
M  V30 29505 H 2952.27 2.55037 3.92522 0
M  V30 29506 H 2952.45 3.7397 5.29198 0
M  V30 29507 N 2945.85 -1.40063 0.722513 0
M  V30 29508 C 2946.76 -2.34478 0.0756396 0
M  V30 29509 C 2947.78 -1.57667 -0.736018 0
M  V30 29510 O 2948.96 -1.90021 -0.667374 0
M  V30 29511 C 2946.02 -3.36618 -0.830015 0
M  V30 29512 C 2945.08 -4.29299 -0.00752338 0
M  V30 29513 C 2944.31 -5.2656 -0.870046 0
M  V30 29514 O 2944.54 -5.29974 -2.10912 0
M  V30 29515 O 2943.47 -6.01125 -0.305348 0
M  V30 29516 H 2947.3 -2.91428 0.854597 0
M  V30 29517 H 2944.88 -1.41375 0.483057 0
M  V30 29518 H 2946.76 -3.99239 -1.34857 0
M  V30 29519 H 2945.44 -2.82071 -1.588 0
M  V30 29520 H 2944.35 -3.69941 0.556264 0
M  V30 29521 H 2945.68 -4.87017 0.712397 0
M  V30 29522 N 2947.33 -0.469207 -1.50453 0
M  V30 29523 C 2948.24 0.331308 -2.32249 0
M  V30 29524 C 2949.26 0.997782 -1.42549 0
M  V30 29525 O 2950.43 0.986169 -1.75604 0
M  V30 29526 C 2947.5 1.40007 -3.17173 0
M  V30 29527 C 2946.56 0.750389 -4.22691 0
M  V30 29528 C 2945.79 1.76822 -5.03557 0
M  V30 29529 O 2946.02 2.99451 -4.85474 0
M  V30 29530 O 2944.95 1.34109 -5.86769 0
M  V30 29531 H 2948.78 -0.337332 -3.01821 0
M  V30 29532 H 2946.36 -0.231092 -1.47602 0
M  V30 29533 H 2948.24 2.01918 -3.69875 0
M  V30 29534 H 2946.92 2.05221 -2.50332 0
M  V30 29535 H 2945.82 0.0923789 -3.73986 0
M  V30 29536 H 2947.16 0.141223 -4.91997 0
M  V30 29537 N 2948.81 1.56303 -0.201741 0
M  V30 29538 C 2950.22 1.84114 0.309679 0
M  V30 29539 C 2950.57 1.12261 1.6091 0
M  V30 29540 O 2949.7 0.385624 2.12936 0
M  V30 29541 C 2950.29 3.33994 0.568647 0
M  V30 29542 C 2948.85 3.62191 1.02442 0
M  V30 29543 C 2948 2.77194 0.0766355 0
M  V30 29544 H 2950.95 1.52893 -0.425383 0
M  V30 29545 H 2950.97 3.53125 1.41714 0
M  V30 29546 H 2950.48 3.86262 -0.377258 0
M  V30 29547 H 2948.58 3.15362 1.98437 0
M  V30 29548 H 2948.7 4.70329 0.912537 0
M  V30 29549 H 2947.06 2.48014 0.579766 0
M  V30 29550 H 2947.84 3.32254 -0.863833 0
M  V30 29551 N 2950.29 -0.0718147 1.57436 0
M  V30 29552 C 2951.53 -0.776318 1.89084 0
M  V30 29553 C 2951.89 -1.74744 0.795525 0
M  V30 29554 O 2953.09 -2.49703 0.995069 0
M  V30 29555 C 2951.36 -1.46576 3.2596 0
M  V30 29556 S 2952.92 -2.20533 3.79355 0
M  V30 29557 H 2949.74 -0.258158 0.662477 0
M  V30 29558 H 2952.34 -0.0324192 1.95473 0
M  V30 29559 H 2951.05 -0.745166 4.03578 0
M  V30 29560 H 2950.58 -2.24909 3.22768 0
M  V30 29561 H 2952.59 -3.47051 3.5464 0
M  V30 29562 N 2951.77 -1.53818 -0.343203 0
M  V30 29563 C 2952.7 -1.84817 -1.42706 0
M  V30 29564 C 2953.68 -0.703324 -1.54879 0
M  V30 29565 O 2954.86 -0.955267 -1.69081 0
M  V30 29566 C 2951.99 -2.05806 -2.79752 0
M  V30 29567 C 2950.95 -3.21624 -2.82386 0
M  V30 29568 C 2950.27 -3.27947 -4.22321 0
M  V30 29569 C 2951.57 -4.59725 -2.47892 0
M  V30 29570 H 2953.27 -2.75587 -1.17013 0
M  V30 29571 H 2950.81 -1.32603 -0.561462 0
M  V30 29572 H 2952.76 -2.26076 -3.55623 0
M  V30 29573 H 2951.49 -1.11766 -3.06881 0
M  V30 29574 H 2950.15 -3.0121 -2.08968 0
M  V30 29575 H 2949.8 -2.31502 -4.4656 0
M  V30 29576 H 2949.5 -4.05776 -4.24994 0
M  V30 29577 H 2951.02 -3.50428 -5.00033 0
M  V30 29578 H 2952.43 -4.80006 -3.13475 0
M  V30 29579 H 2950.83 -5.39959 -2.61848 0
M  V30 29580 H 2951.9 -4.6331 -1.43079 0
M  V30 29581 N 2953.24 0.604233 -1.45557 0
M  V30 29582 C 2954.17 1.72539 -1.5733 0
M  V30 29583 C 2955.15 1.64714 -0.424666 0
M  V30 29584 O 2956.34 1.83062 -0.648228 0
M  V30 29585 C 2953.47 3.11149 -1.54284 0
M  V30 29586 C 2952.42 3.33788 -2.67899 0
M  V30 29587 C 2951.75 4.72705 -2.49908 0
M  V30 29588 C 2953.05 3.23715 -4.09886 0
M  V30 29589 H 2954.74 1.62942 -2.51177 0
M  V30 29590 H 2952.29 0.782483 -1.20885 0
M  V30 29591 H 2954.24 3.89383 -1.61117 0
M  V30 29592 H 2952.97 3.21593 -0.569684 0
M  V30 29593 H 2951.63 2.57945 -2.60499 0
M  V30 29594 H 2951.27 4.79887 -1.50724 0
M  V30 29595 H 2950.97 4.88807 -3.261 0
M  V30 29596 H 2952.5 5.53135 -2.586 0
M  V30 29597 H 2953.91 3.91819 -4.1851 0
M  V30 29598 H 2952.31 3.51346 -4.86494 0
M  V30 29599 H 2953.38 2.21104 -4.31557 0
M  V30 29600 N 2954.72 1.32903 0.847027 0
M  V30 29601 C 2955.67 1.22477 1.95622 0
M  V30 29602 C 2956.64 0.105207 1.65766 0
M  V30 29603 O 2957.82 0.282075 1.88703 0
M  V30 29604 C 2954.96 0.9616 3.31432 0
M  V30 29605 C 2954.08 2.16667 3.73737 0
M  V30 29606 C 2953.21 1.83834 4.98376 0
M  V30 29607 C 2952.25 3.00618 5.33193 0
M  V30 29608 N 2951.39 2.67827 6.49009 0
M  V30 29609 H 2956.23 2.17348 2.03872 0
M  V30 29610 H 2953.76 1.0809 0.997745 0
M  V30 29611 H 2955.72 0.789484 4.09662 0
M  V30 29612 H 2954.35 0.0496505 3.22762 0
M  V30 29613 H 2953.4 2.44881 2.91097 0
M  V30 29614 H 2954.72 3.04 3.95456 0
M  V30 29615 H 2953.87 1.63218 5.84333 0
M  V30 29616 H 2952.61 0.937256 4.78609 0
M  V30 29617 H 2951.61 3.21857 4.45745 0
M  V30 29618 H 2952.84 3.9147 5.54913 0
M  V30 29619 H 2950.79 1.80269 6.30745 0
M  V30 29620 H 2950.7 3.4869 6.70784 0
M  V30 29621 H 2951.97 2.5066 7.38099 0
M  V30 29622 N 2956.2 -1.06426 1.16238 0
M  V30 29623 C 2957.62 -1.31322 0.907007 0
M  V30 29624 C 2957.82 -1.96619 -0.440837 0
M  V30 29625 O 2956.87 -2.23196 -1.18066 0
M  V30 29626 C 2958.18 -2.19518 2.05505 0
M  V30 29627 C 2959.73 -2.32939 2.09065 0
M  V30 29628 C 2960.21 -3.24489 3.2322 0
M  V30 29629 N 2961.7 -3.32072 3.22928 0
M  V30 29630 C 2962.43 -4.02999 4.07897 0
M  V30 29631 N 2961.93 -4.7646 5.02949 0
M  V30 29632 N 2963.72 -3.99036 3.95888 0
M  V30 29633 H 2955.87 -0.624353 2.03016 0
M  V30 29634 H 2958.14 -0.33782 0.885766 0
M  V30 29635 H 2957.84 -1.78814 3.0285 0
M  V30 29636 H 2957.72 -3.20097 1.99544 0
M  V30 29637 H 2960.1 -2.72891 1.12313 0
M  V30 29638 H 2960.18 -1.32033 2.19091 0
M  V30 29639 H 2959.83 -2.85253 4.2023 0
M  V30 29640 H 2959.76 -4.25371 3.1043 0
M  V30 29641 H 2962.25 -2.79719 2.54098 0
M  V30 29642 H 2962.56 -5.28102 5.64205 0
M  V30 29643 H 2960.91 -4.75444 5.0693 0
M  V30 29644 H 2964.1 -3.40763 3.20933 0
M  V30 29645 H 2964.27 -4.54044 4.62329 0
M  V30 29646 N 2957.68 -0.960653 -1.24937 0
M  V30 29647 C 2958.61 -0.503855 -2.27999 0
M  V30 29648 C 2959.59 0.4529 -1.6396 0
M  V30 29649 O 2960.77 0.350552 -1.9101 0
M  V30 29650 C 2957.9 0.213474 -3.46643 0
M  V30 29651 C 2956.86 -0.658609 -4.22902 0
M  V30 29652 C 2956.18 0.189808 -5.34363 0
M  V30 29653 C 2957.48 -1.93972 -4.84946 0
M  V30 29654 H 2959.18 -1.36526 -2.6646 0
M  V30 29655 H 2956.72 -0.65792 -1.28091 0
M  V30 29656 H 2958.68 0.544212 -4.17871 0
M  V30 29657 H 2957.4 1.10918 -3.07189 0
M  V30 29658 H 2956.06 -0.972517 -3.53465 0
M  V30 29659 H 2955.71 1.08545 -4.91149 0
M  V30 29660 H 2955.41 -0.390434 -5.86301 0
M  V30 29661 H 2956.93 0.515377 -6.08421 0
M  V30 29662 H 2958.35 -1.67501 -5.48285 0
M  V30 29663 H 2956.74 -2.4661 -5.47086 0
M  V30 29664 H 2957.81 -2.63907 -4.06794 0
M  V30 29665 N 2959.16 1.39677 -0.729931 0
M  V30 29666 C 2960.57 1.54376 -0.404978 0
M  V30 29667 C 2960.77 1.69811 1.08473 0
M  V30 29668 O 2959.83 1.69575 1.87084 0
M  V30 29669 C 2961.14 2.76427 -1.18357 0
M  V30 29670 C 2962.69 2.90258 -1.17129 0
M  V30 29671 C 2963.16 4.1524 -1.93235 0
M  V30 29672 N 2964.66 4.22269 -1.90375 0
M  V30 29673 C 2965.39 5.17914 -2.46074 0
M  V30 29674 N 2964.89 6.19379 -3.10389 0
M  V30 29675 N 2966.68 5.10094 -2.36136 0
M  V30 29676 H 2958.83 1.27906 -1.6957 0
M  V30 29677 H 2961.09 0.619551 -0.717538 0
M  V30 29678 H 2960.8 2.71348 -2.23748 0
M  V30 29679 H 2960.67 3.68949 -0.784653 0
M  V30 29680 H 2963.06 2.94833 -0.125529 0
M  V30 29681 H 2963.14 1.98814 -1.60955 0
M  V30 29682 H 2962.79 4.11427 -2.97809 0
M  V30 29683 H 2962.72 5.05719 -1.46819 0
M  V30 29684 H 2965.21 3.49588 -1.43516 0
M  V30 29685 H 2965.52 6.88811 -3.5037 0
M  V30 29686 H 2963.86 6.19781 -3.14478 0
M  V30 29687 H 2967.06 4.2976 -1.85537 0
M  V30 29688 H 2967.23 5.84458 -2.79843 0
M  V30 29689 N 2960.63 0.47718 1.50202 0
M  V30 29690 C 2961.58 -0.327785 2.30279 0
M  V30 29691 C 2962.58 -0.984815 1.37832 0
M  V30 29692 O 2963.78 -0.915224 1.54996 0
M  V30 29693 H 2960.16 -0.124551 0.741614 0
M  V30 29694 H 2962.13 0.367905 2.96123 0
M  V30 29695 C 2960.88 -1.39359 3.1855 0
M  V30 29696 H 2960.2 -0.897407 3.89598 0
M  V30 29697 H 2961.64 -1.92928 3.77564 0
M  V30 29698 C 2960.1 -2.39885 2.36552 0
M  V30 29699 O 2960.63 -3.45282 2.05288 0
M  V30 29700 N 2958.84 -2.11754 1.99019 0
M  V30 29701 H 2958.38 -1.26067 2.24644 0
M  V30 29702 H 2958.34 -2.79247 1.44459 0
M  V30 29703 N 2962.11 -1.56194 0.210027 0
M  V30 29704 C 2963.36 -1.97604 -0.423939 0
M  V30 29705 C 2963.68 -1.09857 -1.6111 0
M  V30 29706 O 2962.95 -0.173067 -1.95134 0
M  V30 29707 H 2961.53 -0.729748 -0.159616 0
M  V30 29708 H 2964.19 -1.92574 0.300239 0
M  V30 29709 H 2963.29 -3.02754 -0.758037 0
M  V30 29710 N 2963.59 0.0634645 -1.57472 0
M  V30 29711 C 2964.54 1.08163 -2.00711 0
M  V30 29712 C 2965.52 1.34009 -0.890522 0
M  V30 29713 O 2966.72 1.3417 -1.15444 0
M  V30 29714 C 2963.85 2.39299 -2.46153 0
M  V30 29715 C 2962.93 2.1669 -3.64563 0
M  V30 29716 N 2963.32 1.64035 -4.78462 0
M  V30 29717 C 2961.62 2.47128 -3.71273 0
M  V30 29718 C 2962.32 1.56436 -5.6027 0
M  V30 29719 N 2961.3 2.02783 -5.04361 0
M  V30 29720 H 2965.1 0.667966 -2.86209 0
M  V30 29721 H 2962.61 0.270398 -1.60133 0
M  V30 29722 H 2964.61 3.13011 -2.75372 0
M  V30 29723 H 2963.27 2.81374 -1.62045 0
M  V30 29724 H 2964.28 1.32782 -5.00589 0
M  V30 29725 H 2960.96 2.92513 -2.97897 0
M  V30 29726 H 2962.35 1.16507 -6.61722 0
M  V30 29727 N 2965.07 1.53998 0.33504 0
M  V30 29728 C 2966.31 1.71907 1.07591 0
M  V30 29729 C 2966.65 0.485297 1.88039 0
M  V30 29730 O 2965.92 -0.51772 1.87483 0
M  V30 29731 C 2966.21 2.98775 2.01011 0
M  V30 29732 C 2966.06 4.32379 1.23969 0
M  V30 29733 C 2967.38 3.21348 3.00705 0
M  V30 29734 H 2964.5 0.625511 0.389749 0
M  V30 29735 H 2967.14 1.8668 0.353651 0
M  V30 29736 H 2965.29 2.86312 2.62598 0
M  V30 29737 H 2966.96 4.56708 0.649303 0
M  V30 29738 H 2965.2 4.30403 0.541803 0
M  V30 29739 H 2965.87 5.17346 1.92503 0
M  V30 29740 H 2968.35 3.33199 2.49235 0
M  V30 29741 H 2967.23 4.11497 3.63265 0
M  V30 29742 H 2967.49 2.3804 3.72545 0
M  V30 29743 N 2966.55 -0.596505 1.45875 0
M  V30 29744 C 2967.79 -1.35251 1.50172 0
M  V30 29745 C 2968.12 -1.94428 0.14928 0
M  V30 29746 O 2967.39 -1.7779 -0.822648 0
M  V30 29747 H 2965.97 -0.502129 0.55306 0
M  V30 29748 H 2968.63 -0.699639 1.81909 0
M  V30 29749 H 2967.72 -2.16628 2.24674 0
M  V30 29750 N 2968.02 -1.3335 -0.839967 0
M  V30 29751 C 2969.27 -1.24093 -1.59009 0
M  V30 29752 C 2969.59 0.191994 -1.94655 0
M  V30 29753 O 2970.79 0.40657 -2.68439 0
M  V30 29754 C 2969.25 -2.1743 -2.86797 0
M  V30 29755 C 2968.86 -3.65886 -2.58518 0
M  V30 29756 C 2970.6 -2.17043 -3.64819 0
M  V30 29757 C 2968.51 -4.5114 -3.82396 0
M  V30 29758 H 2967.44 -0.46091 -0.596723 0
M  V30 29759 H 2970.09 -1.58407 -0.926246 0
M  V30 29760 H 2968.47 -1.76047 -3.54716 0
M  V30 29761 H 2969.64 -4.15702 -1.98817 0
M  V30 29762 H 2967.96 -3.68551 -1.93802 0
M  V30 29763 H 2970.56 -2.77968 -4.56769 0
M  V30 29764 H 2970.9 -1.1652 -3.99661 0
M  V30 29765 H 2971.43 -2.56782 -3.03822 0
M  V30 29766 H 2968.17 -5.52533 -3.52686 0
M  V30 29767 H 2967.69 -4.06067 -4.4144 0
M  V30 29768 H 2969.37 -4.64888 -4.49987 0
M  V30 29769 N 2969.5 1.05808 -1.16801 0
M  V30 29770 C 2970.73 1.82923 -0.977435 0
M  V30 29771 C 2971.15 1.82147 0.469482 0
M  V30 29772 O 2970.51 1.22588 1.33574 0
M  V30 29773 C 2970.56 3.27208 -1.51549 0
M  V30 29774 O 2969.66 4.05976 -0.725093 0
M  V30 29775 H 2969 0.565819 -0.347484 0
M  V30 29776 H 2971.53 1.33374 -1.55154 0
M  V30 29777 H 2971.54 3.7802 -1.53508 0
M  V30 29778 H 2970.22 3.27088 -2.56877 0
M  V30 29779 H 2968.8 3.64728 -0.776404 0
M  V30 29780 N 2970.98 0.967265 1.24426 0
M  V30 29781 C 2972.23 0.628914 1.92486 0
M  V30 29782 C 2972.56 -0.83584 1.75625 0
M  V30 29783 O 2971.81 -1.61673 1.10273 0
M  V30 29784 C 2972.11 0.949156 3.44566 0
M  V30 29785 C 2971.78 2.40198 3.81596 0
M  V30 29786 C 2970.44 2.79906 3.91415 0
M  V30 29787 C 2972.79 3.34488 3.99709 0
M  V30 29788 C 2970.12 4.12947 4.16764 0
M  V30 29789 C 2972.47 4.67156 4.26554 0
M  V30 29790 C 2971.13 5.06642 4.34592 0
M  V30 29791 H 2970.4 0.230136 0.704357 0
M  V30 29792 H 2973.05 1.21867 1.47718 0
M  V30 29793 H 2971.36 0.277154 3.90818 0
M  V30 29794 H 2973.05 0.665762 3.95435 0
M  V30 29795 H 2969.64 2.08408 3.74518 0
M  V30 29796 H 2973.83 3.04994 3.91525 0
M  V30 29797 H 2969.08 4.43165 4.21206 0
M  V30 29798 H 2973.26 5.40186 4.39513 0
M  V30 29799 H 2970.88 6.09754 4.53987 0
M  V30 29800 N 2972.46 -1.39288 0.737328 0
M  V30 29801 C 2973.71 -2.00763 0.286716 0
M  V30 29802 C 2974.04 -1.58377 -1.12385 0
M  V30 29803 O 2973.31 -0.81373 -1.7666 0
M  V30 29804 C 2973.6 -3.57969 0.39121 0
M  V30 29805 C 2973.45 -4.10367 1.84172 0
M  V30 29806 C 2974.77 -4.39524 -0.224995 0
M  V30 29807 H 2971.89 -0.729387 0.105655 0
M  V30 29808 H 2974.53 -1.65463 0.933921 0
M  V30 29809 H 2972.68 -3.88171 -0.159807 0
M  V30 29810 H 2974.35 -3.90875 2.44979 0
M  V30 29811 H 2972.59 -3.6384 2.36226 0
M  V30 29812 H 2973.27 -5.19501 1.86609 0
M  V30 29813 H 2975.74 -4.1538 0.24475 0
M  V30 29814 H 2974.62 -5.48765 -0.121549 0
M  V30 29815 H 2974.88 -4.22204 -1.31133 0
M  V30 29816 N 2973.94 -0.485139 -1.49947 0
M  V30 29817 C 2975.35 -0.0334369 -1.8667 0
M  V30 29818 C 2975.7 1.37577 -1.39882 0
M  V30 29819 O 2974.82 2.02244 -0.769823 0
M  V30 29820 C 2975.42 -0.0539021 -3.38757 0
M  V30 29821 C 2973.98 0.342387 -3.7484 0
M  V30 29822 C 2973.13 -0.433329 -2.73893 0
M  V30 29823 H 2976.08 -0.698724 -1.4249 0
M  V30 29824 H 2976.1 0.74508 -3.73134 0
M  V30 29825 H 2975.61 -1.07966 -3.7278 0
M  V30 29826 H 2973.71 1.37197 -3.46421 0
M  V30 29827 H 2973.82 0.0339661 -4.79088 0
M  V30 29828 H 2972.19 0.114804 -2.54441 0
M  V30 29829 H 2972.97 -1.45886 -3.1076 0
M  V30 29830 N 2975.42 1.56081 -0.218307 0
M  V30 29831 C 2976.36 2.20146 0.69315 0
M  V30 29832 C 2977.33 1.156 1.19272 0
M  V30 29833 O 2978.52 1.43942 1.25241 0
M  V30 29834 C 2975.66 2.88278 1.8971 0
M  V30 29835 C 2974.77 4.07409 1.43673 0
M  V30 29836 C 2973.91 4.63334 2.59799 0
M  V30 29837 C 2972.94 5.74773 2.10482 0
M  V30 29838 N 2972.08 6.25003 3.19869 0
M  V30 29839 H 2976.92 2.9767 0.140108 0
M  V30 29840 H 2974.46 1.46988 0.0574034 0
M  V30 29841 H 2976.42 3.25963 2.60392 0
M  V30 29842 H 2975.05 2.13277 2.42307 0
M  V30 29843 H 2974.1 3.75231 0.624941 0
M  V30 29844 H 2975.41 4.87942 1.03508 0
M  V30 29845 H 2974.56 5.03444 3.38569 0
M  V30 29846 H 2973.3 3.81957 3.0325 0
M  V30 29847 H 2972.31 5.34168 1.30173 0
M  V30 29848 H 2973.53 6.57983 1.68034 0
M  V30 29849 H 2971.48 5.46541 3.62808 0
M  V30 29850 H 2971.4 7.0065 2.83946 0
M  V30 29851 H 2972.66 6.6977 3.98784 0
M  V30 29852 N 2976.89 -0.0551124 1.57504 0
M  V30 29853 C 2977.8 -1.0812 2.082 0
M  V30 29854 C 2978.82 -1.41329 1.01499 0
M  V30 29855 O 2980 -1.51172 1.33075 0
M  V30 29856 C 2977.06 -2.37078 2.52972 0
M  V30 29857 C 2976.12 -2.10689 3.74044 0
M  V30 29858 C 2975.35 -3.33498 4.16671 0
M  V30 29859 O 2975.58 -4.43233 3.59027 0
M  V30 29860 O 2974.51 -3.20729 5.0933 0
M  V30 29861 H 2978.34 -0.680466 2.95979 0
M  V30 29862 H 2975.92 -0.270376 1.46933 0
M  V30 29863 H 2977.8 -3.12941 2.82216 0
M  V30 29864 H 2976.48 -2.76499 1.68315 0
M  V30 29865 H 2975.39 -1.32478 3.49858 0
M  V30 29866 H 2976.72 -1.7614 4.59604 0
M  V30 29867 N 2978.37 -1.54173 -0.326869 0
M  V30 29868 C 2979.6 -1.76179 -1.08483 0
M  V30 29869 C 2980.01 -0.508819 -1.81814 0
M  V30 29870 O 2979.37 0.520331 -1.74925 0
M  V30 29871 C 2979.42 -2.9528 -2.08547 0
M  V30 29872 O 2979.14 -4.15733 -1.38194 0
M  V30 29873 C 2980.64 -3.29471 -2.96587 0
M  V30 29874 H 2977.86 -0.588239 -0.322825 0
M  V30 29875 H 2980.41 -2.01051 -0.374001 0
M  V30 29876 H 2978.56 -2.72692 -2.75169 0
M  V30 29877 H 2978.98 -4.82703 -2.05177 0
M  V30 29878 H 2980.45 -4.16116 -3.62701 0
M  V30 29879 H 2980.93 -2.46494 -3.63507 0
M  V30 29880 H 2981.53 -3.54126 -2.35531 0
M  V30 29881 N 2979.85 0.58876 -1.4619 0
M  V30 29882 C 2981.1 1.34452 -1.50887 0
M  V30 29883 C 2981.42 1.94346 -0.159589 0
M  V30 29884 O 2980.69 1.78224 0.813208 0
M  V30 29885 H 2979.27 0.499189 -0.555716 0
M  V30 29886 H 2981.93 0.689982 -1.82278 0
M  V30 29887 H 2981.03 2.15434 -2.2582 0
M  V30 29888 N 2981.33 1.33794 0.832883 0
M  V30 29889 C 2982.24 1.26595 1.97511 0
M  V30 29890 C 2983.25 0.175421 1.73113 0
M  V30 29891 O 2984.43 0.400097 1.97386 0
M  V30 29892 C 2981.49 1.01127 3.31624 0
M  V30 29893 C 2980.56 2.1924 3.69097 0
M  V30 29894 C 2979.79 1.94977 4.96809 0
M  V30 29895 O 2980.01 0.903054 5.63206 0
M  V30 29896 O 2978.95 2.81669 5.31927 0
M  V30 29897 H 2982.77 2.22667 2.06526 0
M  V30 29898 H 2980.36 1.139 0.966806 0
M  V30 29899 H 2982.24 0.886643 4.11967 0
M  V30 29900 H 2980.91 0.0808789 3.23599 0
M  V30 29901 H 2979.82 2.37259 2.89239 0
M  V30 29902 H 2981.15 3.10634 3.81795 0
M  V30 29903 N 2982.81 -1.05187 1.1736 0
M  V30 29904 C 2983.76 -2.1122 0.858482 0
M  V30 29905 C 2984.74 -1.60031 -0.166963 0
M  V30 29906 O 2985.93 -1.76964 0.0354767 0
M  V30 29907 C 2983.06 -3.41261 0.373609 0
M  V30 29908 C 2982.15 -3.99247 1.43048 0
M  V30 29909 N 2982.54 -4.31195 2.64394 0
M  V30 29910 C 2980.84 -4.26986 1.28835 0
M  V30 29911 C 2981.54 -4.7744 3.32304 0
M  V30 29912 N 2980.51 -4.77563 2.59682 0
M  V30 29913 H 2984.31 -2.33783 1.78109 0
M  V30 29914 H 2981.83 -1.22835 1.06232 0
M  V30 29915 H 2983.83 -4.16699 0.129404 0
M  V30 29916 H 2982.49 -3.20131 -0.542791 0
M  V30 29917 H 2983.5 -4.21193 3.01358 0
M  V30 29918 H 2980.17 -4.15242 0.433603 0
M  V30 29919 H 2981.56 -5.11272 4.35948 0
M  V30 29920 N 2984.28 -0.97385 -1.23911 0
M  V30 29921 C 2985.21 -0.528009 -2.27452 0
M  V30 29922 C 2986.19 0.435484 -1.64431 0
M  V30 29923 O 2987.38 0.330273 -1.91371 0
M  V30 29924 C 2984.51 0.176696 -3.4685 0
M  V30 29925 C 2983.46 -0.703426 -4.2218 0
M  V30 29926 C 2982.79 0.133121 -5.34534 0
M  V30 29927 C 2984.09 -1.99104 -4.82861 0
M  V30 29928 H 2985.78 -1.39345 -2.64997 0
M  V30 29929 H 2983.33 -0.671469 -1.27386 0
M  V30 29930 H 2985.28 0.499861 -4.18425 0
M  V30 29931 H 2984.01 1.07653 -3.08348 0
M  V30 29932 H 2982.67 -1.00995 -3.52414 0
M  V30 29933 H 2982.31 1.03329 -4.92272 0
M  V30 29934 H 2982.01 -0.452597 -5.85854 0
M  V30 29935 H 2983.54 0.450817 -6.08933 0
M  V30 29936 H 2984.95 -1.73307 -5.46478 0
M  V30 29937 H 2983.35 -2.52399 -5.4444 0
M  V30 29938 H 2984.42 -2.68206 -4.03972 0
M  V30 29939 N 2985.76 1.38895 -0.744705 0
M  V30 29940 C 2987.01 2.00608 -0.297359 0
M  V30 29941 C 2987.34 1.5897 1.11544 0
M  V30 29942 O 2986.62 0.823088 1.76226 0
M  V30 29943 C 2986.9 3.57756 -0.410188 0
M  V30 29944 C 2986.75 4.09384 -1.86345 0
M  V30 29945 C 2988.07 4.39638 0.201683 0
M  V30 29946 H 2985.19 0.728817 -0.109522 0
M  V30 29947 H 2987.83 1.64965 -0.942682 0
M  V30 29948 H 2985.98 3.8825 0.139219 0
M  V30 29949 H 2987.65 3.8957 -2.47049 0
M  V30 29950 H 2985.9 3.62582 -2.38153 0
M  V30 29951 H 2986.57 5.18504 -1.89361 0
M  V30 29952 H 2989.04 4.15244 -0.266776 0
M  V30 29953 H 2987.92 5.48822 0.0924451 0
M  V30 29954 H 2988.18 4.22894 1.28892 0
M  V30 29955 N 2987.24 0.493084 1.49688 0
M  V30 29956 C 2988.19 -0.308642 2.25901 0
M  V30 29957 C 2989.17 -0.942447 1.3041 0
M  V30 29958 O 2990.37 -0.851357 1.5518 0
M  V30 29959 C 2987.5 -1.37719 3.14465 0
M  V30 29960 C 2986.58 -0.750026 4.17415 0
M  V30 29961 N 2986.97 0.142686 5.05599 0
M  V30 29962 C 2985.27 -1.01151 4.34378 0
M  V30 29963 C 2985.97 0.500884 5.7954 0
M  V30 29964 N 2984.95 -0.12929 5.43446 0
M  V30 29965 H 2988.75 0.378703 2.9145 0
M  V30 29966 H 2986.26 0.308642 1.5944 0
M  V30 29967 H 2988.26 -1.96493 3.6769 0
M  V30 29968 H 2986.92 -2.0663 2.50468 0
M  V30 29969 H 2987.93 0.512985 5.15353 0
M  V30 29970 H 2984.61 -1.69396 3.81591 0
M  V30 29971 H 2986 1.23074 6.60532 0
M  V30 29972 N 2988.72 -1.55963 0.226582 0
M  V30 29973 C 2989.96 -1.98728 -0.404352 0
M  V30 29974 C 2990.3 -1.11421 -1.59057 0
M  V30 29975 O 2989.57 -0.173005 -1.93729 0
M  V30 29976 C 2989.86 -3.50309 -0.834019 0
M  V30 29977 C 2989.71 -4.48388 0.356183 0
M  V30 29978 C 2991.03 -4.06426 -1.68838 0
M  V30 29979 H 2988.15 -0.722494 -0.145502 0
M  V30 29980 H 2990.79 -1.8722 0.323824 0
M  V30 29981 H 2988.94 -3.60246 -1.45447 0
M  V30 29982 H 2990.61 -4.50455 0.994399 0
M  V30 29983 H 2988.85 -4.22051 1.00277 0
M  V30 29984 H 2989.52 -5.51999 0.0125303 0
M  V30 29985 H 2992 -3.99463 -1.16482 0
M  V30 29986 H 2990.88 -5.12793 -1.95791 0
M  V30 29987 H 2991.14 -3.53619 -2.65341 0
M  V30 29988 N 2990.2 0.0467589 -1.57531 0
M  V30 29989 C 2991.14 1.05281 -2.05389 0
M  V30 29990 C 2992.11 1.36983 -0.93941 0
M  V30 29991 O 2993.3 1.47624 -1.2088 0
M  V30 29992 C 2990.44 2.35404 -2.52347 0
M  V30 29993 C 2989.55 2.10015 -3.77515 0
M  V30 29994 C 2988.69 3.3388 -4.13156 0
M  V30 29995 C 2987.73 3.03967 -5.31291 0
M  V30 29996 N 2986.86 4.20233 -5.62449 0
M  V30 29997 H 2991.7 0.637737 -2.91096 0
M  V30 29998 H 2989.24 0.303297 -1.43939 0
M  V30 29999 H 2991.2 3.11409 -2.77634 0
M  V30 30000 H 2989.83 2.74667 -1.69582 0
M  V30 30001 H 2988.88 1.24587 -3.59419 0
M  V30 30002 H 2990.19 1.83937 -4.63647 0
M  V30 30003 H 2989.35 4.18265 -4.39476 0
M  V30 30004 H 2988.08 3.63056 -3.2564 0
M  V30 30005 H 2987.09 2.17982 -5.04741 0
M  V30 30006 H 2988.31 2.76087 -6.20445 0
M  V30 30007 H 2986.26 4.49393 -4.77893 0
M  V30 30008 H 2986.18 3.97517 -6.43053 0
M  V30 30009 H 2987.45 5.05542 -5.93336 0
M  V30 30010 N 2991.67 1.54344 0.318688 0
M  V30 30011 C 2992.62 1.84068 1.39239 0
M  V30 30012 C 2993.59 0.68816 1.51174 0
M  V30 30013 O 2994.78 0.935068 1.66316 0
M  V30 30014 C 2991.92 2.07799 2.75525 0
M  V30 30015 C 2991.03 3.35472 2.72182 0
M  V30 30016 C 2990.16 3.49137 4.00346 0
M  V30 30017 C 2989.2 4.70667 3.9133 0
M  V30 30018 N 2988.34 4.81233 5.11233 0
M  V30 30019 H 2993.18 2.75666 1.13191 0
M  V30 30020 H 2990.72 1.36518 0.547833 0
M  V30 30021 H 2992.68 2.1955 3.54759 0
M  V30 30022 H 2991.31 1.19487 2.99871 0
M  V30 30023 H 2990.36 3.32434 1.84911 0
M  V30 30024 H 2991.67 4.24817 2.61404 0
M  V30 30025 H 2990.82 3.60456 4.88012 0
M  V30 30026 H 2989.56 2.57893 4.13935 0
M  V30 30027 H 2988.57 4.59399 3.02047 0
M  V30 30028 H 2989.79 5.63301 3.793 0
M  V30 30029 H 2987.74 3.92906 5.2532 0
M  V30 30030 H 2987.66 5.64551 5.0281 0
M  V30 30031 H 2988.92 4.96889 6.00601 0
M  V30 30032 N 2993.15 -0.580999 1.465 0
M  V30 30033 C 2994.1 -1.71102 1.57565 0
M  V30 30034 C 2995.09 -1.63476 0.444059 0
M  V30 30035 O 2996.3 -1.68949 0.620994 0
M  V30 30036 H 2992.68 -0.565737 0.495425 0
M  V30 30037 H 2994.65 -1.589 2.52573 0
M  V30 30038 C 2993.4 -3.09487 1.58471 0
M  V30 30039 H 2992.72 -3.16026 2.44883 0
M  V30 30040 H 2994.16 -3.8831 1.70268 0
M  V30 30041 C 2992.62 -3.35437 0.313655 0
M  V30 30042 O 2993.15 -3.97263 -0.595386 0
M  V30 30043 N 2991.35 -2.89904 0.201037 0
M  V30 30044 H 2990.9 -2.39771 0.941685 0
M  V30 30045 H 2990.86 -3.07639 -0.648523 0
M  V30 30046 N 2994.63 -1.34234 -0.825776 0
M  V30 30047 C 2995.88 -1.2618 -1.5787 0
M  V30 30048 C 2996.2 0.16887 -1.94267 0
M  V30 30049 O 2995.47 1.10081 -1.62046 0
M  V30 30050 H 2994.05 -0.464047 -0.585379 0
M  V30 30051 H 2996.71 -1.68111 -0.986133 0
M  V30 30052 H 2995.81 -1.86458 -2.5028 0
M  V30 30053 N 2996.11 1.04563 -1.17917 0
M  V30 30054 C 2997.04 2.12478 -0.859396 0
M  V30 30055 C 2998.05 1.62189 0.140893 0
M  V30 30056 O 2999.24 1.78291 -0.0862675 0
M  V30 30057 C 2996.34 3.37887 -0.261871 0
M  V30 30058 C 2995.52 4.17429 -1.30659 0
M  V30 30059 C 2994.57 5.21172 -0.725667 0
M  V30 30060 O 2993.6 5.51737 -1.39911 0
M  V30 30061 N 2994.8 5.78518 0.479249 0
M  V30 30062 H 2997.57 2.40505 -1.78823 0
M  V30 30063 H 2995.13 1.20714 -1.07888 0
M  V30 30064 H 2997.12 4.04457 0.140209 0
M  V30 30065 H 2995.69 3.07343 0.570875 0
M  V30 30066 H 2994.91 3.46255 -1.88418 0
M  V30 30067 H 2996.2 4.67369 -2.01107 0
M  V30 30068 H 2995.6 5.55979 1.04421 0
M  V30 30069 H 2994.15 6.46579 0.823313 0
M  V30 30070 N 2997.59 0.980408 1.23393 0
M  V30 30071 C 2998.54 0.491786 2.22633 0
M  V30 30072 C 2999.52 -0.433195 1.54959 0
M  V30 30073 O 3000.71 -0.262048 1.75049 0
M  V30 30074 C 2997.84 -0.204471 3.42691 0
M  V30 30075 C 2996.93 0.740081 4.17593 0
M  V30 30076 N 2997.32 1.88271 4.69455 0
M  V30 30077 C 2995.62 0.553413 4.42553 0
M  V30 30078 C 2996.32 2.47455 5.26442 0
M  V30 30079 N 2995.29 1.75843 5.14373 0
M  V30 30080 H 2999.1 1.36343 2.60361 0
M  V30 30081 H 2996.61 0.841084 1.38923 0
M  V30 30082 H 2998.61 -0.571828 4.1296 0
M  V30 30083 H 2997.27 -1.07241 3.06479 0
M  V30 30084 H 2998.28 2.26389 4.65799 0
M  V30 30085 H 2994.95 -0.2695 4.16629 0
M  V30 30086 H 2996.34 3.43951 5.77189 0
M  V30 30087 N 2999.06 -1.38498 0.75206 0
M  V30 30088 C 3000.31 -2.00448 0.307994 0
M  V30 30089 C 3000.64 -1.5956 -1.10699 0
M  V30 30090 O 2999.92 -0.832422 -1.75787 0
M  V30 30091 C 3000.2 -3.57534 0.429155 0
M  V30 30092 C 3000.05 -4.0839 1.88514 0
M  V30 30093 C 3001.37 -4.39738 -0.178365 0
M  V30 30094 H 2998.49 -0.728226 0.113385 0
M  V30 30095 H 3001.13 -1.64463 0.951418 0
M  V30 30096 H 2999.28 -3.88319 -0.118627 0
M  V30 30097 H 3000.96 -3.88254 2.49111 0
M  V30 30098 H 2999.2 -3.61314 2.40072 0
M  V30 30099 H 2999.87 -5.17492 1.92108 0
M  V30 30100 H 3002.35 -4.15097 0.288793 0
M  V30 30101 H 3001.22 -5.48863 -0.0633384 0
M  V30 30102 H 3001.48 -4.23571 -1.26648 0
M  V30 30103 N 3000.54 -0.501015 -1.49424 0
M  V30 30104 C 3001.51 0.266376 -2.27647 0
M  V30 30105 C 3002.51 0.893938 -1.33661 0
M  V30 30106 O 3003.7 0.758468 -1.56821 0
M  V30 30107 C 3000.83 1.38222 -3.11621 0
M  V30 30108 H 3002.02 -0.420025 -2.96944 0
M  V30 30109 H 2999.57 -0.255982 -1.5419 0
M  V30 30110 H 3000.31 2.10277 -2.46889 0
M  V30 30111 H 3000.09 0.937679 -3.80723 0
M  V30 30112 H 3001.58 1.92277 -3.70701 0
M  V30 30113 N 3002.02 1.5584 -0.234849 0
M  V30 30114 C 3003.25 2.03492 0.400705 0
M  V30 30115 C 3003.67 1.1133 1.51616 0
M  V30 30116 O 3003.03 0.103954 1.81002 0
M  V30 30117 C 3003.08 3.49262 0.897123 0
M  V30 30118 O 3002.18 3.60236 2.00758 0
M  V30 30119 H 3001.52 0.65801 0.0889908 0
M  V30 30120 H 3004.05 2.01455 -0.35738 0
M  V30 30121 H 3004.06 3.89846 1.20349 0
M  V30 30122 H 3002.74 4.15822 0.0807908 0
M  V30 30123 H 3001.31 3.31544 1.70683 0
M  V30 30124 N 3003.5 -0.038404 1.57553 0
M  V30 30125 C 3004.72 -0.746838 1.93487 0
M  V30 30126 C 3005.15 -1.68595 0.834099 0
M  V30 30127 O 3004.51 -1.8007 -0.21087 0
M  V30 30128 C 3004.56 -1.48805 3.28465 0
M  V30 30129 O 3003.66 -2.60074 3.20055 0
M  V30 30130 H 3003 -0.201528 0.632679 0
M  V30 30131 H 3005.53 0.00333411 2.046 0
M  V30 30132 H 3005.54 -1.86003 3.63135 0
M  V30 30133 H 3004.22 -0.799225 4.08149 0
M  V30 30134 H 3002.79 -2.25487 2.97002 0
M  V30 30135 N 3004.98 -1.54511 -0.310498 0
M  V30 30136 C 3006.39 -1.64439 -0.884113 0
M  V30 30137 C 3006.74 -0.546889 -1.88424 0
M  V30 30138 O 3005.86 0.318072 -2.1405 0
M  V30 30139 C 3006.46 -2.98083 -1.61034 0
M  V30 30140 C 3005.02 -3.10164 -2.1325 0
M  V30 30141 C 3004.17 -2.60075 -0.962084 0
M  V30 30142 H 3007.12 -1.58457 -0.0877387 0
M  V30 30143 H 3007.14 -2.88974 -2.47536 0
M  V30 30144 H 3006.65 -3.77941 -0.882189 0
M  V30 30145 H 3004.75 -2.35007 -2.89141 0
M  V30 30146 H 3004.86 -4.16173 -2.37354 0
M  V30 30147 H 3003.23 -2.16293 -1.34497 0
M  V30 30148 H 3004.01 -3.42403 -0.248038 0
M  V30 30149 N 3006.46 0.573222 -1.46806 0
M  V30 30150 C 3007.7 1.32733 -1.51871 0
M  V30 30151 C 3008.02 1.94781 -0.178799 0
M  V30 30152 O 3009.22 2.71288 -0.107319 0
M  V30 30153 C 3007.68 2.40611 -2.67646 0
M  V30 30154 C 3007.29 1.84825 -4.08098 0
M  V30 30155 C 3009.03 3.17305 -2.8199 0
M  V30 30156 C 3006.94 2.90388 -5.15198 0
M  V30 30157 H 3005.87 0.49902 -0.565239 0
M  V30 30158 H 3008.52 0.610665 -1.73041 0
M  V30 30159 H 3006.9 3.1512 -2.39824 0
M  V30 30160 H 3008.08 1.16795 -4.45753 0
M  V30 30161 H 3006.39 1.20768 -3.98502 0
M  V30 30162 H 3008.99 3.96105 -3.59173 0
M  V30 30163 H 3009.33 3.7049 -1.89849 0
M  V30 30164 H 3009.86 2.49904 -3.09504 0
M  V30 30165 H 3006.6 2.42077 -6.09162 0
M  V30 30166 H 3006.12 3.56877 -4.82077 0
M  V30 30167 H 3007.8 3.5417 -5.41454 0
M  V30 30168 N 3007.93 1.3467 0.818645 0
M  V30 30169 C 3009.34 1.24448 1.39174 0
M  V30 30170 C 3009.7 -0.128233 1.9578 0
M  V30 30171 O 3008.82 -1.02874 1.90384 0
M  V30 30172 C 3009.42 2.25328 2.53008 0
M  V30 30173 C 3007.97 2.18884 3.06214 0
M  V30 30174 C 3007.12 2.11697 1.79108 0
M  V30 30175 H 3010.07 1.45974 0.622683 0
M  V30 30176 H 3010.09 1.87275 3.31222 0
M  V30 30177 H 3009.61 3.25225 2.11779 0
M  V30 30178 H 3007.71 1.22357 3.51937 0
M  V30 30179 H 3007.82 3.10325 3.65014 0
M  V30 30180 H 3006.18 1.57484 2.00177 0
M  V30 30181 H 3006.97 3.13435 1.40047 0
M  V30 30182 N 3009.41 -1.03936 1.1847 0
M  V30 30183 C 3010.66 -1.77421 0.982317 0
M  V30 30184 C 3010.99 -1.88001 -0.486757 0
M  V30 30185 O 3010.27 -1.38907 -1.36143 0
M  V30 30186 C 3010.55 -3.2062 1.63935 0
M  V30 30187 C 3010.4 -3.17976 3.18137 0
M  V30 30188 C 3011.72 -4.18765 1.35367 0
M  V30 30189 H 3008.84 -0.644056 0.358275 0
M  V30 30190 H 3011.48 -1.21402 1.46156 0
M  V30 30191 H 3009.63 -3.68453 1.23186 0
M  V30 30192 H 3011.3 -2.78123 3.68029 0
M  V30 30193 H 3009.55 -2.55972 3.50229 0
M  V30 30194 H 3010.22 -4.19101 3.59247 0
M  V30 30195 H 3012.69 -3.79485 1.70676 0
M  V30 30196 H 3011.57 -5.17175 1.83905 0
M  V30 30197 H 3011.83 -4.41233 0.2768 0
M  V30 30198 N 3010.89 -0.986938 -1.22871 0
M  V30 30199 C 3012.14 -0.660434 -1.91745 0
M  V30 30200 C 3012.47 0.804781 -1.7674 0
M  V30 30201 O 3011.74 1.58129 -1.13249 0
M  V30 30202 C 3012.03 -1.05972 -3.44154 0
M  V30 30203 C 3011.88 -2.58305 -3.68237 0
M  V30 30204 C 3013.2 -0.608496 -4.35873 0
M  V30 30205 H 3010.32 -0.241403 -0.696343 0
M  V30 30206 H 3012.96 -1.22939 -1.44865 0
M  V30 30207 H 3011.11 -0.575602 -3.84212 0
M  V30 30208 H 3012.78 -3.14341 -3.3762 0
M  V30 30209 H 3011.02 -3.00644 -3.12723 0
M  V30 30210 H 3011.7 -2.81293 -4.74951 0
M  V30 30211 H 3014.17 -1.02424 -4.03297 0
M  V30 30212 H 3013.05 -0.916238 -5.41199 0
M  V30 30213 H 3013.31 0.491009 -4.39365 0
M  V30 30214 N 3012.37 1.38098 -0.759394 0
M  V30 30215 C 3013.62 1.99227 -0.314899 0
M  V30 30216 C 3013.93 1.60966 1.11127 0
M  V30 30217 O 3015.14 2.15108 1.65653 0
M  V30 30218 C 3013.59 3.56239 -0.512064 0
M  V30 30219 C 3013.2 4.03446 -1.94769 0
M  V30 30220 C 3014.94 4.24299 -0.130572 0
M  V30 30221 C 3012.85 5.53121 -2.09311 0
M  V30 30222 H 3011.78 0.745333 -0.113991 0
M  V30 30223 H 3014.43 1.57788 -0.936764 0
M  V30 30224 H 3012.81 3.95595 0.179074 0
M  V30 30225 H 3013.99 3.75366 -2.67277 0
M  V30 30226 H 3012.3 3.48129 -2.28463 0
M  V30 30227 H 3014.9 5.34256 -0.217904 0
M  V30 30228 H 3015.24 4.06062 0.917572 0
M  V30 30229 H 3015.78 3.90202 -0.773784 0
M  V30 30230 H 3012.51 5.76269 -3.124 0
M  V30 30231 H 3012.03 5.82926 -1.41271 0
M  V30 30232 H 3013.71 6.18907 -1.88581 0
M  V30 30233 N 3013.85 0.508932 1.49156 0
M  V30 30234 C 3015.07 -0.0314817 2.07376 0
M  V30 30235 C 3015.5 -1.29338 1.36577 0
M  V30 30236 O 3014.85 -1.76248 0.424994 0
M  V30 30237 C 3014.9 -0.260054 3.59661 0
M  V30 30238 O 3014.01 -1.33315 3.90257 0
M  V30 30239 H 3013.35 0.0297506 0.663333 0
M  V30 30240 H 3015.88 0.710825 1.91855 0
M  V30 30241 H 3015.89 -0.489154 4.05057 0
M  V30 30242 H 3014.56 0.661866 4.106 0
M  V30 30243 H 3013.14 -1.08838 3.56663 0
M  V30 30244 N 3015.32 -1.55714 0.243111 0
M  V30 30245 C 3016.26 -2.18544 -0.690728 0
M  V30 30246 C 3017.27 -1.16066 -1.1416 0
M  V30 30247 O 3018.46 -1.42947 -1.06903 0
M  V30 30248 C 3015.56 -2.77171 -1.95011 0
M  V30 30249 C 3014.73 -4.05032 -1.6513 0
M  V30 30250 C 3013.79 -4.48013 -2.7599 0
M  V30 30251 O 3012.82 -5.14469 -2.43538 0
M  V30 30252 N 3014.02 -4.15483 -4.05406 0
M  V30 30253 H 3016.78 -2.99308 -0.15315 0
M  V30 30254 H 3014.34 -1.61778 0.0629252 0
M  V30 30255 H 3016.34 -3.02885 -2.68408 0
M  V30 30256 H 3014.91 -2.00586 -2.39758 0
M  V30 30257 H 3014.13 -3.86947 -0.7527 0
M  V30 30258 H 3015.41 -4.88401 -1.42625 0
M  V30 30259 H 3014.81 -3.62124 -4.34606 0
M  V30 30260 H 3013.37 -4.46041 -4.7528 0
M  V30 30261 N 3016.8 0.030048 -1.57571 0
M  V30 30262 C 3018.03 0.736567 -1.9388 0
M  V30 30263 C 3018.45 1.68151 -0.843028 0
M  V30 30264 O 3017.81 1.80179 0.201318 0
M  V30 30265 C 3017.86 1.47061 -3.2925 0
M  V30 30266 O 3016.96 2.58373 -3.2143 0
M  V30 30267 H 3016.3 0.19817 -0.633739 0
M  V30 30268 H 3018.83 -0.0141845 -2.04595 0
M  V30 30269 H 3018.84 1.84074 -3.64116 0
M  V30 30270 H 3017.52 0.777569 -4.08567 0
M  V30 30271 H 3016.1 2.23909 -2.98193 0
M  V30 30272 N 3018.28 1.54674 0.3023 0
M  V30 30273 C 3019.19 1.8859 1.39539 0
M  V30 30274 C 3020.21 0.779922 1.55542 0
M  V30 30275 O 3021.38 1.07626 1.70231 0
M  V30 30276 C 3018.45 2.12509 2.73936 0
M  V30 30277 C 3017.51 3.36225 2.66929 0
M  V30 30278 C 3016.74 3.58994 3.94917 0
M  V30 30279 O 3016.96 2.84798 4.94213 0
M  V30 30280 O 3015.9 4.52508 3.96889 0
M  V30 30281 H 3019.72 2.81581 1.13779 0
M  V30 30282 H 3017.31 1.40847 0.498245 0
M  V30 30283 H 3019.19 2.2945 3.53456 0
M  V30 30284 H 3017.87 1.22703 2.99542 0
M  V30 30285 H 3016.77 3.24649 1.85886 0
M  V30 30286 H 3018.11 4.26156 2.46276 0
M  V30 30287 N 3019.76 -0.565428 1.47108 0
M  V30 30288 C 3021.01 -1.31926 1.52572 0
M  V30 30289 C 3021.32 -1.94684 0.189127 0
M  V30 30290 O 3022.53 -2.71227 0.121705 0
M  V30 30291 C 3020.98 -2.39189 2.68918 0
M  V30 30292 C 3020.59 -1.82658 4.09072 0
M  V30 30293 C 3022.33 -3.15805 2.83668 0
M  V30 30294 C 3020.24 -2.87652 5.16731 0
M  V30 30295 H 3019.17 -0.496015 0.567877 0
M  V30 30296 H 3021.82 -0.601479 1.73362 0
M  V30 30297 H 3020.2 -3.13844 2.41491 0
M  V30 30298 H 3021.38 -1.1443 4.46366 0
M  V30 30299 H 3019.69 -1.18653 3.99137 0
M  V30 30300 H 3022.29 -3.94194 3.61268 0
M  V30 30301 H 3022.63 -3.69478 1.91811 0
M  V30 30302 H 3023.17 -2.48259 3.10825 0
M  V30 30303 H 3019.91 -2.38843 6.10438 0
M  V30 30304 H 3019.43 -3.54316 4.83963 0
M  V30 30305 H 3021.1 -3.51293 5.43325 0
M  V30 30306 N 3021.24 -1.35102 -0.811492 0
M  V30 30307 C 3022.48 -1.27847 -1.56523 0
M  V30 30308 C 3022.81 0.148255 -1.94436 0
M  V30 30309 O 3022.08 1.08356 -1.63205 0
M  V30 30310 H 3020.66 -0.47023 -0.580425 0
M  V30 30311 H 3023.32 -1.69148 -0.968247 0
M  V30 30312 H 3022.41 -1.89102 -2.48288 0
M  V30 30313 N 3022.71 1.03306 -1.19019 0
M  V30 30314 C 3023.99 1.73681 -0.899689 0
M  V30 30315 C 3024.37 2.02522 0.595641 0
M  V30 30316 O 3023.72 1.6765 1.5526 0
M  V30 30317 C 3023.93 3.01656 -1.75513 0
M  V30 30318 C 3025.28 3.75245 -1.98686 0
M  V30 30319 O 3026.3 3.11573 -1.7263 0
M  V30 30320 O 3025.16 4.89704 -2.42595 0
M  V30 30321 H 3022.25 0.756148 -0.334917 0
M  V30 30322 H 3024.8 1.09303 -1.29811 0
M  V30 30323 H 3023.57 2.76537 -2.76845 0
M  V30 30324 H 3023.2 3.73773 -1.35572 0
M  V30 30325 N 3024.19 0.99344 1.22346 0
M  V30 30326 C 3025.16 0.54929 2.22521 0
M  V30 30327 C 3026.16 -0.368136 1.56529 0
M  V30 30328 O 3027.35 -0.160019 1.73463 0
M  V30 30329 C 3024.48 -0.200978 3.40307 0
M  V30 30330 H 3025.67 1.43519 2.63329 0
M  V30 30331 H 3023.22 0.780704 1.35406 0
M  V30 30332 H 3023.96 -1.10284 3.04972 0
M  V30 30333 H 3023.74 0.457753 3.89419 0
M  V30 30334 H 3025.23 -0.499873 4.14597 0
M  V30 30335 N 3025.67 -1.37693 0.766707 0
M  V30 30336 C 3026.9 -2.04615 0.338751 0
M  V30 30337 C 3027.32 -1.57449 -1.02915 0
M  V30 30338 O 3026.68 -0.732416 -1.65847 0
M  V30 30339 C 3026.73 -3.58535 0.385347 0
M  V30 30340 O 3025.83 -4.07773 -0.616009 0
M  V30 30341 H 3025.17 -0.647401 0.147539 0
M  V30 30342 H 3027.7 -1.76108 1.04149 0
M  V30 30343 H 3027.71 -4.07288 0.240854 0
M  V30 30344 H 3026.39 -3.92221 1.38331 0
M  V30 30345 H 3024.96 -3.70354 -0.43505 0
M  V30 30346 N 3027.15 -0.516835 -1.48884 0
M  V30 30347 C 3028.56 -0.173816 -1.58651 0
M  V30 30348 C 3028.76 1.3224 -1.52035 0
M  V30 30349 O 3027.82 2.09964 -1.40254 0
M  V30 30350 C 3029.13 -0.764679 -2.90815 0
M  V30 30351 C 3030.68 -0.732218 -3.04315 0
M  V30 30352 C 3031.16 -1.30142 -4.39121 0
M  V30 30353 N 3032.65 -1.26281 -4.45654 0
M  V30 30354 C 3033.38 -1.67326 -5.48443 0
M  V30 30355 N 3032.88 -2.16039 -6.58254 0
M  V30 30356 N 3034.67 -1.58645 -5.39248 0
M  V30 30357 H 3026.82 -1.48942 -1.51427 0
M  V30 30358 H 3029.09 -0.618746 -0.718232 0
M  V30 30359 H 3028.79 -1.81462 -3.01271 0
M  V30 30360 H 3028.67 -0.234179 -3.76472 0
M  V30 30361 H 3031.05 0.308924 -2.93479 0
M  V30 30362 H 3031.13 -1.30004 -2.20301 0
M  V30 30363 H 3030.78 -2.34143 -4.5071 0
M  V30 30364 H 3030.71 -0.709397 -5.218 0
M  V30 30365 H 3033.2 -0.906071 -3.66877 0
M  V30 30366 H 3033.51 -2.45387 -7.32806 0
M  V30 30367 H 3031.86 -2.20024 -6.59253 0
M  V30 30368 H 3035.05 -1.20395 -4.52352 0
M  V30 30369 H 3035.22 -1.90954 -6.19226 0
M  V30 30370 N 3028.63 1.55583 -0.251365 0
M  V30 30371 C 3029.87 1.99346 0.372685 0
M  V30 30372 C 3030.21 1.13937 1.57264 0
M  V30 30373 O 3029.48 0.203804 1.93429 0
M  V30 30374 C 3029.76 3.51591 0.778183 0
M  V30 30375 C 3029.62 4.47764 -0.427473 0
M  V30 30376 C 3030.94 4.0906 1.62351 0
M  V30 30377 H 3028.05 0.724718 0.133989 0
M  V30 30378 H 3030.7 1.86681 -0.353569 0
M  V30 30379 H 3028.85 3.62515 1.39698 0
M  V30 30380 H 3030.52 4.48816 -1.06594 0
M  V30 30381 H 3028.76 4.20402 -1.06979 0
M  V30 30382 H 3029.43 5.51909 -0.100347 0
M  V30 30383 H 3031.91 4.01266 1.10113 0
M  V30 30384 H 3030.78 5.15843 1.87608 0
M  V30 30385 H 3031.05 3.57796 2.59682 0
M  V30 30386 N 3030.1 -0.0216912 1.57585 0
M  V30 30387 C 3031.52 -0.377457 1.55072 0
M  V30 30388 C 3031.72 -1.76149 0.978454 0
M  V30 30389 O 3030.78 -2.45201 0.602731 0
M  V30 30390 C 3032.09 -0.272552 2.99462 0
M  V30 30391 C 3033.64 -0.349093 3.11047 0
M  V30 30392 C 3034.11 -0.273556 4.57182 0
M  V30 30393 N 3035.6 -0.332125 4.62008 0
M  V30 30394 C 3036.34 -0.296682 5.72632 0
M  V30 30395 N 3035.83 -0.213099 6.92472 0
M  V30 30396 N 3037.63 -0.346954 5.61028 0
M  V30 30397 H 3029.78 0.883959 1.93132 0
M  V30 30398 H 3032.04 0.336825 0.886145 0
M  V30 30399 H 3031.75 0.678841 3.45086 0
M  V30 30400 H 3031.62 -1.06329 3.61903 0
M  V30 30401 H 3034.01 -1.29092 2.65366 0
M  V30 30402 H 3034.09 0.471129 2.51424 0
M  V30 30403 H 3033.73 0.664637 5.03533 0
M  V30 30404 H 3033.66 -1.11198 5.14726 0
M  V30 30405 H 3036.15 -0.398937 3.75788 0
M  V30 30406 H 3036.47 -0.191356 7.72563 0
M  V30 30407 H 3034.81 -0.179039 6.94769 0
M  V30 30408 H 3038 -0.410296 4.66298 0
M  V30 30409 H 3038.18 -0.315865 6.4723 0
M  V30 30410 N 3031.58 -1.54832 -0.294093 0
M  V30 30411 C 3032.83 -1.74699 -1.02996 0
M  V30 30412 C 3033.16 -0.534982 -1.86686 0
M  V30 30413 O 3032.44 0.46783 -1.8879 0
M  V30 30414 C 3032.72 -3.04 -1.93018 0
M  V30 30415 C 3032.57 -4.35514 -1.12462 0
M  V30 30416 C 3033.89 -3.29208 -2.92079 0
M  V30 30417 H 3031.01 -0.635625 -0.373028 0
M  V30 30418 H 3033.65 -1.87552 -0.304032 0
M  V30 30419 H 3031.8 -2.93173 -2.54915 0
M  V30 30420 H 3033.48 -4.58268 -0.527986 0
M  V30 30421 H 3031.72 -4.31688 -0.427498 0
M  V30 30422 H 3032.39 -5.22268 -1.78719 0
M  V30 30423 H 3034.87 -3.39689 -2.40313 0
M  V30 30424 H 3033.74 -4.20984 -3.52227 0
M  V30 30425 H 3034 -2.47833 -3.66102 0
M  V30 30426 N 3033.06 0.557619 -1.47405 0
M  V30 30427 C 3034.29 1.34505 -1.57871 0
M  V30 30428 C 3034.71 1.86699 -0.229184 0
M  V30 30429 O 3034.07 1.62946 0.79488 0
M  V30 30430 C 3034.12 2.49117 -2.60716 0
M  V30 30431 O 3033.22 3.51334 -2.15959 0
M  V30 30432 H 3032.56 0.399541 -0.530342 0
M  V30 30433 H 3035.09 0.67392 -1.93183 0
M  V30 30434 H 3035.1 2.95692 -2.81123 0
M  V30 30435 H 3033.78 2.10485 -3.58704 0
M  V30 30436 H 3032.35 3.11067 -2.05649 0
M  V30 30437 N 3034.54 1.35531 0.804316 0
M  V30 30438 C 3035.79 1.28676 1.55843 0
M  V30 30439 C 3036.11 -0.137942 1.94511 0
M  V30 30440 O 3035.38 -1.07489 1.63777 0
M  V30 30441 H 3033.96 0.473301 0.577923 0
M  V30 30442 H 3036.62 1.69659 0.959263 0
M  V30 30443 H 3035.72 1.90416 2.47282 0
M  V30 30444 N 3036.02 -1.02674 1.19565 0
M  V30 30445 C 3036.95 -2.11084 0.893091 0
M  V30 30446 C 3037.96 -1.62393 -0.115072 0
M  V30 30447 O 3039.15 -1.78132 0.114621 0
M  V30 30448 C 3036.25 -3.37427 0.315593 0
M  V30 30449 C 3035.42 -4.15298 1.37283 0
M  V30 30450 C 3034.48 -5.19952 0.808489 0
M  V30 30451 O 3033.51 -5.49441 1.48671 0
M  V30 30452 N 3034.71 -5.79208 -0.387151 0
M  V30 30453 H 3037.48 -2.37629 1.82626 0
M  V30 30454 H 3035.04 -1.18982 1.09794 0
M  V30 30455 H 3037.03 -4.04629 -0.0758455 0
M  V30 30456 H 3035.6 -3.08212 -0.521907 0
M  V30 30457 H 3034.82 -3.43213 1.93903 0
M  V30 30458 H 3036.11 -4.6411 2.08517 0
M  V30 30459 H 3035.51 -5.5757 -0.955627 0
M  V30 30460 H 3034.06 -6.47807 -0.720344 0
M  V30 30461 N 3037.5 -0.999914 -1.21817 0
M  V30 30462 C 3038.74 -0.678385 -1.90374 0
M  V30 30463 C 3039.06 0.792792 -1.78157 0
M  V30 30464 O 3038.33 1.56883 -1.17322 0
M  V30 30465 H 3036.91 -0.247927 -0.704657 0
M  V30 30466 H 3039.58 -1.26793 -1.48019 0
M  V30 30467 H 3038.67 -0.947076 -2.97383 0
M  V30 30468 N 3038.97 1.37284 -0.773999 0
M  V30 30469 C 3039.9 2.32837 -0.175823 0
M  V30 30470 C 3040.88 1.55892 0.680576 0
M  V30 30471 O 3042.07 1.84119 0.617575 0
M  V30 30472 C 3039.2 3.40124 0.702328 0
M  V30 30473 C 3038.15 4.27967 -0.052944 0
M  V30 30474 C 3037.48 5.26287 0.944799 0
M  V30 30475 C 3038.78 5.07531 -1.23325 0
M  V30 30476 H 3040.47 2.83112 -0.974066 0
M  V30 30477 H 3038.02 1.36119 -0.46985 0
M  V30 30478 H 3039.97 4.05949 1.13062 0
M  V30 30479 H 3038.7 2.8838 1.53311 0
M  V30 30480 H 3037.36 3.63677 -0.462042 0
M  V30 30481 H 3037 4.70822 1.7702 0
M  V30 30482 H 3036.7 5.8592 0.443976 0
M  V30 30483 H 3038.23 5.94986 1.37199 0
M  V30 30484 H 3039.64 5.66483 -0.881495 0
M  V30 30485 H 3038.04 5.76502 -1.66631 0
M  V30 30486 H 3039.11 4.40074 -2.03625 0
M  V30 30487 N 3040.45 0.524724 1.48608 0
M  V30 30488 C 3041.4 -0.260656 2.26505 0
M  V30 30489 C 3042.39 -0.914573 1.3238 0
M  V30 30490 O 3043.58 -0.818249 1.56951 0
M  V30 30491 C 3040.71 -1.31018 3.17316 0
M  V30 30492 C 3039.79 -0.661317 4.18912 0
M  V30 30493 N 3040.18 0.249899 5.05182 0
M  V30 30494 C 3038.48 -0.919143 4.36426 0
M  V30 30495 C 3039.18 0.6237 5.78347 0
M  V30 30496 N 3038.16 -0.0139883 5.43598 0
M  V30 30497 H 3041.96 0.440439 2.90581 0
M  V30 30498 H 3039.47 0.342392 1.5875 0
M  V30 30499 H 3041.47 -1.8865 3.71775 0
M  V30 30500 H 3040.13 -2.01271 2.54794 0
M  V30 30501 H 3041.14 0.622184 5.14149 0
M  V30 30502 H 3037.82 -1.61263 3.85098 0
M  V30 30503 H 3039.21 1.37057 6.57773 0
M  V30 30504 N 3041.93 -1.55447 0.259613 0
M  V30 30505 C 3042.84 -2.2556 -0.644986 0
M  V30 30506 C 3043.86 -1.27608 -1.18289 0
M  V30 30507 O 3045.03 -1.60512 -1.21647 0
M  V30 30508 C 3042.1 -2.95113 -1.81959 0
M  V30 30509 C 3041.16 -4.08506 -1.3199 0
M  V30 30510 C 3040.39 -4.74733 -2.43852 0
M  V30 30511 O 3040.61 -4.40094 -3.62868 0
M  V30 30512 O 3039.55 -5.62994 -2.12888 0
M  V30 30513 H 3043.37 -3.03601 -0.0774866 0
M  V30 30514 H 3040.96 -1.49374 0.0276121 0
M  V30 30515 H 3042.84 -3.38878 -2.50479 0
M  V30 30516 H 3041.52 -2.20001 -2.37447 0
M  V30 30517 H 3040.42 -3.69231 -0.601611 0
M  V30 30518 H 3041.76 -4.85473 -0.81096 0
M  V30 30519 N 3043.41 0.0133338 -1.57594 0
M  V30 30520 C 3044.66 0.699562 -1.89606 0
M  V30 30521 C 3044.98 1.75046 -0.85929 0
M  V30 30522 O 3044.25 1.95618 0.105078 0
M  V30 30523 H 3042.83 0.261373 -0.699781 0
M  V30 30524 H 3045.49 -0.0244386 -1.94885 0
M  V30 30525 H 3044.58 1.17923 -2.88965 0
M  V30 30526 N 3044.89 1.54985 0.285878 0
M  V30 30527 C 3045.84 1.83366 1.35502 0
M  V30 30528 C 3046.82 0.691724 1.45272 0
M  V30 30529 O 3048.01 0.952751 1.4917 0
M  V30 30530 C 3045.14 2.09775 2.71752 0
M  V30 30531 C 3044.23 3.30194 2.66145 0
M  V30 30532 N 3044.62 4.50403 2.30153 0
M  V30 30533 C 3042.92 3.32525 2.97226 0
M  V30 30534 C 3043.62 5.32463 2.34218 0
M  V30 30535 N 3042.59 4.70552 2.72179 0
M  V30 30536 H 3046.39 2.73861 1.06663 0
M  V30 30537 H 3043.91 1.54688 0.494494 0
M  V30 30538 H 3045.91 2.28259 3.4886 0
M  V30 30539 H 3044.57 1.20556 3.0149 0
M  V30 30540 H 3045.58 4.76734 2.02349 0
M  V30 30541 H 3042.25 2.5346 3.3176 0
M  V30 30542 H 3043.64 6.38547 2.09063 0
M  V30 30543 N 3046.36 -0.549794 1.47699 0
M  V30 30544 C 3047.59 -1.33185 1.58333 0
M  V30 30545 C 3048.01 -1.87316 0.236226 0
M  V30 30546 O 3047.36 -1.65384 -0.771641 0
M  V30 30547 C 3047.42 -2.4966 2.61443 0
M  V30 30548 O 3047.14 -1.97764 3.90923 0
M  V30 30549 C 3048.64 -3.41767 2.8233 0
M  V30 30550 H 3045.86 -0.405732 0.534437 0
M  V30 30551 H 3048.4 -0.665275 1.93376 0
M  V30 30552 H 3046.56 -3.12241 2.29313 0
M  V30 30553 H 3046.97 -2.73858 4.47328 0
M  V30 30554 H 3048.44 -4.19891 3.58323 0
M  V30 30555 H 3048.92 -3.95772 1.90423 0
M  V30 30556 H 3049.53 -2.84995 3.15687 0
M  V30 30557 N 3047.84 -1.35955 -0.797117 0
M  V30 30558 C 3049.09 -1.29757 -1.55465 0
M  V30 30559 C 3049.42 0.125356 -1.94096 0
M  V30 30560 O 3048.67 1.09285 -1.62343 0
M  V30 30561 C 3048.97 -2.15868 -2.84843 0
M  V30 30562 C 3048.64 -3.64528 -2.65387 0
M  V30 30563 C 3047.3 -4.05047 -2.59789 0
M  V30 30564 C 3049.65 -4.58815 -2.47262 0
M  V30 30565 C 3046.98 -5.38007 -2.34021 0
M  V30 30566 C 3049.33 -5.91983 -2.23021 0
M  V30 30567 C 3048 -6.31636 -2.15851 0
M  V30 30568 H 3047.27 -0.474813 -0.568888 0
M  V30 30569 H 3049.91 -1.67938 -0.92027 0
M  V30 30570 H 3048.22 -1.70598 -3.52709 0
M  V30 30571 H 3049.91 -2.08401 -3.42593 0
M  V30 30572 H 3046.5 -3.32379 -2.70596 0
M  V30 30573 H 3050.69 -4.28389 -2.50593 0
M  V30 30574 H 3045.94 -5.67719 -2.26946 0
M  V30 30575 H 3050.12 -6.64615 -2.07989 0
M  V30 30576 H 3047.75 -7.34593 -1.95647 0
M  V30 30577 N 3049.32 1.02038 -1.20108 0
M  V30 30578 C 3050.23 2.13965 -0.962089 0
M  V30 30579 C 3051.25 1.73812 0.0807748 0
M  V30 30580 O 3052.42 2.01122 -0.105809 0
M  V30 30581 C 3049.49 3.42881 -0.513169 0
M  V30 30582 C 3048.55 3.97298 -1.62643 0
M  V30 30583 C 3047.78 5.20061 -1.19884 0
M  V30 30584 O 3048 5.70362 -0.0659426 0
M  V30 30585 O 3046.94 5.67532 -2.00477 0
M  V30 30586 H 3050.76 2.36994 -1.89914 0
M  V30 30587 H 3048.35 1.12363 -0.984628 0
M  V30 30588 H 3050.23 4.20522 -0.271871 0
M  V30 30589 H 3048.91 3.21277 0.395345 0
M  V30 30590 H 3047.81 3.20953 -1.92197 0
M  V30 30591 H 3049.15 4.23283 -2.51181 0
M  V30 30592 N 3050.8 1.00636 1.21285 0
M  V30 30593 C 3052.21 0.722945 1.72135 0
M  V30 30594 C 3052.56 -0.759306 1.80912 0
M  V30 30595 O 3051.69 -1.59306 1.46461 0
M  V30 30596 C 3052.28 1.30566 3.12631 0
M  V30 30597 C 3050.84 1.07134 3.60831 0
M  V30 30598 C 3049.99 1.41765 2.38324 0
M  V30 30599 H 3052.94 1.17709 1.06443 0
M  V30 30600 H 3052.96 0.691003 3.74173 0
M  V30 30601 H 3052.47 2.38446 3.06211 0
M  V30 30602 H 3050.57 0.0097522 3.72599 0
M  V30 30603 H 3050.68 1.74418 4.46223 0
M  V30 30604 H 3049.05 0.836455 2.40573 0
M  V30 30605 H 3049.83 2.50678 2.34553 0
M  V30 30606 N 3052.28 -1.36872 0.781268 0
M  V30 30607 C 3053.24 -2.28491 0.180134 0
M  V30 30608 C 3054.24 -1.48459 -0.617772 0
M  V30 30609 O 3055.43 -1.68553 -0.439962 0
M  V30 30610 C 3052.56 -3.32509 -0.751682 0
M  V30 30611 H 3053.75 -2.83162 0.987887 0
M  V30 30612 H 3051.31 -1.46299 0.550127 0
M  V30 30613 H 3052.04 -2.82979 -1.58408 0
M  V30 30614 H 3051.83 -3.91679 -0.181581 0
M  V30 30615 H 3053.32 -4.00951 -1.1674 0
M  V30 30616 N 3053.75 -0.532597 -1.48328 0
M  V30 30617 C 3054.66 0.232505 -2.33445 0
M  V30 30618 C 3055.68 0.936424 -1.46653 0
M  V30 30619 O 3056.86 0.910802 -1.79628 0
M  V30 30620 C 3053.92 1.26428 -3.22826 0
M  V30 30621 C 3052.98 0.570436 -4.25493 0
M  V30 30622 C 3052.22 1.55306 -5.10603 0
M  V30 30623 O 3052.44 2.78591 -4.97738 0
M  V30 30624 O 3051.37 1.09102 -5.91929 0
M  V30 30625 H 3055.2 -0.465041 -3.00118 0
M  V30 30626 H 3052.78 -0.293487 -1.46489 0
M  V30 30627 H 3054.67 1.86048 -3.78106 0
M  V30 30628 H 3053.34 1.94419 -2.58811 0
M  V30 30629 H 3052.25 -0.0663244 -3.74041 0
M  V30 30630 H 3053.58 -0.0675769 -4.92154 0
M  V30 30631 N 3055.23 1.55307 -0.267853 0
M  V30 30632 C 3056.48 1.99435 0.351001 0
M  V30 30633 C 3056.81 1.15621 1.56404 0
M  V30 30634 O 3056.06 0.212079 1.94547 0
M  V30 30635 C 3056.36 3.48691 0.784185 0
M  V30 30636 C 3056.03 4.49739 -0.323407 0
M  V30 30637 C 3054.69 4.7709 -0.627551 0
M  V30 30638 C 3057.04 5.10096 -1.07011 0
M  V30 30639 C 3054.37 5.6207 -1.6821 0
M  V30 30640 C 3056.72 5.96221 -2.11433 0
M  V30 30641 C 3055.39 6.21896 -2.4249 0
M  V30 30642 H 3054.66 0.729784 0.12844 0
M  V30 30643 H 3057.3 1.87691 -0.380051 0
M  V30 30644 H 3055.61 3.57874 1.59479 0
M  V30 30645 H 3057.3 3.80236 1.27364 0
M  V30 30646 H 3053.89 4.28532 -0.0762282 0
M  V30 30647 H 3058.08 4.88995 -0.848388 0
M  V30 30648 H 3053.33 5.80211 -1.92782 0
M  V30 30649 H 3057.51 6.42026 -2.6977 0
M  V30 30650 H 3055.14 6.87537 -3.2434 0
M  V30 30651 N 3056.71 -0.00497598 1.57599 0
M  V30 30652 C 3057.96 -0.690028 1.8953 0
M  V30 30653 C 3058.27 -1.75212 0.869482 0
M  V30 30654 O 3059.48 -2.49145 1.07883 0
M  V30 30655 C 3057.93 -1.27846 3.36427 0
M  V30 30656 C 3057.54 -0.251453 4.47294 0
M  V30 30657 C 3059.29 -1.942 3.77474 0
M  V30 30658 C 3057.19 -0.849597 5.85266 0
M  V30 30659 H 3056.12 -0.261487 0.707206 0
M  V30 30660 H 3058.77 0.0547531 1.83418 0
M  V30 30661 H 3057.16 -2.07375 3.3736 0
M  V30 30662 H 3058.33 0.518876 4.57869 0
M  V30 30663 H 3056.65 0.311354 4.15234 0
M  V30 30664 H 3059.24 -2.39847 4.77889 0
M  V30 30665 H 3059.59 -2.77046 3.10727 0
M  V30 30666 H 3060.12 -1.21412 3.78819 0
M  V30 30667 H 3056.86 -0.0600256 6.55473 0
M  V30 30668 H 3056.38 -1.5892 5.78364 0
M  V30 30669 H 3058.06 -1.34973 6.32765 0
M  V30 30670 N 3058.19 -1.55135 -0.277654 0
M  V30 30671 C 3059.44 -1.74728 -1.00763 0
M  V30 30672 C 3059.75 -0.553125 -1.87616 0
M  V30 30673 O 3060.96 -0.631364 -2.64057 0
M  V30 30674 C 3059.41 -3.09224 -1.84142 0
M  V30 30675 C 3059.02 -4.36192 -1.02178 0
M  V30 30676 C 3060.76 -3.38168 -2.56598 0
M  V30 30677 C 3058.67 -5.6173 -1.84968 0
M  V30 30678 H 3057.6 -0.651279 -0.379936 0
M  V30 30679 H 3060.25 -1.81598 -0.263511 0
M  V30 30680 H 3058.63 -2.96379 -2.62632 0
M  V30 30681 H 3059.81 -4.5994 -0.281378 0
M  V30 30682 H 3058.12 -4.14357 -0.411982 0
M  V30 30683 H 3060.72 -4.29167 -3.18935 0
M  V30 30684 H 3061.06 -2.58091 -3.26642 0
M  V30 30685 H 3061.6 -3.5209 -1.85141 0
M  V30 30686 H 3058.34 -6.44543 -1.19353 0
M  V30 30687 H 3057.86 -5.42132 -2.56618 0
M  V30 30688 H 3059.53 -5.99857 -2.42448 0
M  V30 30689 N 3059.67 0.541953 -1.47989 0
M  V30 30690 C 3060.94 1.303 -1.45881 0
M  V30 30691 C 3061.32 2.10462 -0.163968 0
M  V30 30692 O 3060.67 2.11923 0.854442 0
M  V30 30693 C 3060.88 2.19461 -2.71363 0
M  V30 30694 C 3062.23 2.79989 -3.19204 0
M  V30 30695 O 3063.25 2.29755 -2.72197 0
M  V30 30696 O 3062.11 3.71332 -4.00967 0
M  V30 30697 H 3059.21 0.587488 -0.582054 0
M  V30 30698 H 3061.75 0.559595 -1.60208 0
M  V30 30699 H 3060.52 1.5993 -3.57125 0
M  V30 30700 H 3060.15 3.0107 -2.59697 0
M  V30 30701 N 3061.15 1.36376 0.789896 0
M  V30 30702 C 3062.37 1.33732 1.57871 0
M  V30 30703 C 3062.79 -0.0815212 1.88624 0
M  V30 30704 O 3062.15 -1.03828 1.50087 0
M  V30 30705 C 3062.2 2.1583 2.89999 0
M  V30 30706 O 3061.92 3.52184 2.60572 0
M  V30 30707 C 3063.42 2.20962 3.84305 0
M  V30 30708 H 3060.64 0.458756 0.489677 0
M  V30 30709 H 3063.18 1.79467 0.980404 0
M  V30 30710 H 3061.34 1.73652 3.463 0
M  V30 30711 H 3061.75 3.95017 3.45053 0
M  V30 30712 H 3063.23 2.82765 4.74076 0
M  V30 30713 H 3063.7 1.21294 4.22119 0
M  V30 30714 H 3064.31 2.63374 3.33937 0
M  V30 30715 N 3062.62 -1.014 1.20647 0
M  V30 30716 C 3064.04 -1.27357 0.961889 0
M  V30 30717 C 3064.24 -1.98311 -0.357048 0
M  V30 30718 O 3063.3 -2.28003 -1.08494 0
M  V30 30719 C 3064.61 -2.10605 2.1463 0
M  V30 30720 C 3066.16 -2.23862 2.18757 0
M  V30 30721 C 3066.63 -3.10488 3.36691 0
M  V30 30722 N 3068.12 -3.18077 3.36721 0
M  V30 30723 C 3068.86 -3.85336 4.24622 0
M  V30 30724 N 3068.35 -4.54699 5.22705 0
M  V30 30725 N 3070.15 -3.81886 4.12456 0
M  V30 30726 H 3062.3 -0.537685 2.05482 0
M  V30 30727 H 3064.56 -0.299947 0.899297 0
M  V30 30728 H 3064.27 -1.65808 3.10162 0
M  V30 30729 H 3064.14 -3.11345 2.12941 0
M  V30 30730 H 3066.53 -2.67882 1.23786 0
M  V30 30731 H 3066.61 -1.22622 2.24494 0
M  V30 30732 H 3066.25 -2.67173 4.3195 0
M  V30 30733 H 3066.18 -4.11822 3.28192 0
M  V30 30734 H 3068.67 -2.6869 2.65733 0
M  V30 30735 H 3068.99 -5.03697 5.86096 0
M  V30 30736 H 3067.33 -4.53516 5.26639 0
M  V30 30737 H 3070.52 -3.26845 3.35097 0
M  V30 30738 H 3070.7 -4.34027 4.8117 0
M  V30 30739 N 3064.1 -1.01278 -1.2075 0
M  V30 30740 C 3065.38 -0.615145 -1.85675 0
M  V30 30741 C 3065.76 0.906942 -1.90625 0
M  V30 30742 O 3065.11 1.79709 -1.41127 0
M  V30 30743 C 3065.32 -1.25852 -3.25518 0
M  V30 30744 C 3066.66 -1.37155 -4.01838 0
M  V30 30745 O 3067.69 -1.21444 -3.34858 0
M  V30 30746 O 3066.55 -1.62504 -5.2178 0
M  V30 30747 H 3063.64 -0.211743 -0.799434 0
M  V30 30748 H 3066.19 -1.10992 -1.2837 0
M  V30 30749 H 3064.96 -2.29874 -3.1666 0
M  V30 30750 H 3064.58 -0.750593 -3.90451 0
M  V30 30751 N 3065.58 1.36456 -0.788516 0
M  V30 30752 C 3066.54 2.28392 -0.192249 0
M  V30 30753 C 3067.54 1.48785 0.60989 0
M  V30 30754 O 3068.73 1.68784 0.431017 0
M  V30 30755 C 3065.86 3.32903 0.734038 0
M  V30 30756 H 3067.06 2.82634 -1.00289 0
M  V30 30757 H 3064.61 1.46005 -0.557878 0
M  V30 30758 H 3065.35 2.83815 1.56905 0
M  V30 30759 H 3065.13 3.9177 0.160806 0
M  V30 30760 H 3066.62 4.01564 1.14612 0
M  V30 30761 N 3067.06 0.540456 1.48043 0
M  V30 30762 C 3068.31 0.0101722 2.02097 0
M  V30 30763 C 3068.63 -1.33769 1.41884 0
M  V30 30764 O 3067.9 -1.86869 0.587956 0
M  V30 30765 H 3066.48 0.000771847 0.747 0
M  V30 30766 H 3069.14 0.706666 1.81638 0
M  V30 30767 H 3068.23 -0.0903925 3.11969 0
M  V30 30768 N 3068.54 -1.55163 0.276085 0
M  V30 30769 C 3069.77 -2.03729 -0.343238 0
M  V30 30770 C 3070.17 -1.15386 -1.49943 0
M  V30 30771 O 3069.52 -0.166728 -1.82942 0
M  V30 30772 C 3069.58 -3.48421 -0.885621 0
M  V30 30773 C 3069.24 -4.56779 0.142057 0
M  V30 30774 C 3070.24 -5.10924 0.961906 0
M  V30 30775 C 3067.92 -5.01538 0.276575 0
M  V30 30776 C 3069.92 -6.08347 1.90245 0
M  V30 30777 C 3067.61 -5.98786 1.22059 0
M  V30 30778 C 3068.6 -6.52072 2.03203 0
M  V30 30779 O 3068.29 -7.47418 2.96009 0
M  V30 30780 H 3068.02 -0.670983 -0.0822075 0
M  V30 30781 H 3070.58 -2.01343 0.406234 0
M  V30 30782 H 3068.81 -3.4805 -1.68518 0
M  V30 30783 H 3070.5 -3.8032 -1.41814 0
M  V30 30784 H 3071.26 -4.77156 0.868721 0
M  V30 30785 H 3067.14 -4.59707 -0.345014 0
M  V30 30786 H 3070.69 -6.49863 2.53621 0
M  V30 30787 H 3066.58 -6.31972 1.31459 0
M  V30 30788 H 3067.35 -7.65137 2.90702 0
M  V30 30789 N 3070.01 -0.00338196 -1.576 0
M  V30 30790 C 3071.26 0.679413 -1.90338 0
M  V30 30791 C 3071.58 1.74125 -0.877808 0
M  V30 30792 O 3070.85 1.95718 0.0843241 0
M  V30 30793 H 3069.43 0.253936 -0.702514 0
M  V30 30794 H 3072.09 -0.0451074 -1.94848 0
M  V30 30795 H 3071.19 1.14852 -2.90199 0
M  V30 30796 N 3071.49 1.5528 0.269423 0
M  V30 30797 C 3072.74 1.75707 0.998573 0
M  V30 30798 C 3073.06 0.563207 1.8669 0
M  V30 30799 O 3072.33 -0.421777 1.91306 0
M  V30 30800 H 3070.91 0.647965 0.371686 0
M  V30 30801 H 3073.57 1.92688 0.292792 0
M  V30 30802 H 3072.67 2.65943 1.63343 0
M  V30 30803 N 3072.97 -0.534097 1.48274 0
M  V30 30804 C 3073.9 -1.64836 1.65383 0
M  V30 30805 C 3074.88 -1.625 0.502769 0
M  V30 30806 O 3076.07 -1.79761 0.734831 0
M  V30 30807 C 3073.2 -3.03433 1.68954 0
M  V30 30808 C 3072.15 -3.20626 2.83519 0
M  V30 30809 C 3071.48 -4.60243 2.72177 0
M  V30 30810 C 3072.78 -3.0379 4.24864 0
M  V30 30811 H 3074.47 -1.50773 2.58666 0
M  V30 30812 H 3072.02 -0.723916 1.24481 0
M  V30 30813 H 3073.97 -3.81252 1.79512 0
M  V30 30814 H 3072.69 -3.18509 0.722471 0
M  V30 30815 H 3071.35 -2.45222 2.7251 0
M  V30 30816 H 3071 -4.72149 1.73448 0
M  V30 30817 H 3070.7 -4.72692 3.4905 0
M  V30 30818 H 3072.22 -5.40167 2.84696 0
M  V30 30819 H 3073.64 -3.71405 4.36728 0
M  V30 30820 H 3072.03 -3.27735 5.02703 0
M  V30 30821 H 3073.1 -2.00262 4.41614 0
M  V30 30822 N 3074.45 -1.36793 -0.782652 0
M  V30 30823 C 3075.67 -1.34735 -1.57674 0
M  V30 30824 C 3076.1 0.0674923 -1.87979 0
M  V30 30825 O 3075.46 1.04141 -1.48406 0
M  V30 30826 C 3075.5 -2.18262 -2.87044 0
M  V30 30827 O 3074.61 -1.57976 -3.80943 0
M  V30 30828 H 3073.95 -0.460855 -0.478026 0
M  V30 30829 H 3076.48 -1.80169 -0.969547 0
M  V30 30830 H 3076.49 -2.31085 -3.3625 0
M  V30 30831 H 3075.16 -3.21109 -2.64314 0
M  V30 30832 H 3073.74 -1.54132 -3.39555 0
M  V30 30833 N 3075.93 1.00759 -1.21184 0
M  V30 30834 C 3076.86 2.11342 -0.99281 0
M  V30 30835 C 3077.84 1.69905 0.081332 0
M  V30 30836 O 3079.02 1.94043 -0.0779844 0
M  V30 30837 C 3076.15 3.42855 -0.553887 0
M  V30 30838 C 3075.11 3.98074 -1.5723 0
M  V30 30839 C 3074.43 5.25461 -0.989698 0
M  V30 30840 C 3075.73 4.30433 -2.95846 0
M  V30 30841 H 3077.43 2.29923 -1.9177 0
M  V30 30842 H 3074.97 1.10492 -0.923446 0
M  V30 30843 H 3076.93 4.19611 -0.387844 0
M  V30 30844 H 3075.65 3.24059 0.406645 0
M  V30 30845 H 3074.31 3.23434 -1.72586 0
M  V30 30846 H 3073.96 5.02996 -0.0209627 0
M  V30 30847 H 3073.66 5.63371 -1.66993 0
M  V30 30848 H 3075.18 6.04865 -0.834921 0
M  V30 30849 H 3076.59 4.98042 -2.83949 0
M  V30 30850 H 3074.99 4.79479 -3.6086 0
M  V30 30851 H 3076.06 3.38817 -3.46888 0
M  V30 30852 N 3077.4 1.01917 1.20211 0
M  V30 30853 C 3078.63 0.72911 1.94162 0
M  V30 30854 C 3079.05 -0.704293 1.74417 0
M  V30 30855 O 3078.41 -1.48496 1.04012 0
M  V30 30856 C 3078.46 1.0733 3.44256 0
M  V30 30857 O 3077.56 0.18644 4.11978 0
M  V30 30858 H 3076.91 0.270282 0.606501 0
M  V30 30859 H 3079.44 1.36323 1.52569 0
M  V30 30860 H 3079.45 1.0261 3.94886 0
M  V30 30861 H 3078.12 2.11765 3.5795 0
M  V30 30862 H 3076.7 0.291399 3.7176 0
M  V30 30863 N 3078.88 -1.36036 0.795742 0
M  V30 30864 C 3080.13 -1.98322 0.36761 0
M  V30 30865 C 3080.44 -1.63856 -1.0682 0
M  V30 30866 O 3081.65 -2.19424 -1.59891 0
M  V30 30867 C 3080.11 -3.54756 0.606334 0
M  V30 30868 C 3079.71 -3.98141 2.05397 0
M  V30 30869 C 3081.46 -4.23804 0.243022 0
M  V30 30870 C 3079.37 -5.47377 2.23902 0
M  V30 30871 H 3078.3 -0.742049 0.133712 0
M  V30 30872 H 3080.95 -1.55249 0.978269 0
M  V30 30873 H 3079.33 -3.95931 -0.0741261 0
M  V30 30874 H 3080.5 -3.68148 2.77135 0
M  V30 30875 H 3078.82 -3.41949 2.37613 0
M  V30 30876 H 3081.41 -5.3349 0.359476 0
M  V30 30877 H 3081.76 -4.08352 -0.80959 0
M  V30 30878 H 3082.29 -3.88013 0.876967 0
M  V30 30879 H 3079.03 -5.67784 3.27569 0
M  V30 30880 H 3078.55 -5.78975 1.56676 0
M  V30 30881 H 3080.23 -6.1369 2.04924 0
M  V30 30882 N 3080.36 -0.5483 -1.47755 0
M  V30 30883 C 3081.27 0.207732 -2.33678 0
M  V30 30884 C 3082.29 0.920817 -1.47638 0
M  V30 30885 O 3083.46 0.891699 -1.80584 0
M  V30 30886 C 3080.53 1.22997 -3.24149 0
M  V30 30887 C 3079.59 0.525275 -4.26074 0
M  V30 30888 C 3078.82 1.49881 -5.12222 0
M  V30 30889 O 3079.04 2.73296 -5.00665 0
M  V30 30890 O 3077.98 1.02818 -5.93053 0
M  V30 30891 H 3081.8 -0.496847 -2.99608 0
M  V30 30892 H 3079.39 -0.309008 -1.46169 0
M  V30 30893 H 3081.27 1.82027 -3.80058 0
M  V30 30894 H 3079.95 1.91663 -2.60858 0
M  V30 30895 H 3078.85 -0.105993 -3.7395 0
M  V30 30896 H 3080.19 -0.119773 -4.92054 0
M  V30 30897 N 3081.84 1.55014 -0.28431 0
M  V30 30898 C 3083.09 1.99401 0.329177 0
M  V30 30899 C 3083.41 1.17419 1.55685 0
M  V30 30900 O 3082.68 0.265971 1.94086 0
M  V30 30901 H 3081.26 0.736532 0.124617 0
M  V30 30902 H 3083.92 1.90922 -0.391776 0
M  V30 30903 H 3083.02 3.06026 0.612726 0
M  V30 30904 N 3083.32 0.0117398 1.57596 0
M  V30 30905 C 3084.73 -0.52949 1.79034 0
M  V30 30906 C 3085.08 -1.73275 0.920329 0
M  V30 30907 O 3084.2 -2.16033 0.125972 0
M  V30 30908 C 3084.8 -0.967348 3.24697 0
M  V30 30909 C 3083.36 -1.4538 3.47191 0
M  V30 30910 C 3082.5 -0.410418 2.74246 0
M  V30 30911 H 3085.46 0.237863 1.56907 0
M  V30 30912 H 3085.48 -1.83273 3.33454 0
M  V30 30913 H 3084.99 -0.0913923 3.87992 0
M  V30 30914 H 3083.09 -2.35027 2.89125 0
M  V30 30915 H 3083.2 -1.47317 4.55889 0
M  V30 30916 H 3081.57 -0.874678 2.3921 0
M  V30 30917 H 3082.35 0.456772 3.40248 0
M  V30 30918 N 3084.79 -1.55421 -0.261185 0
M  V30 30919 C 3086.02 -1.80957 -1.01337 0
M  V30 30920 C 3086.44 -0.58688 -1.7871 0
M  V30 30921 O 3085.8 0.463806 -1.75267 0
M  V30 30922 C 3085.85 -3.04076 -1.9383 0
M  V30 30923 O 3084.95 -2.7999 -3.02786 0
M  V30 30924 H 3084.3 -0.597754 -0.289113 0
M  V30 30925 H 3086.83 -2.02584 -0.286507 0
M  V30 30926 H 3086.84 -3.33127 -2.35564 0
M  V30 30927 H 3085.51 -3.92713 -1.36929 0
M  V30 30928 H 3084.09 -2.62068 -2.65283 0
M  V30 30929 N 3086.27 0.526227 -1.48555 0
M  V30 30930 C 3087.22 1.63043 -1.63357 0
M  V30 30931 C 3088.19 1.59147 -0.475537 0
M  V30 30932 O 3089.37 1.77516 -0.699484 0
M  V30 30933 C 3086.51 3.01292 -1.68277 0
M  V30 30934 C 3085.63 3.15394 -2.95213 0
M  V30 30935 C 3084.76 4.44225 -2.91269 0
M  V30 30936 C 3083.8 4.51869 -4.12894 0
M  V30 30937 N 3082.94 5.72093 -4.07006 0
M  V30 30938 H 3087.78 1.49732 -2.57651 0
M  V30 30939 H 3085.32 0.728916 -1.2777 0
M  V30 30940 H 3087.27 3.81389 -1.69111 0
M  V30 30941 H 3085.9 3.13366 -0.774696 0
M  V30 30942 H 3084.96 2.28525 -3.04106 0
M  V30 30943 H 3086.27 3.16904 -3.85193 0
M  V30 30944 H 3085.42 5.32616 -2.90526 0
M  V30 30945 H 3084.16 4.45242 -1.99024 0
M  V30 30946 H 3083.17 3.61884 -4.13908 0
M  V30 30947 H 3084.39 4.52587 -5.06302 0
M  V30 30948 H 3082.34 5.74001 -3.17583 0
M  V30 30949 H 3082.25 5.75112 -4.90695 0
M  V30 30950 H 3083.52 6.62761 -4.10327 0
M  V30 30951 N 3087.75 1.37206 0.775387 0
M  V30 30952 C 3089 1.32409 1.53609 0
M  V30 30953 C 3089.33 -0.0923762 1.9398 0
M  V30 30954 O 3088.6 -1.04891 1.63793 0
M  V30 30955 C 3088.89 2.25984 2.80363 0
M  V30 30956 C 3088.74 3.76393 2.46269 0
M  V30 30957 C 3090.06 2.18071 3.82273 0
M  V30 30958 H 3087.18 0.482307 0.557269 0
M  V30 30959 H 3089.82 1.67877 0.889797 0
M  V30 30960 H 3087.97 1.95868 3.35512 0
M  V30 30961 H 3089.64 4.1709 1.97062 0
M  V30 30962 H 3087.89 3.9514 1.79016 0
M  V30 30963 H 3088.56 4.37297 3.3686 0
M  V30 30964 H 3091.03 2.4461 3.36609 0
M  V30 30965 H 3089.91 2.85692 4.68691 0
M  V30 30966 H 3090.17 1.17246 4.2627 0
M  V30 30967 N 3089.23 -1.00115 1.21716 0
M  V30 30968 C 3090.51 -1.71234 0.945421 0
M  V30 30969 C 3090.89 -2.0403 -0.541736 0
M  V30 30970 O 3090.23 -1.71708 -1.5076 0
M  V30 30971 C 3090.44 -2.96896 1.83449 0
M  V30 30972 C 3091.79 -3.69846 2.08565 0
M  V30 30973 O 3092.82 -3.06886 1.8083 0
M  V30 30974 O 3091.67 -4.831 2.55494 0
M  V30 30975 H 3088.77 -0.747003 0.354847 0
M  V30 30976 H 3091.31 -1.05823 1.32663 0
M  V30 30977 H 3090.09 -2.691 2.84079 0
M  V30 30978 H 3089.71 -3.70047 1.45434 0
M  V30 30979 N 3090.71 -1.02553 -1.19669 0
M  V30 30980 C 3091.96 -0.715305 -1.8859 0
M  V30 30981 C 3092.27 0.75895 -1.80276 0
M  V30 30982 O 3093.48 1.18209 -2.44416 0
M  V30 30983 C 3091.93 -1.22911 -3.38262 0
M  V30 30984 C 3091.54 -2.73091 -3.55142 0
M  V30 30985 C 3093.28 -0.994722 -4.12681 0
M  V30 30986 C 3091.19 -3.17906 -4.98688 0
M  V30 30987 H 3090.12 -0.263869 -0.706321 0
M  V30 30988 H 3092.77 -1.23939 -1.3532 0
M  V30 30989 H 3091.15 -0.632961 -3.90909 0
M  V30 30990 H 3092.33 -3.38332 -3.12839 0
M  V30 30991 H 3090.64 -2.94771 -2.94107 0
M  V30 30992 H 3093.24 -1.30487 -5.18534 0
M  V30 30993 H 3093.58 0.0685734 -4.16244 0
M  V30 30994 H 3094.12 -1.5547 -3.66161 0
M  V30 30995 H 3090.85 -4.2355 -5.00285 0
M  V30 30996 H 3090.37 -2.57391 -5.41766 0
M  V30 30997 H 3092.05 -3.11055 -5.67322 0
M  V30 30998 N 3092.19 1.35612 -0.802945 0
M  V30 30999 C 3093.13 2.31749 -0.198824 0
M  V30 31000 C 3094.13 1.56459 0.649388 0
M  V30 31001 O 3095.33 1.71616 0.542959 0
M  V30 31002 H 3091.71 0.75062 -0.0455309 0
M  V30 31003 H 3093.68 2.80249 -1.02484 0
M  V30 31004 C 3092.43 3.4174 0.641006 0
M  V30 31005 H 3091.75 3.998 -0.00233272 0
M  V30 31006 H 3093.19 4.11295 1.03015 0
M  V30 31007 C 3091.65 2.84467 1.805 0
M  V30 31008 O 3092.18 2.77722 2.9023 0
M  V30 31009 N 3090.39 2.41566 1.61538 0
M  V30 31010 H 3089.93 2.47251 0.722819 0
M  V30 31011 H 3089.89 2.03593 2.39577 0
M  V30 31012 N 3093.66 0.556128 1.47462 0
M  V30 31013 C 3094.89 0.0364948 2.06868 0
M  V30 31014 C 3095.31 -1.25674 1.40895 0
M  V30 31015 O 3094.66 -1.75371 0.505114 0
M  V30 31016 C 3094.71 -0.163921 3.61128 0
M  V30 31017 O 3094.44 1.0781 4.24628 0
M  V30 31018 C 3095.94 -0.720959 4.37398 0
M  V30 31019 H 3093.16 0.0453517 0.669466 0
M  V30 31020 H 3095.7 0.769231 1.89481 0
M  V30 31021 H 3093.86 -0.846783 3.78032 0
M  V30 31022 H 3094.27 0.875158 5.17147 0
M  V30 31023 H 3095.74 -0.810488 5.46017 0
M  V30 31024 H 3096.22 -1.73198 4.03607 0
M  V30 31025 H 3096.83 -0.0738292 4.25236 0
M  V30 31026 N 3095.14 -1.54861 0.292527 0
M  V30 31027 C 3096.05 -2.26877 -0.596996 0
M  V30 31028 C 3097.07 -1.30088 -1.15555 0
M  V30 31029 O 3098.24 -1.63056 -1.18215 0
M  V30 31030 C 3095.31 -2.98906 -1.75658 0
M  V30 31031 C 3094.37 -4.11214 -1.23296 0
M  V30 31032 C 3093.6 -4.79799 -2.33728 0
M  V30 31033 O 3093.83 -4.47692 -3.53452 0
M  V30 31034 O 3092.76 -5.67383 -2.00898 0
M  V30 31035 H 3096.59 -3.03697 -0.0130708 0
M  V30 31036 H 3094.17 -1.49282 0.0592904 0
M  V30 31037 H 3096.05 -3.44114 -2.43235 0
M  V30 31038 H 3094.73 -2.24988 -2.32727 0
M  V30 31039 H 3093.63 -3.70424 -0.523156 0
M  V30 31040 H 3094.97 -4.87084 -0.707801 0
M  V30 31041 N 3096.62 -0.0200973 -1.57587 0
M  V30 31042 C 3097.9 0.698645 -1.82697 0
M  V30 31043 C 3098.28 1.90854 -0.902115 0
M  V30 31044 O 3097.62 2.28457 0.0444432 0
M  V30 31045 C 3097.83 1.0854 -3.31693 0
M  V30 31046 C 3099.18 1.48083 -3.9794 0
M  V30 31047 O 3100.21 1.17863 -3.36135 0
M  V30 31048 O 3099.07 2.04355 -5.06854 0
M  V30 31049 H 3096.16 0.341929 -0.753003 0
M  V30 31050 H 3098.71 -0.0470899 -1.69635 0
M  V30 31051 H 3097.48 0.223887 -3.90659 0
M  V30 31052 H 3097.1 1.88959 -3.49829 0
M  V30 31053 N 3098.1 1.55557 0.252939 0
M  V30 31054 C 3099.03 1.92822 1.31688 0
M  V30 31055 C 3100.01 0.792426 1.50515 0
M  V30 31056 O 3101.19 1.05222 1.63224 0
M  V30 31057 C 3098.32 2.21766 2.67277 0
M  V30 31058 C 3097.28 3.37541 2.63154 0
M  V30 31059 C 3096.6 3.52012 4.02482 0
M  V30 31060 C 3097.9 4.73396 2.20667 0
M  V30 31061 H 3099.6 2.81941 1.00746 0
M  V30 31062 H 3097.14 1.35651 0.483195 0
M  V30 31063 H 3099.1 2.46425 3.41837 0
M  V30 31064 H 3097.82 1.29468 2.99843 0
M  V30 31065 H 3096.48 3.12882 1.91052 0
M  V30 31066 H 3096.13 2.57144 4.32303 0
M  V30 31067 H 3095.83 4.29864 4.00613 0
M  V30 31068 H 3097.35 3.78985 4.78751 0
M  V30 31069 H 3098.77 4.97466 2.84957 0
M  V30 31070 H 3097.16 5.54307 2.29921 0
M  V30 31071 H 3098.23 4.70864 1.15823 0
M  V30 31072 N 3099.58 -0.518341 1.48832 0
M  V30 31073 C 3100.49 -1.64845 1.66923 0
M  V30 31074 C 3101.5 -1.65021 0.55174 0
M  V30 31075 O 3102.68 -1.83759 0.824284 0
M  V30 31076 C 3099.74 -3.01275 1.71564 0
M  V30 31077 C 3098.8 -3.11863 2.95025 0
M  V30 31078 C 3098.04 -4.41785 2.99436 0
M  V30 31079 O 3098.26 -5.2957 2.11923 0
M  V30 31080 O 3097.19 -4.56983 3.91727 0
M  V30 31081 H 3101.02 -1.52517 2.62626 0
M  V30 31082 H 3098.6 -0.692726 1.32369 0
M  V30 31083 H 3100.49 -3.82392 1.77071 0
M  V30 31084 H 3099.16 -3.13903 0.790371 0
M  V30 31085 H 3098.07 -2.29997 2.95046 0
M  V30 31086 H 3099.4 -3.04156 3.86976 0
M  V30 31087 N 3101.05 -1.37615 -0.7681 0
M  V30 31088 C 3102.33 -1.23557 -1.51635 0
M  V30 31089 C 3102.71 0.169294 -2.1042 0
M  V30 31090 O 3102.06 1.17731 -1.95836 0
M  V30 31091 C 3102.27 -2.33443 -2.59432 0
M  V30 31092 C 3103.62 -2.71163 -3.26735 0
M  V30 31093 O 3104.64 -2.32647 -2.69729 0
M  V30 31094 O 3103.5 -3.37531 -4.29808 0
M  V30 31095 H 3100.59 -0.482344 -0.671769 0
M  V30 31096 H 3103.14 -1.49405 -0.804752 0
M  V30 31097 H 3101.91 -3.27505 -2.1414 0
M  V30 31098 H 3101.53 -2.09079 -3.38189 0
M  V30 31099 N 3102.53 0.994677 -1.22245 0
M  V30 31100 C 3103.78 1.73054 -1.04387 0
M  V30 31101 C 3104.1 1.90375 0.422171 0
M  V30 31102 O 3103.37 1.46211 1.30381 0
M  V30 31103 H 3101.95 0.641179 -0.383274 0
M  V30 31104 H 3104.61 1.19808 -1.53728 0
M  V30 31105 H 3103.71 2.7257 -1.52026 0
M  V30 31106 N 3104.01 1.03186 1.19123 0
M  V30 31107 C 3105.24 0.749784 1.92836 0
M  V30 31108 C 3105.65 -0.69182 1.75668 0
M  V30 31109 O 3105.01 -1.47074 1.08053 0
M  V30 31110 C 3105.06 1.09532 3.44507 0
M  V30 31111 O 3104.78 2.48031 3.61126 0
M  V30 31112 C 3106.28 0.836473 4.35337 0
M  V30 31113 H 3103.5 0.274116 0.612455 0
M  V30 31114 H 3106.05 1.37715 1.51178 0
M  V30 31115 H 3104.2 0.513073 3.83987 0
M  V30 31116 H 3104.62 2.60992 4.54955 0
M  V30 31117 H 3106.09 1.12818 5.40348 0
M  V30 31118 H 3106.57 -0.229025 4.38602 0
M  V30 31119 H 3107.17 1.40159 4.01541 0
M  V30 31120 N 3105.49 -1.35184 0.810125 0
M  V30 31121 C 3106.73 -2.00491 0.397837 0
M  V30 31122 C 3107.09 -1.62865 -1.01681 0
M  V30 31123 O 3108.29 -2.20918 -1.53129 0
M  V30 31124 C 3106.56 -3.52669 0.579586 0
M  V30 31125 S 3108.12 -4.38039 0.258246 0
M  V30 31126 H 3104.94 -0.694799 0.150917 0
M  V30 31127 H 3107.54 -1.64709 1.05315 0
M  V30 31128 H 3106.25 -3.77541 1.60908 0
M  V30 31129 H 3105.78 -3.93295 -0.0909195 0
M  V30 31130 H 3107.79 -4.87353 -0.932797 0
M  V30 31131 N 3106.97 -0.56394 -1.47165 0
M  V30 31132 C 3108.38 -0.224201 -1.58017 0
M  V30 31133 C 3108.58 1.27336 -1.56166 0
M  V30 31134 O 3107.64 2.05396 -1.46863 0
M  V30 31135 C 3108.95 -0.856812 -2.88235 0
M  V30 31136 C 3110.5 -0.828663 -3.01831 0
M  V30 31137 C 3110.97 -1.44047 -4.34758 0
M  V30 31138 N 3112.47 -1.40396 -4.41411 0
M  V30 31139 C 3113.2 -1.8469 -5.42842 0
M  V30 31140 N 3112.7 -2.36872 -6.51048 0
M  V30 31141 N 3114.49 -1.7572 -5.33928 0
M  V30 31142 H 3106.64 -1.53684 -1.46612 0
M  V30 31143 H 3108.9 -0.641283 -0.698184 0
M  V30 31144 H 3108.61 -1.90955 -2.95346 0
M  V30 31145 H 3108.48 -0.353832 -3.75537 0
M  V30 31146 H 3110.87 0.215399 -2.94313 0
M  V30 31147 H 3110.95 -1.36947 -2.16054 0
M  V30 31148 H 3110.6 -2.48363 -4.43033 0
M  V30 31149 H 3110.53 -0.875044 -5.19279 0
M  V30 31150 H 3113.02 -1.02233 -3.63809 0
M  V30 31151 H 3113.33 -2.68577 -7.24628 0
M  V30 31152 H 3111.67 -2.40886 -6.51919 0
M  V30 31153 H 3114.87 -1.34726 -4.48293 0
M  V30 31154 H 3115.04 -2.10558 -6.12837 0
M  V30 31155 N 3108.44 1.54704 -0.300735 0
M  V30 31156 C 3109.69 2.00431 0.309076 0
M  V30 31157 C 3110.02 1.18882 1.5356 0
M  V30 31158 O 3109.3 0.265239 1.92683 0
M  V30 31159 C 3109.58 3.53889 0.665933 0
M  V30 31160 C 3109.43 4.46177 -0.569709 0
M  V30 31161 C 3110.75 4.14018 1.49255 0
M  V30 31162 H 3107.87 0.728614 0.110865 0
M  V30 31163 H 3110.51 1.85462 -0.412781 0
M  V30 31164 H 3108.66 3.66775 1.28094 0
M  V30 31165 H 3110.34 4.45197 -1.20818 0
M  V30 31166 H 3108.58 4.16786 -1.203 0
M  V30 31167 H 3109.25 5.5131 -0.275882 0
M  V30 31168 H 3111.73 4.04566 0.972908 0
M  V30 31169 H 3110.6 5.21551 1.71102 0
M  V30 31170 H 3110.86 3.65876 2.48167 0
M  V30 31171 N 3109.92 0.0284543 1.57574 0
M  V30 31172 C 3111.15 -0.660541 1.96073 0
M  V30 31173 C 3111.57 -1.65701 0.90491 0
M  V30 31174 O 3110.92 -1.82148 -0.113347 0
M  V30 31175 C 3110.97 -1.3675 3.34636 0
M  V30 31176 O 3110.69 -0.410965 4.36168 0
M  V30 31177 C 3112.2 -2.14838 3.87762 0
M  V30 31178 H 3109.42 -0.182172 0.645797 0
M  V30 31179 H 3111.96 0.0880217 2.0431 0
M  V30 31180 H 3110.11 -2.06747 3.27619 0
M  V30 31181 H 3110.53 -0.912909 5.16494 0
M  V30 31182 H 3112 -2.59758 4.87062 0
M  V30 31183 H 3112.48 -2.98714 3.21973 0
M  V30 31184 H 3113.09 -1.498 3.98045 0
M  V30 31185 N 3111.4 -1.55689 -0.244686 0
M  V30 31186 C 3112.63 -1.81419 -0.988476 0
M  V30 31187 C 3113.04 -0.602175 -1.79361 0
M  V30 31188 O 3112.38 0.438607 -1.78387 0
M  V30 31189 C 3112.44 -3.00533 -1.97282 0
M  V30 31190 C 3112.11 -4.36469 -1.3544 0
M  V30 31191 C 3113.1 -5.14377 -0.755784 0
M  V30 31192 C 3110.79 -4.83168 -1.3731 0
M  V30 31193 C 3112.78 -6.37134 -0.184106 0
M  V30 31194 C 3110.47 -6.05873 -0.797574 0
M  V30 31195 C 3111.47 -6.82695 -0.204104 0
M  V30 31196 O 3111.16 -8.03082 0.362533 0
M  V30 31197 H 3110.89 -0.607554 -0.296401 0
M  V30 31198 H 3113.44 -2.03589 -0.272149 0
M  V30 31199 H 3111.67 -2.74124 -2.72751 0
M  V30 31200 H 3113.36 -3.13336 -2.58022 0
M  V30 31201 H 3114.13 -4.79416 -0.733827 0
M  V30 31202 H 3110.01 -4.23363 -1.82442 0
M  V30 31203 H 3113.55 -6.97039 0.279747 0
M  V30 31204 H 3109.45 -6.40311 -0.816866 0
M  V30 31205 H 3110.22 -8.18104 0.254611 0
M  V30 31206 N 3112.88 0.510441 -1.49105 0
M  V30 31207 C 3114.12 1.27542 -1.59726 0
M  V30 31208 C 3114.48 1.90041 -0.273558 0
M  V30 31209 O 3115.68 2.67589 -0.254882 0
M  V30 31210 C 3113.95 2.32105 -2.71775 0
M  V30 31211 S 3115.51 3.18069 -3.02288 0
M  V30 31212 H 3112.33 0.433581 -0.563497 0
M  V30 31213 H 3114.93 0.579295 -1.8672 0
M  V30 31214 H 3113.64 1.84704 -3.66487 0
M  V30 31215 H 3113.17 3.064 -2.46744 0
M  V30 31216 H 3115.18 4.32579 -2.43084 0
M  V30 31217 N 3114.36 1.38021 0.760791 0
M  V30 31218 C 3115.77 1.30239 1.33771 0
M  V30 31219 C 3116.12 -0.0450808 1.96148 0
M  V30 31220 O 3115.24 -0.947066 1.94575 0
M  V30 31221 C 3115.84 2.35856 2.43223 0
M  V30 31222 C 3114.4 2.31674 2.96655 0
M  V30 31223 C 3113.54 2.19103 1.69968 0
M  V30 31224 H 3116.5 1.48483 0.560211 0
M  V30 31225 H 3116.52 2.01155 3.22981 0
M  V30 31226 H 3116.03 3.33915 1.97794 0
M  V30 31227 H 3114.13 1.37174 3.46431 0
M  V30 31228 H 3114.24 3.25527 3.51523 0
M  V30 31229 H 3112.61 1.65833 1.93317 0
M  V30 31230 H 3113.39 3.19093 1.26627 0
M  V30 31231 N 3115.83 -0.98818 1.22771 0
M  V30 31232 C 3117.06 -1.76379 1.08158 0
M  V30 31233 C 3117.48 -1.85188 -0.36754 0
M  V30 31234 O 3116.83 -1.32543 -1.25453 0
M  V30 31235 C 3116.89 -3.19459 1.69198 0
M  V30 31236 O 3116.61 -3.11119 3.08442 0
M  V30 31237 C 3118.11 -4.13448 1.59923 0
M  V30 31238 H 3115.33 -0.553771 0.378918 0
M  V30 31239 H 3117.87 -1.24203 1.62462 0
M  V30 31240 H 3116.03 -3.68688 1.18946 0
M  V30 31241 H 3116.44 -4.01134 3.37923 0
M  V30 31242 H 3117.91 -5.11577 2.07348 0
M  V30 31243 H 3118.39 -4.35659 0.556623 0
M  V30 31244 H 3119 -3.70119 2.09504 0
M  V30 31245 N 3117.31 -1.03816 -1.18575 0
M  V30 31246 C 3118.22 -0.637351 -2.25776 0
M  V30 31247 C 3119.24 0.335218 -1.7074 0
M  V30 31248 O 3120.41 0.190774 -2.00494 0
M  V30 31249 C 3117.48 -0.00393047 -3.467 0
M  V30 31250 C 3116.54 -1.02518 -4.16879 0
M  V30 31251 C 3115.77 -0.421896 -5.3203 0
M  V30 31252 O 3116 0.772599 -5.65143 0
M  V30 31253 O 3114.93 -1.14935 -5.90824 0
M  V30 31254 H 3118.76 -1.53041 -2.62321 0
M  V30 31255 H 3116.34 -0.808892 -1.25608 0
M  V30 31256 H 3118.22 0.348799 -4.19954 0
M  V30 31257 H 3116.9 0.862993 -3.11984 0
M  V30 31258 H 3115.81 -1.42966 -3.45704 0
M  V30 31259 H 3117.14 -1.86279 -4.55589 0
M  V30 31260 N 3118.79 1.34753 -0.817283 0
M  V30 31261 C 3120.2 1.80887 -0.462247 0
M  V30 31262 C 3120.55 1.67795 1.01682 0
M  V30 31263 O 3119.68 1.21471 1.79092 0
M  V30 31264 C 3120.27 3.28419 -0.832262 0
M  V30 31265 C 3118.83 3.72655 -0.529675 0
M  V30 31266 C 3117.98 2.56563 -1.05218 0
M  V30 31267 H 3120.93 1.22579 -1.00797 0
M  V30 31268 H 3120.95 3.80264 -0.13387 0
M  V30 31269 H 3120.46 3.37915 -1.90879 0
M  V30 31270 H 3118.56 3.687 0.537678 0
M  V30 31271 H 3118.68 4.67004 -1.06979 0
M  V30 31272 H 3117.04 2.50251 -0.473993 0
M  V30 31273 H 3117.82 2.68832 -2.13505 0
M  V30 31274 N 3120.27 0.571737 1.46864 0
M  V30 31275 C 3121.52 0.0530378 2.0203 0
M  V30 31276 C 3121.84 -1.30729 1.44689 0
M  V30 31277 O 3121.11 -1.85579 0.627461 0
M  V30 31278 H 3119.69 0.0166166 0.746815 0
M  V30 31279 H 3122.35 0.745035 1.80098 0
M  V30 31280 H 3121.45 -0.0241989 3.12091 0
M  V30 31281 N 3121.75 -1.54542 0.308935 0
M  V30 31282 C 3122.7 -2.25271 -0.579286 0
M  V30 31283 C 3123.69 -1.26154 -1.13056 0
M  V30 31284 O 3124.9 -1.43979 -1.08028 0
M  V30 31285 H 3121.27 -0.723396 -0.205431 0
M  V30 31286 H 3123.24 -2.98374 0.039694 0
M  V30 31287 C 3121.99 -3.01274 -1.73578 0
M  V30 31288 H 3121.31 -3.77352 -1.32083 0
M  V30 31289 H 3122.75 -3.54032 -2.33318 0
M  V30 31290 C 3121.21 -2.08708 -2.64467 0
M  V30 31291 O 3121.74 -1.66031 -3.65782 0
M  V30 31292 N 3119.95 -1.74499 -2.32376 0
M  V30 31293 H 3119.5 -2.09401 -1.5003 0
M  V30 31294 H 3119.45 -1.12841 -2.93452 0
M  V30 31295 N 3123.23 -0.0368104 -1.57557 0
M  V30 31296 C 3124.46 0.64919 -1.96135 0
M  V30 31297 C 3124.86 1.65752 -0.912308 0
M  V30 31298 O 3124.21 1.83349 0.113536 0
M  V30 31299 C 3124.27 1.40539 -3.30891 0
M  V30 31300 C 3123.93 0.55453 -4.53623 0
M  V30 31301 C 3124.93 -0.173401 -5.19611 0
M  V30 31302 C 3122.61 0.489672 -4.99907 0
M  V30 31303 C 3124.61 -0.954781 -6.30208 0
M  V30 31304 C 3122.3 -0.295407 -6.10386 0
M  V30 31305 C 3123.29 -1.01633 -6.75396 0
M  V30 31306 O 3122.98 -1.78853 -7.83752 0
M  V30 31307 H 3122.71 0.183332 -0.650665 0
M  V30 31308 H 3125.27 -0.0951873 -2.05179 0
M  V30 31309 H 3123.5 2.19508 -3.1836 0
M  V30 31310 H 3125.19 1.98024 -3.54318 0
M  V30 31311 H 3125.95 -0.132675 -4.84818 0
M  V30 31312 H 3121.83 1.04038 -4.49107 0
M  V30 31313 H 3125.38 -1.51801 -6.80884 0
M  V30 31314 H 3121.27 -0.337823 -6.44615 0
M  V30 31315 H 3122.04 -1.70912 -8.00457 0
M  V30 31316 N 3124.7 1.55817 0.236426 0
M  V30 31317 C 3125.95 1.77338 0.96095 0
M  V30 31318 C 3126.27 0.602674 1.86084 0
M  V30 31319 O 3127.47 0.701152 2.6229 0
M  V30 31320 C 3125.93 3.13998 1.75879 0
M  V30 31321 C 3125.54 4.38748 0.905772 0
M  V30 31322 C 3127.28 3.44853 2.47542 0
M  V30 31323 C 3125.19 5.66437 1.7001 0
M  V30 31324 H 3124.12 0.661124 0.362535 0
M  V30 31325 H 3126.77 1.82233 0.215271 0
M  V30 31326 H 3125.15 3.03238 2.54681 0
M  V30 31327 H 3126.32 4.60524 0.159334 0
M  V30 31328 H 3124.64 4.15304 0.301977 0
M  V30 31329 H 3127.24 4.37473 3.07444 0
M  V30 31330 H 3127.58 2.6666 3.19684 0
M  V30 31331 H 3128.11 3.56875 1.75741 0
M  V30 31332 H 3124.85 6.4748 1.02222 0
M  V30 31333 H 3124.37 5.48745 2.42154 0
M  V30 31334 H 3126.05 6.06074 2.26458 0
M  V30 31335 N 3126.18 -0.502526 1.49373 0
M  V30 31336 C 3127.43 -1.25336 1.58031 0
M  V30 31337 C 3127.74 -1.93706 0.271528 0
M  V30 31338 O 3128.95 -2.70467 0.236632 0
M  V30 31339 C 3127.41 -2.27568 2.78821 0
M  V30 31340 C 3127.01 -1.65144 4.16451 0
M  V30 31341 C 3128.76 -3.03489 2.96807 0
M  V30 31342 C 3126.66 -2.65477 5.28466 0
M  V30 31343 H 3125.59 -0.471484 0.588404 0
M  V30 31344 H 3128.25 -0.527409 1.75757 0
M  V30 31345 H 3126.63 -3.03319 2.54585 0
M  V30 31346 H 3127.8 -0.95395 4.50818 0
M  V30 31347 H 3126.12 -1.01618 4.0381 0
M  V30 31348 H 3128.71 -3.78517 3.77662 0
M  V30 31349 H 3129.06 -3.61011 2.07309 0
M  V30 31350 H 3129.59 -2.34853 3.21075 0
M  V30 31351 H 3126.33 -2.12738 6.20018 0
M  V30 31352 H 3125.85 -3.3347 4.98556 0
M  V30 31353 H 3127.53 -3.27933 5.57736 0
M  V30 31354 N 3127.66 -1.38422 -0.75346 0
M  V30 31355 C 3128.61 -1.35777 -1.88858 0
M  V30 31356 C 3129.6 -0.243637 -1.67639 0
M  V30 31357 O 3130.81 -0.41268 -1.75205 0
M  V30 31358 H 3127.18 -0.423571 -0.621363 0
M  V30 31359 H 3129.15 -2.31563 -1.88205 0
M  V30 31360 C 3127.9 -1.19984 -3.26342 0
M  V30 31361 H 3127.23 -2.04977 -3.43256 0
M  V30 31362 H 3128.67 -1.22188 -4.06012 0
M  V30 31363 C 3127.12 0.0932275 -3.36771 0
M  V30 31364 O 3127.65 1.0702 -3.87181 0
M  V30 31365 N 3125.86 0.150103 -2.90212 0
M  V30 31366 H 3125.41 -0.645606 -2.49379 0
M  V30 31367 H 3125.37 1.01485 -2.9757 0
M  V30 31368 N 3129.14 0.981655 -1.23294 0
M  V30 31369 C 3130.39 1.71703 -1.05835 0
M  V30 31370 C 3130.7 1.91359 0.405106 0
M  V30 31371 O 3131.91 2.62332 0.699599 0
M  V30 31372 C 3130.36 3.08989 -1.84537 0
M  V30 31373 C 3129.97 2.97224 -3.35204 0
M  V30 31374 C 3131.71 3.86494 -1.75564 0
M  V30 31375 C 3129.62 4.29734 -4.06304 0
M  V30 31376 H 3128.55 0.643834 -0.392421 0
M  V30 31377 H 3131.2 1.09499 -1.47249 0
M  V30 31378 H 3129.58 3.7194 -1.35929 0
M  V30 31379 H 3130.76 2.4337 -3.9129 0
M  V30 31380 H 3129.07 2.33194 -3.44977 0
M  V30 31381 H 3131.67 4.84592 -2.25997 0
M  V30 31382 H 3132.01 4.10058 -0.718173 0
M  V30 31383 H 3132.55 3.30242 -2.21777 0
M  V30 31384 H 3129.28 4.11366 -5.10351 0
M  V30 31385 H 3128.8 4.83458 -3.55005 0
M  V30 31386 H 3130.48 4.98427 -4.12528 0
M  V30 31387 N 3130.62 1.04444 1.18022 0
M  V30 31388 C 3131.56 0.638798 2.21784 0
M  V30 31389 C 3132.53 -0.355284 1.62256 0
M  V30 31390 O 3133.72 -0.248407 1.89176 0
M  V30 31391 C 3130.86 0.0118609 3.45098 0
M  V30 31392 C 3129.97 1.05386 4.18948 0
M  V30 31393 C 3129.11 0.395044 5.29729 0
M  V30 31394 C 3128.14 1.42188 5.95356 0
M  V30 31395 N 3127.28 0.787758 6.97667 0
M  V30 31396 H 3132.12 1.52813 2.55836 0
M  V30 31397 H 3129.66 0.7644 1.2568 0
M  V30 31398 H 3131.62 -0.369002 4.15565 0
M  V30 31399 H 3130.25 -0.840966 3.11653 0
M  V30 31400 H 3129.3 1.55264 3.47271 0
M  V30 31401 H 3130.61 1.83363 4.63874 0
M  V30 31402 H 3129.76 -0.0398177 6.06687 0
M  V30 31403 H 3128.5 -0.416782 4.85916 0
M  V30 31404 H 3127.51 1.86684 5.17136 0
M  V30 31405 H 3128.73 2.23547 6.41251 0
M  V30 31406 H 3126.68 -0.00369362 6.56 0
M  V30 31407 H 3126.6 1.50518 7.40865 0
M  V30 31408 H 3127.86 0.377418 7.78586 0
M  V30 31409 N 3132.09 -1.34317 0.824418 0
M  V30 31410 C 3133.34 -1.98239 0.413201 0
M  V30 31411 C 3133.67 -1.65356 -1.02409 0
M  V30 31412 O 3132.92 -0.91806 -1.7283 0
M  V30 31413 C 3133.22 -3.5292 0.564086 0
M  V30 31414 C 3132.89 -4.05718 1.96732 0
M  V30 31415 C 3131.55 -4.19849 2.35118 0
M  V30 31416 C 3133.9 -4.341 2.88455 0
M  V30 31417 C 3131.23 -4.59688 3.64559 0
M  V30 31418 C 3133.58 -4.75386 4.17361 0
M  V30 31419 C 3132.25 -4.87722 4.55723 0
M  V30 31420 H 3131.52 -0.72541 0.151201 0
M  V30 31421 H 3134.16 -1.60236 1.04865 0
M  V30 31422 H 3132.47 -3.91494 -0.154747 0
M  V30 31423 H 3134.17 -4.0036 0.226418 0
M  V30 31424 H 3130.76 -3.95184 1.65915 0
M  V30 31425 H 3134.94 -4.2272 2.60041 0
M  V30 31426 H 3130.2 -4.6743 3.94105 0
M  V30 31427 H 3134.37 -4.96306 4.88521 0
M  V30 31428 H 3132 -5.1835 5.56073 0
M  V30 31429 N 3133.57 -0.579517 -1.46558 0
M  V30 31430 C 3134.53 0.145331 -2.28739 0
M  V30 31431 C 3135.53 0.82183 -1.38212 0
M  V30 31432 O 3136.72 0.674274 -1.60621 0
M  V30 31433 C 3133.86 1.21509 -3.1851 0
M  V30 31434 H 3135.05 -0.576838 -2.943 0
M  V30 31435 H 3132.6 -0.337354 -1.52616 0
M  V30 31436 H 3133.34 1.96894 -2.57688 0
M  V30 31437 H 3133.12 0.734548 -3.85158 0
M  V30 31438 H 3134.61 1.72356 -3.80372 0
M  V30 31439 N 3135.05 1.54376 -0.317127 0
M  V30 31440 C 3136.33 1.92599 0.341315 0
M  V30 31441 C 3136.71 1.24608 1.704 0
M  V30 31442 O 3136.06 0.387488 2.25191 0
M  V30 31443 C 3136.27 3.46216 0.439942 0
M  V30 31444 C 3137.61 4.18736 0.703254 0
M  V30 31445 O 3138.64 3.52338 0.523119 0
M  V30 31446 O 3137.5 5.36312 1.05032 0
M  V30 31447 H 3134.59 0.804 0.193682 0
M  V30 31448 H 3137.14 1.65698 -0.36637 0
M  V30 31449 H 3135.91 3.87865 -0.517368 0
M  V30 31450 H 3135.53 3.79202 1.19546 0
M  V30 31451 N 3136.53 0.0451655 1.57535 0
M  V30 31452 C 3137.46 -0.960336 2.08111 0
M  V30 31453 C 3138.47 -1.27863 1.00772 0
M  V30 31454 O 3139.66 -1.24047 1.28353 0
M  V30 31455 C 3136.76 -2.2835 2.50418 0
M  V30 31456 C 3135.94 -2.14802 3.81024 0
M  V30 31457 C 3134.99 -3.3019 4.09708 0
M  V30 31458 O 3134.02 -3.06362 4.7972 0
M  V30 31459 N 3135.22 -4.54482 3.61146 0
M  V30 31460 H 3137.99 -0.5287 2.95 0
M  V30 31461 H 3135.55 -0.14122 1.61283 0
M  V30 31462 H 3137.54 -3.044 2.66688 0
M  V30 31463 H 3136.11 -2.63101 1.6881 0
M  V30 31464 H 3135.33 -1.2338 3.74394 0
M  V30 31465 H 3136.62 -2.0297 4.66563 0
M  V30 31466 H 3136.02 -4.76733 3.04535 0
M  V30 31467 H 3134.57 -5.27647 3.82665 0
M  V30 31468 N 3138.01 -1.5594 -0.228159 0
M  V30 31469 C 3138.96 -1.88269 -1.28603 0
M  V30 31470 C 3139.94 -0.745164 -1.42605 0
M  V30 31471 O 3141.13 -1.00746 -1.45531 0
M  V30 31472 C 3138.26 -2.19716 -2.63779 0
M  V30 31473 C 3137.35 -3.39844 -2.53706 0
M  V30 31474 N 3137.74 -4.58635 -2.13278 0
M  V30 31475 C 3136.04 -3.43327 -2.8468 0
M  V30 31476 C 3136.74 -5.40789 -2.14295 0
M  V30 31477 N 3135.71 -4.8033 -2.54527 0
M  V30 31478 H 3139.52 -2.77632 -0.964258 0
M  V30 31479 H 3137.03 -1.56417 -0.436742 0
M  V30 31480 H 3139.03 -2.4105 -3.40148 0
M  V30 31481 H 3137.69 -1.31663 -2.96808 0
M  V30 31482 H 3138.7 -4.83915 -1.84516 0
M  V30 31483 H 3135.37 -2.65598 -3.22124 0
M  V30 31484 H 3136.76 -6.45866 -1.85219 0
M  V30 31485 N 3139.48 0.494597 -1.49638 0
M  V30 31486 C 3140.73 1.25016 -1.59684 0
M  V30 31487 C 3141.06 1.92089 -0.285544 0
M  V30 31488 O 3140.34 1.81024 0.711366 0
M  V30 31489 C 3140.62 2.31218 -2.76062 0
M  V30 31490 C 3140.47 1.68603 -4.17005 0
M  V30 31491 C 3141.79 3.32728 -2.88062 0
M  V30 31492 H 3138.91 0.453162 -0.581217 0
M  V30 31493 H 3141.55 0.547359 -1.81945 0
M  V30 31494 H 3139.7 2.9116 -2.57212 0
M  V30 31495 H 3141.38 1.12439 -4.47387 0
M  V30 31496 H 3139.62 0.989917 -4.22354 0
M  V30 31497 H 3140.29 2.45665 -4.9432 0
M  V30 31498 H 3142.77 2.82784 -3.05242 0
M  V30 31499 H 3141.64 4.04392 -3.71158 0
M  V30 31500 H 3141.9 3.95441 -1.97683 0
M  V30 31501 N 3140.96 1.3882 0.746109 0
M  V30 31502 C 3142.37 1.31651 1.32382 0
M  V30 31503 C 3142.72 -0.0242741 1.96185 0
M  V30 31504 O 3141.85 -0.926375 1.95569 0
M  V30 31505 C 3142.44 2.38422 2.40708 0
M  V30 31506 C 3141 2.34808 2.94181 0
M  V30 31507 C 3140.15 2.20893 1.67635 0
M  V30 31508 H 3143.1 1.49069 0.54443 0
M  V30 31509 H 3143.12 2.04569 3.2083 0
M  V30 31510 H 3142.63 3.35994 1.94242 0
M  V30 31511 H 3140.74 1.4084 3.44956 0
M  V30 31512 H 3140.85 3.29237 3.48051 0
M  V30 31513 H 3139.21 1.67874 1.91547 0
M  V30 31514 H 3140 3.20418 1.23236 0
M  V30 31515 N 3142.44 -0.975103 1.23812 0
M  V30 31516 C 3143.69 -1.71371 1.07127 0
M  V30 31517 C 3144.01 -1.91023 -0.391831 0
M  V30 31518 O 3143.28 -1.48267 -1.28038 0
M  V30 31519 H 3141.86 -0.635 0.393426 0
M  V30 31520 H 3144.52 -1.17347 1.55614 0
M  V30 31521 H 3143.62 -2.70117 1.56343 0
M  V30 31522 N 3143.92 -1.05068 -1.17467 0
M  V30 31523 C 3145.14 -0.780332 -1.9216 0
M  V30 31524 C 3145.57 0.657801 -1.76223 0
M  V30 31525 O 3144.93 1.45686 -1.07913 0
M  V30 31526 C 3144.97 -1.1642 -3.4129 0
M  V30 31527 O 3144.08 -0.295603 -4.11339 0
M  V30 31528 H 3143.42 -0.286268 -0.599122 0
M  V30 31529 H 3145.95 -1.4032 -1.48901 0
M  V30 31530 H 3145.96 -1.13043 -3.92027 0
M  V30 31531 H 3144.63 -2.21181 -3.5221 0
M  V30 31532 H 3143.21 -0.389863 -3.70856 0
M  V30 31533 N 3145.4 1.33878 -0.831529 0
M  V30 31534 C 3146.81 1.80387 -0.481406 0
M  V30 31535 C 3147.16 1.68864 0.998963 0
M  V30 31536 O 3146.28 1.23363 1.77793 0
M  V30 31537 C 3146.88 3.27518 -0.867048 0
M  V30 31538 C 3145.44 3.72072 -0.56917 0
M  V30 31539 C 3144.58 2.55432 -1.07934 0
M  V30 31540 H 3147.54 1.21503 -1.02091 0
M  V30 31541 H 3147.56 3.80101 -0.174195 0
M  V30 31542 H 3147.07 3.35872 -1.94452 0
M  V30 31543 H 3145.17 3.6925 0.498542 0
M  V30 31544 H 3145.28 4.65843 -1.11926 0
M  V30 31545 H 3143.65 2.49734 -0.500509 0
M  V30 31546 H 3144.43 2.66552 -2.16344 0
M  V30 31547 N 3146.87 0.587281 1.46249 0
M  V30 31548 C 3148.12 0.0746102 2.02363 0
M  V30 31549 C 3148.45 -1.2871 1.45822 0
M  V30 31550 O 3147.7 -1.85787 0.614955 0
M  V30 31551 C 3148 -0.0362652 3.57382 0
M  V30 31552 C 3147.67 1.25845 4.32983 0
M  V30 31553 C 3146.33 1.61314 4.53355 0
M  V30 31554 C 3148.68 2.11502 4.76357 0
M  V30 31555 C 3146.01 2.82232 5.14356 0
M  V30 31556 C 3148.36 3.31651 5.38693 0
M  V30 31557 C 3147.03 3.67397 5.57293 0
M  V30 31558 H 3146.3 0.0273018 0.740497 0
M  V30 31559 H 3148.94 0.764834 1.75563 0
M  V30 31560 H 3147.25 -0.809644 3.83343 0
M  V30 31561 H 3148.95 -0.448768 3.98481 0
M  V30 31562 H 3145.54 0.972324 4.17425 0
M  V30 31563 H 3149.72 1.85402 4.60369 0
M  V30 31564 H 3144.98 3.1006 5.26947 0
M  V30 31565 H 3149.15 3.9829 5.7126 0
M  V30 31566 H 3146.78 4.61183 6.04329 0
M  V30 31567 N 3148.35 -1.54206 0.325309 0
M  V30 31568 C 3149.58 -2.05482 -0.281382 0
M  V30 31569 C 3150 -1.1998 -1.44867 0
M  V30 31570 O 3149.36 -0.209306 -1.80088 0
M  V30 31571 C 3149.41 -3.53899 -0.691967 0
M  V30 31572 O 3148.51 -3.71328 -1.79414 0
M  V30 31573 H 3147.85 -0.662079 -0.0504756 0
M  V30 31574 H 3150.38 -1.99028 0.474226 0
M  V30 31575 H 3150.39 -3.962 -0.974149 0
M  V30 31576 H 3149.07 -4.15585 0.161783 0
M  V30 31577 H 3147.65 -3.40932 -1.51063 0
M  V30 31578 N 3149.83 -0.0535194 -1.57509 0
M  V30 31579 C 3151.08 0.620657 -1.93069 0
M  V30 31580 C 3151.41 1.70356 -0.932343 0
M  V30 31581 O 3150.69 1.94456 0.0413051 0
M  V30 31582 C 3150.97 1.21457 -3.38999 0
M  V30 31583 C 3150.82 0.139571 -4.49583 0
M  V30 31584 C 3152.14 2.12552 -3.8537 0
M  V30 31585 H 3149.26 0.22415 -0.702087 0
M  V30 31586 H 3151.9 -0.115763 -1.89647 0
M  V30 31587 H 3150.05 1.8422 -3.42046 0
M  V30 31588 H 3151.72 -0.492492 -4.58664 0
M  V30 31589 H 3149.97 -0.532081 -4.30524 0
M  V30 31590 H 3150.64 0.595191 -5.48782 0
M  V30 31591 H 3153.11 1.59748 -3.84213 0
M  V30 31592 H 3151.99 2.5105 -4.88124 0
M  V30 31593 H 3152.25 3.02655 -3.22261 0
M  V30 31594 N 3151.31 1.56059 0.219886 0
M  V30 31595 C 3152.26 1.92551 1.27251 0
M  V30 31596 C 3153.23 0.782908 1.46491 0
M  V30 31597 O 3154.41 1.03895 1.60033 0
M  V30 31598 C 3151.55 2.249 2.61752 0
M  V30 31599 C 3150.66 3.52102 2.50296 0
M  V30 31600 C 3149.8 3.73891 3.77331 0
M  V30 31601 C 3148.84 4.94602 3.60605 0
M  V30 31602 N 3147.98 5.12771 4.79594 0
M  V30 31603 H 3152.82 2.82307 0.954302 0
M  V30 31604 H 3150.35 1.39726 0.459903 0
M  V30 31605 H 3152.31 2.41666 3.40078 0
M  V30 31606 H 3150.94 1.38316 2.91665 0
M  V30 31607 H 3149.99 3.4352 1.63395 0
M  V30 31608 H 3151.3 4.40581 2.33858 0
M  V30 31609 H 3150.46 3.90762 4.64101 0
M  V30 31610 H 3149.2 2.83696 3.96697 0
M  V30 31611 H 3148.2 4.77678 2.72219 0
M  V30 31612 H 3149.43 5.86283 3.42709 0
M  V30 31613 H 3147.37 4.25519 4.99269 0
M  V30 31614 H 3147.29 5.95385 4.65889 0
M  V30 31615 H 3148.56 5.34079 5.67785 0
M  V30 31616 N 3152.79 -0.486655 1.49898 0
M  V30 31617 C 3154.03 -1.24167 1.60344 0
M  V30 31618 C 3154.37 -1.91935 0.295727 0
M  V30 31619 O 3153.64 -1.81399 -0.701756 0
M  V30 31620 C 3153.92 -2.2975 2.77285 0
M  V30 31621 C 3153.78 -1.6639 4.17893 0
M  V30 31622 C 3155.1 -3.31196 2.89823 0
M  V30 31623 H 3152.22 -0.450073 0.583612 0
M  V30 31624 H 3154.86 -0.537702 1.82233 0
M  V30 31625 H 3153.01 -2.89792 2.58753 0
M  V30 31626 H 3154.68 -1.10065 4.47977 0
M  V30 31627 H 3152.92 -0.967505 4.22873 0
M  V30 31628 H 3153.59 -2.4304 4.95616 0
M  V30 31629 H 3156.07 -2.81161 3.06737 0
M  V30 31630 H 3154.95 -4.02418 3.73297 0
M  V30 31631 H 3155.21 -3.94387 1.99777 0
M  V30 31632 N 3154.27 -1.39214 -0.738737 0
M  V30 31633 C 3155.49 -1.395 -1.52799 0
M  V30 31634 C 3155.91 0.0114585 -1.88797 0
M  V30 31635 O 3155.27 0.98186 -1.53837 0
M  V30 31636 C 3155.32 -2.26445 -2.81789 0
M  V30 31637 O 3155.04 -3.61613 -2.47321 0
M  V30 31638 C 3156.54 -2.35073 -3.7584 0
M  V30 31639 H 3153.76 -0.476614 -0.472313 0
M  V30 31640 H 3156.3 -1.82982 -0.913121 0
M  V30 31641 H 3154.46 -1.86386 -3.39616 0
M  V30 31642 H 3154.87 -4.07551 -3.30155 0
M  V30 31643 H 3156.35 -3.00165 -4.63255 0
M  V30 31644 H 3156.82 -1.36877 -4.17326 0
M  V30 31645 H 3157.43 -2.75586 -3.23932 0
M  V30 31646 N 3155.74 0.968523 -1.24328 0
M  V30 31647 C 3156.99 1.70801 -1.08035 0
M  V30 31648 C 3157.31 1.91228 0.381695 0
M  V30 31649 O 3156.58 1.48944 1.2725 0
M  V30 31650 H 3155.16 0.632905 -0.396788 0
M  V30 31651 H 3157.82 1.1652 -1.56234 0
M  V30 31652 H 3156.92 2.69284 -1.57773 0
M  V30 31653 N 3157.22 1.0569 1.16908 0
M  V30 31654 C 3158.13 0.673189 2.24734 0
M  V30 31655 C 3159.15 -0.308013 1.71252 0
M  V30 31656 O 3160.32 -0.158853 2.00773 0
M  V30 31657 C 3157.39 0.0590869 3.4665 0
M  V30 31658 C 3156.45 1.09138 4.15196 0
M  V30 31659 C 3155.68 0.506484 5.31291 0
M  V30 31660 O 3155.91 -0.682592 5.66301 0
M  V30 31661 O 3154.84 1.2432 5.88921 0
M  V30 31662 H 3158.67 1.57195 2.59853 0
M  V30 31663 H 3156.25 0.828773 1.24305 0
M  V30 31664 H 3158.13 -0.281944 4.20456 0
M  V30 31665 H 3156.81 -0.813249 3.13318 0
M  V30 31666 H 3155.71 1.48448 3.43386 0
M  V30 31667 H 3157.05 1.93503 4.52567 0
M  V30 31668 N 3158.7 -1.33435 0.838617 0
M  V30 31669 C 3159.95 -1.97399 0.433346 0
M  V30 31670 C 3160.27 -1.6676 -1.01075 0
M  V30 31671 O 3159.54 -0.966403 -1.70404 0
M  V30 31672 H 3158.12 -0.730261 0.157253 0
M  V30 31673 H 3160.78 -1.62802 1.07152 0
M  V30 31674 H 3159.88 -3.0694 0.565198 0
M  V30 31675 N 3160.18 -0.595029 -1.45935 0
M  V30 31676 C 3161.59 -0.257669 -1.57506 0
M  V30 31677 C 3161.79 1.23995 -1.58831 0
M  V30 31678 O 3160.85 2.02234 -1.51187 0
M  V30 31679 C 3162.16 -0.917758 -2.86352 0
M  V30 31680 C 3163.71 -0.892499 -3.00006 0
M  V30 31681 C 3164.19 -1.53236 -4.31605 0
M  V30 31682 N 3165.68 -1.49727 -4.38333 0
M  V30 31683 C 3166.41 -1.96163 -5.38802 0
M  V30 31684 N 3165.91 -2.50628 -6.45877 0
M  V30 31685 N 3167.7 -1.87006 -5.3008 0
M  V30 31686 H 3159.85 -1.56759 -1.43319 0
M  V30 31687 H 3162.11 -0.655948 -0.684424 0
M  V30 31688 H 3161.82 -1.97176 -2.91229 0
M  V30 31689 H 3161.69 -0.43341 -3.74702 0
M  V30 31690 H 3164.08 0.152923 -2.94704 0
M  V30 31691 H 3164.16 -1.41499 -2.131 0
M  V30 31692 H 3163.81 -2.57705 -4.37665 0
M  V30 31693 H 3163.74 -0.984994 -5.17306 0
M  V30 31694 H 3166.23 -1.09927 -3.61558 0
M  V30 31695 H 3166.54 -2.83887 -7.18769 0
M  V30 31696 H 3164.89 -2.5466 -6.46663 0
M  V30 31697 H 3168.08 -1.44204 -4.45334 0
M  V30 31698 H 3168.25 -2.2351 -6.08233 0
M  V30 31699 N 3161.66 1.54031 -0.333483 0
M  V30 31700 C 3162.9 2.01041 0.266492 0
M  V30 31701 C 3163.23 1.22113 1.51004 0
M  V30 31702 O 3162.51 0.30605 1.92077 0
M  V30 31703 C 3162.79 3.55222 0.590718 0
M  V30 31704 C 3162.65 4.44869 -0.664222 0
M  V30 31705 C 3163.96 4.17091 1.40439 0
M  V30 31706 H 3161.08 0.730801 0.0953851 0
M  V30 31707 H 3163.73 1.84545 -0.452027 0
M  V30 31708 H 3161.88 3.6941 1.20285 0
M  V30 31709 H 3163.55 4.42534 -1.30235 0
M  V30 31710 H 3161.79 4.1414 -1.29113 0
M  V30 31711 H 3162.46 5.50601 -0.392761 0
M  V30 31712 H 3164.94 4.06539 0.886875 0
M  V30 31713 H 3163.81 5.25063 1.60001 0
M  V30 31714 H 3164.07 3.71058 2.40351 0
M  V30 31715 N 3163.13 0.0618717 1.57479 0
M  V30 31716 C 3164.08 -0.908825 2.12153 0
M  V30 31717 C 3165.05 -1.30186 1.03154 0
M  V30 31718 O 3166.24 -1.38946 1.30762 0
M  V30 31719 C 3163.38 -2.17461 2.67964 0
M  V30 31720 C 3162.49 -1.8351 3.91086 0
M  V30 31721 C 3161.62 -3.04625 4.35174 0
M  V30 31722 C 3160.66 -2.66645 5.50969 0
M  V30 31723 N 3159.8 -3.80489 5.90062 0
M  V30 31724 H 3164.64 -0.435692 2.94798 0
M  V30 31725 H 3162.18 -0.20342 1.45687 0
M  V30 31726 H 3164.13 -2.91543 2.98427 0
M  V30 31727 H 3162.76 -2.62332 1.881 0
M  V30 31728 H 3161.82 -0.995316 3.67148 0
M  V30 31729 H 3163.13 -1.5156 4.75217 0
M  V30 31730 H 3162.28 -3.86997 4.67246 0
M  V30 31731 H 3161.02 -3.39761 3.49877 0
M  V30 31732 H 3160.03 -1.82693 5.18559 0
M  V30 31733 H 3161.25 -2.3269 6.37991 0
M  V30 31734 H 3159.2 -4.15405 5.07715 0
M  V30 31735 H 3159.11 -3.52274 6.68909 0
M  V30 31736 H 3160.38 -4.63468 6.26752 0
M  V30 31737 N 3164.61 -1.56173 -0.211607 0
M  V30 31738 C 3165.52 -1.96404 -1.28306 0
M  V30 31739 C 3166.54 -0.869281 -1.5073 0
M  V30 31740 O 3167.71 -1.17368 -1.63666 0
M  V30 31741 C 3164.78 -2.28119 -2.6108 0
M  V30 31742 C 3163.84 -3.51216 -2.46872 0
M  V30 31743 C 3163.07 -3.81408 -3.73314 0
M  V30 31744 O 3163.3 -3.13128 -4.76767 0
M  V30 31745 O 3162.23 -4.74878 -3.69831 0
M  V30 31746 H 3166.06 -2.87736 -0.971683 0
M  V30 31747 H 3163.64 -1.43512 -0.41528 0
M  V30 31748 H 3165.52 -2.49667 -3.39477 0
M  V30 31749 H 3164.2 -1.39959 -2.91879 0
M  V30 31750 H 3163.11 -3.34935 -1.66642 0
M  V30 31751 H 3164.44 -4.3979 -2.21011 0
M  V30 31752 N 3166.09 0.478699 -1.50154 0
M  V30 31753 C 3167.32 1.25948 -1.64779 0
M  V30 31754 C 3167.74 1.85221 -0.327827 0
M  V30 31755 O 3167.1 1.6693 0.707388 0
M  V30 31756 C 3167.15 2.34947 -2.73555 0
M  V30 31757 O 3166.25 3.39393 -2.34279 0
M  V30 31758 H 3165.59 0.370867 -0.550775 0
M  V30 31759 H 3168.12 0.570571 -1.96483 0
M  V30 31760 H 3168.13 2.80375 -2.96402 0
M  V30 31761 H 3166.81 1.91175 -3.69358 0
M  V30 31762 H 3165.38 2.99729 -2.21849 0
M  V30 31763 N 3167.57 1.39603 0.731343 0
M  V30 31764 C 3168.82 1.36336 1.48645 0
M  V30 31765 C 3169.13 -0.0367039 1.95566 0
M  V30 31766 O 3170.34 -0.191969 2.7082 0
M  V30 31767 C 3168.79 2.39532 2.68612 0
M  V30 31768 C 3168.4 3.85272 2.28625 0
M  V30 31769 C 3170.14 2.45347 3.46418 0
M  V30 31770 C 3168.05 4.80101 3.45337 0
M  V30 31771 H 3166.98 0.506871 0.558209 0
M  V30 31772 H 3169.63 1.65267 0.797438 0
M  V30 31773 H 3168.01 2.03677 3.39605 0
M  V30 31774 H 3169.19 4.30187 1.65154 0
M  V30 31775 H 3167.5 3.82786 1.63902 0
M  V30 31776 H 3170.1 3.13386 4.33236 0
M  V30 31777 H 3170.44 1.47911 3.89138 0
M  V30 31778 H 3170.98 2.80113 2.82456 0
M  V30 31779 H 3167.72 5.78812 3.07663 0
M  V30 31780 H 3167.24 4.39862 4.07776 0
M  V30 31781 H 3168.91 4.99176 4.11621 0
M  V30 31782 N 3169.05 -0.961916 1.2484 0
M  V30 31783 C 3170.27 -1.74045 1.11875 0
M  V30 31784 C 3170.69 -1.85926 -0.328176 0
M  V30 31785 O 3170.05 -1.35175 -1.22613 0
M  V30 31786 C 3170.1 -3.15798 1.75936 0
M  V30 31787 O 3169.82 -3.04507 3.14972 0
M  V30 31788 C 3171.32 -4.09963 1.68657 0
M  V30 31789 H 3168.54 -0.545609 0.390579 0
M  V30 31790 H 3171.08 -1.20729 1.6506 0
M  V30 31791 H 3169.24 -3.66082 1.2674 0
M  V30 31792 H 3169.65 -3.93875 3.46356 0
M  V30 31793 H 3171.13 -5.07063 2.18153 0
M  V30 31794 H 3171.6 -4.3438 0.648907 0
M  V30 31795 H 3172.21 -3.65592 2.17307 0
M  V30 31796 N 3170.52 -1.06308 -1.16346 0
M  V30 31797 C 3171.94 -0.786567 -1.38871 0
M  V30 31798 C 3172.14 0.614028 -1.91917 0
M  V30 31799 O 3171.2 1.37457 -2.11806 0
M  V30 31800 C 3172.51 -1.85158 -2.36932 0
M  V30 31801 C 3174.06 -1.87511 -2.50617 0
M  V30 31802 C 3174.53 -2.93067 -3.5196 0
M  V30 31803 N 3176.02 -2.92101 -3.59487 0
M  V30 31804 C 3176.76 -3.70423 -4.37692 0
M  V30 31805 N 3176.25 -4.58562 -5.19319 0
M  V30 31806 N 3178.05 -3.58814 -4.32677 0
M  V30 31807 H 3170.2 -1.96656 -0.802507 0
M  V30 31808 H 3172.46 -0.852196 -0.41529 0
M  V30 31809 H 3172.17 -2.8574 -2.05051 0
M  V30 31810 H 3172.04 -1.70272 -3.36582 0
M  V30 31811 H 3174.43 -0.875876 -2.81802 0
M  V30 31812 H 3174.51 -2.06475 -1.51003 0
M  V30 31813 H 3174.15 -3.93183 -3.21511 0
M  V30 31814 H 3174.08 -2.71352 -4.51304 0
M  V30 31815 H 3176.57 -2.28202 -3.01218 0
M  V30 31816 H 3176.89 -5.14981 -5.76207 0
M  V30 31817 H 3175.23 -4.62618 -5.18662 0
M  V30 31818 H 3178.42 -2.89341 -3.67966 0
M  V30 31819 H 3178.6 -4.20097 -4.93379 0
M  V30 31820 N 3172 1.32989 -0.845682 0
M  V30 31821 C 3173.42 1.50389 -0.534356 0
M  V30 31822 C 3173.62 1.78394 0.936908 0
M  V30 31823 O 3172.67 1.84821 1.72039 0
M  V30 31824 C 3173.99 2.65402 -1.41359 0
M  V30 31825 C 3175.54 2.79287 -1.41308 0
M  V30 31826 C 3176.01 3.97369 -2.27731 0
M  V30 31827 N 3177.5 4.04616 -2.25478 0
M  V30 31828 C 3178.24 4.95196 -2.89082 0
M  V30 31829 N 3177.73 5.90845 -3.61765 0
M  V30 31830 N 3179.53 4.88247 -2.78517 0
M  V30 31831 H 3171.68 1.13075 -1.798 0
M  V30 31832 H 3173.94 0.556511 -0.767463 0
M  V30 31833 H 3173.65 2.51409 -2.4594 0
M  V30 31834 H 3173.52 3.60971 -1.09452 0
M  V30 31835 H 3175.91 2.92708 -0.37495 0
M  V30 31836 H 3175.99 1.84458 -1.77225 0
M  V30 31837 H 3175.63 3.84707 -3.31606 0
M  V30 31838 H 3175.56 4.91456 -1.89151 0
M  V30 31839 H 3178.05 3.36167 -1.72628 0
M  V30 31840 H 3178.37 6.56639 -4.07486 0
M  V30 31841 H 3176.71 5.90899 -3.65873 0
M  V30 31842 H 3179.9 4.12489 -2.21292 0
M  V30 31843 H 3180.07 5.58639 -3.2837 0
M  V30 31844 N 3173.48 0.60276 1.45618 0
M  V30 31845 C 3174.9 0.266018 1.57367 0
M  V30 31846 C 3175.1 -1.23151 1.59487 0
M  V30 31847 O 3174.15 -2.0143 1.52257 0
M  V30 31848 C 3175.47 0.932931 2.85862 0
M  V30 31849 C 3177.01 0.908397 2.99528 0
M  V30 31850 C 3177.49 1.55523 4.30786 0
M  V30 31851 N 3178.98 1.52049 4.37533 0
M  V30 31852 C 3179.71 1.99018 5.37754 0
M  V30 31853 N 3179.21 2.5405 6.44539 0
M  V30 31854 N 3181 1.89814 5.29081 0
M  V30 31855 H 3173.15 1.57517 1.42486 0
M  V30 31856 H 3175.42 0.659568 0.680936 0
M  V30 31857 H 3175.12 1.98718 2.90179 0
M  V30 31858 H 3175 0.453275 3.74467 0
M  V30 31859 H 3177.38 -0.137292 2.9478 0
M  V30 31860 H 3177.47 1.42627 2.12347 0
M  V30 31861 H 3177.11 2.60022 4.36292 0
M  V30 31862 H 3177.04 1.01241 5.16776 0
M  V30 31863 H 3179.53 1.11843 3.6097 0
M  V30 31864 H 3179.84 2.87694 7.17253 0
M  V30 31865 H 3178.19 2.58086 6.45303 0
M  V30 31866 H 3181.38 1.46564 4.44563 0
M  V30 31867 H 3181.55 2.26732 6.07039 0
M  V30 31868 N 3174.96 -1.53852 0.341647 0
M  V30 31869 C 3176.37 -1.59597 -0.0103488 0
M  V30 31870 C 3176.57 -1.35767 -1.48895 0
M  V30 31871 O 3175.63 -1.15099 -2.24741 0
M  V30 31872 C 3176.94 -2.97694 0.424119 0
M  V30 31873 C 3178.49 -3.1073 0.376302 0
M  V30 31874 C 3178.97 -4.51201 0.786209 0
M  V30 31875 N 3180.46 -4.57246 0.74032 0
M  V30 31876 C 3181.19 -5.64083 1.02946 0
M  V30 31877 N 3180.69 -6.78781 1.38667 0
M  V30 31878 N 3182.48 -5.53948 0.953831 0
M  V30 31879 H 3174.63 -1.67597 1.3048 0
M  V30 31880 H 3176.9 -0.784811 0.531767 0
M  V30 31881 H 3176.6 -3.20192 1.45499 0
M  V30 31882 H 3176.48 -3.76661 -0.201646 0
M  V30 31883 H 3178.86 -2.87956 -0.64539 0
M  V30 31884 H 3178.94 -2.33827 1.03725 0
M  V30 31885 H 3178.59 -4.7471 1.8059 0
M  V30 31886 H 3178.52 -5.265 0.102763 0
M  V30 31887 H 3181.01 -3.7488 0.476829 0
M  V30 31888 H 3181.32 -7.5622 1.5922 0
M  V30 31889 H 3179.67 -6.80232 1.4251 0
M  V30 31890 H 3182.86 -4.6322 0.674126 0
M  V30 31891 H 3183.03 -6.37119 1.18252 0
M  V30 31892 N 3176.44 -0.0702223 -1.57443 0
M  V30 31893 C 3177.4 0.882886 -2.11513 0
M  V30 31894 C 3178.4 1.22741 -1.03881 0
M  V30 31895 O 3179.59 1.16094 -1.29876 0
M  V30 31896 C 3176.72 2.18681 -2.61518 0
M  V30 31897 H 3177.91 0.413821 -2.97031 0
M  V30 31898 H 3175.47 0.178461 -1.55278 0
M  V30 31899 H 3176.2 2.70128 -1.79448 0
M  V30 31900 H 3175.99 1.94972 -3.40188 0
M  V30 31901 H 3177.48 2.86914 -3.0343 0
M  V30 31902 N 3177.91 1.56283 0.203321 0
M  V30 31903 C 3179.33 1.70139 0.768734 0
M  V30 31904 C 3179.68 0.675391 1.84209 0
M  V30 31905 O 3178.8 -0.169862 2.15732 0
M  V30 31906 C 3179.4 3.08468 1.40118 0
M  V30 31907 C 3177.96 3.24117 1.91377 0
M  V30 31908 C 3177.1 2.66085 0.780638 0
M  V30 31909 H 3180.05 1.58685 -0.0216276 0
M  V30 31910 H 3180.07 3.0534 2.27041 0
M  V30 31911 H 3179.59 3.8312 0.619738 0
M  V30 31912 H 3177.69 2.54367 2.72265 0
M  V30 31913 H 3177.8 4.31535 2.08121 0
M  V30 31914 H 3176.16 2.25044 1.19277 0
M  V30 31915 H 3176.95 3.43298 0.0115747 0
M  V30 31916 N 3179.39 -0.470729 1.50406 0
M  V30 31917 C 3180.62 -1.25072 1.65444 0
M  V30 31918 C 3181.04 -1.85045 0.337645 0
M  V30 31919 O 3180.4 -1.67303 -0.698526 0
M  V30 31920 C 3180.45 -2.33493 2.74797 0
M  V30 31921 O 3179.55 -3.38145 2.36075 0
M  V30 31922 H 3178.89 -0.367941 0.552734 0
M  V30 31923 H 3181.42 -0.560143 1.96783 0
M  V30 31924 H 3181.43 -2.78799 2.97884 0
M  V30 31925 H 3180.11 -1.89213 3.70366 0
M  V30 31926 H 3178.69 -2.98548 2.23436 0
M  V30 31927 N 3180.87 -1.39989 -0.72393 0
M  V30 31928 C 3182.12 -1.38019 -1.48589 0
M  V30 31929 C 3182.45 0.0203181 -1.94189 0
M  V30 31930 O 3181.73 0.987392 -1.67573 0
M  V30 31931 C 3182.01 -2.36234 -2.71782 0
M  V30 31932 C 3181.86 -3.85274 -2.32129 0
M  V30 31933 C 3183.18 -2.32109 -3.73917 0
M  V30 31934 H 3180.3 -0.502657 -0.538985 0
M  V30 31935 H 3182.94 -1.71064 -0.826878 0
M  V30 31936 H 3181.09 -2.08185 -3.28011 0
M  V30 31937 H 3182.76 -4.24117 -1.81447 0
M  V30 31938 H 3181.01 -4.01512 -1.64227 0
M  V30 31939 H 3181.68 -4.49498 -3.20398 0
M  V30 31940 H 3184.15 -2.56934 -3.27298 0
M  V30 31941 H 3183.03 -3.0289 -4.57765 0
M  V30 31942 H 3183.29 -1.32986 -4.21624 0
M  V30 31943 N 3182.35 0.955282 -1.25348 0
M  V30 31944 C 3183.31 2.03342 -1.05757 0
M  V30 31945 C 3184.31 1.60797 -0.0106026 0
M  V30 31946 O 3185.5 1.72357 -0.252729 0
M  V30 31947 C 3182.63 3.35478 -0.605595 0
M  V30 31948 H 3183.83 2.22154 -2.01463 0
M  V30 31949 H 3181.38 1.13228 -1.07746 0
M  V30 31950 H 3182.12 3.22361 0.354097 0
M  V30 31951 H 3181.9 3.67707 -1.36141 0
M  V30 31952 H 3183.39 4.14716 -0.48994 0
M  V30 31953 N 3183.83 1.06924 1.1578 0
M  V30 31954 C 3184.78 0.679932 2.2244 0
M  V30 31955 C 3185.77 -0.307192 1.66591 0
M  V30 31956 O 3186.98 -0.17137 1.79182 0
M  V30 31957 H 3183.35 0.201778 0.724424 0
M  V30 31958 H 3185.32 1.58923 2.52559 0
M  V30 31959 C 3184.07 0.0891753 3.47586 0
M  V30 31960 H 3183.39 0.839873 3.90879 0
M  V30 31961 H 3184.83 -0.145615 4.2375 0
M  V30 31962 C 3183.29 -1.16898 3.15969 0
M  V30 31963 O 3183.82 -2.25605 3.32363 0
M  V30 31964 N 3182.03 -1.07344 2.70047 0
M  V30 31965 H 3181.58 -0.18878 2.56907 0
M  V30 31966 H 3181.53 -1.91607 2.49267 0
M  V30 31967 N 3185.31 -1.32538 0.852723 0
M  V30 31968 C 3186.55 -1.97611 0.455832 0
M  V30 31969 C 3186.88 -1.67332 -0.985586 0
M  V30 31970 O 3186.16 -0.960523 -1.69128 0
M  V30 31971 C 3186.44 -3.53365 0.693183 0
M  V30 31972 C 3186.3 -3.93282 2.18288 0
M  V30 31973 C 3187.61 -4.3985 0.148314 0
M  V30 31974 H 3184.73 -0.717809 0.167091 0
M  V30 31975 H 3187.38 -1.56952 1.07079 0
M  V30 31976 H 3185.53 -3.88129 0.169745 0
M  V30 31977 H 3187.2 -3.68706 2.77225 0
M  V30 31978 H 3185.44 -3.42511 2.66212 0
M  V30 31979 H 3186.11 -5.01817 2.29965 0
M  V30 31980 H 3188.59 -4.11811 0.595906 0
M  V30 31981 H 3187.46 -5.47821 0.34397 0
M  V30 31982 H 3187.72 -4.31799 -0.948796 0
M  V30 31983 N 3186.78 -0.610474 -1.45296 0
M  V30 31984 C 3188.03 -0.106584 -2.01819 0
M  V30 31985 C 3188.35 1.26847 -1.48104 0
M  V30 31986 O 3187.62 1.83851 -0.676444 0
M  V30 31987 H 3186.2 -0.0364113 -0.746112 0
M  V30 31988 H 3188.86 -0.792523 -1.78059 0
M  V30 31989 H 3187.96 -0.0585549 -3.12045 0
M  V30 31990 N 3188.26 1.53669 -0.349801 0
M  V30 31991 C 3189.49 2.05904 0.248656 0
M  V30 31992 C 3189.91 1.22269 1.4294 0
M  V30 31993 O 3189.27 0.23793 1.79732 0
M  V30 31994 C 3189.32 3.54955 0.635577 0
M  V30 31995 O 3188.42 3.74135 1.73483 0
M  V30 31996 H 3187.76 0.662798 0.0399361 0
M  V30 31997 H 3190.29 1.98249 -0.50583 0
M  V30 31998 H 3190.3 3.977 0.910994 0
M  V30 31999 H 3188.98 4.15275 -0.227878 0
M  V30 32000 H 3187.55 3.43292 1.4562 0
M  V30 32001 N 3189.74 0.0785709 1.57404 0
M  V30 32002 C 3190.69 -0.896528 2.09634 0
M  V30 32003 C 3191.67 -1.25447 1.00756 0
M  V30 32004 O 3192.87 -1.23232 1.27055 0
M  V30 32005 C 3189.99 -2.16165 2.66698 0
M  V30 32006 C 3189.08 -1.82988 3.82592 0
M  V30 32007 N 3189.47 -1.20291 4.91288 0
M  V30 32008 C 3187.77 -2.12697 3.92015 0
M  V30 32009 C 3188.47 -1.05357 5.72079 0
M  V30 32010 N 3187.45 -1.5655 5.2057 0
M  V30 32011 H 3191.25 -0.40757 2.9106 0
M  V30 32012 H 3188.76 -0.125126 1.61917 0
M  V30 32013 H 3190.76 -2.86947 3.02435 0
M  V30 32014 H 3189.42 -2.65642 1.8672 0
M  V30 32015 H 3190.43 -0.871727 5.10511 0
M  V30 32016 H 3187.11 -2.64504 3.23023 0
M  V30 32017 H 3188.5 -0.564567 6.69524 0
M  V30 32018 N 3191.22 -1.56389 -0.19503 0
M  V30 32019 C 3192.46 -1.82415 -0.922178 0
M  V30 32020 C 3192.82 -0.656069 -1.80443 0
M  V30 32021 O 3194.02 -0.796228 -2.56737 0
M  V30 32022 C 3192.29 -3.13465 -1.71682 0
M  V30 32023 S 3193.85 -3.60897 -2.49597 0
M  V30 32024 H 3190.67 -0.640197 -0.309304 0
M  V30 32025 H 3193.27 -1.94617 -0.185579 0
M  V30 32026 H 3191.98 -3.96494 -1.0593 0
M  V30 32027 H 3191.51 -3.04141 -2.49523 0
M  V30 32028 H 3193.52 -3.26338 -3.73788 0
M  V30 32029 N 3192.7 0.462746 -1.50653 0
M  V30 32030 C 3193.97 1.22384 -1.52583 0
M  V30 32031 C 3194.35 2.09297 -0.275299 0
M  V30 32032 O 3193.7 2.16155 0.740905 0
M  V30 32033 C 3193.91 2.04768 -2.82615 0
M  V30 32034 C 3195.26 2.62675 -3.33597 0
M  V30 32035 O 3196.28 2.15003 -2.83993 0
M  V30 32036 O 3195.14 3.49556 -4.20087 0
M  V30 32037 H 3192.24 0.555809 -0.612377 0
M  V30 32038 H 3194.78 0.473886 -1.62949 0
M  V30 32039 H 3193.55 1.40775 -3.651 0
M  V30 32040 H 3193.18 2.86881 -2.75291 0
M  V30 32041 N 3194.17 1.40371 0.716495 0
M  V30 32042 C 3195.1 1.43318 1.84343 0
M  V30 32043 C 3196.09 0.294216 1.67536 0
M  V30 32044 O 3197.27 0.502704 1.87581 0
M  V30 32045 C 3194.4 1.29414 3.22288 0
M  V30 32046 C 3193.35 2.40904 3.53765 0
M  V30 32047 C 3192.68 2.12077 4.90844 0
M  V30 32048 C 3193.98 3.83243 3.54855 0
M  V30 32049 H 3195.67 2.37629 1.82134 0
M  V30 32050 H 3193.22 1.14378 0.874853 0
M  V30 32051 H 3195.17 1.30092 4.00817 0
M  V30 32052 H 3193.9 0.315787 3.2507 0
M  V30 32053 H 3192.56 2.39474 2.77575 0
M  V30 32054 H 3192.2 1.12635 4.90227 0
M  V30 32055 H 3191.9 2.86771 5.1287 0
M  V30 32056 H 3193.43 2.14436 5.71708 0
M  V30 32057 H 3194.84 3.86502 4.23426 0
M  V30 32058 H 3193.24 4.57449 3.88408 0
M  V30 32059 H 3194.31 4.12893 2.54259 0
M  V30 32060 N 3195.65 -0.948621 1.25853 0
M  V30 32061 C 3196.88 -1.7338 1.13816 0
M  V30 32062 C 3197.3 -1.85634 -0.303582 0
M  V30 32063 O 3196.66 -1.34116 -1.21994 0
M  V30 32064 C 3196.71 -3.12235 1.80393 0
M  V30 32065 O 3195.81 -3.97799 1.08766 0
M  V30 32066 H 3195.15 -0.532236 0.397015 0
M  V30 32067 H 3197.68 -1.18863 1.66531 0
M  V30 32068 H 3197.69 -3.62664 1.86919 0
M  V30 32069 H 3196.37 -3.02632 2.85283 0
M  V30 32070 H 3194.95 -3.56256 1.10163 0
M  V30 32071 N 3197.13 -1.07536 -1.15212 0
M  V30 32072 C 3198.06 -0.718876 -2.22159 0
M  V30 32073 C 3199.04 0.294561 -1.6753 0
M  V30 32074 O 3200.23 0.166897 -1.93482 0
M  V30 32075 C 3197.36 -0.117897 -3.471 0
M  V30 32076 C 3196.31 -1.0587 -4.14699 0
M  V30 32077 C 3195.64 -0.320378 -5.33739 0
M  V30 32078 C 3196.94 -2.39311 -4.6425 0
M  V30 32079 H 3198.63 -1.61302 -2.52234 0
M  V30 32080 H 3196.18 -0.777014 -1.21237 0
M  V30 32081 H 3198.13 0.143445 -4.21156 0
M  V30 32082 H 3196.85 0.811333 -3.16362 0
M  V30 32083 H 3195.51 -1.30499 -3.42587 0
M  V30 32084 H 3195.16 0.612372 -4.99258 0
M  V30 32085 H 3194.86 -0.947483 -5.79911 0
M  V30 32086 H 3196.38 -0.0668794 -6.10563 0
M  V30 32087 H 3197.8 -2.18997 -5.29824 0
M  V30 32088 H 3196.2 -2.97633 -5.2109 0
M  V30 32089 H 3197.27 -3.01478 -3.79788 0
M  V30 32090 N 3198.61 1.32084 -0.85974 0
M  V30 32091 C 3199.56 2.28761 -0.306082 0
M  V30 32092 C 3200.53 1.55277 0.589774 0
M  V30 32093 O 3201.71 1.83475 0.5236 0
M  V30 32094 C 3198.85 3.41529 0.495196 0
M  V30 32095 C 3197.96 4.29884 -0.427023 0
M  V30 32096 C 3197.1 5.29786 0.387381 0
M  V30 32097 C 3196.14 6.09784 -0.531914 0
M  V30 32098 N 3195.27 7.0167 0.245617 0
M  V30 32099 H 3200.11 2.75508 -1.13574 0
M  V30 32100 H 3197.65 1.35545 -0.571492 0
M  V30 32101 H 3199.61 4.05637 0.975439 0
M  V30 32102 H 3198.24 2.95919 1.28964 0
M  V30 32103 H 3197.29 3.66311 -1.02568 0
M  V30 32104 H 3198.6 4.85777 -1.13234 0
M  V30 32105 H 3197.76 5.99521 0.930572 0
M  V30 32106 H 3196.5 4.74522 1.12604 0
M  V30 32107 H 3195.5 5.38949 -1.08695 0
M  V30 32108 H 3196.73 6.67133 -1.26926 0
M  V30 32109 H 3194.67 6.4883 0.967277 0
M  V30 32110 H 3194.59 7.54938 -0.400565 0
M  V30 32111 H 3195.86 7.75684 0.77037 0
M  V30 32112 N 3200.09 0.618171 1.4497 0
M  V30 32113 C 3201.34 0.11504 2.01372 0
M  V30 32114 C 3201.65 -1.26597 1.49106 0
M  V30 32115 O 3202.85 -1.8624 1.97552 0
M  V30 32116 C 3201.31 0.154946 3.59566 0
M  V30 32117 C 3200.92 1.53646 4.20829 0
M  V30 32118 C 3202.66 -0.292393 4.23492 0
M  V30 32119 C 3200.57 1.53218 5.71208 0
M  V30 32120 H 3199.5 0.03924 0.752978 0
M  V30 32121 H 3202.15 0.775061 1.66328 0
M  V30 32122 H 3200.53 -0.571932 3.91848 0
M  V30 32123 H 3201.71 2.28589 4.00105 0
M  V30 32124 H 3200.02 1.92678 3.6914 0
M  V30 32125 H 3202.62 -0.314938 5.33772 0
M  V30 32126 H 3202.96 -1.31718 3.94913 0
M  V30 32127 H 3203.49 0.381563 3.95966 0
M  V30 32128 H 3200.23 2.53491 6.04502 0
M  V30 32129 H 3199.75 0.825491 5.94092 0
M  V30 32130 H 3201.43 1.26043 6.34604 0
M  V30 32131 N 3201.56 -1.53481 0.357946 0
M  V30 32132 C 3202.98 -1.86295 -0.122905 0
M  V30 32133 C 3203.33 -1.27878 -1.48801 0
M  V30 32134 O 3202.45 -0.597864 -2.07977 0
M  V30 32135 C 3203.05 -3.3802 -0.229793 0
M  V30 32136 C 3201.61 -3.70659 -0.65489 0
M  V30 32137 C 3200.75 -2.76559 0.202587 0
M  V30 32138 H 3203.7 -1.47838 0.577023 0
M  V30 32139 H 3203.72 -3.65589 -1.05474 0
M  V30 32140 H 3203.24 -3.80508 0.763892 0
M  V30 32141 H 3201.34 -3.33724 -1.65708 0
M  V30 32142 H 3201.45 -4.77123 -0.434796 0
M  V30 32143 H 3199.81 -2.52588 -0.327344 0
M  V30 32144 H 3200.6 -3.21879 1.19367 0
M  V30 32145 N 3203.04 -0.0869173 -1.5736 0
M  V30 32146 C 3203.95 0.889364 -2.17089 0
M  V30 32147 C 3204.97 1.31617 -1.13811 0
M  V30 32148 O 3206.14 1.38577 -1.46145 0
M  V30 32149 C 3203.21 2.1334 -2.73289 0
M  V30 32150 C 3202.27 1.76157 -3.91494 0
M  V30 32151 C 3201.5 2.94629 -4.45005 0
M  V30 32152 O 3201.73 4.09109 -3.97475 0
M  V30 32153 O 3200.66 2.73569 -5.36138 0
M  V30 32154 H 3204.49 0.411223 -3.00903 0
M  V30 32155 H 3202.07 0.136988 -1.48771 0
M  V30 32156 H 3203.95 2.86261 -3.09245 0
M  V30 32157 H 3202.63 2.60222 -1.92526 0
M  V30 32158 H 3201.54 1.00441 -3.60364 0
M  V30 32159 H 3202.87 1.34044 -4.73596 0
M  V30 32160 N 3204.52 1.5649 0.186734 0
M  V30 32161 C 3205.77 1.80305 0.904045 0
M  V30 32162 C 3206.08 0.66157 1.84072 0
M  V30 32163 O 3207.29 0.784243 2.59927 0
M  V30 32164 C 3205.74 3.19434 1.658 0
M  V30 32165 C 3205.35 4.41408 0.765729 0
M  V30 32166 C 3207.1 3.52554 2.36445 0
M  V30 32167 C 3205 5.71559 1.51903 0
M  V30 32168 H 3203.93 0.672323 0.341318 0
M  V30 32169 H 3206.58 1.82826 0.157186 0
M  V30 32170 H 3204.97 3.11187 2.44905 0
M  V30 32171 H 3206.14 4.60798 0.0127415 0
M  V30 32172 H 3204.46 4.16054 0.169699 0
M  V30 32173 H 3207.05 4.47032 2.9337 0
M  V30 32174 H 3207.4 2.76696 3.11039 0
M  V30 32175 H 3207.93 3.62286 1.64298 0
M  V30 32176 H 3204.67 6.50405 0.815715 0
M  V30 32177 H 3204.19 5.56171 2.24574 0
M  V30 32178 H 3205.87 6.12972 2.07062 0
M  V30 32179 N 3206 -0.45475 1.50897 0
M  V30 32180 C 3207.22 -1.2331 1.66761 0
M  V30 32181 C 3207.65 -1.84676 0.357252 0
M  V30 32182 O 3207.01 -1.68035 -0.680742 0
M  V30 32183 C 3207.05 -2.30565 2.77258 0
M  V30 32184 O 3206.16 -3.35622 2.39648 0
M  V30 32185 H 3205.5 -0.362058 0.556606 0
M  V30 32186 H 3208.03 -0.53924 1.97366 0
M  V30 32187 H 3208.04 -2.75624 3.00825 0
M  V30 32188 H 3206.71 -1.85275 3.72352 0
M  V30 32189 H 3205.29 -2.96161 2.2659 0
M  V30 32190 N 3207.48 -1.40749 -0.709041 0
M  V30 32191 C 3208.73 -1.38684 -1.46457 0
M  V30 32192 C 3209.04 0.00558652 -1.95599 0
M  V30 32193 O 3210.24 0.14886 -2.71092 0
M  V30 32194 C 3208.7 -2.43775 -2.64767 0
M  V30 32195 C 3208.31 -3.8886 -2.22467 0
M  V30 32196 C 3210.05 -2.50827 -3.42471 0
M  V30 32197 C 3207.96 -4.85534 -3.37655 0
M  V30 32198 H 3206.89 -0.515688 -0.550075 0
M  V30 32199 H 3209.54 -1.66515 -0.771045 0
M  V30 32200 H 3207.92 -2.09054 -3.36322 0
M  V30 32201 H 3209.1 -4.3276 -1.5829 0
M  V30 32202 H 3207.41 -3.85345 -1.57791 0
M  V30 32203 H 3210.01 -3.20239 -4.28195 0
M  V30 32204 H 3210.35 -1.54083 -3.86735 0
M  V30 32205 H 3210.88 -2.84572 -2.77964 0
M  V30 32206 H 3207.62 -5.83634 -2.98416 0
M  V30 32207 H 3207.14 -4.46294 -4.00726 0
M  V30 32208 H 3208.82 -5.05662 -4.03628 0
M  V30 32209 N 3208.96 0.941933 -1.26354 0
M  V30 32210 C 3209.89 2.0443 -1.03638 0
M  V30 32211 C 3210.9 1.628 0.00293003 0
M  V30 32212 O 3212.09 1.76919 -0.23706 0
M  V30 32213 C 3209.19 3.34452 -0.547289 0
M  V30 32214 C 3208.36 4.04854 -1.65566 0
M  V30 32215 C 3207.42 5.13147 -1.16475 0
M  V30 32216 O 3206.45 5.37894 -1.86168 0
M  V30 32217 N 3207.65 5.80499 -0.0127723 0
M  V30 32218 H 3210.41 2.24484 -1.98562 0
M  V30 32219 H 3207.98 1.11136 -1.1773 0
M  V30 32220 H 3209.97 4.0419 -0.203075 0
M  V30 32221 H 3208.54 3.11076 0.308346 0
M  V30 32222 H 3207.76 3.29041 -2.17085 0
M  V30 32223 H 3209.05 4.48643 -2.39993 0
M  V30 32224 H 3208.44 5.62829 0.569259 0
M  V30 32225 H 3207 6.51231 0.272372 0
M  V30 32226 N 3210.43 1.08146 1.1464 0
M  V30 32227 C 3211.71 0.722352 1.81773 0
M  V30 32228 C 3212.09 -0.79426 1.95588 0
M  V30 32229 O 3211.44 -1.71176 1.51364 0
M  V30 32230 C 3211.65 1.44617 3.17627 0
M  V30 32231 C 3213 1.6035 3.93158 0
M  V30 32232 O 3214.02 1.40761 3.27208 0
M  V30 32233 O 3212.88 1.92649 5.11418 0
M  V30 32234 H 3209.97 0.257992 0.785728 0
M  V30 32235 H 3212.52 1.18287 1.21681 0
M  V30 32236 H 3211.29 2.47946 3.02719 0
M  V30 32237 H 3210.91 0.97696 3.8541 0
M  V30 32238 N 3211.91 -1.31626 0.866732 0
M  V30 32239 C 3212.84 -2.26658 0.264828 0
M  V30 32240 C 3213.82 -1.50959 -0.604154 0
M  V30 32241 O 3215.01 -1.80043 -0.558293 0
M  V30 32242 C 3212.13 -3.32878 -0.625314 0
M  V30 32243 C 3211.18 -4.26153 0.171888 0
M  V30 32244 S 3212.01 -5.12629 1.54827 0
M  V30 32245 C 3213.17 -6.22366 0.66416 0
M  V30 32246 H 3213.4 -2.77362 1.0704 0
M  V30 32247 H 3210.93 -1.39342 0.665063 0
M  V30 32248 H 3212.89 -3.94549 -1.13321 0
M  V30 32249 H 3211.55 -2.80934 -1.40481 0
M  V30 32250 H 3210.75 -5.01447 -0.506606 0
M  V30 32251 H 3210.35 -3.68963 0.611769 0
M  V30 32252 H 3212.64 -6.77382 -0.126598 0
M  V30 32253 H 3213.58 -6.94361 1.38812 0
M  V30 32254 H 3213.99 -5.64018 0.233145 0
M  V30 32255 N 3213.39 -0.62585 -1.4464 0
M  V30 32256 C 3214.62 -0.135153 -2.06458 0
M  V30 32257 C 3215.03 1.18809 -1.46731 0
M  V30 32258 O 3214.39 1.72761 -0.58821 0
M  V30 32259 C 3214.44 -0.00856468 -3.61499 0
M  V30 32260 O 3214.16 -1.27947 -4.19 0
M  V30 32261 C 3215.66 0.51145 -4.4034 0
M  V30 32262 H 3212.88 -0.0772411 -0.666539 0
M  V30 32263 H 3215.43 -0.858759 -1.85595 0
M  V30 32264 H 3213.58 0.665455 -3.81642 0
M  V30 32265 H 3214 -1.1209 -5.12383 0
M  V30 32266 H 3215.47 0.549053 -5.49263 0
M  V30 32267 H 3215.95 1.53745 -4.11411 0
M  V30 32268 H 3216.55 -0.12914 -4.25104 0
M  V30 32269 N 3214.87 1.53289 -0.36608 0
M  V30 32270 C 3215.83 2.24374 0.467865 0
M  V30 32271 C 3216.83 1.25178 1.00932 0
M  V30 32272 O 3218.02 1.49451 0.894989 0
M  V30 32273 C 3215.15 2.98087 1.65399 0
M  V30 32274 H 3216.35 2.99504 -0.154157 0
M  V30 32275 H 3213.9 1.55856 -0.117778 0
M  V30 32276 H 3214.63 2.27201 2.31409 0
M  V30 32277 H 3214.42 3.7087 1.2727 0
M  V30 32278 H 3215.91 3.52123 2.24497 0
M  V30 32279 N 3216.35 0.0952613 1.57312 0
M  V30 32280 C 3217.28 -0.893641 2.11061 0
M  V30 32281 C 3218.29 -1.24592 1.04789 0
M  V30 32282 O 3219.48 -1.19901 1.32235 0
M  V30 32283 C 3216.58 -2.20268 2.57556 0
M  V30 32284 C 3215.75 -2.02571 3.87664 0
M  V30 32285 C 3214.81 -3.16989 4.20006 0
M  V30 32286 O 3213.84 -2.90945 4.89224 0
M  V30 32287 N 3215.04 -4.42763 3.75422 0
M  V30 32288 H 3217.8 -0.43458 2.96532 0
M  V30 32289 H 3215.37 -0.0898377 1.61651 0
M  V30 32290 H 3217.36 -2.95762 2.76237 0
M  V30 32291 H 3215.93 -2.57597 1.77095 0
M  V30 32292 H 3215.15 -1.11406 3.7813 0
M  V30 32293 H 3216.44 -1.88024 4.72784 0
M  V30 32294 H 3215.83 -4.66803 3.19548 0
M  V30 32295 H 3214.39 -5.15205 3.99258 0
M  V30 32296 N 3217.82 -1.56587 -0.178432 0
M  V30 32297 C 3219.07 -1.81858 -0.897531 0
M  V30 32298 C 3219.4 -0.671987 -1.82203 0
M  V30 32299 O 3218.68 0.326501 -1.9174 0
M  V30 32300 C 3218.96 -3.1748 -1.69937 0
M  V30 32301 C 3218.81 -4.42656 -0.798467 0
M  V30 32302 C 3220.13 -3.49967 -2.66854 0
M  V30 32303 H 3217.25 -0.661544 -0.324851 0
M  V30 32304 H 3219.89 -1.8929 -0.164073 0
M  V30 32305 H 3218.04 -3.11275 -2.32466 0
M  V30 32306 H 3219.72 -4.60922 -0.186599 0
M  V30 32307 H 3217.96 -4.3367 -0.106105 0
M  V30 32308 H 3218.63 -5.34086 -1.39486 0
M  V30 32309 H 3221.11 -3.56579 -2.14453 0
M  V30 32310 H 3219.98 -4.45951 -3.20029 0
M  V30 32311 H 3220.24 -2.74307 -3.4671 0
M  V30 32312 N 3219.3 0.446741 -1.51136 0
M  V30 32313 C 3220.53 1.21962 -1.67131 0
M  V30 32314 C 3220.94 1.85244 -0.364703 0
M  V30 32315 O 3220.3 1.70307 0.655878 0
M  V30 32316 C 3220.35 2.31056 -2.7802 0
M  V30 32317 O 3220.07 1.70364 -4.03618 0
M  V30 32318 C 3221.57 3.21506 -3.05203 0
M  V30 32319 H 3218.79 0.367952 -0.561117 0
M  V30 32320 H 3221.34 0.530482 -1.975 0
M  V30 32321 H 3219.49 2.95702 -2.50278 0
M  V30 32322 H 3219.91 2.42392 -4.65131 0
M  V30 32323 H 3221.38 3.94209 -3.86397 0
M  V30 32324 H 3221.86 3.81714 -2.17235 0
M  V30 32325 H 3222.46 2.62571 -3.34569 0
M  V30 32326 N 3220.78 1.41123 0.701567 0
M  V30 32327 C 3222 1.43699 1.4955 0
M  V30 32328 C 3222.43 0.0422196 1.88053 0
M  V30 32329 O 3221.79 -0.953117 1.54225 0
M  V30 32330 C 3221.84 2.34626 2.7383 0
M  V30 32331 O 3220.94 1.79917 3.71084 0
M  V30 32332 H 3220.28 0.487941 0.450344 0
M  V30 32333 H 3222.81 1.85515 0.862853 0
M  V30 32334 H 3222.82 2.50296 3.22205 0
M  V30 32335 H 3221.5 3.35973 2.45143 0
M  V30 32336 H 3220.07 1.73667 3.29991 0
M  V30 32337 N 3222.26 -0.935219 1.26852 0
M  V30 32338 C 3223.67 -1.49695 1.11572 0
M  V30 32339 C 3224.02 -1.93863 -0.301918 0
M  V30 32340 O 3223.14 -1.80475 -1.19405 0
M  V30 32341 C 3223.74 -2.72053 2.01923 0
M  V30 32342 C 3222.3 -3.24474 1.90771 0
M  V30 32343 C 3221.45 -1.97233 1.94921 0
M  V30 32344 H 3224.4 -0.750092 1.39855 0
M  V30 32345 H 3224.42 -3.46571 1.57063 0
M  V30 32346 H 3223.93 -2.39875 3.05093 0
M  V30 32347 H 3222.03 -3.61428 0.905585 0
M  V30 32348 H 3222.14 -3.91177 2.76618 0
M  V30 32349 H 3220.51 -2.13395 1.39049 0
M  V30 32350 H 3221.29 -1.67379 2.99732 0
M  V30 32351 N 3223.74 -1.08752 -1.14065 0
M  V30 32352 C 3224.96 -0.841072 -1.8958 0
M  V30 32353 C 3225.39 0.601404 -1.78227 0
M  V30 32354 O 3224.74 1.42179 -1.12493 0
M  V30 32355 C 3224.79 -1.27219 -3.37413 0
M  V30 32356 O 3223.9 -0.426318 -4.10191 0
M  V30 32357 H 3223.24 -0.305183 -0.589711 0
M  V30 32358 H 3225.77 -1.44986 -1.44361 0
M  V30 32359 H 3225.78 -1.25458 -3.88232 0
M  V30 32360 H 3224.45 -2.32274 -3.44995 0
M  V30 32361 H 3223.03 -0.50765 -3.69428 0
M  V30 32362 N 3225.21 1.31165 -0.873701 0
M  V30 32363 C 3226.46 1.96181 -0.485531 0
M  V30 32364 C 3226.78 1.69381 0.96618 0
M  V30 32365 O 3226.05 1.01124 1.67782 0
M  V30 32366 H 3224.63 0.725834 -0.17656 0
M  V30 32367 H 3227.3 1.59904 -1.11431 0
M  V30 32368 H 3226.39 3.05333 -0.646379 0
M  V30 32369 N 3226.69 0.633512 1.44307 0
M  V30 32370 C 3227.64 -0.0699852 2.30694 0
M  V30 32371 C 3228.61 -0.834422 1.4362 0
M  V30 32372 O 3229.79 -0.814983 1.72519 0
M  V30 32373 C 3226.93 -1.04397 3.2893 0
M  V30 32374 C 3226.05 -0.277703 4.31106 0
M  V30 32375 C 3225.18 -1.24372 5.16435 0
M  V30 32376 C 3224.22 -0.466747 6.10318 0
M  V30 32377 N 3223.36 -1.38335 6.88337 0
M  V30 32378 H 3228.2 0.672618 2.9031 0
M  V30 32379 H 3225.74 0.343474 1.43034 0
M  V30 32380 H 3227.69 -1.62207 3.84376 0
M  V30 32381 H 3226.32 -1.75368 2.71009 0
M  V30 32382 H 3225.38 0.416358 3.78115 0
M  V30 32383 H 3226.69 0.327339 4.97725 0
M  V30 32384 H 3225.84 -1.89308 5.76409 0
M  V30 32385 H 3224.58 -1.88268 4.49896 0
M  V30 32386 H 3223.59 0.196086 5.4945 0
M  V30 32387 H 3224.81 0.167534 6.78893 0
M  V30 32388 H 3222.76 -2.00948 6.24465 0
M  V30 32389 H 3222.67 -0.832385 7.51404 0
M  V30 32390 H 3223.94 -2.02147 7.52833 0
M  V30 32391 N 3228.17 -1.53093 0.374204 0
M  V30 32392 C 3229.4 -2.05798 -0.213289 0
M  V30 32393 C 3229.81 -1.24708 -1.41751 0
M  V30 32394 O 3229.17 -0.2899 -1.80183 0
M  V30 32395 C 3229.22 -3.56514 -0.598305 0
M  V30 32396 O 3228.94 -4.34531 0.55806 0
M  V30 32397 C 3230.44 -4.25509 -1.24327 0
M  V30 32398 H 3227.66 -0.670048 -0.0357281 0
M  V30 32399 H 3230.21 -1.97376 0.535069 0
M  V30 32400 H 3228.36 -3.65059 -1.29657 0
M  V30 32401 H 3228.78 -5.23927 0.245003 0
M  V30 32402 H 3230.25 -5.32255 -1.46316 0
M  V30 32403 H 3230.73 -3.7977 -2.20616 0
M  V30 32404 H 3231.33 -4.21241 -0.586195 0
M  V30 32405 N 3229.65 -0.103603 -1.57259 0
M  V30 32406 C 3230.6 0.863064 -2.11034 0
M  V30 32407 C 3231.58 1.23829 -1.02739 0
M  V30 32408 O 3232.77 1.21195 -1.28999 0
M  V30 32409 C 3229.9 2.11894 -2.70103 0
M  V30 32410 C 3228.99 1.76878 -3.85454 0
M  V30 32411 N 3229.38 1.1246 -4.93139 0
M  V30 32412 C 3227.68 2.06434 -3.95349 0
M  V30 32413 C 3228.38 0.962426 -5.73683 0
M  V30 32414 N 3227.36 1.48248 -5.22995 0
M  V30 32415 H 3231.16 0.361213 -2.91672 0
M  V30 32416 H 3228.67 0.0993509 -1.62096 0
M  V30 32417 H 3230.67 2.82099 -3.06962 0
M  V30 32418 H 3229.33 2.62638 -1.90923 0
M  V30 32419 H 3230.34 0.790399 -5.11833 0
M  V30 32420 H 3227.02 2.59332 -3.2719 0
M  V30 32421 H 3228.41 0.45798 -6.70337 0
M  V30 32422 N 3231.13 1.56679 0.170126 0
M  V30 32423 C 3232.04 1.99737 1.23054 0
M  V30 32424 C 3233.05 0.908938 1.48372 0
M  V30 32425 O 3234.23 1.21666 1.60497 0
M  V30 32426 C 3231.29 2.3496 2.5494 0
M  V30 32427 C 3230.35 3.57638 2.37474 0
M  V30 32428 C 3229.59 3.91172 3.63071 0
M  V30 32429 O 3229.81 3.25658 4.68298 0
M  V30 32430 O 3228.74 4.84516 3.5711 0
M  V30 32431 H 3232.57 2.90211 0.895053 0
M  V30 32432 H 3230.16 1.44563 0.377084 0
M  V30 32433 H 3232.04 2.5858 3.32738 0
M  V30 32434 H 3230.71 1.47648 2.88065 0
M  V30 32435 H 3229.62 3.39235 1.57703 0
M  V30 32436 H 3230.95 4.45495 2.09273 0
M  V30 32437 N 3232.6 -0.43872 1.5137 0
M  V30 32438 C 3233.57 -1.51493 1.71996 0
M  V30 32439 C 3234.57 -1.49585 0.590005 0
M  V30 32440 O 3235.76 -1.51631 0.857532 0
M  V30 32441 C 3232.89 -2.91036 1.77513 0
M  V30 32442 H 3234.08 -1.34509 2.68043 0
M  V30 32443 H 3231.64 -0.667302 1.41339 0
M  V30 32444 H 3232.37 -3.13426 0.832754 0
M  V30 32445 H 3232.16 -2.93826 2.59632 0
M  V30 32446 H 3233.65 -3.6911 1.95314 0
M  V30 32447 N 3234.08 -1.41493 -0.694073 0
M  V30 32448 C 3234.99 -1.45821 -1.83775 0
M  V30 32449 C 3236.01 -0.348669 -1.70471 0
M  V30 32450 O 3237.18 -0.596621 -1.9236 0
M  V30 32451 C 3234.25 -1.33973 -3.19769 0
M  V30 32452 C 3233.31 -2.55256 -3.45171 0
M  V30 32453 C 3232.54 -2.43963 -4.74676 0
M  V30 32454 O 3232.77 -1.46501 -5.51265 0
M  V30 32455 O 3231.7 -3.33748 -5.00895 0
M  V30 32456 H 3235.53 -2.42313 -1.8308 0
M  V30 32457 H 3233.11 -1.23048 -0.847328 0
M  V30 32458 H 3234.99 -1.29655 -4.00958 0
M  V30 32459 H 3233.67 -0.405982 -3.21144 0
M  V30 32460 H 3232.58 -2.6515 -2.63906 0
M  V30 32461 H 3233.91 -3.47464 -3.48611 0
M  V30 32462 N 3235.56 0.928479 -1.27346 0
M  V30 32463 C 3236.81 1.67059 -1.13022 0
M  V30 32464 C 3237.12 1.92905 0.32358 0
M  V30 32465 O 3238.33 2.65063 0.587705 0
M  V30 32466 C 3236.78 3.00884 -1.97477 0
M  V30 32467 C 3236.39 2.82739 -3.47509 0
M  V30 32468 C 3238.14 3.787 -1.91798 0
M  V30 32469 C 3236.04 4.12114 -4.24165 0
M  V30 32470 H 3234.97 0.62661 -0.419375 0
M  V30 32471 H 3237.62 1.03155 -1.5176 0
M  V30 32472 H 3236.01 3.6584 -1.51582 0
M  V30 32473 H 3237.18 2.26555 -4.0126 0
M  V30 32474 H 3235.5 2.18353 -3.54557 0
M  V30 32475 H 3238.09 4.7457 -2.46347 0
M  V30 32476 H 3238.44 4.06643 -0.891446 0
M  V30 32477 H 3238.97 3.20539 -2.35584 0
M  V30 32478 H 3235.71 3.8935 -5.27339 0
M  V30 32479 H 3235.23 4.67965 -3.75191 0
M  V30 32480 H 3236.91 4.80482 -4.33297 0
M  V30 32481 N 3237.04 1.09355 1.13486 0
M  V30 32482 C 3238.28 0.830387 1.8502 0
M  V30 32483 C 3238.62 -0.642387 1.83268 0
M  V30 32484 O 3237.89 -1.47291 1.27026 0
M  V30 32485 C 3238.18 1.36527 3.33215 0
M  V30 32486 C 3238.03 2.9041 3.43486 0
M  V30 32487 C 3239.35 0.998457 4.28624 0
M  V30 32488 H 3236.47 0.303117 0.671781 0
M  V30 32489 H 3239.11 1.35483 1.33208 0
M  V30 32490 H 3237.26 0.919184 3.7747 0
M  V30 32491 H 3238.93 3.43462 3.07948 0
M  V30 32492 H 3237.17 3.27578 2.84385 0
M  V30 32493 H 3237.84 3.22912 4.47696 0
M  V30 32494 H 3240.32 1.38318 3.92438 0
M  V30 32495 H 3239.2 1.39978 5.30752 0
M  V30 32496 H 3239.46 -0.0934393 4.42001 0
M  V30 32497 N 3238.52 -1.307 0.880644 0
M  V30 32498 C 3239.43 -2.32003 0.348075 0
M  V30 32499 C 3240.44 -1.65163 -0.547479 0
M  V30 32500 O 3241.62 -1.96498 -0.441638 0
M  V30 32501 C 3238.68 -3.43991 -0.432524 0
M  V30 32502 C 3237.75 -4.26468 0.492264 0
M  V30 32503 C 3236.98 -5.33109 -0.251176 0
M  V30 32504 O 3237.2 -5.50923 -1.47785 0
M  V30 32505 O 3236.14 -6.00593 0.396482 0
M  V30 32506 H 3239.96 -2.79499 1.18803 0
M  V30 32507 H 3237.55 -1.34791 0.644344 0
M  V30 32508 H 3239.43 -4.12223 -0.87466 0
M  V30 32509 H 3238.1 -2.98639 -1.24885 0
M  V30 32510 H 3237.01 -3.60951 0.983122 0
M  V30 32511 H 3238.34 -4.75413 1.27448 0
M  V30 32512 N 3240 -0.641156 -1.43969 0
M  V30 32513 C 3241.24 -0.149369 -2.01547 0
M  V30 32514 C 3241.56 1.23677 -1.50762 0
M  V30 32515 O 3240.83 1.82374 -0.715289 0
M  V30 32516 H 3239.41 -0.0522292 -0.745172 0
M  V30 32517 H 3242.08 -0.830113 -1.76338 0
M  V30 32518 H 3241.17 -0.124731 -3.11851 0
M  V30 32519 N 3241.47 1.52892 -0.382318 0
M  V30 32520 C 3242.38 2.29972 0.463705 0
M  V30 32521 C 3243.4 1.36604 1.07774 0
M  V30 32522 O 3244.58 1.69671 1.08507 0
M  V30 32523 C 3241.64 3.08639 1.57932 0
M  V30 32524 C 3240.7 4.17703 0.991109 0
M  V30 32525 C 3239.93 4.9261 2.05356 0
M  V30 32526 O 3240.16 4.67538 3.26749 0
M  V30 32527 O 3239.09 5.78131 1.67477 0
M  V30 32528 H 3242.92 3.03257 -0.164016 0
M  V30 32529 H 3240.5 1.48683 -0.146225 0
M  V30 32530 H 3242.38 3.5771 2.22758 0
M  V30 32531 H 3241.06 2.38174 2.19214 0
M  V30 32532 H 3239.97 3.72844 0.306299 0
M  V30 32533 H 3241.3 4.90382 0.422613 0
M  V30 32534 N 3242.95 0.111941 1.57202 0
M  V30 32535 C 3243.9 -0.858248 2.16187 0
M  V30 32536 C 3244.89 -1.28037 1.10919 0
M  V30 32537 O 3246.1 -1.25293 1.29235 0
M  V30 32538 H 3242.47 -0.294858 0.691782 0
M  V30 32539 H 3244.45 -0.336213 2.965 0
M  V30 32540 C 3243.19 -2.10122 2.77027 0
M  V30 32541 H 3242.52 -1.78533 3.57723 0
M  V30 32542 H 3243.96 -2.76027 3.21846 0
M  V30 32543 C 3242.42 -2.88635 1.73757 0
M  V30 32544 O 3242.95 -3.83772 1.18666 0
M  V30 32545 N 3241.15 -2.52493 1.4386 0
M  V30 32546 H 3240.7 -1.75196 1.88849 0
M  V30 32547 H 3240.66 -3.05322 0.750039 0
M  V30 32548 N 3244.43 -1.56767 -0.161814 0
M  V30 32549 C 3245.38 -1.93554 -1.20502 0
M  V30 32550 C 3246.36 -0.804977 -1.39316 0
M  V30 32551 O 3247.56 -1.06828 -1.41127 0
M  V30 32552 C 3244.68 -2.30706 -2.54223 0
M  V30 32553 C 3243.77 -3.50299 -2.39064 0
M  V30 32554 N 3244.16 -4.67268 -1.93634 0
M  V30 32555 C 3242.46 -3.55092 -2.69862 0
M  V30 32556 C 3243.16 -5.49391 -1.91166 0
M  V30 32557 N 3242.14 -4.90693 -2.33926 0
M  V30 32558 H 3245.94 -2.81471 -0.845637 0
M  V30 32559 H 3243.45 -1.58129 -0.370007 0
M  V30 32560 H 3245.45 -2.5526 -3.29618 0
M  V30 32561 H 3244.11 -1.44133 -2.90957 0
M  V30 32562 H 3245.12 -4.91306 -1.63826 0
M  V30 32563 H 3241.8 -2.79021 -3.10569 0
M  V30 32564 H 3243.19 -6.53141 -1.57659 0
M  V30 32565 N 3245.91 0.430686 -1.51601 0
M  V30 32566 C 3247.14 1.20182 -1.68416 0
M  V30 32567 C 3247.55 1.84847 -0.38433 0
M  V30 32568 O 3246.91 1.70993 0.637778 0
M  V30 32569 C 3246.96 2.28095 -2.80455 0
M  V30 32570 O 3246.68 1.66074 -4.05402 0
M  V30 32571 C 3248.18 3.18251 -3.08596 0
M  V30 32572 H 3245.4 0.36198 -0.564988 0
M  V30 32573 H 3247.94 0.509505 -1.98051 0
M  V30 32574 H 3246.1 2.93031 -2.534 0
M  V30 32575 H 3246.51 2.37445 -4.67675 0
M  V30 32576 H 3247.99 3.90089 -3.90557 0
M  V30 32577 H 3248.46 3.79389 -2.21271 0
M  V30 32578 H 3249.07 2.59008 -3.37335 0
M  V30 32579 N 3247.39 1.4186 0.686559 0
M  V30 32580 C 3248.62 1.44864 1.47302 0
M  V30 32581 C 3249.02 0.0549619 1.8912 0
M  V30 32582 O 3248.37 -0.938073 1.57943 0
M  V30 32583 C 3248.43 2.30233 2.76103 0
M  V30 32584 C 3248.09 3.78274 2.56433 0
M  V30 32585 C 3249.09 4.70216 2.21795 0
M  V30 32586 C 3246.77 4.22414 2.71794 0
M  V30 32587 C 3248.77 6.04288 2.02768 0
M  V30 32588 C 3246.46 5.56548 2.52383 0
M  V30 32589 C 3247.45 6.47302 2.17921 0
M  V30 32590 O 3247.14 7.7896 1.98688 0
M  V30 32591 H 3246.87 0.495201 0.460166 0
M  V30 32592 H 3249.43 1.86894 0.852036 0
M  V30 32593 H 3247.66 1.83032 3.40641 0
M  V30 32594 H 3249.35 2.24832 3.37943 0
M  V30 32595 H 3250.11 4.37402 2.09535 0
M  V30 32596 H 3245.99 3.52074 2.97598 0
M  V30 32597 H 3249.54 6.75087 1.75793 0
M  V30 32598 H 3245.43 5.88939 2.64236 0
M  V30 32599 H 3246.2 7.90197 2.13379 0
M  V30 32600 N 3248.86 -0.921712 1.27837 0
M  V30 32601 C 3250.1 -1.68455 1.15769 0
M  V30 32602 C 3250.47 -1.89789 -0.290509 0
M  V30 32603 O 3251.67 -2.63448 -0.533733 0
M  V30 32604 C 3249.94 -3.01067 1.92597 0
M  V30 32605 S 3251.5 -3.92187 1.96811 0
M  V30 32606 H 3248.32 -0.578622 0.41318 0
M  V30 32607 H 3250.92 -1.09691 1.61828 0
M  V30 32608 H 3249.62 -2.83235 2.96996 0
M  V30 32609 H 3249.15 -3.64881 1.47056 0
M  V30 32610 H 3251.17 -4.84551 1.06886 0
M  V30 32611 N 3250.34 -1.09956 -1.12905 0
M  V30 32612 C 3251.59 -0.833794 -1.83659 0
M  V30 32613 C 3251.9 0.642765 -1.84737 0
M  V30 32614 O 3253.11 1.02426 -2.51438 0
M  V30 32615 C 3251.57 -1.44174 -3.2976 0
M  V30 32616 C 3251.17 -2.95123 -3.37055 0
M  V30 32617 C 3252.92 -1.25516 -4.05519 0
M  V30 32618 C 3250.82 -3.48977 -4.77461 0
M  V30 32619 H 3249.75 -0.308254 -0.68811 0
M  V30 32620 H 3252.41 -1.32294 -1.27164 0
M  V30 32621 H 3250.79 -0.880283 -3.86092 0
M  V30 32622 H 3251.96 -3.57542 -2.90689 0
M  V30 32623 H 3250.28 -3.12879 -2.74765 0
M  V30 32624 H 3252.87 -1.632 -5.09186 0
M  V30 32625 H 3253.22 -0.196281 -4.15837 0
M  V30 32626 H 3253.75 -1.78442 -3.55533 0
M  V30 32627 H 3250.49 -4.54509 -4.72336 0
M  V30 32628 H 3250.01 -2.91324 -5.243 0
M  V30 32629 H 3251.69 -3.46505 -5.46391 0
M  V30 32630 N 3251.82 1.30231 -0.887563 0
M  V30 32631 C 3253.24 1.48613 -0.581931 0
M  V30 32632 C 3253.44 1.81284 0.879679 0
M  V30 32633 O 3252.49 1.90201 1.66072 0
M  V30 32634 C 3253.8 2.6077 -1.49731 0
M  V30 32635 C 3255.35 2.7465 -1.50121 0
M  V30 32636 C 3255.83 3.89923 -2.40258 0
M  V30 32637 N 3257.32 3.97238 -2.38236 0
M  V30 32638 C 3258.05 4.85748 -3.0469 0
M  V30 32639 N 3257.55 5.79037 -3.80379 0
M  V30 32640 N 3259.34 4.79139 -2.93909 0
M  V30 32641 H 3251.49 1.07297 -1.83306 0
M  V30 32642 H 3253.76 0.531813 -0.78478 0
M  V30 32643 H 3253.46 2.43457 -2.53814 0
M  V30 32644 H 3253.34 3.57306 -1.2088 0
M  V30 32645 H 3255.72 2.91367 -0.467883 0
M  V30 32646 H 3255.8 1.78727 -1.83004 0
M  V30 32647 H 3255.45 3.73963 -3.43678 0
M  V30 32648 H 3255.38 4.8519 -2.04691 0
M  V30 32649 H 3257.87 3.30505 -1.83235 0
M  V30 32650 H 3258.18 6.43343 -4.28171 0
M  V30 32651 H 3256.53 5.7896 -3.84487 0
M  V30 32652 H 3259.72 4.0524 -2.34303 0
M  V30 32653 H 3259.89 5.47909 -3.45976 0
M  V30 32654 N 3253.3 0.648782 1.43627 0
M  V30 32655 C 3254.55 0.160372 2.01864 0
M  V30 32656 C 3254.87 -1.22409 1.5115 0
M  V30 32657 O 3254.13 -1.83012 0.6932 0
M  V30 32658 C 3254.43 0.115345 3.57214 0
M  V30 32659 C 3254.09 1.44096 4.27256 0
M  V30 32660 C 3252.76 1.80397 4.46106 0
M  V30 32661 C 3255.11 2.31516 4.66958 0
M  V30 32662 C 3252.44 3.03794 5.01922 0
M  V30 32663 C 3254.79 3.542 5.24142 0
M  V30 32664 C 3253.45 3.90703 5.41209 0
M  V30 32665 H 3252.72 0.0586842 0.738673 0
M  V30 32666 H 3255.37 0.838609 1.72162 0
M  V30 32667 H 3253.67 -0.646327 3.86432 0
M  V30 32668 H 3255.37 -0.279355 4.00026 0
M  V30 32669 H 3251.96 1.14849 4.12926 0
M  V30 32670 H 3256.14 2.04761 4.52091 0
M  V30 32671 H 3251.4 3.32131 5.13322 0
M  V30 32672 H 3255.57 4.22161 5.53853 0
M  V30 32673 H 3253.2 4.864 5.84225 0
M  V30 32674 N 3254.78 -1.52688 0.390421 0
M  V30 32675 C 3256.02 -2.01892 -0.191693 0
M  V30 32676 C 3256.36 -1.27633 -1.46367 0
M  V30 32677 O 3255.63 -0.377127 -1.90809 0
M  V30 32678 C 3255.91 -3.57169 -0.458473 0
M  V30 32679 C 3255.77 -4.42097 0.828874 0
M  V30 32680 C 3257.09 -4.22016 -1.24862 0
M  V30 32681 H 3254.2 -0.733838 -0.0681962 0
M  V30 32682 H 3256.85 -1.8274 0.520208 0
M  V30 32683 H 3255 -3.7362 -1.06492 0
M  V30 32684 H 3256.67 -4.37396 1.46569 0
M  V30 32685 H 3254.91 -4.09063 1.44395 0
M  V30 32686 H 3255.58 -5.48764 0.596842 0
M  V30 32687 H 3258.06 -4.0955 -0.73538 0
M  V30 32688 H 3256.93 -5.30639 -1.40403 0
M  V30 32689 H 3257.2 -3.79723 -2.26413 0
M  V30 32690 N 3256.25 -0.120276 -1.5714 0
M  V30 32691 C 3257.67 0.404899 -1.82257 0
M  V30 32692 C 3258.02 1.66524 -1.03751 0
M  V30 32693 O 3257.14 2.14652 -0.274493 0
M  V30 32694 C 3257.74 0.741373 -3.30589 0
M  V30 32695 C 3256.3 1.21118 -3.56381 0
M  V30 32696 C 3255.44 0.220521 -2.76422 0
M  V30 32697 H 3258.39 -0.345388 -1.54896 0
M  V30 32698 H 3258.41 1.59866 -3.45287 0
M  V30 32699 H 3257.93 -0.176105 -3.877 0
M  V30 32700 H 3256.03 2.14551 -3.04629 0
M  V30 32701 H 3256.14 1.15562 -4.64954 0
M  V30 32702 H 3254.5 0.707814 -2.44667 0
M  V30 32703 H 3255.29 -0.690077 -3.36293 0
M  V30 32704 N 3257.73 1.56851 0.153498 0
M  V30 32705 C 3258.7 1.96875 1.17358 0
M  V30 32706 C 3259.7 0.85448 1.36218 0
M  V30 32707 O 3260.89 1.12122 1.3332 0
M  V30 32708 C 3258.02 2.27905 2.53519 0
M  V30 32709 H 3259.21 2.88175 0.830381 0
M  V30 32710 H 3256.76 1.51184 0.396606 0
M  V30 32711 H 3257.5 1.39376 2.92822 0
M  V30 32712 H 3257.28 3.09141 2.41193 0
M  V30 32713 H 3258.77 2.59731 3.27001 0
M  V30 32714 N 3259.21 -0.42264 1.51827 0
M  V30 32715 C 3260.12 -1.53896 1.77069 0
M  V30 32716 C 3261.14 -1.61178 0.65557 0
M  V30 32717 O 3262.31 -1.78145 0.939479 0
M  V30 32718 C 3259.38 -2.89754 1.90377 0
M  V30 32719 C 3258.44 -2.92469 3.14262 0
M  V30 32720 C 3257.67 -4.21848 3.26926 0
M  V30 32721 O 3257.89 -5.15021 2.45173 0
M  V30 32722 O 3256.83 -4.31145 4.19997 0
M  V30 32723 H 3260.65 -1.35506 2.71794 0
M  V30 32724 H 3258.24 -0.607141 1.36507 0
M  V30 32725 H 3260.12 -3.70357 2.01031 0
M  V30 32726 H 3258.8 -3.08241 0.988402 0
M  V30 32727 H 3257.7 -2.10768 3.09075 0
M  V30 32728 H 3259.04 -2.7893 4.05535 0
M  V30 32729 N 3260.69 -1.42222 -0.679027 0
M  V30 32730 C 3261.62 -1.39797 -1.80366 0
M  V30 32731 C 3262.6 -0.262834 -1.60462 0
M  V30 32732 O 3263.78 -0.452384 -1.82991 0
M  V30 32733 C 3260.91 -1.18477 -3.17303 0
M  V30 32734 C 3259.96 -2.34928 -3.55965 0
M  V30 32735 S 3260.79 -3.97452 -3.58877 0
M  V30 32736 C 3261.95 -3.78466 -4.98512 0
M  V30 32737 H 3262.18 -2.34967 -1.82148 0
M  V30 32738 H 3259.71 -1.28943 -0.849297 0
M  V30 32739 H 3261.67 -1.06863 -3.96347 0
M  V30 32740 H 3260.33 -0.248999 -3.13111 0
M  V30 32741 H 3259.52 -2.15748 -4.55488 0
M  V30 32742 H 3259.13 -2.43035 -2.84271 0
M  V30 32743 H 3261.42 -3.39195 -5.86475 0
M  V30 32744 H 3262.36 -4.7765 -5.22739 0
M  V30 32745 H 3262.77 -3.11414 -4.70831 0
M  V30 32746 N 3262.17 0.91492 -1.28324 0
M  V30 32747 C 3263.41 1.66065 -1.15182 0
M  V30 32748 C 3263.74 1.92675 0.300245 0
M  V30 32749 O 3263.01 1.54207 1.20818 0
M  V30 32750 H 3261.59 0.615506 -0.423275 0
M  V30 32751 H 3264.25 1.09789 -1.61036 0
M  V30 32752 H 3263.34 2.6235 -1.69053 0
M  V30 32753 N 3263.64 1.10553 1.1232 0
M  V30 32754 C 3264.87 0.870903 1.87678 0
M  V30 32755 C 3265.29 -0.578702 1.79712 0
M  V30 32756 O 3264.64 -1.39905 1.17188 0
M  V30 32757 C 3264.7 1.31219 3.36844 0
M  V30 32758 O 3264.42 2.70495 3.44621 0
M  V30 32759 C 3265.92 1.11164 4.29136 0
M  V30 32760 H 3263.14 0.312511 0.593783 0
M  V30 32761 H 3265.68 1.47051 1.42114 0
M  V30 32762 H 3263.84 0.756236 3.79947 0
M  V30 32763 H 3264.25 2.89397 4.37436 0
M  V30 32764 H 3265.72 1.46954 5.3208 0
M  V30 32765 H 3266.2 0.0503735 4.39171 0
M  V30 32766 H 3266.81 1.65412 3.91815 0
M  V30 32767 N 3265.12 -1.29758 0.894457 0
M  V30 32768 C 3266.07 -2.25456 0.33965 0
M  V30 32769 C 3267.06 -1.51664 -0.5373 0
M  V30 32770 O 3268.25 -1.72869 -0.380174 0
M  V30 32771 C 3265.38 -3.40515 -0.436434 0
M  V30 32772 C 3264.46 -4.21651 0.455139 0
M  V30 32773 N 3264.85 -4.81143 1.55996 0
M  V30 32774 C 3263.15 -4.45288 0.251972 0
M  V30 32775 C 3263.85 -5.42013 2.11179 0
M  V30 32776 N 3262.83 -5.25116 1.4055 0
M  V30 32777 H 3266.63 -2.69009 1.1837 0
M  V30 32778 H 3264.15 -1.44308 0.744921 0
M  V30 32779 H 3266.14 -4.0813 -0.850606 0
M  V30 32780 H 3264.8 -2.985 -1.27781 0
M  V30 32781 H 3265.81 -4.80081 1.94275 0
M  V30 32782 H 3262.49 -4.13842 -0.551463 0
M  V30 32783 H 3263.88 -5.99189 3.0401 0
M  V30 32784 N 3266.6 -0.65639 -1.4328 0
M  V30 32785 C 3267.83 -0.178915 -2.06125 0
M  V30 32786 C 3268.24 1.1567 -1.49218 0
M  V30 32787 O 3267.6 1.71474 -0.624723 0
M  V30 32788 C 3267.65 -0.085242 -3.61399 0
M  V30 32789 O 3267.37 -1.36806 -4.16192 0
M  V30 32790 C 3268.87 0.417932 -4.41326 0
M  V30 32791 H 3266.09 -0.091362 -0.664751 0
M  V30 32792 H 3268.64 -0.897933 -1.83732 0
M  V30 32793 H 3266.79 0.584353 -3.82967 0
M  V30 32794 H 3267.21 -1.22933 -5.0989 0
M  V30 32795 H 3268.68 0.432422 -5.50304 0
M  V30 32796 H 3269.16 1.44983 -4.1458 0
M  V30 32797 H 3269.76 -0.219282 -4.24734 0
M  V30 32798 N 3268.08 1.52478 -0.398513 0
M  V30 32799 C 3269.33 2.01991 0.180984 0
M  V30 32800 C 3269.66 1.28408 1.45688 0
M  V30 32801 O 3268.93 0.387241 1.90606 0
M  V30 32802 C 3269.22 3.57408 0.439525 0
M  V30 32803 C 3269.07 4.41651 -0.852308 0
M  V30 32804 C 3270.39 4.22672 1.22623 0
M  V30 32805 H 3267.51 0.734189 0.0643035 0
M  V30 32806 H 3270.15 1.82461 -0.529892 0
M  V30 32807 H 3268.3 3.74179 1.04509 0
M  V30 32808 H 3269.97 4.36612 -1.48887 0
M  V30 32809 H 3268.21 4.08292 -1.46562 0
M  V30 32810 H 3268.89 5.4844 -0.625936 0
M  V30 32811 H 3271.36 4.09934 0.71365 0
M  V30 32812 H 3270.24 5.31377 1.37587 0
M  V30 32813 H 3270.5 3.80918 2.24396 0
M  V30 32814 N 3269.56 0.128608 1.57074 0
M  V30 32815 C 3270.78 -0.537804 2.00306 0
M  V30 32816 C 3271.21 -1.58818 1.0079 0
M  V30 32817 O 3270.57 -1.8129 -0.019052 0
M  V30 32818 C 3270.61 -1.13195 3.42373 0
M  V30 32819 O 3269.72 -2.24729 3.4579 0
M  V30 32820 H 3269.06 -0.133416 0.650458 0
M  V30 32821 H 3271.59 0.219918 2.03415 0
M  V30 32822 H 3271.6 -1.46513 3.80786 0
M  V30 32823 H 3270.27 -0.362641 4.14316 0
M  V30 32824 H 3268.85 -1.92777 3.19204 0
M  V30 32825 N 3271.04 -1.5693 -0.145178 0
M  V30 32826 C 3272.28 -1.83721 -0.858754 0
M  V30 32827 C 3272.61 -0.710484 -1.80737 0
M  V30 32828 O 3271.89 0.285757 -1.92389 0
M  V30 32829 C 3272.17 -3.21013 -1.63164 0
M  V30 32830 C 3272.03 -4.4425 -0.704393 0
M  V30 32831 C 3273.34 -3.55548 -2.59371 0
M  V30 32832 H 3270.46 -0.668286 -0.310746 0
M  V30 32833 H 3273.11 -1.89596 -0.123885 0
M  V30 32834 H 3271.26 -3.16136 -2.25811 0
M  V30 32835 H 3272.93 -4.61215 -0.0887889 0
M  V30 32836 H 3271.17 -4.33798 -0.014093 0
M  V30 32837 H 3271.84 -5.36924 -1.28126 0
M  V30 32838 H 3274.32 -3.61048 -2.06842 0
M  V30 32839 H 3273.19 -4.52639 -3.10498 0
M  V30 32840 H 3273.45 -2.816 -3.40814 0
M  V30 32841 N 3272.51 0.414582 -1.52049 0
M  V30 32842 C 3273.46 1.50477 -1.75001 0
M  V30 32843 C 3274.43 1.55181 -0.592278 0
M  V30 32844 O 3275.62 1.71838 -0.829234 0
M  V30 32845 C 3272.76 2.8798 -1.90162 0
M  V30 32846 C 3271.87 2.92627 -3.17794 0
M  V30 32847 C 3271 4.21395 -3.23419 0
M  V30 32848 C 3270.04 4.19996 -4.45275 0
M  V30 32849 N 3269.18 5.40326 -4.48321 0
M  V30 32850 H 3274.02 1.30208 -2.68048 0
M  V30 32851 H 3271.56 0.632131 -1.32825 0
M  V30 32852 H 3273.51 3.67794 -1.96935 0
M  V30 32853 H 3272.14 3.06756 -1.00501 0
M  V30 32854 H 3271.2 2.05338 -3.2022 0
M  V30 32855 H 3272.51 2.87458 -4.07639 0
M  V30 32856 H 3271.66 5.09598 -3.29233 0
M  V30 32857 H 3270.4 4.29252 -2.31503 0
M  V30 32858 H 3269.41 3.30184 -4.39612 0
M  V30 32859 H 3270.63 4.13784 -5.38479 0
M  V30 32860 H 3268.58 5.48862 -3.59286 0
M  V30 32861 H 3268.49 5.37129 -5.32004 0
M  V30 32862 H 3269.76 6.30498 -4.58359 0
M  V30 32863 N 3273.99 1.4258 0.671475 0
M  V30 32864 C 3275.22 1.46418 1.45757 0
M  V30 32865 C 3275.63 0.0750175 1.89051 0
M  V30 32866 O 3274.97 -0.921268 1.58929 0
M  V30 32867 C 3275.03 2.33149 2.73645 0
M  V30 32868 C 3274.7 3.80972 2.52407 0
M  V30 32869 C 3275.7 4.72542 2.16795 0
M  V30 32870 C 3273.38 4.25273 2.67298 0
M  V30 32871 C 3275.37 6.06405 1.96347 0
M  V30 32872 C 3273.06 5.59194 2.46465 0
M  V30 32873 C 3274.06 6.49576 2.11044 0
M  V30 32874 O 3273.75 7.81023 1.90414 0
M  V30 32875 H 3273.48 0.500053 0.454887 0
M  V30 32876 H 3276.03 1.87788 0.832165 0
M  V30 32877 H 3274.26 1.86635 3.3868 0
M  V30 32878 H 3275.95 2.28404 3.35539 0
M  V30 32879 H 3276.72 4.39599 2.04884 0
M  V30 32880 H 3272.6 3.55211 2.93847 0
M  V30 32881 H 3276.14 6.76914 1.68623 0
M  V30 32882 H 3272.04 5.91709 2.57975 0
M  V30 32883 H 3272.81 7.92416 2.04986 0
M  V30 32884 N 3275.47 -0.908102 1.28807 0
M  V30 32885 C 3276.42 -2.01123 1.13218 0
M  V30 32886 C 3277.39 -1.66077 0.0277649 0
M  V30 32887 O 3278.57 -1.89814 0.193741 0
M  V30 32888 C 3275.71 -3.35557 0.805946 0
M  V30 32889 C 3274.82 -3.83438 1.98997 0
M  V30 32890 C 3273.96 -5.06409 1.60385 0
M  V30 32891 C 3273 -5.46636 2.75418 0
M  V30 32892 N 3272.14 -6.60796 2.37261 0
M  V30 32893 H 3276.98 -2.13789 2.07602 0
M  V30 32894 H 3274.51 -1.04708 1.03318 0
M  V30 32895 H 3276.47 -4.12899 0.597524 0
M  V30 32896 H 3275.1 -3.22642 -0.100966 0
M  V30 32897 H 3274.15 -3.02204 2.31035 0
M  V30 32898 H 3275.46 -4.09207 2.85221 0
M  V30 32899 H 3274.62 -5.9131 1.35782 0
M  V30 32900 H 3273.36 -4.8246 0.712972 0
M  V30 32901 H 3272.36 -4.60273 3.00713 0
M  V30 32902 H 3273.59 -5.7257 3.65158 0
M  V30 32903 H 3271.53 -6.38467 1.50649 0
M  V30 32904 H 3271.45 -6.86319 3.1702 0
M  V30 32905 H 3272.72 -7.48988 2.15956 0
M  V30 32906 N 3276.95 -1.11147 -1.11732 0
M  V30 32907 C 3278.2 -0.856749 -1.83042 0
M  V30 32908 C 3278.52 0.619375 -1.84902 0
M  V30 32909 O 3277.79 1.44987 -1.31741 0
M  V30 32910 H 3276.37 -0.313962 -0.677818 0
M  V30 32911 H 3279.03 -1.40324 -1.3526 0
M  V30 32912 H 3278.12 -1.22621 -2.87003 0
M  V30 32913 N 3278.43 1.29282 -0.901326 0
M  V30 32914 C 3279.36 2.267 -0.337592 0
M  V30 32915 C 3280.37 1.54372 0.517012 0
M  V30 32916 O 3281.56 1.75349 0.333906 0
M  V30 32917 C 3278.66 3.34616 0.537155 0
M  V30 32918 C 3277.83 4.36424 -0.292093 0
M  V30 32919 C 3276.89 5.23666 0.515745 0
M  V30 32920 O 3275.92 5.6916 -0.0673304 0
M  V30 32921 N 3277.12 5.51182 1.82149 0
M  V30 32922 H 3279.88 2.75711 -1.17489 0
M  V30 32923 H 3277.45 1.42634 -0.765982 0
M  V30 32924 H 3279.44 3.89911 1.08403 0
M  V30 32925 H 3278.01 2.8541 1.27515 0
M  V30 32926 H 3277.23 3.80765 -1.02038 0
M  V30 32927 H 3278.52 5.0148 -0.859943 0
M  V30 32928 H 3277.91 5.16032 2.31791 0
M  V30 32929 H 3276.47 6.09286 2.31545 0
M  V30 32930 N 3279.9 0.663979 1.4293 0
M  V30 32931 C 3280.85 -0.0435783 2.27958 0
M  V30 32932 C 3281.84 -0.784233 1.40494 0
M  V30 32933 O 3283.03 -0.664927 1.64036 0
M  V30 32934 C 3280.16 -1.00177 3.28359 0
M  V30 32935 C 3279.24 -0.259025 4.23308 0
M  V30 32936 N 3279.64 0.73027 5.005 0
M  V30 32937 C 3277.93 -0.498984 4.432 0
M  V30 32938 C 3278.63 1.17211 5.69769 0
M  V30 32939 N 3277.61 0.5042 5.41257 0
M  V30 32940 H 3281.41 0.715398 2.8506 0
M  V30 32941 H 3278.93 0.492144 1.54763 0
M  V30 32942 H 3280.92 -1.52355 3.88064 0
M  V30 32943 H 3279.58 -1.76069 2.72818 0
M  V30 32944 H 3280.59 1.10941 5.05878 0
M  V30 32945 H 3277.27 -1.23824 3.98715 0
M  V30 32946 H 3278.66 1.99128 6.41715 0
M  V30 32947 N 3281.38 -1.52265 0.406593 0
M  V30 32948 C 3282.63 -2.02084 -0.170269 0
M  V30 32949 C 3282.96 -1.29178 -1.45005 0
M  V30 32950 O 3282.24 -0.397344 -1.90398 0
M  V30 32951 C 3282.52 -3.57636 -0.420564 0
M  V30 32952 C 3282.37 -4.41193 0.875718 0
M  V30 32953 C 3283.69 -4.23316 -1.20379 0
M  V30 32954 H 3280.81 -0.73452 -0.060409 0
M  V30 32955 H 3283.45 -1.82178 0.539561 0
M  V30 32956 H 3281.6 -3.74728 -1.02523 0
M  V30 32957 H 3283.27 -4.35817 1.512 0
M  V30 32958 H 3281.52 -4.07509 1.48725 0
M  V30 32959 H 3282.19 -5.481 0.655012 0
M  V30 32960 H 3284.66 -4.10307 -0.6919 0
M  V30 32961 H 3283.54 -5.32099 -1.34767 0
M  V30 32962 H 3283.8 -3.82103 -2.22373 0
M  V30 32963 N 3282.86 -0.136936 -1.57004 0
M  V30 32964 C 3284.27 0.385545 -1.82676 0
M  V30 32965 C 3284.62 1.65414 -1.05511 0
M  V30 32966 O 3283.75 2.14349 -0.297245 0
M  V30 32967 C 3284.34 0.706268 -3.31357 0
M  V30 32968 C 3282.9 1.17331 -3.57646 0
M  V30 32969 C 3282.05 0.19119 -2.7664 0
M  V30 32970 H 3285 -0.361798 -1.54521 0
M  V30 32971 H 3285.02 1.56195 -3.46963 0
M  V30 32972 H 3284.53 -0.217215 -3.87492 0
M  V30 32973 H 3282.63 2.11308 -3.06887 0
M  V30 32974 H 3282.75 1.10624 -4.66154 0
M  V30 32975 H 3281.11 0.681824 -2.45404 0
M  V30 32976 H 3281.89 -0.725706 -3.35542 0
M  V30 32977 N 3284.34 1.57005 0.136853 0
M  V30 32978 C 3285.59 1.83538 0.846068 0
M  V30 32979 C 3285.91 0.719401 1.81245 0
M  V30 32980 O 3285.18 -0.258127 1.94192 0
M  V30 32981 H 3283.76 0.677134 0.315434 0
M  V30 32982 H 3286.42 1.94476 0.128435 0
M  V30 32983 H 3285.52 2.78829 1.40216 0
M  V30 32984 N 3285.82 -0.406513 1.52267 0
M  V30 32985 C 3287.04 -1.17942 1.706 0
M  V30 32986 C 3287.47 -1.83446 0.415825 0
M  V30 32987 O 3286.82 -1.70115 -0.626938 0
M  V30 32988 C 3286.87 -2.21628 2.84453 0
M  V30 32989 O 3285.98 -3.27828 2.50205 0
M  V30 32990 H 3285.32 -0.344167 0.567843 0
M  V30 32991 H 3287.85 -0.476176 1.98982 0
M  V30 32992 H 3287.86 -2.65914 3.09441 0
M  V30 32993 H 3286.53 -1.73335 3.78058 0
M  V30 32994 H 3285.11 -2.88803 2.35897 0
M  V30 32995 N 3287.29 -1.42934 -0.663904 0
M  V30 32996 C 3288.71 -1.39145 -1.24481 0
M  V30 32997 C 3289.06 -0.0901487 -1.95993 0
M  V30 32998 O 3288.18 0.810777 -2.00637 0
M  V30 32999 C 3288.78 -2.52051 -2.26398 0
M  V30 33000 C 3287.34 -2.5156 -2.7999 0
M  V30 33001 C 3286.48 -2.30291 -1.54471 0
M  V30 33002 H 3289.43 -1.5199 -0.456593 0
M  V30 33003 H 3289.45 -2.22927 -3.08357 0
M  V30 33004 H 3288.97 -3.46747 -1.74322 0
M  V30 33005 H 3287.07 -1.60713 -3.36158 0
M  V30 33006 H 3287.18 -3.4897 -3.28263 0
M  V30 33007 H 3285.54 -1.78756 -1.81434 0
M  V30 33008 H 3286.33 -3.27058 -1.04345 0
M  V30 33009 N 3288.77 0.901258 -1.29287 0
M  V30 33010 C 3290.02 1.6516 -1.17168 0
M  V30 33011 C 3290.35 1.92515 0.27715 0
M  V30 33012 O 3289.6 1.53275 1.21677 0
M  V30 33013 C 3289.9 3.00892 -1.9287 0
M  V30 33014 C 3289.57 2.93151 -3.42598 0
M  V30 33015 C 3288.23 2.90747 -3.83432 0
M  V30 33016 C 3290.58 2.82473 -4.38016 0
M  V30 33017 C 3287.91 2.75483 -5.18002 0
M  V30 33018 C 3290.26 2.68749 -5.72675 0
M  V30 33019 C 3288.93 2.6471 -6.12768 0
M  V30 33020 H 3288.2 0.604364 -0.428748 0
M  V30 33021 H 3290.84 1.04911 -1.60206 0
M  V30 33022 H 3289.15 3.64999 -1.42418 0
M  V30 33023 H 3290.84 3.57878 -1.80899 0
M  V30 33024 H 3287.43 2.95823 -3.1014 0
M  V30 33025 H 3291.62 2.83409 -4.07422 0
M  V30 33026 H 3286.87 2.70759 -5.48178 0
M  V30 33027 H 3291.05 2.59458 -6.46262 0
M  V30 33028 H 3288.68 2.5264 -7.16992 0
M  V30 33029 N 3290.25 1.11738 1.11141 0
M  V30 33030 C 3291.18 0.736364 2.17049 0
M  V30 33031 C 3292.2 -0.2335 1.61117 0
M  V30 33032 O 3293.38 -0.0159288 1.78493 0
M  V30 33033 C 3290.48 0.0680335 3.38832 0
M  V30 33034 C 3289.66 1.06551 4.24224 0
M  V30 33035 C 3288.72 0.426156 5.24472 0
M  V30 33036 O 3287.74 1.081 5.58841 0
M  V30 33037 N 3288.94 -0.80961 5.74827 0
M  V30 33038 H 3291.71 1.64763 2.50346 0
M  V30 33039 H 3289.27 1.00801 1.26692 0
M  V30 33040 H 3291.26 -0.371492 4.02991 0
M  V30 33041 H 3289.83 -0.745863 3.03571 0
M  V30 33042 H 3289.05 1.68289 3.56472 0
M  V30 33043 H 3290.34 1.74025 4.78114 0
M  V30 33044 H 3289.74 -1.36074 5.4909 0
M  V30 33045 H 3288.3 -1.19207 6.40807 0
M  V30 33046 N 3291.73 -1.28802 0.90817 0
M  V30 33047 C 3292.98 -1.9521 0.538438 0
M  V30 33048 C 3293.3 -1.71534 -0.916856 0
M  V30 33049 O 3292.56 -1.02612 -1.66641 0
M  V30 33050 C 3292.86 -3.48619 0.787389 0
M  V30 33051 C 3292.52 -3.92386 2.22136 0
M  V30 33052 C 3291.19 -4.04046 2.61343 0
M  V30 33053 C 3293.54 -4.14877 3.15478 0
M  V30 33054 C 3290.87 -4.35573 3.93056 0
M  V30 33055 C 3293.22 -4.47882 4.46749 0
M  V30 33056 C 3291.88 -4.57753 4.85817 0
M  V30 33057 H 3291.15 -0.714325 0.197028 0
M  V30 33058 H 3293.8 -1.53242 1.14844 0
M  V30 33059 H 3292.1 -3.91686 0.0945419 0
M  V30 33060 H 3293.8 -3.9811 0.480573 0
M  V30 33061 H 3290.39 -3.83832 1.90711 0
M  V30 33062 H 3294.57 -4.05327 2.86398 0
M  V30 33063 H 3289.83 -4.4142 4.23034 0
M  V30 33064 H 3294 -4.64234 5.19096 0
M  V30 33065 H 3291.63 -4.81937 5.87912 0
M  V30 33066 N 3293.21 -0.67155 -1.42576 0
M  V30 33067 C 3294.43 -0.200767 -2.05924 0
M  V30 33068 C 3294.85 1.1408 -1.50436 0
M  V30 33069 O 3294.21 1.70802 -0.642875 0
M  V30 33070 C 3294.26 -0.123568 -3.61289 0
M  V30 33071 O 3293.98 -1.41212 -4.14718 0
M  V30 33072 C 3295.48 0.3711 -4.41744 0
M  V30 33073 H 3292.7 -0.0984075 -0.663745 0
M  V30 33074 H 3295.24 -0.91737 -1.82769 0
M  V30 33075 H 3293.4 0.543702 -3.83566 0
M  V30 33076 H 3293.81 -1.28334 -5.08557 0
M  V30 33077 H 3295.29 0.374031 -5.50731 0
M  V30 33078 H 3295.76 1.40578 -4.16094 0
M  V30 33079 H 3296.37 -0.264319 -4.24478 0
M  V30 33080 N 3294.68 1.52047 -0.414663 0
M  V30 33081 C 3295.93 2.02171 0.15955 0
M  V30 33082 C 3296.26 1.29946 1.44318 0
M  V30 33083 O 3295.54 0.407435 1.90185 0
M  V30 33084 C 3295.82 3.57854 0.401592 0
M  V30 33085 C 3295.67 4.40722 -0.899103 0
M  V30 33086 C 3296.99 4.23949 1.18133 0
M  V30 33087 H 3294.11 0.73483 0.0565128 0
M  V30 33088 H 3296.75 1.81889 -0.549215 0
M  V30 33089 H 3294.9 3.75267 1.00534 0
M  V30 33090 H 3296.58 4.35009 -1.53509 0
M  V30 33091 H 3294.82 4.06714 -1.50884 0
M  V30 33092 H 3295.49 5.47745 -0.68407 0
M  V30 33093 H 3297.97 4.10668 0.670131 0
M  V30 33094 H 3296.84 5.32806 1.31943 0
M  V30 33095 H 3297.1 3.83277 2.20344 0
M  V30 33096 N 3296.16 0.145261 1.56929 0
M  V30 33097 C 3297.41 -0.505286 1.95682 0
M  V30 33098 C 3297.73 -1.65515 1.03101 0
M  V30 33099 O 3297 -1.95683 0.0922305 0
M  V30 33100 H 3295.58 -0.189655 0.722523 0
M  V30 33101 H 3298.24 0.220352 1.9365 0
M  V30 33102 H 3297.34 -0.882578 2.99361 0
M  V30 33103 N 3297.64 -1.57075 -0.128525 0
M  V30 33104 C 3299.05 -1.73613 -0.686683 0
M  V30 33105 C 3299.4 -0.76251 -1.80777 0
M  V30 33106 O 3298.53 0.0667399 -2.16297 0
M  V30 33107 C 3299.12 -3.14802 -1.25241 0
M  V30 33108 C 3297.68 -3.32879 -1.75695 0
M  V30 33109 C 3296.83 -2.69507 -0.652797 0
M  V30 33110 H 3299.78 -1.58401 0.0973137 0
M  V30 33111 H 3299.8 -3.15825 -2.12214 0
M  V30 33112 H 3299.31 -3.8564 -0.43624 0
M  V30 33113 H 3297.41 -2.67067 -2.59819 0
M  V30 33114 H 3297.53 -4.40973 -1.87295 0
M  V30 33115 H 3295.89 -2.30479 -1.08404 0
M  V30 33116 H 3296.67 -3.42962 0.15223 0
M  V30 33117 N 3299.12 0.398432 -1.5248 0
M  V30 33118 C 3300.05 1.49276 -1.79552 0
M  V30 33119 C 3301.03 1.57313 -0.647032 0
M  V30 33120 O 3302.22 1.72415 -0.893691 0
M  V30 33121 C 3299.35 2.8699 -1.95587 0
M  V30 33122 C 3298.3 2.93797 -3.11235 0
M  V30 33123 C 3297.63 4.33869 -3.12509 0
M  V30 33124 C 3298.93 2.64304 -4.50489 0
M  V30 33125 H 3300.62 1.26872 -2.7119 0
M  V30 33126 H 3298.17 0.608901 -1.30493 0
M  V30 33127 H 3300.12 3.63542 -2.13108 0
M  V30 33128 H 3298.84 3.10711 -1.0063 0
M  V30 33129 H 3297.5 2.19691 -2.93481 0
M  V30 33130 H 3297.15 4.54615 -2.15253 0
M  V30 33131 H 3296.85 4.39346 -3.9019 0
M  V30 33132 H 3298.37 5.12341 -3.32173 0
M  V30 33133 H 3299.79 3.30576 -4.68393 0
M  V30 33134 H 3298.18 2.81144 -5.30168 0
M  V30 33135 H 3299.25 1.59688 -4.57851 0
M  V30 33136 N 3300.6 1.43284 0.656314 0
M  V30 33137 C 3301.85 1.44451 1.41345 0
M  V30 33138 C 3302.17 0.068756 1.94879 0
M  V30 33139 O 3301.44 -0.895461 1.74236 0
M  V30 33140 H 3300.02 0.531824 0.524568 0
M  V30 33141 H 3302.68 1.78861 0.77426 0
M  V30 33142 H 3301.77 2.15525 2.25733 0
M  V30 33143 N 3302.08 -0.894389 1.29763 0
M  V30 33144 C 3302.99 -2.03202 1.17244 0
M  V30 33145 C 3304 -1.73743 0.0944757 0
M  V30 33146 O 3305.18 -1.99037 0.307584 0
M  V30 33147 C 3302.24 -3.3598 0.855475 0
M  V30 33148 C 3301.3 -3.78922 2.01783 0
M  V30 33149 C 3300.54 -5.05364 1.7159 0
M  V30 33150 O 3300.76 -5.66806 0.639345 0
M  V30 33151 O 3299.69 -5.44487 2.56549 0
M  V30 33152 H 3303.52 -2.16688 2.12791 0
M  V30 33153 H 3301.1 -1.01889 1.09266 0
M  V30 33154 H 3302.99 -4.15654 0.693502 0
M  V30 33155 H 3301.66 -3.23624 -0.0701626 0
M  V30 33156 H 3300.57 -2.99992 2.23508 0
M  V30 33157 H 3301.9 -3.9587 2.92486 0
M  V30 33158 N 3303.55 -1.12326 -1.10547 0
M  V30 33159 C 3304.8 -0.876115 -1.82123 0
M  V30 33160 C 3305.12 0.599729 -1.85549 0
M  V30 33161 O 3304.39 1.43581 -1.33271 0
M  V30 33162 H 3302.97 -0.321134 -0.67445 0
M  V30 33163 H 3305.63 -1.41751 -1.33764 0
M  V30 33164 H 3304.73 -1.25658 -2.85686 0
M  V30 33165 N 3305.03 1.28319 -0.914988 0
M  V30 33166 C 3306.28 1.94537 -0.547699 0
M  V30 33167 C 3306.6 1.72369 0.911804 0
M  V30 33168 O 3305.87 1.06411 1.6448 0
M  V30 33169 H 3304.45 0.71985 -0.199562 0
M  V30 33170 H 3307.11 1.56278 -1.16462 0
M  V30 33171 H 3306.21 3.03122 -0.743191 0
M  V30 33172 N 3306.51 0.679102 1.42218 0
M  V30 33173 C 3307.47 0.0125878 2.29197 0
M  V30 33174 C 3308.47 -0.724666 1.43545 0
M  V30 33175 O 3309.66 -0.562023 1.64885 0
M  V30 33176 C 3306.79 -0.992789 3.26123 0
M  V30 33177 H 3307.99 0.778205 2.89627 0
M  V30 33178 H 3305.54 0.441687 1.49929 0
M  V30 33179 H 3306.28 -1.78675 2.7064 0
M  V30 33180 H 3306.06 -0.467476 3.89303 0
M  V30 33181 H 3307.55 -1.45744 3.91342 0
M  V30 33182 N 3307.99 -1.51825 0.42272 0
M  V30 33183 C 3308.94 -2.24216 -0.413686 0
M  V30 33184 C 3309.92 -1.25872 -1.00226 0
M  V30 33185 O 3311.11 -1.5104 -0.922819 0
M  V30 33186 C 3308.24 -3.07698 -1.52239 0
M  V30 33187 C 3307.33 -4.13462 -0.943927 0
M  V30 33188 N 3307.72 -5.05714 -0.0933228 0
M  V30 33189 C 3306.02 -4.29187 -1.21304 0
M  V30 33190 C 3306.72 -5.81245 0.229993 0
M  V30 33191 N 3305.69 -5.42251 -0.382658 0
M  V30 33192 H 3309.5 -2.92899 0.242334 0
M  V30 33193 H 3307.01 -1.60706 0.23393 0
M  V30 33194 H 3309.01 -3.58124 -2.13431 0
M  V30 33195 H 3307.67 -2.40556 -2.18089 0
M  V30 33196 H 3308.68 -5.17185 0.272023 0
M  V30 33197 H 3305.36 -3.73273 -1.87012 0
M  V30 33198 H 3306.75 -6.65554 0.921276 0
M  V30 33199 N 3309.47 -0.153581 -1.5685 0
M  V30 33200 C 3310.41 0.783588 -2.17091 0
M  V30 33201 C 3311.38 1.2395 -1.10569 0
M  V30 33202 O 3312.57 1.31086 -1.38641 0
M  V30 33203 C 3309.71 2.01468 -2.80187 0
M  V30 33204 C 3308.82 1.60396 -4.0112 0
M  V30 33205 C 3307.96 2.78735 -4.52195 0
M  V30 33206 C 3306.99 2.34069 -5.65578 0
M  V30 33207 N 3306.13 3.45439 -6.11242 0
M  V30 33208 H 3310.97 0.263075 -2.96837 0
M  V30 33209 H 3308.51 0.118134 -1.46625 0
M  V30 33210 H 3310.47 2.73648 -3.14917 0
M  V30 33211 H 3309.1 2.50919 -2.03075 0
M  V30 33212 H 3308.15 0.779565 -3.72326 0
M  V30 33213 H 3309.46 1.23596 -4.83245 0
M  V30 33214 H 3308.61 3.59097 -4.89014 0
M  V30 33215 H 3307.35 3.18784 -3.69091 0
M  V30 33216 H 3306.36 1.52149 -5.28328 0
M  V30 33217 H 3307.58 1.95098 -6.50472 0
M  V30 33218 H 3305.53 3.85097 -5.31071 0
M  V30 33219 H 3305.45 3.12675 -6.8831 0
M  V30 33220 H 3306.71 4.26138 -6.52707 0
M  V30 33221 N 3310.94 1.57141 0.120193 0
M  V30 33222 C 3312.19 1.85064 0.829417 0
M  V30 33223 C 3312.52 0.739147 1.79584 0
M  V30 33224 O 3311.8 -0.255113 1.9282 0
M  V30 33225 C 3312.08 3.23568 1.58037 0
M  V30 33226 C 3311.93 4.45315 0.633628 0
M  V30 33227 C 3313.25 3.5963 2.53682 0
M  V30 33228 H 3310.37 0.673145 0.300075 0
M  V30 33229 H 3313.01 1.89769 0.0937059 0
M  V30 33230 H 3311.16 3.19688 2.20753 0
M  V30 33231 H 3312.84 4.61297 0.0154025 0
M  V30 33232 H 3311.08 4.33765 -0.0549222 0
M  V30 33233 H 3311.75 5.38895 1.19568 0
M  V30 33234 H 3314.23 3.64293 2.01071 0
M  V30 33235 H 3313.1 4.57522 3.03257 0
M  V30 33236 H 3313.36 2.86986 3.36291 0
M  V30 33237 N 3312.42 -0.39034 1.5269 0
M  V30 33238 C 3313.84 -0.730313 1.4191 0
M  V30 33239 C 3314.04 -1.94172 0.538461 0
M  V30 33240 O 3313.09 -2.52497 0.0113971 0
M  V30 33241 C 3314.41 -0.966663 2.84739 0
M  V30 33242 C 3315.96 -1.06822 2.94208 0
M  V30 33243 C 3316.43 -1.33721 4.38044 0
M  V30 33244 N 3317.92 -1.40545 4.41363 0
M  V30 33245 C 3318.66 -1.63021 5.49738 0
M  V30 33246 N 3318.15 -1.82976 6.682 0
M  V30 33247 N 3319.95 -1.65189 5.37279 0
M  V30 33248 H 3312.1 0.406803 2.08468 0
M  V30 33249 H 3314.36 0.119807 0.940399 0
M  V30 33250 H 3314.07 -0.148664 3.51386 0
M  V30 33251 H 3313.94 -1.8817 3.26913 0
M  V30 33252 H 3316.33 -1.87679 2.27729 0
M  V30 33253 H 3316.41 -0.131123 2.55464 0
M  V30 33254 H 3316.05 -0.533743 5.05088 0
M  V30 33255 H 3315.98 -2.28713 4.7434 0
M  V30 33256 H 3318.47 -1.26838 3.55978 0
M  V30 33257 H 3318.79 -1.9963 7.46571 0
M  V30 33258 H 3317.13 -1.80204 6.71231 0
M  V30 33259 H 3320.32 -1.4915 4.43702 0
M  V30 33260 H 3320.49 -1.82366 6.21809 0
M  V30 33261 N 3313.9 -1.4363 -0.648706 0
M  V30 33262 C 3314.86 -1.48803 -1.74328 0
M  V30 33263 C 3315.86 -0.372175 -1.56434 0
M  V30 33264 O 3317.05 -0.634106 -1.62249 0
M  V30 33265 C 3314.19 -1.345 -3.13245 0
M  V30 33266 H 3315.38 -2.46288 -1.7112 0
M  V30 33267 H 3312.93 -1.30462 -0.860775 0
M  V30 33268 H 3313.67 -0.380402 -3.22061 0
M  V30 33269 H 3313.45 -2.15395 -3.27639 0
M  V30 33270 H 3314.94 -1.41062 -3.93054 0
M  V30 33271 N 3315.38 0.887495 -1.30236 0
M  V30 33272 C 3316.63 1.63585 -1.18678 0
M  V30 33273 C 3316.95 1.93268 0.259308 0
M  V30 33274 O 3316.22 1.56735 1.1752 0
M  V30 33275 H 3314.8 0.606389 -0.436235 0
M  V30 33276 H 3317.46 1.06348 -1.63328 0
M  V30 33277 H 3316.56 2.58705 -1.7458 0
M  V30 33278 N 3316.86 1.12911 1.0995 0
M  V30 33279 C 3318.1 0.885761 1.81655 0
M  V30 33280 C 3318.43 -0.58988 1.85864 0
M  V30 33281 O 3317.7 -1.42872 1.34031 0
M  V30 33282 H 3316.28 0.324706 0.672737 0
M  V30 33283 H 3318.94 1.42458 1.3301 0
M  V30 33284 H 3318.03 1.27172 2.85015 0
M  V30 33285 N 3318.33 -1.27832 0.92178 0
M  V30 33286 C 3319.75 -1.76642 0.604527 0
M  V30 33287 C 3320.1 -1.75345 -0.880263 0
M  V30 33288 O 3319.22 -1.35318 -1.68873 0
M  V30 33289 C 3319.82 -3.20767 1.09061 0
M  V30 33290 C 3318.38 -3.67267 0.824131 0
M  V30 33291 C 3317.52 -2.4739 1.25274 0
M  V30 33292 H 3320.47 -1.14182 1.10219 0
M  V30 33293 H 3320.49 -3.77998 0.435625 0
M  V30 33294 H 3320.01 -3.21678 2.17128 0
M  V30 33295 H 3318.11 -3.71807 -0.24299 0
M  V30 33296 H 3318.22 -4.57026 1.43751 0
M  V30 33297 H 3316.58 -2.45693 0.671357 0
M  V30 33298 H 3317.37 -2.51016 2.34192 0
M  V30 33299 N 3319.81 -0.686634 -1.41856 0
M  V30 33300 C 3321.06 -0.213414 -2.0097 0
M  V30 33301 C 3321.38 1.18818 -1.5462 0
M  V30 33302 O 3320.65 1.80006 -0.772948 0
M  V30 33303 H 3319.23 -0.0759099 -0.743133 0
M  V30 33304 H 3321.89 -0.885794 -1.73608 0
M  V30 33305 H 3320.99 -0.223881 -3.11296 0
M  V30 33306 N 3321.29 1.51599 -0.430766 0
M  V30 33307 C 3322.22 2.30475 0.374655 0
M  V30 33308 C 3323.2 1.35604 1.02691 0
M  V30 33309 O 3324.39 1.64522 1.03181 0
M  V30 33310 C 3321.52 3.14198 1.47975 0
M  V30 33311 C 3320.47 4.17293 0.951342 0
M  V30 33312 C 3319.8 4.89496 2.15169 0
M  V30 33313 C 3321.1 5.22299 -0.00967132 0
M  V30 33314 H 3322.79 2.98054 -0.28356 0
M  V30 33315 H 3320.34 1.43339 -0.137815 0
M  V30 33316 H 3322.29 3.68155 2.05037 0
M  V30 33317 H 3321.01 2.44428 2.16616 0
M  V30 33318 H 3319.67 3.64378 0.402988 0
M  V30 33319 H 3319.32 4.16235 2.82414 0
M  V30 33320 H 3319.02 5.59205 1.80454 0
M  V30 33321 H 3320.54 5.46274 2.72796 0
M  V30 33322 H 3321.96 5.71367 0.470427 0
M  V30 33323 H 3320.36 5.99496 -0.269065 0
M  V30 33324 H 3321.43 4.75535 -0.948381 0
M  V30 33325 N 3322.77 0.161897 1.56766 0
M  V30 33326 C 3323.68 -0.784775 2.21085 0
M  V30 33327 C 3324.69 -1.26037 1.19961 0
M  V30 33328 O 3325.87 -1.31446 1.52591 0
M  V30 33329 C 3322.94 -2.00058 2.83157 0
M  V30 33330 C 3322 -1.57278 3.99452 0
M  V30 33331 C 3321.23 -2.73062 4.58555 0
M  V30 33332 O 3321.45 -3.89679 4.16541 0
M  V30 33333 O 3320.39 -2.47678 5.48579 0
M  V30 33334 H 3324.21 -0.267189 3.02522 0
M  V30 33335 H 3321.8 -0.0658521 1.49255 0
M  V30 33336 H 3323.68 -2.71181 3.22551 0
M  V30 33337 H 3322.35 -2.5074 2.04722 0
M  V30 33338 H 3321.26 -0.831329 3.64746 0
M  V30 33339 H 3322.59 -1.11296 4.79452 0
M  V30 33340 N 3324.25 -1.57203 -0.111858 0
M  V30 33341 C 3325.66 -1.52657 -0.465602 0
M  V30 33342 C 3325.86 -0.876021 -1.81461 0
M  V30 33343 O 3324.92 -0.461389 -2.48249 0
M  V30 33344 C 3326.23 -2.97411 -0.443519 0
M  V30 33345 C 3327.78 -3.08539 -0.526566 0
M  V30 33346 C 3328.25 -4.54867 -0.534801 0
M  V30 33347 N 3329.75 -4.59349 -0.596036 0
M  V30 33348 C 3330.48 -5.69995 -0.623972 0
M  V30 33349 N 3329.98 -6.90117 -0.609124 0
M  V30 33350 N 3331.77 -5.58122 -0.66752 0
M  V30 33351 H 3323.92 -1.97875 0.77196 0
M  V30 33352 H 3326.18 -0.903972 0.28555 0
M  V30 33353 H 3325.89 -3.48406 0.480199 0
M  V30 33354 H 3325.76 -3.55224 -1.2687 0
M  V30 33355 H 3328.15 -2.57542 -1.4407 0
M  V30 33356 H 3328.23 -2.53709 0.32644 0
M  V30 33357 H 3327.88 -5.06511 0.375322 0
M  V30 33358 H 3327.81 -5.07517 -1.40479 0
M  V30 33359 H 3330.3 -3.72889 -0.613386 0
M  V30 33360 H 3330.61 -7.70201 -0.633261 0
M  V30 33361 H 3328.95 -6.92605 -0.576435 0
M  V30 33362 H 3332.15 -4.63185 -0.676534 0
M  V30 33363 H 3332.32 -6.4436 -0.685824 0
M  V30 33364 N 3325.72 0.382237 -1.52894 0
M  V30 33365 C 3326.69 1.45005 -1.775 0
M  V30 33366 C 3327.69 1.47292 -0.645116 0
M  V30 33367 O 3328.88 1.48344 -0.913218 0
M  V30 33368 C 3326.01 2.84247 -1.88193 0
M  V30 33369 H 3327.2 1.24468 -2.72851 0
M  V30 33370 H 3324.76 0.614385 -1.43718 0
M  V30 33371 H 3325.49 3.10119 -0.948506 0
M  V30 33372 H 3325.28 2.83987 -2.70358 0
M  V30 33373 H 3326.77 3.61607 -2.08879 0
M  V30 33374 N 3327.2 1.43972 0.64108 0
M  V30 33375 C 3328.11 1.52541 1.78237 0
M  V30 33376 C 3329.13 0.411698 1.69059 0
M  V30 33377 O 3330.31 0.667604 1.90013 0
M  V30 33378 C 3327.37 1.45749 3.14576 0
M  V30 33379 C 3326.43 2.67891 3.3546 0
M  V30 33380 C 3325.66 2.61412 4.65295 0
M  V30 33381 O 3325.89 1.6686 5.45448 0
M  V30 33382 O 3324.82 3.52108 4.88163 0
M  V30 33383 H 3328.65 2.4894 1.73961 0
M  V30 33384 H 3326.23 1.26108 0.801076 0
M  V30 33385 H 3328.11 1.44447 3.9587 0
M  V30 33386 H 3326.79 0.524893 3.19416 0
M  V30 33387 H 3325.7 2.74762 2.53883 0
M  V30 33388 H 3327.03 3.60163 3.35475 0
M  V30 33389 N 3328.68 -0.880575 1.30704 0
M  V30 33390 C 3329.64 -1.9683 1.17433 0
M  V30 33391 C 3330.64 -1.60461 0.104334 0
M  V30 33392 O 3331.83 -1.7059 0.352788 0
M  V30 33393 C 3328.97 -3.31376 0.800158 0
M  V30 33394 H 3330.16 -2.1003 2.14073 0
M  V30 33395 H 3327.71 -1.06753 1.14164 0
M  V30 33396 H 3328.45 -3.23877 -0.165549 0
M  V30 33397 H 3328.23 -3.59144 1.57348 0
M  V30 33398 H 3329.72 -4.11154 0.730898 0
M  V30 33399 N 3330.16 -1.13492 -1.09349 0
M  V30 33400 C 3331.41 -0.895382 -1.81183 0
M  V30 33401 C 3331.73 0.580015 -1.86174 0
M  V30 33402 O 3331 1.4216 -1.34787 0
M  V30 33403 H 3329.58 -0.328269 -0.671006 0
M  V30 33404 H 3332.24 -1.43162 -1.32253 0
M  V30 33405 H 3331.34 -1.28681 -2.84337 0
M  V30 33406 N 3331.64 1.27341 -0.928546 0
M  V30 33407 C 3332.88 1.94617 -0.57027 0
M  V30 33408 C 3333.22 1.72793 0.886351 0
M  V30 33409 O 3332.49 1.0575 1.6324 0
M  V30 33410 C 3332.77 3.48723 -0.898025 0
M  V30 33411 C 3332.63 3.79886 -2.40846 0
M  V30 33412 C 3333.95 4.38237 -0.404506 0
M  V30 33413 H 3331.07 0.706846 -0.208657 0
M  V30 33414 H 3333.71 1.50442 -1.16048 0
M  V30 33415 H 3331.86 3.86479 -0.395747 0
M  V30 33416 H 3333.53 3.51916 -2.9825 0
M  V30 33417 H 3331.77 3.26407 -2.85729 0
M  V30 33418 H 3332.44 4.87555 -2.58831 0
M  V30 33419 H 3334.92 4.07636 -0.83499 0
M  V30 33420 H 3333.8 5.44884 -0.66278 0
M  V30 33421 H 3334.06 4.36596 0.695431 0
M  V30 33422 N 3333.12 0.694147 1.4149 0
M  V30 33423 C 3334.53 0.299472 1.84283 0
M  V30 33424 C 3334.88 -1.16208 1.58083 0
M  V30 33425 O 3334 -1.89189 1.05055 0
M  V30 33426 C 3334.6 0.536755 3.34521 0
M  V30 33427 C 3333.16 0.196011 3.75889 0
M  V30 33428 C 3332.3 0.819739 2.64907 0
M  V30 33429 H 3335.25 0.894907 1.31061 0
M  V30 33430 H 3335.28 -0.204995 3.79947 0
M  V30 33431 H 3334.79 1.60057 3.53558 0
M  V30 33432 H 3332.89 -0.863591 3.62454 0
M  V30 33433 H 3333 0.650037 4.7467 0
M  V30 33434 H 3331.37 0.249457 2.53475 0
M  V30 33435 H 3332.15 1.88739 2.86762 0
M  V30 33436 N 3334.59 -1.51368 0.438799 0
M  V30 33437 C 3335.56 -2.26351 -0.36028 0
M  V30 33438 C 3336.56 -1.29851 -0.948442 0
M  V30 33439 O 3337.75 -1.53551 -0.822665 0
M  V30 33440 C 3334.88 -3.05639 -1.50989 0
M  V30 33441 H 3336.07 -2.98427 0.296879 0
M  V30 33442 H 3333.62 -1.55116 0.192005 0
M  V30 33443 H 3334.36 -2.37983 -2.20306 0
M  V30 33444 H 3334.14 -3.7652 -1.09431 0
M  V30 33445 H 3335.63 -3.62433 -2.07441 0
M  V30 33446 N 3336.07 -0.170208 -1.56678 0
M  V30 33447 C 3336.98 0.77304 -2.21498 0
M  V30 33448 C 3338 1.25399 -1.20628 0
M  V30 33449 O 3339.17 1.30635 -1.53286 0
M  V30 33450 C 3336.24 1.98553 -2.84214 0
M  V30 33451 C 3335.3 1.55157 -4.00281 0
M  V30 33452 C 3334.53 2.70626 -4.59997 0
M  V30 33453 O 3334.76 3.87465 -4.18602 0
M  V30 33454 O 3333.69 2.44765 -5.49885 0
M  V30 33455 H 3337.52 0.251142 -3.0266 0
M  V30 33456 H 3335.1 0.0579358 -1.49288 0
M  V30 33457 H 3336.98 2.69466 -3.23984 0
M  V30 33458 H 3335.66 2.49651 -2.06049 0
M  V30 33459 H 3334.56 0.811974 -3.65182 0
M  V30 33460 H 3335.9 1.08752 -4.80035 0
M  V30 33461 N 3337.55 1.5726 0.10352 0
M  V30 33462 C 3338.8 1.85658 0.808544 0
M  V30 33463 C 3339.12 0.757533 1.79142 0
M  V30 33464 O 3338.38 -0.249688 1.94101 0
M  V30 33465 C 3338.68 3.20608 1.5794 0
M  V30 33466 C 3338.34 4.44796 0.739424 0
M  V30 33467 C 3337.01 4.78513 0.507837 0
M  V30 33468 C 3339.36 5.2097 0.154942 0
M  V30 33469 C 3336.69 5.85836 -0.318232 0
M  V30 33470 C 3339.04 6.29164 -0.658402 0
M  V30 33471 C 3337.7 6.61403 -0.90016 0
M  V30 33472 H 3336.97 0.67937 0.295867 0
M  V30 33473 H 3339.62 1.91371 0.0703267 0
M  V30 33474 H 3337.92 3.10541 2.38896 0
M  V30 33475 H 3339.62 3.39806 2.12915 0
M  V30 33476 H 3336.21 4.18388 0.930029 0
M  V30 33477 H 3340.4 4.95261 0.321043 0
M  V30 33478 H 3335.65 6.0923 -0.514603 0
M  V30 33479 H 3339.83 6.87364 -1.11821 0
M  V30 33480 H 3337.45 7.44395 -1.54207 0
M  V30 33481 N 3339.03 -0.374123 1.53095 0
M  V30 33482 C 3340.25 -1.14297 1.73063 0
M  V30 33483 C 3340.68 -1.82523 0.454643 0
M  V30 33484 O 3340.04 -1.71407 -0.590713 0
M  V30 33485 C 3340.08 -2.15544 2.8909 0
M  V30 33486 O 3339.19 -3.22447 2.57102 0
M  V30 33487 H 3338.53 -0.332044 0.575015 0
M  V30 33488 H 3341.06 -0.433862 1.99947 0
M  V30 33489 H 3341.07 -2.5929 3.15012 0
M  V30 33490 H 3339.74 -1.65276 3.8165 0
M  V30 33491 H 3338.32 -2.83734 2.4197 0
M  V30 33492 N 3340.51 -1.4431 -0.633436 0
M  V30 33493 C 3341.75 -1.46252 -1.389 0
M  V30 33494 C 3342.07 -0.0981042 -1.95354 0
M  V30 33495 O 3343.27 0.00495058 -2.715 0
M  V30 33496 C 3341.73 -2.57467 -2.51473 0
M  V30 33497 C 3341.34 -4.00106 -2.01542 0
M  V30 33498 C 3343.08 -2.68628 -3.28693 0
M  V30 33499 C 3340.99 -5.0275 -3.11443 0
M  V30 33500 H 3339.92 -0.544121 -0.521966 0
M  V30 33501 H 3342.57 -1.70368 -0.681695 0
M  V30 33502 H 3340.95 -2.26588 -3.24767 0
M  V30 33503 H 3342.13 -4.40542 -1.35127 0
M  V30 33504 H 3340.44 -3.93168 -1.37143 0
M  V30 33505 H 3343.04 -3.42487 -4.10618 0
M  V30 33506 H 3343.38 -1.74367 -3.78024 0
M  V30 33507 H 3343.91 -2.98906 -2.62489 0
M  V30 33508 H 3340.65 -5.98631 -2.67059 0
M  V30 33509 H 3340.17 -4.66908 -3.76506 0
M  V30 33510 H 3341.85 -5.26346 -3.76256 0
M  V30 33511 N 3341.98 0.873632 -1.3117 0
M  V30 33512 C 3343.23 1.62875 -1.21834 0
M  V30 33513 C 3343.59 1.91112 0.222239 0
M  V30 33514 O 3342.88 1.52904 1.1546 0
M  V30 33515 C 3343.07 2.96733 -1.99209 0
M  V30 33516 C 3342.9 2.81565 -3.50644 0
M  V30 33517 C 3341.67 2.80946 -4.19997 0
M  V30 33518 C 3343.87 2.56689 -4.45663 0
M  V30 33519 N 3341.85 2.56789 -5.57613 0
M  V30 33520 C 3343.22 2.41761 -5.70922 0
M  V30 33521 C 3345.28 2.42004 -4.3513 0
M  V30 33522 C 3343.98 2.13642 -6.8684 0
M  V30 33523 C 3346.01 2.15272 -5.50828 0
M  V30 33524 C 3345.37 2.0113 -6.75075 0
M  V30 33525 H 3341.47 0.600501 -0.500921 0
M  V30 33526 H 3344.05 1.02854 -1.65315 0
M  V30 33527 H 3342.22 3.54765 -1.58102 0
M  V30 33528 H 3343.95 3.61506 -1.81923 0
M  V30 33529 H 3340.71 2.93194 -3.71933 0
M  V30 33530 H 3341.13 2.47691 -6.30062 0
M  V30 33531 H 3345.78 2.51667 -3.3974 0
M  V30 33532 H 3343.49 2.02716 -7.82261 0
M  V30 33533 H 3347.08 2.04715 -5.44594 0
M  V30 33534 H 3345.96 1.80737 -7.63088 0
M  V30 33535 N 3343.46 1.1407 1.08746 0
M  V30 33536 C 3344.69 0.93017 1.84812 0
M  V30 33537 C 3345.11 -0.521235 1.81462 0
M  V30 33538 O 3344.46 -1.36106 1.21579 0
M  V30 33539 C 3344.51 1.41869 3.32499 0
M  V30 33540 O 3344.23 2.81322 3.35841 0
M  V30 33541 C 3345.74 1.2476 4.25382 0
M  V30 33542 H 3342.96 0.331243 0.58354 0
M  V30 33543 H 3345.5 1.51498 1.37364 0
M  V30 33544 H 3343.65 0.876731 3.77349 0
M  V30 33545 H 3344.07 3.03167 4.28007 0
M  V30 33546 H 3345.54 1.63807 5.27135 0
M  V30 33547 H 3346.02 0.190067 4.38789 0
M  V30 33548 H 3346.63 1.77793 3.86354 0
M  V30 33549 N 3344.94 -1.26847 0.935286 0
M  V30 33550 C 3346.36 -1.4635 0.636686 0
M  V30 33551 C 3346.56 -1.84424 -0.81179 0
M  V30 33552 O 3345.61 -1.96233 -1.58899 0
M  V30 33553 C 3346.93 -2.55034 1.59306 0
M  V30 33554 C 3348.47 -2.68889 1.60211 0
M  V30 33555 C 3348.95 -3.80738 2.54564 0
M  V30 33556 N 3350.44 -3.88122 2.52815 0
M  V30 33557 C 3351.17 -4.74105 3.22509 0
M  V30 33558 N 3350.67 -5.6452 4.01608 0
M  V30 33559 N 3352.46 -4.679 3.1149 0
M  V30 33560 H 3344.61 -1.0042 1.87162 0
M  V30 33561 H 3346.88 -0.50232 0.803977 0
M  V30 33562 H 3346.58 -2.33869 2.62675 0
M  V30 33563 H 3346.46 -3.52574 1.34058 0
M  V30 33564 H 3348.84 -2.8943 0.5757 0
M  V30 33565 H 3348.93 -1.71811 1.89511 0
M  V30 33566 H 3348.57 -3.6095 3.5732 0
M  V30 33567 H 3348.5 -4.77259 2.22557 0
M  V30 33568 H 3350.99 -3.23476 1.95375 0
M  V30 33569 H 3351.3 -6.27008 4.51753 0
M  V30 33570 H 3349.65 -5.64291 4.0571 0
M  V30 33571 H 3352.84 -3.96265 2.49182 0
M  V30 33572 H 3353.01 -5.34691 3.66073 0
M  V30 33573 N 3346.42 -0.701641 -1.4112 0
M  V30 33574 C 3347.33 -0.0408228 -2.34564 0
M  V30 33575 C 3348.34 0.759343 -1.56557 0
M  V30 33576 O 3349.52 0.695509 -1.8901 0
M  V30 33577 C 3346.59 0.879895 -3.35349 0
M  V30 33578 C 3345.65 0.0712524 -4.29241 0
M  V30 33579 C 3344.88 0.948119 -5.25211 0
M  V30 33580 O 3345.1 2.18756 -5.26784 0
M  V30 33581 O 3344.04 0.394552 -6.00605 0
M  V30 33582 H 3347.86 -0.81124 -2.92665 0
M  V30 33583 H 3345.45 -0.462016 -1.42077 0
M  V30 33584 H 3347.33 1.40769 -3.97193 0
M  V30 33585 H 3346 1.6297 -2.79683 0
M  V30 33586 H 3344.91 -0.501285 -3.70726 0
M  V30 33587 H 3346.24 -0.640021 -4.88021 0
M  V30 33588 N 3347.9 1.51133 -0.446821 0
M  V30 33589 C 3348.86 2.26539 0.348271 0
M  V30 33590 C 3349.86 1.30352 0.941543 0
M  V30 33591 O 3351.05 1.53985 0.81451 0
M  V30 33592 C 3348.18 3.06435 1.49366 0
M  V30 33593 H 3349.37 2.98265 -0.312701 0
M  V30 33594 H 3346.93 1.55012 -0.200228 0
M  V30 33595 H 3347.66 2.39148 2.19041 0
M  V30 33596 H 3347.45 3.77095 1.07432 0
M  V30 33597 H 3348.94 3.63528 2.05516 0
M  V30 33598 N 3349.37 0.178515 1.56586 0
M  V30 33599 C 3350.62 -0.463665 1.96709 0
M  V30 33600 C 3350.94 -1.6329 1.06589 0
M  V30 33601 O 3350.21 -1.95443 0.133717 0
M  V30 33602 H 3348.79 -0.174286 0.726384 0
M  V30 33603 H 3351.46 0.261379 1.93139 0
M  V30 33604 H 3350.55 -0.818881 3.01166 0
M  V30 33605 N 3350.85 -1.57312 -0.0951784 0
M  V30 33606 C 3351.82 -2.01095 -1.09971 0
M  V30 33607 C 3352.82 -0.904448 -1.32953 0
M  V30 33608 O 3354.01 -1.16993 -1.29067 0
M  V30 33609 C 3351.14 -2.37158 -2.44886 0
M  V30 33610 H 3352.33 -2.91058 -0.722855 0
M  V30 33611 H 3349.88 -1.52552 -0.340222 0
M  V30 33612 H 3350.62 -1.50148 -2.87447 0
M  V30 33613 H 3350.4 -3.1788 -2.29553 0
M  V30 33614 H 3351.89 -2.71688 -3.17136 0
M  V30 33615 N 3352.33 0.365999 -1.53291 0
M  V30 33616 C 3353.58 1.1065 -1.69119 0
M  V30 33617 C 3353.9 1.89846 -0.44536 0
M  V30 33618 O 3353.17 1.88294 0.540583 0
M  V30 33619 H 3351.75 0.411479 -0.623453 0
M  V30 33620 H 3354.41 0.412715 -1.9048 0
M  V30 33621 H 3353.51 1.79654 -2.55208 0
M  V30 33622 N 3353.81 1.44644 0.625774 0
M  V30 33623 C 3355.06 1.47417 1.38249 0
M  V30 33624 C 3355.38 0.110077 1.94689 0
M  V30 33625 O 3354.65 -0.858302 1.76097 0
M  V30 33626 H 3353.23 0.542832 0.513169 0
M  V30 33627 H 3355.89 1.80463 0.736147 0
M  V30 33628 H 3354.99 2.20264 2.21111 0
M  V30 33629 N 3355.29 -0.866663 1.31631 0
M  V30 33630 C 3356.22 -1.98999 1.22154 0
M  V30 33631 C 3357.2 -1.69757 0.108002 0
M  V30 33632 O 3358.38 -1.91975 0.293158 0
M  V30 33633 C 3355.51 -3.34575 0.931499 0
M  V30 33634 C 3354.47 -3.78134 2.00497 0
M  V30 33635 C 3353.79 -5.11206 1.56756 0
M  V30 33636 C 3355.09 -3.94886 3.41851 0
M  V30 33637 H 3356.79 -2.07186 2.16135 0
M  V30 33638 H 3354.33 -0.995444 1.04052 0
M  V30 33639 H 3356.29 -4.12701 0.851792 0
M  V30 33640 H 3355.01 -3.2657 -0.0439715 0
M  V30 33641 H 3353.67 -3.0225 2.07462 0
M  V30 33642 H 3353.32 -4.99647 0.579855 0
M  V30 33643 H 3353.02 -5.41322 2.28571 0
M  V30 33644 H 3354.54 -5.91838 1.50199 0
M  V30 33645 H 3355.95 -4.63399 3.37542 0
M  V30 33646 H 3354.35 -4.36403 4.11913 0
M  V30 33647 H 3355.42 -2.98165 3.82394 0
M  V30 33648 N 3356.77 -1.14645 -1.0814 0
M  V30 33649 C 3357.73 -0.838627 -2.13307 0
M  V30 33650 C 3358.73 0.157984 -1.60022 0
M  V30 33651 O 3359.92 -0.0706927 -1.74057 0
M  V30 33652 C 3357.05 -0.25065 -3.39977 0
M  V30 33653 H 3358.24 -1.7707 -2.42046 0
M  V30 33654 H 3355.8 -0.95285 -1.23897 0
M  V30 33655 H 3356.53 0.690008 -3.16874 0
M  V30 33656 H 3356.32 -0.968523 -3.7995 0
M  V30 33657 H 3357.81 -0.0525849 -4.17567 0
M  V30 33658 N 3358.24 1.26349 -0.942 0
M  V30 33659 C 3359.49 1.93008 -0.585745 0
M  V30 33660 C 3359.81 1.74713 0.879476 0
M  V30 33661 O 3361.01 2.35835 1.34514 0
M  V30 33662 C 3359.47 3.45819 -0.996848 0
M  V30 33663 C 3359.08 3.72846 -2.48374 0
M  V30 33664 C 3360.82 4.18477 -0.712525 0
M  V30 33665 C 3358.73 5.19102 -2.8335 0
M  V30 33666 H 3357.66 0.722592 -0.215354 0
M  V30 33667 H 3360.31 1.43415 -1.14475 0
M  V30 33668 H 3358.69 3.94302 -0.366365 0
M  V30 33669 H 3359.86 3.35066 -3.16334 0
M  V30 33670 H 3358.18 3.13423 -2.74145 0
M  V30 33671 H 3360.78 5.2619 -0.950162 0
M  V30 33672 H 3361.12 4.1482 0.350738 0
M  V30 33673 H 3361.65 3.75863 -1.30277 0
M  V30 33674 H 3358.39 5.27861 -3.88643 0
M  V30 33675 H 3357.91 5.57976 -2.20052 0
M  V30 33676 H 3359.59 5.87113 -2.71859 0
M  V30 33677 N 3359.72 0.709115 1.40746 0
M  V30 33678 C 3360.68 0.0612009 2.29118 0
M  V30 33679 C 3361.68 -0.694055 1.4505 0
M  V30 33680 O 3362.87 -0.526922 1.6604 0
M  V30 33681 C 3360.01 -0.92339 3.28156 0
M  V30 33682 H 3361.2 0.839464 2.87911 0
M  V30 33683 H 3358.75 0.47339 1.48959 0
M  V30 33684 H 3359.49 -1.72894 2.74369 0
M  V30 33685 H 3359.27 -0.384794 3.90207 0
M  V30 33686 H 3360.76 -1.3741 3.94345 0
M  V30 33687 N 3361.2 -1.50894 0.454829 0
M  V30 33688 C 3362.45 -2.02523 -0.105892 0
M  V30 33689 C 3362.78 -1.33726 -1.40822 0
M  V30 33690 O 3362.05 -0.457716 -1.89038 0
M  V30 33691 C 3362.34 -3.58793 -0.306572 0
M  V30 33692 C 3362.19 -4.38184 1.01564 0
M  V30 33693 C 3363.51 -4.26932 -1.06851 0
M  V30 33694 H 3360.63 -0.73607 -0.0370102 0
M  V30 33695 H 3363.27 -1.80369 0.597246 0
M  V30 33696 H 3361.42 -3.778 -0.905496 0
M  V30 33697 H 3363.09 -4.30786 1.64989 0
M  V30 33698 H 3361.33 -4.02571 1.61615 0
M  V30 33699 H 3362.01 -5.45739 0.829054 0
M  V30 33700 H 3364.48 -4.12301 -0.561014 0
M  V30 33701 H 3363.36 -5.36117 -1.1777 0
M  V30 33702 H 3363.62 -3.88984 -2.10104 0
M  V30 33703 N 3362.68 -0.186817 -1.56489 0
M  V30 33704 C 3363.59 0.749503 -2.22305 0
M  V30 33705 C 3364.6 1.24113 -1.21951 0
M  V30 33706 O 3365.78 1.29002 -1.54663 0
M  V30 33707 C 3362.84 1.95527 -2.86304 0
M  V30 33708 C 3361.91 1.50903 -4.01904 0
M  V30 33709 C 3361.14 2.65732 -4.62841 0
M  V30 33710 O 3361.36 3.83003 -4.22688 0
M  V30 33711 O 3360.3 2.38919 -5.5245 0
M  V30 33712 H 3364.12 0.219027 -3.02909 0
M  V30 33713 H 3361.71 0.0420986 -1.49341 0
M  V30 33714 H 3363.59 2.66015 -3.26824 0
M  V30 33715 H 3362.26 2.47451 -2.08685 0
M  V30 33716 H 3361.17 0.773196 -3.66023 0
M  V30 33717 H 3362.5 1.03654 -4.81162 0
M  V30 33718 N 3364.16 1.57361 0.0868344 0
M  V30 33719 C 3365.4 1.86137 0.787249 0
M  V30 33720 C 3365.72 0.776699 1.78864 0
M  V30 33721 O 3364.99 -0.196216 1.94915 0
M  V30 33722 H 3363.57 0.686827 0.293732 0
M  V30 33723 H 3366.24 1.94787 0.0664984 0
M  V30 33724 H 3365.33 2.83149 1.31275 0
M  V30 33725 N 3365.63 -0.357865 1.53483 0
M  V30 33726 C 3367.04 -0.934261 1.61643 0
M  V30 33727 C 3367.4 -1.90017 0.488688 0
M  V30 33728 O 3366.52 -2.1297 -0.383743 0
M  V30 33729 C 3367.12 -1.70124 2.9299 0
M  V30 33730 C 3365.67 -2.22687 3.03459 0
M  V30 33731 C 3364.82 -1.0416 2.56994 0
M  V30 33732 H 3367.77 -0.136424 1.58113 0
M  V30 33733 H 3367.79 -2.56305 2.81226 0
M  V30 33734 H 3367.31 -0.99799 3.75049 0
M  V30 33735 H 3365.41 -2.96231 2.26004 0
M  V30 33736 H 3365.52 -2.50039 4.08677 0
M  V30 33737 H 3363.88 -1.41084 2.12055 0
M  V30 33738 H 3364.67 -0.353212 3.41478 0
M  V30 33739 N 3367.11 -1.44974 -0.618094 0
M  V30 33740 C 3368.34 -1.52174 -1.40918 0
M  V30 33741 C 3368.76 -0.151788 -1.87487 0
M  V30 33742 O 3368.12 0.861578 -1.5952 0
M  V30 33743 C 3368.17 -2.50192 -2.59685 0
M  V30 33744 O 3367.27 -2.01246 -3.59963 0
M  V30 33745 H 3366.61 -0.513367 -0.421129 0
M  V30 33746 H 3369.14 -1.90231 -0.753225 0
M  V30 33747 H 3369.15 -2.68655 -3.07064 0
M  V30 33748 H 3367.83 -3.49694 -2.25137 0
M  V30 33749 H 3366.4 -1.92611 -3.19305 0
M  V30 33750 N 3368.59 0.85967 -1.32089 0
M  V30 33751 C 3369.54 1.96782 -1.20605 0
M  V30 33752 C 3370.51 1.65859 -0.0893841 0
M  V30 33753 O 3371.69 1.88964 -0.264055 0
M  V30 33754 C 3368.83 3.32335 -0.92993 0
M  V30 33755 C 3367.94 3.75788 -2.13091 0
M  V30 33756 C 3367.08 5.00107 -1.7907 0
M  V30 33757 C 3366.12 5.36038 -2.95517 0
M  V30 33758 N 3365.26 6.51535 -2.61622 0
M  V30 33759 H 3370.1 2.05936 -2.15393 0
M  V30 33760 H 3367.63 1.00801 -1.07133 0
M  V30 33761 H 3369.59 4.10397 -0.750357 0
M  V30 33762 H 3368.22 3.22794 -0.0188496 0
M  V30 33763 H 3367.27 2.93421 -2.42092 0
M  V30 33764 H 3368.58 3.98339 -3.00212 0
M  V30 33765 H 3367.74 5.85864 -1.57635 0
M  V30 33766 H 3366.48 4.79482 -0.891543 0
M  V30 33767 H 3365.48 4.48796 -3.17589 0
M  V30 33768 H 3366.71 5.58623 -3.86157 0
M  V30 33769 H 3364.65 6.32436 -1.74242 0
M  V30 33770 H 3364.57 6.74081 -3.42274 0
M  V30 33771 H 3365.84 7.40457 -2.43605 0
M  V30 33772 N 3370.07 1.15217 1.0753 0
M  V30 33773 C 3371.03 0.849928 2.12859 0
M  V30 33774 C 3372.03 -0.149495 1.60104 0
M  V30 33775 O 3373.22 0.0799224 1.74017 0
M  V30 33776 C 3370.35 0.268677 3.3984 0
M  V30 33777 H 3371.55 1.78351 2.41103 0
M  V30 33778 H 3369.1 0.959407 1.2339 0
M  V30 33779 H 3369.83 -0.673194 3.17236 0
M  V30 33780 H 3369.62 0.988659 3.79431 0
M  V30 33781 H 3371.11 0.0747288 4.17533 0
M  V30 33782 N 3371.55 -1.25848 0.948687 0
M  V30 33783 C 3372.46 -2.29832 0.470566 0
M  V30 33784 C 3373.47 -1.67832 -0.45916 0
M  V30 33785 O 3374.65 -1.98563 -0.336858 0
M  V30 33786 C 3371.71 -3.45801 -0.249574 0
M  V30 33787 C 3370.77 -4.23259 0.717633 0
M  V30 33788 C 3370.01 -5.33691 0.0317662 0
M  V30 33789 O 3370.23 -5.57982 -1.18374 0
M  V30 33790 O 3369.16 -5.97647 0.714285 0
M  V30 33791 H 3372.99 -2.72808 1.33452 0
M  V30 33792 H 3370.58 -1.31186 0.714887 0
M  V30 33793 H 3372.46 -4.1628 -0.65492 0
M  V30 33794 H 3371.13 -3.04839 -1.08879 0
M  V30 33795 H 3370.04 -3.55232 1.17307 0
M  V30 33796 H 3371.37 -4.67989 1.52469 0
M  V30 33797 N 3373.02 -0.716569 -1.40368 0
M  V30 33798 C 3374.27 -0.253487 -2.00101 0
M  V30 33799 C 3374.59 1.16024 -1.57473 0
M  V30 33800 O 3375.79 1.72189 -2.09912 0
M  V30 33801 C 3374.25 -0.402276 -3.57645 0
M  V30 33802 C 3373.86 -1.82271 -4.09245 0
M  V30 33803 C 3375.6 -3.57638e-05 -4.245 0
M  V30 33804 C 3373.51 -1.92203 -5.59296 0
M  V30 33805 H 3372.44 -0.0910178 -0.748486 0
M  V30 33806 H 3375.09 -0.8878 -1.60594 0
M  V30 33807 H 3373.47 0.300637 -3.94857 0
M  V30 33808 H 3374.64 -2.55608 -3.83407 0
M  V30 33809 H 3372.96 -2.1765 -3.54989 0
M  V30 33810 H 3375.56 -0.0535142 -5.34673 0
M  V30 33811 H 3375.9 1.042 -4.03048 0
M  V30 33812 H 3376.43 -0.653429 -3.92397 0
M  V30 33813 H 3373.17 -2.94532 -5.85603 0
M  V30 33814 H 3372.69 -1.23279 -5.86994 0
M  V30 33815 H 3374.37 -1.69461 -6.24413 0
M  V30 33816 N 3374.5 1.50651 -0.462825 0
M  V30 33817 C 3375.73 2.07181 0.0952362 0
M  V30 33818 C 3376.15 1.32535 1.33476 0
M  V30 33819 O 3375.51 0.370596 1.77472 0
M  V30 33820 C 3375.56 3.58691 0.370529 0
M  V30 33821 O 3374.66 3.85973 1.45253 0
M  V30 33822 H 3374 0.663934 -0.00933869 0
M  V30 33823 H 3376.53 1.9395 -0.651492 0
M  V30 33824 H 3376.54 4.03361 0.61348 0
M  V30 33825 H 3375.22 4.12441 -0.535291 0
M  V30 33826 H 3373.8 3.53148 1.19754 0
M  V30 33827 N 3375.98 0.195113 1.56388 0
M  V30 33828 C 3377.23 -0.443652 1.9758 0
M  V30 33829 C 3377.56 -1.61627 1.08199 0
M  V30 33830 O 3376.81 -1.95325 0.121095 0
M  V30 33831 C 3377.11 -0.94599 3.44653 0
M  V30 33832 C 3376.78 0.113259 4.50758 0
M  V30 33833 C 3375.44 0.404313 4.79498 0
M  V30 33834 C 3377.79 0.830989 5.14533 0
M  V30 33835 C 3375.12 1.41807 5.69304 0
M  V30 33836 C 3377.47 1.8339 6.05434 0
M  V30 33837 C 3376.13 2.13215 6.32531 0
M  V30 33838 H 3375.4 -0.162344 0.722998 0
M  V30 33839 H 3378.05 0.292082 1.89259 0
M  V30 33840 H 3376.36 -1.76 3.50045 0
M  V30 33841 H 3378.05 -1.44963 3.73881 0
M  V30 33842 H 3374.64 -0.123758 4.28421 0
M  V30 33843 H 3378.83 0.619357 4.9242 0
M  V30 33844 H 3374.08 1.65507 5.88572 0
M  V30 33845 H 3378.26 2.39527 6.53911 0
M  V30 33846 H 3375.88 2.91914 7.01919 0
M  V30 33847 N 3377.46 -1.57404 -0.0784879 0
M  V30 33848 C 3378.37 -2.06572 -1.11199 0
M  V30 33849 C 3379.38 -0.993897 -1.4282 0
M  V30 33850 O 3380.56 -1.30817 -1.53131 0
M  V30 33851 C 3377.63 -2.49425 -2.40808 0
M  V30 33852 C 3376.69 -3.70875 -2.16218 0
M  V30 33853 C 3375.92 -4.11674 -3.39647 0
M  V30 33854 O 3376.14 -3.52407 -4.48514 0
M  V30 33855 O 3375.08 -5.04512 -3.28254 0
M  V30 33856 H 3378.9 -2.94936 -0.724329 0
M  V30 33857 H 3376.49 -1.46516 -0.292158 0
M  V30 33858 H 3378.37 -2.77539 -3.17096 0
M  V30 33859 H 3377.04 -1.64192 -2.78967 0
M  V30 33860 H 3375.95 -3.47853 -1.37657 0
M  V30 33861 H 3377.28 -4.56938 -1.82943 0
M  V30 33862 N 3378.94 0.34972 -1.53671 0
M  V30 33863 C 3380.21 1.10729 -1.6124 0
M  V30 33864 C 3380.59 2.06678 -0.429792 0
M  V30 33865 O 3379.94 2.21055 0.578525 0
M  V30 33866 C 3380.15 1.8324 -2.97025 0
M  V30 33867 C 3381.5 2.37206 -3.52163 0
M  V30 33868 O 3382.52 1.93345 -2.99159 0
M  V30 33869 O 3381.38 3.17432 -4.44859 0
M  V30 33870 H 3378.48 0.508853 -0.651918 0
M  V30 33871 H 3381.02 0.351709 -1.66015 0
M  V30 33872 H 3379.79 1.13305 -3.74537 0
M  V30 33873 H 3379.42 2.6567 -2.95813 0
M  V30 33874 N 3380.41 1.45299 0.610397 0
M  V30 33875 C 3381.83 1.29643 0.930849 0
M  V30 33876 C 3382.03 0.247393 1.99976 0
M  V30 33877 O 3381.09 -0.35963 2.49926 0
M  V30 33878 C 3382.4 2.6745 1.37444 0
M  V30 33879 C 3383.95 2.75325 1.4888 0
M  V30 33880 C 3384.42 4.1365 1.96616 0
M  V30 33881 N 3385.91 4.1593 2.03854 0
M  V30 33882 C 3386.65 5.19828 2.42006 0
M  V30 33883 N 3386.14 6.34074 2.79146 0
M  V30 33884 N 3387.94 5.07186 2.42321 0
M  V30 33885 H 3380.09 2.12182 -0.0961632 0
M  V30 33886 H 3382.35 0.947797 0.0196316 0
M  V30 33887 H 3382.06 3.4539 0.663215 0
M  V30 33888 H 3381.93 2.95725 2.3415 0
M  V30 33889 H 3384.32 1.9769 2.19095 0
M  V30 33890 H 3384.4 2.50766 0.504962 0
M  V30 33891 H 3384.04 4.91768 1.2699 0
M  V30 33892 H 3383.97 4.35598 2.95909 0
M  V30 33893 H 3386.46 3.33485 1.77753 0
M  V30 33894 H 3386.78 7.09148 3.07131 0
M  V30 33895 H 3385.12 6.37479 2.76849 0
M  V30 33896 H 3388.31 4.1698 2.12709 0
M  V30 33897 H 3388.49 5.88276 2.71727 0
M  V30 33898 N 3381.89 -0.852653 1.32543 0
M  V30 33899 C 3382.84 -1.9614 1.21647 0
M  V30 33900 C 3383.81 -1.6581 0.0981788 0
M  V30 33901 O 3384.99 -1.88821 0.274073 0
M  V30 33902 C 3382.13 -3.31837 0.947542 0
M  V30 33903 C 3381.25 -3.74652 2.1508 0
M  V30 33904 C 3380.38 -4.99151 1.81719 0
M  V30 33905 C 3379.42 -5.34463 2.98355 0
M  V30 33906 N 3378.56 -6.50139 2.65074 0
M  V30 33907 H 3383.4 -2.04791 2.16482 0
M  V30 33908 H 3380.94 -1.00232 1.07666 0
M  V30 33909 H 3382.89 -4.09993 0.77211 0
M  V30 33910 H 3381.52 -3.2278 0.0359679 0
M  V30 33911 H 3380.58 -2.92133 2.43644 0
M  V30 33912 H 3381.89 -3.96741 3.02321 0
M  V30 33913 H 3381.04 -5.85019 1.6074 0
M  V30 33914 H 3379.78 -4.79002 0.916959 0
M  V30 33915 H 3378.79 -4.47105 3.19964 0
M  V30 33916 H 3380.01 -5.56567 3.89114 0
M  V30 33917 H 3377.96 -6.31503 1.77593 0
M  V30 33918 H 3377.87 -6.72256 3.45844 0
M  V30 33919 H 3379.14 -7.39155 2.47529 0
M  V30 33920 N 3383.37 -1.15786 -1.06918 0
M  V30 33921 C 3384.65 -0.845856 -1.76365 0
M  V30 33922 C 3385.03 0.657636 -2.00595 0
M  V30 33923 O 3384.38 1.60342 -1.62797 0
M  V30 33924 C 3384.59 -1.66154 -3.0691 0
M  V30 33925 C 3385.93 -1.87053 -3.81178 0
M  V30 33926 O 3386.96 -1.62967 -3.16734 0
M  V30 33927 O 3385.82 -2.27422 -4.96932 0
M  V30 33928 H 3382.91 -0.311506 -0.766089 0
M  V30 33929 H 3385.46 -1.26388 -1.13243 0
M  V30 33930 H 3384.23 -2.6821 -2.84919 0
M  V30 33931 H 3383.85 -1.24014 -3.77765 0
M  V30 33932 N 3384.85 1.25343 -0.955348 0
M  V30 33933 C 3386.1 1.92696 -0.609312 0
M  V30 33934 C 3386.42 1.75183 0.856504 0
M  V30 33935 O 3385.69 1.1159 1.61011 0
M  V30 33936 H 3384.27 0.713137 -0.222363 0
M  V30 33937 H 3386.93 1.52493 -1.21374 0
M  V30 33938 H 3386.03 3.00604 -0.839251 0
M  V30 33939 N 3386.33 0.724003 1.39986 0
M  V30 33940 C 3387.55 0.27567 2.0556 0
M  V30 33941 C 3387.98 -1.07708 1.54209 0
M  V30 33942 O 3387.34 -1.68021 0.68107 0
M  V30 33943 C 3387.38 0.274913 3.59551 0
M  V30 33944 O 3386.49 -0.741111 4.05686 0
M  V30 33945 H 3385.83 0.127561 0.651632 0
M  V30 33946 H 3388.36 0.986846 1.79228 0
M  V30 33947 H 3388.37 0.115496 4.07836 0
M  V30 33948 H 3387.04 1.26205 3.96289 0
M  V30 33949 H 3385.62 -0.54873 3.68841 0
M  V30 33950 N 3387.81 -1.50403 0.470808 0
M  V30 33951 C 3389.05 -2.04231 -0.0830289 0
M  V30 33952 C 3389.41 -1.34505 -1.37012 0
M  V30 33953 O 3390.61 -1.78887 -2.00632 0
M  V30 33954 C 3388.88 -3.56432 -0.262923 0
M  V30 33955 S 3390.44 -4.31895 -0.775357 0
M  V30 33956 H 3387.26 -0.710818 -0.01609 0
M  V30 33957 H 3389.86 -1.84801 0.637882 0
M  V30 33958 H 3388.56 -4.04733 0.679629 0
M  V30 33959 H 3388.1 -3.80215 -1.00996 0
M  V30 33960 H 3390.11 -4.51928 -2.04879 0
M  V30 33961 N 3389.28 -0.203404 -1.56282 0
M  V30 33962 C 3390.53 0.432312 -1.97422 0
M  V30 33963 C 3390.85 1.61574 -1.09173 0
M  V30 33964 O 3390.12 1.95206 -0.164793 0
M  V30 33965 H 3388.7 0.162708 -0.729065 0
M  V30 33966 H 3391.36 -0.292073 -1.92699 0
M  V30 33967 H 3390.46 0.770864 -3.0243 0
M  V30 33968 N 3390.76 1.57444 0.0701393 0
M  V30 33969 C 3392.01 1.87609 0.77012 0
M  V30 33970 C 3392.34 0.795906 1.77141 0
M  V30 33971 O 3391.62 -0.19364 1.93534 0
M  V30 33972 C 3391.9 3.28432 1.47662 0
M  V30 33973 C 3391.75 4.47105 0.491634 0
M  V30 33974 C 3393.07 3.67518 2.42112 0
M  V30 33975 H 3390.19 0.682351 0.278507 0
M  V30 33976 H 3392.83 1.89971 0.033285 0
M  V30 33977 H 3390.98 3.26549 2.1047 0
M  V30 33978 H 3392.65 4.61113 -0.131364 0
M  V30 33979 H 3390.9 4.33371 -0.192894 0
M  V30 33980 H 3391.57 5.42426 1.02363 0
M  V30 33981 H 3394.04 3.70506 1.8938 0
M  V30 33982 H 3392.92 4.66938 2.88548 0
M  V30 33983 H 3393.18 2.9754 3.2699 0
M  V30 33984 N 3392.24 -0.341566 1.53854 0
M  V30 33985 C 3393.2 -1.40248 1.81282 0
M  V30 33986 C 3394.2 -1.4553 0.683941 0
M  V30 33987 O 3395.39 -1.45871 0.952228 0
M  V30 33988 C 3392.52 -2.79157 1.95663 0
M  V30 33989 H 3393.72 -1.17191 2.76055 0
M  V30 33990 H 3391.27 -0.576064 1.45297 0
M  V30 33991 H 3392.01 -3.07495 1.03039 0
M  V30 33992 H 3391.79 -2.7672 2.77793 0
M  V30 33993 H 3393.28 -3.55941 2.18393 0
M  V30 33994 N 3393.72 -1.45621 -0.602683 0
M  V30 33995 C 3394.95 -1.53206 -1.38606 0
M  V30 33996 C 3395.36 -0.165131 -1.88478 0
M  V30 33997 O 3394.7 0.844392 -1.63143 0
M  V30 33998 C 3394.76 -2.45939 -2.6221 0
M  V30 33999 C 3394.42 -3.92581 -2.33943 0
M  V30 34000 C 3395.42 -4.82347 -1.94003 0
M  V30 34001 C 3393.11 -4.37542 -2.46703 0
M  V30 34002 C 3395.1 -6.15082 -1.67191 0
M  V30 34003 C 3392.79 -5.70316 -2.19505 0
M  V30 34004 C 3393.79 -6.58906 -1.79811 0
M  V30 34005 O 3393.47 -7.89219 -1.52934 0
M  V30 34006 H 3393.21 -0.521187 -0.430511 0
M  V30 34007 H 3395.76 -1.91544 -0.741622 0
M  V30 34008 H 3393.99 -2.02581 -3.2939 0
M  V30 34009 H 3395.68 -2.44153 -3.24259 0
M  V30 34010 H 3396.44 -4.48874 -1.83676 0
M  V30 34011 H 3392.32 -3.68826 -2.76565 0
M  V30 34012 H 3395.87 -6.84188 -1.36134 0
M  V30 34013 H 3391.76 -6.03343 -2.2945 0
M  V30 34014 H 3392.53 -8.01294 -1.66946 0
M  V30 34015 N 3395.2 0.845612 -1.32993 0
M  V30 34016 C 3396.44 1.60279 -1.24251 0
M  V30 34017 C 3396.77 1.93238 0.193015 0
M  V30 34018 O 3396.05 1.58124 1.13257 0
M  V30 34019 C 3396.33 2.91723 -2.11116 0
M  V30 34020 C 3396.19 2.65488 -3.63093 0
M  V30 34021 C 3397.5 3.93085 -1.97919 0
M  V30 34022 H 3394.62 0.58157 -0.452709 0
M  V30 34023 H 3397.27 0.975799 -1.63028 0
M  V30 34024 H 3395.42 3.45233 -1.78175 0
M  V30 34025 H 3397.09 2.18462 -4.06291 0
M  V30 34026 H 3395.33 1.993 -3.85308 0
M  V30 34027 H 3396 3.59121 -4.19209 0
M  V30 34028 H 3398.48 3.4886 -2.26794 0
M  V30 34029 H 3397.35 4.82898 -2.6096 0
M  V30 34030 H 3397.61 4.31784 -0.949453 0
M  V30 34031 N 3396.67 1.16351 1.06302 0
M  V30 34032 C 3397.92 0.946372 1.79365 0
M  V30 34033 C 3398.25 -0.524536 1.86982 0
M  V30 34034 O 3397.53 -1.38914 1.36136 0
M  V30 34035 C 3397.81 1.57442 3.23858 0
M  V30 34036 C 3397.66 3.11666 3.24321 0
M  V30 34037 C 3398.98 1.26902 4.21407 0
M  V30 34038 H 3396.1 0.345226 0.651144 0
M  V30 34039 H 3398.74 1.4368 1.24322 0
M  V30 34040 H 3396.89 1.15738 3.7086 0
M  V30 34041 H 3398.57 3.62351 2.85481 0
M  V30 34042 H 3396.81 3.45001 2.62977 0
M  V30 34043 H 3397.48 3.50731 4.26254 0
M  V30 34044 H 3399.96 1.62995 3.82847 0
M  V30 34045 H 3398.83 1.73448 5.20775 0
M  V30 34046 H 3399.09 0.187846 4.41701 0
M  V30 34047 N 3398.15 -1.24835 0.961982 0
M  V30 34048 C 3399.08 -2.24831 0.445369 0
M  V30 34049 C 3400.1 -1.56663 -0.44277 0
M  V30 34050 O 3401.29 -1.76743 -0.249865 0
M  V30 34051 C 3398.39 -3.36798 -0.376894 0
M  V30 34052 C 3397.56 -4.34533 0.499984 0
M  V30 34053 C 3396.62 -5.25531 -0.26531 0
M  V30 34054 O 3395.64 -5.68191 0.338807 0
M  V30 34055 N 3396.85 -5.59245 -1.55644 0
M  V30 34056 H 3399.61 -2.69791 1.3051 0
M  V30 34057 H 3397.17 -1.38817 0.833162 0
M  V30 34058 H 3399.16 -3.94639 -0.896762 0
M  V30 34059 H 3397.73 -2.91169 -1.13752 0
M  V30 34060 H 3396.95 -3.75463 1.20088 0
M  V30 34061 H 3398.24 -4.96806 1.09823 0
M  V30 34062 H 3397.64 -5.26504 -2.06906 0
M  V30 34063 H 3396.2 -6.1964 -2.02212 0
M  V30 34064 N 3399.63 -0.731417 -1.396 0
M  V30 34065 C 3400.54 -0.0905682 -2.34425 0
M  V30 34066 C 3401.56 0.725964 -1.58132 0
M  V30 34067 O 3402.73 0.655261 -1.90442 0
M  V30 34068 C 3399.8 0.808565 -3.3714 0
M  V30 34069 C 3398.86 -0.019812 -4.29295 0
M  V30 34070 C 3398.09 0.836501 -5.27104 0
M  V30 34071 O 3398.31 2.07533 -5.31306 0
M  V30 34072 O 3397.25 0.267066 -6.01307 0
M  V30 34073 H 3401.07 -0.873136 -2.90878 0
M  V30 34074 H 3398.66 -0.492049 -1.41065 0
M  V30 34075 H 3400.54 1.32312 -4.00089 0
M  V30 34076 H 3399.22 1.57001 -2.83077 0
M  V30 34077 H 3398.12 -0.579809 -3.6958 0
M  V30 34078 H 3399.46 -0.743393 -4.86554 0
M  V30 34079 N 3401.11 1.50152 -0.478778 0
M  V30 34080 C 3402.52 1.86683 -0.0255235 0
M  V30 34081 C 3402.87 1.39298 1.38169 0
M  V30 34082 O 3402 0.761243 2.02569 0
M  V30 34083 C 3402.59 3.38777 -0.0395414 0
M  V30 34084 C 3401.15 3.74691 0.358274 0
M  V30 34085 C 3400.3 2.74075 -0.421715 0
M  V30 34086 H 3403.25 1.42785 -0.692678 0
M  V30 34087 H 3403.27 3.72815 0.760891 0
M  V30 34088 H 3402.78 3.73234 -1.06385 0
M  V30 34089 H 3400.88 3.45837 1.38665 0
M  V30 34090 H 3400.99 4.79069 0.0542747 0
M  V30 34091 H 3399.36 2.5439 0.125589 0
M  V30 34092 H 3400.14 3.11376 -1.44568 0
M  V30 34093 N 3402.59 0.211689 1.56172 0
M  V30 34094 C 3403.83 -0.421836 1.97649 0
M  V30 34095 C 3404.16 -1.60993 1.10029 0
M  V30 34096 O 3403.43 -1.95116 0.175143 0
M  V30 34097 H 3402.01 -0.158839 0.729917 0
M  V30 34098 H 3404.67 0.302288 1.92542 0
M  V30 34099 H 3403.76 -0.754815 3.02835 0
M  V30 34100 N 3404.06 -1.57479 -0.0617887 0
M  V30 34101 C 3405.34 -1.78822 -0.792604 0
M  V30 34102 C 3405.72 -0.801758 -1.95282 0
M  V30 34103 O 3405.07 0.163055 -2.27917 0
M  V30 34104 C 3405.28 -3.25607 -1.25623 0
M  V30 34105 C 3406.63 -3.89711 -1.68555 0
M  V30 34106 O 3407.65 -3.29559 -1.35165 0
M  V30 34107 O 3406.51 -4.95555 -2.30408 0
M  V30 34108 H 3403.6 -0.734225 -0.380582 0
M  V30 34109 H 3406.15 -1.6965 -0.0410906 0
M  V30 34110 H 3404.92 -3.88969 -0.426513 0
M  V30 34111 H 3404.55 -3.39541 -2.06876 0
M  V30 34112 N 3405.54 0.333401 -1.54033 0
M  V30 34113 C 3406.77 1.0907 -1.75463 0
M  V30 34114 C 3407.18 1.82514 -0.49852 0
M  V30 34115 O 3406.52 1.75584 0.539998 0
M  V30 34116 C 3406.59 2.14161 -2.88748 0
M  V30 34117 C 3406.25 1.60202 -4.28 0
M  V30 34118 C 3407.25 1.04898 -5.09208 0
M  V30 34119 C 3404.93 1.64742 -4.74516 0
M  V30 34120 C 3406.93 0.548503 -6.35036 0
M  V30 34121 C 3404.61 1.14307 -6.00314 0
M  V30 34122 C 3405.61 0.594548 -6.80407 0
M  V30 34123 O 3405.3 0.0977497 -8.03841 0
M  V30 34124 H 3405.03 0.330692 -0.589592 0
M  V30 34125 H 3407.58 0.388238 -2.01697 0
M  V30 34126 H 3405.81 2.87995 -2.58062 0
M  V30 34127 H 3407.5 2.75535 -2.98053 0
M  V30 34128 H 3408.27 1.00704 -4.7443 0
M  V30 34129 H 3404.15 2.06377 -4.12225 0
M  V30 34130 H 3407.69 0.1197 -6.97497 0
M  V30 34131 H 3403.59 1.18204 -6.34585 0
M  V30 34132 H 3404.36 0.214093 -8.1822 0
M  V30 34133 N 3407.02 1.45939 0.594952 0
M  V30 34134 C 3407.93 1.58135 1.73293 0
M  V30 34135 C 3408.95 0.465275 1.67664 0
M  V30 34136 O 3410.12 0.727717 1.87793 0
M  V30 34137 C 3407.19 1.55683 3.0978 0
M  V30 34138 C 3406.25 2.78427 3.26767 0
M  V30 34139 C 3405.48 2.76083 4.56743 0
M  V30 34140 O 3405.7 1.84129 5.39864 0
M  V30 34141 O 3404.64 3.67461 4.76714 0
M  V30 34142 H 3408.46 2.54349 1.65953 0
M  V30 34143 H 3406.05 1.28592 0.76055 0
M  V30 34144 H 3407.93 1.56968 3.91074 0
M  V30 34145 H 3406.61 0.626247 3.17584 0
M  V30 34146 H 3405.51 2.827 2.45013 0
M  V30 34147 H 3406.85 3.70654 3.23847 0
M  V30 34148 N 3408.5 -0.838547 1.3344 0
M  V30 34149 C 3409.74 -1.59618 1.251 0
M  V30 34150 C 3410.08 -1.93338 -0.182764 0
M  V30 34151 O 3409.35 -1.58722 -1.12417 0
M  V30 34152 C 3409.64 -2.90599 2.1266 0
M  V30 34153 C 3409.49 -2.63559 3.64495 0
M  V30 34154 C 3410.81 -3.9203 2.00001 0
M  V30 34155 H 3407.93 -0.579161 0.455786 0
M  V30 34156 H 3410.57 -0.96714 1.63543 0
M  V30 34157 H 3408.72 -3.44283 1.80004 0
M  V30 34158 H 3410.39 -2.16304 4.07443 0
M  V30 34159 H 3408.63 -1.97253 3.86359 0
M  V30 34160 H 3409.3 -3.56893 4.21107 0
M  V30 34161 H 3411.78 -3.47653 2.28641 0
M  V30 34162 H 3410.66 -4.81508 2.63518 0
M  V30 34163 H 3410.92 -4.31275 0.972339 0
M  V30 34164 N 3409.98 -1.16914 -1.05683 0
M  V30 34165 C 3411.2 -0.979381 -1.82819 0
M  V30 34166 C 3411.63 0.467543 -1.82197 0
M  V30 34167 O 3410.98 1.33443 -1.2273 0
M  V30 34168 C 3411.03 -1.51897 -3.27047 0
M  V30 34169 O 3410.14 -0.729413 -4.05898 0
M  V30 34170 H 3409.48 -0.348086 -0.565449 0
M  V30 34171 H 3412.01 -1.55295 -1.33209 0
M  V30 34172 H 3412.02 -1.53911 -3.77856 0
M  V30 34173 H 3410.69 -2.57225 -3.26815 0
M  V30 34174 H 3409.27 -0.780285 -3.64645 0
M  V30 34175 N 3411.45 1.24323 -0.968589 0
M  V30 34176 C 3412.7 1.92704 -0.631897 0
M  V30 34177 C 3413.03 1.75526 0.830929 0
M  V30 34178 O 3412.31 1.10889 1.59793 0
M  V30 34179 C 3412.59 3.45689 -1.00851 0
M  V30 34180 C 3412.44 3.72031 -2.5281 0
M  V30 34181 C 3413.76 4.36728 -0.543723 0
M  V30 34182 H 3410.88 0.69985 -0.231039 0
M  V30 34183 H 3413.52 1.46674 -1.20775 0
M  V30 34184 H 3411.67 3.85024 -0.518502 0
M  V30 34185 H 3413.35 3.42249 -3.09295 0
M  V30 34186 H 3411.59 3.17152 -2.95968 0
M  V30 34187 H 3412.26 4.79074 -2.74212 0
M  V30 34188 H 3414.74 4.04773 -0.964254 0
M  V30 34189 H 3413.61 5.42499 -0.835795 0
M  V30 34190 H 3413.87 4.38588 0.556179 0
M  V30 34191 N 3412.93 0.73881 1.3921 0
M  V30 34192 C 3413.88 0.101331 2.30577 0
M  V30 34193 C 3414.85 -0.72559 1.49414 0
M  V30 34194 O 3416.03 -0.684768 1.78089 0
M  V30 34195 C 3413.17 -0.797102 3.35768 0
M  V30 34196 C 3412.29 0.042846 4.31979 0
M  V30 34197 C 3411.42 -0.857214 5.24238 0
M  V30 34198 C 3410.46 -0.0127425 6.12099 0
M  V30 34199 N 3409.6 -0.868944 6.96702 0
M  V30 34200 H 3414.44 0.88611 2.84521 0
M  V30 34201 H 3411.98 0.448627 1.40092 0
M  V30 34202 H 3413.93 -1.33248 3.95349 0
M  V30 34203 H 3412.56 -1.54782 2.83271 0
M  V30 34204 H 3411.62 0.695687 3.73984 0
M  V30 34205 H 3412.93 0.695637 4.93925 0
M  V30 34206 H 3412.08 -1.4603 5.88864 0
M  V30 34207 H 3410.82 -1.54378 4.62622 0
M  V30 34208 H 3409.83 0.603114 5.46482 0
M  V30 34209 H 3411.05 0.670659 6.7578 0
M  V30 34210 H 3409 -1.54073 6.3765 0
M  V30 34211 H 3408.91 -0.272719 7.55508 0
M  V30 34212 H 3410.18 -1.45747 7.65753 0
M  V30 34213 N 3414.41 -1.49895 0.486734 0
M  V30 34214 C 3415.66 -2.02403 -0.0628164 0
M  V30 34215 C 3415.99 -1.36756 -1.38304 0
M  V30 34216 O 3415.24 -0.487527 -1.8953 0
M  V30 34217 C 3415.54 -3.56313 -0.27858 0
M  V30 34218 C 3415.21 -4.40521 0.961871 0
M  V30 34219 C 3413.87 -4.63253 1.30193 0
M  V30 34220 C 3416.22 -4.89606 1.78706 0
M  V30 34221 C 3413.55 -5.32314 2.46696 0
M  V30 34222 C 3415.9 -5.59948 2.94349 0
M  V30 34223 C 3414.56 -5.80929 3.28752 0
M  V30 34224 H 3413.83 -0.740643 -0.0229862 0
M  V30 34225 H 3416.48 -1.80347 0.643995 0
M  V30 34226 H 3414.79 -3.76969 -1.06779 0
M  V30 34227 H 3416.48 -3.94519 -0.718009 0
M  V30 34228 H 3413.07 -4.23059 0.686961 0
M  V30 34229 H 3417.26 -4.71884 1.5375 0
M  V30 34230 H 3412.51 -5.46763 2.73605 0
M  V30 34231 H 3416.69 -5.96959 3.58626 0
M  V30 34232 H 3414.31 -6.34218 4.19132 0
M  V30 34233 N 3415.89 -0.219968 -1.56057 0
M  V30 34234 C 3416.84 0.707282 -2.21586 0
M  V30 34235 C 3417.83 1.20091 -1.19476 0
M  V30 34236 O 3419.04 1.16093 -1.37559 0
M  V30 34237 H 3415.41 0.246502 -0.710451 0
M  V30 34238 H 3417.38 0.131162 -2.98112 0
M  V30 34239 C 3416.13 1.90539 -2.90844 0
M  V30 34240 H 3415.46 1.53466 -3.69172 0
M  V30 34241 H 3416.9 2.532 -3.40096 0
M  V30 34242 C 3415.35 2.7598 -1.93227 0
M  V30 34243 O 3415.88 3.74686 -1.44822 0
M  V30 34244 N 3414.09 2.41983 -1.60912 0
M  V30 34245 H 3413.64 1.61771 -2.0047 0
M  V30 34246 H 3413.6 2.9943 -0.958587 0
M  V30 34247 N 3417.37 1.57509 0.0534363 0
M  V30 34248 C 3418.28 2.08315 1.07899 0
M  V30 34249 C 3419.29 1.01649 1.41221 0
M  V30 34250 O 3420.47 1.33236 1.5103 0
M  V30 34251 C 3417.53 2.53224 2.36809 0
M  V30 34252 C 3416.6 3.74268 2.10291 0
M  V30 34253 C 3415.83 4.17026 3.33055 0
M  V30 34254 O 3416.05 3.59498 4.42851 0
M  V30 34255 O 3414.99 5.09671 3.20186 0
M  V30 34256 H 3418.81 2.96051 0.677316 0
M  V30 34257 H 3416.4 1.46962 0.268812 0
M  V30 34258 H 3418.28 2.82549 3.1264 0
M  V30 34259 H 3416.95 1.68609 2.7632 0
M  V30 34260 H 3415.86 3.49999 1.32105 0
M  V30 34261 H 3417.19 4.59791 1.7565 0
M  V30 34262 N 3418.85 -0.325228 1.54208 0
M  V30 34263 C 3419.76 -1.42323 1.86497 0
M  V30 34264 C 3420.77 -1.56682 0.756746 0
M  V30 34265 O 3421.95 -1.7181 1.05087 0
M  V30 34266 C 3419.01 -2.7706 2.08419 0
M  V30 34267 C 3418.07 -2.71891 3.32225 0
M  V30 34268 C 3417.31 -4.00202 3.53092 0
M  V30 34269 O 3417.53 -4.98386 2.7743 0
M  V30 34270 O 3416.46 -4.03562 4.46566 0
M  V30 34271 H 3420.29 -1.17946 2.79861 0
M  V30 34272 H 3417.87 -0.519099 1.40092 0
M  V30 34273 H 3419.76 -3.56823 2.24177 0
M  V30 34274 H 3418.43 -3.01331 1.18243 0
M  V30 34275 H 3417.34 -1.90685 3.21854 0
M  V30 34276 H 3418.67 -2.52575 4.22453 0
M  V30 34277 N 3420.32 -1.46252 -0.587204 0
M  V30 34278 C 3421.27 -1.52893 -1.69138 0
M  V30 34279 C 3422.26 -0.390267 -1.56095 0
M  V30 34280 O 3423.45 -0.638402 -1.65086 0
M  V30 34281 C 3420.58 -1.51791 -3.0792 0
M  V30 34282 C 3419.66 -2.70934 -3.26275 0
M  V30 34283 N 3420.06 -3.95891 -3.14808 0
M  V30 34284 C 3418.35 -2.67063 -3.57202 0
M  V30 34285 C 3419.05 -4.75519 -3.35046 0
M  V30 34286 N 3418.03 -4.07317 -3.59992 0
M  V30 34287 H 3421.83 -2.47308 -1.58796 0
M  V30 34288 H 3419.35 -1.41829 -0.791099 0
M  V30 34289 H 3421.34 -1.54635 -3.87161 0
M  V30 34290 H 3420 -0.584491 -3.19396 0
M  V30 34291 H 3421.01 -4.27207 -2.9277 0
M  V30 34292 H 3417.69 -1.82724 -3.75391 0
M  V30 34293 H 3419.08 -5.84485 -3.31402 0
M  V30 34294 N 3421.8 0.831459 -1.33883 0
M  V30 34295 C 3423.05 1.58215 -1.25103 0
M  V30 34296 C 3423.36 1.94774 0.179596 0
M  V30 34297 O 3424.57 2.68692 0.389469 0
M  V30 34298 C 3423.03 2.85406 -2.19251 0
M  V30 34299 C 3422.63 2.56183 -3.67524 0
M  V30 34300 C 3424.38 3.63429 -2.19361 0
M  V30 34301 C 3422.28 3.79515 -4.53566 0
M  V30 34302 H 3421.21 0.593776 -0.4647 0
M  V30 34303 H 3423.87 0.916141 -1.58994 0
M  V30 34304 H 3422.25 3.53588 -1.78302 0
M  V30 34305 H 3423.42 1.96166 -4.1696 0
M  V30 34306 H 3421.74 1.91451 -3.69778 0
M  V30 34307 H 3424.33 4.5499 -2.80871 0
M  V30 34308 H 3424.68 3.98911 -1.19063 0
M  V30 34309 H 3425.21 3.02181 -2.58711 0
M  V30 34310 H 3421.95 3.4916 -5.54768 0
M  V30 34311 H 3421.47 4.38846 -4.0887 0
M  V30 34312 H 3423.15 4.47017 -4.67744 0
M  V30 34313 N 3423.28 1.17472 1.05062 0
M  V30 34314 C 3424.69 0.969656 1.59545 0
M  V30 34315 C 3425.04 -0.483298 1.90154 0
M  V30 34316 O 3424.17 -1.35884 1.68418 0
M  V30 34317 C 3424.76 1.75382 2.89874 0
M  V30 34318 C 3423.32 1.59338 3.41011 0
M  V30 34319 C 3422.47 1.75464 2.14727 0
M  V30 34320 H 3425.42 1.32162 0.878572 0
M  V30 34321 H 3425.44 1.23697 3.59832 0
M  V30 34322 H 3424.95 2.81125 2.67564 0
M  V30 34323 H 3423.05 0.560891 3.68354 0
M  V30 34324 H 3423.17 2.38516 4.15508 0
M  V30 34325 H 3421.53 1.18317 2.25551 0
M  V30 34326 H 3422.31 2.82621 1.94885 0
M  V30 34327 N 3424.76 -1.23807 0.975168 0
M  V30 34328 C 3426.03 -1.87479 0.557758 0
M  V30 34329 C 3426.41 -1.87746 -0.965131 0
M  V30 34330 O 3425.76 -1.35534 -1.83964 0
M  V30 34331 C 3425.97 -3.29234 1.15783 0
M  V30 34332 C 3427.32 -4.05865 1.24733 0
M  V30 34333 O 3428.34 -3.38434 1.1109 0
M  V30 34334 O 3427.2 -5.26531 1.46382 0
M  V30 34335 H 3424.3 -0.805567 0.18706 0
M  V30 34336 H 3426.84 -1.31723 1.06992 0
M  V30 34337 H 3425.62 -3.23579 2.20028 0
M  V30 34338 H 3425.24 -3.92574 0.630172 0
M  V30 34339 N 3426.24 -0.746182 -1.38816 0
M  V30 34340 C 3427.46 -0.308338 -2.05095 0
M  V30 34341 C 3427.89 1.05241 -1.55903 0
M  V30 34342 O 3427.24 1.66916 -0.707715 0
M  V30 34343 C 3427.29 -0.33208 -3.59068 0
M  V30 34344 O 3426.4 0.676476 -4.06814 0
M  V30 34345 H 3425.74 -0.137912 -0.64952 0
M  V30 34346 H 3428.27 -1.01523 -1.77635 0
M  V30 34347 H 3428.28 -0.180365 -4.07601 0
M  V30 34348 H 3426.95 -1.32494 -3.94231 0
M  V30 34349 H 3425.53 0.489981 -3.69667 0
M  V30 34350 N 3427.71 1.49635 -0.494676 0
M  V30 34351 C 3429.12 1.86645 -0.0453222 0
M  V30 34352 C 3429.48 1.40755 1.36683 0
M  V30 34353 O 3428.6 0.782685 2.0175 0
M  V30 34354 C 3429.2 3.38716 -0.075471 0
M  V30 34355 C 3427.75 3.7505 0.318513 0
M  V30 34356 C 3426.9 2.73612 -0.45076 0
M  V30 34357 H 3429.85 1.42043 -0.707783 0
M  V30 34358 H 3429.87 3.73601 0.721306 0
M  V30 34359 H 3429.39 3.72085 -1.10337 0
M  V30 34360 H 3427.49 3.47288 1.34989 0
M  V30 34361 H 3427.6 4.791 0.00345995 0
M  V30 34362 H 3425.96 2.54509 0.0986007 0
M  V30 34363 H 3426.75 3.09825 -1.47862 0
M  V30 34364 N 3429.19 0.228241 1.55939 0
M  V30 34365 C 3430.44 -0.401642 1.98477 0
M  V30 34366 C 3430.77 -1.59295 1.11603 0
M  V30 34367 O 3430.02 -1.95024 0.162499 0
M  V30 34368 C 3430.32 -0.872671 3.46582 0
M  V30 34369 C 3429.99 0.208846 4.50416 0
M  V30 34370 C 3428.65 0.505931 4.78533 0
M  V30 34371 C 3431 0.939943 5.12654 0
M  V30 34372 C 3428.33 1.53851 5.66168 0
M  V30 34373 C 3430.68 1.96191 6.01408 0
M  V30 34374 C 3429.34 2.26584 6.27866 0
M  V30 34375 H 3428.61 -0.146971 0.726278 0
M  V30 34376 H 3431.26 0.332161 1.88597 0
M  V30 34377 H 3429.57 -1.68535 3.53699 0
M  V30 34378 H 3431.26 -1.36999 3.76872 0
M  V30 34379 H 3427.85 -0.0328555 4.28587 0
M  V30 34380 H 3432.04 0.723667 4.90996 0
M  V30 34381 H 3427.29 1.77954 5.84929 0
M  V30 34382 H 3431.47 2.53344 6.48683 0
M  V30 34383 H 3429.09 3.06737 6.95569 0
M  V30 34384 N 3430.67 -1.57536 -0.0450825 0
M  V30 34385 C 3431.92 -1.8881 -0.740176 0
M  V30 34386 C 3432.25 -0.823987 -1.75852 0
M  V30 34387 O 3431.52 0.162826 -1.93817 0
M  V30 34388 C 3431.81 -3.3074 -1.42419 0
M  V30 34389 C 3431.66 -4.47831 -0.420441 0
M  V30 34390 C 3432.98 -3.71324 -2.36234 0
M  V30 34391 H 3430.1 -0.686695 -0.267616 0
M  V30 34392 H 3432.74 -1.9 -0.00305809 0
M  V30 34393 H 3430.89 -3.29856 -2.05249 0
M  V30 34394 H 3432.56 -4.60846 0.204706 0
M  V30 34395 H 3430.81 -4.33009 0.261815 0
M  V30 34396 H 3431.48 -5.43986 -0.937202 0
M  V30 34397 H 3433.95 -3.73472 -1.83462 0
M  V30 34398 H 3432.83 -4.7147 -2.81083 0
M  V30 34399 H 3433.09 -3.02704 -3.22215 0
M  V30 34400 N 3432.15 0.317045 -1.54378 0
M  V30 34401 C 3433.39 1.05578 -1.73151 0
M  V30 34402 C 3433.73 1.87459 -0.507209 0
M  V30 34403 O 3433 1.88075 0.495804 0
M  V30 34404 C 3433.29 1.9751 -3.01101 0
M  V30 34405 C 3433.14 1.18915 -4.33796 0
M  V30 34406 C 3434.46 2.96934 -3.24836 0
M  V30 34407 H 3431.58 0.382423 -0.630017 0
M  V30 34408 H 3434.22 0.33184 -1.8708 0
M  V30 34409 H 3432.37 2.59239 -2.89357 0
M  V30 34410 H 3434.04 0.595959 -4.57434 0
M  V30 34411 H 3432.28 0.491536 -4.31006 0
M  V30 34412 H 3432.95 1.86452 -5.19557 0
M  V30 34413 H 3435.43 2.45329 -3.36085 0
M  V30 34414 H 3434.31 3.58438 -4.15709 0
M  V30 34415 H 3434.57 3.69741 -2.42371 0
M  V30 34416 N 3433.63 1.46561 0.57944 0
M  V30 34417 C 3435.04 1.46166 1.16157 0
M  V30 34418 C 3435.39 0.204265 1.95134 0
M  V30 34419 O 3434.51 -0.692421 2.05023 0
M  V30 34420 C 3435.11 2.64821 2.11317 0
M  V30 34421 C 3433.67 2.67456 2.64847 0
M  V30 34422 C 3432.81 2.38906 1.40781 0
M  V30 34423 H 3435.77 1.54393 0.367201 0
M  V30 34424 H 3435.79 2.40526 2.94835 0
M  V30 34425 H 3435.3 3.56321 1.53809 0
M  V30 34426 H 3433.4 1.80038 3.26216 0
M  V30 34427 H 3433.51 3.67515 3.07359 0
M  V30 34428 H 3431.88 1.8903 1.70703 0
M  V30 34429 H 3432.66 3.32585 0.85099 0
M  V30 34430 N 3435.1 -0.824347 1.34322 0
M  V30 34431 C 3436.35 -1.58282 1.26785 0
M  V30 34432 C 3436.68 -1.93521 -0.162248 0
M  V30 34433 O 3435.96 -1.59905 -1.10727 0
M  V30 34434 C 3436.24 -2.88327 2.1573 0
M  V30 34435 C 3436.09 -2.59678 3.6727 0
M  V30 34436 C 3437.41 -3.89887 2.04148 0
M  V30 34437 H 3434.53 -0.574294 0.461904 0
M  V30 34438 H 3437.17 -0.94974 1.6456 0
M  V30 34439 H 3435.32 -3.42355 1.83645 0
M  V30 34440 H 3437 -2.11971 4.09715 0
M  V30 34441 H 3435.24 -1.93144 3.8843 0
M  V30 34442 H 3435.91 -3.52406 4.24869 0
M  V30 34443 H 3438.39 -3.45208 2.32316 0
M  V30 34444 H 3437.26 -4.78686 2.6861 0
M  V30 34445 H 3437.52 -4.30219 1.01803 0
M  V30 34446 N 3436.58 -1.18028 -1.04437 0
M  V30 34447 C 3437.55 -0.906065 -2.10531 0
M  V30 34448 C 3438.55 0.106994 -1.60444 0
M  V30 34449 O 3439.74 -0.126032 -1.73743 0
M  V30 34450 C 3436.87 -0.358685 -3.39008 0
M  V30 34451 H 3438.06 -1.84681 -2.3629 0
M  V30 34452 H 3435.61 -0.991785 -1.20803 0
M  V30 34453 H 3436.35 0.588848 -3.18909 0
M  V30 34454 H 3436.13 -1.08891 -3.76676 0
M  V30 34455 H 3437.62 -0.185404 -4.17188 0
M  V30 34456 N 3438.06 1.23288 -0.98172 0
M  V30 34457 C 3439.29 1.96312 -0.669059 0
M  V30 34458 C 3439.71 1.72169 0.757594 0
M  V30 34459 O 3439.07 0.993969 1.51624 0
M  V30 34460 C 3439.12 3.47394 -0.966936 0
M  V30 34461 O 3438.22 4.12357 -0.0596658 0
M  V30 34462 H 3437.56 0.614526 -0.251504 0
M  V30 34463 H 3440.09 1.56688 -1.31567 0
M  V30 34464 H 3440.1 3.97855 -0.904182 0
M  V30 34465 H 3438.78 3.64293 -2.00658 0
M  V30 34466 H 3437.35 3.7248 -0.176943 0
M  V30 34467 N 3439.54 0.753533 1.38418 0
M  V30 34468 C 3440.95 0.377363 1.82847 0
M  V30 34469 C 3441.3 -1.09398 1.62869 0
M  V30 34470 O 3440.43 -1.84563 1.12984 0
M  V30 34471 C 3441.02 0.678154 3.31944 0
M  V30 34472 C 3439.58 0.355262 3.7472 0
M  V30 34473 C 3438.73 0.931357 2.61192 0
M  V30 34474 H 3441.68 0.949689 1.27148 0
M  V30 34475 H 3441.7 -0.0436623 3.80475 0
M  V30 34476 H 3441.21 1.74908 3.46452 0
M  V30 34477 H 3439.31 -0.709085 3.65791 0
M  V30 34478 H 3439.42 0.850776 4.71486 0
M  V30 34479 H 3437.79 0.35674 2.52189 0
M  V30 34480 H 3438.57 2.00732 2.78499 0
M  V30 34481 N 3441.02 -1.49371 0.502605 0
M  V30 34482 C 3442.24 -2.07361 -0.0402723 0
M  V30 34483 C 3442.67 -1.36028 -1.29916 0
M  V30 34484 O 3442.02 -0.417519 -1.76427 0
M  V30 34485 C 3442.07 -3.59548 -0.275298 0
M  V30 34486 O 3441.18 -3.89689 -1.34968 0
M  V30 34487 H 3440.52 -0.663453 0.0269384 0
M  V30 34488 H 3443.05 -1.92155 0.702686 0
M  V30 34489 H 3443.06 -4.04846 -0.50632 0
M  V30 34490 H 3441.73 -4.10877 0.644455 0
M  V30 34491 H 3440.31 -3.56199 -1.10349 0
M  V30 34492 N 3442.49 -0.236508 -1.55815 0
M  V30 34493 C 3443.74 0.390338 -1.98295 0
M  V30 34494 C 3444.06 1.59222 -1.12576 0
M  V30 34495 O 3443.33 1.94812 -0.206162 0
M  V30 34496 H 3441.91 0.147207 -0.732352 0
M  V30 34497 H 3444.58 -0.332881 -1.92036 0
M  V30 34498 H 3443.67 0.706541 -3.03997 0
M  V30 34499 N 3443.97 1.57557 0.0367273 0
M  V30 34500 C 3445.25 1.8006 0.764055 0
M  V30 34501 C 3445.63 0.832724 1.93982 0
M  V30 34502 O 3444.98 -0.126775 2.28148 0
M  V30 34503 C 3445.19 3.27564 1.20427 0
M  V30 34504 C 3446.54 3.92343 1.62333 0
M  V30 34505 O 3447.56 3.31667 1.29905 0
M  V30 34506 O 3446.42 4.99158 2.22495 0
M  V30 34507 H 3443.51 0.740187 0.368853 0
M  V30 34508 H 3446.06 1.69694 0.0140956 0
M  V30 34509 H 3444.83 3.89598 0.364578 0
M  V30 34510 H 3444.45 3.42789 2.01448 0
M  V30 34511 N 3445.45 -0.308854 1.54544 0
M  V30 34512 C 3446.41 -1.36371 1.84216 0
M  V30 34513 C 3447.41 -1.44046 0.714656 0
M  V30 34514 O 3448.6 -1.43818 0.982955 0
M  V30 34515 C 3445.74 -2.74944 2.0154 0
M  V30 34516 H 3446.93 -1.11309 2.78479 0
M  V30 34517 H 3444.48 -0.545115 1.46486 0
M  V30 34518 H 3445.22 -3.0524 1.09539 0
M  V30 34519 H 3445 -2.70765 2.836 0
M  V30 34520 H 3446.49 -3.51229 2.25894 0
M  V30 34521 N 3446.93 -1.46867 -0.571659 0
M  V30 34522 C 3448.35 -1.32066 -0.896149 0
M  V30 34523 C 3448.55 -0.300326 -1.99249 0
M  V30 34524 O 3447.6 0.29324 -2.50791 0
M  V30 34525 C 3448.91 -2.71 -1.30305 0
M  V30 34526 C 3450.46 -2.79175 -1.41528 0
M  V30 34527 C 3450.94 -4.18717 -1.8558 0
M  V30 34528 N 3452.43 -4.21189 -1.92755 0
M  V30 34529 C 3453.16 -5.26061 -2.28138 0
M  V30 34530 N 3452.66 -6.41252 -2.62237 0
M  V30 34531 N 3454.45 -5.13432 -2.28788 0
M  V30 34532 H 3446.6 -2.11853 0.152386 0
M  V30 34533 H 3448.87 -0.947984 0.00550443 0
M  V30 34534 H 3448.57 -3.47027 -0.571408 0
M  V30 34535 H 3448.45 -3.0183 -2.26227 0
M  V30 34536 H 3450.83 -2.0343 -2.13777 0
M  V30 34537 H 3450.91 -2.52017 -0.438298 0
M  V30 34538 H 3450.56 -4.94962 -1.13907 0
M  V30 34539 H 3450.49 -4.4329 -2.84256 0
M  V30 34540 H 3452.98 -3.38081 -1.68849 0
M  V30 34541 H 3453.29 -7.17042 -2.88221 0
M  V30 34542 H 3451.64 -6.44595 -2.5985 0
M  V30 34543 H 3454.83 -4.22473 -2.01579 0
M  V30 34544 H 3455 -5.95273 -2.56035 0
M  V30 34545 N 3448.41 0.817212 -1.34757 0
M  V30 34546 C 3449.82 1.11119 -1.14563 0
M  V30 34547 C 3450.02 2.0144 0.0490422 0
M  V30 34548 O 3449.08 2.41932 0.722854 0
M  V30 34549 C 3450.39 1.7524 -2.44359 0
M  V30 34550 C 3451.94 1.87709 -2.50468 0
M  V30 34551 C 3452.42 2.55246 -3.80281 0
M  V30 34552 N 3453.91 2.6274 -3.81473 0
M  V30 34553 C 3454.64 3.1574 -4.78639 0
M  V30 34554 N 3454.14 3.69259 -5.8619 0
M  V30 34555 N 3455.93 3.14194 -4.66088 0
M  V30 34556 H 3448.08 0.216563 -2.11293 0
M  V30 34557 H 3450.34 0.158644 -0.934631 0
M  V30 34558 H 3450.05 1.16338 -3.31901 0
M  V30 34559 H 3449.92 2.7505 -2.58122 0
M  V30 34560 H 3452.31 2.45758 -1.63362 0
M  V30 34561 H 3452.39 0.867844 -2.40629 0
M  V30 34562 H 3452.04 1.9785 -4.6778 0
M  V30 34563 H 3451.97 3.56686 -3.87405 0
M  V30 34564 H 3454.46 2.24812 -3.03757 0
M  V30 34565 H 3454.77 4.07968 -6.5634 0
M  V30 34566 H 3453.12 3.67487 -5.89897 0
M  V30 34567 H 3456.31 2.71654 -3.81211 0
M  V30 34568 H 3456.48 3.55194 -5.41979 0
M  V30 34569 N 3449.89 1.1858 1.0381 0
M  V30 34570 C 3450.82 0.938703 2.138 0
M  V30 34571 C 3451.8 -0.124546 1.69643 0
M  V30 34572 O 3452.98 0.0285762 1.94179 0
M  V30 34573 C 3450.11 0.466453 3.44153 0
M  V30 34574 C 3449.07 1.47048 4.01946 0
M  V30 34575 C 3448.39 0.855651 5.27809 0
M  V30 34576 C 3449.69 2.84796 4.37822 0
M  V30 34577 H 3451.39 1.85856 2.34729 0
M  V30 34578 H 3448.93 0.895027 1.12806 0
M  V30 34579 H 3450.88 0.28093 4.20463 0
M  V30 34580 H 3449.61 -0.488984 3.22919 0
M  V30 34581 H 3448.27 1.64299 3.27722 0
M  V30 34582 H 3447.92 -0.107054 5.02886 0
M  V30 34583 H 3447.62 1.52602 5.67438 0
M  V30 34584 H 3449.14 0.680716 6.06794 0
M  V30 34585 H 3450.55 2.71182 5.05107 0
M  V30 34586 H 3448.95 3.4854 4.88508 0
M  V30 34587 H 3450.02 3.38153 3.47535 0
M  V30 34588 N 3451.36 -1.22766 0.988245 0
M  V30 34589 C 3452.59 -1.95414 0.679777 0
M  V30 34590 C 3453.01 -1.7306 -0.754701 0
M  V30 34591 O 3452.36 -1.02681 -1.50874 0
M  V30 34592 C 3452.41 -3.48232 0.970405 0
M  V30 34593 O 3452.14 -3.69833 2.34851 0
M  V30 34594 C 3453.64 -4.38069 0.678987 0
M  V30 34595 H 3450.86 -0.621939 0.251858 0
M  V30 34596 H 3453.4 -1.56044 1.32176 0
M  V30 34597 H 3451.56 -3.85587 0.374309 0
M  V30 34598 H 3451.97 -4.64068 2.4442 0
M  V30 34599 H 3453.44 -5.44064 0.932645 0
M  V30 34600 H 3453.92 -4.37492 -0.386996 0
M  V30 34601 H 3454.53 -4.06333 1.25592 0
M  V30 34602 N 3452.84 -0.760864 -1.38017 0
M  V30 34603 C 3454.09 -0.320751 -2.00247 0
M  V30 34604 C 3454.42 1.09681 -1.60261 0
M  V30 34605 O 3453.7 1.75253 -0.843598 0
M  V30 34606 C 3453.98 -0.451912 -3.57253 0
M  V30 34607 C 3453.83 -1.9111 -4.07182 0
M  V30 34608 C 3455.15 0.150362 -4.39843 0
M  V30 34609 H 3452.27 -0.11802 -0.727489 0
M  V30 34610 H 3454.91 -0.96187 -1.63854 0
M  V30 34611 H 3453.06 0.0938989 -3.88387 0
M  V30 34612 H 3454.73 -2.51578 -3.8666 0
M  V30 34613 H 3452.98 -2.42368 -3.59778 0
M  V30 34614 H 3453.65 -1.95399 -5.16259 0
M  V30 34615 H 3456.12 -0.315218 -4.14904 0
M  V30 34616 H 3455 0.0283888 -5.48893 0
M  V30 34617 H 3455.26 1.23948 -4.24369 0
M  V30 34618 N 3454.32 1.49102 -0.510519 0
M  V30 34619 C 3455.54 2.07379 0.0292749 0
M  V30 34620 C 3455.97 1.36715 1.29192 0
M  V30 34621 O 3455.33 0.426869 1.76203 0
M  V30 34622 C 3455.38 3.59689 0.256227 0
M  V30 34623 O 3454.48 3.90399 1.329 0
M  V30 34624 H 3453.82 0.663301 -0.0304565 0
M  V30 34625 H 3456.35 1.9178 -0.712866 0
M  V30 34626 H 3456.36 4.05109 0.484843 0
M  V30 34627 H 3455.04 4.10529 -0.666235 0
M  V30 34628 H 3453.61 3.56779 1.08458 0
M  V30 34629 N 3455.8 0.244768 1.55688 0
M  V30 34630 C 3457.02 -0.38774 2.03743 0
M  V30 34631 C 3457.45 -1.50904 1.12293 0
M  V30 34632 O 3456.81 -1.80932 0.115477 0
M  V30 34633 C 3456.85 -0.874866 3.49826 0
M  V30 34634 O 3455.96 -1.9846 3.61507 0
M  V30 34635 H 3455.3 -0.0847992 0.658563 0
M  V30 34636 H 3457.83 0.3702 2.01223 0
M  V30 34637 H 3457.84 -1.17864 3.90605 0
M  V30 34638 H 3456.51 -0.0543121 4.15865 0
M  V30 34639 H 3455.09 -1.68568 3.32625 0
M  V30 34640 N 3457.28 -1.57574 -0.0283712 0
M  V30 34641 C 3458.21 -2.09641 -1.02825 0
M  V30 34642 C 3459.19 -0.9991 -1.37666 0
M  V30 34643 O 3460.37 -1.27437 -1.46538 0
M  V30 34644 C 3457.5 -2.57637 -2.32896 0
M  V30 34645 C 3456.46 -3.71638 -2.12294 0
M  V30 34646 C 3455.78 -4.05843 -3.48131 0
M  V30 34647 C 3457.08 -5.0004 -1.50855 0
M  V30 34648 H 3458.78 -2.93432 -0.594825 0
M  V30 34649 H 3456.32 -1.41158 -0.284677 0
M  V30 34650 H 3458.27 -2.92683 -3.03174 0
M  V30 34651 H 3457 -1.7093 -2.78299 0
M  V30 34652 H 3455.66 -3.36943 -1.44448 0
M  V30 34653 H 3455.31 -3.16202 -3.91184 0
M  V30 34654 H 3455.01 -4.82632 -3.35172 0
M  V30 34655 H 3456.53 -4.43424 -4.19771 0
M  V30 34656 H 3457.94 -5.33038 -2.11052 0
M  V30 34657 H 3456.34 -5.81444 -1.48469 0
M  V30 34658 H 3457.41 -4.82573 -0.474456 0
M  V30 34659 N 3458.75 0.300654 -1.54706 0
M  V30 34660 C 3459.69 1.39246 -1.82053 0
M  V30 34661 C 3460.7 1.46815 -0.703502 0
M  V30 34662 O 3461.89 1.49127 -0.980983 0
M  V30 34663 C 3458.99 2.77614 -1.94381 0
M  V30 34664 C 3458.16 2.92973 -3.24786 0
M  V30 34665 C 3457.22 4.11842 -3.27525 0
M  V30 34666 O 3456.25 4.03911 -4.01054 0
M  V30 34667 N 3457.45 5.22495 -2.52942 0
M  V30 34668 H 3460.21 1.16142 -2.76281 0
M  V30 34669 H 3457.77 0.490723 -1.54284 0
M  V30 34670 H 3459.77 3.55381 -1.93615 0
M  V30 34671 H 3458.34 2.93664 -1.07146 0
M  V30 34672 H 3457.56 2.02316 -3.38322 0
M  V30 34673 H 3458.84 3.00146 -4.1084 0
M  V30 34674 H 3458.24 5.31819 -1.92834 0
M  V30 34675 H 3456.8 5.98595 -2.57929 0
M  V30 34676 N 3460.23 1.47168 0.563863 0
M  V30 34677 C 3461.14 1.61775 1.699 0
M  V30 34678 C 3462.16 0.500734 1.66639 0
M  V30 34679 O 3463.33 0.767387 1.86207 0
M  V30 34680 C 3460.4 1.62219 3.06408 0
M  V30 34681 C 3459.46 2.85296 3.20788 0
M  V30 34682 C 3458.69 2.85709 4.50784 0
M  V30 34683 O 3458.92 1.95539 5.35837 0
M  V30 34684 O 3457.85 3.7749 4.68813 0
M  V30 34685 H 3461.68 2.57812 1.6052 0
M  V30 34686 H 3459.26 1.30177 0.733102 0
M  V30 34687 H 3461.14 1.65228 3.87657 0
M  V30 34688 H 3459.82 0.693471 3.16185 0
M  V30 34689 H 3458.73 2.87834 2.38961 0
M  V30 34690 H 3460.06 3.7744 3.15912 0
M  V30 34691 N 3461.71 -0.810054 1.35188 0
M  V30 34692 C 3462.94 -1.60357 1.31531 0
M  V30 34693 C 3463.36 -1.87805 -0.105352 0
M  V30 34694 O 3462.72 -1.46277 -1.0711 0
M  V30 34695 C 3462.77 -2.91383 2.12435 0
M  V30 34696 O 3461.87 -3.84048 1.50269 0
M  V30 34697 H 3461.21 -0.487214 0.45113 0
M  V30 34698 H 3463.74 -1.00565 1.78179 0
M  V30 34699 H 3463.75 -3.40837 2.24263 0
M  V30 34700 H 3462.43 -2.7073 3.15719 0
M  V30 34701 H 3461 -3.42592 1.47259 0
M  V30 34702 N 3463.19 -1.19129 -1.0318 0
M  V30 34703 C 3464.44 -0.990165 -1.76182 0
M  V30 34704 C 3464.76 0.480513 -1.88987 0
M  V30 34705 O 3464.03 1.34815 -1.42133 0
M  V30 34706 H 3462.61 -0.363376 -0.652661 0
M  V30 34707 H 3465.27 -1.49971 -1.24478 0
M  V30 34708 H 3464.37 -1.43572 -2.77116 0
M  V30 34709 N 3464.67 1.2224 -0.994741 0
M  V30 34710 C 3465.6 2.26523 -0.566539 0
M  V30 34711 C 3466.58 1.65146 0.407512 0
M  V30 34712 O 3467.76 1.91904 0.297743 0
M  V30 34713 C 3464.89 3.471 0.117799 0
M  V30 34714 C 3463.85 4.20925 -0.774982 0
M  V30 34715 C 3463.17 5.34683 0.0423747 0
M  V30 34716 C 3464.47 4.79412 -2.07271 0
M  V30 34717 H 3466.17 2.62594 -1.43822 0
M  V30 34718 H 3463.71 1.26228 -0.692993 0
M  V30 34719 H 3465.67 4.19213 0.428769 0
M  V30 34720 H 3464.39 3.10131 1.02404 0
M  V30 34721 H 3463.05 3.50649 -1.06962 0
M  V30 34722 H 3462.7 4.93955 0.94959 0
M  V30 34723 H 3462.4 5.85002 -0.55197 0
M  V30 34724 H 3463.92 6.09611 0.347397 0
M  V30 34725 H 3465.33 5.43457 -1.82557 0
M  V30 34726 H 3463.73 5.40077 -2.61604 0
M  V30 34727 H 3464.8 3.99361 -2.75024 0
M  V30 34728 N 3466.14 0.768172 1.37611 0
M  V30 34729 C 3467.09 0.150217 2.30311 0
M  V30 34730 C 3468.06 -0.693734 1.50919 0
M  V30 34731 O 3469.25 -0.646839 1.79501 0
M  V30 34732 C 3466.39 -0.725701 3.37383 0
M  V30 34733 C 3465.5 0.134465 4.31791 0
M  V30 34734 C 3464.63 -0.745822 5.25938 0
M  V30 34735 C 3463.67 0.117096 6.11988 0
M  V30 34736 N 3462.81 -0.720968 6.98388 0
M  V30 34737 H 3467.65 0.946261 2.82577 0
M  V30 34738 H 3465.19 0.478241 1.39109 0
M  V30 34739 H 3467.15 -1.24832 3.98086 0
M  V30 34740 H 3465.78 -1.48738 2.8649 0
M  V30 34741 H 3464.83 0.774858 3.72425 0
M  V30 34742 H 3466.14 0.80025 4.92339 0
M  V30 34743 H 3465.29 -1.33506 5.91829 0
M  V30 34744 H 3464.03 -1.4453 4.65792 0
M  V30 34745 H 3463.04 0.718895 5.4508 0
M  V30 34746 H 3464.26 0.813851 6.74206 0
M  V30 34747 H 3462.21 -1.40513 6.40775 0
M  V30 34748 H 3462.13 -0.112403 7.55916 0
M  V30 34749 H 3463.39 -1.29471 7.68673 0
M  V30 34750 N 3467.62 -1.48829 0.518419 0
M  V30 34751 C 3468.87 -2.0279 -0.0198992 0
M  V30 34752 C 3469.2 -1.39579 -1.35024 0
M  V30 34753 O 3468.48 -0.537482 -1.86926 0
M  V30 34754 C 3468.76 -3.5977 -0.15412 0
M  V30 34755 C 3468.61 -4.33482 1.20057 0
M  V30 34756 C 3469.93 -4.3108 -0.886471 0
M  V30 34757 H 3467.05 -0.736978 -0.00575766 0
M  V30 34758 H 3469.69 -1.77674 0.673209 0
M  V30 34759 H 3467.84 -3.81301 -0.744443 0
M  V30 34760 H 3469.51 -4.234 1.83111 0
M  V30 34761 H 3467.76 -3.95354 1.78544 0
M  V30 34762 H 3468.43 -5.41731 1.05977 0
M  V30 34763 H 3470.9 -4.14309 -0.385638 0
M  V30 34764 H 3469.78 -5.4063 -0.94926 0
M  V30 34765 H 3470.04 -3.97545 -1.93417 0
M  V30 34766 N 3469.1 -0.253021 -1.55556 0
M  V30 34767 C 3470.05 0.660122 -2.23036 0
M  V30 34768 C 3471.04 1.1753 -1.21996 0
M  V30 34769 O 3472.25 1.13149 -1.39991 0
M  V30 34770 H 3468.62 0.231377 -0.71552 0
M  V30 34771 H 3470.59 0.0678982 -2.98323 0
M  V30 34772 C 3469.34 1.84327 -2.9482 0
M  V30 34773 H 3468.67 1.45601 -3.72345 0
M  V30 34774 H 3470.11 2.45929 -3.45391 0
M  V30 34775 C 3468.57 2.71819 -1.99038 0
M  V30 34776 O 3469.1 3.7153 -1.52737 0
M  V30 34777 N 3467.3 2.38516 -1.66008 0
M  V30 34778 H 3466.85 1.57482 -2.03856 0
M  V30 34779 H 3466.81 2.9733 -1.02188 0
M  V30 34780 N 3470.58 1.57587 0.0200142 0
M  V30 34781 C 3471.51 2.03962 1.04557 0
M  V30 34782 C 3472.52 0.953986 1.3192 0
M  V30 34783 O 3473.71 1.23114 1.29248 0
M  V30 34784 C 3470.81 2.40762 2.3851 0
M  V30 34785 C 3469.99 3.71816 2.30373 0
M  V30 34786 C 3469.04 3.95704 3.46849 0
M  V30 34787 O 3468.07 4.66642 3.25936 0
M  V30 34788 N 3469.27 3.42044 4.69027 0
M  V30 34789 H 3472.04 2.92561 0.650231 0
M  V30 34790 H 3469.6 1.60561 0.20779 0
M  V30 34791 H 3471.59 2.53873 3.15167 0
M  V30 34792 H 3470.16 1.57786 2.69856 0
M  V30 34793 H 3469.38 3.68972 1.38756 0
M  V30 34794 H 3470.67 4.57771 2.22089 0
M  V30 34795 H 3470.07 2.84562 4.88918 0
M  V30 34796 H 3468.62 3.60519 5.43019 0
M  V30 34797 N 3472.06 -0.292445 1.54863 0
M  V30 34798 C 3473.47 -0.864862 1.6546 0
M  V30 34799 C 3473.82 -1.87773 0.568841 0
M  V30 34800 O 3472.94 -2.14406 -0.29307 0
M  V30 34801 C 3473.54 -1.57545 2.99942 0
M  V30 34802 C 3472.1 -2.09615 3.12631 0
M  V30 34803 C 3471.24 -0.931667 2.61181 0
M  V30 34804 H 3474.2 -0.0692401 1.58549 0
M  V30 34805 H 3474.22 -2.44147 2.91844 0
M  V30 34806 H 3473.73 -0.838021 3.78944 0
M  V30 34807 H 3471.83 -2.86379 2.38365 0
M  V30 34808 H 3471.94 -2.32481 4.18915 0
M  V30 34809 H 3470.31 -1.31963 2.17848 0
M  V30 34810 H 3471.09 -0.208061 3.42669 0
M  V30 34811 N 3473.53 -1.47465 -0.55605 0
M  V30 34812 C 3474.5 -1.59589 -1.64512 0
M  V30 34813 C 3475.5 -0.470908 -1.5375 0
M  V30 34814 O 3476.69 -0.736007 -1.57888 0
M  V30 34815 C 3473.82 -1.54149 -3.04058 0
M  V30 34816 H 3475.01 -2.56672 -1.55111 0
M  V30 34817 H 3472.57 -1.35672 -0.776063 0
M  V30 34818 H 3473.3 -0.584451 -3.1899 0
M  V30 34819 H 3473.09 -2.35795 -3.13278 0
M  V30 34820 H 3474.58 -1.65773 -3.83287 0
M  V30 34821 N 3475.01 0.802873 -1.35616 0
M  V30 34822 C 3476.24 1.59657 -1.3238 0
M  V30 34823 C 3476.66 1.87858 0.0953905 0
M  V30 34824 O 3476.02 1.46843 1.06333 0
M  V30 34825 C 3476.07 2.90252 -2.13977 0
M  V30 34826 O 3475.17 3.83246 -1.52303 0
M  V30 34827 H 3474.51 0.484815 -0.453708 0
M  V30 34828 H 3477.04 0.996186 -1.7871 0
M  V30 34829 H 3477.05 3.39643 -2.26067 0
M  V30 34830 H 3475.73 2.69052 -3.1715 0
M  V30 34831 H 3474.31 3.41806 -1.49074 0
M  V30 34832 N 3476.49 1.19674 1.02547 0
M  V30 34833 C 3477.74 1.00147 1.76002 0
M  V30 34834 C 3478.07 -0.46739 1.88801 0
M  V30 34835 O 3477.32 -1.36329 1.40403 0
M  V30 34836 C 3477.62 1.61964 3.18594 0
M  V30 34837 C 3477.29 3.11719 3.25795 0
M  V30 34838 C 3475.95 3.52589 3.27467 0
M  V30 34839 C 3478.3 4.07726 3.24668 0
M  V30 34840 C 3475.63 4.8801 3.25673 0
M  V30 34841 C 3477.98 5.43082 3.24414 0
M  V30 34842 C 3476.64 5.83378 3.24386 0
M  V30 34843 H 3475.91 0.366465 0.644038 0
M  V30 34844 H 3478.56 1.48968 1.20336 0
M  V30 34845 H 3476.87 1.05382 3.77362 0
M  V30 34846 H 3478.56 1.4438 3.74106 0
M  V30 34847 H 3475.15 2.79155 3.25223 0
M  V30 34848 H 3479.34 3.77191 3.22554 0
M  V30 34849 H 3474.59 5.18507 3.23977 0
M  V30 34850 H 3478.77 6.17228 3.22493 0
M  V30 34851 H 3476.39 6.88285 3.2275 0
M  V30 34852 N 3477.97 -1.21711 1.00121 0
M  V30 34853 C 3478.93 -2.22166 0.563448 0
M  V30 34854 C 3479.93 -1.5676 -0.358162 0
M  V30 34855 O 3481.12 -1.73562 -0.148971 0
M  V30 34856 C 3478.25 -3.40428 -0.179305 0
M  V30 34857 H 3479.45 -2.6241 1.45193 0
M  V30 34858 H 3477 -1.34906 0.78931 0
M  V30 34859 H 3477.74 -3.05668 -1.0834 0
M  V30 34860 H 3477.52 -3.89119 0.48254 0
M  V30 34861 H 3479.01 -4.14907 -0.473464 0
M  V30 34862 N 3479.45 -0.775459 -1.37202 0
M  V30 34863 C 3480.69 -0.341972 -1.99896 0
M  V30 34864 C 3481.03 1.07975 -1.61416 0
M  V30 34865 O 3480.3 1.74349 -0.862138 0
M  V30 34866 C 3480.58 -0.489778 -3.56754 0
M  V30 34867 C 3480.44 -1.95418 -4.05132 0
M  V30 34868 C 3481.76 0.103702 -4.39978 0
M  V30 34869 H 3478.88 -0.125729 -0.726196 0
M  V30 34870 H 3481.52 -0.979195 -1.62824 0
M  V30 34871 H 3479.67 0.0527001 -3.88464 0
M  V30 34872 H 3481.34 -2.55665 -3.8397 0
M  V30 34873 H 3479.58 -2.4617 -3.57187 0
M  V30 34874 H 3480.25 -2.00864 -5.14157 0
M  V30 34875 H 3482.73 -0.359207 -4.14547 0
M  V30 34876 H 3481.61 -0.0298302 -5.48892 0
M  V30 34877 H 3481.87 1.1944 -4.2566 0
M  V30 34878 N 3480.93 1.48552 -0.526305 0
M  V30 34879 C 3482.15 2.07399 0.00727787 0
M  V30 34880 C 3482.58 1.38077 1.27735 0
M  V30 34881 O 3481.93 0.445534 1.7574 0
M  V30 34882 C 3481.98 3.5994 0.218063 0
M  V30 34883 O 3481.09 3.91787 1.28752 0
M  V30 34884 H 3480.43 0.662941 -0.03749 0
M  V30 34885 H 3482.96 1.91013 -0.733167 0
M  V30 34886 H 3482.97 4.056 0.441849 0
M  V30 34887 H 3481.64 4.09799 -0.70974 0
M  V30 34888 H 3480.22 3.57909 1.04668 0
M  V30 34889 N 3482.4 0.261267 1.55419 0
M  V30 34890 C 3483.33 -0.626087 2.2495 0
M  V30 34891 C 3484.31 -1.16995 1.23476 0
M  V30 34892 O 3485.5 -1.20664 1.52164 0
M  V30 34893 C 3482.63 -1.81663 2.96 0
M  V30 34894 C 3481.58 -1.40492 4.04285 0
M  V30 34895 C 3480.91 -2.67745 4.62835 0
M  V30 34896 C 3482.21 -0.565339 5.19231 0
M  V30 34897 H 3483.9 -0.0462638 2.99364 0
M  V30 34898 H 3481.45 -0.0208113 1.43985 0
M  V30 34899 H 3483.4 -2.44317 3.43347 0
M  V30 34900 H 3482.13 -2.42207 2.19097 0
M  V30 34901 H 3480.79 -0.80165 3.57728 0
M  V30 34902 H 3480.43 -3.26517 3.82617 0
M  V30 34903 H 3480.13 -2.40915 5.35942 0
M  V30 34904 H 3481.66 -3.31272 5.12924 0
M  V30 34905 H 3483.07 -1.09653 5.62716 0
M  V30 34906 H 3481.47 -0.392502 5.98815 0
M  V30 34907 H 3482.54 0.419144 4.83085 0
M  V30 34908 N 3483.88 -1.57596 -0.0116567 0
M  V30 34909 C 3484.83 -2.08793 -1.02511 0
M  V30 34910 C 3485.82 -1.00539 -1.36339 0
M  V30 34911 O 3487.03 -1.19014 -1.3504 0
M  V30 34912 H 3483.4 -0.666535 -0.348189 0
M  V30 34913 H 3485.38 -2.92951 -0.567646 0
M  V30 34914 C 3484.12 -2.597 -2.31195 0
M  V30 34915 H 3483.45 -3.42625 -2.0603 0
M  V30 34916 H 3484.89 -2.99214 -3.00412 0
M  V30 34917 C 3483.35 -1.50592 -3.0137 0
M  V30 34918 O 3483.88 -0.882115 -3.91895 0
M  V30 34919 N 3482.08 -1.2362 -2.62995 0
M  V30 34920 H 3481.63 -1.74532 -1.89463 0
M  V30 34921 H 3481.59 -0.508344 -3.10263 0
M  V30 34922 N 3485.36 0.284228 -1.55016 0
M  V30 34923 C 3486.61 1.01529 -1.74746 0
M  V30 34924 C 3486.93 1.87218 -0.545367 0
M  V30 34925 O 3486.2 1.90894 0.440013 0
M  V30 34926 H 3484.78 0.377853 -0.644388 0
M  V30 34927 H 3487.44 0.311166 -1.924 0
M  V30 34928 H 3486.54 1.65873 -2.64372 0
M  V30 34929 N 3486.84 1.47758 0.548222 0
M  V30 34930 C 3487.8 1.60459 1.63663 0
M  V30 34931 C 3488.8 0.479055 1.53498 0
M  V30 34932 O 3489.99 0.74437 1.57495 0
M  V30 34933 C 3487.12 1.55759 3.03236 0
M  V30 34934 H 3488.32 2.57491 1.53748 0
M  V30 34935 H 3485.87 1.36082 0.768858 0
M  V30 34936 H 3486.6 0.601359 3.18676 0
M  V30 34937 H 3486.39 2.37454 3.12023 0
M  V30 34938 H 3487.88 1.67803 3.82403 0
M  V30 34939 N 3488.32 -0.79567 1.3604 0
M  V30 34940 C 3489.26 -1.90804 1.29856 0
M  V30 34941 C 3490.23 -1.65244 0.168416 0
M  V30 34942 O 3491.42 -1.87489 0.353912 0
M  V30 34943 C 3488.56 -3.27519 1.08743 0
M  V30 34944 C 3487.67 -3.65193 2.30777 0
M  V30 34945 C 3486.81 -4.90994 2.02727 0
M  V30 34946 C 3485.84 -5.21328 3.20755 0
M  V30 34947 N 3484.98 -6.38311 2.9241 0
M  V30 34948 H 3489.82 -1.95425 2.24973 0
M  V30 34949 H 3487.36 -0.955751 1.1182 0
M  V30 34950 H 3489.32 -4.06349 0.945308 0
M  V30 34951 H 3487.95 -3.22337 0.172838 0
M  V30 34952 H 3487 -2.81536 2.55815 0
M  V30 34953 H 3488.31 -3.83562 3.18876 0
M  V30 34954 H 3487.46 -5.77675 1.85408 0
M  V30 34955 H 3486.2 -4.74682 1.11929 0
M  V30 34956 H 3485.21 -4.33132 3.3864 0
M  V30 34957 H 3486.43 -5.39563 4.1237 0
M  V30 34958 H 3484.38 -6.23403 2.04218 0
M  V30 34959 H 3484.3 -6.56983 3.74045 0
M  V30 34960 H 3485.56 -7.27991 2.78656 0
M  V30 34961 N 3489.79 -1.20217 -1.0191 0
M  V30 34962 C 3491.04 -1.0088 -1.75122 0
M  V30 34963 C 3491.36 0.460441 -1.89486 0
M  V30 34964 O 3490.63 1.333 -1.43555 0
M  V30 34965 H 3489.21 -0.370278 -0.648771 0
M  V30 34966 H 3491.88 -1.51282 -1.22881 0
M  V30 34967 H 3490.97 -1.46504 -2.75578 0
M  V30 34968 N 3491.27 1.21178 -1.00765 0
M  V30 34969 C 3492.24 2.21864 -0.575222 0
M  V30 34970 C 3493.24 1.56948 0.349844 0
M  V30 34971 O 3494.43 1.73638 0.139764 0
M  V30 34972 C 3491.56 3.40518 0.161249 0
M  V30 34973 H 3492.75 2.61636 -1.46583 0
M  V30 34974 H 3490.3 1.34485 -0.796453 0
M  V30 34975 H 3491.04 3.06238 1.06717 0
M  V30 34976 H 3490.82 3.88858 -0.503169 0
M  V30 34977 H 3492.31 4.15153 0.451454 0
M  V30 34978 N 3492.75 0.782725 1.36789 0
M  V30 34979 C 3494 0.348669 1.98664 0
M  V30 34980 C 3494.31 -1.08379 1.62829 0
M  V30 34981 O 3495.52 -1.61978 2.17889 0
M  V30 34982 C 3493.97 0.572455 3.55318 0
M  V30 34983 C 3493.58 2.01589 4.00082 0
M  V30 34984 C 3495.33 0.20257 4.24016 0
M  V30 34985 C 3493.23 2.18669 5.49489 0
M  V30 34986 H 3492.16 0.126625 0.743291 0
M  V30 34987 H 3494.81 0.96341 1.56175 0
M  V30 34988 H 3493.2 -0.111903 3.95842 0
M  V30 34989 H 3494.37 2.7361 3.70775 0
M  V30 34990 H 3492.69 2.34339 3.44201 0
M  V30 34991 H 3495.28 0.308553 5.33809 0
M  V30 34992 H 3495.63 -0.848519 4.07561 0
M  V30 34993 H 3496.16 0.839902 3.88832 0
M  V30 34994 H 3492.9 3.22136 5.70884 0
M  V30 34995 H 3492.42 1.51145 5.80444 0
M  V30 34996 H 3494.1 1.99059 6.15617 0
M  V30 34997 N 3494.23 -1.48271 0.534176 0
M  V30 34998 C 3495.51 -1.95499 -0.0629837 0
M  V30 34999 C 3495.89 -1.47648 -1.50875 0
M  V30 35000 O 3495.23 -0.704868 -2.17357 0
M  V30 35001 C 3495.44 -3.48951 0.0586089 0
M  V30 35002 C 3496.79 -4.24486 -0.0985231 0
M  V30 35003 O 3497.82 -3.56197 -0.0149811 0
M  V30 35004 O 3496.67 -5.45811 -0.27426 0
M  V30 35005 H 3493.77 -0.82341 -0.0769697 0
M  V30 35006 H 3496.31 -1.58774 0.59907 0
M  V30 35007 H 3495.09 -3.76512 1.06555 0
M  V30 35008 H 3494.71 -3.92381 -0.642106 0
M  V30 35009 N 3495.71 -0.269505 -1.55279 0
M  V30 35010 C 3496.67 0.60726 -2.21009 0
M  V30 35011 C 3497.67 1.08562 -1.18621 0
M  V30 35012 O 3498.86 0.986695 -1.43562 0
M  V30 35013 C 3495.99 1.83716 -2.8716 0
M  V30 35014 H 3497.18 0.0334367 -2.99881 0
M  V30 35015 H 3494.74 -0.0200848 -1.56287 0
M  V30 35016 H 3495.47 2.45164 -2.12285 0
M  V30 35017 H 3495.26 1.50213 -3.62186 0
M  V30 35018 H 3496.75 2.46077 -3.37396 0
M  V30 35019 N 3497.18 1.576 0.00329885 0
M  V30 35020 C 3498.13 2.08214 0.995774 0
M  V30 35021 C 3499.1 0.976828 1.3434 0
M  V30 35022 O 3500.29 1.24905 1.44234 0
M  V30 35023 C 3497.43 2.58743 2.28355 0
M  V30 35024 C 3496.54 3.83163 1.99524 0
M  V30 35025 C 3495.67 4.22206 3.22359 0
M  V30 35026 C 3494.71 5.39472 2.892 0
M  V30 35027 N 3493.85 5.73824 4.04562 0
M  V30 35028 H 3498.69 2.92744 0.557218 0
M  V30 35029 H 3496.23 1.44721 0.263487 0
M  V30 35030 H 3498.19 2.86116 3.03634 0
M  V30 35031 H 3496.82 1.77092 2.69886 0
M  V30 35032 H 3495.87 3.62718 1.14628 0
M  V30 35033 H 3497.18 4.68543 1.71081 0
M  V30 35034 H 3496.33 4.50844 4.05986 0
M  V30 35035 H 3495.07 3.35528 3.53938 0
M  V30 35036 H 3494.08 5.10561 2.0398 0
M  V30 35037 H 3495.3 6.27823 2.58872 0
M  V30 35038 H 3493.25 4.90104 4.36044 0
M  V30 35039 H 3493.17 6.5377 3.79632 0
M  V30 35040 H 3494.43 6.07051 4.88988 0
M  V30 35041 N 3498.66 -0.276003 1.55164 0
M  V30 35042 C 3499.91 -1.0095 1.75889 0
M  V30 35043 C 3500.24 -1.86049 0.556732 0
M  V30 35044 O 3499.52 -1.89323 -0.445765 0
M  V30 35045 C 3499.8 -1.89457 3.06232 0
M  V30 35046 C 3499.65 -1.07372 4.36797 0
M  V30 35047 C 3500.97 -2.88217 3.32594 0
M  V30 35048 H 3498.09 -0.365584 0.639935 0
M  V30 35049 H 3500.73 -0.282123 1.87894 0
M  V30 35050 H 3498.88 -2.51476 2.96128 0
M  V30 35051 H 3500.55 -0.474468 4.58853 0
M  V30 35052 H 3498.8 -0.377089 4.32158 0
M  V30 35053 H 3499.47 -1.72612 5.24318 0
M  V30 35054 H 3501.94 -2.36332 3.42471 0
M  V30 35055 H 3500.82 -3.4729 4.25066 0
M  V30 35056 H 3501.08 -3.63185 2.52089 0
M  V30 35057 N 3500.14 -1.48046 -0.540378 0
M  V30 35058 C 3501.09 -1.58197 -1.64188 0
M  V30 35059 C 3502.07 -0.43973 -1.54775 0
M  V30 35060 O 3503.27 -0.6906 -1.62972 0
M  V30 35061 C 3500.4 -1.6151 -3.02935 0
M  V30 35062 C 3499.48 -2.81177 -3.1749 0
M  V30 35063 N 3499.87 -4.05706 -3.02054 0
M  V30 35064 C 3498.17 -2.78292 -3.48525 0
M  V30 35065 C 3498.87 -4.85938 -3.19749 0
M  V30 35066 N 3497.85 -4.18563 -3.46851 0
M  V30 35067 H 3501.65 -2.52234 -1.50848 0
M  V30 35068 H 3499.16 -1.44274 -0.745576 0
M  V30 35069 H 3501.16 -1.66874 -3.82045 0
M  V30 35070 H 3499.82 -0.685809 -3.17375 0
M  V30 35071 H 3500.83 -4.36305 -2.79031 0
M  V30 35072 H 3497.51 -1.94574 -3.69388 0
M  V30 35073 H 3498.9 -5.94732 -3.12639 0
M  V30 35074 N 3501.62 0.788444 -1.3646 0
M  V30 35075 C 3502.84 1.58244 -1.34066 0
M  V30 35076 C 3503.27 1.87949 0.0754603 0
M  V30 35077 O 3502.63 1.47963 1.0477 0
M  V30 35078 C 3502.67 2.87966 -2.17043 0
M  V30 35079 O 3501.78 3.81609 -1.56359 0
M  V30 35080 H 3501.12 0.479975 -0.458824 0
M  V30 35081 H 3503.65 0.977175 -1.79757 0
M  V30 35082 H 3503.66 3.37226 -2.29657 0
M  V30 35083 H 3502.33 2.65673 -3.19986 0
M  V30 35084 H 3500.91 3.40206 -1.52691 0
M  V30 35085 N 3503.1 1.20755 1.01271 0
M  V30 35086 C 3504.51 1.01992 1.56379 0
M  V30 35087 C 3504.86 -0.422558 1.91596 0
M  V30 35088 O 3503.98 -1.30457 1.72655 0
M  V30 35089 C 3504.58 1.84515 2.84147 0
M  V30 35090 C 3503.14 1.70107 3.35769 0
M  V30 35091 C 3502.28 1.82206 2.09036 0
M  V30 35092 H 3505.24 1.3489 0.836081 0
M  V30 35093 H 3505.26 1.35083 3.55715 0
M  V30 35094 H 3504.77 2.89495 2.58485 0
M  V30 35095 H 3502.87 0.677796 3.66383 0
M  V30 35096 H 3502.98 2.51614 4.07709 0
M  V30 35097 H 3501.35 1.25433 2.21673 0
M  V30 35098 H 3502.13 2.88678 1.85795 0
M  V30 35099 N 3504.58 -1.20642 1.01406 0
M  V30 35100 C 3505.8 -1.94469 0.720873 0
M  V30 35101 C 3506.23 -1.74117 -0.71168 0
M  V30 35102 O 3505.58 -1.03382 -1.48936 0
M  V30 35103 C 3505.63 -3.44708 1.0587 0
M  V30 35104 O 3504.74 -4.12054 0.168974 0
M  V30 35105 H 3504.08 -0.607641 0.267709 0
M  V30 35106 H 3506.61 -1.53145 1.35675 0
M  V30 35107 H 3506.62 -3.95318 1.00935 0
M  V30 35108 H 3505.29 -3.58845 2.10246 0
M  V30 35109 H 3503.87 -3.7188 0.275638 0
M  V30 35110 N 3506.05 -0.789968 -1.36372 0
M  V30 35111 C 3507.3 -0.3619 -1.98833 0
M  V30 35112 C 3507.62 1.07021 -1.63008 0
M  V30 35113 O 3506.89 1.73777 -0.904343 0
M  V30 35114 H 3505.47 -0.130825 -0.735455 0
M  V30 35115 H 3508.13 -1.01213 -1.66559 0
M  V30 35116 H 3507.23 -0.454176 -3.08778 0
M  V30 35117 N 3507.53 1.47986 -0.542031 0
M  V30 35118 C 3508.49 2.28295 0.203496 0
M  V30 35119 C 3509.49 1.36076 0.856738 0
M  V30 35120 O 3510.68 1.58853 0.714933 0
M  V30 35121 C 3507.82 3.15314 1.29576 0
M  V30 35122 H 3509.01 2.95673 -0.501753 0
M  V30 35123 H 3506.56 1.53425 -0.298405 0
M  V30 35124 H 3507.3 2.52594 2.03388 0
M  V30 35125 H 3507.08 3.83164 0.832331 0
M  V30 35126 H 3508.57 3.75863 1.81981 0
M  V30 35127 N 3509.01 0.277736 1.55133 0
M  V30 35128 C 3509.94 -0.602192 2.25601 0
M  V30 35129 C 3510.92 -1.15678 1.2471 0
M  V30 35130 O 3512.11 -1.19044 1.53435 0
M  V30 35131 C 3509.24 -1.78514 2.9791 0
M  V30 35132 C 3508.19 -1.36196 4.05752 0
M  V30 35133 C 3507.52 -2.62821 4.65649 0
M  V30 35134 C 3508.82 -0.510236 5.19802 0
M  V30 35135 H 3510.51 -0.0145096 2.99396 0
M  V30 35136 H 3508.06 -0.00553857 1.43999 0
M  V30 35137 H 3510.01 -2.40662 3.45919 0
M  V30 35138 H 3508.73 -2.39869 2.21654 0
M  V30 35139 H 3507.39 -0.763663 3.58558 0
M  V30 35140 H 3507.04 -3.22441 3.86058 0
M  V30 35141 H 3506.74 -2.35217 5.38467 0
M  V30 35142 H 3508.26 -3.25813 5.16409 0
M  V30 35143 H 3509.68 -1.03679 5.63847 0
M  V30 35144 H 3508.07 -0.328967 5.99198 0
M  V30 35145 H 3509.14 0.470358 4.82613 0
M  V30 35146 N 3510.49 -1.57599 0.00505908 0
M  V30 35147 C 3511.4 -2.12176 -1.00093 0
M  V30 35148 C 3512.41 -1.06821 -1.37351 0
M  V30 35149 O 3513.59 -1.3875 -1.45981 0
M  V30 35150 C 3510.65 -2.61839 -2.27248 0
M  V30 35151 C 3509.72 -3.81815 -1.96255 0
M  V30 35152 C 3508.95 -4.29099 -3.17347 0
M  V30 35153 O 3509.17 -3.75687 -4.29203 0
M  V30 35154 O 3508.11 -5.21203 -3.0105 0
M  V30 35155 H 3511.93 -2.98361 -0.566972 0
M  V30 35156 H 3509.52 -1.47858 -0.214083 0
M  V30 35157 H 3511.4 -2.93958 -3.01938 0
M  V30 35158 H 3510.07 -1.78749 -2.69871 0
M  V30 35159 H 3508.98 -3.5466 -1.19024 0
M  V30 35160 H 3510.31 -4.65993 -1.58464 0
M  V30 35161 N 3511.97 0.267771 -1.55309 0
M  V30 35162 C 3512.88 1.35303 -1.91651 0
M  V30 35163 C 3513.89 1.53766 -0.814376 0
M  V30 35164 O 3515.07 1.67791 -1.11391 0
M  V30 35165 C 3512.13 2.69134 -2.18558 0
M  V30 35166 C 3511.19 2.59374 -3.42088 0
M  V30 35167 C 3510.43 3.86822 -3.67702 0
M  V30 35168 O 3510.65 4.87746 -2.95736 0
M  V30 35169 O 3509.58 3.8671 -4.61236 0
M  V30 35170 H 3513.41 1.07478 -2.84046 0
M  V30 35171 H 3510.99 0.466747 -1.41922 0
M  V30 35172 H 3512.88 3.48257 -2.37266 0
M  V30 35173 H 3511.55 2.96735 -1.29345 0
M  V30 35174 H 3510.46 1.78609 -3.28709 0
M  V30 35175 H 3511.79 2.36722 -4.31536 0
M  V30 35176 N 3513.44 1.48331 0.532519 0
M  V30 35177 C 3514.68 1.57815 1.299 0
M  V30 35178 C 3515.05 0.245316 1.90426 0
M  V30 35179 O 3516.25 0.21513 2.67938 0
M  V30 35180 C 3514.52 2.683 2.36114 0
M  V30 35181 S 3516.08 2.97532 3.22521 0
M  V30 35182 H 3512.9 0.556998 0.441898 0
M  V30 35183 H 3515.5 1.8584 0.60695 0
M  V30 35184 H 3514.2 3.63704 1.90124 0
M  V30 35185 H 3513.73 2.42168 3.10029 0
M  V30 35186 H 3515.75 2.36635 4.3614 0
M  V30 35187 N 3514.92 -0.781196 1.36876 0
M  V30 35188 C 3516.15 -1.56789 1.3454 0
M  V30 35189 C 3516.56 -1.89057 -0.0734377 0
M  V30 35190 O 3515.9 -1.51216 -1.04304 0
M  V30 35191 C 3515.96 -2.91083 2.10976 0
M  V30 35192 C 3515.63 -2.815 3.6001 0
M  V30 35193 C 3516.63 -2.53177 4.54089 0
M  V30 35194 C 3514.31 -2.99819 4.03006 0
M  V30 35195 C 3516.3 -2.43287 5.89143 0
M  V30 35196 C 3513.99 -2.8955 5.38149 0
M  V30 35197 C 3514.99 -2.61323 6.3103 0
M  V30 35198 O 3514.68 -2.51064 7.6369 0
M  V30 35199 H 3514.41 -0.492693 0.462849 0
M  V30 35200 H 3516.96 -0.976837 1.80685 0
M  V30 35201 H 3515.19 -3.52271 1.59506 0
M  V30 35202 H 3516.88 -3.52414 2.01393 0
M  V30 35203 H 3517.65 -2.38719 4.22182 0
M  V30 35204 H 3513.53 -3.20793 3.31078 0
M  V30 35205 H 3517.07 -2.21176 6.61609 0
M  V30 35206 H 3512.97 -3.03573 5.69661 0
M  V30 35207 H 3513.74 -2.66484 7.73905 0
M  V30 35208 N 3516.4 -1.21291 -1.0063 0
M  V30 35209 C 3517.65 -1.03087 -1.74645 0
M  V30 35210 C 3517.98 0.434727 -1.89272 0
M  V30 35211 O 3517.25 1.32261 -1.42609 0
M  V30 35212 C 3517.54 -1.72714 -3.15977 0
M  V30 35213 C 3517.39 -3.26785 -3.09082 0
M  V30 35214 C 3518.71 -1.46864 -4.14872 0
M  V30 35215 H 3515.83 -0.3759 -0.633931 0
M  V30 35216 H 3518.47 -1.49448 -1.17326 0
M  V30 35217 H 3516.62 -1.333 -3.64915 0
M  V30 35218 H 3518.29 -3.75559 -2.67868 0
M  V30 35219 H 3516.53 -3.57155 -2.46217 0
M  V30 35220 H 3517.21 -3.70668 -4.09034 0
M  V30 35221 H 3519.68 -1.81076 -3.74634 0
M  V30 35222 H 3518.56 -1.98097 -5.11907 0
M  V30 35223 H 3518.82 -0.398373 -4.40301 0
M  V30 35224 N 3517.88 1.20103 -1.02045 0
M  V30 35225 C 3519.11 1.93543 -0.731349 0
M  V30 35226 C 3519.52 1.75 0.708552 0
M  V30 35227 O 3518.88 1.06645 1.48098 0
M  V30 35228 C 3518.93 3.45537 -1.06239 0
M  V30 35229 O 3518.65 3.63476 -2.44574 0
M  V30 35230 C 3520.15 4.36115 -0.794894 0
M  V30 35231 H 3517.37 0.615043 -0.268259 0
M  V30 35232 H 3519.91 1.52485 -1.36266 0
M  V30 35233 H 3518.07 3.84459 -0.476409 0
M  V30 35234 H 3518.48 4.57424 -2.56638 0
M  V30 35235 H 3519.96 5.414 -1.07657 0
M  V30 35236 H 3520.43 4.38364 0.270867 0
M  V30 35237 H 3521.04 4.02861 -1.36321 0
M  V30 35238 N 3519.36 0.797189 1.35951 0
M  V30 35239 C 3520.27 0.202312 2.33726 0
M  V30 35240 C 3521.28 -0.649691 1.61416 0
M  V30 35241 O 3522.46 -0.563652 1.93352 0
M  V30 35242 C 3519.52 -0.64679 3.40613 0
M  V30 35243 C 3518.58 0.224612 4.28712 0
M  V30 35244 C 3517.82 -0.58406 5.30495 0
M  V30 35245 O 3518.04 -1.81948 5.40603 0
M  V30 35246 O 3516.97 0.0201297 6.01897 0
M  V30 35247 H 3520.8 1.01092 2.86381 0
M  V30 35248 H 3518.39 0.558792 1.38556 0
M  V30 35249 H 3520.27 -1.13073 4.05946 0
M  V30 35250 H 3518.94 -1.43316 2.90245 0
M  V30 35251 H 3517.85 0.75548 3.66392 0
M  V30 35252 H 3519.18 0.974688 4.82453 0
M  V30 35253 N 3520.83 -1.47696 0.549872 0
M  V30 35254 C 3522.08 -2.01689 0.0209778 0
M  V30 35255 C 3522.4 -1.43038 -1.33414 0
M  V30 35256 O 3523.6 -1.88649 -1.95253 0
M  V30 35257 C 3522.06 -3.59898 -0.0129539 0
M  V30 35258 C 3521.67 -4.27538 1.33848 0
M  V30 35259 C 3523.41 -4.21667 -0.489627 0
M  V30 35260 C 3521.32 -5.77733 1.26405 0
M  V30 35261 H 3520.25 -0.753989 0.00407211 0
M  V30 35262 H 3522.9 -1.69763 0.696628 0
M  V30 35263 H 3521.28 -3.88754 -0.7541 0
M  V30 35264 H 3522.45 -4.10332 2.09676 0
M  V30 35265 H 3520.77 -3.77726 1.75249 0
M  V30 35266 H 3523.37 -5.31721 -0.563591 0
M  V30 35267 H 3523.71 -3.88338 -1.49997 0
M  V30 35268 H 3524.24 -3.97315 0.196436 0
M  V30 35269 H 3520.98 -6.15669 2.25016 0
M  V30 35270 H 3520.5 -5.97296 0.547458 0
M  V30 35271 H 3522.18 -6.39793 0.963031 0
M  V30 35272 N 3522.31 -0.285959 -1.54984 0
M  V30 35273 C 3523.59 0.380049 -1.91872 0
M  V30 35274 C 3523.97 1.72876 -1.21149 0
M  V30 35275 O 3523.32 2.25926 -0.342039 0
M  V30 35276 C 3523.53 0.509606 -3.45259 0
M  V30 35277 C 3524.88 0.787476 -4.17234 0
M  V30 35278 O 3525.9 0.594 -3.51212 0
M  V30 35279 O 3524.76 1.15816 -5.34087 0
M  V30 35280 H 3521.85 0.209841 -0.799935 0
M  V30 35281 H 3524.4 -0.332911 -1.66402 0
M  V30 35282 H 3523.17 -0.439117 -3.88828 0
M  V30 35283 H 3522.79 1.27162 -3.76717 0
M  V30 35284 N 3523.79 1.57594 -0.0134169 0
M  V30 35285 C 3524.72 2.06134 1.00207 0
M  V30 35286 C 3525.74 0.981753 1.29867 0
M  V30 35287 O 3526.92 1.25828 1.26608 0
M  V30 35288 C 3524.02 2.45767 2.33349 0
M  V30 35289 C 3523.2 3.76619 2.22435 0
M  V30 35290 C 3522.26 4.02973 3.38378 0
M  V30 35291 O 3521.28 4.7345 3.15965 0
M  V30 35292 N 3522.48 3.51916 4.61666 0
M  V30 35293 H 3525.25 2.93875 0.588028 0
M  V30 35294 H 3522.81 1.60966 0.173686 0
M  V30 35295 H 3524.8 2.60501 3.09712 0
M  V30 35296 H 3523.37 1.63475 2.66449 0
M  V30 35297 H 3522.59 3.71832 1.30898 0
M  V30 35298 H 3523.88 4.62378 2.12329 0
M  V30 35299 H 3523.28 2.94869 4.82772 0
M  V30 35300 H 3521.84 3.71956 5.35249 0
M  V30 35301 N 3525.27 -0.259531 1.55448 0
M  V30 35302 C 3526.55 -1.0114 1.67422 0
M  V30 35303 C 3526.93 -2.03821 0.549561 0
M  V30 35304 O 3526.27 -2.24052 -0.44866 0
M  V30 35305 C 3526.48 -1.65611 3.07203 0
M  V30 35306 C 3527.83 -2.1627 3.65393 0
M  V30 35307 O 3528.86 -1.75574 3.09923 0
M  V30 35308 O 3527.71 -2.90955 4.62609 0
M  V30 35309 H 3524.81 -0.469979 0.680477 0
M  V30 35310 H 3527.35 -0.254319 1.67784 0
M  V30 35311 H 3526.13 -0.912752 3.80506 0
M  V30 35312 H 3525.75 -2.47972 3.10799 0
M  V30 35313 N 3526.75 -1.48611 -0.524645 0
M  V30 35314 C 3527.69 -1.6353 -1.6287 0
M  V30 35315 C 3528.66 -0.47723 -1.59097 0
M  V30 35316 O 3529.85 -0.701373 -1.77441 0
M  V30 35317 C 3526.99 -1.68597 -3.01113 0
M  V30 35318 C 3526.1 -2.95548 -3.1508 0
M  V30 35319 C 3525.24 -2.91742 -4.43914 0
M  V30 35320 C 3524.28 -4.13374 -4.51429 0
M  V30 35321 N 3523.41 -4.07615 -5.7166 0
M  V30 35322 H 3528.25 -2.57811 -1.49458 0
M  V30 35323 H 3525.79 -1.27848 -0.727556 0
M  V30 35324 H 3527.75 -1.69516 -3.81209 0
M  V30 35325 H 3526.38 -0.77803 -3.13283 0
M  V30 35326 H 3525.43 -3.04349 -2.28201 0
M  V30 35327 H 3526.74 -3.8553 -3.16493 0
M  V30 35328 H 3525.9 -2.91092 -5.32306 0
M  V30 35329 H 3524.63 -1.99498 -4.4503 0
M  V30 35330 H 3523.64 -4.14293 -3.61443 0
M  V30 35331 H 3524.86 -5.06784 -4.52048 0
M  V30 35332 H 3522.81 -3.18194 -5.73662 0
M  V30 35333 H 3522.73 -4.91307 -5.7459 0
M  V30 35334 H 3524 -4.11032 -6.62324 0
M  V30 35335 N 3528.22 0.773926 -1.37289 0
M  V30 35336 C 3529.45 1.56073 -1.35369 0
M  V30 35337 C 3529.86 1.89094 0.0634105 0
M  V30 35338 O 3529.21 1.51767 1.03501 0
M  V30 35339 C 3529.27 2.8996 -2.12517 0
M  V30 35340 C 3528.93 2.79587 -3.61497 0
M  V30 35341 C 3529.93 2.50766 -4.55426 0
M  V30 35342 C 3527.61 2.97677 -4.04591 0
M  V30 35343 C 3529.61 2.4016 -5.90425 0
M  V30 35344 C 3527.29 2.86692 -5.39677 0
M  V30 35345 C 3528.29 2.57973 -6.32407 0
M  V30 35346 O 3527.98 2.4701 -7.65011 0
M  V30 35347 H 3527.71 0.490232 -0.465455 0
M  V30 35348 H 3530.27 0.967241 -1.812 0
M  V30 35349 H 3528.5 3.5142 -1.61372 0
M  V30 35350 H 3530.19 3.51341 -2.03259 0
M  V30 35351 H 3530.95 2.36477 -4.23443 0
M  V30 35352 H 3526.83 3.19033 -3.32775 0
M  V30 35353 H 3530.37 2.17665 -6.62773 0
M  V30 35354 H 3526.27 3.00548 -5.71263 0
M  V30 35355 H 3527.04 2.62376 -7.75307 0
M  V30 35356 N 3529.7 1.21823 0.99985 0
M  V30 35357 C 3530.67 0.983578 2.07023 0
M  V30 35358 C 3531.67 -0.0473729 1.6073 0
M  V30 35359 O 3532.86 0.190429 1.73156 0
M  V30 35360 C 3529.99 0.484258 3.37443 0
M  V30 35361 H 3531.18 1.93324 2.29273 0
M  V30 35362 H 3528.73 1.03594 1.17039 0
M  V30 35363 H 3529.47 -0.470081 3.20875 0
M  V30 35364 H 3529.25 1.22796 3.72376 0
M  V30 35365 H 3530.74 0.340113 4.16213 0
M  V30 35366 N 3531.18 -1.1956 1.0268 0
M  V30 35367 C 3532.43 -1.8947 0.723119 0
M  V30 35368 C 3532.76 -1.7929 -0.746237 0
M  V30 35369 O 3532.03 -1.18387 -1.5432 0
M  V30 35370 C 3532.32 -3.40484 1.1723 0
M  V30 35371 C 3532.17 -3.59546 2.70272 0
M  V30 35372 C 3533.49 -4.33637 0.751473 0
M  V30 35373 H 3530.61 -0.68803 0.264167 0
M  V30 35374 H 3533.25 -1.40745 1.27636 0
M  V30 35375 H 3531.4 -3.82112 0.701611 0
M  V30 35376 H 3533.07 -3.27103 3.25272 0
M  V30 35377 H 3531.32 -3.02669 3.10763 0
M  V30 35378 H 3531.99 -4.65445 2.96757 0
M  V30 35379 H 3534.46 -3.99712 1.15628 0
M  V30 35380 H 3533.34 -5.37894 1.09368 0
M  V30 35381 H 3533.6 -4.40742 -0.34629 0
M  V30 35382 N 3532.66 -0.804387 -1.35526 0
M  V30 35383 C 3534.07 -0.487858 -1.51961 0
M  V30 35384 C 3534.27 0.991322 -1.75428 0
M  V30 35385 O 3533.33 1.77641 -1.79443 0
M  V30 35386 C 3534.64 -1.33131 -2.69623 0
M  V30 35387 C 3536.19 -1.32653 -2.835 0
M  V30 35388 C 3536.67 -2.15404 -4.04184 0
M  V30 35389 N 3538.16 -2.12929 -4.11358 0
M  V30 35390 C 3538.89 -2.73718 -5.03851 0
M  V30 35391 N 3538.39 -3.43425 -6.0169 0
M  V30 35392 N 3540.18 -2.63371 -4.9658 0
M  V30 35393 H 3532.33 -1.76237 -1.1855 0
M  V30 35394 H 3534.6 -0.749987 -0.579847 0
M  V30 35395 H 3534.3 -2.38093 -2.58853 0
M  V30 35396 H 3534.18 -0.982998 -3.64166 0
M  V30 35397 H 3536.56 -0.284763 -2.93723 0
M  V30 35398 H 3536.64 -1.71469 -1.89821 0
M  V30 35399 H 3536.29 -3.1962 -3.94722 0
M  V30 35400 H 3536.22 -1.73949 -4.97041 0
M  V30 35401 H 3538.71 -1.62209 -3.41316 0
M  V30 35402 H 3539.02 -3.87102 -6.68859 0
M  V30 35403 H 3537.37 -3.47529 -6.01871 0
M  V30 35404 H 3540.56 -2.08503 -4.19099 0
M  V30 35405 H 3540.73 -3.11036 -5.68472 0
M  V30 35406 N 3534.14 1.47403 -0.557697 0
M  V30 35407 C 3535.38 2.02472 -0.033824 0
M  V30 35408 C 3535.71 1.43199 1.31622 0
M  V30 35409 O 3534.97 0.577399 1.86988 0
M  V30 35410 C 3535.27 3.57236 0.108261 0
M  V30 35411 C 3534.93 4.3543 -1.17095 0
M  V30 35412 C 3533.59 4.56513 -1.52148 0
M  V30 35413 C 3535.95 4.80522 -2.01862 0
M  V30 35414 C 3533.27 5.19938 -2.71812 0
M  V30 35415 C 3535.63 5.45266 -3.2073 0
M  V30 35416 C 3534.29 5.64582 -3.56095 0
M  V30 35417 H 3533.56 0.740897 -0.0123771 0
M  V30 35418 H 3536.21 1.77069 -0.729308 0
M  V30 35419 H 3534.51 3.81634 0.886714 0
M  V30 35420 H 3536.21 3.97496 0.528961 0
M  V30 35421 H 3532.8 4.19299 -0.888026 0
M  V30 35422 H 3536.98 4.64011 -1.76089 0
M  V30 35423 H 3532.24 5.33087 -2.9938 0
M  V30 35424 H 3536.41 5.79169 -3.867 0
M  V30 35425 H 3534.04 6.13498 -4.48914 0
M  V30 35426 N 3535.62 0.294175 1.5483 0
M  V30 35427 C 3536.86 -0.317839 1.9918 0
M  V30 35428 C 3537.18 -1.5553 1.18617 0
M  V30 35429 O 3538.38 -2.24147 1.53201 0
M  V30 35430 C 3536.84 -0.61683 3.54575 0
M  V30 35431 C 3536.45 0.6019 4.43938 0
M  V30 35432 C 3538.19 -1.19042 4.07467 0
M  V30 35433 C 3536.1 0.27644 5.90754 0
M  V30 35434 H 3535.03 -0.122537 0.743976 0
M  V30 35435 H 3537.68 0.401813 1.79047 0
M  V30 35436 H 3536.06 -1.39589 3.70582 0
M  V30 35437 H 3537.24 1.3783 4.39704 0
M  V30 35438 H 3535.55 1.09365 4.01781 0
M  V30 35439 H 3538.15 -1.44805 5.14719 0
M  V30 35440 H 3538.49 -2.13048 3.57654 0
M  V30 35441 H 3539.02 -0.473212 3.94975 0
M  V30 35442 H 3535.76 1.18489 6.44702 0
M  V30 35443 H 3535.28 -0.462823 5.98012 0
M  V30 35444 H 3536.96 -0.124473 6.4688 0
M  V30 35445 N 3537.09 -1.57585 0.0217743 0
M  V30 35446 C 3538.5 -1.79368 -0.518079 0
M  V30 35447 C 3538.86 -0.931344 -1.72686 0
M  V30 35448 O 3537.98 -0.139725 -2.15948 0
M  V30 35449 C 3538.58 -3.25306 -0.946653 0
M  V30 35450 C 3537.13 -3.4811 -1.43167 0
M  V30 35451 C 3536.28 -2.74502 -0.392947 0
M  V30 35452 H 3539.23 -1.56753 0.247849 0
M  V30 35453 H 3539.25 -3.34614 -1.81146 0
M  V30 35454 H 3538.77 -3.88043 -0.0666854 0
M  V30 35455 H 3536.87 -2.90616 -2.33181 0
M  V30 35456 H 3536.98 -4.56818 -1.44411 0
M  V30 35457 H 3535.34 -2.39762 -0.859429 0
M  V30 35458 H 3536.13 -3.3995 0.478428 0
M  V30 35459 N 3538.57 0.251283 -1.55584 0
M  V30 35460 C 3539.99 0.59958 -1.47909 0
M  V30 35461 C 3540.19 1.88536 -0.711095 0
M  V30 35462 O 3539.24 2.51369 -0.238683 0
M  V30 35463 C 3540.56 0.706378 -2.92285 0
M  V30 35464 C 3542.1 0.798995 -3.0263 0
M  V30 35465 C 3542.58 0.937391 -4.48305 0
M  V30 35466 N 3544.07 1.00237 -4.52224 0
M  V30 35467 C 3544.81 1.12864 -5.62183 0
M  V30 35468 N 3544.3 1.22073 -6.8196 0
M  V30 35469 N 3546.09 1.16145 -5.4997 0
M  V30 35470 H 3538.25 -0.592841 -2.03959 0
M  V30 35471 H 3540.51 -0.203988 -0.925793 0
M  V30 35472 H 3540.21 -0.168305 -3.51297 0
M  V30 35473 H 3540.09 1.57973 -3.42527 0
M  V30 35474 H 3542.48 1.66413 -2.43702 0
M  V30 35475 H 3542.56 -0.099412 -2.55607 0
M  V30 35476 H 3542.2 0.0768274 -5.07842 0
M  V30 35477 H 3542.13 1.85077 -4.93005 0
M  V30 35478 H 3544.62 0.942726 -3.65952 0
M  V30 35479 H 3544.93 1.31602 -7.61512 0
M  V30 35480 H 3543.28 1.19038 -6.8473 0
M  V30 35481 H 3546.47 1.08596 -4.55329 0
M  V30 35482 H 3546.64 1.25641 -6.35703 0
M  V30 35483 N 3540.05 1.48887 0.516757 0
M  V30 35484 C 3540.96 1.67098 1.64667 0
M  V30 35485 C 3541.98 0.553495 1.64962 0
M  V30 35486 O 3543.15 0.826239 1.83672 0
M  V30 35487 C 3540.22 1.71885 3.01092 0
M  V30 35488 C 3539.28 2.95357 3.11549 0
M  V30 35489 C 3538.51 2.99906 4.41466 0
M  V30 35490 O 3538.73 2.12487 5.29344 0
M  V30 35491 O 3537.67 3.92213 4.56566 0
M  V30 35492 H 3541.49 2.62788 1.52237 0
M  V30 35493 H 3539.08 1.32443 0.691317 0
M  V30 35494 H 3540.96 1.77477 3.82204 0
M  V30 35495 H 3539.64 0.793711 3.13818 0
M  V30 35496 H 3538.54 2.9529 2.29683 0
M  V30 35497 H 3539.88 3.87299 3.03744 0
M  V30 35498 N 3541.53 -0.766635 1.37697 0
M  V30 35499 C 3542.48 -1.90145 1.33969 0
M  V30 35500 C 3543.47 -1.67864 0.22763 0
M  V30 35501 O 3544.68 -1.75591 0.395943 0
M  V30 35502 H 3541.05 -0.625377 0.417622 0
M  V30 35503 H 3543.02 -1.90406 2.29757 0
M  V30 35504 C 3541.77 -3.27472 1.16865 0
M  V30 35505 H 3541.09 -3.45196 2.01692 0
M  V30 35506 H 3542.53 -4.0716 1.18308 0
M  V30 35507 C 3540.99 -3.36667 -0.125359 0
M  V30 35508 O 3541.52 -3.86143 -1.1071 0
M  V30 35509 N 3539.73 -2.90056 -0.177789 0
M  V30 35510 H 3539.28 -2.49983 0.621781 0
M  V30 35511 H 3539.23 -2.96588 -1.0432 0
M  V30 35512 N 3543.01 -1.22351 -0.993375 0
M  V30 35513 C 3544.25 -1.04571 -1.72943 0
M  V30 35514 C 3544.57 0.420145 -1.9042 0
M  V30 35515 O 3543.84 1.30225 -1.4635 0
M  V30 35516 H 3542.42 -0.383956 -0.64077 0
M  V30 35517 H 3545.09 -1.53855 -1.19644 0
M  V30 35518 H 3544.18 -1.52316 -2.72408 0
M  V30 35519 N 3544.48 1.19014 -1.03313 0
M  V30 35520 C 3545.73 1.89084 -0.733157 0
M  V30 35521 C 3546.06 1.79683 0.736719 0
M  V30 35522 O 3545.34 1.19204 1.5369 0
M  V30 35523 C 3545.62 3.39857 -1.19034 0
M  V30 35524 C 3545.47 3.58107 -2.72175 0
M  V30 35525 C 3546.79 4.33232 -0.774459 0
M  V30 35526 H 3543.91 0.686619 -0.267812 0
M  V30 35527 H 3546.55 1.40066 -1.2838 0
M  V30 35528 H 3544.7 3.81735 -0.721866 0
M  V30 35529 H 3546.38 3.25373 -3.27002 0
M  V30 35530 H 3544.62 3.01017 -3.12364 0
M  V30 35531 H 3545.29 4.63865 -2.99221 0
M  V30 35532 H 3547.77 3.99093 -1.17746 0
M  V30 35533 H 3546.64 5.37306 -1.12219 0
M  V30 35534 H 3546.9 4.40919 0.322911 0
M  V30 35535 N 3545.96 0.811563 1.35098 0
M  V30 35536 C 3547.19 0.406301 2.02565 0
M  V30 35537 C 3547.6 -0.989003 1.61293 0
M  V30 35538 O 3546.94 -1.6495 0.808525 0
M  V30 35539 C 3547 0.41591 3.57086 0
M  V30 35540 C 3546.67 1.76258 4.21642 0
M  V30 35541 C 3547.67 2.72166 4.42969 0
M  V30 35542 C 3545.35 2.04796 4.58655 0
M  V30 35543 C 3547.34 3.94792 5.00418 0
M  V30 35544 C 3545.03 3.27683 5.15817 0
M  V30 35545 C 3546.03 4.22499 5.36641 0
M  V30 35546 O 3545.72 5.43217 5.92596 0
M  V30 35547 H 3545.45 0.162624 0.656147 0
M  V30 35548 H 3548 1.09792 1.73594 0
M  V30 35549 H 3546.23 -0.332341 3.85269 0
M  V30 35550 H 3547.92 0.0322724 4.05887 0
M  V30 35551 H 3548.69 2.51412 4.14749 0
M  V30 35552 H 3544.57 1.31802 4.41757 0
M  V30 35553 H 3548.11 4.6881 5.16588 0
M  V30 35554 H 3544.01 3.48306 5.43464 0
M  V30 35555 H 3544.78 5.44582 6.11042 0
M  V30 35556 N 3547.44 -1.47105 0.565506 0
M  V30 35557 C 3548.37 -2.32912 -0.165629 0
M  V30 35558 C 3549.35 -1.44299 -0.900653 0
M  V30 35559 O 3550.54 -1.73143 -0.879493 0
M  V30 35560 C 3547.67 -3.26245 -1.19086 0
M  V30 35561 C 3546.62 -4.24164 -0.571774 0
M  V30 35562 C 3545.95 -5.06881 -1.70224 0
M  V30 35563 C 3547.25 -5.20091 0.479876 0
M  V30 35564 H 3548.94 -2.94291 0.550757 0
M  V30 35565 H 3546.49 -1.41516 0.266309 0
M  V30 35566 H 3548.44 -3.8512 -1.71058 0
M  V30 35567 H 3547.16 -2.62938 -1.9373 0
M  V30 35568 H 3545.82 -3.66527 -0.0732886 0
M  V30 35569 H 3545.47 -4.39971 -2.43792 0
M  V30 35570 H 3545.17 -5.73181 -1.29374 0
M  V30 35571 H 3546.69 -5.68616 -2.22505 0
M  V30 35572 H 3548.11 -5.73282 0.045905 0
M  V30 35573 H 3546.5 -5.94639 0.807719 0
M  V30 35574 H 3547.57 -4.65065 1.37267 0
M  V30 35575 N 3548.92 -0.302382 -1.54672 0
M  V30 35576 C 3550.17 0.307272 -1.99346 0
M  V30 35577 C 3550.48 1.54898 -1.1944 0
M  V30 35578 O 3551.69 2.23331 -1.54388 0
M  V30 35579 C 3550.14 0.598018 -3.54897 0
M  V30 35580 C 3549.75 -0.625435 -4.43613 0
M  V30 35581 C 3551.49 1.16879 -4.08093 0
M  V30 35582 C 3549.4 -0.307765 -5.90599 0
M  V30 35583 H 3548.33 0.11859 -0.744616 0
M  V30 35584 H 3550.98 -0.411302 -1.78831 0
M  V30 35585 H 3549.36 1.37622 -3.71317 0
M  V30 35586 H 3550.54 -1.4016 -4.38967 0
M  V30 35587 H 3548.85 -1.11494 -4.01196 0
M  V30 35588 H 3551.45 1.42073 -5.1548 0
M  V30 35589 H 3551.79 2.11149 -3.58778 0
M  V30 35590 H 3552.33 0.452259 -3.95221 0
M  V30 35591 H 3549.07 -1.21906 -6.44065 0
M  V30 35592 H 3548.59 0.431103 -5.98249 0
M  V30 35593 H 3550.26 0.0901658 -6.46937 0
M  V30 35594 N 3550.4 1.57571 -0.0301311 0
M  V30 35595 C 3551.67 1.83138 0.686998 0
M  V30 35596 C 3552.05 0.914249 1.90275 0
M  V30 35597 O 3551.4 -0.0298956 2.2848 0
M  V30 35598 C 3551.61 3.32377 1.06426 0
M  V30 35599 C 3552.96 3.98875 1.45547 0
M  V30 35600 O 3553.98 3.36879 1.15721 0
M  V30 35601 O 3552.84 5.08145 2.01124 0
M  V30 35602 H 3549.94 0.755165 0.337127 0
M  V30 35603 H 3552.48 1.69601 -0.0578902 0
M  V30 35604 H 3551.25 3.90794 0.199008 0
M  V30 35605 H 3550.88 3.51025 1.86728 0
M  V30 35606 N 3551.87 -0.243029 1.55715 0
M  V30 35607 C 3553.12 -0.971961 1.77991 0
M  V30 35608 C 3553.45 -1.84826 0.596071 0
M  V30 35609 O 3552.73 -1.90226 -0.405507 0
M  V30 35610 C 3553.01 -1.82919 3.10182 0
M  V30 35611 C 3552.86 -0.980823 4.38976 0
M  V30 35612 C 3554.18 -2.81097 3.38633 0
M  V30 35613 H 3551.3 -0.351928 0.647546 0
M  V30 35614 H 3553.94 -0.242204 1.8845 0
M  V30 35615 H 3552.09 -2.45138 3.01396 0
M  V30 35616 H 3553.77 -0.377032 4.59757 0
M  V30 35617 H 3552.01 -0.285337 4.32861 0
M  V30 35618 H 3552.68 -1.61451 5.27861 0
M  V30 35619 H 3555.16 -2.29015 3.47407 0
M  V30 35620 H 3554.03 -3.38195 4.32337 0
M  V30 35621 H 3554.29 -3.57756 2.59736 0
M  V30 35622 N 3553.35 -1.49159 -0.508854 0
M  V30 35623 C 3554.3 -1.65249 -1.61126 0
M  V30 35624 C 3555.27 -0.494077 -1.58581 0
M  V30 35625 O 3556.45 -0.720153 -1.76687 0
M  V30 35626 C 3553.59 -1.71781 -2.99308 0
M  V30 35627 C 3552.71 -2.98873 -3.11928 0
M  V30 35628 C 3551.84 -2.96434 -4.40795 0
M  V30 35629 C 3550.88 -4.18139 -4.47019 0
M  V30 35630 N 3550.02 -4.13655 -5.67304 0
M  V30 35631 H 3554.86 -2.59381 -1.46715 0
M  V30 35632 H 3552.4 -1.28612 -0.713955 0
M  V30 35633 H 3554.35 -1.7355 -3.79389 0
M  V30 35634 H 3552.98 -0.811214 -3.12441 0
M  V30 35635 H 3552.04 -3.06752 -2.2496 0
M  V30 35636 H 3553.35 -3.88865 -3.12387 0
M  V30 35637 H 3552.5 -2.96722 -5.29189 0
M  V30 35638 H 3551.24 -2.04207 -4.42889 0
M  V30 35639 H 3550.25 -4.18104 -3.57029 0
M  V30 35640 H 3551.47 -5.1155 -4.46647 0
M  V30 35641 H 3549.42 -3.24261 -5.70255 0
M  V30 35642 H 3549.33 -4.97374 -5.69347 0
M  V30 35643 H 3550.6 -4.18034 -6.57927 0
M  V30 35644 N 3554.83 0.759322 -1.38102 0
M  V30 35645 C 3556.08 1.51828 -1.33994 0
M  V30 35646 C 3556.41 1.94367 0.071783 0
M  V30 35647 O 3555.66 1.65295 1.04767 0
M  V30 35648 C 3555.96 2.78782 -2.23641 0
M  V30 35649 C 3555.63 2.55234 -3.71708 0
M  V30 35650 C 3554.29 2.4852 -4.12057 0
M  V30 35651 C 3556.64 2.34515 -4.65459 0
M  V30 35652 C 3553.97 2.19095 -5.44256 0
M  V30 35653 C 3556.32 2.06611 -5.97908 0
M  V30 35654 C 3554.98 1.98351 -6.37349 0
M  V30 35655 H 3554.25 0.555578 -0.49032 0
M  V30 35656 H 3556.9 0.873607 -1.70412 0
M  V30 35657 H 3555.21 3.4787 -1.80259 0
M  V30 35658 H 3556.9 3.36715 -2.1777 0
M  V30 35659 H 3553.49 2.61327 -3.39715 0
M  V30 35660 H 3557.68 2.38684 -4.35136 0
M  V30 35661 H 3552.93 2.11204 -5.73762 0
M  V30 35662 H 3557.11 1.89582 -6.70098 0
M  V30 35663 H 3554.73 1.75315 -7.39709 0
M  V30 35664 N 3556.31 1.22876 0.986873 0
M  V30 35665 C 3557.26 1.00154 2.09933 0
M  V30 35666 C 3558.25 -0.0573453 1.69303 0
M  V30 35667 O 3559.46 0.0956097 1.79746 0
M  V30 35668 H 3555.83 0.306733 0.686599 0
M  V30 35669 H 3557.8 1.94539 2.26268 0
M  V30 35670 C 3556.55 0.602434 3.42441 0
M  V30 35671 H 3555.87 1.40892 3.74152 0
M  V30 35672 H 3557.31 0.48291 4.21241 0
M  V30 35673 C 3555.77 -0.688649 3.29787 0
M  V30 35674 O 3556.3 -1.73951 3.62083 0
M  V30 35675 N 3554.51 -0.662102 2.82957 0
M  V30 35676 H 3554.06 0.193382 2.56873 0
M  V30 35677 H 3554.01 -1.5262 2.74872 0
M  V30 35678 N 3557.79 -1.18464 1.03942 0
M  V30 35679 C 3559.03 -1.88041 0.740609 0
M  V30 35680 C 3559.36 -1.80667 -0.73379 0
M  V30 35681 O 3558.63 -1.22416 -1.52941 0
M  V30 35682 H 3557.21 -0.696124 0.270961 0
M  V30 35683 H 3559.87 -1.4377 1.31591 0
M  V30 35684 H 3558.96 -2.94109 1.04434 0
M  V30 35685 N 3559.26 -0.818716 -1.34665 0
M  V30 35686 C 3560.49 -0.417643 -2.02641 0
M  V30 35687 C 3560.91 0.975132 -1.61668 0
M  V30 35688 O 3560.26 1.63036 -0.820085 0
M  V30 35689 C 3560.32 -0.505358 -3.5795 0
M  V30 35690 O 3560.04 -1.84324 -3.97437 0
M  V30 35691 C 3561.54 -0.0986446 -4.4319 0
M  V30 35692 H 3558.76 -0.168123 -0.649597 0
M  V30 35693 H 3561.3 -1.10571 -1.7203 0
M  V30 35694 H 3559.46 0.134578 -3.87166 0
M  V30 35695 H 3559.87 -1.81452 -4.92113 0
M  V30 35696 H 3561.34 -0.211112 -5.51596 0
M  V30 35697 H 3561.82 0.957375 -4.28639 0
M  V30 35698 H 3562.43 -0.712213 -4.19294 0
M  V30 35699 N 3560.74 1.46803 -0.573299 0
M  V30 35700 C 3561.69 2.2724 0.186045 0
M  V30 35701 C 3562.68 1.35315 0.870555 0
M  V30 35702 O 3563.87 1.59557 0.766204 0
M  V30 35703 C 3561 3.21452 1.20515 0
M  V30 35704 C 3560.08 4.2086 0.523231 0
M  V30 35705 N 3560.47 5.04088 -0.415857 0
M  V30 35706 C 3558.77 4.39212 0.775159 0
M  V30 35707 C 3559.47 5.75983 -0.813511 0
M  V30 35708 N 3558.45 5.4335 -0.164743 0
M  V30 35709 H 3562.25 2.88976 -0.535737 0
M  V30 35710 H 3559.77 1.57538 -0.394401 0
M  V30 35711 H 3561.76 3.77777 1.76325 0
M  V30 35712 H 3560.42 2.61274 1.92785 0
M  V30 35713 H 3561.43 5.11826 -0.790888 0
M  V30 35714 H 3558.11 3.90192 1.48515 0
M  V30 35715 H 3559.5 6.52911 -1.5861 0
M  V30 35716 N 3562.22 0.31058 1.54509 0
M  V30 35717 C 3563.47 -0.296696 1.99506 0
M  V30 35718 C 3563.78 -1.54263 1.2026 0
M  V30 35719 O 3564.99 -2.22509 1.5557 0
M  V30 35720 C 3563.44 -0.579188 3.55209 0
M  V30 35721 C 3563.05 0.648952 4.43275 0
M  V30 35722 C 3564.8 -1.14713 4.08707 0
M  V30 35723 C 3562.7 0.339081 5.90427 0
M  V30 35724 H 3561.63 -0.114639 0.745234 0
M  V30 35725 H 3564.28 0.42078 1.7861 0
M  V30 35726 H 3562.67 -1.35651 3.72041 0
M  V30 35727 H 3563.84 1.42486 4.38217 0
M  V30 35728 H 3562.16 1.1362 4.00599 0
M  V30 35729 H 3564.75 -1.39337 5.16226 0
M  V30 35730 H 3565.1 -2.09243 3.59893 0
M  V30 35731 H 3565.63 -0.431293 3.95455 0
M  V30 35732 H 3562.37 1.2532 6.43409 0
M  V30 35733 H 3561.89 -0.39937 5.98469 0
M  V30 35734 H 3563.57 -0.0558559 6.46976 0
M  V30 35735 N 3563.7 -1.57553 0.0384871 0
M  V30 35736 C 3565.11 -1.79907 -0.499025 0
M  V30 35737 C 3565.46 -0.949607 -1.71688 0
M  V30 35738 O 3564.59 -0.162622 -2.15788 0
M  V30 35739 C 3565.18 -3.26292 -0.912097 0
M  V30 35740 C 3563.74 -3.49608 -1.39467 0
M  V30 35741 C 3562.89 -2.74903 -0.363811 0
M  V30 35742 H 3565.84 -1.56481 0.264461 0
M  V30 35743 H 3565.86 -3.36516 -1.77586 0
M  V30 35744 H 3565.37 -3.88092 -0.0255245 0
M  V30 35745 H 3563.47 -2.93073 -2.30085 0
M  V30 35746 H 3563.59 -4.58323 -1.39558 0
M  V30 35747 H 3561.95 -2.4066 -0.833951 0
M  V30 35748 H 3562.73 -3.39423 0.514457 0
M  V30 35749 N 3565.18 0.234767 -1.55842 0
M  V30 35750 C 3566.43 0.959186 -1.77888 0
M  V30 35751 C 3566.75 1.85389 -0.604653 0
M  V30 35752 O 3566.02 1.92198 0.379059 0
M  V30 35753 H 3564.6 0.357161 -0.656083 0
M  V30 35754 H 3567.26 0.249797 -1.93293 0
M  V30 35755 H 3566.35 1.57378 -2.69515 0
M  V30 35756 N 3566.66 1.49427 0.500936 0
M  V30 35757 C 3567.88 1.62891 1.2838 0
M  V30 35758 C 3568.31 0.300294 1.85687 0
M  V30 35759 O 3567.66 -0.732091 1.65862 0
M  V30 35760 C 3567.71 2.70037 2.38982 0
M  V30 35761 O 3566.82 2.29214 3.42833 0
M  V30 35762 H 3566.16 0.545209 0.379003 0
M  V30 35763 H 3568.69 1.95615 0.599676 0
M  V30 35764 H 3568.7 2.92207 2.84744 0
M  V30 35765 H 3567.37 3.66479 1.96637 0
M  V30 35766 H 3565.95 2.17375 3.02989 0
M  V30 35767 N 3568.13 -0.751987 1.38502 0
M  V30 35768 C 3569.54 -1.32939 1.31088 0
M  V30 35769 C 3569.9 -1.96173 -0.0325903 0
M  V30 35770 O 3569.02 -1.95175 -0.934657 0
M  V30 35771 C 3569.62 -2.41716 2.374 0
M  V30 35772 C 3568.17 -2.95173 2.33559 0
M  V30 35773 C 3567.32 -1.6857 2.20181 0
M  V30 35774 H 3570.27 -0.550745 1.48837 0
M  V30 35775 H 3570.29 -3.21694 2.03208 0
M  V30 35776 H 3569.81 -1.95664 3.35167 0
M  V30 35777 H 3567.91 -3.4555 1.39377 0
M  V30 35778 H 3568.02 -3.49444 3.27759 0
M  V30 35779 H 3566.38 -1.92257 1.6706 0
M  V30 35780 H 3567.17 -1.24593 3.19893 0
M  V30 35781 N 3569.61 -1.23398 -0.980343 0
M  V30 35782 C 3570.86 -1.0661 -1.72164 0
M  V30 35783 C 3571.19 0.396995 -1.90405 0
M  V30 35784 O 3570.44 1.31024 -1.45366 0
M  V30 35785 C 3570.74 -1.73677 -3.12364 0
M  V30 35786 C 3570.41 -3.23596 -3.14001 0
M  V30 35787 C 3569.07 -3.64499 -3.14155 0
M  V30 35788 C 3571.42 -4.19495 -3.09312 0
M  V30 35789 C 3568.75 -4.99761 -3.07336 0
M  V30 35790 C 3571.1 -5.54748 -3.04035 0
M  V30 35791 C 3569.76 -5.95016 -3.02511 0
M  V30 35792 H 3569.03 -0.390115 -0.629993 0
M  V30 35793 H 3571.68 -1.53332 -1.14724 0
M  V30 35794 H 3569.99 -1.19315 -3.73191 0
M  V30 35795 H 3571.68 -1.58165 -3.6849 0
M  V30 35796 H 3568.27 -2.91034 -3.14639 0
M  V30 35797 H 3572.46 -3.88902 -3.08332 0
M  V30 35798 H 3567.71 -5.30174 -3.04509 0
M  V30 35799 H 3571.89 -6.28772 -2.99363 0
M  V30 35800 H 3569.51 -6.9979 -2.96982 0
M  V30 35801 N 3571.09 1.17911 -1.04569 0
M  V30 35802 C 3572.04 2.21716 -0.641158 0
M  V30 35803 C 3573.01 1.62294 0.353557 0
M  V30 35804 O 3574.19 1.89202 0.246394 0
M  V30 35805 C 3571.33 3.45097 -0.0155333 0
M  V30 35806 C 3570.44 4.18836 -1.05832 0
M  V30 35807 C 3569.58 5.29687 -0.400681 0
M  V30 35808 C 3568.62 5.95205 -1.42821 0
M  V30 35809 N 3567.76 6.97582 -0.795181 0
M  V30 35810 H 3572.6 2.55674 -1.53085 0
M  V30 35811 H 3570.13 1.25598 -0.765737 0
M  V30 35812 H 3572.09 4.15604 0.36458 0
M  V30 35813 H 3570.72 3.11742 0.837649 0
M  V30 35814 H 3569.77 3.47106 -1.55633 0
M  V30 35815 H 3571.08 4.63679 -1.83857 0
M  V30 35816 H 3570.24 6.06691 0.0333616 0
M  V30 35817 H 3568.98 4.8596 0.411611 0
M  V30 35818 H 3567.98 5.16937 -1.87234 0
M  V30 35819 H 3569.21 6.41013 -2.2423 0
M  V30 35820 H 3567.15 6.56 -0.00328733 0
M  V30 35821 H 3567.07 7.40704 -1.51306 0
M  V30 35822 H 3568.34 7.78545 -0.385704 0
M  V30 35823 N 3572.57 0.825847 1.34229 0
M  V30 35824 C 3573.82 0.411696 1.97454 0
M  V30 35825 C 3574.13 -1.03144 1.66195 0
M  V30 35826 O 3575.34 -1.54964 2.22931 0
M  V30 35827 C 3573.79 0.685207 3.53317 0
M  V30 35828 C 3573.4 2.14215 3.93466 0
M  V30 35829 C 3575.14 0.337365 4.23157 0
M  V30 35830 C 3573.05 2.3604 5.42254 0
M  V30 35831 H 3571.98 0.150209 0.738887 0
M  V30 35832 H 3574.63 1.01261 1.53031 0
M  V30 35833 H 3573.01 0.0140874 3.95997 0
M  V30 35834 H 3574.19 2.85267 3.61883 0
M  V30 35835 H 3572.5 2.45171 3.36571 0
M  V30 35836 H 3575.1 0.478224 5.32557 0
M  V30 35837 H 3575.44 -0.718427 4.10054 0
M  V30 35838 H 3575.98 0.963181 3.85963 0
M  V30 35839 H 3572.71 3.40135 5.60346 0
M  V30 35840 H 3572.23 1.69535 5.75342 0
M  V30 35841 H 3573.91 2.18544 6.08973 0
M  V30 35842 N 3574.05 -1.46497 0.581077 0
M  V30 35843 C 3575.46 -1.57745 0.242627 0
M  V30 35844 C 3575.66 -1.57641 -1.25505 0
M  V30 35845 O 3574.72 -1.4925 -2.03668 0
M  V30 35846 C 3576.03 -2.87215 0.890392 0
M  V30 35847 C 3577.58 -3.00844 0.863831 0
M  V30 35848 C 3578.05 -4.33047 1.49111 0
M  V30 35849 N 3579.54 -4.39742 1.45537 0
M  V30 35850 C 3580.28 -5.40649 1.91013 0
M  V30 35851 N 3579.78 -6.48239 2.44454 0
M  V30 35852 N 3581.57 -5.31841 1.81939 0
M  V30 35853 H 3573.72 -1.44808 1.55384 0
M  V30 35854 H 3575.98 -0.690652 0.649387 0
M  V30 35855 H 3575.69 -2.93097 1.94388 0
M  V30 35856 H 3575.56 -3.75098 0.397635 0
M  V30 35857 H 3577.95 -2.94544 -0.181037 0
M  V30 35858 H 3578.03 -2.14441 1.39459 0
M  V30 35859 H 3577.67 -4.40104 2.53517 0
M  V30 35860 H 3577.6 -5.18222 0.935587 0
M  V30 35861 H 3580.1 -3.62591 1.06472 0
M  V30 35862 H 3580.41 -7.21445 2.77015 0
M  V30 35863 H 3578.75 -6.49064 2.48478 0
M  V30 35864 H 3581.94 -4.4669 1.39948 0
M  V30 35865 H 3582.12 -6.10338 2.17696 0
M  V30 35866 N 3575.52 -0.31877 -1.54343 0
M  V30 35867 C 3576.77 0.285664 -2.00778 0
M  V30 35868 C 3577.1 1.52162 -1.20666 0
M  V30 35869 O 3576.38 1.9236 -0.287708 0
M  V30 35870 C 3576.66 0.624587 -3.54642 0
M  V30 35871 C 3576.51 -0.621741 -4.45482 0
M  V30 35872 C 3577.83 1.44413 -4.15732 0
M  V30 35873 H 3574.95 0.102354 -0.729858 0
M  V30 35874 H 3577.59 -0.434397 -1.84968 0
M  V30 35875 H 3575.74 1.23805 -3.68245 0
M  V30 35876 H 3577.42 -1.26006 -4.43757 0
M  V30 35877 H 3575.66 -1.25156 -4.15353 0
M  V30 35878 H 3576.33 -0.340203 -5.50951 0
M  V30 35879 H 3578.81 0.925627 -4.05674 0
M  V30 35880 H 3577.68 1.65004 -5.23512 0
M  V30 35881 H 3577.94 2.4388 -3.68748 0
M  V30 35882 N 3577 1.5753 -0.0468419 0
M  V30 35883 C 3578.25 1.92139 0.626665 0
M  V30 35884 C 3578.57 0.925493 1.71638 0
M  V30 35885 O 3577.84 -0.0303187 1.95877 0
M  V30 35886 H 3576.42 0.709249 0.234466 0
M  V30 35887 H 3579.08 1.94649 -0.0988234 0
M  V30 35888 H 3578.18 2.93256 1.06805 0
M  V30 35889 N 3578.48 -0.226499 1.55964 0
M  V30 35890 C 3579.39 -1.30175 1.95171 0
M  V30 35891 C 3580.41 -1.51553 0.854858 0
M  V30 35892 O 3581.58 -1.64779 1.15801 0
M  V30 35893 C 3578.65 -2.63245 2.25617 0
M  V30 35894 C 3577.71 -2.50212 3.48844 0
M  V30 35895 C 3576.94 -3.76937 3.77828 0
M  V30 35896 O 3577.16 -4.79734 3.08564 0
M  V30 35897 O 3576.1 -3.74345 4.71327 0
M  V30 35898 H 3579.92 -0.999095 2.86796 0
M  V30 35899 H 3577.51 -0.428955 1.4311 0
M  V30 35900 H 3579.39 -3.41844 2.46416 0
M  V30 35901 H 3578.07 -2.93201 1.37167 0
M  V30 35902 H 3576.97 -1.69831 3.33329 0
M  V30 35903 H 3578.31 -2.25197 4.37661 0
M  V30 35904 N 3579.96 -1.4969 -0.493005 0
M  V30 35905 C 3581.37 -1.52689 -1.07438 0
M  V30 35906 C 3581.72 -0.317686 -1.93611 0
M  V30 35907 O 3580.85 0.571708 -2.08711 0
M  V30 35908 C 3581.44 -2.76691 -1.95518 0
M  V30 35909 C 3580 -2.82443 -2.48803 0
M  V30 35910 C 3579.15 -2.46707 -1.26613 0
M  V30 35911 H 3582.1 -1.56272 -0.276561 0
M  V30 35912 H 3582.12 -2.57306 -2.8031 0
M  V30 35913 H 3581.63 -3.64682 -1.32773 0
M  V30 35914 H 3579.73 -1.98751 -3.15165 0
M  V30 35915 H 3579.84 -3.8481 -2.85409 0
M  V30 35916 H 3578.21 -1.98661 -1.59392 0
M  V30 35917 H 3578.99 -3.36981 -0.655636 0
M  V30 35918 N 3581.44 0.744631 -1.38899 0
M  V30 35919 C 3582.68 1.50101 -1.35329 0
M  V30 35920 C 3583.01 1.94927 0.0532445 0
M  V30 35921 O 3582.28 1.68296 1.00267 0
M  V30 35922 H 3580.86 0.556799 -0.49798 0
M  V30 35923 H 3583.52 0.884594 -1.73669 0
M  V30 35924 H 3582.61 2.38769 -2.00987 0
M  V30 35925 N 3582.91 1.23916 0.973785 0
M  V30 35926 C 3583.86 0.993257 2.05228 0
M  V30 35927 C 3584.85 -0.0631402 1.60776 0
M  V30 35928 O 3586.04 0.149825 1.76365 0
M  V30 35929 C 3583.17 0.59348 3.38131 0
M  V30 35930 C 3582.26 1.68563 3.89162 0
M  V30 35931 N 3582.65 2.91722 4.13198 0
M  V30 35932 C 3580.94 1.56174 4.17763 0
M  V30 35933 C 3581.65 3.62479 4.54955 0
M  V30 35934 N 3580.62 2.90017 4.59773 0
M  V30 35935 H 3584.42 1.92852 2.21778 0
M  V30 35936 H 3581.94 1.13952 1.15709 0
M  V30 35937 H 3583.93 0.398564 4.1499 0
M  V30 35938 H 3582.59 -0.334664 3.22971 0
M  V30 35939 H 3583.61 3.27961 4.00826 0
M  V30 35940 H 3580.28 0.701184 4.1157 0
M  V30 35941 H 3581.67 4.68094 4.82014 0
M  V30 35942 N 3584.39 -1.17355 1.05193 0
M  V30 35943 C 3585.64 -1.87245 0.760511 0
M  V30 35944 C 3585.96 -1.81435 -0.714586 0
M  V30 35945 O 3585.23 -1.24032 -1.51634 0
M  V30 35946 H 3583.81 -0.693211 0.278329 0
M  V30 35947 H 3586.47 -1.42366 1.33108 0
M  V30 35948 H 3585.57 -2.92985 1.07547 0
M  V30 35949 N 3585.87 -0.832954 -1.3379 0
M  V30 35950 C 3587.12 -0.424975 -1.97581 0
M  V30 35951 C 3587.44 1.01781 -1.6633 0
M  V30 35952 O 3586.71 1.70812 -0.959171 0
M  V30 35953 H 3585.29 -0.154156 -0.730921 0
M  V30 35954 H 3587.95 -1.06461 -1.63255 0
M  V30 35955 H 3587.05 -0.552181 -3.07176 0
M  V30 35956 N 3587.35 1.46186 -0.588837 0
M  V30 35957 C 3588.63 1.95598 -0.00961769 0
M  V30 35958 C 3589.01 1.53146 1.45291 0
M  V30 35959 O 3588.35 0.785053 2.14591 0
M  V30 35960 C 3588.56 3.48493 -0.188079 0
M  V30 35961 C 3589.91 4.24559 -0.0590898 0
M  V30 35962 O 3590.94 3.56007 -0.117229 0
M  V30 35963 O 3589.79 5.46453 0.0714963 0
M  V30 35964 H 3586.89 0.8257 0.0463563 0
M  V30 35965 H 3589.43 1.56441 -0.657586 0
M  V30 35966 H 3588.21 3.72298 -1.20456 0
M  V30 35967 H 3587.83 3.94494 0.496034 0
M  V30 35968 N 3588.83 0.32695 1.54171 0
M  V30 35969 C 3590.24 -0.160414 1.8601 0
M  V30 35970 C 3590.59 -1.51347 1.24854 0
M  V30 35971 O 3589.71 -2.0914 0.555841 0
M  V30 35972 C 3590.31 -0.297849 3.37488 0
M  V30 35973 C 3588.87 -0.729436 3.69264 0
M  V30 35974 C 3588.01 0.146826 2.76911 0
M  V30 35975 H 3590.97 0.54712 1.48971 0
M  V30 35976 H 3590.99 -1.12819 3.6339 0
M  V30 35977 H 3590.5 0.687074 3.8197 0
M  V30 35978 H 3588.6 -1.72398 3.30317 0
M  V30 35979 H 3588.71 -0.530836 4.7615 0
M  V30 35980 H 3587.08 -0.378167 2.51877 0
M  V30 35981 H 3587.86 1.12858 3.24219 0
M  V30 35982 N 3590.3 -1.57503 0.0551955 0
M  V30 35983 C 3591.55 -1.92468 -0.616466 0
M  V30 35984 C 3591.87 -0.934582 -1.71145 0
M  V30 35985 O 3591.14 0.0199305 -1.9589 0
M  V30 35986 H 3589.72 -0.710483 -0.230701 0
M  V30 35987 H 3592.39 -1.94594 0.109145 0
M  V30 35988 H 3591.48 -2.93818 -1.05249 0
M  V30 35989 N 3591.78 0.218225 -1.56082 0
M  V30 35990 C 3592.71 1.2736 -1.95708 0
M  V30 35991 C 3593.69 1.48712 -0.825757 0
M  V30 35992 O 3594.88 1.60839 -1.08832 0
M  V30 35993 C 3592.01 2.62271 -2.27665 0
M  V30 35994 C 3590.96 2.5557 -3.43319 0
M  V30 35995 C 3590.29 3.94541 -3.6089 0
M  V30 35996 C 3591.59 2.10067 -4.78194 0
M  V30 35997 H 3593.28 0.944409 -2.84115 0
M  V30 35998 H 3590.83 0.452858 -1.36694 0
M  V30 35999 H 3592.78 3.36263 -2.53978 0
M  V30 36000 H 3591.51 2.96884 -1.36115 0
M  V30 36001 H 3590.16 1.84035 -3.1706 0
M  V30 36002 H 3589.81 4.26468 -2.6671 0
M  V30 36003 H 3589.51 3.90938 -4.38681 0
M  V30 36004 H 3591.04 4.7019 -3.89555 0
M  V30 36005 H 3592.45 2.73805 -5.0369 0
M  V30 36006 H 3590.85 2.17517 -5.59291 0
M  V30 36007 H 3591.92 1.05306 -4.73327 0
M  V30 36008 N 3593.26 1.4995 0.485059 0
M  V30 36009 C 3594.51 1.60476 1.23997 0
M  V30 36010 C 3594.84 0.29777 1.91904 0
M  V30 36011 O 3594.12 -0.699825 1.81474 0
M  V30 36012 C 3594.4 2.77529 2.29455 0
M  V30 36013 C 3594.25 4.1807 1.65945 0
M  V30 36014 C 3595.57 2.90175 3.30887 0
M  V30 36015 H 3592.69 0.584091 0.449451 0
M  V30 36016 H 3595.33 1.8229 0.535763 0
M  V30 36017 H 3593.48 2.59061 2.89516 0
M  V30 36018 H 3595.15 4.48094 1.09588 0
M  V30 36019 H 3593.4 4.22976 0.963004 0
M  V30 36020 H 3594.07 4.95875 2.42513 0
M  V30 36021 H 3596.54 3.07036 2.80835 0
M  V30 36022 H 3595.42 3.73725 4.02021 0
M  V30 36023 H 3595.68 2.00197 3.94175 0
M  V30 36024 N 3594.74 -0.737255 1.39292 0
M  V30 36025 C 3595.96 -1.53159 1.39847 0
M  V30 36026 C 3596.39 -1.88099 -0.0056524 0
M  V30 36027 O 3595.75 -1.51749 -0.992058 0
M  V30 36028 C 3595.8 -2.79712 2.27582 0
M  V30 36029 O 3594.9 -3.75543 1.70415 0
M  V30 36030 H 3594.24 -0.462616 0.476322 0
M  V30 36031 H 3596.77 -0.909787 1.83259 0
M  V30 36032 H 3596.78 -3.2847 2.42015 0
M  V30 36033 H 3595.46 -2.53614 3.29626 0
M  V30 36034 H 3594.03 -3.34304 1.65212 0
M  V30 36035 N 3596.22 -1.24431 -0.967199 0
M  V30 36036 C 3597.18 -1.03812 -2.04342 0
M  V30 36037 C 3598.18 0.00474146 -1.60799 0
M  V30 36038 O 3599.37 -0.236271 -1.7259 0
M  V30 36039 C 3596.5 -0.573555 -3.3604 0
M  V30 36040 H 3597.7 -1.99334 -2.24067 0
M  V30 36041 H 3595.25 -1.0666 -1.14251 0
M  V30 36042 H 3595.98 0.384842 -3.22008 0
M  V30 36043 H 3595.77 -1.32626 -3.68989 0
M  V30 36044 H 3597.26 -0.450345 -4.15165 0
M  V30 36045 N 3597.7 1.16795 -1.05814 0
M  V30 36046 C 3598.93 1.90841 -0.791404 0
M  V30 36047 C 3599.33 1.7741 0.65745 0
M  V30 36048 O 3598.68 1.11305 1.4614 0
M  V30 36049 C 3598.74 3.42242 -1.10048 0
M  V30 36050 C 3598.4 3.79458 -2.54677 0
M  V30 36051 C 3599.4 3.81782 -3.52901 0
M  V30 36052 C 3597.08 4.10234 -2.8985 0
M  V30 36053 C 3599.08 4.1436 -4.84339 0
M  V30 36054 C 3596.77 4.42481 -4.2149 0
M  V30 36055 C 3597.76 4.44523 -5.18545 0
M  V30 36056 O 3597.45 4.76006 -6.47822 0
M  V30 36057 H 3597.18 0.612156 -0.286777 0
M  V30 36058 H 3599.74 1.49008 -1.41372 0
M  V30 36059 H 3597.97 3.84401 -0.421083 0
M  V30 36060 H 3599.66 3.97557 -0.818757 0
M  V30 36061 H 3600.42 3.58122 -3.27068 0
M  V30 36062 H 3596.3 4.07812 -2.14966 0
M  V30 36063 H 3599.85 4.15869 -5.60088 0
M  V30 36064 H 3595.74 4.65604 -4.47083 0
M  V30 36065 H 3596.51 4.93838 -6.52738 0
M  V30 36066 N 3599.17 0.840037 1.33346 0
M  V30 36067 C 3600.42 0.435447 1.97353 0
M  V30 36068 C 3600.74 -1.00897 1.66867 0
M  V30 36069 O 3600.01 -1.70301 0.968216 0
M  V30 36070 H 3598.59 0.15803 0.730093 0
M  V30 36071 H 3601.25 1.07325 1.62688 0
M  V30 36072 H 3600.35 0.568464 3.06879 0
M  V30 36073 N 3600.65 -1.45872 0.596582 0
M  V30 36074 C 3601.61 -2.28893 -0.118626 0
M  V30 36075 C 3602.61 -1.39162 -0.805644 0
M  V30 36076 O 3603.8 -1.61397 -0.655483 0
M  V30 36077 C 3600.94 -3.19906 -1.17784 0
M  V30 36078 H 3602.13 -2.93607 0.611145 0
M  V30 36079 H 3599.68 -1.52212 0.355142 0
M  V30 36080 H 3600.42 -2.59969 -1.93873 0
M  V30 36081 H 3600.2 -3.85989 -0.689549 0
M  V30 36082 H 3601.69 -3.82358 -1.67906 0
M  V30 36083 N 3602.13 -0.335122 -1.53996 0
M  V30 36084 C 3603.38 0.26344 -2.00376 0
M  V30 36085 C 3603.7 1.5174 -1.22474 0
M  V30 36086 O 3602.97 1.93107 -0.329638 0
M  V30 36087 H 3601.55 0.100334 -0.740231 0
M  V30 36088 H 3604.21 -0.454335 -1.8953 0
M  V30 36089 H 3603.31 0.51178 -3.07875 0
M  V30 36090 N 3603.61 1.57472 -0.0635475 0
M  V30 36091 C 3604.54 2.15279 0.904272 0
M  V30 36092 C 3605.52 1.07766 1.31607 0
M  V30 36093 O 3606.7 1.35764 1.38859 0
M  V30 36094 C 3603.83 2.70777 2.17479 0
M  V30 36095 C 3602.79 3.83384 1.90266 0
M  V30 36096 C 3602.11 4.2545 3.23877 0
M  V30 36097 C 3603.41 5.07985 1.21445 0
M  V30 36098 H 3605.11 2.96401 0.422734 0
M  V30 36099 H 3602.65 1.42578 0.201893 0
M  V30 36100 H 3604.61 3.09861 2.85594 0
M  V30 36101 H 3603.33 1.86865 2.6786 0
M  V30 36102 H 3601.99 3.44791 1.24558 0
M  V30 36103 H 3601.64 3.38471 3.72084 0
M  V30 36104 H 3601.34 5.01352 3.06463 0
M  V30 36105 H 3602.86 4.67144 3.93204 0
M  V30 36106 H 3604.28 5.44437 1.79615 0
M  V30 36107 H 3602.67 5.89111 1.14316 0
M  V30 36108 H 3603.74 4.84519 0.192295 0
M  V30 36109 N 3605.09 -0.209945 1.56195 0
M  V30 36110 C 3606 -1.28097 1.96541 0
M  V30 36111 C 3607.01 -1.50637 0.870884 0
M  V30 36112 O 3608.19 -1.63542 1.17542 0
M  V30 36113 C 3605.25 -2.60837 2.28396 0
M  V30 36114 C 3604.31 -2.46498 3.51478 0
M  V30 36115 C 3603.55 -3.72908 3.81805 0
M  V30 36116 O 3603.77 -4.76434 3.13635 0
M  V30 36117 O 3602.7 -3.69325 4.75271 0
M  V30 36118 H 3606.53 -0.96862 2.87839 0
M  V30 36119 H 3604.11 -0.413752 1.43556 0
M  V30 36120 H 3606 -3.39211 2.50028 0
M  V30 36121 H 3604.67 -2.9173 1.40269 0
M  V30 36122 H 3603.58 -1.66286 3.35112 0
M  V30 36123 H 3604.91 -2.20542 4.40025 0
M  V30 36124 N 3606.56 -1.50205 -0.4771 0
M  V30 36125 C 3607.81 -1.60576 -1.22719 0
M  V30 36126 C 3608.13 -0.30536 -1.92594 0
M  V30 36127 O 3607.4 0.67681 -1.83837 0
M  V30 36128 H 3605.98 -0.591699 -0.455962 0
M  V30 36129 H 3608.64 -1.86953 -0.550883 0
M  V30 36130 H 3607.74 -2.41389 -1.97833 0
M  V30 36131 N 3608.04 0.729857 -1.39681 0
M  V30 36132 C 3609.29 1.48657 -1.36914 0
M  V30 36133 C 3609.61 1.94973 0.0325669 0
M  V30 36134 O 3608.88 1.6935 0.98476 0
M  V30 36135 H 3607.46 0.551486 -0.503858 0
M  V30 36136 H 3610.12 0.866125 -1.74598 0
M  V30 36137 H 3609.22 2.36624 -2.03508 0
M  V30 36138 N 3609.52 1.24942 0.960587 0
M  V30 36139 C 3610.77 1.09498 1.70699 0
M  V30 36140 C 3611.1 -0.36418 1.90755 0
M  V30 36141 O 3610.37 -1.26877 1.4742 0
M  V30 36142 C 3610.66 1.84323 3.0935 0
M  V30 36143 C 3610.51 3.38031 2.96741 0
M  V30 36144 C 3611.83 1.6216 4.09136 0
M  V30 36145 H 3608.95 0.399169 0.619543 0
M  V30 36146 H 3611.59 1.53699 1.11698 0
M  V30 36147 H 3609.74 1.46752 3.59717 0
M  V30 36148 H 3611.41 3.85242 2.53745 0
M  V30 36149 H 3609.66 3.66047 2.32791 0
M  V30 36150 H 3610.33 3.85594 3.94995 0
M  V30 36151 H 3612.8 1.94856 3.67655 0
M  V30 36152 H 3611.68 2.1696 5.04202 0
M  V30 36153 H 3611.94 0.561514 4.3852 0
M  V30 36154 N 3611 -1.16233 1.06432 0
M  V30 36155 C 3612.23 -1.90695 0.802677 0
M  V30 36156 C 3612.64 -1.77509 -0.643113 0
M  V30 36157 O 3612 -1.12068 -1.44038 0
M  V30 36158 C 3612.05 -3.41355 1.1899 0
M  V30 36159 O 3611.77 -3.54149 2.57896 0
M  V30 36160 C 3613.27 -4.32864 0.956208 0
M  V30 36161 H 3610.49 -0.604663 0.290901 0
M  V30 36162 H 3613.04 -1.47323 1.41832 0
M  V30 36163 H 3611.19 -3.82426 0.61877 0
M  V30 36164 H 3611.6 -4.47584 2.73439 0
M  V30 36165 H 3613.08 -5.37031 1.27676 0
M  V30 36166 H 3613.56 -4.39067 -0.107984 0
M  V30 36167 H 3614.16 -3.97524 1.51179 0
M  V30 36168 N 3612.48 -0.847097 -1.32899 0
M  V30 36169 C 3613.72 -0.445907 -1.97119 0
M  V30 36170 C 3614.05 1.00011 -1.674 0
M  V30 36171 O 3613.32 1.69785 -0.977234 0
M  V30 36172 H 3611.9 -0.1619 -0.729244 0
M  V30 36173 H 3614.56 -1.08186 -1.62116 0
M  V30 36174 H 3613.65 -0.58473 -3.06574 0
M  V30 36175 N 3613.95 1.45554 -0.604309 0
M  V30 36176 C 3614.9 2.32242 0.128972 0
M  V30 36177 C 3615.9 1.45775 0.862908 0
M  V30 36178 O 3617.1 1.62278 0.778845 0
M  V30 36179 H 3613.48 0.749566 0.060453 0
M  V30 36180 H 3615.45 2.91874 -0.620654 0
M  V30 36181 C 3614.2 3.29334 1.1151 0
M  V30 36182 H 3613.52 3.95862 0.559779 0
M  V30 36183 H 3614.96 3.92727 1.59817 0
M  V30 36184 C 3613.42 2.56264 2.18701 0
M  V30 36185 O 3613.95 2.3416 3.26393 0
M  V30 36186 N 3612.16 2.16455 1.93895 0
M  V30 36187 H 3611.7 2.34633 1.06326 0
M  V30 36188 H 3611.66 1.67888 2.65821 0
M  V30 36189 N 3615.43 0.343284 1.53816 0
M  V30 36190 C 3616.84 -0.140676 1.86169 0
M  V30 36191 C 3617.19 -1.50014 1.26452 0
M  V30 36192 O 3616.32 -2.08538 0.577991 0
M  V30 36193 C 3616.91 -0.262037 3.37785 0
M  V30 36194 C 3615.47 -0.690229 3.70017 0
M  V30 36195 C 3614.62 0.176188 2.7674 0
M  V30 36196 H 3617.57 0.562889 1.48382 0
M  V30 36197 H 3617.59 -1.08958 3.64566 0
M  V30 36198 H 3617.1 0.727548 3.8122 0
M  V30 36199 H 3615.21 -1.68885 3.32127 0
M  V30 36200 H 3615.32 -0.480304 4.76686 0
M  V30 36201 H 3613.68 -0.351431 2.52264 0
M  V30 36202 H 3614.47 1.1629 3.23004 0
M  V30 36203 N 3616.91 -1.57436 0.0718977 0
M  V30 36204 C 3617.87 -2.11607 -0.880634 0
M  V30 36205 C 3618.87 -1.04012 -1.2263 0
M  V30 36206 O 3620.06 -1.29999 -1.15956 0
M  V30 36207 C 3617.2 -2.6175 -2.18403 0
M  V30 36208 H 3618.39 -2.97075 -0.41066 0
M  V30 36209 H 3615.94 -1.55297 -0.176808 0
M  V30 36210 H 3616.68 -1.79735 -2.69936 0
M  V30 36211 H 3616.46 -3.40396 -1.9461 0
M  V30 36212 H 3617.95 -3.03736 -2.86591 0
M  V30 36213 N 3618.39 0.201658 -1.56305 0
M  V30 36214 C 3619.3 1.27053 -1.97217 0
M  V30 36215 C 3620.31 1.50173 -0.878861 0
M  V30 36216 O 3621.49 1.62916 -1.18408 0
M  V30 36217 C 3618.56 2.59622 -2.29776 0
M  V30 36218 C 3617.62 2.44631 -3.52781 0
M  V30 36219 C 3616.85 3.70878 -3.83777 0
M  V30 36220 O 3617.07 4.74764 -3.16157 0
M  V30 36221 O 3616.01 3.668 -4.77223 0
M  V30 36222 H 3619.83 0.953342 -2.88349 0
M  V30 36223 H 3617.42 0.406133 -1.43774 0
M  V30 36224 H 3619.3 3.3788 -2.51823 0
M  V30 36225 H 3617.97 2.90982 -1.41814 0
M  V30 36226 H 3616.88 1.64506 -3.35989 0
M  V30 36227 H 3618.21 2.18206 -4.41188 0
M  V30 36228 N 3619.87 1.50456 0.469128 0
M  V30 36229 C 3621.11 1.61543 1.22107 0
M  V30 36230 C 3621.44 0.316679 1.91905 0
M  V30 36231 O 3620.7 -0.697553 1.82846 0
M  V30 36232 C 3621 2.74674 2.28668 0
M  V30 36233 C 3620.66 4.15086 1.76108 0
M  V30 36234 C 3619.32 4.53291 1.61495 0
M  V30 36235 C 3621.68 5.02835 1.37136 0
M  V30 36236 C 3619 5.76983 1.06336 0
M  V30 36237 C 3621.36 6.27076 0.834184 0
M  V30 36238 C 3620.02 6.64081 0.674697 0
M  V30 36239 H 3619.29 0.591129 0.44682 0
M  V30 36240 H 3621.94 1.84395 0.516788 0
M  V30 36241 H 3620.24 2.45918 3.05011 0
M  V30 36242 H 3621.94 2.80456 2.8661 0
M  V30 36243 H 3618.53 3.84947 1.8845 0
M  V30 36244 H 3622.71 4.7395 1.4726 0
M  V30 36245 H 3617.97 6.04327 0.927271 0
M  V30 36246 H 3622.14 6.94429 0.523554 0
M  V30 36247 H 3619.77 7.59805 0.24513 0
M  V30 36248 N 3621.34 -0.722439 1.40066 0
M  V30 36249 C 3622.59 -1.48442 1.38177 0
M  V30 36250 C 3622.92 -1.94191 -0.0182515 0
M  V30 36251 O 3622.2 -1.67678 -0.985608 0
M  V30 36252 C 3622.48 -2.71531 2.36523 0
M  V30 36253 C 3622.33 -2.31719 3.85521 0
M  V30 36254 C 3623.65 -3.73669 2.32506 0
M  V30 36255 H 3620.77 -0.538449 0.503231 0
M  V30 36256 H 3623.41 -0.825057 1.71151 0
M  V30 36257 H 3621.56 -3.27789 2.08534 0
M  V30 36258 H 3623.24 -1.80995 4.24309 0
M  V30 36259 H 3621.48 -1.638 4.01687 0
M  V30 36260 H 3622.15 -3.1992 4.49839 0
M  V30 36261 H 3624.63 -3.27024 2.57282 0
M  V30 36262 H 3623.5 -4.57442 3.03377 0
M  V30 36263 H 3623.76 -4.21483 1.33435 0
M  V30 36264 N 3622.82 -1.2545 -0.953947 0
M  V30 36265 C 3624.07 -1.10402 -1.70116 0
M  V30 36266 C 3624.4 0.354059 -1.90945 0
M  V30 36267 O 3623.68 1.26093 -1.4809 0
M  V30 36268 C 3623.96 -1.85961 -3.08368 0
M  V30 36269 C 3623.81 -3.396 -2.94944 0
M  V30 36270 C 3625.13 -1.64328 -4.0827 0
M  V30 36271 H 3622.25 -0.402449 -0.617417 0
M  V30 36272 H 3624.89 -1.5429 -1.10881 0
M  V30 36273 H 3623.04 -1.48658 -3.58933 0
M  V30 36274 H 3624.72 -3.86582 -2.51698 0
M  V30 36275 H 3622.96 -3.67277 -2.30847 0
M  V30 36276 H 3623.63 -3.87683 -3.92945 0
M  V30 36277 H 3626.11 -1.96803 -3.66617 0
M  V30 36278 H 3624.98 -2.19631 -5.03044 0
M  V30 36279 H 3625.24 -0.584762 -4.38216 0
M  V30 36280 N 3624.3 1.15667 -1.07047 0
M  V30 36281 C 3625.25 2.22368 -0.682299 0
M  V30 36282 C 3626.24 1.66624 0.305419 0
M  V30 36283 O 3627.45 1.79201 0.169463 0
M  V30 36284 H 3623.82 0.724209 -0.202548 0
M  V30 36285 H 3625.8 2.5239 -1.59192 0
M  V30 36286 C 3624.54 3.47576 -0.0928742 0
M  V30 36287 H 3623.87 3.90789 -0.844033 0
M  V30 36288 H 3625.31 4.23765 0.141106 0
M  V30 36289 C 3623.77 3.16093 1.16562 0
M  V30 36290 O 3624.3 3.32603 2.25251 0
M  V30 36291 N 3622.5 2.70162 1.07057 0
M  V30 36292 H 3622.05 2.56927 0.186046 0
M  V30 36293 H 3622.01 2.49471 1.91342 0
M  V30 36294 N 3625.78 0.854133 1.32447 0
M  V30 36295 C 3627.01 0.471223 2.01462 0
M  V30 36296 C 3627.42 -0.931925 1.64197 0
M  V30 36297 O 3626.78 -1.60805 0.863023 0
M  V30 36298 C 3626.83 0.600085 3.56485 0
M  V30 36299 O 3626.55 1.94796 3.92411 0
M  V30 36300 C 3628.05 0.216114 4.42773 0
M  V30 36301 H 3625.27 0.185287 0.644911 0
M  V30 36302 H 3627.82 1.15093 1.69038 0
M  V30 36303 H 3625.97 -0.0318807 3.87387 0
M  V30 36304 H 3626.39 1.94436 4.87129 0
M  V30 36305 H 3627.86 0.357283 5.50843 0
M  V30 36306 H 3628.34 -0.843393 4.31026 0
M  V30 36307 H 3628.94 0.823132 4.17258 0
M  V30 36308 N 3627.26 -1.45231 0.61202 0
M  V30 36309 C 3628.48 -2.07088 0.113654 0
M  V30 36310 C 3628.91 -1.4529 -1.19467 0
M  V30 36311 O 3628.27 -0.547238 -1.72844 0
M  V30 36312 C 3628.31 -3.60599 -0.0078364 0
M  V30 36313 O 3627.42 -3.98627 -1.0569 0
M  V30 36314 H 3626.76 -0.659627 0.0760776 0
M  V30 36315 H 3629.29 -1.86413 0.843286 0
M  V30 36316 H 3629.3 -4.07487 -0.204621 0
M  V30 36317 H 3627.97 -4.04964 0.947457 0
M  V30 36318 H 3626.55 -3.63403 -0.836227 0
M  V30 36319 N 3628.74 -0.351436 -1.53632 0
M  V30 36320 C 3629.68 0.516943 -2.26783 0
M  V30 36321 C 3630.68 1.09534 -1.29223 0
M  V30 36322 O 3631.88 1.04017 -1.46903 0
M  V30 36323 H 3628.26 0.185404 -0.728786 0
M  V30 36324 H 3630.23 -0.121961 -2.98151 0
M  V30 36325 C 3628.98 1.65204 -3.05946 0
M  V30 36326 H 3628.3 1.21626 -3.80851 0
M  V30 36327 H 3629.74 2.23466 -3.60332 0
M  V30 36328 C 3628.2 2.58611 -2.15922 0
M  V30 36329 O 3628.73 3.61064 -1.76055 0
M  V30 36330 N 3626.94 2.27475 -1.80841 0
M  V30 36331 H 3626.48 1.44199 -2.13458 0
M  V30 36332 H 3626.44 2.90229 -1.20891 0
M  V30 36333 N 3630.21 1.57396 -0.0802459 0
M  V30 36334 C 3631.18 2.12071 0.8694 0
M  V30 36335 C 3632.18 1.04661 1.22077 0
M  V30 36336 O 3633.37 1.30612 1.15265 0
M  V30 36337 C 3630.5 2.62905 2.17011 0
M  V30 36338 H 3631.69 2.97289 0.394899 0
M  V30 36339 H 3629.24 1.55388 0.16857 0
M  V30 36340 H 3629.98 1.81164 2.68979 0
M  V30 36341 H 3629.76 3.41423 1.92802 0
M  V30 36342 H 3631.25 3.05251 2.84976 0
M  V30 36343 N 3631.69 -0.193366 1.56409 0
M  V30 36344 C 3632.94 -0.911685 1.80368 0
M  V30 36345 C 3633.26 -1.8372 0.653593 0
M  V30 36346 O 3632.53 -1.93135 -0.327967 0
M  V30 36347 H 3631.11 -0.33964 0.665322 0
M  V30 36348 H 3633.77 -0.198462 1.93887 0
M  V30 36349 H 3632.87 -1.50177 2.73593 0
M  V30 36350 N 3633.17 -1.50702 -0.461142 0
M  V30 36351 C 3634.13 -1.69728 -1.54029 0
M  V30 36352 C 3635.13 -0.567734 -1.50444 0
M  V30 36353 O 3636.32 -0.834928 -1.52888 0
M  V30 36354 C 3633.45 -1.73173 -2.93639 0
M  V30 36355 H 3634.65 -2.66017 -1.38474 0
M  V30 36356 H 3632.2 -1.40333 -0.68821 0
M  V30 36357 H 3632.94 -0.786133 -3.14627 0
M  V30 36358 H 3632.72 -2.55241 -2.97648 0
M  V30 36359 H 3634.21 -1.89813 -3.71969 0
M  V30 36360 N 3634.65 0.715001 -1.40447 0
M  V30 36361 C 3635.9 1.47197 -1.38483 0
M  V30 36362 C 3636.22 1.94996 0.0118856 0
M  V30 36363 O 3635.49 1.70385 0.966742 0
M  V30 36364 H 3634.07 0.546111 -0.509678 0
M  V30 36365 H 3636.73 0.847557 -1.75506 0
M  V30 36366 H 3635.82 2.34452 -2.06006 0
M  V30 36367 N 3636.13 1.25954 0.947281 0
M  V30 36368 C 3637.09 1.0705 2.02665 0
M  V30 36369 C 3638.09 0.0208409 1.60786 0
M  V30 36370 O 3639.28 0.263699 1.72193 0
M  V30 36371 C 3636.41 0.626943 3.35085 0
M  V30 36372 H 3637.6 2.02874 2.20867 0
M  V30 36373 H 3635.16 1.08464 1.1254 0
M  V30 36374 H 3635.89 -0.333564 3.2258 0
M  V30 36375 H 3635.68 1.38479 3.66832 0
M  V30 36376 H 3637.17 0.516337 4.14396 0
M  V30 36377 N 3637.6 -1.15097 1.07659 0
M  V30 36378 C 3638.53 -2.22082 0.72124 0
M  V30 36379 C 3639.52 -1.67561 -0.292778 0
M  V30 36380 O 3640.7 -1.93499 -0.164838 0
M  V30 36381 C 3637.83 -3.47087 0.121591 0
M  V30 36382 C 3636.78 -4.14587 1.06311 0
M  V30 36383 C 3636.11 -5.33705 0.326058 0
M  V30 36384 C 3637.41 -4.63995 2.39804 0
M  V30 36385 H 3639.1 -2.52062 1.6157 0
M  V30 36386 H 3636.65 -1.21155 0.778303 0
M  V30 36387 H 3638.6 -4.21171 -0.138963 0
M  V30 36388 H 3637.33 -3.16448 -0.807966 0
M  V30 36389 H 3635.99 -3.42447 1.30864 0
M  V30 36390 H 3635.63 -4.99323 -0.607059 0
M  V30 36391 H 3635.33 -5.7981 0.953654 0
M  V30 36392 H 3636.86 -6.10556 0.0733768 0
M  V30 36393 H 3638.27 -5.2959 2.19561 0
M  V30 36394 H 3636.67 -5.20773 2.98187 0
M  V30 36395 H 3637.74 -3.79467 3.01882 0
M  V30 36396 N 3639.08 -0.861145 -1.31993 0
M  V30 36397 C 3640.31 -0.481048 -2.01744 0
M  V30 36398 C 3640.73 0.916498 -1.64262 0
M  V30 36399 O 3640.09 1.60318 -0.846631 0
M  V30 36400 C 3640.14 -0.635196 -3.54961 0
M  V30 36401 O 3639.24 0.329265 -4.11083 0
M  V30 36402 H 3638.58 -0.192463 -0.635495 0
M  V30 36403 H 3641.11 -1.16213 -1.68392 0
M  V30 36404 H 3641.12 -0.52516 -4.04606 0
M  V30 36405 H 3639.8 -1.65428 -3.81584 0
M  V30 36406 H 3638.38 0.174924 -3.72489 0
M  V30 36407 N 3640.56 1.44905 -0.619713 0
M  V30 36408 C 3641.81 2.02446 -0.119846 0
M  V30 36409 C 3642.14 1.48549 1.25088 0
M  V30 36410 O 3641.41 0.664974 1.82779 0
M  V30 36411 C 3641.7 3.59977 -0.0940838 0
M  V30 36412 C 3641.55 4.24181 -1.49634 0
M  V30 36413 C 3642.87 4.36162 0.587403 0
M  V30 36414 H 3639.99 0.735623 -0.0450248 0
M  V30 36415 H 3642.63 1.72614 -0.794006 0
M  V30 36416 H 3640.78 3.85523 0.480005 0
M  V30 36417 H 3642.45 4.0978 -2.11844 0
M  V30 36418 H 3640.7 3.82115 -2.05355 0
M  V30 36419 H 3641.37 5.33144 -1.43044 0
M  V30 36420 H 3643.84 4.15981 0.0993132 0
M  V30 36421 H 3642.72 5.45884 0.574576 0
M  V30 36422 H 3642.98 4.09925 1.65572 0
M  V30 36423 N 3642.04 0.359579 1.53443 0
M  V30 36424 C 3643.27 -0.232916 2.05585 0
M  V30 36425 C 3643.68 -1.42934 1.2335 0
M  V30 36426 O 3643.04 -1.80451 0.272693 0
M  V30 36427 C 3643.09 -0.632297 3.55927 0
M  V30 36428 O 3642.81 0.51657 4.35044 0
M  V30 36429 C 3644.31 -1.28382 4.24303 0
M  V30 36430 H 3641.53 -0.0421202 0.669677 0
M  V30 36431 H 3644.08 0.516211 1.97878 0
M  V30 36432 H 3642.23 -1.33135 3.63805 0
M  V30 36433 H 3642.64 0.194998 5.24137 0
M  V30 36434 H 3644.12 -1.51388 5.30835 0
M  V30 36435 H 3644.6 -2.24229 3.77648 0
M  V30 36436 H 3645.2 -0.626364 4.20662 0
M  V30 36437 N 3643.52 -1.57351 0.0885919 0
M  V30 36438 C 3644.77 -1.93292 -0.576296 0
M  V30 36439 C 3645.08 -0.971964 -1.69742 0
M  V30 36440 O 3646.28 -1.22484 -2.42301 0
M  V30 36441 C 3644.74 -3.43424 -1.07649 0
M  V30 36442 C 3644.35 -4.47998 0.0145276 0
M  V30 36443 C 3646.09 -3.88337 -1.71448 0
M  V30 36444 C 3644 -5.89277 -0.500654 0
M  V30 36445 H 3642.93 -0.721482 -0.219043 0
M  V30 36446 H 3645.58 -1.8277 0.163543 0
M  V30 36447 H 3643.96 -3.49076 -1.86982 0
M  V30 36448 H 3645.14 -4.53981 0.789776 0
M  V30 36449 H 3643.45 -4.12654 0.557309 0
M  V30 36450 H 3646.05 -4.91284 -2.11054 0
M  V30 36451 H 3646.39 -3.26626 -2.58111 0
M  V30 36452 H 3646.92 -3.85359 -0.987091 0
M  V30 36453 H 3643.66 -6.54673 0.329203 0
M  V30 36454 H 3643.18 -5.86778 -1.24305 0
M  V30 36455 H 3644.86 -6.39661 -0.971709 0
M  V30 36456 N 3644.99 0.185069 -1.5651 0
M  V30 36457 C 3646.27 0.930368 -1.72057 0
M  V30 36458 C 3646.65 2.00967 -0.646181 0
M  V30 36459 O 3646 2.25937 0.341251 0
M  V30 36460 C 3646.21 1.50765 -3.14755 0
M  V30 36461 C 3647.56 1.98591 -3.75296 0
M  V30 36462 O 3648.58 1.60588 -3.17947 0
M  V30 36463 O 3647.44 2.68552 -4.75964 0
M  V30 36464 H 3644.53 0.436977 -0.702125 0
M  V30 36465 H 3647.08 0.173977 -1.68806 0
M  V30 36466 H 3645.85 0.730168 -3.84427 0
M  V30 36467 H 3645.48 2.32861 -3.22276 0
M  V30 36468 N 3646.47 1.50945 0.453144 0
M  V30 36469 C 3647.72 1.62508 1.20149 0
M  V30 36470 C 3648.04 0.335961 1.92084 0
M  V30 36471 O 3647.31 -0.647477 1.84891 0
M  V30 36472 H 3645.89 0.598878 0.446491 0
M  V30 36473 H 3648.55 1.87805 0.52107 0
M  V30 36474 H 3647.65 2.44506 1.93967 0
M  V30 36475 N 3647.95 -0.707543 1.40825 0
M  V30 36476 C 3649.36 -1.28701 1.35251 0
M  V30 36477 C 3649.71 -1.96177 0.0298371 0
M  V30 36478 O 3648.84 -1.98049 -0.872091 0
M  V30 36479 C 3649.43 -2.34041 2.4497 0
M  V30 36480 C 3647.99 -2.87593 2.42831 0
M  V30 36481 C 3647.14 -1.61479 2.25432 0
M  V30 36482 H 3650.09 -0.503114 1.50514 0
M  V30 36483 H 3650.11 -3.15066 2.13339 0
M  V30 36484 H 3649.62 -1.84902 3.41223 0
M  V30 36485 H 3647.72 -3.40941 1.503 0
M  V30 36486 H 3647.84 -3.38839 3.3871 0
M  V30 36487 H 3646.2 -1.86845 1.73092 0
M  V30 36488 H 3646.98 -1.14353 3.23695 0
M  V30 36489 N 3649.43 -1.26454 -0.940588 0
M  V30 36490 C 3650.65 -1.14917 -1.72652 0
M  V30 36491 C 3651.08 0.291756 -1.85824 0
M  V30 36492 O 3650.44 1.21138 -1.3489 0
M  V30 36493 C 3650.48 -1.82378 -3.1108 0
M  V30 36494 O 3649.59 -1.11297 -3.97098 0
M  V30 36495 H 3648.93 -0.400396 -0.529697 0
M  V30 36496 H 3651.46 -1.67285 -1.178 0
M  V30 36497 H 3651.47 -1.89225 -3.61466 0
M  V30 36498 H 3650.14 -2.87204 -3.0081 0
M  V30 36499 H 3648.72 -1.12429 -3.55548 0
M  V30 36500 N 3650.91 1.14525 -1.08268 0
M  V30 36501 C 3651.85 2.19564 -0.71137 0
M  V30 36502 C 3652.82 1.63336 0.301745 0
M  V30 36503 O 3654.01 1.8989 0.186076 0
M  V30 36504 C 3651.15 3.44872 -0.125315 0
M  V30 36505 C 3650.26 4.15257 -1.19104 0
M  V30 36506 C 3649.4 5.28144 -0.568994 0
M  V30 36507 C 3648.44 5.90359 -1.61685 0
M  V30 36508 N 3647.57 6.947 -1.01671 0
M  V30 36509 H 3652.41 2.50674 -1.61142 0
M  V30 36510 H 3649.95 1.23098 -0.805307 0
M  V30 36511 H 3651.91 4.16553 0.232174 0
M  V30 36512 H 3650.54 3.14249 0.738046 0
M  V30 36513 H 3649.59 3.41979 -1.66597 0
M  V30 36514 H 3650.9 4.57595 -1.98516 0
M  V30 36515 H 3650.06 6.0649 -0.159669 0
M  V30 36516 H 3648.79 4.87023 0.256798 0
M  V30 36517 H 3647.8 5.10718 -2.03585 0
M  V30 36518 H 3649.02 6.33555 -2.44509 0
M  V30 36519 H 3646.97 6.55657 -0.211987 0
M  V30 36520 H 3646.89 7.35515 -1.74794 0
M  V30 36521 H 3648.16 7.76924 -0.633197 0
M  V30 36522 N 3652.39 0.868133 1.31534 0
M  V30 36523 C 3653.63 0.478863 1.97065 0
M  V30 36524 C 3653.96 -0.965991 1.6847 0
M  V30 36525 O 3653.24 -1.67995 0.980195 0
M  V30 36526 C 3653.52 0.734375 3.52532 0
M  V30 36527 C 3653.38 2.22863 3.90707 0
M  V30 36528 C 3654.69 0.199636 4.39647 0
M  V30 36529 H 3651.81 0.175457 0.71581 0
M  V30 36530 H 3654.46 1.08904 1.55692 0
M  V30 36531 H 3652.61 0.21503 3.87904 0
M  V30 36532 H 3654.28 2.81509 3.65446 0
M  V30 36533 H 3652.52 2.70191 3.39381 0
M  V30 36534 H 3653.19 2.35806 4.99099 0
M  V30 36535 H 3655.67 0.643926 4.11087 0
M  V30 36536 H 3654.54 0.407879 5.47382 0
M  V30 36537 H 3654.8 -0.898338 4.32877 0
M  V30 36538 N 3653.86 -1.44574 0.627389 0
M  V30 36539 C 3654.81 -2.30662 -0.0797639 0
M  V30 36540 C 3655.78 -1.43265 -0.840503 0
M  V30 36541 O 3656.97 -1.72172 -0.822289 0
M  V30 36542 C 3654.11 -3.28485 -1.0579 0
M  V30 36543 C 3653.22 -4.30985 -0.295976 0
M  V30 36544 C 3652.35 -5.15903 -1.2656 0
M  V30 36545 C 3651.39 -6.10115 -0.492615 0
M  V30 36546 N 3650.53 -6.87744 -1.41251 0
M  V30 36547 H 3655.37 -2.90592 0.660305 0
M  V30 36548 H 3652.91 -1.43178 0.337408 0
M  V30 36549 H 3654.86 -3.83685 -1.63835 0
M  V30 36550 H 3653.49 -2.70263 -1.76515 0
M  V30 36551 H 3652.55 -3.78288 0.400326 0
M  V30 36552 H 3653.86 -4.97859 0.306237 0
M  V30 36553 H 3653.01 -5.75601 -1.9175 0
M  V30 36554 H 3651.75 -4.49094 -1.90174 0
M  V30 36555 H 3650.76 -5.49528 0.172792 0
M  V30 36556 H 3651.98 -6.78958 0.138753 0
M  V30 36557 H 3649.93 -6.23607 -2.03593 0
M  V30 36558 H 3649.84 -7.51044 -0.86423 0
M  V30 36559 H 3651.11 -7.51969 -2.05337 0
M  V30 36560 N 3655.34 -0.367711 -1.5325 0
M  V30 36561 C 3656.27 0.521378 -2.22164 0
M  V30 36562 C 3657.25 1.08131 -1.21435 0
M  V30 36563 O 3658.44 1.13704 -1.50345 0
M  V30 36564 C 3655.56 1.71957 -2.91802 0
M  V30 36565 C 3654.61 1.28689 -4.06622 0
M  V30 36566 S 3655.44 0.286411 -5.34734 0
M  V30 36567 C 3656.6 1.49088 -6.07884 0
M  V30 36568 H 3656.83 -0.063884 -2.97231 0
M  V30 36569 H 3654.36 -0.151822 -1.53652 0
M  V30 36570 H 3656.32 2.40685 -3.32537 0
M  V30 36571 H 3654.98 2.27609 -2.16455 0
M  V30 36572 H 3654.18 2.18092 -4.5437 0
M  V30 36573 H 3653.78 0.678805 -3.67788 0
M  V30 36574 H 3656.07 2.42156 -6.32745 0
M  V30 36575 H 3657.01 1.05474 -7.00201 0
M  V30 36576 H 3657.42 1.6979 -5.3836 0
M  V30 36577 N 3656.82 1.57302 -0.0969353 0
M  V30 36578 C 3658.1 1.85887 0.608704 0
M  V30 36579 C 3658.48 0.994129 1.86226 0
M  V30 36580 O 3657.82 0.0670377 2.28402 0
M  V30 36581 C 3658.03 3.36592 0.922326 0
M  V30 36582 C 3659.38 4.04689 1.28498 0
M  V30 36583 O 3660.41 3.41484 1.01328 0
M  V30 36584 O 3659.27 5.16218 1.79391 0
M  V30 36585 H 3656.36 0.768784 0.304795 0
M  V30 36586 H 3658.91 1.69203 -0.129772 0
M  V30 36587 H 3657.68 3.91286 0.03308 0
M  V30 36588 H 3657.3 3.58629 1.71672 0
M  V30 36589 N 3658.3 -0.176766 1.56606 0
M  V30 36590 C 3659.54 -0.900826 1.83479 0
M  V30 36591 C 3659.9 -1.79665 0.677083 0
M  V30 36592 O 3661.1 -2.5579 0.826136 0
M  V30 36593 C 3659.37 -1.68012 3.15447 0
M  V30 36594 S 3660.93 -2.45369 3.63785 0
M  V30 36595 H 3657.75 -0.301812 0.643763 0
M  V30 36596 H 3660.35 -0.162853 1.94821 0
M  V30 36597 H 3659.06 -1.01295 3.97703 0
M  V30 36598 H 3658.59 -2.45957 3.07032 0
M  V30 36599 H 3660.6 -3.69954 3.30678 0
M  V30 36600 N 3659.78 -1.51183 -0.445132 0
M  V30 36601 C 3660.71 -1.68118 -1.55785 0
M  V30 36602 C 3661.72 -0.56199 -1.52792 0
M  V30 36603 O 3662.91 -0.836056 -1.5771 0
M  V30 36604 C 3660.01 -1.67349 -2.94699 0
M  V30 36605 C 3659.18 -2.95726 -3.22281 0
M  V30 36606 C 3658.24 -2.87249 -4.40879 0
M  V30 36607 O 3657.27 -3.61199 -4.39914 0
M  V30 36608 N 3658.47 -2.02568 -5.4401 0
M  V30 36609 H 3661.23 -2.64104 -1.41665 0
M  V30 36610 H 3658.8 -1.48972 -0.633958 0
M  V30 36611 H 3660.79 -1.59257 -3.72048 0
M  V30 36612 H 3659.36 -0.789895 -3.02456 0
M  V30 36613 H 3658.58 -3.17747 -2.33304 0
M  V30 36614 H 3659.87 -3.80721 -3.37533 0
M  V30 36615 H 3659.26 -1.41849 -5.47627 0
M  V30 36616 H 3657.82 -2.00361 -6.20241 0
M  V30 36617 N 3661.25 0.700065 -1.41198 0
M  V30 36618 C 3662.16 1.84392 -1.45041 0
M  V30 36619 C 3663.18 1.70617 -0.34144 0
M  V30 36620 O 3664.36 1.92611 -0.588462 0
M  V30 36621 C 3661.42 3.20334 -1.32616 0
M  V30 36622 C 3660.48 3.4625 -2.5379 0
M  V30 36623 C 3659.71 4.75706 -2.41949 0
M  V30 36624 O 3659.94 5.51881 -1.44163 0
M  V30 36625 O 3658.87 5.02306 -3.31621 0
M  V30 36626 H 3662.7 1.84106 -2.41534 0
M  V30 36627 H 3660.28 0.852536 -1.22687 0
M  V30 36628 H 3662.16 4.01504 -1.27954 0
M  V30 36629 H 3660.84 3.21313 -0.392365 0
M  V30 36630 H 3659.75 2.65027 -2.64029 0
M  V30 36631 H 3661.08 3.50081 -3.45983 0
M  V30 36632 N 3662.73 1.26951 0.933869 0
M  V30 36633 C 3663.97 1.14156 1.69552 0
M  V30 36634 C 3664.34 -0.308606 1.89504 0
M  V30 36635 O 3665.54 -0.558848 2.62926 0
M  V30 36636 C 3663.81 1.89715 3.02891 0
M  V30 36637 S 3665.37 1.9306 3.94047 0
M  V30 36638 H 3662.18 0.40764 0.582538 0
M  V30 36639 H 3664.79 1.60774 1.1123 0
M  V30 36640 H 3663.49 2.94279 2.86056 0
M  V30 36641 H 3663.02 1.43567 3.66268 0
M  V30 36642 H 3665.04 1.02257 4.85549 0
M  V30 36643 N 3664.21 -1.13949 1.08873 0
M  V30 36644 C 3665.62 -1.66656 0.841581 0
M  V30 36645 C 3665.97 -1.8578 -0.6309 0
M  V30 36646 O 3665.1 -1.57245 -1.48671 0
M  V30 36647 C 3665.69 -3.02732 1.52115 0
M  V30 36648 C 3664.25 -3.52454 1.32111 0
M  V30 36649 C 3663.4 -2.27823 1.58088 0
M  V30 36650 H 3666.35 -0.979488 1.24867 0
M  V30 36651 H 3666.37 -3.68423 0.951043 0
M  V30 36652 H 3665.88 -2.88781 2.59281 0
M  V30 36653 H 3663.98 -3.71618 0.270359 0
M  V30 36654 H 3664.1 -4.3293 2.05204 0
M  V30 36655 H 3662.46 -2.34133 1.00269 0
M  V30 36656 H 3663.24 -2.16444 2.66471 0
M  V30 36657 N 3665.69 -0.875096 -1.31072 0
M  V30 36658 C 3666.6 -0.338237 -2.32149 0
M  V30 36659 C 3667.61 0.554475 -1.64929 0
M  V30 36660 O 3668.79 0.449964 -1.96309 0
M  V30 36661 C 3665.85 0.447103 -3.43805 0
M  V30 36662 C 3664.92 -0.474181 -4.26673 0
M  V30 36663 C 3664.15 0.273773 -5.32997 0
M  V30 36664 O 3664.37 1.50119 -5.50291 0
M  V30 36665 O 3663.31 -0.371018 -6.00755 0
M  V30 36666 H 3667.13 -1.17617 -2.8 0
M  V30 36667 H 3664.72 -0.638624 -1.35063 0
M  V30 36668 H 3666.6 0.892127 -4.11848 0
M  V30 36669 H 3665.27 1.2615 -2.98107 0
M  V30 36670 H 3664.18 -0.967812 -3.61364 0
M  V30 36671 H 3665.51 -1.25431 -4.75949 0
M  V30 36672 N 3667.17 1.44239 -0.635047 0
M  V30 36673 C 3668.41 2.01609 -0.140824 0
M  V30 36674 C 3668.74 1.50236 1.24315 0
M  V30 36675 O 3668.01 0.707552 1.82676 0
M  V30 36676 H 3666.59 0.745387 -0.0490699 0
M  V30 36677 H 3669.25 1.76688 -0.822631 0
M  V30 36678 H 3668.34 3.11901 -0.11151 0
M  V30 36679 N 3668.64 0.375833 1.53053 0
M  V30 36680 C 3669.87 -0.210792 2.05522 0
M  V30 36681 C 3670.28 -1.42168 1.24839 0
M  V30 36682 O 3669.63 -1.81481 0.284666 0
M  V30 36683 C 3669.69 -0.658485 3.53418 0
M  V30 36684 C 3669.35 0.437105 4.54905 0
M  V30 36685 C 3670.35 1.29025 5.03635 0
M  V30 36686 C 3668.03 0.600282 4.987 0
M  V30 36687 C 3670.03 2.29182 5.94773 0
M  V30 36688 C 3667.71 1.6052 5.89641 0
M  V30 36689 C 3668.71 2.4494 6.37568 0
M  V30 36690 O 3668.4 3.43716 7.26715 0
M  V30 36691 H 3668.13 -0.0386509 0.674894 0
M  V30 36692 H 3670.69 0.535569 1.98295 0
M  V30 36693 H 3668.92 -1.45661 3.58217 0
M  V30 36694 H 3670.61 -1.16926 3.88694 0
M  V30 36695 H 3671.37 1.17542 4.70541 0
M  V30 36696 H 3667.25 -0.0470536 4.60976 0
M  V30 36697 H 3670.79 2.9511 6.32104 0
M  V30 36698 H 3666.69 1.72046 6.2215 0
M  V30 36699 H 3667.46 3.39566 7.4474 0
M  V30 36700 N 3670.12 -1.57248 0.105276 0
M  V30 36701 C 3671.54 -1.57608 -0.251358 0
M  V30 36702 C 3671.74 -1.11712 -1.67698 0
M  V30 36703 O 3670.79 -0.798224 -2.39551 0
M  V30 36704 C 3672.11 -3.00685 -0.0305226 0
M  V30 36705 C 3673.66 -3.12848 -0.0974859 0
M  V30 36706 C 3674.13 -4.579 0.0954829 0
M  V30 36707 N 3675.62 -4.63182 0.0409894 0
M  V30 36708 C 3676.36 -5.73161 0.165399 0
M  V30 36709 N 3675.85 -6.91939 0.345213 0
M  V30 36710 N 3677.65 -5.62 0.105946 0
M  V30 36711 H 3669.8 -1.85387 1.03661 0
M  V30 36712 H 3672.06 -0.856144 0.407089 0
M  V30 36713 H 3671.77 -3.38499 0.95452 0
M  V30 36714 H 3671.64 -3.6929 -0.768412 0
M  V30 36715 H 3674.03 -2.749 -1.07304 0
M  V30 36716 H 3674.11 -2.46814 0.67206 0
M  V30 36717 H 3673.75 -4.96545 1.06795 0
M  V30 36718 H 3673.68 -5.22008 -0.693882 0
M  V30 36719 H 3676.17 -3.7778 -0.0950345 0
M  V30 36720 H 3676.49 -7.71595 0.431379 0
M  V30 36721 H 3674.83 -6.93955 0.381012 0
M  V30 36722 H 3678.02 -4.68088 -0.0334721 0
M  V30 36723 H 3678.19 -6.47671 0.206349 0
M  V30 36724 N 3671.6 0.168458 -1.56697 0
M  V30 36725 C 3672.85 0.885933 -1.82426 0
M  V30 36726 C 3673.18 1.81772 -0.683575 0
M  V30 36727 O 3672.45 1.91944 0.314286 0
M  V30 36728 C 3672.74 1.67912 -3.18556 0
M  V30 36729 C 3672.59 0.770265 -4.43156 0
M  V30 36730 C 3673.91 2.64621 -3.51659 0
M  V30 36731 H 3671.03 0.320632 -0.663599 0
M  V30 36732 H 3673.67 0.152017 -1.89391 0
M  V30 36733 H 3671.82 2.30479 -3.12749 0
M  V30 36734 H 3673.49 0.157247 -4.61032 0
M  V30 36735 H 3671.74 0.0784891 -4.33729 0
M  V30 36736 H 3672.41 1.36083 -5.34963 0
M  V30 36737 H 3674.88 2.12179 -3.57938 0
M  V30 36738 H 3673.76 3.17183 -4.4798 0
M  V30 36739 H 3674.02 3.44957 -2.76509 0
M  V30 36740 N 3673.08 1.51417 0.437109 0
M  V30 36741 C 3674.31 1.67905 1.20895 0
M  V30 36742 C 3674.72 0.376491 1.85008 0
M  V30 36743 O 3674.08 -0.645021 1.70721 0
M  V30 36744 C 3674.13 2.79486 2.29281 0
M  V30 36745 O 3673.85 4.04695 1.67791 0
M  V30 36746 C 3675.35 3.07244 3.19556 0
M  V30 36747 H 3672.57 0.563449 0.364371 0
M  V30 36748 H 3675.12 1.97833 0.517896 0
M  V30 36749 H 3673.27 2.52155 2.94103 0
M  V30 36750 H 3673.68 4.66665 2.39425 0
M  V30 36751 H 3675.16 3.889 3.91741 0
M  V30 36752 H 3675.64 2.19661 3.80323 0
M  V30 36753 H 3676.24 3.36234 2.60435 0
M  V30 36754 N 3674.56 -0.692567 1.41567 0
M  V30 36755 C 3675.79 -1.47915 1.44238 0
M  V30 36756 C 3676.19 -1.89142 0.0469444 0
M  V30 36757 O 3675.54 -1.57544 -0.94476 0
M  V30 36758 C 3675.6 -2.77076 2.29061 0
M  V30 36759 C 3675.26 -2.58035 3.77183 0
M  V30 36760 C 3676.26 -2.23786 4.69271 0
M  V30 36761 C 3673.95 -2.73582 4.21258 0
M  V30 36762 C 3675.94 -2.05328 6.03423 0
M  V30 36763 C 3673.63 -2.5474 5.55474 0
M  V30 36764 C 3674.62 -2.20663 6.46372 0
M  V30 36765 O 3674.31 -2.01988 7.78111 0
M  V30 36766 H 3674.04 -0.462261 0.493246 0
M  V30 36767 H 3676.6 -0.859951 1.86532 0
M  V30 36768 H 3674.83 -3.41414 1.81586 0
M  V30 36769 H 3676.52 -3.38893 2.23398 0
M  V30 36770 H 3677.28 -2.11387 4.3651 0
M  V30 36771 H 3673.16 -2.99088 3.50809 0
M  V30 36772 H 3676.71 -1.78653 6.74336 0
M  V30 36773 H 3672.6 -2.6673 5.87814 0
M  V30 36774 H 3673.37 -2.16727 7.89286 0
M  V30 36775 N 3676.03 -1.27445 -0.927123 0
M  V30 36776 C 3677.26 -1.16632 -1.70894 0
M  V30 36777 C 3677.68 0.276779 -1.8676 0
M  V30 36778 O 3677.03 1.18839 -1.38505 0
M  V30 36779 C 3677.09 -1.84578 -3.10826 0
M  V30 36780 O 3676.81 -3.2325 -2.95705 0
M  V30 36781 C 3678.31 -1.79898 -4.05156 0
M  V30 36782 H 3675.53 -0.405477 -0.53463 0
M  V30 36783 H 3678.07 -1.68327 -1.16131 0
M  V30 36784 H 3676.23 -1.36787 -3.62447 0
M  V30 36785 H 3676.64 -3.57086 -3.84174 0
M  V30 36786 H 3678.11 -2.32053 -5.00855 0
M  V30 36787 H 3678.59 -0.768449 -4.32425 0
M  V30 36788 H 3679.2 -2.27307 -3.5946 0
M  V30 36789 N 3677.51 1.1337 -1.09476 0
M  V30 36790 C 3678.92 1.66208 -0.850408 0
M  V30 36791 C 3679.27 1.86112 0.621039 0
M  V30 36792 O 3678.4 1.58031 1.47835 0
M  V30 36793 C 3678.99 3.01921 -1.53718 0
M  V30 36794 C 3677.55 3.51748 -1.33978 0
M  V30 36795 C 3676.7 2.26982 -1.59294 0
M  V30 36796 H 3679.65 0.972852 -1.25385 0
M  V30 36797 H 3679.67 3.67913 -0.970568 0
M  V30 36798 H 3679.18 2.87402 -2.60809 0
M  V30 36799 H 3677.29 3.71469 -0.290063 0
M  V30 36800 H 3677.4 4.31835 -2.07497 0
M  V30 36801 H 3675.76 2.33598 -1.01509 0
M  V30 36802 H 3676.55 2.15028 -2.67615 0
M  V30 36803 N 3678.99 0.882035 1.30606 0
M  V30 36804 C 3679.92 0.291262 2.26334 0
M  V30 36805 C 3680.9 -0.586495 1.51654 0
M  V30 36806 O 3682.09 -0.537243 1.80682 0
M  V30 36807 C 3679.21 -0.586423 3.33585 0
M  V30 36808 C 3678.26 0.22161 4.25924 0
M  V30 36809 S 3679.09 1.60799 5.10788 0
M  V30 36810 C 3680.25 0.736747 6.21549 0
M  V30 36811 H 3680.48 1.1027 2.76094 0
M  V30 36812 H 3678.01 0.68128 1.38557 0
M  V30 36813 H 3679.97 -1.08708 3.95844 0
M  V30 36814 H 3678.63 -1.37193 2.82554 0
M  V30 36815 H 3677.83 -0.44805 5.02004 0
M  V30 36816 H 3677.43 0.654787 3.68223 0
M  V30 36817 H 3679.72 -0.0475358 6.77483 0
M  V30 36818 H 3680.66 1.46906 6.92693 0
M  V30 36819 H 3681.07 0.298952 5.63708 0
M  V30 36820 N 3680.47 -1.439 0.642688 0
M  V30 36821 C 3681.43 -2.29154 -0.0457455 0
M  V30 36822 C 3682.43 -1.41654 -0.760963 0
M  V30 36823 O 3683.62 -1.63401 -0.603804 0
M  V30 36824 C 3680.75 -3.23491 -1.07546 0
M  V30 36825 H 3681.95 -2.91514 0.704244 0
M  V30 36826 H 3679.5 -1.51005 0.403387 0
M  V30 36827 H 3680.23 -2.66005 -1.85504 0
M  V30 36828 H 3680.02 -3.87988 -0.5664 0
M  V30 36829 H 3681.51 -3.87506 -1.55656 0
M  V30 36830 N 3681.95 -0.383945 -1.52852 0
M  V30 36831 C 3683.36 0.0912669 -1.86477 0
M  V30 36832 C 3683.71 1.46609 -1.30385 0
M  V30 36833 O 3682.83 2.06933 -0.633079 0
M  V30 36834 C 3683.43 0.172387 -3.38361 0
M  V30 36835 C 3681.99 0.591883 -3.71717 0
M  V30 36836 C 3681.14 -0.249499 -2.76175 0
M  V30 36837 H 3684.09 -0.602032 -1.46838 0
M  V30 36838 H 3684.11 0.992539 -3.67327 0
M  V30 36839 H 3683.62 -0.828366 -3.79157 0
M  V30 36840 H 3681.72 1.6002 -3.36488 0
M  V30 36841 H 3681.83 0.353751 -4.77792 0
M  V30 36842 H 3680.2 0.284424 -2.53107 0
M  V30 36843 H 3680.98 -1.24813 -3.19807 0
M  V30 36844 N 3683.43 1.5719 -0.113614 0
M  V30 36845 C 3684.67 1.94624 0.544608 0
M  V30 36846 C 3684.99 0.997457 1.67558 0
M  V30 36847 O 3684.26 0.0527865 1.95829 0
M  V30 36848 H 3682.84 0.718556 0.204173 0
M  V30 36849 H 3685.51 1.94055 -0.181292 0
M  V30 36850 H 3684.6 2.97522 0.942713 0
M  V30 36851 N 3684.9 -0.160146 1.56784 0
M  V30 36852 C 3686.13 -0.89425 1.87131 0
M  V30 36853 C 3686.55 -1.74542 0.701203 0
M  V30 36854 O 3685.91 -1.77899 -0.349511 0
M  V30 36855 C 3685.96 -1.73763 3.15973 0
M  V30 36856 O 3685.06 -2.84049 2.98982 0
M  V30 36857 H 3684.4 -0.249858 0.615197 0
M  V30 36858 H 3686.93 -0.15492 2.04013 0
M  V30 36859 H 3686.94 -2.13531 3.47661 0
M  V30 36860 H 3685.62 -1.11251 4.00744 0
M  V30 36861 H 3684.2 -2.47783 2.78672 0
M  V30 36862 N 3686.38 -1.51647 -0.429072 0
M  V30 36863 C 3687.61 -1.68299 -1.19829 0
M  V30 36864 C 3688.02 -0.383411 -1.85274 0
M  V30 36865 O 3687.36 0.648741 -1.71863 0
M  V30 36866 C 3687.42 -2.74791 -2.31798 0
M  V30 36867 C 3687.09 -4.17145 -1.86653 0
M  V30 36868 C 3688.09 -5.01651 -1.36535 0
M  V30 36869 C 3685.77 -4.63285 -1.94093 0
M  V30 36870 C 3687.76 -6.30363 -0.944544 0
M  V30 36871 C 3685.45 -5.91991 -1.51624 0
M  V30 36872 C 3686.45 -6.75358 -1.01887 0
M  V30 36873 O 3686.14 -8.01656 -0.600234 0
M  V30 36874 H 3685.87 -0.567759 -0.366914 0
M  V30 36875 H 3688.42 -1.98875 -0.513608 0
M  V30 36876 H 3686.65 -2.39547 -3.03569 0
M  V30 36877 H 3688.34 -2.80239 -2.93634 0
M  V30 36878 H 3689.11 -4.67204 -1.30175 0
M  V30 36879 H 3684.99 -3.98513 -2.31751 0
M  V30 36880 H 3688.53 -6.95384 -0.555641 0
M  V30 36881 H 3684.43 -6.25951 -1.57656 0
M  V30 36882 H 3685.2 -8.1528 -0.725341 0
M  V30 36883 N 3687.86 0.685049 -1.41932 0
M  V30 36884 C 3688.79 1.81105 -1.47389 0
M  V30 36885 C 3689.77 1.66839 -0.331462 0
M  V30 36886 O 3690.96 1.86414 -0.544364 0
M  V30 36887 C 3688.09 3.19325 -1.36561 0
M  V30 36888 C 3687.04 3.48311 -2.48724 0
M  V30 36889 C 3686.37 4.85998 -2.22958 0
M  V30 36890 C 3687.67 3.4623 -3.91053 0
M  V30 36891 H 3689.36 1.76796 -2.41627 0
M  V30 36892 H 3686.91 0.849158 -1.16298 0
M  V30 36893 H 3688.86 3.97819 -1.38988 0
M  V30 36894 H 3687.58 3.24286 -0.38812 0
M  V30 36895 H 3686.24 2.72172 -2.45597 0
M  V30 36896 H 3685.89 4.87596 -1.23527 0
M  V30 36897 H 3685.59 5.06355 -2.98124 0
M  V30 36898 H 3687.11 5.66789 -2.27118 0
M  V30 36899 H 3688.53 4.14711 -3.95838 0
M  V30 36900 H 3686.92 3.78121 -4.65987 0
M  V30 36901 H 3687.99 2.44999 -4.18454 0
M  V30 36902 N 3689.34 1.27935 0.920351 0
M  V30 36903 C 3690.59 1.14084 1.66336 0
M  V30 36904 C 3690.9 -0.31129 1.93107 0
M  V30 36905 O 3692.11 -0.570816 2.65432 0
M  V30 36906 C 3690.56 1.99388 2.9962 0
M  V30 36907 C 3690.17 3.49302 2.80521 0
M  V30 36908 C 3691.91 1.94206 3.77471 0
M  V30 36909 C 3689.82 4.2678 4.09405 0
M  V30 36910 H 3688.75 0.423357 0.623927 0
M  V30 36911 H 3691.4 1.52414 1.02187 0
M  V30 36912 H 3689.78 1.53908 3.64867 0
M  V30 36913 H 3690.96 4.02694 2.23995 0
M  V30 36914 H 3689.27 3.55941 2.16091 0
M  V30 36915 H 3691.87 2.49364 4.72992 0
M  V30 36916 H 3692.21 0.917321 4.06068 0
M  V30 36917 H 3692.75 2.3762 3.19032 0
M  V30 36918 H 3689.48 5.29808 3.85984 0
M  V30 36919 H 3689 3.78163 4.65567 0
M  V30 36920 H 3690.68 4.36348 4.77713 0
M  V30 36921 N 3690.82 -1.12788 1.10076 0
M  V30 36922 C 3692.04 -1.88586 0.863139 0
M  V30 36923 C 3692.47 -1.78916 -0.580564 0
M  V30 36924 O 3691.82 -1.14145 -1.40857 0
M  V30 36925 C 3691.87 -3.35906 1.31148 0
M  V30 36926 O 3690.98 -4.09665 0.47416 0
M  V30 36927 H 3690.32 -0.586109 0.312045 0
M  V30 36928 H 3692.85 -1.42659 1.46661 0
M  V30 36929 H 3692.86 -3.86742 1.2998 0
M  V30 36930 H 3691.53 -3.42261 2.36285 0
M  V30 36931 H 3690.11 -3.68811 0.55073 0
M  V30 36932 N 3692.29 -0.888949 -1.30136 0
M  V30 36933 C 3693.54 -0.505435 -1.95265 0
M  V30 36934 C 3693.86 0.950968 -1.70927 0
M  V30 36935 O 3695.06 1.44151 -2.30071 0
M  V30 36936 C 3693.52 -0.852998 -3.49645 0
M  V30 36937 C 3693.13 -2.32744 -3.82798 0
M  V30 36938 C 3694.87 -0.538875 -4.21066 0
M  V30 36939 C 3692.78 -2.61643 -5.30374 0
M  V30 36940 H 3691.71 -0.185291 -0.730878 0
M  V30 36941 H 3694.36 -1.08447 -1.48025 0
M  V30 36942 H 3692.74 -0.203007 -3.95479 0
M  V30 36943 H 3693.91 -3.02208 -3.4786 0
M  V30 36944 H 3692.23 -2.6095 -3.2449 0
M  V30 36945 H 3694.83 -0.731769 -5.29669 0
M  V30 36946 H 3695.17 0.521966 -4.13015 0
M  V30 36947 H 3695.7 -1.14623 -3.80928 0
M  V30 36948 H 3692.44 -3.66483 -5.4348 0
M  V30 36949 H 3691.96 -1.96792 -5.66598 0
M  V30 36950 H 3693.64 -2.4735 -5.97852 0
M  V30 36951 N 3693.77 1.43557 -0.65031 0
M  V30 36952 C 3694.72 2.3076 0.0430574 0
M  V30 36953 C 3695.69 1.44584 0.817604 0
M  V30 36954 O 3696.87 1.73458 0.794794 0
M  V30 36955 C 3694.01 3.30126 1.00551 0
M  V30 36956 C 3693.13 4.31401 0.227372 0
M  V30 36957 C 3692.26 5.17851 1.18336 0
M  V30 36958 C 3691.3 6.10821 0.395489 0
M  V30 36959 N 3690.44 6.89905 1.30292 0
M  V30 36960 H 3695.28 2.89505 -0.706452 0
M  V30 36961 H 3692.81 1.42623 -0.360143 0
M  V30 36962 H 3694.77 3.86243 1.5771 0
M  V30 36963 H 3693.4 2.73037 1.72193 0
M  V30 36964 H 3692.45 3.77603 -0.460458 0
M  V30 36965 H 3693.77 4.97309 -0.385403 0
M  V30 36966 H 3692.92 5.78579 1.82568 0
M  V30 36967 H 3691.66 4.52062 1.83005 0
M  V30 36968 H 3690.66 5.49184 -0.260196 0
M  V30 36969 H 3691.89 6.78652 -0.246752 0
M  V30 36970 H 3689.84 6.26767 1.93646 0
M  V30 36971 H 3689.75 7.52324 0.744636 0
M  V30 36972 H 3691.02 7.5514 1.93347 0
M  V30 36973 N 3695.25 0.392045 1.52646 0
M  V30 36974 C 3696.48 -0.188982 2.05734 0
M  V30 36975 C 3696.89 -1.40836 1.2634 0
M  V30 36976 O 3696.23 -1.81169 0.303898 0
M  V30 36977 C 3696.29 -0.620964 3.54096 0
M  V30 36978 C 3695.96 0.485329 4.54416 0
M  V30 36979 C 3696.95 1.34359 5.02239 0
M  V30 36980 C 3694.64 0.653142 4.98035 0
M  V30 36981 C 3696.63 2.35477 5.92308 0
M  V30 36982 C 3694.32 1.66765 5.87905 0
M  V30 36983 C 3695.32 2.51688 6.34935 0
M  V30 36984 O 3695.01 3.51405 7.23028 0
M  V30 36985 H 3694.74 -0.0314905 0.675266 0
M  V30 36986 H 3697.29 0.55657 1.97716 0
M  V30 36987 H 3695.52 -1.41854 3.59742 0
M  V30 36988 H 3697.21 -1.12797 3.89912 0
M  V30 36989 H 3697.98 1.22527 4.69268 0
M  V30 36990 H 3693.86 0.00184174 4.61 0
M  V30 36991 H 3697.4 3.01797 6.28939 0
M  V30 36992 H 3693.3 1.78635 6.2029 0
M  V30 36993 H 3694.06 3.47446 7.41096 0
M  V30 36994 N 3696.73 -1.57127 0.121948 0
M  V30 36995 C 3697.98 -1.9491 -0.534279 0
M  V30 36996 C 3698.3 -1.00633 -1.67027 0
M  V30 36997 O 3697.57 -0.063171 -1.95798 0
M  V30 36998 H 3696.15 -0.719628 -0.20036 0
M  V30 36999 H 3698.81 -1.93956 0.191581 0
M  V30 37000 H 3697.91 -2.98018 -0.926922 0
M  V30 37001 N 3698.21 0.151829 -1.56867 0
M  V30 37002 C 3699.45 0.863543 -1.82722 0
M  V30 37003 C 3699.78 1.81923 -0.702074 0
M  V30 37004 O 3699.05 1.93937 0.276646 0
M  V30 37005 H 3697.63 0.321881 -0.674093 0
M  V30 37006 H 3700.29 0.146986 -1.94345 0
M  V30 37007 H 3699.38 1.42871 -2.77479 0
M  V30 37008 N 3699.68 1.51872 0.421024 0
M  V30 37009 C 3701.1 1.57642 1.0003 0
M  V30 37010 C 3701.45 0.409698 1.91875 0
M  V30 37011 O 3700.57 -0.471478 2.11201 0
M  V30 37012 C 3701.17 2.85705 1.82094 0
M  V30 37013 C 3699.73 2.93992 2.35044 0
M  V30 37014 C 3698.87 2.52467 1.14698 0
M  V30 37015 H 3701.82 1.57413 0.201687 0
M  V30 37016 H 3701.84 2.70387 2.67715 0
M  V30 37017 H 3701.36 3.70602 1.15222 0
M  V30 37018 H 3699.46 2.13562 3.05323 0
M  V30 37019 H 3699.57 3.97989 2.66724 0
M  V30 37020 H 3697.93 2.0604 1.49732 0
M  V30 37021 H 3698.72 3.39726 0.494111 0
M  V30 37022 N 3701.16 -0.677513 1.42294 0
M  V30 37023 C 3702.39 -1.46377 1.45799 0
M  V30 37024 C 3702.8 -1.89081 0.0670028 0
M  V30 37025 O 3702.14 -1.58537 -0.927997 0
M  V30 37026 C 3702.21 -2.74631 2.31987 0
M  V30 37027 C 3701.87 -2.5402 3.79899 0
M  V30 37028 C 3702.87 -2.18797 4.71619 0
M  V30 37029 C 3700.55 -2.69099 4.24136 0
M  V30 37030 C 3702.55 -1.98916 6.05567 0
M  V30 37031 C 3700.23 -2.48834 5.58144 0
M  V30 37032 C 3701.23 -2.13795 6.48676 0
M  V30 37033 O 3700.92 -1.93724 7.80209 0
M  V30 37034 H 3700.65 -0.457003 0.498121 0
M  V30 37035 H 3703.2 -0.840118 1.87433 0
M  V30 37036 H 3701.43 -3.39468 1.85197 0
M  V30 37037 H 3703.12 -3.36504 2.26979 0
M  V30 37038 H 3703.89 -2.06745 4.38727 0
M  V30 37039 H 3699.77 -2.95351 3.53962 0
M  V30 37040 H 3703.31 -1.71491 6.76193 0
M  V30 37041 H 3699.21 -2.60481 5.9061 0
M  V30 37042 H 3699.98 -2.08344 7.9154 0
M  V30 37043 N 3702.64 -1.28421 -0.913554 0
M  V30 37044 C 3703.59 -1.09004 -2.00255 0
M  V30 37045 C 3704.57 -0.0136401 -1.60894 0
M  V30 37046 O 3705.77 -0.2338 -1.75449 0
M  V30 37047 C 3702.9 -0.754131 -3.34915 0
M  V30 37048 C 3701.98 -1.86939 -3.80677 0
M  V30 37049 N 3702.37 -3.11103 -3.98809 0
M  V30 37050 C 3700.67 -1.75928 -4.09836 0
M  V30 37051 C 3701.37 -3.83773 -4.37142 0
M  V30 37052 N 3700.35 -3.11623 -4.45412 0
M  V30 37053 H 3704.15 -2.03214 -2.12324 0
M  V30 37054 H 3701.66 -1.19343 -1.10141 0
M  V30 37055 H 3703.66 -0.596107 -4.12616 0
M  V30 37056 H 3702.32 0.180189 -3.242 0
M  V30 37057 H 3703.33 -3.46712 -3.84722 0
M  V30 37058 H 3700.01 -0.896751 -4.07756 0
M  V30 37059 H 3701.4 -4.90558 -4.59132 0
M  V30 37060 N 3704.12 1.12202 -1.10672 0
M  V30 37061 C 3705.37 1.83125 -0.845471 0
M  V30 37062 C 3705.68 1.85143 0.630989 0
M  V30 37063 O 3706.89 2.52085 1.00822 0
M  V30 37064 C 3705.34 3.28836 -1.46271 0
M  V30 37065 C 3704.95 3.35169 -2.97264 0
M  V30 37066 C 3706.69 4.04712 -1.28095 0
M  V30 37067 C 3704.6 4.75229 -3.5201 0
M  V30 37068 H 3703.53 0.686133 -0.312629 0
M  V30 37069 H 3706.18 1.26319 -1.33101 0
M  V30 37070 H 3704.56 3.85524 -0.904849 0
M  V30 37071 H 3705.74 2.88407 -3.59386 0
M  V30 37072 H 3704.05 2.72767 -3.14622 0
M  V30 37073 H 3706.65 5.08136 -1.66438 0
M  V30 37074 H 3706.99 4.15704 -0.222755 0
M  V30 37075 H 3707.53 3.54389 -1.80702 0
M  V30 37076 H 3704.27 4.69433 -4.57508 0
M  V30 37077 H 3703.79 5.22434 -2.94657 0
M  V30 37078 H 3705.46 5.44174 -3.49977 0
M  V30 37079 N 3705.6 0.895838 1.29663 0
M  V30 37080 C 3706.84 0.518759 1.95329 0
M  V30 37081 C 3707.17 -0.937292 1.70997 0
M  V30 37082 O 3706.44 -1.66041 1.03958 0
M  V30 37083 H 3705.02 0.188854 0.722733 0
M  V30 37084 H 3707.68 1.14129 1.57989 0
M  V30 37085 H 3706.77 0.69811 3.04192 0
M  V30 37086 N 3707.07 -1.43211 0.657914 0
M  V30 37087 C 3708.32 -2.01359 0.17288 0
M  V30 37088 C 3708.64 -1.52195 -1.21909 0
M  V30 37089 O 3707.91 -0.736524 -1.81527 0
M  V30 37090 H 3706.49 -0.744512 0.0609222 0
M  V30 37091 H 3709.16 -1.75357 0.850636 0
M  V30 37092 H 3708.25 -3.11684 0.161117 0
M  V30 37093 N 3708.55 -0.400135 -1.52436 0
M  V30 37094 C 3709.78 0.180825 -2.0661 0
M  V30 37095 C 3710.2 1.38843 -1.26903 0
M  V30 37096 O 3709.56 1.78853 -0.296894 0
M  V30 37097 C 3709.61 0.518532 -3.56852 0
M  V30 37098 O 3708.71 1.61089 -3.79637 0
M  V30 37099 H 3708.05 0.0181231 -0.663753 0
M  V30 37100 H 3710.58 -0.570736 -1.96478 0
M  V30 37101 H 3710.59 0.779746 -4.0048 0
M  V30 37102 H 3709.27 -0.364288 -4.14302 0
M  V30 37103 H 3707.85 1.34254 -3.47894 0
M  V30 37104 N 3710.03 1.57061 -0.13028 0
M  V30 37105 C 3711.44 1.82511 0.393285 0
M  V30 37106 C 3711.79 1.04809 1.6586 0
M  V30 37107 O 3710.92 0.288156 2.14473 0
M  V30 37108 C 3711.51 3.31054 0.720308 0
M  V30 37109 C 3710.07 3.57145 1.18846 0
M  V30 37110 C 3709.22 2.76557 0.202915 0
M  V30 37111 H 3712.17 1.54673 -0.355244 0
M  V30 37112 H 3712.19 3.46298 1.57664 0
M  V30 37113 H 3711.7 3.8758 -0.200787 0
M  V30 37114 H 3709.8 3.05989 2.12607 0
M  V30 37115 H 3709.92 4.6568 1.12599 0
M  V30 37116 H 3708.28 2.45113 0.692221 0
M  V30 37117 H 3709.06 3.35847 -0.711476 0
M  V30 37118 N 3711.51 -0.143508 1.56945 0
M  V30 37119 C 3712.76 -0.855531 1.8354 0
M  V30 37120 C 3713.08 -1.81011 0.711697 0
M  V30 37121 O 3712.34 -1.93402 -0.299005 0
M  V30 37122 C 3712.64 -1.66049 3.16485 0
M  V30 37123 C 3712.3 -0.852382 4.4277 0
M  V30 37124 C 3710.97 -0.629451 4.77065 0
M  V30 37125 C 3713.32 -0.287476 5.20407 0
M  V30 37126 C 3710.65 0.169037 5.86456 0
M  V30 37127 C 3713 0.49807 6.30636 0
M  V30 37128 C 3711.66 0.731546 6.63479 0
M  V30 37129 H 3710.93 -0.313061 0.67162 0
M  V30 37130 H 3713.58 -0.119007 1.9113 0
M  V30 37131 H 3711.88 -2.46722 3.04361 0
M  V30 37132 H 3713.58 -2.21494 3.34278 0
M  V30 37133 H 3710.17 -1.03621 4.15885 0
M  V30 37134 H 3714.36 -0.44698 4.94283 0
M  V30 37135 H 3709.61 0.35939 6.10343 0
M  V30 37136 H 3713.79 0.942914 6.89987 0
M  V30 37137 H 3711.41 1.35212 7.48079 0
M  V30 37138 N 3712.99 -1.52093 -0.412964 0
M  V30 37139 C 3713.93 -1.75161 -1.50291 0
M  V30 37140 C 3714.9 -0.593929 -1.55118 0
M  V30 37141 O 3716.09 -0.831062 -1.7175 0
M  V30 37142 C 3713.23 -1.90468 -2.87777 0
M  V30 37143 C 3712.34 -3.18106 -2.92289 0
M  V30 37144 C 3711.48 -3.23867 -4.21051 0
M  V30 37145 C 3710.52 -4.45721 -4.19522 0
M  V30 37146 N 3709.65 -4.48896 -5.39849 0
M  V30 37147 H 3714.49 -2.68187 -1.29922 0
M  V30 37148 H 3712.03 -1.32892 -0.630717 0
M  V30 37149 H 3713.99 -1.97327 -3.67584 0
M  V30 37150 H 3712.62 -1.00827 -3.06649 0
M  V30 37151 H 3711.67 -3.20438 -2.04997 0
M  V30 37152 H 3712.98 -4.07945 -2.87024 0
M  V30 37153 H 3712.14 -3.29776 -5.09247 0
M  V30 37154 H 3710.88 -2.3196 -4.29006 0
M  V30 37155 H 3709.88 -4.39963 -3.29716 0
M  V30 37156 H 3711.11 -5.38919 -4.1321 0
M  V30 37157 H 3709.05 -3.5987 -5.48479 0
M  V30 37158 H 3708.97 -5.32575 -5.36563 0
M  V30 37159 H 3710.24 -4.59029 -6.3001 0
M  V30 37160 N 3714.47 0.669957 -1.42651 0
M  V30 37161 C 3715.43 1.76518 -1.46199 0
M  V30 37162 C 3716.43 1.56969 -0.348911 0
M  V30 37163 O 3717.62 1.63172 -0.60995 0
M  V30 37164 C 3714.75 3.15208 -1.29835 0
M  V30 37165 H 3715.94 1.74758 -2.43721 0
M  V30 37166 H 3713.5 0.880047 -1.2917 0
M  V30 37167 H 3714.23 3.2259 -0.33255 0
M  V30 37168 H 3714.02 3.30801 -2.10507 0
M  V30 37169 H 3715.51 3.95105 -1.35211 0
M  V30 37170 N 3715.94 1.28904 0.90673 0
M  V30 37171 C 3716.89 1.13432 2.01002 0
M  V30 37172 C 3717.86 0.0295322 1.66074 0
M  V30 37173 O 3719.05 0.195761 1.89793 0
M  V30 37174 C 3716.19 0.809516 3.35471 0
M  V30 37175 C 3715.3 1.99405 3.83226 0
M  V30 37176 C 3714.43 1.60924 5.06238 0
M  V30 37177 C 3713.47 2.76 5.46343 0
M  V30 37178 N 3712.61 2.37964 6.60543 0
M  V30 37179 H 3717.45 2.07829 2.13568 0
M  V30 37180 H 3714.99 1.03429 1.04598 0
M  V30 37181 H 3716.94 0.601917 4.12835 0
M  V30 37182 H 3715.57 -0.0975329 3.22653 0
M  V30 37183 H 3714.63 2.31356 3.01958 0
M  V30 37184 H 3715.94 2.85657 4.08903 0
M  V30 37185 H 3715.09 1.36412 5.91166 0
M  V30 37186 H 3713.83 0.718106 4.82384 0
M  V30 37187 H 3712.84 3.01203 4.59953 0
M  V30 37188 H 3714.06 3.65767 5.72181 0
M  V30 37189 H 3712.01 1.51329 6.38307 0
M  V30 37190 H 3711.92 3.1775 6.85982 0
M  V30 37191 H 3713.19 2.16753 7.48758 0
M  V30 37192 N 3717.42 -1.11614 1.11266 0
M  V30 37193 C 3718.67 -1.83584 0.861671 0
M  V30 37194 C 3719 -1.84332 -0.611189 0
M  V30 37195 O 3718.28 -1.29508 -1.45114 0
M  V30 37196 C 3718.56 -3.3085 1.42163 0
M  V30 37197 C 3718.41 -3.38507 2.96198 0
M  V30 37198 C 3719.73 -4.26868 1.07106 0
M  V30 37199 H 3716.85 -0.666539 0.314475 0
M  V30 37200 H 3719.49 -1.30889 1.37724 0
M  V30 37201 H 3717.64 -3.75855 0.98312 0
M  V30 37202 H 3719.31 -3.02074 3.48639 0
M  V30 37203 H 3717.56 -2.78784 3.32358 0
M  V30 37204 H 3718.23 -4.42151 3.30465 0
M  V30 37205 H 3720.7 -3.90034 1.44959 0
M  V30 37206 H 3719.58 -5.28299 1.48966 0
M  V30 37207 H 3719.84 -4.42096 -0.0184043 0
M  V30 37208 N 3718.9 -0.902701 -1.29186 0
M  V30 37209 C 3720.13 -0.54567 -1.99575 0
M  V30 37210 C 3720.54 0.870343 -1.67542 0
M  V30 37211 O 3719.9 1.57491 -0.92211 0
M  V30 37212 C 3719.95 -0.731978 -3.54012 0
M  V30 37213 O 3719.67 -2.09226 -3.84911 0
M  V30 37214 C 3721.17 -0.380297 -4.41666 0
M  V30 37215 H 3718.39 -0.209094 -0.63759 0
M  V30 37216 H 3720.94 -1.21287 -1.6465 0
M  V30 37217 H 3719.09 -0.111917 -3.87238 0
M  V30 37218 H 3719.51 -2.12382 -4.79577 0
M  V30 37219 H 3720.98 -0.561479 -5.49137 0
M  V30 37220 H 3721.46 0.682839 -4.33859 0
M  V30 37221 H 3722.06 -0.977427 -4.13916 0
M  V30 37222 N 3720.38 1.4286 -0.6655 0
M  V30 37223 C 3721.63 2.01265 -0.183556 0
M  V30 37224 C 3721.95 1.52839 1.211 0
M  V30 37225 O 3721.22 0.746141 1.81134 0
M  V30 37226 H 3719.8 0.744178 -0.0648696 0
M  V30 37227 H 3722.46 1.74904 -0.859924 0
M  V30 37228 H 3721.55 3.11594 -0.177644 0
M  V30 37229 N 3721.86 0.408213 1.52221 0
M  V30 37230 C 3723.27 -0.0615885 1.86598 0
M  V30 37231 C 3723.62 -1.44516 1.32701 0
M  V30 37232 O 3722.74 -2.05899 0.66592 0
M  V30 37233 C 3723.34 -0.118535 3.38593 0
M  V30 37234 C 3721.9 -0.532671 3.72612 0
M  V30 37235 C 3721.04 0.293405 2.75743 0
M  V30 37236 H 3723.99 0.625317 1.45861 0
M  V30 37237 H 3724.02 -0.933974 3.68859 0
M  V30 37238 H 3723.53 0.888582 3.77791 0
M  V30 37239 H 3721.63 -1.54646 3.38992 0
M  V30 37240 H 3721.74 -0.277693 4.78295 0
M  V30 37241 H 3720.11 -0.244121 2.53527 0
M  V30 37242 H 3720.89 1.29885 3.17781 0
M  V30 37243 N 3723.33 -1.56989 0.138607 0
M  V30 37244 C 3724.75 -1.58106 -0.21787 0
M  V30 37245 C 3724.95 -1.15244 -1.65291 0
M  V30 37246 O 3724.01 -0.848856 -2.37804 0
M  V30 37247 C 3725.32 -3.00682 0.0332639 0
M  V30 37248 C 3726.87 -3.12985 -0.0311043 0
M  V30 37249 C 3727.34 -4.57595 0.192589 0
M  V30 37250 N 3728.83 -4.62991 0.139228 0
M  V30 37251 C 3729.57 -5.72682 0.286938 0
M  V30 37252 N 3729.06 -6.91051 0.491906 0
M  V30 37253 N 3730.86 -5.61649 0.22513 0
M  V30 37254 H 3723.01 -1.83146 1.0757 0
M  V30 37255 H 3725.27 -0.847316 0.425158 0
M  V30 37256 H 3724.98 -3.36398 1.02611 0
M  V30 37257 H 3724.85 -3.70837 -0.689907 0
M  V30 37258 H 3727.24 -2.77114 -1.01449 0
M  V30 37259 H 3727.32 -2.45333 0.724262 0
M  V30 37260 H 3726.96 -4.94168 1.17304 0
M  V30 37261 H 3726.89 -5.23363 -0.583 0
M  V30 37262 H 3729.38 -3.77897 -0.0148803 0
M  V30 37263 H 3729.7 -7.70506 0.594949 0
M  V30 37264 H 3728.04 -6.92991 0.528124 0
M  V30 37265 H 3731.23 -4.68054 0.0658238 0
M  V30 37266 H 3731.41 -6.47088 0.343683 0
M  V30 37267 N 3724.81 0.135183 -1.57019 0
M  V30 37268 C 3725.74 1.16807 -2.02184 0
M  V30 37269 C 3726.72 1.44126 -0.903425 0
M  V30 37270 O 3727.91 1.54844 -1.17205 0
M  V30 37271 C 3725.04 2.49834 -2.41247 0
M  V30 37272 C 3723.99 2.37012 -3.56384 0
M  V30 37273 C 3723.32 3.74856 -3.81296 0
M  V30 37274 C 3724.62 1.84424 -4.88657 0
M  V30 37275 H 3726.31 0.792479 -2.88722 0
M  V30 37276 H 3723.86 0.379763 -1.38902 0
M  V30 37277 H 3725.81 3.22328 -2.71446 0
M  V30 37278 H 3724.53 2.89252 -1.51661 0
M  V30 37279 H 3723.19 1.66969 -3.26369 0
M  V30 37280 H 3722.84 4.1173 -2.88941 0
M  V30 37281 H 3722.54 3.67135 -4.58787 0
M  V30 37282 H 3724.07 4.4888 -4.13931 0
M  V30 37283 H 3725.48 2.4672 -5.17496 0
M  V30 37284 H 3723.88 1.87564 -5.70035 0
M  V30 37285 H 3724.95 0.800675 -4.78244 0
M  V30 37286 N 3726.29 1.5231 0.404892 0
M  V30 37287 C 3727.54 1.66824 1.15316 0
M  V30 37288 C 3727.87 0.399075 1.90055 0
M  V30 37289 O 3727.14 -0.602646 1.84928 0
M  V30 37290 C 3727.43 2.89302 2.14421 0
M  V30 37291 C 3727.28 4.26278 1.4355 0
M  V30 37292 C 3728.6 3.07307 3.15041 0
M  V30 37293 H 3725.72 0.607094 0.417858 0
M  V30 37294 H 3728.36 1.84874 0.438382 0
M  V30 37295 H 3726.51 2.74044 2.75377 0
M  V30 37296 H 3728.18 4.53273 0.856819 0
M  V30 37297 H 3726.43 4.27486 0.73744 0
M  V30 37298 H 3727.1 5.08033 2.15886 0
M  V30 37299 H 3729.57 3.21491 2.64164 0
M  V30 37300 H 3728.45 3.9451 3.81645 0
M  V30 37301 H 3728.71 2.2081 3.83008 0
M  V30 37302 N 3727.77 -0.662382 1.43004 0
M  V30 37303 C 3728.99 -1.45531 1.47769 0
M  V30 37304 C 3729.42 -1.87865 0.0940628 0
M  V30 37305 O 3728.78 -1.56795 -0.910224 0
M  V30 37306 C 3728.82 -2.67256 2.42089 0
M  V30 37307 O 3727.93 -3.65982 1.90082 0
M  V30 37308 H 3727.27 -0.436716 0.500175 0
M  V30 37309 H 3729.8 -0.811366 1.87824 0
M  V30 37310 H 3729.81 -3.1518 2.59086 0
M  V30 37311 H 3728.48 -2.35784 3.42606 0
M  V30 37312 H 3727.06 -3.25077 1.82701 0
M  V30 37313 N 3729.25 -1.29383 -0.899882 0
M  V30 37314 C 3730.19 -1.14378 -2.02535 0
M  V30 37315 C 3731.19 -0.0594201 -1.69296 0
M  V30 37316 O 3732.39 -0.219206 -1.7866 0
M  V30 37317 H 3728.77 -0.353303 -0.663838 0
M  V30 37318 H 3730.74 -2.09664 -2.12329 0
M  V30 37319 C 3729.49 -0.836904 -3.37478 0
M  V30 37320 H 3728.81 -1.66332 -3.63557 0
M  V30 37321 H 3730.25 -0.771947 -4.16914 0
M  V30 37322 C 3728.71 0.45983 -3.33747 0
M  V30 37323 O 3729.24 1.48594 -3.73206 0
M  V30 37324 N 3727.45 0.465606 -2.86846 0
M  V30 37325 H 3726.99 -0.369878 -2.54931 0
M  V30 37326 H 3726.95 1.33322 -2.84732 0
M  V30 37327 N 3730.72 1.11022 -1.11856 0
M  V30 37328 C 3731.67 2.15315 -0.749896 0
M  V30 37329 C 3732.66 1.58975 0.248174 0
M  V30 37330 O 3733.85 1.76916 0.0546129 0
M  V30 37331 C 3730.98 3.4272 -0.199483 0
M  V30 37332 C 3730.07 4.06008 -1.22548 0
M  V30 37333 N 3730.46 4.4409 -2.42112 0
M  V30 37334 C 3728.75 4.32989 -1.06942 0
M  V30 37335 C 3729.46 4.9373 -3.0758 0
M  V30 37336 N 3728.43 4.90157 -2.35047 0
M  V30 37337 H 3732.23 2.42543 -1.65982 0
M  V30 37338 H 3729.75 1.28081 -0.998445 0
M  V30 37339 H 3731.74 4.16818 0.0827895 0
M  V30 37340 H 3730.4 3.16954 0.704978 0
M  V30 37341 H 3731.42 4.35981 -2.79537 0
M  V30 37342 H 3728.09 4.16911 -0.221756 0
M  V30 37343 H 3729.48 5.32791 -4.09369 0
M  V30 37344 N 3732.2 0.90954 1.28706 0
M  V30 37345 C 3733.43 0.555593 1.9982 0
M  V30 37346 C 3733.85 -0.854902 1.6755 0
M  V30 37347 O 3733.21 -1.57065 0.905549 0
M  V30 37348 C 3733.26 0.7665 3.52359 0
M  V30 37349 O 3732.36 -0.176467 4.12022 0
M  V30 37350 H 3731.7 0.215916 0.627914 0
M  V30 37351 H 3734.23 1.22382 1.63962 0
M  V30 37352 H 3734.24 0.674965 4.02378 0
M  V30 37353 H 3732.92 1.79477 3.75181 0
M  V30 37354 H 3731.5 -0.0365561 3.72882 0
M  V30 37355 N 3733.68 -1.42505 0.673067 0
M  V30 37356 C 3734.61 -2.33499 0.00759571 0
M  V30 37357 C 3735.59 -1.50582 -0.791134 0
M  V30 37358 O 3736.78 -1.7919 -0.748636 0
M  V30 37359 C 3733.91 -3.3418 -0.945579 0
M  V30 37360 C 3732.86 -4.27236 -0.255565 0
M  V30 37361 C 3732.19 -5.18111 -1.32156 0
M  V30 37362 C 3733.49 -5.15098 0.864345 0
M  V30 37363 H 3735.18 -2.89395 0.767538 0
M  V30 37364 H 3732.73 -1.39151 0.370548 0
M  V30 37365 H 3734.68 -3.96747 -1.42019 0
M  V30 37366 H 3733.4 -2.76584 -1.73692 0
M  V30 37367 H 3732.06 -3.66061 0.198794 0
M  V30 37368 H 3731.71 -4.56843 -2.10484 0
M  V30 37369 H 3731.41 -5.81198 -0.865006 0
M  V30 37370 H 3732.93 -5.83554 -1.79714 0
M  V30 37371 H 3734.35 -5.71362 0.471025 0
M  V30 37372 H 3732.75 -5.8701 1.24658 0
M  V30 37373 H 3733.82 -4.53602 1.71386 0
M  V30 37374 N 3735.16 -0.41628 -1.52003 0
M  V30 37375 C 3736.11 0.423186 -2.24038 0
M  V30 37376 C 3737.09 1.00758 -1.25446 0
M  V30 37377 O 3738.28 0.929213 -1.50647 0
M  V30 37378 C 3735.41 1.53542 -3.0705 0
M  V30 37379 C 3734.5 0.961445 -4.13058 0
M  V30 37380 N 3734.89 0.11476 -5.0567 0
M  V30 37381 C 3733.19 1.23122 -4.28669 0
M  V30 37382 C 3733.89 -0.205352 -5.81337 0
M  V30 37383 N 3732.87 0.405641 -5.42084 0
M  V30 37384 H 3736.67 -0.229916 -2.92999 0
M  V30 37385 H 3734.18 -0.227115 -1.60804 0
M  V30 37386 H 3736.18 2.14948 -3.57216 0
M  V30 37387 H 3734.84 2.19107 -2.39629 0
M  V30 37388 H 3735.85 -0.250097 -5.17296 0
M  V30 37389 H 3732.53 1.88592 -3.72477 0
M  V30 37390 H 3733.92 -0.893055 -6.65939 0
M  V30 37391 N 3736.64 1.56914 -0.146931 0
M  V30 37392 C 3737.55 2.20326 0.805836 0
M  V30 37393 C 3738.56 1.18753 1.27176 0
M  V30 37394 O 3739.74 1.51329 1.32896 0
M  V30 37395 C 3736.8 2.81235 2.0275 0
M  V30 37396 C 3735.86 3.97933 1.61082 0
M  V30 37397 C 3735.1 4.55929 2.77425 0
M  V30 37398 O 3735.32 4.12804 3.93636 0
M  V30 37399 O 3734.25 5.46191 2.52901 0
M  V30 37400 H 3738.08 3.02254 0.296045 0
M  V30 37401 H 3735.67 1.49185 0.0800913 0
M  V30 37402 H 3737.55 3.19949 2.74246 0
M  V30 37403 H 3736.22 2.0232 2.52682 0
M  V30 37404 H 3735.13 3.63936 0.866096 0
M  V30 37405 H 3736.46 4.78368 1.15866 0
M  V30 37406 N 3738.11 -0.126854 1.57089 0
M  V30 37407 C 3739.34 -0.850411 1.88615 0
M  V30 37408 C 3739.76 -1.73807 0.73734 0
M  V30 37409 O 3739.11 -1.80146 -0.292164 0
M  V30 37410 C 3739.17 -1.69039 3.19544 0
M  V30 37411 O 3738.89 -0.838479 4.30001 0
M  V30 37412 C 3740.39 -2.51978 3.64722 0
M  V30 37413 H 3737.61 -0.244881 0.624719 0
M  V30 37414 H 3740.15 -0.113599 2.04184 0
M  V30 37415 H 3738.31 -2.38004 3.05668 0
M  V30 37416 H 3738.72 -1.41708 5.04994 0
M  V30 37417 H 3740.19 -3.06459 4.59115 0
M  V30 37418 H 3740.67 -3.28969 2.90992 0
M  V30 37419 H 3741.28 -1.88269 3.81359 0
M  V30 37420 N 3739.59 -1.52523 -0.396809 0
M  V30 37421 C 3740.82 -1.71348 -1.16854 0
M  V30 37422 C 3741.24 -0.427497 -1.83178 0
M  V30 37423 O 3740.6 0.616093 -1.70511 0
M  V30 37424 C 3740.65 -2.85858 -2.19812 0
M  V30 37425 O 3739.75 -2.52287 -3.26229 0
M  V30 37426 H 3739.09 -0.570023 -0.340544 0
M  V30 37427 H 3741.62 -1.99281 -0.463497 0
M  V30 37428 H 3741.63 -3.11128 -2.63938 0
M  V30 37429 H 3740.31 -3.79154 -1.70924 0
M  V30 37430 H 3738.89 -2.37731 -2.87295 0
M  V30 37431 N 3741.07 0.654789 -1.43354 0
M  V30 37432 C 3742.3 1.44745 -1.48538 0
M  V30 37433 C 3742.72 1.87812 -0.104024 0
M  V30 37434 O 3742.08 1.57275 0.901896 0
M  V30 37435 C 3742.13 2.65968 -2.43502 0
M  V30 37436 O 3741.23 3.64969 -1.9202 0
M  V30 37437 H 3740.57 0.434058 -0.502484 0
M  V30 37438 H 3743.1 0.801393 -1.88252 0
M  V30 37439 H 3743.11 3.13802 -2.60754 0
M  V30 37440 H 3741.79 2.33964 -3.43851 0
M  V30 37441 H 3740.36 3.24103 -1.84422 0
M  V30 37442 N 3742.55 1.29858 0.893007 0
M  V30 37443 C 3743.8 1.18392 1.64654 0
M  V30 37444 C 3744.13 -0.262553 1.92417 0
M  V30 37445 O 3743.4 -1.18884 1.53938 0
M  V30 37446 C 3743.69 2.00461 2.99144 0
M  V30 37447 C 3743.54 3.53286 2.78405 0
M  V30 37448 C 3744.86 1.8362 3.99965 0
M  V30 37449 H 3741.98 0.431448 0.597513 0
M  V30 37450 H 3744.62 1.59404 1.03394 0
M  V30 37451 H 3742.77 1.65614 3.51432 0
M  V30 37452 H 3744.44 3.98151 2.32967 0
M  V30 37453 H 3742.68 3.77872 2.13061 0
M  V30 37454 H 3743.36 4.0599 3.74001 0
M  V30 37455 H 3745.83 2.1407 3.5681 0
M  V30 37456 H 3744.71 2.43382 4.91992 0
M  V30 37457 H 3744.97 0.793174 4.34927 0
M  V30 37458 N 3744.03 -1.10427 1.12443 0
M  V30 37459 C 3745.27 -1.8239 0.879791 0
M  V30 37460 C 3745.6 -1.85196 -0.59437 0
M  V30 37461 O 3744.86 -1.30833 -1.45538 0
M  V30 37462 C 3745.16 -3.28846 1.39982 0
M  V30 37463 C 3744.82 -3.46187 2.88903 0
M  V30 37464 C 3743.48 -3.50628 3.29566 0
M  V30 37465 C 3745.84 -3.51575 3.84766 0
M  V30 37466 C 3743.16 -3.58023 4.64797 0
M  V30 37467 C 3745.52 -3.60502 5.19828 0
M  V30 37468 C 3744.18 -3.63207 5.60033 0
M  V30 37469 H 3743.45 -0.667411 0.321938 0
M  V30 37470 H 3746.1 -1.30162 1.40463 0
M  V30 37471 H 3744.4 -3.8364 0.795442 0
M  V30 37472 H 3746.1 -3.83037 1.18674 0
M  V30 37473 H 3742.69 -3.43408 2.56454 0
M  V30 37474 H 3746.87 -3.47394 3.54445 0
M  V30 37475 H 3742.13 -3.58399 4.95338 0
M  V30 37476 H 3746.3 -3.63615 5.93934 0
M  V30 37477 H 3743.93 -3.6869 6.6481 0
M  V30 37478 N 3745.51 -0.916353 -1.28221 0
M  V30 37479 C 3746.75 -0.551673 -1.95152 0
M  V30 37480 C 3747.08 0.902799 -1.71939 0
M  V30 37481 O 3746.36 1.64242 -1.04187 0
M  V30 37482 C 3746.64 -0.864709 -3.49564 0
M  V30 37483 C 3746.5 -2.3721 -3.82167 0
M  V30 37484 C 3747.81 -0.36267 -4.38603 0
M  V30 37485 H 3744.93 -0.201903 -0.708805 0
M  V30 37486 H 3747.58 -1.14607 -1.51543 0
M  V30 37487 H 3745.73 -0.35885 -3.86839 0
M  V30 37488 H 3747.4 -2.94878 -3.54746 0
M  V30 37489 H 3745.64 -2.82601 -3.29119 0
M  V30 37490 H 3746.31 -2.54167 -4.90003 0
M  V30 37491 H 3748.79 -0.796054 -4.08414 0
M  V30 37492 H 3747.66 -0.610756 -5.45492 0
M  V30 37493 H 3747.92 0.73706 -4.35913 0
M  V30 37494 N 3746.98 1.42146 -0.680615 0
M  V30 37495 C 3748.26 1.95141 -0.133991 0
M  V30 37496 C 3748.64 1.62076 1.35257 0
M  V30 37497 O 3747.99 0.919935 2.09164 0
M  V30 37498 C 3748.2 3.46591 -0.409327 0
M  V30 37499 C 3749.55 4.23324 -0.328974 0
M  V30 37500 O 3750.57 3.54541 -0.343399 0
M  V30 37501 O 3749.43 5.45802 -0.276172 0
M  V30 37502 H 3746.52 0.826976 -0.00624896 0
M  V30 37503 H 3749.07 1.51943 -0.755745 0
M  V30 37504 H 3747.84 3.63884 -1.43889 0
M  V30 37505 H 3747.46 3.9685 0.244147 0
M  V30 37506 N 3748.46 0.424336 1.5178 0
M  V30 37507 C 3749.69 -0.147932 2.06872 0
M  V30 37508 C 3750.11 -1.36806 1.29096 0
M  V30 37509 O 3749.47 -1.78358 0.32531 0
M  V30 37510 C 3749.52 -0.461694 3.57632 0
M  V30 37511 O 3748.62 -1.55029 3.82152 0
M  V30 37512 H 3747.96 -0.00756108 0.663957 0
M  V30 37513 H 3750.49 0.601922 1.95546 0
M  V30 37514 H 3750.5 -0.715935 4.01669 0
M  V30 37515 H 3749.18 0.430154 4.1367 0
M  V30 37516 H 3747.75 -1.28703 3.49986 0
M  V30 37517 N 3749.94 -1.56833 0.15525 0
M  V30 37518 C 3750.87 -2.20185 -0.77722 0
M  V30 37519 C 3751.85 -1.15256 -1.251 0
M  V30 37520 O 3753.04 -1.43629 -1.30707 0
M  V30 37521 C 3750.17 -2.82996 -2.01321 0
M  V30 37522 C 3749.12 -3.93825 -1.6759 0
M  V30 37523 C 3748.45 -4.43609 -2.98521 0
M  V30 37524 C 3749.75 -5.14201 -0.916212 0
M  V30 37525 H 3751.44 -2.98361 -0.249205 0
M  V30 37526 H 3748.99 -1.43512 -0.118423 0
M  V30 37527 H 3750.94 -3.25985 -2.67043 0
M  V30 37528 H 3749.66 -2.02164 -2.56509 0
M  V30 37529 H 3748.32 -3.51467 -1.04244 0
M  V30 37530 H 3747.97 -3.59589 -3.51717 0
M  V30 37531 H 3747.67 -5.18367 -2.76711 0
M  V30 37532 H 3749.19 -4.89274 -3.65299 0
M  V30 37533 H 3750.61 -5.53983 -1.47568 0
M  V30 37534 H 3749 -5.94774 -0.797751 0
M  V30 37535 H 3750.07 -4.84816 0.0905203 0
M  V30 37536 N 3751.42 0.118521 -1.57154 0
M  V30 37537 C 3752.65 0.840396 -1.89063 0
M  V30 37538 C 3753.06 1.73413 -0.746547 0
M  V30 37539 O 3752.42 1.80299 0.282606 0
M  V30 37540 C 3752.47 1.67342 -3.20436 0
M  V30 37541 O 3752.19 0.815663 -4.3044 0
M  V30 37542 C 3753.69 2.50041 -3.66053 0
M  V30 37543 H 3750.91 0.241564 -0.626009 0
M  V30 37544 H 3753.45 0.102769 -2.04242 0
M  V30 37545 H 3751.61 2.3638 -3.06926 0
M  V30 37546 H 3752.02 1.39028 -5.05738 0
M  V30 37547 H 3753.5 3.0402 -4.60734 0
M  V30 37548 H 3753.97 3.27421 -2.92733 0
M  V30 37549 H 3754.58 1.86244 -3.82352 0
M  V30 37550 N 3752.9 1.52731 0.388715 0
M  V30 37551 C 3753.84 1.7753 1.47485 0
M  V30 37552 C 3754.81 0.618532 1.54154 0
M  V30 37553 O 3756 0.858281 1.70406 0
M  V30 37554 C 3753.14 1.95023 2.84711 0
M  V30 37555 C 3752.25 3.22715 2.87191 0
M  V30 37556 C 3751.39 3.30524 4.15845 0
M  V30 37557 C 3750.42 4.52339 4.12378 0
M  V30 37558 N 3749.56 4.57428 5.32639 0
M  V30 37559 H 3754.4 2.7022 1.25639 0
M  V30 37560 H 3751.94 1.33879 0.609495 0
M  V30 37561 H 3753.9 2.0315 3.64398 0
M  V30 37562 H 3752.53 1.05693 3.05006 0
M  V30 37563 H 3751.58 3.23659 1.99873 0
M  V30 37564 H 3752.89 4.12459 2.80497 0
M  V30 37565 H 3752.04 3.37836 5.03937 0
M  V30 37566 H 3750.78 2.38755 4.25261 0
M  V30 37567 H 3749.79 4.45153 3.22675 0
M  V30 37568 H 3751.01 5.45425 4.04584 0
M  V30 37569 H 3748.96 3.6855 5.42685 0
M  V30 37570 H 3748.88 5.41044 5.28022 0
M  V30 37571 H 3750.14 4.68994 6.22627 0
M  V30 37572 N 3754.37 -0.647178 1.43699 0
M  V30 37573 C 3755.34 -1.7417 1.48989 0
M  V30 37574 C 3756.34 -1.56394 0.373839 0
M  V30 37575 O 3757.53 -1.62181 0.635832 0
M  V30 37576 C 3754.66 -3.13102 1.34833 0
M  V30 37577 H 3755.85 -1.70858 2.4647 0
M  V30 37578 H 3753.4 -0.859386 1.30554 0
M  V30 37579 H 3754.14 -3.22021 0.383829 0
M  V30 37580 H 3753.92 -3.2741 2.15743 0
M  V30 37581 H 3755.41 -3.92903 1.4148 0
M  V30 37582 N 3755.85 -1.3033 -0.886108 0
M  V30 37583 C 3757.08 -1.22009 -1.67097 0
M  V30 37584 C 3757.5 0.217222 -1.87546 0
M  V30 37585 O 3756.85 1.14373 -1.42215 0
M  V30 37586 C 3756.9 -1.94374 -3.04797 0
M  V30 37587 O 3756.62 -3.32494 -2.85271 0
M  V30 37588 C 3758.13 -1.92697 -3.99228 0
M  V30 37589 H 3755.35 -0.42228 -0.52146 0
M  V30 37590 H 3757.89 -1.71936 -1.10717 0
M  V30 37591 H 3756.04 -1.48249 -3.57912 0
M  V30 37592 H 3756.46 -3.69127 -3.72619 0
M  V30 37593 H 3757.93 -2.4787 -4.93218 0
M  V30 37594 H 3758.41 -0.905633 -4.29761 0
M  V30 37595 H 3759.02 -2.38628 -3.52047 0
M  V30 37596 N 3757.33 1.0983 -1.13028 0
M  V30 37597 C 3758.57 1.83537 -0.899632 0
M  V30 37598 C 3758.93 1.83523 0.564194 0
M  V30 37599 O 3760.14 2.52847 0.912242 0
M  V30 37600 C 3758.41 3.25936 -1.46629 0
M  V30 37601 S 3759.97 4.16697 -1.3751 0
M  V30 37602 H 3756.78 0.632694 -0.324375 0
M  V30 37603 H 3759.39 1.32119 -1.441 0
M  V30 37604 H 3758.09 3.2352 -2.52513 0
M  V30 37605 H 3757.62 3.82427 -0.922686 0
M  V30 37606 H 3759.64 4.94959 -0.350753 0
M  V30 37607 N 3758.81 0.92314 1.27734 0
M  V30 37608 C 3759.77 0.423415 2.25255 0
M  V30 37609 C 3760.77 -0.45549 1.54214 0
M  V30 37610 O 3761.96 -0.257215 1.72291 0
M  V30 37611 C 3759.09 -0.391838 3.38641 0
M  V30 37612 H 3760.29 1.28499 2.70976 0
M  V30 37613 H 3757.84 0.703403 1.39578 0
M  V30 37614 H 3758.57 -1.27243 2.98295 0
M  V30 37615 H 3758.36 0.238262 3.91375 0
M  V30 37616 H 3759.85 -0.731997 4.11134 0
M  V30 37617 N 3760.29 -1.41783 0.688143 0
M  V30 37618 C 3761.7 -1.84408 0.291657 0
M  V30 37619 C 3762.05 -1.57589 -1.16877 0
M  V30 37620 O 3761.17 -1.04252 -1.89633 0
M  V30 37621 C 3761.77 -3.34746 0.52257 0
M  V30 37622 C 3760.33 -3.75969 0.180074 0
M  V30 37623 C 3759.47 -2.65252 0.808502 0
M  V30 37624 H 3762.43 -1.3144 0.889343 0
M  V30 37625 H 3762.45 -3.79857 -0.2211 0
M  V30 37626 H 3761.96 -3.54234 1.58556 0
M  V30 37627 H 3760.06 -3.62085 -0.878948 0
M  V30 37628 H 3760.17 -4.74941 0.62991 0
M  V30 37629 H 3758.54 -2.53579 0.238709 0
M  V30 37630 H 3759.32 -2.8756 1.87522 0
M  V30 37631 N 3761.76 -0.432379 -1.51553 0
M  V30 37632 C 3762.7 0.417288 -2.25369 0
M  V30 37633 C 3763.71 0.990528 -1.29199 0
M  V30 37634 O 3764.9 0.885512 -1.54987 0
M  V30 37635 C 3762 1.5952 -2.99009 0
M  V30 37636 C 3761.17 1.14172 -4.22236 0
M  V30 37637 C 3760.23 2.18919 -4.78498 0
M  V30 37638 O 3759.26 1.78556 -5.40469 0
M  V30 37639 N 3760.46 3.5135 -4.62097 0
M  V30 37640 H 3763.22 -0.215346 -2.98925 0
M  V30 37641 H 3760.78 -0.260998 -1.59782 0
M  V30 37642 H 3762.78 2.29206 -3.33536 0
M  V30 37643 H 3761.35 2.13328 -2.28495 0
M  V30 37644 H 3760.57 0.272113 -3.9326 0
M  V30 37645 H 3761.85 0.816056 -5.02213 0
M  V30 37646 H 3761.25 3.86878 -4.12725 0
M  V30 37647 H 3759.81 4.16945 -5.00999 0
M  V30 37648 N 3763.24 1.56749 -0.163565 0
M  V30 37649 C 3764.19 2.14175 0.781867 0
M  V30 37650 C 3765.18 1.07391 1.19816 0
M  V30 37651 O 3766.37 1.33532 1.16182 0
M  V30 37652 C 3763.5 2.77996 2.01428 0
M  V30 37653 C 3762.58 3.91926 1.62033 0
M  V30 37654 N 3762.97 4.97073 0.935511 0
M  V30 37655 C 3761.27 4.02942 1.9119 0
M  V30 37656 C 3761.97 5.76939 0.742705 0
M  V30 37657 N 3760.95 5.28273 1.28174 0
M  V30 37658 H 3764.75 2.92838 0.249596 0
M  V30 37659 H 3762.27 1.62357 0.0373939 0
M  V30 37660 H 3764.26 3.17508 2.70174 0
M  V30 37661 H 3762.92 2.00811 2.55157 0
M  V30 37662 H 3763.93 5.14478 0.594416 0
M  V30 37663 H 3760.61 3.36852 2.46652 0
M  V30 37664 H 3762 6.71597 0.201727 0
M  V30 37665 N 3764.72 -0.110185 1.57214 0
M  V30 37666 C 3765.97 -0.814794 1.84947 0
M  V30 37667 C 3766.29 -1.79997 0.750061 0
M  V30 37668 O 3765.56 -1.94602 -0.22513 0
M  V30 37669 H 3764.14 -0.303895 0.68239 0
M  V30 37670 H 3766.8 -0.0954073 1.94666 0
M  V30 37671 H 3765.9 -1.35464 2.81169 0
M  V30 37672 N 3766.2 -1.52935 -0.38061 0
M  V30 37673 C 3767.16 -1.77654 -1.44816 0
M  V30 37674 C 3768.16 -0.646683 -1.47223 0
M  V30 37675 O 3769.35 -0.914796 -1.48247 0
M  V30 37676 C 3766.48 -1.88495 -2.84046 0
M  V30 37677 H 3767.68 -2.72983 -1.24178 0
M  V30 37678 H 3765.23 -1.43784 -0.612855 0
M  V30 37679 H 3765.96 -0.951805 -3.10018 0
M  V30 37680 H 3765.75 -2.7066 -2.837 0
M  V30 37681 H 3767.24 -2.09264 -3.61384 0
M  V30 37682 N 3767.68 0.639548 -1.4404 0
M  V30 37683 C 3769.09 1.22102 -1.41238 0
M  V30 37684 C 3769.44 1.95812 -0.123402 0
M  V30 37685 O 3768.56 2.01985 0.776606 0
M  V30 37686 C 3769.16 2.22087 -2.55857 0
M  V30 37687 C 3767.72 2.7568 -2.56276 0
M  V30 37688 C 3766.86 1.5054 -2.3288 0
M  V30 37689 H 3769.82 0.430729 -1.52743 0
M  V30 37690 H 3769.84 3.04529 -2.28128 0
M  V30 37691 H 3769.35 1.68411 -3.49656 0
M  V30 37692 H 3767.45 3.33382 -1.66395 0
M  V30 37693 H 3767.56 3.22293 -3.54491 0
M  V30 37694 H 3765.93 1.78374 -1.8181 0
M  V30 37695 H 3766.71 0.987787 -3.28782 0
M  V30 37696 N 3769.15 1.30798 0.879184 0
M  V30 37697 C 3770.4 1.19717 1.62826 0
M  V30 37698 C 3770.72 -0.246997 1.93429 0
M  V30 37699 O 3769.99 -1.1652 1.5748 0
M  V30 37700 H 3768.57 0.440087 0.603599 0
M  V30 37701 H 3771.24 1.64002 1.05306 0
M  V30 37702 H 3770.33 1.76223 2.57588 0
M  V30 37703 N 3770.63 -1.09229 1.13608 0
M  V30 37704 C 3772.04 -1.62937 0.911509 0
M  V30 37705 C 3772.4 -1.88288 -0.551537 0
M  V30 37706 O 3771.52 -1.63409 -1.41867 0
M  V30 37707 C 3772.12 -2.96008 1.64818 0
M  V30 37708 C 3770.67 -3.46533 1.46941 0
M  V30 37709 C 3769.82 -2.20913 1.67608 0
M  V30 37710 H 3772.77 -0.925646 1.28909 0
M  V30 37711 H 3772.79 -3.64058 1.10645 0
M  V30 37712 H 3772.31 -2.77525 2.71296 0
M  V30 37713 H 3770.41 -3.70137 0.427732 0
M  V30 37714 H 3770.52 -4.23837 2.23382 0
M  V30 37715 H 3768.88 -2.2967 1.10109 0
M  V30 37716 H 3769.67 -2.04947 2.75412 0
M  V30 37717 N 3772.11 -0.929901 -1.27242 0
M  V30 37718 C 3773.36 -0.570365 -1.93885 0
M  V30 37719 C 3773.68 0.891625 -1.73422 0
M  V30 37720 O 3772.95 1.63226 -1.08323 0
M  V30 37721 H 3771.53 -0.207949 -0.717472 0
M  V30 37722 H 3774.19 -1.18277 -1.54908 0
M  V30 37723 H 3773.29 -0.778516 -3.02234 0
M  V30 37724 N 3773.59 1.41416 -0.695653 0
M  V30 37725 C 3775 1.84251 -0.301433 0
M  V30 37726 C 3775.35 1.58206 1.1604 0
M  V30 37727 O 3774.48 1.05256 1.89077 0
M  V30 37728 C 3775.07 3.34464 -0.540315 0
M  V30 37729 C 3773.63 3.75868 -0.20001 0
M  V30 37730 C 3772.78 2.64819 -0.822557 0
M  V30 37731 H 3775.73 1.30966 -0.896301 0
M  V30 37732 H 3775.75 3.79969 0.200952 0
M  V30 37733 H 3775.26 3.53388 -1.60433 0
M  V30 37734 H 3773.36 3.62546 0.859734 0
M  V30 37735 H 3773.48 4.746 -0.655088 0
M  V30 37736 H 3771.84 2.53449 -0.252154 0
M  V30 37737 H 3772.62 2.86561 -1.89044 0
M  V30 37738 N 3775.07 0.44041 1.51321 0
M  V30 37739 C 3776.03 -0.357871 2.26389 0
M  V30 37740 C 3777.03 -0.94706 1.29952 0
M  V30 37741 O 3778.22 -0.82103 1.53638 0
M  V30 37742 C 3775.35 -1.50664 3.05799 0
M  V30 37743 H 3776.55 0.300054 2.98395 0
M  V30 37744 H 3774.1 0.193656 1.55096 0
M  V30 37745 H 3774.83 -2.20052 2.38217 0
M  V30 37746 H 3774.62 -1.0903 3.76636 0
M  V30 37747 H 3776.11 -2.07055 3.62654 0
M  V30 37748 N 3776.55 -1.5666 0.171876 0
M  V30 37749 C 3777.82 -1.8858 -0.519322 0
M  V30 37750 C 3778.2 -1.08185 -1.81271 0
M  V30 37751 O 3777.55 -0.175935 -2.27822 0
M  V30 37752 C 3777.76 -3.40609 -0.760683 0
M  V30 37753 C 3779.11 -4.10359 -1.09043 0
M  V30 37754 O 3780.13 -3.45929 -0.849203 0
M  V30 37755 O 3778.99 -5.24189 -1.54557 0
M  V30 37756 H 3776.09 -0.782451 -0.267768 0
M  V30 37757 H 3778.63 -1.68391 0.210353 0
M  V30 37758 H 3777.4 -3.90998 0.153645 0
M  V30 37759 H 3777.03 -3.66411 -1.54366 0
M  V30 37760 N 3778.02 0.101846 -1.57271 0
M  V30 37761 C 3778.99 1.10822 -2.00627 0
M  V30 37762 C 3779.99 1.33335 -0.898804 0
M  V30 37763 O 3781.18 1.29562 -1.16445 0
M  V30 37764 C 3778.31 2.45889 -2.36117 0
M  V30 37765 H 3779.5 0.735187 -2.90749 0
M  V30 37766 H 3777.05 0.346686 -1.52407 0
M  V30 37767 H 3777.79 2.88081 -1.48928 0
M  V30 37768 H 3777.57 2.30899 -3.16904 0
M  V30 37769 H 3779.06 3.18285 -2.70342 0
M  V30 37770 N 3779.5 1.53135 0.372494 0
M  V30 37771 C 3780.73 1.73185 1.14113 0
M  V30 37772 C 3781.15 0.456585 1.82474 0
M  V30 37773 O 3780.51 -0.588889 1.7147 0
M  V30 37774 C 3780.56 2.89319 2.15236 0
M  V30 37775 O 3779.66 2.57445 3.22174 0
M  V30 37776 H 3779 0.575368 0.331432 0
M  V30 37777 H 3781.53 1.99993 0.431734 0
M  V30 37778 H 3781.54 3.15288 2.58955 0
M  V30 37779 H 3780.22 3.81825 1.6487 0
M  V30 37780 H 3778.79 2.42272 2.83476 0
M  V30 37781 N 3780.98 -0.6319 1.44377 0
M  V30 37782 C 3781.93 -1.7439 1.51184 0
M  V30 37783 C 3782.9 -1.6216 0.359627 0
M  V30 37784 O 3784.08 -1.82095 0.569757 0
M  V30 37785 C 3781.22 -3.12634 1.4613 0
M  V30 37786 C 3780.33 -3.35846 2.71719 0
M  V30 37787 C 3779.47 -4.64057 2.58504 0
M  V30 37788 C 3778.51 -4.80445 3.79261 0
M  V30 37789 N 3777.65 -5.99933 3.64726 0
M  V30 37790 H 3782.49 -1.67908 2.46193 0
M  V30 37791 H 3780.02 -0.819086 1.22186 0
M  V30 37792 H 3781.98 -3.92583 1.4119 0
M  V30 37793 H 3780.61 -3.18134 0.546887 0
M  V30 37794 H 3779.66 -2.49843 2.86849 0
M  V30 37795 H 3780.97 -3.43835 3.61357 0
M  V30 37796 H 3780.13 -5.52165 2.51393 0
M  V30 37797 H 3778.87 -4.58426 1.66425 0
M  V30 37798 H 3777.87 -3.90767 3.86757 0
M  V30 37799 H 3779.1 -4.87892 4.72375 0
M  V30 37800 H 3777.04 -5.95392 2.75398 0
M  V30 37801 H 3776.96 -6.08975 4.4798 0
M  V30 37802 H 3778.23 -6.90604 3.61505 0
M  V30 37803 N 3782.46 -1.31262 -0.872235 0
M  V30 37804 C 3783.7 -1.20997 -1.6275 0
M  V30 37805 C 3784.04 0.231908 -1.9281 0
M  V30 37806 O 3783.31 1.1642 -1.5581 0
M  V30 37807 C 3783.59 -2.05195 -2.95917 0
M  V30 37808 C 3783.45 -3.5767 -2.72749 0
M  V30 37809 C 3784.77 -1.8996 -3.96993 0
M  V30 37810 H 3781.89 -0.440899 -0.590573 0
M  V30 37811 H 3784.53 -1.61029 -1.00845 0
M  V30 37812 H 3782.68 -1.71184 -3.48753 0
M  V30 37813 H 3784.35 -4.01807 -2.26604 0
M  V30 37814 H 3782.59 -3.81214 -2.07022 0
M  V30 37815 H 3783.26 -4.11888 -3.67494 0
M  V30 37816 H 3785.74 -2.1972 -3.53359 0
M  V30 37817 H 3784.62 -2.51178 -4.88058 0
M  V30 37818 H 3784.88 -0.862267 -4.3361 0
M  V30 37819 N 3783.94 1.08625 -1.14186 0
M  V30 37820 C 3785.18 1.81235 -0.910042 0
M  V30 37821 C 3785.51 1.85887 0.562101 0
M  V30 37822 O 3784.79 1.3331 1.41629 0
M  V30 37823 C 3785.07 3.26964 -1.50885 0
M  V30 37824 C 3784.93 3.30535 -3.05069 0
M  V30 37825 C 3786.24 4.23878 -1.18386 0
M  V30 37826 H 3783.36 0.657967 -0.332037 0
M  V30 37827 H 3786.01 1.27192 -1.41146 0
M  V30 37828 H 3784.16 3.73116 -1.08243 0
M  V30 37829 H 3785.83 2.92724 -3.56525 0
M  V30 37830 H 3784.07 2.69874 -3.39633 0
M  V30 37831 H 3784.74 4.33233 -3.42071 0
M  V30 37832 H 3787.22 3.86053 -1.55249 0
M  V30 37833 H 3786.09 5.24164 -1.62921 0
M  V30 37834 H 3786.35 4.4199 -0.0988162 0
M  V30 37835 N 3785.41 0.936635 1.26747 0
M  V30 37836 C 3786.38 0.447282 2.24793 0
M  V30 37837 C 3787.38 -0.439108 1.54688 0
M  V30 37838 O 3788.57 -0.238927 1.72554 0
M  V30 37839 C 3785.7 -0.355899 3.39037 0
M  V30 37840 H 3786.89 1.31366 2.69598 0
M  V30 37841 H 3784.45 0.718167 1.38824 0
M  V30 37842 H 3785.18 -1.24072 2.99628 0
M  V30 37843 H 3784.97 0.27976 3.91101 0
M  V30 37844 H 3786.46 -0.688349 4.11888 0
M  V30 37845 N 3786.89 -1.41045 0.703143 0
M  V30 37846 C 3787.84 -2.30761 0.0426172 0
M  V30 37847 C 3788.81 -1.47519 -0.76338 0
M  V30 37848 O 3789.99 -1.76288 -0.729869 0
M  V30 37849 C 3787.13 -3.33631 -0.882295 0
M  V30 37850 C 3786.25 -4.31948 -0.0671039 0
M  V30 37851 C 3785.38 -5.21886 -0.990351 0
M  V30 37852 C 3784.42 -6.11868 -0.168514 0
M  V30 37853 N 3783.56 -6.94265 -1.04597 0
M  V30 37854 H 3788.4 -2.86684 0.813414 0
M  V30 37855 H 3785.94 -1.41188 0.412829 0
M  V30 37856 H 3787.89 -3.9183 -1.43266 0
M  V30 37857 H 3786.52 -2.7924 -1.61941 0
M  V30 37858 H 3785.58 -3.75634 0.600285 0
M  V30 37859 H 3786.89 -4.95536 0.569711 0
M  V30 37860 H 3786.04 -5.84956 -1.60969 0
M  V30 37861 H 3784.78 -4.58543 -1.66101 0
M  V30 37862 H 3783.79 -5.4784 0.463842 0
M  V30 37863 H 3785.01 -6.77268 0.498459 0
M  V30 37864 H 3782.96 -6.33522 -1.70251 0
M  V30 37865 H 3782.87 -7.54569 -0.464903 0
M  V30 37866 H 3784.14 -7.61796 -1.65188 0
M  V30 37867 N 3788.37 -0.448429 -1.51086 0
M  V30 37868 C 3789.62 0.114081 -2.01778 0
M  V30 37869 C 3789.94 1.42237 -1.33392 0
M  V30 37870 O 3789.21 1.9013 -0.471972 0
M  V30 37871 H 3787.79 0.0451492 -0.745634 0
M  V30 37872 H 3790.45 -0.593673 -1.85638 0
M  V30 37873 H 3789.55 0.281996 -3.10823 0
M  V30 37874 N 3789.85 1.56567 -0.180181 0
M  V30 37875 C 3790.78 2.21394 0.742092 0
M  V30 37876 C 3791.76 1.17232 1.23251 0
M  V30 37877 O 3792.94 1.4569 1.28406 0
M  V30 37878 C 3790.07 2.86163 1.96794 0
M  V30 37879 C 3789.03 3.96441 1.61303 0
M  V30 37880 C 3788.35 4.48302 2.91426 0
M  V30 37881 C 3789.65 5.15594 0.834291 0
M  V30 37882 H 3791.35 2.9872 0.201706 0
M  V30 37883 H 3788.89 1.43682 0.0955763 0
M  V30 37884 H 3790.85 3.30192 2.61823 0
M  V30 37885 H 3789.57 2.0622 2.53261 0
M  V30 37886 H 3788.23 3.53081 0.986389 0
M  V30 37887 H 3787.88 3.65139 3.45951 0
M  V30 37888 H 3787.58 5.22704 2.6843 0
M  V30 37889 H 3789.1 4.95024 3.57469 0
M  V30 37890 H 3790.52 5.5626 1.38736 0
M  V30 37891 H 3788.91 5.95968 0.703027 0
M  V30 37892 H 3789.98 4.8461 -0.167639 0
M  V30 37893 N 3791.33 -0.0935042 1.57322 0
M  V30 37894 C 3792.57 -0.795132 1.85801 0
M  V30 37895 C 3792.9 -1.79192 0.76911 0
M  V30 37896 O 3792.17 -1.9483 -0.204477 0
M  V30 37897 H 3790.75 -0.296641 0.685575 0
M  V30 37898 H 3793.41 -0.074755 1.94757 0
M  V30 37899 H 3792.5 -1.32474 2.8259 0
M  V30 37900 N 3792.8 -1.5333 -0.364368 0
M  V30 37901 C 3793.73 -1.82832 -1.4524 0
M  V30 37902 C 3794.72 -0.681913 -1.55833 0
M  V30 37903 O 3795.9 -0.931875 -1.70381 0
M  V30 37904 C 3793.03 -2.01931 -2.82562 0
M  V30 37905 C 3791.98 -3.17702 -2.86792 0
M  V30 37906 C 3791.31 -3.22096 -4.268 0
M  V30 37907 C 3792.61 -4.56265 -2.54204 0
M  V30 37908 H 3794.3 -2.73949 -1.208 0
M  V30 37909 H 3791.85 -1.31817 -0.579682 0
M  V30 37910 H 3793.8 -2.21153 -3.58705 0
M  V30 37911 H 3792.53 -1.07526 -3.08392 0
M  V30 37912 H 3791.19 -2.98302 -2.131 0
M  V30 37913 H 3790.83 -2.25326 -4.49708 0
M  V30 37914 H 3790.53 -3.9988 -4.30546 0
M  V30 37915 H 3792.06 -3.43504 -5.04815 0
M  V30 37916 H 3793.47 -4.75641 -3.20061 0
M  V30 37917 H 3791.87 -5.36299 -2.69264 0
M  V30 37918 H 3792.94 -4.61295 -1.4945 0
M  V30 37919 N 3794.28 0.624234 -1.4471 0
M  V30 37920 C 3795.51 1.41562 -1.51575 0
M  V30 37921 C 3795.93 1.87549 -0.143839 0
M  V30 37922 O 3795.29 1.59153 0.868333 0
M  V30 37923 C 3795.34 2.60743 -2.49089 0
M  V30 37924 O 3794.44 3.60813 -1.99719 0
M  V30 37925 H 3793.78 0.423302 -0.511578 0
M  V30 37926 H 3796.31 0.761282 -1.8991 0
M  V30 37927 H 3796.32 3.082 -2.67351 0
M  V30 37928 H 3795 2.26618 -3.48737 0
M  V30 37929 H 3793.58 3.20118 -1.91255 0
M  V30 37930 N 3795.76 1.31723 0.865262 0
M  V30 37931 C 3796.71 1.19769 1.97292 0
M  V30 37932 C 3797.68 0.0823524 1.65896 0
M  V30 37933 O 3798.86 0.256043 1.89074 0
M  V30 37934 C 3796 0.915834 3.32726 0
M  V30 37935 C 3795.12 2.11496 3.76688 0
M  V30 37936 C 3794.25 1.76948 5.00862 0
M  V30 37937 C 3793.29 2.93242 5.37286 0
M  V30 37938 N 3792.43 2.58858 6.52638 0
M  V30 37939 H 3797.27 2.14518 2.06848 0
M  V30 37940 H 3794.8 1.06705 1.01255 0
M  V30 37941 H 3796.76 0.732953 4.10711 0
M  V30 37942 H 3795.39 0.00516591 3.228 0
M  V30 37943 H 3794.44 2.40846 2.94444 0
M  V30 37944 H 3795.76 2.98521 3.99608 0
M  V30 37945 H 3794.91 1.5515 5.86527 0
M  V30 37946 H 3793.65 0.87121 4.79855 0
M  V30 37947 H 3792.65 3.15683 4.50138 0
M  V30 37948 H 3793.88 3.83785 5.60255 0
M  V30 37949 H 3791.82 1.71559 6.33169 0
M  V30 37950 H 3791.74 3.39413 6.75525 0
M  V30 37951 H 3793.01 2.40464 7.41483 0
M  V30 37952 N 3797.24 -1.08018 1.14761 0
M  V30 37953 C 3798.2 -2.13217 0.840897 0
M  V30 37954 C 3799.2 -1.60039 -0.156281 0
M  V30 37955 O 3800.39 -1.74049 0.0725449 0
M  V30 37956 C 3797.52 -3.3995 0.254268 0
M  V30 37957 H 3798.72 -2.41857 1.77328 0
M  V30 37958 H 3796.27 -1.23795 0.954168 0
M  V30 37959 H 3797 -3.16948 -0.686636 0
M  V30 37960 H 3796.79 -3.79847 0.972565 0
M  V30 37961 H 3798.28 -4.17561 0.0570285 0
M  V30 37962 N 3798.72 -0.943344 -1.26249 0
M  V30 37963 C 3799.95 -0.608004 -1.97451 0
M  V30 37964 C 3800.35 0.82174 -1.70423 0
M  V30 37965 O 3799.7 1.5598 -0.97035 0
M  V30 37966 C 3799.76 -0.772999 -3.51091 0
M  V30 37967 C 3799.42 -2.17778 -4.01773 0
M  V30 37968 C 3800.42 -3.15345 -4.13344 0
M  V30 37969 C 3798.11 -2.49894 -4.35728 0
M  V30 37970 C 3800.1 -4.43127 -4.58167 0
M  V30 37971 C 3797.79 -3.77908 -4.80238 0
M  V30 37972 C 3798.78 -4.74338 -4.91419 0
M  V30 37973 O 3798.47 -6.00072 -5.34947 0
M  V30 37974 H 3798.2 -0.227802 -0.636461 0
M  V30 37975 H 3800.76 -1.26698 -1.61669 0
M  V30 37976 H 3798.99 -0.0568931 -3.86658 0
M  V30 37977 H 3800.68 -0.440397 -4.03504 0
M  V30 37978 H 3801.44 -2.91858 -3.87355 0
M  V30 37979 H 3797.32 -1.75571 -4.26258 0
M  V30 37980 H 3800.87 -5.18397 -4.66809 0
M  V30 37981 H 3796.76 -4.01207 -5.05671 0
M  V30 37982 H 3797.53 -6.03285 -5.53163 0
M  V30 37983 N 3800.2 1.4067 -0.710613 0
M  V30 37984 C 3801.44 2.01274 -0.248351 0
M  V30 37985 C 3801.77 1.56203 1.15387 0
M  V30 37986 O 3801.05 0.779869 1.7818 0
M  V30 37987 C 3801.33 3.5865 -0.322825 0
M  V30 37988 C 3801.19 4.13807 -1.76307 0
M  V30 37989 C 3802.5 4.39015 0.308831 0
M  V30 37990 H 3799.62 0.731271 -0.0917166 0
M  V30 37991 H 3802.27 1.67215 -0.902174 0
M  V30 37992 H 3800.42 3.87796 0.233855 0
M  V30 37993 H 3802.09 3.95478 -2.37475 0
M  V30 37994 H 3800.33 3.68282 -2.2924 0
M  V30 37995 H 3801 5.22967 -1.76661 0
M  V30 37996 H 3803.48 4.15771 -0.165437 0
M  V30 37997 H 3802.35 5.48434 0.226251 0
M  V30 37998 H 3802.61 4.19625 1.39167 0
M  V30 37999 N 3801.67 0.456435 1.50846 0
M  V30 38000 C 3802.92 -0.103378 2.01835 0
M  V30 38001 C 3803.24 -1.41528 1.34145 0
M  V30 38002 O 3802.51 -1.89877 0.482048 0
M  V30 38003 H 3801.09 -0.0411943 0.745863 0
M  V30 38004 H 3803.75 0.603509 1.85321 0
M  V30 38005 H 3802.85 -0.265508 3.10969 0
M  V30 38006 N 3803.15 -1.56469 0.188482 0
M  V30 38007 C 3804.08 -2.15994 -0.766768 0
M  V30 38008 C 3805.1 -1.12 -1.18151 0
M  V30 38009 O 3806.29 -1.3912 -1.11839 0
M  V30 38010 C 3803.39 -2.70178 -2.0459 0
M  V30 38011 C 3802.56 -3.99006 -1.792 0
M  V30 38012 C 3801.62 -4.38083 -2.91496 0
M  V30 38013 O 3800.64 -5.05633 -2.61389 0
M  V30 38014 N 3801.85 -4.01044 -4.19695 0
M  V30 38015 H 3804.61 -2.98589 -0.257777 0
M  V30 38016 H 3802.17 -1.61899 0.00628491 0
M  V30 38017 H 3804.16 -2.93308 -2.78841 0
M  V30 38018 H 3802.73 -1.92075 -2.4663 0
M  V30 38019 H 3801.95 -3.84077 -0.887622 0
M  V30 38020 H 3803.24 -4.83112 -1.59625 0
M  V30 38021 H 3802.64 -3.46696 -4.4701 0
M  V30 38022 H 3801.2 -4.29139 -4.90595 0
M  V30 38023 N 3804.63 0.0851597 -1.5737 0
M  V30 38024 C 3805.58 1.10259 -2.0276 0
M  V30 38025 C 3806.55 1.39233 -0.905726 0
M  V30 38026 O 3807.73 1.50527 -1.17244 0
M  V30 38027 C 3804.87 2.41487 -2.46532 0
M  V30 38028 C 3803.98 2.19158 -3.72282 0
M  V30 38029 C 3803.12 3.43856 -4.04891 0
M  V30 38030 C 3802.16 3.16832 -5.23721 0
M  V30 38031 N 3801.3 4.33824 -5.52034 0
M  V30 38032 H 3806.14 0.708532 -2.89454 0
M  V30 38033 H 3803.67 0.338307 -1.43157 0
M  V30 38034 H 3805.63 3.18086 -2.69957 0
M  V30 38035 H 3804.26 2.7872 -1.62834 0
M  V30 38036 H 3803.31 1.33315 -3.56274 0
M  V30 38037 H 3804.62 1.95189 -4.59024 0
M  V30 38038 H 3803.78 4.28857 -4.29146 0
M  V30 38039 H 3802.52 3.70889 -3.1669 0
M  V30 38040 H 3801.52 2.30225 -4.99276 0
M  V30 38041 H 3802.75 2.91135 -6.13528 0
M  V30 38042 H 3800.69 4.60914 -4.66792 0
M  V30 38043 H 3800.61 4.1308 -6.33168 0
M  V30 38044 H 3801.88 5.19861 -5.80831 0
M  V30 38045 N 3806.11 1.53521 0.356231 0
M  V30 38046 C 3807.33 1.74385 1.1227 0
M  V30 38047 C 3807.76 0.475913 1.8198 0
M  V30 38048 O 3807.12 -0.570669 1.72084 0
M  V30 38049 C 3807.16 2.91586 2.12156 0
M  V30 38050 O 3806.27 2.60848 3.19425 0
M  V30 38051 H 3805.61 0.578851 0.325311 0
M  V30 38052 H 3808.14 2.0044 0.410498 0
M  V30 38053 H 3808.15 3.18017 2.55596 0
M  V30 38054 H 3806.82 3.83553 1.60811 0
M  V30 38055 H 3805.4 2.45265 2.80891 0
M  V30 38056 N 3807.59 -0.616551 1.45039 0
M  V30 38057 C 3808.81 -1.40756 1.52324 0
M  V30 38058 C 3809.24 -1.8747 0.153783 0
M  V30 38059 O 3808.59 -1.59611 -0.85988 0
M  V30 38060 C 3808.64 -2.59418 2.50468 0
M  V30 38061 O 3807.75 -3.59749 2.01629 0
M  V30 38062 H 3807.09 -0.420583 0.513815 0
M  V30 38063 H 3809.62 -0.7512 1.90311 0
M  V30 38064 H 3809.63 -3.06778 2.68982 0
M  V30 38065 H 3808.3 -2.24765 3.49933 0
M  V30 38066 H 3806.88 -3.191 1.9295 0
M  V30 38067 N 3809.06 -1.3218 -0.858264 0
M  V30 38068 C 3810.31 -1.22535 -1.61219 0
M  V30 38069 C 3810.64 0.213705 -1.93322 0
M  V30 38070 O 3809.89 1.16572 -1.57192 0
M  V30 38071 C 3810.19 -2.02659 -2.94388 0
M  V30 38072 C 3809.86 -3.52051 -2.81728 0
M  V30 38073 C 3808.52 -3.92783 -2.77983 0
M  V30 38074 C 3810.87 -4.47067 -2.6792 0
M  V30 38075 C 3808.2 -5.26779 -2.58303 0
M  V30 38076 C 3810.55 -5.81201 -2.49775 0
M  V30 38077 C 3809.22 -6.2114 -2.4442 0
M  V30 38078 H 3808.49 -0.448386 -0.589941 0
M  V30 38079 H 3811.13 -1.63569 -0.995868 0
M  V30 38080 H 3809.44 -1.54342 -3.60119 0
M  V30 38081 H 3811.14 -1.92568 -3.51737 0
M  V30 38082 H 3807.73 -3.19698 -2.85467 0
M  V30 38083 H 3811.91 -4.1652 -2.69861 0
M  V30 38084 H 3807.17 -5.56784 -2.5259 0
M  V30 38085 H 3811.34 -6.54443 -2.3807 0
M  V30 38086 H 3808.97 -7.2491 -2.2893 0
M  V30 38087 N 3810.54 1.07407 -1.15332 0
M  V30 38088 C 3811.77 1.83714 -0.951675 0
M  V30 38089 C 3812.18 1.82058 0.500022 0
M  V30 38090 O 3811.54 1.23159 1.34677 0
M  V30 38091 C 3811.59 3.3082 -1.4574 0
M  V30 38092 O 3811.31 3.32535 -2.85223 0
M  V30 38093 C 3812.81 4.23897 -1.29716 0
M  V30 38094 H 3810.03 0.579634 -0.338031 0
M  V30 38095 H 3812.58 1.35586 -1.5309 0
M  V30 38096 H 3810.73 3.763 -0.920709 0
M  V30 38097 H 3811.15 4.2444 -3.08141 0
M  V30 38098 H 3812.62 5.25187 -1.69948 0
M  V30 38099 H 3813.1 4.38537 -0.241263 0
M  V30 38100 H 3813.7 3.84253 -1.8229 0
M  V30 38101 N 3812.02 0.950026 1.25747 0
M  V30 38102 C 3813.27 0.60322 1.93621 0
M  V30 38103 C 3813.6 -0.856895 1.74273 0
M  V30 38104 O 3812.87 -1.61422 1.08505 0
M  V30 38105 C 3813.16 0.957085 3.47148 0
M  V30 38106 C 3813.01 2.47259 3.75743 0
M  V30 38107 C 3814.33 0.478831 4.37487 0
M  V30 38108 H 3811.45 0.220624 0.703203 0
M  V30 38109 H 3814.09 1.18585 1.48451 0
M  V30 38110 H 3812.24 0.461287 3.85752 0
M  V30 38111 H 3813.91 3.0418 3.46803 0
M  V30 38112 H 3812.15 2.91228 3.2151 0
M  V30 38113 H 3812.83 2.6707 4.83092 0
M  V30 38114 H 3815.3 0.904058 4.0616 0
M  V30 38115 H 3814.18 0.755168 5.4368 0
M  V30 38116 H 3814.44 -0.621226 4.37714 0
M  V30 38117 N 3813.5 -1.40291 0.718063 0
M  V30 38118 C 3814.77 -1.94717 0.185682 0
M  V30 38119 C 3815.15 -1.65605 -1.30913 0
M  V30 38120 O 3814.5 -0.975068 -2.06651 0
M  V30 38121 C 3814.71 -3.45384 0.501076 0
M  V30 38122 C 3816.06 -4.22303 0.441095 0
M  V30 38123 O 3817.08 -3.53506 0.437279 0
M  V30 38124 O 3815.94 -5.44878 0.420785 0
M  V30 38125 H 3813.04 -0.82652 0.0281726 0
M  V30 38126 H 3815.58 -1.49886 0.795765 0
M  V30 38127 H 3814.36 -3.59941 1.53486 0
M  V30 38128 H 3813.98 -3.97358 -0.138843 0
M  V30 38129 N 3814.98 -0.464428 -1.50602 0
M  V30 38130 C 3816.22 0.0916857 -2.04194 0
M  V30 38131 C 3816.58 1.37581 -1.33923 0
M  V30 38132 O 3817.78 2.01388 -1.78034 0
M  V30 38133 C 3816.05 0.27803 -3.56317 0
M  V30 38134 S 3817.61 0.793658 -4.31563 0
M  V30 38135 H 3814.43 0.019103 -0.710743 0
M  V30 38136 H 3817.03 -0.630042 -1.85069 0
M  V30 38137 H 3815.74 -0.662466 -4.05018 0
M  V30 38138 H 3815.27 1.02606 -3.79783 0
M  V30 38139 H 3817.28 2.06793 -4.51055 0
M  V30 38140 N 3816.45 1.56367 -0.196777 0
M  V30 38141 C 3817.68 2.02455 0.450209 0
M  V30 38142 C 3818.1 1.07599 1.54285 0
M  V30 38143 O 3817.46 0.0597848 1.81201 0
M  V30 38144 C 3817.51 3.46971 0.982026 0
M  V30 38145 O 3816.61 3.55233 2.09483 0
M  V30 38146 H 3815.96 0.655644 0.10501 0
M  V30 38147 H 3818.49 2.02266 -0.308148 0
M  V30 38148 H 3818.5 3.86796 1.2982 0
M  V30 38149 H 3817.17 4.15501 0.182167 0
M  V30 38150 H 3815.75 3.27284 1.78717 0
M  V30 38151 N 3817.93 -0.0768128 1.57413 0
M  V30 38152 C 3818.88 -1.09182 2.03342 0
M  V30 38153 C 3819.85 -1.38751 0.913097 0
M  V30 38154 O 3821.03 -1.49903 1.18041 0
M  V30 38155 C 3818.17 -2.40176 2.47809 0
M  V30 38156 C 3817.29 -2.17181 3.73439 0
M  V30 38157 C 3816.42 -3.41704 4.06709 0
M  V30 38158 C 3815.46 -3.14051 5.25394 0
M  V30 38159 N 3814.6 -4.3089 5.54327 0
M  V30 38160 H 3819.44 -0.693172 2.89826 0
M  V30 38161 H 3816.98 -0.33071 1.43334 0
M  V30 38162 H 3818.93 -3.1665 2.71641 0
M  V30 38163 H 3817.56 -2.77853 1.64309 0
M  V30 38164 H 3816.62 -1.31424 3.56976 0
M  V30 38165 H 3817.93 -1.92752 4.60052 0
M  V30 38166 H 3817.08 -4.26575 4.31414 0
M  V30 38167 H 3815.82 -3.69204 3.18652 0
M  V30 38168 H 3814.83 -2.27574 5.0049 0
M  V30 38169 H 3816.05 -2.87878 6.15064 0
M  V30 38170 H 3814 -4.58432 4.6923 0
M  V30 38171 H 3813.91 -4.09716 6.35349 0
M  V30 38172 H 3815.18 -5.16773 5.8358 0
M  V30 38173 N 3819.41 -1.53708 -0.348084 0
M  V30 38174 C 3820.37 -1.80686 -1.41015 0
M  V30 38175 C 3821.37 -0.677765 -1.45818 0
M  V30 38176 O 3822.56 -0.946036 -1.46273 0
M  V30 38177 C 3819.7 -1.94478 -2.79984 0
M  V30 38178 H 3820.89 -2.75556 -1.1836 0
M  V30 38179 H 3818.44 -1.45051 -0.582218 0
M  V30 38180 H 3819.18 -1.01735 -3.07929 0
M  V30 38181 H 3818.96 -2.76617 -2.77895 0
M  V30 38182 H 3820.45 -2.16882 -3.56864 0
M  V30 38183 N 3820.89 0.608851 -1.45364 0
M  V30 38184 C 3822.14 1.36519 -1.4902 0
M  V30 38185 C 3822.46 1.94547 -0.132791 0
M  V30 38186 O 3821.73 1.77086 0.837692 0
M  V30 38187 H 3820.31 0.506799 -0.548784 0
M  V30 38188 H 3822.97 0.715036 -1.8131 0
M  V30 38189 H 3822.07 2.18525 -2.2283 0
M  V30 38190 N 3822.37 1.32633 0.851242 0
M  V30 38191 C 3823.31 1.21816 1.9815 0
M  V30 38192 C 3824.31 0.122212 1.68959 0
M  V30 38193 O 3825.51 0.285363 1.77724 0
M  V30 38194 H 3821.89 0.377697 0.650268 0
M  V30 38195 H 3823.86 2.174 2.04401 0
M  V30 38196 C 3822.61 0.96158 3.34139 0
M  V30 38197 H 3821.93 1.79711 3.57133 0
M  V30 38198 H 3823.37 0.92615 4.13761 0
M  V30 38199 C 3821.83 -0.335645 3.35224 0
M  V30 38200 O 3822.36 -1.34641 3.78464 0
M  V30 38201 N 3820.57 -0.358825 2.88376 0
M  V30 38202 H 3820.11 0.464239 2.53382 0
M  V30 38203 H 3820.07 -1.22663 2.89484 0
M  V30 38204 N 3823.84 -1.06794 1.159 0
M  V30 38205 C 3824.79 -2.16243 0.856846 0
M  V30 38206 C 3825.79 -1.68524 -0.172045 0
M  V30 38207 O 3826.99 -1.7998 -0.0265253 0
M  V30 38208 H 3823.37 -0.705823 0.259457 0
M  V30 38209 H 3825.34 -2.38941 1.78744 0
M  V30 38210 C 3824.09 -3.45739 0.368782 0
M  V30 38211 H 3823.41 -3.82846 1.1519 0
M  V30 38212 H 3824.85 -4.23546 0.196086 0
M  V30 38213 C 3823.31 -3.24356 -0.910745 0
M  V30 38214 O 3823.84 -3.49451 -1.98109 0
M  V30 38215 N 3822.05 -2.77814 -0.852496 0
M  V30 38216 H 3821.59 -2.57593 0.0187099 0
M  V30 38217 H 3821.55 -2.63887 -1.70912 0
M  V30 38218 N 3825.32 -0.956681 -1.25241 0
M  V30 38219 C 3826.26 -0.422725 -2.2425 0
M  V30 38220 C 3827.23 0.497079 -1.54816 0
M  V30 38221 O 3828.42 0.430986 -1.83507 0
M  V30 38222 C 3825.54 0.390936 -3.36436 0
M  V30 38223 C 3824.59 -0.469559 -4.23907 0
M  V30 38224 S 3825.42 -1.90305 -5.00544 0
M  V30 38225 C 3826.58 -1.09787 -6.16196 0
M  V30 38226 H 3826.81 -1.2618 -2.69195 0
M  V30 38227 H 3824.35 -0.760903 -1.34349 0
M  V30 38228 H 3826.3 0.854445 -4.01509 0
M  V30 38229 H 3824.96 1.20486 -2.90072 0
M  V30 38230 H 3824.16 0.154605 -5.03763 0
M  V30 38231 H 3823.76 -0.868358 -3.6378 0
M  V30 38232 H 3826.05 -0.347537 -6.76608 0
M  V30 38233 H 3826.99 -1.87043 -6.8295 0
M  V30 38234 H 3827.4 -0.627102 -5.61006 0
M  V30 38235 N 3826.8 1.39908 -0.725493 0
M  V30 38236 C 3827.73 2.3331 -0.094252 0
M  V30 38237 C 3828.71 1.53415 0.734701 0
M  V30 38238 O 3829.9 1.81845 0.681615 0
M  V30 38239 C 3827.03 3.37459 0.820899 0
M  V30 38240 C 3825.98 4.2789 0.0968231 0
M  V30 38241 C 3825.31 5.22659 1.12835 0
M  V30 38242 C 3826.61 5.11536 -1.05492 0
M  V30 38243 H 3828.3 2.86347 -0.874416 0
M  V30 38244 H 3825.85 1.3768 -0.421938 0
M  V30 38245 H 3827.8 4.01745 1.27196 0
M  V30 38246 H 3826.52 2.8284 1.63307 0
M  V30 38247 H 3825.18 3.65071 -0.334518 0
M  V30 38248 H 3824.83 4.6434 1.93384 0
M  V30 38249 H 3824.53 5.84008 0.648702 0
M  V30 38250 H 3826.05 5.89822 1.57932 0
M  V30 38251 H 3827.47 5.6922 -0.682757 0
M  V30 38252 H 3825.87 5.81979 -1.46359 0
M  V30 38253 H 3826.94 4.46929 -1.88103 0
M  V30 38254 N 3828.28 0.472408 1.50353 0
M  V30 38255 C 3829.21 -0.310954 2.3142 0
M  V30 38256 C 3830.19 -0.989127 1.38385 0
M  V30 38257 O 3831.37 -0.986045 1.67304 0
M  V30 38258 C 3828.5 -1.39254 3.1816 0
M  V30 38259 C 3827.46 -0.835903 4.19758 0
M  V30 38260 C 3826.78 -2.01588 4.95244 0
M  V30 38261 C 3828.08 0.153702 5.22074 0
M  V30 38262 H 3829.78 0.365647 2.97159 0
M  V30 38263 H 3827.32 0.177291 1.42904 0
M  V30 38264 H 3829.28 -1.94806 3.73669 0
M  V30 38265 H 3828 -2.09793 2.50308 0
M  V30 38266 H 3826.66 -0.30235 3.65351 0
M  V30 38267 H 3826.31 -2.70828 4.23865 0
M  V30 38268 H 3826.01 -1.64964 5.63969 0
M  V30 38269 H 3827.53 -2.57628 5.53589 0
M  V30 38270 H 3828.95 -0.312682 5.72447 0
M  V30 38271 H 3827.34 0.434286 5.98526 0
M  V30 38272 H 3828.41 1.07916 4.72739 0
M  V30 38273 N 3829.76 -1.5626 0.205067 0
M  V30 38274 C 3831 -1.98152 -0.431701 0
M  V30 38275 C 3831.34 -1.09218 -1.60577 0
M  V30 38276 O 3830.61 -0.146291 -1.93949 0
M  V30 38277 C 3830.89 -3.49126 -0.882216 0
M  V30 38278 C 3830.75 -4.48836 0.294357 0
M  V30 38279 C 3832.07 -4.0406 -1.74423 0
M  V30 38280 H 3829.19 -0.720421 -0.155445 0
M  V30 38281 H 3831.83 -1.87649 0.297993 0
M  V30 38282 H 3829.98 -3.58208 -1.50398 0
M  V30 38283 H 3831.65 -4.51782 0.932228 0
M  V30 38284 H 3829.89 -4.23393 0.944515 0
M  V30 38285 H 3830.56 -5.51963 -0.063542 0
M  V30 38286 H 3833.04 -3.9782 -1.21976 0
M  V30 38287 H 3831.92 -5.10047 -2.02839 0
M  V30 38288 H 3832.18 -3.49929 -2.70189 0
M  V30 38289 N 3831.24 0.0684638 -1.57451 0
M  V30 38290 C 3832.48 0.765472 -1.87043 0
M  V30 38291 C 3832.8 1.77946 -0.79752 0
M  V30 38292 O 3832.07 1.95131 0.173455 0
M  V30 38293 H 3830.65 0.285696 -0.690208 0
M  V30 38294 H 3833.32 0.0437614 -1.94851 0
M  V30 38295 H 3832.41 1.27961 -2.84662 0
M  V30 38296 N 3832.71 1.5389 0.339928 0
M  V30 38297 C 3833.96 1.71564 1.08136 0
M  V30 38298 C 3834.29 0.479325 1.88192 0
M  V30 38299 O 3833.57 -0.523669 1.87318 0
M  V30 38300 C 3833.85 2.98136 2.01958 0
M  V30 38301 C 3833.7 4.31983 1.25341 0
M  V30 38302 C 3835.02 3.20392 3.01723 0
M  V30 38303 H 3832.14 0.624271 0.391733 0
M  V30 38304 H 3834.78 1.86566 0.359576 0
M  V30 38305 H 3832.93 2.85477 2.63506 0
M  V30 38306 H 3834.61 4.56499 0.663799 0
M  V30 38307 H 3832.85 4.30229 0.555465 0
M  V30 38308 H 3833.52 5.16732 1.94145 0
M  V30 38309 H 3836 3.32406 2.50291 0
M  V30 38310 H 3834.87 4.10342 3.64569 0
M  V30 38311 H 3835.13 2.36856 3.73299 0
M  V30 38312 N 3834.19 -0.601133 1.45685 0
M  V30 38313 C 3835.14 -1.70589 1.51272 0
M  V30 38314 C 3836.13 -1.56461 0.375354 0
M  V30 38315 O 3837.32 -1.65688 0.622621 0
M  V30 38316 C 3834.45 -3.09354 1.48846 0
M  V30 38317 C 3833.53 -3.28846 2.67808 0
M  V30 38318 N 3833.92 -3.18571 3.92869 0
M  V30 38319 C 3832.22 -3.59734 2.63642 0
M  V30 38320 C 3832.92 -3.39569 4.72301 0
M  V30 38321 N 3831.9 -3.63862 4.03863 0
M  V30 38322 H 3835.7 -1.61148 2.45781 0
M  V30 38323 H 3833.21 -0.804596 1.41067 0
M  V30 38324 H 3835.21 -3.88619 1.50934 0
M  V30 38325 H 3833.87 -3.19939 0.553987 0
M  V30 38326 H 3834.88 -2.96833 4.24394 0
M  V30 38327 H 3831.56 -3.77117 1.79133 0
M  V30 38328 H 3832.95 -3.36964 5.81296 0
M  V30 38329 N 3835.67 -1.33083 -0.844196 0
M  V30 38330 C 3836.92 -1.23992 -1.59594 0
M  V30 38331 C 3837.24 0.195626 -1.94016 0
M  V30 38332 O 3836.51 1.12303 -1.60514 0
M  V30 38333 H 3835.09 -0.455936 -0.591719 0
M  V30 38334 H 3837.75 -1.66736 -1.00921 0
M  V30 38335 H 3836.85 -1.82991 -2.52826 0
M  V30 38336 N 3837.15 1.06178 -1.16464 0
M  V30 38337 C 3838.56 1.60463 -0.954388 0
M  V30 38338 C 3838.91 1.89684 0.501421 0
M  V30 38339 O 3838.03 1.67113 1.37485 0
M  V30 38340 C 3838.63 2.91534 -1.72608 0
M  V30 38341 C 3837.19 3.42516 -1.56077 0
M  V30 38342 C 3836.34 2.16392 -1.73407 0
M  V30 38343 H 3839.29 0.891143 -1.31318 0
M  V30 38344 H 3839.31 3.60996 -1.20258 0
M  V30 38345 H 3838.82 2.70234 -2.78559 0
M  V30 38346 H 3836.92 3.68873 -0.525717 0
M  V30 38347 H 3837.03 4.17765 -2.3454 0
M  V30 38348 H 3835.4 2.2667 -1.16159 0
M  V30 38349 H 3836.18 1.97573 -2.80748 0
M  V30 38350 N 3838.63 0.96331 1.24732 0
M  V30 38351 C 3840.04 0.669128 1.44896 0
M  V30 38352 C 3840.24 -0.770508 1.86187 0
M  V30 38353 O 3839.3 -1.54488 1.99724 0
M  V30 38354 C 3840.61 1.64947 2.51422 0
M  V30 38355 C 3842.16 1.66161 2.65254 0
M  V30 38356 C 3842.63 2.62982 3.74973 0
M  V30 38357 N 3844.12 2.61398 3.82394 0
M  V30 38358 C 3844.86 3.3299 4.66804 0
M  V30 38359 N 3844.36 4.14083 5.55434 0
M  V30 38360 N 3846.15 3.21835 4.60846 0
M  V30 38361 H 3838.3 1.89352 0.962259 0
M  V30 38362 H 3840.56 0.814967 0.484286 0
M  V30 38363 H 3840.27 2.67819 2.2796 0
M  V30 38364 H 3840.14 1.41879 3.495 0
M  V30 38365 H 3842.53 0.640029 2.88076 0
M  V30 38366 H 3842.61 1.93291 1.67547 0
M  V30 38367 H 3842.25 3.65272 3.52901 0
M  V30 38368 H 3842.18 2.33133 4.72183 0
M  V30 38369 H 3844.68 2.02532 3.19044 0
M  V30 38370 H 3844.99 4.65608 6.1679 0
M  V30 38371 H 3843.33 4.18179 5.55114 0
M  V30 38372 H 3846.52 2.57947 3.90616 0
M  V30 38373 H 3846.7 3.77893 5.26404 0
M  V30 38374 N 3840.1 -1.39522 0.732902 0
M  V30 38375 C 3841.33 -2.04856 0.290106 0
M  V30 38376 C 3841.75 -1.55254 -1.07432 0
M  V30 38377 O 3841.1 -0.716526 -1.67846 0
M  V30 38378 C 3841.15 -3.6041 0.280528 0
M  V30 38379 O 3840.88 -4.08186 1.59109 0
M  V30 38380 C 3842.38 -4.4294 -0.178694 0
M  V30 38381 H 3839.6 -0.658839 0.127172 0
M  V30 38382 H 3842.14 -1.78608 0.995964 0
M  V30 38383 H 3840.3 -3.85567 -0.376426 0
M  V30 38384 H 3840.71 -5.02497 1.50323 0
M  V30 38385 H 3842.18 -5.51837 -0.134238 0
M  V30 38386 H 3842.66 -4.21813 -1.22355 0
M  V30 38387 H 3843.27 -4.22927 0.448617 0
M  V30 38388 N 3841.58 -0.480375 -1.501 0
M  V30 38389 C 3842.99 -0.0275101 -1.8668 0
M  V30 38390 C 3843.34 1.3802 -1.39445 0
M  V30 38391 O 3842.47 2.02488 -0.763398 0
M  V30 38392 C 3843.06 -0.0431466 -3.38773 0
M  V30 38393 C 3841.62 0.354287 -3.74729 0
M  V30 38394 C 3840.77 -0.424631 -2.7403 0
M  V30 38395 H 3843.72 -0.694197 -1.42712 0
M  V30 38396 H 3843.74 0.756923 -3.72895 0
M  V30 38397 H 3843.25 -1.06782 -3.73121 0
M  V30 38398 H 3841.35 1.38296 -3.45984 0
M  V30 38399 H 3841.47 0.0491766 -4.79075 0
M  V30 38400 H 3839.83 0.122882 -2.54403 0
M  V30 38401 H 3840.61 -1.44899 -3.11222 0
M  V30 38402 N 3843.06 1.56149 -0.213351 0
M  V30 38403 C 3844.3 1.99986 0.422509 0
M  V30 38404 C 3844.66 1.09768 1.57528 0
M  V30 38405 O 3845.86 1.42917 2.27658 0
M  V30 38406 C 3844.14 3.47053 0.853743 0
M  V30 38407 S 3845.69 4.12913 1.48487 0
M  V30 38408 H 3842.51 0.698177 0.134424 0
M  V30 38409 H 3845.11 1.92851 -0.320712 0
M  V30 38410 H 3843.82 4.104 0.00495852 0
M  V30 38411 H 3843.35 3.58044 1.62998 0
M  V30 38412 H 3845.36 4.11425 2.77388 0
M  V30 38413 N 3844.54 -0.0601128 1.57485 0
M  V30 38414 C 3845.45 -1.08781 2.07855 0
M  V30 38415 C 3846.46 -1.41651 1.0105 0
M  V30 38416 O 3847.64 -1.51594 1.32595 0
M  V30 38417 C 3844.71 -2.3788 2.52218 0
M  V30 38418 C 3843.77 -2.11875 3.73373 0
M  V30 38419 C 3843 -3.34819 4.1561 0
M  V30 38420 O 3843.22 -4.44371 3.57618 0
M  V30 38421 O 3842.16 -3.22344 5.08309 0
M  V30 38422 H 3845.98 -0.68986 2.95761 0
M  V30 38423 H 3843.57 -0.275039 1.46846 0
M  V30 38424 H 3845.45 -3.13835 2.81221 0
M  V30 38425 H 3844.12 -2.77032 1.67437 0
M  V30 38426 H 3843.03 -1.33588 3.49435 0
M  V30 38427 H 3844.36 -1.77598 4.59042 0
M  V30 38428 N 3846.02 -1.54068 -0.331762 0
M  V30 38429 C 3846.93 -1.85892 -1.43113 0
M  V30 38430 C 3847.94 -0.750097 -1.57002 0
M  V30 38431 O 3849.12 -1.04358 -1.72254 0
M  V30 38432 C 3846.18 -2.07242 -2.77941 0
M  V30 38433 C 3845.24 -3.3107 -2.73297 0
M  V30 38434 C 3844.48 -3.51392 -4.01696 0
M  V30 38435 O 3844.7 -2.75315 -4.99558 0
M  V30 38436 O 3843.63 -4.44851 -4.05452 0
M  V30 38437 H 3847.46 -2.79359 -1.19132 0
M  V30 38438 H 3845.05 -1.39871 -0.525033 0
M  V30 38439 H 3846.93 -2.22663 -3.5777 0
M  V30 38440 H 3845.6 -1.16965 -3.01829 0
M  V30 38441 H 3844.51 -3.21043 -1.92048 0
M  V30 38442 H 3845.84 -4.21379 -2.54363 0
M  V30 38443 N 3847.49 0.593399 -1.46002 0
M  V30 38444 C 3848.74 1.34814 -1.50027 0
M  V30 38445 C 3849.06 1.95009 -0.15194 0
M  V30 38446 O 3850.26 2.7141 -0.0699228 0
M  V30 38447 C 3848.72 2.44277 -2.64304 0
M  V30 38448 C 3848.33 1.90431 -4.05512 0
M  V30 38449 C 3850.07 3.2116 -2.7759 0
M  V30 38450 C 3847.98 2.9746 -5.11147 0
M  V30 38451 H 3846.91 0.506762 -0.558308 0
M  V30 38452 H 3849.56 0.634453 -1.72183 0
M  V30 38453 H 3847.94 3.18395 -2.35458 0
M  V30 38454 H 3849.11 1.22927 -4.44101 0
M  V30 38455 H 3847.43 1.26249 -3.968 0
M  V30 38456 H 3850.03 4.01017 -3.5368 0
M  V30 38457 H 3850.37 3.73072 -1.84725 0
M  V30 38458 H 3850.9 2.54146 -3.06031 0
M  V30 38459 H 3847.64 2.50449 -6.05768 0
M  V30 38460 H 3847.16 3.63487 -4.77114 0
M  V30 38461 H 3848.84 3.61598 -5.36522 0
M  V30 38462 N 3848.97 1.33529 0.837127 0
M  V30 38463 C 3849.9 1.26557 1.96229 0
M  V30 38464 C 3850.88 0.14579 1.69474 0
M  V30 38465 O 3852.07 0.335849 1.91274 0
M  V30 38466 C 3849.2 1.0058 3.32417 0
M  V30 38467 C 3848.15 2.0887 3.73574 0
M  V30 38468 C 3847.48 1.68104 5.07588 0
M  V30 38469 C 3848.78 3.50563 3.87173 0
M  V30 38470 H 3850.47 2.20697 2.0232 0
M  V30 38471 H 3848.02 1.06244 0.972019 0
M  V30 38472 H 3849.97 0.943511 4.10702 0
M  V30 38473 H 3848.7 0.0287842 3.26587 0
M  V30 38474 H 3847.35 2.14144 2.97553 0
M  V30 38475 H 3847 0.691009 4.98231 0
M  V30 38476 H 3846.7 2.40573 5.36096 0
M  V30 38477 H 3848.23 1.63345 5.88346 0
M  V30 38478 H 3849.64 3.4778 4.55765 0
M  V30 38479 H 3848.04 4.21531 4.2712 0
M  V30 38480 H 3849.11 3.88941 2.89573 0
M  V30 38481 N 3850.45 -1.05559 1.17026 0
M  V30 38482 C 3851.7 -1.78758 0.957773 0
M  V30 38483 C 3852.03 -1.87312 -0.512619 0
M  V30 38484 O 3851.3 -1.37018 -1.38045 0
M  V30 38485 C 3851.59 -3.22849 1.59501 0
M  V30 38486 C 3851.44 -3.2233 3.13725 0
M  V30 38487 C 3852.76 -4.2059 1.29583 0
M  V30 38488 H 3849.88 -0.648932 0.349365 0
M  V30 38489 H 3852.52 -1.23405 1.44469 0
M  V30 38490 H 3850.67 -3.70115 1.18097 0
M  V30 38491 H 3852.34 -2.83168 3.64161 0
M  V30 38492 H 3850.59 -2.60774 3.46669 0
M  V30 38493 H 3851.26 -4.24012 3.53438 0
M  V30 38494 H 3853.73 -3.81801 1.6543 0
M  V30 38495 H 3852.61 -5.1966 1.76761 0
M  V30 38496 H 3852.87 -4.41572 0.215967 0
M  V30 38497 N 3851.93 -0.969911 -1.2422 0
M  V30 38498 C 3852.88 -0.501255 -2.25291 0
M  V30 38499 C 3853.85 0.454354 -1.59765 0
M  V30 38500 O 3855.03 0.364228 -1.87291 0
M  V30 38501 C 3852.17 0.2003 -3.44518 0
M  V30 38502 C 3851.28 -0.794335 -4.24634 0
M  V30 38503 C 3850.42 -0.0686614 -5.31156 0
M  V30 38504 C 3849.46 -1.05321 -6.02971 0
M  V30 38505 N 3848.59 -0.357397 -7.0119 0
M  V30 38506 H 3853.43 -1.36797 -2.64746 0
M  V30 38507 H 3850.97 -0.685696 -1.30141 0
M  V30 38508 H 3852.93 0.623761 -4.12511 0
M  V30 38509 H 3851.56 1.03095 -3.05894 0
M  V30 38510 H 3850.61 -1.33623 -3.56159 0
M  V30 38511 H 3851.92 -1.54501 -4.74269 0
M  V30 38512 H 3851.08 0.412686 -6.05295 0
M  V30 38513 H 3849.82 0.714696 -4.82435 0
M  V30 38514 H 3848.82 -1.54541 -5.27633 0
M  V30 38515 H 3850.05 -1.83706 -6.53781 0
M  V30 38516 H 3847.99 0.406944 -6.54737 0
M  V30 38517 H 3847.91 -1.04691 -7.48716 0
M  V30 38518 H 3849.18 0.101908 -7.79433 0
M  V30 38519 N 3853.41 1.39131 -0.740291 0
M  V30 38520 C 3854.36 2.27861 -0.0797436 0
M  V30 38521 C 3855.34 1.44529 0.70712 0
M  V30 38522 O 3856.53 1.67391 0.57526 0
M  V30 38523 C 3853.66 3.33295 0.822759 0
M  V30 38524 C 3852.75 4.2409 0.0297614 0
M  V30 38525 N 3853.14 4.9582 -0.999825 0
M  V30 38526 C 3851.44 4.4525 0.258613 0
M  V30 38527 C 3852.14 5.62598 -1.47847 0
M  V30 38528 N 3851.11 5.37739 -0.796123 0
M  V30 38529 H 3854.92 2.80775 -0.868484 0
M  V30 38530 H 3852.43 1.51876 -0.575105 0
M  V30 38531 H 3854.43 3.95734 1.3115 0
M  V30 38532 H 3853.09 2.81939 1.6106 0
M  V30 38533 H 3854.1 4.99139 -1.38131 0
M  V30 38534 H 3850.77 4.04827 1.02084 0
M  V30 38535 H 3852.16 6.30009 -2.33535 0
M  V30 38536 N 3854.88 0.488329 1.49844 0
M  V30 38537 C 3856.13 -0.0607524 2.02709 0
M  V30 38538 C 3856.46 -1.37809 1.3683 0
M  V30 38539 O 3855.74 -1.87971 0.499712 0
M  V30 38540 C 3856.02 -0.226574 3.59386 0
M  V30 38541 C 3855.87 1.11299 4.35812 0
M  V30 38542 C 3857.19 -0.973143 4.29206 0
M  V30 38543 H 3854.31 -0.0206048 0.736712 0
M  V30 38544 H 3856.95 0.637276 1.78994 0
M  V30 38545 H 3855.1 -0.821115 3.79724 0
M  V30 38546 H 3856.78 1.74544 4.27004 0
M  V30 38547 H 3855.02 1.70542 3.98871 0
M  V30 38548 H 3855.69 0.950414 5.43756 0
M  V30 38549 H 3858.17 -0.469033 4.13448 0
M  V30 38550 H 3857.04 -1.05799 5.38607 0
M  V30 38551 H 3857.3 -2.01387 3.93568 0
M  V30 38552 N 3856.36 -1.56034 0.221629 0
M  V30 38553 C 3857.61 -1.97913 -0.409242 0
M  V30 38554 C 3857.93 -1.11052 -1.60289 0
M  V30 38555 O 3857.2 -0.187563 -1.95 0
M  V30 38556 H 3855.78 -0.730914 -0.154189 0
M  V30 38557 H 3858.44 -1.92345 0.314542 0
M  V30 38558 H 3857.54 -3.03309 -0.735517 0
M  V30 38559 N 3857.84 0.0517601 -1.57515 0
M  V30 38560 C 3859.07 0.763216 -1.92847 0
M  V30 38561 C 3859.49 1.69296 -0.819775 0
M  V30 38562 O 3858.85 1.79884 0.226129 0
M  V30 38563 C 3858.9 1.51584 -3.27192 0
M  V30 38564 O 3858 2.62778 -3.17839 0
M  V30 38565 H 3857.34 0.206885 -0.630947 0
M  V30 38566 H 3859.87 0.0140122 -2.04595 0
M  V30 38567 H 3859.88 1.89075 -3.61545 0
M  V30 38568 H 3858.56 0.833799 -4.07456 0
M  V30 38569 H 3857.13 2.27997 -2.95079 0
M  V30 38570 N 3859.32 1.54242 0.323587 0
M  V30 38571 C 3860.74 1.44951 0.667925 0
M  V30 38572 C 3860.94 0.622372 1.91648 0
M  V30 38573 O 3859.99 0.121164 2.52209 0
M  V30 38574 C 3861.3 2.88672 0.841955 0
M  V30 38575 C 3862.85 2.98574 0.939298 0
M  V30 38576 C 3863.33 4.43444 1.1455 0
M  V30 38577 N 3864.82 4.47056 1.21224 0
M  V30 38578 C 3865.55 5.56306 1.38966 0
M  V30 38579 N 3865.05 6.75524 1.53752 0
M  V30 38580 N 3866.84 5.43953 1.41674 0
M  V30 38581 H 3858.99 2.06502 -0.497053 0
M  V30 38582 H 3861.26 0.934301 -0.160579 0
M  V30 38583 H 3860.96 3.517 -0.0042475 0
M  V30 38584 H 3860.84 3.34785 1.73779 0
M  V30 38585 H 3863.22 2.35674 1.776 0
M  V30 38586 H 3863.3 2.55792 0.0199325 0
M  V30 38587 H 3862.95 5.06931 0.313643 0
M  V30 38588 H 3862.88 4.83835 2.07874 0
M  V30 38589 H 3865.37 3.61156 1.11241 0
M  V30 38590 H 3865.68 7.54544 1.66982 0
M  V30 38591 H 3864.03 6.78431 1.5085 0
M  V30 38592 H 3867.22 4.49767 1.29718 0
M  V30 38593 H 3867.39 6.2915 1.55159 0
M  V30 38594 N 3860.8 -0.585648 1.46314 0
M  V30 38595 C 3861.73 -1.70521 1.59514 0
M  V30 38596 C 3862.71 -1.6416 0.445607 0
M  V30 38597 O 3863.89 -1.82222 0.671487 0
M  V30 38598 C 3861.02 -3.09159 1.58234 0
M  V30 38599 C 3859.98 -3.30349 2.72128 0
M  V30 38600 C 3859.3 -4.69484 2.55908 0
M  V30 38601 C 3860.6 -3.18469 4.13975 0
M  V30 38602 H 3862.3 -1.59731 2.53232 0
M  V30 38603 H 3859.84 -0.767025 1.21872 0
M  V30 38604 H 3861.8 -3.873 1.66063 0
M  V30 38605 H 3860.52 -3.20842 0.610591 0
M  V30 38606 H 3859.18 -2.54607 2.63763 0
M  V30 38607 H 3858.83 -4.77928 1.56823 0
M  V30 38608 H 3858.53 -4.84615 3.32298 0
M  V30 38609 H 3860.05 -5.49797 2.65623 0
M  V30 38610 H 3861.47 -3.86457 4.23466 0
M  V30 38611 H 3859.86 -3.45122 4.90928 0
M  V30 38612 H 3860.93 -2.1559 4.34337 0
M  V30 38613 N 3862.28 -1.33971 -0.830033 0
M  V30 38614 C 3863.51 -1.288 -1.61537 0
M  V30 38615 C 3863.91 0.141547 -1.8867 0
M  V30 38616 O 3863.26 1.09688 -1.47358 0
M  V30 38617 C 3863.32 -2.00345 -2.985 0
M  V30 38618 C 3862.98 -3.49627 -2.94295 0
M  V30 38619 C 3863.98 -4.44667 -2.69383 0
M  V30 38620 C 3861.66 -3.91936 -3.14152 0
M  V30 38621 C 3863.66 -5.7999 -2.64368 0
M  V30 38622 C 3861.35 -5.2736 -3.08762 0
M  V30 38623 C 3862.34 -6.21199 -2.83903 0
M  V30 38624 O 3862.03 -7.54142 -2.78432 0
M  V30 38625 H 3861.76 -0.444786 -0.509059 0
M  V30 38626 H 3864.32 -1.77046 -1.04134 0
M  V30 38627 H 3862.55 -1.46703 -3.57792 0
M  V30 38628 H 3864.24 -1.88557 -3.59445 0
M  V30 38629 H 3865 -4.13302 -2.53784 0
M  V30 38630 H 3860.88 -3.19298 -3.3252 0
M  V30 38631 H 3864.43 -6.53206 -2.44884 0
M  V30 38632 H 3860.32 -5.58347 -3.23913 0
M  V30 38633 H 3861.09 -7.63795 -2.94211 0
M  V30 38634 N 3863.75 1.04937 -1.17584 0
M  V30 38635 C 3864.98 1.82192 -0.991002 0
M  V30 38636 C 3865.4 1.82491 0.455933 0
M  V30 38637 O 3864.76 1.23577 1.32659 0
M  V30 38638 C 3864.81 3.26073 -1.53976 0
M  V30 38639 O 3863.91 4.05426 -0.755243 0
M  V30 38640 H 3863.25 0.563221 -0.351679 0
M  V30 38641 H 3865.78 1.32217 -1.5614 0
M  V30 38642 H 3865.79 3.76869 -1.56313 0
M  V30 38643 H 3864.47 3.2517 -2.59301 0
M  V30 38644 H 3863.05 3.64141 -0.803487 0
M  V30 38645 N 3865.23 0.976485 1.23703 0
M  V30 38646 C 3866.48 0.644154 1.92298 0
M  V30 38647 C 3866.81 -0.819736 1.76051 0
M  V30 38648 O 3866.09 -1.59084 1.11905 0
M  V30 38649 C 3866.37 1.03051 3.4504 0
M  V30 38650 C 3866.22 2.55174 3.70414 0
M  V30 38651 C 3867.54 0.571521 4.36373 0
M  V30 38652 H 3864.66 0.235491 0.698365 0
M  V30 38653 H 3867.3 1.21707 1.45902 0
M  V30 38654 H 3865.45 0.543007 3.84686 0
M  V30 38655 H 3867.12 3.11468 3.40273 0
M  V30 38656 H 3865.37 2.97982 3.15261 0
M  V30 38657 H 3866.04 2.77257 4.77318 0
M  V30 38658 H 3868.51 0.990008 4.04151 0
M  V30 38659 H 3867.39 0.870321 5.41956 0
M  V30 38660 H 3867.65 -0.528241 4.38933 0
M  V30 38661 N 3866.71 -1.38737 0.747659 0
M  V30 38662 C 3867.93 -2.05062 0.31052 0
M  V30 38663 C 3868.36 -1.56015 -1.05075 0
M  V30 38664 O 3867.72 -0.709491 -1.66841 0
M  V30 38665 C 3867.77 -3.59032 0.3359 0
M  V30 38666 O 3866.87 -4.06886 -0.672146 0
M  V30 38667 H 3866.21 -0.649373 0.138603 0
M  V30 38668 H 3868.74 -1.77527 1.01712 0
M  V30 38669 H 3868.75 -4.07582 0.184702 0
M  V30 38670 H 3867.43 -3.9409 1.32913 0
M  V30 38671 H 3866 -3.69719 -0.486047 0
M  V30 38672 N 3868.19 -0.496268 -1.49583 0
M  V30 38673 C 3869.42 0.0468074 -2.06547 0
M  V30 38674 C 3869.83 1.31798 -1.35742 0
M  V30 38675 O 3869.17 1.78645 -0.42798 0
M  V30 38676 C 3869.23 0.375559 -3.57533 0
M  V30 38677 C 3868.89 -0.797213 -4.49993 0
M  V30 38678 C 3869.89 -1.68638 -4.9179 0
M  V30 38679 C 3867.58 -0.994677 -4.92353 0
M  V30 38680 C 3869.57 -2.75721 -5.7468 0
M  V30 38681 C 3867.26 -2.06869 -5.7502 0
M  V30 38682 C 3868.26 -2.9483 -6.16088 0
M  V30 38683 O 3867.94 -4.00378 -6.97103 0
M  V30 38684 H 3867.68 -0.0151019 -0.675831 0
M  V30 38685 H 3870.23 -0.69145 -1.93412 0
M  V30 38686 H 3868.46 1.16735 -3.6866 0
M  V30 38687 H 3870.15 0.856688 -3.96756 0
M  V30 38688 H 3870.91 -1.54562 -4.59712 0
M  V30 38689 H 3866.79 -0.31941 -4.59892 0
M  V30 38690 H 3870.34 -3.44407 -6.06655 0
M  V30 38691 H 3866.23 -2.20941 -6.06511 0
M  V30 38692 H 3867 -3.97673 -7.15401 0
M  V30 38693 N 3869.67 1.55914 -0.2299 0
M  V30 38694 C 3870.6 2.23643 0.671281 0
M  V30 38695 C 3871.58 1.21094 1.19459 0
M  V30 38696 O 3872.76 1.49702 1.23706 0
M  V30 38697 C 3869.89 2.92279 1.8759 0
M  V30 38698 C 3868.85 4.01372 1.48609 0
M  V30 38699 C 3868.17 4.57347 2.77016 0
M  V30 38700 C 3869.47 5.17987 0.669837 0
M  V30 38701 H 3871.17 2.9921 0.106569 0
M  V30 38702 H 3868.71 1.43914 0.0498165 0
M  V30 38703 H 3870.66 3.38355 2.51185 0
M  V30 38704 H 3869.39 2.14173 2.46572 0
M  V30 38705 H 3868.05 3.5604 0.87356 0
M  V30 38706 H 3867.7 3.7596 3.3416 0
M  V30 38707 H 3867.4 5.30979 2.51664 0
M  V30 38708 H 3868.92 5.06146 3.41539 0
M  V30 38709 H 3870.33 5.60392 1.20968 0
M  V30 38710 H 3868.73 5.97903 0.513069 0
M  V30 38711 H 3869.8 4.83831 -0.321729 0
M  V30 38712 N 3871.14 -0.043406 1.5754 0
M  V30 38713 C 3872.07 -1.04821 2.0865 0
M  V30 38714 C 3873.05 -1.38613 0.985918 0
M  V30 38715 O 3874.24 -1.47747 1.26033 0
M  V30 38716 C 3871.37 -2.35344 2.55403 0
M  V30 38717 C 3870.32 -2.15831 3.69596 0
M  V30 38718 C 3869.65 -3.51988 4.02503 0
M  V30 38719 C 3870.95 -1.5562 4.98578 0
M  V30 38720 H 3872.64 -0.622798 2.92851 0
M  V30 38721 H 3870.19 -0.298133 1.4088 0
M  V30 38722 H 3872.14 -3.05953 2.89777 0
M  V30 38723 H 3870.87 -2.79917 1.68267 0
M  V30 38724 H 3869.53 -1.47657 3.35549 0
M  V30 38725 H 3869.17 -3.94184 3.12455 0
M  V30 38726 H 3868.87 -3.39762 4.79412 0
M  V30 38727 H 3870.4 -4.23983 4.39398 0
M  V30 38728 H 3871.81 -2.16129 5.31 0
M  V30 38729 H 3870.21 -1.5401 5.80001 0
M  V30 38730 H 3871.28 -0.520483 4.82099 0
M  V30 38731 N 3872.62 -1.54412 -0.315402 0
M  V30 38732 C 3873.57 -1.84364 -1.38847 0
M  V30 38733 C 3874.54 -0.691376 -1.51027 0
M  V30 38734 O 3875.72 -0.938606 -1.66117 0
M  V30 38735 C 3872.86 -2.08384 -2.75082 0
M  V30 38736 C 3871.98 -3.3605 -2.71467 0
M  V30 38737 C 3871.11 -3.49988 -3.99602 0
M  V30 38738 C 3870.15 -4.71499 -3.90327 0
M  V30 38739 N 3869.29 -4.8232 -5.10208 0
M  V30 38740 H 3874.13 -2.75907 -1.12604 0
M  V30 38741 H 3871.66 -1.36634 -0.544926 0
M  V30 38742 H 3873.62 -2.20304 -3.54291 0
M  V30 38743 H 3872.25 -1.20125 -2.99616 0
M  V30 38744 H 3871.3 -3.32826 -1.84203 0
M  V30 38745 H 3872.62 -4.25372 -2.60499 0
M  V30 38746 H 3871.77 -3.61494 -4.87244 0
M  V30 38747 H 3870.51 -2.58773 -4.13386 0
M  V30 38748 H 3869.51 -4.60041 -3.01069 0
M  V30 38749 H 3870.74 -5.64107 -3.78101 0
M  V30 38750 H 3868.69 -3.94023 -5.24483 0
M  V30 38751 H 3868.6 -5.6562 -5.01607 0
M  V30 38752 H 3869.87 -4.98166 -5.99542 0
M  V30 38753 N 3874.1 0.57788 -1.46623 0
M  V30 38754 C 3875.38 1.33819 -1.4266 0
M  V30 38755 C 3875.76 2.10799 -0.112597 0
M  V30 38756 O 3875.11 2.09777 0.905867 0
M  V30 38757 C 3875.32 2.26013 -2.65931 0
M  V30 38758 C 3876.66 2.8769 -3.12282 0
M  V30 38759 O 3877.69 2.36324 -2.66513 0
M  V30 38760 O 3876.55 3.81 -3.91793 0
M  V30 38761 H 3873.64 0.601507 -0.567554 0
M  V30 38762 H 3876.19 0.598497 -1.58796 0
M  V30 38763 H 3874.96 1.68591 -3.53119 0
M  V30 38764 H 3874.58 3.07314 -2.52278 0
M  V30 38765 N 3875.58 1.34409 0.822917 0
M  V30 38766 C 3876.53 1.25985 1.93381 0
M  V30 38767 C 3877.5 0.135089 1.6555 0
M  V30 38768 O 3878.68 0.316066 1.88164 0
M  V30 38769 C 3875.82 1.02122 3.29644 0
M  V30 38770 C 3874.93 2.23373 3.69768 0
M  V30 38771 C 3874.07 1.92793 4.94979 0
M  V30 38772 C 3873.11 3.10187 5.27684 0
M  V30 38773 N 3872.24 2.7949 6.44073 0
M  V30 38774 H 3877.08 2.2099 1.99918 0
M  V30 38775 H 3874.62 1.09872 0.978086 0
M  V30 38776 H 3876.58 0.863246 4.08171 0
M  V30 38777 H 3875.21 0.10786 3.2262 0
M  V30 38778 H 3874.26 2.50091 2.86633 0
M  V30 38779 H 3875.57 3.11083 3.89909 0
M  V30 38780 H 3874.73 1.73731 5.81294 0
M  V30 38781 H 3873.47 1.02343 4.76841 0
M  V30 38782 H 3872.47 3.29844 4.39867 0
M  V30 38783 H 3873.7 4.01415 5.47762 0
M  V30 38784 H 3871.64 1.91616 6.27391 0
M  V30 38785 H 3871.56 3.60733 6.64385 0
M  V30 38786 H 3872.83 2.63932 7.33458 0
M  V30 38787 N 3877.06 -1.04312 1.18139 0
M  V30 38788 C 3878.3 -1.77119 0.973308 0
M  V30 38789 C 3878.63 -1.8852 -0.498525 0
M  V30 38790 O 3877.9 -1.4084 -1.36165 0
M  V30 38791 H 3876.48 -0.656099 0.357132 0
M  V30 38792 H 3879.14 -1.25904 1.48776 0
M  V30 38793 H 3878.23 -2.78474 1.40922 0
M  V30 38794 N 3878.53 -0.983032 -1.23184 0
M  V30 38795 C 3879.44 -0.533768 -2.28447 0
M  V30 38796 C 3880.46 0.412702 -1.69035 0
M  V30 38797 O 3881.64 0.281972 -1.99416 0
M  V30 38798 C 3878.7 0.154118 -3.46357 0
M  V30 38799 C 3877.76 -0.834083 -4.21119 0
M  V30 38800 C 3877 -0.17893 -5.334 0
M  V30 38801 O 3877.22 1.02942 -5.61034 0
M  V30 38802 O 3876.15 -0.878827 -5.9545 0
M  V30 38803 H 3879.98 -1.40924 -2.69024 0
M  V30 38804 H 3877.56 -0.750793 -1.29164 0
M  V30 38805 H 3879.45 0.539874 -4.17927 0
M  V30 38806 H 3878.12 1.00431 -3.07726 0
M  V30 38807 H 3877.03 -1.27059 -3.51862 0
M  V30 38808 H 3878.36 -1.65317 -4.63607 0
M  V30 38809 N 3880.01 1.38338 -0.755006 0
M  V30 38810 C 3881.24 2.04072 -0.322192 0
M  V30 38811 C 3881.65 1.57065 1.05485 0
M  V30 38812 O 3880.99 0.739626 1.68152 0
M  V30 38813 C 3881.06 3.585 -0.267899 0
M  V30 38814 C 3880.72 4.2857 -1.58673 0
M  V30 38815 C 3881.72 4.53844 -2.53617 0
M  V30 38816 C 3879.4 4.66731 -1.85655 0
M  V30 38817 C 3881.4 5.16315 -3.73762 0
M  V30 38818 C 3879.08 5.28925 -3.06074 0
M  V30 38819 C 3880.08 5.53652 -3.99948 0
M  V30 38820 O 3879.77 6.14552 -5.18249 0
M  V30 38821 H 3879.5 0.662311 -0.135353 0
M  V30 38822 H 3882.05 1.77985 -1.0252 0
M  V30 38823 H 3880.28 3.83565 0.491367 0
M  V30 38824 H 3881.97 4.05673 0.13559 0
M  V30 38825 H 3882.74 4.2479 -2.34047 0
M  V30 38826 H 3878.62 4.46829 -1.13423 0
M  V30 38827 H 3882.16 5.35531 -4.47048 0
M  V30 38828 H 3878.06 5.57402 -3.25536 0
M  V30 38829 H 3878.83 6.33038 -5.18849 0
M  V30 38830 N 3881.49 0.504194 1.49317 0
M  V30 38831 C 3882.72 -0.0359052 2.06869 0
M  V30 38832 C 3883.13 -1.30527 1.36412 0
M  V30 38833 O 3882.49 -1.7703 0.443447 0
M  V30 38834 C 3882.54 -0.29017 3.60334 0
M  V30 38835 O 3882.26 0.928876 4.2814 0
M  V30 38836 C 3883.76 -0.873552 4.34608 0
M  V30 38837 H 3880.98 0.0219011 0.670642 0
M  V30 38838 H 3883.53 0.702465 1.92056 0
M  V30 38839 H 3881.68 -0.978528 3.74838 0
M  V30 38840 H 3882.1 0.693686 5.19893 0
M  V30 38841 H 3883.57 -1.00103 5.42848 0
M  V30 38842 H 3884.05 -1.87214 3.97301 0
M  V30 38843 H 3884.65 -0.222563 4.24717 0
M  V30 38844 N 3882.97 -1.5579 0.238166 0
M  V30 38845 C 3883.9 -2.23996 -0.659412 0
M  V30 38846 C 3884.88 -1.21725 -1.18815 0
M  V30 38847 O 3886.06 -1.50356 -1.2291 0
M  V30 38848 C 3883.19 -2.9327 -1.86037 0
M  V30 38849 C 3882.15 -4.02154 -1.46478 0
M  V30 38850 C 3881.47 -4.5881 -2.74587 0
M  V30 38851 C 3882.77 -5.18335 -0.642357 0
M  V30 38852 H 3884.47 -2.99263 -0.0906996 0
M  V30 38853 H 3882.01 -1.43938 -0.0421837 0
M  V30 38854 H 3883.97 -3.39682 -2.49387 0
M  V30 38855 H 3882.69 -2.15477 -2.45432 0
M  V30 38856 H 3881.35 -3.56498 -0.854666 0
M  V30 38857 H 3881 -3.77727 -3.32161 0
M  V30 38858 H 3880.7 -5.32306 -2.48845 0
M  V30 38859 H 3882.22 -5.0795 -3.3885 0
M  V30 38860 H 3883.64 -5.61026 -1.17995 0
M  V30 38861 H 3882.03 -5.98166 -0.481353 0
M  V30 38862 H 3883.1 -4.83654 0.347383 0
M  V30 38863 N 3884.45 0.0350506 -1.57561 0
M  V30 38864 C 3885.69 0.728139 -1.89278 0
M  V30 38865 C 3886.03 1.75324 -0.835168 0
M  V30 38866 O 3885.3 1.93917 0.150481 0
M  V30 38867 C 3885.58 1.4031 -3.3164 0
M  V30 38868 C 3885.44 0.391917 -4.48089 0
M  V30 38869 C 3886.76 2.33865 -3.7282 0
M  V30 38870 H 3883.87 0.263238 -0.688386 0
M  V30 38871 H 3886.52 -0.00904 -1.89998 0
M  V30 38872 H 3884.67 2.03144 -3.31157 0
M  V30 38873 H 3886.34 -0.234046 -4.60706 0
M  V30 38874 H 3884.58 -0.289381 -4.32834 0
M  V30 38875 H 3885.25 0.902546 -5.44571 0
M  V30 38876 H 3887.73 1.8108 -3.74632 0
M  V30 38877 H 3886.6 2.78075 -4.7325 0
M  V30 38878 H 3886.87 3.20281 -3.0475 0
M  V30 38879 N 3885.92 1.54577 0.307209 0
M  V30 38880 C 3887.17 1.7382 1.04473 0
M  V30 38881 C 3887.5 0.519135 1.87133 0
M  V30 38882 O 3886.78 -0.483819 1.88386 0
M  V30 38883 C 3887.06 3.02353 1.95589 0
M  V30 38884 C 3886.91 4.34545 1.1615 0
M  V30 38885 C 3888.23 3.2672 2.94859 0
M  V30 38886 H 3885.35 0.63244 0.378403 0
M  V30 38887 H 3887.99 1.87287 0.319922 0
M  V30 38888 H 3886.14 2.91002 2.57391 0
M  V30 38889 H 3887.82 4.57804 0.56682 0
M  V30 38890 H 3886.06 4.3131 0.464082 0
M  V30 38891 H 3886.73 5.20734 1.8314 0
M  V30 38892 H 3889.21 3.3764 2.43184 0
M  V30 38893 H 3888.08 4.17982 3.55783 0
M  V30 38894 H 3888.34 2.44721 3.6819 0
M  V30 38895 N 3887.4 -0.570096 1.46927 0
M  V30 38896 C 3888.35 -1.67821 1.58445 0
M  V30 38897 C 3889.32 -1.60489 0.428081 0
M  V30 38898 O 3890.5 -1.79514 0.646477 0
M  V30 38899 C 3887.64 -3.06155 1.59258 0
M  V30 38900 C 3886.76 -3.24019 2.85719 0
M  V30 38901 C 3885.89 -4.52676 2.77953 0
M  V30 38902 C 3884.93 -4.63927 3.99297 0
M  V30 38903 N 3884.07 -5.83924 3.89843 0
M  V30 38904 H 3888.91 -1.57315 2.53093 0
M  V30 38905 H 3886.45 -0.766526 1.2555 0
M  V30 38906 H 3888.4 -3.86241 1.57714 0
M  V30 38907 H 3887.03 -3.15528 0.681326 0
M  V30 38908 H 3886.09 -2.37452 2.97188 0
M  V30 38909 H 3887.4 -3.28199 3.75615 0
M  V30 38910 H 3886.55 -5.41006 2.74586 0
M  V30 38911 H 3885.29 -4.50954 1.85719 0
M  V30 38912 H 3884.3 -3.74012 4.02983 0
M  V30 38913 H 3885.52 -4.67418 4.92643 0
M  V30 38914 H 3883.47 -5.83176 3.00403 0
M  V30 38915 H 3883.38 -5.89426 4.73406 0
M  V30 38916 H 3884.65 -6.7465 3.90471 0
M  V30 38917 N 3888.88 -1.34844 -0.815777 0
M  V30 38918 C 3890.13 -1.288 -1.57424 0
M  V30 38919 C 3890.48 0.138939 -1.91898 0
M  V30 38920 O 3889.78 1.08703 -1.57779 0
M  V30 38921 C 3889.97 -2.11922 -2.87791 0
M  V30 38922 C 3889.8 -3.62554 -2.66054 0
M  V30 38923 C 3888.57 -4.31814 -2.6242 0
M  V30 38924 C 3890.77 -4.56401 -2.3707 0
M  V30 38925 N 3888.75 -5.6825 -2.32303 0
M  V30 38926 C 3890.12 -5.80893 -2.16711 0
M  V30 38927 C 3892.17 -4.45241 -2.22857 0
M  V30 38928 C 3890.88 -6.95479 -1.83578 0
M  V30 38929 C 3892.9 -5.59667 -1.9112 0
M  V30 38930 C 3892.27 -6.83181 -1.7159 0
M  V30 38931 H 3888.36 -0.526555 -0.578155 0
M  V30 38932 H 3890.95 -1.6963 -0.955699 0
M  V30 38933 H 3889.12 -1.73377 -3.47556 0
M  V30 38934 H 3890.85 -1.97468 -3.53254 0
M  V30 38935 H 3887.61 -3.84329 -2.76746 0
M  V30 38936 H 3888.03 -6.40235 -2.20064 0
M  V30 38937 H 3892.67 -3.50361 -2.36658 0
M  V30 38938 H 3890.39 -7.90334 -1.68514 0
M  V30 38939 H 3893.98 -5.5298 -1.80845 0
M  V30 38940 H 3892.86 -7.70225 -1.47389 0
M  V30 38941 N 3890.36 1.03684 -1.1869 0
M  V30 38942 C 3891.61 1.766 -0.982687 0
M  V30 38943 C 3891.93 1.88782 0.48852 0
M  V30 38944 O 3891.2 1.4156 1.35416 0
M  V30 38945 H 3889.78 0.654196 -0.360606 0
M  V30 38946 H 3892.44 1.25113 -1.49442 0
M  V30 38947 H 3891.54 2.77722 -1.42396 0
M  V30 38948 N 3891.84 0.989551 1.22661 0
M  V30 38949 C 3893.11 0.579599 1.86815 0
M  V30 38950 C 3893.49 -0.943155 1.88859 0
M  V30 38951 O 3892.84 -1.8237 1.37672 0
M  V30 38952 C 3893.05 1.19618 3.27861 0
M  V30 38953 C 3894.4 1.29462 4.04382 0
M  V30 38954 O 3895.42 1.15032 3.37114 0
M  V30 38955 O 3894.28 1.52517 5.24786 0
M  V30 38956 H 3891.38 0.196448 0.803329 0
M  V30 38957 H 3893.92 1.08522 1.30465 0
M  V30 38958 H 3892.7 2.2379 3.20989 0
M  V30 38959 H 3892.32 0.675944 3.91812 0
M  V30 38960 N 3893.32 -1.37936 0.762332 0
M  V30 38961 C 3894.23 -2.34165 0.142765 0
M  V30 38962 C 3895.24 -1.5971 -0.690559 0
M  V30 38963 O 3896.42 -1.91855 -0.612677 0
M  V30 38964 C 3893.48 -3.38857 -0.733265 0
M  V30 38965 C 3892.54 -4.29145 0.115434 0
M  V30 38966 C 3891.78 -5.28836 -0.718879 0
M  V30 38967 O 3892 -5.35797 -1.95647 0
M  V30 38968 O 3890.93 -6.01753 -0.133056 0
M  V30 38969 H 3894.76 -2.88861 0.937713 0
M  V30 38970 H 3892.34 -1.39934 0.523349 0
M  V30 38971 H 3894.23 -4.02937 -1.23367 0
M  V30 38972 H 3892.9 -2.86504 -1.50656 0
M  V30 38973 H 3891.81 -3.68196 0.66199 0
M  V30 38974 H 3893.14 -4.84777 0.85159 0
M  V30 38975 N 3894.79 -0.512106 -1.49048 0
M  V30 38976 C 3895.74 0.27985 -2.26276 0
M  V30 38977 C 3896.73 0.925764 -1.31599 0
M  V30 38978 O 3897.92 0.831526 -1.56252 0
M  V30 38979 C 3895.05 1.33704 -3.16193 0
M  V30 38980 C 3894.13 0.696809 -4.18336 0
M  V30 38981 N 3894.53 -0.20706 -5.05376 0
M  V30 38982 C 3892.82 0.956111 -4.35631 0
M  V30 38983 C 3893.52 -0.574645 -5.78855 0
M  V30 38984 N 3892.5 0.0600746 -5.43567 0
M  V30 38985 H 3896.3 -0.415787 -2.90944 0
M  V30 38986 H 3893.82 -0.328921 -1.59034 0
M  V30 38987 H 3895.81 1.91795 -3.70163 0
M  V30 38988 H 3894.47 2.03424 -2.53079 0
M  V30 38989 H 3895.48 -0.578571 -5.14658 0
M  V30 38990 H 3892.16 1.64523 -3.83717 0
M  V30 38991 H 3893.55 -1.31476 -6.58911 0
M  V30 38992 N 3896.27 1.55662 -0.246424 0
M  V30 38993 C 3897.52 1.98108 0.378938 0
M  V30 38994 C 3897.83 1.13778 1.59104 0
M  V30 38995 O 3899.04 1.46236 2.28752 0
M  V30 38996 C 3897.5 3.5251 0.725572 0
M  V30 38997 C 3897.1 4.45579 -0.465102 0
M  V30 38998 C 3898.85 4.03614 1.31515 0
M  V30 38999 C 3896.75 5.91324 -0.0946487 0
M  V30 39000 H 3895.68 0.739856 0.145357 0
M  V30 39001 H 3898.34 1.80198 -0.346565 0
M  V30 39002 H 3896.72 3.66114 1.50919 0
M  V30 39003 H 3897.89 4.43734 -1.24244 0
M  V30 39004 H 3896.21 4.04955 -0.969578 0
M  V30 39005 H 3898.8 5.10023 1.60564 0
M  V30 39006 H 3899.15 3.50933 2.23946 0
M  V30 39007 H 3899.68 3.93333 0.594446 0
M  V30 39008 H 3896.42 6.48041 -0.986079 0
M  V30 39009 H 3895.94 5.96306 0.646496 0
M  V30 39010 H 3897.62 6.46192 0.323334 0
M  V30 39011 N 3897.75 -0.0266943 1.57577 0
M  V30 39012 C 3899.16 -0.572991 1.7769 0
M  V30 39013 C 3899.51 -1.75468 0.877801 0
M  V30 39014 O 3898.64 -2.16276 0.0732537 0
M  V30 39015 C 3899.23 -1.04624 3.22241 0
M  V30 39016 C 3897.79 -1.53804 3.43542 0
M  V30 39017 C 3896.94 -0.477172 2.73164 0
M  V30 39018 H 3899.89 0.19953 1.57441 0
M  V30 39019 H 3899.91 -1.9135 3.28885 0
M  V30 39020 H 3899.42 -0.185979 3.87654 0
M  V30 39021 H 3897.52 -2.42007 2.83308 0
M  V30 39022 H 3897.64 -1.5839 4.52161 0
M  V30 39023 H 3896 -0.932751 2.37006 0
M  V30 39024 H 3896.78 0.373665 3.4126 0
M  V30 39025 N 3899.23 -1.54738 -0.299007 0
M  V30 39026 C 3900.48 -1.73769 -1.03192 0
M  V30 39027 C 3900.8 -0.527478 -1.8773 0
M  V30 39028 O 3900.07 0.458208 -1.90466 0
M  V30 39029 H 3898.65 -0.640754 -0.383984 0
M  V30 39030 H 3901.31 -1.92094 -0.329511 0
M  V30 39031 H 3900.4 -2.62777 -1.68388 0
M  V30 39032 N 3900.71 0.562296 -1.47228 0
M  V30 39033 C 3901.93 1.35006 -1.57443 0
M  V30 39034 C 3902.36 1.8677 -0.223255 0
M  V30 39035 O 3901.71 1.62693 0.800049 0
M  V30 39036 C 3901.76 2.49944 -2.59924 0
M  V30 39037 O 3900.87 3.52018 -2.14842 0
M  V30 39038 H 3900.21 0.401223 -0.529071 0
M  V30 39039 H 3902.74 0.68005 -1.92968 0
M  V30 39040 H 3902.75 2.96583 -2.80183 0
M  V30 39041 H 3901.42 2.11623 -3.58034 0
M  V30 39042 H 3900 3.11719 -2.04661 0
M  V30 39043 N 3902.18 1.35274 0.808615 0
M  V30 39044 C 3903.59 1.25479 1.38246 0
M  V30 39045 C 3903.95 -0.11368 1.9587 0
M  V30 39046 O 3903.07 -1.01456 1.91143 0
M  V30 39047 C 3903.67 2.27202 2.51326 0
M  V30 39048 C 3902.22 2.21153 3.04579 0
M  V30 39049 C 3901.37 2.13022 1.7753 0
M  V30 39050 H 3904.32 1.46432 0.611818 0
M  V30 39051 H 3904.34 1.89732 3.29821 0
M  V30 39052 H 3903.86 3.2679 2.09356 0
M  V30 39053 H 3901.96 1.24969 3.51018 0
M  V30 39054 H 3902.07 3.13029 3.62698 0
M  V30 39055 H 3900.43 1.58968 1.99001 0
M  V30 39056 H 3901.22 3.14467 1.37714 0
M  V30 39057 N 3903.66 -1.03053 1.19239 0
M  V30 39058 C 3904.89 -1.79794 1.01773 0
M  V30 39059 C 3905.3 -1.84091 -0.436706 0
M  V30 39060 O 3904.64 -1.28259 -1.31511 0
M  V30 39061 C 3904.71 -3.2631 1.50872 0
M  V30 39062 C 3904.37 -3.45651 2.98955 0
M  V30 39063 C 3905.37 -3.36007 3.96731 0
M  V30 39064 C 3903.05 -3.71919 3.37611 0
M  V30 39065 C 3905.05 -3.52351 5.31157 0
M  V30 39066 C 3902.73 -3.87909 4.72197 0
M  V30 39067 C 3903.73 -3.78127 5.68778 0
M  V30 39068 O 3903.42 -3.93647 7.00926 0
M  V30 39069 H 3903.15 -0.572715 0.359129 0
M  V30 39070 H 3905.7 -1.30699 1.58451 0
M  V30 39071 H 3903.93 -3.76421 0.885666 0
M  V30 39072 H 3905.62 -3.84641 1.29639 0
M  V30 39073 H 3906.39 -3.15666 3.68212 0
M  V30 39074 H 3902.27 -3.78627 2.62988 0
M  V30 39075 H 3905.81 -3.44632 6.06527 0
M  V30 39076 H 3901.71 -4.07747 5.00412 0
M  V30 39077 H 3902.48 -4.10748 7.07975 0
M  V30 39078 N 3905.14 -0.996042 -1.22134 0
M  V30 39079 C 3906.56 -0.70731 -1.43071 0
M  V30 39080 C 3906.76 0.720873 -1.88164 0
M  V30 39081 O 3905.81 1.49138 -2.0375 0
M  V30 39082 C 3907.13 -1.71555 -2.4696 0
M  V30 39083 C 3908.67 -1.73136 -2.60755 0
M  V30 39084 C 3909.15 -2.72831 -3.67868 0
M  V30 39085 N 3910.64 -2.71445 -3.75329 0
M  V30 39086 C 3911.37 -3.45249 -4.57811 0
M  V30 39087 N 3910.87 -4.28664 -5.4426 0
M  V30 39088 N 3912.66 -3.3394 -4.52151 0
M  V30 39089 H 3904.81 -1.91837 -0.911717 0
M  V30 39090 H 3907.08 -0.82752 -0.462508 0
M  V30 39091 H 3906.78 -2.73769 -2.20779 0
M  V30 39092 H 3906.66 -1.51095 -3.45616 0
M  V30 39093 H 3909.04 -0.716182 -2.86278 0
M  V30 39094 H 3909.13 -1.97666 -1.62364 0
M  V30 39095 H 3908.77 -3.745 -3.43092 0
M  V30 39096 H 3908.7 -2.4557 -4.65836 0
M  V30 39097 H 3911.19 -2.1092 -3.13562 0
M  V30 39098 H 3911.5 -4.81797 -6.04228 0
M  V30 39099 H 3909.85 -4.3275 -5.43832 0
M  V30 39100 H 3913.04 -2.68213 -3.8364 0
M  V30 39101 H 3913.21 -3.91717 -5.162 0
M  V30 39102 N 3906.62 1.37529 -0.769636 0
M  V30 39103 C 3907.86 2.00039 -0.333495 0
M  V30 39104 C 3908.2 1.60956 1.08658 0
M  V30 39105 O 3907.47 0.85474 1.74712 0
M  V30 39106 C 3907.76 3.56958 -0.474651 0
M  V30 39107 C 3907.61 4.05956 -1.93699 0
M  V30 39108 C 3908.93 4.3993 0.122352 0
M  V30 39109 H 3906.05 0.726723 -0.12265 0
M  V30 39110 H 3908.69 1.63238 -0.972284 0
M  V30 39111 H 3906.84 3.88438 0.0691669 0
M  V30 39112 H 3908.51 3.8505 -2.54035 0
M  V30 39113 H 3906.75 3.58228 -2.44654 0
M  V30 39114 H 3907.42 5.15004 -1.98683 0
M  V30 39115 H 3909.9 4.14695 -0.34163 0
M  V30 39116 H 3908.78 5.489 -0.00656193 0
M  V30 39117 H 3909.04 4.2515 1.21244 0
M  V30 39118 N 3908.1 0.520003 1.48774 0
M  V30 39119 C 3909.34 -0.0177411 2.02792 0
M  V30 39120 C 3909.68 -1.34875 1.39722 0
M  V30 39121 O 3908.95 -1.86869 0.539471 0
M  V30 39122 C 3909.23 -0.150292 3.59786 0
M  V30 39123 C 3909.09 1.20518 4.33354 0
M  V30 39124 C 3910.41 -0.881883 4.31174 0
M  V30 39125 H 3907.52 -0.00497339 0.736983 0
M  V30 39126 H 3910.17 0.6751 1.77602 0
M  V30 39127 H 3908.32 -0.740385 3.8138 0
M  V30 39128 H 3909.99 1.83562 4.23205 0
M  V30 39129 H 3908.23 1.78964 3.95164 0
M  V30 39130 H 3908.9 1.06554 5.41618 0
M  V30 39131 H 3911.38 -0.381229 4.1435 0
M  V30 39132 H 3910.25 -0.943506 5.4073 0
M  V30 39133 H 3910.52 -1.92994 3.97751 0
M  V30 39134 N 3909.57 -1.55529 0.254676 0
M  V30 39135 C 3910.82 -1.99425 -0.368442 0
M  V30 39136 C 3911.15 -1.14271 -1.57021 0
M  V30 39137 O 3910.43 -0.20792 -1.93385 0
M  V30 39138 C 3910.71 -3.51756 -0.770698 0
M  V30 39139 C 3910.56 -4.47672 0.437002 0
M  V30 39140 C 3911.88 -4.09405 -1.6148 0
M  V30 39141 H 3909 -0.725001 -0.132446 0
M  V30 39142 H 3911.64 -1.86606 0.357541 0
M  V30 39143 H 3909.79 -3.62811 -1.38926 0
M  V30 39144 H 3911.47 -4.48588 1.07549 0
M  V30 39145 H 3909.71 -4.20173 1.07874 0
M  V30 39146 H 3910.38 -5.51886 0.112093 0
M  V30 39147 H 3912.86 -4.01499 -1.09258 0
M  V30 39148 H 3911.73 -5.16242 -1.8651 0
M  V30 39149 H 3911.99 -3.58348 -2.58919 0
M  V30 39150 N 3911.05 0.0183372 -1.57589 0
M  V30 39151 C 3912.46 0.563559 -1.77991 0
M  V30 39152 C 3912.81 1.75 -0.887095 0
M  V30 39153 O 3911.94 2.16234 -0.0847223 0
M  V30 39154 C 3912.53 1.02914 -3.22791 0
M  V30 39155 C 3911.09 1.5198 -3.44353 0
M  V30 39156 C 3910.24 0.462679 -2.73413 0
M  V30 39157 H 3913.19 -0.207876 -1.57333 0
M  V30 39158 H 3913.21 1.89603 -3.29896 0
M  V30 39159 H 3912.72 0.165418 -3.87747 0
M  V30 39160 H 3910.83 2.40501 -2.84587 0
M  V30 39161 H 3910.94 1.5599 -4.52994 0
M  V30 39162 H 3909.3 0.920169 -2.37497 0
M  V30 39163 H 3910.09 -0.391758 -3.41057 0
M  V30 39164 O 3912.57 1.60696 0.160973 0
M  V30 39165 H 3913.26 1.76561 0.796616 0
M  V30 END ATOM
M  V30 BEGIN BOND
M  V30 END BOND
M  V30 END CTAB
M  END
$$$$
